drugbank_target|P00582 DNA polymerase I (DB00548; DB08432)
 OpenBabel12092119333D

  0  0  0     0  0            999 V3000
M  V30 BEGIN CTAB
M  V30 COUNTS 37207 39916 0 0 0
M  V30 BEGIN ATOM
M  V30 1 H -1.547 9.37743 -1.21644 0
M  V30 2 O -1.44 8.89599 -0.40059 0
M  V30 3 P 0 8.91 0 0
M  V30 4 O 0.22 10.1746 0.733838 0
M  V30 5 O 0.79 8.73346 -1.23964 0
M  V30 6 O 0.25 7.66872 0.971405 0
M  V30 7 C -0.69 7.42405 2.04668 0
M  V30 8 C 0.04 6.86059 3.24661 0
M  V30 9 O 0.25 5.42934 3.03695 0
M  V30 10 C 1.44 7.41287 3.50796 0
M  V30 11 O 1.83 7.27073 4.86816 0
M  V30 12 C 2.32 6.5273 2.63741 0
M  V30 13 C 1.61 5.1842 2.73198 0
M  V30 14 N 1.66 4.38762 1.4784 0
M  V30 15 H -1.178 8.36899 2.3252 0
M  V30 16 H -1.45 6.70391 1.71179 0
M  V30 17 H -0.582 7.03638 4.13219 0
M  V30 18 H 2.073 4.59931 3.54016 0
M  V30 19 H 2.353 6.88995 1.59871 0
M  V30 20 H 3.344 6.4684 3.0373 0
M  V30 21 H 1.51 8.47002 3.20749 0
M  V30 22 P 3.37998 7.20834 5.23717 0
M  V30 23 O 3.59998 7.79853 6.57286 0
M  V30 24 O 4.16998 7.79239 4.12957 0
M  V30 25 O 3.62998 5.63315 5.29344 0
M  V30 26 C 2.68998 4.80255 6.01876 0
M  V30 27 C 3.41998 3.64202 6.65911 0
M  V30 28 O 3.62998 2.60694 5.64732 0
M  V30 29 C 4.81998 3.93473 7.1943 0
M  V30 30 O 5.20998 3.02071 8.21205 0
M  V30 31 C 5.69998 3.73047 5.97036 0
M  V30 32 C 4.98998 2.58828 5.25741 0
M  V30 33 N 5.03998 2.68068 3.77503 0
M  V30 34 H 2.20098 5.40332 6.79951 0
M  V30 35 H 1.93098 4.41613 5.32378 0
M  V30 36 H 2.79798 3.26331 7.47797 0
M  V30 37 P 6.75996 2.75334 8.47391 0
M  V30 38 O 6.97996 2.44571 9.90142 0
M  V30 39 O 7.54996 3.87688 7.92115 0
M  V30 40 O 7.00996 1.4459 7.59357 0
M  V30 41 C 6.06996 0.347608 7.69215 0
M  V30 42 C 6.79996 -0.96767 7.52806 0
M  V30 43 O 7.00996 -1.21036 6.1011 0
M  V30 44 C 8.19996 -1.04544 8.13308 0
M  V30 45 O 8.58996 -2.38311 8.41922 0
M  V30 46 C 9.07996 -0.491279 7.02284 0
M  V30 47 C 8.36996 -0.996264 5.77469 0
M  V30 48 N 8.41996 -0.0501916 4.62973 0
M  V30 49 H 5.58096 0.374722 8.67691 0
M  V30 50 H 5.31096 0.443485 6.90277 0
M  V30 51 H 6.17796 -1.75537 7.96793 0
M  V30 52 P 10.1399 -2.75334 8.47391 0
M  V30 53 O 10.3599 -3.84128 9.44797 0
M  V30 54 O 10.9299 -1.51947 8.68712 0
M  V30 55 O 10.3899 -3.29363 6.99321 0
M  V30 56 C 9.44994 -4.24011 6.4274 0
M  V30 57 C 10.1799 -5.20775 5.52155 0
M  V30 58 O 10.3899 -4.56534 4.22446 0
M  V30 59 C 11.5799 -5.62629 5.96531 0
M  V30 60 O 11.9699 -6.87667 5.41053 0
M  V30 61 C 12.4599 -4.52537 5.39283 0
M  V30 62 C 11.7499 -4.20027 4.08623 0
M  V30 63 N 11.7999 -2.76189 3.71603 0
M  V30 64 H 8.96094 -4.797 7.24003 0
M  V30 65 H 8.69094 -3.69856 5.84513 0
M  V30 66 H 9.55794 -6.10356 5.41441 0
M  V30 67 P 13.5199 -7.20834 5.23717 0
M  V30 68 O 13.7399 -8.66104 5.38572 0
M  V30 69 O 14.3099 -6.33544 6.1349 0
M  V30 70 O 13.7699 -6.7751 3.72168 0
M  V30 71 C 12.8299 -7.20825 2.7076 0
M  V30 72 C 13.5599 -7.45864 1.40599 0
M  V30 73 O 13.7699 -6.17651 0.734225 0
M  V30 74 C 14.9599 -8.05808 1.51899 0
M  V30 75 O 15.3499 -8.74358 0.335205 0
M  V30 76 C 15.8399 -6.83093 1.70294 0
M  V30 77 C 15.1299 -5.79992 0.836974 0
M  V30 78 N 15.1799 -4.41864 1.38293 0
M  V30 79 H 12.3409 -8.13644 3.0377 0
M  V30 80 H 12.0709 -6.42788 2.55485 0
M  V30 81 H 12.9379 -8.12039 0.792769 0
M  V30 82 P 16.8999 -8.91 1.09116e-15 0
M  V30 83 O 17.1199 -10.1726 -0.733694 0
M  V30 84 O 17.6899 -8.73148 1.23936 0
M  V30 85 O 17.1499 -7.66872 -0.971405 0
M  V30 86 C 16.2099 -7.42309 -2.04641 0
M  V30 87 C 16.9399 -6.86059 -3.24661 0
M  V30 88 O 17.1499 -5.42847 -3.03646 0
M  V30 89 C 18.3399 -7.41196 -3.50753 0
M  V30 90 O 18.7299 -7.27073 -4.86816 0
M  V30 91 C 19.2199 -6.5273 -2.63741 0
M  V30 92 C 18.5099 -5.1842 -2.73198 0
M  V30 93 N 18.5599 -4.38762 -1.4784 0
M  V30 94 H 15.7209 -8.36803 -2.32493 0
M  V30 95 H 15.4509 -6.70197 -1.71129 0
M  V30 96 H 16.3179 -7.03551 -4.13168 0
M  V30 97 P 20.2799 -7.20834 -5.23717 0
M  V30 98 O 20.4999 -7.79853 -6.57286 0
M  V30 99 O 21.0699 -7.79239 -4.12957 0
M  V30 100 O 20.5299 -5.63315 -5.29344 0
M  V30 101 C 19.5899 -4.80255 -6.01876 0
M  V30 102 C 20.3199 -3.64202 -6.65911 0
M  V30 103 O 20.5299 -2.60694 -5.64732 0
M  V30 104 C 21.7199 -3.93473 -7.1943 0
M  V30 105 O 22.1099 -3.02071 -8.21205 0
M  V30 106 C 22.5999 -3.73047 -5.97036 0
M  V30 107 C 21.8899 -2.58828 -5.25741 0
M  V30 108 N 21.9399 -2.68068 -3.77503 0
M  V30 109 H 19.1009 -5.40332 -6.79951 0
M  V30 110 H 18.8309 -4.41613 -5.32378 0
M  V30 111 H 19.6979 -3.26331 -7.47797 0
M  V30 112 P 23.6599 -2.75334 -8.47391 0
M  V30 113 O 23.8799 -2.44571 -9.90142 0
M  V30 114 O 24.4499 -3.87688 -7.92115 0
M  V30 115 O 23.9099 -1.4459 -7.59357 0
M  V30 116 C 22.9699 -0.347608 -7.69215 0
M  V30 117 C 23.6999 0.96767 -7.52806 0
M  V30 118 O 23.9099 1.21036 -6.1011 0
M  V30 119 C 25.0999 1.04544 -8.13308 0
M  V30 120 O 25.4899 2.38311 -8.41922 0
M  V30 121 C 25.9799 0.491279 -7.02284 0
M  V30 122 C 25.2699 0.996264 -5.77469 0
M  V30 123 N 25.3199 0.0501916 -4.62973 0
M  V30 124 H 22.4809 -0.374722 -8.67691 0
M  V30 125 H 22.2109 -0.443485 -6.90277 0
M  V30 126 H 23.0779 1.75537 -7.96793 0
M  V30 127 P 27.0398 2.75334 -8.47391 0
M  V30 128 O 27.2598 3.84128 -9.44797 0
M  V30 129 O 27.8298 1.51947 -8.68712 0
M  V30 130 O 27.2898 3.29363 -6.99321 0
M  V30 131 C 26.3498 4.24011 -6.4274 0
M  V30 132 C 27.0798 5.20775 -5.52155 0
M  V30 133 O 27.2898 4.56534 -4.22446 0
M  V30 134 C 28.4798 5.62629 -5.96531 0
M  V30 135 O 28.8698 6.87667 -5.41053 0
M  V30 136 C 29.3598 4.52537 -5.39283 0
M  V30 137 C 28.6498 4.20027 -4.08623 0
M  V30 138 N 28.6998 2.76189 -3.71603 0
M  V30 139 H 25.8608 4.797 -7.24003 0
M  V30 140 H 25.5908 3.69856 -5.84513 0
M  V30 141 H 26.4578 6.10356 -5.41441 0
M  V30 142 P 30.4198 7.20834 -5.23717 0
M  V30 143 O 30.6398 8.66104 -5.38572 0
M  V30 144 O 31.2098 6.33544 -6.1349 0
M  V30 145 O 30.6698 6.7751 -3.72168 0
M  V30 146 C 29.7298 7.20825 -2.7076 0
M  V30 147 C 30.4598 7.45864 -1.40599 0
M  V30 148 O 30.6698 6.17651 -0.734225 0
M  V30 149 C 31.8598 8.05808 -1.51899 0
M  V30 150 O 32.2498 8.74358 -0.335205 0
M  V30 151 C 32.7398 6.83093 -1.70294 0
M  V30 152 C 32.0298 5.79992 -0.836974 0
M  V30 153 N 32.0798 4.41864 -1.38293 0
M  V30 154 H 29.2408 8.13644 -3.0377 0
M  V30 155 H 28.9708 6.42788 -2.55485 0
M  V30 156 H 29.8378 8.12039 -0.792769 0
M  V30 157 P 33.7998 8.91 -2.18232e-15 0
M  V30 158 O 34.0198 10.1726 0.733694 0
M  V30 159 O 34.5898 8.73148 -1.23936 0
M  V30 160 O 34.0498 7.66872 0.971405 0
M  V30 161 C 33.1098 7.42309 2.04641 0
M  V30 162 C 33.8398 6.86059 3.24661 0
M  V30 163 O 34.0498 5.42847 3.03646 0
M  V30 164 C 35.2398 7.41196 3.50753 0
M  V30 165 O 35.6298 7.27073 4.86816 0
M  V30 166 C 36.1198 6.5273 2.63741 0
M  V30 167 C 35.4098 5.1842 2.73198 0
M  V30 168 N 35.4598 4.38762 1.4784 0
M  V30 169 H 32.6208 8.36803 2.32493 0
M  V30 170 H 32.3508 6.70197 1.71129 0
M  V30 171 H 33.2178 7.03551 4.13168 0
M  V30 172 P 37.1798 7.20834 5.23717 0
M  V30 173 O 37.3998 7.79853 6.57286 0
M  V30 174 O 37.9698 7.79239 4.12957 0
M  V30 175 O 37.4298 5.63315 5.29344 0
M  V30 176 C 36.4898 4.80255 6.01876 0
M  V30 177 C 37.2198 3.64202 6.65911 0
M  V30 178 O 37.4298 2.60694 5.64732 0
M  V30 179 C 38.6198 3.93473 7.1943 0
M  V30 180 O 39.0098 3.02071 8.21205 0
M  V30 181 C 39.4998 3.73047 5.97036 0
M  V30 182 C 38.7898 2.58828 5.25741 0
M  V30 183 N 38.8398 2.68068 3.77503 0
M  V30 184 H 36.0008 5.40332 6.79951 0
M  V30 185 H 35.7308 4.41613 5.32378 0
M  V30 186 H 36.5978 3.26331 7.47797 0
M  V30 187 P 40.5598 2.75334 8.47391 0
M  V30 188 O 40.7798 2.44571 9.90142 0
M  V30 189 O 41.3498 3.87688 7.92115 0
M  V30 190 O 40.8098 1.4459 7.59357 0
M  V30 191 C 39.8698 0.347608 7.69215 0
M  V30 192 C 40.5998 -0.96767 7.52806 0
M  V30 193 O 40.8098 -1.21036 6.1011 0
M  V30 194 C 41.9998 -1.04544 8.13308 0
M  V30 195 O 42.3898 -2.38311 8.41922 0
M  V30 196 C 42.8798 -0.491279 7.02284 0
M  V30 197 C 42.1698 -0.996264 5.77469 0
M  V30 198 N 42.2198 -0.0501916 4.62973 0
M  V30 199 H 39.3808 0.374722 8.67691 0
M  V30 200 H 39.1108 0.443485 6.90277 0
M  V30 201 H 39.9778 -1.75537 7.96793 0
M  V30 202 P 43.9397 -2.75334 8.47391 0
M  V30 203 O 44.1597 -3.84128 9.44797 0
M  V30 204 O 44.7297 -1.51947 8.68712 0
M  V30 205 O 44.1897 -3.29363 6.99321 0
M  V30 206 C 43.2497 -4.24011 6.4274 0
M  V30 207 C 43.9797 -5.20775 5.52155 0
M  V30 208 O 44.1897 -4.56534 4.22446 0
M  V30 209 C 45.3797 -5.62629 5.96531 0
M  V30 210 O 45.7697 -6.87667 5.41053 0
M  V30 211 C 46.2597 -4.52537 5.39283 0
M  V30 212 C 45.5497 -4.20027 4.08623 0
M  V30 213 N 45.5997 -2.76189 3.71603 0
M  V30 214 C 45.5197 -1.64862 4.52822 0
M  V30 215 N 45.5997 -0.512671 3.88633 0
M  V30 216 C 45.7397 -0.888083 2.54977 0
M  V30 217 C 45.8697 -0.094668 1.38677 0
M  V30 218 O 45.8897 1.13053 1.28163 0
M  V30 219 N 45.9897 -0.890102 0.232633 0
M  V30 220 C 45.9897 -2.26958 0.21772 0
M  V30 221 N 46.1197 -2.84626 -0.97925 0
M  V30 222 N 45.8597 -3.0178 1.31033 0
M  V30 223 C 45.7397 -2.26781 2.43843 0
M  V30 224 H 42.7607 -4.797 7.24003 0
M  V30 225 H 42.4907 -3.69856 5.84513 0
M  V30 226 H 43.3577 -6.10356 5.41441 0
M  V30 227 H 46.0127 -4.79061 3.27488 0
M  V30 228 H 46.2917 -3.64906 6.05785 0
M  V30 229 H 47.2837 -4.8868 5.2125 0
M  V30 230 H 45.4497 -5.66726 7.06352 0
M  V30 231 H 45.4007 -1.71169 5.60966 0
M  V30 232 H 46.0827 -0.419134 -0.644739 0
M  V30 233 H 46.1197 -3.87332 -1.06098 0
M  V30 234 H 46.2207 -2.26417 -1.82483 0
M  V30 235 P 47.3197 -7.20834 5.23717 0
M  V30 236 O 47.5397 -8.66104 5.38572 0
M  V30 237 O 48.1097 -6.33544 6.1349 0
M  V30 238 O 47.5697 -6.7751 3.72168 0
M  V30 239 C 46.6297 -7.20825 2.7076 0
M  V30 240 C 47.3597 -7.45864 1.40599 0
M  V30 241 O 47.5697 -6.17651 0.734225 0
M  V30 242 C 48.7597 -8.05808 1.51899 0
M  V30 243 O 49.1497 -8.74358 0.335205 0
M  V30 244 C 49.6397 -6.83093 1.70294 0
M  V30 245 C 48.9297 -5.79992 0.836974 0
M  V30 246 N 48.9797 -4.41864 1.38293 0
M  V30 247 H 46.1407 -8.13644 3.0377 0
M  V30 248 H 45.8707 -6.42788 2.55485 0
M  V30 249 H 46.7377 -8.12039 0.792769 0
M  V30 250 P 50.6997 -8.91 3.27348e-15 0
M  V30 251 O 50.9197 -10.1726 -0.733694 0
M  V30 252 O 51.4897 -8.73148 1.23936 0
M  V30 253 O 50.9497 -7.66872 -0.971405 0
M  V30 254 C 50.0097 -7.42309 -2.04641 0
M  V30 255 C 50.7397 -6.86059 -3.24661 0
M  V30 256 O 50.9497 -5.42847 -3.03646 0
M  V30 257 C 52.1397 -7.41196 -3.50753 0
M  V30 258 O 52.5297 -7.27073 -4.86816 0
M  V30 259 C 53.0197 -6.5273 -2.63741 0
M  V30 260 C 52.3097 -5.1842 -2.73198 0
M  V30 261 N 52.3597 -4.38762 -1.4784 0
M  V30 262 H 49.5207 -8.36803 -2.32493 0
M  V30 263 H 49.2507 -6.70197 -1.71129 0
M  V30 264 H 50.1177 -7.03551 -4.13168 0
M  V30 265 P 54.0797 -7.20834 -5.23717 0
M  V30 266 O 54.2997 -7.7993 -6.57351 0
M  V30 267 O 54.8697 -7.79328 -4.13004 0
M  V30 268 O 54.3297 -5.63315 -5.29344 0
M  V30 269 C 53.3897 -4.80193 -6.01798 0
M  V30 270 C 54.1197 -3.64202 -6.65911 0
M  V30 271 O 54.3297 -2.60694 -5.64732 0
M  V30 272 C 55.5197 -3.93473 -7.1943 0
M  V30 273 O 55.9097 -3.02071 -8.21205 0
M  V30 274 C 56.3997 -3.73047 -5.97036 0
M  V30 275 C 55.6897 -2.58828 -5.25741 0
M  V30 276 N 55.7397 -2.6801 -3.77422 0
M  V30 277 C 55.8897 -1.50443 -3.07133 0
M  V30 278 O 55.9797 -0.419406 -3.61576 0
M  V30 279 N 55.9297 -1.6403 -1.69677 0
M  V30 280 C 55.8397 -2.81206 -0.986255 0
M  V30 281 C 55.6897 -3.99158 -1.80325 0
M  V30 282 C 55.6397 -3.89779 -3.1476 0
M  V30 283 H 52.8997 -5.40332 -6.79951 0
M  V30 284 H 52.6307 -4.41549 -5.32301 0
M  V30 285 H 53.4977 -3.26331 -7.47797 0
M  V30 286 H 56.1527 -1.6395 -5.56554 0
M  V30 287 H 56.4317 -4.63439 -5.3432 0
M  V30 288 H 57.4237 -3.44728 -6.25838 0
M  V30 289 H 55.5897 -4.96652 -7.57263 0
M  V30 290 H 55.5187 -4.80159 -3.74441 0
M  V30 291 P 57.4597 -2.75334 -8.47391 0
M  V30 292 O 57.6797 -2.44571 -9.90142 0
M  V30 293 O 58.2497 -3.87688 -7.92115 0
M  V30 294 O 57.7097 -1.4459 -7.59357 0
M  V30 295 C 56.7697 -0.347608 -7.69215 0
M  V30 296 C 57.4997 0.96767 -7.52806 0
M  V30 297 O 57.7097 1.21036 -6.1011 0
M  V30 298 C 58.8997 1.04544 -8.13308 0
M  V30 299 O 59.2897 2.38311 -8.41922 0
M  V30 300 C 59.7797 0.491279 -7.02284 0
M  V30 301 C 59.0697 0.996264 -5.77469 0
M  V30 302 N 59.1197 0.0501916 -4.62973 0
M  V30 303 H 56.2807 -0.374722 -8.67691 0
M  V30 304 H 56.0107 -0.443485 -6.90277 0
M  V30 305 H 56.8777 1.75537 -7.96793 0
M  V30 306 P 60.8396 2.75334 -8.47391 0
M  V30 307 O 61.0596 3.84166 -9.4489 0
M  V30 308 O 61.6296 1.51964 -8.6881 0
M  V30 309 O 61.0896 3.29363 -6.99321 0
M  V30 310 C 60.1496 4.23956 -6.42656 0
M  V30 311 C 60.8796 5.20775 -5.52155 0
M  V30 312 O 61.0896 4.56534 -4.22446 0
M  V30 313 C 62.2796 5.62629 -5.96531 0
M  V30 314 O 62.6696 6.87667 -5.41053 0
M  V30 315 C 63.1596 4.52537 -5.39283 0
M  V30 316 C 62.4496 4.20027 -4.08623 0
M  V30 317 N 62.4996 2.7613 -3.71522 0
M  V30 318 C 62.6496 2.45612 -2.37989 0
M  V30 319 O 62.7396 3.30919 -1.51621 0
M  V30 320 N 62.6896 1.10684 -2.08435 0
M  V30 321 C 62.5996 0.0690084 -2.9792 0
M  V30 322 C 62.4496 0.481522 -4.35345 0
M  V30 323 C 62.3996 1.78906 -4.67968 0
M  V30 324 H 59.6596 4.797 -7.24003 0
M  V30 325 H 59.3906 3.69802 -5.84429 0
M  V30 326 H 60.2576 6.10356 -5.41441 0
M  V30 327 H 62.9126 4.78651 -3.27911 0
M  V30 328 H 63.1916 3.64957 -6.05871 0
M  V30 329 H 64.1836 4.8868 -5.2125 0
M  V30 330 H 62.3496 5.66726 -7.06352 0
M  V30 331 H 62.2786 2.07737 -5.72367 0
M  V30 332 P 64.2196 7.20834 -5.23717 0
M  V30 333 O 64.4396 8.66104 -5.38572 0
M  V30 334 O 65.0096 6.33544 -6.1349 0
M  V30 335 O 64.4696 6.7751 -3.72168 0
M  V30 336 C 63.5296 7.20825 -2.7076 0
M  V30 337 C 64.2596 7.45864 -1.40599 0
M  V30 338 O 64.4696 6.17651 -0.734225 0
M  V30 339 C 65.6596 8.05808 -1.51899 0
M  V30 340 O 66.0496 8.74358 -0.335205 0
M  V30 341 C 66.5396 6.83093 -1.70294 0
M  V30 342 C 65.8296 5.79992 -0.836974 0
M  V30 343 N 65.8796 4.41864 -1.38293 0
M  V30 344 C 65.7996 3.99538 -2.69438 0
M  V30 345 N 65.8796 2.69909 -2.84277 0
M  V30 346 C 66.0196 2.21719 -1.5408 0
M  V30 347 C 66.1496 0.891712 -1.06628 0
M  V30 348 N 66.2696 0.856846 0.334985 0
M  V30 349 C 66.2696 1.9641 1.15789 0
M  V30 350 N 66.3996 1.72708 2.46522 0
M  V30 351 N 66.1396 3.21165 0.713741 0
M  V30 352 C 66.0196 3.26797 -0.639748 0
M  V30 353 H 63.0406 8.13644 -3.0377 0
M  V30 354 H 62.7706 6.42788 -2.55485 0
M  V30 355 H 63.6376 8.12039 -0.792769 0
M  V30 356 P 67.5996 8.91 -4.36464e-15 0
M  V30 357 O 67.8196 10.1746 0.733838 0
M  V30 358 O 68.3896 8.73346 -1.23964 0
M  V30 359 O 67.8496 7.66872 0.971405 0
M  V30 360 C 66.9096 7.42405 2.04668 0
M  V30 361 C 67.6396 6.86059 3.24661 0
M  V30 362 O 67.8496 5.42934 3.03695 0
M  V30 363 C 69.0396 7.41287 3.50796 0
M  V30 364 O 69.4296 7.27073 4.86816 0
M  V30 365 C 69.9196 6.5273 2.63741 0
M  V30 366 C 69.2096 5.1842 2.73198 0
M  V30 367 N 69.2596 4.38762 1.4784 0
M  V30 368 C 69.1796 4.83651 0.183876 0
M  V30 369 N 69.2496 3.88759 -0.699393 0
M  V30 370 C 69.3996 2.7404 0.0575568 0
M  V30 371 C 69.5296 1.37902 -0.293928 0
M  V30 372 N 69.5396 0.938021 -1.54797 0
M  V30 373 N 69.6496 0.491817 0.70549 0
M  V30 374 C 69.6396 0.931735 1.95979 0
M  V30 375 N 69.5196 2.16017 2.41481 0
M  V30 376 C 69.3996 3.02547 1.39121 0
M  V30 377 H 66.4216 8.36899 2.3252 0
M  V30 378 H 66.1496 6.70391 1.71179 0
M  V30 379 H 67.0176 7.03638 4.13219 0
M  V30 380 H 69.6726 4.59931 3.54016 0
M  V30 381 H 69.9526 6.88995 1.59871 0
M  V30 382 H 70.9436 6.4684 3.0373 0
M  V30 383 H 69.1096 8.47002 3.20749 0
M  V30 384 H 69.0686 5.8885 -0.0765548 0
M  V30 385 H 69.4496 1.60276 -2.32875 0
M  V30 386 H 69.6386 -0.0699355 -1.73859 0
M  V30 387 H 69.7466 0.165507 2.71897 0
M  V30 388 P 70.9796 7.20834 5.23717 0
M  V30 389 O 71.1996 7.7993 6.57351 0
M  V30 390 O 71.7696 7.79328 4.13004 0
M  V30 391 O 71.2296 5.63315 5.29344 0
M  V30 392 C 70.2896 4.80193 6.01798 0
M  V30 393 C 71.0196 3.64202 6.65911 0
M  V30 394 O 71.2296 2.60694 5.64732 0
M  V30 395 C 72.4196 3.93473 7.1943 0
M  V30 396 O 72.8096 3.02071 8.21205 0
M  V30 397 C 73.2996 3.73047 5.97036 0
M  V30 398 C 72.5896 2.58828 5.25741 0
M  V30 399 N 72.6396 2.6801 3.77422 0
M  V30 400 C 72.7896 1.50443 3.07133 0
M  V30 401 O 72.8796 0.419406 3.61576 0
M  V30 402 N 72.8296 1.6403 1.69677 0
M  V30 403 C 72.7396 2.81206 0.986255 0
M  V30 404 C 72.5896 3.99158 1.80325 0
M  V30 405 C 72.5396 3.89779 3.1476 0
M  V30 406 H 69.7996 5.40332 6.79951 0
M  V30 407 H 69.5306 4.41549 5.32301 0
M  V30 408 H 70.3976 3.26331 7.47797 0
M  V30 409 H 73.0526 1.6395 5.56554 0
M  V30 410 H 73.3316 4.63439 5.3432 0
M  V30 411 H 74.3236 3.44728 6.25838 0
M  V30 412 H 72.4896 4.96652 7.57263 0
M  V30 413 H 72.4186 4.80159 3.74441 0
M  V30 414 P 74.3596 2.75334 8.47391 0
M  V30 415 O 74.5796 2.44619 9.90336 0
M  V30 416 O 75.1496 3.87776 7.92294 0
M  V30 417 O 74.6096 1.4459 7.59357 0
M  V30 418 C 73.6696 0.347653 7.69315 0
M  V30 419 C 74.3996 -0.96767 7.52806 0
M  V30 420 O 74.6096 -1.21055 6.10208 0
M  V30 421 C 75.7996 -1.04557 8.13408 0
M  V30 422 O 76.1896 -2.38311 8.41922 0
M  V30 423 C 76.6796 -0.491279 7.02284 0
M  V30 424 C 75.9696 -0.996264 5.77469 0
M  V30 425 N 76.0196 -0.0501916 4.62973 0
M  V30 426 H 73.1816 0.374765 8.67791 0
M  V30 427 H 72.9096 0.443613 6.90476 0
M  V30 428 H 73.7776 -1.75559 7.96891 0
M  V30 429 H 76.4326 -1.94563 5.46818 0
M  V30 430 H 76.7126 0.608651 7.04676 0
M  V30 431 H 77.7036 -0.889796 7.09039 0
M  V30 432 H 75.8696 -0.433128 9.04664 0
M  V30 433 P 77.7395 -2.75334 8.47391 0
M  V30 434 O 77.9595 -3.84204 9.44982 0
M  V30 435 O 78.5295 -1.51982 8.68909 0
M  V30 436 O 77.9895 -3.29363 6.99321 0
M  V30 437 C 77.0495 -4.24066 6.42823 0
M  V30 438 C 77.7795 -5.20775 5.52155 0
M  V30 439 O 77.9895 -4.56607 4.22514 0
M  V30 440 C 79.1795 -5.62697 5.96604 0
M  V30 441 O 79.5695 -6.87667 5.41053 0
M  V30 442 C 80.0595 -4.52537 5.39283 0
M  V30 443 C 79.3495 -4.20027 4.08623 0
M  V30 444 N 79.3995 -2.76189 3.71603 0
M  V30 445 C 79.3195 -1.66944 4.54297 0
M  V30 446 N 79.3895 -0.536169 3.91344 0
M  V30 447 C 79.5395 -0.901569 2.58849 0
M  V30 448 C 79.6695 -0.146599 1.40236 0
M  V30 449 N 79.6795 1.18234 1.37046 0
M  V30 450 N 79.7895 -0.822941 0.249738 0
M  V30 451 C 79.7795 -2.15179 0.280525 0
M  V30 452 N 79.6595 -2.96414 1.30822 0
M  V30 453 C 79.5395 -2.25804 2.44748 0
M  V30 454 H 76.5615 -4.79756 7.24086 0
M  V30 455 H 76.2895 -3.69963 5.84682 0
M  V30 456 H 77.1575 -6.10431 5.41508 0
M  V30 457 H 79.8125 -4.78816 3.28024 0
M  V30 458 H 80.0925 -3.64957 6.05871 0
M  V30 459 H 81.0835 -4.88748 5.21323 0
M  V30 460 H 79.2495 -5.66789 7.0643 0
M  V30 461 H 79.2085 -1.74684 5.62396 0
M  V30 462 H 79.5895 1.71949 2.24394 0
M  V30 463 H 79.7785 1.67511 0.470742 0
M  V30 464 H 79.8865 -2.63704 -0.6828 0
M  V30 465 P 81.1195 -7.20834 5.23717 0
M  V30 466 O 81.3395 -8.66104 5.38572 0
M  V30 467 O 81.9095 -6.33544 6.1349 0
M  V30 468 O 81.3695 -6.7751 3.72168 0
M  V30 469 C 80.4295 -7.20825 2.7076 0
M  V30 470 C 81.1595 -7.45864 1.40599 0
M  V30 471 O 81.3695 -6.17651 0.734225 0
M  V30 472 C 82.5595 -8.05808 1.51899 0
M  V30 473 O 82.9495 -8.74358 0.335205 0
M  V30 474 C 83.4395 -6.83093 1.70294 0
M  V30 475 C 82.7295 -5.79992 0.836974 0
M  V30 476 N 82.7795 -4.41864 1.38293 0
M  V30 477 H 79.9405 -8.13644 3.0377 0
M  V30 478 H 79.6705 -6.42788 2.55485 0
M  V30 479 H 80.5375 -8.12039 0.792769 0
M  V30 480 P 84.4995 -8.91 5.4558e-15 0
M  V30 481 O 84.7195 -10.1726 -0.733694 0
M  V30 482 O 85.2895 -8.73148 1.23936 0
M  V30 483 O 84.7495 -7.66872 -0.971405 0
M  V30 484 C 83.8095 -7.42309 -2.04641 0
M  V30 485 C 84.5395 -6.86059 -3.24661 0
M  V30 486 O 84.7495 -5.42847 -3.03646 0
M  V30 487 C 85.9395 -7.41196 -3.50753 0
M  V30 488 O 86.3295 -7.27073 -4.86816 0
M  V30 489 C 86.8195 -6.5273 -2.63741 0
M  V30 490 C 86.1095 -5.1842 -2.73198 0
M  V30 491 N 86.1595 -4.38762 -1.4784 0
M  V30 492 H 83.3205 -8.36803 -2.32493 0
M  V30 493 H 83.0505 -6.70197 -1.71129 0
M  V30 494 H 83.9175 -7.03551 -4.13168 0
M  V30 495 P 87.8795 -7.20834 -5.23717 0
M  V30 496 O 88.0995 -7.79853 -6.57286 0
M  V30 497 O 88.6695 -7.79239 -4.12957 0
M  V30 498 O 88.1295 -5.63315 -5.29344 0
M  V30 499 C 87.1895 -4.80255 -6.01876 0
M  V30 500 C 87.9195 -3.64202 -6.65911 0
M  V30 501 O 88.1295 -2.60694 -5.64732 0
M  V30 502 C 89.3195 -3.93473 -7.1943 0
M  V30 503 O 89.7095 -3.02071 -8.21205 0
M  V30 504 C 90.1995 -3.73047 -5.97036 0
M  V30 505 C 89.4895 -2.58828 -5.25741 0
M  V30 506 N 89.5395 -2.68068 -3.77503 0
M  V30 507 H 86.7005 -5.40332 -6.79951 0
M  V30 508 H 86.4305 -4.41613 -5.32378 0
M  V30 509 H 87.2975 -3.26331 -7.47797 0
M  V30 510 P 91.2595 -2.75334 -8.47391 0
M  V30 511 O 91.4795 -2.44571 -9.90142 0
M  V30 512 O 92.0495 -3.87688 -7.92115 0
M  V30 513 O 91.5095 -1.4459 -7.59357 0
M  V30 514 C 90.5695 -0.347608 -7.69215 0
M  V30 515 C 91.2995 0.96767 -7.52806 0
M  V30 516 O 91.5095 1.21036 -6.1011 0
M  V30 517 C 92.6995 1.04544 -8.13308 0
M  V30 518 O 93.0895 2.38311 -8.41922 0
M  V30 519 C 93.5795 0.491279 -7.02284 0
M  V30 520 C 92.8695 0.996264 -5.77469 0
M  V30 521 N 92.9195 0.0501916 -4.62973 0
M  V30 522 H 90.0805 -0.374722 -8.67691 0
M  V30 523 H 89.8105 -0.443485 -6.90277 0
M  V30 524 H 90.6775 1.75537 -7.96793 0
M  V30 525 P 94.6394 2.75334 -8.47391 0
M  V30 526 O 94.8594 3.84166 -9.4489 0
M  V30 527 O 95.4294 1.51964 -8.6881 0
M  V30 528 O 94.8894 3.29363 -6.99321 0
M  V30 529 C 93.9494 4.23956 -6.42656 0
M  V30 530 C 94.6794 5.20775 -5.52155 0
M  V30 531 O 94.8894 4.56534 -4.22446 0
M  V30 532 C 96.0794 5.62629 -5.96531 0
M  V30 533 O 96.4694 6.87667 -5.41053 0
M  V30 534 C 96.9594 4.52537 -5.39283 0
M  V30 535 C 96.2494 4.20027 -4.08623 0
M  V30 536 N 96.2994 2.7613 -3.71522 0
M  V30 537 C 96.4494 2.45612 -2.37989 0
M  V30 538 O 96.5394 3.30919 -1.51621 0
M  V30 539 N 96.4894 1.10684 -2.08435 0
M  V30 540 C 96.3994 0.0690084 -2.9792 0
M  V30 541 O 96.4494 -1.10553 -2.59426 0
M  V30 542 C 96.2494 0.481522 -4.35345 0
M  V30 543 C 96.1394 -0.618778 -5.36443 0
M  V30 544 C 96.1994 1.78906 -4.67968 0
M  V30 545 H 93.4594 4.797 -7.24003 0
M  V30 546 H 93.1904 3.69802 -5.84429 0
M  V30 547 H 94.0574 6.10356 -5.41441 0
M  V30 548 H 96.7124 4.78651 -3.27911 0
M  V30 549 H 96.9914 3.64957 -6.05871 0
M  V30 550 H 97.9834 4.8868 -5.2125 0
M  V30 551 H 96.1494 5.66726 -7.06352 0
M  V30 552 H 96.0784 2.07737 -5.72367 0
M  V30 553 H 97.1084 -0.754375 -5.86871 0
M  V30 554 H 95.3714 -0.359721 -6.10641 0
M  V30 555 H 95.8594 -1.55533 -4.8581 0
M  V30 556 H 96.5954 0.862651 -1.12037 0
M  V30 557 P 98.0194 7.20834 -5.23717 0
M  V30 558 O 98.2394 8.66104 -5.38572 0
M  V30 559 O 98.8094 6.33544 -6.1349 0
M  V30 560 O 98.2694 6.7751 -3.72168 0
M  V30 561 C 97.3294 7.20825 -2.7076 0
M  V30 562 C 98.0594 7.45864 -1.40599 0
M  V30 563 O 98.2694 6.17651 -0.734225 0
M  V30 564 C 99.4594 8.05808 -1.51899 0
M  V30 565 O 99.8494 8.74358 -0.335205 0
M  V30 566 C 100.339 6.83093 -1.70294 0
M  V30 567 C 99.6294 5.79992 -0.836974 0
M  V30 568 N 99.6794 4.41864 -1.38293 0
M  V30 569 H 96.8404 8.13644 -3.0377 0
M  V30 570 H 96.5704 6.42788 -2.55485 0
M  V30 571 H 97.4374 8.12039 -0.792769 0
M  V30 572 P 101.399 8.91 -6.54696e-15 0
M  V30 573 O 101.619 10.1726 0.733694 0
M  V30 574 O 102.189 8.73148 -1.23936 0
M  V30 575 O 101.649 7.66872 0.971405 0
M  V30 576 C 100.709 7.42309 2.04641 0
M  V30 577 C 101.439 6.86059 3.24661 0
M  V30 578 O 101.649 5.42847 3.03646 0
M  V30 579 C 102.839 7.41196 3.50753 0
M  V30 580 O 103.229 7.27073 4.86816 0
M  V30 581 C 103.719 6.5273 2.63741 0
M  V30 582 C 103.009 5.1842 2.73198 0
M  V30 583 N 103.059 4.38762 1.4784 0
M  V30 584 H 100.22 8.36803 2.32493 0
M  V30 585 H 99.9504 6.70197 1.71129 0
M  V30 586 H 100.817 7.03551 4.13168 0
M  V30 587 P 104.779 7.20834 5.23717 0
M  V30 588 O 104.999 7.80006 6.57415 0
M  V30 589 O 105.569 7.79416 4.13051 0
M  V30 590 O 105.029 5.63315 5.29344 0
M  V30 591 C 104.089 4.80318 6.01954 0
M  V30 592 C 104.819 3.64202 6.65911 0
M  V30 593 O 105.029 2.60736 5.64823 0
M  V30 594 C 106.219 3.93521 7.19518 0
M  V30 595 O 106.609 3.02071 8.21205 0
M  V30 596 C 107.099 3.73047 5.97036 0
M  V30 597 C 106.389 2.58828 5.25741 0
M  V30 598 N 106.439 2.68068 3.77503 0
M  V30 599 C 106.359 3.80474 2.99159 0
M  V30 600 N 106.429 3.55622 1.71925 0
M  V30 601 C 106.579 2.1832 1.65733 0
M  V30 602 C 106.709 1.28842 0.572777 0
M  V30 603 N 106.719 1.66875 -0.70098 0
M  V30 604 N 106.829 -0.016788 0.859836 0
M  V30 605 C 106.819 -0.398145 2.13316 0
M  V30 606 N 106.699 0.328224 3.22333 0
M  V30 607 C 106.579 1.62992 2.90383 0
M  V30 608 H 103.601 5.40394 6.8003 0
M  V30 609 H 103.329 4.41741 5.32532 0
M  V30 610 H 104.197 3.26371 7.47889 0
M  V30 611 H 106.852 1.64007 5.56746 0
M  V30 612 H 107.132 4.63439 5.3432 0
M  V30 613 H 108.123 3.44776 6.25925 0
M  V30 614 H 106.289 4.96707 7.57347 0
M  V30 615 H 106.248 4.8089 3.39924 0
M  V30 616 H 106.629 2.66547 -0.941919 0
M  V30 617 H 106.818 0.965341 -1.44766 0
M  V30 618 H 106.926 -1.46427 2.29697 0
M  V30 619 P 108.159 2.75334 8.47391 0
M  V30 620 O 108.379 2.44571 9.90142 0
M  V30 621 O 108.949 3.87688 7.92115 0
M  V30 622 O 108.409 1.4459 7.59357 0
M  V30 623 C 107.469 0.347608 7.69215 0
M  V30 624 C 108.199 -0.96767 7.52806 0
M  V30 625 O 108.409 -1.21036 6.1011 0
M  V30 626 C 109.599 -1.04544 8.13308 0
M  V30 627 O 109.989 -2.38311 8.41922 0
M  V30 628 C 110.479 -0.491279 7.02284 0
M  V30 629 C 109.769 -0.996264 5.77469 0
M  V30 630 N 109.819 -0.0501916 4.62973 0
M  V30 631 C 109.739 1.32786 4.63244 0
M  V30 632 N 109.819 1.86957 3.44545 0
M  V30 633 C 109.959 0.780241 2.58481 0
M  V30 634 C 110.089 0.738536 1.17757 0
M  V30 635 O 110.109 1.66794 0.372349 0
M  V30 636 N 110.209 -0.58337 0.711393 0
M  V30 637 C 110.209 -1.70816 1.51017 0
M  V30 638 N 110.339 -2.87826 0.880757 0
M  V30 639 N 110.079 -1.67126 2.8339 0
M  V30 640 C 109.959 -0.401421 3.30572 0
M  V30 641 H 106.98 0.374722 8.67691 0
M  V30 642 H 106.71 0.443485 6.90277 0
M  V30 643 H 107.577 -1.75537 7.96793 0
M  V30 644 H 110.232 -1.95076 5.46529 0
M  V30 645 H 110.511 0.608565 7.04577 0
M  V30 646 H 111.503 -0.889672 7.08939 0
M  V30 647 H 109.669 -0.43308 9.04564 0
M  V30 648 H 109.62 1.91249 5.54442 0
M  V30 649 H 110.302 -0.718054 -0.275244 0
M  V30 650 H 110.339 -3.75721 1.41832 0
M  V30 651 H 110.44 -2.90436 -0.145468 0
M  V30 652 P 111.539 -2.75334 8.47391 0
M  V30 653 O 111.759 -3.84128 9.44797 0
M  V30 654 O 112.329 -1.51947 8.68712 0
M  V30 655 O 111.789 -3.29363 6.99321 0
M  V30 656 C 110.849 -4.24011 6.4274 0
M  V30 657 C 111.579 -5.20775 5.52155 0
M  V30 658 O 111.789 -4.56534 4.22446 0
M  V30 659 C 112.979 -5.62629 5.96531 0
M  V30 660 O 113.369 -6.87667 5.41053 0
M  V30 661 C 113.859 -4.52537 5.39283 0
M  V30 662 C 113.149 -4.20027 4.08623 0
M  V30 663 N 113.199 -2.76189 3.71603 0
M  V30 664 H 110.36 -4.797 7.24003 0
M  V30 665 H 110.09 -3.69856 5.84513 0
M  V30 666 H 110.957 -6.10356 5.41441 0
M  V30 667 P 114.919 -7.20834 5.23717 0
M  V30 668 O 115.139 -8.66104 5.38572 0
M  V30 669 O 115.709 -6.33544 6.1349 0
M  V30 670 O 115.169 -6.7751 3.72168 0
M  V30 671 C 114.229 -7.20825 2.7076 0
M  V30 672 C 114.959 -7.45864 1.40599 0
M  V30 673 O 115.169 -6.17651 0.734225 0
M  V30 674 C 116.359 -8.05808 1.51899 0
M  V30 675 O 116.749 -8.74358 0.335205 0
M  V30 676 C 117.239 -6.83093 1.70294 0
M  V30 677 C 116.529 -5.79992 0.836974 0
M  V30 678 N 116.579 -4.41864 1.38293 0
M  V30 679 H 113.74 -8.13644 3.0377 0
M  V30 680 H 113.47 -6.42788 2.55485 0
M  V30 681 H 114.337 -8.12039 0.792769 0
M  V30 682 P 118.299 -8.91 7.63812e-15 0
M  V30 683 O 118.519 -10.1736 -0.733766 0
M  V30 684 O 119.089 -8.73247 1.2395 0
M  V30 685 O 118.549 -7.66872 -0.971405 0
M  V30 686 C 117.609 -7.42212 -2.04614 0
M  V30 687 C 118.339 -6.86059 -3.24661 0
M  V30 688 O 118.549 -5.42847 -3.03646 0
M  V30 689 C 119.739 -7.41196 -3.50753 0
M  V30 690 O 120.129 -7.27073 -4.86816 0
M  V30 691 C 120.619 -6.5273 -2.63741 0
M  V30 692 C 119.909 -5.1842 -2.73198 0
M  V30 693 N 119.959 -4.38668 -1.47808 0
M  V30 694 C 120.109 -3.02239 -1.60048 0
M  V30 695 O 120.199 -2.46459 -2.67869 0
M  V30 696 N 120.149 -2.32436 -0.408571 0
M  V30 697 C 120.059 -2.85471 0.854993 0
M  V30 698 O 120.109 -2.12566 1.8531 0
M  V30 699 C 119.909 -4.28918 0.887335 0
M  V30 700 C 119.799 -4.91066 2.24619 0
M  V30 701 C 119.859 -5.00349 -0.255399 0
M  V30 702 H 117.119 -8.36803 -2.32493 0
M  V30 703 H 116.85 -6.701 -1.71105 0
M  V30 704 H 117.717 -7.03551 -4.13168 0
M  V30 705 H 120.372 -4.59773 -3.53894 0
M  V30 706 H 120.651 -6.88995 -1.59871 0
M  V30 707 H 121.643 -6.46749 -3.03687 0
M  V30 708 H 119.809 -8.46908 -3.20714 0
M  V30 709 H 119.738 -6.08548 -0.206986 0
M  V30 710 H 120.768 -5.34836 2.53099 0
M  V30 711 H 119.031 -5.69638 2.2291 0
M  V30 712 H 119.519 -4.13971 2.98044 0
M  V30 713 H 120.255 -1.33211 -0.474216 0
M  V30 714 P 121.679 -7.20834 -5.23717 0
M  V30 715 O 121.899 -7.79853 -6.57286 0
M  V30 716 O 122.469 -7.79239 -4.12957 0
M  V30 717 O 121.929 -5.63315 -5.29344 0
M  V30 718 C 120.989 -4.80255 -6.01876 0
M  V30 719 C 121.719 -3.64202 -6.65911 0
M  V30 720 O 121.929 -2.60694 -5.64732 0
M  V30 721 C 123.119 -3.93473 -7.1943 0
M  V30 722 O 123.509 -3.02071 -8.21205 0
M  V30 723 C 123.999 -3.73047 -5.97036 0
M  V30 724 C 123.289 -2.58828 -5.25741 0
M  V30 725 N 123.339 -2.68068 -3.77503 0
M  V30 726 C 123.259 -3.79715 -2.96723 0
M  V30 727 N 123.339 -3.5377 -1.68852 0
M  V30 728 C 123.479 -2.15054 -1.63254 0
M  V30 729 C 123.609 -1.28964 -0.518571 0
M  V30 730 O 123.629 -1.56826 0.679156 0
M  V30 731 N 123.729 0.0538097 -0.918425 0
M  V30 732 C 123.729 0.494275 -2.22578 0
M  V30 733 N 123.859 1.81086 -2.40434 0
M  V30 734 N 123.599 -0.313645 -3.27502 0
M  V30 735 C 123.479 -1.61829 -2.91033 0
M  V30 736 H 120.5 -5.40332 -6.79951 0
M  V30 737 H 120.23 -4.41613 -5.32378 0
M  V30 738 H 121.097 -3.26331 -7.47797 0
M  V30 739 H 123.752 -1.63422 -5.56814 0
M  V30 740 H 124.031 -4.63374 -5.34244 0
M  V30 741 H 125.023 -3.44728 -6.25838 0
M  V30 742 H 123.189 -4.96652 -7.57263 0
M  V30 743 H 123.14 -4.80617 -3.3614 0
M  V30 744 H 123.822 0.742702 -0.199384 0
M  V30 745 H 123.859 2.20598 -3.35588 0
M  V30 746 H 123.96 2.43518 -1.58945 0
M  V30 747 P 125.059 -2.75334 -8.47391 0
M  V30 748 O 125.279 -2.44619 -9.90336 0
M  V30 749 O 125.849 -3.87776 -7.92294 0
M  V30 750 O 125.309 -1.4459 -7.59357 0
M  V30 751 C 124.369 -0.347653 -7.69315 0
M  V30 752 C 125.099 0.96767 -7.52806 0
M  V30 753 O 125.309 1.21055 -6.10208 0
M  V30 754 C 126.499 1.04557 -8.13408 0
M  V30 755 O 126.889 2.38311 -8.41922 0
M  V30 756 C 127.379 0.491279 -7.02284 0
M  V30 757 C 126.669 0.996264 -5.77469 0
M  V30 758 N 126.719 0.0501916 -4.62973 0
M  V30 759 C 126.639 -1.31969 -4.65661 0
M  V30 760 N 126.709 -1.86649 -3.48119 0
M  V30 761 C 126.859 -0.792089 -2.62406 0
M  V30 762 C 126.989 -0.705684 -1.2207 0
M  V30 763 N 126.999 -1.76207 -0.413762 0
M  V30 764 N 127.109 0.518981 -0.685754 0
M  V30 765 C 127.099 1.57595 -1.49174 0
M  V30 766 N 126.979 1.62909 -2.80066 0
M  V30 767 C 126.859 0.388195 -3.3073 0
M  V30 768 H 123.881 -0.374765 -8.67791 0
M  V30 769 H 123.609 -0.443613 -6.90476 0
M  V30 770 H 124.477 1.75559 -7.96891 0
M  V30 771 H 127.132 1.94563 -5.46818 0
M  V30 772 H 127.412 -0.608651 -7.04676 0
M  V30 773 H 128.403 0.889796 -7.09039 0
M  V30 774 H 126.569 0.433128 -9.04664 0
M  V30 775 H 126.528 -1.89246 -5.57664 0
M  V30 776 H 126.909 -2.71005 -0.804694 0
M  V30 777 H 127.098 -1.63189 0.603768 0
M  V30 778 H 127.206 2.53475 -0.997614 0
M  V30 779 P 128.439 2.75334 -8.47391 0
M  V30 780 O 128.659 3.84204 -9.44982 0
M  V30 781 O 129.229 1.51982 -8.68909 0
M  V30 782 O 128.689 3.29363 -6.99321 0
M  V30 783 C 127.749 4.24066 -6.42823 0
M  V30 784 C 128.479 5.20775 -5.52155 0
M  V30 785 O 128.689 4.56607 -4.22514 0
M  V30 786 C 129.879 5.62697 -5.96604 0
M  V30 787 O 130.269 6.87667 -5.41053 0
M  V30 788 C 130.759 4.52537 -5.39283 0
M  V30 789 C 130.049 4.20027 -4.08623 0
M  V30 790 N 130.099 2.76189 -3.71603 0
M  V30 791 H 127.261 4.79756 -7.24086 0
M  V30 792 H 126.989 3.69963 -5.84682 0
M  V30 793 H 127.857 6.10431 -5.41508 0
M  V30 794 H 130.512 4.78816 -3.28024 0
M  V30 795 H 130.792 3.64957 -6.05871 0
M  V30 796 H 131.783 4.88748 -5.21323 0
M  V30 797 H 129.949 5.66789 -7.0643 0
M  V30 798 P 131.819 7.20834 -5.23717 0
M  V30 799 O 132.039 8.66189 -5.38625 0
M  V30 800 O 132.609 6.33615 -6.1356 0
M  V30 801 O 132.069 6.7751 -3.72168 0
M  V30 802 C 131.129 7.20732 -2.70725 0
M  V30 803 C 131.859 7.45864 -1.40599 0
M  V30 804 O 132.069 6.17651 -0.734225 0
M  V30 805 C 133.259 8.05808 -1.51899 0
M  V30 806 O 133.649 8.74358 -0.335205 0
M  V30 807 C 134.139 6.83093 -1.70294 0
M  V30 808 C 133.429 5.79992 -0.836974 0
M  V30 809 N 133.479 4.41769 -1.38263 0
M  V30 810 C 133.629 3.38591 -0.481702 0
M  V30 811 O 133.719 3.56839 0.718452 0
M  V30 812 N 133.669 2.1206 -1.03569 0
M  V30 813 C 133.579 1.80696 -2.36966 0
M  V30 814 C 133.429 2.94845 -3.23898 0
M  V30 815 C 133.379 4.19803 -2.73435 0
M  V30 816 H 130.639 8.13644 -3.0377 0
M  V30 817 H 130.37 6.42695 -2.55448 0
M  V30 818 H 131.237 8.12039 -0.792769 0
M  V30 819 H 133.892 5.79978 0.160587 0
M  V30 820 H 134.171 6.51379 -2.75643 0
M  V30 821 H 135.163 7.01734 -1.34462 0
M  V30 822 H 133.329 8.73674 -2.38337 0
M  V30 823 H 133.258 5.04492 -3.4095 0
M  V30 824 P 135.199 8.91 -8.72928e-15 0
M  V30 825 O 135.419 10.1726 0.733694 0
M  V30 826 O 135.989 8.73148 -1.23936 0
M  V30 827 O 135.449 7.66872 0.971405 0
M  V30 828 C 134.509 7.42309 2.04641 0
M  V30 829 C 135.239 6.86059 3.24661 0
M  V30 830 O 135.449 5.42847 3.03646 0
M  V30 831 C 136.639 7.41196 3.50753 0
M  V30 832 O 137.029 7.27073 4.86816 0
M  V30 833 C 137.519 6.5273 2.63741 0
M  V30 834 C 136.809 5.1842 2.73198 0
M  V30 835 N 136.859 4.38762 1.4784 0
M  V30 836 C 136.779 4.81605 0.168631 0
M  V30 837 N 136.859 3.85454 -0.713363 0
M  V30 838 C 136.999 2.6994 0.0566958 0
M  V30 839 C 137.129 1.34815 -0.338502 0
M  V30 840 O 137.149 0.869548 -1.47125 0
M  V30 841 N 137.249 0.496304 0.77465 0
M  V30 842 C 137.249 0.908403 2.09122 0
M  V30 843 N 137.379 -0.0517805 3.00955 0
M  V30 844 N 137.119 2.17875 2.46519 0
M  V30 845 C 136.999 3.01988 1.4033 0
M  V30 846 H 134.02 8.36803 2.32493 0
M  V30 847 H 133.75 6.70197 1.71129 0
M  V30 848 H 134.617 7.03551 4.13168 0
M  V30 849 H 137.272 4.59498 3.54415 0
M  V30 850 H 137.551 6.88898 1.59848 0
M  V30 851 H 138.543 6.46749 3.03687 0
M  V30 852 H 136.709 8.46908 3.20714 0
M  V30 853 H 136.66 5.86405 -0.105564 0
M  V30 854 H 137.342 -0.483664 0.597855 0
M  V30 855 H 137.379 0.187865 4.0116 0
M  V30 856 H 137.48 -1.03585 2.71726 0
M  V30 857 P 138.579 7.20834 5.23717 0
M  V30 858 O 138.799 7.79853 6.57286 0
M  V30 859 O 139.369 7.79239 4.12957 0
M  V30 860 O 138.829 5.63315 5.29344 0
M  V30 861 C 137.889 4.80255 6.01876 0
M  V30 862 C 138.619 3.64202 6.65911 0
M  V30 863 O 138.829 2.60694 5.64732 0
M  V30 864 C 140.019 3.93473 7.1943 0
M  V30 865 O 140.409 3.02071 8.21205 0
M  V30 866 C 140.899 3.73047 5.97036 0
M  V30 867 C 140.189 2.58828 5.25741 0
M  V30 868 N 140.239 2.68068 3.77503 0
M  V30 869 H 137.4 5.40332 6.79951 0
M  V30 870 H 137.13 4.41613 5.32378 0
M  V30 871 H 137.997 3.26331 7.47797 0
M  V30 872 P 141.959 2.75334 8.47391 0
M  V30 873 O 142.179 2.44571 9.90142 0
M  V30 874 O 142.749 3.87688 7.92115 0
M  V30 875 O 142.209 1.4459 7.59357 0
M  V30 876 C 141.269 0.347608 7.69215 0
M  V30 877 C 141.999 -0.96767 7.52806 0
M  V30 878 O 142.209 -1.21036 6.1011 0
M  V30 879 C 143.399 -1.04544 8.13308 0
M  V30 880 O 143.789 -2.38311 8.41922 0
M  V30 881 C 144.279 -0.491279 7.02284 0
M  V30 882 C 143.569 -0.996264 5.77469 0
M  V30 883 N 143.619 -0.0501916 4.62973 0
M  V30 884 H 140.78 0.374722 8.67691 0
M  V30 885 H 140.51 0.443485 6.90277 0
M  V30 886 H 141.377 -1.75537 7.96793 0
M  V30 887 P 145.339 -2.75334 8.47391 0
M  V30 888 O 145.559 -3.84128 9.44797 0
M  V30 889 O 146.129 -1.51947 8.68712 0
M  V30 890 O 145.589 -3.29363 6.99321 0
M  V30 891 C 144.649 -4.24011 6.4274 0
M  V30 892 C 145.379 -5.20775 5.52155 0
M  V30 893 O 145.589 -4.56534 4.22446 0
M  V30 894 C 146.779 -5.62629 5.96531 0
M  V30 895 O 147.169 -6.87667 5.41053 0
M  V30 896 C 147.659 -4.52537 5.39283 0
M  V30 897 C 146.949 -4.20027 4.08623 0
M  V30 898 N 146.999 -2.76189 3.71603 0
M  V30 899 H 144.16 -4.797 7.24003 0
M  V30 900 H 143.89 -3.69856 5.84513 0
M  V30 901 H 144.757 -6.10356 5.41441 0
M  V30 902 P 148.719 -7.20834 5.23717 0
M  V30 903 O 148.939 -8.66274 5.38678 0
M  V30 904 O 149.509 -6.33687 6.13629 0
M  V30 905 O 148.969 -6.7751 3.72168 0
M  V30 906 C 148.029 -7.20919 2.70795 0
M  V30 907 C 148.759 -7.45864 1.40599 0
M  V30 908 O 148.969 -6.17751 0.734343 0
M  V30 909 C 150.159 -8.05906 1.51917 0
M  V30 910 O 150.549 -8.74358 0.335205 0
M  V30 911 C 151.039 -6.83093 1.70294 0
M  V30 912 C 150.329 -5.79992 0.836974 0
M  V30 913 N 150.379 -4.41864 1.38293 0
M  V30 914 H 147.541 -8.13738 3.03804 0
M  V30 915 H 147.269 -6.42974 2.55559 0
M  V30 916 H 148.137 -8.12139 0.792866 0
M  V30 917 H 150.792 -5.80178 -0.160643 0
M  V30 918 H 151.072 -6.51379 2.75643 0
M  V30 919 H 152.063 -7.01832 1.3448 0
M  V30 920 H 150.229 -8.73771 2.38364 0
M  V30 921 P 152.099 -8.91 9.82044e-15 0
M  V30 922 O 152.319 -10.1726 -0.733694 0
M  V30 923 O 152.889 -8.73148 1.23936 0
M  V30 924 O 152.349 -7.66872 -0.971405 0
M  V30 925 C 151.409 -7.42309 -2.04641 0
M  V30 926 C 152.139 -6.86059 -3.24661 0
M  V30 927 O 152.349 -5.42847 -3.03646 0
M  V30 928 C 153.539 -7.41196 -3.50753 0
M  V30 929 O 153.929 -7.27073 -4.86816 0
M  V30 930 C 154.419 -6.5273 -2.63741 0
M  V30 931 C 153.709 -5.1842 -2.73198 0
M  V30 932 N 153.759 -4.38762 -1.4784 0
M  V30 933 H 150.92 -8.36803 -2.32493 0
M  V30 934 H 150.65 -6.70197 -1.71129 0
M  V30 935 H 151.517 -7.03551 -4.13168 0
M  V30 936 P 155.479 -7.20834 -5.23717 0
M  V30 937 O 155.699 -7.79853 -6.57286 0
M  V30 938 O 156.269 -7.79239 -4.12957 0
M  V30 939 O 155.729 -5.63315 -5.29344 0
M  V30 940 C 154.789 -4.80255 -6.01876 0
M  V30 941 C 155.519 -3.64202 -6.65911 0
M  V30 942 O 155.729 -2.60694 -5.64732 0
M  V30 943 C 156.919 -3.93473 -7.1943 0
M  V30 944 O 157.309 -3.02071 -8.21205 0
M  V30 945 C 157.799 -3.73047 -5.97036 0
M  V30 946 C 157.089 -2.58828 -5.25741 0
M  V30 947 N 157.139 -2.68068 -3.77503 0
M  V30 948 C 157.059 -3.79715 -2.96723 0
M  V30 949 N 157.139 -3.5377 -1.68852 0
M  V30 950 C 157.279 -2.15054 -1.63254 0
M  V30 951 C 157.409 -1.28964 -0.518571 0
M  V30 952 N 157.529 0.0538097 -0.918425 0
M  V30 953 C 157.529 0.494275 -2.22578 0
M  V30 954 N 157.659 1.81086 -2.40434 0
M  V30 955 N 157.399 -0.313645 -3.27502 0
M  V30 956 C 157.279 -1.61829 -2.91033 0
M  V30 957 H 154.3 -5.40332 -6.79951 0
M  V30 958 H 154.03 -4.41613 -5.32378 0
M  V30 959 H 154.897 -3.26331 -7.47797 0
M  V30 960 P 158.859 -2.75334 -8.47391 0
M  V30 961 O 159.079 -2.44571 -9.90142 0
M  V30 962 O 159.649 -3.87688 -7.92115 0
M  V30 963 O 159.109 -1.4459 -7.59357 0
M  V30 964 C 158.169 -0.347608 -7.69215 0
M  V30 965 C 158.899 0.96767 -7.52806 0
M  V30 966 O 159.109 1.21036 -6.1011 0
M  V30 967 C 160.299 1.04544 -8.13308 0
M  V30 968 O 160.689 2.38311 -8.41922 0
M  V30 969 C 161.179 0.491279 -7.02284 0
M  V30 970 C 160.469 0.996264 -5.77469 0
M  V30 971 N 160.519 0.0501916 -4.62973 0
M  V30 972 H 157.68 -0.374722 -8.67691 0
M  V30 973 H 157.41 -0.443485 -6.90277 0
M  V30 974 H 158.277 1.75537 -7.96793 0
M  V30 975 P 162.239 2.75334 -8.47391 0
M  V30 976 O 162.459 3.84128 -9.44797 0
M  V30 977 O 163.029 1.51947 -8.68712 0
M  V30 978 O 162.489 3.29363 -6.99321 0
M  V30 979 C 161.549 4.24011 -6.4274 0
M  V30 980 C 162.279 5.20775 -5.52155 0
M  V30 981 O 162.489 4.56534 -4.22446 0
M  V30 982 C 163.679 5.62629 -5.96531 0
M  V30 983 O 164.069 6.87667 -5.41053 0
M  V30 984 C 164.559 4.52537 -5.39283 0
M  V30 985 C 163.849 4.20027 -4.08623 0
M  V30 986 N 163.899 2.76189 -3.71603 0
M  V30 987 H 161.06 4.797 -7.24003 0
M  V30 988 H 160.79 3.69856 -5.84513 0
M  V30 989 H 161.657 6.10356 -5.41441 0
M  V30 990 P 165.619 7.20834 -5.23717 0
M  V30 991 O 165.839 8.66104 -5.38572 0
M  V30 992 O 166.409 6.33544 -6.1349 0
M  V30 993 O 165.869 6.7751 -3.72168 0
M  V30 994 C 164.929 7.20825 -2.7076 0
M  V30 995 C 165.659 7.45864 -1.40599 0
M  V30 996 O 165.869 6.17651 -0.734225 0
M  V30 997 C 167.059 8.05808 -1.51899 0
M  V30 998 O 167.449 8.74358 -0.335205 0
M  V30 999 C 167.939 6.83093 -1.70294 0
M  V30 1000 C 167.229 5.79992 -0.836974 0
M  V30 1001 N 167.279 4.41864 -1.38293 0
M  V30 1002 H 164.44 8.13644 -3.0377 0
M  V30 1003 H 164.17 6.42788 -2.55485 0
M  V30 1004 H 165.037 8.12039 -0.792769 0
M  V30 1005 P 168.999 8.91 -1.09116e-14 0
M  V30 1006 O 169.219 10.1746 0.733838 0
M  V30 1007 O 169.789 8.73346 -1.23964 0
M  V30 1008 O 169.249 7.66872 0.971405 0
M  V30 1009 C 168.309 7.42405 2.04668 0
M  V30 1010 C 169.039 6.86059 3.24661 0
M  V30 1011 O 169.249 5.42934 3.03695 0
M  V30 1012 C 170.439 7.41287 3.50796 0
M  V30 1013 O 170.829 7.27073 4.86816 0
M  V30 1014 C 171.319 6.5273 2.63741 0
M  V30 1015 C 170.609 5.1842 2.73198 0
M  V30 1016 N 170.659 4.38762 1.4784 0
M  V30 1017 H 167.821 8.36899 2.3252 0
M  V30 1018 H 167.549 6.70391 1.71179 0
M  V30 1019 H 168.417 7.03638 4.13219 0
M  V30 1020 H 171.072 4.59931 3.54016 0
M  V30 1021 H 171.352 6.88995 1.59871 0
M  V30 1022 H 172.343 6.4684 3.0373 0
M  V30 1023 H 170.509 8.47002 3.20749 0
M  V30 1024 P 172.379 7.20834 5.23717 0
M  V30 1025 O 172.599 7.79853 6.57286 0
M  V30 1026 O 173.169 7.79239 4.12957 0
M  V30 1027 O 172.629 5.63315 5.29344 0
M  V30 1028 C 171.689 4.80255 6.01876 0
M  V30 1029 C 172.419 3.64202 6.65911 0
M  V30 1030 O 172.629 2.60694 5.64732 0
M  V30 1031 C 173.819 3.93473 7.1943 0
M  V30 1032 O 174.209 3.02071 8.21205 0
M  V30 1033 C 174.699 3.73047 5.97036 0
M  V30 1034 C 173.989 2.58828 5.25741 0
M  V30 1035 N 174.039 2.68068 3.77503 0
M  V30 1036 H 171.2 5.40332 6.79951 0
M  V30 1037 H 170.93 4.41613 5.32378 0
M  V30 1038 H 171.797 3.26331 7.47797 0
M  V30 1039 P 175.759 2.75334 8.47391 0
M  V30 1040 O 175.979 2.44595 9.90239 0
M  V30 1041 O 176.549 3.87732 7.92204 0
M  V30 1042 O 176.009 1.4459 7.59357 0
M  V30 1043 C 175.069 0.347563 7.69115 0
M  V30 1044 C 175.799 -0.96767 7.52806 0
M  V30 1045 O 176.009 -1.21036 6.1011 0
M  V30 1046 C 177.199 -1.04544 8.13308 0
M  V30 1047 O 177.589 -2.38311 8.41922 0
M  V30 1048 C 178.079 -0.491279 7.02284 0
M  V30 1049 C 177.369 -0.996264 5.77469 0
M  V30 1050 N 177.419 -0.0501808 4.62873 0
M  V30 1051 C 177.569 -0.588177 3.36904 0
M  V30 1052 O 177.659 -1.78598 3.17173 0
M  V30 1053 N 177.609 0.329694 2.33686 0
M  V30 1054 C 177.519 1.6953 2.45079 0
M  V30 1055 C 177.369 2.16933 3.80505 0
M  V30 1056 C 177.319 1.30326 4.83752 0
M  V30 1057 H 174.579 0.374722 8.67691 0
M  V30 1058 H 174.31 0.443421 6.90177 0
M  V30 1059 H 175.177 -1.75537 7.96793 0
M  V30 1060 H 177.832 -1.94496 5.46629 0
M  V30 1061 H 178.111 0.608651 7.04676 0
M  V30 1062 H 179.103 -0.889672 7.08939 0
M  V30 1063 H 177.269 -0.43308 9.04564 0
M  V30 1064 H 177.198 1.68366 5.8516 0
M  V30 1065 P 179.139 -2.75334 8.47391 0
M  V30 1066 O 179.359 -3.84128 9.44797 0
M  V30 1067 O 179.929 -1.51947 8.68712 0
M  V30 1068 O 179.389 -3.29363 6.99321 0
M  V30 1069 C 178.449 -4.24011 6.4274 0
M  V30 1070 C 179.179 -5.20775 5.52155 0
M  V30 1071 O 179.389 -4.56534 4.22446 0
M  V30 1072 C 180.579 -5.62629 5.96531 0
M  V30 1073 O 180.969 -6.87667 5.41053 0
M  V30 1074 C 181.459 -4.52537 5.39283 0
M  V30 1075 C 180.749 -4.20027 4.08623 0
M  V30 1076 N 180.799 -2.76189 3.71603 0
M  V30 1077 H 177.96 -4.797 7.24003 0
M  V30 1078 H 177.69 -3.69856 5.84513 0
M  V30 1079 H 178.557 -6.10356 5.41441 0
M  V30 1080 P 182.519 -7.20834 5.23717 0
M  V30 1081 O 182.739 -8.66104 5.38572 0
M  V30 1082 O 183.309 -6.33544 6.1349 0
M  V30 1083 O 182.769 -6.7751 3.72168 0
M  V30 1084 C 181.829 -7.20825 2.7076 0
M  V30 1085 C 182.559 -7.45864 1.40599 0
M  V30 1086 O 182.769 -6.17651 0.734225 0
M  V30 1087 C 183.959 -8.05808 1.51899 0
M  V30 1088 O 184.349 -8.74358 0.335205 0
M  V30 1089 C 184.839 -6.83093 1.70294 0
M  V30 1090 C 184.129 -5.79992 0.836974 0
M  V30 1091 N 184.179 -4.41864 1.38293 0
M  V30 1092 H 181.34 -8.13644 3.0377 0
M  V30 1093 H 181.07 -6.42788 2.55485 0
M  V30 1094 H 181.937 -8.12039 0.792769 0
M  V30 1095 P 185.899 -8.91 -8.29613e-14 0
M  V30 1096 O 186.119 -10.1736 -0.733766 0
M  V30 1097 O 186.689 -8.73247 1.2395 0
M  V30 1098 O 186.149 -7.66872 -0.971405 0
M  V30 1099 C 185.209 -7.42212 -2.04614 0
M  V30 1100 C 185.939 -6.86059 -3.24661 0
M  V30 1101 O 186.149 -5.42847 -3.03646 0
M  V30 1102 C 187.339 -7.41196 -3.50753 0
M  V30 1103 O 187.729 -7.27073 -4.86816 0
M  V30 1104 C 188.219 -6.5273 -2.63741 0
M  V30 1105 C 187.509 -5.1842 -2.73198 0
M  V30 1106 N 187.559 -4.38668 -1.47808 0
M  V30 1107 C 187.709 -3.02239 -1.60048 0
M  V30 1108 O 187.799 -2.46459 -2.67869 0
M  V30 1109 N 187.749 -2.32436 -0.408571 0
M  V30 1110 C 187.659 -2.85471 0.854993 0
M  V30 1111 O 187.709 -2.12566 1.8531 0
M  V30 1112 C 187.509 -4.28918 0.887335 0
M  V30 1113 C 187.399 -4.91066 2.24619 0
M  V30 1114 C 187.459 -5.00349 -0.255399 0
M  V30 1115 H 184.719 -8.36803 -2.32493 0
M  V30 1116 H 184.45 -6.701 -1.71105 0
M  V30 1117 H 185.317 -7.03551 -4.13168 0
M  V30 1118 H 187.972 -4.59773 -3.53894 0
M  V30 1119 H 188.251 -6.88995 -1.59871 0
M  V30 1120 H 189.243 -6.46749 -3.03687 0
M  V30 1121 H 187.409 -8.46908 -3.20714 0
M  V30 1122 H 187.338 -6.08548 -0.206986 0
M  V30 1123 H 188.368 -5.34836 2.53099 0
M  V30 1124 H 186.631 -5.69638 2.2291 0
M  V30 1125 H 187.119 -4.13971 2.98044 0
M  V30 1126 H 187.855 -1.33211 -0.474216 0
M  V30 1127 P 189.279 -7.20834 -5.23717 0
M  V30 1128 O 189.499 -7.80006 -6.57415 0
M  V30 1129 O 190.069 -7.79416 -4.13051 0
M  V30 1130 O 189.529 -5.63315 -5.29344 0
M  V30 1131 C 188.589 -4.80318 -6.01954 0
M  V30 1132 C 189.319 -3.64202 -6.65911 0
M  V30 1133 O 189.529 -2.60736 -5.64823 0
M  V30 1134 C 190.719 -3.93521 -7.19518 0
M  V30 1135 O 191.109 -3.02071 -8.21205 0
M  V30 1136 C 191.599 -3.73047 -5.97036 0
M  V30 1137 C 190.889 -2.58828 -5.25741 0
M  V30 1138 N 190.939 -2.68068 -3.77503 0
M  V30 1139 H 188.101 -5.40394 -6.8003 0
M  V30 1140 H 187.829 -4.41741 -5.32532 0
M  V30 1141 H 188.697 -3.26371 -7.47889 0
M  V30 1142 H 191.352 -1.64007 -5.56746 0
M  V30 1143 H 191.632 -4.63439 -5.3432 0
M  V30 1144 H 192.623 -3.44776 -6.25925 0
M  V30 1145 H 190.789 -4.96707 -7.57347 0
M  V30 1146 P 192.659 -2.75334 -8.47391 0
M  V30 1147 O 192.879 -2.44619 -9.90336 0
M  V30 1148 O 193.449 -3.87776 -7.92294 0
M  V30 1149 O 192.909 -1.4459 -7.59357 0
M  V30 1150 C 191.969 -0.347653 -7.69315 0
M  V30 1151 C 192.699 0.96767 -7.52806 0
M  V30 1152 O 192.909 1.21055 -6.10208 0
M  V30 1153 C 194.099 1.04557 -8.13408 0
M  V30 1154 O 194.489 2.38311 -8.41922 0
M  V30 1155 C 194.979 0.491279 -7.02284 0
M  V30 1156 C 194.269 0.996264 -5.77469 0
M  V30 1157 N 194.319 0.0501916 -4.62973 0
M  V30 1158 C 194.239 -1.31969 -4.65661 0
M  V30 1159 N 194.309 -1.86649 -3.48119 0
M  V30 1160 C 194.459 -0.792089 -2.62406 0
M  V30 1161 C 194.589 -0.705684 -1.2207 0
M  V30 1162 N 194.599 -1.76207 -0.413762 0
M  V30 1163 N 194.709 0.518981 -0.685754 0
M  V30 1164 C 194.699 1.57595 -1.49174 0
M  V30 1165 N 194.579 1.62909 -2.80066 0
M  V30 1166 C 194.459 0.388195 -3.3073 0
M  V30 1167 H 191.481 -0.374765 -8.67791 0
M  V30 1168 H 191.209 -0.443613 -6.90476 0
M  V30 1169 H 192.077 1.75559 -7.96891 0
M  V30 1170 H 194.732 1.94563 -5.46818 0
M  V30 1171 H 195.012 -0.608651 -7.04676 0
M  V30 1172 H 196.003 0.889796 -7.09039 0
M  V30 1173 H 194.169 0.433128 -9.04664 0
M  V30 1174 H 194.128 -1.89246 -5.57664 0
M  V30 1175 H 194.509 -2.71005 -0.804694 0
M  V30 1176 H 194.698 -1.63189 0.603768 0
M  V30 1177 H 194.806 2.53475 -0.997614 0
M  V30 1178 P 196.039 2.75334 -8.47391 0
M  V30 1179 O 196.259 3.84204 -9.44982 0
M  V30 1180 O 196.829 1.51982 -8.68909 0
M  V30 1181 O 196.289 3.29363 -6.99321 0
M  V30 1182 C 195.349 4.24066 -6.42823 0
M  V30 1183 C 196.079 5.20775 -5.52155 0
M  V30 1184 O 196.289 4.56607 -4.22514 0
M  V30 1185 C 197.479 5.62697 -5.96604 0
M  V30 1186 O 197.869 6.87667 -5.41053 0
M  V30 1187 C 198.359 4.52537 -5.39283 0
M  V30 1188 C 197.649 4.20027 -4.08623 0
M  V30 1189 N 197.699 2.76189 -3.71603 0
M  V30 1190 C 197.619 1.66944 -4.54297 0
M  V30 1191 N 197.689 0.536169 -3.91344 0
M  V30 1192 C 197.839 0.901569 -2.58849 0
M  V30 1193 C 197.969 0.146599 -1.40236 0
M  V30 1194 N 197.979 -1.18234 -1.37046 0
M  V30 1195 N 198.089 0.822941 -0.249738 0
M  V30 1196 C 198.079 2.15179 -0.280525 0
M  V30 1197 N 197.959 2.96414 -1.30822 0
M  V30 1198 C 197.839 2.25804 -2.44748 0
M  V30 1199 H 194.861 4.79756 -7.24086 0
M  V30 1200 H 194.589 3.69963 -5.84682 0
M  V30 1201 H 195.457 6.10431 -5.41508 0
M  V30 1202 H 198.112 4.78816 -3.28024 0
M  V30 1203 H 198.392 3.64957 -6.05871 0
M  V30 1204 H 199.383 4.88748 -5.21323 0
M  V30 1205 H 197.549 5.66789 -7.0643 0
M  V30 1206 H 197.508 1.74684 -5.62396 0
M  V30 1207 H 197.889 -1.71949 -2.24394 0
M  V30 1208 H 198.078 -1.67511 -0.470742 0
M  V30 1209 H 198.186 2.63704 0.6828 0
M  V30 1210 P 199.419 7.20834 -5.23717 0
M  V30 1211 O 199.639 8.66104 -5.38572 0
M  V30 1212 O 200.209 6.33544 -6.1349 0
M  V30 1213 O 199.669 6.7751 -3.72168 0
M  V30 1214 C 198.729 7.20825 -2.7076 0
M  V30 1215 C 199.459 7.45864 -1.40599 0
M  V30 1216 O 199.669 6.17651 -0.734225 0
M  V30 1217 C 200.859 8.05808 -1.51899 0
M  V30 1218 O 201.249 8.74358 -0.335205 0
M  V30 1219 C 201.739 6.83093 -1.70294 0
M  V30 1220 C 201.029 5.79992 -0.836974 0
M  V30 1221 N 201.079 4.41864 -1.38293 0
M  V30 1222 H 198.24 8.13644 -3.0377 0
M  V30 1223 H 197.97 6.42788 -2.55485 0
M  V30 1224 H 198.837 8.12039 -0.792769 0
M  V30 1225 P 202.799 8.91 2.40144e-13 0
M  V30 1226 O 203.019 10.1726 0.733694 0
M  V30 1227 O 203.589 8.73148 -1.23936 0
M  V30 1228 O 203.049 7.66872 0.971405 0
M  V30 1229 C 202.109 7.42309 2.04641 0
M  V30 1230 C 202.839 6.86059 3.24661 0
M  V30 1231 O 203.049 5.42847 3.03646 0
M  V30 1232 C 204.239 7.41196 3.50753 0
M  V30 1233 O 204.629 7.27073 4.86816 0
M  V30 1234 C 205.119 6.5273 2.63741 0
M  V30 1235 C 204.409 5.1842 2.73198 0
M  V30 1236 N 204.459 4.38762 1.4784 0
M  V30 1237 H 201.62 8.36803 2.32493 0
M  V30 1238 H 201.35 6.70197 1.71129 0
M  V30 1239 H 202.217 7.03551 4.13168 0
M  V30 1240 P 206.179 7.20834 5.23717 0
M  V30 1241 O 206.399 7.79853 6.57286 0
M  V30 1242 O 206.969 7.79239 4.12957 0
M  V30 1243 O 206.429 5.63315 5.29344 0
M  V30 1244 C 205.489 4.80255 6.01876 0
M  V30 1245 C 206.219 3.64202 6.65911 0
M  V30 1246 O 206.429 2.60694 5.64732 0
M  V30 1247 C 207.619 3.93473 7.1943 0
M  V30 1248 O 208.009 3.02071 8.21205 0
M  V30 1249 C 208.499 3.73047 5.97036 0
M  V30 1250 C 207.789 2.58828 5.25741 0
M  V30 1251 N 207.839 2.68068 3.77503 0
M  V30 1252 H 205 5.40332 6.79951 0
M  V30 1253 H 204.73 4.41613 5.32378 0
M  V30 1254 H 205.597 3.26331 7.47797 0
M  V30 1255 P 209.559 2.75334 8.47391 0
M  V30 1256 O 209.779 2.44571 9.90142 0
M  V30 1257 O 210.349 3.87688 7.92115 0
M  V30 1258 O 209.809 1.4459 7.59357 0
M  V30 1259 C 208.869 0.347608 7.69215 0
M  V30 1260 C 209.599 -0.96767 7.52806 0
M  V30 1261 O 209.809 -1.21036 6.1011 0
M  V30 1262 C 210.999 -1.04544 8.13308 0
M  V30 1263 O 211.389 -2.38311 8.41922 0
M  V30 1264 C 211.879 -0.491279 7.02284 0
M  V30 1265 C 211.169 -0.996264 5.77469 0
M  V30 1266 N 211.219 -0.0501916 4.62973 0
M  V30 1267 H 208.38 0.374722 8.67691 0
M  V30 1268 H 208.11 0.443485 6.90277 0
M  V30 1269 H 208.977 -1.75537 7.96793 0
M  V30 1270 P 212.939 -2.75334 8.47391 0
M  V30 1271 O 213.159 -3.84204 9.44982 0
M  V30 1272 O 213.729 -1.51982 8.68909 0
M  V30 1273 O 213.189 -3.29363 6.99321 0
M  V30 1274 C 212.249 -4.24066 6.42823 0
M  V30 1275 C 212.979 -5.20775 5.52155 0
M  V30 1276 O 213.189 -4.56607 4.22514 0
M  V30 1277 C 214.379 -5.62697 5.96604 0
M  V30 1278 O 214.769 -6.87667 5.41053 0
M  V30 1279 C 215.259 -4.52537 5.39283 0
M  V30 1280 C 214.549 -4.20027 4.08623 0
M  V30 1281 N 214.599 -2.76189 3.71603 0
M  V30 1282 C 214.519 -1.66944 4.54297 0
M  V30 1283 N 214.589 -0.536169 3.91344 0
M  V30 1284 C 214.739 -0.901569 2.58849 0
M  V30 1285 C 214.869 -0.146599 1.40236 0
M  V30 1286 N 214.879 1.18234 1.37046 0
M  V30 1287 N 214.989 -0.822941 0.249738 0
M  V30 1288 C 214.979 -2.15179 0.280525 0
M  V30 1289 N 214.859 -2.96414 1.30822 0
M  V30 1290 C 214.739 -2.25804 2.44748 0
M  V30 1291 H 211.761 -4.79756 7.24086 0
M  V30 1292 H 211.489 -3.69963 5.84682 0
M  V30 1293 H 212.357 -6.10431 5.41508 0
M  V30 1294 H 215.012 -4.78816 3.28024 0
M  V30 1295 H 215.292 -3.64957 6.05871 0
M  V30 1296 H 216.283 -4.88748 5.21323 0
M  V30 1297 H 214.449 -5.66789 7.0643 0
M  V30 1298 H 214.408 -1.74684 5.62396 0
M  V30 1299 H 214.789 1.71949 2.24394 0
M  V30 1300 H 214.978 1.67511 0.470742 0
M  V30 1301 H 215.086 -2.63704 -0.6828 0
M  V30 1302 P 216.319 -7.20834 5.23717 0
M  V30 1303 O 216.539 -8.66104 5.38572 0
M  V30 1304 O 217.109 -6.33544 6.1349 0
M  V30 1305 O 216.569 -6.7751 3.72168 0
M  V30 1306 C 215.629 -7.20825 2.7076 0
M  V30 1307 C 216.359 -7.45864 1.40599 0
M  V30 1308 O 216.569 -6.17651 0.734225 0
M  V30 1309 C 217.759 -8.05808 1.51899 0
M  V30 1310 O 218.149 -8.74358 0.335205 0
M  V30 1311 C 218.639 -6.83093 1.70294 0
M  V30 1312 C 217.929 -5.79992 0.836974 0
M  V30 1313 N 217.979 -4.41864 1.38293 0
M  V30 1314 H 215.14 -8.13644 3.0377 0
M  V30 1315 H 214.87 -6.42788 2.55485 0
M  V30 1316 H 215.737 -8.12039 0.792769 0
M  V30 1317 P 219.699 -8.91 -3.97326e-13 0
M  V30 1318 O 219.919 -10.1726 -0.733694 0
M  V30 1319 O 220.489 -8.73148 1.23936 0
M  V30 1320 O 219.949 -7.66872 -0.971405 0
M  V30 1321 C 219.009 -7.42309 -2.04641 0
M  V30 1322 C 219.739 -6.86059 -3.24661 0
M  V30 1323 O 219.949 -5.42847 -3.03646 0
M  V30 1324 C 221.139 -7.41196 -3.50753 0
M  V30 1325 O 221.529 -7.27073 -4.86816 0
M  V30 1326 C 222.019 -6.5273 -2.63741 0
M  V30 1327 C 221.309 -5.1842 -2.73198 0
M  V30 1328 N 221.359 -4.38762 -1.4784 0
M  V30 1329 C 221.279 -4.81605 -0.168631 0
M  V30 1330 N 221.359 -3.85454 0.713363 0
M  V30 1331 C 221.499 -2.6994 -0.0566958 0
M  V30 1332 C 221.629 -1.34815 0.338502 0
M  V30 1333 O 221.649 -0.869548 1.47125 0
M  V30 1334 N 221.749 -0.496304 -0.77465 0
M  V30 1335 C 221.749 -0.908403 -2.09122 0
M  V30 1336 N 221.879 0.0517805 -3.00955 0
M  V30 1337 N 221.619 -2.17875 -2.46519 0
M  V30 1338 C 221.499 -3.01988 -1.4033 0
M  V30 1339 H 218.52 -8.36803 -2.32493 0
M  V30 1340 H 218.25 -6.70197 -1.71129 0
M  V30 1341 H 219.117 -7.03551 -4.13168 0
M  V30 1342 H 221.772 -4.59498 -3.54415 0
M  V30 1343 H 222.051 -6.88898 -1.59848 0
M  V30 1344 H 223.043 -6.46749 -3.03687 0
M  V30 1345 H 221.209 -8.46908 -3.20714 0
M  V30 1346 H 221.16 -5.86405 0.105564 0
M  V30 1347 H 221.842 0.483664 -0.597855 0
M  V30 1348 H 221.879 -0.187865 -4.0116 0
M  V30 1349 H 221.98 1.03585 -2.71726 0
M  V30 1350 P 223.079 -7.20834 -5.23717 0
M  V30 1351 O 223.299 -7.79853 -6.57286 0
M  V30 1352 O 223.869 -7.79239 -4.12957 0
M  V30 1353 O 223.329 -5.63315 -5.29344 0
M  V30 1354 C 222.389 -4.80255 -6.01876 0
M  V30 1355 C 223.119 -3.64202 -6.65911 0
M  V30 1356 O 223.329 -2.60694 -5.64732 0
M  V30 1357 C 224.519 -3.93473 -7.1943 0
M  V30 1358 O 224.909 -3.02071 -8.21205 0
M  V30 1359 C 225.399 -3.73047 -5.97036 0
M  V30 1360 C 224.689 -2.58828 -5.25741 0
M  V30 1361 N 224.739 -2.68068 -3.77503 0
M  V30 1362 H 221.9 -5.40332 -6.79951 0
M  V30 1363 H 221.63 -4.41613 -5.32378 0
M  V30 1364 H 222.497 -3.26331 -7.47797 0
M  V30 1365 P 226.459 -2.75334 -8.47391 0
M  V30 1366 O 226.679 -2.44595 -9.90239 0
M  V30 1367 O 227.249 -3.87732 -7.92204 0
M  V30 1368 O 226.709 -1.4459 -7.59357 0
M  V30 1369 C 225.769 -0.347563 -7.69115 0
M  V30 1370 C 226.499 0.96767 -7.52806 0
M  V30 1371 O 226.709 1.21036 -6.1011 0
M  V30 1372 C 227.899 1.04544 -8.13308 0
M  V30 1373 O 228.289 2.38311 -8.41922 0
M  V30 1374 C 228.779 0.491279 -7.02284 0
M  V30 1375 C 228.069 0.996264 -5.77469 0
M  V30 1376 N 228.119 0.0501808 -4.62873 0
M  V30 1377 C 228.269 0.588177 -3.36904 0
M  V30 1378 O 228.359 1.78598 -3.17173 0
M  V30 1379 N 228.309 -0.329694 -2.33686 0
M  V30 1380 C 228.219 -1.6953 -2.45079 0
M  V30 1381 O 228.269 -2.41926 -1.44899 0
M  V30 1382 C 228.069 -2.16933 -3.80505 0
M  V30 1383 C 227.959 -3.65373 -3.97621 0
M  V30 1384 C 228.019 -1.30326 -4.83752 0
M  V30 1385 H 225.279 -0.374722 -8.67691 0
M  V30 1386 H 225.01 -0.443421 -6.90177 0
M  V30 1387 H 225.877 1.75537 -7.96793 0
M  V30 1388 H 228.532 1.94496 -5.46629 0
M  V30 1389 H 228.811 -0.608651 -7.04676 0
M  V30 1390 H 229.803 0.889672 -7.08939 0
M  V30 1391 H 227.969 0.43308 -9.04564 0
M  V30 1392 H 227.898 -1.68366 -5.8516 0
M  V30 1393 H 228.928 -4.05985 -4.30448 0
M  V30 1394 H 227.191 -3.88028 -4.72875 0
M  V30 1395 H 227.679 -4.11381 -3.01609 0
M  V30 1396 H 228.415 0.0393617 -1.41345 0
M  V30 1397 P 229.839 2.75334 -8.47391 0
M  V30 1398 O 230.059 3.84128 -9.44797 0
M  V30 1399 O 230.629 1.51947 -8.68712 0
M  V30 1400 O 230.089 3.29363 -6.99321 0
M  V30 1401 C 229.149 4.24011 -6.4274 0
M  V30 1402 C 229.879 5.20775 -5.52155 0
M  V30 1403 O 230.089 4.56534 -4.22446 0
M  V30 1404 C 231.279 5.62629 -5.96531 0
M  V30 1405 O 231.669 6.87667 -5.41053 0
M  V30 1406 C 232.159 4.52537 -5.39283 0
M  V30 1407 C 231.449 4.20027 -4.08623 0
M  V30 1408 N 231.499 2.76189 -3.71603 0
M  V30 1409 H 228.66 4.797 -7.24003 0
M  V30 1410 H 228.39 3.69856 -5.84513 0
M  V30 1411 H 229.257 6.10356 -5.41441 0
M  V30 1412 P 233.219 7.20834 -5.23717 0
M  V30 1413 O 233.439 8.66104 -5.38572 0
M  V30 1414 O 234.009 6.33544 -6.1349 0
M  V30 1415 O 233.469 6.7751 -3.72168 0
M  V30 1416 C 232.529 7.20825 -2.7076 0
M  V30 1417 C 233.259 7.45864 -1.40599 0
M  V30 1418 O 233.469 6.17651 -0.734225 0
M  V30 1419 C 234.659 8.05808 -1.51899 0
M  V30 1420 O 235.049 8.74358 -0.335205 0
M  V30 1421 C 235.539 6.83093 -1.70294 0
M  V30 1422 C 234.829 5.79992 -0.836974 0
M  V30 1423 N 234.879 4.41864 -1.38293 0
M  V30 1424 C 234.799 3.99538 -2.69438 0
M  V30 1425 N 234.879 2.69909 -2.84277 0
M  V30 1426 C 235.019 2.21719 -1.5408 0
M  V30 1427 C 235.149 0.891712 -1.06628 0
M  V30 1428 N 235.269 0.856846 0.334985 0
M  V30 1429 C 235.269 1.9641 1.15789 0
M  V30 1430 N 235.399 1.72708 2.46522 0
M  V30 1431 N 235.139 3.21165 0.713741 0
M  V30 1432 C 235.019 3.26797 -0.639748 0
M  V30 1433 H 232.04 8.13644 -3.0377 0
M  V30 1434 H 231.77 6.42788 -2.55485 0
M  V30 1435 H 232.637 8.12039 -0.792769 0
M  V30 1436 P 236.599 8.91 5.54508e-13 0
M  V30 1437 O 236.819 10.1726 0.733694 0
M  V30 1438 O 237.389 8.73148 -1.23936 0
M  V30 1439 O 236.849 7.66872 0.971405 0
M  V30 1440 C 235.909 7.42309 2.04641 0
M  V30 1441 C 236.639 6.86059 3.24661 0
M  V30 1442 O 236.849 5.42847 3.03646 0
M  V30 1443 C 238.039 7.41196 3.50753 0
M  V30 1444 O 238.429 7.27073 4.86816 0
M  V30 1445 C 238.919 6.5273 2.63741 0
M  V30 1446 C 238.209 5.1842 2.73198 0
M  V30 1447 N 238.259 4.38762 1.4784 0
M  V30 1448 H 235.42 8.36803 2.32493 0
M  V30 1449 H 235.15 6.70197 1.71129 0
M  V30 1450 H 236.017 7.03551 4.13168 0
M  V30 1451 P 239.979 7.20834 5.23717 0
M  V30 1452 O 240.199 7.79853 6.57286 0
M  V30 1453 O 240.769 7.79239 4.12957 0
M  V30 1454 O 240.229 5.63315 5.29344 0
M  V30 1455 C 239.289 4.80255 6.01876 0
M  V30 1456 C 240.019 3.64202 6.65911 0
M  V30 1457 O 240.229 2.60694 5.64732 0
M  V30 1458 C 241.419 3.93473 7.1943 0
M  V30 1459 O 241.809 3.02071 8.21205 0
M  V30 1460 C 242.299 3.73047 5.97036 0
M  V30 1461 C 241.589 2.58828 5.25741 0
M  V30 1462 N 241.639 2.68068 3.77503 0
M  V30 1463 H 238.8 5.40332 6.79951 0
M  V30 1464 H 238.53 4.41613 5.32378 0
M  V30 1465 H 239.397 3.26331 7.47797 0
M  V30 1466 P 243.359 2.75334 8.47391 0
M  V30 1467 O 243.579 2.44571 9.90142 0
M  V30 1468 O 244.149 3.87688 7.92115 0
M  V30 1469 O 243.609 1.4459 7.59357 0
M  V30 1470 C 242.669 0.347608 7.69215 0
M  V30 1471 C 243.399 -0.96767 7.52806 0
M  V30 1472 O 243.609 -1.21036 6.1011 0
M  V30 1473 C 244.799 -1.04544 8.13308 0
M  V30 1474 O 245.189 -2.38311 8.41922 0
M  V30 1475 C 245.679 -0.491279 7.02284 0
M  V30 1476 C 244.969 -0.996264 5.77469 0
M  V30 1477 N 245.019 -0.0501916 4.62973 0
M  V30 1478 H 242.18 0.374722 8.67691 0
M  V30 1479 H 241.91 0.443485 6.90277 0
M  V30 1480 H 242.777 -1.75537 7.96793 0
M  V30 1481 P 246.739 -2.75334 8.47391 0
M  V30 1482 O 246.959 -3.84128 9.44797 0
M  V30 1483 O 247.529 -1.51947 8.68712 0
M  V30 1484 O 246.989 -3.29363 6.99321 0
M  V30 1485 C 246.049 -4.24011 6.4274 0
M  V30 1486 C 246.779 -5.20775 5.52155 0
M  V30 1487 O 246.989 -4.56534 4.22446 0
M  V30 1488 C 248.179 -5.62629 5.96531 0
M  V30 1489 O 248.569 -6.87667 5.41053 0
M  V30 1490 C 249.059 -4.52537 5.39283 0
M  V30 1491 C 248.349 -4.20027 4.08623 0
M  V30 1492 N 248.399 -2.76189 3.71603 0
M  V30 1493 H 245.56 -4.797 7.24003 0
M  V30 1494 H 245.29 -3.69856 5.84513 0
M  V30 1495 H 246.157 -6.10356 5.41441 0
M  V30 1496 P 250.119 -7.20834 5.23717 0
M  V30 1497 O 250.339 -8.66104 5.38572 0
M  V30 1498 O 250.909 -6.33544 6.1349 0
M  V30 1499 O 250.369 -6.7751 3.72168 0
M  V30 1500 C 249.429 -7.20825 2.7076 0
M  V30 1501 C 250.159 -7.45864 1.40599 0
M  V30 1502 O 250.369 -6.17651 0.734225 0
M  V30 1503 C 251.559 -8.05808 1.51899 0
M  V30 1504 O 251.949 -8.74358 0.335205 0
M  V30 1505 C 252.439 -6.83093 1.70294 0
M  V30 1506 C 251.729 -5.79992 0.836974 0
M  V30 1507 N 251.779 -4.41864 1.38293 0
M  V30 1508 H 248.94 -8.13644 3.0377 0
M  V30 1509 H 248.67 -6.42788 2.55485 0
M  V30 1510 H 249.537 -8.12039 0.792769 0
M  V30 1511 P 253.498 -8.91 -7.1169e-13 0
M  V30 1512 O 253.718 -10.1746 -0.733838 0
M  V30 1513 O 254.288 -8.73346 1.23964 0
M  V30 1514 O 253.748 -7.66872 -0.971405 0
M  V30 1515 C 252.808 -7.42405 -2.04668 0
M  V30 1516 C 253.538 -6.86059 -3.24661 0
M  V30 1517 O 253.748 -5.42934 -3.03695 0
M  V30 1518 C 254.938 -7.41287 -3.50796 0
M  V30 1519 O 255.328 -7.27073 -4.86816 0
M  V30 1520 C 255.818 -6.5273 -2.63741 0
M  V30 1521 C 255.108 -5.1842 -2.73198 0
M  V30 1522 N 255.158 -4.38762 -1.4784 0
M  V30 1523 H 252.32 -8.36899 -2.3252 0
M  V30 1524 H 252.048 -6.70391 -1.71179 0
M  V30 1525 H 252.916 -7.03638 -4.13219 0
M  V30 1526 H 255.571 -4.59931 -3.54016 0
M  V30 1527 H 255.851 -6.88995 -1.59871 0
M  V30 1528 H 256.842 -6.4684 -3.0373 0
M  V30 1529 H 255.008 -8.47002 -3.20749 0
M  V30 1530 P 256.878 -7.20834 -5.23717 0
M  V30 1531 O 257.098 -7.7993 -6.57351 0
M  V30 1532 O 257.668 -7.79328 -4.13004 0
M  V30 1533 O 257.128 -5.63315 -5.29344 0
M  V30 1534 C 256.188 -4.80193 -6.01798 0
M  V30 1535 C 256.918 -3.64202 -6.65911 0
M  V30 1536 O 257.128 -2.60694 -5.64732 0
M  V30 1537 C 258.318 -3.93473 -7.1943 0
M  V30 1538 O 258.708 -3.02071 -8.21205 0
M  V30 1539 C 259.198 -3.73047 -5.97036 0
M  V30 1540 C 258.488 -2.58828 -5.25741 0
M  V30 1541 N 258.538 -2.6801 -3.77422 0
M  V30 1542 C 258.688 -1.50443 -3.07133 0
M  V30 1543 O 258.778 -0.419406 -3.61576 0
M  V30 1544 N 258.728 -1.6403 -1.69677 0
M  V30 1545 C 258.638 -2.81206 -0.986255 0
M  V30 1546 C 258.488 -3.99158 -1.80325 0
M  V30 1547 C 258.438 -3.89779 -3.1476 0
M  V30 1548 H 255.698 -5.40332 -6.79951 0
M  V30 1549 H 255.429 -4.41549 -5.32301 0
M  V30 1550 H 256.296 -3.26331 -7.47797 0
M  V30 1551 H 258.951 -1.6395 -5.56554 0
M  V30 1552 H 259.23 -4.63439 -5.3432 0
M  V30 1553 H 260.222 -3.44728 -6.25838 0
M  V30 1554 H 258.388 -4.96652 -7.57263 0
M  V30 1555 H 258.317 -4.80159 -3.74441 0
M  V30 1556 P 260.258 -2.75334 -8.47391 0
M  V30 1557 O 260.478 -2.44571 -9.90142 0
M  V30 1558 O 261.048 -3.87688 -7.92115 0
M  V30 1559 O 260.508 -1.4459 -7.59357 0
M  V30 1560 C 259.568 -0.347608 -7.69215 0
M  V30 1561 C 260.298 0.96767 -7.52806 0
M  V30 1562 O 260.508 1.21036 -6.1011 0
M  V30 1563 C 261.698 1.04544 -8.13308 0
M  V30 1564 O 262.088 2.38311 -8.41922 0
M  V30 1565 C 262.578 0.491279 -7.02284 0
M  V30 1566 C 261.868 0.996264 -5.77469 0
M  V30 1567 N 261.918 0.0501916 -4.62973 0
M  V30 1568 H 259.079 -0.374722 -8.67691 0
M  V30 1569 H 258.809 -0.443485 -6.90277 0
M  V30 1570 H 259.676 1.75537 -7.96793 0
M  V30 1571 P 263.638 2.75334 -8.47391 0
M  V30 1572 O 263.858 3.84128 -9.44797 0
M  V30 1573 O 264.428 1.51947 -8.68712 0
M  V30 1574 O 263.888 3.29363 -6.99321 0
M  V30 1575 C 262.948 4.24011 -6.4274 0
M  V30 1576 C 263.678 5.20775 -5.52155 0
M  V30 1577 O 263.888 4.56534 -4.22446 0
M  V30 1578 C 265.078 5.62629 -5.96531 0
M  V30 1579 O 265.468 6.87667 -5.41053 0
M  V30 1580 C 265.958 4.52537 -5.39283 0
M  V30 1581 C 265.248 4.20027 -4.08623 0
M  V30 1582 N 265.298 2.76189 -3.71603 0
M  V30 1583 H 262.459 4.797 -7.24003 0
M  V30 1584 H 262.189 3.69856 -5.84513 0
M  V30 1585 H 263.056 6.10356 -5.41441 0
M  V30 1586 P 267.018 7.20834 -5.23717 0
M  V30 1587 O 267.238 8.66274 -5.38678 0
M  V30 1588 O 267.808 6.33687 -6.13629 0
M  V30 1589 O 267.268 6.7751 -3.72168 0
M  V30 1590 C 266.328 7.20919 -2.70795 0
M  V30 1591 C 267.058 7.45864 -1.40599 0
M  V30 1592 O 267.268 6.17751 -0.734343 0
M  V30 1593 C 268.458 8.05906 -1.51917 0
M  V30 1594 O 268.848 8.74358 -0.335205 0
M  V30 1595 C 269.338 6.83093 -1.70294 0
M  V30 1596 C 268.628 5.79992 -0.836974 0
M  V30 1597 N 268.678 4.41864 -1.38293 0
M  V30 1598 H 265.84 8.13738 -3.03804 0
M  V30 1599 H 265.568 6.42974 -2.55559 0
M  V30 1600 H 266.436 8.12139 -0.792866 0
M  V30 1601 H 269.091 5.80178 0.160643 0
M  V30 1602 H 269.371 6.51379 -2.75643 0
M  V30 1603 H 270.362 7.01832 -1.3448 0
M  V30 1604 H 268.528 8.73771 -2.38364 0
M  V30 1605 P 270.398 8.91 8.68872e-13 0
M  V30 1606 O 270.618 10.1726 0.733694 0
M  V30 1607 O 271.188 8.73148 -1.23936 0
M  V30 1608 O 270.648 7.66872 0.971405 0
M  V30 1609 C 269.708 7.42309 2.04641 0
M  V30 1610 C 270.438 6.86059 3.24661 0
M  V30 1611 O 270.648 5.42847 3.03646 0
M  V30 1612 C 271.838 7.41196 3.50753 0
M  V30 1613 O 272.228 7.27073 4.86816 0
M  V30 1614 C 272.718 6.5273 2.63741 0
M  V30 1615 C 272.008 5.1842 2.73198 0
M  V30 1616 N 272.058 4.38762 1.4784 0
M  V30 1617 C 271.978 4.81605 0.168631 0
M  V30 1618 N 272.058 3.85454 -0.713363 0
M  V30 1619 C 272.198 2.6994 0.0566958 0
M  V30 1620 C 272.328 1.34815 -0.338502 0
M  V30 1621 N 272.448 0.496304 0.77465 0
M  V30 1622 C 272.448 0.908403 2.09122 0
M  V30 1623 N 272.578 -0.0517805 3.00955 0
M  V30 1624 N 272.318 2.17875 2.46519 0
M  V30 1625 C 272.198 3.01988 1.4033 0
M  V30 1626 H 269.219 8.36803 2.32493 0
M  V30 1627 H 268.949 6.70197 1.71129 0
M  V30 1628 H 269.816 7.03551 4.13168 0
M  V30 1629 P 273.778 7.20834 5.23717 0
M  V30 1630 O 273.998 7.79853 6.57286 0
M  V30 1631 O 274.568 7.79239 4.12957 0
M  V30 1632 O 274.028 5.63315 5.29344 0
M  V30 1633 C 273.088 4.80255 6.01876 0
M  V30 1634 C 273.818 3.64202 6.65911 0
M  V30 1635 O 274.028 2.60694 5.64732 0
M  V30 1636 C 275.218 3.93473 7.1943 0
M  V30 1637 O 275.608 3.02071 8.21205 0
M  V30 1638 C 276.098 3.73047 5.97036 0
M  V30 1639 C 275.388 2.58828 5.25741 0
M  V30 1640 N 275.438 2.68068 3.77503 0
M  V30 1641 H 272.599 5.40332 6.79951 0
M  V30 1642 H 272.329 4.41613 5.32378 0
M  V30 1643 H 273.196 3.26331 7.47797 0
M  V30 1644 P 277.158 2.75334 8.47391 0
M  V30 1645 O 277.378 2.44571 9.90142 0
M  V30 1646 O 277.948 3.87688 7.92115 0
M  V30 1647 O 277.408 1.4459 7.59357 0
M  V30 1648 C 276.468 0.347608 7.69215 0
M  V30 1649 C 277.198 -0.96767 7.52806 0
M  V30 1650 O 277.408 -1.21036 6.1011 0
M  V30 1651 C 278.598 -1.04544 8.13308 0
M  V30 1652 O 278.988 -2.38311 8.41922 0
M  V30 1653 C 279.478 -0.491279 7.02284 0
M  V30 1654 C 278.768 -0.996264 5.77469 0
M  V30 1655 N 278.818 -0.0501916 4.62973 0
M  V30 1656 H 275.979 0.374722 8.67691 0
M  V30 1657 H 275.709 0.443485 6.90277 0
M  V30 1658 H 276.576 -1.75537 7.96793 0
M  V30 1659 P 280.538 -2.75334 8.47391 0
M  V30 1660 O 280.758 -3.84204 9.44982 0
M  V30 1661 O 281.328 -1.51982 8.68909 0
M  V30 1662 O 280.788 -3.29363 6.99321 0
M  V30 1663 C 279.848 -4.24066 6.42823 0
M  V30 1664 C 280.578 -5.20775 5.52155 0
M  V30 1665 O 280.788 -4.56607 4.22514 0
M  V30 1666 C 281.978 -5.62697 5.96604 0
M  V30 1667 O 282.368 -6.87667 5.41053 0
M  V30 1668 C 282.858 -4.52537 5.39283 0
M  V30 1669 C 282.148 -4.20027 4.08623 0
M  V30 1670 N 282.198 -2.76189 3.71603 0
M  V30 1671 H 279.36 -4.79756 7.24086 0
M  V30 1672 H 279.088 -3.69963 5.84682 0
M  V30 1673 H 279.956 -6.10431 5.41508 0
M  V30 1674 H 282.611 -4.78816 3.28024 0
M  V30 1675 H 282.891 -3.64957 6.05871 0
M  V30 1676 H 283.882 -4.88748 5.21323 0
M  V30 1677 H 282.048 -5.66789 7.0643 0
M  V30 1678 P 283.918 -7.20834 5.23717 0
M  V30 1679 O 284.138 -8.66104 5.38572 0
M  V30 1680 O 284.708 -6.33544 6.1349 0
M  V30 1681 O 284.168 -6.7751 3.72168 0
M  V30 1682 C 283.228 -7.20825 2.7076 0
M  V30 1683 C 283.958 -7.45864 1.40599 0
M  V30 1684 O 284.168 -6.17651 0.734225 0
M  V30 1685 C 285.358 -8.05808 1.51899 0
M  V30 1686 O 285.748 -8.74358 0.335205 0
M  V30 1687 C 286.238 -6.83093 1.70294 0
M  V30 1688 C 285.528 -5.79992 0.836974 0
M  V30 1689 N 285.578 -4.41864 1.38293 0
M  V30 1690 H 282.739 -8.13644 3.0377 0
M  V30 1691 H 282.469 -6.42788 2.55485 0
M  V30 1692 H 283.336 -8.12039 0.792769 0
M  V30 1693 P 287.298 -8.91 -1.02605e-12 0
M  V30 1694 O 287.518 -10.1726 -0.733694 0
M  V30 1695 O 288.088 -8.73148 1.23936 0
M  V30 1696 O 287.548 -7.66872 -0.971405 0
M  V30 1697 C 286.608 -7.42309 -2.04641 0
M  V30 1698 C 287.338 -6.86059 -3.24661 0
M  V30 1699 O 287.548 -5.42847 -3.03646 0
M  V30 1700 C 288.738 -7.41196 -3.50753 0
M  V30 1701 O 289.128 -7.27073 -4.86816 0
M  V30 1702 C 289.618 -6.5273 -2.63741 0
M  V30 1703 C 288.908 -5.1842 -2.73198 0
M  V30 1704 N 288.958 -4.38762 -1.4784 0
M  V30 1705 H 286.119 -8.36803 -2.32493 0
M  V30 1706 H 285.849 -6.70197 -1.71129 0
M  V30 1707 H 286.716 -7.03551 -4.13168 0
M  V30 1708 P 290.678 -7.20834 -5.23717 0
M  V30 1709 O 290.898 -7.79853 -6.57286 0
M  V30 1710 O 291.468 -7.79239 -4.12957 0
M  V30 1711 O 290.928 -5.63315 -5.29344 0
M  V30 1712 C 289.988 -4.80255 -6.01876 0
M  V30 1713 C 290.718 -3.64202 -6.65911 0
M  V30 1714 O 290.928 -2.60694 -5.64732 0
M  V30 1715 C 292.118 -3.93473 -7.1943 0
M  V30 1716 O 292.508 -3.02071 -8.21205 0
M  V30 1717 C 292.998 -3.73047 -5.97036 0
M  V30 1718 C 292.288 -2.58828 -5.25741 0
M  V30 1719 N 292.338 -2.68068 -3.77503 0
M  V30 1720 H 289.499 -5.40332 -6.79951 0
M  V30 1721 H 289.229 -4.41613 -5.32378 0
M  V30 1722 H 290.096 -3.26331 -7.47797 0
M  V30 1723 P 294.058 -2.75334 -8.47391 0
M  V30 1724 O 294.278 -2.44571 -9.90142 0
M  V30 1725 O 294.848 -3.87688 -7.92115 0
M  V30 1726 O 294.308 -1.4459 -7.59357 0
M  V30 1727 C 293.368 -0.347608 -7.69215 0
M  V30 1728 C 294.098 0.96767 -7.52806 0
M  V30 1729 O 294.308 1.21036 -6.1011 0
M  V30 1730 C 295.498 1.04544 -8.13308 0
M  V30 1731 O 295.888 2.38311 -8.41922 0
M  V30 1732 C 296.378 0.491279 -7.02284 0
M  V30 1733 C 295.668 0.996264 -5.77469 0
M  V30 1734 N 295.718 0.0501916 -4.62973 0
M  V30 1735 H 292.879 -0.374722 -8.67691 0
M  V30 1736 H 292.609 -0.443485 -6.90277 0
M  V30 1737 H 293.476 1.75537 -7.96793 0
M  V30 1738 P 297.438 2.75334 -8.47391 0
M  V30 1739 O 297.658 3.84128 -9.44797 0
M  V30 1740 O 298.228 1.51947 -8.68712 0
M  V30 1741 O 297.688 3.29363 -6.99321 0
M  V30 1742 C 296.748 4.24011 -6.4274 0
M  V30 1743 C 297.478 5.20775 -5.52155 0
M  V30 1744 O 297.688 4.56534 -4.22446 0
M  V30 1745 C 298.878 5.62629 -5.96531 0
M  V30 1746 O 299.268 6.87667 -5.41053 0
M  V30 1747 C 299.758 4.52537 -5.39283 0
M  V30 1748 C 299.048 4.20027 -4.08623 0
M  V30 1749 N 299.098 2.76189 -3.71603 0
M  V30 1750 C 299.018 1.64862 -4.52822 0
M  V30 1751 N 299.098 0.512671 -3.88633 0
M  V30 1752 C 299.238 0.888083 -2.54977 0
M  V30 1753 C 299.368 0.094668 -1.38677 0
M  V30 1754 N 299.488 0.890102 -0.232633 0
M  V30 1755 C 299.488 2.26958 -0.21772 0
M  V30 1756 N 299.618 2.84626 0.97925 0
M  V30 1757 N 299.358 3.0178 -1.31033 0
M  V30 1758 C 299.238 2.26781 -2.43843 0
M  V30 1759 H 296.259 4.797 -7.24003 0
M  V30 1760 H 295.989 3.69856 -5.84513 0
M  V30 1761 H 296.856 6.10356 -5.41441 0
M  V30 1762 P 300.818 7.20834 -5.23717 0
M  V30 1763 O 301.038 8.66274 -5.38678 0
M  V30 1764 O 301.608 6.33687 -6.13629 0
M  V30 1765 O 301.068 6.7751 -3.72168 0
M  V30 1766 C 300.128 7.20919 -2.70795 0
M  V30 1767 C 300.858 7.45864 -1.40599 0
M  V30 1768 O 301.068 6.17751 -0.734343 0
M  V30 1769 C 302.258 8.05906 -1.51917 0
M  V30 1770 O 302.648 8.74358 -0.335205 0
M  V30 1771 C 303.138 6.83093 -1.70294 0
M  V30 1772 C 302.428 5.79992 -0.836974 0
M  V30 1773 N 302.478 4.41864 -1.38293 0
M  V30 1774 C 302.398 4.02089 -2.69407 0
M  V30 1775 N 302.468 2.73403 -2.85089 0
M  V30 1776 C 302.618 2.25086 -1.5642 0
M  V30 1777 C 302.748 0.942887 -1.04836 0
M  V30 1778 N 302.758 -0.150999 -1.80369 0
M  V30 1779 N 302.868 0.812565 0.28167 0
M  V30 1780 C 302.858 1.90572 1.03784 0
M  V30 1781 N 302.738 3.167 0.683905 0
M  V30 1782 C 302.618 3.26538 -0.652815 0
M  V30 1783 H 299.64 8.13738 -3.03804 0
M  V30 1784 H 299.368 6.42974 -2.55559 0
M  V30 1785 H 300.236 8.12139 -0.792866 0
M  V30 1786 H 302.891 5.80178 0.160643 0
M  V30 1787 H 303.171 6.51379 -2.75643 0
M  V30 1788 H 304.162 7.01832 -1.3448 0
M  V30 1789 H 302.328 8.73771 -2.38364 0
M  V30 1790 H 302.287 4.7189 -3.52311 0
M  V30 1791 H 302.668 -0.0721434 -2.82608 0
M  V30 1792 H 302.857 -1.0785 -1.36544 0
M  V30 1793 H 302.965 1.73207 2.10241 0
M  V30 1794 P 304.198 8.91 1.18324e-12 0
M  V30 1795 O 304.418 10.1726 0.733694 0
M  V30 1796 O 304.988 8.73148 -1.23936 0
M  V30 1797 O 304.448 7.66872 0.971405 0
M  V30 1798 C 303.508 7.42309 2.04641 0
M  V30 1799 C 304.238 6.86059 3.24661 0
M  V30 1800 O 304.448 5.42847 3.03646 0
M  V30 1801 C 305.638 7.41196 3.50753 0
M  V30 1802 O 306.028 7.27073 4.86816 0
M  V30 1803 C 306.518 6.5273 2.63741 0
M  V30 1804 C 305.808 5.1842 2.73198 0
M  V30 1805 N 305.858 4.38762 1.4784 0
M  V30 1806 H 303.019 8.36803 2.32493 0
M  V30 1807 H 302.749 6.70197 1.71129 0
M  V30 1808 H 303.616 7.03551 4.13168 0
M  V30 1809 P 307.578 7.20834 5.23717 0
M  V30 1810 O 307.798 7.79853 6.57286 0
M  V30 1811 O 308.368 7.79239 4.12957 0
M  V30 1812 O 307.828 5.63315 5.29344 0
M  V30 1813 C 306.888 4.80255 6.01876 0
M  V30 1814 C 307.618 3.64202 6.65911 0
M  V30 1815 O 307.828 2.60694 5.64732 0
M  V30 1816 C 309.018 3.93473 7.1943 0
M  V30 1817 O 309.408 3.02071 8.21205 0
M  V30 1818 C 309.898 3.73047 5.97036 0
M  V30 1819 C 309.188 2.58828 5.25741 0
M  V30 1820 N 309.238 2.68068 3.77503 0
M  V30 1821 H 306.399 5.40332 6.79951 0
M  V30 1822 H 306.129 4.41613 5.32378 0
M  V30 1823 H 306.996 3.26331 7.47797 0
M  V30 1824 P 310.958 2.75334 8.47391 0
M  V30 1825 O 311.178 2.44571 9.90142 0
M  V30 1826 O 311.748 3.87688 7.92115 0
M  V30 1827 O 311.208 1.4459 7.59357 0
M  V30 1828 C 310.268 0.347608 7.69215 0
M  V30 1829 C 310.998 -0.96767 7.52806 0
M  V30 1830 O 311.208 -1.21036 6.1011 0
M  V30 1831 C 312.398 -1.04544 8.13308 0
M  V30 1832 O 312.788 -2.38311 8.41922 0
M  V30 1833 C 313.278 -0.491279 7.02284 0
M  V30 1834 C 312.568 -0.996264 5.77469 0
M  V30 1835 N 312.618 -0.0501916 4.62973 0
M  V30 1836 H 309.779 0.374722 8.67691 0
M  V30 1837 H 309.509 0.443485 6.90277 0
M  V30 1838 H 310.376 -1.75537 7.96793 0
M  V30 1839 P 314.338 -2.75334 8.47391 0
M  V30 1840 O 314.558 -3.84128 9.44797 0
M  V30 1841 O 315.128 -1.51947 8.68712 0
M  V30 1842 O 314.588 -3.29363 6.99321 0
M  V30 1843 C 313.648 -4.24011 6.4274 0
M  V30 1844 C 314.378 -5.20775 5.52155 0
M  V30 1845 O 314.588 -4.56534 4.22446 0
M  V30 1846 C 315.778 -5.62629 5.96531 0
M  V30 1847 O 316.168 -6.87667 5.41053 0
M  V30 1848 C 316.658 -4.52537 5.39283 0
M  V30 1849 C 315.948 -4.20027 4.08623 0
M  V30 1850 N 315.998 -2.76189 3.71603 0
M  V30 1851 H 313.159 -4.797 7.24003 0
M  V30 1852 H 312.889 -3.69856 5.84513 0
M  V30 1853 H 313.756 -6.10356 5.41441 0
M  V30 1854 P 317.718 -7.20834 5.23717 0
M  V30 1855 O 317.938 -8.66104 5.38572 0
M  V30 1856 O 318.508 -6.33544 6.1349 0
M  V30 1857 O 317.968 -6.7751 3.72168 0
M  V30 1858 C 317.028 -7.20825 2.7076 0
M  V30 1859 C 317.758 -7.45864 1.40599 0
M  V30 1860 O 317.968 -6.17651 0.734225 0
M  V30 1861 C 319.158 -8.05808 1.51899 0
M  V30 1862 O 319.548 -8.74358 0.335205 0
M  V30 1863 C 320.038 -6.83093 1.70294 0
M  V30 1864 C 319.328 -5.79992 0.836974 0
M  V30 1865 N 319.378 -4.41864 1.38293 0
M  V30 1866 H 316.539 -8.13644 3.0377 0
M  V30 1867 H 316.269 -6.42788 2.55485 0
M  V30 1868 H 317.136 -8.12039 0.792769 0
M  V30 1869 P 321.098 -8.91 -1.34042e-12 0
M  V30 1870 O 321.318 -10.1746 -0.733838 0
M  V30 1871 O 321.888 -8.73346 1.23964 0
M  V30 1872 O 321.348 -7.66872 -0.971405 0
M  V30 1873 C 320.408 -7.42405 -2.04668 0
M  V30 1874 C 321.138 -6.86059 -3.24661 0
M  V30 1875 O 321.348 -5.42934 -3.03695 0
M  V30 1876 C 322.538 -7.41287 -3.50796 0
M  V30 1877 O 322.928 -7.27073 -4.86816 0
M  V30 1878 C 323.418 -6.5273 -2.63741 0
M  V30 1879 C 322.708 -5.1842 -2.73198 0
M  V30 1880 N 322.758 -4.38762 -1.4784 0
M  V30 1881 H 319.92 -8.36899 -2.3252 0
M  V30 1882 H 319.648 -6.70391 -1.71179 0
M  V30 1883 H 320.516 -7.03638 -4.13219 0
M  V30 1884 H 323.171 -4.59931 -3.54016 0
M  V30 1885 H 323.451 -6.88995 -1.59871 0
M  V30 1886 H 324.442 -6.4684 -3.0373 0
M  V30 1887 H 322.608 -8.47002 -3.20749 0
M  V30 1888 P 324.478 -7.20834 -5.23717 0
M  V30 1889 O 324.698 -7.80006 -6.57415 0
M  V30 1890 O 325.268 -7.79416 -4.13051 0
M  V30 1891 O 324.728 -5.63315 -5.29344 0
M  V30 1892 C 323.788 -4.80318 -6.01954 0
M  V30 1893 C 324.518 -3.64202 -6.65911 0
M  V30 1894 O 324.728 -2.60736 -5.64823 0
M  V30 1895 C 325.918 -3.93521 -7.19518 0
M  V30 1896 O 326.308 -3.02071 -8.21205 0
M  V30 1897 C 326.798 -3.73047 -5.97036 0
M  V30 1898 C 326.088 -2.58828 -5.25741 0
M  V30 1899 N 326.138 -2.68068 -3.77503 0
M  V30 1900 C 326.058 -3.80474 -2.99159 0
M  V30 1901 N 326.128 -3.55622 -1.71925 0
M  V30 1902 C 326.278 -2.1832 -1.65733 0
M  V30 1903 C 326.408 -1.28842 -0.572777 0
M  V30 1904 N 326.418 -1.66875 0.70098 0
M  V30 1905 N 326.528 0.016788 -0.859836 0
M  V30 1906 C 326.518 0.398145 -2.13316 0
M  V30 1907 N 326.398 -0.328224 -3.22333 0
M  V30 1908 C 326.278 -1.62992 -2.90383 0
M  V30 1909 H 323.3 -5.40394 -6.8003 0
M  V30 1910 H 323.028 -4.41741 -5.32532 0
M  V30 1911 H 323.896 -3.26371 -7.47889 0
M  V30 1912 H 326.551 -1.64007 -5.56746 0
M  V30 1913 H 326.831 -4.63439 -5.3432 0
M  V30 1914 H 327.822 -3.44776 -6.25925 0
M  V30 1915 H 325.988 -4.96707 -7.57347 0
M  V30 1916 H 325.947 -4.8089 -3.39924 0
M  V30 1917 H 326.328 -2.66547 0.941919 0
M  V30 1918 H 326.517 -0.965341 1.44766 0
M  V30 1919 H 326.625 1.46427 -2.29697 0
M  V30 1920 P 327.858 -2.75334 -8.47391 0
M  V30 1921 O 328.078 -2.44619 -9.90336 0
M  V30 1922 O 328.648 -3.87776 -7.92294 0
M  V30 1923 O 328.108 -1.4459 -7.59357 0
M  V30 1924 C 327.168 -0.347653 -7.69315 0
M  V30 1925 C 327.898 0.96767 -7.52806 0
M  V30 1926 O 328.108 1.21055 -6.10208 0
M  V30 1927 C 329.298 1.04557 -8.13408 0
M  V30 1928 O 329.688 2.38311 -8.41922 0
M  V30 1929 C 330.178 0.491279 -7.02284 0
M  V30 1930 C 329.468 0.996264 -5.77469 0
M  V30 1931 N 329.518 0.0501916 -4.62973 0
M  V30 1932 H 326.68 -0.374765 -8.67791 0
M  V30 1933 H 326.408 -0.443613 -6.90476 0
M  V30 1934 H 327.276 1.75559 -7.96891 0
M  V30 1935 H 329.931 1.94563 -5.46818 0
M  V30 1936 H 330.211 -0.608651 -7.04676 0
M  V30 1937 H 331.202 0.889796 -7.09039 0
M  V30 1938 H 329.368 0.433128 -9.04664 0
M  V30 1939 P 331.238 2.75334 -8.47391 0
M  V30 1940 O 331.458 3.84128 -9.44797 0
M  V30 1941 O 332.028 1.51947 -8.68712 0
M  V30 1942 O 331.488 3.29363 -6.99321 0
M  V30 1943 C 330.548 4.24011 -6.4274 0
M  V30 1944 C 331.278 5.20775 -5.52155 0
M  V30 1945 O 331.488 4.56534 -4.22446 0
M  V30 1946 C 332.678 5.62629 -5.96531 0
M  V30 1947 O 333.068 6.87667 -5.41053 0
M  V30 1948 C 333.558 4.52537 -5.39283 0
M  V30 1949 C 332.848 4.20027 -4.08623 0
M  V30 1950 N 332.898 2.76189 -3.71603 0
M  V30 1951 H 330.059 4.797 -7.24003 0
M  V30 1952 H 329.789 3.69856 -5.84513 0
M  V30 1953 H 330.656 6.10356 -5.41441 0
M  V30 1954 P 334.618 7.20834 -5.23717 0
M  V30 1955 O 334.838 8.66104 -5.38572 0
M  V30 1956 O 335.408 6.33544 -6.1349 0
M  V30 1957 O 334.868 6.7751 -3.72168 0
M  V30 1958 C 333.928 7.20825 -2.7076 0
M  V30 1959 C 334.658 7.45864 -1.40599 0
M  V30 1960 O 334.868 6.17651 -0.734225 0
M  V30 1961 C 336.058 8.05808 -1.51899 0
M  V30 1962 O 336.448 8.74358 -0.335205 0
M  V30 1963 C 336.938 6.83093 -1.70294 0
M  V30 1964 C 336.228 5.79992 -0.836974 0
M  V30 1965 N 336.278 4.41864 -1.38293 0
M  V30 1966 H 333.439 8.13644 -3.0377 0
M  V30 1967 H 333.169 6.42788 -2.55485 0
M  V30 1968 H 334.036 8.12039 -0.792769 0
M  V30 1969 P 337.998 8.91 1.4976e-12 0
M  V30 1970 O 338.218 10.1746 0.733838 0
M  V30 1971 O 338.788 8.73346 -1.23964 0
M  V30 1972 O 338.248 7.66872 0.971405 0
M  V30 1973 C 337.308 7.42405 2.04668 0
M  V30 1974 C 338.038 6.86059 3.24661 0
M  V30 1975 O 338.248 5.42934 3.03695 0
M  V30 1976 C 339.438 7.41287 3.50796 0
M  V30 1977 O 339.828 7.27073 4.86816 0
M  V30 1978 C 340.318 6.5273 2.63741 0
M  V30 1979 C 339.608 5.1842 2.73198 0
M  V30 1980 N 339.658 4.38762 1.4784 0
M  V30 1981 C 339.578 4.83651 0.183876 0
M  V30 1982 N 339.648 3.88759 -0.699393 0
M  V30 1983 C 339.798 2.7404 0.0575568 0
M  V30 1984 C 339.928 1.37902 -0.293928 0
M  V30 1985 N 339.938 0.938021 -1.54797 0
M  V30 1986 N 340.048 0.491817 0.70549 0
M  V30 1987 C 340.038 0.931735 1.95979 0
M  V30 1988 N 339.918 2.16017 2.41481 0
M  V30 1989 C 339.798 3.02547 1.39121 0
M  V30 1990 H 336.82 8.36899 2.3252 0
M  V30 1991 H 336.548 6.70391 1.71179 0
M  V30 1992 H 337.416 7.03638 4.13219 0
M  V30 1993 H 340.071 4.59931 3.54016 0
M  V30 1994 H 340.351 6.88995 1.59871 0
M  V30 1995 H 341.342 6.4684 3.0373 0
M  V30 1996 H 339.508 8.47002 3.20749 0
M  V30 1997 H 339.467 5.8885 -0.0765548 0
M  V30 1998 H 339.848 1.60276 -2.32875 0
M  V30 1999 H 340.037 -0.0699355 -1.73859 0
M  V30 2000 H 340.145 0.165507 2.71897 0
M  V30 2001 P 341.378 7.20834 5.23717 0
M  V30 2002 O 341.598 7.80006 6.57415 0
M  V30 2003 O 342.168 7.79416 4.13051 0
M  V30 2004 O 341.628 5.63315 5.29344 0
M  V30 2005 C 340.688 4.80318 6.01954 0
M  V30 2006 C 341.418 3.64202 6.65911 0
M  V30 2007 O 341.628 2.60736 5.64823 0
M  V30 2008 C 342.818 3.93521 7.19518 0
M  V30 2009 O 343.208 3.02071 8.21205 0
M  V30 2010 C 343.698 3.73047 5.97036 0
M  V30 2011 C 342.988 2.58828 5.25741 0
M  V30 2012 N 343.038 2.68068 3.77503 0
M  V30 2013 H 340.2 5.40394 6.8003 0
M  V30 2014 H 339.928 4.41741 5.32532 0
M  V30 2015 H 340.796 3.26371 7.47889 0
M  V30 2016 H 343.451 1.64007 5.56746 0
M  V30 2017 H 343.731 4.63439 5.3432 0
M  V30 2018 H 344.722 3.44776 6.25925 0
M  V30 2019 H 342.888 4.96707 7.57347 0
M  V30 2020 P 344.758 2.75334 8.47391 0
M  V30 2021 O 344.978 2.44571 9.90142 0
M  V30 2022 O 345.548 3.87688 7.92115 0
M  V30 2023 O 345.008 1.4459 7.59357 0
M  V30 2024 C 344.068 0.347608 7.69215 0
M  V30 2025 C 344.798 -0.96767 7.52806 0
M  V30 2026 O 345.008 -1.21036 6.1011 0
M  V30 2027 C 346.198 -1.04544 8.13308 0
M  V30 2028 O 346.588 -2.38311 8.41922 0
M  V30 2029 C 347.078 -0.491279 7.02284 0
M  V30 2030 C 346.368 -0.996264 5.77469 0
M  V30 2031 N 346.418 -0.0501916 4.62973 0
M  V30 2032 C 346.338 1.32786 4.63244 0
M  V30 2033 N 346.418 1.86957 3.44545 0
M  V30 2034 C 346.558 0.780241 2.58481 0
M  V30 2035 C 346.688 0.738536 1.17757 0
M  V30 2036 O 346.708 1.66794 0.372349 0
M  V30 2037 N 346.808 -0.58337 0.711393 0
M  V30 2038 C 346.808 -1.70816 1.51017 0
M  V30 2039 N 346.938 -2.87826 0.880757 0
M  V30 2040 N 346.678 -1.67126 2.8339 0
M  V30 2041 C 346.558 -0.401421 3.30572 0
M  V30 2042 H 343.579 0.374722 8.67691 0
M  V30 2043 H 343.309 0.443485 6.90277 0
M  V30 2044 H 344.176 -1.75537 7.96793 0
M  V30 2045 H 346.831 -1.95076 5.46529 0
M  V30 2046 H 347.11 0.608565 7.04577 0
M  V30 2047 H 348.102 -0.889672 7.08939 0
M  V30 2048 H 346.268 -0.43308 9.04564 0
M  V30 2049 H 346.219 1.91249 5.54442 0
M  V30 2050 H 346.901 -0.718054 -0.275244 0
M  V30 2051 H 346.938 -3.75721 1.41832 0
M  V30 2052 H 347.039 -2.90436 -0.145468 0
M  V30 2053 P 348.138 -2.75334 8.47391 0
M  V30 2054 O 348.358 -3.84128 9.44797 0
M  V30 2055 O 348.928 -1.51947 8.68712 0
M  V30 2056 O 348.388 -3.29363 6.99321 0
M  V30 2057 C 347.448 -4.24011 6.4274 0
M  V30 2058 C 348.178 -5.20775 5.52155 0
M  V30 2059 O 348.388 -4.56534 4.22446 0
M  V30 2060 C 349.578 -5.62629 5.96531 0
M  V30 2061 O 349.968 -6.87667 5.41053 0
M  V30 2062 C 350.458 -4.52537 5.39283 0
M  V30 2063 C 349.748 -4.20027 4.08623 0
M  V30 2064 N 349.798 -2.76189 3.71603 0
M  V30 2065 H 346.959 -4.797 7.24003 0
M  V30 2066 H 346.689 -3.69856 5.84513 0
M  V30 2067 H 347.556 -6.10356 5.41441 0
M  V30 2068 P 351.518 -7.20834 5.23717 0
M  V30 2069 O 351.738 -8.66104 5.38572 0
M  V30 2070 O 352.308 -6.33544 6.1349 0
M  V30 2071 O 351.768 -6.7751 3.72168 0
M  V30 2072 C 350.828 -7.20825 2.7076 0
M  V30 2073 C 351.558 -7.45864 1.40599 0
M  V30 2074 O 351.768 -6.17651 0.734225 0
M  V30 2075 C 352.958 -8.05808 1.51899 0
M  V30 2076 O 353.348 -8.74358 0.335205 0
M  V30 2077 C 353.838 -6.83093 1.70294 0
M  V30 2078 C 353.128 -5.79992 0.836974 0
M  V30 2079 N 353.178 -4.41864 1.38293 0
M  V30 2080 H 350.339 -8.13644 3.0377 0
M  V30 2081 H 350.069 -6.42788 2.55485 0
M  V30 2082 H 350.936 -8.12039 0.792769 0
M  V30 2083 P 354.898 -8.91 -1.65478e-12 0
M  V30 2084 O 355.118 -10.1726 -0.733694 0
M  V30 2085 O 355.688 -8.73148 1.23936 0
M  V30 2086 O 355.148 -7.66872 -0.971405 0
M  V30 2087 C 354.208 -7.42309 -2.04641 0
M  V30 2088 C 354.938 -6.86059 -3.24661 0
M  V30 2089 O 355.148 -5.42847 -3.03646 0
M  V30 2090 C 356.338 -7.41196 -3.50753 0
M  V30 2091 O 356.728 -7.27073 -4.86816 0
M  V30 2092 C 357.218 -6.5273 -2.63741 0
M  V30 2093 C 356.508 -5.1842 -2.73198 0
M  V30 2094 N 356.558 -4.38762 -1.4784 0
M  V30 2095 H 353.719 -8.36803 -2.32493 0
M  V30 2096 H 353.449 -6.70197 -1.71129 0
M  V30 2097 H 354.316 -7.03551 -4.13168 0
M  V30 2098 P 358.278 -7.20834 -5.23717 0
M  V30 2099 O 358.498 -7.79853 -6.57286 0
M  V30 2100 O 359.068 -7.79239 -4.12957 0
M  V30 2101 O 358.528 -5.63315 -5.29344 0
M  V30 2102 C 357.588 -4.80255 -6.01876 0
M  V30 2103 C 358.318 -3.64202 -6.65911 0
M  V30 2104 O 358.528 -2.60694 -5.64732 0
M  V30 2105 C 359.718 -3.93473 -7.1943 0
M  V30 2106 O 360.108 -3.02071 -8.21205 0
M  V30 2107 C 360.598 -3.73047 -5.97036 0
M  V30 2108 C 359.888 -2.58828 -5.25741 0
M  V30 2109 N 359.938 -2.68068 -3.77503 0
M  V30 2110 H 357.099 -5.40332 -6.79951 0
M  V30 2111 H 356.829 -4.41613 -5.32378 0
M  V30 2112 H 357.696 -3.26331 -7.47797 0
M  V30 2113 P 361.658 -2.75334 -8.47391 0
M  V30 2114 O 361.878 -2.44619 -9.90336 0
M  V30 2115 O 362.448 -3.87776 -7.92294 0
M  V30 2116 O 361.908 -1.4459 -7.59357 0
M  V30 2117 C 360.968 -0.347653 -7.69315 0
M  V30 2118 C 361.698 0.96767 -7.52806 0
M  V30 2119 O 361.908 1.21055 -6.10208 0
M  V30 2120 C 363.098 1.04557 -8.13408 0
M  V30 2121 O 363.488 2.38311 -8.41922 0
M  V30 2122 C 363.978 0.491279 -7.02284 0
M  V30 2123 C 363.268 0.996264 -5.77469 0
M  V30 2124 N 363.318 0.0501916 -4.62973 0
M  V30 2125 C 363.238 -1.31969 -4.65661 0
M  V30 2126 N 363.308 -1.86649 -3.48119 0
M  V30 2127 C 363.458 -0.792089 -2.62406 0
M  V30 2128 C 363.588 -0.705684 -1.2207 0
M  V30 2129 N 363.598 -1.76207 -0.413762 0
M  V30 2130 N 363.708 0.518981 -0.685754 0
M  V30 2131 C 363.698 1.57595 -1.49174 0
M  V30 2132 N 363.578 1.62909 -2.80066 0
M  V30 2133 C 363.458 0.388195 -3.3073 0
M  V30 2134 H 360.48 -0.374765 -8.67791 0
M  V30 2135 H 360.208 -0.443613 -6.90476 0
M  V30 2136 H 361.076 1.75559 -7.96891 0
M  V30 2137 H 363.731 1.94563 -5.46818 0
M  V30 2138 H 364.011 -0.608651 -7.04676 0
M  V30 2139 H 365.002 0.889796 -7.09039 0
M  V30 2140 H 363.168 0.433128 -9.04664 0
M  V30 2141 H 363.127 -1.89246 -5.57664 0
M  V30 2142 H 363.508 -2.71005 -0.804694 0
M  V30 2143 H 363.697 -1.63189 0.603768 0
M  V30 2144 H 363.805 2.53475 -0.997614 0
M  V30 2145 P 365.038 2.75334 -8.47391 0
M  V30 2146 O 365.258 3.84128 -9.44797 0
M  V30 2147 O 365.828 1.51947 -8.68712 0
M  V30 2148 O 365.288 3.29363 -6.99321 0
M  V30 2149 C 364.348 4.24011 -6.4274 0
M  V30 2150 C 365.078 5.20775 -5.52155 0
M  V30 2151 O 365.288 4.56534 -4.22446 0
M  V30 2152 C 366.478 5.62629 -5.96531 0
M  V30 2153 O 366.868 6.87667 -5.41053 0
M  V30 2154 C 367.358 4.52537 -5.39283 0
M  V30 2155 C 366.648 4.20027 -4.08623 0
M  V30 2156 N 366.698 2.76189 -3.71603 0
M  V30 2157 H 363.859 4.797 -7.24003 0
M  V30 2158 H 363.589 3.69856 -5.84513 0
M  V30 2159 H 364.456 6.10356 -5.41441 0
M  V30 2160 P 368.418 7.20834 -5.23717 0
M  V30 2161 O 368.638 8.66104 -5.38572 0
M  V30 2162 O 369.208 6.33544 -6.1349 0
M  V30 2163 O 368.668 6.7751 -3.72168 0
M  V30 2164 C 367.728 7.20825 -2.7076 0
M  V30 2165 C 368.458 7.45864 -1.40599 0
M  V30 2166 O 368.668 6.17651 -0.734225 0
M  V30 2167 C 369.858 8.05808 -1.51899 0
M  V30 2168 O 370.248 8.74358 -0.335205 0
M  V30 2169 C 370.738 6.83093 -1.70294 0
M  V30 2170 C 370.028 5.79992 -0.836974 0
M  V30 2171 N 370.078 4.41864 -1.38293 0
M  V30 2172 H 367.239 8.13644 -3.0377 0
M  V30 2173 H 366.969 6.42788 -2.55485 0
M  V30 2174 H 367.836 8.12039 -0.792769 0
M  V30 2175 P 371.798 8.91 1.81197e-12 0
M  V30 2176 O 372.018 10.1726 0.733694 0
M  V30 2177 O 372.588 8.73148 -1.23936 0
M  V30 2178 O 372.048 7.66872 0.971405 0
M  V30 2179 C 371.108 7.42309 2.04641 0
M  V30 2180 C 371.838 6.86059 3.24661 0
M  V30 2181 O 372.048 5.42847 3.03646 0
M  V30 2182 C 373.238 7.41196 3.50753 0
M  V30 2183 O 373.628 7.27073 4.86816 0
M  V30 2184 C 374.118 6.5273 2.63741 0
M  V30 2185 C 373.408 5.1842 2.73198 0
M  V30 2186 N 373.458 4.38762 1.4784 0
M  V30 2187 C 373.378 4.81605 0.168631 0
M  V30 2188 N 373.458 3.85454 -0.713363 0
M  V30 2189 C 373.598 2.6994 0.0566958 0
M  V30 2190 C 373.728 1.34815 -0.338502 0
M  V30 2191 O 373.748 0.869548 -1.47125 0
M  V30 2192 N 373.848 0.496304 0.77465 0
M  V30 2193 C 373.848 0.908403 2.09122 0
M  V30 2194 N 373.978 -0.0517805 3.00955 0
M  V30 2195 N 373.718 2.17875 2.46519 0
M  V30 2196 C 373.598 3.01988 1.4033 0
M  V30 2197 H 370.619 8.36803 2.32493 0
M  V30 2198 H 370.349 6.70197 1.71129 0
M  V30 2199 H 371.216 7.03551 4.13168 0
M  V30 2200 H 373.871 4.59498 3.54415 0
M  V30 2201 H 374.15 6.88898 1.59848 0
M  V30 2202 H 375.142 6.46749 3.03687 0
M  V30 2203 H 373.308 8.46908 3.20714 0
M  V30 2204 H 373.259 5.86405 -0.105564 0
M  V30 2205 H 373.941 -0.483664 0.597855 0
M  V30 2206 H 373.978 0.187865 4.0116 0
M  V30 2207 H 374.079 -1.03585 2.71726 0
M  V30 2208 P 375.178 7.20834 5.23717 0
M  V30 2209 O 375.398 7.79853 6.57286 0
M  V30 2210 O 375.968 7.79239 4.12957 0
M  V30 2211 O 375.428 5.63315 5.29344 0
M  V30 2212 C 374.488 4.80255 6.01876 0
M  V30 2213 C 375.218 3.64202 6.65911 0
M  V30 2214 O 375.428 2.60694 5.64732 0
M  V30 2215 C 376.618 3.93473 7.1943 0
M  V30 2216 O 377.008 3.02071 8.21205 0
M  V30 2217 C 377.498 3.73047 5.97036 0
M  V30 2218 C 376.788 2.58828 5.25741 0
M  V30 2219 N 376.838 2.68068 3.77503 0
M  V30 2220 H 373.999 5.40332 6.79951 0
M  V30 2221 H 373.729 4.41613 5.32378 0
M  V30 2222 H 374.596 3.26331 7.47797 0
M  V30 2223 P 378.558 2.75334 8.47391 0
M  V30 2224 O 378.778 2.44571 9.90142 0
M  V30 2225 O 379.348 3.87688 7.92115 0
M  V30 2226 O 378.808 1.4459 7.59357 0
M  V30 2227 C 377.868 0.347608 7.69215 0
M  V30 2228 C 378.598 -0.96767 7.52806 0
M  V30 2229 O 378.808 -1.21036 6.1011 0
M  V30 2230 C 379.998 -1.04544 8.13308 0
M  V30 2231 O 380.388 -2.38311 8.41922 0
M  V30 2232 C 380.878 -0.491279 7.02284 0
M  V30 2233 C 380.168 -0.996264 5.77469 0
M  V30 2234 N 380.218 -0.0501916 4.62973 0
M  V30 2235 H 377.379 0.374722 8.67691 0
M  V30 2236 H 377.109 0.443485 6.90277 0
M  V30 2237 H 377.976 -1.75537 7.96793 0
M  V30 2238 P 381.938 -2.75334 8.47391 0
M  V30 2239 O 382.158 -3.84204 9.44982 0
M  V30 2240 O 382.728 -1.51982 8.68909 0
M  V30 2241 O 382.188 -3.29363 6.99321 0
M  V30 2242 C 381.248 -4.24066 6.42823 0
M  V30 2243 C 381.978 -5.20775 5.52155 0
M  V30 2244 O 382.188 -4.56607 4.22514 0
M  V30 2245 C 383.378 -5.62697 5.96604 0
M  V30 2246 O 383.768 -6.87667 5.41053 0
M  V30 2247 C 384.258 -4.52537 5.39283 0
M  V30 2248 C 383.548 -4.20027 4.08623 0
M  V30 2249 N 383.598 -2.76189 3.71603 0
M  V30 2250 C 383.518 -1.66944 4.54297 0
M  V30 2251 N 383.588 -0.536169 3.91344 0
M  V30 2252 C 383.738 -0.901569 2.58849 0
M  V30 2253 C 383.868 -0.146599 1.40236 0
M  V30 2254 N 383.878 1.18234 1.37046 0
M  V30 2255 N 383.988 -0.822941 0.249738 0
M  V30 2256 C 383.978 -2.15179 0.280525 0
M  V30 2257 N 383.858 -2.96414 1.30822 0
M  V30 2258 C 383.738 -2.25804 2.44748 0
M  V30 2259 H 380.76 -4.79756 7.24086 0
M  V30 2260 H 380.488 -3.69963 5.84682 0
M  V30 2261 H 381.356 -6.10431 5.41508 0
M  V30 2262 H 384.011 -4.78816 3.28024 0
M  V30 2263 H 384.291 -3.64957 6.05871 0
M  V30 2264 H 385.282 -4.88748 5.21323 0
M  V30 2265 H 383.448 -5.66789 7.0643 0
M  V30 2266 H 383.407 -1.74684 5.62396 0
M  V30 2267 H 383.788 1.71949 2.24394 0
M  V30 2268 H 383.977 1.67511 0.470742 0
M  V30 2269 H 384.085 -2.63704 -0.6828 0
M  V30 2270 P 385.318 -7.20834 5.23717 0
M  V30 2271 O 385.538 -8.66104 5.38572 0
M  V30 2272 O 386.108 -6.33544 6.1349 0
M  V30 2273 O 385.568 -6.7751 3.72168 0
M  V30 2274 C 384.628 -7.20825 2.7076 0
M  V30 2275 C 385.358 -7.45864 1.40599 0
M  V30 2276 O 385.568 -6.17651 0.734225 0
M  V30 2277 C 386.758 -8.05808 1.51899 0
M  V30 2278 O 387.148 -8.74358 0.335205 0
M  V30 2279 C 387.638 -6.83093 1.70294 0
M  V30 2280 C 386.928 -5.79992 0.836974 0
M  V30 2281 N 386.978 -4.41864 1.38293 0
M  V30 2282 H 384.139 -8.13644 3.0377 0
M  V30 2283 H 383.869 -6.42788 2.55485 0
M  V30 2284 H 384.736 -8.12039 0.792769 0
M  V30 2285 P 388.698 -8.91 -1.96915e-12 0
M  V30 2286 O 388.918 -10.1726 -0.733694 0
M  V30 2287 O 389.488 -8.73148 1.23936 0
M  V30 2288 O 388.948 -7.66872 -0.971405 0
M  V30 2289 C 388.008 -7.42309 -2.04641 0
M  V30 2290 C 388.738 -6.86059 -3.24661 0
M  V30 2291 O 388.948 -5.42847 -3.03646 0
M  V30 2292 C 390.138 -7.41196 -3.50753 0
M  V30 2293 O 390.528 -7.27073 -4.86816 0
M  V30 2294 C 391.018 -6.5273 -2.63741 0
M  V30 2295 C 390.308 -5.1842 -2.73198 0
M  V30 2296 N 390.358 -4.38762 -1.4784 0
M  V30 2297 H 387.519 -8.36803 -2.32493 0
M  V30 2298 H 387.249 -6.70197 -1.71129 0
M  V30 2299 H 388.116 -7.03551 -4.13168 0
M  V30 2300 P 392.078 -7.20834 -5.23717 0
M  V30 2301 O 392.298 -7.79853 -6.57286 0
M  V30 2302 O 392.868 -7.79239 -4.12957 0
M  V30 2303 O 392.328 -5.63315 -5.29344 0
M  V30 2304 C 391.388 -4.80255 -6.01876 0
M  V30 2305 C 392.118 -3.64202 -6.65911 0
M  V30 2306 O 392.328 -2.60694 -5.64732 0
M  V30 2307 C 393.518 -3.93473 -7.1943 0
M  V30 2308 O 393.908 -3.02071 -8.21205 0
M  V30 2309 C 394.398 -3.73047 -5.97036 0
M  V30 2310 C 393.688 -2.58828 -5.25741 0
M  V30 2311 N 393.738 -2.68068 -3.77503 0
M  V30 2312 H 390.899 -5.40332 -6.79951 0
M  V30 2313 H 390.629 -4.41613 -5.32378 0
M  V30 2314 H 391.496 -3.26331 -7.47797 0
M  V30 2315 P 395.458 -2.75334 -8.47391 0
M  V30 2316 O 395.678 -2.44571 -9.90142 0
M  V30 2317 O 396.248 -3.87688 -7.92115 0
M  V30 2318 O 395.708 -1.4459 -7.59357 0
M  V30 2319 C 394.768 -0.347608 -7.69215 0
M  V30 2320 C 395.498 0.96767 -7.52806 0
M  V30 2321 O 395.708 1.21036 -6.1011 0
M  V30 2322 C 396.898 1.04544 -8.13308 0
M  V30 2323 O 397.288 2.38311 -8.41922 0
M  V30 2324 C 397.778 0.491279 -7.02284 0
M  V30 2325 C 397.068 0.996264 -5.77469 0
M  V30 2326 N 397.118 0.0501916 -4.62973 0
M  V30 2327 H 394.279 -0.374722 -8.67691 0
M  V30 2328 H 394.009 -0.443485 -6.90277 0
M  V30 2329 H 394.876 1.75537 -7.96793 0
M  V30 2330 P 398.838 2.75334 -8.47391 0
M  V30 2331 O 399.058 3.84128 -9.44797 0
M  V30 2332 O 399.628 1.51947 -8.68712 0
M  V30 2333 O 399.088 3.29363 -6.99321 0
M  V30 2334 C 398.148 4.24011 -6.4274 0
M  V30 2335 C 398.878 5.20775 -5.52155 0
M  V30 2336 O 399.088 4.56534 -4.22446 0
M  V30 2337 C 400.278 5.62629 -5.96531 0
M  V30 2338 O 400.668 6.87667 -5.41053 0
M  V30 2339 C 401.158 4.52537 -5.39283 0
M  V30 2340 C 400.448 4.20027 -4.08623 0
M  V30 2341 N 400.498 2.76189 -3.71603 0
M  V30 2342 C 400.418 1.64862 -4.52822 0
M  V30 2343 N 400.498 0.512671 -3.88633 0
M  V30 2344 C 400.638 0.888083 -2.54977 0
M  V30 2345 C 400.768 0.094668 -1.38677 0
M  V30 2346 O 400.788 -1.13053 -1.28163 0
M  V30 2347 N 400.888 0.890102 -0.232633 0
M  V30 2348 C 400.888 2.26958 -0.21772 0
M  V30 2349 N 401.018 2.84626 0.97925 0
M  V30 2350 N 400.758 3.0178 -1.31033 0
M  V30 2351 C 400.638 2.26781 -2.43843 0
M  V30 2352 H 397.659 4.797 -7.24003 0
M  V30 2353 H 397.389 3.69856 -5.84513 0
M  V30 2354 H 398.256 6.10356 -5.41441 0
M  V30 2355 H 400.911 4.79061 -3.27488 0
M  V30 2356 H 401.19 3.64906 -6.05785 0
M  V30 2357 H 402.182 4.8868 -5.2125 0
M  V30 2358 H 400.348 5.66726 -7.06352 0
M  V30 2359 H 400.299 1.71169 -5.60966 0
M  V30 2360 H 400.981 0.419134 0.644739 0
M  V30 2361 H 401.018 3.87332 1.06098 0
M  V30 2362 H 401.119 2.26417 1.82483 0
M  V30 2363 P 402.218 7.20834 -5.23717 0
M  V30 2364 O 402.438 8.66189 -5.38625 0
M  V30 2365 O 403.008 6.33615 -6.1356 0
M  V30 2366 O 402.468 6.7751 -3.72168 0
M  V30 2367 C 401.528 7.20732 -2.70725 0
M  V30 2368 C 402.258 7.45864 -1.40599 0
M  V30 2369 O 402.468 6.17651 -0.734225 0
M  V30 2370 C 403.658 8.05808 -1.51899 0
M  V30 2371 O 404.048 8.74358 -0.335205 0
M  V30 2372 C 404.538 6.83093 -1.70294 0
M  V30 2373 C 403.828 5.79992 -0.836974 0
M  V30 2374 N 403.878 4.41769 -1.38263 0
M  V30 2375 C 404.028 3.38591 -0.481702 0
M  V30 2376 O 404.118 3.56839 0.718452 0
M  V30 2377 N 404.068 2.1206 -1.03569 0
M  V30 2378 C 403.978 1.80696 -2.36966 0
M  V30 2379 O 404.028 0.630473 -2.74862 0
M  V30 2380 C 403.828 2.94845 -3.23898 0
M  V30 2381 C 403.718 2.65253 -4.70362 0
M  V30 2382 C 403.778 4.19803 -2.73435 0
M  V30 2383 H 401.038 8.13644 -3.0377 0
M  V30 2384 H 400.769 6.42695 -2.55448 0
M  V30 2385 H 401.636 8.12039 -0.792769 0
M  V30 2386 H 404.291 5.79978 0.160587 0
M  V30 2387 H 404.57 6.51379 -2.75643 0
M  V30 2388 H 405.562 7.01734 -1.34462 0
M  V30 2389 H 403.728 8.73674 -2.38337 0
M  V30 2390 H 403.657 5.04492 -3.4095 0
M  V30 2391 H 404.687 2.83924 -5.1913 0
M  V30 2392 H 402.95 3.29824 -5.15163 0
M  V30 2393 H 403.438 1.59723 -4.84449 0
M  V30 2394 H 404.174 1.35644 -0.399345 0
M  V30 2395 P 405.598 8.91 2.12633e-12 0
M  V30 2396 O 405.818 10.1726 0.733694 0
M  V30 2397 O 406.388 8.73148 -1.23936 0
M  V30 2398 O 405.848 7.66872 0.971405 0
M  V30 2399 C 404.908 7.42309 2.04641 0
M  V30 2400 C 405.638 6.86059 3.24661 0
M  V30 2401 O 405.848 5.42847 3.03646 0
M  V30 2402 C 407.038 7.41196 3.50753 0
M  V30 2403 O 407.428 7.27073 4.86816 0
M  V30 2404 C 407.918 6.5273 2.63741 0
M  V30 2405 C 407.208 5.1842 2.73198 0
M  V30 2406 N 407.258 4.38762 1.4784 0
M  V30 2407 H 404.419 8.36803 2.32493 0
M  V30 2408 H 404.149 6.70197 1.71129 0
M  V30 2409 H 405.016 7.03551 4.13168 0
M  V30 2410 P 408.978 7.20834 5.23717 0
M  V30 2411 O 409.198 7.80006 6.57415 0
M  V30 2412 O 409.768 7.79416 4.13051 0
M  V30 2413 O 409.228 5.63315 5.29344 0
M  V30 2414 C 408.288 4.80318 6.01954 0
M  V30 2415 C 409.018 3.64202 6.65911 0
M  V30 2416 O 409.228 2.60736 5.64823 0
M  V30 2417 C 410.418 3.93521 7.19518 0
M  V30 2418 O 410.808 3.02071 8.21205 0
M  V30 2419 C 411.298 3.73047 5.97036 0
M  V30 2420 C 410.588 2.58828 5.25741 0
M  V30 2421 N 410.638 2.68068 3.77503 0
M  V30 2422 C 410.558 3.80474 2.99159 0
M  V30 2423 N 410.628 3.55622 1.71925 0
M  V30 2424 C 410.778 2.1832 1.65733 0
M  V30 2425 C 410.908 1.28842 0.572777 0
M  V30 2426 N 410.918 1.66875 -0.70098 0
M  V30 2427 N 411.028 -0.016788 0.859836 0
M  V30 2428 C 411.018 -0.398145 2.13316 0
M  V30 2429 N 410.898 0.328224 3.22333 0
M  V30 2430 C 410.778 1.62992 2.90383 0
M  V30 2431 H 407.8 5.40394 6.8003 0
M  V30 2432 H 407.528 4.41741 5.32532 0
M  V30 2433 H 408.396 3.26371 7.47889 0
M  V30 2434 H 411.051 1.64007 5.56746 0
M  V30 2435 H 411.331 4.63439 5.3432 0
M  V30 2436 H 412.322 3.44776 6.25925 0
M  V30 2437 H 410.488 4.96707 7.57347 0
M  V30 2438 H 410.447 4.8089 3.39924 0
M  V30 2439 H 410.828 2.66547 -0.941919 0
M  V30 2440 H 411.017 0.965341 -1.44766 0
M  V30 2441 H 411.125 -1.46427 2.29697 0
M  V30 2442 P 412.358 2.75334 8.47391 0
M  V30 2443 O 412.578 2.44571 9.90142 0
M  V30 2444 O 413.148 3.87688 7.92115 0
M  V30 2445 O 412.608 1.4459 7.59357 0
M  V30 2446 C 411.668 0.347608 7.69215 0
M  V30 2447 C 412.398 -0.96767 7.52806 0
M  V30 2448 O 412.608 -1.21036 6.1011 0
M  V30 2449 C 413.798 -1.04544 8.13308 0
M  V30 2450 O 414.188 -2.38311 8.41922 0
M  V30 2451 C 414.678 -0.491279 7.02284 0
M  V30 2452 C 413.968 -0.996264 5.77469 0
M  V30 2453 N 414.018 -0.0501916 4.62973 0
M  V30 2454 C 413.938 1.32786 4.63244 0
M  V30 2455 N 414.018 1.86957 3.44545 0
M  V30 2456 C 414.158 0.780241 2.58481 0
M  V30 2457 C 414.288 0.738536 1.17757 0
M  V30 2458 N 414.408 -0.58337 0.711393 0
M  V30 2459 C 414.408 -1.70816 1.51017 0
M  V30 2460 N 414.538 -2.87826 0.880757 0
M  V30 2461 N 414.278 -1.67126 2.8339 0
M  V30 2462 C 414.158 -0.401421 3.30572 0
M  V30 2463 H 411.179 0.374722 8.67691 0
M  V30 2464 H 410.909 0.443485 6.90277 0
M  V30 2465 H 411.776 -1.75537 7.96793 0
M  V30 2466 P 415.738 -2.75334 8.47391 0
M  V30 2467 O 415.958 -3.84128 9.44797 0
M  V30 2468 O 416.528 -1.51947 8.68712 0
M  V30 2469 O 415.988 -3.29363 6.99321 0
M  V30 2470 C 415.048 -4.24011 6.4274 0
M  V30 2471 C 415.778 -5.20775 5.52155 0
M  V30 2472 O 415.988 -4.56534 4.22446 0
M  V30 2473 C 417.178 -5.62629 5.96531 0
M  V30 2474 O 417.568 -6.87667 5.41053 0
M  V30 2475 C 418.058 -4.52537 5.39283 0
M  V30 2476 C 417.348 -4.20027 4.08623 0
M  V30 2477 N 417.398 -2.76189 3.71603 0
M  V30 2478 H 414.559 -4.797 7.24003 0
M  V30 2479 H 414.289 -3.69856 5.84513 0
M  V30 2480 H 415.156 -6.10356 5.41441 0
M  V30 2481 P 419.118 -7.20834 5.23717 0
M  V30 2482 O 419.338 -8.66274 5.38678 0
M  V30 2483 O 419.908 -6.33687 6.13629 0
M  V30 2484 O 419.368 -6.7751 3.72168 0
M  V30 2485 C 418.428 -7.20919 2.70795 0
M  V30 2486 C 419.158 -7.45864 1.40599 0
M  V30 2487 O 419.368 -6.17751 0.734343 0
M  V30 2488 C 420.558 -8.05906 1.51917 0
M  V30 2489 O 420.948 -8.74358 0.335205 0
M  V30 2490 C 421.438 -6.83093 1.70294 0
M  V30 2491 C 420.728 -5.79992 0.836974 0
M  V30 2492 N 420.778 -4.41864 1.38293 0
M  V30 2493 C 420.698 -4.02089 2.69407 0
M  V30 2494 N 420.768 -2.73403 2.85089 0
M  V30 2495 C 420.918 -2.25086 1.5642 0
M  V30 2496 C 421.048 -0.942887 1.04836 0
M  V30 2497 N 421.058 0.150999 1.80369 0
M  V30 2498 N 421.168 -0.812565 -0.28167 0
M  V30 2499 C 421.158 -1.90572 -1.03784 0
M  V30 2500 N 421.038 -3.167 -0.683905 0
M  V30 2501 C 420.918 -3.26538 0.652815 0
M  V30 2502 H 417.94 -8.13738 3.03804 0
M  V30 2503 H 417.668 -6.42974 2.55559 0
M  V30 2504 H 418.536 -8.12139 0.792866 0
M  V30 2505 H 421.191 -5.80178 -0.160643 0
M  V30 2506 H 421.471 -6.51379 2.75643 0
M  V30 2507 H 422.462 -7.01832 1.3448 0
M  V30 2508 H 420.628 -8.73771 2.38364 0
M  V30 2509 H 420.587 -4.7189 3.52311 0
M  V30 2510 H 420.968 0.0721434 2.82608 0
M  V30 2511 H 421.157 1.0785 1.36544 0
M  V30 2512 H 421.265 -1.73207 -2.10241 0
M  V30 2513 P 422.497 -8.91 -2.28351e-12 0
M  V30 2514 O 422.717 -10.1726 -0.733694 0
M  V30 2515 O 423.287 -8.73148 1.23936 0
M  V30 2516 O 422.747 -7.66872 -0.971405 0
M  V30 2517 C 421.807 -7.42309 -2.04641 0
M  V30 2518 C 422.537 -6.86059 -3.24661 0
M  V30 2519 O 422.747 -5.42847 -3.03646 0
M  V30 2520 C 423.937 -7.41196 -3.50753 0
M  V30 2521 O 424.327 -7.27073 -4.86816 0
M  V30 2522 C 424.817 -6.5273 -2.63741 0
M  V30 2523 C 424.107 -5.1842 -2.73198 0
M  V30 2524 N 424.157 -4.38762 -1.4784 0
M  V30 2525 H 421.318 -8.36803 -2.32493 0
M  V30 2526 H 421.048 -6.70197 -1.71129 0
M  V30 2527 H 421.915 -7.03551 -4.13168 0
M  V30 2528 P 425.877 -7.20834 -5.23717 0
M  V30 2529 O 426.097 -7.79853 -6.57286 0
M  V30 2530 O 426.667 -7.79239 -4.12957 0
M  V30 2531 O 426.127 -5.63315 -5.29344 0
M  V30 2532 C 425.187 -4.80255 -6.01876 0
M  V30 2533 C 425.917 -3.64202 -6.65911 0
M  V30 2534 O 426.127 -2.60694 -5.64732 0
M  V30 2535 C 427.317 -3.93473 -7.1943 0
M  V30 2536 O 427.707 -3.02071 -8.21205 0
M  V30 2537 C 428.197 -3.73047 -5.97036 0
M  V30 2538 C 427.487 -2.58828 -5.25741 0
M  V30 2539 N 427.537 -2.68068 -3.77503 0
M  V30 2540 H 424.698 -5.40332 -6.79951 0
M  V30 2541 H 424.428 -4.41613 -5.32378 0
M  V30 2542 H 425.295 -3.26331 -7.47797 0
M  V30 2543 P 429.257 -2.75334 -8.47391 0
M  V30 2544 O 429.477 -2.44619 -9.90336 0
M  V30 2545 O 430.047 -3.87776 -7.92294 0
M  V30 2546 O 429.507 -1.4459 -7.59357 0
M  V30 2547 C 428.567 -0.347653 -7.69315 0
M  V30 2548 C 429.297 0.96767 -7.52806 0
M  V30 2549 O 429.507 1.21055 -6.10208 0
M  V30 2550 C 430.697 1.04557 -8.13408 0
M  V30 2551 O 431.087 2.38311 -8.41922 0
M  V30 2552 C 431.577 0.491279 -7.02284 0
M  V30 2553 C 430.867 0.996264 -5.77469 0
M  V30 2554 N 430.917 0.0501916 -4.62973 0
M  V30 2555 C 430.837 -1.31969 -4.65661 0
M  V30 2556 N 430.907 -1.86649 -3.48119 0
M  V30 2557 C 431.057 -0.792089 -2.62406 0
M  V30 2558 C 431.187 -0.705684 -1.2207 0
M  V30 2559 N 431.197 -1.76207 -0.413762 0
M  V30 2560 N 431.307 0.518981 -0.685754 0
M  V30 2561 C 431.297 1.57595 -1.49174 0
M  V30 2562 N 431.177 1.62909 -2.80066 0
M  V30 2563 C 431.057 0.388195 -3.3073 0
M  V30 2564 H 428.079 -0.374765 -8.67791 0
M  V30 2565 H 427.807 -0.443613 -6.90476 0
M  V30 2566 H 428.675 1.75559 -7.96891 0
M  V30 2567 H 431.33 1.94563 -5.46818 0
M  V30 2568 H 431.61 -0.608651 -7.04676 0
M  V30 2569 H 432.601 0.889796 -7.09039 0
M  V30 2570 H 430.767 0.433128 -9.04664 0
M  V30 2571 H 430.726 -1.89246 -5.57664 0
M  V30 2572 H 431.107 -2.71005 -0.804694 0
M  V30 2573 H 431.296 -1.63189 0.603768 0
M  V30 2574 H 431.404 2.53475 -0.997614 0
M  V30 2575 P 432.637 2.75334 -8.47391 0
M  V30 2576 O 432.857 3.84128 -9.44797 0
M  V30 2577 O 433.427 1.51947 -8.68712 0
M  V30 2578 O 432.887 3.29363 -6.99321 0
M  V30 2579 C 431.947 4.24011 -6.4274 0
M  V30 2580 C 432.677 5.20775 -5.52155 0
M  V30 2581 O 432.887 4.56534 -4.22446 0
M  V30 2582 C 434.077 5.62629 -5.96531 0
M  V30 2583 O 434.467 6.87667 -5.41053 0
M  V30 2584 C 434.957 4.52537 -5.39283 0
M  V30 2585 C 434.247 4.20027 -4.08623 0
M  V30 2586 N 434.297 2.76189 -3.71603 0
M  V30 2587 C 434.217 1.64862 -4.52822 0
M  V30 2588 N 434.297 0.512671 -3.88633 0
M  V30 2589 C 434.437 0.888083 -2.54977 0
M  V30 2590 C 434.567 0.094668 -1.38677 0
M  V30 2591 O 434.587 -1.13053 -1.28163 0
M  V30 2592 N 434.687 0.890102 -0.232633 0
M  V30 2593 C 434.687 2.26958 -0.21772 0
M  V30 2594 N 434.817 2.84626 0.97925 0
M  V30 2595 N 434.557 3.0178 -1.31033 0
M  V30 2596 C 434.437 2.26781 -2.43843 0
M  V30 2597 H 431.458 4.797 -7.24003 0
M  V30 2598 H 431.188 3.69856 -5.84513 0
M  V30 2599 H 432.055 6.10356 -5.41441 0
M  V30 2600 H 434.71 4.79061 -3.27488 0
M  V30 2601 H 434.989 3.64906 -6.05785 0
M  V30 2602 H 435.981 4.8868 -5.2125 0
M  V30 2603 H 434.147 5.66726 -7.06352 0
M  V30 2604 H 434.098 1.71169 -5.60966 0
M  V30 2605 H 434.78 0.419134 0.644739 0
M  V30 2606 H 434.817 3.87332 1.06098 0
M  V30 2607 H 434.918 2.26417 1.82483 0
M  V30 2608 P 436.017 7.20834 -5.23717 0
M  V30 2609 O 436.237 8.66104 -5.38572 0
M  V30 2610 O 436.807 6.33544 -6.1349 0
M  V30 2611 O 436.267 6.7751 -3.72168 0
M  V30 2612 C 435.327 7.20825 -2.7076 0
M  V30 2613 C 436.057 7.45864 -1.40599 0
M  V30 2614 O 436.267 6.17651 -0.734225 0
M  V30 2615 C 437.457 8.05808 -1.51899 0
M  V30 2616 O 437.847 8.74358 -0.335205 0
M  V30 2617 C 438.337 6.83093 -1.70294 0
M  V30 2618 C 437.627 5.79992 -0.836974 0
M  V30 2619 N 437.677 4.41864 -1.38293 0
M  V30 2620 C 437.597 3.99538 -2.69438 0
M  V30 2621 N 437.677 2.69909 -2.84277 0
M  V30 2622 C 437.817 2.21719 -1.5408 0
M  V30 2623 C 437.947 0.891712 -1.06628 0
M  V30 2624 N 438.067 0.856846 0.334985 0
M  V30 2625 C 438.067 1.9641 1.15789 0
M  V30 2626 N 438.197 1.72708 2.46522 0
M  V30 2627 N 437.937 3.21165 0.713741 0
M  V30 2628 C 437.817 3.26797 -0.639748 0
M  V30 2629 H 434.838 8.13644 -3.0377 0
M  V30 2630 H 434.568 6.42788 -2.55485 0
M  V30 2631 H 435.435 8.12039 -0.792769 0
M  V30 2632 P 439.397 8.91 2.44069e-12 0
M  V30 2633 O 439.617 10.1726 0.733694 0
M  V30 2634 O 440.187 8.73148 -1.23936 0
M  V30 2635 O 439.647 7.66872 0.971405 0
M  V30 2636 C 438.707 7.42309 2.04641 0
M  V30 2637 C 439.437 6.86059 3.24661 0
M  V30 2638 O 439.647 5.42847 3.03646 0
M  V30 2639 C 440.837 7.41196 3.50753 0
M  V30 2640 O 441.227 7.27073 4.86816 0
M  V30 2641 C 441.717 6.5273 2.63741 0
M  V30 2642 C 441.007 5.1842 2.73198 0
M  V30 2643 N 441.057 4.38762 1.4784 0
M  V30 2644 H 438.218 8.36803 2.32493 0
M  V30 2645 H 437.948 6.70197 1.71129 0
M  V30 2646 H 438.815 7.03551 4.13168 0
M  V30 2647 P 442.777 7.20834 5.23717 0
M  V30 2648 O 442.997 7.79853 6.57286 0
M  V30 2649 O 443.567 7.79239 4.12957 0
M  V30 2650 O 443.027 5.63315 5.29344 0
M  V30 2651 C 442.087 4.80255 6.01876 0
M  V30 2652 C 442.817 3.64202 6.65911 0
M  V30 2653 O 443.027 2.60694 5.64732 0
M  V30 2654 C 444.217 3.93473 7.1943 0
M  V30 2655 O 444.607 3.02071 8.21205 0
M  V30 2656 C 445.097 3.73047 5.97036 0
M  V30 2657 C 444.387 2.58828 5.25741 0
M  V30 2658 N 444.437 2.68068 3.77503 0
M  V30 2659 H 441.598 5.40332 6.79951 0
M  V30 2660 H 441.328 4.41613 5.32378 0
M  V30 2661 H 442.195 3.26331 7.47797 0
M  V30 2662 P 446.157 2.75334 8.47391 0
M  V30 2663 O 446.377 2.44571 9.90142 0
M  V30 2664 O 446.947 3.87688 7.92115 0
M  V30 2665 O 446.407 1.4459 7.59357 0
M  V30 2666 C 445.467 0.347608 7.69215 0
M  V30 2667 C 446.197 -0.96767 7.52806 0
M  V30 2668 O 446.407 -1.21036 6.1011 0
M  V30 2669 C 447.597 -1.04544 8.13308 0
M  V30 2670 O 447.987 -2.38311 8.41922 0
M  V30 2671 C 448.477 -0.491279 7.02284 0
M  V30 2672 C 447.767 -0.996264 5.77469 0
M  V30 2673 N 447.817 -0.0501916 4.62973 0
M  V30 2674 H 444.978 0.374722 8.67691 0
M  V30 2675 H 444.708 0.443485 6.90277 0
M  V30 2676 H 445.575 -1.75537 7.96793 0
M  V30 2677 P 449.537 -2.75334 8.47391 0
M  V30 2678 O 449.757 -3.84128 9.44797 0
M  V30 2679 O 450.327 -1.51947 8.68712 0
M  V30 2680 O 449.787 -3.29363 6.99321 0
M  V30 2681 C 448.847 -4.24011 6.4274 0
M  V30 2682 C 449.577 -5.20775 5.52155 0
M  V30 2683 O 449.787 -4.56534 4.22446 0
M  V30 2684 C 450.977 -5.62629 5.96531 0
M  V30 2685 O 451.367 -6.87667 5.41053 0
M  V30 2686 C 451.857 -4.52537 5.39283 0
M  V30 2687 C 451.147 -4.20027 4.08623 0
M  V30 2688 N 451.197 -2.76189 3.71603 0
M  V30 2689 H 448.358 -4.797 7.24003 0
M  V30 2690 H 448.088 -3.69856 5.84513 0
M  V30 2691 H 448.955 -6.10356 5.41441 0
M  V30 2692 P 452.917 -7.20834 5.23717 0
M  V30 2693 O 453.137 -8.66104 5.38572 0
M  V30 2694 O 453.707 -6.33544 6.1349 0
M  V30 2695 O 453.167 -6.7751 3.72168 0
M  V30 2696 C 452.227 -7.20825 2.7076 0
M  V30 2697 C 452.957 -7.45864 1.40599 0
M  V30 2698 O 453.167 -6.17651 0.734225 0
M  V30 2699 C 454.357 -8.05808 1.51899 0
M  V30 2700 O 454.747 -8.74358 0.335205 0
M  V30 2701 C 455.237 -6.83093 1.70294 0
M  V30 2702 C 454.527 -5.79992 0.836974 0
M  V30 2703 N 454.577 -4.41864 1.38293 0
M  V30 2704 H 451.738 -8.13644 3.0377 0
M  V30 2705 H 451.468 -6.42788 2.55485 0
M  V30 2706 H 452.335 -8.12039 0.792769 0
M  V30 2707 P 456.297 -8.91 -2.59788e-12 0
M  V30 2708 O 456.517 -10.1736 -0.733766 0
M  V30 2709 O 457.087 -8.73247 1.2395 0
M  V30 2710 O 456.547 -7.66872 -0.971405 0
M  V30 2711 C 455.607 -7.42212 -2.04614 0
M  V30 2712 C 456.337 -6.86059 -3.24661 0
M  V30 2713 O 456.547 -5.42847 -3.03646 0
M  V30 2714 C 457.737 -7.41196 -3.50753 0
M  V30 2715 O 458.127 -7.27073 -4.86816 0
M  V30 2716 C 458.617 -6.5273 -2.63741 0
M  V30 2717 C 457.907 -5.1842 -2.73198 0
M  V30 2718 N 457.957 -4.38668 -1.47808 0
M  V30 2719 C 458.107 -3.02239 -1.60048 0
M  V30 2720 O 458.197 -2.46459 -2.67869 0
M  V30 2721 N 458.147 -2.32436 -0.408571 0
M  V30 2722 C 458.057 -2.85471 0.854993 0
M  V30 2723 O 458.107 -2.12566 1.8531 0
M  V30 2724 C 457.907 -4.28918 0.887335 0
M  V30 2725 C 457.797 -4.91066 2.24619 0
M  V30 2726 C 457.857 -5.00349 -0.255399 0
M  V30 2727 H 455.117 -8.36803 -2.32493 0
M  V30 2728 H 454.848 -6.701 -1.71105 0
M  V30 2729 H 455.715 -7.03551 -4.13168 0
M  V30 2730 H 458.37 -4.59773 -3.53894 0
M  V30 2731 H 458.649 -6.88995 -1.59871 0
M  V30 2732 H 459.641 -6.46749 -3.03687 0
M  V30 2733 H 457.807 -8.46908 -3.20714 0
M  V30 2734 H 457.736 -6.08548 -0.206986 0
M  V30 2735 H 458.766 -5.34836 2.53099 0
M  V30 2736 H 457.029 -5.69638 2.2291 0
M  V30 2737 H 457.517 -4.13971 2.98044 0
M  V30 2738 H 458.253 -1.33211 -0.474216 0
M  V30 2739 P 459.677 -7.20834 -5.23717 0
M  V30 2740 O 459.897 -7.79853 -6.57286 0
M  V30 2741 O 460.467 -7.79239 -4.12957 0
M  V30 2742 O 459.927 -5.63315 -5.29344 0
M  V30 2743 C 458.987 -4.80255 -6.01876 0
M  V30 2744 C 459.717 -3.64202 -6.65911 0
M  V30 2745 O 459.927 -2.60694 -5.64732 0
M  V30 2746 C 461.117 -3.93473 -7.1943 0
M  V30 2747 O 461.507 -3.02071 -8.21205 0
M  V30 2748 C 461.997 -3.73047 -5.97036 0
M  V30 2749 C 461.287 -2.58828 -5.25741 0
M  V30 2750 N 461.337 -2.68068 -3.77503 0
M  V30 2751 C 461.257 -3.79715 -2.96723 0
M  V30 2752 N 461.337 -3.5377 -1.68852 0
M  V30 2753 C 461.477 -2.15054 -1.63254 0
M  V30 2754 C 461.607 -1.28964 -0.518571 0
M  V30 2755 O 461.627 -1.56826 0.679156 0
M  V30 2756 N 461.727 0.0538097 -0.918425 0
M  V30 2757 C 461.727 0.494275 -2.22578 0
M  V30 2758 N 461.857 1.81086 -2.40434 0
M  V30 2759 N 461.597 -0.313645 -3.27502 0
M  V30 2760 C 461.477 -1.61829 -2.91033 0
M  V30 2761 H 458.498 -5.40332 -6.79951 0
M  V30 2762 H 458.228 -4.41613 -5.32378 0
M  V30 2763 H 459.095 -3.26331 -7.47797 0
M  V30 2764 H 461.75 -1.63422 -5.56814 0
M  V30 2765 H 462.029 -4.63374 -5.34244 0
M  V30 2766 H 463.021 -3.44728 -6.25838 0
M  V30 2767 H 461.187 -4.96652 -7.57263 0
M  V30 2768 H 461.138 -4.80617 -3.3614 0
M  V30 2769 H 461.82 0.742702 -0.199384 0
M  V30 2770 H 461.857 2.20598 -3.35588 0
M  V30 2771 H 461.958 2.43518 -1.58945 0
M  V30 2772 P 463.057 -2.75334 -8.47391 0
M  V30 2773 O 463.277 -2.44571 -9.90142 0
M  V30 2774 O 463.847 -3.87688 -7.92115 0
M  V30 2775 O 463.307 -1.4459 -7.59357 0
M  V30 2776 C 462.367 -0.347608 -7.69215 0
M  V30 2777 C 463.097 0.96767 -7.52806 0
M  V30 2778 O 463.307 1.21036 -6.1011 0
M  V30 2779 C 464.497 1.04544 -8.13308 0
M  V30 2780 O 464.887 2.38311 -8.41922 0
M  V30 2781 C 465.377 0.491279 -7.02284 0
M  V30 2782 C 464.667 0.996264 -5.77469 0
M  V30 2783 N 464.717 0.0501916 -4.62973 0
M  V30 2784 H 461.878 -0.374722 -8.67691 0
M  V30 2785 H 461.608 -0.443485 -6.90277 0
M  V30 2786 H 462.475 1.75537 -7.96793 0
M  V30 2787 P 466.437 2.75334 -8.47391 0
M  V30 2788 O 466.657 3.84128 -9.44797 0
M  V30 2789 O 467.227 1.51947 -8.68712 0
M  V30 2790 O 466.687 3.29363 -6.99321 0
M  V30 2791 C 465.747 4.24011 -6.4274 0
M  V30 2792 C 466.477 5.20775 -5.52155 0
M  V30 2793 O 466.687 4.56534 -4.22446 0
M  V30 2794 C 467.877 5.62629 -5.96531 0
M  V30 2795 O 468.267 6.87667 -5.41053 0
M  V30 2796 C 468.757 4.52537 -5.39283 0
M  V30 2797 C 468.047 4.20027 -4.08623 0
M  V30 2798 N 468.097 2.76189 -3.71603 0
M  V30 2799 H 465.258 4.797 -7.24003 0
M  V30 2800 H 464.988 3.69856 -5.84513 0
M  V30 2801 H 465.855 6.10356 -5.41441 0
M  V30 2802 P 469.817 7.20834 -5.23717 0
M  V30 2803 O 470.037 8.66104 -5.38572 0
M  V30 2804 O 470.607 6.33544 -6.1349 0
M  V30 2805 O 470.067 6.7751 -3.72168 0
M  V30 2806 C 469.127 7.20825 -2.7076 0
M  V30 2807 C 469.857 7.45864 -1.40599 0
M  V30 2808 O 470.067 6.17651 -0.734225 0
M  V30 2809 C 471.257 8.05808 -1.51899 0
M  V30 2810 O 471.647 8.74358 -0.335205 0
M  V30 2811 C 472.137 6.83093 -1.70294 0
M  V30 2812 C 471.427 5.79992 -0.836974 0
M  V30 2813 N 471.477 4.41864 -1.38293 0
M  V30 2814 H 468.638 8.13644 -3.0377 0
M  V30 2815 H 468.368 6.42788 -2.55485 0
M  V30 2816 H 469.235 8.12039 -0.792769 0
M  V30 2817 P 473.197 8.91 2.75506e-12 0
M  V30 2818 O 473.417 10.1746 0.733838 0
M  V30 2819 O 473.987 8.73346 -1.23964 0
M  V30 2820 O 473.447 7.66872 0.971405 0
M  V30 2821 C 472.507 7.42405 2.04668 0
M  V30 2822 C 473.237 6.86059 3.24661 0
M  V30 2823 O 473.447 5.42934 3.03695 0
M  V30 2824 C 474.637 7.41287 3.50796 0
M  V30 2825 O 475.027 7.27073 4.86816 0
M  V30 2826 C 475.517 6.5273 2.63741 0
M  V30 2827 C 474.807 5.1842 2.73198 0
M  V30 2828 N 474.857 4.38762 1.4784 0
M  V30 2829 H 472.019 8.36899 2.3252 0
M  V30 2830 H 471.747 6.70391 1.71179 0
M  V30 2831 H 472.615 7.03638 4.13219 0
M  V30 2832 H 475.27 4.59931 3.54016 0
M  V30 2833 H 475.55 6.88995 1.59871 0
M  V30 2834 H 476.541 6.4684 3.0373 0
M  V30 2835 H 474.707 8.47002 3.20749 0
M  V30 2836 P 476.577 7.20834 5.23717 0
M  V30 2837 O 476.797 7.80006 6.57415 0
M  V30 2838 O 477.367 7.79416 4.13051 0
M  V30 2839 O 476.827 5.63315 5.29344 0
M  V30 2840 C 475.887 4.80318 6.01954 0
M  V30 2841 C 476.617 3.64202 6.65911 0
M  V30 2842 O 476.827 2.60736 5.64823 0
M  V30 2843 C 478.017 3.93521 7.19518 0
M  V30 2844 O 478.407 3.02071 8.21205 0
M  V30 2845 C 478.897 3.73047 5.97036 0
M  V30 2846 C 478.187 2.58828 5.25741 0
M  V30 2847 N 478.237 2.68068 3.77503 0
M  V30 2848 C 478.157 3.80474 2.99159 0
M  V30 2849 N 478.227 3.55622 1.71925 0
M  V30 2850 C 478.377 2.1832 1.65733 0
M  V30 2851 C 478.507 1.28842 0.572777 0
M  V30 2852 N 478.517 1.66875 -0.70098 0
M  V30 2853 N 478.627 -0.016788 0.859836 0
M  V30 2854 C 478.617 -0.398145 2.13316 0
M  V30 2855 N 478.497 0.328224 3.22333 0
M  V30 2856 C 478.377 1.62992 2.90383 0
M  V30 2857 H 475.399 5.40394 6.8003 0
M  V30 2858 H 475.127 4.41741 5.32532 0
M  V30 2859 H 475.995 3.26371 7.47889 0
M  V30 2860 H 478.65 1.64007 5.56746 0
M  V30 2861 H 478.93 4.63439 5.3432 0
M  V30 2862 H 479.921 3.44776 6.25925 0
M  V30 2863 H 478.087 4.96707 7.57347 0
M  V30 2864 H 478.046 4.8089 3.39924 0
M  V30 2865 H 478.427 2.66547 -0.941919 0
M  V30 2866 H 478.616 0.965341 -1.44766 0
M  V30 2867 H 478.724 -1.46427 2.29697 0
M  V30 2868 P 479.957 2.75334 8.47391 0
M  V30 2869 O 480.177 2.44571 9.90142 0
M  V30 2870 O 480.747 3.87688 7.92115 0
M  V30 2871 O 480.207 1.4459 7.59357 0
M  V30 2872 C 479.267 0.347608 7.69215 0
M  V30 2873 C 479.997 -0.96767 7.52806 0
M  V30 2874 O 480.207 -1.21036 6.1011 0
M  V30 2875 C 481.397 -1.04544 8.13308 0
M  V30 2876 O 481.787 -2.38311 8.41922 0
M  V30 2877 C 482.277 -0.491279 7.02284 0
M  V30 2878 C 481.567 -0.996264 5.77469 0
M  V30 2879 N 481.617 -0.0501916 4.62973 0
M  V30 2880 H 478.778 0.374722 8.67691 0
M  V30 2881 H 478.508 0.443485 6.90277 0
M  V30 2882 H 479.375 -1.75537 7.96793 0
M  V30 2883 P 483.337 -2.75334 8.47391 0
M  V30 2884 O 483.557 -3.84128 9.44797 0
M  V30 2885 O 484.127 -1.51947 8.68712 0
M  V30 2886 O 483.587 -3.29363 6.99321 0
M  V30 2887 C 482.647 -4.24011 6.4274 0
M  V30 2888 C 483.377 -5.20775 5.52155 0
M  V30 2889 O 483.587 -4.56534 4.22446 0
M  V30 2890 C 484.777 -5.62629 5.96531 0
M  V30 2891 O 485.167 -6.87667 5.41053 0
M  V30 2892 C 485.657 -4.52537 5.39283 0
M  V30 2893 C 484.947 -4.20027 4.08623 0
M  V30 2894 N 484.997 -2.76189 3.71603 0
M  V30 2895 H 482.158 -4.797 7.24003 0
M  V30 2896 H 481.888 -3.69856 5.84513 0
M  V30 2897 H 482.755 -6.10356 5.41441 0
M  V30 2898 P 486.717 -7.20834 5.23717 0
M  V30 2899 O 486.937 -8.66104 5.38572 0
M  V30 2900 O 487.507 -6.33544 6.1349 0
M  V30 2901 O 486.967 -6.7751 3.72168 0
M  V30 2902 C 486.027 -7.20825 2.7076 0
M  V30 2903 C 486.757 -7.45864 1.40599 0
M  V30 2904 O 486.967 -6.17651 0.734225 0
M  V30 2905 C 488.157 -8.05808 1.51899 0
M  V30 2906 O 488.547 -8.74358 0.335205 0
M  V30 2907 C 489.037 -6.83093 1.70294 0
M  V30 2908 C 488.327 -5.79992 0.836974 0
M  V30 2909 N 488.377 -4.41864 1.38293 0
M  V30 2910 H 485.538 -8.13644 3.0377 0
M  V30 2911 H 485.268 -6.42788 2.55485 0
M  V30 2912 H 486.135 -8.12039 0.792769 0
M  V30 2913 P 490.097 -8.91 -2.91224e-12 0
M  V30 2914 O 490.317 -10.1736 -0.733766 0
M  V30 2915 O 490.887 -8.73247 1.2395 0
M  V30 2916 O 490.347 -7.66872 -0.971405 0
M  V30 2917 C 489.407 -7.42212 -2.04614 0
M  V30 2918 C 490.137 -6.86059 -3.24661 0
M  V30 2919 O 490.347 -5.42847 -3.03646 0
M  V30 2920 C 491.537 -7.41196 -3.50753 0
M  V30 2921 O 491.927 -7.27073 -4.86816 0
M  V30 2922 C 492.417 -6.5273 -2.63741 0
M  V30 2923 C 491.707 -5.1842 -2.73198 0
M  V30 2924 N 491.757 -4.38668 -1.47808 0
M  V30 2925 C 491.907 -3.02239 -1.60048 0
M  V30 2926 O 491.997 -2.46459 -2.67869 0
M  V30 2927 N 491.947 -2.32436 -0.408571 0
M  V30 2928 C 491.857 -2.85471 0.854993 0
M  V30 2929 O 491.907 -2.12566 1.8531 0
M  V30 2930 C 491.707 -4.28918 0.887335 0
M  V30 2931 C 491.597 -4.91066 2.24619 0
M  V30 2932 C 491.657 -5.00349 -0.255399 0
M  V30 2933 H 488.917 -8.36803 -2.32493 0
M  V30 2934 H 488.648 -6.701 -1.71105 0
M  V30 2935 H 489.515 -7.03551 -4.13168 0
M  V30 2936 H 492.17 -4.59773 -3.53894 0
M  V30 2937 H 492.449 -6.88995 -1.59871 0
M  V30 2938 H 493.441 -6.46749 -3.03687 0
M  V30 2939 H 491.607 -8.46908 -3.20714 0
M  V30 2940 H 491.536 -6.08548 -0.206986 0
M  V30 2941 H 492.566 -5.34836 2.53099 0
M  V30 2942 H 490.829 -5.69638 2.2291 0
M  V30 2943 H 491.317 -4.13971 2.98044 0
M  V30 2944 H 492.053 -1.33211 -0.474216 0
M  V30 2945 P 493.477 -7.20834 -5.23717 0
M  V30 2946 O 493.697 -7.79853 -6.57286 0
M  V30 2947 O 494.267 -7.79239 -4.12957 0
M  V30 2948 O 493.727 -5.63315 -5.29344 0
M  V30 2949 C 492.787 -4.80255 -6.01876 0
M  V30 2950 C 493.517 -3.64202 -6.65911 0
M  V30 2951 O 493.727 -2.60694 -5.64732 0
M  V30 2952 C 494.917 -3.93473 -7.1943 0
M  V30 2953 O 495.307 -3.02071 -8.21205 0
M  V30 2954 C 495.797 -3.73047 -5.97036 0
M  V30 2955 C 495.087 -2.58828 -5.25741 0
M  V30 2956 N 495.137 -2.68068 -3.77503 0
M  V30 2957 H 492.298 -5.40332 -6.79951 0
M  V30 2958 H 492.028 -4.41613 -5.32378 0
M  V30 2959 H 492.895 -3.26331 -7.47797 0
M  V30 2960 P 496.857 -2.75334 -8.47391 0
M  V30 2961 O 497.077 -2.44571 -9.90142 0
M  V30 2962 O 497.647 -3.87688 -7.92115 0
M  V30 2963 O 497.107 -1.4459 -7.59357 0
M  V30 2964 C 496.167 -0.347608 -7.69215 0
M  V30 2965 C 496.897 0.96767 -7.52806 0
M  V30 2966 O 497.107 1.21036 -6.1011 0
M  V30 2967 C 498.297 1.04544 -8.13308 0
M  V30 2968 O 498.687 2.38311 -8.41922 0
M  V30 2969 C 499.177 0.491279 -7.02284 0
M  V30 2970 C 498.467 0.996264 -5.77469 0
M  V30 2971 N 498.517 0.0501916 -4.62973 0
M  V30 2972 H 495.678 -0.374722 -8.67691 0
M  V30 2973 H 495.408 -0.443485 -6.90277 0
M  V30 2974 H 496.275 1.75537 -7.96793 0
M  V30 2975 P 500.237 2.75334 -8.47391 0
M  V30 2976 O 500.457 3.84128 -9.44797 0
M  V30 2977 O 501.027 1.51947 -8.68712 0
M  V30 2978 O 500.487 3.29363 -6.99321 0
M  V30 2979 C 499.547 4.24011 -6.4274 0
M  V30 2980 C 500.277 5.20775 -5.52155 0
M  V30 2981 O 500.487 4.56534 -4.22446 0
M  V30 2982 C 501.677 5.62629 -5.96531 0
M  V30 2983 O 502.067 6.87667 -5.41053 0
M  V30 2984 C 502.557 4.52537 -5.39283 0
M  V30 2985 C 501.847 4.20027 -4.08623 0
M  V30 2986 N 501.897 2.76189 -3.71603 0
M  V30 2987 H 499.058 4.797 -7.24003 0
M  V30 2988 H 498.788 3.69856 -5.84513 0
M  V30 2989 H 499.655 6.10356 -5.41441 0
M  V30 2990 P 503.617 7.20834 -5.23717 0
M  V30 2991 O 503.837 8.66189 -5.38625 0
M  V30 2992 O 504.407 6.33615 -6.1356 0
M  V30 2993 O 503.867 6.7751 -3.72168 0
M  V30 2994 C 502.927 7.20732 -2.70725 0
M  V30 2995 C 503.657 7.45864 -1.40599 0
M  V30 2996 O 503.867 6.17651 -0.734225 0
M  V30 2997 C 505.057 8.05808 -1.51899 0
M  V30 2998 O 505.447 8.74358 -0.335205 0
M  V30 2999 C 505.937 6.83093 -1.70294 0
M  V30 3000 C 505.227 5.79992 -0.836974 0
M  V30 3001 N 505.277 4.41769 -1.38263 0
M  V30 3002 C 505.427 3.38591 -0.481702 0
M  V30 3003 O 505.517 3.56839 0.718452 0
M  V30 3004 N 505.467 2.1206 -1.03569 0
M  V30 3005 C 505.377 1.80696 -2.36966 0
M  V30 3006 O 505.427 0.630473 -2.74862 0
M  V30 3007 C 505.227 2.94845 -3.23898 0
M  V30 3008 C 505.117 2.65253 -4.70362 0
M  V30 3009 C 505.177 4.19803 -2.73435 0
M  V30 3010 H 502.437 8.13644 -3.0377 0
M  V30 3011 H 502.168 6.42695 -2.55448 0
M  V30 3012 H 503.035 8.12039 -0.792769 0
M  V30 3013 H 505.69 5.79978 0.160587 0
M  V30 3014 H 505.969 6.51379 -2.75643 0
M  V30 3015 H 506.961 7.01734 -1.34462 0
M  V30 3016 H 505.127 8.73674 -2.38337 0
M  V30 3017 H 505.056 5.04492 -3.4095 0
M  V30 3018 H 506.086 2.83924 -5.1913 0
M  V30 3019 H 504.349 3.29824 -5.15163 0
M  V30 3020 H 504.837 1.59723 -4.84449 0
M  V30 3021 H 505.573 1.35644 -0.399345 0
M  V30 3022 P 506.997 8.91 3.06942e-12 0
M  V30 3023 O 507.217 10.1726 0.733694 0
M  V30 3024 O 507.787 8.73148 -1.23936 0
M  V30 3025 O 507.247 7.66872 0.971405 0
M  V30 3026 C 506.307 7.42309 2.04641 0
M  V30 3027 C 507.037 6.86059 3.24661 0
M  V30 3028 O 507.247 5.42847 3.03646 0
M  V30 3029 C 508.437 7.41196 3.50753 0
M  V30 3030 O 508.827 7.27073 4.86816 0
M  V30 3031 C 509.317 6.5273 2.63741 0
M  V30 3032 C 508.607 5.1842 2.73198 0
M  V30 3033 N 508.657 4.38762 1.4784 0
M  V30 3034 H 505.818 8.36803 2.32493 0
M  V30 3035 H 505.548 6.70197 1.71129 0
M  V30 3036 H 506.415 7.03551 4.13168 0
M  V30 3037 P 510.377 7.20834 5.23717 0
M  V30 3038 O 510.597 7.79853 6.57286 0
M  V30 3039 O 511.167 7.79239 4.12957 0
M  V30 3040 O 510.627 5.63315 5.29344 0
M  V30 3041 C 509.687 4.80255 6.01876 0
M  V30 3042 C 510.417 3.64202 6.65911 0
M  V30 3043 O 510.627 2.60694 5.64732 0
M  V30 3044 C 511.817 3.93473 7.1943 0
M  V30 3045 O 512.207 3.02071 8.21205 0
M  V30 3046 C 512.697 3.73047 5.97036 0
M  V30 3047 C 511.987 2.58828 5.25741 0
M  V30 3048 N 512.037 2.68068 3.77503 0
M  V30 3049 H 509.198 5.40332 6.79951 0
M  V30 3050 H 508.928 4.41613 5.32378 0
M  V30 3051 H 509.795 3.26331 7.47797 0
M  V30 3052 P 513.757 2.75334 8.47391 0
M  V30 3053 O 513.977 2.44571 9.90142 0
M  V30 3054 O 514.547 3.87688 7.92115 0
M  V30 3055 O 514.007 1.4459 7.59357 0
M  V30 3056 C 513.067 0.347608 7.69215 0
M  V30 3057 C 513.797 -0.96767 7.52806 0
M  V30 3058 O 514.007 -1.21036 6.1011 0
M  V30 3059 C 515.197 -1.04544 8.13308 0
M  V30 3060 O 515.587 -2.38311 8.41922 0
M  V30 3061 C 516.077 -0.491279 7.02284 0
M  V30 3062 C 515.367 -0.996264 5.77469 0
M  V30 3063 N 515.417 -0.0501916 4.62973 0
M  V30 3064 H 512.578 0.374722 8.67691 0
M  V30 3065 H 512.308 0.443485 6.90277 0
M  V30 3066 H 513.175 -1.75537 7.96793 0
M  V30 3067 P 517.137 -2.75334 8.47391 0
M  V30 3068 O 517.357 -3.84166 9.4489 0
M  V30 3069 O 517.927 -1.51964 8.6881 0
M  V30 3070 O 517.387 -3.29363 6.99321 0
M  V30 3071 C 516.447 -4.23956 6.42656 0
M  V30 3072 C 517.177 -5.20775 5.52155 0
M  V30 3073 O 517.387 -4.56534 4.22446 0
M  V30 3074 C 518.577 -5.62629 5.96531 0
M  V30 3075 O 518.967 -6.87667 5.41053 0
M  V30 3076 C 519.457 -4.52537 5.39283 0
M  V30 3077 C 518.747 -4.20027 4.08623 0
M  V30 3078 N 518.797 -2.7613 3.71522 0
M  V30 3079 C 518.947 -2.45612 2.37989 0
M  V30 3080 O 519.037 -3.30919 1.51621 0
M  V30 3081 N 518.987 -1.10684 2.08435 0
M  V30 3082 C 518.897 -0.0690084 2.9792 0
M  V30 3083 O 518.947 1.10553 2.59426 0
M  V30 3084 C 518.747 -0.481522 4.35345 0
M  V30 3085 C 518.637 0.618778 5.36443 0
M  V30 3086 C 518.697 -1.78906 4.67968 0
M  V30 3087 H 515.957 -4.797 7.24003 0
M  V30 3088 H 515.688 -3.69802 5.84429 0
M  V30 3089 H 516.555 -6.10356 5.41441 0
M  V30 3090 H 519.21 -4.78651 3.27911 0
M  V30 3091 H 519.489 -3.64957 6.05871 0
M  V30 3092 H 520.481 -4.8868 5.2125 0
M  V30 3093 H 518.647 -5.66726 7.06352 0
M  V30 3094 H 518.576 -2.07737 5.72367 0
M  V30 3095 H 519.606 0.754375 5.86871 0
M  V30 3096 H 517.869 0.359721 6.10641 0
M  V30 3097 H 518.357 1.55533 4.8581 0
M  V30 3098 H 519.093 -0.862651 1.12037 0
M  V30 3099 P 520.517 -7.20834 5.23717 0
M  V30 3100 O 520.737 -8.66274 5.38678 0
M  V30 3101 O 521.307 -6.33687 6.13629 0
M  V30 3102 O 520.767 -6.7751 3.72168 0
M  V30 3103 C 519.827 -7.20919 2.70795 0
M  V30 3104 C 520.557 -7.45864 1.40599 0
M  V30 3105 O 520.767 -6.17751 0.734343 0
M  V30 3106 C 521.957 -8.05906 1.51917 0
M  V30 3107 O 522.347 -8.74358 0.335205 0
M  V30 3108 C 522.837 -6.83093 1.70294 0
M  V30 3109 C 522.127 -5.79992 0.836974 0
M  V30 3110 N 522.177 -4.41864 1.38293 0
M  V30 3111 H 519.339 -8.13738 3.03804 0
M  V30 3112 H 519.067 -6.42974 2.55559 0
M  V30 3113 H 519.935 -8.12139 0.792866 0
M  V30 3114 H 522.59 -5.80178 -0.160643 0
M  V30 3115 H 522.87 -6.51379 2.75643 0
M  V30 3116 H 523.861 -7.01832 1.3448 0
M  V30 3117 H 522.027 -8.73771 2.38364 0
M  V30 3118 P 523.897 -8.91 -3.22661e-12 0
M  V30 3119 O 524.117 -10.1736 -0.733766 0
M  V30 3120 O 524.687 -8.73247 1.2395 0
M  V30 3121 O 524.147 -7.66872 -0.971405 0
M  V30 3122 C 523.207 -7.42212 -2.04614 0
M  V30 3123 C 523.937 -6.86059 -3.24661 0
M  V30 3124 O 524.147 -5.42847 -3.03646 0
M  V30 3125 C 525.337 -7.41196 -3.50753 0
M  V30 3126 O 525.727 -7.27073 -4.86816 0
M  V30 3127 C 526.217 -6.5273 -2.63741 0
M  V30 3128 C 525.507 -5.1842 -2.73198 0
M  V30 3129 N 525.557 -4.38668 -1.47808 0
M  V30 3130 C 525.707 -3.02239 -1.60048 0
M  V30 3131 O 525.797 -2.46459 -2.67869 0
M  V30 3132 N 525.747 -2.32436 -0.408571 0
M  V30 3133 C 525.657 -2.85471 0.854993 0
M  V30 3134 O 525.707 -2.12566 1.8531 0
M  V30 3135 C 525.507 -4.28918 0.887335 0
M  V30 3136 C 525.397 -4.91066 2.24619 0
M  V30 3137 C 525.457 -5.00349 -0.255399 0
M  V30 3138 H 522.717 -8.36803 -2.32493 0
M  V30 3139 H 522.448 -6.701 -1.71105 0
M  V30 3140 H 523.315 -7.03551 -4.13168 0
M  V30 3141 H 525.97 -4.59773 -3.53894 0
M  V30 3142 H 526.249 -6.88995 -1.59871 0
M  V30 3143 H 527.241 -6.46749 -3.03687 0
M  V30 3144 H 525.407 -8.46908 -3.20714 0
M  V30 3145 H 525.336 -6.08548 -0.206986 0
M  V30 3146 H 526.366 -5.34836 2.53099 0
M  V30 3147 H 524.629 -5.69638 2.2291 0
M  V30 3148 H 525.117 -4.13971 2.98044 0
M  V30 3149 H 525.853 -1.33211 -0.474216 0
M  V30 3150 P 527.277 -7.20834 -5.23717 0
M  V30 3151 O 527.497 -7.79853 -6.57286 0
M  V30 3152 O 528.067 -7.79239 -4.12957 0
M  V30 3153 O 527.527 -5.63315 -5.29344 0
M  V30 3154 C 526.587 -4.80255 -6.01876 0
M  V30 3155 C 527.317 -3.64202 -6.65911 0
M  V30 3156 O 527.527 -2.60694 -5.64732 0
M  V30 3157 C 528.717 -3.93473 -7.1943 0
M  V30 3158 O 529.107 -3.02071 -8.21205 0
M  V30 3159 C 529.597 -3.73047 -5.97036 0
M  V30 3160 C 528.887 -2.58828 -5.25741 0
M  V30 3161 N 528.937 -2.68068 -3.77503 0
M  V30 3162 H 526.098 -5.40332 -6.79951 0
M  V30 3163 H 525.828 -4.41613 -5.32378 0
M  V30 3164 H 526.695 -3.26331 -7.47797 0
M  V30 3165 P 530.657 -2.75334 -8.47391 0
M  V30 3166 O 530.877 -2.44595 -9.90239 0
M  V30 3167 O 531.447 -3.87732 -7.92204 0
M  V30 3168 O 530.907 -1.4459 -7.59357 0
M  V30 3169 C 529.967 -0.347563 -7.69115 0
M  V30 3170 C 530.697 0.96767 -7.52806 0
M  V30 3171 O 530.907 1.21036 -6.1011 0
M  V30 3172 C 532.097 1.04544 -8.13308 0
M  V30 3173 O 532.487 2.38311 -8.41922 0
M  V30 3174 C 532.977 0.491279 -7.02284 0
M  V30 3175 C 532.267 0.996264 -5.77469 0
M  V30 3176 N 532.317 0.0501808 -4.62873 0
M  V30 3177 C 532.467 0.588177 -3.36904 0
M  V30 3178 O 532.557 1.78598 -3.17173 0
M  V30 3179 N 532.507 -0.329694 -2.33686 0
M  V30 3180 C 532.417 -1.6953 -2.45079 0
M  V30 3181 O 532.467 -2.41926 -1.44899 0
M  V30 3182 C 532.267 -2.16933 -3.80505 0
M  V30 3183 C 532.157 -3.65373 -3.97621 0
M  V30 3184 C 532.217 -1.30326 -4.83752 0
M  V30 3185 H 529.477 -0.374722 -8.67691 0
M  V30 3186 H 529.208 -0.443421 -6.90177 0
M  V30 3187 H 530.075 1.75537 -7.96793 0
M  V30 3188 H 532.73 1.94496 -5.46629 0
M  V30 3189 H 533.009 -0.608651 -7.04676 0
M  V30 3190 H 534.001 0.889672 -7.08939 0
M  V30 3191 H 532.167 0.43308 -9.04564 0
M  V30 3192 H 532.096 -1.68366 -5.8516 0
M  V30 3193 H 533.126 -4.05985 -4.30448 0
M  V30 3194 H 531.389 -3.88028 -4.72875 0
M  V30 3195 H 531.877 -4.11381 -3.01609 0
M  V30 3196 H 532.613 0.0393617 -1.41345 0
M  V30 3197 P 534.037 2.75334 -8.47391 0
M  V30 3198 O 534.257 3.84128 -9.44797 0
M  V30 3199 O 534.827 1.51947 -8.68712 0
M  V30 3200 O 534.287 3.29363 -6.99321 0
M  V30 3201 C 533.347 4.24011 -6.4274 0
M  V30 3202 C 534.077 5.20775 -5.52155 0
M  V30 3203 O 534.287 4.56534 -4.22446 0
M  V30 3204 C 535.477 5.62629 -5.96531 0
M  V30 3205 O 535.867 6.87667 -5.41053 0
M  V30 3206 C 536.357 4.52537 -5.39283 0
M  V30 3207 C 535.647 4.20027 -4.08623 0
M  V30 3208 N 535.697 2.76189 -3.71603 0
M  V30 3209 H 532.858 4.797 -7.24003 0
M  V30 3210 H 532.588 3.69856 -5.84513 0
M  V30 3211 H 533.455 6.10356 -5.41441 0
M  V30 3212 P 537.417 7.20834 -5.23717 0
M  V30 3213 O 537.637 8.66104 -5.38572 0
M  V30 3214 O 538.207 6.33544 -6.1349 0
M  V30 3215 O 537.667 6.7751 -3.72168 0
M  V30 3216 C 536.727 7.20825 -2.7076 0
M  V30 3217 C 537.457 7.45864 -1.40599 0
M  V30 3218 O 537.667 6.17651 -0.734225 0
M  V30 3219 C 538.857 8.05808 -1.51899 0
M  V30 3220 O 539.247 8.74358 -0.335205 0
M  V30 3221 C 539.737 6.83093 -1.70294 0
M  V30 3222 C 539.027 5.79992 -0.836974 0
M  V30 3223 N 539.077 4.41864 -1.38293 0
M  V30 3224 H 536.238 8.13644 -3.0377 0
M  V30 3225 H 535.968 6.42788 -2.55485 0
M  V30 3226 H 536.835 8.12039 -0.792769 0
M  V30 3227 P 540.797 8.91 3.38379e-12 0
M  V30 3228 O 541.017 10.1726 0.733694 0
M  V30 3229 O 541.587 8.73148 -1.23936 0
M  V30 3230 O 541.047 7.66872 0.971405 0
M  V30 3231 C 540.107 7.42309 2.04641 0
M  V30 3232 C 540.837 6.86059 3.24661 0
M  V30 3233 O 541.047 5.42847 3.03646 0
M  V30 3234 C 542.237 7.41196 3.50753 0
M  V30 3235 O 542.627 7.27073 4.86816 0
M  V30 3236 C 543.117 6.5273 2.63741 0
M  V30 3237 C 542.407 5.1842 2.73198 0
M  V30 3238 N 542.457 4.38762 1.4784 0
M  V30 3239 C 542.377 4.81605 0.168631 0
M  V30 3240 N 542.457 3.85454 -0.713363 0
M  V30 3241 C 542.597 2.6994 0.0566958 0
M  V30 3242 C 542.727 1.34815 -0.338502 0
M  V30 3243 O 542.747 0.869548 -1.47125 0
M  V30 3244 N 542.847 0.496304 0.77465 0
M  V30 3245 C 542.847 0.908403 2.09122 0
M  V30 3246 N 542.977 -0.0517805 3.00955 0
M  V30 3247 N 542.717 2.17875 2.46519 0
M  V30 3248 C 542.597 3.01988 1.4033 0
M  V30 3249 H 539.618 8.36803 2.32493 0
M  V30 3250 H 539.348 6.70197 1.71129 0
M  V30 3251 H 540.215 7.03551 4.13168 0
M  V30 3252 H 542.87 4.59498 3.54415 0
M  V30 3253 H 543.149 6.88898 1.59848 0
M  V30 3254 H 544.141 6.46749 3.03687 0
M  V30 3255 H 542.307 8.46908 3.20714 0
M  V30 3256 H 542.258 5.86405 -0.105564 0
M  V30 3257 H 542.94 -0.483664 0.597855 0
M  V30 3258 H 542.977 0.187865 4.0116 0
M  V30 3259 H 543.078 -1.03585 2.71726 0
M  V30 3260 P 544.177 7.20834 5.23717 0
M  V30 3261 O 544.397 7.79853 6.57286 0
M  V30 3262 O 544.967 7.79239 4.12957 0
M  V30 3263 O 544.427 5.63315 5.29344 0
M  V30 3264 C 543.487 4.80255 6.01876 0
M  V30 3265 C 544.217 3.64202 6.65911 0
M  V30 3266 O 544.427 2.60694 5.64732 0
M  V30 3267 C 545.617 3.93473 7.1943 0
M  V30 3268 O 546.007 3.02071 8.21205 0
M  V30 3269 C 546.497 3.73047 5.97036 0
M  V30 3270 C 545.787 2.58828 5.25741 0
M  V30 3271 N 545.837 2.68068 3.77503 0
M  V30 3272 H 542.998 5.40332 6.79951 0
M  V30 3273 H 542.728 4.41613 5.32378 0
M  V30 3274 H 543.595 3.26331 7.47797 0
M  V30 3275 P 547.557 2.75334 8.47391 0
M  V30 3276 O 547.777 2.44571 9.90142 0
M  V30 3277 O 548.347 3.87688 7.92115 0
M  V30 3278 O 547.807 1.4459 7.59357 0
M  V30 3279 C 546.867 0.347608 7.69215 0
M  V30 3280 C 547.597 -0.96767 7.52806 0
M  V30 3281 O 547.807 -1.21036 6.1011 0
M  V30 3282 C 548.997 -1.04544 8.13308 0
M  V30 3283 O 549.387 -2.38311 8.41922 0
M  V30 3284 C 549.877 -0.491279 7.02284 0
M  V30 3285 C 549.167 -0.996264 5.77469 0
M  V30 3286 N 549.217 -0.0501916 4.62973 0
M  V30 3287 H 546.378 0.374722 8.67691 0
M  V30 3288 H 546.108 0.443485 6.90277 0
M  V30 3289 H 546.975 -1.75537 7.96793 0
M  V30 3290 P 550.937 -2.75334 8.47391 0
M  V30 3291 O 551.157 -3.84128 9.44797 0
M  V30 3292 O 551.727 -1.51947 8.68712 0
M  V30 3293 O 551.187 -3.29363 6.99321 0
M  V30 3294 C 550.247 -4.24011 6.4274 0
M  V30 3295 C 550.977 -5.20775 5.52155 0
M  V30 3296 O 551.187 -4.56534 4.22446 0
M  V30 3297 C 552.377 -5.62629 5.96531 0
M  V30 3298 O 552.767 -6.87667 5.41053 0
M  V30 3299 C 553.257 -4.52537 5.39283 0
M  V30 3300 C 552.547 -4.20027 4.08623 0
M  V30 3301 N 552.597 -2.76189 3.71603 0
M  V30 3302 H 549.758 -4.797 7.24003 0
M  V30 3303 H 549.488 -3.69856 5.84513 0
M  V30 3304 H 550.355 -6.10356 5.41441 0
M  V30 3305 P 554.317 -7.20834 5.23717 0
M  V30 3306 O 554.537 -8.66104 5.38572 0
M  V30 3307 O 555.107 -6.33544 6.1349 0
M  V30 3308 O 554.567 -6.7751 3.72168 0
M  V30 3309 C 553.627 -7.20825 2.7076 0
M  V30 3310 C 554.357 -7.45864 1.40599 0
M  V30 3311 O 554.567 -6.17651 0.734225 0
M  V30 3312 C 555.757 -8.05808 1.51899 0
M  V30 3313 O 556.147 -8.74358 0.335205 0
M  V30 3314 C 556.637 -6.83093 1.70294 0
M  V30 3315 C 555.927 -5.79992 0.836974 0
M  V30 3316 N 555.977 -4.41864 1.38293 0
M  V30 3317 H 553.138 -8.13644 3.0377 0
M  V30 3318 H 552.868 -6.42788 2.55485 0
M  V30 3319 H 553.735 -8.12039 0.792769 0
M  V30 3320 P 557.697 -8.91 -3.54097e-12 0
M  V30 3321 O 557.917 -10.1726 -0.733694 0
M  V30 3322 O 558.487 -8.73148 1.23936 0
M  V30 3323 O 557.947 -7.66872 -0.971405 0
M  V30 3324 C 557.007 -7.42309 -2.04641 0
M  V30 3325 C 557.737 -6.86059 -3.24661 0
M  V30 3326 O 557.947 -5.42847 -3.03646 0
M  V30 3327 C 559.137 -7.41196 -3.50753 0
M  V30 3328 O 559.527 -7.27073 -4.86816 0
M  V30 3329 C 560.017 -6.5273 -2.63741 0
M  V30 3330 C 559.307 -5.1842 -2.73198 0
M  V30 3331 N 559.357 -4.38762 -1.4784 0
M  V30 3332 H 556.518 -8.36803 -2.32493 0
M  V30 3333 H 556.248 -6.70197 -1.71129 0
M  V30 3334 H 557.115 -7.03551 -4.13168 0
M  V30 3335 P 561.077 -7.20834 -5.23717 0
M  V30 3336 O 561.297 -7.79853 -6.57286 0
M  V30 3337 O 561.867 -7.79239 -4.12957 0
M  V30 3338 O 561.327 -5.63315 -5.29344 0
M  V30 3339 C 560.387 -4.80255 -6.01876 0
M  V30 3340 C 561.117 -3.64202 -6.65911 0
M  V30 3341 O 561.327 -2.60694 -5.64732 0
M  V30 3342 C 562.517 -3.93473 -7.1943 0
M  V30 3343 O 562.907 -3.02071 -8.21205 0
M  V30 3344 C 563.397 -3.73047 -5.97036 0
M  V30 3345 C 562.687 -2.58828 -5.25741 0
M  V30 3346 N 562.737 -2.68068 -3.77503 0
M  V30 3347 H 559.898 -5.40332 -6.79951 0
M  V30 3348 H 559.628 -4.41613 -5.32378 0
M  V30 3349 H 560.495 -3.26331 -7.47797 0
M  V30 3350 P 564.457 -2.75334 -8.47391 0
M  V30 3351 O 564.677 -2.44571 -9.90142 0
M  V30 3352 O 565.247 -3.87688 -7.92115 0
M  V30 3353 O 564.707 -1.4459 -7.59357 0
M  V30 3354 C 563.767 -0.347608 -7.69215 0
M  V30 3355 C 564.497 0.96767 -7.52806 0
M  V30 3356 O 564.707 1.21036 -6.1011 0
M  V30 3357 C 565.897 1.04544 -8.13308 0
M  V30 3358 O 566.287 2.38311 -8.41922 0
M  V30 3359 C 566.777 0.491279 -7.02284 0
M  V30 3360 C 566.067 0.996264 -5.77469 0
M  V30 3361 N 566.117 0.0501916 -4.62973 0
M  V30 3362 H 563.278 -0.374722 -8.67691 0
M  V30 3363 H 563.008 -0.443485 -6.90277 0
M  V30 3364 H 563.875 1.75537 -7.96793 0
M  V30 3365 P 567.837 2.75334 -8.47391 0
M  V30 3366 O 568.057 3.84166 -9.4489 0
M  V30 3367 O 568.627 1.51964 -8.6881 0
M  V30 3368 O 568.087 3.29363 -6.99321 0
M  V30 3369 C 567.147 4.23956 -6.42656 0
M  V30 3370 C 567.877 5.20775 -5.52155 0
M  V30 3371 O 568.087 4.56534 -4.22446 0
M  V30 3372 C 569.277 5.62629 -5.96531 0
M  V30 3373 O 569.667 6.87667 -5.41053 0
M  V30 3374 C 570.157 4.52537 -5.39283 0
M  V30 3375 C 569.447 4.20027 -4.08623 0
M  V30 3376 N 569.497 2.7613 -3.71522 0
M  V30 3377 C 569.647 2.45612 -2.37989 0
M  V30 3378 O 569.737 3.30919 -1.51621 0
M  V30 3379 N 569.687 1.10684 -2.08435 0
M  V30 3380 C 569.597 0.0690084 -2.9792 0
M  V30 3381 C 569.447 0.481522 -4.35345 0
M  V30 3382 C 569.397 1.78906 -4.67968 0
M  V30 3383 H 566.657 4.797 -7.24003 0
M  V30 3384 H 566.388 3.69802 -5.84429 0
M  V30 3385 H 567.255 6.10356 -5.41441 0
M  V30 3386 H 569.91 4.78651 -3.27911 0
M  V30 3387 H 570.189 3.64957 -6.05871 0
M  V30 3388 H 571.181 4.8868 -5.2125 0
M  V30 3389 H 569.347 5.66726 -7.06352 0
M  V30 3390 H 569.276 2.07737 -5.72367 0
M  V30 3391 P 571.217 7.20834 -5.23717 0
M  V30 3392 O 571.437 8.66104 -5.38572 0
M  V30 3393 O 572.007 6.33544 -6.1349 0
M  V30 3394 O 571.467 6.7751 -3.72168 0
M  V30 3395 C 570.527 7.20825 -2.7076 0
M  V30 3396 C 571.257 7.45864 -1.40599 0
M  V30 3397 O 571.467 6.17651 -0.734225 0
M  V30 3398 C 572.657 8.05808 -1.51899 0
M  V30 3399 O 573.047 8.74358 -0.335205 0
M  V30 3400 C 573.537 6.83093 -1.70294 0
M  V30 3401 C 572.827 5.79992 -0.836974 0
M  V30 3402 N 572.877 4.41864 -1.38293 0
M  V30 3403 C 572.797 3.99538 -2.69438 0
M  V30 3404 N 572.877 2.69909 -2.84277 0
M  V30 3405 C 573.017 2.21719 -1.5408 0
M  V30 3406 C 573.147 0.891712 -1.06628 0
M  V30 3407 O 573.167 -0.161298 -1.70137 0
M  V30 3408 N 573.267 0.856846 0.334985 0
M  V30 3409 C 573.267 1.9641 1.15789 0
M  V30 3410 N 573.397 1.72708 2.46522 0
M  V30 3411 N 573.137 3.21165 0.713741 0
M  V30 3412 C 573.017 3.26797 -0.639748 0
M  V30 3413 H 570.038 8.13644 -3.0377 0
M  V30 3414 H 569.768 6.42788 -2.55485 0
M  V30 3415 H 570.635 8.12039 -0.792769 0
M  V30 3416 H 573.29 5.80061 0.166416 0
M  V30 3417 H 573.569 6.51287 -2.75604 0
M  V30 3418 H 574.561 7.01734 -1.34462 0
M  V30 3419 H 572.727 8.73674 -2.38337 0
M  V30 3420 H 572.678 4.68207 -3.53221 0
M  V30 3421 H 573.36 -0.0398818 0.767965 0
M  V30 3422 H 573.397 2.50995 3.13503 0
M  V30 3423 H 573.498 0.759148 2.80716 0
M  V30 3424 P 574.597 8.91 3.69815e-12 0
M  V30 3425 O 574.817 10.1726 0.733694 0
M  V30 3426 O 575.387 8.73148 -1.23936 0
M  V30 3427 O 574.847 7.66872 0.971405 0
M  V30 3428 C 573.907 7.42309 2.04641 0
M  V30 3429 C 574.637 6.86059 3.24661 0
M  V30 3430 O 574.847 5.42847 3.03646 0
M  V30 3431 C 576.037 7.41196 3.50753 0
M  V30 3432 O 576.427 7.27073 4.86816 0
M  V30 3433 C 576.917 6.5273 2.63741 0
M  V30 3434 C 576.207 5.1842 2.73198 0
M  V30 3435 N 576.257 4.38762 1.4784 0
M  V30 3436 H 573.418 8.36803 2.32493 0
M  V30 3437 H 573.148 6.70197 1.71129 0
M  V30 3438 H 574.015 7.03551 4.13168 0
M  V30 3439 P 577.977 7.20834 5.23717 0
M  V30 3440 O 578.197 7.79853 6.57286 0
M  V30 3441 O 578.767 7.79239 4.12957 0
M  V30 3442 O 578.227 5.63315 5.29344 0
M  V30 3443 C 577.287 4.80255 6.01876 0
M  V30 3444 C 578.017 3.64202 6.65911 0
M  V30 3445 O 578.227 2.60694 5.64732 0
M  V30 3446 C 579.417 3.93473 7.1943 0
M  V30 3447 O 579.807 3.02071 8.21205 0
M  V30 3448 C 580.297 3.73047 5.97036 0
M  V30 3449 C 579.587 2.58828 5.25741 0
M  V30 3450 N 579.637 2.68068 3.77503 0
M  V30 3451 H 576.798 5.40332 6.79951 0
M  V30 3452 H 576.528 4.41613 5.32378 0
M  V30 3453 H 577.395 3.26331 7.47797 0
M  V30 3454 P 581.357 2.75334 8.47391 0
M  V30 3455 O 581.577 2.44571 9.90142 0
M  V30 3456 O 582.147 3.87688 7.92115 0
M  V30 3457 O 581.607 1.4459 7.59357 0
M  V30 3458 C 580.667 0.347608 7.69215 0
M  V30 3459 C 581.397 -0.96767 7.52806 0
M  V30 3460 O 581.607 -1.21036 6.1011 0
M  V30 3461 C 582.797 -1.04544 8.13308 0
M  V30 3462 O 583.187 -2.38311 8.41922 0
M  V30 3463 C 583.677 -0.491279 7.02284 0
M  V30 3464 C 582.967 -0.996264 5.77469 0
M  V30 3465 N 583.017 -0.0501916 4.62973 0
M  V30 3466 H 580.178 0.374722 8.67691 0
M  V30 3467 H 579.908 0.443485 6.90277 0
M  V30 3468 H 580.775 -1.75537 7.96793 0
M  V30 3469 P 584.737 -2.75334 8.47391 0
M  V30 3470 O 584.957 -3.84128 9.44797 0
M  V30 3471 O 585.527 -1.51947 8.68712 0
M  V30 3472 O 584.987 -3.29363 6.99321 0
M  V30 3473 C 584.047 -4.24011 6.4274 0
M  V30 3474 C 584.777 -5.20775 5.52155 0
M  V30 3475 O 584.987 -4.56534 4.22446 0
M  V30 3476 C 586.177 -5.62629 5.96531 0
M  V30 3477 O 586.567 -6.87667 5.41053 0
M  V30 3478 C 587.057 -4.52537 5.39283 0
M  V30 3479 C 586.347 -4.20027 4.08623 0
M  V30 3480 N 586.397 -2.76189 3.71603 0
M  V30 3481 H 583.558 -4.797 7.24003 0
M  V30 3482 H 583.288 -3.69856 5.84513 0
M  V30 3483 H 584.155 -6.10356 5.41441 0
M  V30 3484 P 588.117 -7.20834 5.23717 0
M  V30 3485 O 588.337 -8.66104 5.38572 0
M  V30 3486 O 588.907 -6.33544 6.1349 0
M  V30 3487 O 588.367 -6.7751 3.72168 0
M  V30 3488 C 587.427 -7.20825 2.7076 0
M  V30 3489 C 588.157 -7.45864 1.40599 0
M  V30 3490 O 588.367 -6.17651 0.734225 0
M  V30 3491 C 589.557 -8.05808 1.51899 0
M  V30 3492 O 589.947 -8.74358 0.335205 0
M  V30 3493 C 590.437 -6.83093 1.70294 0
M  V30 3494 C 589.727 -5.79992 0.836974 0
M  V30 3495 N 589.777 -4.41864 1.38293 0
M  V30 3496 H 586.938 -8.13644 3.0377 0
M  V30 3497 H 586.668 -6.42788 2.55485 0
M  V30 3498 H 587.535 -8.12039 0.792769 0
M  V30 3499 P 591.496 -8.91 -3.85533e-12 0
M  V30 3500 O 591.716 -10.1726 -0.733694 0
M  V30 3501 O 592.286 -8.73148 1.23936 0
M  V30 3502 O 591.746 -7.66872 -0.971405 0
M  V30 3503 C 590.806 -7.42309 -2.04641 0
M  V30 3504 C 591.536 -6.86059 -3.24661 0
M  V30 3505 O 591.746 -5.42847 -3.03646 0
M  V30 3506 C 592.937 -7.41196 -3.50753 0
M  V30 3507 O 593.327 -7.27073 -4.86816 0
M  V30 3508 C 593.817 -6.5273 -2.63741 0
M  V30 3509 C 593.106 -5.1842 -2.73198 0
M  V30 3510 N 593.156 -4.38762 -1.4784 0
M  V30 3511 H 590.317 -8.36803 -2.32493 0
M  V30 3512 H 590.048 -6.70197 -1.71129 0
M  V30 3513 H 590.914 -7.03551 -4.13168 0
M  V30 3514 P 594.876 -7.20834 -5.23717 0
M  V30 3515 O 595.096 -7.79853 -6.57286 0
M  V30 3516 O 595.666 -7.79239 -4.12957 0
M  V30 3517 O 595.126 -5.63315 -5.29344 0
M  V30 3518 C 594.186 -4.80255 -6.01876 0
M  V30 3519 C 594.916 -3.64202 -6.65911 0
M  V30 3520 O 595.126 -2.60694 -5.64732 0
M  V30 3521 C 596.316 -3.93473 -7.1943 0
M  V30 3522 O 596.706 -3.02071 -8.21205 0
M  V30 3523 C 597.196 -3.73047 -5.97036 0
M  V30 3524 C 596.486 -2.58828 -5.25741 0
M  V30 3525 N 596.536 -2.68068 -3.77503 0
M  V30 3526 H 593.697 -5.40332 -6.79951 0
M  V30 3527 H 593.427 -4.41613 -5.32378 0
M  V30 3528 H 594.294 -3.26331 -7.47797 0
M  V30 3529 P 598.256 -2.75334 -8.47391 0
M  V30 3530 O 598.476 -2.44571 -9.90142 0
M  V30 3531 O 599.046 -3.87688 -7.92115 0
M  V30 3532 O 598.506 -1.4459 -7.59357 0
M  V30 3533 C 597.566 -0.347608 -7.69215 0
M  V30 3534 C 598.296 0.96767 -7.52806 0
M  V30 3535 O 598.506 1.21036 -6.1011 0
M  V30 3536 C 599.696 1.04544 -8.13308 0
M  V30 3537 O 600.086 2.38311 -8.41922 0
M  V30 3538 C 600.576 0.491279 -7.02284 0
M  V30 3539 C 599.866 0.996264 -5.77469 0
M  V30 3540 N 599.916 0.0501916 -4.62973 0
M  V30 3541 H 597.077 -0.374722 -8.67691 0
M  V30 3542 H 596.807 -0.443485 -6.90277 0
M  V30 3543 H 597.674 1.75537 -7.96793 0
M  V30 3544 P 601.636 2.75334 -8.47391 0
M  V30 3545 O 601.856 3.84128 -9.44797 0
M  V30 3546 O 602.426 1.51947 -8.68712 0
M  V30 3547 O 601.886 3.29363 -6.99321 0
M  V30 3548 C 600.946 4.24011 -6.4274 0
M  V30 3549 C 601.676 5.20775 -5.52155 0
M  V30 3550 O 601.886 4.56534 -4.22446 0
M  V30 3551 C 603.076 5.62629 -5.96531 0
M  V30 3552 O 603.466 6.87667 -5.41053 0
M  V30 3553 C 603.956 4.52537 -5.39283 0
M  V30 3554 C 603.246 4.20027 -4.08623 0
M  V30 3555 N 603.296 2.76189 -3.71603 0
M  V30 3556 H 600.457 4.797 -7.24003 0
M  V30 3557 H 600.187 3.69856 -5.84513 0
M  V30 3558 H 601.054 6.10356 -5.41441 0
M  V30 3559 P 605.016 7.20834 -5.23717 0
M  V30 3560 O 605.236 8.66104 -5.38572 0
M  V30 3561 O 605.806 6.33544 -6.1349 0
M  V30 3562 O 605.266 6.7751 -3.72168 0
M  V30 3563 C 604.326 7.20825 -2.7076 0
M  V30 3564 C 605.056 7.45864 -1.40599 0
M  V30 3565 O 605.266 6.17651 -0.734225 0
M  V30 3566 C 606.456 8.05808 -1.51899 0
M  V30 3567 O 606.846 8.74358 -0.335205 0
M  V30 3568 C 607.336 6.83093 -1.70294 0
M  V30 3569 C 606.626 5.79992 -0.836974 0
M  V30 3570 N 606.676 4.41864 -1.38293 0
M  V30 3571 H 603.837 8.13644 -3.0377 0
M  V30 3572 H 603.567 6.42788 -2.55485 0
M  V30 3573 H 604.434 8.12039 -0.792769 0
M  V30 3574 P 608.396 8.91 4.01252e-12 0
M  V30 3575 O 608.616 10.1746 0.733838 0
M  V30 3576 O 609.186 8.73346 -1.23964 0
M  V30 3577 O 608.646 7.66872 0.971405 0
M  V30 3578 C 607.706 7.42405 2.04668 0
M  V30 3579 C 608.436 6.86059 3.24661 0
M  V30 3580 O 608.646 5.42934 3.03695 0
M  V30 3581 C 609.836 7.41287 3.50796 0
M  V30 3582 O 610.226 7.27073 4.86816 0
M  V30 3583 C 610.716 6.5273 2.63741 0
M  V30 3584 C 610.006 5.1842 2.73198 0
M  V30 3585 N 610.056 4.38762 1.4784 0
M  V30 3586 C 609.976 4.83651 0.183876 0
M  V30 3587 N 610.046 3.88759 -0.699393 0
M  V30 3588 C 610.196 2.7404 0.0575568 0
M  V30 3589 C 610.326 1.37902 -0.293928 0
M  V30 3590 N 610.336 0.938021 -1.54797 0
M  V30 3591 N 610.446 0.491817 0.70549 0
M  V30 3592 C 610.436 0.931735 1.95979 0
M  V30 3593 N 610.316 2.16017 2.41481 0
M  V30 3594 C 610.196 3.02547 1.39121 0
M  V30 3595 H 607.218 8.36899 2.3252 0
M  V30 3596 H 606.946 6.70391 1.71179 0
M  V30 3597 H 607.814 7.03638 4.13219 0
M  V30 3598 H 610.469 4.59931 3.54016 0
M  V30 3599 H 610.749 6.88995 1.59871 0
M  V30 3600 H 611.74 6.4684 3.0373 0
M  V30 3601 H 609.906 8.47002 3.20749 0
M  V30 3602 H 609.865 5.8885 -0.0765548 0
M  V30 3603 H 610.246 1.60276 -2.32875 0
M  V30 3604 H 610.435 -0.0699355 -1.73859 0
M  V30 3605 H 610.543 0.165507 2.71897 0
M  V30 3606 P 611.776 7.20834 5.23717 0
M  V30 3607 O 611.996 7.79853 6.57286 0
M  V30 3608 O 612.566 7.79239 4.12957 0
M  V30 3609 O 612.026 5.63315 5.29344 0
M  V30 3610 C 611.086 4.80255 6.01876 0
M  V30 3611 C 611.816 3.64202 6.65911 0
M  V30 3612 O 612.026 2.60694 5.64732 0
M  V30 3613 C 613.216 3.93473 7.1943 0
M  V30 3614 O 613.606 3.02071 8.21205 0
M  V30 3615 C 614.096 3.73047 5.97036 0
M  V30 3616 C 613.386 2.58828 5.25741 0
M  V30 3617 N 613.436 2.68068 3.77503 0
M  V30 3618 H 610.597 5.40332 6.79951 0
M  V30 3619 H 610.327 4.41613 5.32378 0
M  V30 3620 H 611.194 3.26331 7.47797 0
M  V30 3621 P 615.156 2.75334 8.47391 0
M  V30 3622 O 615.376 2.44619 9.90336 0
M  V30 3623 O 615.946 3.87776 7.92294 0
M  V30 3624 O 615.406 1.4459 7.59357 0
M  V30 3625 C 614.466 0.347653 7.69315 0
M  V30 3626 C 615.196 -0.96767 7.52806 0
M  V30 3627 O 615.406 -1.21055 6.10208 0
M  V30 3628 C 616.596 -1.04557 8.13408 0
M  V30 3629 O 616.986 -2.38311 8.41922 0
M  V30 3630 C 617.476 -0.491279 7.02284 0
M  V30 3631 C 616.766 -0.996264 5.77469 0
M  V30 3632 N 616.816 -0.0501916 4.62973 0
M  V30 3633 H 613.978 0.374765 8.67791 0
M  V30 3634 H 613.706 0.443613 6.90476 0
M  V30 3635 H 614.574 -1.75559 7.96891 0
M  V30 3636 H 617.229 -1.94563 5.46818 0
M  V30 3637 H 617.509 0.608651 7.04676 0
M  V30 3638 H 618.5 -0.889796 7.09039 0
M  V30 3639 H 616.666 -0.433128 9.04664 0
M  V30 3640 P 618.536 -2.75334 8.47391 0
M  V30 3641 O 618.756 -3.84128 9.44797 0
M  V30 3642 O 619.326 -1.51947 8.68712 0
M  V30 3643 O 618.786 -3.29363 6.99321 0
M  V30 3644 C 617.846 -4.24011 6.4274 0
M  V30 3645 C 618.576 -5.20775 5.52155 0
M  V30 3646 O 618.786 -4.56534 4.22446 0
M  V30 3647 C 619.976 -5.62629 5.96531 0
M  V30 3648 O 620.366 -6.87667 5.41053 0
M  V30 3649 C 620.856 -4.52537 5.39283 0
M  V30 3650 C 620.146 -4.20027 4.08623 0
M  V30 3651 N 620.196 -2.76189 3.71603 0
M  V30 3652 C 620.116 -1.64862 4.52822 0
M  V30 3653 N 620.196 -0.512671 3.88633 0
M  V30 3654 C 620.336 -0.888083 2.54977 0
M  V30 3655 C 620.466 -0.094668 1.38677 0
M  V30 3656 O 620.486 1.13053 1.28163 0
M  V30 3657 N 620.586 -0.890102 0.232633 0
M  V30 3658 C 620.586 -2.26958 0.21772 0
M  V30 3659 N 620.716 -2.84626 -0.97925 0
M  V30 3660 N 620.456 -3.0178 1.31033 0
M  V30 3661 C 620.336 -2.26781 2.43843 0
M  V30 3662 H 617.357 -4.797 7.24003 0
M  V30 3663 H 617.087 -3.69856 5.84513 0
M  V30 3664 H 617.954 -6.10356 5.41441 0
M  V30 3665 H 620.609 -4.79061 3.27488 0
M  V30 3666 H 620.888 -3.64906 6.05785 0
M  V30 3667 H 621.88 -4.8868 5.2125 0
M  V30 3668 H 620.046 -5.66726 7.06352 0
M  V30 3669 H 619.997 -1.71169 5.60966 0
M  V30 3670 H 620.679 -0.419134 -0.644739 0
M  V30 3671 H 620.716 -3.87332 -1.06098 0
M  V30 3672 H 620.817 -2.26417 -1.82483 0
M  V30 3673 P 621.916 -7.20834 5.23717 0
M  V30 3674 O 622.136 -8.66104 5.38572 0
M  V30 3675 O 622.706 -6.33544 6.1349 0
M  V30 3676 O 622.166 -6.7751 3.72168 0
M  V30 3677 C 621.226 -7.20825 2.7076 0
M  V30 3678 C 621.956 -7.45864 1.40599 0
M  V30 3679 O 622.166 -6.17651 0.734225 0
M  V30 3680 C 623.356 -8.05808 1.51899 0
M  V30 3681 O 623.746 -8.74358 0.335205 0
M  V30 3682 C 624.236 -6.83093 1.70294 0
M  V30 3683 C 623.526 -5.79992 0.836974 0
M  V30 3684 N 623.576 -4.41864 1.38293 0
M  V30 3685 H 620.737 -8.13644 3.0377 0
M  V30 3686 H 620.467 -6.42788 2.55485 0
M  V30 3687 H 621.334 -8.12039 0.792769 0
M  V30 3688 P 625.296 -8.91 -4.1697e-12 0
M  V30 3689 O 625.516 -10.1726 -0.733694 0
M  V30 3690 O 626.086 -8.73148 1.23936 0
M  V30 3691 O 625.546 -7.66872 -0.971405 0
M  V30 3692 C 624.606 -7.42309 -2.04641 0
M  V30 3693 C 625.336 -6.86059 -3.24661 0
M  V30 3694 O 625.546 -5.42847 -3.03646 0
M  V30 3695 C 626.736 -7.41196 -3.50753 0
M  V30 3696 O 627.126 -7.27073 -4.86816 0
M  V30 3697 C 627.616 -6.5273 -2.63741 0
M  V30 3698 C 626.906 -5.1842 -2.73198 0
M  V30 3699 N 626.956 -4.38762 -1.4784 0
M  V30 3700 H 624.117 -8.36803 -2.32493 0
M  V30 3701 H 623.847 -6.70197 -1.71129 0
M  V30 3702 H 624.714 -7.03551 -4.13168 0
M  V30 3703 P 628.676 -7.20834 -5.23717 0
M  V30 3704 O 628.896 -7.79853 -6.57286 0
M  V30 3705 O 629.466 -7.79239 -4.12957 0
M  V30 3706 O 628.926 -5.63315 -5.29344 0
M  V30 3707 C 627.986 -4.80255 -6.01876 0
M  V30 3708 C 628.716 -3.64202 -6.65911 0
M  V30 3709 O 628.926 -2.60694 -5.64732 0
M  V30 3710 C 630.116 -3.93473 -7.1943 0
M  V30 3711 O 630.506 -3.02071 -8.21205 0
M  V30 3712 C 630.996 -3.73047 -5.97036 0
M  V30 3713 C 630.286 -2.58828 -5.25741 0
M  V30 3714 N 630.336 -2.68068 -3.77503 0
M  V30 3715 H 627.497 -5.40332 -6.79951 0
M  V30 3716 H 627.227 -4.41613 -5.32378 0
M  V30 3717 H 628.094 -3.26331 -7.47797 0
M  V30 3718 P 632.056 -2.75334 -8.47391 0
M  V30 3719 O 632.276 -2.44571 -9.90142 0
M  V30 3720 O 632.846 -3.87688 -7.92115 0
M  V30 3721 O 632.306 -1.4459 -7.59357 0
M  V30 3722 C 631.366 -0.347608 -7.69215 0
M  V30 3723 C 632.096 0.96767 -7.52806 0
M  V30 3724 O 632.306 1.21036 -6.1011 0
M  V30 3725 C 633.496 1.04544 -8.13308 0
M  V30 3726 O 633.886 2.38311 -8.41922 0
M  V30 3727 C 634.376 0.491279 -7.02284 0
M  V30 3728 C 633.666 0.996264 -5.77469 0
M  V30 3729 N 633.716 0.0501916 -4.62973 0
M  V30 3730 H 630.877 -0.374722 -8.67691 0
M  V30 3731 H 630.607 -0.443485 -6.90277 0
M  V30 3732 H 631.474 1.75537 -7.96793 0
M  V30 3733 P 635.436 2.75334 -8.47391 0
M  V30 3734 O 635.656 3.84128 -9.44797 0
M  V30 3735 O 636.226 1.51947 -8.68712 0
M  V30 3736 O 635.686 3.29363 -6.99321 0
M  V30 3737 C 634.746 4.24011 -6.4274 0
M  V30 3738 C 635.476 5.20775 -5.52155 0
M  V30 3739 O 635.686 4.56534 -4.22446 0
M  V30 3740 C 636.876 5.62629 -5.96531 0
M  V30 3741 O 637.266 6.87667 -5.41053 0
M  V30 3742 C 637.756 4.52537 -5.39283 0
M  V30 3743 C 637.046 4.20027 -4.08623 0
M  V30 3744 N 637.096 2.76189 -3.71603 0
M  V30 3745 H 634.257 4.797 -7.24003 0
M  V30 3746 H 633.987 3.69856 -5.84513 0
M  V30 3747 H 634.854 6.10356 -5.41441 0
M  V30 3748 P 638.816 7.20834 -5.23717 0
M  V30 3749 O 639.036 8.66104 -5.38572 0
M  V30 3750 O 639.606 6.33544 -6.1349 0
M  V30 3751 O 639.066 6.7751 -3.72168 0
M  V30 3752 C 638.126 7.20825 -2.7076 0
M  V30 3753 C 638.856 7.45864 -1.40599 0
M  V30 3754 O 639.066 6.17651 -0.734225 0
M  V30 3755 C 640.256 8.05808 -1.51899 0
M  V30 3756 O 640.646 8.74358 -0.335205 0
M  V30 3757 C 641.136 6.83093 -1.70294 0
M  V30 3758 C 640.426 5.79992 -0.836974 0
M  V30 3759 N 640.476 4.41864 -1.38293 0
M  V30 3760 H 637.637 8.13644 -3.0377 0
M  V30 3761 H 637.367 6.42788 -2.55485 0
M  V30 3762 H 638.234 8.12039 -0.792769 0
M  V30 3763 P 642.196 8.91 4.32688e-12 0
M  V30 3764 O 642.416 10.1726 0.733694 0
M  V30 3765 O 642.986 8.73148 -1.23936 0
M  V30 3766 O 642.446 7.66872 0.971405 0
M  V30 3767 C 641.506 7.42309 2.04641 0
M  V30 3768 C 642.236 6.86059 3.24661 0
M  V30 3769 O 642.446 5.42847 3.03646 0
M  V30 3770 C 643.636 7.41196 3.50753 0
M  V30 3771 O 644.026 7.27073 4.86816 0
M  V30 3772 C 644.516 6.5273 2.63741 0
M  V30 3773 C 643.806 5.1842 2.73198 0
M  V30 3774 N 643.856 4.38762 1.4784 0
M  V30 3775 H 641.017 8.36803 2.32493 0
M  V30 3776 H 640.747 6.70197 1.71129 0
M  V30 3777 H 641.614 7.03551 4.13168 0
M  V30 3778 P 645.576 7.20834 5.23717 0
M  V30 3779 O 645.796 7.79853 6.57286 0
M  V30 3780 O 646.366 7.79239 4.12957 0
M  V30 3781 O 645.826 5.63315 5.29344 0
M  V30 3782 C 644.886 4.80255 6.01876 0
M  V30 3783 C 645.616 3.64202 6.65911 0
M  V30 3784 O 645.826 2.60694 5.64732 0
M  V30 3785 C 647.016 3.93473 7.1943 0
M  V30 3786 O 647.406 3.02071 8.21205 0
M  V30 3787 C 647.896 3.73047 5.97036 0
M  V30 3788 C 647.186 2.58828 5.25741 0
M  V30 3789 N 647.236 2.68068 3.77503 0
M  V30 3790 C 647.156 3.79715 2.96723 0
M  V30 3791 N 647.236 3.5377 1.68852 0
M  V30 3792 C 647.376 2.15054 1.63254 0
M  V30 3793 C 647.506 1.28964 0.518571 0
M  V30 3794 O 647.526 1.56826 -0.679156 0
M  V30 3795 N 647.626 -0.0538097 0.918425 0
M  V30 3796 C 647.626 -0.494275 2.22578 0
M  V30 3797 N 647.756 -1.81086 2.40434 0
M  V30 3798 N 647.496 0.313645 3.27502 0
M  V30 3799 C 647.376 1.61829 2.91033 0
M  V30 3800 H 644.397 5.40332 6.79951 0
M  V30 3801 H 644.127 4.41613 5.32378 0
M  V30 3802 H 644.994 3.26331 7.47797 0
M  V30 3803 H 647.649 1.63422 5.56814 0
M  V30 3804 H 647.928 4.63374 5.34244 0
M  V30 3805 H 648.92 3.44728 6.25838 0
M  V30 3806 H 647.086 4.96652 7.57263 0
M  V30 3807 H 647.037 4.80617 3.3614 0
M  V30 3808 H 647.719 -0.742702 0.199384 0
M  V30 3809 H 647.756 -2.20598 3.35588 0
M  V30 3810 H 647.857 -2.43518 1.58945 0
M  V30 3811 P 648.956 2.75334 8.47391 0
M  V30 3812 O 649.176 2.44571 9.90142 0
M  V30 3813 O 649.746 3.87688 7.92115 0
M  V30 3814 O 649.206 1.4459 7.59357 0
M  V30 3815 C 648.266 0.347608 7.69215 0
M  V30 3816 C 648.996 -0.96767 7.52806 0
M  V30 3817 O 649.206 -1.21036 6.1011 0
M  V30 3818 C 650.396 -1.04544 8.13308 0
M  V30 3819 O 650.786 -2.38311 8.41922 0
M  V30 3820 C 651.276 -0.491279 7.02284 0
M  V30 3821 C 650.566 -0.996264 5.77469 0
M  V30 3822 N 650.616 -0.0501916 4.62973 0
M  V30 3823 H 647.777 0.374722 8.67691 0
M  V30 3824 H 647.507 0.443485 6.90277 0
M  V30 3825 H 648.374 -1.75537 7.96793 0
M  V30 3826 P 652.336 -2.75334 8.47391 0
M  V30 3827 O 652.556 -3.84128 9.44797 0
M  V30 3828 O 653.126 -1.51947 8.68712 0
M  V30 3829 O 652.586 -3.29363 6.99321 0
M  V30 3830 C 651.646 -4.24011 6.4274 0
M  V30 3831 C 652.376 -5.20775 5.52155 0
M  V30 3832 O 652.586 -4.56534 4.22446 0
M  V30 3833 C 653.776 -5.62629 5.96531 0
M  V30 3834 O 654.166 -6.87667 5.41053 0
M  V30 3835 C 654.656 -4.52537 5.39283 0
M  V30 3836 C 653.946 -4.20027 4.08623 0
M  V30 3837 N 653.996 -2.76189 3.71603 0
M  V30 3838 H 651.157 -4.797 7.24003 0
M  V30 3839 H 650.887 -3.69856 5.84513 0
M  V30 3840 H 651.754 -6.10356 5.41441 0
M  V30 3841 P 655.716 -7.20834 5.23717 0
M  V30 3842 O 655.936 -8.66104 5.38572 0
M  V30 3843 O 656.506 -6.33544 6.1349 0
M  V30 3844 O 655.966 -6.7751 3.72168 0
M  V30 3845 C 655.026 -7.20825 2.7076 0
M  V30 3846 C 655.756 -7.45864 1.40599 0
M  V30 3847 O 655.966 -6.17651 0.734225 0
M  V30 3848 C 657.156 -8.05808 1.51899 0
M  V30 3849 O 657.546 -8.74358 0.335205 0
M  V30 3850 C 658.036 -6.83093 1.70294 0
M  V30 3851 C 657.326 -5.79992 0.836974 0
M  V30 3852 N 657.376 -4.41864 1.38293 0
M  V30 3853 C 657.296 -3.99538 2.69438 0
M  V30 3854 N 657.376 -2.69909 2.84277 0
M  V30 3855 C 657.516 -2.21719 1.5408 0
M  V30 3856 C 657.646 -0.891712 1.06628 0
M  V30 3857 O 657.666 0.161298 1.70137 0
M  V30 3858 N 657.766 -0.856846 -0.334985 0
M  V30 3859 C 657.766 -1.9641 -1.15789 0
M  V30 3860 N 657.896 -1.72708 -2.46522 0
M  V30 3861 N 657.636 -3.21165 -0.713741 0
M  V30 3862 C 657.516 -3.26797 0.639748 0
M  V30 3863 H 654.537 -8.13644 3.0377 0
M  V30 3864 H 654.267 -6.42788 2.55485 0
M  V30 3865 H 655.134 -8.12039 0.792769 0
M  V30 3866 H 657.789 -5.80061 -0.166416 0
M  V30 3867 H 658.068 -6.51287 2.75604 0
M  V30 3868 H 659.06 -7.01734 1.34462 0
M  V30 3869 H 657.226 -8.73674 2.38337 0
M  V30 3870 H 657.177 -4.68207 3.53221 0
M  V30 3871 H 657.859 0.0398818 -0.767965 0
M  V30 3872 H 657.896 -2.50995 -3.13503 0
M  V30 3873 H 657.997 -0.759148 -2.80716 0
M  V30 3874 P 659.096 -8.91 -4.48406e-12 0
M  V30 3875 O 659.316 -10.1726 -0.733694 0
M  V30 3876 O 659.886 -8.73148 1.23936 0
M  V30 3877 O 659.346 -7.66872 -0.971405 0
M  V30 3878 C 658.406 -7.42309 -2.04641 0
M  V30 3879 C 659.136 -6.86059 -3.24661 0
M  V30 3880 O 659.346 -5.42847 -3.03646 0
M  V30 3881 C 660.536 -7.41196 -3.50753 0
M  V30 3882 O 660.926 -7.27073 -4.86816 0
M  V30 3883 C 661.416 -6.5273 -2.63741 0
M  V30 3884 C 660.706 -5.1842 -2.73198 0
M  V30 3885 N 660.756 -4.38762 -1.4784 0
M  V30 3886 H 657.917 -8.36803 -2.32493 0
M  V30 3887 H 657.647 -6.70197 -1.71129 0
M  V30 3888 H 658.514 -7.03551 -4.13168 0
M  V30 3889 P 662.476 -7.20834 -5.23717 0
M  V30 3890 O 662.696 -7.79853 -6.57286 0
M  V30 3891 O 663.266 -7.79239 -4.12957 0
M  V30 3892 O 662.726 -5.63315 -5.29344 0
M  V30 3893 C 661.786 -4.80255 -6.01876 0
M  V30 3894 C 662.516 -3.64202 -6.65911 0
M  V30 3895 O 662.726 -2.60694 -5.64732 0
M  V30 3896 C 663.916 -3.93473 -7.1943 0
M  V30 3897 O 664.306 -3.02071 -8.21205 0
M  V30 3898 C 664.796 -3.73047 -5.97036 0
M  V30 3899 C 664.086 -2.58828 -5.25741 0
M  V30 3900 N 664.136 -2.68068 -3.77503 0
M  V30 3901 C 664.056 -3.79715 -2.96723 0
M  V30 3902 N 664.136 -3.5377 -1.68852 0
M  V30 3903 C 664.276 -2.15054 -1.63254 0
M  V30 3904 C 664.406 -1.28964 -0.518571 0
M  V30 3905 O 664.426 -1.56826 0.679156 0
M  V30 3906 N 664.526 0.0538097 -0.918425 0
M  V30 3907 C 664.526 0.494275 -2.22578 0
M  V30 3908 N 664.656 1.81086 -2.40434 0
M  V30 3909 N 664.396 -0.313645 -3.27502 0
M  V30 3910 C 664.276 -1.61829 -2.91033 0
M  V30 3911 H 661.297 -5.40332 -6.79951 0
M  V30 3912 H 661.027 -4.41613 -5.32378 0
M  V30 3913 H 661.894 -3.26331 -7.47797 0
M  V30 3914 H 664.549 -1.63422 -5.56814 0
M  V30 3915 H 664.828 -4.63374 -5.34244 0
M  V30 3916 H 665.82 -3.44728 -6.25838 0
M  V30 3917 H 663.986 -4.96652 -7.57263 0
M  V30 3918 H 663.937 -4.80617 -3.3614 0
M  V30 3919 H 664.619 0.742702 -0.199384 0
M  V30 3920 H 664.656 2.20598 -3.35588 0
M  V30 3921 H 664.757 2.43518 -1.58945 0
M  V30 3922 P 665.856 -2.75334 -8.47391 0
M  V30 3923 O 666.076 -2.44571 -9.90142 0
M  V30 3924 O 666.646 -3.87688 -7.92115 0
M  V30 3925 O 666.106 -1.4459 -7.59357 0
M  V30 3926 C 665.166 -0.347608 -7.69215 0
M  V30 3927 C 665.896 0.96767 -7.52806 0
M  V30 3928 O 666.106 1.21036 -6.1011 0
M  V30 3929 C 667.296 1.04544 -8.13308 0
M  V30 3930 O 667.686 2.38311 -8.41922 0
M  V30 3931 C 668.176 0.491279 -7.02284 0
M  V30 3932 C 667.466 0.996264 -5.77469 0
M  V30 3933 N 667.516 0.0501916 -4.62973 0
M  V30 3934 H 664.677 -0.374722 -8.67691 0
M  V30 3935 H 664.407 -0.443485 -6.90277 0
M  V30 3936 H 665.274 1.75537 -7.96793 0
M  V30 3937 P 669.236 2.75334 -8.47391 0
M  V30 3938 O 669.456 3.84128 -9.44797 0
M  V30 3939 O 670.026 1.51947 -8.68712 0
M  V30 3940 O 669.486 3.29363 -6.99321 0
M  V30 3941 C 668.546 4.24011 -6.4274 0
M  V30 3942 C 669.276 5.20775 -5.52155 0
M  V30 3943 O 669.486 4.56534 -4.22446 0
M  V30 3944 C 670.676 5.62629 -5.96531 0
M  V30 3945 O 671.066 6.87667 -5.41053 0
M  V30 3946 C 671.556 4.52537 -5.39283 0
M  V30 3947 C 670.846 4.20027 -4.08623 0
M  V30 3948 N 670.896 2.76189 -3.71603 0
M  V30 3949 H 668.057 4.797 -7.24003 0
M  V30 3950 H 667.787 3.69856 -5.84513 0
M  V30 3951 H 668.654 6.10356 -5.41441 0
M  V30 3952 P 672.616 7.20834 -5.23717 0
M  V30 3953 O 672.836 8.66189 -5.38625 0
M  V30 3954 O 673.406 6.33615 -6.1356 0
M  V30 3955 O 672.866 6.7751 -3.72168 0
M  V30 3956 C 671.926 7.20732 -2.70725 0
M  V30 3957 C 672.656 7.45864 -1.40599 0
M  V30 3958 O 672.866 6.17651 -0.734225 0
M  V30 3959 C 674.056 8.05808 -1.51899 0
M  V30 3960 O 674.446 8.74358 -0.335205 0
M  V30 3961 C 674.936 6.83093 -1.70294 0
M  V30 3962 C 674.226 5.79992 -0.836974 0
M  V30 3963 N 674.276 4.41769 -1.38263 0
M  V30 3964 C 674.426 3.38591 -0.481702 0
M  V30 3965 O 674.516 3.56839 0.718452 0
M  V30 3966 N 674.466 2.1206 -1.03569 0
M  V30 3967 C 674.376 1.80696 -2.36966 0
M  V30 3968 O 674.426 0.630473 -2.74862 0
M  V30 3969 C 674.226 2.94845 -3.23898 0
M  V30 3970 C 674.116 2.65253 -4.70362 0
M  V30 3971 C 674.176 4.19803 -2.73435 0
M  V30 3972 H 671.436 8.13644 -3.0377 0
M  V30 3973 H 671.167 6.42695 -2.55448 0
M  V30 3974 H 672.034 8.12039 -0.792769 0
M  V30 3975 H 674.689 5.79978 0.160587 0
M  V30 3976 H 674.968 6.51379 -2.75643 0
M  V30 3977 H 675.96 7.01734 -1.34462 0
M  V30 3978 H 674.126 8.73674 -2.38337 0
M  V30 3979 H 674.055 5.04492 -3.4095 0
M  V30 3980 H 675.085 2.83924 -5.1913 0
M  V30 3981 H 673.348 3.29824 -5.15163 0
M  V30 3982 H 673.836 1.59723 -4.84449 0
M  V30 3983 H 674.572 1.35644 -0.399345 0
M  V30 3984 P 675.996 8.91 4.64125e-12 0
M  V30 3985 O 676.216 10.1746 0.733838 0
M  V30 3986 O 676.786 8.73346 -1.23964 0
M  V30 3987 O 676.246 7.66872 0.971405 0
M  V30 3988 C 675.306 7.42405 2.04668 0
M  V30 3989 C 676.036 6.86059 3.24661 0
M  V30 3990 O 676.246 5.42934 3.03695 0
M  V30 3991 C 677.436 7.41287 3.50796 0
M  V30 3992 O 677.826 7.27073 4.86816 0
M  V30 3993 C 678.316 6.5273 2.63741 0
M  V30 3994 C 677.606 5.1842 2.73198 0
M  V30 3995 N 677.656 4.38762 1.4784 0
M  V30 3996 C 677.576 4.83651 0.183876 0
M  V30 3997 N 677.646 3.88759 -0.699393 0
M  V30 3998 C 677.796 2.7404 0.0575568 0
M  V30 3999 C 677.926 1.37902 -0.293928 0
M  V30 4000 N 677.936 0.938021 -1.54797 0
M  V30 4001 N 678.046 0.491817 0.70549 0
M  V30 4002 C 678.036 0.931735 1.95979 0
M  V30 4003 N 677.916 2.16017 2.41481 0
M  V30 4004 C 677.796 3.02547 1.39121 0
M  V30 4005 H 674.818 8.36899 2.3252 0
M  V30 4006 H 674.546 6.70391 1.71179 0
M  V30 4007 H 675.414 7.03638 4.13219 0
M  V30 4008 H 678.069 4.59931 3.54016 0
M  V30 4009 H 678.349 6.88995 1.59871 0
M  V30 4010 H 679.34 6.4684 3.0373 0
M  V30 4011 H 677.506 8.47002 3.20749 0
M  V30 4012 H 677.465 5.8885 -0.0765548 0
M  V30 4013 H 677.846 1.60276 -2.32875 0
M  V30 4014 H 678.035 -0.0699355 -1.73859 0
M  V30 4015 H 678.143 0.165507 2.71897 0
M  V30 4016 P 679.376 7.20834 5.23717 0
M  V30 4017 O 679.596 7.79853 6.57286 0
M  V30 4018 O 680.166 7.79239 4.12957 0
M  V30 4019 O 679.626 5.63315 5.29344 0
M  V30 4020 C 678.686 4.80255 6.01876 0
M  V30 4021 C 679.416 3.64202 6.65911 0
M  V30 4022 O 679.626 2.60694 5.64732 0
M  V30 4023 C 680.816 3.93473 7.1943 0
M  V30 4024 O 681.206 3.02071 8.21205 0
M  V30 4025 C 681.696 3.73047 5.97036 0
M  V30 4026 C 680.986 2.58828 5.25741 0
M  V30 4027 N 681.036 2.68068 3.77503 0
M  V30 4028 H 678.197 5.40332 6.79951 0
M  V30 4029 H 677.927 4.41613 5.32378 0
M  V30 4030 H 678.794 3.26331 7.47797 0
M  V30 4031 P 682.756 2.75334 8.47391 0
M  V30 4032 O 682.976 2.44619 9.90336 0
M  V30 4033 O 683.546 3.87776 7.92294 0
M  V30 4034 O 683.006 1.4459 7.59357 0
M  V30 4035 C 682.066 0.347653 7.69315 0
M  V30 4036 C 682.796 -0.96767 7.52806 0
M  V30 4037 O 683.006 -1.21055 6.10208 0
M  V30 4038 C 684.196 -1.04557 8.13408 0
M  V30 4039 O 684.586 -2.38311 8.41922 0
M  V30 4040 C 685.076 -0.491279 7.02284 0
M  V30 4041 C 684.366 -0.996264 5.77469 0
M  V30 4042 N 684.416 -0.0501916 4.62973 0
M  V30 4043 C 684.336 1.31969 4.65661 0
M  V30 4044 N 684.406 1.86649 3.48119 0
M  V30 4045 C 684.556 0.792089 2.62406 0
M  V30 4046 C 684.686 0.705684 1.2207 0
M  V30 4047 N 684.696 1.76207 0.413762 0
M  V30 4048 N 684.806 -0.518981 0.685754 0
M  V30 4049 C 684.796 -1.57595 1.49174 0
M  V30 4050 N 684.676 -1.62909 2.80066 0
M  V30 4051 C 684.556 -0.388195 3.3073 0
M  V30 4052 H 681.578 0.374765 8.67791 0
M  V30 4053 H 681.306 0.443613 6.90476 0
M  V30 4054 H 682.174 -1.75559 7.96891 0
M  V30 4055 H 684.829 -1.94563 5.46818 0
M  V30 4056 H 685.109 0.608651 7.04676 0
M  V30 4057 H 686.1 -0.889796 7.09039 0
M  V30 4058 H 684.266 -0.433128 9.04664 0
M  V30 4059 H 684.225 1.89246 5.57664 0
M  V30 4060 H 684.606 2.71005 0.804694 0
M  V30 4061 H 684.795 1.63189 -0.603768 0
M  V30 4062 H 684.903 -2.53475 0.997614 0
M  V30 4063 P 686.136 -2.75334 8.47391 0
M  V30 4064 O 686.356 -3.84128 9.44797 0
M  V30 4065 O 686.926 -1.51947 8.68712 0
M  V30 4066 O 686.386 -3.29363 6.99321 0
M  V30 4067 C 685.446 -4.24011 6.4274 0
M  V30 4068 C 686.176 -5.20775 5.52155 0
M  V30 4069 O 686.386 -4.56534 4.22446 0
M  V30 4070 C 687.576 -5.62629 5.96531 0
M  V30 4071 O 687.966 -6.87667 5.41053 0
M  V30 4072 C 688.456 -4.52537 5.39283 0
M  V30 4073 C 687.746 -4.20027 4.08623 0
M  V30 4074 N 687.796 -2.76189 3.71603 0
M  V30 4075 H 684.957 -4.797 7.24003 0
M  V30 4076 H 684.687 -3.69856 5.84513 0
M  V30 4077 H 685.554 -6.10356 5.41441 0
M  V30 4078 P 689.516 -7.20834 5.23717 0
M  V30 4079 O 689.736 -8.66104 5.38572 0
M  V30 4080 O 690.306 -6.33544 6.1349 0
M  V30 4081 O 689.766 -6.7751 3.72168 0
M  V30 4082 C 688.826 -7.20825 2.7076 0
M  V30 4083 C 689.556 -7.45864 1.40599 0
M  V30 4084 O 689.766 -6.17651 0.734225 0
M  V30 4085 C 690.956 -8.05808 1.51899 0
M  V30 4086 O 691.346 -8.74358 0.335205 0
M  V30 4087 C 691.836 -6.83093 1.70294 0
M  V30 4088 C 691.126 -5.79992 0.836974 0
M  V30 4089 N 691.176 -4.41864 1.38293 0
M  V30 4090 H 688.337 -8.13644 3.0377 0
M  V30 4091 H 688.067 -6.42788 2.55485 0
M  V30 4092 H 688.934 -8.12039 0.792769 0
M  V30 4093 P 692.896 -8.91 -4.67181e-12 0
M  V30 4094 O 693.116 -10.1726 -0.733694 0
M  V30 4095 O 693.686 -8.73148 1.23936 0
M  V30 4096 O 693.146 -7.66872 -0.971405 0
M  V30 4097 C 692.206 -7.42309 -2.04641 0
M  V30 4098 C 692.936 -6.86059 -3.24661 0
M  V30 4099 O 693.146 -5.42847 -3.03646 0
M  V30 4100 C 694.336 -7.41196 -3.50753 0
M  V30 4101 O 694.726 -7.27073 -4.86816 0
M  V30 4102 C 695.216 -6.5273 -2.63741 0
M  V30 4103 C 694.506 -5.1842 -2.73198 0
M  V30 4104 N 694.556 -4.38762 -1.4784 0
M  V30 4105 H 691.717 -8.36803 -2.32493 0
M  V30 4106 H 691.447 -6.70197 -1.71129 0
M  V30 4107 H 692.314 -7.03551 -4.13168 0
M  V30 4108 P 696.276 -7.20834 -5.23717 0
M  V30 4109 O 696.496 -7.79853 -6.57286 0
M  V30 4110 O 697.066 -7.79239 -4.12957 0
M  V30 4111 O 696.526 -5.63315 -5.29344 0
M  V30 4112 C 695.586 -4.80255 -6.01876 0
M  V30 4113 C 696.316 -3.64202 -6.65911 0
M  V30 4114 O 696.526 -2.60694 -5.64732 0
M  V30 4115 C 697.716 -3.93473 -7.1943 0
M  V30 4116 O 698.106 -3.02071 -8.21205 0
M  V30 4117 C 698.596 -3.73047 -5.97036 0
M  V30 4118 C 697.886 -2.58828 -5.25741 0
M  V30 4119 N 697.936 -2.68068 -3.77503 0
M  V30 4120 C 697.856 -3.79715 -2.96723 0
M  V30 4121 N 697.936 -3.5377 -1.68852 0
M  V30 4122 C 698.076 -2.15054 -1.63254 0
M  V30 4123 C 698.206 -1.28964 -0.518571 0
M  V30 4124 O 698.226 -1.56826 0.679156 0
M  V30 4125 N 698.326 0.0538097 -0.918425 0
M  V30 4126 C 698.326 0.494275 -2.22578 0
M  V30 4127 N 698.456 1.81086 -2.40434 0
M  V30 4128 N 698.196 -0.313645 -3.27502 0
M  V30 4129 C 698.076 -1.61829 -2.91033 0
M  V30 4130 H 695.097 -5.40332 -6.79951 0
M  V30 4131 H 694.827 -4.41613 -5.32378 0
M  V30 4132 H 695.694 -3.26331 -7.47797 0
M  V30 4133 H 698.349 -1.63422 -5.56814 0
M  V30 4134 H 698.628 -4.63374 -5.34244 0
M  V30 4135 H 699.62 -3.44728 -6.25838 0
M  V30 4136 H 697.786 -4.96652 -7.57263 0
M  V30 4137 H 697.737 -4.80617 -3.3614 0
M  V30 4138 H 698.419 0.742702 -0.199384 0
M  V30 4139 H 698.456 2.20598 -3.35588 0
M  V30 4140 H 698.557 2.43518 -1.58945 0
M  V30 4141 P 699.656 -2.75334 -8.47391 0
M  V30 4142 O 699.876 -2.44571 -9.90142 0
M  V30 4143 O 700.446 -3.87688 -7.92115 0
M  V30 4144 O 699.906 -1.4459 -7.59357 0
M  V30 4145 C 698.966 -0.347608 -7.69215 0
M  V30 4146 C 699.696 0.96767 -7.52806 0
M  V30 4147 O 699.906 1.21036 -6.1011 0
M  V30 4148 C 701.096 1.04544 -8.13308 0
M  V30 4149 O 701.486 2.38311 -8.41922 0
M  V30 4150 C 701.976 0.491279 -7.02284 0
M  V30 4151 C 701.266 0.996264 -5.77469 0
M  V30 4152 N 701.316 0.0501916 -4.62973 0
M  V30 4153 H 698.477 -0.374722 -8.67691 0
M  V30 4154 H 698.207 -0.443485 -6.90277 0
M  V30 4155 H 699.074 1.75537 -7.96793 0
M  V30 4156 P 703.036 2.75334 -8.47391 0
M  V30 4157 O 703.256 3.84128 -9.44797 0
M  V30 4158 O 703.826 1.51947 -8.68712 0
M  V30 4159 O 703.286 3.29363 -6.99321 0
M  V30 4160 C 702.346 4.24011 -6.4274 0
M  V30 4161 C 703.076 5.20775 -5.52155 0
M  V30 4162 O 703.286 4.56534 -4.22446 0
M  V30 4163 C 704.476 5.62629 -5.96531 0
M  V30 4164 O 704.866 6.87667 -5.41053 0
M  V30 4165 C 705.356 4.52537 -5.39283 0
M  V30 4166 C 704.646 4.20027 -4.08623 0
M  V30 4167 N 704.696 2.76189 -3.71603 0
M  V30 4168 C 704.616 1.64862 -4.52822 0
M  V30 4169 N 704.696 0.512671 -3.88633 0
M  V30 4170 C 704.836 0.888083 -2.54977 0
M  V30 4171 C 704.966 0.094668 -1.38677 0
M  V30 4172 O 704.986 -1.13053 -1.28163 0
M  V30 4173 N 705.086 0.890102 -0.232633 0
M  V30 4174 C 705.086 2.26958 -0.21772 0
M  V30 4175 N 705.216 2.84626 0.97925 0
M  V30 4176 N 704.956 3.0178 -1.31033 0
M  V30 4177 C 704.836 2.26781 -2.43843 0
M  V30 4178 H 701.857 4.797 -7.24003 0
M  V30 4179 H 701.587 3.69856 -5.84513 0
M  V30 4180 H 702.454 6.10356 -5.41441 0
M  V30 4181 H 705.109 4.79061 -3.27488 0
M  V30 4182 H 705.388 3.64906 -6.05785 0
M  V30 4183 H 706.38 4.8868 -5.2125 0
M  V30 4184 H 704.546 5.66726 -7.06352 0
M  V30 4185 H 704.497 1.71169 -5.60966 0
M  V30 4186 H 705.179 0.419134 0.644739 0
M  V30 4187 H 705.216 3.87332 1.06098 0
M  V30 4188 H 705.317 2.26417 1.82483 0
M  V30 4189 P 706.416 7.20834 -5.23717 0
M  V30 4190 O 706.636 8.66104 -5.38572 0
M  V30 4191 O 707.206 6.33544 -6.1349 0
M  V30 4192 O 706.666 6.7751 -3.72168 0
M  V30 4193 C 705.726 7.20825 -2.7076 0
M  V30 4194 C 706.456 7.45864 -1.40599 0
M  V30 4195 O 706.666 6.17651 -0.734225 0
M  V30 4196 C 707.856 8.05808 -1.51899 0
M  V30 4197 O 708.246 8.74358 -0.335205 0
M  V30 4198 C 708.736 6.83093 -1.70294 0
M  V30 4199 C 708.026 5.79992 -0.836974 0
M  V30 4200 N 708.076 4.41864 -1.38293 0
M  V30 4201 C 707.996 3.99538 -2.69438 0
M  V30 4202 N 708.076 2.69909 -2.84277 0
M  V30 4203 C 708.216 2.21719 -1.5408 0
M  V30 4204 C 708.346 0.891712 -1.06628 0
M  V30 4205 O 708.366 -0.161298 -1.70137 0
M  V30 4206 N 708.466 0.856846 0.334985 0
M  V30 4207 C 708.466 1.9641 1.15789 0
M  V30 4208 N 708.596 1.72708 2.46522 0
M  V30 4209 N 708.336 3.21165 0.713741 0
M  V30 4210 C 708.216 3.26797 -0.639748 0
M  V30 4211 H 705.237 8.13644 -3.0377 0
M  V30 4212 H 704.967 6.42788 -2.55485 0
M  V30 4213 H 705.834 8.12039 -0.792769 0
M  V30 4214 H 708.489 5.80061 0.166416 0
M  V30 4215 H 708.768 6.51287 -2.75604 0
M  V30 4216 H 709.76 7.01734 -1.34462 0
M  V30 4217 H 707.926 8.73674 -2.38337 0
M  V30 4218 H 707.877 4.68207 -3.53221 0
M  V30 4219 H 708.559 -0.0398818 0.767965 0
M  V30 4220 H 708.596 2.50995 3.13503 0
M  V30 4221 H 708.697 0.759148 2.80716 0
M  V30 4222 P 709.796 8.91 4.82899e-12 0
M  V30 4223 O 710.016 10.1726 0.733694 0
M  V30 4224 O 710.586 8.73148 -1.23936 0
M  V30 4225 O 710.046 7.66872 0.971405 0
M  V30 4226 C 709.106 7.42309 2.04641 0
M  V30 4227 C 709.836 6.86059 3.24661 0
M  V30 4228 O 710.046 5.42847 3.03646 0
M  V30 4229 C 711.236 7.41196 3.50753 0
M  V30 4230 O 711.626 7.27073 4.86816 0
M  V30 4231 C 712.116 6.5273 2.63741 0
M  V30 4232 C 711.406 5.1842 2.73198 0
M  V30 4233 N 711.456 4.38762 1.4784 0
M  V30 4234 H 708.617 8.36803 2.32493 0
M  V30 4235 H 708.347 6.70197 1.71129 0
M  V30 4236 H 709.214 7.03551 4.13168 0
M  V30 4237 P 713.176 7.20834 5.23717 0
M  V30 4238 O 713.396 7.79853 6.57286 0
M  V30 4239 O 713.966 7.79239 4.12957 0
M  V30 4240 O 713.426 5.63315 5.29344 0
M  V30 4241 C 712.486 4.80255 6.01876 0
M  V30 4242 C 713.216 3.64202 6.65911 0
M  V30 4243 O 713.426 2.60694 5.64732 0
M  V30 4244 C 714.616 3.93473 7.1943 0
M  V30 4245 O 715.006 3.02071 8.21205 0
M  V30 4246 C 715.496 3.73047 5.97036 0
M  V30 4247 C 714.786 2.58828 5.25741 0
M  V30 4248 N 714.836 2.68068 3.77503 0
M  V30 4249 H 711.997 5.40332 6.79951 0
M  V30 4250 H 711.727 4.41613 5.32378 0
M  V30 4251 H 712.594 3.26331 7.47797 0
M  V30 4252 P 716.556 2.75334 8.47391 0
M  V30 4253 O 716.776 2.44595 9.90239 0
M  V30 4254 O 717.346 3.87732 7.92204 0
M  V30 4255 O 716.806 1.4459 7.59357 0
M  V30 4256 C 715.866 0.347563 7.69115 0
M  V30 4257 C 716.596 -0.96767 7.52806 0
M  V30 4258 O 716.806 -1.21036 6.1011 0
M  V30 4259 C 717.996 -1.04544 8.13308 0
M  V30 4260 O 718.386 -2.38311 8.41922 0
M  V30 4261 C 718.876 -0.491279 7.02284 0
M  V30 4262 C 718.166 -0.996264 5.77469 0
M  V30 4263 N 718.216 -0.0501808 4.62873 0
M  V30 4264 C 718.366 -0.588177 3.36904 0
M  V30 4265 O 718.456 -1.78598 3.17173 0
M  V30 4266 N 718.406 0.329694 2.33686 0
M  V30 4267 C 718.316 1.6953 2.45079 0
M  V30 4268 O 718.366 2.41926 1.44899 0
M  V30 4269 C 718.166 2.16933 3.80505 0
M  V30 4270 C 718.056 3.65373 3.97621 0
M  V30 4271 C 718.116 1.30326 4.83752 0
M  V30 4272 H 715.376 0.374722 8.67691 0
M  V30 4273 H 715.107 0.443421 6.90177 0
M  V30 4274 H 715.974 -1.75537 7.96793 0
M  V30 4275 H 718.629 -1.94496 5.46629 0
M  V30 4276 H 718.908 0.608651 7.04676 0
M  V30 4277 H 719.9 -0.889672 7.08939 0
M  V30 4278 H 718.066 -0.43308 9.04564 0
M  V30 4279 H 717.995 1.68366 5.8516 0
M  V30 4280 H 719.025 4.05985 4.30448 0
M  V30 4281 H 717.288 3.88028 4.72875 0
M  V30 4282 H 717.776 4.11381 3.01609 0
M  V30 4283 H 718.512 -0.0393617 1.41345 0
M  V30 4284 P 719.936 -2.75334 8.47391 0
M  V30 4285 O 720.156 -3.84128 9.44797 0
M  V30 4286 O 720.726 -1.51947 8.68712 0
M  V30 4287 O 720.186 -3.29363 6.99321 0
M  V30 4288 C 719.246 -4.24011 6.4274 0
M  V30 4289 C 719.976 -5.20775 5.52155 0
M  V30 4290 O 720.186 -4.56534 4.22446 0
M  V30 4291 C 721.376 -5.62629 5.96531 0
M  V30 4292 O 721.766 -6.87667 5.41053 0
M  V30 4293 C 722.256 -4.52537 5.39283 0
M  V30 4294 C 721.546 -4.20027 4.08623 0
M  V30 4295 N 721.596 -2.76189 3.71603 0
M  V30 4296 H 718.757 -4.797 7.24003 0
M  V30 4297 H 718.487 -3.69856 5.84513 0
M  V30 4298 H 719.354 -6.10356 5.41441 0
M  V30 4299 P 723.316 -7.20834 5.23717 0
M  V30 4300 O 723.536 -8.66189 5.38625 0
M  V30 4301 O 724.106 -6.33615 6.1356 0
M  V30 4302 O 723.566 -6.7751 3.72168 0
M  V30 4303 C 722.626 -7.20732 2.70725 0
M  V30 4304 C 723.356 -7.45864 1.40599 0
M  V30 4305 O 723.566 -6.17651 0.734225 0
M  V30 4306 C 724.756 -8.05808 1.51899 0
M  V30 4307 O 725.146 -8.74358 0.335205 0
M  V30 4308 C 725.636 -6.83093 1.70294 0
M  V30 4309 C 724.926 -5.79992 0.836974 0
M  V30 4310 N 724.976 -4.41769 1.38263 0
M  V30 4311 C 725.126 -3.38591 0.481702 0
M  V30 4312 O 725.216 -3.56839 -0.718452 0
M  V30 4313 N 725.166 -2.1206 1.03569 0
M  V30 4314 C 725.076 -1.80696 2.36966 0
M  V30 4315 C 724.926 -2.94845 3.23898 0
M  V30 4316 C 724.876 -4.19803 2.73435 0
M  V30 4317 H 722.136 -8.13644 3.0377 0
M  V30 4318 H 721.867 -6.42695 2.55448 0
M  V30 4319 H 722.734 -8.12039 0.792769 0
M  V30 4320 H 725.389 -5.79978 -0.160587 0
M  V30 4321 H 725.668 -6.51379 2.75643 0
M  V30 4322 H 726.66 -7.01734 1.34462 0
M  V30 4323 H 724.826 -8.73674 2.38337 0
M  V30 4324 H 724.755 -5.04492 3.4095 0
M  V30 4325 P 726.696 -8.91 -4.98617e-12 0
M  V30 4326 O 726.916 -10.1746 -0.733838 0
M  V30 4327 O 727.486 -8.73346 1.23964 0
M  V30 4328 O 726.946 -7.66872 -0.971405 0
M  V30 4329 C 726.006 -7.42405 -2.04668 0
M  V30 4330 C 726.736 -6.86059 -3.24661 0
M  V30 4331 O 726.946 -5.42934 -3.03695 0
M  V30 4332 C 728.136 -7.41287 -3.50796 0
M  V30 4333 O 728.526 -7.27073 -4.86816 0
M  V30 4334 C 729.016 -6.5273 -2.63741 0
M  V30 4335 C 728.306 -5.1842 -2.73198 0
M  V30 4336 N 728.356 -4.38762 -1.4784 0
M  V30 4337 C 728.276 -4.83651 -0.183876 0
M  V30 4338 N 728.346 -3.88759 0.699393 0
M  V30 4339 C 728.496 -2.7404 -0.0575568 0
M  V30 4340 C 728.626 -1.37902 0.293928 0
M  V30 4341 N 728.636 -0.938021 1.54797 0
M  V30 4342 N 728.746 -0.491817 -0.70549 0
M  V30 4343 C 728.736 -0.931735 -1.95979 0
M  V30 4344 N 728.616 -2.16017 -2.41481 0
M  V30 4345 C 728.496 -3.02547 -1.39121 0
M  V30 4346 H 725.518 -8.36899 -2.3252 0
M  V30 4347 H 725.246 -6.70391 -1.71179 0
M  V30 4348 H 726.114 -7.03638 -4.13219 0
M  V30 4349 H 728.769 -4.59931 -3.54016 0
M  V30 4350 H 729.049 -6.88995 -1.59871 0
M  V30 4351 H 730.04 -6.4684 -3.0373 0
M  V30 4352 H 728.206 -8.47002 -3.20749 0
M  V30 4353 H 728.165 -5.8885 0.0765548 0
M  V30 4354 H 728.546 -1.60276 2.32875 0
M  V30 4355 H 728.735 0.0699355 1.73859 0
M  V30 4356 H 728.843 -0.165507 -2.71897 0
M  V30 4357 P 730.076 -7.20834 -5.23717 0
M  V30 4358 O 730.296 -7.79853 -6.57286 0
M  V30 4359 O 730.866 -7.79239 -4.12957 0
M  V30 4360 O 730.326 -5.63315 -5.29344 0
M  V30 4361 C 729.386 -4.80255 -6.01876 0
M  V30 4362 C 730.116 -3.64202 -6.65911 0
M  V30 4363 O 730.326 -2.60694 -5.64732 0
M  V30 4364 C 731.516 -3.93473 -7.1943 0
M  V30 4365 O 731.906 -3.02071 -8.21205 0
M  V30 4366 C 732.396 -3.73047 -5.97036 0
M  V30 4367 C 731.686 -2.58828 -5.25741 0
M  V30 4368 N 731.736 -2.68068 -3.77503 0
M  V30 4369 H 728.897 -5.40332 -6.79951 0
M  V30 4370 H 728.627 -4.41613 -5.32378 0
M  V30 4371 H 729.494 -3.26331 -7.47797 0
M  V30 4372 P 733.456 -2.75334 -8.47391 0
M  V30 4373 O 733.676 -2.44571 -9.90142 0
M  V30 4374 O 734.246 -3.87688 -7.92115 0
M  V30 4375 O 733.706 -1.4459 -7.59357 0
M  V30 4376 C 732.766 -0.347608 -7.69215 0
M  V30 4377 C 733.496 0.96767 -7.52806 0
M  V30 4378 O 733.706 1.21036 -6.1011 0
M  V30 4379 C 734.896 1.04544 -8.13308 0
M  V30 4380 O 735.286 2.38311 -8.41922 0
M  V30 4381 C 735.776 0.491279 -7.02284 0
M  V30 4382 C 735.066 0.996264 -5.77469 0
M  V30 4383 N 735.116 0.0501916 -4.62973 0
M  V30 4384 H 732.277 -0.374722 -8.67691 0
M  V30 4385 H 732.007 -0.443485 -6.90277 0
M  V30 4386 H 732.874 1.75537 -7.96793 0
M  V30 4387 P 736.836 2.75334 -8.47391 0
M  V30 4388 O 737.056 3.84128 -9.44797 0
M  V30 4389 O 737.626 1.51947 -8.68712 0
M  V30 4390 O 737.086 3.29363 -6.99321 0
M  V30 4391 C 736.146 4.24011 -6.4274 0
M  V30 4392 C 736.876 5.20775 -5.52155 0
M  V30 4393 O 737.086 4.56534 -4.22446 0
M  V30 4394 C 738.276 5.62629 -5.96531 0
M  V30 4395 O 738.666 6.87667 -5.41053 0
M  V30 4396 C 739.156 4.52537 -5.39283 0
M  V30 4397 C 738.446 4.20027 -4.08623 0
M  V30 4398 N 738.496 2.76189 -3.71603 0
M  V30 4399 H 735.657 4.797 -7.24003 0
M  V30 4400 H 735.387 3.69856 -5.84513 0
M  V30 4401 H 736.254 6.10356 -5.41441 0
M  V30 4402 P 740.216 7.20834 -5.23717 0
M  V30 4403 O 740.436 8.66104 -5.38572 0
M  V30 4404 O 741.006 6.33544 -6.1349 0
M  V30 4405 O 740.466 6.7751 -3.72168 0
M  V30 4406 C 739.526 7.20825 -2.7076 0
M  V30 4407 C 740.256 7.45864 -1.40599 0
M  V30 4408 O 740.466 6.17651 -0.734225 0
M  V30 4409 C 741.656 8.05808 -1.51899 0
M  V30 4410 O 742.046 8.74358 -0.335205 0
M  V30 4411 C 742.536 6.83093 -1.70294 0
M  V30 4412 C 741.826 5.79992 -0.836974 0
M  V30 4413 N 741.876 4.41864 -1.38293 0
M  V30 4414 H 739.037 8.13644 -3.0377 0
M  V30 4415 H 738.767 6.42788 -2.55485 0
M  V30 4416 H 739.634 8.12039 -0.792769 0
M  V30 4417 P 743.596 8.91 5.14336e-12 0
M  V30 4418 O 743.816 10.1726 0.733694 0
M  V30 4419 O 744.386 8.73148 -1.23936 0
M  V30 4420 O 743.846 7.66872 0.971405 0
M  V30 4421 C 742.906 7.42309 2.04641 0
M  V30 4422 C 743.636 6.86059 3.24661 0
M  V30 4423 O 743.846 5.42847 3.03646 0
M  V30 4424 C 745.036 7.41196 3.50753 0
M  V30 4425 O 745.426 7.27073 4.86816 0
M  V30 4426 C 745.916 6.5273 2.63741 0
M  V30 4427 C 745.206 5.1842 2.73198 0
M  V30 4428 N 745.256 4.38762 1.4784 0
M  V30 4429 H 742.417 8.36803 2.32493 0
M  V30 4430 H 742.147 6.70197 1.71129 0
M  V30 4431 H 743.014 7.03551 4.13168 0
M  V30 4432 P 746.976 7.20834 5.23717 0
M  V30 4433 O 747.196 7.80006 6.57415 0
M  V30 4434 O 747.766 7.79416 4.13051 0
M  V30 4435 O 747.226 5.63315 5.29344 0
M  V30 4436 C 746.286 4.80318 6.01954 0
M  V30 4437 C 747.016 3.64202 6.65911 0
M  V30 4438 O 747.226 2.60736 5.64823 0
M  V30 4439 C 748.416 3.93521 7.19518 0
M  V30 4440 O 748.806 3.02071 8.21205 0
M  V30 4441 C 749.296 3.73047 5.97036 0
M  V30 4442 C 748.586 2.58828 5.25741 0
M  V30 4443 N 748.636 2.68068 3.77503 0
M  V30 4444 C 748.556 3.80474 2.99159 0
M  V30 4445 N 748.626 3.55622 1.71925 0
M  V30 4446 C 748.776 2.1832 1.65733 0
M  V30 4447 C 748.906 1.28842 0.572777 0
M  V30 4448 N 748.916 1.66875 -0.70098 0
M  V30 4449 N 749.026 -0.016788 0.859836 0
M  V30 4450 C 749.016 -0.398145 2.13316 0
M  V30 4451 N 748.896 0.328224 3.22333 0
M  V30 4452 C 748.776 1.62992 2.90383 0
M  V30 4453 H 745.798 5.40394 6.8003 0
M  V30 4454 H 745.526 4.41741 5.32532 0
M  V30 4455 H 746.394 3.26371 7.47889 0
M  V30 4456 H 749.049 1.64007 5.56746 0
M  V30 4457 H 749.329 4.63439 5.3432 0
M  V30 4458 H 750.32 3.44776 6.25925 0
M  V30 4459 H 748.486 4.96707 7.57347 0
M  V30 4460 H 748.445 4.8089 3.39924 0
M  V30 4461 H 748.826 2.66547 -0.941919 0
M  V30 4462 H 749.015 0.965341 -1.44766 0
M  V30 4463 H 749.123 -1.46427 2.29697 0
M  V30 4464 P 750.356 2.75334 8.47391 0
M  V30 4465 O 750.576 2.44571 9.90142 0
M  V30 4466 O 751.146 3.87688 7.92115 0
M  V30 4467 O 750.606 1.4459 7.59357 0
M  V30 4468 C 749.666 0.347608 7.69215 0
M  V30 4469 C 750.396 -0.96767 7.52806 0
M  V30 4470 O 750.606 -1.21036 6.1011 0
M  V30 4471 C 751.796 -1.04544 8.13308 0
M  V30 4472 O 752.186 -2.38311 8.41922 0
M  V30 4473 C 752.676 -0.491279 7.02284 0
M  V30 4474 C 751.966 -0.996264 5.77469 0
M  V30 4475 N 752.016 -0.0501916 4.62973 0
M  V30 4476 C 751.936 1.32786 4.63244 0
M  V30 4477 N 752.016 1.86957 3.44545 0
M  V30 4478 C 752.156 0.780241 2.58481 0
M  V30 4479 C 752.286 0.738536 1.17757 0
M  V30 4480 O 752.306 1.66794 0.372349 0
M  V30 4481 N 752.406 -0.58337 0.711393 0
M  V30 4482 C 752.406 -1.70816 1.51017 0
M  V30 4483 N 752.536 -2.87826 0.880757 0
M  V30 4484 N 752.276 -1.67126 2.8339 0
M  V30 4485 C 752.156 -0.401421 3.30572 0
M  V30 4486 H 749.177 0.374722 8.67691 0
M  V30 4487 H 748.907 0.443485 6.90277 0
M  V30 4488 H 749.774 -1.75537 7.96793 0
M  V30 4489 H 752.429 -1.95076 5.46529 0
M  V30 4490 H 752.708 0.608565 7.04577 0
M  V30 4491 H 753.7 -0.889672 7.08939 0
M  V30 4492 H 751.866 -0.43308 9.04564 0
M  V30 4493 H 751.817 1.91249 5.54442 0
M  V30 4494 H 752.499 -0.718054 -0.275244 0
M  V30 4495 H 752.536 -3.75721 1.41832 0
M  V30 4496 H 752.637 -2.90436 -0.145468 0
M  V30 4497 P 753.736 -2.75334 8.47391 0
M  V30 4498 O 753.956 -3.84128 9.44797 0
M  V30 4499 O 754.526 -1.51947 8.68712 0
M  V30 4500 O 753.986 -3.29363 6.99321 0
M  V30 4501 C 753.046 -4.24011 6.4274 0
M  V30 4502 C 753.776 -5.20775 5.52155 0
M  V30 4503 O 753.986 -4.56534 4.22446 0
M  V30 4504 C 755.176 -5.62629 5.96531 0
M  V30 4505 O 755.566 -6.87667 5.41053 0
M  V30 4506 C 756.056 -4.52537 5.39283 0
M  V30 4507 C 755.346 -4.20027 4.08623 0
M  V30 4508 N 755.396 -2.76189 3.71603 0
M  V30 4509 H 752.557 -4.797 7.24003 0
M  V30 4510 H 752.287 -3.69856 5.84513 0
M  V30 4511 H 753.154 -6.10356 5.41441 0
M  V30 4512 P 757.116 -7.20834 5.23717 0
M  V30 4513 O 757.336 -8.66104 5.38572 0
M  V30 4514 O 757.906 -6.33544 6.1349 0
M  V30 4515 O 757.366 -6.7751 3.72168 0
M  V30 4516 C 756.426 -7.20825 2.7076 0
M  V30 4517 C 757.156 -7.45864 1.40599 0
M  V30 4518 O 757.366 -6.17651 0.734225 0
M  V30 4519 C 758.556 -8.05808 1.51899 0
M  V30 4520 O 758.946 -8.74358 0.335205 0
M  V30 4521 C 759.436 -6.83093 1.70294 0
M  V30 4522 C 758.726 -5.79992 0.836974 0
M  V30 4523 N 758.776 -4.41864 1.38293 0
M  V30 4524 H 755.937 -8.13644 3.0377 0
M  V30 4525 H 755.667 -6.42788 2.55485 0
M  V30 4526 H 756.534 -8.12039 0.792769 0
M  V30 4527 P 760.496 -8.91 -5.30054e-12 0
M  V30 4528 O 760.716 -10.1726 -0.733694 0
M  V30 4529 O 761.286 -8.73148 1.23936 0
M  V30 4530 O 760.746 -7.66872 -0.971405 0
M  V30 4531 C 759.806 -7.42309 -2.04641 0
M  V30 4532 C 760.536 -6.86059 -3.24661 0
M  V30 4533 O 760.746 -5.42847 -3.03646 0
M  V30 4534 C 761.936 -7.41196 -3.50753 0
M  V30 4535 O 762.326 -7.27073 -4.86816 0
M  V30 4536 C 762.816 -6.5273 -2.63741 0
M  V30 4537 C 762.106 -5.1842 -2.73198 0
M  V30 4538 N 762.156 -4.38762 -1.4784 0
M  V30 4539 H 759.317 -8.36803 -2.32493 0
M  V30 4540 H 759.047 -6.70197 -1.71129 0
M  V30 4541 H 759.914 -7.03551 -4.13168 0
M  V30 4542 P 763.875 -7.20834 -5.23717 0
M  V30 4543 O 764.095 -7.79853 -6.57286 0
M  V30 4544 O 764.665 -7.79239 -4.12957 0
M  V30 4545 O 764.125 -5.63315 -5.29344 0
M  V30 4546 C 763.185 -4.80255 -6.01876 0
M  V30 4547 C 763.915 -3.64202 -6.65911 0
M  V30 4548 O 764.125 -2.60694 -5.64732 0
M  V30 4549 C 765.315 -3.93473 -7.1943 0
M  V30 4550 O 765.705 -3.02071 -8.21205 0
M  V30 4551 C 766.195 -3.73047 -5.97036 0
M  V30 4552 C 765.485 -2.58828 -5.25741 0
M  V30 4553 N 765.535 -2.68068 -3.77503 0
M  V30 4554 C 765.455 -3.79715 -2.96723 0
M  V30 4555 N 765.535 -3.5377 -1.68852 0
M  V30 4556 C 765.675 -2.15054 -1.63254 0
M  V30 4557 C 765.805 -1.28964 -0.518571 0
M  V30 4558 N 765.925 0.0538097 -0.918425 0
M  V30 4559 C 765.925 0.494275 -2.22578 0
M  V30 4560 N 766.055 1.81086 -2.40434 0
M  V30 4561 N 765.795 -0.313645 -3.27502 0
M  V30 4562 C 765.675 -1.61829 -2.91033 0
M  V30 4563 H 762.696 -5.40332 -6.79951 0
M  V30 4564 H 762.426 -4.41613 -5.32378 0
M  V30 4565 H 763.293 -3.26331 -7.47797 0
M  V30 4566 P 767.255 -2.75334 -8.47391 0
M  V30 4567 O 767.475 -2.44571 -9.90142 0
M  V30 4568 O 768.045 -3.87688 -7.92115 0
M  V30 4569 O 767.505 -1.4459 -7.59357 0
M  V30 4570 C 766.565 -0.347608 -7.69215 0
M  V30 4571 C 767.295 0.96767 -7.52806 0
M  V30 4572 O 767.505 1.21036 -6.1011 0
M  V30 4573 C 768.695 1.04544 -8.13308 0
M  V30 4574 O 769.085 2.38311 -8.41922 0
M  V30 4575 C 769.575 0.491279 -7.02284 0
M  V30 4576 C 768.865 0.996264 -5.77469 0
M  V30 4577 N 768.915 0.0501916 -4.62973 0
M  V30 4578 C 768.835 -1.32786 -4.63244 0
M  V30 4579 N 768.915 -1.86957 -3.44545 0
M  V30 4580 C 769.055 -0.780241 -2.58481 0
M  V30 4581 C 769.185 -0.738536 -1.17757 0
M  V30 4582 O 769.205 -1.66794 -0.372349 0
M  V30 4583 N 769.305 0.58337 -0.711393 0
M  V30 4584 C 769.305 1.70816 -1.51017 0
M  V30 4585 N 769.435 2.87826 -0.880757 0
M  V30 4586 N 769.175 1.67126 -2.8339 0
M  V30 4587 C 769.055 0.401421 -3.30572 0
M  V30 4588 H 766.076 -0.374722 -8.67691 0
M  V30 4589 H 765.806 -0.443485 -6.90277 0
M  V30 4590 H 766.673 1.75537 -7.96793 0
M  V30 4591 H 769.328 1.95076 -5.46529 0
M  V30 4592 H 769.607 -0.608565 -7.04577 0
M  V30 4593 H 770.599 0.889672 -7.08939 0
M  V30 4594 H 768.765 0.43308 -9.04564 0
M  V30 4595 H 768.716 -1.91249 -5.54442 0
M  V30 4596 H 769.398 0.718054 0.275244 0
M  V30 4597 H 769.435 3.75721 -1.41832 0
M  V30 4598 H 769.536 2.90436 0.145468 0
M  V30 4599 P 770.635 2.75334 -8.47391 0
M  V30 4600 O 770.855 3.84204 -9.44982 0
M  V30 4601 O 771.425 1.51982 -8.68909 0
M  V30 4602 O 770.885 3.29363 -6.99321 0
M  V30 4603 C 769.945 4.24066 -6.42823 0
M  V30 4604 C 770.675 5.20775 -5.52155 0
M  V30 4605 O 770.885 4.56607 -4.22514 0
M  V30 4606 C 772.075 5.62697 -5.96604 0
M  V30 4607 O 772.465 6.87667 -5.41053 0
M  V30 4608 C 772.955 4.52537 -5.39283 0
M  V30 4609 C 772.245 4.20027 -4.08623 0
M  V30 4610 N 772.295 2.76189 -3.71603 0
M  V30 4611 C 772.215 1.66944 -4.54297 0
M  V30 4612 N 772.285 0.536169 -3.91344 0
M  V30 4613 C 772.435 0.901569 -2.58849 0
M  V30 4614 C 772.565 0.146599 -1.40236 0
M  V30 4615 N 772.575 -1.18234 -1.37046 0
M  V30 4616 N 772.685 0.822941 -0.249738 0
M  V30 4617 C 772.675 2.15179 -0.280525 0
M  V30 4618 N 772.555 2.96414 -1.30822 0
M  V30 4619 C 772.435 2.25804 -2.44748 0
M  V30 4620 H 769.457 4.79756 -7.24086 0
M  V30 4621 H 769.185 3.69963 -5.84682 0
M  V30 4622 H 770.053 6.10431 -5.41508 0
M  V30 4623 H 772.708 4.78816 -3.28024 0
M  V30 4624 H 772.988 3.64957 -6.05871 0
M  V30 4625 H 773.979 4.88748 -5.21323 0
M  V30 4626 H 772.145 5.66789 -7.0643 0
M  V30 4627 H 772.104 1.74684 -5.62396 0
M  V30 4628 H 772.485 -1.71949 -2.24394 0
M  V30 4629 H 772.674 -1.67511 -0.470742 0
M  V30 4630 H 772.782 2.63704 0.6828 0
M  V30 4631 P 774.015 7.20834 -5.23717 0
M  V30 4632 O 774.235 8.66104 -5.38572 0
M  V30 4633 O 774.805 6.33544 -6.1349 0
M  V30 4634 O 774.265 6.7751 -3.72168 0
M  V30 4635 C 773.325 7.20825 -2.7076 0
M  V30 4636 C 774.055 7.45864 -1.40599 0
M  V30 4637 O 774.265 6.17651 -0.734225 0
M  V30 4638 C 775.455 8.05808 -1.51899 0
M  V30 4639 O 775.845 8.74358 -0.335205 0
M  V30 4640 C 776.335 6.83093 -1.70294 0
M  V30 4641 C 775.625 5.79992 -0.836974 0
M  V30 4642 N 775.675 4.41864 -1.38293 0
M  V30 4643 H 772.836 8.13644 -3.0377 0
M  V30 4644 H 772.566 6.42788 -2.55485 0
M  V30 4645 H 773.433 8.12039 -0.792769 0
M  V30 4646 P 777.395 8.91 5.45772e-12 0
M  V30 4647 O 777.615 10.1736 0.733766 0
M  V30 4648 O 778.185 8.73247 -1.2395 0
M  V30 4649 O 777.645 7.66872 0.971405 0
M  V30 4650 C 776.705 7.42212 2.04614 0
M  V30 4651 C 777.435 6.86059 3.24661 0
M  V30 4652 O 777.645 5.42847 3.03646 0
M  V30 4653 C 778.835 7.41196 3.50753 0
M  V30 4654 O 779.225 7.27073 4.86816 0
M  V30 4655 C 779.715 6.5273 2.63741 0
M  V30 4656 C 779.005 5.1842 2.73198 0
M  V30 4657 N 779.055 4.38668 1.47808 0
M  V30 4658 C 779.205 3.02239 1.60048 0
M  V30 4659 O 779.295 2.46459 2.67869 0
M  V30 4660 N 779.245 2.32436 0.408571 0
M  V30 4661 C 779.155 2.85471 -0.854993 0
M  V30 4662 O 779.205 2.12566 -1.8531 0
M  V30 4663 C 779.005 4.28918 -0.887335 0
M  V30 4664 C 778.895 4.91066 -2.24619 0
M  V30 4665 C 778.955 5.00349 0.255399 0
M  V30 4666 H 776.215 8.36803 2.32493 0
M  V30 4667 H 775.946 6.701 1.71105 0
M  V30 4668 H 776.813 7.03551 4.13168 0
M  V30 4669 H 779.468 4.59773 3.53894 0
M  V30 4670 H 779.747 6.88995 1.59871 0
M  V30 4671 H 780.739 6.46749 3.03687 0
M  V30 4672 H 778.905 8.46908 3.20714 0
M  V30 4673 H 778.834 6.08548 0.206986 0
M  V30 4674 H 779.864 5.34836 -2.53099 0
M  V30 4675 H 778.127 5.69638 -2.2291 0
M  V30 4676 H 778.615 4.13971 -2.98044 0
M  V30 4677 H 779.351 1.33211 0.474216 0
M  V30 4678 P 780.775 7.20834 5.23717 0
M  V30 4679 O 780.995 7.80006 6.57415 0
M  V30 4680 O 781.565 7.79416 4.13051 0
M  V30 4681 O 781.025 5.63315 5.29344 0
M  V30 4682 C 780.085 4.80318 6.01954 0
M  V30 4683 C 780.815 3.64202 6.65911 0
M  V30 4684 O 781.025 2.60736 5.64823 0
M  V30 4685 C 782.215 3.93521 7.19518 0
M  V30 4686 O 782.605 3.02071 8.21205 0
M  V30 4687 C 783.095 3.73047 5.97036 0
M  V30 4688 C 782.385 2.58828 5.25741 0
M  V30 4689 N 782.435 2.68068 3.77503 0
M  V30 4690 H 779.597 5.40394 6.8003 0
M  V30 4691 H 779.325 4.41741 5.32532 0
M  V30 4692 H 780.193 3.26371 7.47889 0
M  V30 4693 H 782.848 1.64007 5.56746 0
M  V30 4694 H 783.128 4.63439 5.3432 0
M  V30 4695 H 784.119 3.44776 6.25925 0
M  V30 4696 H 782.285 4.96707 7.57347 0
M  V30 4697 P 784.155 2.75334 8.47391 0
M  V30 4698 O 784.375 2.44619 9.90336 0
M  V30 4699 O 784.945 3.87776 7.92294 0
M  V30 4700 O 784.405 1.4459 7.59357 0
M  V30 4701 C 783.465 0.347653 7.69315 0
M  V30 4702 C 784.195 -0.96767 7.52806 0
M  V30 4703 O 784.405 -1.21055 6.10208 0
M  V30 4704 C 785.595 -1.04557 8.13408 0
M  V30 4705 O 785.985 -2.38311 8.41922 0
M  V30 4706 C 786.475 -0.491279 7.02284 0
M  V30 4707 C 785.765 -0.996264 5.77469 0
M  V30 4708 N 785.815 -0.0501916 4.62973 0
M  V30 4709 C 785.735 1.31969 4.65661 0
M  V30 4710 N 785.805 1.86649 3.48119 0
M  V30 4711 C 785.955 0.792089 2.62406 0
M  V30 4712 C 786.085 0.705684 1.2207 0
M  V30 4713 N 786.095 1.76207 0.413762 0
M  V30 4714 N 786.205 -0.518981 0.685754 0
M  V30 4715 C 786.195 -1.57595 1.49174 0
M  V30 4716 N 786.075 -1.62909 2.80066 0
M  V30 4717 C 785.955 -0.388195 3.3073 0
M  V30 4718 H 782.977 0.374765 8.67791 0
M  V30 4719 H 782.705 0.443613 6.90476 0
M  V30 4720 H 783.573 -1.75559 7.96891 0
M  V30 4721 H 786.228 -1.94563 5.46818 0
M  V30 4722 H 786.508 0.608651 7.04676 0
M  V30 4723 H 787.499 -0.889796 7.09039 0
M  V30 4724 H 785.665 -0.433128 9.04664 0
M  V30 4725 H 785.624 1.89246 5.57664 0
M  V30 4726 H 786.005 2.71005 0.804694 0
M  V30 4727 H 786.194 1.63189 -0.603768 0
M  V30 4728 H 786.302 -2.53475 0.997614 0
M  V30 4729 P 787.535 -2.75334 8.47391 0
M  V30 4730 O 787.755 -3.84204 9.44982 0
M  V30 4731 O 788.325 -1.51982 8.68909 0
M  V30 4732 O 787.785 -3.29363 6.99321 0
M  V30 4733 C 786.845 -4.24066 6.42823 0
M  V30 4734 C 787.575 -5.20775 5.52155 0
M  V30 4735 O 787.785 -4.56607 4.22514 0
M  V30 4736 C 788.975 -5.62697 5.96604 0
M  V30 4737 O 789.365 -6.87667 5.41053 0
M  V30 4738 C 789.855 -4.52537 5.39283 0
M  V30 4739 C 789.145 -4.20027 4.08623 0
M  V30 4740 N 789.195 -2.76189 3.71603 0
M  V30 4741 C 789.115 -1.66944 4.54297 0
M  V30 4742 N 789.185 -0.536169 3.91344 0
M  V30 4743 C 789.335 -0.901569 2.58849 0
M  V30 4744 C 789.465 -0.146599 1.40236 0
M  V30 4745 N 789.475 1.18234 1.37046 0
M  V30 4746 N 789.585 -0.822941 0.249738 0
M  V30 4747 C 789.575 -2.15179 0.280525 0
M  V30 4748 N 789.455 -2.96414 1.30822 0
M  V30 4749 C 789.335 -2.25804 2.44748 0
M  V30 4750 H 786.357 -4.79756 7.24086 0
M  V30 4751 H 786.085 -3.69963 5.84682 0
M  V30 4752 H 786.953 -6.10431 5.41508 0
M  V30 4753 H 789.608 -4.78816 3.28024 0
M  V30 4754 H 789.888 -3.64957 6.05871 0
M  V30 4755 H 790.879 -4.88748 5.21323 0
M  V30 4756 H 789.045 -5.66789 7.0643 0
M  V30 4757 H 789.004 -1.74684 5.62396 0
M  V30 4758 H 789.385 1.71949 2.24394 0
M  V30 4759 H 789.574 1.67511 0.470742 0
M  V30 4760 H 789.682 -2.63704 -0.6828 0
M  V30 4761 P 790.915 -7.20834 5.23717 0
M  V30 4762 O 791.135 -8.66104 5.38572 0
M  V30 4763 O 791.705 -6.33544 6.1349 0
M  V30 4764 O 791.165 -6.7751 3.72168 0
M  V30 4765 C 790.225 -7.20825 2.7076 0
M  V30 4766 C 790.955 -7.45864 1.40599 0
M  V30 4767 O 791.165 -6.17651 0.734225 0
M  V30 4768 C 792.355 -8.05808 1.51899 0
M  V30 4769 O 792.745 -8.74358 0.335205 0
M  V30 4770 C 793.235 -6.83093 1.70294 0
M  V30 4771 C 792.525 -5.79992 0.836974 0
M  V30 4772 N 792.575 -4.41864 1.38293 0
M  V30 4773 H 789.736 -8.13644 3.0377 0
M  V30 4774 H 789.466 -6.42788 2.55485 0
M  V30 4775 H 790.333 -8.12039 0.792769 0
M  V30 4776 P 794.295 -8.91 -5.6149e-12 0
M  V30 4777 O 794.515 -10.1726 -0.733694 0
M  V30 4778 O 795.085 -8.73148 1.23936 0
M  V30 4779 O 794.545 -7.66872 -0.971405 0
M  V30 4780 C 793.605 -7.42309 -2.04641 0
M  V30 4781 C 794.335 -6.86059 -3.24661 0
M  V30 4782 O 794.545 -5.42847 -3.03646 0
M  V30 4783 C 795.735 -7.41196 -3.50753 0
M  V30 4784 O 796.125 -7.27073 -4.86816 0
M  V30 4785 C 796.615 -6.5273 -2.63741 0
M  V30 4786 C 795.905 -5.1842 -2.73198 0
M  V30 4787 N 795.955 -4.38762 -1.4784 0
M  V30 4788 H 793.116 -8.36803 -2.32493 0
M  V30 4789 H 792.846 -6.70197 -1.71129 0
M  V30 4790 H 793.713 -7.03551 -4.13168 0
M  V30 4791 P 797.675 -7.20834 -5.23717 0
M  V30 4792 O 797.895 -7.79853 -6.57286 0
M  V30 4793 O 798.465 -7.79239 -4.12957 0
M  V30 4794 O 797.925 -5.63315 -5.29344 0
M  V30 4795 C 796.985 -4.80255 -6.01876 0
M  V30 4796 C 797.715 -3.64202 -6.65911 0
M  V30 4797 O 797.925 -2.60694 -5.64732 0
M  V30 4798 C 799.115 -3.93473 -7.1943 0
M  V30 4799 O 799.505 -3.02071 -8.21205 0
M  V30 4800 C 799.995 -3.73047 -5.97036 0
M  V30 4801 C 799.285 -2.58828 -5.25741 0
M  V30 4802 N 799.335 -2.68068 -3.77503 0
M  V30 4803 H 796.496 -5.40332 -6.79951 0
M  V30 4804 H 796.226 -4.41613 -5.32378 0
M  V30 4805 H 797.093 -3.26331 -7.47797 0
M  V30 4806 P 801.055 -2.75334 -8.47391 0
M  V30 4807 O 801.275 -2.44571 -9.90142 0
M  V30 4808 O 801.845 -3.87688 -7.92115 0
M  V30 4809 O 801.305 -1.4459 -7.59357 0
M  V30 4810 C 800.365 -0.347608 -7.69215 0
M  V30 4811 C 801.095 0.96767 -7.52806 0
M  V30 4812 O 801.305 1.21036 -6.1011 0
M  V30 4813 C 802.495 1.04544 -8.13308 0
M  V30 4814 O 802.885 2.38311 -8.41922 0
M  V30 4815 C 803.375 0.491279 -7.02284 0
M  V30 4816 C 802.665 0.996264 -5.77469 0
M  V30 4817 N 802.715 0.0501916 -4.62973 0
M  V30 4818 H 799.876 -0.374722 -8.67691 0
M  V30 4819 H 799.606 -0.443485 -6.90277 0
M  V30 4820 H 800.473 1.75537 -7.96793 0
M  V30 4821 P 804.435 2.75334 -8.47391 0
M  V30 4822 O 804.655 3.84128 -9.44797 0
M  V30 4823 O 805.225 1.51947 -8.68712 0
M  V30 4824 O 804.685 3.29363 -6.99321 0
M  V30 4825 C 803.745 4.24011 -6.4274 0
M  V30 4826 C 804.475 5.20775 -5.52155 0
M  V30 4827 O 804.685 4.56534 -4.22446 0
M  V30 4828 C 805.875 5.62629 -5.96531 0
M  V30 4829 O 806.265 6.87667 -5.41053 0
M  V30 4830 C 806.755 4.52537 -5.39283 0
M  V30 4831 C 806.045 4.20027 -4.08623 0
M  V30 4832 N 806.095 2.76189 -3.71603 0
M  V30 4833 H 803.256 4.797 -7.24003 0
M  V30 4834 H 802.986 3.69856 -5.84513 0
M  V30 4835 H 803.853 6.10356 -5.41441 0
M  V30 4836 P 807.815 7.20834 -5.23717 0
M  V30 4837 O 808.035 8.66104 -5.38572 0
M  V30 4838 O 808.605 6.33544 -6.1349 0
M  V30 4839 O 808.065 6.7751 -3.72168 0
M  V30 4840 C 807.125 7.20825 -2.7076 0
M  V30 4841 C 807.855 7.45864 -1.40599 0
M  V30 4842 O 808.065 6.17651 -0.734225 0
M  V30 4843 C 809.255 8.05808 -1.51899 0
M  V30 4844 O 809.645 8.74358 -0.335205 0
M  V30 4845 C 810.135 6.83093 -1.70294 0
M  V30 4846 C 809.425 5.79992 -0.836974 0
M  V30 4847 N 809.475 4.41864 -1.38293 0
M  V30 4848 H 806.636 8.13644 -3.0377 0
M  V30 4849 H 806.366 6.42788 -2.55485 0
M  V30 4850 H 807.233 8.12039 -0.792769 0
M  V30 4851 P 811.195 8.91 5.77209e-12 0
M  V30 4852 O 811.415 10.1726 0.733694 0
M  V30 4853 O 811.985 8.73148 -1.23936 0
M  V30 4854 O 811.445 7.66872 0.971405 0
M  V30 4855 C 810.505 7.42309 2.04641 0
M  V30 4856 C 811.235 6.86059 3.24661 0
M  V30 4857 O 811.445 5.42847 3.03646 0
M  V30 4858 C 812.635 7.41196 3.50753 0
M  V30 4859 O 813.025 7.27073 4.86816 0
M  V30 4860 C 813.515 6.5273 2.63741 0
M  V30 4861 C 812.805 5.1842 2.73198 0
M  V30 4862 N 812.855 4.38762 1.4784 0
M  V30 4863 H 810.016 8.36803 2.32493 0
M  V30 4864 H 809.746 6.70197 1.71129 0
M  V30 4865 H 810.613 7.03551 4.13168 0
M  V30 4866 P 814.575 7.20834 5.23717 0
M  V30 4867 O 814.795 7.79853 6.57286 0
M  V30 4868 O 815.365 7.79239 4.12957 0
M  V30 4869 O 814.825 5.63315 5.29344 0
M  V30 4870 C 813.885 4.80255 6.01876 0
M  V30 4871 C 814.615 3.64202 6.65911 0
M  V30 4872 O 814.825 2.60694 5.64732 0
M  V30 4873 C 816.015 3.93473 7.1943 0
M  V30 4874 O 816.405 3.02071 8.21205 0
M  V30 4875 C 816.895 3.73047 5.97036 0
M  V30 4876 C 816.185 2.58828 5.25741 0
M  V30 4877 N 816.235 2.68068 3.77503 0
M  V30 4878 H 813.396 5.40332 6.79951 0
M  V30 4879 H 813.126 4.41613 5.32378 0
M  V30 4880 H 813.993 3.26331 7.47797 0
M  V30 4881 P 817.955 2.75334 8.47391 0
M  V30 4882 O 818.175 2.44619 9.90336 0
M  V30 4883 O 818.745 3.87776 7.92294 0
M  V30 4884 O 818.205 1.4459 7.59357 0
M  V30 4885 C 817.265 0.347653 7.69315 0
M  V30 4886 C 817.995 -0.96767 7.52806 0
M  V30 4887 O 818.205 -1.21055 6.10208 0
M  V30 4888 C 819.395 -1.04557 8.13408 0
M  V30 4889 O 819.785 -2.38311 8.41922 0
M  V30 4890 C 820.275 -0.491279 7.02284 0
M  V30 4891 C 819.565 -0.996264 5.77469 0
M  V30 4892 N 819.615 -0.0501916 4.62973 0
M  V30 4893 C 819.535 1.31969 4.65661 0
M  V30 4894 N 819.605 1.86649 3.48119 0
M  V30 4895 C 819.755 0.792089 2.62406 0
M  V30 4896 C 819.885 0.705684 1.2207 0
M  V30 4897 N 819.895 1.76207 0.413762 0
M  V30 4898 N 820.005 -0.518981 0.685754 0
M  V30 4899 C 819.995 -1.57595 1.49174 0
M  V30 4900 N 819.875 -1.62909 2.80066 0
M  V30 4901 C 819.755 -0.388195 3.3073 0
M  V30 4902 H 816.777 0.374765 8.67791 0
M  V30 4903 H 816.505 0.443613 6.90476 0
M  V30 4904 H 817.373 -1.75559 7.96891 0
M  V30 4905 H 820.028 -1.94563 5.46818 0
M  V30 4906 H 820.308 0.608651 7.04676 0
M  V30 4907 H 821.299 -0.889796 7.09039 0
M  V30 4908 H 819.465 -0.433128 9.04664 0
M  V30 4909 H 819.424 1.89246 5.57664 0
M  V30 4910 H 819.805 2.71005 0.804694 0
M  V30 4911 H 819.994 1.63189 -0.603768 0
M  V30 4912 H 820.102 -2.53475 0.997614 0
M  V30 4913 P 821.335 -2.75334 8.47391 0
M  V30 4914 O 821.555 -3.84166 9.4489 0
M  V30 4915 O 822.125 -1.51964 8.6881 0
M  V30 4916 O 821.585 -3.29363 6.99321 0
M  V30 4917 C 820.645 -4.23956 6.42656 0
M  V30 4918 C 821.375 -5.20775 5.52155 0
M  V30 4919 O 821.585 -4.56534 4.22446 0
M  V30 4920 C 822.775 -5.62629 5.96531 0
M  V30 4921 O 823.165 -6.87667 5.41053 0
M  V30 4922 C 823.655 -4.52537 5.39283 0
M  V30 4923 C 822.945 -4.20027 4.08623 0
M  V30 4924 N 822.995 -2.7613 3.71522 0
M  V30 4925 C 823.145 -2.45612 2.37989 0
M  V30 4926 O 823.235 -3.30919 1.51621 0
M  V30 4927 N 823.185 -1.10684 2.08435 0
M  V30 4928 C 823.095 -0.0690084 2.9792 0
M  V30 4929 C 822.945 -0.481522 4.35345 0
M  V30 4930 C 822.895 -1.78906 4.67968 0
M  V30 4931 H 820.155 -4.797 7.24003 0
M  V30 4932 H 819.886 -3.69802 5.84429 0
M  V30 4933 H 820.753 -6.10356 5.41441 0
M  V30 4934 H 823.408 -4.78651 3.27911 0
M  V30 4935 H 823.687 -3.64957 6.05871 0
M  V30 4936 H 824.679 -4.8868 5.2125 0
M  V30 4937 H 822.845 -5.66726 7.06352 0
M  V30 4938 H 822.774 -2.07737 5.72367 0
M  V30 4939 P 824.715 -7.20834 5.23717 0
M  V30 4940 O 824.935 -8.66104 5.38572 0
M  V30 4941 O 825.505 -6.33544 6.1349 0
M  V30 4942 O 824.965 -6.7751 3.72168 0
M  V30 4943 C 824.025 -7.20825 2.7076 0
M  V30 4944 C 824.755 -7.45864 1.40599 0
M  V30 4945 O 824.965 -6.17651 0.734225 0
M  V30 4946 C 826.155 -8.05808 1.51899 0
M  V30 4947 O 826.545 -8.74358 0.335205 0
M  V30 4948 C 827.035 -6.83093 1.70294 0
M  V30 4949 C 826.325 -5.79992 0.836974 0
M  V30 4950 N 826.375 -4.41864 1.38293 0
M  V30 4951 H 823.536 -8.13644 3.0377 0
M  V30 4952 H 823.266 -6.42788 2.55485 0
M  V30 4953 H 824.133 -8.12039 0.792769 0
M  V30 4954 P 828.095 -8.91 -5.92927e-12 0
M  V30 4955 O 828.315 -10.1726 -0.733694 0
M  V30 4956 O 828.885 -8.73148 1.23936 0
M  V30 4957 O 828.345 -7.66872 -0.971405 0
M  V30 4958 C 827.405 -7.42309 -2.04641 0
M  V30 4959 C 828.135 -6.86059 -3.24661 0
M  V30 4960 O 828.345 -5.42847 -3.03646 0
M  V30 4961 C 829.535 -7.41196 -3.50753 0
M  V30 4962 O 829.925 -7.27073 -4.86816 0
M  V30 4963 C 830.415 -6.5273 -2.63741 0
M  V30 4964 C 829.705 -5.1842 -2.73198 0
M  V30 4965 N 829.755 -4.38762 -1.4784 0
M  V30 4966 H 826.916 -8.36803 -2.32493 0
M  V30 4967 H 826.646 -6.70197 -1.71129 0
M  V30 4968 H 827.513 -7.03551 -4.13168 0
M  V30 4969 P 831.475 -7.20834 -5.23717 0
M  V30 4970 O 831.695 -7.7993 -6.57351 0
M  V30 4971 O 832.265 -7.79328 -4.13004 0
M  V30 4972 O 831.725 -5.63315 -5.29344 0
M  V30 4973 C 830.785 -4.80193 -6.01798 0
M  V30 4974 C 831.515 -3.64202 -6.65911 0
M  V30 4975 O 831.725 -2.60694 -5.64732 0
M  V30 4976 C 832.915 -3.93473 -7.1943 0
M  V30 4977 O 833.305 -3.02071 -8.21205 0
M  V30 4978 C 833.795 -3.73047 -5.97036 0
M  V30 4979 C 833.085 -2.58828 -5.25741 0
M  V30 4980 N 833.135 -2.6801 -3.77422 0
M  V30 4981 C 833.285 -1.50443 -3.07133 0
M  V30 4982 O 833.375 -0.419406 -3.61576 0
M  V30 4983 N 833.325 -1.6403 -1.69677 0
M  V30 4984 C 833.235 -2.81206 -0.986255 0
M  V30 4985 C 833.085 -3.99158 -1.80325 0
M  V30 4986 C 833.035 -3.89779 -3.1476 0
M  V30 4987 H 830.295 -5.40332 -6.79951 0
M  V30 4988 H 830.026 -4.41549 -5.32301 0
M  V30 4989 H 830.893 -3.26331 -7.47797 0
M  V30 4990 H 833.548 -1.6395 -5.56554 0
M  V30 4991 H 833.827 -4.63439 -5.3432 0
M  V30 4992 H 834.819 -3.44728 -6.25838 0
M  V30 4993 H 832.985 -4.96652 -7.57263 0
M  V30 4994 H 832.914 -4.80159 -3.74441 0
M  V30 4995 P 834.855 -2.75334 -8.47391 0
M  V30 4996 O 835.075 -2.44571 -9.90142 0
M  V30 4997 O 835.645 -3.87688 -7.92115 0
M  V30 4998 O 835.105 -1.4459 -7.59357 0
M  V30 4999 C 834.165 -0.347608 -7.69215 0
M  V30 5000 C 834.895 0.96767 -7.52806 0
M  V30 5001 O 835.105 1.21036 -6.1011 0
M  V30 5002 C 836.295 1.04544 -8.13308 0
M  V30 5003 O 836.685 2.38311 -8.41922 0
M  V30 5004 C 837.175 0.491279 -7.02284 0
M  V30 5005 C 836.465 0.996264 -5.77469 0
M  V30 5006 N 836.515 0.0501916 -4.62973 0
M  V30 5007 H 833.676 -0.374722 -8.67691 0
M  V30 5008 H 833.406 -0.443485 -6.90277 0
M  V30 5009 H 834.273 1.75537 -7.96793 0
M  V30 5010 P 838.235 2.75334 -8.47391 0
M  V30 5011 O 838.455 3.84128 -9.44797 0
M  V30 5012 O 839.025 1.51947 -8.68712 0
M  V30 5013 O 838.485 3.29363 -6.99321 0
M  V30 5014 C 837.545 4.24011 -6.4274 0
M  V30 5015 C 838.275 5.20775 -5.52155 0
M  V30 5016 O 838.485 4.56534 -4.22446 0
M  V30 5017 C 839.675 5.62629 -5.96531 0
M  V30 5018 O 840.065 6.87667 -5.41053 0
M  V30 5019 C 840.555 4.52537 -5.39283 0
M  V30 5020 C 839.845 4.20027 -4.08623 0
M  V30 5021 N 839.895 2.76189 -3.71603 0
M  V30 5022 H 837.056 4.797 -7.24003 0
M  V30 5023 H 836.786 3.69856 -5.84513 0
M  V30 5024 H 837.653 6.10356 -5.41441 0
M  V30 5025 P 841.615 7.20834 -5.23717 0
M  V30 5026 O 841.835 8.66274 -5.38678 0
M  V30 5027 O 842.405 6.33687 -6.13629 0
M  V30 5028 O 841.865 6.7751 -3.72168 0
M  V30 5029 C 840.925 7.20919 -2.70795 0
M  V30 5030 C 841.655 7.45864 -1.40599 0
M  V30 5031 O 841.865 6.17751 -0.734343 0
M  V30 5032 C 843.055 8.05906 -1.51917 0
M  V30 5033 O 843.445 8.74358 -0.335205 0
M  V30 5034 C 843.935 6.83093 -1.70294 0
M  V30 5035 C 843.225 5.79992 -0.836974 0
M  V30 5036 N 843.275 4.41864 -1.38293 0
M  V30 5037 C 843.195 4.02089 -2.69407 0
M  V30 5038 N 843.265 2.73403 -2.85089 0
M  V30 5039 C 843.415 2.25086 -1.5642 0
M  V30 5040 C 843.545 0.942887 -1.04836 0
M  V30 5041 N 843.555 -0.150999 -1.80369 0
M  V30 5042 N 843.665 0.812565 0.28167 0
M  V30 5043 C 843.655 1.90572 1.03784 0
M  V30 5044 N 843.535 3.167 0.683905 0
M  V30 5045 C 843.415 3.26538 -0.652815 0
M  V30 5046 H 840.437 8.13738 -3.03804 0
M  V30 5047 H 840.165 6.42974 -2.55559 0
M  V30 5048 H 841.033 8.12139 -0.792866 0
M  V30 5049 H 843.688 5.80178 0.160643 0
M  V30 5050 H 843.968 6.51379 -2.75643 0
M  V30 5051 H 844.959 7.01832 -1.3448 0
M  V30 5052 H 843.125 8.73771 -2.38364 0
M  V30 5053 H 843.084 4.7189 -3.52311 0
M  V30 5054 H 843.465 -0.0721434 -2.82608 0
M  V30 5055 H 843.654 -1.0785 -1.36544 0
M  V30 5056 H 843.762 1.73207 2.10241 0
M  V30 5057 P 844.995 8.91 6.08645e-12 0
M  V30 5058 O 845.215 10.1736 0.733766 0
M  V30 5059 O 845.785 8.73247 -1.2395 0
M  V30 5060 O 845.245 7.66872 0.971405 0
M  V30 5061 C 844.305 7.42212 2.04614 0
M  V30 5062 C 845.035 6.86059 3.24661 0
M  V30 5063 O 845.245 5.42847 3.03646 0
M  V30 5064 C 846.435 7.41196 3.50753 0
M  V30 5065 O 846.825 7.27073 4.86816 0
M  V30 5066 C 847.315 6.5273 2.63741 0
M  V30 5067 C 846.605 5.1842 2.73198 0
M  V30 5068 N 846.655 4.38668 1.47808 0
M  V30 5069 C 846.805 3.02239 1.60048 0
M  V30 5070 O 846.895 2.46459 2.67869 0
M  V30 5071 N 846.845 2.32436 0.408571 0
M  V30 5072 C 846.755 2.85471 -0.854993 0
M  V30 5073 O 846.805 2.12566 -1.8531 0
M  V30 5074 C 846.605 4.28918 -0.887335 0
M  V30 5075 C 846.495 4.91066 -2.24619 0
M  V30 5076 C 846.555 5.00349 0.255399 0
M  V30 5077 H 843.815 8.36803 2.32493 0
M  V30 5078 H 843.546 6.701 1.71105 0
M  V30 5079 H 844.413 7.03551 4.13168 0
M  V30 5080 H 847.068 4.59773 3.53894 0
M  V30 5081 H 847.347 6.88995 1.59871 0
M  V30 5082 H 848.339 6.46749 3.03687 0
M  V30 5083 H 846.505 8.46908 3.20714 0
M  V30 5084 H 846.434 6.08548 0.206986 0
M  V30 5085 H 847.464 5.34836 -2.53099 0
M  V30 5086 H 845.727 5.69638 -2.2291 0
M  V30 5087 H 846.215 4.13971 -2.98044 0
M  V30 5088 H 846.951 1.33211 0.474216 0
M  V30 5089 P 848.375 7.20834 5.23717 0
M  V30 5090 O 848.595 7.79853 6.57286 0
M  V30 5091 O 849.165 7.79239 4.12957 0
M  V30 5092 O 848.625 5.63315 5.29344 0
M  V30 5093 C 847.685 4.80255 6.01876 0
M  V30 5094 C 848.415 3.64202 6.65911 0
M  V30 5095 O 848.625 2.60694 5.64732 0
M  V30 5096 C 849.815 3.93473 7.1943 0
M  V30 5097 O 850.205 3.02071 8.21205 0
M  V30 5098 C 850.695 3.73047 5.97036 0
M  V30 5099 C 849.985 2.58828 5.25741 0
M  V30 5100 N 850.035 2.68068 3.77503 0
M  V30 5101 H 847.196 5.40332 6.79951 0
M  V30 5102 H 846.926 4.41613 5.32378 0
M  V30 5103 H 847.793 3.26331 7.47797 0
M  V30 5104 P 851.755 2.75334 8.47391 0
M  V30 5105 O 851.975 2.44571 9.90142 0
M  V30 5106 O 852.545 3.87688 7.92115 0
M  V30 5107 O 852.005 1.4459 7.59357 0
M  V30 5108 C 851.065 0.347608 7.69215 0
M  V30 5109 C 851.795 -0.96767 7.52806 0
M  V30 5110 O 852.005 -1.21036 6.1011 0
M  V30 5111 C 853.195 -1.04544 8.13308 0
M  V30 5112 O 853.585 -2.38311 8.41922 0
M  V30 5113 C 854.075 -0.491279 7.02284 0
M  V30 5114 C 853.365 -0.996264 5.77469 0
M  V30 5115 N 853.415 -0.0501916 4.62973 0
M  V30 5116 H 850.576 0.374722 8.67691 0
M  V30 5117 H 850.306 0.443485 6.90277 0
M  V30 5118 H 851.173 -1.75537 7.96793 0
M  V30 5119 P 855.135 -2.75334 8.47391 0
M  V30 5120 O 855.355 -3.84166 9.4489 0
M  V30 5121 O 855.925 -1.51964 8.6881 0
M  V30 5122 O 855.385 -3.29363 6.99321 0
M  V30 5123 C 854.445 -4.23956 6.42656 0
M  V30 5124 C 855.175 -5.20775 5.52155 0
M  V30 5125 O 855.385 -4.56534 4.22446 0
M  V30 5126 C 856.575 -5.62629 5.96531 0
M  V30 5127 O 856.965 -6.87667 5.41053 0
M  V30 5128 C 857.455 -4.52537 5.39283 0
M  V30 5129 C 856.745 -4.20027 4.08623 0
M  V30 5130 N 856.795 -2.7613 3.71522 0
M  V30 5131 C 856.945 -2.45612 2.37989 0
M  V30 5132 O 857.035 -3.30919 1.51621 0
M  V30 5133 N 856.985 -1.10684 2.08435 0
M  V30 5134 C 856.895 -0.0690084 2.9792 0
M  V30 5135 O 856.945 1.10553 2.59426 0
M  V30 5136 C 856.745 -0.481522 4.35345 0
M  V30 5137 C 856.635 0.618778 5.36443 0
M  V30 5138 C 856.695 -1.78906 4.67968 0
M  V30 5139 H 853.955 -4.797 7.24003 0
M  V30 5140 H 853.686 -3.69802 5.84429 0
M  V30 5141 H 854.553 -6.10356 5.41441 0
M  V30 5142 H 857.208 -4.78651 3.27911 0
M  V30 5143 H 857.487 -3.64957 6.05871 0
M  V30 5144 H 858.479 -4.8868 5.2125 0
M  V30 5145 H 856.645 -5.66726 7.06352 0
M  V30 5146 H 856.574 -2.07737 5.72367 0
M  V30 5147 H 857.604 0.754375 5.86871 0
M  V30 5148 H 855.867 0.359721 6.10641 0
M  V30 5149 H 856.355 1.55533 4.8581 0
M  V30 5150 H 857.091 -0.862651 1.12037 0
M  V30 5151 P 858.515 -7.20834 5.23717 0
M  V30 5152 O 858.735 -8.66104 5.38572 0
M  V30 5153 O 859.305 -6.33544 6.1349 0
M  V30 5154 O 858.765 -6.7751 3.72168 0
M  V30 5155 C 857.825 -7.20825 2.7076 0
M  V30 5156 C 858.555 -7.45864 1.40599 0
M  V30 5157 O 858.765 -6.17651 0.734225 0
M  V30 5158 C 859.955 -8.05808 1.51899 0
M  V30 5159 O 860.345 -8.74358 0.335205 0
M  V30 5160 C 860.835 -6.83093 1.70294 0
M  V30 5161 C 860.125 -5.79992 0.836974 0
M  V30 5162 N 860.175 -4.41864 1.38293 0
M  V30 5163 H 857.336 -8.13644 3.0377 0
M  V30 5164 H 857.066 -6.42788 2.55485 0
M  V30 5165 H 857.933 -8.12039 0.792769 0
M  V30 5166 P 861.895 -8.91 -6.24363e-12 0
M  V30 5167 O 862.115 -10.1726 -0.733694 0
M  V30 5168 O 862.685 -8.73148 1.23936 0
M  V30 5169 O 862.145 -7.66872 -0.971405 0
M  V30 5170 C 861.205 -7.42309 -2.04641 0
M  V30 5171 C 861.935 -6.86059 -3.24661 0
M  V30 5172 O 862.145 -5.42847 -3.03646 0
M  V30 5173 C 863.335 -7.41196 -3.50753 0
M  V30 5174 O 863.725 -7.27073 -4.86816 0
M  V30 5175 C 864.215 -6.5273 -2.63741 0
M  V30 5176 C 863.505 -5.1842 -2.73198 0
M  V30 5177 N 863.555 -4.38762 -1.4784 0
M  V30 5178 H 860.716 -8.36803 -2.32493 0
M  V30 5179 H 860.446 -6.70197 -1.71129 0
M  V30 5180 H 861.313 -7.03551 -4.13168 0
M  V30 5181 P 865.275 -7.20834 -5.23717 0
M  V30 5182 O 865.495 -7.79853 -6.57286 0
M  V30 5183 O 866.065 -7.79239 -4.12957 0
M  V30 5184 O 865.525 -5.63315 -5.29344 0
M  V30 5185 C 864.585 -4.80255 -6.01876 0
M  V30 5186 C 865.315 -3.64202 -6.65911 0
M  V30 5187 O 865.525 -2.60694 -5.64732 0
M  V30 5188 C 866.715 -3.93473 -7.1943 0
M  V30 5189 O 867.105 -3.02071 -8.21205 0
M  V30 5190 C 867.595 -3.73047 -5.97036 0
M  V30 5191 C 866.885 -2.58828 -5.25741 0
M  V30 5192 N 866.935 -2.68068 -3.77503 0
M  V30 5193 H 864.096 -5.40332 -6.79951 0
M  V30 5194 H 863.826 -4.41613 -5.32378 0
M  V30 5195 H 864.693 -3.26331 -7.47797 0
M  V30 5196 P 868.655 -2.75334 -8.47391 0
M  V30 5197 O 868.875 -2.44571 -9.90142 0
M  V30 5198 O 869.445 -3.87688 -7.92115 0
M  V30 5199 O 868.905 -1.4459 -7.59357 0
M  V30 5200 C 867.965 -0.347608 -7.69215 0
M  V30 5201 C 868.695 0.96767 -7.52806 0
M  V30 5202 O 868.905 1.21036 -6.1011 0
M  V30 5203 C 870.095 1.04544 -8.13308 0
M  V30 5204 O 870.485 2.38311 -8.41922 0
M  V30 5205 C 870.975 0.491279 -7.02284 0
M  V30 5206 C 870.265 0.996264 -5.77469 0
M  V30 5207 N 870.315 0.0501916 -4.62973 0
M  V30 5208 H 867.476 -0.374722 -8.67691 0
M  V30 5209 H 867.206 -0.443485 -6.90277 0
M  V30 5210 H 868.073 1.75537 -7.96793 0
M  V30 5211 P 872.035 2.75334 -8.47391 0
M  V30 5212 O 872.255 3.84128 -9.44797 0
M  V30 5213 O 872.825 1.51947 -8.68712 0
M  V30 5214 O 872.285 3.29363 -6.99321 0
M  V30 5215 C 871.345 4.24011 -6.4274 0
M  V30 5216 C 872.075 5.20775 -5.52155 0
M  V30 5217 O 872.285 4.56534 -4.22446 0
M  V30 5218 C 873.475 5.62629 -5.96531 0
M  V30 5219 O 873.865 6.87667 -5.41053 0
M  V30 5220 C 874.355 4.52537 -5.39283 0
M  V30 5221 C 873.645 4.20027 -4.08623 0
M  V30 5222 N 873.695 2.76189 -3.71603 0
M  V30 5223 H 870.856 4.797 -7.24003 0
M  V30 5224 H 870.586 3.69856 -5.84513 0
M  V30 5225 H 871.453 6.10356 -5.41441 0
M  V30 5226 P 875.415 7.20834 -5.23717 0
M  V30 5227 O 875.635 8.66104 -5.38572 0
M  V30 5228 O 876.205 6.33544 -6.1349 0
M  V30 5229 O 875.665 6.7751 -3.72168 0
M  V30 5230 C 874.725 7.20825 -2.7076 0
M  V30 5231 C 875.455 7.45864 -1.40599 0
M  V30 5232 O 875.665 6.17651 -0.734225 0
M  V30 5233 C 876.855 8.05808 -1.51899 0
M  V30 5234 O 877.245 8.74358 -0.335205 0
M  V30 5235 C 877.735 6.83093 -1.70294 0
M  V30 5236 C 877.025 5.79992 -0.836974 0
M  V30 5237 N 877.075 4.41864 -1.38293 0
M  V30 5238 H 874.236 8.13644 -3.0377 0
M  V30 5239 H 873.966 6.42788 -2.55485 0
M  V30 5240 H 874.833 8.12039 -0.792769 0
M  V30 5241 P 878.795 8.91 6.40081e-12 0
M  V30 5242 O 879.015 10.1736 0.733766 0
M  V30 5243 O 879.585 8.73247 -1.2395 0
M  V30 5244 O 879.045 7.66872 0.971405 0
M  V30 5245 C 878.105 7.42212 2.04614 0
M  V30 5246 C 878.835 6.86059 3.24661 0
M  V30 5247 O 879.045 5.42847 3.03646 0
M  V30 5248 C 880.235 7.41196 3.50753 0
M  V30 5249 O 880.625 7.27073 4.86816 0
M  V30 5250 C 881.115 6.5273 2.63741 0
M  V30 5251 C 880.405 5.1842 2.73198 0
M  V30 5252 N 880.455 4.38668 1.47808 0
M  V30 5253 C 880.605 3.02239 1.60048 0
M  V30 5254 O 880.695 2.46459 2.67869 0
M  V30 5255 N 880.645 2.32436 0.408571 0
M  V30 5256 C 880.555 2.85471 -0.854993 0
M  V30 5257 O 880.605 2.12566 -1.8531 0
M  V30 5258 C 880.405 4.28918 -0.887335 0
M  V30 5259 C 880.295 4.91066 -2.24619 0
M  V30 5260 C 880.355 5.00349 0.255399 0
M  V30 5261 H 877.615 8.36803 2.32493 0
M  V30 5262 H 877.346 6.701 1.71105 0
M  V30 5263 H 878.213 7.03551 4.13168 0
M  V30 5264 H 880.868 4.59773 3.53894 0
M  V30 5265 H 881.147 6.88995 1.59871 0
M  V30 5266 H 882.139 6.46749 3.03687 0
M  V30 5267 H 880.305 8.46908 3.20714 0
M  V30 5268 H 880.234 6.08548 0.206986 0
M  V30 5269 H 881.264 5.34836 -2.53099 0
M  V30 5270 H 879.527 5.69638 -2.2291 0
M  V30 5271 H 880.015 4.13971 -2.98044 0
M  V30 5272 H 880.751 1.33211 0.474216 0
M  V30 5273 P 882.175 7.20834 5.23717 0
M  V30 5274 O 882.395 7.7993 6.57351 0
M  V30 5275 O 882.965 7.79328 4.13004 0
M  V30 5276 O 882.425 5.63315 5.29344 0
M  V30 5277 C 881.485 4.80255 6.01876 0
M  V30 5278 C 882.215 3.64202 6.65911 0
M  V30 5279 O 882.425 2.60694 5.64732 0
M  V30 5280 C 883.615 3.93473 7.1943 0
M  V30 5281 O 884.005 3.02071 8.21205 0
M  V30 5282 C 884.495 3.73047 5.97036 0
M  V30 5283 C 883.785 2.58828 5.25741 0
M  V30 5284 N 883.835 2.6801 3.77422 0
M  V30 5285 C 883.985 1.50173 3.05038 0
M  V30 5286 O 884.075 0.428832 3.665 0
M  V30 5287 N 884.035 1.70922 1.55541 0
M  V30 5288 C 883.935 2.7407 1.06402 0
M  V30 5289 N 883.985 2.74764 -0.260931 0
M  V30 5290 C 883.785 3.96781 1.78296 0
M  V30 5291 C 883.735 3.87909 3.13891 0
M  V30 5292 H 880.995 5.4027 6.79873 0
M  V30 5293 H 880.726 4.41549 5.32301 0
M  V30 5294 H 881.593 3.26371 7.47889 0
M  V30 5295 H 884.248 1.63978 5.5665 0
M  V30 5296 H 884.527 4.63439 5.3432 0
M  V30 5297 H 885.519 3.44728 6.25838 0
M  V30 5298 H 883.685 4.96652 7.57263 0
M  V30 5299 H 883.613 4.78425 3.73088 0
M  V30 5300 H 883.715 4.92593 1.26997 0
M  V30 5301 H 884.103 1.86285 -0.77595 0
M  V30 5302 H 883.906 3.63657 -0.773896 0
M  V30 5303 P 885.555 2.75334 8.47391 0
M  V30 5304 O 885.775 2.44571 9.90142 0
M  V30 5305 O 886.345 3.87688 7.92115 0
M  V30 5306 O 885.805 1.4459 7.59357 0
M  V30 5307 C 884.865 0.347608 7.69215 0
M  V30 5308 C 885.595 -0.96767 7.52806 0
M  V30 5309 O 885.805 -1.21036 6.1011 0
M  V30 5310 C 886.995 -1.04544 8.13308 0
M  V30 5311 O 887.385 -2.38311 8.41922 0
M  V30 5312 C 887.875 -0.491279 7.02284 0
M  V30 5313 C 887.165 -0.996264 5.77469 0
M  V30 5314 N 887.215 -0.0501916 4.62973 0
M  V30 5315 H 884.376 0.374722 8.67691 0
M  V30 5316 H 884.106 0.443485 6.90277 0
M  V30 5317 H 884.973 -1.75537 7.96793 0
M  V30 5318 P 888.935 -2.75334 8.47391 0
M  V30 5319 O 889.155 -3.84128 9.44797 0
M  V30 5320 O 889.725 -1.51947 8.68712 0
M  V30 5321 O 889.185 -3.29363 6.99321 0
M  V30 5322 C 888.245 -4.24011 6.4274 0
M  V30 5323 C 888.975 -5.20775 5.52155 0
M  V30 5324 O 889.185 -4.56534 4.22446 0
M  V30 5325 C 890.375 -5.62629 5.96531 0
M  V30 5326 O 890.765 -6.87667 5.41053 0
M  V30 5327 C 891.255 -4.52537 5.39283 0
M  V30 5328 C 890.545 -4.20027 4.08623 0
M  V30 5329 N 890.595 -2.76189 3.71603 0
M  V30 5330 H 887.756 -4.797 7.24003 0
M  V30 5331 H 887.486 -3.69856 5.84513 0
M  V30 5332 H 888.353 -6.10356 5.41441 0
M  V30 5333 P 892.315 -7.20834 5.23717 0
M  V30 5334 O 892.535 -8.66104 5.38572 0
M  V30 5335 O 893.105 -6.33544 6.1349 0
M  V30 5336 O 892.565 -6.7751 3.72168 0
M  V30 5337 C 891.625 -7.20825 2.7076 0
M  V30 5338 C 892.355 -7.45864 1.40599 0
M  V30 5339 O 892.565 -6.17651 0.734225 0
M  V30 5340 C 893.755 -8.05808 1.51899 0
M  V30 5341 O 894.145 -8.74358 0.335205 0
M  V30 5342 C 894.635 -6.83093 1.70294 0
M  V30 5343 C 893.925 -5.79992 0.836974 0
M  V30 5344 N 893.975 -4.41864 1.38293 0
M  V30 5345 H 891.136 -8.13644 3.0377 0
M  V30 5346 H 890.866 -6.42788 2.55485 0
M  V30 5347 H 891.733 -8.12039 0.792769 0
M  V30 5348 P 895.695 -8.91 -6.558e-12 0
M  V30 5349 O 895.915 -10.1726 -0.733694 0
M  V30 5350 O 896.485 -8.73148 1.23936 0
M  V30 5351 O 895.945 -7.66872 -0.971405 0
M  V30 5352 C 895.005 -7.42309 -2.04641 0
M  V30 5353 C 895.735 -6.86059 -3.24661 0
M  V30 5354 O 895.945 -5.42847 -3.03646 0
M  V30 5355 C 897.135 -7.41196 -3.50753 0
M  V30 5356 O 897.525 -7.27073 -4.86816 0
M  V30 5357 C 898.015 -6.5273 -2.63741 0
M  V30 5358 C 897.305 -5.1842 -2.73198 0
M  V30 5359 N 897.355 -4.38762 -1.4784 0
M  V30 5360 H 894.516 -8.36803 -2.32493 0
M  V30 5361 H 894.246 -6.70197 -1.71129 0
M  V30 5362 H 895.113 -7.03551 -4.13168 0
M  V30 5363 P 899.075 -7.20834 -5.23717 0
M  V30 5364 O 899.295 -7.79853 -6.57286 0
M  V30 5365 O 899.865 -7.79239 -4.12957 0
M  V30 5366 O 899.325 -5.63315 -5.29344 0
M  V30 5367 C 898.385 -4.80255 -6.01876 0
M  V30 5368 C 899.115 -3.64202 -6.65911 0
M  V30 5369 O 899.325 -2.60694 -5.64732 0
M  V30 5370 C 900.515 -3.93473 -7.1943 0
M  V30 5371 O 900.905 -3.02071 -8.21205 0
M  V30 5372 C 901.395 -3.73047 -5.97036 0
M  V30 5373 C 900.685 -2.58828 -5.25741 0
M  V30 5374 N 900.735 -2.68068 -3.77503 0
M  V30 5375 H 897.896 -5.40332 -6.79951 0
M  V30 5376 H 897.626 -4.41613 -5.32378 0
M  V30 5377 H 898.493 -3.26331 -7.47797 0
M  V30 5378 P 902.455 -2.75334 -8.47391 0
M  V30 5379 O 902.675 -2.44571 -9.90142 0
M  V30 5380 O 903.245 -3.87688 -7.92115 0
M  V30 5381 O 902.705 -1.4459 -7.59357 0
M  V30 5382 C 901.765 -0.347608 -7.69215 0
M  V30 5383 C 902.495 0.96767 -7.52806 0
M  V30 5384 O 902.705 1.21036 -6.1011 0
M  V30 5385 C 903.895 1.04544 -8.13308 0
M  V30 5386 O 904.285 2.38311 -8.41922 0
M  V30 5387 C 904.775 0.491279 -7.02284 0
M  V30 5388 C 904.065 0.996264 -5.77469 0
M  V30 5389 N 904.115 0.0501916 -4.62973 0
M  V30 5390 H 901.276 -0.374722 -8.67691 0
M  V30 5391 H 901.006 -0.443485 -6.90277 0
M  V30 5392 H 901.873 1.75537 -7.96793 0
M  V30 5393 P 905.835 2.75334 -8.47391 0
M  V30 5394 O 906.055 3.84128 -9.44797 0
M  V30 5395 O 906.625 1.51947 -8.68712 0
M  V30 5396 O 906.085 3.29363 -6.99321 0
M  V30 5397 C 905.145 4.24011 -6.4274 0
M  V30 5398 C 905.875 5.20775 -5.52155 0
M  V30 5399 O 906.085 4.56534 -4.22446 0
M  V30 5400 C 907.275 5.62629 -5.96531 0
M  V30 5401 O 907.665 6.87667 -5.41053 0
M  V30 5402 C 908.155 4.52537 -5.39283 0
M  V30 5403 C 907.445 4.20027 -4.08623 0
M  V30 5404 N 907.495 2.76189 -3.71603 0
M  V30 5405 H 904.656 4.797 -7.24003 0
M  V30 5406 H 904.386 3.69856 -5.84513 0
M  V30 5407 H 905.253 6.10356 -5.41441 0
M  V30 5408 P 909.215 7.20834 -5.23717 0
M  V30 5409 O 909.435 8.66104 -5.38572 0
M  V30 5410 O 910.005 6.33544 -6.1349 0
M  V30 5411 O 909.465 6.7751 -3.72168 0
M  V30 5412 C 908.525 7.20825 -2.7076 0
M  V30 5413 C 909.255 7.45864 -1.40599 0
M  V30 5414 O 909.465 6.17651 -0.734225 0
M  V30 5415 C 910.655 8.05808 -1.51899 0
M  V30 5416 O 911.045 8.74358 -0.335205 0
M  V30 5417 C 911.535 6.83093 -1.70294 0
M  V30 5418 C 910.825 5.79992 -0.836974 0
M  V30 5419 N 910.875 4.41864 -1.38293 0
M  V30 5420 H 908.036 8.13644 -3.0377 0
M  V30 5421 H 907.766 6.42788 -2.55485 0
M  V30 5422 H 908.633 8.12039 -0.792769 0
M  V30 5423 P 912.595 8.91 6.71518e-12 0
M  V30 5424 O 912.815 10.1746 0.733838 0
M  V30 5425 O 913.385 8.73346 -1.23964 0
M  V30 5426 O 912.845 7.66872 0.971405 0
M  V30 5427 C 911.905 7.42405 2.04668 0
M  V30 5428 C 912.635 6.86059 3.24661 0
M  V30 5429 O 912.845 5.42934 3.03695 0
M  V30 5430 C 914.035 7.41287 3.50796 0
M  V30 5431 O 914.425 7.27073 4.86816 0
M  V30 5432 C 914.915 6.5273 2.63741 0
M  V30 5433 C 914.205 5.1842 2.73198 0
M  V30 5434 N 914.255 4.38762 1.4784 0
M  V30 5435 C 914.175 4.83651 0.183876 0
M  V30 5436 N 914.245 3.88759 -0.699393 0
M  V30 5437 C 914.395 2.7404 0.0575568 0
M  V30 5438 C 914.525 1.37902 -0.293928 0
M  V30 5439 N 914.535 0.938021 -1.54797 0
M  V30 5440 N 914.645 0.491817 0.70549 0
M  V30 5441 C 914.635 0.931735 1.95979 0
M  V30 5442 N 914.515 2.16017 2.41481 0
M  V30 5443 C 914.395 3.02547 1.39121 0
M  V30 5444 H 911.417 8.36899 2.3252 0
M  V30 5445 H 911.145 6.70391 1.71179 0
M  V30 5446 H 912.013 7.03638 4.13219 0
M  V30 5447 H 914.668 4.59931 3.54016 0
M  V30 5448 H 914.948 6.88995 1.59871 0
M  V30 5449 H 915.939 6.4684 3.0373 0
M  V30 5450 H 914.105 8.47002 3.20749 0
M  V30 5451 H 914.064 5.8885 -0.0765548 0
M  V30 5452 H 914.445 1.60276 -2.32875 0
M  V30 5453 H 914.634 -0.0699355 -1.73859 0
M  V30 5454 H 914.742 0.165507 2.71897 0
M  V30 5455 P 915.975 7.20834 5.23717 0
M  V30 5456 O 916.195 7.80006 6.57415 0
M  V30 5457 O 916.765 7.79416 4.13051 0
M  V30 5458 O 916.225 5.63315 5.29344 0
M  V30 5459 C 915.285 4.80318 6.01954 0
M  V30 5460 C 916.015 3.64202 6.65911 0
M  V30 5461 O 916.225 2.60736 5.64823 0
M  V30 5462 C 917.415 3.93521 7.19518 0
M  V30 5463 O 917.805 3.02071 8.21205 0
M  V30 5464 C 918.295 3.73047 5.97036 0
M  V30 5465 C 917.585 2.58828 5.25741 0
M  V30 5466 N 917.635 2.68068 3.77503 0
M  V30 5467 C 917.555 3.80474 2.99159 0
M  V30 5468 N 917.625 3.55622 1.71925 0
M  V30 5469 C 917.775 2.1832 1.65733 0
M  V30 5470 C 917.905 1.28842 0.572777 0
M  V30 5471 N 917.915 1.66875 -0.70098 0
M  V30 5472 N 918.025 -0.016788 0.859836 0
M  V30 5473 C 918.015 -0.398145 2.13316 0
M  V30 5474 N 917.895 0.328224 3.22333 0
M  V30 5475 C 917.775 1.62992 2.90383 0
M  V30 5476 H 914.797 5.40394 6.8003 0
M  V30 5477 H 914.525 4.41741 5.32532 0
M  V30 5478 H 915.393 3.26371 7.47889 0
M  V30 5479 H 918.048 1.64007 5.56746 0
M  V30 5480 H 918.328 4.63439 5.3432 0
M  V30 5481 H 919.319 3.44776 6.25925 0
M  V30 5482 H 917.485 4.96707 7.57347 0
M  V30 5483 H 917.444 4.8089 3.39924 0
M  V30 5484 H 917.825 2.66547 -0.941919 0
M  V30 5485 H 918.014 0.965341 -1.44766 0
M  V30 5486 H 918.122 -1.46427 2.29697 0
M  V30 5487 P 919.355 2.75334 8.47391 0
M  V30 5488 O 919.575 2.44571 9.90142 0
M  V30 5489 O 920.145 3.87688 7.92115 0
M  V30 5490 O 919.605 1.4459 7.59357 0
M  V30 5491 C 918.665 0.347608 7.69215 0
M  V30 5492 C 919.395 -0.96767 7.52806 0
M  V30 5493 O 919.605 -1.21036 6.1011 0
M  V30 5494 C 920.795 -1.04544 8.13308 0
M  V30 5495 O 921.185 -2.38311 8.41922 0
M  V30 5496 C 921.675 -0.491279 7.02284 0
M  V30 5497 C 920.965 -0.996264 5.77469 0
M  V30 5498 N 921.015 -0.0501916 4.62973 0
M  V30 5499 H 918.176 0.374722 8.67691 0
M  V30 5500 H 917.906 0.443485 6.90277 0
M  V30 5501 H 918.773 -1.75537 7.96793 0
M  V30 5502 P 922.735 -2.75334 8.47391 0
M  V30 5503 O 922.955 -3.84128 9.44797 0
M  V30 5504 O 923.525 -1.51947 8.68712 0
M  V30 5505 O 922.985 -3.29363 6.99321 0
M  V30 5506 C 922.045 -4.24011 6.4274 0
M  V30 5507 C 922.775 -5.20775 5.52155 0
M  V30 5508 O 922.985 -4.56534 4.22446 0
M  V30 5509 C 924.175 -5.62629 5.96531 0
M  V30 5510 O 924.565 -6.87667 5.41053 0
M  V30 5511 C 925.055 -4.52537 5.39283 0
M  V30 5512 C 924.345 -4.20027 4.08623 0
M  V30 5513 N 924.395 -2.76189 3.71603 0
M  V30 5514 H 921.556 -4.797 7.24003 0
M  V30 5515 H 921.286 -3.69856 5.84513 0
M  V30 5516 H 922.153 -6.10356 5.41441 0
M  V30 5517 P 926.115 -7.20834 5.23717 0
M  V30 5518 O 926.335 -8.66104 5.38572 0
M  V30 5519 O 926.905 -6.33544 6.1349 0
M  V30 5520 O 926.365 -6.7751 3.72168 0
M  V30 5521 C 925.425 -7.20825 2.7076 0
M  V30 5522 C 926.155 -7.45864 1.40599 0
M  V30 5523 O 926.365 -6.17651 0.734225 0
M  V30 5524 C 927.555 -8.05808 1.51899 0
M  V30 5525 O 927.945 -8.74358 0.335205 0
M  V30 5526 C 928.435 -6.83093 1.70294 0
M  V30 5527 C 927.725 -5.79992 0.836974 0
M  V30 5528 N 927.775 -4.41864 1.38293 0
M  V30 5529 H 924.936 -8.13644 3.0377 0
M  V30 5530 H 924.666 -6.42788 2.55485 0
M  V30 5531 H 925.533 -8.12039 0.792769 0
M  V30 5532 P 929.495 -8.91 -6.87236e-12 0
M  V30 5533 O 929.715 -10.1726 -0.733694 0
M  V30 5534 O 930.285 -8.73148 1.23936 0
M  V30 5535 O 929.745 -7.66872 -0.971405 0
M  V30 5536 C 928.805 -7.42309 -2.04641 0
M  V30 5537 C 929.535 -6.86059 -3.24661 0
M  V30 5538 O 929.745 -5.42847 -3.03646 0
M  V30 5539 C 930.935 -7.41196 -3.50753 0
M  V30 5540 O 931.325 -7.27073 -4.86816 0
M  V30 5541 C 931.815 -6.5273 -2.63741 0
M  V30 5542 C 931.105 -5.1842 -2.73198 0
M  V30 5543 N 931.155 -4.38762 -1.4784 0
M  V30 5544 H 928.316 -8.36803 -2.32493 0
M  V30 5545 H 928.046 -6.70197 -1.71129 0
M  V30 5546 H 928.913 -7.03551 -4.13168 0
M  V30 5547 P 932.874 -7.20834 -5.23717 0
M  V30 5548 O 933.094 -7.79853 -6.57286 0
M  V30 5549 O 933.664 -7.79239 -4.12957 0
M  V30 5550 O 933.124 -5.63315 -5.29344 0
M  V30 5551 C 932.184 -4.80255 -6.01876 0
M  V30 5552 C 932.914 -3.64202 -6.65911 0
M  V30 5553 O 933.124 -2.60694 -5.64732 0
M  V30 5554 C 934.314 -3.93473 -7.1943 0
M  V30 5555 O 934.704 -3.02071 -8.21205 0
M  V30 5556 C 935.194 -3.73047 -5.97036 0
M  V30 5557 C 934.484 -2.58828 -5.25741 0
M  V30 5558 N 934.534 -2.68068 -3.77503 0
M  V30 5559 C 934.454 -3.79715 -2.96723 0
M  V30 5560 N 934.534 -3.5377 -1.68852 0
M  V30 5561 C 934.674 -2.15054 -1.63254 0
M  V30 5562 C 934.804 -1.28964 -0.518571 0
M  V30 5563 O 934.824 -1.56826 0.679156 0
M  V30 5564 N 934.924 0.0538097 -0.918425 0
M  V30 5565 C 934.924 0.494275 -2.22578 0
M  V30 5566 N 935.054 1.81086 -2.40434 0
M  V30 5567 N 934.794 -0.313645 -3.27502 0
M  V30 5568 C 934.674 -1.61829 -2.91033 0
M  V30 5569 H 931.695 -5.40332 -6.79951 0
M  V30 5570 H 931.425 -4.41613 -5.32378 0
M  V30 5571 H 932.292 -3.26331 -7.47797 0
M  V30 5572 H 934.947 -1.63422 -5.56814 0
M  V30 5573 H 935.226 -4.63374 -5.34244 0
M  V30 5574 H 936.218 -3.44728 -6.25838 0
M  V30 5575 H 934.384 -4.96652 -7.57263 0
M  V30 5576 H 934.335 -4.80617 -3.3614 0
M  V30 5577 H 935.017 0.742702 -0.199384 0
M  V30 5578 H 935.054 2.20598 -3.35588 0
M  V30 5579 H 935.155 2.43518 -1.58945 0
M  V30 5580 P 936.254 -2.75334 -8.47391 0
M  V30 5581 O 936.474 -2.44571 -9.90142 0
M  V30 5582 O 937.044 -3.87688 -7.92115 0
M  V30 5583 O 936.504 -1.4459 -7.59357 0
M  V30 5584 C 935.564 -0.347608 -7.69215 0
M  V30 5585 C 936.294 0.96767 -7.52806 0
M  V30 5586 O 936.504 1.21036 -6.1011 0
M  V30 5587 C 937.694 1.04544 -8.13308 0
M  V30 5588 O 938.084 2.38311 -8.41922 0
M  V30 5589 C 938.574 0.491279 -7.02284 0
M  V30 5590 C 937.864 0.996264 -5.77469 0
M  V30 5591 N 937.914 0.0501916 -4.62973 0
M  V30 5592 H 935.075 -0.374722 -8.67691 0
M  V30 5593 H 934.805 -0.443485 -6.90277 0
M  V30 5594 H 935.672 1.75537 -7.96793 0
M  V30 5595 P 939.634 2.75334 -8.47391 0
M  V30 5596 O 939.854 3.84128 -9.44797 0
M  V30 5597 O 940.424 1.51947 -8.68712 0
M  V30 5598 O 939.884 3.29363 -6.99321 0
M  V30 5599 C 938.944 4.24011 -6.4274 0
M  V30 5600 C 939.674 5.20775 -5.52155 0
M  V30 5601 O 939.884 4.56534 -4.22446 0
M  V30 5602 C 941.074 5.62629 -5.96531 0
M  V30 5603 O 941.464 6.87667 -5.41053 0
M  V30 5604 C 941.954 4.52537 -5.39283 0
M  V30 5605 C 941.244 4.20027 -4.08623 0
M  V30 5606 N 941.294 2.76189 -3.71603 0
M  V30 5607 H 938.455 4.797 -7.24003 0
M  V30 5608 H 938.185 3.69856 -5.84513 0
M  V30 5609 H 939.052 6.10356 -5.41441 0
M  V30 5610 P 943.014 7.20834 -5.23717 0
M  V30 5611 O 943.234 8.66104 -5.38572 0
M  V30 5612 O 943.804 6.33544 -6.1349 0
M  V30 5613 O 943.264 6.7751 -3.72168 0
M  V30 5614 C 942.324 7.20825 -2.7076 0
M  V30 5615 C 943.054 7.45864 -1.40599 0
M  V30 5616 O 943.264 6.17651 -0.734225 0
M  V30 5617 C 944.454 8.05808 -1.51899 0
M  V30 5618 O 944.844 8.74358 -0.335205 0
M  V30 5619 C 945.334 6.83093 -1.70294 0
M  V30 5620 C 944.624 5.79992 -0.836974 0
M  V30 5621 N 944.674 4.41864 -1.38293 0
M  V30 5622 H 941.835 8.13644 -3.0377 0
M  V30 5623 H 941.565 6.42788 -2.55485 0
M  V30 5624 H 942.432 8.12039 -0.792769 0
M  V30 5625 P 946.394 8.91 7.02954e-12 0
M  V30 5626 O 946.614 10.1726 0.733694 0
M  V30 5627 O 947.184 8.73148 -1.23936 0
M  V30 5628 O 946.644 7.66872 0.971405 0
M  V30 5629 C 945.704 7.42309 2.04641 0
M  V30 5630 C 946.434 6.86059 3.24661 0
M  V30 5631 O 946.644 5.42847 3.03646 0
M  V30 5632 C 947.834 7.41196 3.50753 0
M  V30 5633 O 948.224 7.27073 4.86816 0
M  V30 5634 C 948.714 6.5273 2.63741 0
M  V30 5635 C 948.004 5.1842 2.73198 0
M  V30 5636 N 948.054 4.38762 1.4784 0
M  V30 5637 H 945.215 8.36803 2.32493 0
M  V30 5638 H 944.945 6.70197 1.71129 0
M  V30 5639 H 945.812 7.03551 4.13168 0
M  V30 5640 P 949.774 7.20834 5.23717 0
M  V30 5641 O 949.994 7.7993 6.57351 0
M  V30 5642 O 950.564 7.79328 4.13004 0
M  V30 5643 O 950.024 5.63315 5.29344 0
M  V30 5644 C 949.084 4.80193 6.01798 0
M  V30 5645 C 949.814 3.64202 6.65911 0
M  V30 5646 O 950.024 2.60694 5.64732 0
M  V30 5647 C 951.214 3.93473 7.1943 0
M  V30 5648 O 951.604 3.02071 8.21205 0
M  V30 5649 C 952.094 3.73047 5.97036 0
M  V30 5650 C 951.384 2.58828 5.25741 0
M  V30 5651 N 951.434 2.6801 3.77422 0
M  V30 5652 C 951.584 1.50443 3.07133 0
M  V30 5653 O 951.674 0.419406 3.61576 0
M  V30 5654 N 951.624 1.6403 1.69677 0
M  V30 5655 C 951.534 2.81206 0.986255 0
M  V30 5656 C 951.384 3.99158 1.80325 0
M  V30 5657 C 951.334 3.89779 3.1476 0
M  V30 5658 H 948.594 5.40332 6.79951 0
M  V30 5659 H 948.325 4.41549 5.32301 0
M  V30 5660 H 949.192 3.26331 7.47797 0
M  V30 5661 H 951.847 1.6395 5.56554 0
M  V30 5662 H 952.126 4.63439 5.3432 0
M  V30 5663 H 953.118 3.44728 6.25838 0
M  V30 5664 H 951.284 4.96652 7.57263 0
M  V30 5665 H 951.213 4.80159 3.74441 0
M  V30 5666 P 953.154 2.75334 8.47391 0
M  V30 5667 O 953.374 2.44571 9.90142 0
M  V30 5668 O 953.944 3.87688 7.92115 0
M  V30 5669 O 953.404 1.4459 7.59357 0
M  V30 5670 C 952.464 0.347608 7.69215 0
M  V30 5671 C 953.194 -0.96767 7.52806 0
M  V30 5672 O 953.404 -1.21036 6.1011 0
M  V30 5673 C 954.594 -1.04544 8.13308 0
M  V30 5674 O 954.984 -2.38311 8.41922 0
M  V30 5675 C 955.474 -0.491279 7.02284 0
M  V30 5676 C 954.764 -0.996264 5.77469 0
M  V30 5677 N 954.814 -0.0501916 4.62973 0
M  V30 5678 H 951.975 0.374722 8.67691 0
M  V30 5679 H 951.705 0.443485 6.90277 0
M  V30 5680 H 952.572 -1.75537 7.96793 0
M  V30 5681 P 956.534 -2.75334 8.47391 0
M  V30 5682 O 956.754 -3.84128 9.44797 0
M  V30 5683 O 957.324 -1.51947 8.68712 0
M  V30 5684 O 956.784 -3.29363 6.99321 0
M  V30 5685 C 955.844 -4.24011 6.4274 0
M  V30 5686 C 956.574 -5.20775 5.52155 0
M  V30 5687 O 956.784 -4.56534 4.22446 0
M  V30 5688 C 957.974 -5.62629 5.96531 0
M  V30 5689 O 958.364 -6.87667 5.41053 0
M  V30 5690 C 958.854 -4.52537 5.39283 0
M  V30 5691 C 958.144 -4.20027 4.08623 0
M  V30 5692 N 958.194 -2.76189 3.71603 0
M  V30 5693 H 955.355 -4.797 7.24003 0
M  V30 5694 H 955.085 -3.69856 5.84513 0
M  V30 5695 H 955.952 -6.10356 5.41441 0
M  V30 5696 P 959.914 -7.20834 5.23717 0
M  V30 5697 O 960.134 -8.66104 5.38572 0
M  V30 5698 O 960.704 -6.33544 6.1349 0
M  V30 5699 O 960.164 -6.7751 3.72168 0
M  V30 5700 C 959.224 -7.20825 2.7076 0
M  V30 5701 C 959.954 -7.45864 1.40599 0
M  V30 5702 O 960.164 -6.17651 0.734225 0
M  V30 5703 C 961.354 -8.05808 1.51899 0
M  V30 5704 O 961.744 -8.74358 0.335205 0
M  V30 5705 C 962.234 -6.83093 1.70294 0
M  V30 5706 C 961.524 -5.79992 0.836974 0
M  V30 5707 N 961.574 -4.41864 1.38293 0
M  V30 5708 H 958.735 -8.13644 3.0377 0
M  V30 5709 H 958.465 -6.42788 2.55485 0
M  V30 5710 H 959.332 -8.12039 0.792769 0
M  V30 5711 P 963.294 -8.91 -7.18673e-12 0
M  V30 5712 O 963.514 -10.1726 -0.733694 0
M  V30 5713 O 964.084 -8.73148 1.23936 0
M  V30 5714 O 963.544 -7.66872 -0.971405 0
M  V30 5715 C 962.604 -7.42309 -2.04641 0
M  V30 5716 C 963.334 -6.86059 -3.24661 0
M  V30 5717 O 963.544 -5.42847 -3.03646 0
M  V30 5718 C 964.734 -7.41196 -3.50753 0
M  V30 5719 O 965.124 -7.27073 -4.86816 0
M  V30 5720 C 965.614 -6.5273 -2.63741 0
M  V30 5721 C 964.904 -5.1842 -2.73198 0
M  V30 5722 N 964.954 -4.38762 -1.4784 0
M  V30 5723 C 964.874 -4.81605 -0.168631 0
M  V30 5724 N 964.954 -3.85454 0.713363 0
M  V30 5725 C 965.094 -2.6994 -0.0566958 0
M  V30 5726 C 965.224 -1.34815 0.338502 0
M  V30 5727 N 965.344 -0.496304 -0.77465 0
M  V30 5728 C 965.344 -0.908403 -2.09122 0
M  V30 5729 N 965.474 0.0517805 -3.00955 0
M  V30 5730 N 965.214 -2.17875 -2.46519 0
M  V30 5731 C 965.094 -3.01988 -1.4033 0
M  V30 5732 H 962.115 -8.36803 -2.32493 0
M  V30 5733 H 961.845 -6.70197 -1.71129 0
M  V30 5734 H 962.712 -7.03551 -4.13168 0
M  V30 5735 P 966.674 -7.20834 -5.23717 0
M  V30 5736 O 966.894 -7.80006 -6.57415 0
M  V30 5737 O 967.464 -7.79416 -4.13051 0
M  V30 5738 O 966.924 -5.63315 -5.29344 0
M  V30 5739 C 965.984 -4.80318 -6.01954 0
M  V30 5740 C 966.714 -3.64202 -6.65911 0
M  V30 5741 O 966.924 -2.60736 -5.64823 0
M  V30 5742 C 968.114 -3.93521 -7.19518 0
M  V30 5743 O 968.504 -3.02071 -8.21205 0
M  V30 5744 C 968.994 -3.73047 -5.97036 0
M  V30 5745 C 968.284 -2.58828 -5.25741 0
M  V30 5746 N 968.334 -2.68068 -3.77503 0
M  V30 5747 H 965.496 -5.40394 -6.8003 0
M  V30 5748 H 965.224 -4.41741 -5.32532 0
M  V30 5749 H 966.092 -3.26371 -7.47889 0
M  V30 5750 H 968.747 -1.64007 -5.56746 0
M  V30 5751 H 969.027 -4.63439 -5.3432 0
M  V30 5752 H 970.018 -3.44776 -6.25925 0
M  V30 5753 H 968.184 -4.96707 -7.57347 0
M  V30 5754 P 970.054 -2.75334 -8.47391 0
M  V30 5755 O 970.274 -2.44595 -9.90239 0
M  V30 5756 O 970.844 -3.87732 -7.92204 0
M  V30 5757 O 970.304 -1.4459 -7.59357 0
M  V30 5758 C 969.364 -0.347563 -7.69115 0
M  V30 5759 C 970.094 0.96767 -7.52806 0
M  V30 5760 O 970.304 1.21036 -6.1011 0
M  V30 5761 C 971.494 1.04544 -8.13308 0
M  V30 5762 O 971.884 2.38311 -8.41922 0
M  V30 5763 C 972.374 0.491279 -7.02284 0
M  V30 5764 C 971.664 0.996264 -5.77469 0
M  V30 5765 N 971.714 0.0501808 -4.62873 0
M  V30 5766 C 971.864 0.588177 -3.36904 0
M  V30 5767 O 971.954 1.78598 -3.17173 0
M  V30 5768 N 971.904 -0.329694 -2.33686 0
M  V30 5769 C 971.814 -1.6953 -2.45079 0
M  V30 5770 O 971.864 -2.41926 -1.44899 0
M  V30 5771 C 971.664 -2.16933 -3.80505 0
M  V30 5772 C 971.554 -3.65373 -3.97621 0
M  V30 5773 C 971.614 -1.30326 -4.83752 0
M  V30 5774 H 968.874 -0.374722 -8.67691 0
M  V30 5775 H 968.605 -0.443421 -6.90177 0
M  V30 5776 H 969.472 1.75537 -7.96793 0
M  V30 5777 H 972.127 1.94496 -5.46629 0
M  V30 5778 H 972.406 -0.608651 -7.04676 0
M  V30 5779 H 973.398 0.889672 -7.08939 0
M  V30 5780 H 971.564 0.43308 -9.04564 0
M  V30 5781 H 971.493 -1.68366 -5.8516 0
M  V30 5782 H 972.523 -4.05985 -4.30448 0
M  V30 5783 H 970.786 -3.88028 -4.72875 0
M  V30 5784 H 971.274 -4.11381 -3.01609 0
M  V30 5785 H 972.01 0.0393617 -1.41345 0
M  V30 5786 P 973.434 2.75334 -8.47391 0
M  V30 5787 O 973.654 3.84204 -9.44982 0
M  V30 5788 O 974.224 1.51982 -8.68909 0
M  V30 5789 O 973.684 3.29363 -6.99321 0
M  V30 5790 C 972.744 4.24066 -6.42823 0
M  V30 5791 C 973.474 5.20775 -5.52155 0
M  V30 5792 O 973.684 4.56607 -4.22514 0
M  V30 5793 C 974.874 5.62697 -5.96604 0
M  V30 5794 O 975.264 6.87667 -5.41053 0
M  V30 5795 C 975.754 4.52537 -5.39283 0
M  V30 5796 C 975.044 4.20027 -4.08623 0
M  V30 5797 N 975.094 2.76189 -3.71603 0
M  V30 5798 C 975.014 1.66944 -4.54297 0
M  V30 5799 N 975.084 0.536169 -3.91344 0
M  V30 5800 C 975.234 0.901569 -2.58849 0
M  V30 5801 C 975.364 0.146599 -1.40236 0
M  V30 5802 N 975.374 -1.18234 -1.37046 0
M  V30 5803 N 975.484 0.822941 -0.249738 0
M  V30 5804 C 975.474 2.15179 -0.280525 0
M  V30 5805 N 975.354 2.96414 -1.30822 0
M  V30 5806 C 975.234 2.25804 -2.44748 0
M  V30 5807 H 972.256 4.79756 -7.24086 0
M  V30 5808 H 971.984 3.69963 -5.84682 0
M  V30 5809 H 972.852 6.10431 -5.41508 0
M  V30 5810 H 975.507 4.78816 -3.28024 0
M  V30 5811 H 975.787 3.64957 -6.05871 0
M  V30 5812 H 976.778 4.88748 -5.21323 0
M  V30 5813 H 974.944 5.66789 -7.0643 0
M  V30 5814 H 974.903 1.74684 -5.62396 0
M  V30 5815 H 975.284 -1.71949 -2.24394 0
M  V30 5816 H 975.473 -1.67511 -0.470742 0
M  V30 5817 H 975.581 2.63704 0.6828 0
M  V30 5818 P 976.814 7.20834 -5.23717 0
M  V30 5819 O 977.034 8.66104 -5.38572 0
M  V30 5820 O 977.604 6.33544 -6.1349 0
M  V30 5821 O 977.064 6.7751 -3.72168 0
M  V30 5822 C 976.124 7.20825 -2.7076 0
M  V30 5823 C 976.854 7.45864 -1.40599 0
M  V30 5824 O 977.064 6.17651 -0.734225 0
M  V30 5825 C 978.254 8.05808 -1.51899 0
M  V30 5826 O 978.644 8.74358 -0.335205 0
M  V30 5827 C 979.134 6.83093 -1.70294 0
M  V30 5828 C 978.424 5.79992 -0.836974 0
M  V30 5829 N 978.474 4.41864 -1.38293 0
M  V30 5830 H 975.635 8.13644 -3.0377 0
M  V30 5831 H 975.365 6.42788 -2.55485 0
M  V30 5832 H 976.232 8.12039 -0.792769 0
M  V30 5833 P 980.194 8.91 7.34391e-12 0
M  V30 5834 O 980.414 10.1726 0.733694 0
M  V30 5835 O 980.984 8.73148 -1.23936 0
M  V30 5836 O 980.444 7.66872 0.971405 0
M  V30 5837 C 979.504 7.42309 2.04641 0
M  V30 5838 C 980.234 6.86059 3.24661 0
M  V30 5839 O 980.444 5.42847 3.03646 0
M  V30 5840 C 981.634 7.41196 3.50753 0
M  V30 5841 O 982.024 7.27073 4.86816 0
M  V30 5842 C 982.514 6.5273 2.63741 0
M  V30 5843 C 981.804 5.1842 2.73198 0
M  V30 5844 N 981.854 4.38762 1.4784 0
M  V30 5845 H 979.015 8.36803 2.32493 0
M  V30 5846 H 978.745 6.70197 1.71129 0
M  V30 5847 H 979.612 7.03551 4.13168 0
M  V30 5848 P 983.574 7.20834 5.23717 0
M  V30 5849 O 983.794 7.79853 6.57286 0
M  V30 5850 O 984.364 7.79239 4.12957 0
M  V30 5851 O 983.824 5.63315 5.29344 0
M  V30 5852 C 982.884 4.80255 6.01876 0
M  V30 5853 C 983.614 3.64202 6.65911 0
M  V30 5854 O 983.824 2.60694 5.64732 0
M  V30 5855 C 985.014 3.93473 7.1943 0
M  V30 5856 O 985.404 3.02071 8.21205 0
M  V30 5857 C 985.894 3.73047 5.97036 0
M  V30 5858 C 985.184 2.58828 5.25741 0
M  V30 5859 N 985.234 2.68068 3.77503 0
M  V30 5860 H 982.395 5.40332 6.79951 0
M  V30 5861 H 982.125 4.41613 5.32378 0
M  V30 5862 H 982.992 3.26331 7.47797 0
M  V30 5863 P 986.954 2.75334 8.47391 0
M  V30 5864 O 987.174 2.44619 9.90336 0
M  V30 5865 O 987.744 3.87776 7.92294 0
M  V30 5866 O 987.204 1.4459 7.59357 0
M  V30 5867 C 986.264 0.347653 7.69315 0
M  V30 5868 C 986.994 -0.96767 7.52806 0
M  V30 5869 O 987.204 -1.21055 6.10208 0
M  V30 5870 C 988.394 -1.04557 8.13408 0
M  V30 5871 O 988.784 -2.38311 8.41922 0
M  V30 5872 C 989.274 -0.491279 7.02284 0
M  V30 5873 C 988.564 -0.996264 5.77469 0
M  V30 5874 N 988.614 -0.0501916 4.62973 0
M  V30 5875 C 988.534 1.31969 4.65661 0
M  V30 5876 N 988.604 1.86649 3.48119 0
M  V30 5877 C 988.754 0.792089 2.62406 0
M  V30 5878 C 988.884 0.705684 1.2207 0
M  V30 5879 N 988.894 1.76207 0.413762 0
M  V30 5880 N 989.004 -0.518981 0.685754 0
M  V30 5881 C 988.994 -1.57595 1.49174 0
M  V30 5882 N 988.874 -1.62909 2.80066 0
M  V30 5883 C 988.754 -0.388195 3.3073 0
M  V30 5884 H 985.776 0.374765 8.67791 0
M  V30 5885 H 985.504 0.443613 6.90476 0
M  V30 5886 H 986.372 -1.75559 7.96891 0
M  V30 5887 H 989.027 -1.94563 5.46818 0
M  V30 5888 H 989.307 0.608651 7.04676 0
M  V30 5889 H 990.298 -0.889796 7.09039 0
M  V30 5890 H 988.464 -0.433128 9.04664 0
M  V30 5891 H 988.423 1.89246 5.57664 0
M  V30 5892 H 988.804 2.71005 0.804694 0
M  V30 5893 H 988.993 1.63189 -0.603768 0
M  V30 5894 H 989.101 -2.53475 0.997614 0
M  V30 5895 P 990.334 -2.75334 8.47391 0
M  V30 5896 O 990.554 -3.84128 9.44797 0
M  V30 5897 O 991.124 -1.51947 8.68712 0
M  V30 5898 O 990.584 -3.29363 6.99321 0
M  V30 5899 C 989.644 -4.24011 6.4274 0
M  V30 5900 C 990.374 -5.20775 5.52155 0
M  V30 5901 O 990.584 -4.56534 4.22446 0
M  V30 5902 C 991.774 -5.62629 5.96531 0
M  V30 5903 O 992.164 -6.87667 5.41053 0
M  V30 5904 C 992.654 -4.52537 5.39283 0
M  V30 5905 C 991.944 -4.20027 4.08623 0
M  V30 5906 N 991.994 -2.76189 3.71603 0
M  V30 5907 C 991.914 -1.64862 4.52822 0
M  V30 5908 N 991.994 -0.512671 3.88633 0
M  V30 5909 C 992.134 -0.888083 2.54977 0
M  V30 5910 C 992.264 -0.094668 1.38677 0
M  V30 5911 O 992.284 1.13053 1.28163 0
M  V30 5912 N 992.384 -0.890102 0.232633 0
M  V30 5913 C 992.384 -2.26958 0.21772 0
M  V30 5914 N 992.514 -2.84626 -0.97925 0
M  V30 5915 N 992.254 -3.0178 1.31033 0
M  V30 5916 C 992.134 -2.26781 2.43843 0
M  V30 5917 H 989.155 -4.797 7.24003 0
M  V30 5918 H 988.885 -3.69856 5.84513 0
M  V30 5919 H 989.752 -6.10356 5.41441 0
M  V30 5920 H 992.407 -4.79061 3.27488 0
M  V30 5921 H 992.686 -3.64906 6.05785 0
M  V30 5922 H 993.678 -4.8868 5.2125 0
M  V30 5923 H 991.844 -5.66726 7.06352 0
M  V30 5924 H 991.795 -1.71169 5.60966 0
M  V30 5925 H 992.477 -0.419134 -0.644739 0
M  V30 5926 H 992.514 -3.87332 -1.06098 0
M  V30 5927 H 992.615 -2.26417 -1.82483 0
M  V30 5928 P 993.714 -7.20834 5.23717 0
M  V30 5929 O 993.934 -8.66104 5.38572 0
M  V30 5930 O 994.504 -6.33544 6.1349 0
M  V30 5931 O 993.964 -6.7751 3.72168 0
M  V30 5932 C 993.024 -7.20825 2.7076 0
M  V30 5933 C 993.754 -7.45864 1.40599 0
M  V30 5934 O 993.964 -6.17651 0.734225 0
M  V30 5935 C 995.154 -8.05808 1.51899 0
M  V30 5936 O 995.544 -8.74358 0.335205 0
M  V30 5937 C 996.034 -6.83093 1.70294 0
M  V30 5938 C 995.324 -5.79992 0.836974 0
M  V30 5939 N 995.374 -4.41864 1.38293 0
M  V30 5940 H 992.535 -8.13644 3.0377 0
M  V30 5941 H 992.265 -6.42788 2.55485 0
M  V30 5942 H 993.132 -8.12039 0.792769 0
M  V30 5943 P 997.094 -8.91 -7.50109e-12 0
M  V30 5944 O 997.314 -10.1746 -0.733838 0
M  V30 5945 O 997.884 -8.73346 1.23964 0
M  V30 5946 O 997.344 -7.66872 -0.971405 0
M  V30 5947 C 996.404 -7.42405 -2.04668 0
M  V30 5948 C 997.134 -6.86059 -3.24661 0
M  V30 5949 O 997.344 -5.42934 -3.03695 0
M  V30 5950 C 998.534 -7.41287 -3.50796 0
M  V30 5951 O 998.924 -7.27073 -4.86816 0
M  V30 5952 C 999.414 -6.5273 -2.63741 0
M  V30 5953 C 998.704 -5.1842 -2.73198 0
M  V30 5954 N 998.754 -4.38762 -1.4784 0
M  V30 5955 H 995.916 -8.36899 -2.3252 0
M  V30 5956 H 995.644 -6.70391 -1.71179 0
M  V30 5957 H 996.512 -7.03638 -4.13219 0
M  V30 5958 H 999.167 -4.59931 -3.54016 0
M  V30 5959 H 999.447 -6.88995 -1.59871 0
M  V30 5960 H 1000.44 -6.4684 -3.0373 0
M  V30 5961 H 998.604 -8.47002 -3.20749 0
M  V30 5962 P 1000.47 -7.20834 -5.23717 0
M  V30 5963 O 1000.69 -7.79853 -6.57286 0
M  V30 5964 O 1001.26 -7.79239 -4.12957 0
M  V30 5965 O 1000.72 -5.63315 -5.29344 0
M  V30 5966 C 999.784 -4.80255 -6.01876 0
M  V30 5967 C 1000.51 -3.64202 -6.65911 0
M  V30 5968 O 1000.72 -2.60694 -5.64732 0
M  V30 5969 C 1001.91 -3.93473 -7.1943 0
M  V30 5970 O 1002.3 -3.02071 -8.21205 0
M  V30 5971 C 1002.79 -3.73047 -5.97036 0
M  V30 5972 C 1002.08 -2.58828 -5.25741 0
M  V30 5973 N 1002.13 -2.68068 -3.77503 0
M  V30 5974 H 999.295 -5.40332 -6.79951 0
M  V30 5975 H 999.025 -4.41613 -5.32378 0
M  V30 5976 H 999.892 -3.26331 -7.47797 0
M  V30 5977 P 1003.85 -2.75334 -8.47391 0
M  V30 5978 O 1004.07 -2.44571 -9.90142 0
M  V30 5979 O 1004.64 -3.87688 -7.92115 0
M  V30 5980 O 1004.1 -1.4459 -7.59357 0
M  V30 5981 C 1003.16 -0.347608 -7.69215 0
M  V30 5982 C 1003.89 0.96767 -7.52806 0
M  V30 5983 O 1004.1 1.21036 -6.1011 0
M  V30 5984 C 1005.29 1.04544 -8.13308 0
M  V30 5985 O 1005.68 2.38311 -8.41922 0
M  V30 5986 C 1006.17 0.491279 -7.02284 0
M  V30 5987 C 1005.46 0.996264 -5.77469 0
M  V30 5988 N 1005.51 0.0501916 -4.62973 0
M  V30 5989 H 1002.68 -0.374722 -8.67691 0
M  V30 5990 H 1002.41 -0.443485 -6.90277 0
M  V30 5991 H 1003.27 1.75537 -7.96793 0
M  V30 5992 P 1007.23 2.75334 -8.47391 0
M  V30 5993 O 1007.45 3.84204 -9.44982 0
M  V30 5994 O 1008.02 1.51982 -8.68909 0
M  V30 5995 O 1007.48 3.29363 -6.99321 0
M  V30 5996 C 1006.54 4.24066 -6.42823 0
M  V30 5997 C 1007.27 5.20775 -5.52155 0
M  V30 5998 O 1007.48 4.56607 -4.22514 0
M  V30 5999 C 1008.67 5.62697 -5.96604 0
M  V30 6000 O 1009.06 6.87667 -5.41053 0
M  V30 6001 C 1009.55 4.52537 -5.39283 0
M  V30 6002 C 1008.84 4.20027 -4.08623 0
M  V30 6003 N 1008.89 2.76189 -3.71603 0
M  V30 6004 C 1008.81 1.66944 -4.54297 0
M  V30 6005 N 1008.88 0.536169 -3.91344 0
M  V30 6006 C 1009.03 0.901569 -2.58849 0
M  V30 6007 C 1009.16 0.146599 -1.40236 0
M  V30 6008 N 1009.17 -1.18234 -1.37046 0
M  V30 6009 N 1009.28 0.822941 -0.249738 0
M  V30 6010 C 1009.27 2.15179 -0.280525 0
M  V30 6011 N 1009.15 2.96414 -1.30822 0
M  V30 6012 C 1009.03 2.25804 -2.44748 0
M  V30 6013 H 1006.06 4.79756 -7.24086 0
M  V30 6014 H 1005.78 3.69963 -5.84682 0
M  V30 6015 H 1006.65 6.10431 -5.41508 0
M  V30 6016 H 1009.31 4.78816 -3.28024 0
M  V30 6017 H 1009.59 3.64957 -6.05871 0
M  V30 6018 H 1010.58 4.88748 -5.21323 0
M  V30 6019 H 1008.74 5.66789 -7.0643 0
M  V30 6020 H 1008.7 1.74684 -5.62396 0
M  V30 6021 H 1009.08 -1.71949 -2.24394 0
M  V30 6022 H 1009.27 -1.67511 -0.470742 0
M  V30 6023 H 1009.38 2.63704 0.6828 0
M  V30 6024 P 1010.61 7.20834 -5.23717 0
M  V30 6025 O 1010.83 8.66104 -5.38572 0
M  V30 6026 O 1011.4 6.33544 -6.1349 0
M  V30 6027 O 1010.86 6.7751 -3.72168 0
M  V30 6028 C 1009.92 7.20825 -2.7076 0
M  V30 6029 C 1010.65 7.45864 -1.40599 0
M  V30 6030 O 1010.86 6.17651 -0.734225 0
M  V30 6031 C 1012.05 8.05808 -1.51899 0
M  V30 6032 O 1012.44 8.74358 -0.335205 0
M  V30 6033 C 1012.93 6.83093 -1.70294 0
M  V30 6034 C 1012.22 5.79992 -0.836974 0
M  V30 6035 N 1012.27 4.41864 -1.38293 0
M  V30 6036 H 1009.44 8.13644 -3.0377 0
M  V30 6037 H 1009.17 6.42788 -2.55485 0
M  V30 6038 H 1010.03 8.12039 -0.792769 0
M  V30 6039 P 1013.99 8.91 7.65827e-12 0
M  V30 6040 O 1014.21 10.1726 0.733694 0
M  V30 6041 O 1014.78 8.73148 -1.23936 0
M  V30 6042 O 1014.24 7.66872 0.971405 0
M  V30 6043 C 1013.3 7.42309 2.04641 0
M  V30 6044 C 1014.03 6.86059 3.24661 0
M  V30 6045 O 1014.24 5.42847 3.03646 0
M  V30 6046 C 1015.43 7.41196 3.50753 0
M  V30 6047 O 1015.82 7.27073 4.86816 0
M  V30 6048 C 1016.31 6.5273 2.63741 0
M  V30 6049 C 1015.6 5.1842 2.73198 0
M  V30 6050 N 1015.65 4.38762 1.4784 0
M  V30 6051 C 1015.57 4.81605 0.168631 0
M  V30 6052 N 1015.65 3.85454 -0.713363 0
M  V30 6053 C 1015.79 2.6994 0.0566958 0
M  V30 6054 C 1015.92 1.34815 -0.338502 0
M  V30 6055 O 1015.94 0.869548 -1.47125 0
M  V30 6056 N 1016.04 0.496304 0.77465 0
M  V30 6057 C 1016.04 0.908403 2.09122 0
M  V30 6058 N 1016.17 -0.0517805 3.00955 0
M  V30 6059 N 1015.91 2.17875 2.46519 0
M  V30 6060 C 1015.79 3.01988 1.4033 0
M  V30 6061 H 1012.82 8.36803 2.32493 0
M  V30 6062 H 1012.55 6.70197 1.71129 0
M  V30 6063 H 1013.41 7.03551 4.13168 0
M  V30 6064 H 1016.07 4.59498 3.54415 0
M  V30 6065 H 1016.35 6.88898 1.59848 0
M  V30 6066 H 1017.34 6.46749 3.03687 0
M  V30 6067 H 1015.5 8.46908 3.20714 0
M  V30 6068 H 1015.46 5.86405 -0.105564 0
M  V30 6069 H 1016.14 -0.483664 0.597855 0
M  V30 6070 H 1016.17 0.187865 4.0116 0
M  V30 6071 H 1016.28 -1.03585 2.71726 0
M  V30 6072 P 1017.37 7.20834 5.23717 0
M  V30 6073 O 1017.59 7.80006 6.57415 0
M  V30 6074 O 1018.16 7.79416 4.13051 0
M  V30 6075 O 1017.62 5.63315 5.29344 0
M  V30 6076 C 1016.68 4.80318 6.01954 0
M  V30 6077 C 1017.41 3.64202 6.65911 0
M  V30 6078 O 1017.62 2.60736 5.64823 0
M  V30 6079 C 1018.81 3.93521 7.19518 0
M  V30 6080 O 1019.2 3.02071 8.21205 0
M  V30 6081 C 1019.69 3.73047 5.97036 0
M  V30 6082 C 1018.98 2.58828 5.25741 0
M  V30 6083 N 1019.03 2.68068 3.77503 0
M  V30 6084 C 1018.95 3.80474 2.99159 0
M  V30 6085 N 1019.02 3.55622 1.71925 0
M  V30 6086 C 1019.17 2.1832 1.65733 0
M  V30 6087 C 1019.3 1.28842 0.572777 0
M  V30 6088 N 1019.31 1.66875 -0.70098 0
M  V30 6089 N 1019.42 -0.016788 0.859836 0
M  V30 6090 C 1019.41 -0.398145 2.13316 0
M  V30 6091 N 1019.29 0.328224 3.22333 0
M  V30 6092 C 1019.17 1.62992 2.90383 0
M  V30 6093 H 1016.2 5.40394 6.8003 0
M  V30 6094 H 1015.92 4.41741 5.32532 0
M  V30 6095 H 1016.79 3.26371 7.47889 0
M  V30 6096 H 1019.45 1.64007 5.56746 0
M  V30 6097 H 1019.73 4.63439 5.3432 0
M  V30 6098 H 1020.72 3.44776 6.25925 0
M  V30 6099 H 1018.88 4.96707 7.57347 0
M  V30 6100 H 1018.84 4.8089 3.39924 0
M  V30 6101 H 1019.22 2.66547 -0.941919 0
M  V30 6102 H 1019.41 0.965341 -1.44766 0
M  V30 6103 H 1019.52 -1.46427 2.29697 0
M  V30 6104 P 1020.75 2.75334 8.47391 0
M  V30 6105 O 1020.97 2.44571 9.90142 0
M  V30 6106 O 1021.54 3.87688 7.92115 0
M  V30 6107 O 1021 1.4459 7.59357 0
M  V30 6108 C 1020.06 0.347608 7.69215 0
M  V30 6109 C 1020.79 -0.96767 7.52806 0
M  V30 6110 O 1021 -1.21036 6.1011 0
M  V30 6111 C 1022.19 -1.04544 8.13308 0
M  V30 6112 O 1022.58 -2.38311 8.41922 0
M  V30 6113 C 1023.07 -0.491279 7.02284 0
M  V30 6114 C 1022.36 -0.996264 5.77469 0
M  V30 6115 N 1022.41 -0.0501916 4.62973 0
M  V30 6116 H 1019.57 0.374722 8.67691 0
M  V30 6117 H 1019.3 0.443485 6.90277 0
M  V30 6118 H 1020.17 -1.75537 7.96793 0
M  V30 6119 P 1024.13 -2.75334 8.47391 0
M  V30 6120 O 1024.35 -3.84128 9.44797 0
M  V30 6121 O 1024.92 -1.51947 8.68712 0
M  V30 6122 O 1024.38 -3.29363 6.99321 0
M  V30 6123 C 1023.44 -4.24011 6.4274 0
M  V30 6124 C 1024.17 -5.20775 5.52155 0
M  V30 6125 O 1024.38 -4.56534 4.22446 0
M  V30 6126 C 1025.57 -5.62629 5.96531 0
M  V30 6127 O 1025.96 -6.87667 5.41053 0
M  V30 6128 C 1026.45 -4.52537 5.39283 0
M  V30 6129 C 1025.74 -4.20027 4.08623 0
M  V30 6130 N 1025.79 -2.76189 3.71603 0
M  V30 6131 H 1022.95 -4.797 7.24003 0
M  V30 6132 H 1022.68 -3.69856 5.84513 0
M  V30 6133 H 1023.55 -6.10356 5.41441 0
M  V30 6134 P 1027.51 -7.20834 5.23717 0
M  V30 6135 O 1027.73 -8.66274 5.38678 0
M  V30 6136 O 1028.3 -6.33687 6.13629 0
M  V30 6137 O 1027.76 -6.7751 3.72168 0
M  V30 6138 C 1026.82 -7.20919 2.70795 0
M  V30 6139 C 1027.55 -7.45864 1.40599 0
M  V30 6140 O 1027.76 -6.17751 0.734343 0
M  V30 6141 C 1028.95 -8.05906 1.51917 0
M  V30 6142 O 1029.34 -8.74358 0.335205 0
M  V30 6143 C 1029.83 -6.83093 1.70294 0
M  V30 6144 C 1029.12 -5.79992 0.836974 0
M  V30 6145 N 1029.17 -4.41864 1.38293 0
M  V30 6146 C 1029.09 -4.02089 2.69407 0
M  V30 6147 N 1029.16 -2.73403 2.85089 0
M  V30 6148 C 1029.31 -2.25086 1.5642 0
M  V30 6149 C 1029.44 -0.942887 1.04836 0
M  V30 6150 N 1029.45 0.150999 1.80369 0
M  V30 6151 N 1029.56 -0.812565 -0.28167 0
M  V30 6152 C 1029.55 -1.90572 -1.03784 0
M  V30 6153 N 1029.43 -3.167 -0.683905 0
M  V30 6154 C 1029.31 -3.26538 0.652815 0
M  V30 6155 H 1026.34 -8.13738 3.03804 0
M  V30 6156 H 1026.06 -6.42974 2.55559 0
M  V30 6157 H 1026.93 -8.12139 0.792866 0
M  V30 6158 H 1029.59 -5.80178 -0.160643 0
M  V30 6159 H 1029.87 -6.51379 2.75643 0
M  V30 6160 H 1030.86 -7.01832 1.3448 0
M  V30 6161 H 1029.02 -8.73771 2.38364 0
M  V30 6162 H 1028.98 -4.7189 3.52311 0
M  V30 6163 H 1029.36 0.0721434 2.82608 0
M  V30 6164 H 1029.55 1.0785 1.36544 0
M  V30 6165 H 1029.66 -1.73207 -2.10241 0
M  V30 6166 P 1030.89 -8.91 -7.81545e-12 0
M  V30 6167 O 1031.11 -10.1746 -0.733838 0
M  V30 6168 O 1031.68 -8.73346 1.23964 0
M  V30 6169 O 1031.14 -7.66872 -0.971405 0
M  V30 6170 C 1030.2 -7.42405 -2.04668 0
M  V30 6171 C 1030.93 -6.86059 -3.24661 0
M  V30 6172 O 1031.14 -5.42934 -3.03695 0
M  V30 6173 C 1032.33 -7.41287 -3.50796 0
M  V30 6174 O 1032.72 -7.27073 -4.86816 0
M  V30 6175 C 1033.21 -6.5273 -2.63741 0
M  V30 6176 C 1032.5 -5.1842 -2.73198 0
M  V30 6177 N 1032.55 -4.38762 -1.4784 0
M  V30 6178 C 1032.47 -4.83651 -0.183876 0
M  V30 6179 N 1032.54 -3.88759 0.699393 0
M  V30 6180 C 1032.69 -2.7404 -0.0575568 0
M  V30 6181 C 1032.82 -1.37902 0.293928 0
M  V30 6182 N 1032.83 -0.938021 1.54797 0
M  V30 6183 N 1032.94 -0.491817 -0.70549 0
M  V30 6184 C 1032.93 -0.931735 -1.95979 0
M  V30 6185 N 1032.81 -2.16017 -2.41481 0
M  V30 6186 C 1032.69 -3.02547 -1.39121 0
M  V30 6187 H 1029.72 -8.36899 -2.3252 0
M  V30 6188 H 1029.44 -6.70391 -1.71179 0
M  V30 6189 H 1030.31 -7.03638 -4.13219 0
M  V30 6190 H 1032.97 -4.59931 -3.54016 0
M  V30 6191 H 1033.25 -6.88995 -1.59871 0
M  V30 6192 H 1034.24 -6.4684 -3.0373 0
M  V30 6193 H 1032.4 -8.47002 -3.20749 0
M  V30 6194 H 1032.36 -5.8885 0.0765548 0
M  V30 6195 H 1032.74 -1.60276 2.32875 0
M  V30 6196 H 1032.93 0.0699355 1.73859 0
M  V30 6197 H 1033.04 -0.165507 -2.71897 0
M  V30 6198 P 1034.27 -7.20834 -5.23717 0
M  V30 6199 O 1034.49 -7.79853 -6.57286 0
M  V30 6200 O 1035.06 -7.79239 -4.12957 0
M  V30 6201 O 1034.52 -5.63315 -5.29344 0
M  V30 6202 C 1033.58 -4.80255 -6.01876 0
M  V30 6203 C 1034.31 -3.64202 -6.65911 0
M  V30 6204 O 1034.52 -2.60694 -5.64732 0
M  V30 6205 C 1035.71 -3.93473 -7.1943 0
M  V30 6206 O 1036.1 -3.02071 -8.21205 0
M  V30 6207 C 1036.59 -3.73047 -5.97036 0
M  V30 6208 C 1035.88 -2.58828 -5.25741 0
M  V30 6209 N 1035.93 -2.68068 -3.77503 0
M  V30 6210 H 1033.09 -5.40332 -6.79951 0
M  V30 6211 H 1032.82 -4.41613 -5.32378 0
M  V30 6212 H 1033.69 -3.26331 -7.47797 0
M  V30 6213 P 1037.65 -2.75334 -8.47391 0
M  V30 6214 O 1037.87 -2.44571 -9.90142 0
M  V30 6215 O 1038.44 -3.87688 -7.92115 0
M  V30 6216 O 1037.9 -1.4459 -7.59357 0
M  V30 6217 C 1036.96 -0.347608 -7.69215 0
M  V30 6218 C 1037.69 0.96767 -7.52806 0
M  V30 6219 O 1037.9 1.21036 -6.1011 0
M  V30 6220 C 1039.09 1.04544 -8.13308 0
M  V30 6221 O 1039.48 2.38311 -8.41922 0
M  V30 6222 C 1039.97 0.491279 -7.02284 0
M  V30 6223 C 1039.26 0.996264 -5.77469 0
M  V30 6224 N 1039.31 0.0501916 -4.62973 0
M  V30 6225 H 1036.47 -0.374722 -8.67691 0
M  V30 6226 H 1036.2 -0.443485 -6.90277 0
M  V30 6227 H 1037.07 1.75537 -7.96793 0
M  V30 6228 P 1041.03 2.75334 -8.47391 0
M  V30 6229 O 1041.25 3.84128 -9.44797 0
M  V30 6230 O 1041.82 1.51947 -8.68712 0
M  V30 6231 O 1041.28 3.29363 -6.99321 0
M  V30 6232 C 1040.34 4.24011 -6.4274 0
M  V30 6233 C 1041.07 5.20775 -5.52155 0
M  V30 6234 O 1041.28 4.56534 -4.22446 0
M  V30 6235 C 1042.47 5.62629 -5.96531 0
M  V30 6236 O 1042.86 6.87667 -5.41053 0
M  V30 6237 C 1043.35 4.52537 -5.39283 0
M  V30 6238 C 1042.64 4.20027 -4.08623 0
M  V30 6239 N 1042.69 2.76189 -3.71603 0
M  V30 6240 H 1039.85 4.797 -7.24003 0
M  V30 6241 H 1039.58 3.69856 -5.84513 0
M  V30 6242 H 1040.45 6.10356 -5.41441 0
M  V30 6243 P 1044.41 7.20834 -5.23717 0
M  V30 6244 O 1044.63 8.66104 -5.38572 0
M  V30 6245 O 1045.2 6.33544 -6.1349 0
M  V30 6246 O 1044.66 6.7751 -3.72168 0
M  V30 6247 C 1043.72 7.20825 -2.7076 0
M  V30 6248 C 1044.45 7.45864 -1.40599 0
M  V30 6249 O 1044.66 6.17651 -0.734225 0
M  V30 6250 C 1045.85 8.05808 -1.51899 0
M  V30 6251 O 1046.24 8.74358 -0.335205 0
M  V30 6252 C 1046.73 6.83093 -1.70294 0
M  V30 6253 C 1046.02 5.79992 -0.836974 0
M  V30 6254 N 1046.07 4.41864 -1.38293 0
M  V30 6255 H 1043.23 8.13644 -3.0377 0
M  V30 6256 H 1042.96 6.42788 -2.55485 0
M  V30 6257 H 1043.83 8.12039 -0.792769 0
M  V30 6258 P 1047.79 8.91 7.97264e-12 0
M  V30 6259 O 1048.01 10.1736 0.733766 0
M  V30 6260 O 1048.58 8.73247 -1.2395 0
M  V30 6261 O 1048.04 7.66872 0.971405 0
M  V30 6262 C 1047.1 7.42212 2.04614 0
M  V30 6263 C 1047.83 6.86059 3.24661 0
M  V30 6264 O 1048.04 5.42847 3.03646 0
M  V30 6265 C 1049.23 7.41196 3.50753 0
M  V30 6266 O 1049.62 7.27073 4.86816 0
M  V30 6267 C 1050.11 6.5273 2.63741 0
M  V30 6268 C 1049.4 5.1842 2.73198 0
M  V30 6269 N 1049.45 4.38668 1.47808 0
M  V30 6270 C 1049.6 3.02239 1.60048 0
M  V30 6271 O 1049.69 2.46459 2.67869 0
M  V30 6272 N 1049.64 2.32436 0.408571 0
M  V30 6273 C 1049.55 2.85471 -0.854993 0
M  V30 6274 O 1049.6 2.12566 -1.8531 0
M  V30 6275 C 1049.4 4.28918 -0.887335 0
M  V30 6276 C 1049.29 4.91066 -2.24619 0
M  V30 6277 C 1049.35 5.00349 0.255399 0
M  V30 6278 H 1046.61 8.36803 2.32493 0
M  V30 6279 H 1046.34 6.701 1.71105 0
M  V30 6280 H 1047.21 7.03551 4.13168 0
M  V30 6281 H 1049.87 4.59773 3.53894 0
M  V30 6282 H 1050.15 6.88995 1.59871 0
M  V30 6283 H 1051.14 6.46749 3.03687 0
M  V30 6284 H 1049.3 8.46908 3.20714 0
M  V30 6285 H 1049.23 6.08548 0.206986 0
M  V30 6286 H 1050.26 5.34836 -2.53099 0
M  V30 6287 H 1048.53 5.69638 -2.2291 0
M  V30 6288 H 1049.01 4.13971 -2.98044 0
M  V30 6289 H 1049.75 1.33211 0.474216 0
M  V30 6290 P 1051.17 7.20834 5.23717 0
M  V30 6291 O 1051.39 7.79853 6.57286 0
M  V30 6292 O 1051.96 7.79239 4.12957 0
M  V30 6293 O 1051.42 5.63315 5.29344 0
M  V30 6294 C 1050.48 4.80255 6.01876 0
M  V30 6295 C 1051.21 3.64202 6.65911 0
M  V30 6296 O 1051.42 2.60694 5.64732 0
M  V30 6297 C 1052.61 3.93473 7.1943 0
M  V30 6298 O 1053 3.02071 8.21205 0
M  V30 6299 C 1053.49 3.73047 5.97036 0
M  V30 6300 C 1052.78 2.58828 5.25741 0
M  V30 6301 N 1052.83 2.68068 3.77503 0
M  V30 6302 H 1049.99 5.40332 6.79951 0
M  V30 6303 H 1049.72 4.41613 5.32378 0
M  V30 6304 H 1050.59 3.26331 7.47797 0
M  V30 6305 P 1054.55 2.75334 8.47391 0
M  V30 6306 O 1054.77 2.44571 9.90142 0
M  V30 6307 O 1055.34 3.87688 7.92115 0
M  V30 6308 O 1054.8 1.4459 7.59357 0
M  V30 6309 C 1053.86 0.347608 7.69215 0
M  V30 6310 C 1054.59 -0.96767 7.52806 0
M  V30 6311 O 1054.8 -1.21036 6.1011 0
M  V30 6312 C 1055.99 -1.04544 8.13308 0
M  V30 6313 O 1056.38 -2.38311 8.41922 0
M  V30 6314 C 1056.87 -0.491279 7.02284 0
M  V30 6315 C 1056.16 -0.996264 5.77469 0
M  V30 6316 N 1056.21 -0.0501916 4.62973 0
M  V30 6317 H 1053.37 0.374722 8.67691 0
M  V30 6318 H 1053.1 0.443485 6.90277 0
M  V30 6319 H 1053.97 -1.75537 7.96793 0
M  V30 6320 P 1057.93 -2.75334 8.47391 0
M  V30 6321 O 1058.15 -3.84204 9.44982 0
M  V30 6322 O 1058.72 -1.51982 8.68909 0
M  V30 6323 O 1058.18 -3.29363 6.99321 0
M  V30 6324 C 1057.24 -4.24066 6.42823 0
M  V30 6325 C 1057.97 -5.20775 5.52155 0
M  V30 6326 O 1058.18 -4.56607 4.22514 0
M  V30 6327 C 1059.37 -5.62697 5.96604 0
M  V30 6328 O 1059.76 -6.87667 5.41053 0
M  V30 6329 C 1060.25 -4.52537 5.39283 0
M  V30 6330 C 1059.54 -4.20027 4.08623 0
M  V30 6331 N 1059.59 -2.76189 3.71603 0
M  V30 6332 C 1059.51 -1.66944 4.54297 0
M  V30 6333 N 1059.58 -0.536169 3.91344 0
M  V30 6334 C 1059.73 -0.901569 2.58849 0
M  V30 6335 C 1059.86 -0.146599 1.40236 0
M  V30 6336 N 1059.87 1.18234 1.37046 0
M  V30 6337 N 1059.98 -0.822941 0.249738 0
M  V30 6338 C 1059.97 -2.15179 0.280525 0
M  V30 6339 N 1059.85 -2.96414 1.30822 0
M  V30 6340 C 1059.73 -2.25804 2.44748 0
M  V30 6341 H 1056.76 -4.79756 7.24086 0
M  V30 6342 H 1056.48 -3.69963 5.84682 0
M  V30 6343 H 1057.35 -6.10431 5.41508 0
M  V30 6344 H 1060.01 -4.78816 3.28024 0
M  V30 6345 H 1060.29 -3.64957 6.05871 0
M  V30 6346 H 1061.28 -4.88748 5.21323 0
M  V30 6347 H 1059.44 -5.66789 7.0643 0
M  V30 6348 H 1059.4 -1.74684 5.62396 0
M  V30 6349 H 1059.78 1.71949 2.24394 0
M  V30 6350 H 1059.97 1.67511 0.470742 0
M  V30 6351 H 1060.08 -2.63704 -0.6828 0
M  V30 6352 P 1061.31 -7.20834 5.23717 0
M  V30 6353 O 1061.53 -8.66104 5.38572 0
M  V30 6354 O 1062.1 -6.33544 6.1349 0
M  V30 6355 O 1061.56 -6.7751 3.72168 0
M  V30 6356 C 1060.62 -7.20825 2.7076 0
M  V30 6357 C 1061.35 -7.45864 1.40599 0
M  V30 6358 O 1061.56 -6.17651 0.734225 0
M  V30 6359 C 1062.75 -8.05808 1.51899 0
M  V30 6360 O 1063.14 -8.74358 0.335205 0
M  V30 6361 C 1063.63 -6.83093 1.70294 0
M  V30 6362 C 1062.92 -5.79992 0.836974 0
M  V30 6363 N 1062.97 -4.41864 1.38293 0
M  V30 6364 H 1060.13 -8.13644 3.0377 0
M  V30 6365 H 1059.86 -6.42788 2.55485 0
M  V30 6366 H 1060.73 -8.12039 0.792769 0
M  V30 6367 P 1064.69 -8.91 -8.12982e-12 0
M  V30 6368 O 1064.91 -10.1726 -0.733694 0
M  V30 6369 O 1065.48 -8.73148 1.23936 0
M  V30 6370 O 1064.94 -7.66872 -0.971405 0
M  V30 6371 C 1064 -7.42309 -2.04641 0
M  V30 6372 C 1064.73 -6.86059 -3.24661 0
M  V30 6373 O 1064.94 -5.42847 -3.03646 0
M  V30 6374 C 1066.13 -7.41196 -3.50753 0
M  V30 6375 O 1066.52 -7.27073 -4.86816 0
M  V30 6376 C 1067.01 -6.5273 -2.63741 0
M  V30 6377 C 1066.3 -5.1842 -2.73198 0
M  V30 6378 N 1066.35 -4.38762 -1.4784 0
M  V30 6379 H 1063.51 -8.36803 -2.32493 0
M  V30 6380 H 1063.24 -6.70197 -1.71129 0
M  V30 6381 H 1064.11 -7.03551 -4.13168 0
M  V30 6382 P 1068.07 -7.20834 -5.23717 0
M  V30 6383 O 1068.29 -7.80006 -6.57415 0
M  V30 6384 O 1068.86 -7.79416 -4.13051 0
M  V30 6385 O 1068.32 -5.63315 -5.29344 0
M  V30 6386 C 1067.38 -4.80318 -6.01954 0
M  V30 6387 C 1068.11 -3.64202 -6.65911 0
M  V30 6388 O 1068.32 -2.60736 -5.64823 0
M  V30 6389 C 1069.51 -3.93521 -7.19518 0
M  V30 6390 O 1069.9 -3.02071 -8.21205 0
M  V30 6391 C 1070.39 -3.73047 -5.97036 0
M  V30 6392 C 1069.68 -2.58828 -5.25741 0
M  V30 6393 N 1069.73 -2.68068 -3.77503 0
M  V30 6394 C 1069.65 -3.80474 -2.99159 0
M  V30 6395 N 1069.72 -3.55622 -1.71925 0
M  V30 6396 C 1069.87 -2.1832 -1.65733 0
M  V30 6397 C 1070 -1.28842 -0.572777 0
M  V30 6398 N 1070.01 -1.66875 0.70098 0
M  V30 6399 N 1070.12 0.016788 -0.859836 0
M  V30 6400 C 1070.11 0.398145 -2.13316 0
M  V30 6401 N 1069.99 -0.328224 -3.22333 0
M  V30 6402 C 1069.87 -1.62992 -2.90383 0
M  V30 6403 H 1066.9 -5.40394 -6.8003 0
M  V30 6404 H 1066.62 -4.41741 -5.32532 0
M  V30 6405 H 1067.49 -3.26371 -7.47889 0
M  V30 6406 H 1070.15 -1.64007 -5.56746 0
M  V30 6407 H 1070.43 -4.63439 -5.3432 0
M  V30 6408 H 1071.42 -3.44776 -6.25925 0
M  V30 6409 H 1069.58 -4.96707 -7.57347 0
M  V30 6410 H 1069.54 -4.8089 -3.39924 0
M  V30 6411 H 1069.92 -2.66547 0.941919 0
M  V30 6412 H 1070.11 -0.965341 1.44766 0
M  V30 6413 H 1070.22 1.46427 -2.29697 0
M  V30 6414 P 1071.45 -2.75334 -8.47391 0
M  V30 6415 O 1071.67 -2.44571 -9.90142 0
M  V30 6416 O 1072.24 -3.87688 -7.92115 0
M  V30 6417 O 1071.7 -1.4459 -7.59357 0
M  V30 6418 C 1070.76 -0.347608 -7.69215 0
M  V30 6419 C 1071.49 0.96767 -7.52806 0
M  V30 6420 O 1071.7 1.21036 -6.1011 0
M  V30 6421 C 1072.89 1.04544 -8.13308 0
M  V30 6422 O 1073.28 2.38311 -8.41922 0
M  V30 6423 C 1073.77 0.491279 -7.02284 0
M  V30 6424 C 1073.06 0.996264 -5.77469 0
M  V30 6425 N 1073.11 0.0501916 -4.62973 0
M  V30 6426 H 1070.27 -0.374722 -8.67691 0
M  V30 6427 H 1070 -0.443485 -6.90277 0
M  V30 6428 H 1070.87 1.75537 -7.96793 0
M  V30 6429 P 1074.83 2.75334 -8.47391 0
M  V30 6430 O 1075.05 3.84128 -9.44797 0
M  V30 6431 O 1075.62 1.51947 -8.68712 0
M  V30 6432 O 1075.08 3.29363 -6.99321 0
M  V30 6433 C 1074.14 4.24011 -6.4274 0
M  V30 6434 C 1074.87 5.20775 -5.52155 0
M  V30 6435 O 1075.08 4.56534 -4.22446 0
M  V30 6436 C 1076.27 5.62629 -5.96531 0
M  V30 6437 O 1076.66 6.87667 -5.41053 0
M  V30 6438 C 1077.15 4.52537 -5.39283 0
M  V30 6439 C 1076.44 4.20027 -4.08623 0
M  V30 6440 N 1076.49 2.76189 -3.71603 0
M  V30 6441 H 1073.65 4.797 -7.24003 0
M  V30 6442 H 1073.38 3.69856 -5.84513 0
M  V30 6443 H 1074.25 6.10356 -5.41441 0
M  V30 6444 P 1078.21 7.20834 -5.23717 0
M  V30 6445 O 1078.43 8.66104 -5.38572 0
M  V30 6446 O 1079 6.33544 -6.1349 0
M  V30 6447 O 1078.46 6.7751 -3.72168 0
M  V30 6448 C 1077.52 7.20825 -2.7076 0
M  V30 6449 C 1078.25 7.45864 -1.40599 0
M  V30 6450 O 1078.46 6.17651 -0.734225 0
M  V30 6451 C 1079.65 8.05808 -1.51899 0
M  V30 6452 O 1080.04 8.74358 -0.335205 0
M  V30 6453 C 1080.53 6.83093 -1.70294 0
M  V30 6454 C 1079.82 5.79992 -0.836974 0
M  V30 6455 N 1079.87 4.41864 -1.38293 0
M  V30 6456 H 1077.03 8.13644 -3.0377 0
M  V30 6457 H 1076.76 6.42788 -2.55485 0
M  V30 6458 H 1077.63 8.12039 -0.792769 0
M  V30 6459 P 1081.59 8.91 8.287e-12 0
M  V30 6460 O 1081.81 10.1736 0.733766 0
M  V30 6461 O 1082.38 8.73247 -1.2395 0
M  V30 6462 O 1081.84 7.66872 0.971405 0
M  V30 6463 C 1080.9 7.42212 2.04614 0
M  V30 6464 C 1081.63 6.86059 3.24661 0
M  V30 6465 O 1081.84 5.42847 3.03646 0
M  V30 6466 C 1083.03 7.41196 3.50753 0
M  V30 6467 O 1083.42 7.27073 4.86816 0
M  V30 6468 C 1083.91 6.5273 2.63741 0
M  V30 6469 C 1083.2 5.1842 2.73198 0
M  V30 6470 N 1083.25 4.38668 1.47808 0
M  V30 6471 C 1083.4 3.02239 1.60048 0
M  V30 6472 O 1083.49 2.46459 2.67869 0
M  V30 6473 N 1083.44 2.32436 0.408571 0
M  V30 6474 C 1083.35 2.85471 -0.854993 0
M  V30 6475 O 1083.4 2.12566 -1.8531 0
M  V30 6476 C 1083.2 4.28918 -0.887335 0
M  V30 6477 C 1083.09 4.91066 -2.24619 0
M  V30 6478 C 1083.15 5.00349 0.255399 0
M  V30 6479 H 1080.41 8.36803 2.32493 0
M  V30 6480 H 1080.14 6.701 1.71105 0
M  V30 6481 H 1081.01 7.03551 4.13168 0
M  V30 6482 H 1083.67 4.59773 3.53894 0
M  V30 6483 H 1083.95 6.88995 1.59871 0
M  V30 6484 H 1084.94 6.46749 3.03687 0
M  V30 6485 H 1083.1 8.46908 3.20714 0
M  V30 6486 H 1083.03 6.08548 0.206986 0
M  V30 6487 H 1084.06 5.34836 -2.53099 0
M  V30 6488 H 1082.33 5.69638 -2.2291 0
M  V30 6489 H 1082.81 4.13971 -2.98044 0
M  V30 6490 H 1083.55 1.33211 0.474216 0
M  V30 6491 P 1084.97 7.20834 5.23717 0
M  V30 6492 O 1085.19 7.80006 6.57415 0
M  V30 6493 O 1085.76 7.79416 4.13051 0
M  V30 6494 O 1085.22 5.63315 5.29344 0
M  V30 6495 C 1084.28 4.80318 6.01954 0
M  V30 6496 C 1085.01 3.64202 6.65911 0
M  V30 6497 O 1085.22 2.60736 5.64823 0
M  V30 6498 C 1086.41 3.93521 7.19518 0
M  V30 6499 O 1086.8 3.02071 8.21205 0
M  V30 6500 C 1087.29 3.73047 5.97036 0
M  V30 6501 C 1086.58 2.58828 5.25741 0
M  V30 6502 N 1086.63 2.68068 3.77503 0
M  V30 6503 C 1086.55 3.80474 2.99159 0
M  V30 6504 N 1086.62 3.55622 1.71925 0
M  V30 6505 C 1086.77 2.1832 1.65733 0
M  V30 6506 C 1086.9 1.28842 0.572777 0
M  V30 6507 N 1086.91 1.66875 -0.70098 0
M  V30 6508 N 1087.02 -0.016788 0.859836 0
M  V30 6509 C 1087.01 -0.398145 2.13316 0
M  V30 6510 N 1086.89 0.328224 3.22333 0
M  V30 6511 C 1086.77 1.62992 2.90383 0
M  V30 6512 H 1083.8 5.40394 6.8003 0
M  V30 6513 H 1083.52 4.41741 5.32532 0
M  V30 6514 H 1084.39 3.26371 7.47889 0
M  V30 6515 H 1087.05 1.64007 5.56746 0
M  V30 6516 H 1087.33 4.63439 5.3432 0
M  V30 6517 H 1088.32 3.44776 6.25925 0
M  V30 6518 H 1086.48 4.96707 7.57347 0
M  V30 6519 H 1086.44 4.8089 3.39924 0
M  V30 6520 H 1086.82 2.66547 -0.941919 0
M  V30 6521 H 1087.01 0.965341 -1.44766 0
M  V30 6522 H 1087.12 -1.46427 2.29697 0
M  V30 6523 P 1088.35 2.75334 8.47391 0
M  V30 6524 O 1088.57 2.44595 9.90239 0
M  V30 6525 O 1089.14 3.87732 7.92204 0
M  V30 6526 O 1088.6 1.4459 7.59357 0
M  V30 6527 C 1087.66 0.347563 7.69115 0
M  V30 6528 C 1088.39 -0.96767 7.52806 0
M  V30 6529 O 1088.6 -1.21036 6.1011 0
M  V30 6530 C 1089.79 -1.04544 8.13308 0
M  V30 6531 O 1090.18 -2.38311 8.41922 0
M  V30 6532 C 1090.67 -0.491279 7.02284 0
M  V30 6533 C 1089.96 -0.996264 5.77469 0
M  V30 6534 N 1090.01 -0.0501808 4.62873 0
M  V30 6535 C 1090.16 -0.588177 3.36904 0
M  V30 6536 O 1090.25 -1.78598 3.17173 0
M  V30 6537 N 1090.2 0.329694 2.33686 0
M  V30 6538 C 1090.11 1.6953 2.45079 0
M  V30 6539 O 1090.16 2.41926 1.44899 0
M  V30 6540 C 1089.96 2.16933 3.80505 0
M  V30 6541 C 1089.85 3.65373 3.97621 0
M  V30 6542 C 1089.91 1.30326 4.83752 0
M  V30 6543 H 1087.17 0.374722 8.67691 0
M  V30 6544 H 1086.9 0.443421 6.90177 0
M  V30 6545 H 1087.77 -1.75537 7.96793 0
M  V30 6546 H 1090.43 -1.94496 5.46629 0
M  V30 6547 H 1090.71 0.608651 7.04676 0
M  V30 6548 H 1091.7 -0.889672 7.08939 0
M  V30 6549 H 1089.86 -0.43308 9.04564 0
M  V30 6550 H 1089.79 1.68366 5.8516 0
M  V30 6551 H 1090.82 4.05985 4.30448 0
M  V30 6552 H 1089.09 3.88028 4.72875 0
M  V30 6553 H 1089.57 4.11381 3.01609 0
M  V30 6554 H 1090.31 -0.0393617 1.41345 0
M  V30 6555 P 1091.73 -2.75334 8.47391 0
M  V30 6556 O 1091.95 -3.84128 9.44797 0
M  V30 6557 O 1092.52 -1.51947 8.68712 0
M  V30 6558 O 1091.98 -3.29363 6.99321 0
M  V30 6559 C 1091.04 -4.24011 6.4274 0
M  V30 6560 C 1091.77 -5.20775 5.52155 0
M  V30 6561 O 1091.98 -4.56534 4.22446 0
M  V30 6562 C 1093.17 -5.62629 5.96531 0
M  V30 6563 O 1093.56 -6.87667 5.41053 0
M  V30 6564 C 1094.05 -4.52537 5.39283 0
M  V30 6565 C 1093.34 -4.20027 4.08623 0
M  V30 6566 N 1093.39 -2.76189 3.71603 0
M  V30 6567 H 1090.55 -4.797 7.24003 0
M  V30 6568 H 1090.28 -3.69856 5.84513 0
M  V30 6569 H 1091.15 -6.10356 5.41441 0
M  V30 6570 P 1095.11 -7.20834 5.23717 0
M  V30 6571 O 1095.33 -8.66104 5.38572 0
M  V30 6572 O 1095.9 -6.33544 6.1349 0
M  V30 6573 O 1095.36 -6.7751 3.72168 0
M  V30 6574 C 1094.42 -7.20825 2.7076 0
M  V30 6575 C 1095.15 -7.45864 1.40599 0
M  V30 6576 O 1095.36 -6.17651 0.734225 0
M  V30 6577 C 1096.55 -8.05808 1.51899 0
M  V30 6578 O 1096.94 -8.74358 0.335205 0
M  V30 6579 C 1097.43 -6.83093 1.70294 0
M  V30 6580 C 1096.72 -5.79992 0.836974 0
M  V30 6581 N 1096.77 -4.41864 1.38293 0
M  V30 6582 H 1093.93 -8.13644 3.0377 0
M  V30 6583 H 1093.66 -6.42788 2.55485 0
M  V30 6584 H 1094.53 -8.12039 0.792769 0
M  V30 6585 P 1098.49 -8.91 -8.44418e-12 0
M  V30 6586 O 1098.71 -10.1726 -0.733694 0
M  V30 6587 O 1099.28 -8.73148 1.23936 0
M  V30 6588 O 1098.74 -7.66872 -0.971405 0
M  V30 6589 C 1097.8 -7.42309 -2.04641 0
M  V30 6590 C 1098.53 -6.86059 -3.24661 0
M  V30 6591 O 1098.74 -5.42847 -3.03646 0
M  V30 6592 C 1099.93 -7.41196 -3.50753 0
M  V30 6593 O 1100.32 -7.27073 -4.86816 0
M  V30 6594 C 1100.81 -6.5273 -2.63741 0
M  V30 6595 C 1100.1 -5.1842 -2.73198 0
M  V30 6596 N 1100.15 -4.38762 -1.4784 0
M  V30 6597 H 1097.31 -8.36803 -2.32493 0
M  V30 6598 H 1097.04 -6.70197 -1.71129 0
M  V30 6599 H 1097.91 -7.03551 -4.13168 0
M  V30 6600 P 1101.87 -7.20834 -5.23717 0
M  V30 6601 O 1102.09 -7.7993 -6.57351 0
M  V30 6602 O 1102.66 -7.79328 -4.13004 0
M  V30 6603 O 1102.12 -5.63315 -5.29344 0
M  V30 6604 C 1101.18 -4.80193 -6.01798 0
M  V30 6605 C 1101.91 -3.64202 -6.65911 0
M  V30 6606 O 1102.12 -2.60694 -5.64732 0
M  V30 6607 C 1103.31 -3.93473 -7.1943 0
M  V30 6608 O 1103.7 -3.02071 -8.21205 0
M  V30 6609 C 1104.19 -3.73047 -5.97036 0
M  V30 6610 C 1103.48 -2.58828 -5.25741 0
M  V30 6611 N 1103.53 -2.6801 -3.77422 0
M  V30 6612 C 1103.68 -1.50443 -3.07133 0
M  V30 6613 O 1103.77 -0.419406 -3.61576 0
M  V30 6614 N 1103.72 -1.6403 -1.69677 0
M  V30 6615 C 1103.63 -2.81206 -0.986255 0
M  V30 6616 C 1103.48 -3.99158 -1.80325 0
M  V30 6617 C 1103.43 -3.89779 -3.1476 0
M  V30 6618 H 1100.69 -5.40332 -6.79951 0
M  V30 6619 H 1100.42 -4.41549 -5.32301 0
M  V30 6620 H 1101.29 -3.26331 -7.47797 0
M  V30 6621 H 1103.95 -1.6395 -5.56554 0
M  V30 6622 H 1104.23 -4.63439 -5.3432 0
M  V30 6623 H 1105.22 -3.44728 -6.25838 0
M  V30 6624 H 1103.38 -4.96652 -7.57263 0
M  V30 6625 H 1103.31 -4.80159 -3.74441 0
M  V30 6626 P 1105.25 -2.75334 -8.47391 0
M  V30 6627 O 1105.47 -2.44571 -9.90142 0
M  V30 6628 O 1106.04 -3.87688 -7.92115 0
M  V30 6629 O 1105.5 -1.4459 -7.59357 0
M  V30 6630 C 1104.56 -0.347608 -7.69215 0
M  V30 6631 C 1105.29 0.96767 -7.52806 0
M  V30 6632 O 1105.5 1.21036 -6.1011 0
M  V30 6633 C 1106.69 1.04544 -8.13308 0
M  V30 6634 O 1107.08 2.38311 -8.41922 0
M  V30 6635 C 1107.57 0.491279 -7.02284 0
M  V30 6636 C 1106.86 0.996264 -5.77469 0
M  V30 6637 N 1106.91 0.0501916 -4.62973 0
M  V30 6638 H 1104.07 -0.374722 -8.67691 0
M  V30 6639 H 1103.8 -0.443485 -6.90277 0
M  V30 6640 H 1104.67 1.75537 -7.96793 0
M  V30 6641 P 1108.63 2.75334 -8.47391 0
M  V30 6642 O 1108.85 3.84128 -9.44797 0
M  V30 6643 O 1109.42 1.51947 -8.68712 0
M  V30 6644 O 1108.88 3.29363 -6.99321 0
M  V30 6645 C 1107.94 4.24011 -6.4274 0
M  V30 6646 C 1108.67 5.20775 -5.52155 0
M  V30 6647 O 1108.88 4.56534 -4.22446 0
M  V30 6648 C 1110.07 5.62629 -5.96531 0
M  V30 6649 O 1110.46 6.87667 -5.41053 0
M  V30 6650 C 1110.95 4.52537 -5.39283 0
M  V30 6651 C 1110.24 4.20027 -4.08623 0
M  V30 6652 N 1110.29 2.76189 -3.71603 0
M  V30 6653 H 1107.45 4.797 -7.24003 0
M  V30 6654 H 1107.18 3.69856 -5.84513 0
M  V30 6655 H 1108.05 6.10356 -5.41441 0
M  V30 6656 P 1112.01 7.20834 -5.23717 0
M  V30 6657 O 1112.23 8.66189 -5.38625 0
M  V30 6658 O 1112.8 6.33615 -6.1356 0
M  V30 6659 O 1112.26 6.7751 -3.72168 0
M  V30 6660 C 1111.32 7.20732 -2.70725 0
M  V30 6661 C 1112.05 7.45864 -1.40599 0
M  V30 6662 O 1112.26 6.17651 -0.734225 0
M  V30 6663 C 1113.45 8.05808 -1.51899 0
M  V30 6664 O 1113.84 8.74358 -0.335205 0
M  V30 6665 C 1114.33 6.83093 -1.70294 0
M  V30 6666 C 1113.62 5.79992 -0.836974 0
M  V30 6667 N 1113.67 4.41769 -1.38263 0
M  V30 6668 C 1113.82 3.38591 -0.481702 0
M  V30 6669 O 1113.91 3.56839 0.718452 0
M  V30 6670 N 1113.86 2.1206 -1.03569 0
M  V30 6671 C 1113.77 1.80696 -2.36966 0
M  V30 6672 C 1113.62 2.94845 -3.23898 0
M  V30 6673 C 1113.57 4.19803 -2.73435 0
M  V30 6674 H 1110.83 8.13644 -3.0377 0
M  V30 6675 H 1110.56 6.42695 -2.55448 0
M  V30 6676 H 1111.43 8.12039 -0.792769 0
M  V30 6677 H 1114.09 5.79978 0.160587 0
M  V30 6678 H 1114.37 6.51379 -2.75643 0
M  V30 6679 H 1115.36 7.01734 -1.34462 0
M  V30 6680 H 1113.52 8.73674 -2.38337 0
M  V30 6681 H 1113.45 5.04492 -3.4095 0
M  V30 6682 P 1115.39 8.91 8.60137e-12 0
M  V30 6683 O 1115.61 10.1726 0.733694 0
M  V30 6684 O 1116.18 8.73148 -1.23936 0
M  V30 6685 O 1115.64 7.66872 0.971405 0
M  V30 6686 C 1114.7 7.42309 2.04641 0
M  V30 6687 C 1115.43 6.86059 3.24661 0
M  V30 6688 O 1115.64 5.42847 3.03646 0
M  V30 6689 C 1116.83 7.41196 3.50753 0
M  V30 6690 O 1117.22 7.27073 4.86816 0
M  V30 6691 C 1117.71 6.5273 2.63741 0
M  V30 6692 C 1117 5.1842 2.73198 0
M  V30 6693 N 1117.05 4.38762 1.4784 0
M  V30 6694 H 1114.21 8.36803 2.32493 0
M  V30 6695 H 1113.94 6.70197 1.71129 0
M  V30 6696 H 1114.81 7.03551 4.13168 0
M  V30 6697 P 1118.77 7.20834 5.23717 0
M  V30 6698 O 1118.99 7.7993 6.57351 0
M  V30 6699 O 1119.56 7.79328 4.13004 0
M  V30 6700 O 1119.02 5.63315 5.29344 0
M  V30 6701 C 1118.08 4.80193 6.01798 0
M  V30 6702 C 1118.81 3.64202 6.65911 0
M  V30 6703 O 1119.02 2.60694 5.64732 0
M  V30 6704 C 1120.21 3.93473 7.1943 0
M  V30 6705 O 1120.6 3.02071 8.21205 0
M  V30 6706 C 1121.09 3.73047 5.97036 0
M  V30 6707 C 1120.38 2.58828 5.25741 0
M  V30 6708 N 1120.43 2.6801 3.77422 0
M  V30 6709 C 1120.58 1.50443 3.07133 0
M  V30 6710 O 1120.67 0.419406 3.61576 0
M  V30 6711 N 1120.62 1.6403 1.69677 0
M  V30 6712 C 1120.53 2.81206 0.986255 0
M  V30 6713 O 1120.58 2.80892 -0.249754 0
M  V30 6714 C 1120.38 3.99158 1.80325 0
M  V30 6715 C 1120.27 5.29309 1.06921 0
M  V30 6716 C 1120.33 3.89779 3.1476 0
M  V30 6717 H 1117.59 5.40332 6.79951 0
M  V30 6718 H 1117.32 4.41549 5.32301 0
M  V30 6719 H 1118.19 3.26331 7.47797 0
M  V30 6720 H 1120.85 1.6395 5.56554 0
M  V30 6721 H 1121.13 4.63439 5.3432 0
M  V30 6722 H 1122.12 3.44728 6.25838 0
M  V30 6723 H 1120.28 4.96652 7.57263 0
M  V30 6724 H 1120.21 4.80159 3.74441 0
M  V30 6725 H 1121.24 5.81459 1.09608 0
M  V30 6726 H 1119.51 5.9187 1.54487 0
M  V30 6727 H 1119.99 5.10095 0.0220288 0
M  V30 6728 H 1120.73 0.798962 1.16664 0
M  V30 6729 P 1122.15 2.75334 8.47391 0
M  V30 6730 O 1122.37 2.44571 9.90142 0
M  V30 6731 O 1122.94 3.87688 7.92115 0
M  V30 6732 O 1122.4 1.4459 7.59357 0
M  V30 6733 C 1121.46 0.347608 7.69215 0
M  V30 6734 C 1122.19 -0.96767 7.52806 0
M  V30 6735 O 1122.4 -1.21036 6.1011 0
M  V30 6736 C 1123.59 -1.04544 8.13308 0
M  V30 6737 O 1123.98 -2.38311 8.41922 0
M  V30 6738 C 1124.47 -0.491279 7.02284 0
M  V30 6739 C 1123.76 -0.996264 5.77469 0
M  V30 6740 N 1123.81 -0.0501916 4.62973 0
M  V30 6741 H 1120.97 0.374722 8.67691 0
M  V30 6742 H 1120.7 0.443485 6.90277 0
M  V30 6743 H 1121.57 -1.75537 7.96793 0
M  V30 6744 P 1125.53 -2.75334 8.47391 0
M  V30 6745 O 1125.75 -3.84128 9.44797 0
M  V30 6746 O 1126.32 -1.51947 8.68712 0
M  V30 6747 O 1125.78 -3.29363 6.99321 0
M  V30 6748 C 1124.84 -4.24011 6.4274 0
M  V30 6749 C 1125.57 -5.20775 5.52155 0
M  V30 6750 O 1125.78 -4.56534 4.22446 0
M  V30 6751 C 1126.97 -5.62629 5.96531 0
M  V30 6752 O 1127.36 -6.87667 5.41053 0
M  V30 6753 C 1127.85 -4.52537 5.39283 0
M  V30 6754 C 1127.14 -4.20027 4.08623 0
M  V30 6755 N 1127.19 -2.76189 3.71603 0
M  V30 6756 H 1124.35 -4.797 7.24003 0
M  V30 6757 H 1124.08 -3.69856 5.84513 0
M  V30 6758 H 1124.95 -6.10356 5.41441 0
M  V30 6759 P 1128.91 -7.20834 5.23717 0
M  V30 6760 O 1129.13 -8.66104 5.38572 0
M  V30 6761 O 1129.7 -6.33544 6.1349 0
M  V30 6762 O 1129.16 -6.7751 3.72168 0
M  V30 6763 C 1128.22 -7.20825 2.7076 0
M  V30 6764 C 1128.95 -7.45864 1.40599 0
M  V30 6765 O 1129.16 -6.17651 0.734225 0
M  V30 6766 C 1130.35 -8.05808 1.51899 0
M  V30 6767 O 1130.74 -8.74358 0.335205 0
M  V30 6768 C 1131.23 -6.83093 1.70294 0
M  V30 6769 C 1130.52 -5.79992 0.836974 0
M  V30 6770 N 1130.57 -4.41864 1.38293 0
M  V30 6771 H 1127.73 -8.13644 3.0377 0
M  V30 6772 H 1127.46 -6.42788 2.55485 0
M  V30 6773 H 1128.33 -8.12039 0.792769 0
M  V30 6774 P 1132.29 -8.91 -8.75855e-12 0
M  V30 6775 O 1132.51 -10.1726 -0.733694 0
M  V30 6776 O 1133.08 -8.73148 1.23936 0
M  V30 6777 O 1132.54 -7.66872 -0.971405 0
M  V30 6778 C 1131.6 -7.42309 -2.04641 0
M  V30 6779 C 1132.33 -6.86059 -3.24661 0
M  V30 6780 O 1132.54 -5.42847 -3.03646 0
M  V30 6781 C 1133.73 -7.41196 -3.50753 0
M  V30 6782 O 1134.12 -7.27073 -4.86816 0
M  V30 6783 C 1134.61 -6.5273 -2.63741 0
M  V30 6784 C 1133.9 -5.1842 -2.73198 0
M  V30 6785 N 1133.95 -4.38762 -1.4784 0
M  V30 6786 H 1131.11 -8.36803 -2.32493 0
M  V30 6787 H 1130.84 -6.70197 -1.71129 0
M  V30 6788 H 1131.71 -7.03551 -4.13168 0
M  V30 6789 P 1135.67 -7.20834 -5.23717 0
M  V30 6790 O 1135.89 -7.79853 -6.57286 0
M  V30 6791 O 1136.46 -7.79239 -4.12957 0
M  V30 6792 O 1135.92 -5.63315 -5.29344 0
M  V30 6793 C 1134.98 -4.80255 -6.01876 0
M  V30 6794 C 1135.71 -3.64202 -6.65911 0
M  V30 6795 O 1135.92 -2.60694 -5.64732 0
M  V30 6796 C 1137.11 -3.93473 -7.1943 0
M  V30 6797 O 1137.5 -3.02071 -8.21205 0
M  V30 6798 C 1137.99 -3.73047 -5.97036 0
M  V30 6799 C 1137.28 -2.58828 -5.25741 0
M  V30 6800 N 1137.33 -2.68068 -3.77503 0
M  V30 6801 H 1134.49 -5.40332 -6.79951 0
M  V30 6802 H 1134.22 -4.41613 -5.32378 0
M  V30 6803 H 1135.09 -3.26331 -7.47797 0
M  V30 6804 P 1139.05 -2.75334 -8.47391 0
M  V30 6805 O 1139.27 -2.44595 -9.90239 0
M  V30 6806 O 1139.84 -3.87732 -7.92204 0
M  V30 6807 O 1139.3 -1.4459 -7.59357 0
M  V30 6808 C 1138.36 -0.347563 -7.69115 0
M  V30 6809 C 1139.09 0.96767 -7.52806 0
M  V30 6810 O 1139.3 1.21036 -6.1011 0
M  V30 6811 C 1140.49 1.04544 -8.13308 0
M  V30 6812 O 1140.88 2.38311 -8.41922 0
M  V30 6813 C 1141.37 0.491279 -7.02284 0
M  V30 6814 C 1140.66 0.996264 -5.77469 0
M  V30 6815 N 1140.71 0.0501808 -4.62873 0
M  V30 6816 C 1140.86 0.588177 -3.36904 0
M  V30 6817 O 1140.95 1.78598 -3.17173 0
M  V30 6818 N 1140.9 -0.329694 -2.33686 0
M  V30 6819 C 1140.81 -1.6953 -2.45079 0
M  V30 6820 O 1140.86 -2.41926 -1.44899 0
M  V30 6821 C 1140.66 -2.16933 -3.80505 0
M  V30 6822 C 1140.55 -3.65373 -3.97621 0
M  V30 6823 C 1140.61 -1.30326 -4.83752 0
M  V30 6824 H 1137.87 -0.374722 -8.67691 0
M  V30 6825 H 1137.6 -0.443421 -6.90177 0
M  V30 6826 H 1138.47 1.75537 -7.96793 0
M  V30 6827 H 1141.13 1.94496 -5.46629 0
M  V30 6828 H 1141.41 -0.608651 -7.04676 0
M  V30 6829 H 1142.4 0.889672 -7.08939 0
M  V30 6830 H 1140.56 0.43308 -9.04564 0
M  V30 6831 H 1140.49 -1.68366 -5.8516 0
M  V30 6832 H 1141.52 -4.05985 -4.30448 0
M  V30 6833 H 1139.79 -3.88028 -4.72875 0
M  V30 6834 H 1140.27 -4.11381 -3.01609 0
M  V30 6835 H 1141.01 0.0393617 -1.41345 0
M  V30 6836 P 1142.43 2.75334 -8.47391 0
M  V30 6837 O 1142.65 3.84128 -9.44797 0
M  V30 6838 O 1143.22 1.51947 -8.68712 0
M  V30 6839 O 1142.68 3.29363 -6.99321 0
M  V30 6840 C 1141.74 4.24011 -6.4274 0
M  V30 6841 C 1142.47 5.20775 -5.52155 0
M  V30 6842 O 1142.68 4.56534 -4.22446 0
M  V30 6843 C 1143.87 5.62629 -5.96531 0
M  V30 6844 O 1144.26 6.87667 -5.41053 0
M  V30 6845 C 1144.75 4.52537 -5.39283 0
M  V30 6846 C 1144.04 4.20027 -4.08623 0
M  V30 6847 N 1144.09 2.76189 -3.71603 0
M  V30 6848 H 1141.25 4.797 -7.24003 0
M  V30 6849 H 1140.98 3.69856 -5.84513 0
M  V30 6850 H 1141.85 6.10356 -5.41441 0
M  V30 6851 P 1145.81 7.20834 -5.23717 0
M  V30 6852 O 1146.03 8.66104 -5.38572 0
M  V30 6853 O 1146.6 6.33544 -6.1349 0
M  V30 6854 O 1146.06 6.7751 -3.72168 0
M  V30 6855 C 1145.12 7.20825 -2.7076 0
M  V30 6856 C 1145.85 7.45864 -1.40599 0
M  V30 6857 O 1146.06 6.17651 -0.734225 0
M  V30 6858 C 1147.25 8.05808 -1.51899 0
M  V30 6859 O 1147.64 8.74358 -0.335205 0
M  V30 6860 C 1148.13 6.83093 -1.70294 0
M  V30 6861 C 1147.42 5.79992 -0.836974 0
M  V30 6862 N 1147.47 4.41864 -1.38293 0
M  V30 6863 H 1144.63 8.13644 -3.0377 0
M  V30 6864 H 1144.36 6.42788 -2.55485 0
M  V30 6865 H 1145.23 8.12039 -0.792769 0
M  V30 6866 P 1149.19 8.91 8.91573e-12 0
M  V30 6867 O 1149.41 10.1746 0.733838 0
M  V30 6868 O 1149.98 8.73346 -1.23964 0
M  V30 6869 O 1149.44 7.66872 0.971405 0
M  V30 6870 C 1148.5 7.42405 2.04668 0
M  V30 6871 C 1149.23 6.86059 3.24661 0
M  V30 6872 O 1149.44 5.42934 3.03695 0
M  V30 6873 C 1150.63 7.41287 3.50796 0
M  V30 6874 O 1151.02 7.27073 4.86816 0
M  V30 6875 C 1151.51 6.5273 2.63741 0
M  V30 6876 C 1150.8 5.1842 2.73198 0
M  V30 6877 N 1150.85 4.38762 1.4784 0
M  V30 6878 C 1150.77 4.83651 0.183876 0
M  V30 6879 N 1150.84 3.88759 -0.699393 0
M  V30 6880 C 1150.99 2.7404 0.0575568 0
M  V30 6881 C 1151.12 1.37902 -0.293928 0
M  V30 6882 N 1151.13 0.938021 -1.54797 0
M  V30 6883 N 1151.24 0.491817 0.70549 0
M  V30 6884 C 1151.23 0.931735 1.95979 0
M  V30 6885 N 1151.11 2.16017 2.41481 0
M  V30 6886 C 1150.99 3.02547 1.39121 0
M  V30 6887 H 1148.02 8.36899 2.3252 0
M  V30 6888 H 1147.74 6.70391 1.71179 0
M  V30 6889 H 1148.61 7.03638 4.13219 0
M  V30 6890 H 1151.27 4.59931 3.54016 0
M  V30 6891 H 1151.55 6.88995 1.59871 0
M  V30 6892 H 1152.54 6.4684 3.0373 0
M  V30 6893 H 1150.7 8.47002 3.20749 0
M  V30 6894 H 1150.66 5.8885 -0.0765548 0
M  V30 6895 H 1151.04 1.60276 -2.32875 0
M  V30 6896 H 1151.23 -0.0699355 -1.73859 0
M  V30 6897 H 1151.34 0.165507 2.71897 0
M  V30 6898 P 1152.57 7.20834 5.23717 0
M  V30 6899 O 1152.79 7.80006 6.57415 0
M  V30 6900 O 1153.36 7.79416 4.13051 0
M  V30 6901 O 1152.82 5.63315 5.29344 0
M  V30 6902 C 1151.88 4.80318 6.01954 0
M  V30 6903 C 1152.61 3.64202 6.65911 0
M  V30 6904 O 1152.82 2.60736 5.64823 0
M  V30 6905 C 1154.01 3.93521 7.19518 0
M  V30 6906 O 1154.4 3.02071 8.21205 0
M  V30 6907 C 1154.89 3.73047 5.97036 0
M  V30 6908 C 1154.18 2.58828 5.25741 0
M  V30 6909 N 1154.23 2.68068 3.77503 0
M  V30 6910 H 1151.4 5.40394 6.8003 0
M  V30 6911 H 1151.12 4.41741 5.32532 0
M  V30 6912 H 1151.99 3.26371 7.47889 0
M  V30 6913 H 1154.65 1.64007 5.56746 0
M  V30 6914 H 1154.93 4.63439 5.3432 0
M  V30 6915 H 1155.92 3.44776 6.25925 0
M  V30 6916 H 1154.08 4.96707 7.57347 0
M  V30 6917 P 1155.95 2.75334 8.47391 0
M  V30 6918 O 1156.17 2.44571 9.90142 0
M  V30 6919 O 1156.74 3.87688 7.92115 0
M  V30 6920 O 1156.2 1.4459 7.59357 0
M  V30 6921 C 1155.26 0.347608 7.69215 0
M  V30 6922 C 1155.99 -0.96767 7.52806 0
M  V30 6923 O 1156.2 -1.21036 6.1011 0
M  V30 6924 C 1157.39 -1.04544 8.13308 0
M  V30 6925 O 1157.78 -2.38311 8.41922 0
M  V30 6926 C 1158.27 -0.491279 7.02284 0
M  V30 6927 C 1157.56 -0.996264 5.77469 0
M  V30 6928 N 1157.61 -0.0501916 4.62973 0
M  V30 6929 H 1154.77 0.374722 8.67691 0
M  V30 6930 H 1154.5 0.443485 6.90277 0
M  V30 6931 H 1155.37 -1.75537 7.96793 0
M  V30 6932 P 1159.33 -2.75334 8.47391 0
M  V30 6933 O 1159.55 -3.84204 9.44982 0
M  V30 6934 O 1160.12 -1.51982 8.68909 0
M  V30 6935 O 1159.58 -3.29363 6.99321 0
M  V30 6936 C 1158.64 -4.24066 6.42823 0
M  V30 6937 C 1159.37 -5.20775 5.52155 0
M  V30 6938 O 1159.58 -4.56607 4.22514 0
M  V30 6939 C 1160.77 -5.62697 5.96604 0
M  V30 6940 O 1161.16 -6.87667 5.41053 0
M  V30 6941 C 1161.65 -4.52537 5.39283 0
M  V30 6942 C 1160.94 -4.20027 4.08623 0
M  V30 6943 N 1160.99 -2.76189 3.71603 0
M  V30 6944 C 1160.91 -1.66944 4.54297 0
M  V30 6945 N 1160.98 -0.536169 3.91344 0
M  V30 6946 C 1161.13 -0.901569 2.58849 0
M  V30 6947 C 1161.26 -0.146599 1.40236 0
M  V30 6948 N 1161.27 1.18234 1.37046 0
M  V30 6949 N 1161.38 -0.822941 0.249738 0
M  V30 6950 C 1161.37 -2.15179 0.280525 0
M  V30 6951 N 1161.25 -2.96414 1.30822 0
M  V30 6952 C 1161.13 -2.25804 2.44748 0
M  V30 6953 H 1158.16 -4.79756 7.24086 0
M  V30 6954 H 1157.88 -3.69963 5.84682 0
M  V30 6955 H 1158.75 -6.10431 5.41508 0
M  V30 6956 H 1161.41 -4.78816 3.28024 0
M  V30 6957 H 1161.69 -3.64957 6.05871 0
M  V30 6958 H 1162.68 -4.88748 5.21323 0
M  V30 6959 H 1160.84 -5.66789 7.0643 0
M  V30 6960 H 1160.8 -1.74684 5.62396 0
M  V30 6961 H 1161.18 1.71949 2.24394 0
M  V30 6962 H 1161.37 1.67511 0.470742 0
M  V30 6963 H 1161.48 -2.63704 -0.6828 0
M  V30 6964 P 1162.71 -7.20834 5.23717 0
M  V30 6965 O 1162.93 -8.66104 5.38572 0
M  V30 6966 O 1163.5 -6.33544 6.1349 0
M  V30 6967 O 1162.96 -6.7751 3.72168 0
M  V30 6968 C 1162.02 -7.20825 2.7076 0
M  V30 6969 C 1162.75 -7.45864 1.40599 0
M  V30 6970 O 1162.96 -6.17651 0.734225 0
M  V30 6971 C 1164.15 -8.05808 1.51899 0
M  V30 6972 O 1164.54 -8.74358 0.335205 0
M  V30 6973 C 1165.03 -6.83093 1.70294 0
M  V30 6974 C 1164.32 -5.79992 0.836974 0
M  V30 6975 N 1164.37 -4.41864 1.38293 0
M  V30 6976 H 1161.53 -8.13644 3.0377 0
M  V30 6977 H 1161.26 -6.42788 2.55485 0
M  V30 6978 H 1162.13 -8.12039 0.792769 0
M  V30 6979 P 1166.09 -8.91 -9.07291e-12 0
M  V30 6980 O 1166.31 -10.1726 -0.733694 0
M  V30 6981 O 1166.88 -8.73148 1.23936 0
M  V30 6982 O 1166.34 -7.66872 -0.971405 0
M  V30 6983 C 1165.4 -7.42309 -2.04641 0
M  V30 6984 C 1166.13 -6.86059 -3.24661 0
M  V30 6985 O 1166.34 -5.42847 -3.03646 0
M  V30 6986 C 1167.53 -7.41196 -3.50753 0
M  V30 6987 O 1167.92 -7.27073 -4.86816 0
M  V30 6988 C 1168.41 -6.5273 -2.63741 0
M  V30 6989 C 1167.7 -5.1842 -2.73198 0
M  V30 6990 N 1167.75 -4.38762 -1.4784 0
M  V30 6991 H 1164.91 -8.36803 -2.32493 0
M  V30 6992 H 1164.64 -6.70197 -1.71129 0
M  V30 6993 H 1165.51 -7.03551 -4.13168 0
M  V30 6994 P 1169.47 -7.20834 -5.23717 0
M  V30 6995 O 1169.69 -7.79853 -6.57286 0
M  V30 6996 O 1170.26 -7.79239 -4.12957 0
M  V30 6997 O 1169.72 -5.63315 -5.29344 0
M  V30 6998 C 1168.78 -4.80255 -6.01876 0
M  V30 6999 C 1169.51 -3.64202 -6.65911 0
M  V30 7000 O 1169.72 -2.60694 -5.64732 0
M  V30 7001 C 1170.91 -3.93473 -7.1943 0
M  V30 7002 O 1171.3 -3.02071 -8.21205 0
M  V30 7003 C 1171.79 -3.73047 -5.97036 0
M  V30 7004 C 1171.08 -2.58828 -5.25741 0
M  V30 7005 N 1171.13 -2.68068 -3.77503 0
M  V30 7006 H 1168.29 -5.40332 -6.79951 0
M  V30 7007 H 1168.02 -4.41613 -5.32378 0
M  V30 7008 H 1168.89 -3.26331 -7.47797 0
M  V30 7009 P 1172.85 -2.75334 -8.47391 0
M  V30 7010 O 1173.07 -2.44571 -9.90142 0
M  V30 7011 O 1173.64 -3.87688 -7.92115 0
M  V30 7012 O 1173.1 -1.4459 -7.59357 0
M  V30 7013 C 1172.16 -0.347608 -7.69215 0
M  V30 7014 C 1172.89 0.96767 -7.52806 0
M  V30 7015 O 1173.1 1.21036 -6.1011 0
M  V30 7016 C 1174.29 1.04544 -8.13308 0
M  V30 7017 O 1174.68 2.38311 -8.41922 0
M  V30 7018 C 1175.17 0.491279 -7.02284 0
M  V30 7019 C 1174.46 0.996264 -5.77469 0
M  V30 7020 N 1174.51 0.0501916 -4.62973 0
M  V30 7021 H 1171.67 -0.374722 -8.67691 0
M  V30 7022 H 1171.4 -0.443485 -6.90277 0
M  V30 7023 H 1172.27 1.75537 -7.96793 0
M  V30 7024 P 1176.23 2.75334 -8.47391 0
M  V30 7025 O 1176.45 3.84204 -9.44982 0
M  V30 7026 O 1177.02 1.51982 -8.68909 0
M  V30 7027 O 1176.48 3.29363 -6.99321 0
M  V30 7028 C 1175.54 4.24066 -6.42823 0
M  V30 7029 C 1176.27 5.20775 -5.52155 0
M  V30 7030 O 1176.48 4.56607 -4.22514 0
M  V30 7031 C 1177.67 5.62697 -5.96604 0
M  V30 7032 O 1178.06 6.87667 -5.41053 0
M  V30 7033 C 1178.55 4.52537 -5.39283 0
M  V30 7034 C 1177.84 4.20027 -4.08623 0
M  V30 7035 N 1177.89 2.76189 -3.71603 0
M  V30 7036 C 1177.81 1.66944 -4.54297 0
M  V30 7037 N 1177.88 0.536169 -3.91344 0
M  V30 7038 C 1178.03 0.901569 -2.58849 0
M  V30 7039 C 1178.16 0.146599 -1.40236 0
M  V30 7040 N 1178.17 -1.18234 -1.37046 0
M  V30 7041 N 1178.28 0.822941 -0.249738 0
M  V30 7042 C 1178.27 2.15179 -0.280525 0
M  V30 7043 N 1178.15 2.96414 -1.30822 0
M  V30 7044 C 1178.03 2.25804 -2.44748 0
M  V30 7045 H 1175.06 4.79756 -7.24086 0
M  V30 7046 H 1174.78 3.69963 -5.84682 0
M  V30 7047 H 1175.65 6.10431 -5.41508 0
M  V30 7048 H 1178.31 4.78816 -3.28024 0
M  V30 7049 H 1178.59 3.64957 -6.05871 0
M  V30 7050 H 1179.58 4.88748 -5.21323 0
M  V30 7051 H 1177.74 5.66789 -7.0643 0
M  V30 7052 H 1177.7 1.74684 -5.62396 0
M  V30 7053 H 1178.08 -1.71949 -2.24394 0
M  V30 7054 H 1178.27 -1.67511 -0.470742 0
M  V30 7055 H 1178.38 2.63704 0.6828 0
M  V30 7056 P 1179.61 7.20834 -5.23717 0
M  V30 7057 O 1179.83 8.66104 -5.38572 0
M  V30 7058 O 1180.4 6.33544 -6.1349 0
M  V30 7059 O 1179.86 6.7751 -3.72168 0
M  V30 7060 C 1178.92 7.20825 -2.7076 0
M  V30 7061 C 1179.65 7.45864 -1.40599 0
M  V30 7062 O 1179.86 6.17651 -0.734225 0
M  V30 7063 C 1181.05 8.05808 -1.51899 0
M  V30 7064 O 1181.44 8.74358 -0.335205 0
M  V30 7065 C 1181.93 6.83093 -1.70294 0
M  V30 7066 C 1181.22 5.79992 -0.836974 0
M  V30 7067 N 1181.27 4.41864 -1.38293 0
M  V30 7068 H 1178.43 8.13644 -3.0377 0
M  V30 7069 H 1178.16 6.42788 -2.55485 0
M  V30 7070 H 1179.03 8.12039 -0.792769 0
M  V30 7071 P 1182.99 8.91 9.23009e-12 0
M  V30 7072 O 1183.21 10.1726 0.733694 0
M  V30 7073 O 1183.78 8.73148 -1.23936 0
M  V30 7074 O 1183.24 7.66872 0.971405 0
M  V30 7075 C 1182.3 7.42309 2.04641 0
M  V30 7076 C 1183.03 6.86059 3.24661 0
M  V30 7077 O 1183.24 5.42847 3.03646 0
M  V30 7078 C 1184.43 7.41196 3.50753 0
M  V30 7079 O 1184.82 7.27073 4.86816 0
M  V30 7080 C 1185.31 6.5273 2.63741 0
M  V30 7081 C 1184.6 5.1842 2.73198 0
M  V30 7082 N 1184.65 4.38762 1.4784 0
M  V30 7083 H 1181.81 8.36803 2.32493 0
M  V30 7084 H 1181.54 6.70197 1.71129 0
M  V30 7085 H 1182.41 7.03551 4.13168 0
M  V30 7086 P 1186.37 7.20834 5.23717 0
M  V30 7087 O 1186.59 7.79853 6.57286 0
M  V30 7088 O 1187.16 7.79239 4.12957 0
M  V30 7089 O 1186.62 5.63315 5.29344 0
M  V30 7090 C 1185.68 4.80255 6.01876 0
M  V30 7091 C 1186.41 3.64202 6.65911 0
M  V30 7092 O 1186.62 2.60694 5.64732 0
M  V30 7093 C 1187.81 3.93473 7.1943 0
M  V30 7094 O 1188.2 3.02071 8.21205 0
M  V30 7095 C 1188.69 3.73047 5.97036 0
M  V30 7096 C 1187.98 2.58828 5.25741 0
M  V30 7097 N 1188.03 2.68068 3.77503 0
M  V30 7098 H 1185.19 5.40332 6.79951 0
M  V30 7099 H 1184.92 4.41613 5.32378 0
M  V30 7100 H 1185.79 3.26331 7.47797 0
M  V30 7101 P 1189.75 2.75334 8.47391 0
M  V30 7102 O 1189.97 2.44619 9.90336 0
M  V30 7103 O 1190.54 3.87776 7.92294 0
M  V30 7104 O 1190 1.4459 7.59357 0
M  V30 7105 C 1189.06 0.347653 7.69315 0
M  V30 7106 C 1189.79 -0.96767 7.52806 0
M  V30 7107 O 1190 -1.21055 6.10208 0
M  V30 7108 C 1191.19 -1.04557 8.13408 0
M  V30 7109 O 1191.58 -2.38311 8.41922 0
M  V30 7110 C 1192.07 -0.491279 7.02284 0
M  V30 7111 C 1191.36 -0.996264 5.77469 0
M  V30 7112 N 1191.41 -0.0501916 4.62973 0
M  V30 7113 C 1191.33 1.31969 4.65661 0
M  V30 7114 N 1191.4 1.86649 3.48119 0
M  V30 7115 C 1191.55 0.792089 2.62406 0
M  V30 7116 C 1191.68 0.705684 1.2207 0
M  V30 7117 N 1191.69 1.76207 0.413762 0
M  V30 7118 N 1191.8 -0.518981 0.685754 0
M  V30 7119 C 1191.79 -1.57595 1.49174 0
M  V30 7120 N 1191.67 -1.62909 2.80066 0
M  V30 7121 C 1191.55 -0.388195 3.3073 0
M  V30 7122 H 1188.57 0.374765 8.67791 0
M  V30 7123 H 1188.3 0.443613 6.90476 0
M  V30 7124 H 1189.17 -1.75559 7.96891 0
M  V30 7125 H 1191.83 -1.94563 5.46818 0
M  V30 7126 H 1192.11 0.608651 7.04676 0
M  V30 7127 H 1193.1 -0.889796 7.09039 0
M  V30 7128 H 1191.26 -0.433128 9.04664 0
M  V30 7129 H 1191.22 1.89246 5.57664 0
M  V30 7130 H 1191.6 2.71005 0.804694 0
M  V30 7131 H 1191.79 1.63189 -0.603768 0
M  V30 7132 H 1191.9 -2.53475 0.997614 0
M  V30 7133 P 1193.13 -2.75334 8.47391 0
M  V30 7134 O 1193.35 -3.84128 9.44797 0
M  V30 7135 O 1193.92 -1.51947 8.68712 0
M  V30 7136 O 1193.38 -3.29363 6.99321 0
M  V30 7137 C 1192.44 -4.24011 6.4274 0
M  V30 7138 C 1193.17 -5.20775 5.52155 0
M  V30 7139 O 1193.38 -4.56534 4.22446 0
M  V30 7140 C 1194.57 -5.62629 5.96531 0
M  V30 7141 O 1194.96 -6.87667 5.41053 0
M  V30 7142 C 1195.45 -4.52537 5.39283 0
M  V30 7143 C 1194.74 -4.20027 4.08623 0
M  V30 7144 N 1194.79 -2.76189 3.71603 0
M  V30 7145 H 1191.95 -4.797 7.24003 0
M  V30 7146 H 1191.68 -3.69856 5.84513 0
M  V30 7147 H 1192.55 -6.10356 5.41441 0
M  V30 7148 P 1196.51 -7.20834 5.23717 0
M  V30 7149 O 1196.73 -8.66104 5.38572 0
M  V30 7150 O 1197.3 -6.33544 6.1349 0
M  V30 7151 O 1196.76 -6.7751 3.72168 0
M  V30 7152 C 1195.82 -7.20825 2.7076 0
M  V30 7153 C 1196.55 -7.45864 1.40599 0
M  V30 7154 O 1196.76 -6.17651 0.734225 0
M  V30 7155 C 1197.95 -8.05808 1.51899 0
M  V30 7156 O 1198.34 -8.74358 0.335205 0
M  V30 7157 C 1198.83 -6.83093 1.70294 0
M  V30 7158 C 1198.12 -5.79992 0.836974 0
M  V30 7159 N 1198.17 -4.41864 1.38293 0
M  V30 7160 H 1195.33 -8.13644 3.0377 0
M  V30 7161 H 1195.06 -6.42788 2.55485 0
M  V30 7162 H 1195.93 -8.12039 0.792769 0
M  V30 7163 P 1199.89 -8.91 -9.38728e-12 0
M  V30 7164 O 1200.11 -10.1736 -0.733766 0
M  V30 7165 O 1200.68 -8.73247 1.2395 0
M  V30 7166 O 1200.14 -7.66872 -0.971405 0
M  V30 7167 C 1199.2 -7.42212 -2.04614 0
M  V30 7168 C 1199.93 -6.86059 -3.24661 0
M  V30 7169 O 1200.14 -5.42847 -3.03646 0
M  V30 7170 C 1201.33 -7.41196 -3.50753 0
M  V30 7171 O 1201.72 -7.27073 -4.86816 0
M  V30 7172 C 1202.21 -6.5273 -2.63741 0
M  V30 7173 C 1201.5 -5.1842 -2.73198 0
M  V30 7174 N 1201.55 -4.38668 -1.47808 0
M  V30 7175 C 1201.7 -3.02239 -1.60048 0
M  V30 7176 O 1201.79 -2.46459 -2.67869 0
M  V30 7177 N 1201.74 -2.32436 -0.408571 0
M  V30 7178 C 1201.65 -2.85471 0.854993 0
M  V30 7179 O 1201.7 -2.12566 1.8531 0
M  V30 7180 C 1201.5 -4.28918 0.887335 0
M  V30 7181 C 1201.39 -4.91066 2.24619 0
M  V30 7182 C 1201.45 -5.00349 -0.255399 0
M  V30 7183 H 1198.71 -8.36803 -2.32493 0
M  V30 7184 H 1198.44 -6.701 -1.71105 0
M  V30 7185 H 1199.31 -7.03551 -4.13168 0
M  V30 7186 H 1201.97 -4.59773 -3.53894 0
M  V30 7187 H 1202.24 -6.88995 -1.59871 0
M  V30 7188 H 1203.24 -6.46749 -3.03687 0
M  V30 7189 H 1201.4 -8.46908 -3.20714 0
M  V30 7190 H 1201.33 -6.08548 -0.206986 0
M  V30 7191 H 1202.36 -5.34836 2.53099 0
M  V30 7192 H 1200.62 -5.69638 2.2291 0
M  V30 7193 H 1201.11 -4.13971 2.98044 0
M  V30 7194 H 1201.85 -1.33211 -0.474216 0
M  V30 7195 P 1203.27 -7.20834 -5.23717 0
M  V30 7196 O 1203.49 -7.79853 -6.57286 0
M  V30 7197 O 1204.06 -7.79239 -4.12957 0
M  V30 7198 O 1203.52 -5.63315 -5.29344 0
M  V30 7199 C 1202.58 -4.80255 -6.01876 0
M  V30 7200 C 1203.31 -3.64202 -6.65911 0
M  V30 7201 O 1203.52 -2.60694 -5.64732 0
M  V30 7202 C 1204.71 -3.93473 -7.1943 0
M  V30 7203 O 1205.1 -3.02071 -8.21205 0
M  V30 7204 C 1205.59 -3.73047 -5.97036 0
M  V30 7205 C 1204.88 -2.58828 -5.25741 0
M  V30 7206 N 1204.93 -2.68068 -3.77503 0
M  V30 7207 H 1202.09 -5.40332 -6.79951 0
M  V30 7208 H 1201.82 -4.41613 -5.32378 0
M  V30 7209 H 1202.69 -3.26331 -7.47797 0
M  V30 7210 P 1206.65 -2.75334 -8.47391 0
M  V30 7211 O 1206.87 -2.44595 -9.90239 0
M  V30 7212 O 1207.44 -3.87732 -7.92204 0
M  V30 7213 O 1206.9 -1.4459 -7.59357 0
M  V30 7214 C 1205.96 -0.347563 -7.69115 0
M  V30 7215 C 1206.69 0.96767 -7.52806 0
M  V30 7216 O 1206.9 1.21036 -6.1011 0
M  V30 7217 C 1208.09 1.04544 -8.13308 0
M  V30 7218 O 1208.48 2.38311 -8.41922 0
M  V30 7219 C 1208.97 0.491279 -7.02284 0
M  V30 7220 C 1208.26 0.996264 -5.77469 0
M  V30 7221 N 1208.31 0.0501808 -4.62873 0
M  V30 7222 C 1208.46 0.588177 -3.36904 0
M  V30 7223 O 1208.55 1.78598 -3.17173 0
M  V30 7224 N 1208.5 -0.329694 -2.33686 0
M  V30 7225 C 1208.41 -1.6953 -2.45079 0
M  V30 7226 O 1208.46 -2.41926 -1.44899 0
M  V30 7227 C 1208.26 -2.16933 -3.80505 0
M  V30 7228 C 1208.15 -3.65373 -3.97621 0
M  V30 7229 C 1208.21 -1.30326 -4.83752 0
M  V30 7230 H 1205.47 -0.374722 -8.67691 0
M  V30 7231 H 1205.2 -0.443421 -6.90177 0
M  V30 7232 H 1206.07 1.75537 -7.96793 0
M  V30 7233 H 1208.73 1.94496 -5.46629 0
M  V30 7234 H 1209 -0.608651 -7.04676 0
M  V30 7235 H 1210 0.889672 -7.08939 0
M  V30 7236 H 1208.16 0.43308 -9.04564 0
M  V30 7237 H 1208.09 -1.68366 -5.8516 0
M  V30 7238 H 1209.12 -4.05985 -4.30448 0
M  V30 7239 H 1207.38 -3.88028 -4.72875 0
M  V30 7240 H 1207.87 -4.11381 -3.01609 0
M  V30 7241 H 1208.61 0.0393617 -1.41345 0
M  V30 7242 P 1210.03 2.75334 -8.47391 0
M  V30 7243 O 1210.25 3.84128 -9.44797 0
M  V30 7244 O 1210.82 1.51947 -8.68712 0
M  V30 7245 O 1210.28 3.29363 -6.99321 0
M  V30 7246 C 1209.34 4.24011 -6.4274 0
M  V30 7247 C 1210.07 5.20775 -5.52155 0
M  V30 7248 O 1210.28 4.56534 -4.22446 0
M  V30 7249 C 1211.47 5.62629 -5.96531 0
M  V30 7250 O 1211.86 6.87667 -5.41053 0
M  V30 7251 C 1212.35 4.52537 -5.39283 0
M  V30 7252 C 1211.64 4.20027 -4.08623 0
M  V30 7253 N 1211.69 2.76189 -3.71603 0
M  V30 7254 H 1208.85 4.797 -7.24003 0
M  V30 7255 H 1208.58 3.69856 -5.84513 0
M  V30 7256 H 1209.45 6.10356 -5.41441 0
M  V30 7257 P 1213.41 7.20834 -5.23717 0
M  V30 7258 O 1213.63 8.66104 -5.38572 0
M  V30 7259 O 1214.2 6.33544 -6.1349 0
M  V30 7260 O 1213.66 6.7751 -3.72168 0
M  V30 7261 C 1212.72 7.20825 -2.7076 0
M  V30 7262 C 1213.45 7.45864 -1.40599 0
M  V30 7263 O 1213.66 6.17651 -0.734225 0
M  V30 7264 C 1214.85 8.05808 -1.51899 0
M  V30 7265 O 1215.24 8.74358 -0.335205 0
M  V30 7266 C 1215.73 6.83093 -1.70294 0
M  V30 7267 C 1215.02 5.79992 -0.836974 0
M  V30 7268 N 1215.07 4.41864 -1.38293 0
M  V30 7269 H 1212.23 8.13644 -3.0377 0
M  V30 7270 H 1211.96 6.42788 -2.55485 0
M  V30 7271 H 1212.83 8.12039 -0.792769 0
M  V30 7272 P 1216.79 8.91 9.54446e-12 0
M  V30 7273 O 1217.01 10.1726 0.733694 0
M  V30 7274 O 1217.58 8.73148 -1.23936 0
M  V30 7275 O 1217.04 7.66872 0.971405 0
M  V30 7276 C 1216.1 7.42309 2.04641 0
M  V30 7277 C 1216.83 6.86059 3.24661 0
M  V30 7278 O 1217.04 5.42847 3.03646 0
M  V30 7279 C 1218.23 7.41196 3.50753 0
M  V30 7280 O 1218.62 7.27073 4.86816 0
M  V30 7281 C 1219.11 6.5273 2.63741 0
M  V30 7282 C 1218.4 5.1842 2.73198 0
M  V30 7283 N 1218.45 4.38762 1.4784 0
M  V30 7284 H 1215.61 8.36803 2.32493 0
M  V30 7285 H 1215.34 6.70197 1.71129 0
M  V30 7286 H 1216.21 7.03551 4.13168 0
M  V30 7287 P 1220.17 7.20834 5.23717 0
M  V30 7288 O 1220.39 7.79853 6.57286 0
M  V30 7289 O 1220.96 7.79239 4.12957 0
M  V30 7290 O 1220.42 5.63315 5.29344 0
M  V30 7291 C 1219.48 4.80255 6.01876 0
M  V30 7292 C 1220.21 3.64202 6.65911 0
M  V30 7293 O 1220.42 2.60694 5.64732 0
M  V30 7294 C 1221.61 3.93473 7.1943 0
M  V30 7295 O 1222 3.02071 8.21205 0
M  V30 7296 C 1222.49 3.73047 5.97036 0
M  V30 7297 C 1221.78 2.58828 5.25741 0
M  V30 7298 N 1221.83 2.68068 3.77503 0
M  V30 7299 H 1218.99 5.40332 6.79951 0
M  V30 7300 H 1218.72 4.41613 5.32378 0
M  V30 7301 H 1219.59 3.26331 7.47797 0
M  V30 7302 P 1223.55 2.75334 8.47391 0
M  V30 7303 O 1223.77 2.44571 9.90142 0
M  V30 7304 O 1224.34 3.87688 7.92115 0
M  V30 7305 O 1223.8 1.4459 7.59357 0
M  V30 7306 C 1222.86 0.347608 7.69215 0
M  V30 7307 C 1223.59 -0.96767 7.52806 0
M  V30 7308 O 1223.8 -1.21036 6.1011 0
M  V30 7309 C 1224.99 -1.04544 8.13308 0
M  V30 7310 O 1225.38 -2.38311 8.41922 0
M  V30 7311 C 1225.87 -0.491279 7.02284 0
M  V30 7312 C 1225.16 -0.996264 5.77469 0
M  V30 7313 N 1225.21 -0.0501916 4.62973 0
M  V30 7314 H 1222.37 0.374722 8.67691 0
M  V30 7315 H 1222.1 0.443485 6.90277 0
M  V30 7316 H 1222.97 -1.75537 7.96793 0
M  V30 7317 P 1226.93 -2.75334 8.47391 0
M  V30 7318 O 1227.15 -3.84128 9.44797 0
M  V30 7319 O 1227.72 -1.51947 8.68712 0
M  V30 7320 O 1227.18 -3.29363 6.99321 0
M  V30 7321 C 1226.24 -4.24011 6.4274 0
M  V30 7322 C 1226.97 -5.20775 5.52155 0
M  V30 7323 O 1227.18 -4.56534 4.22446 0
M  V30 7324 C 1228.37 -5.62629 5.96531 0
M  V30 7325 O 1228.76 -6.87667 5.41053 0
M  V30 7326 C 1229.25 -4.52537 5.39283 0
M  V30 7327 C 1228.54 -4.20027 4.08623 0
M  V30 7328 N 1228.59 -2.76189 3.71603 0
M  V30 7329 H 1225.75 -4.797 7.24003 0
M  V30 7330 H 1225.48 -3.69856 5.84513 0
M  V30 7331 H 1226.35 -6.10356 5.41441 0
M  V30 7332 P 1230.31 -7.20834 5.23717 0
M  V30 7333 O 1230.53 -8.66104 5.38572 0
M  V30 7334 O 1231.1 -6.33544 6.1349 0
M  V30 7335 O 1230.56 -6.7751 3.72168 0
M  V30 7336 C 1229.62 -7.20825 2.7076 0
M  V30 7337 C 1230.35 -7.45864 1.40599 0
M  V30 7338 O 1230.56 -6.17651 0.734225 0
M  V30 7339 C 1231.75 -8.05808 1.51899 0
M  V30 7340 O 1232.14 -8.74358 0.335205 0
M  V30 7341 C 1232.63 -6.83093 1.70294 0
M  V30 7342 C 1231.92 -5.79992 0.836974 0
M  V30 7343 N 1231.97 -4.41864 1.38293 0
M  V30 7344 H 1229.13 -8.13644 3.0377 0
M  V30 7345 H 1228.86 -6.42788 2.55485 0
M  V30 7346 H 1229.73 -8.12039 0.792769 0
M  V30 7347 P 1233.69 -8.91 -9.70164e-12 0
M  V30 7348 O 1233.91 -10.1746 -0.733838 0
M  V30 7349 O 1234.48 -8.73346 1.23964 0
M  V30 7350 O 1233.94 -7.66872 -0.971405 0
M  V30 7351 C 1233 -7.42405 -2.04668 0
M  V30 7352 C 1233.73 -6.86059 -3.24661 0
M  V30 7353 O 1233.94 -5.42934 -3.03695 0
M  V30 7354 C 1235.13 -7.41287 -3.50796 0
M  V30 7355 O 1235.52 -7.27073 -4.86816 0
M  V30 7356 C 1236.01 -6.5273 -2.63741 0
M  V30 7357 C 1235.3 -5.1842 -2.73198 0
M  V30 7358 N 1235.35 -4.38762 -1.4784 0
M  V30 7359 C 1235.27 -4.83651 -0.183876 0
M  V30 7360 N 1235.34 -3.88759 0.699393 0
M  V30 7361 C 1235.49 -2.7404 -0.0575568 0
M  V30 7362 C 1235.62 -1.37902 0.293928 0
M  V30 7363 N 1235.63 -0.938021 1.54797 0
M  V30 7364 N 1235.74 -0.491817 -0.70549 0
M  V30 7365 C 1235.73 -0.931735 -1.95979 0
M  V30 7366 N 1235.61 -2.16017 -2.41481 0
M  V30 7367 C 1235.49 -3.02547 -1.39121 0
M  V30 7368 H 1232.51 -8.36899 -2.3252 0
M  V30 7369 H 1232.24 -6.70391 -1.71179 0
M  V30 7370 H 1233.11 -7.03638 -4.13219 0
M  V30 7371 H 1235.77 -4.59931 -3.54016 0
M  V30 7372 H 1236.05 -6.88995 -1.59871 0
M  V30 7373 H 1237.04 -6.4684 -3.0373 0
M  V30 7374 H 1235.2 -8.47002 -3.20749 0
M  V30 7375 H 1235.16 -5.8885 0.0765548 0
M  V30 7376 H 1235.54 -1.60276 2.32875 0
M  V30 7377 H 1235.73 0.0699355 1.73859 0
M  V30 7378 H 1235.84 -0.165507 -2.71897 0
M  V30 7379 P 1237.07 -7.20834 -5.23717 0
M  V30 7380 O 1237.29 -7.79853 -6.57286 0
M  V30 7381 O 1237.86 -7.79239 -4.12957 0
M  V30 7382 O 1237.32 -5.63315 -5.29344 0
M  V30 7383 C 1236.38 -4.80255 -6.01876 0
M  V30 7384 C 1237.11 -3.64202 -6.65911 0
M  V30 7385 O 1237.32 -2.60694 -5.64732 0
M  V30 7386 C 1238.51 -3.93473 -7.1943 0
M  V30 7387 O 1238.9 -3.02071 -8.21205 0
M  V30 7388 C 1239.39 -3.73047 -5.97036 0
M  V30 7389 C 1238.68 -2.58828 -5.25741 0
M  V30 7390 N 1238.73 -2.68068 -3.77503 0
M  V30 7391 H 1235.89 -5.40332 -6.79951 0
M  V30 7392 H 1235.62 -4.41613 -5.32378 0
M  V30 7393 H 1236.49 -3.26331 -7.47797 0
M  V30 7394 P 1240.45 -2.75334 -8.47391 0
M  V30 7395 O 1240.67 -2.44571 -9.90142 0
M  V30 7396 O 1241.24 -3.87688 -7.92115 0
M  V30 7397 O 1240.7 -1.4459 -7.59357 0
M  V30 7398 C 1239.76 -0.347608 -7.69215 0
M  V30 7399 C 1240.49 0.96767 -7.52806 0
M  V30 7400 O 1240.7 1.21036 -6.1011 0
M  V30 7401 C 1241.89 1.04544 -8.13308 0
M  V30 7402 O 1242.28 2.38311 -8.41922 0
M  V30 7403 C 1242.77 0.491279 -7.02284 0
M  V30 7404 C 1242.06 0.996264 -5.77469 0
M  V30 7405 N 1242.11 0.0501916 -4.62973 0
M  V30 7406 H 1239.27 -0.374722 -8.67691 0
M  V30 7407 H 1239 -0.443485 -6.90277 0
M  V30 7408 H 1239.87 1.75537 -7.96793 0
M  V30 7409 P 1243.83 2.75334 -8.47391 0
M  V30 7410 O 1244.05 3.84128 -9.44797 0
M  V30 7411 O 1244.62 1.51947 -8.68712 0
M  V30 7412 O 1244.08 3.29363 -6.99321 0
M  V30 7413 C 1243.14 4.24011 -6.4274 0
M  V30 7414 C 1243.87 5.20775 -5.52155 0
M  V30 7415 O 1244.08 4.56534 -4.22446 0
M  V30 7416 C 1245.27 5.62629 -5.96531 0
M  V30 7417 O 1245.66 6.87667 -5.41053 0
M  V30 7418 C 1246.15 4.52537 -5.39283 0
M  V30 7419 C 1245.44 4.20027 -4.08623 0
M  V30 7420 N 1245.49 2.76189 -3.71603 0
M  V30 7421 H 1242.65 4.797 -7.24003 0
M  V30 7422 H 1242.38 3.69856 -5.84513 0
M  V30 7423 H 1243.25 6.10356 -5.41441 0
M  V30 7424 P 1247.21 7.20834 -5.23717 0
M  V30 7425 O 1247.43 8.66104 -5.38572 0
M  V30 7426 O 1248 6.33544 -6.1349 0
M  V30 7427 O 1247.46 6.7751 -3.72168 0
M  V30 7428 C 1246.52 7.20825 -2.7076 0
M  V30 7429 C 1247.25 7.45864 -1.40599 0
M  V30 7430 O 1247.46 6.17651 -0.734225 0
M  V30 7431 C 1248.65 8.05808 -1.51899 0
M  V30 7432 O 1249.04 8.74358 -0.335205 0
M  V30 7433 C 1249.53 6.83093 -1.70294 0
M  V30 7434 C 1248.82 5.79992 -0.836974 0
M  V30 7435 N 1248.87 4.41864 -1.38293 0
M  V30 7436 C 1248.79 3.99538 -2.69438 0
M  V30 7437 N 1248.87 2.69909 -2.84277 0
M  V30 7438 C 1249.01 2.21719 -1.5408 0
M  V30 7439 C 1249.14 0.891712 -1.06628 0
M  V30 7440 O 1249.16 -0.161298 -1.70137 0
M  V30 7441 N 1249.26 0.856846 0.334985 0
M  V30 7442 C 1249.26 1.9641 1.15789 0
M  V30 7443 N 1249.39 1.72708 2.46522 0
M  V30 7444 N 1249.13 3.21165 0.713741 0
M  V30 7445 C 1249.01 3.26797 -0.639748 0
M  V30 7446 H 1246.03 8.13644 -3.0377 0
M  V30 7447 H 1245.76 6.42788 -2.55485 0
M  V30 7448 H 1246.63 8.12039 -0.792769 0
M  V30 7449 H 1249.29 5.80061 0.166416 0
M  V30 7450 H 1249.56 6.51287 -2.75604 0
M  V30 7451 H 1250.56 7.01734 -1.34462 0
M  V30 7452 H 1248.72 8.73674 -2.38337 0
M  V30 7453 H 1248.67 4.68207 -3.53221 0
M  V30 7454 H 1249.36 -0.0398818 0.767965 0
M  V30 7455 H 1249.39 2.50995 3.13503 0
M  V30 7456 H 1249.49 0.759148 2.80716 0
M  V30 7457 P 1250.59 8.91 9.85882e-12 0
M  V30 7458 O 1250.81 10.1726 0.733694 0
M  V30 7459 O 1251.38 8.73148 -1.23936 0
M  V30 7460 O 1250.84 7.66872 0.971405 0
M  V30 7461 C 1249.9 7.42309 2.04641 0
M  V30 7462 C 1250.63 6.86059 3.24661 0
M  V30 7463 O 1250.84 5.42847 3.03646 0
M  V30 7464 C 1252.03 7.41196 3.50753 0
M  V30 7465 O 1252.42 7.27073 4.86816 0
M  V30 7466 C 1252.91 6.5273 2.63741 0
M  V30 7467 C 1252.2 5.1842 2.73198 0
M  V30 7468 N 1252.25 4.38762 1.4784 0
M  V30 7469 H 1249.41 8.36803 2.32493 0
M  V30 7470 H 1249.14 6.70197 1.71129 0
M  V30 7471 H 1250.01 7.03551 4.13168 0
M  V30 7472 P 1253.97 7.20834 5.23717 0
M  V30 7473 O 1254.19 7.79853 6.57286 0
M  V30 7474 O 1254.76 7.79239 4.12957 0
M  V30 7475 O 1254.22 5.63315 5.29344 0
M  V30 7476 C 1253.28 4.80255 6.01876 0
M  V30 7477 C 1254.01 3.64202 6.65911 0
M  V30 7478 O 1254.22 2.60694 5.64732 0
M  V30 7479 C 1255.41 3.93473 7.1943 0
M  V30 7480 O 1255.8 3.02071 8.21205 0
M  V30 7481 C 1256.29 3.73047 5.97036 0
M  V30 7482 C 1255.58 2.58828 5.25741 0
M  V30 7483 N 1255.63 2.68068 3.77503 0
M  V30 7484 H 1252.79 5.40332 6.79951 0
M  V30 7485 H 1252.52 4.41613 5.32378 0
M  V30 7486 H 1253.39 3.26331 7.47797 0
M  V30 7487 P 1257.35 2.75334 8.47391 0
M  V30 7488 O 1257.57 2.44571 9.90142 0
M  V30 7489 O 1258.14 3.87688 7.92115 0
M  V30 7490 O 1257.6 1.4459 7.59357 0
M  V30 7491 C 1256.66 0.347608 7.69215 0
M  V30 7492 C 1257.39 -0.96767 7.52806 0
M  V30 7493 O 1257.6 -1.21036 6.1011 0
M  V30 7494 C 1258.79 -1.04544 8.13308 0
M  V30 7495 O 1259.18 -2.38311 8.41922 0
M  V30 7496 C 1259.67 -0.491279 7.02284 0
M  V30 7497 C 1258.96 -0.996264 5.77469 0
M  V30 7498 N 1259.01 -0.0501916 4.62973 0
M  V30 7499 H 1256.17 0.374722 8.67691 0
M  V30 7500 H 1255.9 0.443485 6.90277 0
M  V30 7501 H 1256.77 -1.75537 7.96793 0
M  V30 7502 P 1260.73 -2.75334 8.47391 0
M  V30 7503 O 1260.95 -3.84204 9.44982 0
M  V30 7504 O 1261.52 -1.51982 8.68909 0
M  V30 7505 O 1260.98 -3.29363 6.99321 0
M  V30 7506 C 1260.04 -4.24066 6.42823 0
M  V30 7507 C 1260.77 -5.20775 5.52155 0
M  V30 7508 O 1260.98 -4.56607 4.22514 0
M  V30 7509 C 1262.17 -5.62697 5.96604 0
M  V30 7510 O 1262.56 -6.87667 5.41053 0
M  V30 7511 C 1263.05 -4.52537 5.39283 0
M  V30 7512 C 1262.34 -4.20027 4.08623 0
M  V30 7513 N 1262.39 -2.76189 3.71603 0
M  V30 7514 C 1262.31 -1.66944 4.54297 0
M  V30 7515 N 1262.38 -0.536169 3.91344 0
M  V30 7516 C 1262.53 -0.901569 2.58849 0
M  V30 7517 C 1262.66 -0.146599 1.40236 0
M  V30 7518 N 1262.67 1.18234 1.37046 0
M  V30 7519 N 1262.78 -0.822941 0.249738 0
M  V30 7520 C 1262.77 -2.15179 0.280525 0
M  V30 7521 N 1262.65 -2.96414 1.30822 0
M  V30 7522 C 1262.53 -2.25804 2.44748 0
M  V30 7523 H 1259.55 -4.79756 7.24086 0
M  V30 7524 H 1259.28 -3.69963 5.84682 0
M  V30 7525 H 1260.15 -6.10431 5.41508 0
M  V30 7526 H 1262.81 -4.78816 3.28024 0
M  V30 7527 H 1263.09 -3.64957 6.05871 0
M  V30 7528 H 1264.08 -4.88748 5.21323 0
M  V30 7529 H 1262.24 -5.66789 7.0643 0
M  V30 7530 H 1262.2 -1.74684 5.62396 0
M  V30 7531 H 1262.58 1.71949 2.24394 0
M  V30 7532 H 1262.77 1.67511 0.470742 0
M  V30 7533 H 1262.88 -2.63704 -0.6828 0
M  V30 7534 P 1264.11 -7.20834 5.23717 0
M  V30 7535 O 1264.33 -8.66104 5.38572 0
M  V30 7536 O 1264.9 -6.33544 6.1349 0
M  V30 7537 O 1264.36 -6.7751 3.72168 0
M  V30 7538 C 1263.42 -7.20825 2.7076 0
M  V30 7539 C 1264.15 -7.45864 1.40599 0
M  V30 7540 O 1264.36 -6.17651 0.734225 0
M  V30 7541 C 1265.55 -8.05808 1.51899 0
M  V30 7542 O 1265.94 -8.74358 0.335205 0
M  V30 7543 C 1266.43 -6.83093 1.70294 0
M  V30 7544 C 1265.72 -5.79992 0.836974 0
M  V30 7545 N 1265.77 -4.41864 1.38293 0
M  V30 7546 H 1262.93 -8.13644 3.0377 0
M  V30 7547 H 1262.66 -6.42788 2.55485 0
M  V30 7548 H 1263.53 -8.12039 0.792769 0
M  V30 7549 P 1267.49 -8.91 -1.0016e-11 0
M  V30 7550 O 1267.71 -10.1726 -0.733694 0
M  V30 7551 O 1268.28 -8.73148 1.23936 0
M  V30 7552 O 1267.74 -7.66872 -0.971405 0
M  V30 7553 C 1266.8 -7.42309 -2.04641 0
M  V30 7554 C 1267.53 -6.86059 -3.24661 0
M  V30 7555 O 1267.74 -5.42847 -3.03646 0
M  V30 7556 C 1268.93 -7.41196 -3.50753 0
M  V30 7557 O 1269.32 -7.27073 -4.86816 0
M  V30 7558 C 1269.81 -6.5273 -2.63741 0
M  V30 7559 C 1269.1 -5.1842 -2.73198 0
M  V30 7560 N 1269.15 -4.38762 -1.4784 0
M  V30 7561 H 1266.31 -8.36803 -2.32493 0
M  V30 7562 H 1266.04 -6.70197 -1.71129 0
M  V30 7563 H 1266.91 -7.03551 -4.13168 0
M  V30 7564 P 1270.87 -7.20834 -5.23717 0
M  V30 7565 O 1271.09 -7.79853 -6.57286 0
M  V30 7566 O 1271.66 -7.79239 -4.12957 0
M  V30 7567 O 1271.12 -5.63315 -5.29344 0
M  V30 7568 C 1270.18 -4.80255 -6.01876 0
M  V30 7569 C 1270.91 -3.64202 -6.65911 0
M  V30 7570 O 1271.12 -2.60694 -5.64732 0
M  V30 7571 C 1272.31 -3.93473 -7.1943 0
M  V30 7572 O 1272.7 -3.02071 -8.21205 0
M  V30 7573 C 1273.19 -3.73047 -5.97036 0
M  V30 7574 C 1272.48 -2.58828 -5.25741 0
M  V30 7575 N 1272.53 -2.68068 -3.77503 0
M  V30 7576 H 1269.69 -5.40332 -6.79951 0
M  V30 7577 H 1269.42 -4.41613 -5.32378 0
M  V30 7578 H 1270.29 -3.26331 -7.47797 0
M  V30 7579 P 1274.25 -2.75334 -8.47391 0
M  V30 7580 O 1274.47 -2.44571 -9.90142 0
M  V30 7581 O 1275.04 -3.87688 -7.92115 0
M  V30 7582 O 1274.5 -1.4459 -7.59357 0
M  V30 7583 C 1273.56 -0.347608 -7.69215 0
M  V30 7584 C 1274.29 0.96767 -7.52806 0
M  V30 7585 O 1274.5 1.21036 -6.1011 0
M  V30 7586 C 1275.69 1.04544 -8.13308 0
M  V30 7587 O 1276.08 2.38311 -8.41922 0
M  V30 7588 C 1276.57 0.491279 -7.02284 0
M  V30 7589 C 1275.86 0.996264 -5.77469 0
M  V30 7590 N 1275.91 0.0501916 -4.62973 0
M  V30 7591 C 1275.83 -1.32786 -4.63244 0
M  V30 7592 N 1275.91 -1.86957 -3.44545 0
M  V30 7593 C 1276.05 -0.780241 -2.58481 0
M  V30 7594 C 1276.18 -0.738536 -1.17757 0
M  V30 7595 O 1276.2 -1.66794 -0.372349 0
M  V30 7596 N 1276.3 0.58337 -0.711393 0
M  V30 7597 C 1276.3 1.70816 -1.51017 0
M  V30 7598 N 1276.43 2.87826 -0.880757 0
M  V30 7599 N 1276.17 1.67126 -2.8339 0
M  V30 7600 C 1276.05 0.401421 -3.30572 0
M  V30 7601 H 1273.07 -0.374722 -8.67691 0
M  V30 7602 H 1272.8 -0.443485 -6.90277 0
M  V30 7603 H 1273.67 1.75537 -7.96793 0
M  V30 7604 H 1276.33 1.95076 -5.46529 0
M  V30 7605 H 1276.6 -0.608565 -7.04577 0
M  V30 7606 H 1277.6 0.889672 -7.08939 0
M  V30 7607 H 1275.76 0.43308 -9.04564 0
M  V30 7608 H 1275.71 -1.91249 -5.54442 0
M  V30 7609 H 1276.4 0.718054 0.275244 0
M  V30 7610 H 1276.43 3.75721 -1.41832 0
M  V30 7611 H 1276.53 2.90436 0.145468 0
M  V30 7612 P 1277.63 2.75334 -8.47391 0
M  V30 7613 O 1277.85 3.84128 -9.44797 0
M  V30 7614 O 1278.42 1.51947 -8.68712 0
M  V30 7615 O 1277.88 3.29363 -6.99321 0
M  V30 7616 C 1276.94 4.24011 -6.4274 0
M  V30 7617 C 1277.67 5.20775 -5.52155 0
M  V30 7618 O 1277.88 4.56534 -4.22446 0
M  V30 7619 C 1279.07 5.62629 -5.96531 0
M  V30 7620 O 1279.46 6.87667 -5.41053 0
M  V30 7621 C 1279.95 4.52537 -5.39283 0
M  V30 7622 C 1279.24 4.20027 -4.08623 0
M  V30 7623 N 1279.29 2.76189 -3.71603 0
M  V30 7624 H 1276.45 4.797 -7.24003 0
M  V30 7625 H 1276.18 3.69856 -5.84513 0
M  V30 7626 H 1277.05 6.10356 -5.41441 0
M  V30 7627 P 1281.01 7.20834 -5.23717 0
M  V30 7628 O 1281.23 8.66274 -5.38678 0
M  V30 7629 O 1281.8 6.33687 -6.13629 0
M  V30 7630 O 1281.26 6.7751 -3.72168 0
M  V30 7631 C 1280.32 7.20919 -2.70795 0
M  V30 7632 C 1281.05 7.45864 -1.40599 0
M  V30 7633 O 1281.26 6.17751 -0.734343 0
M  V30 7634 C 1282.45 8.05906 -1.51917 0
M  V30 7635 O 1282.84 8.74358 -0.335205 0
M  V30 7636 C 1283.33 6.83093 -1.70294 0
M  V30 7637 C 1282.62 5.79992 -0.836974 0
M  V30 7638 N 1282.67 4.41864 -1.38293 0
M  V30 7639 C 1282.59 4.02089 -2.69407 0
M  V30 7640 N 1282.66 2.73403 -2.85089 0
M  V30 7641 C 1282.81 2.25086 -1.5642 0
M  V30 7642 C 1282.94 0.942887 -1.04836 0
M  V30 7643 N 1282.95 -0.150999 -1.80369 0
M  V30 7644 N 1283.06 0.812565 0.28167 0
M  V30 7645 C 1283.05 1.90572 1.03784 0
M  V30 7646 N 1282.93 3.167 0.683905 0
M  V30 7647 C 1282.81 3.26538 -0.652815 0
M  V30 7648 H 1279.83 8.13738 -3.03804 0
M  V30 7649 H 1279.56 6.42974 -2.55559 0
M  V30 7650 H 1280.43 8.12139 -0.792866 0
M  V30 7651 H 1283.09 5.80178 0.160643 0
M  V30 7652 H 1283.37 6.51379 -2.75643 0
M  V30 7653 H 1284.36 7.01832 -1.3448 0
M  V30 7654 H 1282.52 8.73771 -2.38364 0
M  V30 7655 H 1282.48 4.7189 -3.52311 0
M  V30 7656 H 1282.86 -0.0721434 -2.82608 0
M  V30 7657 H 1283.05 -1.0785 -1.36544 0
M  V30 7658 H 1283.16 1.73207 2.10241 0
M  V30 7659 P 1284.39 8.91 1.01732e-11 0
M  V30 7660 O 1284.61 10.1746 0.733838 0
M  V30 7661 O 1285.18 8.73346 -1.23964 0
M  V30 7662 O 1284.64 7.66872 0.971405 0
M  V30 7663 C 1283.7 7.42405 2.04668 0
M  V30 7664 C 1284.43 6.86059 3.24661 0
M  V30 7665 O 1284.64 5.42934 3.03695 0
M  V30 7666 C 1285.83 7.41287 3.50796 0
M  V30 7667 O 1286.22 7.27073 4.86816 0
M  V30 7668 C 1286.71 6.5273 2.63741 0
M  V30 7669 C 1286 5.1842 2.73198 0
M  V30 7670 N 1286.05 4.38762 1.4784 0
M  V30 7671 C 1285.97 4.83651 0.183876 0
M  V30 7672 N 1286.04 3.88759 -0.699393 0
M  V30 7673 C 1286.19 2.7404 0.0575568 0
M  V30 7674 C 1286.32 1.37902 -0.293928 0
M  V30 7675 N 1286.33 0.938021 -1.54797 0
M  V30 7676 N 1286.44 0.491817 0.70549 0
M  V30 7677 C 1286.43 0.931735 1.95979 0
M  V30 7678 N 1286.31 2.16017 2.41481 0
M  V30 7679 C 1286.19 3.02547 1.39121 0
M  V30 7680 H 1283.21 8.36899 2.3252 0
M  V30 7681 H 1282.94 6.70391 1.71179 0
M  V30 7682 H 1283.81 7.03638 4.13219 0
M  V30 7683 H 1286.47 4.59931 3.54016 0
M  V30 7684 H 1286.75 6.88995 1.59871 0
M  V30 7685 H 1287.74 6.4684 3.0373 0
M  V30 7686 H 1285.9 8.47002 3.20749 0
M  V30 7687 H 1285.86 5.8885 -0.0765548 0
M  V30 7688 H 1286.24 1.60276 -2.32875 0
M  V30 7689 H 1286.43 -0.0699355 -1.73859 0
M  V30 7690 H 1286.54 0.165507 2.71897 0
M  V30 7691 P 1287.77 7.20834 5.23717 0
M  V30 7692 O 1287.99 7.7993 6.57351 0
M  V30 7693 O 1288.56 7.79328 4.13004 0
M  V30 7694 O 1288.02 5.63315 5.29344 0
M  V30 7695 C 1287.08 4.80193 6.01798 0
M  V30 7696 C 1287.81 3.64202 6.65911 0
M  V30 7697 O 1288.02 2.60694 5.64732 0
M  V30 7698 C 1289.21 3.93473 7.1943 0
M  V30 7699 O 1289.6 3.02071 8.21205 0
M  V30 7700 C 1290.09 3.73047 5.97036 0
M  V30 7701 C 1289.38 2.58828 5.25741 0
M  V30 7702 N 1289.43 2.6801 3.77422 0
M  V30 7703 C 1289.58 1.50443 3.07133 0
M  V30 7704 O 1289.67 0.419406 3.61576 0
M  V30 7705 N 1289.62 1.6403 1.69677 0
M  V30 7706 C 1289.53 2.81206 0.986255 0
M  V30 7707 C 1289.38 3.99158 1.80325 0
M  V30 7708 C 1289.33 3.89779 3.1476 0
M  V30 7709 H 1286.59 5.40332 6.79951 0
M  V30 7710 H 1286.32 4.41549 5.32301 0
M  V30 7711 H 1287.19 3.26331 7.47797 0
M  V30 7712 H 1289.85 1.6395 5.56554 0
M  V30 7713 H 1290.12 4.63439 5.3432 0
M  V30 7714 H 1291.12 3.44728 6.25838 0
M  V30 7715 H 1289.28 4.96652 7.57263 0
M  V30 7716 H 1289.21 4.80159 3.74441 0
M  V30 7717 P 1291.15 2.75334 8.47391 0
M  V30 7718 O 1291.37 2.44571 9.90142 0
M  V30 7719 O 1291.94 3.87688 7.92115 0
M  V30 7720 O 1291.4 1.4459 7.59357 0
M  V30 7721 C 1290.46 0.347608 7.69215 0
M  V30 7722 C 1291.19 -0.96767 7.52806 0
M  V30 7723 O 1291.4 -1.21036 6.1011 0
M  V30 7724 C 1292.59 -1.04544 8.13308 0
M  V30 7725 O 1292.98 -2.38311 8.41922 0
M  V30 7726 C 1293.47 -0.491279 7.02284 0
M  V30 7727 C 1292.76 -0.996264 5.77469 0
M  V30 7728 N 1292.81 -0.0501916 4.62973 0
M  V30 7729 H 1289.97 0.374722 8.67691 0
M  V30 7730 H 1289.7 0.443485 6.90277 0
M  V30 7731 H 1290.57 -1.75537 7.96793 0
M  V30 7732 P 1294.53 -2.75334 8.47391 0
M  V30 7733 O 1294.75 -3.84128 9.44797 0
M  V30 7734 O 1295.32 -1.51947 8.68712 0
M  V30 7735 O 1294.78 -3.29363 6.99321 0
M  V30 7736 C 1293.84 -4.24011 6.4274 0
M  V30 7737 C 1294.57 -5.20775 5.52155 0
M  V30 7738 O 1294.78 -4.56534 4.22446 0
M  V30 7739 C 1295.97 -5.62629 5.96531 0
M  V30 7740 O 1296.36 -6.87667 5.41053 0
M  V30 7741 C 1296.85 -4.52537 5.39283 0
M  V30 7742 C 1296.14 -4.20027 4.08623 0
M  V30 7743 N 1296.19 -2.76189 3.71603 0
M  V30 7744 H 1293.35 -4.797 7.24003 0
M  V30 7745 H 1293.08 -3.69856 5.84513 0
M  V30 7746 H 1293.95 -6.10356 5.41441 0
M  V30 7747 P 1297.91 -7.20834 5.23717 0
M  V30 7748 O 1298.13 -8.66104 5.38572 0
M  V30 7749 O 1298.7 -6.33544 6.1349 0
M  V30 7750 O 1298.16 -6.7751 3.72168 0
M  V30 7751 C 1297.22 -7.20825 2.7076 0
M  V30 7752 C 1297.95 -7.45864 1.40599 0
M  V30 7753 O 1298.16 -6.17651 0.734225 0
M  V30 7754 C 1299.35 -8.05808 1.51899 0
M  V30 7755 O 1299.74 -8.74358 0.335205 0
M  V30 7756 C 1300.23 -6.83093 1.70294 0
M  V30 7757 C 1299.52 -5.79992 0.836974 0
M  V30 7758 N 1299.57 -4.41864 1.38293 0
M  V30 7759 H 1296.73 -8.13644 3.0377 0
M  V30 7760 H 1296.46 -6.42788 2.55485 0
M  V30 7761 H 1297.33 -8.12039 0.792769 0
M  V30 7762 P 1301.29 -8.91 -1.03304e-11 0
M  V30 7763 O 1301.51 -10.1746 -0.733838 0
M  V30 7764 O 1302.08 -8.73346 1.23964 0
M  V30 7765 O 1301.54 -7.66872 -0.971405 0
M  V30 7766 C 1300.6 -7.42405 -2.04668 0
M  V30 7767 C 1301.33 -6.86059 -3.24661 0
M  V30 7768 O 1301.54 -5.42934 -3.03695 0
M  V30 7769 C 1302.73 -7.41287 -3.50796 0
M  V30 7770 O 1303.12 -7.27073 -4.86816 0
M  V30 7771 C 1303.61 -6.5273 -2.63741 0
M  V30 7772 C 1302.9 -5.1842 -2.73198 0
M  V30 7773 N 1302.95 -4.38762 -1.4784 0
M  V30 7774 C 1302.87 -4.83651 -0.183876 0
M  V30 7775 N 1302.94 -3.88759 0.699393 0
M  V30 7776 C 1303.09 -2.7404 -0.0575568 0
M  V30 7777 C 1303.22 -1.37902 0.293928 0
M  V30 7778 N 1303.23 -0.938021 1.54797 0
M  V30 7779 N 1303.34 -0.491817 -0.70549 0
M  V30 7780 C 1303.33 -0.931735 -1.95979 0
M  V30 7781 N 1303.21 -2.16017 -2.41481 0
M  V30 7782 C 1303.09 -3.02547 -1.39121 0
M  V30 7783 H 1300.11 -8.36899 -2.3252 0
M  V30 7784 H 1299.84 -6.70391 -1.71179 0
M  V30 7785 H 1300.71 -7.03638 -4.13219 0
M  V30 7786 H 1303.37 -4.59931 -3.54016 0
M  V30 7787 H 1303.65 -6.88995 -1.59871 0
M  V30 7788 H 1304.64 -6.4684 -3.0373 0
M  V30 7789 H 1302.8 -8.47002 -3.20749 0
M  V30 7790 H 1302.76 -5.8885 0.0765548 0
M  V30 7791 H 1303.14 -1.60276 2.32875 0
M  V30 7792 H 1303.33 0.0699355 1.73859 0
M  V30 7793 H 1303.44 -0.165507 -2.71897 0
M  V30 7794 P 1304.67 -7.20834 -5.23717 0
M  V30 7795 O 1304.89 -7.80006 -6.57415 0
M  V30 7796 O 1305.46 -7.79416 -4.13051 0
M  V30 7797 O 1304.92 -5.63315 -5.29344 0
M  V30 7798 C 1303.98 -4.80318 -6.01954 0
M  V30 7799 C 1304.71 -3.64202 -6.65911 0
M  V30 7800 O 1304.92 -2.60736 -5.64823 0
M  V30 7801 C 1306.11 -3.93521 -7.19518 0
M  V30 7802 O 1306.5 -3.02071 -8.21205 0
M  V30 7803 C 1306.99 -3.73047 -5.97036 0
M  V30 7804 C 1306.28 -2.58828 -5.25741 0
M  V30 7805 N 1306.33 -2.68068 -3.77503 0
M  V30 7806 H 1303.49 -5.40394 -6.8003 0
M  V30 7807 H 1303.22 -4.41741 -5.32532 0
M  V30 7808 H 1304.09 -3.26371 -7.47889 0
M  V30 7809 H 1306.75 -1.64007 -5.56746 0
M  V30 7810 H 1307.03 -4.63439 -5.3432 0
M  V30 7811 H 1308.02 -3.44776 -6.25925 0
M  V30 7812 H 1306.18 -4.96707 -7.57347 0
M  V30 7813 P 1308.05 -2.75334 -8.47391 0
M  V30 7814 O 1308.27 -2.44571 -9.90142 0
M  V30 7815 O 1308.84 -3.87688 -7.92115 0
M  V30 7816 O 1308.3 -1.4459 -7.59357 0
M  V30 7817 C 1307.36 -0.347608 -7.69215 0
M  V30 7818 C 1308.09 0.96767 -7.52806 0
M  V30 7819 O 1308.3 1.21036 -6.1011 0
M  V30 7820 C 1309.49 1.04544 -8.13308 0
M  V30 7821 O 1309.88 2.38311 -8.41922 0
M  V30 7822 C 1310.37 0.491279 -7.02284 0
M  V30 7823 C 1309.66 0.996264 -5.77469 0
M  V30 7824 N 1309.71 0.0501916 -4.62973 0
M  V30 7825 H 1306.87 -0.374722 -8.67691 0
M  V30 7826 H 1306.6 -0.443485 -6.90277 0
M  V30 7827 H 1307.47 1.75537 -7.96793 0
M  V30 7828 P 1311.43 2.75334 -8.47391 0
M  V30 7829 O 1311.65 3.84166 -9.4489 0
M  V30 7830 O 1312.22 1.51964 -8.6881 0
M  V30 7831 O 1311.68 3.29363 -6.99321 0
M  V30 7832 C 1310.74 4.23956 -6.42656 0
M  V30 7833 C 1311.47 5.20775 -5.52155 0
M  V30 7834 O 1311.68 4.56534 -4.22446 0
M  V30 7835 C 1312.87 5.62629 -5.96531 0
M  V30 7836 O 1313.26 6.87667 -5.41053 0
M  V30 7837 C 1313.75 4.52537 -5.39283 0
M  V30 7838 C 1313.04 4.20027 -4.08623 0
M  V30 7839 N 1313.09 2.7613 -3.71522 0
M  V30 7840 C 1313.24 2.45612 -2.37989 0
M  V30 7841 O 1313.33 3.30919 -1.51621 0
M  V30 7842 N 1313.28 1.10684 -2.08435 0
M  V30 7843 C 1313.19 0.0690084 -2.9792 0
M  V30 7844 C 1313.04 0.481522 -4.35345 0
M  V30 7845 C 1312.99 1.78906 -4.67968 0
M  V30 7846 H 1310.25 4.797 -7.24003 0
M  V30 7847 H 1309.98 3.69802 -5.84429 0
M  V30 7848 H 1310.85 6.10356 -5.41441 0
M  V30 7849 H 1313.51 4.78651 -3.27911 0
M  V30 7850 H 1313.78 3.64957 -6.05871 0
M  V30 7851 H 1314.78 4.8868 -5.2125 0
M  V30 7852 H 1312.94 5.66726 -7.06352 0
M  V30 7853 H 1312.87 2.07737 -5.72367 0
M  V30 7854 P 1314.81 7.20834 -5.23717 0
M  V30 7855 O 1315.03 8.66104 -5.38572 0
M  V30 7856 O 1315.6 6.33544 -6.1349 0
M  V30 7857 O 1315.06 6.7751 -3.72168 0
M  V30 7858 C 1314.12 7.20825 -2.7076 0
M  V30 7859 C 1314.85 7.45864 -1.40599 0
M  V30 7860 O 1315.06 6.17651 -0.734225 0
M  V30 7861 C 1316.25 8.05808 -1.51899 0
M  V30 7862 O 1316.64 8.74358 -0.335205 0
M  V30 7863 C 1317.13 6.83093 -1.70294 0
M  V30 7864 C 1316.42 5.79992 -0.836974 0
M  V30 7865 N 1316.47 4.41864 -1.38293 0
M  V30 7866 H 1313.63 8.13644 -3.0377 0
M  V30 7867 H 1313.36 6.42788 -2.55485 0
M  V30 7868 H 1314.23 8.12039 -0.792769 0
M  V30 7869 P 1318.19 8.91 1.04876e-11 0
M  V30 7870 O 1318.41 10.1726 0.733694 0
M  V30 7871 O 1318.98 8.73148 -1.23936 0
M  V30 7872 O 1318.44 7.66872 0.971405 0
M  V30 7873 C 1317.5 7.42309 2.04641 0
M  V30 7874 C 1318.23 6.86059 3.24661 0
M  V30 7875 O 1318.44 5.42847 3.03646 0
M  V30 7876 C 1319.63 7.41196 3.50753 0
M  V30 7877 O 1320.02 7.27073 4.86816 0
M  V30 7878 C 1320.51 6.5273 2.63741 0
M  V30 7879 C 1319.8 5.1842 2.73198 0
M  V30 7880 N 1319.85 4.38762 1.4784 0
M  V30 7881 H 1317.01 8.36803 2.32493 0
M  V30 7882 H 1316.74 6.70197 1.71129 0
M  V30 7883 H 1317.61 7.03551 4.13168 0
M  V30 7884 P 1321.57 7.20834 5.23717 0
M  V30 7885 O 1321.79 7.80006 6.57415 0
M  V30 7886 O 1322.36 7.79416 4.13051 0
M  V30 7887 O 1321.82 5.63315 5.29344 0
M  V30 7888 C 1320.88 4.80318 6.01954 0
M  V30 7889 C 1321.61 3.64202 6.65911 0
M  V30 7890 O 1321.82 2.60736 5.64823 0
M  V30 7891 C 1323.01 3.93521 7.19518 0
M  V30 7892 O 1323.4 3.02071 8.21205 0
M  V30 7893 C 1323.89 3.73047 5.97036 0
M  V30 7894 C 1323.18 2.58828 5.25741 0
M  V30 7895 N 1323.23 2.68068 3.77503 0
M  V30 7896 C 1323.15 3.80474 2.99159 0
M  V30 7897 N 1323.22 3.55622 1.71925 0
M  V30 7898 C 1323.37 2.1832 1.65733 0
M  V30 7899 C 1323.5 1.28842 0.572777 0
M  V30 7900 N 1323.51 1.66875 -0.70098 0
M  V30 7901 N 1323.62 -0.016788 0.859836 0
M  V30 7902 C 1323.61 -0.398145 2.13316 0
M  V30 7903 N 1323.49 0.328224 3.22333 0
M  V30 7904 C 1323.37 1.62992 2.90383 0
M  V30 7905 H 1320.39 5.40394 6.8003 0
M  V30 7906 H 1320.12 4.41741 5.32532 0
M  V30 7907 H 1320.99 3.26371 7.47889 0
M  V30 7908 H 1323.65 1.64007 5.56746 0
M  V30 7909 H 1323.93 4.63439 5.3432 0
M  V30 7910 H 1324.92 3.44776 6.25925 0
M  V30 7911 H 1323.08 4.96707 7.57347 0
M  V30 7912 H 1323.04 4.8089 3.39924 0
M  V30 7913 H 1323.42 2.66547 -0.941919 0
M  V30 7914 H 1323.61 0.965341 -1.44766 0
M  V30 7915 H 1323.72 -1.46427 2.29697 0
M  V30 7916 P 1324.95 2.75334 8.47391 0
M  V30 7917 O 1325.17 2.44571 9.90142 0
M  V30 7918 O 1325.74 3.87688 7.92115 0
M  V30 7919 O 1325.2 1.4459 7.59357 0
M  V30 7920 C 1324.26 0.347608 7.69215 0
M  V30 7921 C 1324.99 -0.96767 7.52806 0
M  V30 7922 O 1325.2 -1.21036 6.1011 0
M  V30 7923 C 1326.39 -1.04544 8.13308 0
M  V30 7924 O 1326.78 -2.38311 8.41922 0
M  V30 7925 C 1327.27 -0.491279 7.02284 0
M  V30 7926 C 1326.56 -0.996264 5.77469 0
M  V30 7927 N 1326.61 -0.0501916 4.62973 0
M  V30 7928 H 1323.77 0.374722 8.67691 0
M  V30 7929 H 1323.5 0.443485 6.90277 0
M  V30 7930 H 1324.37 -1.75537 7.96793 0
M  V30 7931 P 1328.33 -2.75334 8.47391 0
M  V30 7932 O 1328.55 -3.84128 9.44797 0
M  V30 7933 O 1329.12 -1.51947 8.68712 0
M  V30 7934 O 1328.58 -3.29363 6.99321 0
M  V30 7935 C 1327.64 -4.24011 6.4274 0
M  V30 7936 C 1328.37 -5.20775 5.52155 0
M  V30 7937 O 1328.58 -4.56534 4.22446 0
M  V30 7938 C 1329.77 -5.62629 5.96531 0
M  V30 7939 O 1330.16 -6.87667 5.41053 0
M  V30 7940 C 1330.65 -4.52537 5.39283 0
M  V30 7941 C 1329.94 -4.20027 4.08623 0
M  V30 7942 N 1329.99 -2.76189 3.71603 0
M  V30 7943 H 1327.15 -4.797 7.24003 0
M  V30 7944 H 1326.88 -3.69856 5.84513 0
M  V30 7945 H 1327.75 -6.10356 5.41441 0
M  V30 7946 P 1331.71 -7.20834 5.23717 0
M  V30 7947 O 1331.93 -8.66104 5.38572 0
M  V30 7948 O 1332.5 -6.33544 6.1349 0
M  V30 7949 O 1331.96 -6.7751 3.72168 0
M  V30 7950 C 1331.02 -7.20825 2.7076 0
M  V30 7951 C 1331.75 -7.45864 1.40599 0
M  V30 7952 O 1331.96 -6.17651 0.734225 0
M  V30 7953 C 1333.15 -8.05808 1.51899 0
M  V30 7954 O 1333.54 -8.74358 0.335205 0
M  V30 7955 C 1334.03 -6.83093 1.70294 0
M  V30 7956 C 1333.32 -5.79992 0.836974 0
M  V30 7957 N 1333.37 -4.41864 1.38293 0
M  V30 7958 H 1330.53 -8.13644 3.0377 0
M  V30 7959 H 1330.26 -6.42788 2.55485 0
M  V30 7960 H 1331.13 -8.12039 0.792769 0
M  V30 7961 P 1335.09 -8.91 -1.06447e-11 0
M  V30 7962 O 1335.31 -10.1726 -0.733694 0
M  V30 7963 O 1335.88 -8.73148 1.23936 0
M  V30 7964 O 1335.34 -7.66872 -0.971405 0
M  V30 7965 C 1334.4 -7.42309 -2.04641 0
M  V30 7966 C 1335.13 -6.86059 -3.24661 0
M  V30 7967 O 1335.34 -5.42847 -3.03646 0
M  V30 7968 C 1336.53 -7.41196 -3.50753 0
M  V30 7969 O 1336.92 -7.27073 -4.86816 0
M  V30 7970 C 1337.41 -6.5273 -2.63741 0
M  V30 7971 C 1336.7 -5.1842 -2.73198 0
M  V30 7972 N 1336.75 -4.38762 -1.4784 0
M  V30 7973 H 1333.91 -8.36803 -2.32493 0
M  V30 7974 H 1333.64 -6.70197 -1.71129 0
M  V30 7975 H 1334.51 -7.03551 -4.13168 0
M  V30 7976 P 1338.47 -7.20834 -5.23717 0
M  V30 7977 O 1338.69 -7.79853 -6.57286 0
M  V30 7978 O 1339.26 -7.79239 -4.12957 0
M  V30 7979 O 1338.72 -5.63315 -5.29344 0
M  V30 7980 C 1337.78 -4.80255 -6.01876 0
M  V30 7981 C 1338.51 -3.64202 -6.65911 0
M  V30 7982 O 1338.72 -2.60694 -5.64732 0
M  V30 7983 C 1339.91 -3.93473 -7.1943 0
M  V30 7984 O 1340.3 -3.02071 -8.21205 0
M  V30 7985 C 1340.79 -3.73047 -5.97036 0
M  V30 7986 C 1340.08 -2.58828 -5.25741 0
M  V30 7987 N 1340.13 -2.68068 -3.77503 0
M  V30 7988 H 1337.29 -5.40332 -6.79951 0
M  V30 7989 H 1337.02 -4.41613 -5.32378 0
M  V30 7990 H 1337.89 -3.26331 -7.47797 0
M  V30 7991 P 1341.85 -2.75334 -8.47391 0
M  V30 7992 O 1342.07 -2.44571 -9.90142 0
M  V30 7993 O 1342.64 -3.87688 -7.92115 0
M  V30 7994 O 1342.1 -1.4459 -7.59357 0
M  V30 7995 C 1341.16 -0.347608 -7.69215 0
M  V30 7996 C 1341.89 0.96767 -7.52806 0
M  V30 7997 O 1342.1 1.21036 -6.1011 0
M  V30 7998 C 1343.29 1.04544 -8.13308 0
M  V30 7999 O 1343.68 2.38311 -8.41922 0
M  V30 8000 C 1344.17 0.491279 -7.02284 0
M  V30 8001 C 1343.46 0.996264 -5.77469 0
M  V30 8002 N 1343.51 0.0501916 -4.62973 0
M  V30 8003 C 1343.43 -1.32786 -4.63244 0
M  V30 8004 N 1343.51 -1.86957 -3.44545 0
M  V30 8005 C 1343.65 -0.780241 -2.58481 0
M  V30 8006 C 1343.78 -0.738536 -1.17757 0
M  V30 8007 N 1343.9 0.58337 -0.711393 0
M  V30 8008 C 1343.9 1.70816 -1.51017 0
M  V30 8009 N 1344.03 2.87826 -0.880757 0
M  V30 8010 N 1343.77 1.67126 -2.8339 0
M  V30 8011 C 1343.65 0.401421 -3.30572 0
M  V30 8012 H 1340.67 -0.374722 -8.67691 0
M  V30 8013 H 1340.4 -0.443485 -6.90277 0
M  V30 8014 H 1341.27 1.75537 -7.96793 0
M  V30 8015 P 1345.23 2.75334 -8.47391 0
M  V30 8016 O 1345.45 3.84128 -9.44797 0
M  V30 8017 O 1346.02 1.51947 -8.68712 0
M  V30 8018 O 1345.48 3.29363 -6.99321 0
M  V30 8019 C 1344.54 4.24011 -6.4274 0
M  V30 8020 C 1345.27 5.20775 -5.52155 0
M  V30 8021 O 1345.48 4.56534 -4.22446 0
M  V30 8022 C 1346.67 5.62629 -5.96531 0
M  V30 8023 O 1347.06 6.87667 -5.41053 0
M  V30 8024 C 1347.55 4.52537 -5.39283 0
M  V30 8025 C 1346.84 4.20027 -4.08623 0
M  V30 8026 N 1346.89 2.76189 -3.71603 0
M  V30 8027 H 1344.05 4.797 -7.24003 0
M  V30 8028 H 1343.78 3.69856 -5.84513 0
M  V30 8029 H 1344.65 6.10356 -5.41441 0
M  V30 8030 P 1348.61 7.20834 -5.23717 0
M  V30 8031 O 1348.83 8.66104 -5.38572 0
M  V30 8032 O 1349.4 6.33544 -6.1349 0
M  V30 8033 O 1348.86 6.7751 -3.72168 0
M  V30 8034 C 1347.92 7.20825 -2.7076 0
M  V30 8035 C 1348.65 7.45864 -1.40599 0
M  V30 8036 O 1348.86 6.17651 -0.734225 0
M  V30 8037 C 1350.05 8.05808 -1.51899 0
M  V30 8038 O 1350.44 8.74358 -0.335205 0
M  V30 8039 C 1350.93 6.83093 -1.70294 0
M  V30 8040 C 1350.22 5.79992 -0.836974 0
M  V30 8041 N 1350.27 4.41864 -1.38293 0
M  V30 8042 C 1350.19 3.99538 -2.69438 0
M  V30 8043 N 1350.27 2.69909 -2.84277 0
M  V30 8044 C 1350.41 2.21719 -1.5408 0
M  V30 8045 C 1350.54 0.891712 -1.06628 0
M  V30 8046 N 1350.66 0.856846 0.334985 0
M  V30 8047 C 1350.66 1.9641 1.15789 0
M  V30 8048 N 1350.79 1.72708 2.46522 0
M  V30 8049 N 1350.53 3.21165 0.713741 0
M  V30 8050 C 1350.41 3.26797 -0.639748 0
M  V30 8051 H 1347.43 8.13644 -3.0377 0
M  V30 8052 H 1347.16 6.42788 -2.55485 0
M  V30 8053 H 1348.03 8.12039 -0.792769 0
M  V30 8054 P 1351.99 8.91 1.08019e-11 0
M  V30 8055 O 1352.21 10.1746 0.733838 0
M  V30 8056 O 1352.78 8.73346 -1.23964 0
M  V30 8057 O 1352.24 7.66872 0.971405 0
M  V30 8058 C 1351.3 7.42405 2.04668 0
M  V30 8059 C 1352.03 6.86059 3.24661 0
M  V30 8060 O 1352.24 5.42934 3.03695 0
M  V30 8061 C 1353.43 7.41287 3.50796 0
M  V30 8062 O 1353.82 7.27073 4.86816 0
M  V30 8063 C 1354.31 6.5273 2.63741 0
M  V30 8064 C 1353.6 5.1842 2.73198 0
M  V30 8065 N 1353.65 4.38762 1.4784 0
M  V30 8066 C 1353.57 4.83651 0.183876 0
M  V30 8067 N 1353.64 3.88759 -0.699393 0
M  V30 8068 C 1353.79 2.7404 0.0575568 0
M  V30 8069 C 1353.92 1.37902 -0.293928 0
M  V30 8070 N 1353.93 0.938021 -1.54797 0
M  V30 8071 N 1354.04 0.491817 0.70549 0
M  V30 8072 C 1354.03 0.931735 1.95979 0
M  V30 8073 N 1353.91 2.16017 2.41481 0
M  V30 8074 C 1353.79 3.02547 1.39121 0
M  V30 8075 H 1350.81 8.36899 2.3252 0
M  V30 8076 H 1350.54 6.70391 1.71179 0
M  V30 8077 H 1351.41 7.03638 4.13219 0
M  V30 8078 H 1354.06 4.59931 3.54016 0
M  V30 8079 H 1354.34 6.88995 1.59871 0
M  V30 8080 H 1355.34 6.4684 3.0373 0
M  V30 8081 H 1353.5 8.47002 3.20749 0
M  V30 8082 H 1353.46 5.8885 -0.0765548 0
M  V30 8083 H 1353.84 1.60276 -2.32875 0
M  V30 8084 H 1354.03 -0.0699355 -1.73859 0
M  V30 8085 H 1354.14 0.165507 2.71897 0
M  V30 8086 P 1355.37 7.20834 5.23717 0
M  V30 8087 O 1355.59 7.79853 6.57286 0
M  V30 8088 O 1356.16 7.79239 4.12957 0
M  V30 8089 O 1355.62 5.63315 5.29344 0
M  V30 8090 C 1354.68 4.80255 6.01876 0
M  V30 8091 C 1355.41 3.64202 6.65911 0
M  V30 8092 O 1355.62 2.60694 5.64732 0
M  V30 8093 C 1356.81 3.93473 7.1943 0
M  V30 8094 O 1357.2 3.02071 8.21205 0
M  V30 8095 C 1357.69 3.73047 5.97036 0
M  V30 8096 C 1356.98 2.58828 5.25741 0
M  V30 8097 N 1357.03 2.68068 3.77503 0
M  V30 8098 H 1354.19 5.40332 6.79951 0
M  V30 8099 H 1353.92 4.41613 5.32378 0
M  V30 8100 H 1354.79 3.26331 7.47797 0
M  V30 8101 P 1358.75 2.75334 8.47391 0
M  V30 8102 O 1358.97 2.44571 9.90142 0
M  V30 8103 O 1359.54 3.87688 7.92115 0
M  V30 8104 O 1359 1.4459 7.59357 0
M  V30 8105 C 1358.06 0.347608 7.69215 0
M  V30 8106 C 1358.79 -0.96767 7.52806 0
M  V30 8107 O 1359 -1.21036 6.1011 0
M  V30 8108 C 1360.19 -1.04544 8.13308 0
M  V30 8109 O 1360.58 -2.38311 8.41922 0
M  V30 8110 C 1361.07 -0.491279 7.02284 0
M  V30 8111 C 1360.36 -0.996264 5.77469 0
M  V30 8112 N 1360.41 -0.0501916 4.62973 0
M  V30 8113 H 1357.57 0.374722 8.67691 0
M  V30 8114 H 1357.3 0.443485 6.90277 0
M  V30 8115 H 1358.17 -1.75537 7.96793 0
M  V30 8116 P 1362.13 -2.75334 8.47391 0
M  V30 8117 O 1362.35 -3.84128 9.44797 0
M  V30 8118 O 1362.92 -1.51947 8.68712 0
M  V30 8119 O 1362.38 -3.29363 6.99321 0
M  V30 8120 C 1361.44 -4.24011 6.4274 0
M  V30 8121 C 1362.17 -5.20775 5.52155 0
M  V30 8122 O 1362.38 -4.56534 4.22446 0
M  V30 8123 C 1363.57 -5.62629 5.96531 0
M  V30 8124 O 1363.96 -6.87667 5.41053 0
M  V30 8125 C 1364.45 -4.52537 5.39283 0
M  V30 8126 C 1363.74 -4.20027 4.08623 0
M  V30 8127 N 1363.79 -2.76189 3.71603 0
M  V30 8128 H 1360.95 -4.797 7.24003 0
M  V30 8129 H 1360.68 -3.69856 5.84513 0
M  V30 8130 H 1361.55 -6.10356 5.41441 0
M  V30 8131 P 1365.51 -7.20834 5.23717 0
M  V30 8132 O 1365.73 -8.66104 5.38572 0
M  V30 8133 O 1366.3 -6.33544 6.1349 0
M  V30 8134 O 1365.76 -6.7751 3.72168 0
M  V30 8135 C 1364.82 -7.20825 2.7076 0
M  V30 8136 C 1365.55 -7.45864 1.40599 0
M  V30 8137 O 1365.76 -6.17651 0.734225 0
M  V30 8138 C 1366.95 -8.05808 1.51899 0
M  V30 8139 O 1367.34 -8.74358 0.335205 0
M  V30 8140 C 1367.83 -6.83093 1.70294 0
M  V30 8141 C 1367.12 -5.79992 0.836974 0
M  V30 8142 N 1367.17 -4.41864 1.38293 0
M  V30 8143 H 1364.33 -8.13644 3.0377 0
M  V30 8144 H 1364.06 -6.42788 2.55485 0
M  V30 8145 H 1364.93 -8.12039 0.792769 0
M  V30 8146 P 1368.89 -8.91 -1.09591e-11 0
M  V30 8147 O 1369.11 -10.1726 -0.733694 0
M  V30 8148 O 1369.68 -8.73148 1.23936 0
M  V30 8149 O 1369.14 -7.66872 -0.971405 0
M  V30 8150 C 1368.2 -7.42309 -2.04641 0
M  V30 8151 C 1368.93 -6.86059 -3.24661 0
M  V30 8152 O 1369.14 -5.42847 -3.03646 0
M  V30 8153 C 1370.33 -7.41196 -3.50753 0
M  V30 8154 O 1370.72 -7.27073 -4.86816 0
M  V30 8155 C 1371.21 -6.5273 -2.63741 0
M  V30 8156 C 1370.5 -5.1842 -2.73198 0
M  V30 8157 N 1370.55 -4.38762 -1.4784 0
M  V30 8158 H 1367.71 -8.36803 -2.32493 0
M  V30 8159 H 1367.44 -6.70197 -1.71129 0
M  V30 8160 H 1368.31 -7.03551 -4.13168 0
M  V30 8161 P 1372.27 -7.20834 -5.23717 0
M  V30 8162 O 1372.49 -7.79853 -6.57286 0
M  V30 8163 O 1373.06 -7.79239 -4.12957 0
M  V30 8164 O 1372.52 -5.63315 -5.29344 0
M  V30 8165 C 1371.58 -4.80255 -6.01876 0
M  V30 8166 C 1372.31 -3.64202 -6.65911 0
M  V30 8167 O 1372.52 -2.60694 -5.64732 0
M  V30 8168 C 1373.71 -3.93473 -7.1943 0
M  V30 8169 O 1374.1 -3.02071 -8.21205 0
M  V30 8170 C 1374.59 -3.73047 -5.97036 0
M  V30 8171 C 1373.88 -2.58828 -5.25741 0
M  V30 8172 N 1373.93 -2.68068 -3.77503 0
M  V30 8173 H 1371.09 -5.40332 -6.79951 0
M  V30 8174 H 1370.82 -4.41613 -5.32378 0
M  V30 8175 H 1371.69 -3.26331 -7.47797 0
M  V30 8176 P 1375.65 -2.75334 -8.47391 0
M  V30 8177 O 1375.87 -2.44571 -9.90142 0
M  V30 8178 O 1376.44 -3.87688 -7.92115 0
M  V30 8179 O 1375.9 -1.4459 -7.59357 0
M  V30 8180 C 1374.96 -0.347608 -7.69215 0
M  V30 8181 C 1375.69 0.96767 -7.52806 0
M  V30 8182 O 1375.9 1.21036 -6.1011 0
M  V30 8183 C 1377.09 1.04544 -8.13308 0
M  V30 8184 O 1377.48 2.38311 -8.41922 0
M  V30 8185 C 1377.97 0.491279 -7.02284 0
M  V30 8186 C 1377.26 0.996264 -5.77469 0
M  V30 8187 N 1377.31 0.0501916 -4.62973 0
M  V30 8188 H 1374.47 -0.374722 -8.67691 0
M  V30 8189 H 1374.2 -0.443485 -6.90277 0
M  V30 8190 H 1375.07 1.75537 -7.96793 0
M  V30 8191 P 1379.03 2.75334 -8.47391 0
M  V30 8192 O 1379.25 3.84128 -9.44797 0
M  V30 8193 O 1379.82 1.51947 -8.68712 0
M  V30 8194 O 1379.28 3.29363 -6.99321 0
M  V30 8195 C 1378.34 4.24011 -6.4274 0
M  V30 8196 C 1379.07 5.20775 -5.52155 0
M  V30 8197 O 1379.28 4.56534 -4.22446 0
M  V30 8198 C 1380.47 5.62629 -5.96531 0
M  V30 8199 O 1380.86 6.87667 -5.41053 0
M  V30 8200 C 1381.35 4.52537 -5.39283 0
M  V30 8201 C 1380.64 4.20027 -4.08623 0
M  V30 8202 N 1380.69 2.76189 -3.71603 0
M  V30 8203 H 1377.85 4.797 -7.24003 0
M  V30 8204 H 1377.58 3.69856 -5.84513 0
M  V30 8205 H 1378.45 6.10356 -5.41441 0
M  V30 8206 P 1382.41 7.20834 -5.23717 0
M  V30 8207 O 1382.63 8.66104 -5.38572 0
M  V30 8208 O 1383.2 6.33544 -6.1349 0
M  V30 8209 O 1382.66 6.7751 -3.72168 0
M  V30 8210 C 1381.72 7.20825 -2.7076 0
M  V30 8211 C 1382.45 7.45864 -1.40599 0
M  V30 8212 O 1382.66 6.17651 -0.734225 0
M  V30 8213 C 1383.85 8.05808 -1.51899 0
M  V30 8214 O 1384.24 8.74358 -0.335205 0
M  V30 8215 C 1384.73 6.83093 -1.70294 0
M  V30 8216 C 1384.02 5.79992 -0.836974 0
M  V30 8217 N 1384.07 4.41864 -1.38293 0
M  V30 8218 H 1381.23 8.13644 -3.0377 0
M  V30 8219 H 1380.96 6.42788 -2.55485 0
M  V30 8220 H 1381.83 8.12039 -0.792769 0
M  V30 8221 P 1385.79 8.91 1.03566e-11 0
M  V30 8222 O 1386.01 10.1726 0.733694 0
M  V30 8223 O 1386.58 8.73148 -1.23936 0
M  V30 8224 O 1386.04 7.66872 0.971405 0
M  V30 8225 C 1385.1 7.42309 2.04641 0
M  V30 8226 C 1385.83 6.86059 3.24661 0
M  V30 8227 O 1386.04 5.42847 3.03646 0
M  V30 8228 C 1387.23 7.41196 3.50753 0
M  V30 8229 O 1387.62 7.27073 4.86816 0
M  V30 8230 C 1388.11 6.5273 2.63741 0
M  V30 8231 C 1387.4 5.1842 2.73198 0
M  V30 8232 N 1387.45 4.38762 1.4784 0
M  V30 8233 H 1384.61 8.36803 2.32493 0
M  V30 8234 H 1384.34 6.70197 1.71129 0
M  V30 8235 H 1385.21 7.03551 4.13168 0
M  V30 8236 P 1389.17 7.20834 5.23717 0
M  V30 8237 O 1389.39 7.79853 6.57286 0
M  V30 8238 O 1389.96 7.79239 4.12957 0
M  V30 8239 O 1389.42 5.63315 5.29344 0
M  V30 8240 C 1388.48 4.80255 6.01876 0
M  V30 8241 C 1389.21 3.64202 6.65911 0
M  V30 8242 O 1389.42 2.60694 5.64732 0
M  V30 8243 C 1390.61 3.93473 7.1943 0
M  V30 8244 O 1391 3.02071 8.21205 0
M  V30 8245 C 1391.49 3.73047 5.97036 0
M  V30 8246 C 1390.78 2.58828 5.25741 0
M  V30 8247 N 1390.83 2.68068 3.77503 0
M  V30 8248 H 1387.99 5.40332 6.79951 0
M  V30 8249 H 1387.72 4.41613 5.32378 0
M  V30 8250 H 1388.59 3.26331 7.47797 0
M  V30 8251 P 1392.55 2.75334 8.47391 0
M  V30 8252 O 1392.77 2.44571 9.90142 0
M  V30 8253 O 1393.34 3.87688 7.92115 0
M  V30 8254 O 1392.8 1.4459 7.59357 0
M  V30 8255 C 1391.86 0.347608 7.69215 0
M  V30 8256 C 1392.59 -0.96767 7.52806 0
M  V30 8257 O 1392.8 -1.21036 6.1011 0
M  V30 8258 C 1393.99 -1.04544 8.13308 0
M  V30 8259 O 1394.38 -2.38311 8.41922 0
M  V30 8260 C 1394.87 -0.491279 7.02284 0
M  V30 8261 C 1394.16 -0.996264 5.77469 0
M  V30 8262 N 1394.21 -0.0501916 4.62973 0
M  V30 8263 H 1391.37 0.374722 8.67691 0
M  V30 8264 H 1391.1 0.443485 6.90277 0
M  V30 8265 H 1391.97 -1.75537 7.96793 0
M  V30 8266 P 1395.93 -2.75334 8.47391 0
M  V30 8267 O 1396.15 -3.84204 9.44982 0
M  V30 8268 O 1396.72 -1.51982 8.68909 0
M  V30 8269 O 1396.18 -3.29363 6.99321 0
M  V30 8270 C 1395.24 -4.24066 6.42823 0
M  V30 8271 C 1395.97 -5.20775 5.52155 0
M  V30 8272 O 1396.18 -4.56607 4.22514 0
M  V30 8273 C 1397.37 -5.62697 5.96604 0
M  V30 8274 O 1397.76 -6.87667 5.41053 0
M  V30 8275 C 1398.25 -4.52537 5.39283 0
M  V30 8276 C 1397.54 -4.20027 4.08623 0
M  V30 8277 N 1397.59 -2.76189 3.71603 0
M  V30 8278 C 1397.51 -1.66944 4.54297 0
M  V30 8279 N 1397.58 -0.536169 3.91344 0
M  V30 8280 C 1397.73 -0.901569 2.58849 0
M  V30 8281 C 1397.86 -0.146599 1.40236 0
M  V30 8282 N 1397.87 1.18234 1.37046 0
M  V30 8283 N 1397.98 -0.822941 0.249738 0
M  V30 8284 C 1397.97 -2.15179 0.280525 0
M  V30 8285 N 1397.85 -2.96414 1.30822 0
M  V30 8286 C 1397.73 -2.25804 2.44748 0
M  V30 8287 H 1394.75 -4.79756 7.24086 0
M  V30 8288 H 1394.48 -3.69963 5.84682 0
M  V30 8289 H 1395.35 -6.10431 5.41508 0
M  V30 8290 H 1398 -4.78816 3.28024 0
M  V30 8291 H 1398.28 -3.64957 6.05871 0
M  V30 8292 H 1399.28 -4.88748 5.21323 0
M  V30 8293 H 1397.44 -5.66789 7.0643 0
M  V30 8294 H 1397.4 -1.74684 5.62396 0
M  V30 8295 H 1397.78 1.71949 2.24394 0
M  V30 8296 H 1397.97 1.67511 0.470742 0
M  V30 8297 H 1398.08 -2.63704 -0.6828 0
M  V30 8298 P 1399.31 -7.20834 5.23717 0
M  V30 8299 O 1399.53 -8.66104 5.38572 0
M  V30 8300 O 1400.1 -6.33544 6.1349 0
M  V30 8301 O 1399.56 -6.7751 3.72168 0
M  V30 8302 C 1398.62 -7.20825 2.7076 0
M  V30 8303 C 1399.35 -7.45864 1.40599 0
M  V30 8304 O 1399.56 -6.17651 0.734225 0
M  V30 8305 C 1400.75 -8.05808 1.51899 0
M  V30 8306 O 1401.14 -8.74358 0.335205 0
M  V30 8307 C 1401.63 -6.83093 1.70294 0
M  V30 8308 C 1400.92 -5.79992 0.836974 0
M  V30 8309 N 1400.97 -4.41864 1.38293 0
M  V30 8310 H 1398.13 -8.13644 3.0377 0
M  V30 8311 H 1397.86 -6.42788 2.55485 0
M  V30 8312 H 1398.73 -8.12039 0.792769 0
M  V30 8313 P 1402.69 -8.91 -9.24756e-12 0
M  V30 8314 O 1402.91 -10.1726 -0.733694 0
M  V30 8315 O 1403.48 -8.73148 1.23936 0
M  V30 8316 O 1402.94 -7.66872 -0.971405 0
M  V30 8317 C 1402 -7.42309 -2.04641 0
M  V30 8318 C 1402.73 -6.86059 -3.24661 0
M  V30 8319 O 1402.94 -5.42847 -3.03646 0
M  V30 8320 C 1404.13 -7.41196 -3.50753 0
M  V30 8321 O 1404.52 -7.27073 -4.86816 0
M  V30 8322 C 1405.01 -6.5273 -2.63741 0
M  V30 8323 C 1404.3 -5.1842 -2.73198 0
M  V30 8324 N 1404.35 -4.38762 -1.4784 0
M  V30 8325 H 1401.51 -8.36803 -2.32493 0
M  V30 8326 H 1401.24 -6.70197 -1.71129 0
M  V30 8327 H 1402.11 -7.03551 -4.13168 0
M  V30 8328 P 1406.07 -7.20834 -5.23717 0
M  V30 8329 O 1406.29 -7.79853 -6.57286 0
M  V30 8330 O 1406.86 -7.79239 -4.12957 0
M  V30 8331 O 1406.32 -5.63315 -5.29344 0
M  V30 8332 C 1405.38 -4.80255 -6.01876 0
M  V30 8333 C 1406.11 -3.64202 -6.65911 0
M  V30 8334 O 1406.32 -2.60694 -5.64732 0
M  V30 8335 C 1407.51 -3.93473 -7.1943 0
M  V30 8336 O 1407.9 -3.02071 -8.21205 0
M  V30 8337 C 1408.39 -3.73047 -5.97036 0
M  V30 8338 C 1407.68 -2.58828 -5.25741 0
M  V30 8339 N 1407.73 -2.68068 -3.77503 0
M  V30 8340 H 1404.89 -5.40332 -6.79951 0
M  V30 8341 H 1404.62 -4.41613 -5.32378 0
M  V30 8342 H 1405.49 -3.26331 -7.47797 0
M  V30 8343 P 1409.45 -2.75334 -8.47391 0
M  V30 8344 O 1409.67 -2.44571 -9.90142 0
M  V30 8345 O 1410.24 -3.87688 -7.92115 0
M  V30 8346 O 1409.7 -1.4459 -7.59357 0
M  V30 8347 C 1408.76 -0.347608 -7.69215 0
M  V30 8348 C 1409.49 0.96767 -7.52806 0
M  V30 8349 O 1409.7 1.21036 -6.1011 0
M  V30 8350 C 1410.89 1.04544 -8.13308 0
M  V30 8351 O 1411.28 2.38311 -8.41922 0
M  V30 8352 C 1411.77 0.491279 -7.02284 0
M  V30 8353 C 1411.06 0.996264 -5.77469 0
M  V30 8354 N 1411.11 0.0501916 -4.62973 0
M  V30 8355 C 1411.03 -1.32786 -4.63244 0
M  V30 8356 N 1411.11 -1.86957 -3.44545 0
M  V30 8357 C 1411.25 -0.780241 -2.58481 0
M  V30 8358 C 1411.38 -0.738536 -1.17757 0
M  V30 8359 O 1411.4 -1.66794 -0.372349 0
M  V30 8360 N 1411.5 0.58337 -0.711393 0
M  V30 8361 C 1411.5 1.70816 -1.51017 0
M  V30 8362 N 1411.63 2.87826 -0.880757 0
M  V30 8363 N 1411.37 1.67126 -2.8339 0
M  V30 8364 C 1411.25 0.401421 -3.30572 0
M  V30 8365 H 1408.27 -0.374722 -8.67691 0
M  V30 8366 H 1408 -0.443485 -6.90277 0
M  V30 8367 H 1408.87 1.75537 -7.96793 0
M  V30 8368 H 1411.52 1.95076 -5.46529 0
M  V30 8369 H 1411.8 -0.608565 -7.04577 0
M  V30 8370 H 1412.8 0.889672 -7.08939 0
M  V30 8371 H 1410.96 0.43308 -9.04564 0
M  V30 8372 H 1410.91 -1.91249 -5.54442 0
M  V30 8373 H 1411.59 0.718054 0.275244 0
M  V30 8374 H 1411.63 3.75721 -1.41832 0
M  V30 8375 H 1411.73 2.90436 0.145468 0
M  V30 8376 P 1412.83 2.75334 -8.47391 0
M  V30 8377 O 1413.05 3.84128 -9.44797 0
M  V30 8378 O 1413.62 1.51947 -8.68712 0
M  V30 8379 O 1413.08 3.29363 -6.99321 0
M  V30 8380 C 1412.14 4.24011 -6.4274 0
M  V30 8381 C 1412.87 5.20775 -5.52155 0
M  V30 8382 O 1413.08 4.56534 -4.22446 0
M  V30 8383 C 1414.27 5.62629 -5.96531 0
M  V30 8384 O 1414.66 6.87667 -5.41053 0
M  V30 8385 C 1415.15 4.52537 -5.39283 0
M  V30 8386 C 1414.44 4.20027 -4.08623 0
M  V30 8387 N 1414.49 2.76189 -3.71603 0
M  V30 8388 H 1411.65 4.797 -7.24003 0
M  V30 8389 H 1411.38 3.69856 -5.84513 0
M  V30 8390 H 1412.25 6.10356 -5.41441 0
M  V30 8391 P 1416.21 7.20834 -5.23717 0
M  V30 8392 O 1416.43 8.66104 -5.38572 0
M  V30 8393 O 1417 6.33544 -6.1349 0
M  V30 8394 O 1416.46 6.7751 -3.72168 0
M  V30 8395 C 1415.52 7.20825 -2.7076 0
M  V30 8396 C 1416.25 7.45864 -1.40599 0
M  V30 8397 O 1416.46 6.17651 -0.734225 0
M  V30 8398 C 1417.65 8.05808 -1.51899 0
M  V30 8399 O 1418.04 8.74358 -0.335205 0
M  V30 8400 C 1418.53 6.83093 -1.70294 0
M  V30 8401 C 1417.82 5.79992 -0.836974 0
M  V30 8402 N 1417.87 4.41864 -1.38293 0
M  V30 8403 H 1415.03 8.13644 -3.0377 0
M  V30 8404 H 1414.76 6.42788 -2.55485 0
M  V30 8405 H 1415.63 8.12039 -0.792769 0
M  V30 8406 P 1419.59 8.91 8.13856e-12 0
M  V30 8407 O 1419.81 10.1726 0.733694 0
M  V30 8408 O 1420.38 8.73148 -1.23936 0
M  V30 8409 O 1419.84 7.66872 0.971405 0
M  V30 8410 C 1418.9 7.42309 2.04641 0
M  V30 8411 C 1419.63 6.86059 3.24661 0
M  V30 8412 O 1419.84 5.42847 3.03646 0
M  V30 8413 C 1421.03 7.41196 3.50753 0
M  V30 8414 O 1421.42 7.27073 4.86816 0
M  V30 8415 C 1421.91 6.5273 2.63741 0
M  V30 8416 C 1421.2 5.1842 2.73198 0
M  V30 8417 N 1421.25 4.38762 1.4784 0
M  V30 8418 H 1418.41 8.36803 2.32493 0
M  V30 8419 H 1418.14 6.70197 1.71129 0
M  V30 8420 H 1419.01 7.03551 4.13168 0
M  V30 8421 P 1422.97 7.20834 5.23717 0
M  V30 8422 O 1423.19 7.79853 6.57286 0
M  V30 8423 O 1423.76 7.79239 4.12957 0
M  V30 8424 O 1423.22 5.63315 5.29344 0
M  V30 8425 C 1422.28 4.80255 6.01876 0
M  V30 8426 C 1423.01 3.64202 6.65911 0
M  V30 8427 O 1423.22 2.60694 5.64732 0
M  V30 8428 C 1424.41 3.93473 7.1943 0
M  V30 8429 O 1424.8 3.02071 8.21205 0
M  V30 8430 C 1425.29 3.73047 5.97036 0
M  V30 8431 C 1424.58 2.58828 5.25741 0
M  V30 8432 N 1424.63 2.68068 3.77503 0
M  V30 8433 H 1421.79 5.40332 6.79951 0
M  V30 8434 H 1421.52 4.41613 5.32378 0
M  V30 8435 H 1422.39 3.26331 7.47797 0
M  V30 8436 P 1426.35 2.75334 8.47391 0
M  V30 8437 O 1426.57 2.44595 9.90239 0
M  V30 8438 O 1427.14 3.87732 7.92204 0
M  V30 8439 O 1426.6 1.4459 7.59357 0
M  V30 8440 C 1425.66 0.347563 7.69115 0
M  V30 8441 C 1426.39 -0.96767 7.52806 0
M  V30 8442 O 1426.6 -1.21036 6.1011 0
M  V30 8443 C 1427.79 -1.04544 8.13308 0
M  V30 8444 O 1428.18 -2.38311 8.41922 0
M  V30 8445 C 1428.67 -0.491279 7.02284 0
M  V30 8446 C 1427.96 -0.996264 5.77469 0
M  V30 8447 N 1428.01 -0.0501808 4.62873 0
M  V30 8448 C 1428.16 -0.588177 3.36904 0
M  V30 8449 O 1428.25 -1.78598 3.17173 0
M  V30 8450 N 1428.2 0.329694 2.33686 0
M  V30 8451 C 1428.11 1.6953 2.45079 0
M  V30 8452 C 1427.96 2.16933 3.80505 0
M  V30 8453 C 1427.91 1.30326 4.83752 0
M  V30 8454 H 1425.17 0.374722 8.67691 0
M  V30 8455 H 1424.9 0.443421 6.90177 0
M  V30 8456 H 1425.77 -1.75537 7.96793 0
M  V30 8457 H 1428.42 -1.94496 5.46629 0
M  V30 8458 H 1428.7 0.608651 7.04676 0
M  V30 8459 H 1429.7 -0.889672 7.08939 0
M  V30 8460 H 1427.86 -0.43308 9.04564 0
M  V30 8461 H 1427.79 1.68366 5.8516 0
M  V30 8462 P 1429.73 -2.75334 8.47391 0
M  V30 8463 O 1429.95 -3.84128 9.44797 0
M  V30 8464 O 1430.52 -1.51947 8.68712 0
M  V30 8465 O 1429.98 -3.29363 6.99321 0
M  V30 8466 C 1429.04 -4.24011 6.4274 0
M  V30 8467 C 1429.77 -5.20775 5.52155 0
M  V30 8468 O 1429.98 -4.56534 4.22446 0
M  V30 8469 C 1431.17 -5.62629 5.96531 0
M  V30 8470 O 1431.56 -6.87667 5.41053 0
M  V30 8471 C 1432.05 -4.52537 5.39283 0
M  V30 8472 C 1431.34 -4.20027 4.08623 0
M  V30 8473 N 1431.39 -2.76189 3.71603 0
M  V30 8474 H 1428.55 -4.797 7.24003 0
M  V30 8475 H 1428.28 -3.69856 5.84513 0
M  V30 8476 H 1429.15 -6.10356 5.41441 0
M  V30 8477 P 1433.11 -7.20834 5.23717 0
M  V30 8478 O 1433.33 -8.66104 5.38572 0
M  V30 8479 O 1433.9 -6.33544 6.1349 0
M  V30 8480 O 1433.36 -6.7751 3.72168 0
M  V30 8481 C 1432.42 -7.20825 2.7076 0
M  V30 8482 C 1433.15 -7.45864 1.40599 0
M  V30 8483 O 1433.36 -6.17651 0.734225 0
M  V30 8484 C 1434.55 -8.05808 1.51899 0
M  V30 8485 O 1434.94 -8.74358 0.335205 0
M  V30 8486 C 1435.43 -6.83093 1.70294 0
M  V30 8487 C 1434.72 -5.79992 0.836974 0
M  V30 8488 N 1434.77 -4.41864 1.38293 0
M  V30 8489 C 1434.69 -3.99538 2.69438 0
M  V30 8490 N 1434.77 -2.69909 2.84277 0
M  V30 8491 C 1434.91 -2.21719 1.5408 0
M  V30 8492 C 1435.04 -0.891712 1.06628 0
M  V30 8493 N 1435.16 -0.856846 -0.334985 0
M  V30 8494 C 1435.16 -1.9641 -1.15789 0
M  V30 8495 N 1435.29 -1.72708 -2.46522 0
M  V30 8496 N 1435.03 -3.21165 -0.713741 0
M  V30 8497 C 1434.91 -3.26797 0.639748 0
M  V30 8498 H 1431.93 -8.13644 3.0377 0
M  V30 8499 H 1431.66 -6.42788 2.55485 0
M  V30 8500 H 1432.53 -8.12039 0.792769 0
M  V30 8501 P 1436.49 -8.91 -7.02955e-12 0
M  V30 8502 O 1436.71 -10.1726 -0.733694 0
M  V30 8503 O 1437.28 -8.73148 1.23936 0
M  V30 8504 O 1436.74 -7.66872 -0.971405 0
M  V30 8505 C 1435.8 -7.42309 -2.04641 0
M  V30 8506 C 1436.53 -6.86059 -3.24661 0
M  V30 8507 O 1436.74 -5.42847 -3.03646 0
M  V30 8508 C 1437.93 -7.41196 -3.50753 0
M  V30 8509 O 1438.32 -7.27073 -4.86816 0
M  V30 8510 C 1438.81 -6.5273 -2.63741 0
M  V30 8511 C 1438.1 -5.1842 -2.73198 0
M  V30 8512 N 1438.15 -4.38762 -1.4784 0
M  V30 8513 C 1438.07 -4.81605 -0.168631 0
M  V30 8514 N 1438.15 -3.85454 0.713363 0
M  V30 8515 C 1438.29 -2.6994 -0.0566958 0
M  V30 8516 C 1438.42 -1.34815 0.338502 0
M  V30 8517 O 1438.44 -0.869548 1.47125 0
M  V30 8518 N 1438.54 -0.496304 -0.77465 0
M  V30 8519 C 1438.54 -0.908403 -2.09122 0
M  V30 8520 N 1438.67 0.0517805 -3.00955 0
M  V30 8521 N 1438.41 -2.17875 -2.46519 0
M  V30 8522 C 1438.29 -3.01988 -1.4033 0
M  V30 8523 H 1435.31 -8.36803 -2.32493 0
M  V30 8524 H 1435.04 -6.70197 -1.71129 0
M  V30 8525 H 1435.91 -7.03551 -4.13168 0
M  V30 8526 H 1438.56 -4.59498 -3.54415 0
M  V30 8527 H 1438.84 -6.88898 -1.59848 0
M  V30 8528 H 1439.84 -6.46749 -3.03687 0
M  V30 8529 H 1438 -8.46908 -3.20714 0
M  V30 8530 H 1437.95 -5.86405 0.105564 0
M  V30 8531 H 1438.63 0.483664 -0.597855 0
M  V30 8532 H 1438.67 -0.187865 -4.0116 0
M  V30 8533 H 1438.77 1.03585 -2.71726 0
M  V30 8534 P 1439.87 -7.20834 -5.23717 0
M  V30 8535 O 1440.09 -7.79853 -6.57286 0
M  V30 8536 O 1440.66 -7.79239 -4.12957 0
M  V30 8537 O 1440.12 -5.63315 -5.29344 0
M  V30 8538 C 1439.18 -4.80255 -6.01876 0
M  V30 8539 C 1439.91 -3.64202 -6.65911 0
M  V30 8540 O 1440.12 -2.60694 -5.64732 0
M  V30 8541 C 1441.31 -3.93473 -7.1943 0
M  V30 8542 O 1441.7 -3.02071 -8.21205 0
M  V30 8543 C 1442.19 -3.73047 -5.97036 0
M  V30 8544 C 1441.48 -2.58828 -5.25741 0
M  V30 8545 N 1441.53 -2.68068 -3.77503 0
M  V30 8546 H 1438.69 -5.40332 -6.79951 0
M  V30 8547 H 1438.42 -4.41613 -5.32378 0
M  V30 8548 H 1439.29 -3.26331 -7.47797 0
M  V30 8549 P 1443.25 -2.75334 -8.47391 0
M  V30 8550 O 1443.47 -2.44571 -9.90142 0
M  V30 8551 O 1444.04 -3.87688 -7.92115 0
M  V30 8552 O 1443.5 -1.4459 -7.59357 0
M  V30 8553 C 1442.56 -0.347608 -7.69215 0
M  V30 8554 C 1443.29 0.96767 -7.52806 0
M  V30 8555 O 1443.5 1.21036 -6.1011 0
M  V30 8556 C 1444.69 1.04544 -8.13308 0
M  V30 8557 O 1445.08 2.38311 -8.41922 0
M  V30 8558 C 1445.57 0.491279 -7.02284 0
M  V30 8559 C 1444.86 0.996264 -5.77469 0
M  V30 8560 N 1444.91 0.0501916 -4.62973 0
M  V30 8561 H 1442.07 -0.374722 -8.67691 0
M  V30 8562 H 1441.8 -0.443485 -6.90277 0
M  V30 8563 H 1442.67 1.75537 -7.96793 0
M  V30 8564 P 1446.63 2.75334 -8.47391 0
M  V30 8565 O 1446.85 3.84204 -9.44982 0
M  V30 8566 O 1447.42 1.51982 -8.68909 0
M  V30 8567 O 1446.88 3.29363 -6.99321 0
M  V30 8568 C 1445.94 4.24066 -6.42823 0
M  V30 8569 C 1446.67 5.20775 -5.52155 0
M  V30 8570 O 1446.88 4.56607 -4.22514 0
M  V30 8571 C 1448.07 5.62697 -5.96604 0
M  V30 8572 O 1448.46 6.87667 -5.41053 0
M  V30 8573 C 1448.95 4.52537 -5.39283 0
M  V30 8574 C 1448.24 4.20027 -4.08623 0
M  V30 8575 N 1448.29 2.76189 -3.71603 0
M  V30 8576 C 1448.21 1.66944 -4.54297 0
M  V30 8577 N 1448.28 0.536169 -3.91344 0
M  V30 8578 C 1448.43 0.901569 -2.58849 0
M  V30 8579 C 1448.56 0.146599 -1.40236 0
M  V30 8580 N 1448.57 -1.18234 -1.37046 0
M  V30 8581 N 1448.68 0.822941 -0.249738 0
M  V30 8582 C 1448.67 2.15179 -0.280525 0
M  V30 8583 N 1448.55 2.96414 -1.30822 0
M  V30 8584 C 1448.43 2.25804 -2.44748 0
M  V30 8585 H 1445.45 4.79756 -7.24086 0
M  V30 8586 H 1445.18 3.69963 -5.84682 0
M  V30 8587 H 1446.05 6.10431 -5.41508 0
M  V30 8588 H 1448.7 4.78816 -3.28024 0
M  V30 8589 H 1448.98 3.64957 -6.05871 0
M  V30 8590 H 1449.98 4.88748 -5.21323 0
M  V30 8591 H 1448.14 5.66789 -7.0643 0
M  V30 8592 H 1448.1 1.74684 -5.62396 0
M  V30 8593 H 1448.48 -1.71949 -2.24394 0
M  V30 8594 H 1448.67 -1.67511 -0.470742 0
M  V30 8595 H 1448.78 2.63704 0.6828 0
M  V30 8596 P 1450.01 7.20834 -5.23717 0
M  V30 8597 O 1450.23 8.66104 -5.38572 0
M  V30 8598 O 1450.8 6.33544 -6.1349 0
M  V30 8599 O 1450.26 6.7751 -3.72168 0
M  V30 8600 C 1449.32 7.20825 -2.7076 0
M  V30 8601 C 1450.05 7.45864 -1.40599 0
M  V30 8602 O 1450.26 6.17651 -0.734225 0
M  V30 8603 C 1451.45 8.05808 -1.51899 0
M  V30 8604 O 1451.84 8.74358 -0.335205 0
M  V30 8605 C 1452.33 6.83093 -1.70294 0
M  V30 8606 C 1451.62 5.79992 -0.836974 0
M  V30 8607 N 1451.67 4.41864 -1.38293 0
M  V30 8608 H 1448.83 8.13644 -3.0377 0
M  V30 8609 H 1448.56 6.42788 -2.55485 0
M  V30 8610 H 1449.43 8.12039 -0.792769 0
M  V30 8611 P 1453.39 8.91 5.92055e-12 0
M  V30 8612 O 1453.61 10.1736 0.733766 0
M  V30 8613 O 1454.18 8.73247 -1.2395 0
M  V30 8614 O 1453.64 7.66872 0.971405 0
M  V30 8615 C 1452.7 7.42212 2.04614 0
M  V30 8616 C 1453.43 6.86059 3.24661 0
M  V30 8617 O 1453.64 5.42847 3.03646 0
M  V30 8618 C 1454.83 7.41196 3.50753 0
M  V30 8619 O 1455.22 7.27073 4.86816 0
M  V30 8620 C 1455.71 6.5273 2.63741 0
M  V30 8621 C 1455 5.1842 2.73198 0
M  V30 8622 N 1455.05 4.38668 1.47808 0
M  V30 8623 C 1455.2 3.02239 1.60048 0
M  V30 8624 O 1455.29 2.46459 2.67869 0
M  V30 8625 N 1455.24 2.32436 0.408571 0
M  V30 8626 C 1455.15 2.85471 -0.854993 0
M  V30 8627 C 1455 4.28918 -0.887335 0
M  V30 8628 C 1454.95 5.00349 0.255399 0
M  V30 8629 H 1452.21 8.36803 2.32493 0
M  V30 8630 H 1451.94 6.701 1.71105 0
M  V30 8631 H 1452.81 7.03551 4.13168 0
M  V30 8632 H 1455.46 4.59773 3.53894 0
M  V30 8633 H 1455.74 6.88995 1.59871 0
M  V30 8634 H 1456.74 6.46749 3.03687 0
M  V30 8635 H 1454.9 8.46908 3.20714 0
M  V30 8636 H 1454.83 6.08548 0.206986 0
M  V30 8637 P 1456.77 7.20834 5.23717 0
M  V30 8638 O 1456.99 7.79853 6.57286 0
M  V30 8639 O 1457.56 7.79239 4.12957 0
M  V30 8640 O 1457.02 5.63315 5.29344 0
M  V30 8641 C 1456.08 4.80255 6.01876 0
M  V30 8642 C 1456.81 3.64202 6.65911 0
M  V30 8643 O 1457.02 2.60694 5.64732 0
M  V30 8644 C 1458.21 3.93473 7.1943 0
M  V30 8645 O 1458.6 3.02071 8.21205 0
M  V30 8646 C 1459.09 3.73047 5.97036 0
M  V30 8647 C 1458.38 2.58828 5.25741 0
M  V30 8648 N 1458.43 2.68068 3.77503 0
M  V30 8649 C 1458.35 3.79715 2.96723 0
M  V30 8650 N 1458.43 3.5377 1.68852 0
M  V30 8651 C 1458.57 2.15054 1.63254 0
M  V30 8652 C 1458.7 1.28964 0.518571 0
M  V30 8653 O 1458.72 1.56826 -0.679156 0
M  V30 8654 N 1458.82 -0.0538097 0.918425 0
M  V30 8655 C 1458.82 -0.494275 2.22578 0
M  V30 8656 N 1458.95 -1.81086 2.40434 0
M  V30 8657 N 1458.69 0.313645 3.27502 0
M  V30 8658 C 1458.57 1.61829 2.91033 0
M  V30 8659 H 1455.59 5.40332 6.79951 0
M  V30 8660 H 1455.32 4.41613 5.32378 0
M  V30 8661 H 1456.19 3.26331 7.47797 0
M  V30 8662 H 1458.84 1.63422 5.56814 0
M  V30 8663 H 1459.12 4.63374 5.34244 0
M  V30 8664 H 1460.12 3.44728 6.25838 0
M  V30 8665 H 1458.28 4.96652 7.57263 0
M  V30 8666 H 1458.23 4.80617 3.3614 0
M  V30 8667 H 1458.91 -0.742702 0.199384 0
M  V30 8668 H 1458.95 -2.20598 3.35588 0
M  V30 8669 H 1459.05 -2.43518 1.58945 0
M  V30 8670 P 1460.15 2.75334 8.47391 0
M  V30 8671 O 1460.37 2.44571 9.90142 0
M  V30 8672 O 1460.94 3.87688 7.92115 0
M  V30 8673 O 1460.4 1.4459 7.59357 0
M  V30 8674 C 1459.46 0.347608 7.69215 0
M  V30 8675 C 1460.19 -0.96767 7.52806 0
M  V30 8676 O 1460.4 -1.21036 6.1011 0
M  V30 8677 C 1461.59 -1.04544 8.13308 0
M  V30 8678 O 1461.98 -2.38311 8.41922 0
M  V30 8679 C 1462.47 -0.491279 7.02284 0
M  V30 8680 C 1461.76 -0.996264 5.77469 0
M  V30 8681 N 1461.81 -0.0501916 4.62973 0
M  V30 8682 H 1458.97 0.374722 8.67691 0
M  V30 8683 H 1458.7 0.443485 6.90277 0
M  V30 8684 H 1459.57 -1.75537 7.96793 0
M  V30 8685 P 1463.53 -2.75334 8.47391 0
M  V30 8686 O 1463.75 -3.84128 9.44797 0
M  V30 8687 O 1464.32 -1.51947 8.68712 0
M  V30 8688 O 1463.78 -3.29363 6.99321 0
M  V30 8689 C 1462.84 -4.24011 6.4274 0
M  V30 8690 C 1463.57 -5.20775 5.52155 0
M  V30 8691 O 1463.78 -4.56534 4.22446 0
M  V30 8692 C 1464.97 -5.62629 5.96531 0
M  V30 8693 O 1465.36 -6.87667 5.41053 0
M  V30 8694 C 1465.85 -4.52537 5.39283 0
M  V30 8695 C 1465.14 -4.20027 4.08623 0
M  V30 8696 N 1465.19 -2.76189 3.71603 0
M  V30 8697 H 1462.35 -4.797 7.24003 0
M  V30 8698 H 1462.08 -3.69856 5.84513 0
M  V30 8699 H 1462.95 -6.10356 5.41441 0
M  V30 8700 P 1466.91 -7.20834 5.23717 0
M  V30 8701 O 1467.13 -8.66104 5.38572 0
M  V30 8702 O 1467.7 -6.33544 6.1349 0
M  V30 8703 O 1467.16 -6.7751 3.72168 0
M  V30 8704 C 1466.22 -7.20825 2.7076 0
M  V30 8705 C 1466.95 -7.45864 1.40599 0
M  V30 8706 O 1467.16 -6.17651 0.734225 0
M  V30 8707 C 1468.35 -8.05808 1.51899 0
M  V30 8708 O 1468.74 -8.74358 0.335205 0
M  V30 8709 C 1469.23 -6.83093 1.70294 0
M  V30 8710 C 1468.52 -5.79992 0.836974 0
M  V30 8711 N 1468.57 -4.41864 1.38293 0
M  V30 8712 H 1465.73 -8.13644 3.0377 0
M  V30 8713 H 1465.46 -6.42788 2.55485 0
M  V30 8714 H 1466.33 -8.12039 0.792769 0
M  V30 8715 P 1470.29 -8.91 -4.81154e-12 0
M  V30 8716 O 1470.51 -10.1726 -0.733694 0
M  V30 8717 O 1471.08 -8.73148 1.23936 0
M  V30 8718 O 1470.54 -7.66872 -0.971405 0
M  V30 8719 C 1469.6 -7.42309 -2.04641 0
M  V30 8720 C 1470.33 -6.86059 -3.24661 0
M  V30 8721 O 1470.54 -5.42847 -3.03646 0
M  V30 8722 C 1471.73 -7.41196 -3.50753 0
M  V30 8723 O 1472.12 -7.27073 -4.86816 0
M  V30 8724 C 1472.61 -6.5273 -2.63741 0
M  V30 8725 C 1471.9 -5.1842 -2.73198 0
M  V30 8726 N 1471.95 -4.38762 -1.4784 0
M  V30 8727 C 1471.87 -4.81605 -0.168631 0
M  V30 8728 N 1471.95 -3.85454 0.713363 0
M  V30 8729 C 1472.09 -2.6994 -0.0566958 0
M  V30 8730 C 1472.22 -1.34815 0.338502 0
M  V30 8731 N 1472.34 -0.496304 -0.77465 0
M  V30 8732 C 1472.34 -0.908403 -2.09122 0
M  V30 8733 N 1472.47 0.0517805 -3.00955 0
M  V30 8734 N 1472.21 -2.17875 -2.46519 0
M  V30 8735 C 1472.09 -3.01988 -1.4033 0
M  V30 8736 H 1469.11 -8.36803 -2.32493 0
M  V30 8737 H 1468.84 -6.70197 -1.71129 0
M  V30 8738 H 1469.71 -7.03551 -4.13168 0
M  V30 8739 P 1473.67 -7.20834 -5.23717 0
M  V30 8740 O 1473.89 -7.79853 -6.57286 0
M  V30 8741 O 1474.46 -7.79239 -4.12957 0
M  V30 8742 O 1473.92 -5.63315 -5.29344 0
M  V30 8743 C 1472.98 -4.80255 -6.01876 0
M  V30 8744 C 1473.71 -3.64202 -6.65911 0
M  V30 8745 O 1473.92 -2.60694 -5.64732 0
M  V30 8746 C 1475.11 -3.93473 -7.1943 0
M  V30 8747 O 1475.5 -3.02071 -8.21205 0
M  V30 8748 C 1475.99 -3.73047 -5.97036 0
M  V30 8749 C 1475.28 -2.58828 -5.25741 0
M  V30 8750 N 1475.33 -2.68068 -3.77503 0
M  V30 8751 C 1475.25 -3.79715 -2.96723 0
M  V30 8752 N 1475.33 -3.5377 -1.68852 0
M  V30 8753 C 1475.47 -2.15054 -1.63254 0
M  V30 8754 C 1475.6 -1.28964 -0.518571 0
M  V30 8755 O 1475.62 -1.56826 0.679156 0
M  V30 8756 N 1475.72 0.0538097 -0.918425 0
M  V30 8757 C 1475.72 0.494275 -2.22578 0
M  V30 8758 N 1475.85 1.81086 -2.40434 0
M  V30 8759 N 1475.59 -0.313645 -3.27502 0
M  V30 8760 C 1475.47 -1.61829 -2.91033 0
M  V30 8761 H 1472.49 -5.40332 -6.79951 0
M  V30 8762 H 1472.22 -4.41613 -5.32378 0
M  V30 8763 H 1473.09 -3.26331 -7.47797 0
M  V30 8764 H 1475.74 -1.63422 -5.56814 0
M  V30 8765 H 1476.02 -4.63374 -5.34244 0
M  V30 8766 H 1477.02 -3.44728 -6.25838 0
M  V30 8767 H 1475.18 -4.96652 -7.57263 0
M  V30 8768 H 1475.13 -4.80617 -3.3614 0
M  V30 8769 H 1475.81 0.742702 -0.199384 0
M  V30 8770 H 1475.85 2.20598 -3.35588 0
M  V30 8771 H 1475.95 2.43518 -1.58945 0
M  V30 8772 P 1477.05 -2.75334 -8.47391 0
M  V30 8773 O 1477.27 -2.44571 -9.90142 0
M  V30 8774 O 1477.84 -3.87688 -7.92115 0
M  V30 8775 O 1477.3 -1.4459 -7.59357 0
M  V30 8776 C 1476.36 -0.347608 -7.69215 0
M  V30 8777 C 1477.09 0.96767 -7.52806 0
M  V30 8778 O 1477.3 1.21036 -6.1011 0
M  V30 8779 C 1478.49 1.04544 -8.13308 0
M  V30 8780 O 1478.88 2.38311 -8.41922 0
M  V30 8781 C 1479.37 0.491279 -7.02284 0
M  V30 8782 C 1478.66 0.996264 -5.77469 0
M  V30 8783 N 1478.71 0.0501916 -4.62973 0
M  V30 8784 H 1475.87 -0.374722 -8.67691 0
M  V30 8785 H 1475.6 -0.443485 -6.90277 0
M  V30 8786 H 1476.47 1.75537 -7.96793 0
M  V30 8787 P 1480.43 2.75334 -8.47391 0
M  V30 8788 O 1480.65 3.84204 -9.44982 0
M  V30 8789 O 1481.22 1.51982 -8.68909 0
M  V30 8790 O 1480.68 3.29363 -6.99321 0
M  V30 8791 C 1479.74 4.24066 -6.42823 0
M  V30 8792 C 1480.47 5.20775 -5.52155 0
M  V30 8793 O 1480.68 4.56607 -4.22514 0
M  V30 8794 C 1481.87 5.62697 -5.96604 0
M  V30 8795 O 1482.26 6.87667 -5.41053 0
M  V30 8796 C 1482.75 4.52537 -5.39283 0
M  V30 8797 C 1482.04 4.20027 -4.08623 0
M  V30 8798 N 1482.09 2.76189 -3.71603 0
M  V30 8799 C 1482.01 1.66944 -4.54297 0
M  V30 8800 N 1482.08 0.536169 -3.91344 0
M  V30 8801 C 1482.23 0.901569 -2.58849 0
M  V30 8802 C 1482.36 0.146599 -1.40236 0
M  V30 8803 N 1482.37 -1.18234 -1.37046 0
M  V30 8804 N 1482.48 0.822941 -0.249738 0
M  V30 8805 C 1482.47 2.15179 -0.280525 0
M  V30 8806 N 1482.35 2.96414 -1.30822 0
M  V30 8807 C 1482.23 2.25804 -2.44748 0
M  V30 8808 H 1479.25 4.79756 -7.24086 0
M  V30 8809 H 1478.98 3.69963 -5.84682 0
M  V30 8810 H 1479.85 6.10431 -5.41508 0
M  V30 8811 H 1482.5 4.78816 -3.28024 0
M  V30 8812 H 1482.78 3.64957 -6.05871 0
M  V30 8813 H 1483.78 4.88748 -5.21323 0
M  V30 8814 H 1481.94 5.66789 -7.0643 0
M  V30 8815 H 1481.9 1.74684 -5.62396 0
M  V30 8816 H 1482.28 -1.71949 -2.24394 0
M  V30 8817 H 1482.47 -1.67511 -0.470742 0
M  V30 8818 H 1482.58 2.63704 0.6828 0
M  V30 8819 P 1483.81 7.20834 -5.23717 0
M  V30 8820 O 1484.03 8.66104 -5.38572 0
M  V30 8821 O 1484.6 6.33544 -6.1349 0
M  V30 8822 O 1484.06 6.7751 -3.72168 0
M  V30 8823 C 1483.12 7.20825 -2.7076 0
M  V30 8824 C 1483.85 7.45864 -1.40599 0
M  V30 8825 O 1484.06 6.17651 -0.734225 0
M  V30 8826 C 1485.25 8.05808 -1.51899 0
M  V30 8827 O 1485.64 8.74358 -0.335205 0
M  V30 8828 C 1486.13 6.83093 -1.70294 0
M  V30 8829 C 1485.42 5.79992 -0.836974 0
M  V30 8830 N 1485.47 4.41864 -1.38293 0
M  V30 8831 H 1482.63 8.13644 -3.0377 0
M  V30 8832 H 1482.36 6.42788 -2.55485 0
M  V30 8833 H 1483.23 8.12039 -0.792769 0
M  V30 8834 P 1487.19 8.91 3.70254e-12 0
M  V30 8835 O 1487.41 10.1726 0.733694 0
M  V30 8836 O 1487.98 8.73148 -1.23936 0
M  V30 8837 O 1487.44 7.66872 0.971405 0
M  V30 8838 C 1486.5 7.42309 2.04641 0
M  V30 8839 C 1487.23 6.86059 3.24661 0
M  V30 8840 O 1487.44 5.42847 3.03646 0
M  V30 8841 C 1488.63 7.41196 3.50753 0
M  V30 8842 O 1489.02 7.27073 4.86816 0
M  V30 8843 C 1489.51 6.5273 2.63741 0
M  V30 8844 C 1488.8 5.1842 2.73198 0
M  V30 8845 N 1488.85 4.38762 1.4784 0
M  V30 8846 H 1486.01 8.36803 2.32493 0
M  V30 8847 H 1485.74 6.70197 1.71129 0
M  V30 8848 H 1486.61 7.03551 4.13168 0
M  V30 8849 P 1490.57 7.20834 5.23717 0
M  V30 8850 O 1490.79 7.7993 6.57351 0
M  V30 8851 O 1491.36 7.79328 4.13004 0
M  V30 8852 O 1490.82 5.63315 5.29344 0
M  V30 8853 C 1489.88 4.80193 6.01798 0
M  V30 8854 C 1490.61 3.64202 6.65911 0
M  V30 8855 O 1490.82 2.60694 5.64732 0
M  V30 8856 C 1492.01 3.93473 7.1943 0
M  V30 8857 O 1492.4 3.02071 8.21205 0
M  V30 8858 C 1492.89 3.73047 5.97036 0
M  V30 8859 C 1492.18 2.58828 5.25741 0
M  V30 8860 N 1492.23 2.6801 3.77422 0
M  V30 8861 C 1492.38 1.50443 3.07133 0
M  V30 8862 O 1492.47 0.419406 3.61576 0
M  V30 8863 N 1492.42 1.6403 1.69677 0
M  V30 8864 C 1492.33 2.81206 0.986255 0
M  V30 8865 O 1492.38 2.80892 -0.249754 0
M  V30 8866 C 1492.18 3.99158 1.80325 0
M  V30 8867 C 1492.07 5.29309 1.06921 0
M  V30 8868 C 1492.13 3.89779 3.1476 0
M  V30 8869 H 1489.39 5.40332 6.79951 0
M  V30 8870 H 1489.12 4.41549 5.32301 0
M  V30 8871 H 1489.99 3.26331 7.47797 0
M  V30 8872 H 1492.64 1.6395 5.56554 0
M  V30 8873 H 1492.92 4.63439 5.3432 0
M  V30 8874 H 1493.92 3.44728 6.25838 0
M  V30 8875 H 1492.08 4.96652 7.57263 0
M  V30 8876 H 1492.01 4.80159 3.74441 0
M  V30 8877 H 1493.04 5.81459 1.09608 0
M  V30 8878 H 1491.3 5.9187 1.54487 0
M  V30 8879 H 1491.79 5.10095 0.0220288 0
M  V30 8880 H 1492.53 0.798962 1.16664 0
M  V30 8881 P 1493.95 2.75334 8.47391 0
M  V30 8882 O 1494.17 2.44619 9.90336 0
M  V30 8883 O 1494.74 3.87776 7.92294 0
M  V30 8884 O 1494.2 1.4459 7.59357 0
M  V30 8885 C 1493.26 0.347653 7.69315 0
M  V30 8886 C 1493.99 -0.96767 7.52806 0
M  V30 8887 O 1494.2 -1.21055 6.10208 0
M  V30 8888 C 1495.39 -1.04557 8.13408 0
M  V30 8889 O 1495.78 -2.38311 8.41922 0
M  V30 8890 C 1496.27 -0.491279 7.02284 0
M  V30 8891 C 1495.56 -0.996264 5.77469 0
M  V30 8892 N 1495.61 -0.0501916 4.62973 0
M  V30 8893 H 1492.77 0.374765 8.67791 0
M  V30 8894 H 1492.5 0.443613 6.90476 0
M  V30 8895 H 1493.37 -1.75559 7.96891 0
M  V30 8896 H 1496.02 -1.94563 5.46818 0
M  V30 8897 H 1496.3 0.608651 7.04676 0
M  V30 8898 H 1497.3 -0.889796 7.09039 0
M  V30 8899 H 1495.46 -0.433128 9.04664 0
M  V30 8900 P 1497.33 -2.75334 8.47391 0
M  V30 8901 O 1497.55 -3.84128 9.44797 0
M  V30 8902 O 1498.12 -1.51947 8.68712 0
M  V30 8903 O 1497.58 -3.29363 6.99321 0
M  V30 8904 C 1496.64 -4.24011 6.4274 0
M  V30 8905 C 1497.37 -5.20775 5.52155 0
M  V30 8906 O 1497.58 -4.56534 4.22446 0
M  V30 8907 C 1498.77 -5.62629 5.96531 0
M  V30 8908 O 1499.16 -6.87667 5.41053 0
M  V30 8909 C 1499.65 -4.52537 5.39283 0
M  V30 8910 C 1498.94 -4.20027 4.08623 0
M  V30 8911 N 1498.99 -2.76189 3.71603 0
M  V30 8912 H 1496.15 -4.797 7.24003 0
M  V30 8913 H 1495.88 -3.69856 5.84513 0
M  V30 8914 H 1496.75 -6.10356 5.41441 0
M  V30 8915 P 1500.71 -7.20834 5.23717 0
M  V30 8916 O 1500.93 -8.66104 5.38572 0
M  V30 8917 O 1501.5 -6.33544 6.1349 0
M  V30 8918 O 1500.96 -6.7751 3.72168 0
M  V30 8919 C 1500.02 -7.20825 2.7076 0
M  V30 8920 C 1500.75 -7.45864 1.40599 0
M  V30 8921 O 1500.96 -6.17651 0.734225 0
M  V30 8922 C 1502.15 -8.05808 1.51899 0
M  V30 8923 O 1502.54 -8.74358 0.335205 0
M  V30 8924 C 1503.03 -6.83093 1.70294 0
M  V30 8925 C 1502.32 -5.79992 0.836974 0
M  V30 8926 N 1502.37 -4.41864 1.38293 0
M  V30 8927 H 1499.53 -8.13644 3.0377 0
M  V30 8928 H 1499.26 -6.42788 2.55485 0
M  V30 8929 H 1500.13 -8.12039 0.792769 0
M  V30 8930 P 1504.09 -8.91 -2.59353e-12 0
M  V30 8931 O 1504.31 -10.1726 -0.733694 0
M  V30 8932 O 1504.88 -8.73148 1.23936 0
M  V30 8933 O 1504.34 -7.66872 -0.971405 0
M  V30 8934 C 1503.4 -7.42309 -2.04641 0
M  V30 8935 C 1504.13 -6.86059 -3.24661 0
M  V30 8936 O 1504.34 -5.42847 -3.03646 0
M  V30 8937 C 1505.53 -7.41196 -3.50753 0
M  V30 8938 O 1505.92 -7.27073 -4.86816 0
M  V30 8939 C 1506.41 -6.5273 -2.63741 0
M  V30 8940 C 1505.7 -5.1842 -2.73198 0
M  V30 8941 N 1505.75 -4.38762 -1.4784 0
M  V30 8942 H 1502.91 -8.36803 -2.32493 0
M  V30 8943 H 1502.64 -6.70197 -1.71129 0
M  V30 8944 H 1503.51 -7.03551 -4.13168 0
M  V30 8945 P 1507.47 -7.20834 -5.23717 0
M  V30 8946 O 1507.69 -7.7993 -6.57351 0
M  V30 8947 O 1508.26 -7.79328 -4.13004 0
M  V30 8948 O 1507.72 -5.63315 -5.29344 0
M  V30 8949 C 1506.78 -4.80193 -6.01798 0
M  V30 8950 C 1507.51 -3.64202 -6.65911 0
M  V30 8951 O 1507.72 -2.60694 -5.64732 0
M  V30 8952 C 1508.91 -3.93473 -7.1943 0
M  V30 8953 O 1509.3 -3.02071 -8.21205 0
M  V30 8954 C 1509.79 -3.73047 -5.97036 0
M  V30 8955 C 1509.08 -2.58828 -5.25741 0
M  V30 8956 N 1509.13 -2.6801 -3.77422 0
M  V30 8957 C 1509.28 -1.50443 -3.07133 0
M  V30 8958 O 1509.37 -0.419406 -3.61576 0
M  V30 8959 N 1509.32 -1.6403 -1.69677 0
M  V30 8960 C 1509.23 -2.81206 -0.986255 0
M  V30 8961 C 1509.08 -3.99158 -1.80325 0
M  V30 8962 C 1509.03 -3.89779 -3.1476 0
M  V30 8963 H 1506.29 -5.40332 -6.79951 0
M  V30 8964 H 1506.02 -4.41549 -5.32301 0
M  V30 8965 H 1506.89 -3.26331 -7.47797 0
M  V30 8966 H 1509.54 -1.6395 -5.56554 0
M  V30 8967 H 1509.82 -4.63439 -5.3432 0
M  V30 8968 H 1510.82 -3.44728 -6.25838 0
M  V30 8969 H 1508.98 -4.96652 -7.57263 0
M  V30 8970 H 1508.91 -4.80159 -3.74441 0
M  V30 8971 P 1510.85 -2.75334 -8.47391 0
M  V30 8972 O 1511.07 -2.44571 -9.90142 0
M  V30 8973 O 1511.64 -3.87688 -7.92115 0
M  V30 8974 O 1511.1 -1.4459 -7.59357 0
M  V30 8975 C 1510.16 -0.347608 -7.69215 0
M  V30 8976 C 1510.89 0.96767 -7.52806 0
M  V30 8977 O 1511.1 1.21036 -6.1011 0
M  V30 8978 C 1512.29 1.04544 -8.13308 0
M  V30 8979 O 1512.68 2.38311 -8.41922 0
M  V30 8980 C 1513.17 0.491279 -7.02284 0
M  V30 8981 C 1512.46 0.996264 -5.77469 0
M  V30 8982 N 1512.51 0.0501916 -4.62973 0
M  V30 8983 H 1509.67 -0.374722 -8.67691 0
M  V30 8984 H 1509.4 -0.443485 -6.90277 0
M  V30 8985 H 1510.27 1.75537 -7.96793 0
M  V30 8986 P 1514.23 2.75334 -8.47391 0
M  V30 8987 O 1514.45 3.84128 -9.44797 0
M  V30 8988 O 1515.02 1.51947 -8.68712 0
M  V30 8989 O 1514.48 3.29363 -6.99321 0
M  V30 8990 C 1513.54 4.24011 -6.4274 0
M  V30 8991 C 1514.27 5.20775 -5.52155 0
M  V30 8992 O 1514.48 4.56534 -4.22446 0
M  V30 8993 C 1515.67 5.62629 -5.96531 0
M  V30 8994 O 1516.06 6.87667 -5.41053 0
M  V30 8995 C 1516.55 4.52537 -5.39283 0
M  V30 8996 C 1515.84 4.20027 -4.08623 0
M  V30 8997 N 1515.89 2.76189 -3.71603 0
M  V30 8998 H 1513.05 4.797 -7.24003 0
M  V30 8999 H 1512.78 3.69856 -5.84513 0
M  V30 9000 H 1513.65 6.10356 -5.41441 0
M  V30 9001 P 1517.61 7.20834 -5.23717 0
M  V30 9002 O 1517.83 8.66104 -5.38572 0
M  V30 9003 O 1518.4 6.33544 -6.1349 0
M  V30 9004 O 1517.86 6.7751 -3.72168 0
M  V30 9005 C 1516.92 7.20825 -2.7076 0
M  V30 9006 C 1517.65 7.45864 -1.40599 0
M  V30 9007 O 1517.86 6.17651 -0.734225 0
M  V30 9008 C 1519.05 8.05808 -1.51899 0
M  V30 9009 O 1519.44 8.74358 -0.335205 0
M  V30 9010 C 1519.93 6.83093 -1.70294 0
M  V30 9011 C 1519.22 5.79992 -0.836974 0
M  V30 9012 N 1519.27 4.41864 -1.38293 0
M  V30 9013 H 1516.43 8.13644 -3.0377 0
M  V30 9014 H 1516.16 6.42788 -2.55485 0
M  V30 9015 H 1517.03 8.12039 -0.792769 0
M  V30 9016 P 1520.99 8.91 1.48453e-12 0
M  V30 9017 O 1521.21 10.1726 0.733694 0
M  V30 9018 O 1521.78 8.73148 -1.23936 0
M  V30 9019 O 1521.24 7.66872 0.971405 0
M  V30 9020 C 1520.3 7.42309 2.04641 0
M  V30 9021 C 1521.03 6.86059 3.24661 0
M  V30 9022 O 1521.24 5.42847 3.03646 0
M  V30 9023 C 1522.43 7.41196 3.50753 0
M  V30 9024 O 1522.82 7.27073 4.86816 0
M  V30 9025 C 1523.31 6.5273 2.63741 0
M  V30 9026 C 1522.6 5.1842 2.73198 0
M  V30 9027 N 1522.65 4.38762 1.4784 0
M  V30 9028 H 1519.81 8.36803 2.32493 0
M  V30 9029 H 1519.54 6.70197 1.71129 0
M  V30 9030 H 1520.41 7.03551 4.13168 0
M  V30 9031 P 1524.37 7.20834 5.23717 0
M  V30 9032 O 1524.59 7.79853 6.57286 0
M  V30 9033 O 1525.16 7.79239 4.12957 0
M  V30 9034 O 1524.62 5.63315 5.29344 0
M  V30 9035 C 1523.68 4.80255 6.01876 0
M  V30 9036 C 1524.41 3.64202 6.65911 0
M  V30 9037 O 1524.62 2.60694 5.64732 0
M  V30 9038 C 1525.81 3.93473 7.1943 0
M  V30 9039 O 1526.2 3.02071 8.21205 0
M  V30 9040 C 1526.69 3.73047 5.97036 0
M  V30 9041 C 1525.98 2.58828 5.25741 0
M  V30 9042 N 1526.03 2.68068 3.77503 0
M  V30 9043 H 1523.19 5.40332 6.79951 0
M  V30 9044 H 1522.92 4.41613 5.32378 0
M  V30 9045 H 1523.79 3.26331 7.47797 0
M  V30 9046 P 1527.75 2.75334 8.47391 0
M  V30 9047 O 1527.97 2.44619 9.90336 0
M  V30 9048 O 1528.54 3.87776 7.92294 0
M  V30 9049 O 1528 1.4459 7.59357 0
M  V30 9050 C 1527.06 0.347653 7.69315 0
M  V30 9051 C 1527.79 -0.96767 7.52806 0
M  V30 9052 O 1528 -1.21055 6.10208 0
M  V30 9053 C 1529.19 -1.04557 8.13408 0
M  V30 9054 O 1529.58 -2.38311 8.41922 0
M  V30 9055 C 1530.07 -0.491279 7.02284 0
M  V30 9056 C 1529.36 -0.996264 5.77469 0
M  V30 9057 N 1529.41 -0.0501916 4.62973 0
M  V30 9058 C 1529.33 1.31969 4.65661 0
M  V30 9059 N 1529.4 1.86649 3.48119 0
M  V30 9060 C 1529.55 0.792089 2.62406 0
M  V30 9061 C 1529.68 0.705684 1.2207 0
M  V30 9062 N 1529.69 1.76207 0.413762 0
M  V30 9063 N 1529.8 -0.518981 0.685754 0
M  V30 9064 C 1529.79 -1.57595 1.49174 0
M  V30 9065 N 1529.67 -1.62909 2.80066 0
M  V30 9066 C 1529.55 -0.388195 3.3073 0
M  V30 9067 H 1526.57 0.374765 8.67791 0
M  V30 9068 H 1526.3 0.443613 6.90476 0
M  V30 9069 H 1527.17 -1.75559 7.96891 0
M  V30 9070 H 1529.82 -1.94563 5.46818 0
M  V30 9071 H 1530.1 0.608651 7.04676 0
M  V30 9072 H 1531.09 -0.889796 7.09039 0
M  V30 9073 H 1529.26 -0.433128 9.04664 0
M  V30 9074 H 1529.22 1.89246 5.57664 0
M  V30 9075 H 1529.6 2.71005 0.804694 0
M  V30 9076 H 1529.79 1.63189 -0.603768 0
M  V30 9077 H 1529.9 -2.53475 0.997614 0
M  V30 9078 P 1531.13 -2.75334 8.47391 0
M  V30 9079 O 1531.35 -3.84128 9.44797 0
M  V30 9080 O 1531.92 -1.51947 8.68712 0
M  V30 9081 O 1531.38 -3.29363 6.99321 0
M  V30 9082 C 1530.44 -4.24011 6.4274 0
M  V30 9083 C 1531.17 -5.20775 5.52155 0
M  V30 9084 O 1531.38 -4.56534 4.22446 0
M  V30 9085 C 1532.57 -5.62629 5.96531 0
M  V30 9086 O 1532.96 -6.87667 5.41053 0
M  V30 9087 C 1533.45 -4.52537 5.39283 0
M  V30 9088 C 1532.74 -4.20027 4.08623 0
M  V30 9089 N 1532.79 -2.76189 3.71603 0
M  V30 9090 C 1532.71 -1.64862 4.52822 0
M  V30 9091 N 1532.79 -0.512671 3.88633 0
M  V30 9092 C 1532.93 -0.888083 2.54977 0
M  V30 9093 C 1533.06 -0.094668 1.38677 0
M  V30 9094 O 1533.08 1.13053 1.28163 0
M  V30 9095 N 1533.18 -0.890102 0.232633 0
M  V30 9096 C 1533.18 -2.26958 0.21772 0
M  V30 9097 N 1533.31 -2.84626 -0.97925 0
M  V30 9098 N 1533.05 -3.0178 1.31033 0
M  V30 9099 C 1532.93 -2.26781 2.43843 0
M  V30 9100 H 1529.95 -4.797 7.24003 0
M  V30 9101 H 1529.68 -3.69856 5.84513 0
M  V30 9102 H 1530.55 -6.10356 5.41441 0
M  V30 9103 H 1533.2 -4.79061 3.27488 0
M  V30 9104 H 1533.48 -3.64906 6.05785 0
M  V30 9105 H 1534.47 -4.8868 5.2125 0
M  V30 9106 H 1532.64 -5.66726 7.06352 0
M  V30 9107 H 1532.59 -1.71169 5.60966 0
M  V30 9108 H 1533.27 -0.419134 -0.644739 0
M  V30 9109 H 1533.31 -3.87332 -1.06098 0
M  V30 9110 H 1533.41 -2.26417 -1.82483 0
M  V30 9111 P 1534.51 -7.20834 5.23717 0
M  V30 9112 O 1534.73 -8.66104 5.38572 0
M  V30 9113 O 1535.3 -6.33544 6.1349 0
M  V30 9114 O 1534.76 -6.7751 3.72168 0
M  V30 9115 C 1533.82 -7.20825 2.7076 0
M  V30 9116 C 1534.55 -7.45864 1.40599 0
M  V30 9117 O 1534.76 -6.17651 0.734225 0
M  V30 9118 C 1535.95 -8.05808 1.51899 0
M  V30 9119 O 1536.34 -8.74358 0.335205 0
M  V30 9120 C 1536.83 -6.83093 1.70294 0
M  V30 9121 C 1536.12 -5.79992 0.836974 0
M  V30 9122 N 1536.17 -4.41864 1.38293 0
M  V30 9123 C 1536.09 -3.99538 2.69438 0
M  V30 9124 N 1536.17 -2.69909 2.84277 0
M  V30 9125 C 1536.31 -2.21719 1.5408 0
M  V30 9126 C 1536.44 -0.891712 1.06628 0
M  V30 9127 N 1536.56 -0.856846 -0.334985 0
M  V30 9128 C 1536.56 -1.9641 -1.15789 0
M  V30 9129 N 1536.69 -1.72708 -2.46522 0
M  V30 9130 N 1536.43 -3.21165 -0.713741 0
M  V30 9131 C 1536.31 -3.26797 0.639748 0
M  V30 9132 H 1533.33 -8.13644 3.0377 0
M  V30 9133 H 1533.06 -6.42788 2.55485 0
M  V30 9134 H 1533.93 -8.12039 0.792769 0
M  V30 9135 P 1537.89 -8.91 -3.75525e-13 0
M  V30 9136 O 1538.11 -10.1746 -0.733838 0
M  V30 9137 O 1538.68 -8.73346 1.23964 0
M  V30 9138 O 1538.14 -7.66872 -0.971405 0
M  V30 9139 C 1537.2 -7.42405 -2.04668 0
M  V30 9140 C 1537.93 -6.86059 -3.24661 0
M  V30 9141 O 1538.14 -5.42934 -3.03695 0
M  V30 9142 C 1539.33 -7.41287 -3.50796 0
M  V30 9143 O 1539.72 -7.27073 -4.86816 0
M  V30 9144 C 1540.21 -6.5273 -2.63741 0
M  V30 9145 C 1539.5 -5.1842 -2.73198 0
M  V30 9146 N 1539.55 -4.38762 -1.4784 0
M  V30 9147 H 1536.71 -8.36899 -2.3252 0
M  V30 9148 H 1536.44 -6.70391 -1.71179 0
M  V30 9149 H 1537.31 -7.03638 -4.13219 0
M  V30 9150 H 1539.96 -4.59931 -3.54016 0
M  V30 9151 H 1540.24 -6.88995 -1.59871 0
M  V30 9152 H 1541.23 -6.4684 -3.0373 0
M  V30 9153 H 1539.4 -8.47002 -3.20749 0
M  V30 9154 P 1541.27 -7.20834 -5.23717 0
M  V30 9155 O 1541.49 -7.79853 -6.57286 0
M  V30 9156 O 1542.06 -7.79239 -4.12957 0
M  V30 9157 O 1541.52 -5.63315 -5.29344 0
M  V30 9158 C 1540.58 -4.80255 -6.01876 0
M  V30 9159 C 1541.31 -3.64202 -6.65911 0
M  V30 9160 O 1541.52 -2.60694 -5.64732 0
M  V30 9161 C 1542.71 -3.93473 -7.1943 0
M  V30 9162 O 1543.1 -3.02071 -8.21205 0
M  V30 9163 C 1543.59 -3.73047 -5.97036 0
M  V30 9164 C 1542.88 -2.58828 -5.25741 0
M  V30 9165 N 1542.93 -2.68068 -3.77503 0
M  V30 9166 H 1540.09 -5.40332 -6.79951 0
M  V30 9167 H 1539.82 -4.41613 -5.32378 0
M  V30 9168 H 1540.69 -3.26331 -7.47797 0
M  V30 9169 P 1544.65 -2.75334 -8.47391 0
M  V30 9170 O 1544.87 -2.44619 -9.90336 0
M  V30 9171 O 1545.44 -3.87776 -7.92294 0
M  V30 9172 O 1544.9 -1.4459 -7.59357 0
M  V30 9173 C 1543.96 -0.347653 -7.69315 0
M  V30 9174 C 1544.69 0.96767 -7.52806 0
M  V30 9175 O 1544.9 1.21055 -6.10208 0
M  V30 9176 C 1546.09 1.04557 -8.13408 0
M  V30 9177 O 1546.48 2.38311 -8.41922 0
M  V30 9178 C 1546.97 0.491279 -7.02284 0
M  V30 9179 C 1546.26 0.996264 -5.77469 0
M  V30 9180 N 1546.31 0.0501916 -4.62973 0
M  V30 9181 H 1543.47 -0.374765 -8.67791 0
M  V30 9182 H 1543.2 -0.443613 -6.90476 0
M  V30 9183 H 1544.07 1.75559 -7.96891 0
M  V30 9184 H 1546.72 1.94563 -5.46818 0
M  V30 9185 H 1547 -0.608651 -7.04676 0
M  V30 9186 H 1547.99 0.889796 -7.09039 0
M  V30 9187 H 1546.16 0.433128 -9.04664 0
M  V30 9188 P 1548.03 2.75334 -8.47391 0
M  V30 9189 O 1548.25 3.84128 -9.44797 0
M  V30 9190 O 1548.82 1.51947 -8.68712 0
M  V30 9191 O 1548.28 3.29363 -6.99321 0
M  V30 9192 C 1547.34 4.24011 -6.4274 0
M  V30 9193 C 1548.07 5.20775 -5.52155 0
M  V30 9194 O 1548.28 4.56534 -4.22446 0
M  V30 9195 C 1549.47 5.62629 -5.96531 0
M  V30 9196 O 1549.86 6.87667 -5.41053 0
M  V30 9197 C 1550.35 4.52537 -5.39283 0
M  V30 9198 C 1549.64 4.20027 -4.08623 0
M  V30 9199 N 1549.69 2.76189 -3.71603 0
M  V30 9200 H 1546.85 4.797 -7.24003 0
M  V30 9201 H 1546.58 3.69856 -5.84513 0
M  V30 9202 H 1547.45 6.10356 -5.41441 0
M  V30 9203 P 1551.41 7.20834 -5.23717 0
M  V30 9204 O 1551.63 8.66104 -5.38572 0
M  V30 9205 O 1552.2 6.33544 -6.1349 0
M  V30 9206 O 1551.66 6.7751 -3.72168 0
M  V30 9207 C 1550.72 7.20825 -2.7076 0
M  V30 9208 C 1551.45 7.45864 -1.40599 0
M  V30 9209 O 1551.66 6.17651 -0.734225 0
M  V30 9210 C 1552.85 8.05808 -1.51899 0
M  V30 9211 O 1553.24 8.74358 -0.335205 0
M  V30 9212 C 1553.73 6.83093 -1.70294 0
M  V30 9213 C 1553.02 5.79992 -0.836974 0
M  V30 9214 N 1553.07 4.41864 -1.38293 0
M  V30 9215 H 1550.23 8.13644 -3.0377 0
M  V30 9216 H 1549.96 6.42788 -2.55485 0
M  V30 9217 H 1550.83 8.12039 -0.792769 0
M  V30 9218 P 1554.79 8.91 -7.3348e-13 0
M  V30 9219 O 1555.01 10.1726 0.733694 0
M  V30 9220 O 1555.58 8.73148 -1.23936 0
M  V30 9221 O 1555.04 7.66872 0.971405 0
M  V30 9222 C 1554.1 7.42309 2.04641 0
M  V30 9223 C 1554.83 6.86059 3.24661 0
M  V30 9224 O 1555.04 5.42847 3.03646 0
M  V30 9225 C 1556.23 7.41196 3.50753 0
M  V30 9226 O 1556.62 7.27073 4.86816 0
M  V30 9227 C 1557.11 6.5273 2.63741 0
M  V30 9228 C 1556.4 5.1842 2.73198 0
M  V30 9229 N 1556.45 4.38762 1.4784 0
M  V30 9230 H 1553.61 8.36803 2.32493 0
M  V30 9231 H 1553.34 6.70197 1.71129 0
M  V30 9232 H 1554.21 7.03551 4.13168 0
M  V30 9233 P 1558.17 7.20834 5.23717 0
M  V30 9234 O 1558.39 7.80006 6.57415 0
M  V30 9235 O 1558.96 7.79416 4.13051 0
M  V30 9236 O 1558.42 5.63315 5.29344 0
M  V30 9237 C 1557.48 4.80318 6.01954 0
M  V30 9238 C 1558.21 3.64202 6.65911 0
M  V30 9239 O 1558.42 2.60736 5.64823 0
M  V30 9240 C 1559.61 3.93521 7.19518 0
M  V30 9241 O 1560 3.02071 8.21205 0
M  V30 9242 C 1560.49 3.73047 5.97036 0
M  V30 9243 C 1559.78 2.58828 5.25741 0
M  V30 9244 N 1559.83 2.68068 3.77503 0
M  V30 9245 C 1559.75 3.80474 2.99159 0
M  V30 9246 N 1559.82 3.55622 1.71925 0
M  V30 9247 C 1559.97 2.1832 1.65733 0
M  V30 9248 C 1560.1 1.28842 0.572777 0
M  V30 9249 N 1560.11 1.66875 -0.70098 0
M  V30 9250 N 1560.22 -0.016788 0.859836 0
M  V30 9251 C 1560.21 -0.398145 2.13316 0
M  V30 9252 N 1560.09 0.328224 3.22333 0
M  V30 9253 C 1559.97 1.62992 2.90383 0
M  V30 9254 H 1556.99 5.40394 6.8003 0
M  V30 9255 H 1556.72 4.41741 5.32532 0
M  V30 9256 H 1557.59 3.26371 7.47889 0
M  V30 9257 H 1560.24 1.64007 5.56746 0
M  V30 9258 H 1560.52 4.63439 5.3432 0
M  V30 9259 H 1561.51 3.44776 6.25925 0
M  V30 9260 H 1559.68 4.96707 7.57347 0
M  V30 9261 H 1559.64 4.8089 3.39924 0
M  V30 9262 H 1560.02 2.66547 -0.941919 0
M  V30 9263 H 1560.21 0.965341 -1.44766 0
M  V30 9264 H 1560.32 -1.46427 2.29697 0
M  V30 9265 P 1561.55 2.75334 8.47391 0
M  V30 9266 O 1561.77 2.44571 9.90142 0
M  V30 9267 O 1562.34 3.87688 7.92115 0
M  V30 9268 O 1561.8 1.4459 7.59357 0
M  V30 9269 C 1560.86 0.347608 7.69215 0
M  V30 9270 C 1561.59 -0.96767 7.52806 0
M  V30 9271 O 1561.8 -1.21036 6.1011 0
M  V30 9272 C 1562.99 -1.04544 8.13308 0
M  V30 9273 O 1563.38 -2.38311 8.41922 0
M  V30 9274 C 1563.87 -0.491279 7.02284 0
M  V30 9275 C 1563.16 -0.996264 5.77469 0
M  V30 9276 N 1563.21 -0.0501916 4.62973 0
M  V30 9277 H 1560.37 0.374722 8.67691 0
M  V30 9278 H 1560.1 0.443485 6.90277 0
M  V30 9279 H 1560.97 -1.75537 7.96793 0
M  V30 9280 P 1564.93 -2.75334 8.47391 0
M  V30 9281 O 1565.15 -3.84128 9.44797 0
M  V30 9282 O 1565.72 -1.51947 8.68712 0
M  V30 9283 O 1565.18 -3.29363 6.99321 0
M  V30 9284 C 1564.24 -4.24011 6.4274 0
M  V30 9285 C 1564.97 -5.20775 5.52155 0
M  V30 9286 O 1565.18 -4.56534 4.22446 0
M  V30 9287 C 1566.37 -5.62629 5.96531 0
M  V30 9288 O 1566.76 -6.87667 5.41053 0
M  V30 9289 C 1567.25 -4.52537 5.39283 0
M  V30 9290 C 1566.54 -4.20027 4.08623 0
M  V30 9291 N 1566.59 -2.76189 3.71603 0
M  V30 9292 C 1566.51 -1.64862 4.52822 0
M  V30 9293 N 1566.59 -0.512671 3.88633 0
M  V30 9294 C 1566.73 -0.888083 2.54977 0
M  V30 9295 C 1566.86 -0.094668 1.38677 0
M  V30 9296 N 1566.98 -0.890102 0.232633 0
M  V30 9297 C 1566.98 -2.26958 0.21772 0
M  V30 9298 N 1567.11 -2.84626 -0.97925 0
M  V30 9299 N 1566.85 -3.0178 1.31033 0
M  V30 9300 C 1566.73 -2.26781 2.43843 0
M  V30 9301 H 1563.75 -4.797 7.24003 0
M  V30 9302 H 1563.48 -3.69856 5.84513 0
M  V30 9303 H 1564.35 -6.10356 5.41441 0
M  V30 9304 P 1568.31 -7.20834 5.23717 0
M  V30 9305 O 1568.53 -8.66274 5.38678 0
M  V30 9306 O 1569.1 -6.33687 6.13629 0
M  V30 9307 O 1568.56 -6.7751 3.72168 0
M  V30 9308 C 1567.62 -7.20919 2.70795 0
M  V30 9309 C 1568.35 -7.45864 1.40599 0
M  V30 9310 O 1568.56 -6.17751 0.734343 0
M  V30 9311 C 1569.75 -8.05906 1.51917 0
M  V30 9312 O 1570.14 -8.74358 0.335205 0
M  V30 9313 C 1570.63 -6.83093 1.70294 0
M  V30 9314 C 1569.92 -5.79992 0.836974 0
M  V30 9315 N 1569.97 -4.41864 1.38293 0
M  V30 9316 H 1567.13 -8.13738 3.03804 0
M  V30 9317 H 1566.86 -6.42974 2.55559 0
M  V30 9318 H 1567.73 -8.12139 0.792866 0
M  V30 9319 H 1570.38 -5.80178 -0.160643 0
M  V30 9320 H 1570.66 -6.51379 2.75643 0
M  V30 9321 H 1571.65 -7.01832 1.3448 0
M  V30 9322 H 1569.82 -8.73771 2.38364 0
M  V30 9323 P 1571.69 -8.91 1.84249e-12 0
M  V30 9324 O 1571.91 -10.1726 -0.733694 0
M  V30 9325 O 1572.48 -8.73148 1.23936 0
M  V30 9326 O 1571.94 -7.66872 -0.971405 0
M  V30 9327 C 1571 -7.42309 -2.04641 0
M  V30 9328 C 1571.73 -6.86059 -3.24661 0
M  V30 9329 O 1571.94 -5.42847 -3.03646 0
M  V30 9330 C 1573.13 -7.41196 -3.50753 0
M  V30 9331 O 1573.52 -7.27073 -4.86816 0
M  V30 9332 C 1574.01 -6.5273 -2.63741 0
M  V30 9333 C 1573.3 -5.1842 -2.73198 0
M  V30 9334 N 1573.35 -4.38762 -1.4784 0
M  V30 9335 H 1570.51 -8.36803 -2.32493 0
M  V30 9336 H 1570.24 -6.70197 -1.71129 0
M  V30 9337 H 1571.11 -7.03551 -4.13168 0
M  V30 9338 P 1575.07 -7.20834 -5.23717 0
M  V30 9339 O 1575.29 -7.79853 -6.57286 0
M  V30 9340 O 1575.86 -7.79239 -4.12957 0
M  V30 9341 O 1575.32 -5.63315 -5.29344 0
M  V30 9342 C 1574.38 -4.80255 -6.01876 0
M  V30 9343 C 1575.11 -3.64202 -6.65911 0
M  V30 9344 O 1575.32 -2.60694 -5.64732 0
M  V30 9345 C 1576.51 -3.93473 -7.1943 0
M  V30 9346 O 1576.9 -3.02071 -8.21205 0
M  V30 9347 C 1577.39 -3.73047 -5.97036 0
M  V30 9348 C 1576.68 -2.58828 -5.25741 0
M  V30 9349 N 1576.73 -2.68068 -3.77503 0
M  V30 9350 H 1573.89 -5.40332 -6.79951 0
M  V30 9351 H 1573.62 -4.41613 -5.32378 0
M  V30 9352 H 1574.49 -3.26331 -7.47797 0
M  V30 9353 P 1578.45 -2.75334 -8.47391 0
M  V30 9354 O 1578.67 -2.44619 -9.90336 0
M  V30 9355 O 1579.24 -3.87776 -7.92294 0
M  V30 9356 O 1578.7 -1.4459 -7.59357 0
M  V30 9357 C 1577.76 -0.347653 -7.69315 0
M  V30 9358 C 1578.49 0.96767 -7.52806 0
M  V30 9359 O 1578.7 1.21055 -6.10208 0
M  V30 9360 C 1579.89 1.04557 -8.13408 0
M  V30 9361 O 1580.28 2.38311 -8.41922 0
M  V30 9362 C 1580.77 0.491279 -7.02284 0
M  V30 9363 C 1580.06 0.996264 -5.77469 0
M  V30 9364 N 1580.11 0.0501916 -4.62973 0
M  V30 9365 H 1577.27 -0.374765 -8.67791 0
M  V30 9366 H 1577 -0.443613 -6.90476 0
M  V30 9367 H 1577.87 1.75559 -7.96891 0
M  V30 9368 H 1580.52 1.94563 -5.46818 0
M  V30 9369 H 1580.8 -0.608651 -7.04676 0
M  V30 9370 H 1581.79 0.889796 -7.09039 0
M  V30 9371 H 1579.96 0.433128 -9.04664 0
M  V30 9372 P 1581.83 2.75334 -8.47391 0
M  V30 9373 O 1582.05 3.84128 -9.44797 0
M  V30 9374 O 1582.62 1.51947 -8.68712 0
M  V30 9375 O 1582.08 3.29363 -6.99321 0
M  V30 9376 C 1581.14 4.24011 -6.4274 0
M  V30 9377 C 1581.87 5.20775 -5.52155 0
M  V30 9378 O 1582.08 4.56534 -4.22446 0
M  V30 9379 C 1583.27 5.62629 -5.96531 0
M  V30 9380 O 1583.66 6.87667 -5.41053 0
M  V30 9381 C 1584.15 4.52537 -5.39283 0
M  V30 9382 C 1583.44 4.20027 -4.08623 0
M  V30 9383 N 1583.49 2.76189 -3.71603 0
M  V30 9384 H 1580.65 4.797 -7.24003 0
M  V30 9385 H 1580.38 3.69856 -5.84513 0
M  V30 9386 H 1581.25 6.10356 -5.41441 0
M  V30 9387 P 1585.21 7.20834 -5.23717 0
M  V30 9388 O 1585.43 8.66189 -5.38625 0
M  V30 9389 O 1586 6.33615 -6.1356 0
M  V30 9390 O 1585.46 6.7751 -3.72168 0
M  V30 9391 C 1584.52 7.20732 -2.70725 0
M  V30 9392 C 1585.25 7.45864 -1.40599 0
M  V30 9393 O 1585.46 6.17651 -0.734225 0
M  V30 9394 C 1586.65 8.05808 -1.51899 0
M  V30 9395 O 1587.04 8.74358 -0.335205 0
M  V30 9396 C 1587.53 6.83093 -1.70294 0
M  V30 9397 C 1586.82 5.79992 -0.836974 0
M  V30 9398 N 1586.87 4.41769 -1.38263 0
M  V30 9399 C 1587.02 3.38591 -0.481702 0
M  V30 9400 O 1587.11 3.56839 0.718452 0
M  V30 9401 N 1587.06 2.1206 -1.03569 0
M  V30 9402 C 1586.97 1.80696 -2.36966 0
M  V30 9403 O 1587.02 0.630473 -2.74862 0
M  V30 9404 C 1586.82 2.94845 -3.23898 0
M  V30 9405 C 1586.71 2.65253 -4.70362 0
M  V30 9406 C 1586.77 4.19803 -2.73435 0
M  V30 9407 H 1584.03 8.13644 -3.0377 0
M  V30 9408 H 1583.76 6.42695 -2.55448 0
M  V30 9409 H 1584.63 8.12039 -0.792769 0
M  V30 9410 H 1587.28 5.79978 0.160587 0
M  V30 9411 H 1587.56 6.51379 -2.75643 0
M  V30 9412 H 1588.55 7.01734 -1.34462 0
M  V30 9413 H 1586.72 8.73674 -2.38337 0
M  V30 9414 H 1586.65 5.04492 -3.4095 0
M  V30 9415 H 1587.68 2.83924 -5.1913 0
M  V30 9416 H 1585.94 3.29824 -5.15163 0
M  V30 9417 H 1586.43 1.59723 -4.84449 0
M  V30 9418 H 1587.17 1.35644 -0.399345 0
M  V30 9419 P 1588.59 8.91 -2.95149e-12 0
M  V30 9420 O 1588.81 10.1726 0.733694 0
M  V30 9421 O 1589.38 8.73148 -1.23936 0
M  V30 9422 O 1588.84 7.66872 0.971405 0
M  V30 9423 C 1587.9 7.42309 2.04641 0
M  V30 9424 C 1588.63 6.86059 3.24661 0
M  V30 9425 O 1588.84 5.42847 3.03646 0
M  V30 9426 C 1590.03 7.41196 3.50753 0
M  V30 9427 O 1590.42 7.27073 4.86816 0
M  V30 9428 C 1590.91 6.5273 2.63741 0
M  V30 9429 C 1590.2 5.1842 2.73198 0
M  V30 9430 N 1590.25 4.38762 1.4784 0
M  V30 9431 H 1587.41 8.36803 2.32493 0
M  V30 9432 H 1587.14 6.70197 1.71129 0
M  V30 9433 H 1588.01 7.03551 4.13168 0
M  V30 9434 P 1591.97 7.20834 5.23717 0
M  V30 9435 O 1592.19 7.7993 6.57351 0
M  V30 9436 O 1592.76 7.79328 4.13004 0
M  V30 9437 O 1592.22 5.63315 5.29344 0
M  V30 9438 C 1591.28 4.80193 6.01798 0
M  V30 9439 C 1592.01 3.64202 6.65911 0
M  V30 9440 O 1592.22 2.60694 5.64732 0
M  V30 9441 C 1593.41 3.93473 7.1943 0
M  V30 9442 O 1593.8 3.02071 8.21205 0
M  V30 9443 C 1594.29 3.73047 5.97036 0
M  V30 9444 C 1593.58 2.58828 5.25741 0
M  V30 9445 N 1593.63 2.6801 3.77422 0
M  V30 9446 C 1593.78 1.50443 3.07133 0
M  V30 9447 O 1593.87 0.419406 3.61576 0
M  V30 9448 N 1593.82 1.6403 1.69677 0
M  V30 9449 C 1593.73 2.81206 0.986255 0
M  V30 9450 O 1593.78 2.80892 -0.249754 0
M  V30 9451 C 1593.58 3.99158 1.80325 0
M  V30 9452 C 1593.47 5.29309 1.06921 0
M  V30 9453 C 1593.53 3.89779 3.1476 0
M  V30 9454 H 1590.79 5.40332 6.79951 0
M  V30 9455 H 1590.52 4.41549 5.32301 0
M  V30 9456 H 1591.39 3.26331 7.47797 0
M  V30 9457 H 1594.04 1.6395 5.56554 0
M  V30 9458 H 1594.32 4.63439 5.3432 0
M  V30 9459 H 1595.31 3.44728 6.25838 0
M  V30 9460 H 1593.48 4.96652 7.57263 0
M  V30 9461 H 1593.41 4.80159 3.74441 0
M  V30 9462 H 1594.44 5.81459 1.09608 0
M  V30 9463 H 1592.7 5.9187 1.54487 0
M  V30 9464 H 1593.19 5.10095 0.0220288 0
M  V30 9465 H 1593.93 0.798962 1.16664 0
M  V30 9466 P 1595.35 2.75334 8.47391 0
M  V30 9467 O 1595.57 2.44571 9.90142 0
M  V30 9468 O 1596.14 3.87688 7.92115 0
M  V30 9469 O 1595.6 1.4459 7.59357 0
M  V30 9470 C 1594.66 0.347608 7.69215 0
M  V30 9471 C 1595.39 -0.96767 7.52806 0
M  V30 9472 O 1595.6 -1.21036 6.1011 0
M  V30 9473 C 1596.79 -1.04544 8.13308 0
M  V30 9474 O 1597.18 -2.38311 8.41922 0
M  V30 9475 C 1597.67 -0.491279 7.02284 0
M  V30 9476 C 1596.96 -0.996264 5.77469 0
M  V30 9477 N 1597.01 -0.0501916 4.62973 0
M  V30 9478 H 1594.17 0.374722 8.67691 0
M  V30 9479 H 1593.9 0.443485 6.90277 0
M  V30 9480 H 1594.77 -1.75537 7.96793 0
M  V30 9481 P 1598.73 -2.75334 8.47391 0
M  V30 9482 O 1598.95 -3.84128 9.44797 0
M  V30 9483 O 1599.52 -1.51947 8.68712 0
M  V30 9484 O 1598.98 -3.29363 6.99321 0
M  V30 9485 C 1598.04 -4.24011 6.4274 0
M  V30 9486 C 1598.77 -5.20775 5.52155 0
M  V30 9487 O 1598.98 -4.56534 4.22446 0
M  V30 9488 C 1600.17 -5.62629 5.96531 0
M  V30 9489 O 1600.56 -6.87667 5.41053 0
M  V30 9490 C 1601.05 -4.52537 5.39283 0
M  V30 9491 C 1600.34 -4.20027 4.08623 0
M  V30 9492 N 1600.39 -2.76189 3.71603 0
M  V30 9493 H 1597.55 -4.797 7.24003 0
M  V30 9494 H 1597.28 -3.69856 5.84513 0
M  V30 9495 H 1598.15 -6.10356 5.41441 0
M  V30 9496 P 1602.11 -7.20834 5.23717 0
M  V30 9497 O 1602.33 -8.66104 5.38572 0
M  V30 9498 O 1602.9 -6.33544 6.1349 0
M  V30 9499 O 1602.36 -6.7751 3.72168 0
M  V30 9500 C 1601.42 -7.20825 2.7076 0
M  V30 9501 C 1602.15 -7.45864 1.40599 0
M  V30 9502 O 1602.36 -6.17651 0.734225 0
M  V30 9503 C 1603.55 -8.05808 1.51899 0
M  V30 9504 O 1603.94 -8.74358 0.335205 0
M  V30 9505 C 1604.43 -6.83093 1.70294 0
M  V30 9506 C 1603.72 -5.79992 0.836974 0
M  V30 9507 N 1603.77 -4.41864 1.38293 0
M  V30 9508 H 1600.93 -8.13644 3.0377 0
M  V30 9509 H 1600.66 -6.42788 2.55485 0
M  V30 9510 H 1601.53 -8.12039 0.792769 0
M  V30 9511 P 1605.49 -8.91 4.0605e-12 0
M  V30 9512 O 1605.71 -10.1726 -0.733694 0
M  V30 9513 O 1606.28 -8.73148 1.23936 0
M  V30 9514 O 1605.74 -7.66872 -0.971405 0
M  V30 9515 C 1604.8 -7.42309 -2.04641 0
M  V30 9516 C 1605.53 -6.86059 -3.24661 0
M  V30 9517 O 1605.74 -5.42847 -3.03646 0
M  V30 9518 C 1606.93 -7.41196 -3.50753 0
M  V30 9519 O 1607.32 -7.27073 -4.86816 0
M  V30 9520 C 1607.81 -6.5273 -2.63741 0
M  V30 9521 C 1607.1 -5.1842 -2.73198 0
M  V30 9522 N 1607.15 -4.38762 -1.4784 0
M  V30 9523 H 1604.31 -8.36803 -2.32493 0
M  V30 9524 H 1604.04 -6.70197 -1.71129 0
M  V30 9525 H 1604.91 -7.03551 -4.13168 0
M  V30 9526 P 1608.87 -7.20834 -5.23717 0
M  V30 9527 O 1609.09 -7.80006 -6.57415 0
M  V30 9528 O 1609.66 -7.79416 -4.13051 0
M  V30 9529 O 1609.12 -5.63315 -5.29344 0
M  V30 9530 C 1608.18 -4.80318 -6.01954 0
M  V30 9531 C 1608.91 -3.64202 -6.65911 0
M  V30 9532 O 1609.12 -2.60736 -5.64823 0
M  V30 9533 C 1610.31 -3.93521 -7.19518 0
M  V30 9534 O 1610.7 -3.02071 -8.21205 0
M  V30 9535 C 1611.19 -3.73047 -5.97036 0
M  V30 9536 C 1610.48 -2.58828 -5.25741 0
M  V30 9537 N 1610.53 -2.68068 -3.77503 0
M  V30 9538 C 1610.45 -3.80474 -2.99159 0
M  V30 9539 N 1610.52 -3.55622 -1.71925 0
M  V30 9540 C 1610.67 -2.1832 -1.65733 0
M  V30 9541 C 1610.8 -1.28842 -0.572777 0
M  V30 9542 N 1610.81 -1.66875 0.70098 0
M  V30 9543 N 1610.92 0.016788 -0.859836 0
M  V30 9544 C 1610.91 0.398145 -2.13316 0
M  V30 9545 N 1610.79 -0.328224 -3.22333 0
M  V30 9546 C 1610.67 -1.62992 -2.90383 0
M  V30 9547 H 1607.69 -5.40394 -6.8003 0
M  V30 9548 H 1607.42 -4.41741 -5.32532 0
M  V30 9549 H 1608.29 -3.26371 -7.47889 0
M  V30 9550 H 1610.94 -1.64007 -5.56746 0
M  V30 9551 H 1611.22 -4.63439 -5.3432 0
M  V30 9552 H 1612.21 -3.44776 -6.25925 0
M  V30 9553 H 1610.38 -4.96707 -7.57347 0
M  V30 9554 H 1610.34 -4.8089 -3.39924 0
M  V30 9555 H 1610.72 -2.66547 0.941919 0
M  V30 9556 H 1610.91 -0.965341 1.44766 0
M  V30 9557 H 1611.02 1.46427 -2.29697 0
M  V30 9558 P 1612.25 -2.75334 -8.47391 0
M  V30 9559 O 1612.47 -2.44571 -9.90142 0
M  V30 9560 O 1613.04 -3.87688 -7.92115 0
M  V30 9561 O 1612.5 -1.4459 -7.59357 0
M  V30 9562 C 1611.56 -0.347608 -7.69215 0
M  V30 9563 C 1612.29 0.96767 -7.52806 0
M  V30 9564 O 1612.5 1.21036 -6.1011 0
M  V30 9565 C 1613.69 1.04544 -8.13308 0
M  V30 9566 O 1614.08 2.38311 -8.41922 0
M  V30 9567 C 1614.57 0.491279 -7.02284 0
M  V30 9568 C 1613.86 0.996264 -5.77469 0
M  V30 9569 N 1613.91 0.0501916 -4.62973 0
M  V30 9570 C 1613.83 -1.32786 -4.63244 0
M  V30 9571 N 1613.91 -1.86957 -3.44545 0
M  V30 9572 C 1614.05 -0.780241 -2.58481 0
M  V30 9573 C 1614.18 -0.738536 -1.17757 0
M  V30 9574 O 1614.2 -1.66794 -0.372349 0
M  V30 9575 N 1614.3 0.58337 -0.711393 0
M  V30 9576 C 1614.3 1.70816 -1.51017 0
M  V30 9577 N 1614.43 2.87826 -0.880757 0
M  V30 9578 N 1614.17 1.67126 -2.8339 0
M  V30 9579 C 1614.05 0.401421 -3.30572 0
M  V30 9580 H 1611.07 -0.374722 -8.67691 0
M  V30 9581 H 1610.8 -0.443485 -6.90277 0
M  V30 9582 H 1611.67 1.75537 -7.96793 0
M  V30 9583 H 1614.32 1.95076 -5.46529 0
M  V30 9584 H 1614.6 -0.608565 -7.04577 0
M  V30 9585 H 1615.59 0.889672 -7.08939 0
M  V30 9586 H 1613.76 0.43308 -9.04564 0
M  V30 9587 H 1613.71 -1.91249 -5.54442 0
M  V30 9588 H 1614.39 0.718054 0.275244 0
M  V30 9589 H 1614.43 3.75721 -1.41832 0
M  V30 9590 H 1614.53 2.90436 0.145468 0
M  V30 9591 P 1615.63 2.75334 -8.47391 0
M  V30 9592 O 1615.85 3.84128 -9.44797 0
M  V30 9593 O 1616.42 1.51947 -8.68712 0
M  V30 9594 O 1615.88 3.29363 -6.99321 0
M  V30 9595 C 1614.94 4.24011 -6.4274 0
M  V30 9596 C 1615.67 5.20775 -5.52155 0
M  V30 9597 O 1615.88 4.56534 -4.22446 0
M  V30 9598 C 1617.07 5.62629 -5.96531 0
M  V30 9599 O 1617.46 6.87667 -5.41053 0
M  V30 9600 C 1617.95 4.52537 -5.39283 0
M  V30 9601 C 1617.24 4.20027 -4.08623 0
M  V30 9602 N 1617.29 2.76189 -3.71603 0
M  V30 9603 H 1614.45 4.797 -7.24003 0
M  V30 9604 H 1614.18 3.69856 -5.84513 0
M  V30 9605 H 1615.05 6.10356 -5.41441 0
M  V30 9606 P 1619.01 7.20834 -5.23717 0
M  V30 9607 O 1619.23 8.66104 -5.38572 0
M  V30 9608 O 1619.8 6.33544 -6.1349 0
M  V30 9609 O 1619.26 6.7751 -3.72168 0
M  V30 9610 C 1618.32 7.20825 -2.7076 0
M  V30 9611 C 1619.05 7.45864 -1.40599 0
M  V30 9612 O 1619.26 6.17651 -0.734225 0
M  V30 9613 C 1620.45 8.05808 -1.51899 0
M  V30 9614 O 1620.84 8.74358 -0.335205 0
M  V30 9615 C 1621.33 6.83093 -1.70294 0
M  V30 9616 C 1620.62 5.79992 -0.836974 0
M  V30 9617 N 1620.67 4.41864 -1.38293 0
M  V30 9618 C 1620.59 3.99538 -2.69438 0
M  V30 9619 N 1620.67 2.69909 -2.84277 0
M  V30 9620 C 1620.81 2.21719 -1.5408 0
M  V30 9621 C 1620.94 0.891712 -1.06628 0
M  V30 9622 O 1620.96 -0.161298 -1.70137 0
M  V30 9623 N 1621.06 0.856846 0.334985 0
M  V30 9624 C 1621.06 1.9641 1.15789 0
M  V30 9625 N 1621.19 1.72708 2.46522 0
M  V30 9626 N 1620.93 3.21165 0.713741 0
M  V30 9627 C 1620.81 3.26797 -0.639748 0
M  V30 9628 H 1617.83 8.13644 -3.0377 0
M  V30 9629 H 1617.56 6.42788 -2.55485 0
M  V30 9630 H 1618.43 8.12039 -0.792769 0
M  V30 9631 H 1621.08 5.80061 0.166416 0
M  V30 9632 H 1621.36 6.51287 -2.75604 0
M  V30 9633 H 1622.35 7.01734 -1.34462 0
M  V30 9634 H 1620.52 8.73674 -2.38337 0
M  V30 9635 H 1620.47 4.68207 -3.53221 0
M  V30 9636 H 1621.15 -0.0398818 0.767965 0
M  V30 9637 H 1621.19 2.50995 3.13503 0
M  V30 9638 H 1621.29 0.759148 2.80716 0
M  V30 9639 P 1622.39 8.91 -5.1695e-12 0
M  V30 9640 O 1622.61 10.1726 0.733694 0
M  V30 9641 O 1623.18 8.73148 -1.23936 0
M  V30 9642 O 1622.64 7.66872 0.971405 0
M  V30 9643 C 1621.7 7.42309 2.04641 0
M  V30 9644 C 1622.43 6.86059 3.24661 0
M  V30 9645 O 1622.64 5.42847 3.03646 0
M  V30 9646 C 1623.83 7.41196 3.50753 0
M  V30 9647 O 1624.22 7.27073 4.86816 0
M  V30 9648 C 1624.71 6.5273 2.63741 0
M  V30 9649 C 1624 5.1842 2.73198 0
M  V30 9650 N 1624.05 4.38762 1.4784 0
M  V30 9651 H 1621.21 8.36803 2.32493 0
M  V30 9652 H 1620.94 6.70197 1.71129 0
M  V30 9653 H 1621.81 7.03551 4.13168 0
M  V30 9654 P 1625.77 7.20834 5.23717 0
M  V30 9655 O 1625.99 7.79853 6.57286 0
M  V30 9656 O 1626.56 7.79239 4.12957 0
M  V30 9657 O 1626.02 5.63315 5.29344 0
M  V30 9658 C 1625.08 4.80255 6.01876 0
M  V30 9659 C 1625.81 3.64202 6.65911 0
M  V30 9660 O 1626.02 2.60694 5.64732 0
M  V30 9661 C 1627.21 3.93473 7.1943 0
M  V30 9662 O 1627.6 3.02071 8.21205 0
M  V30 9663 C 1628.09 3.73047 5.97036 0
M  V30 9664 C 1627.38 2.58828 5.25741 0
M  V30 9665 N 1627.43 2.68068 3.77503 0
M  V30 9666 H 1624.59 5.40332 6.79951 0
M  V30 9667 H 1624.32 4.41613 5.32378 0
M  V30 9668 H 1625.19 3.26331 7.47797 0
M  V30 9669 P 1629.15 2.75334 8.47391 0
M  V30 9670 O 1629.37 2.44571 9.90142 0
M  V30 9671 O 1629.94 3.87688 7.92115 0
M  V30 9672 O 1629.4 1.4459 7.59357 0
M  V30 9673 C 1628.46 0.347608 7.69215 0
M  V30 9674 C 1629.19 -0.96767 7.52806 0
M  V30 9675 O 1629.4 -1.21036 6.1011 0
M  V30 9676 C 1630.59 -1.04544 8.13308 0
M  V30 9677 O 1630.98 -2.38311 8.41922 0
M  V30 9678 C 1631.47 -0.491279 7.02284 0
M  V30 9679 C 1630.76 -0.996264 5.77469 0
M  V30 9680 N 1630.81 -0.0501916 4.62973 0
M  V30 9681 H 1627.97 0.374722 8.67691 0
M  V30 9682 H 1627.7 0.443485 6.90277 0
M  V30 9683 H 1628.57 -1.75537 7.96793 0
M  V30 9684 P 1632.53 -2.75334 8.47391 0
M  V30 9685 O 1632.75 -3.84128 9.44797 0
M  V30 9686 O 1633.32 -1.51947 8.68712 0
M  V30 9687 O 1632.78 -3.29363 6.99321 0
M  V30 9688 C 1631.84 -4.24011 6.4274 0
M  V30 9689 C 1632.57 -5.20775 5.52155 0
M  V30 9690 O 1632.78 -4.56534 4.22446 0
M  V30 9691 C 1633.97 -5.62629 5.96531 0
M  V30 9692 O 1634.36 -6.87667 5.41053 0
M  V30 9693 C 1634.85 -4.52537 5.39283 0
M  V30 9694 C 1634.14 -4.20027 4.08623 0
M  V30 9695 N 1634.19 -2.76189 3.71603 0
M  V30 9696 H 1631.35 -4.797 7.24003 0
M  V30 9697 H 1631.08 -3.69856 5.84513 0
M  V30 9698 H 1631.95 -6.10356 5.41441 0
M  V30 9699 P 1635.91 -7.20834 5.23717 0
M  V30 9700 O 1636.13 -8.66189 5.38625 0
M  V30 9701 O 1636.7 -6.33615 6.1356 0
M  V30 9702 O 1636.16 -6.7751 3.72168 0
M  V30 9703 C 1635.22 -7.20732 2.70725 0
M  V30 9704 C 1635.95 -7.45864 1.40599 0
M  V30 9705 O 1636.16 -6.17651 0.734225 0
M  V30 9706 C 1637.35 -8.05808 1.51899 0
M  V30 9707 O 1637.74 -8.74358 0.335205 0
M  V30 9708 C 1638.23 -6.83093 1.70294 0
M  V30 9709 C 1637.52 -5.79992 0.836974 0
M  V30 9710 N 1637.57 -4.41769 1.38263 0
M  V30 9711 C 1637.72 -3.38591 0.481702 0
M  V30 9712 O 1637.81 -3.56839 -0.718452 0
M  V30 9713 N 1637.76 -2.1206 1.03569 0
M  V30 9714 C 1637.67 -1.80696 2.36966 0
M  V30 9715 O 1637.72 -0.630473 2.74862 0
M  V30 9716 C 1637.52 -2.94845 3.23898 0
M  V30 9717 C 1637.41 -2.65253 4.70362 0
M  V30 9718 C 1637.47 -4.19803 2.73435 0
M  V30 9719 H 1634.73 -8.13644 3.0377 0
M  V30 9720 H 1634.46 -6.42695 2.55448 0
M  V30 9721 H 1635.33 -8.12039 0.792769 0
M  V30 9722 H 1637.98 -5.79978 -0.160587 0
M  V30 9723 H 1638.26 -6.51379 2.75643 0
M  V30 9724 H 1639.25 -7.01734 1.34462 0
M  V30 9725 H 1637.42 -8.73674 2.38337 0
M  V30 9726 H 1637.35 -5.04492 3.4095 0
M  V30 9727 H 1638.38 -2.83924 5.1913 0
M  V30 9728 H 1636.64 -3.29824 5.15163 0
M  V30 9729 H 1637.13 -1.59723 4.84449 0
M  V30 9730 H 1637.87 -1.35644 0.399345 0
M  V30 9731 P 1639.29 -8.91 6.2785e-12 0
M  V30 9732 O 1639.51 -10.1726 -0.733694 0
M  V30 9733 O 1640.08 -8.73148 1.23936 0
M  V30 9734 O 1639.54 -7.66872 -0.971405 0
M  V30 9735 C 1638.6 -7.42309 -2.04641 0
M  V30 9736 C 1639.33 -6.86059 -3.24661 0
M  V30 9737 O 1639.54 -5.42847 -3.03646 0
M  V30 9738 C 1640.73 -7.41196 -3.50753 0
M  V30 9739 O 1641.12 -7.27073 -4.86816 0
M  V30 9740 C 1641.61 -6.5273 -2.63741 0
M  V30 9741 C 1640.9 -5.1842 -2.73198 0
M  V30 9742 N 1640.95 -4.38762 -1.4784 0
M  V30 9743 H 1638.11 -8.36803 -2.32493 0
M  V30 9744 H 1637.84 -6.70197 -1.71129 0
M  V30 9745 H 1638.71 -7.03551 -4.13168 0
M  V30 9746 P 1642.67 -7.20834 -5.23717 0
M  V30 9747 O 1642.89 -7.79853 -6.57286 0
M  V30 9748 O 1643.46 -7.79239 -4.12957 0
M  V30 9749 O 1642.92 -5.63315 -5.29344 0
M  V30 9750 C 1641.98 -4.80255 -6.01876 0
M  V30 9751 C 1642.71 -3.64202 -6.65911 0
M  V30 9752 O 1642.92 -2.60694 -5.64732 0
M  V30 9753 C 1644.11 -3.93473 -7.1943 0
M  V30 9754 O 1644.5 -3.02071 -8.21205 0
M  V30 9755 C 1644.99 -3.73047 -5.97036 0
M  V30 9756 C 1644.28 -2.58828 -5.25741 0
M  V30 9757 N 1644.33 -2.68068 -3.77503 0
M  V30 9758 H 1641.49 -5.40332 -6.79951 0
M  V30 9759 H 1641.22 -4.41613 -5.32378 0
M  V30 9760 H 1642.09 -3.26331 -7.47797 0
M  V30 9761 P 1646.05 -2.75334 -8.47391 0
M  V30 9762 O 1646.27 -2.44571 -9.90142 0
M  V30 9763 O 1646.84 -3.87688 -7.92115 0
M  V30 9764 O 1646.3 -1.4459 -7.59357 0
M  V30 9765 C 1645.36 -0.347608 -7.69215 0
M  V30 9766 C 1646.09 0.96767 -7.52806 0
M  V30 9767 O 1646.3 1.21036 -6.1011 0
M  V30 9768 C 1647.49 1.04544 -8.13308 0
M  V30 9769 O 1647.88 2.38311 -8.41922 0
M  V30 9770 C 1648.37 0.491279 -7.02284 0
M  V30 9771 C 1647.66 0.996264 -5.77469 0
M  V30 9772 N 1647.71 0.0501916 -4.62973 0
M  V30 9773 H 1644.87 -0.374722 -8.67691 0
M  V30 9774 H 1644.6 -0.443485 -6.90277 0
M  V30 9775 H 1645.47 1.75537 -7.96793 0
M  V30 9776 P 1649.43 2.75334 -8.47391 0
M  V30 9777 O 1649.65 3.84128 -9.44797 0
M  V30 9778 O 1650.22 1.51947 -8.68712 0
M  V30 9779 O 1649.68 3.29363 -6.99321 0
M  V30 9780 C 1648.74 4.24011 -6.4274 0
M  V30 9781 C 1649.47 5.20775 -5.52155 0
M  V30 9782 O 1649.68 4.56534 -4.22446 0
M  V30 9783 C 1650.87 5.62629 -5.96531 0
M  V30 9784 O 1651.26 6.87667 -5.41053 0
M  V30 9785 C 1651.75 4.52537 -5.39283 0
M  V30 9786 C 1651.04 4.20027 -4.08623 0
M  V30 9787 N 1651.09 2.76189 -3.71603 0
M  V30 9788 H 1648.25 4.797 -7.24003 0
M  V30 9789 H 1647.98 3.69856 -5.84513 0
M  V30 9790 H 1648.85 6.10356 -5.41441 0
M  V30 9791 P 1652.81 7.20834 -5.23717 0
M  V30 9792 O 1653.03 8.66274 -5.38678 0
M  V30 9793 O 1653.6 6.33687 -6.13629 0
M  V30 9794 O 1653.06 6.7751 -3.72168 0
M  V30 9795 C 1652.12 7.20919 -2.70795 0
M  V30 9796 C 1652.85 7.45864 -1.40599 0
M  V30 9797 O 1653.06 6.17751 -0.734343 0
M  V30 9798 C 1654.25 8.05906 -1.51917 0
M  V30 9799 O 1654.64 8.74358 -0.335205 0
M  V30 9800 C 1655.13 6.83093 -1.70294 0
M  V30 9801 C 1654.42 5.79992 -0.836974 0
M  V30 9802 N 1654.47 4.41864 -1.38293 0
M  V30 9803 C 1654.39 4.02089 -2.69407 0
M  V30 9804 N 1654.46 2.73403 -2.85089 0
M  V30 9805 C 1654.61 2.25086 -1.5642 0
M  V30 9806 C 1654.74 0.942887 -1.04836 0
M  V30 9807 N 1654.75 -0.150999 -1.80369 0
M  V30 9808 N 1654.86 0.812565 0.28167 0
M  V30 9809 C 1654.85 1.90572 1.03784 0
M  V30 9810 N 1654.73 3.167 0.683905 0
M  V30 9811 C 1654.61 3.26538 -0.652815 0
M  V30 9812 H 1651.63 8.13738 -3.03804 0
M  V30 9813 H 1651.36 6.42974 -2.55559 0
M  V30 9814 H 1652.23 8.12139 -0.792866 0
M  V30 9815 H 1654.88 5.80178 0.160643 0
M  V30 9816 H 1655.16 6.51379 -2.75643 0
M  V30 9817 H 1656.15 7.01832 -1.3448 0
M  V30 9818 H 1654.32 8.73771 -2.38364 0
M  V30 9819 H 1654.28 4.7189 -3.52311 0
M  V30 9820 H 1654.66 -0.0721434 -2.82608 0
M  V30 9821 H 1654.85 -1.0785 -1.36544 0
M  V30 9822 H 1654.96 1.73207 2.10241 0
M  V30 9823 P 1656.19 8.91 -7.38751e-12 0
M  V30 9824 O 1656.41 10.1726 0.733694 0
M  V30 9825 O 1656.98 8.73148 -1.23936 0
M  V30 9826 O 1656.44 7.66872 0.971405 0
M  V30 9827 C 1655.5 7.42309 2.04641 0
M  V30 9828 C 1656.23 6.86059 3.24661 0
M  V30 9829 O 1656.44 5.42847 3.03646 0
M  V30 9830 C 1657.63 7.41196 3.50753 0
M  V30 9831 O 1658.02 7.27073 4.86816 0
M  V30 9832 C 1658.51 6.5273 2.63741 0
M  V30 9833 C 1657.8 5.1842 2.73198 0
M  V30 9834 N 1657.85 4.38762 1.4784 0
M  V30 9835 H 1655.01 8.36803 2.32493 0
M  V30 9836 H 1654.74 6.70197 1.71129 0
M  V30 9837 H 1655.61 7.03551 4.13168 0
M  V30 9838 P 1659.57 7.20834 5.23717 0
M  V30 9839 O 1659.79 7.79853 6.57286 0
M  V30 9840 O 1660.36 7.79239 4.12957 0
M  V30 9841 O 1659.82 5.63315 5.29344 0
M  V30 9842 C 1658.88 4.80255 6.01876 0
M  V30 9843 C 1659.61 3.64202 6.65911 0
M  V30 9844 O 1659.82 2.60694 5.64732 0
M  V30 9845 C 1661.01 3.93473 7.1943 0
M  V30 9846 O 1661.4 3.02071 8.21205 0
M  V30 9847 C 1661.89 3.73047 5.97036 0
M  V30 9848 C 1661.18 2.58828 5.25741 0
M  V30 9849 N 1661.23 2.68068 3.77503 0
M  V30 9850 H 1658.39 5.40332 6.79951 0
M  V30 9851 H 1658.12 4.41613 5.32378 0
M  V30 9852 H 1658.99 3.26331 7.47797 0
M  V30 9853 P 1662.95 2.75334 8.47391 0
M  V30 9854 O 1663.17 2.44571 9.90142 0
M  V30 9855 O 1663.74 3.87688 7.92115 0
M  V30 9856 O 1663.2 1.4459 7.59357 0
M  V30 9857 C 1662.26 0.347608 7.69215 0
M  V30 9858 C 1662.99 -0.96767 7.52806 0
M  V30 9859 O 1663.2 -1.21036 6.1011 0
M  V30 9860 C 1664.39 -1.04544 8.13308 0
M  V30 9861 O 1664.78 -2.38311 8.41922 0
M  V30 9862 C 1665.27 -0.491279 7.02284 0
M  V30 9863 C 1664.56 -0.996264 5.77469 0
M  V30 9864 N 1664.61 -0.0501916 4.62973 0
M  V30 9865 H 1661.77 0.374722 8.67691 0
M  V30 9866 H 1661.5 0.443485 6.90277 0
M  V30 9867 H 1662.37 -1.75537 7.96793 0
M  V30 9868 P 1666.33 -2.75334 8.47391 0
M  V30 9869 O 1666.55 -3.84204 9.44982 0
M  V30 9870 O 1667.12 -1.51982 8.68909 0
M  V30 9871 O 1666.58 -3.29363 6.99321 0
M  V30 9872 C 1665.64 -4.24066 6.42823 0
M  V30 9873 C 1666.37 -5.20775 5.52155 0
M  V30 9874 O 1666.58 -4.56607 4.22514 0
M  V30 9875 C 1667.77 -5.62697 5.96604 0
M  V30 9876 O 1668.16 -6.87667 5.41053 0
M  V30 9877 C 1668.65 -4.52537 5.39283 0
M  V30 9878 C 1667.94 -4.20027 4.08623 0
M  V30 9879 N 1667.99 -2.76189 3.71603 0
M  V30 9880 C 1667.91 -1.66944 4.54297 0
M  V30 9881 N 1667.98 -0.536169 3.91344 0
M  V30 9882 C 1668.13 -0.901569 2.58849 0
M  V30 9883 C 1668.26 -0.146599 1.40236 0
M  V30 9884 N 1668.27 1.18234 1.37046 0
M  V30 9885 N 1668.38 -0.822941 0.249738 0
M  V30 9886 C 1668.37 -2.15179 0.280525 0
M  V30 9887 N 1668.25 -2.96414 1.30822 0
M  V30 9888 C 1668.13 -2.25804 2.44748 0
M  V30 9889 H 1665.15 -4.79756 7.24086 0
M  V30 9890 H 1664.88 -3.69963 5.84682 0
M  V30 9891 H 1665.75 -6.10431 5.41508 0
M  V30 9892 H 1668.4 -4.78816 3.28024 0
M  V30 9893 H 1668.68 -3.64957 6.05871 0
M  V30 9894 H 1669.67 -4.88748 5.21323 0
M  V30 9895 H 1667.84 -5.66789 7.0643 0
M  V30 9896 H 1667.8 -1.74684 5.62396 0
M  V30 9897 H 1668.18 1.71949 2.24394 0
M  V30 9898 H 1668.37 1.67511 0.470742 0
M  V30 9899 H 1668.48 -2.63704 -0.6828 0
M  V30 9900 P 1669.71 -7.20834 5.23717 0
M  V30 9901 O 1669.93 -8.66104 5.38572 0
M  V30 9902 O 1670.5 -6.33544 6.1349 0
M  V30 9903 O 1669.96 -6.7751 3.72168 0
M  V30 9904 C 1669.02 -7.20825 2.7076 0
M  V30 9905 C 1669.75 -7.45864 1.40599 0
M  V30 9906 O 1669.96 -6.17651 0.734225 0
M  V30 9907 C 1671.15 -8.05808 1.51899 0
M  V30 9908 O 1671.54 -8.74358 0.335205 0
M  V30 9909 C 1672.03 -6.83093 1.70294 0
M  V30 9910 C 1671.32 -5.79992 0.836974 0
M  V30 9911 N 1671.37 -4.41864 1.38293 0
M  V30 9912 C 1671.29 -3.99538 2.69438 0
M  V30 9913 N 1671.37 -2.69909 2.84277 0
M  V30 9914 C 1671.51 -2.21719 1.5408 0
M  V30 9915 C 1671.64 -0.891712 1.06628 0
M  V30 9916 O 1671.66 0.161298 1.70137 0
M  V30 9917 N 1671.76 -0.856846 -0.334985 0
M  V30 9918 C 1671.76 -1.9641 -1.15789 0
M  V30 9919 N 1671.89 -1.72708 -2.46522 0
M  V30 9920 N 1671.63 -3.21165 -0.713741 0
M  V30 9921 C 1671.51 -3.26797 0.639748 0
M  V30 9922 H 1668.53 -8.13644 3.0377 0
M  V30 9923 H 1668.26 -6.42788 2.55485 0
M  V30 9924 H 1669.13 -8.12039 0.792769 0
M  V30 9925 H 1671.78 -5.80061 -0.166416 0
M  V30 9926 H 1672.06 -6.51287 2.75604 0
M  V30 9927 H 1673.05 -7.01734 1.34462 0
M  V30 9928 H 1671.22 -8.73674 2.38337 0
M  V30 9929 H 1671.17 -4.68207 3.53221 0
M  V30 9930 H 1671.85 0.0398818 -0.767965 0
M  V30 9931 H 1671.89 -2.50995 -3.13503 0
M  V30 9932 H 1671.99 -0.759148 -2.80716 0
M  V30 9933 P 1673.09 -8.91 8.49651e-12 0
M  V30 9934 O 1673.31 -10.1726 -0.733694 0
M  V30 9935 O 1673.88 -8.73148 1.23936 0
M  V30 9936 O 1673.34 -7.66872 -0.971405 0
M  V30 9937 C 1672.4 -7.42309 -2.04641 0
M  V30 9938 C 1673.13 -6.86059 -3.24661 0
M  V30 9939 O 1673.34 -5.42847 -3.03646 0
M  V30 9940 C 1674.53 -7.41196 -3.50753 0
M  V30 9941 O 1674.92 -7.27073 -4.86816 0
M  V30 9942 C 1675.41 -6.5273 -2.63741 0
M  V30 9943 C 1674.7 -5.1842 -2.73198 0
M  V30 9944 N 1674.75 -4.38762 -1.4784 0
M  V30 9945 C 1674.67 -4.81605 -0.168631 0
M  V30 9946 N 1674.75 -3.85454 0.713363 0
M  V30 9947 C 1674.89 -2.6994 -0.0566958 0
M  V30 9948 C 1675.02 -1.34815 0.338502 0
M  V30 9949 N 1675.14 -0.496304 -0.77465 0
M  V30 9950 C 1675.14 -0.908403 -2.09122 0
M  V30 9951 N 1675.27 0.0517805 -3.00955 0
M  V30 9952 N 1675.01 -2.17875 -2.46519 0
M  V30 9953 C 1674.89 -3.01988 -1.4033 0
M  V30 9954 H 1671.91 -8.36803 -2.32493 0
M  V30 9955 H 1671.64 -6.70197 -1.71129 0
M  V30 9956 H 1672.51 -7.03551 -4.13168 0
M  V30 9957 P 1676.47 -7.20834 -5.23717 0
M  V30 9958 O 1676.69 -7.7993 -6.57351 0
M  V30 9959 O 1677.26 -7.79328 -4.13004 0
M  V30 9960 O 1676.72 -5.63315 -5.29344 0
M  V30 9961 C 1675.78 -4.80193 -6.01798 0
M  V30 9962 C 1676.51 -3.64202 -6.65911 0
M  V30 9963 O 1676.72 -2.60694 -5.64732 0
M  V30 9964 C 1677.91 -3.93473 -7.1943 0
M  V30 9965 O 1678.3 -3.02071 -8.21205 0
M  V30 9966 C 1678.79 -3.73047 -5.97036 0
M  V30 9967 C 1678.08 -2.58828 -5.25741 0
M  V30 9968 N 1678.13 -2.6801 -3.77422 0
M  V30 9969 C 1678.28 -1.50443 -3.07133 0
M  V30 9970 O 1678.37 -0.419406 -3.61576 0
M  V30 9971 N 1678.32 -1.6403 -1.69677 0
M  V30 9972 C 1678.23 -2.81206 -0.986255 0
M  V30 9973 C 1678.08 -3.99158 -1.80325 0
M  V30 9974 C 1678.03 -3.89779 -3.1476 0
M  V30 9975 H 1675.29 -5.40332 -6.79951 0
M  V30 9976 H 1675.02 -4.41549 -5.32301 0
M  V30 9977 H 1675.89 -3.26331 -7.47797 0
M  V30 9978 H 1678.54 -1.6395 -5.56554 0
M  V30 9979 H 1678.82 -4.63439 -5.3432 0
M  V30 9980 H 1679.81 -3.44728 -6.25838 0
M  V30 9981 H 1677.98 -4.96652 -7.57263 0
M  V30 9982 H 1677.91 -4.80159 -3.74441 0
M  V30 9983 P 1679.85 -2.75334 -8.47391 0
M  V30 9984 O 1680.07 -2.44619 -9.90336 0
M  V30 9985 O 1680.64 -3.87776 -7.92294 0
M  V30 9986 O 1680.1 -1.4459 -7.59357 0
M  V30 9987 C 1679.16 -0.347653 -7.69315 0
M  V30 9988 C 1679.89 0.96767 -7.52806 0
M  V30 9989 O 1680.1 1.21055 -6.10208 0
M  V30 9990 C 1681.29 1.04557 -8.13408 0
M  V30 9991 O 1681.68 2.38311 -8.41922 0
M  V30 9992 C 1682.17 0.491279 -7.02284 0
M  V30 9993 C 1681.46 0.996264 -5.77469 0
M  V30 9994 N 1681.51 0.0501916 -4.62973 0
M  V30 9995 C 1681.43 -1.31969 -4.65661 0
M  V30 9996 N 1681.5 -1.86649 -3.48119 0
M  V30 9997 C 1681.65 -0.792089 -2.62406 0
M  V30 9998 C 1681.78 -0.705684 -1.2207 0
M  V30 9999 N 1681.79 -1.76207 -0.413762 0
M  V30 10000 N 1681.9 0.518981 -0.685754 0
M  V30 10001 C 1681.89 1.57595 -1.49174 0
M  V30 10002 N 1681.77 1.62909 -2.80066 0
M  V30 10003 C 1681.65 0.388195 -3.3073 0
M  V30 10004 H 1678.67 -0.374765 -8.67791 0
M  V30 10005 H 1678.4 -0.443613 -6.90476 0
M  V30 10006 H 1679.27 1.75559 -7.96891 0
M  V30 10007 H 1681.92 1.94563 -5.46818 0
M  V30 10008 H 1682.2 -0.608651 -7.04676 0
M  V30 10009 H 1683.19 0.889796 -7.09039 0
M  V30 10010 H 1681.36 0.433128 -9.04664 0
M  V30 10011 H 1681.32 -1.89246 -5.57664 0
M  V30 10012 H 1681.7 -2.71005 -0.804694 0
M  V30 10013 H 1681.89 -1.63189 0.603768 0
M  V30 10014 H 1682 2.53475 -0.997614 0
M  V30 10015 P 1683.23 2.75334 -8.47391 0
M  V30 10016 O 1683.45 3.84204 -9.44982 0
M  V30 10017 O 1684.02 1.51982 -8.68909 0
M  V30 10018 O 1683.48 3.29363 -6.99321 0
M  V30 10019 C 1682.54 4.24066 -6.42823 0
M  V30 10020 C 1683.27 5.20775 -5.52155 0
M  V30 10021 O 1683.48 4.56607 -4.22514 0
M  V30 10022 C 1684.67 5.62697 -5.96604 0
M  V30 10023 O 1685.06 6.87667 -5.41053 0
M  V30 10024 C 1685.55 4.52537 -5.39283 0
M  V30 10025 C 1684.84 4.20027 -4.08623 0
M  V30 10026 N 1684.89 2.76189 -3.71603 0
M  V30 10027 C 1684.81 1.66944 -4.54297 0
M  V30 10028 N 1684.88 0.536169 -3.91344 0
M  V30 10029 C 1685.03 0.901569 -2.58849 0
M  V30 10030 C 1685.16 0.146599 -1.40236 0
M  V30 10031 N 1685.17 -1.18234 -1.37046 0
M  V30 10032 N 1685.28 0.822941 -0.249738 0
M  V30 10033 C 1685.27 2.15179 -0.280525 0
M  V30 10034 N 1685.15 2.96414 -1.30822 0
M  V30 10035 C 1685.03 2.25804 -2.44748 0
M  V30 10036 H 1682.05 4.79756 -7.24086 0
M  V30 10037 H 1681.78 3.69963 -5.84682 0
M  V30 10038 H 1682.65 6.10431 -5.41508 0
M  V30 10039 H 1685.3 4.78816 -3.28024 0
M  V30 10040 H 1685.58 3.64957 -6.05871 0
M  V30 10041 H 1686.57 4.88748 -5.21323 0
M  V30 10042 H 1684.74 5.66789 -7.0643 0
M  V30 10043 H 1684.7 1.74684 -5.62396 0
M  V30 10044 H 1685.08 -1.71949 -2.24394 0
M  V30 10045 H 1685.27 -1.67511 -0.470742 0
M  V30 10046 H 1685.38 2.63704 0.6828 0
M  V30 10047 P 1686.61 7.20834 -5.23717 0
M  V30 10048 O 1686.83 8.66104 -5.38572 0
M  V30 10049 O 1687.4 6.33544 -6.1349 0
M  V30 10050 O 1686.86 6.7751 -3.72168 0
M  V30 10051 C 1685.92 7.20825 -2.7076 0
M  V30 10052 C 1686.65 7.45864 -1.40599 0
M  V30 10053 O 1686.86 6.17651 -0.734225 0
M  V30 10054 C 1688.05 8.05808 -1.51899 0
M  V30 10055 O 1688.44 8.74358 -0.335205 0
M  V30 10056 C 1688.93 6.83093 -1.70294 0
M  V30 10057 C 1688.22 5.79992 -0.836974 0
M  V30 10058 N 1688.27 4.41864 -1.38293 0
M  V30 10059 H 1685.43 8.13644 -3.0377 0
M  V30 10060 H 1685.16 6.42788 -2.55485 0
M  V30 10061 H 1686.03 8.12039 -0.792769 0
M  V30 10062 P 1689.99 8.91 -9.60552e-12 0
M  V30 10063 O 1690.21 10.1726 0.733694 0
M  V30 10064 O 1690.78 8.73148 -1.23936 0
M  V30 10065 O 1690.24 7.66872 0.971405 0
M  V30 10066 C 1689.3 7.42309 2.04641 0
M  V30 10067 C 1690.03 6.86059 3.24661 0
M  V30 10068 O 1690.24 5.42847 3.03646 0
M  V30 10069 C 1691.43 7.41196 3.50753 0
M  V30 10070 O 1691.82 7.27073 4.86816 0
M  V30 10071 C 1692.31 6.5273 2.63741 0
M  V30 10072 C 1691.6 5.1842 2.73198 0
M  V30 10073 N 1691.65 4.38762 1.4784 0
M  V30 10074 H 1688.81 8.36803 2.32493 0
M  V30 10075 H 1688.54 6.70197 1.71129 0
M  V30 10076 H 1689.41 7.03551 4.13168 0
M  V30 10077 P 1693.37 7.20834 5.23717 0
M  V30 10078 O 1693.59 7.80006 6.57415 0
M  V30 10079 O 1694.16 7.79416 4.13051 0
M  V30 10080 O 1693.62 5.63315 5.29344 0
M  V30 10081 C 1692.68 4.80318 6.01954 0
M  V30 10082 C 1693.41 3.64202 6.65911 0
M  V30 10083 O 1693.62 2.60736 5.64823 0
M  V30 10084 C 1694.81 3.93521 7.19518 0
M  V30 10085 O 1695.2 3.02071 8.21205 0
M  V30 10086 C 1695.69 3.73047 5.97036 0
M  V30 10087 C 1694.98 2.58828 5.25741 0
M  V30 10088 N 1695.03 2.68068 3.77503 0
M  V30 10089 C 1694.95 3.80474 2.99159 0
M  V30 10090 N 1695.02 3.55622 1.71925 0
M  V30 10091 C 1695.17 2.1832 1.65733 0
M  V30 10092 C 1695.3 1.28842 0.572777 0
M  V30 10093 N 1695.31 1.66875 -0.70098 0
M  V30 10094 N 1695.42 -0.016788 0.859836 0
M  V30 10095 C 1695.41 -0.398145 2.13316 0
M  V30 10096 N 1695.29 0.328224 3.22333 0
M  V30 10097 C 1695.17 1.62992 2.90383 0
M  V30 10098 H 1692.19 5.40394 6.8003 0
M  V30 10099 H 1691.92 4.41741 5.32532 0
M  V30 10100 H 1692.79 3.26371 7.47889 0
M  V30 10101 H 1695.44 1.64007 5.56746 0
M  V30 10102 H 1695.72 4.63439 5.3432 0
M  V30 10103 H 1696.71 3.44776 6.25925 0
M  V30 10104 H 1694.88 4.96707 7.57347 0
M  V30 10105 H 1694.84 4.8089 3.39924 0
M  V30 10106 H 1695.22 2.66547 -0.941919 0
M  V30 10107 H 1695.41 0.965341 -1.44766 0
M  V30 10108 H 1695.52 -1.46427 2.29697 0
M  V30 10109 P 1696.75 2.75334 8.47391 0
M  V30 10110 O 1696.97 2.44571 9.90142 0
M  V30 10111 O 1697.54 3.87688 7.92115 0
M  V30 10112 O 1697 1.4459 7.59357 0
M  V30 10113 C 1696.06 0.347608 7.69215 0
M  V30 10114 C 1696.79 -0.96767 7.52806 0
M  V30 10115 O 1697 -1.21036 6.1011 0
M  V30 10116 C 1698.19 -1.04544 8.13308 0
M  V30 10117 O 1698.58 -2.38311 8.41922 0
M  V30 10118 C 1699.07 -0.491279 7.02284 0
M  V30 10119 C 1698.36 -0.996264 5.77469 0
M  V30 10120 N 1698.41 -0.0501916 4.62973 0
M  V30 10121 H 1695.57 0.374722 8.67691 0
M  V30 10122 H 1695.3 0.443485 6.90277 0
M  V30 10123 H 1696.17 -1.75537 7.96793 0
M  V30 10124 P 1700.13 -2.75334 8.47391 0
M  V30 10125 O 1700.35 -3.84128 9.44797 0
M  V30 10126 O 1700.92 -1.51947 8.68712 0
M  V30 10127 O 1700.38 -3.29363 6.99321 0
M  V30 10128 C 1699.44 -4.24011 6.4274 0
M  V30 10129 C 1700.17 -5.20775 5.52155 0
M  V30 10130 O 1700.38 -4.56534 4.22446 0
M  V30 10131 C 1701.57 -5.62629 5.96531 0
M  V30 10132 O 1701.96 -6.87667 5.41053 0
M  V30 10133 C 1702.45 -4.52537 5.39283 0
M  V30 10134 C 1701.74 -4.20027 4.08623 0
M  V30 10135 N 1701.79 -2.76189 3.71603 0
M  V30 10136 H 1698.95 -4.797 7.24003 0
M  V30 10137 H 1698.68 -3.69856 5.84513 0
M  V30 10138 H 1699.55 -6.10356 5.41441 0
M  V30 10139 P 1703.51 -7.20834 5.23717 0
M  V30 10140 O 1703.73 -8.66189 5.38625 0
M  V30 10141 O 1704.3 -6.33615 6.1356 0
M  V30 10142 O 1703.76 -6.7751 3.72168 0
M  V30 10143 C 1702.82 -7.20732 2.70725 0
M  V30 10144 C 1703.55 -7.45864 1.40599 0
M  V30 10145 O 1703.76 -6.17651 0.734225 0
M  V30 10146 C 1704.95 -8.05808 1.51899 0
M  V30 10147 O 1705.34 -8.74358 0.335205 0
M  V30 10148 C 1705.83 -6.83093 1.70294 0
M  V30 10149 C 1705.12 -5.79992 0.836974 0
M  V30 10150 N 1705.17 -4.41769 1.38263 0
M  V30 10151 C 1705.32 -3.38591 0.481702 0
M  V30 10152 O 1705.41 -3.56839 -0.718452 0
M  V30 10153 N 1705.36 -2.1206 1.03569 0
M  V30 10154 C 1705.27 -1.80696 2.36966 0
M  V30 10155 O 1705.32 -0.630473 2.74862 0
M  V30 10156 C 1705.12 -2.94845 3.23898 0
M  V30 10157 C 1705.01 -2.65253 4.70362 0
M  V30 10158 C 1705.07 -4.19803 2.73435 0
M  V30 10159 H 1702.33 -8.13644 3.0377 0
M  V30 10160 H 1702.06 -6.42695 2.55448 0
M  V30 10161 H 1702.93 -8.12039 0.792769 0
M  V30 10162 H 1705.58 -5.79978 -0.160587 0
M  V30 10163 H 1705.86 -6.51379 2.75643 0
M  V30 10164 H 1706.85 -7.01734 1.34462 0
M  V30 10165 H 1705.02 -8.73674 2.38337 0
M  V30 10166 H 1704.95 -5.04492 3.4095 0
M  V30 10167 H 1705.98 -2.83924 5.1913 0
M  V30 10168 H 1704.24 -3.29824 5.15163 0
M  V30 10169 H 1704.73 -1.59723 4.84449 0
M  V30 10170 H 1705.47 -1.35644 0.399345 0
M  V30 10171 P 1706.89 -8.91 1.07145e-11 0
M  V30 10172 O 1707.11 -10.1726 -0.733694 0
M  V30 10173 O 1707.68 -8.73148 1.23936 0
M  V30 10174 O 1707.14 -7.66872 -0.971405 0
M  V30 10175 C 1706.2 -7.42309 -2.04641 0
M  V30 10176 C 1706.93 -6.86059 -3.24661 0
M  V30 10177 O 1707.14 -5.42847 -3.03646 0
M  V30 10178 C 1708.33 -7.41196 -3.50753 0
M  V30 10179 O 1708.72 -7.27073 -4.86816 0
M  V30 10180 C 1709.21 -6.5273 -2.63741 0
M  V30 10181 C 1708.5 -5.1842 -2.73198 0
M  V30 10182 N 1708.55 -4.38762 -1.4784 0
M  V30 10183 H 1705.71 -8.36803 -2.32493 0
M  V30 10184 H 1705.44 -6.70197 -1.71129 0
M  V30 10185 H 1706.31 -7.03551 -4.13168 0
M  V30 10186 P 1710.27 -7.20834 -5.23717 0
M  V30 10187 O 1710.49 -7.79853 -6.57286 0
M  V30 10188 O 1711.06 -7.79239 -4.12957 0
M  V30 10189 O 1710.52 -5.63315 -5.29344 0
M  V30 10190 C 1709.58 -4.80255 -6.01876 0
M  V30 10191 C 1710.31 -3.64202 -6.65911 0
M  V30 10192 O 1710.52 -2.60694 -5.64732 0
M  V30 10193 C 1711.71 -3.93473 -7.1943 0
M  V30 10194 O 1712.1 -3.02071 -8.21205 0
M  V30 10195 C 1712.59 -3.73047 -5.97036 0
M  V30 10196 C 1711.88 -2.58828 -5.25741 0
M  V30 10197 N 1711.93 -2.68068 -3.77503 0
M  V30 10198 H 1709.09 -5.40332 -6.79951 0
M  V30 10199 H 1708.82 -4.41613 -5.32378 0
M  V30 10200 H 1709.69 -3.26331 -7.47797 0
M  V30 10201 P 1713.65 -2.75334 -8.47391 0
M  V30 10202 O 1713.87 -2.44571 -9.90142 0
M  V30 10203 O 1714.44 -3.87688 -7.92115 0
M  V30 10204 O 1713.9 -1.4459 -7.59357 0
M  V30 10205 C 1712.96 -0.347608 -7.69215 0
M  V30 10206 C 1713.69 0.96767 -7.52806 0
M  V30 10207 O 1713.9 1.21036 -6.1011 0
M  V30 10208 C 1715.09 1.04544 -8.13308 0
M  V30 10209 O 1715.48 2.38311 -8.41922 0
M  V30 10210 C 1715.97 0.491279 -7.02284 0
M  V30 10211 C 1715.26 0.996264 -5.77469 0
M  V30 10212 N 1715.31 0.0501916 -4.62973 0
M  V30 10213 H 1712.47 -0.374722 -8.67691 0
M  V30 10214 H 1712.2 -0.443485 -6.90277 0
M  V30 10215 H 1713.07 1.75537 -7.96793 0
M  V30 10216 P 1717.03 2.75334 -8.47391 0
M  V30 10217 O 1717.25 3.84204 -9.44982 0
M  V30 10218 O 1717.82 1.51982 -8.68909 0
M  V30 10219 O 1717.28 3.29363 -6.99321 0
M  V30 10220 C 1716.34 4.24066 -6.42823 0
M  V30 10221 C 1717.07 5.20775 -5.52155 0
M  V30 10222 O 1717.28 4.56607 -4.22514 0
M  V30 10223 C 1718.47 5.62697 -5.96604 0
M  V30 10224 O 1718.86 6.87667 -5.41053 0
M  V30 10225 C 1719.35 4.52537 -5.39283 0
M  V30 10226 C 1718.64 4.20027 -4.08623 0
M  V30 10227 N 1718.69 2.76189 -3.71603 0
M  V30 10228 H 1715.85 4.79756 -7.24086 0
M  V30 10229 H 1715.58 3.69963 -5.84682 0
M  V30 10230 H 1716.45 6.10431 -5.41508 0
M  V30 10231 H 1719.1 4.78816 -3.28024 0
M  V30 10232 H 1719.38 3.64957 -6.05871 0
M  V30 10233 H 1720.37 4.88748 -5.21323 0
M  V30 10234 H 1718.54 5.66789 -7.0643 0
M  V30 10235 P 1720.41 7.20834 -5.23717 0
M  V30 10236 O 1720.63 8.66104 -5.38572 0
M  V30 10237 O 1721.2 6.33544 -6.1349 0
M  V30 10238 O 1720.66 6.7751 -3.72168 0
M  V30 10239 C 1719.72 7.20825 -2.7076 0
M  V30 10240 C 1720.45 7.45864 -1.40599 0
M  V30 10241 O 1720.66 6.17651 -0.734225 0
M  V30 10242 C 1721.85 8.05808 -1.51899 0
M  V30 10243 O 1722.24 8.74358 -0.335205 0
M  V30 10244 C 1722.73 6.83093 -1.70294 0
M  V30 10245 C 1722.02 5.79992 -0.836974 0
M  V30 10246 N 1722.07 4.41864 -1.38293 0
M  V30 10247 H 1719.23 8.13644 -3.0377 0
M  V30 10248 H 1718.96 6.42788 -2.55485 0
M  V30 10249 H 1719.83 8.12039 -0.792769 0
M  V30 10250 P 1723.79 8.91 -1.18235e-11 0
M  V30 10251 O 1724.01 10.1726 0.733694 0
M  V30 10252 O 1724.58 8.73148 -1.23936 0
M  V30 10253 O 1724.04 7.66872 0.971405 0
M  V30 10254 C 1723.1 7.42309 2.04641 0
M  V30 10255 C 1723.83 6.86059 3.24661 0
M  V30 10256 O 1724.04 5.42847 3.03646 0
M  V30 10257 C 1725.23 7.41196 3.50753 0
M  V30 10258 O 1725.62 7.27073 4.86816 0
M  V30 10259 C 1726.11 6.5273 2.63741 0
M  V30 10260 C 1725.4 5.1842 2.73198 0
M  V30 10261 N 1725.45 4.38762 1.4784 0
M  V30 10262 H 1722.61 8.36803 2.32493 0
M  V30 10263 H 1722.34 6.70197 1.71129 0
M  V30 10264 H 1723.21 7.03551 4.13168 0
M  V30 10265 P 1727.17 7.20834 5.23717 0
M  V30 10266 O 1727.39 7.80006 6.57415 0
M  V30 10267 O 1727.96 7.79416 4.13051 0
M  V30 10268 O 1727.42 5.63315 5.29344 0
M  V30 10269 C 1726.48 4.80318 6.01954 0
M  V30 10270 C 1727.21 3.64202 6.65911 0
M  V30 10271 O 1727.42 2.60736 5.64823 0
M  V30 10272 C 1728.61 3.93521 7.19518 0
M  V30 10273 O 1729 3.02071 8.21205 0
M  V30 10274 C 1729.49 3.73047 5.97036 0
M  V30 10275 C 1728.78 2.58828 5.25741 0
M  V30 10276 N 1728.83 2.68068 3.77503 0
M  V30 10277 H 1725.99 5.40394 6.8003 0
M  V30 10278 H 1725.72 4.41741 5.32532 0
M  V30 10279 H 1726.59 3.26371 7.47889 0
M  V30 10280 H 1729.24 1.64007 5.56746 0
M  V30 10281 H 1729.52 4.63439 5.3432 0
M  V30 10282 H 1730.51 3.44776 6.25925 0
M  V30 10283 H 1728.68 4.96707 7.57347 0
M  V30 10284 P 1730.55 2.75334 8.47391 0
M  V30 10285 O 1730.77 2.44619 9.90336 0
M  V30 10286 O 1731.34 3.87776 7.92294 0
M  V30 10287 O 1730.8 1.4459 7.59357 0
M  V30 10288 C 1729.86 0.347653 7.69315 0
M  V30 10289 C 1730.59 -0.96767 7.52806 0
M  V30 10290 O 1730.8 -1.21055 6.10208 0
M  V30 10291 C 1731.99 -1.04557 8.13408 0
M  V30 10292 O 1732.38 -2.38311 8.41922 0
M  V30 10293 C 1732.87 -0.491279 7.02284 0
M  V30 10294 C 1732.16 -0.996264 5.77469 0
M  V30 10295 N 1732.21 -0.0501916 4.62973 0
M  V30 10296 H 1729.37 0.374765 8.67791 0
M  V30 10297 H 1729.1 0.443613 6.90476 0
M  V30 10298 H 1729.97 -1.75559 7.96891 0
M  V30 10299 H 1732.62 -1.94563 5.46818 0
M  V30 10300 H 1732.9 0.608651 7.04676 0
M  V30 10301 H 1733.89 -0.889796 7.09039 0
M  V30 10302 H 1732.06 -0.433128 9.04664 0
M  V30 10303 P 1733.93 -2.75334 8.47391 0
M  V30 10304 O 1734.15 -3.84128 9.44797 0
M  V30 10305 O 1734.72 -1.51947 8.68712 0
M  V30 10306 O 1734.18 -3.29363 6.99321 0
M  V30 10307 C 1733.24 -4.24011 6.4274 0
M  V30 10308 C 1733.97 -5.20775 5.52155 0
M  V30 10309 O 1734.18 -4.56534 4.22446 0
M  V30 10310 C 1735.37 -5.62629 5.96531 0
M  V30 10311 O 1735.76 -6.87667 5.41053 0
M  V30 10312 C 1736.25 -4.52537 5.39283 0
M  V30 10313 C 1735.54 -4.20027 4.08623 0
M  V30 10314 N 1735.59 -2.76189 3.71603 0
M  V30 10315 H 1732.75 -4.797 7.24003 0
M  V30 10316 H 1732.48 -3.69856 5.84513 0
M  V30 10317 H 1733.35 -6.10356 5.41441 0
M  V30 10318 P 1737.31 -7.20834 5.23717 0
M  V30 10319 O 1737.53 -8.66104 5.38572 0
M  V30 10320 O 1738.1 -6.33544 6.1349 0
M  V30 10321 O 1737.56 -6.7751 3.72168 0
M  V30 10322 C 1736.62 -7.20825 2.7076 0
M  V30 10323 C 1737.35 -7.45864 1.40599 0
M  V30 10324 O 1737.56 -6.17651 0.734225 0
M  V30 10325 C 1738.75 -8.05808 1.51899 0
M  V30 10326 O 1739.14 -8.74358 0.335205 0
M  V30 10327 C 1739.63 -6.83093 1.70294 0
M  V30 10328 C 1738.92 -5.79992 0.836974 0
M  V30 10329 N 1738.97 -4.41864 1.38293 0
M  V30 10330 H 1736.13 -8.13644 3.0377 0
M  V30 10331 H 1735.86 -6.42788 2.55485 0
M  V30 10332 H 1736.73 -8.12039 0.792769 0
M  V30 10333 P 1740.69 -8.91 1.29325e-11 0
M  V30 10334 O 1740.91 -10.1726 -0.733694 0
M  V30 10335 O 1741.48 -8.73148 1.23936 0
M  V30 10336 O 1740.94 -7.66872 -0.971405 0
M  V30 10337 C 1740 -7.42309 -2.04641 0
M  V30 10338 C 1740.73 -6.86059 -3.24661 0
M  V30 10339 O 1740.94 -5.42847 -3.03646 0
M  V30 10340 C 1742.13 -7.41196 -3.50753 0
M  V30 10341 O 1742.52 -7.27073 -4.86816 0
M  V30 10342 C 1743.01 -6.5273 -2.63741 0
M  V30 10343 C 1742.3 -5.1842 -2.73198 0
M  V30 10344 N 1742.35 -4.38762 -1.4784 0
M  V30 10345 H 1739.51 -8.36803 -2.32493 0
M  V30 10346 H 1739.24 -6.70197 -1.71129 0
M  V30 10347 H 1740.11 -7.03551 -4.13168 0
M  V30 10348 P 1744.07 -7.20834 -5.23717 0
M  V30 10349 O 1744.29 -7.79853 -6.57286 0
M  V30 10350 O 1744.86 -7.79239 -4.12957 0
M  V30 10351 O 1744.32 -5.63315 -5.29344 0
M  V30 10352 C 1743.38 -4.80255 -6.01876 0
M  V30 10353 C 1744.11 -3.64202 -6.65911 0
M  V30 10354 O 1744.32 -2.60694 -5.64732 0
M  V30 10355 C 1745.51 -3.93473 -7.1943 0
M  V30 10356 O 1745.9 -3.02071 -8.21205 0
M  V30 10357 C 1746.39 -3.73047 -5.97036 0
M  V30 10358 C 1745.68 -2.58828 -5.25741 0
M  V30 10359 N 1745.73 -2.68068 -3.77503 0
M  V30 10360 H 1742.89 -5.40332 -6.79951 0
M  V30 10361 H 1742.62 -4.41613 -5.32378 0
M  V30 10362 H 1743.49 -3.26331 -7.47797 0
M  V30 10363 P 1747.45 -2.75334 -8.47391 0
M  V30 10364 O 1747.67 -2.44571 -9.90142 0
M  V30 10365 O 1748.24 -3.87688 -7.92115 0
M  V30 10366 O 1747.7 -1.4459 -7.59357 0
M  V30 10367 C 1746.76 -0.347608 -7.69215 0
M  V30 10368 C 1747.49 0.96767 -7.52806 0
M  V30 10369 O 1747.7 1.21036 -6.1011 0
M  V30 10370 C 1748.89 1.04544 -8.13308 0
M  V30 10371 O 1749.28 2.38311 -8.41922 0
M  V30 10372 C 1749.77 0.491279 -7.02284 0
M  V30 10373 C 1749.06 0.996264 -5.77469 0
M  V30 10374 N 1749.11 0.0501916 -4.62973 0
M  V30 10375 H 1746.27 -0.374722 -8.67691 0
M  V30 10376 H 1746 -0.443485 -6.90277 0
M  V30 10377 H 1746.87 1.75537 -7.96793 0
M  V30 10378 P 1750.83 2.75334 -8.47391 0
M  V30 10379 O 1751.05 3.84204 -9.44982 0
M  V30 10380 O 1751.62 1.51982 -8.68909 0
M  V30 10381 O 1751.08 3.29363 -6.99321 0
M  V30 10382 C 1750.14 4.24066 -6.42823 0
M  V30 10383 C 1750.87 5.20775 -5.52155 0
M  V30 10384 O 1751.08 4.56607 -4.22514 0
M  V30 10385 C 1752.27 5.62697 -5.96604 0
M  V30 10386 O 1752.66 6.87667 -5.41053 0
M  V30 10387 C 1753.15 4.52537 -5.39283 0
M  V30 10388 C 1752.44 4.20027 -4.08623 0
M  V30 10389 N 1752.49 2.76189 -3.71603 0
M  V30 10390 H 1749.65 4.79756 -7.24086 0
M  V30 10391 H 1749.38 3.69963 -5.84682 0
M  V30 10392 H 1750.25 6.10431 -5.41508 0
M  V30 10393 H 1752.9 4.78816 -3.28024 0
M  V30 10394 H 1753.18 3.64957 -6.05871 0
M  V30 10395 H 1754.17 4.88748 -5.21323 0
M  V30 10396 H 1752.34 5.66789 -7.0643 0
M  V30 10397 P 1754.21 7.20834 -5.23717 0
M  V30 10398 O 1754.43 8.66104 -5.38572 0
M  V30 10399 O 1755 6.33544 -6.1349 0
M  V30 10400 O 1754.46 6.7751 -3.72168 0
M  V30 10401 C 1753.52 7.20825 -2.7076 0
M  V30 10402 C 1754.25 7.45864 -1.40599 0
M  V30 10403 O 1754.46 6.17651 -0.734225 0
M  V30 10404 C 1755.65 8.05808 -1.51899 0
M  V30 10405 O 1756.04 8.74358 -0.335205 0
M  V30 10406 C 1756.53 6.83093 -1.70294 0
M  V30 10407 C 1755.82 5.79992 -0.836974 0
M  V30 10408 N 1755.87 4.41864 -1.38293 0
M  V30 10409 H 1753.03 8.13644 -3.0377 0
M  V30 10410 H 1752.76 6.42788 -2.55485 0
M  V30 10411 H 1753.63 8.12039 -0.792769 0
M  V30 10412 P 1757.59 8.91 -1.40415e-11 0
M  V30 10413 O 1757.81 10.1726 0.733694 0
M  V30 10414 O 1758.38 8.73148 -1.23936 0
M  V30 10415 O 1757.84 7.66872 0.971405 0
M  V30 10416 C 1756.9 7.42309 2.04641 0
M  V30 10417 C 1757.63 6.86059 3.24661 0
M  V30 10418 O 1757.84 5.42847 3.03646 0
M  V30 10419 C 1759.03 7.41196 3.50753 0
M  V30 10420 O 1759.42 7.27073 4.86816 0
M  V30 10421 C 1759.91 6.5273 2.63741 0
M  V30 10422 C 1759.2 5.1842 2.73198 0
M  V30 10423 N 1759.25 4.38762 1.4784 0
M  V30 10424 C 1759.17 4.81605 0.168631 0
M  V30 10425 N 1759.25 3.85454 -0.713363 0
M  V30 10426 C 1759.39 2.6994 0.0566958 0
M  V30 10427 C 1759.52 1.34815 -0.338502 0
M  V30 10428 O 1759.54 0.869548 -1.47125 0
M  V30 10429 N 1759.64 0.496304 0.77465 0
M  V30 10430 C 1759.64 0.908403 2.09122 0
M  V30 10431 N 1759.77 -0.0517805 3.00955 0
M  V30 10432 N 1759.51 2.17875 2.46519 0
M  V30 10433 C 1759.39 3.01988 1.4033 0
M  V30 10434 H 1756.41 8.36803 2.32493 0
M  V30 10435 H 1756.14 6.70197 1.71129 0
M  V30 10436 H 1757.01 7.03551 4.13168 0
M  V30 10437 H 1759.66 4.59498 3.54415 0
M  V30 10438 H 1759.94 6.88898 1.59848 0
M  V30 10439 H 1760.93 6.46749 3.03687 0
M  V30 10440 H 1759.1 8.46908 3.20714 0
M  V30 10441 H 1759.05 5.86405 -0.105564 0
M  V30 10442 H 1759.73 -0.483664 0.597855 0
M  V30 10443 H 1759.77 0.187865 4.0116 0
M  V30 10444 H 1759.87 -1.03585 2.71726 0
M  V30 10445 P 1760.97 7.20834 5.23717 0
M  V30 10446 O 1761.19 7.79853 6.57286 0
M  V30 10447 O 1761.76 7.79239 4.12957 0
M  V30 10448 O 1761.22 5.63315 5.29344 0
M  V30 10449 C 1760.28 4.80255 6.01876 0
M  V30 10450 C 1761.01 3.64202 6.65911 0
M  V30 10451 O 1761.22 2.60694 5.64732 0
M  V30 10452 C 1762.41 3.93473 7.1943 0
M  V30 10453 O 1762.8 3.02071 8.21205 0
M  V30 10454 C 1763.29 3.73047 5.97036 0
M  V30 10455 C 1762.58 2.58828 5.25741 0
M  V30 10456 N 1762.63 2.68068 3.77503 0
M  V30 10457 H 1759.79 5.40332 6.79951 0
M  V30 10458 H 1759.52 4.41613 5.32378 0
M  V30 10459 H 1760.39 3.26331 7.47797 0
M  V30 10460 P 1764.35 2.75334 8.47391 0
M  V30 10461 O 1764.57 2.44571 9.90142 0
M  V30 10462 O 1765.14 3.87688 7.92115 0
M  V30 10463 O 1764.6 1.4459 7.59357 0
M  V30 10464 C 1763.66 0.347608 7.69215 0
M  V30 10465 C 1764.39 -0.96767 7.52806 0
M  V30 10466 O 1764.6 -1.21036 6.1011 0
M  V30 10467 C 1765.79 -1.04544 8.13308 0
M  V30 10468 O 1766.18 -2.38311 8.41922 0
M  V30 10469 C 1766.67 -0.491279 7.02284 0
M  V30 10470 C 1765.96 -0.996264 5.77469 0
M  V30 10471 N 1766.01 -0.0501916 4.62973 0
M  V30 10472 H 1763.17 0.374722 8.67691 0
M  V30 10473 H 1762.9 0.443485 6.90277 0
M  V30 10474 H 1763.77 -1.75537 7.96793 0
M  V30 10475 P 1767.73 -2.75334 8.47391 0
M  V30 10476 O 1767.95 -3.84128 9.44797 0
M  V30 10477 O 1768.52 -1.51947 8.68712 0
M  V30 10478 O 1767.98 -3.29363 6.99321 0
M  V30 10479 C 1767.04 -4.24011 6.4274 0
M  V30 10480 C 1767.77 -5.20775 5.52155 0
M  V30 10481 O 1767.98 -4.56534 4.22446 0
M  V30 10482 C 1769.17 -5.62629 5.96531 0
M  V30 10483 O 1769.56 -6.87667 5.41053 0
M  V30 10484 C 1770.05 -4.52537 5.39283 0
M  V30 10485 C 1769.34 -4.20027 4.08623 0
M  V30 10486 N 1769.39 -2.76189 3.71603 0
M  V30 10487 H 1766.55 -4.797 7.24003 0
M  V30 10488 H 1766.28 -3.69856 5.84513 0
M  V30 10489 H 1767.15 -6.10356 5.41441 0
M  V30 10490 P 1771.11 -7.20834 5.23717 0
M  V30 10491 O 1771.33 -8.66104 5.38572 0
M  V30 10492 O 1771.9 -6.33544 6.1349 0
M  V30 10493 O 1771.36 -6.7751 3.72168 0
M  V30 10494 C 1770.42 -7.20825 2.7076 0
M  V30 10495 C 1771.15 -7.45864 1.40599 0
M  V30 10496 O 1771.36 -6.17651 0.734225 0
M  V30 10497 C 1772.55 -8.05808 1.51899 0
M  V30 10498 O 1772.94 -8.74358 0.335205 0
M  V30 10499 C 1773.43 -6.83093 1.70294 0
M  V30 10500 C 1772.72 -5.79992 0.836974 0
M  V30 10501 N 1772.77 -4.41864 1.38293 0
M  V30 10502 H 1769.93 -8.13644 3.0377 0
M  V30 10503 H 1769.66 -6.42788 2.55485 0
M  V30 10504 H 1770.53 -8.12039 0.792769 0
M  V30 10505 P 1774.49 -8.91 1.51505e-11 0
M  V30 10506 O 1774.71 -10.1726 -0.733694 0
M  V30 10507 O 1775.28 -8.73148 1.23936 0
M  V30 10508 O 1774.74 -7.66872 -0.971405 0
M  V30 10509 C 1773.8 -7.42309 -2.04641 0
M  V30 10510 C 1774.53 -6.86059 -3.24661 0
M  V30 10511 O 1774.74 -5.42847 -3.03646 0
M  V30 10512 C 1775.93 -7.41196 -3.50753 0
M  V30 10513 O 1776.32 -7.27073 -4.86816 0
M  V30 10514 C 1776.81 -6.5273 -2.63741 0
M  V30 10515 C 1776.1 -5.1842 -2.73198 0
M  V30 10516 N 1776.15 -4.38762 -1.4784 0
M  V30 10517 H 1773.31 -8.36803 -2.32493 0
M  V30 10518 H 1773.04 -6.70197 -1.71129 0
M  V30 10519 H 1773.91 -7.03551 -4.13168 0
M  V30 10520 P 1777.87 -7.20834 -5.23717 0
M  V30 10521 O 1778.09 -7.79853 -6.57286 0
M  V30 10522 O 1778.66 -7.79239 -4.12957 0
M  V30 10523 O 1778.12 -5.63315 -5.29344 0
M  V30 10524 C 1777.18 -4.80255 -6.01876 0
M  V30 10525 C 1777.91 -3.64202 -6.65911 0
M  V30 10526 O 1778.12 -2.60694 -5.64732 0
M  V30 10527 C 1779.31 -3.93473 -7.1943 0
M  V30 10528 O 1779.7 -3.02071 -8.21205 0
M  V30 10529 C 1780.19 -3.73047 -5.97036 0
M  V30 10530 C 1779.48 -2.58828 -5.25741 0
M  V30 10531 N 1779.53 -2.68068 -3.77503 0
M  V30 10532 H 1776.69 -5.40332 -6.79951 0
M  V30 10533 H 1776.42 -4.41613 -5.32378 0
M  V30 10534 H 1777.29 -3.26331 -7.47797 0
M  V30 10535 P 1781.25 -2.75334 -8.47391 0
M  V30 10536 O 1781.47 -2.44571 -9.90142 0
M  V30 10537 O 1782.04 -3.87688 -7.92115 0
M  V30 10538 O 1781.5 -1.4459 -7.59357 0
M  V30 10539 C 1780.56 -0.347608 -7.69215 0
M  V30 10540 C 1781.29 0.96767 -7.52806 0
M  V30 10541 O 1781.5 1.21036 -6.1011 0
M  V30 10542 C 1782.69 1.04544 -8.13308 0
M  V30 10543 O 1783.08 2.38311 -8.41922 0
M  V30 10544 C 1783.57 0.491279 -7.02284 0
M  V30 10545 C 1782.86 0.996264 -5.77469 0
M  V30 10546 N 1782.91 0.0501916 -4.62973 0
M  V30 10547 H 1780.07 -0.374722 -8.67691 0
M  V30 10548 H 1779.8 -0.443485 -6.90277 0
M  V30 10549 H 1780.67 1.75537 -7.96793 0
M  V30 10550 P 1784.63 2.75334 -8.47391 0
M  V30 10551 O 1784.85 3.84128 -9.44797 0
M  V30 10552 O 1785.42 1.51947 -8.68712 0
M  V30 10553 O 1784.88 3.29363 -6.99321 0
M  V30 10554 C 1783.94 4.24011 -6.4274 0
M  V30 10555 C 1784.67 5.20775 -5.52155 0
M  V30 10556 O 1784.88 4.56534 -4.22446 0
M  V30 10557 C 1786.07 5.62629 -5.96531 0
M  V30 10558 O 1786.46 6.87667 -5.41053 0
M  V30 10559 C 1786.95 4.52537 -5.39283 0
M  V30 10560 C 1786.24 4.20027 -4.08623 0
M  V30 10561 N 1786.29 2.76189 -3.71603 0
M  V30 10562 H 1783.45 4.797 -7.24003 0
M  V30 10563 H 1783.18 3.69856 -5.84513 0
M  V30 10564 H 1784.05 6.10356 -5.41441 0
M  V30 10565 P 1788.01 7.20834 -5.23717 0
M  V30 10566 O 1788.23 8.66104 -5.38572 0
M  V30 10567 O 1788.8 6.33544 -6.1349 0
M  V30 10568 O 1788.26 6.7751 -3.72168 0
M  V30 10569 C 1787.32 7.20825 -2.7076 0
M  V30 10570 C 1788.05 7.45864 -1.40599 0
M  V30 10571 O 1788.26 6.17651 -0.734225 0
M  V30 10572 C 1789.45 8.05808 -1.51899 0
M  V30 10573 O 1789.84 8.74358 -0.335205 0
M  V30 10574 C 1790.33 6.83093 -1.70294 0
M  V30 10575 C 1789.62 5.79992 -0.836974 0
M  V30 10576 N 1789.67 4.41864 -1.38293 0
M  V30 10577 H 1786.83 8.13644 -3.0377 0
M  V30 10578 H 1786.56 6.42788 -2.55485 0
M  V30 10579 H 1787.43 8.12039 -0.792769 0
M  V30 10580 P 1791.39 8.91 -1.62595e-11 0
M  V30 10581 O 1791.61 10.1746 0.733838 0
M  V30 10582 O 1792.18 8.73346 -1.23964 0
M  V30 10583 O 1791.64 7.66872 0.971405 0
M  V30 10584 C 1790.7 7.42405 2.04668 0
M  V30 10585 C 1791.43 6.86059 3.24661 0
M  V30 10586 O 1791.64 5.42934 3.03695 0
M  V30 10587 C 1792.83 7.41287 3.50796 0
M  V30 10588 O 1793.22 7.27073 4.86816 0
M  V30 10589 C 1793.71 6.5273 2.63741 0
M  V30 10590 C 1793 5.1842 2.73198 0
M  V30 10591 N 1793.05 4.38762 1.4784 0
M  V30 10592 H 1790.21 8.36899 2.3252 0
M  V30 10593 H 1789.94 6.70391 1.71179 0
M  V30 10594 H 1790.81 7.03638 4.13219 0
M  V30 10595 H 1793.46 4.59931 3.54016 0
M  V30 10596 H 1793.74 6.88995 1.59871 0
M  V30 10597 H 1794.73 6.4684 3.0373 0
M  V30 10598 H 1792.9 8.47002 3.20749 0
M  V30 10599 P 1794.77 7.20834 5.23717 0
M  V30 10600 O 1794.99 7.79853 6.57286 0
M  V30 10601 O 1795.56 7.79239 4.12957 0
M  V30 10602 O 1795.02 5.63315 5.29344 0
M  V30 10603 C 1794.08 4.80255 6.01876 0
M  V30 10604 C 1794.81 3.64202 6.65911 0
M  V30 10605 O 1795.02 2.60694 5.64732 0
M  V30 10606 C 1796.21 3.93473 7.1943 0
M  V30 10607 O 1796.6 3.02071 8.21205 0
M  V30 10608 C 1797.09 3.73047 5.97036 0
M  V30 10609 C 1796.38 2.58828 5.25741 0
M  V30 10610 N 1796.43 2.68068 3.77503 0
M  V30 10611 H 1793.59 5.40332 6.79951 0
M  V30 10612 H 1793.32 4.41613 5.32378 0
M  V30 10613 H 1794.19 3.26331 7.47797 0
M  V30 10614 P 1798.15 2.75334 8.47391 0
M  V30 10615 O 1798.37 2.44571 9.90142 0
M  V30 10616 O 1798.94 3.87688 7.92115 0
M  V30 10617 O 1798.4 1.4459 7.59357 0
M  V30 10618 C 1797.46 0.347608 7.69215 0
M  V30 10619 C 1798.19 -0.96767 7.52806 0
M  V30 10620 O 1798.4 -1.21036 6.1011 0
M  V30 10621 C 1799.59 -1.04544 8.13308 0
M  V30 10622 O 1799.98 -2.38311 8.41922 0
M  V30 10623 C 1800.47 -0.491279 7.02284 0
M  V30 10624 C 1799.76 -0.996264 5.77469 0
M  V30 10625 N 1799.81 -0.0501916 4.62973 0
M  V30 10626 H 1796.97 0.374722 8.67691 0
M  V30 10627 H 1796.7 0.443485 6.90277 0
M  V30 10628 H 1797.57 -1.75537 7.96793 0
M  V30 10629 P 1801.53 -2.75334 8.47391 0
M  V30 10630 O 1801.75 -3.84128 9.44797 0
M  V30 10631 O 1802.32 -1.51947 8.68712 0
M  V30 10632 O 1801.78 -3.29363 6.99321 0
M  V30 10633 C 1800.84 -4.24011 6.4274 0
M  V30 10634 C 1801.57 -5.20775 5.52155 0
M  V30 10635 O 1801.78 -4.56534 4.22446 0
M  V30 10636 C 1802.97 -5.62629 5.96531 0
M  V30 10637 O 1803.36 -6.87667 5.41053 0
M  V30 10638 C 1803.85 -4.52537 5.39283 0
M  V30 10639 C 1803.14 -4.20027 4.08623 0
M  V30 10640 N 1803.19 -2.76189 3.71603 0
M  V30 10641 H 1800.35 -4.797 7.24003 0
M  V30 10642 H 1800.08 -3.69856 5.84513 0
M  V30 10643 H 1800.95 -6.10356 5.41441 0
M  V30 10644 P 1804.91 -7.20834 5.23717 0
M  V30 10645 O 1805.13 -8.66104 5.38572 0
M  V30 10646 O 1805.7 -6.33544 6.1349 0
M  V30 10647 O 1805.16 -6.7751 3.72168 0
M  V30 10648 C 1804.22 -7.20825 2.7076 0
M  V30 10649 C 1804.95 -7.45864 1.40599 0
M  V30 10650 O 1805.16 -6.17651 0.734225 0
M  V30 10651 C 1806.35 -8.05808 1.51899 0
M  V30 10652 O 1806.74 -8.74358 0.335205 0
M  V30 10653 C 1807.23 -6.83093 1.70294 0
M  V30 10654 C 1806.52 -5.79992 0.836974 0
M  V30 10655 N 1806.57 -4.41864 1.38293 0
M  V30 10656 H 1803.73 -8.13644 3.0377 0
M  V30 10657 H 1803.46 -6.42788 2.55485 0
M  V30 10658 H 1804.33 -8.12039 0.792769 0
M  V30 10659 P 1808.29 -8.91 1.73686e-11 0
M  V30 10660 O 1808.51 -10.1726 -0.733694 0
M  V30 10661 O 1809.08 -8.73148 1.23936 0
M  V30 10662 O 1808.54 -7.66872 -0.971405 0
M  V30 10663 C 1807.6 -7.42309 -2.04641 0
M  V30 10664 C 1808.33 -6.86059 -3.24661 0
M  V30 10665 O 1808.54 -5.42847 -3.03646 0
M  V30 10666 C 1809.73 -7.41196 -3.50753 0
M  V30 10667 O 1810.12 -7.27073 -4.86816 0
M  V30 10668 C 1810.61 -6.5273 -2.63741 0
M  V30 10669 C 1809.9 -5.1842 -2.73198 0
M  V30 10670 N 1809.95 -4.38762 -1.4784 0
M  V30 10671 H 1807.11 -8.36803 -2.32493 0
M  V30 10672 H 1806.84 -6.70197 -1.71129 0
M  V30 10673 H 1807.71 -7.03551 -4.13168 0
M  V30 10674 P 1811.67 -7.20834 -5.23717 0
M  V30 10675 O 1811.89 -7.79853 -6.57286 0
M  V30 10676 O 1812.46 -7.79239 -4.12957 0
M  V30 10677 O 1811.92 -5.63315 -5.29344 0
M  V30 10678 C 1810.98 -4.80255 -6.01876 0
M  V30 10679 C 1811.71 -3.64202 -6.65911 0
M  V30 10680 O 1811.92 -2.60694 -5.64732 0
M  V30 10681 C 1813.11 -3.93473 -7.1943 0
M  V30 10682 O 1813.5 -3.02071 -8.21205 0
M  V30 10683 C 1813.99 -3.73047 -5.97036 0
M  V30 10684 C 1813.28 -2.58828 -5.25741 0
M  V30 10685 N 1813.33 -2.68068 -3.77503 0
M  V30 10686 H 1810.49 -5.40332 -6.79951 0
M  V30 10687 H 1810.22 -4.41613 -5.32378 0
M  V30 10688 H 1811.09 -3.26331 -7.47797 0
M  V30 10689 P 1815.05 -2.75334 -8.47391 0
M  V30 10690 O 1815.27 -2.44571 -9.90142 0
M  V30 10691 O 1815.84 -3.87688 -7.92115 0
M  V30 10692 O 1815.3 -1.4459 -7.59357 0
M  V30 10693 C 1814.36 -0.347608 -7.69215 0
M  V30 10694 C 1815.09 0.96767 -7.52806 0
M  V30 10695 O 1815.3 1.21036 -6.1011 0
M  V30 10696 C 1816.49 1.04544 -8.13308 0
M  V30 10697 O 1816.88 2.38311 -8.41922 0
M  V30 10698 C 1817.37 0.491279 -7.02284 0
M  V30 10699 C 1816.66 0.996264 -5.77469 0
M  V30 10700 N 1816.71 0.0501916 -4.62973 0
M  V30 10701 H 1813.87 -0.374722 -8.67691 0
M  V30 10702 H 1813.6 -0.443485 -6.90277 0
M  V30 10703 H 1814.47 1.75537 -7.96793 0
M  V30 10704 P 1818.43 2.75334 -8.47391 0
M  V30 10705 O 1818.65 3.84128 -9.44797 0
M  V30 10706 O 1819.22 1.51947 -8.68712 0
M  V30 10707 O 1818.68 3.29363 -6.99321 0
M  V30 10708 C 1817.74 4.24011 -6.4274 0
M  V30 10709 C 1818.47 5.20775 -5.52155 0
M  V30 10710 O 1818.68 4.56534 -4.22446 0
M  V30 10711 C 1819.87 5.62629 -5.96531 0
M  V30 10712 O 1820.26 6.87667 -5.41053 0
M  V30 10713 C 1820.75 4.52537 -5.39283 0
M  V30 10714 C 1820.04 4.20027 -4.08623 0
M  V30 10715 N 1820.09 2.76189 -3.71603 0
M  V30 10716 C 1820.01 1.64862 -4.52822 0
M  V30 10717 N 1820.09 0.512671 -3.88633 0
M  V30 10718 C 1820.23 0.888083 -2.54977 0
M  V30 10719 C 1820.36 0.094668 -1.38677 0
M  V30 10720 N 1820.48 0.890102 -0.232633 0
M  V30 10721 C 1820.48 2.26958 -0.21772 0
M  V30 10722 N 1820.61 2.84626 0.97925 0
M  V30 10723 N 1820.35 3.0178 -1.31033 0
M  V30 10724 C 1820.23 2.26781 -2.43843 0
M  V30 10725 H 1817.25 4.797 -7.24003 0
M  V30 10726 H 1816.98 3.69856 -5.84513 0
M  V30 10727 H 1817.85 6.10356 -5.41441 0
M  V30 10728 P 1821.81 7.20834 -5.23717 0
M  V30 10729 O 1822.03 8.66104 -5.38572 0
M  V30 10730 O 1822.6 6.33544 -6.1349 0
M  V30 10731 O 1822.06 6.7751 -3.72168 0
M  V30 10732 C 1821.12 7.20825 -2.7076 0
M  V30 10733 C 1821.85 7.45864 -1.40599 0
M  V30 10734 O 1822.06 6.17651 -0.734225 0
M  V30 10735 C 1823.25 8.05808 -1.51899 0
M  V30 10736 O 1823.64 8.74358 -0.335205 0
M  V30 10737 C 1824.13 6.83093 -1.70294 0
M  V30 10738 C 1823.42 5.79992 -0.836974 0
M  V30 10739 N 1823.47 4.41864 -1.38293 0
M  V30 10740 H 1820.63 8.13644 -3.0377 0
M  V30 10741 H 1820.36 6.42788 -2.55485 0
M  V30 10742 H 1821.23 8.12039 -0.792769 0
M  V30 10743 P 1825.19 8.91 -1.84776e-11 0
M  V30 10744 O 1825.41 10.1726 0.733694 0
M  V30 10745 O 1825.98 8.73148 -1.23936 0
M  V30 10746 O 1825.44 7.66872 0.971405 0
M  V30 10747 C 1824.5 7.42309 2.04641 0
M  V30 10748 C 1825.23 6.86059 3.24661 0
M  V30 10749 O 1825.44 5.42847 3.03646 0
M  V30 10750 C 1826.63 7.41196 3.50753 0
M  V30 10751 O 1827.02 7.27073 4.86816 0
M  V30 10752 C 1827.51 6.5273 2.63741 0
M  V30 10753 C 1826.8 5.1842 2.73198 0
M  V30 10754 N 1826.85 4.38762 1.4784 0
M  V30 10755 H 1824.01 8.36803 2.32493 0
M  V30 10756 H 1823.74 6.70197 1.71129 0
M  V30 10757 H 1824.61 7.03551 4.13168 0
M  V30 10758 P 1828.57 7.20834 5.23717 0
M  V30 10759 O 1828.79 7.79853 6.57286 0
M  V30 10760 O 1829.36 7.79239 4.12957 0
M  V30 10761 O 1828.82 5.63315 5.29344 0
M  V30 10762 C 1827.88 4.80255 6.01876 0
M  V30 10763 C 1828.61 3.64202 6.65911 0
M  V30 10764 O 1828.82 2.60694 5.64732 0
M  V30 10765 C 1830.01 3.93473 7.1943 0
M  V30 10766 O 1830.4 3.02071 8.21205 0
M  V30 10767 C 1830.89 3.73047 5.97036 0
M  V30 10768 C 1830.18 2.58828 5.25741 0
M  V30 10769 N 1830.23 2.68068 3.77503 0
M  V30 10770 C 1830.15 3.79715 2.96723 0
M  V30 10771 N 1830.23 3.5377 1.68852 0
M  V30 10772 C 1830.37 2.15054 1.63254 0
M  V30 10773 C 1830.5 1.28964 0.518571 0
M  V30 10774 N 1830.62 -0.0538097 0.918425 0
M  V30 10775 C 1830.62 -0.494275 2.22578 0
M  V30 10776 N 1830.75 -1.81086 2.40434 0
M  V30 10777 N 1830.49 0.313645 3.27502 0
M  V30 10778 C 1830.37 1.61829 2.91033 0
M  V30 10779 H 1827.39 5.40332 6.79951 0
M  V30 10780 H 1827.12 4.41613 5.32378 0
M  V30 10781 H 1827.99 3.26331 7.47797 0
M  V30 10782 P 1831.95 2.75334 8.47391 0
M  V30 10783 O 1832.17 2.44571 9.90142 0
M  V30 10784 O 1832.74 3.87688 7.92115 0
M  V30 10785 O 1832.2 1.4459 7.59357 0
M  V30 10786 C 1831.26 0.347608 7.69215 0
M  V30 10787 C 1831.99 -0.96767 7.52806 0
M  V30 10788 O 1832.2 -1.21036 6.1011 0
M  V30 10789 C 1833.39 -1.04544 8.13308 0
M  V30 10790 O 1833.78 -2.38311 8.41922 0
M  V30 10791 C 1834.27 -0.491279 7.02284 0
M  V30 10792 C 1833.56 -0.996264 5.77469 0
M  V30 10793 N 1833.61 -0.0501916 4.62973 0
M  V30 10794 H 1830.77 0.374722 8.67691 0
M  V30 10795 H 1830.5 0.443485 6.90277 0
M  V30 10796 H 1831.37 -1.75537 7.96793 0
M  V30 10797 P 1835.33 -2.75334 8.47391 0
M  V30 10798 O 1835.55 -3.84128 9.44797 0
M  V30 10799 O 1836.12 -1.51947 8.68712 0
M  V30 10800 O 1835.58 -3.29363 6.99321 0
M  V30 10801 C 1834.64 -4.24011 6.4274 0
M  V30 10802 C 1835.37 -5.20775 5.52155 0
M  V30 10803 O 1835.58 -4.56534 4.22446 0
M  V30 10804 C 1836.77 -5.62629 5.96531 0
M  V30 10805 O 1837.16 -6.87667 5.41053 0
M  V30 10806 C 1837.65 -4.52537 5.39283 0
M  V30 10807 C 1836.94 -4.20027 4.08623 0
M  V30 10808 N 1836.99 -2.76189 3.71603 0
M  V30 10809 C 1836.91 -1.64862 4.52822 0
M  V30 10810 N 1836.99 -0.512671 3.88633 0
M  V30 10811 C 1837.13 -0.888083 2.54977 0
M  V30 10812 C 1837.26 -0.094668 1.38677 0
M  V30 10813 O 1837.28 1.13053 1.28163 0
M  V30 10814 N 1837.38 -0.890102 0.232633 0
M  V30 10815 C 1837.38 -2.26958 0.21772 0
M  V30 10816 N 1837.51 -2.84626 -0.97925 0
M  V30 10817 N 1837.25 -3.0178 1.31033 0
M  V30 10818 C 1837.13 -2.26781 2.43843 0
M  V30 10819 H 1834.15 -4.797 7.24003 0
M  V30 10820 H 1833.88 -3.69856 5.84513 0
M  V30 10821 H 1834.75 -6.10356 5.41441 0
M  V30 10822 H 1837.4 -4.79061 3.27488 0
M  V30 10823 H 1837.68 -3.64906 6.05785 0
M  V30 10824 H 1838.67 -4.8868 5.2125 0
M  V30 10825 H 1836.84 -5.66726 7.06352 0
M  V30 10826 H 1836.79 -1.71169 5.60966 0
M  V30 10827 H 1837.47 -0.419134 -0.644739 0
M  V30 10828 H 1837.51 -3.87332 -1.06098 0
M  V30 10829 H 1837.61 -2.26417 -1.82483 0
M  V30 10830 P 1838.71 -7.20834 5.23717 0
M  V30 10831 O 1838.93 -8.66104 5.38572 0
M  V30 10832 O 1839.5 -6.33544 6.1349 0
M  V30 10833 O 1838.96 -6.7751 3.72168 0
M  V30 10834 C 1838.02 -7.20825 2.7076 0
M  V30 10835 C 1838.75 -7.45864 1.40599 0
M  V30 10836 O 1838.96 -6.17651 0.734225 0
M  V30 10837 C 1840.15 -8.05808 1.51899 0
M  V30 10838 O 1840.54 -8.74358 0.335205 0
M  V30 10839 C 1841.03 -6.83093 1.70294 0
M  V30 10840 C 1840.32 -5.79992 0.836974 0
M  V30 10841 N 1840.37 -4.41864 1.38293 0
M  V30 10842 H 1837.53 -8.13644 3.0377 0
M  V30 10843 H 1837.26 -6.42788 2.55485 0
M  V30 10844 H 1838.13 -8.12039 0.792769 0
M  V30 10845 P 1842.09 -8.91 1.95866e-11 0
M  V30 10846 O 1842.31 -10.1726 -0.733694 0
M  V30 10847 O 1842.88 -8.73148 1.23936 0
M  V30 10848 O 1842.34 -7.66872 -0.971405 0
M  V30 10849 C 1841.4 -7.42309 -2.04641 0
M  V30 10850 C 1842.13 -6.86059 -3.24661 0
M  V30 10851 O 1842.34 -5.42847 -3.03646 0
M  V30 10852 C 1843.53 -7.41196 -3.50753 0
M  V30 10853 O 1843.92 -7.27073 -4.86816 0
M  V30 10854 C 1844.41 -6.5273 -2.63741 0
M  V30 10855 C 1843.7 -5.1842 -2.73198 0
M  V30 10856 N 1843.75 -4.38762 -1.4784 0
M  V30 10857 H 1840.91 -8.36803 -2.32493 0
M  V30 10858 H 1840.64 -6.70197 -1.71129 0
M  V30 10859 H 1841.51 -7.03551 -4.13168 0
M  V30 10860 P 1845.47 -7.20834 -5.23717 0
M  V30 10861 O 1845.69 -7.79853 -6.57286 0
M  V30 10862 O 1846.26 -7.79239 -4.12957 0
M  V30 10863 O 1845.72 -5.63315 -5.29344 0
M  V30 10864 C 1844.78 -4.80255 -6.01876 0
M  V30 10865 C 1845.51 -3.64202 -6.65911 0
M  V30 10866 O 1845.72 -2.60694 -5.64732 0
M  V30 10867 C 1846.91 -3.93473 -7.1943 0
M  V30 10868 O 1847.3 -3.02071 -8.21205 0
M  V30 10869 C 1847.79 -3.73047 -5.97036 0
M  V30 10870 C 1847.08 -2.58828 -5.25741 0
M  V30 10871 N 1847.13 -2.68068 -3.77503 0
M  V30 10872 H 1844.29 -5.40332 -6.79951 0
M  V30 10873 H 1844.02 -4.41613 -5.32378 0
M  V30 10874 H 1844.89 -3.26331 -7.47797 0
M  V30 10875 P 1848.85 -2.75334 -8.47391 0
M  V30 10876 O 1849.07 -2.44571 -9.90142 0
M  V30 10877 O 1849.64 -3.87688 -7.92115 0
M  V30 10878 O 1849.1 -1.4459 -7.59357 0
M  V30 10879 C 1848.16 -0.347608 -7.69215 0
M  V30 10880 C 1848.89 0.96767 -7.52806 0
M  V30 10881 O 1849.1 1.21036 -6.1011 0
M  V30 10882 C 1850.29 1.04544 -8.13308 0
M  V30 10883 O 1850.68 2.38311 -8.41922 0
M  V30 10884 C 1851.17 0.491279 -7.02284 0
M  V30 10885 C 1850.46 0.996264 -5.77469 0
M  V30 10886 N 1850.51 0.0501916 -4.62973 0
M  V30 10887 H 1847.67 -0.374722 -8.67691 0
M  V30 10888 H 1847.4 -0.443485 -6.90277 0
M  V30 10889 H 1848.27 1.75537 -7.96793 0
M  V30 10890 P 1852.23 2.75334 -8.47391 0
M  V30 10891 O 1852.45 3.84128 -9.44797 0
M  V30 10892 O 1853.02 1.51947 -8.68712 0
M  V30 10893 O 1852.48 3.29363 -6.99321 0
M  V30 10894 C 1851.54 4.24011 -6.4274 0
M  V30 10895 C 1852.27 5.20775 -5.52155 0
M  V30 10896 O 1852.48 4.56534 -4.22446 0
M  V30 10897 C 1853.67 5.62629 -5.96531 0
M  V30 10898 O 1854.06 6.87667 -5.41053 0
M  V30 10899 C 1854.55 4.52537 -5.39283 0
M  V30 10900 C 1853.84 4.20027 -4.08623 0
M  V30 10901 N 1853.89 2.76189 -3.71603 0
M  V30 10902 H 1851.05 4.797 -7.24003 0
M  V30 10903 H 1850.78 3.69856 -5.84513 0
M  V30 10904 H 1851.65 6.10356 -5.41441 0
M  V30 10905 P 1855.61 7.20834 -5.23717 0
M  V30 10906 O 1855.83 8.66104 -5.38572 0
M  V30 10907 O 1856.4 6.33544 -6.1349 0
M  V30 10908 O 1855.86 6.7751 -3.72168 0
M  V30 10909 C 1854.92 7.20825 -2.7076 0
M  V30 10910 C 1855.65 7.45864 -1.40599 0
M  V30 10911 O 1855.86 6.17651 -0.734225 0
M  V30 10912 C 1857.05 8.05808 -1.51899 0
M  V30 10913 O 1857.44 8.74358 -0.335205 0
M  V30 10914 C 1857.93 6.83093 -1.70294 0
M  V30 10915 C 1857.22 5.79992 -0.836974 0
M  V30 10916 N 1857.27 4.41864 -1.38293 0
M  V30 10917 H 1854.43 8.13644 -3.0377 0
M  V30 10918 H 1854.16 6.42788 -2.55485 0
M  V30 10919 H 1855.03 8.12039 -0.792769 0
M  V30 10920 P 1858.99 8.91 -2.06956e-11 0
M  V30 10921 O 1859.21 10.1726 0.733694 0
M  V30 10922 O 1859.78 8.73148 -1.23936 0
M  V30 10923 O 1859.24 7.66872 0.971405 0
M  V30 10924 C 1858.3 7.42309 2.04641 0
M  V30 10925 C 1859.03 6.86059 3.24661 0
M  V30 10926 O 1859.24 5.42847 3.03646 0
M  V30 10927 C 1860.43 7.41196 3.50753 0
M  V30 10928 O 1860.82 7.27073 4.86816 0
M  V30 10929 C 1861.31 6.5273 2.63741 0
M  V30 10930 C 1860.6 5.1842 2.73198 0
M  V30 10931 N 1860.65 4.38762 1.4784 0
M  V30 10932 H 1857.81 8.36803 2.32493 0
M  V30 10933 H 1857.54 6.70197 1.71129 0
M  V30 10934 H 1858.41 7.03551 4.13168 0
M  V30 10935 P 1862.37 7.20834 5.23717 0
M  V30 10936 O 1862.59 7.79853 6.57286 0
M  V30 10937 O 1863.16 7.79239 4.12957 0
M  V30 10938 O 1862.62 5.63315 5.29344 0
M  V30 10939 C 1861.68 4.80255 6.01876 0
M  V30 10940 C 1862.41 3.64202 6.65911 0
M  V30 10941 O 1862.62 2.60694 5.64732 0
M  V30 10942 C 1863.81 3.93473 7.1943 0
M  V30 10943 O 1864.2 3.02071 8.21205 0
M  V30 10944 C 1864.69 3.73047 5.97036 0
M  V30 10945 C 1863.98 2.58828 5.25741 0
M  V30 10946 N 1864.03 2.68068 3.77503 0
M  V30 10947 H 1861.19 5.40332 6.79951 0
M  V30 10948 H 1860.92 4.41613 5.32378 0
M  V30 10949 H 1861.79 3.26331 7.47797 0
M  V30 10950 P 1865.75 2.75334 8.47391 0
M  V30 10951 O 1865.97 2.44619 9.90336 0
M  V30 10952 O 1866.54 3.87776 7.92294 0
M  V30 10953 O 1866 1.4459 7.59357 0
M  V30 10954 C 1865.06 0.347653 7.69315 0
M  V30 10955 C 1865.79 -0.96767 7.52806 0
M  V30 10956 O 1866 -1.21055 6.10208 0
M  V30 10957 C 1867.19 -1.04557 8.13408 0
M  V30 10958 O 1867.58 -2.38311 8.41922 0
M  V30 10959 C 1868.07 -0.491279 7.02284 0
M  V30 10960 C 1867.36 -0.996264 5.77469 0
M  V30 10961 N 1867.41 -0.0501916 4.62973 0
M  V30 10962 H 1864.57 0.374765 8.67791 0
M  V30 10963 H 1864.3 0.443613 6.90476 0
M  V30 10964 H 1865.17 -1.75559 7.96891 0
M  V30 10965 H 1867.82 -1.94563 5.46818 0
M  V30 10966 H 1868.1 0.608651 7.04676 0
M  V30 10967 H 1869.09 -0.889796 7.09039 0
M  V30 10968 H 1867.26 -0.433128 9.04664 0
M  V30 10969 P 1869.13 -2.75334 8.47391 0
M  V30 10970 O 1869.35 -3.84128 9.44797 0
M  V30 10971 O 1869.92 -1.51947 8.68712 0
M  V30 10972 O 1869.38 -3.29363 6.99321 0
M  V30 10973 C 1868.44 -4.24011 6.4274 0
M  V30 10974 C 1869.17 -5.20775 5.52155 0
M  V30 10975 O 1869.38 -4.56534 4.22446 0
M  V30 10976 C 1870.57 -5.62629 5.96531 0
M  V30 10977 O 1870.96 -6.87667 5.41053 0
M  V30 10978 C 1871.45 -4.52537 5.39283 0
M  V30 10979 C 1870.74 -4.20027 4.08623 0
M  V30 10980 N 1870.79 -2.76189 3.71603 0
M  V30 10981 H 1867.95 -4.797 7.24003 0
M  V30 10982 H 1867.68 -3.69856 5.84513 0
M  V30 10983 H 1868.55 -6.10356 5.41441 0
M  V30 10984 P 1872.51 -7.20834 5.23717 0
M  V30 10985 O 1872.73 -8.66274 5.38678 0
M  V30 10986 O 1873.3 -6.33687 6.13629 0
M  V30 10987 O 1872.76 -6.7751 3.72168 0
M  V30 10988 C 1871.82 -7.20919 2.70795 0
M  V30 10989 C 1872.55 -7.45864 1.40599 0
M  V30 10990 O 1872.76 -6.17751 0.734343 0
M  V30 10991 C 1873.95 -8.05906 1.51917 0
M  V30 10992 O 1874.34 -8.74358 0.335205 0
M  V30 10993 C 1874.83 -6.83093 1.70294 0
M  V30 10994 C 1874.12 -5.79992 0.836974 0
M  V30 10995 N 1874.17 -4.41864 1.38293 0
M  V30 10996 H 1871.33 -8.13738 3.03804 0
M  V30 10997 H 1871.06 -6.42974 2.55559 0
M  V30 10998 H 1871.93 -8.12139 0.792866 0
M  V30 10999 H 1874.58 -5.80178 -0.160643 0
M  V30 11000 H 1874.86 -6.51379 2.75643 0
M  V30 11001 H 1875.85 -7.01832 1.3448 0
M  V30 11002 H 1874.02 -8.73771 2.38364 0
M  V30 11003 P 1875.89 -8.91 2.18046e-11 0
M  V30 11004 O 1876.11 -10.1726 -0.733694 0
M  V30 11005 O 1876.68 -8.73148 1.23936 0
M  V30 11006 O 1876.14 -7.66872 -0.971405 0
M  V30 11007 C 1875.2 -7.42309 -2.04641 0
M  V30 11008 C 1875.93 -6.86059 -3.24661 0
M  V30 11009 O 1876.14 -5.42847 -3.03646 0
M  V30 11010 C 1877.33 -7.41196 -3.50753 0
M  V30 11011 O 1877.72 -7.27073 -4.86816 0
M  V30 11012 C 1878.21 -6.5273 -2.63741 0
M  V30 11013 C 1877.5 -5.1842 -2.73198 0
M  V30 11014 N 1877.55 -4.38762 -1.4784 0
M  V30 11015 H 1874.71 -8.36803 -2.32493 0
M  V30 11016 H 1874.44 -6.70197 -1.71129 0
M  V30 11017 H 1875.31 -7.03551 -4.13168 0
M  V30 11018 P 1879.27 -7.20834 -5.23717 0
M  V30 11019 O 1879.49 -7.79853 -6.57286 0
M  V30 11020 O 1880.06 -7.79239 -4.12957 0
M  V30 11021 O 1879.52 -5.63315 -5.29344 0
M  V30 11022 C 1878.58 -4.80255 -6.01876 0
M  V30 11023 C 1879.31 -3.64202 -6.65911 0
M  V30 11024 O 1879.52 -2.60694 -5.64732 0
M  V30 11025 C 1880.71 -3.93473 -7.1943 0
M  V30 11026 O 1881.1 -3.02071 -8.21205 0
M  V30 11027 C 1881.59 -3.73047 -5.97036 0
M  V30 11028 C 1880.88 -2.58828 -5.25741 0
M  V30 11029 N 1880.93 -2.68068 -3.77503 0
M  V30 11030 H 1878.09 -5.40332 -6.79951 0
M  V30 11031 H 1877.82 -4.41613 -5.32378 0
M  V30 11032 H 1878.69 -3.26331 -7.47797 0
M  V30 11033 P 1882.65 -2.75334 -8.47391 0
M  V30 11034 O 1882.87 -2.44571 -9.90142 0
M  V30 11035 O 1883.44 -3.87688 -7.92115 0
M  V30 11036 O 1882.9 -1.4459 -7.59357 0
M  V30 11037 C 1881.96 -0.347608 -7.69215 0
M  V30 11038 C 1882.69 0.96767 -7.52806 0
M  V30 11039 O 1882.9 1.21036 -6.1011 0
M  V30 11040 C 1884.09 1.04544 -8.13308 0
M  V30 11041 O 1884.48 2.38311 -8.41922 0
M  V30 11042 C 1884.97 0.491279 -7.02284 0
M  V30 11043 C 1884.26 0.996264 -5.77469 0
M  V30 11044 N 1884.31 0.0501916 -4.62973 0
M  V30 11045 H 1881.47 -0.374722 -8.67691 0
M  V30 11046 H 1881.2 -0.443485 -6.90277 0
M  V30 11047 H 1882.07 1.75537 -7.96793 0
M  V30 11048 P 1886.03 2.75334 -8.47391 0
M  V30 11049 O 1886.25 3.84128 -9.44797 0
M  V30 11050 O 1886.82 1.51947 -8.68712 0
M  V30 11051 O 1886.28 3.29363 -6.99321 0
M  V30 11052 C 1885.34 4.24011 -6.4274 0
M  V30 11053 C 1886.07 5.20775 -5.52155 0
M  V30 11054 O 1886.28 4.56534 -4.22446 0
M  V30 11055 C 1887.47 5.62629 -5.96531 0
M  V30 11056 O 1887.86 6.87667 -5.41053 0
M  V30 11057 C 1888.35 4.52537 -5.39283 0
M  V30 11058 C 1887.64 4.20027 -4.08623 0
M  V30 11059 N 1887.69 2.76189 -3.71603 0
M  V30 11060 H 1884.85 4.797 -7.24003 0
M  V30 11061 H 1884.58 3.69856 -5.84513 0
M  V30 11062 H 1885.45 6.10356 -5.41441 0
M  V30 11063 P 1889.41 7.20834 -5.23717 0
M  V30 11064 O 1889.63 8.66189 -5.38625 0
M  V30 11065 O 1890.2 6.33615 -6.1356 0
M  V30 11066 O 1889.66 6.7751 -3.72168 0
M  V30 11067 C 1888.72 7.20732 -2.70725 0
M  V30 11068 C 1889.45 7.45864 -1.40599 0
M  V30 11069 O 1889.66 6.17651 -0.734225 0
M  V30 11070 C 1890.85 8.05808 -1.51899 0
M  V30 11071 O 1891.24 8.74358 -0.335205 0
M  V30 11072 C 1891.73 6.83093 -1.70294 0
M  V30 11073 C 1891.02 5.79992 -0.836974 0
M  V30 11074 N 1891.07 4.41769 -1.38263 0
M  V30 11075 C 1891.22 3.38591 -0.481702 0
M  V30 11076 O 1891.31 3.56839 0.718452 0
M  V30 11077 N 1891.26 2.1206 -1.03569 0
M  V30 11078 C 1891.17 1.80696 -2.36966 0
M  V30 11079 O 1891.22 0.630473 -2.74862 0
M  V30 11080 C 1891.02 2.94845 -3.23898 0
M  V30 11081 C 1890.91 2.65253 -4.70362 0
M  V30 11082 C 1890.97 4.19803 -2.73435 0
M  V30 11083 H 1888.23 8.13644 -3.0377 0
M  V30 11084 H 1887.96 6.42695 -2.55448 0
M  V30 11085 H 1888.83 8.12039 -0.792769 0
M  V30 11086 H 1891.48 5.79978 0.160587 0
M  V30 11087 H 1891.76 6.51379 -2.75643 0
M  V30 11088 H 1892.75 7.01734 -1.34462 0
M  V30 11089 H 1890.92 8.73674 -2.38337 0
M  V30 11090 H 1890.85 5.04492 -3.4095 0
M  V30 11091 H 1891.88 2.83924 -5.1913 0
M  V30 11092 H 1890.14 3.29824 -5.15163 0
M  V30 11093 H 1890.63 1.59723 -4.84449 0
M  V30 11094 H 1891.36 1.35644 -0.399345 0
M  V30 11095 P 1892.79 8.91 -2.29136e-11 0
M  V30 11096 O 1893.01 10.1726 0.733694 0
M  V30 11097 O 1893.58 8.73148 -1.23936 0
M  V30 11098 O 1893.04 7.66872 0.971405 0
M  V30 11099 C 1892.1 7.42309 2.04641 0
M  V30 11100 C 1892.83 6.86059 3.24661 0
M  V30 11101 O 1893.04 5.42847 3.03646 0
M  V30 11102 C 1894.23 7.41196 3.50753 0
M  V30 11103 O 1894.62 7.27073 4.86816 0
M  V30 11104 C 1895.11 6.5273 2.63741 0
M  V30 11105 C 1894.4 5.1842 2.73198 0
M  V30 11106 N 1894.45 4.38762 1.4784 0
M  V30 11107 H 1891.61 8.36803 2.32493 0
M  V30 11108 H 1891.34 6.70197 1.71129 0
M  V30 11109 H 1892.21 7.03551 4.13168 0
M  V30 11110 P 1896.17 7.20834 5.23717 0
M  V30 11111 O 1896.39 7.79853 6.57286 0
M  V30 11112 O 1896.96 7.79239 4.12957 0
M  V30 11113 O 1896.42 5.63315 5.29344 0
M  V30 11114 C 1895.48 4.80255 6.01876 0
M  V30 11115 C 1896.21 3.64202 6.65911 0
M  V30 11116 O 1896.42 2.60694 5.64732 0
M  V30 11117 C 1897.61 3.93473 7.1943 0
M  V30 11118 O 1898 3.02071 8.21205 0
M  V30 11119 C 1898.49 3.73047 5.97036 0
M  V30 11120 C 1897.78 2.58828 5.25741 0
M  V30 11121 N 1897.83 2.68068 3.77503 0
M  V30 11122 C 1897.75 3.79715 2.96723 0
M  V30 11123 N 1897.83 3.5377 1.68852 0
M  V30 11124 C 1897.97 2.15054 1.63254 0
M  V30 11125 C 1898.1 1.28964 0.518571 0
M  V30 11126 N 1898.22 -0.0538097 0.918425 0
M  V30 11127 C 1898.22 -0.494275 2.22578 0
M  V30 11128 N 1898.35 -1.81086 2.40434 0
M  V30 11129 N 1898.09 0.313645 3.27502 0
M  V30 11130 C 1897.97 1.61829 2.91033 0
M  V30 11131 H 1894.99 5.40332 6.79951 0
M  V30 11132 H 1894.72 4.41613 5.32378 0
M  V30 11133 H 1895.59 3.26331 7.47797 0
M  V30 11134 P 1899.55 2.75334 8.47391 0
M  V30 11135 O 1899.77 2.44571 9.90142 0
M  V30 11136 O 1900.34 3.87688 7.92115 0
M  V30 11137 O 1899.8 1.4459 7.59357 0
M  V30 11138 C 1898.86 0.347608 7.69215 0
M  V30 11139 C 1899.59 -0.96767 7.52806 0
M  V30 11140 O 1899.8 -1.21036 6.1011 0
M  V30 11141 C 1900.99 -1.04544 8.13308 0
M  V30 11142 O 1901.38 -2.38311 8.41922 0
M  V30 11143 C 1901.87 -0.491279 7.02284 0
M  V30 11144 C 1901.16 -0.996264 5.77469 0
M  V30 11145 N 1901.21 -0.0501916 4.62973 0
M  V30 11146 H 1898.37 0.374722 8.67691 0
M  V30 11147 H 1898.1 0.443485 6.90277 0
M  V30 11148 H 1898.97 -1.75537 7.96793 0
M  V30 11149 P 1902.93 -2.75334 8.47391 0
M  V30 11150 O 1903.15 -3.84204 9.44982 0
M  V30 11151 O 1903.72 -1.51982 8.68909 0
M  V30 11152 O 1903.18 -3.29363 6.99321 0
M  V30 11153 C 1902.24 -4.24066 6.42823 0
M  V30 11154 C 1902.97 -5.20775 5.52155 0
M  V30 11155 O 1903.18 -4.56607 4.22514 0
M  V30 11156 C 1904.37 -5.62697 5.96604 0
M  V30 11157 O 1904.76 -6.87667 5.41053 0
M  V30 11158 C 1905.25 -4.52537 5.39283 0
M  V30 11159 C 1904.54 -4.20027 4.08623 0
M  V30 11160 N 1904.59 -2.76189 3.71603 0
M  V30 11161 C 1904.51 -1.66944 4.54297 0
M  V30 11162 N 1904.58 -0.536169 3.91344 0
M  V30 11163 C 1904.73 -0.901569 2.58849 0
M  V30 11164 C 1904.86 -0.146599 1.40236 0
M  V30 11165 N 1904.87 1.18234 1.37046 0
M  V30 11166 N 1904.98 -0.822941 0.249738 0
M  V30 11167 C 1904.97 -2.15179 0.280525 0
M  V30 11168 N 1904.85 -2.96414 1.30822 0
M  V30 11169 C 1904.73 -2.25804 2.44748 0
M  V30 11170 H 1901.75 -4.79756 7.24086 0
M  V30 11171 H 1901.48 -3.69963 5.84682 0
M  V30 11172 H 1902.35 -6.10431 5.41508 0
M  V30 11173 H 1905 -4.78816 3.28024 0
M  V30 11174 H 1905.28 -3.64957 6.05871 0
M  V30 11175 H 1906.27 -4.88748 5.21323 0
M  V30 11176 H 1904.44 -5.66789 7.0643 0
M  V30 11177 H 1904.4 -1.74684 5.62396 0
M  V30 11178 H 1904.78 1.71949 2.24394 0
M  V30 11179 H 1904.97 1.67511 0.470742 0
M  V30 11180 H 1905.08 -2.63704 -0.6828 0
M  V30 11181 P 1906.31 -7.20834 5.23717 0
M  V30 11182 O 1906.53 -8.66104 5.38572 0
M  V30 11183 O 1907.1 -6.33544 6.1349 0
M  V30 11184 O 1906.56 -6.7751 3.72168 0
M  V30 11185 C 1905.62 -7.20825 2.7076 0
M  V30 11186 C 1906.35 -7.45864 1.40599 0
M  V30 11187 O 1906.56 -6.17651 0.734225 0
M  V30 11188 C 1907.75 -8.05808 1.51899 0
M  V30 11189 O 1908.14 -8.74358 0.335205 0
M  V30 11190 C 1908.63 -6.83093 1.70294 0
M  V30 11191 C 1907.92 -5.79992 0.836974 0
M  V30 11192 N 1907.97 -4.41864 1.38293 0
M  V30 11193 H 1905.13 -8.13644 3.0377 0
M  V30 11194 H 1904.86 -6.42788 2.55485 0
M  V30 11195 H 1905.73 -8.12039 0.792769 0
M  V30 11196 P 1909.69 -8.91 2.40226e-11 0
M  V30 11197 O 1909.91 -10.1726 -0.733694 0
M  V30 11198 O 1910.48 -8.73148 1.23936 0
M  V30 11199 O 1909.94 -7.66872 -0.971405 0
M  V30 11200 C 1909 -7.42309 -2.04641 0
M  V30 11201 C 1909.73 -6.86059 -3.24661 0
M  V30 11202 O 1909.94 -5.42847 -3.03646 0
M  V30 11203 C 1911.13 -7.41196 -3.50753 0
M  V30 11204 O 1911.52 -7.27073 -4.86816 0
M  V30 11205 C 1912.01 -6.5273 -2.63741 0
M  V30 11206 C 1911.3 -5.1842 -2.73198 0
M  V30 11207 N 1911.35 -4.38762 -1.4784 0
M  V30 11208 H 1908.51 -8.36803 -2.32493 0
M  V30 11209 H 1908.24 -6.70197 -1.71129 0
M  V30 11210 H 1909.11 -7.03551 -4.13168 0
M  V30 11211 P 1913.07 -7.20834 -5.23717 0
M  V30 11212 O 1913.29 -7.79853 -6.57286 0
M  V30 11213 O 1913.86 -7.79239 -4.12957 0
M  V30 11214 O 1913.32 -5.63315 -5.29344 0
M  V30 11215 C 1912.38 -4.80255 -6.01876 0
M  V30 11216 C 1913.11 -3.64202 -6.65911 0
M  V30 11217 O 1913.32 -2.60694 -5.64732 0
M  V30 11218 C 1914.51 -3.93473 -7.1943 0
M  V30 11219 O 1914.9 -3.02071 -8.21205 0
M  V30 11220 C 1915.39 -3.73047 -5.97036 0
M  V30 11221 C 1914.68 -2.58828 -5.25741 0
M  V30 11222 N 1914.73 -2.68068 -3.77503 0
M  V30 11223 H 1911.89 -5.40332 -6.79951 0
M  V30 11224 H 1911.62 -4.41613 -5.32378 0
M  V30 11225 H 1912.49 -3.26331 -7.47797 0
M  V30 11226 P 1916.45 -2.75334 -8.47391 0
M  V30 11227 O 1916.67 -2.44571 -9.90142 0
M  V30 11228 O 1917.24 -3.87688 -7.92115 0
M  V30 11229 O 1916.7 -1.4459 -7.59357 0
M  V30 11230 C 1915.76 -0.347608 -7.69215 0
M  V30 11231 C 1916.49 0.96767 -7.52806 0
M  V30 11232 O 1916.7 1.21036 -6.1011 0
M  V30 11233 C 1917.89 1.04544 -8.13308 0
M  V30 11234 O 1918.28 2.38311 -8.41922 0
M  V30 11235 C 1918.77 0.491279 -7.02284 0
M  V30 11236 C 1918.06 0.996264 -5.77469 0
M  V30 11237 N 1918.11 0.0501916 -4.62973 0
M  V30 11238 H 1915.27 -0.374722 -8.67691 0
M  V30 11239 H 1915 -0.443485 -6.90277 0
M  V30 11240 H 1915.87 1.75537 -7.96793 0
M  V30 11241 P 1919.83 2.75334 -8.47391 0
M  V30 11242 O 1920.05 3.84128 -9.44797 0
M  V30 11243 O 1920.62 1.51947 -8.68712 0
M  V30 11244 O 1920.08 3.29363 -6.99321 0
M  V30 11245 C 1919.14 4.24011 -6.4274 0
M  V30 11246 C 1919.87 5.20775 -5.52155 0
M  V30 11247 O 1920.08 4.56534 -4.22446 0
M  V30 11248 C 1921.27 5.62629 -5.96531 0
M  V30 11249 O 1921.66 6.87667 -5.41053 0
M  V30 11250 C 1922.15 4.52537 -5.39283 0
M  V30 11251 C 1921.44 4.20027 -4.08623 0
M  V30 11252 N 1921.49 2.76189 -3.71603 0
M  V30 11253 H 1918.65 4.797 -7.24003 0
M  V30 11254 H 1918.38 3.69856 -5.84513 0
M  V30 11255 H 1919.25 6.10356 -5.41441 0
M  V30 11256 P 1923.21 7.20834 -5.23717 0
M  V30 11257 O 1923.43 8.66274 -5.38678 0
M  V30 11258 O 1924 6.33687 -6.13629 0
M  V30 11259 O 1923.46 6.7751 -3.72168 0
M  V30 11260 C 1922.52 7.20919 -2.70795 0
M  V30 11261 C 1923.25 7.45864 -1.40599 0
M  V30 11262 O 1923.46 6.17751 -0.734343 0
M  V30 11263 C 1924.65 8.05906 -1.51917 0
M  V30 11264 O 1925.04 8.74358 -0.335205 0
M  V30 11265 C 1925.53 6.83093 -1.70294 0
M  V30 11266 C 1924.82 5.79992 -0.836974 0
M  V30 11267 N 1924.87 4.41864 -1.38293 0
M  V30 11268 C 1924.79 4.02089 -2.69407 0
M  V30 11269 N 1924.86 2.73403 -2.85089 0
M  V30 11270 C 1925.01 2.25086 -1.5642 0
M  V30 11271 C 1925.14 0.942887 -1.04836 0
M  V30 11272 N 1925.15 -0.150999 -1.80369 0
M  V30 11273 N 1925.26 0.812565 0.28167 0
M  V30 11274 C 1925.25 1.90572 1.03784 0
M  V30 11275 N 1925.13 3.167 0.683905 0
M  V30 11276 C 1925.01 3.26538 -0.652815 0
M  V30 11277 H 1922.03 8.13738 -3.03804 0
M  V30 11278 H 1921.76 6.42974 -2.55559 0
M  V30 11279 H 1922.63 8.12139 -0.792866 0
M  V30 11280 H 1925.28 5.80178 0.160643 0
M  V30 11281 H 1925.56 6.51379 -2.75643 0
M  V30 11282 H 1926.55 7.01832 -1.3448 0
M  V30 11283 H 1924.72 8.73771 -2.38364 0
M  V30 11284 H 1924.68 4.7189 -3.52311 0
M  V30 11285 H 1925.06 -0.0721434 -2.82608 0
M  V30 11286 H 1925.25 -1.0785 -1.36544 0
M  V30 11287 H 1925.36 1.73207 2.10241 0
M  V30 11288 P 1926.59 8.91 -2.51316e-11 0
M  V30 11289 O 1926.81 10.1746 0.733838 0
M  V30 11290 O 1927.38 8.73346 -1.23964 0
M  V30 11291 O 1926.84 7.66872 0.971405 0
M  V30 11292 C 1925.9 7.42405 2.04668 0
M  V30 11293 C 1926.63 6.86059 3.24661 0
M  V30 11294 O 1926.84 5.42934 3.03695 0
M  V30 11295 C 1928.03 7.41287 3.50796 0
M  V30 11296 O 1928.42 7.27073 4.86816 0
M  V30 11297 C 1928.91 6.5273 2.63741 0
M  V30 11298 C 1928.2 5.1842 2.73198 0
M  V30 11299 N 1928.25 4.38762 1.4784 0
M  V30 11300 H 1925.41 8.36899 2.3252 0
M  V30 11301 H 1925.14 6.70391 1.71179 0
M  V30 11302 H 1926.01 7.03638 4.13219 0
M  V30 11303 H 1928.66 4.59931 3.54016 0
M  V30 11304 H 1928.94 6.88995 1.59871 0
M  V30 11305 H 1929.93 6.4684 3.0373 0
M  V30 11306 H 1928.1 8.47002 3.20749 0
M  V30 11307 P 1929.97 7.20834 5.23717 0
M  V30 11308 O 1930.19 7.79853 6.57286 0
M  V30 11309 O 1930.76 7.79239 4.12957 0
M  V30 11310 O 1930.22 5.63315 5.29344 0
M  V30 11311 C 1929.28 4.80255 6.01876 0
M  V30 11312 C 1930.01 3.64202 6.65911 0
M  V30 11313 O 1930.22 2.60694 5.64732 0
M  V30 11314 C 1931.41 3.93473 7.1943 0
M  V30 11315 O 1931.8 3.02071 8.21205 0
M  V30 11316 C 1932.29 3.73047 5.97036 0
M  V30 11317 C 1931.58 2.58828 5.25741 0
M  V30 11318 N 1931.63 2.68068 3.77503 0
M  V30 11319 H 1928.79 5.40332 6.79951 0
M  V30 11320 H 1928.52 4.41613 5.32378 0
M  V30 11321 H 1929.39 3.26331 7.47797 0
M  V30 11322 P 1933.35 2.75334 8.47391 0
M  V30 11323 O 1933.57 2.44571 9.90142 0
M  V30 11324 O 1934.14 3.87688 7.92115 0
M  V30 11325 O 1933.6 1.4459 7.59357 0
M  V30 11326 C 1932.66 0.347608 7.69215 0
M  V30 11327 C 1933.39 -0.96767 7.52806 0
M  V30 11328 O 1933.6 -1.21036 6.1011 0
M  V30 11329 C 1934.79 -1.04544 8.13308 0
M  V30 11330 O 1935.18 -2.38311 8.41922 0
M  V30 11331 C 1935.67 -0.491279 7.02284 0
M  V30 11332 C 1934.96 -0.996264 5.77469 0
M  V30 11333 N 1935.01 -0.0501916 4.62973 0
M  V30 11334 H 1932.17 0.374722 8.67691 0
M  V30 11335 H 1931.9 0.443485 6.90277 0
M  V30 11336 H 1932.77 -1.75537 7.96793 0
M  V30 11337 P 1936.73 -2.75334 8.47391 0
M  V30 11338 O 1936.95 -3.84204 9.44982 0
M  V30 11339 O 1937.52 -1.51982 8.68909 0
M  V30 11340 O 1936.98 -3.29363 6.99321 0
M  V30 11341 C 1936.04 -4.24066 6.42823 0
M  V30 11342 C 1936.77 -5.20775 5.52155 0
M  V30 11343 O 1936.98 -4.56607 4.22514 0
M  V30 11344 C 1938.17 -5.62697 5.96604 0
M  V30 11345 O 1938.56 -6.87667 5.41053 0
M  V30 11346 C 1939.05 -4.52537 5.39283 0
M  V30 11347 C 1938.34 -4.20027 4.08623 0
M  V30 11348 N 1938.39 -2.76189 3.71603 0
M  V30 11349 C 1938.31 -1.66944 4.54297 0
M  V30 11350 N 1938.38 -0.536169 3.91344 0
M  V30 11351 C 1938.53 -0.901569 2.58849 0
M  V30 11352 C 1938.66 -0.146599 1.40236 0
M  V30 11353 N 1938.67 1.18234 1.37046 0
M  V30 11354 N 1938.78 -0.822941 0.249738 0
M  V30 11355 C 1938.77 -2.15179 0.280525 0
M  V30 11356 N 1938.65 -2.96414 1.30822 0
M  V30 11357 C 1938.53 -2.25804 2.44748 0
M  V30 11358 H 1935.55 -4.79756 7.24086 0
M  V30 11359 H 1935.28 -3.69963 5.84682 0
M  V30 11360 H 1936.15 -6.10431 5.41508 0
M  V30 11361 H 1938.8 -4.78816 3.28024 0
M  V30 11362 H 1939.08 -3.64957 6.05871 0
M  V30 11363 H 1940.07 -4.88748 5.21323 0
M  V30 11364 H 1938.24 -5.66789 7.0643 0
M  V30 11365 H 1938.2 -1.74684 5.62396 0
M  V30 11366 H 1938.58 1.71949 2.24394 0
M  V30 11367 H 1938.77 1.67511 0.470742 0
M  V30 11368 H 1938.88 -2.63704 -0.6828 0
M  V30 11369 P 1940.11 -7.20834 5.23717 0
M  V30 11370 O 1940.33 -8.66104 5.38572 0
M  V30 11371 O 1940.9 -6.33544 6.1349 0
M  V30 11372 O 1940.36 -6.7751 3.72168 0
M  V30 11373 C 1939.42 -7.20825 2.7076 0
M  V30 11374 C 1940.15 -7.45864 1.40599 0
M  V30 11375 O 1940.36 -6.17651 0.734225 0
M  V30 11376 C 1941.55 -8.05808 1.51899 0
M  V30 11377 O 1941.94 -8.74358 0.335205 0
M  V30 11378 C 1942.43 -6.83093 1.70294 0
M  V30 11379 C 1941.72 -5.79992 0.836974 0
M  V30 11380 N 1941.77 -4.41864 1.38293 0
M  V30 11381 C 1941.69 -3.99538 2.69438 0
M  V30 11382 N 1941.77 -2.69909 2.84277 0
M  V30 11383 C 1941.91 -2.21719 1.5408 0
M  V30 11384 C 1942.04 -0.891712 1.06628 0
M  V30 11385 O 1942.06 0.161298 1.70137 0
M  V30 11386 N 1942.16 -0.856846 -0.334985 0
M  V30 11387 C 1942.16 -1.9641 -1.15789 0
M  V30 11388 N 1942.29 -1.72708 -2.46522 0
M  V30 11389 N 1942.03 -3.21165 -0.713741 0
M  V30 11390 C 1941.91 -3.26797 0.639748 0
M  V30 11391 H 1938.93 -8.13644 3.0377 0
M  V30 11392 H 1938.66 -6.42788 2.55485 0
M  V30 11393 H 1939.53 -8.12039 0.792769 0
M  V30 11394 H 1942.18 -5.80061 -0.166416 0
M  V30 11395 H 1942.46 -6.51287 2.75604 0
M  V30 11396 H 1943.45 -7.01734 1.34462 0
M  V30 11397 H 1941.62 -8.73674 2.38337 0
M  V30 11398 H 1941.57 -4.68207 3.53221 0
M  V30 11399 H 1942.25 0.0398818 -0.767965 0
M  V30 11400 H 1942.29 -2.50995 -3.13503 0
M  V30 11401 H 1942.39 -0.759148 -2.80716 0
M  V30 11402 P 1943.49 -8.91 2.62406e-11 0
M  V30 11403 O 1943.71 -10.1726 -0.733694 0
M  V30 11404 O 1944.28 -8.73148 1.23936 0
M  V30 11405 O 1943.74 -7.66872 -0.971405 0
M  V30 11406 C 1942.8 -7.42309 -2.04641 0
M  V30 11407 C 1943.53 -6.86059 -3.24661 0
M  V30 11408 O 1943.74 -5.42847 -3.03646 0
M  V30 11409 C 1944.93 -7.41196 -3.50753 0
M  V30 11410 O 1945.32 -7.27073 -4.86816 0
M  V30 11411 C 1945.81 -6.5273 -2.63741 0
M  V30 11412 C 1945.1 -5.1842 -2.73198 0
M  V30 11413 N 1945.15 -4.38762 -1.4784 0
M  V30 11414 H 1942.31 -8.36803 -2.32493 0
M  V30 11415 H 1942.04 -6.70197 -1.71129 0
M  V30 11416 H 1942.91 -7.03551 -4.13168 0
M  V30 11417 P 1946.87 -7.20834 -5.23717 0
M  V30 11418 O 1947.09 -7.79853 -6.57286 0
M  V30 11419 O 1947.66 -7.79239 -4.12957 0
M  V30 11420 O 1947.12 -5.63315 -5.29344 0
M  V30 11421 C 1946.18 -4.80255 -6.01876 0
M  V30 11422 C 1946.91 -3.64202 -6.65911 0
M  V30 11423 O 1947.12 -2.60694 -5.64732 0
M  V30 11424 C 1948.31 -3.93473 -7.1943 0
M  V30 11425 O 1948.7 -3.02071 -8.21205 0
M  V30 11426 C 1949.19 -3.73047 -5.97036 0
M  V30 11427 C 1948.48 -2.58828 -5.25741 0
M  V30 11428 N 1948.53 -2.68068 -3.77503 0
M  V30 11429 H 1945.69 -5.40332 -6.79951 0
M  V30 11430 H 1945.42 -4.41613 -5.32378 0
M  V30 11431 H 1946.29 -3.26331 -7.47797 0
M  V30 11432 P 1950.25 -2.75334 -8.47391 0
M  V30 11433 O 1950.47 -2.44571 -9.90142 0
M  V30 11434 O 1951.04 -3.87688 -7.92115 0
M  V30 11435 O 1950.5 -1.4459 -7.59357 0
M  V30 11436 C 1949.56 -0.347608 -7.69215 0
M  V30 11437 C 1950.29 0.96767 -7.52806 0
M  V30 11438 O 1950.5 1.21036 -6.1011 0
M  V30 11439 C 1951.69 1.04544 -8.13308 0
M  V30 11440 O 1952.08 2.38311 -8.41922 0
M  V30 11441 C 1952.57 0.491279 -7.02284 0
M  V30 11442 C 1951.86 0.996264 -5.77469 0
M  V30 11443 N 1951.91 0.0501916 -4.62973 0
M  V30 11444 H 1949.07 -0.374722 -8.67691 0
M  V30 11445 H 1948.8 -0.443485 -6.90277 0
M  V30 11446 H 1949.67 1.75537 -7.96793 0
M  V30 11447 P 1953.63 2.75334 -8.47391 0
M  V30 11448 O 1953.85 3.84128 -9.44797 0
M  V30 11449 O 1954.42 1.51947 -8.68712 0
M  V30 11450 O 1953.88 3.29363 -6.99321 0
M  V30 11451 C 1952.94 4.24011 -6.4274 0
M  V30 11452 C 1953.67 5.20775 -5.52155 0
M  V30 11453 O 1953.88 4.56534 -4.22446 0
M  V30 11454 C 1955.07 5.62629 -5.96531 0
M  V30 11455 O 1955.46 6.87667 -5.41053 0
M  V30 11456 C 1955.95 4.52537 -5.39283 0
M  V30 11457 C 1955.24 4.20027 -4.08623 0
M  V30 11458 N 1955.29 2.76189 -3.71603 0
M  V30 11459 H 1952.45 4.797 -7.24003 0
M  V30 11460 H 1952.18 3.69856 -5.84513 0
M  V30 11461 H 1953.05 6.10356 -5.41441 0
M  V30 11462 P 1957.01 7.20834 -5.23717 0
M  V30 11463 O 1957.23 8.66104 -5.38572 0
M  V30 11464 O 1957.8 6.33544 -6.1349 0
M  V30 11465 O 1957.26 6.7751 -3.72168 0
M  V30 11466 C 1956.32 7.20825 -2.7076 0
M  V30 11467 C 1957.05 7.45864 -1.40599 0
M  V30 11468 O 1957.26 6.17651 -0.734225 0
M  V30 11469 C 1958.45 8.05808 -1.51899 0
M  V30 11470 O 1958.84 8.74358 -0.335205 0
M  V30 11471 C 1959.33 6.83093 -1.70294 0
M  V30 11472 C 1958.62 5.79992 -0.836974 0
M  V30 11473 N 1958.67 4.41864 -1.38293 0
M  V30 11474 H 1955.83 8.13644 -3.0377 0
M  V30 11475 H 1955.56 6.42788 -2.55485 0
M  V30 11476 H 1956.43 8.12039 -0.792769 0
M  V30 11477 P 1960.39 8.91 -2.73496e-11 0
M  V30 11478 O 1960.61 10.1726 0.733694 0
M  V30 11479 O 1961.18 8.73148 -1.23936 0
M  V30 11480 O 1960.64 7.66872 0.971405 0
M  V30 11481 C 1959.7 7.42309 2.04641 0
M  V30 11482 C 1960.43 6.86059 3.24661 0
M  V30 11483 O 1960.64 5.42847 3.03646 0
M  V30 11484 C 1961.83 7.41196 3.50753 0
M  V30 11485 O 1962.22 7.27073 4.86816 0
M  V30 11486 C 1962.71 6.5273 2.63741 0
M  V30 11487 C 1962 5.1842 2.73198 0
M  V30 11488 N 1962.05 4.38762 1.4784 0
M  V30 11489 H 1959.21 8.36803 2.32493 0
M  V30 11490 H 1958.94 6.70197 1.71129 0
M  V30 11491 H 1959.81 7.03551 4.13168 0
M  V30 11492 P 1963.77 7.20834 5.23717 0
M  V30 11493 O 1963.99 7.79853 6.57286 0
M  V30 11494 O 1964.56 7.79239 4.12957 0
M  V30 11495 O 1964.02 5.63315 5.29344 0
M  V30 11496 C 1963.08 4.80255 6.01876 0
M  V30 11497 C 1963.81 3.64202 6.65911 0
M  V30 11498 O 1964.02 2.60694 5.64732 0
M  V30 11499 C 1965.21 3.93473 7.1943 0
M  V30 11500 O 1965.6 3.02071 8.21205 0
M  V30 11501 C 1966.09 3.73047 5.97036 0
M  V30 11502 C 1965.38 2.58828 5.25741 0
M  V30 11503 N 1965.43 2.68068 3.77503 0
M  V30 11504 H 1962.59 5.40332 6.79951 0
M  V30 11505 H 1962.32 4.41613 5.32378 0
M  V30 11506 H 1963.19 3.26331 7.47797 0
M  V30 11507 P 1967.15 2.75334 8.47391 0
M  V30 11508 O 1967.37 2.44595 9.90239 0
M  V30 11509 O 1967.94 3.87732 7.92204 0
M  V30 11510 O 1967.4 1.4459 7.59357 0
M  V30 11511 C 1966.46 0.347563 7.69115 0
M  V30 11512 C 1967.19 -0.96767 7.52806 0
M  V30 11513 O 1967.4 -1.21036 6.1011 0
M  V30 11514 C 1968.59 -1.04544 8.13308 0
M  V30 11515 O 1968.98 -2.38311 8.41922 0
M  V30 11516 C 1969.47 -0.491279 7.02284 0
M  V30 11517 C 1968.76 -0.996264 5.77469 0
M  V30 11518 N 1968.81 -0.0501808 4.62873 0
M  V30 11519 C 1968.96 -0.588177 3.36904 0
M  V30 11520 O 1969.05 -1.78598 3.17173 0
M  V30 11521 N 1969 0.329694 2.33686 0
M  V30 11522 C 1968.91 1.6953 2.45079 0
M  V30 11523 O 1968.96 2.41926 1.44899 0
M  V30 11524 C 1968.76 2.16933 3.80505 0
M  V30 11525 C 1968.65 3.65373 3.97621 0
M  V30 11526 C 1968.71 1.30326 4.83752 0
M  V30 11527 H 1965.97 0.374722 8.67691 0
M  V30 11528 H 1965.7 0.443421 6.90177 0
M  V30 11529 H 1966.57 -1.75537 7.96793 0
M  V30 11530 H 1969.22 -1.94496 5.46629 0
M  V30 11531 H 1969.5 0.608651 7.04676 0
M  V30 11532 H 1970.49 -0.889672 7.08939 0
M  V30 11533 H 1968.66 -0.43308 9.04564 0
M  V30 11534 H 1968.59 1.68366 5.8516 0
M  V30 11535 H 1969.62 4.05985 4.30448 0
M  V30 11536 H 1967.88 3.88028 4.72875 0
M  V30 11537 H 1968.37 4.11381 3.01609 0
M  V30 11538 H 1969.1 -0.0393617 1.41345 0
M  V30 11539 P 1970.53 -2.75334 8.47391 0
M  V30 11540 O 1970.75 -3.84128 9.44797 0
M  V30 11541 O 1971.32 -1.51947 8.68712 0
M  V30 11542 O 1970.78 -3.29363 6.99321 0
M  V30 11543 C 1969.84 -4.24011 6.4274 0
M  V30 11544 C 1970.57 -5.20775 5.52155 0
M  V30 11545 O 1970.78 -4.56534 4.22446 0
M  V30 11546 C 1971.97 -5.62629 5.96531 0
M  V30 11547 O 1972.36 -6.87667 5.41053 0
M  V30 11548 C 1972.85 -4.52537 5.39283 0
M  V30 11549 C 1972.14 -4.20027 4.08623 0
M  V30 11550 N 1972.19 -2.76189 3.71603 0
M  V30 11551 H 1969.35 -4.797 7.24003 0
M  V30 11552 H 1969.08 -3.69856 5.84513 0
M  V30 11553 H 1969.95 -6.10356 5.41441 0
M  V30 11554 P 1973.91 -7.20834 5.23717 0
M  V30 11555 O 1974.13 -8.66104 5.38572 0
M  V30 11556 O 1974.7 -6.33544 6.1349 0
M  V30 11557 O 1974.16 -6.7751 3.72168 0
M  V30 11558 C 1973.22 -7.20825 2.7076 0
M  V30 11559 C 1973.95 -7.45864 1.40599 0
M  V30 11560 O 1974.16 -6.17651 0.734225 0
M  V30 11561 C 1975.35 -8.05808 1.51899 0
M  V30 11562 O 1975.74 -8.74358 0.335205 0
M  V30 11563 C 1976.23 -6.83093 1.70294 0
M  V30 11564 C 1975.52 -5.79992 0.836974 0
M  V30 11565 N 1975.57 -4.41864 1.38293 0
M  V30 11566 H 1972.73 -8.13644 3.0377 0
M  V30 11567 H 1972.46 -6.42788 2.55485 0
M  V30 11568 H 1973.33 -8.12039 0.792769 0
M  V30 11569 P 1977.29 -8.91 2.84586e-11 0
M  V30 11570 O 1977.51 -10.1726 -0.733694 0
M  V30 11571 O 1978.08 -8.73148 1.23936 0
M  V30 11572 O 1977.54 -7.66872 -0.971405 0
M  V30 11573 C 1976.6 -7.42309 -2.04641 0
M  V30 11574 C 1977.33 -6.86059 -3.24661 0
M  V30 11575 O 1977.54 -5.42847 -3.03646 0
M  V30 11576 C 1978.73 -7.41196 -3.50753 0
M  V30 11577 O 1979.12 -7.27073 -4.86816 0
M  V30 11578 C 1979.61 -6.5273 -2.63741 0
M  V30 11579 C 1978.9 -5.1842 -2.73198 0
M  V30 11580 N 1978.95 -4.38762 -1.4784 0
M  V30 11581 H 1976.11 -8.36803 -2.32493 0
M  V30 11582 H 1975.84 -6.70197 -1.71129 0
M  V30 11583 H 1976.71 -7.03551 -4.13168 0
M  V30 11584 P 1980.67 -7.20834 -5.23717 0
M  V30 11585 O 1980.89 -7.79853 -6.57286 0
M  V30 11586 O 1981.46 -7.79239 -4.12957 0
M  V30 11587 O 1980.92 -5.63315 -5.29344 0
M  V30 11588 C 1979.98 -4.80255 -6.01876 0
M  V30 11589 C 1980.71 -3.64202 -6.65911 0
M  V30 11590 O 1980.92 -2.60694 -5.64732 0
M  V30 11591 C 1982.11 -3.93473 -7.1943 0
M  V30 11592 O 1982.5 -3.02071 -8.21205 0
M  V30 11593 C 1982.99 -3.73047 -5.97036 0
M  V30 11594 C 1982.28 -2.58828 -5.25741 0
M  V30 11595 N 1982.33 -2.68068 -3.77503 0
M  V30 11596 H 1979.49 -5.40332 -6.79951 0
M  V30 11597 H 1979.22 -4.41613 -5.32378 0
M  V30 11598 H 1980.09 -3.26331 -7.47797 0
M  V30 11599 P 1984.05 -2.75334 -8.47391 0
M  V30 11600 O 1984.27 -2.44595 -9.90239 0
M  V30 11601 O 1984.84 -3.87732 -7.92204 0
M  V30 11602 O 1984.3 -1.4459 -7.59357 0
M  V30 11603 C 1983.36 -0.347563 -7.69115 0
M  V30 11604 C 1984.09 0.96767 -7.52806 0
M  V30 11605 O 1984.3 1.21036 -6.1011 0
M  V30 11606 C 1985.49 1.04544 -8.13308 0
M  V30 11607 O 1985.88 2.38311 -8.41922 0
M  V30 11608 C 1986.37 0.491279 -7.02284 0
M  V30 11609 C 1985.66 0.996264 -5.77469 0
M  V30 11610 N 1985.71 0.0501808 -4.62873 0
M  V30 11611 C 1985.86 0.588177 -3.36904 0
M  V30 11612 O 1985.95 1.78598 -3.17173 0
M  V30 11613 N 1985.9 -0.329694 -2.33686 0
M  V30 11614 C 1985.81 -1.6953 -2.45079 0
M  V30 11615 O 1985.86 -2.41926 -1.44899 0
M  V30 11616 C 1985.66 -2.16933 -3.80505 0
M  V30 11617 C 1985.55 -3.65373 -3.97621 0
M  V30 11618 C 1985.61 -1.30326 -4.83752 0
M  V30 11619 H 1982.87 -0.374722 -8.67691 0
M  V30 11620 H 1982.6 -0.443421 -6.90177 0
M  V30 11621 H 1983.47 1.75537 -7.96793 0
M  V30 11622 H 1986.12 1.94496 -5.46629 0
M  V30 11623 H 1986.4 -0.608651 -7.04676 0
M  V30 11624 H 1987.39 0.889672 -7.08939 0
M  V30 11625 H 1985.56 0.43308 -9.04564 0
M  V30 11626 H 1985.49 -1.68366 -5.8516 0
M  V30 11627 H 1986.52 -4.05985 -4.30448 0
M  V30 11628 H 1984.78 -3.88028 -4.72875 0
M  V30 11629 H 1985.27 -4.11381 -3.01609 0
M  V30 11630 H 1986 0.0393617 -1.41345 0
M  V30 11631 P 1987.43 2.75334 -8.47391 0
M  V30 11632 O 1987.65 3.84128 -9.44797 0
M  V30 11633 O 1988.22 1.51947 -8.68712 0
M  V30 11634 O 1987.68 3.29363 -6.99321 0
M  V30 11635 C 1986.74 4.24011 -6.4274 0
M  V30 11636 C 1987.47 5.20775 -5.52155 0
M  V30 11637 O 1987.68 4.56534 -4.22446 0
M  V30 11638 C 1988.87 5.62629 -5.96531 0
M  V30 11639 O 1989.26 6.87667 -5.41053 0
M  V30 11640 C 1989.75 4.52537 -5.39283 0
M  V30 11641 C 1989.04 4.20027 -4.08623 0
M  V30 11642 N 1989.09 2.76189 -3.71603 0
M  V30 11643 H 1986.25 4.797 -7.24003 0
M  V30 11644 H 1985.98 3.69856 -5.84513 0
M  V30 11645 H 1986.85 6.10356 -5.41441 0
M  V30 11646 P 1990.81 7.20834 -5.23717 0
M  V30 11647 O 1991.03 8.66104 -5.38572 0
M  V30 11648 O 1991.6 6.33544 -6.1349 0
M  V30 11649 O 1991.06 6.7751 -3.72168 0
M  V30 11650 C 1990.12 7.20825 -2.7076 0
M  V30 11651 C 1990.85 7.45864 -1.40599 0
M  V30 11652 O 1991.06 6.17651 -0.734225 0
M  V30 11653 C 1992.25 8.05808 -1.51899 0
M  V30 11654 O 1992.64 8.74358 -0.335205 0
M  V30 11655 C 1993.13 6.83093 -1.70294 0
M  V30 11656 C 1992.42 5.79992 -0.836974 0
M  V30 11657 N 1992.47 4.41864 -1.38293 0
M  V30 11658 H 1989.63 8.13644 -3.0377 0
M  V30 11659 H 1989.36 6.42788 -2.55485 0
M  V30 11660 H 1990.23 8.12039 -0.792769 0
M  V30 11661 P 1994.19 8.91 -2.95676e-11 0
M  V30 11662 O 1994.41 10.1726 0.733694 0
M  V30 11663 O 1994.98 8.73148 -1.23936 0
M  V30 11664 O 1994.44 7.66872 0.971405 0
M  V30 11665 C 1993.5 7.42309 2.04641 0
M  V30 11666 C 1994.23 6.86059 3.24661 0
M  V30 11667 O 1994.44 5.42847 3.03646 0
M  V30 11668 C 1995.63 7.41196 3.50753 0
M  V30 11669 O 1996.02 7.27073 4.86816 0
M  V30 11670 C 1996.51 6.5273 2.63741 0
M  V30 11671 C 1995.8 5.1842 2.73198 0
M  V30 11672 N 1995.85 4.38762 1.4784 0
M  V30 11673 H 1993.01 8.36803 2.32493 0
M  V30 11674 H 1992.74 6.70197 1.71129 0
M  V30 11675 H 1993.61 7.03551 4.13168 0
M  V30 11676 P 1997.57 7.20834 5.23717 0
M  V30 11677 O 1997.79 7.79853 6.57286 0
M  V30 11678 O 1998.36 7.79239 4.12957 0
M  V30 11679 O 1997.82 5.63315 5.29344 0
M  V30 11680 C 1996.88 4.80255 6.01876 0
M  V30 11681 C 1997.61 3.64202 6.65911 0
M  V30 11682 O 1997.82 2.60694 5.64732 0
M  V30 11683 C 1999.01 3.93473 7.1943 0
M  V30 11684 O 1999.4 3.02071 8.21205 0
M  V30 11685 C 1999.89 3.73047 5.97036 0
M  V30 11686 C 1999.18 2.58828 5.25741 0
M  V30 11687 N 1999.23 2.68068 3.77503 0
M  V30 11688 H 1996.39 5.40332 6.79951 0
M  V30 11689 H 1996.12 4.41613 5.32378 0
M  V30 11690 H 1996.99 3.26331 7.47797 0
M  V30 11691 P 2000.95 2.75334 8.47391 0
M  V30 11692 O 2001.17 2.44571 9.90142 0
M  V30 11693 O 2001.74 3.87688 7.92115 0
M  V30 11694 O 2001.2 1.4459 7.59357 0
M  V30 11695 C 2000.26 0.347608 7.69215 0
M  V30 11696 C 2000.99 -0.96767 7.52806 0
M  V30 11697 O 2001.2 -1.21036 6.1011 0
M  V30 11698 C 2002.39 -1.04544 8.13308 0
M  V30 11699 O 2002.78 -2.38311 8.41922 0
M  V30 11700 C 2003.27 -0.491279 7.02284 0
M  V30 11701 C 2002.56 -0.996264 5.77469 0
M  V30 11702 N 2002.61 -0.0501916 4.62973 0
M  V30 11703 H 1999.77 0.374722 8.67691 0
M  V30 11704 H 1999.5 0.443485 6.90277 0
M  V30 11705 H 2000.37 -1.75537 7.96793 0
M  V30 11706 P 2004.33 -2.75334 8.47391 0
M  V30 11707 O 2004.55 -3.84128 9.44797 0
M  V30 11708 O 2005.12 -1.51947 8.68712 0
M  V30 11709 O 2004.58 -3.29363 6.99321 0
M  V30 11710 C 2003.64 -4.24011 6.4274 0
M  V30 11711 C 2004.37 -5.20775 5.52155 0
M  V30 11712 O 2004.58 -4.56534 4.22446 0
M  V30 11713 C 2005.77 -5.62629 5.96531 0
M  V30 11714 O 2006.16 -6.87667 5.41053 0
M  V30 11715 C 2006.65 -4.52537 5.39283 0
M  V30 11716 C 2005.94 -4.20027 4.08623 0
M  V30 11717 N 2005.99 -2.76189 3.71603 0
M  V30 11718 H 2003.15 -4.797 7.24003 0
M  V30 11719 H 2002.88 -3.69856 5.84513 0
M  V30 11720 H 2003.75 -6.10356 5.41441 0
M  V30 11721 P 2007.71 -7.20834 5.23717 0
M  V30 11722 O 2007.93 -8.66104 5.38572 0
M  V30 11723 O 2008.5 -6.33544 6.1349 0
M  V30 11724 O 2007.96 -6.7751 3.72168 0
M  V30 11725 C 2007.02 -7.20825 2.7076 0
M  V30 11726 C 2007.75 -7.45864 1.40599 0
M  V30 11727 O 2007.96 -6.17651 0.734225 0
M  V30 11728 C 2009.15 -8.05808 1.51899 0
M  V30 11729 O 2009.54 -8.74358 0.335205 0
M  V30 11730 C 2010.03 -6.83093 1.70294 0
M  V30 11731 C 2009.32 -5.79992 0.836974 0
M  V30 11732 N 2009.37 -4.41864 1.38293 0
M  V30 11733 C 2009.29 -3.99538 2.69438 0
M  V30 11734 N 2009.37 -2.69909 2.84277 0
M  V30 11735 C 2009.51 -2.21719 1.5408 0
M  V30 11736 C 2009.64 -0.891712 1.06628 0
M  V30 11737 O 2009.66 0.161298 1.70137 0
M  V30 11738 N 2009.76 -0.856846 -0.334985 0
M  V30 11739 C 2009.76 -1.9641 -1.15789 0
M  V30 11740 N 2009.89 -1.72708 -2.46522 0
M  V30 11741 N 2009.63 -3.21165 -0.713741 0
M  V30 11742 C 2009.51 -3.26797 0.639748 0
M  V30 11743 H 2006.53 -8.13644 3.0377 0
M  V30 11744 H 2006.26 -6.42788 2.55485 0
M  V30 11745 H 2007.13 -8.12039 0.792769 0
M  V30 11746 H 2009.78 -5.80061 -0.166416 0
M  V30 11747 H 2010.06 -6.51287 2.75604 0
M  V30 11748 H 2011.05 -7.01734 1.34462 0
M  V30 11749 H 2009.22 -8.73674 2.38337 0
M  V30 11750 H 2009.17 -4.68207 3.53221 0
M  V30 11751 H 2009.85 0.0398818 -0.767965 0
M  V30 11752 H 2009.89 -2.50995 -3.13503 0
M  V30 11753 H 2009.99 -0.759148 -2.80716 0
M  V30 11754 P 2011.09 -8.91 3.06766e-11 0
M  V30 11755 O 2011.31 -10.1726 -0.733694 0
M  V30 11756 O 2011.88 -8.73148 1.23936 0
M  V30 11757 O 2011.34 -7.66872 -0.971405 0
M  V30 11758 C 2010.4 -7.42309 -2.04641 0
M  V30 11759 C 2011.13 -6.86059 -3.24661 0
M  V30 11760 O 2011.34 -5.42847 -3.03646 0
M  V30 11761 C 2012.53 -7.41196 -3.50753 0
M  V30 11762 O 2012.92 -7.27073 -4.86816 0
M  V30 11763 C 2013.41 -6.5273 -2.63741 0
M  V30 11764 C 2012.7 -5.1842 -2.73198 0
M  V30 11765 N 2012.75 -4.38762 -1.4784 0
M  V30 11766 H 2009.91 -8.36803 -2.32493 0
M  V30 11767 H 2009.64 -6.70197 -1.71129 0
M  V30 11768 H 2010.51 -7.03551 -4.13168 0
M  V30 11769 P 2014.47 -7.20834 -5.23717 0
M  V30 11770 O 2014.69 -7.79853 -6.57286 0
M  V30 11771 O 2015.26 -7.79239 -4.12957 0
M  V30 11772 O 2014.72 -5.63315 -5.29344 0
M  V30 11773 C 2013.78 -4.80255 -6.01876 0
M  V30 11774 C 2014.51 -3.64202 -6.65911 0
M  V30 11775 O 2014.72 -2.60694 -5.64732 0
M  V30 11776 C 2015.91 -3.93473 -7.1943 0
M  V30 11777 O 2016.3 -3.02071 -8.21205 0
M  V30 11778 C 2016.79 -3.73047 -5.97036 0
M  V30 11779 C 2016.08 -2.58828 -5.25741 0
M  V30 11780 N 2016.13 -2.68068 -3.77503 0
M  V30 11781 H 2013.29 -5.40332 -6.79951 0
M  V30 11782 H 2013.02 -4.41613 -5.32378 0
M  V30 11783 H 2013.89 -3.26331 -7.47797 0
M  V30 11784 P 2017.85 -2.75334 -8.47391 0
M  V30 11785 O 2018.07 -2.44571 -9.90142 0
M  V30 11786 O 2018.64 -3.87688 -7.92115 0
M  V30 11787 O 2018.1 -1.4459 -7.59357 0
M  V30 11788 C 2017.16 -0.347608 -7.69215 0
M  V30 11789 C 2017.89 0.96767 -7.52806 0
M  V30 11790 O 2018.1 1.21036 -6.1011 0
M  V30 11791 C 2019.29 1.04544 -8.13308 0
M  V30 11792 O 2019.68 2.38311 -8.41922 0
M  V30 11793 C 2020.17 0.491279 -7.02284 0
M  V30 11794 C 2019.46 0.996264 -5.77469 0
M  V30 11795 N 2019.51 0.0501916 -4.62973 0
M  V30 11796 H 2016.67 -0.374722 -8.67691 0
M  V30 11797 H 2016.4 -0.443485 -6.90277 0
M  V30 11798 H 2017.27 1.75537 -7.96793 0
M  V30 11799 P 2021.23 2.75334 -8.47391 0
M  V30 11800 O 2021.45 3.84128 -9.44797 0
M  V30 11801 O 2022.02 1.51947 -8.68712 0
M  V30 11802 O 2021.48 3.29363 -6.99321 0
M  V30 11803 C 2020.54 4.24011 -6.4274 0
M  V30 11804 C 2021.27 5.20775 -5.52155 0
M  V30 11805 O 2021.48 4.56534 -4.22446 0
M  V30 11806 C 2022.67 5.62629 -5.96531 0
M  V30 11807 O 2023.06 6.87667 -5.41053 0
M  V30 11808 C 2023.55 4.52537 -5.39283 0
M  V30 11809 C 2022.84 4.20027 -4.08623 0
M  V30 11810 N 2022.89 2.76189 -3.71603 0
M  V30 11811 H 2020.05 4.797 -7.24003 0
M  V30 11812 H 2019.78 3.69856 -5.84513 0
M  V30 11813 H 2020.65 6.10356 -5.41441 0
M  V30 11814 P 2024.61 7.20834 -5.23717 0
M  V30 11815 O 2024.83 8.66104 -5.38572 0
M  V30 11816 O 2025.4 6.33544 -6.1349 0
M  V30 11817 O 2024.86 6.7751 -3.72168 0
M  V30 11818 C 2023.92 7.20825 -2.7076 0
M  V30 11819 C 2024.65 7.45864 -1.40599 0
M  V30 11820 O 2024.86 6.17651 -0.734225 0
M  V30 11821 C 2026.05 8.05808 -1.51899 0
M  V30 11822 O 2026.44 8.74358 -0.335205 0
M  V30 11823 C 2026.93 6.83093 -1.70294 0
M  V30 11824 C 2026.22 5.79992 -0.836974 0
M  V30 11825 N 2026.27 4.41864 -1.38293 0
M  V30 11826 H 2023.43 8.13644 -3.0377 0
M  V30 11827 H 2023.16 6.42788 -2.55485 0
M  V30 11828 H 2024.03 8.12039 -0.792769 0
M  V30 11829 P 2027.99 8.91 -3.17856e-11 0
M  V30 11830 O 2028.21 10.1726 0.733694 0
M  V30 11831 O 2028.78 8.73148 -1.23936 0
M  V30 11832 O 2028.24 7.66872 0.971405 0
M  V30 11833 C 2027.3 7.42309 2.04641 0
M  V30 11834 C 2028.03 6.86059 3.24661 0
M  V30 11835 O 2028.24 5.42847 3.03646 0
M  V30 11836 C 2029.43 7.41196 3.50753 0
M  V30 11837 O 2029.82 7.27073 4.86816 0
M  V30 11838 C 2030.31 6.5273 2.63741 0
M  V30 11839 C 2029.6 5.1842 2.73198 0
M  V30 11840 N 2029.65 4.38762 1.4784 0
M  V30 11841 H 2026.81 8.36803 2.32493 0
M  V30 11842 H 2026.54 6.70197 1.71129 0
M  V30 11843 H 2027.41 7.03551 4.13168 0
M  V30 11844 P 2031.37 7.20834 5.23717 0
M  V30 11845 O 2031.59 7.7993 6.57351 0
M  V30 11846 O 2032.16 7.79328 4.13004 0
M  V30 11847 O 2031.62 5.63315 5.29344 0
M  V30 11848 C 2030.68 4.80193 6.01798 0
M  V30 11849 C 2031.41 3.64202 6.65911 0
M  V30 11850 O 2031.62 2.60694 5.64732 0
M  V30 11851 C 2032.81 3.93473 7.1943 0
M  V30 11852 O 2033.2 3.02071 8.21205 0
M  V30 11853 C 2033.69 3.73047 5.97036 0
M  V30 11854 C 2032.98 2.58828 5.25741 0
M  V30 11855 N 2033.03 2.6801 3.77422 0
M  V30 11856 C 2033.18 1.50443 3.07133 0
M  V30 11857 O 2033.27 0.419406 3.61576 0
M  V30 11858 N 2033.22 1.6403 1.69677 0
M  V30 11859 C 2033.13 2.81206 0.986255 0
M  V30 11860 O 2033.18 2.80892 -0.249754 0
M  V30 11861 C 2032.98 3.99158 1.80325 0
M  V30 11862 C 2032.87 5.29309 1.06921 0
M  V30 11863 C 2032.93 3.89779 3.1476 0
M  V30 11864 H 2030.19 5.40332 6.79951 0
M  V30 11865 H 2029.92 4.41549 5.32301 0
M  V30 11866 H 2030.79 3.26331 7.47797 0
M  V30 11867 H 2033.44 1.6395 5.56554 0
M  V30 11868 H 2033.72 4.63439 5.3432 0
M  V30 11869 H 2034.71 3.44728 6.25838 0
M  V30 11870 H 2032.88 4.96652 7.57263 0
M  V30 11871 H 2032.81 4.80159 3.74441 0
M  V30 11872 H 2033.84 5.81459 1.09608 0
M  V30 11873 H 2032.1 5.9187 1.54487 0
M  V30 11874 H 2032.59 5.10095 0.0220288 0
M  V30 11875 H 2033.32 0.798962 1.16664 0
M  V30 11876 P 2034.75 2.75334 8.47391 0
M  V30 11877 O 2034.97 2.44571 9.90142 0
M  V30 11878 O 2035.54 3.87688 7.92115 0
M  V30 11879 O 2035 1.4459 7.59357 0
M  V30 11880 C 2034.06 0.347608 7.69215 0
M  V30 11881 C 2034.79 -0.96767 7.52806 0
M  V30 11882 O 2035 -1.21036 6.1011 0
M  V30 11883 C 2036.19 -1.04544 8.13308 0
M  V30 11884 O 2036.58 -2.38311 8.41922 0
M  V30 11885 C 2037.07 -0.491279 7.02284 0
M  V30 11886 C 2036.36 -0.996264 5.77469 0
M  V30 11887 N 2036.41 -0.0501916 4.62973 0
M  V30 11888 H 2033.57 0.374722 8.67691 0
M  V30 11889 H 2033.3 0.443485 6.90277 0
M  V30 11890 H 2034.17 -1.75537 7.96793 0
M  V30 11891 P 2038.13 -2.75334 8.47391 0
M  V30 11892 O 2038.35 -3.84128 9.44797 0
M  V30 11893 O 2038.92 -1.51947 8.68712 0
M  V30 11894 O 2038.38 -3.29363 6.99321 0
M  V30 11895 C 2037.44 -4.24011 6.4274 0
M  V30 11896 C 2038.17 -5.20775 5.52155 0
M  V30 11897 O 2038.38 -4.56534 4.22446 0
M  V30 11898 C 2039.57 -5.62629 5.96531 0
M  V30 11899 O 2039.96 -6.87667 5.41053 0
M  V30 11900 C 2040.45 -4.52537 5.39283 0
M  V30 11901 C 2039.74 -4.20027 4.08623 0
M  V30 11902 N 2039.79 -2.76189 3.71603 0
M  V30 11903 C 2039.71 -1.64862 4.52822 0
M  V30 11904 N 2039.79 -0.512671 3.88633 0
M  V30 11905 C 2039.93 -0.888083 2.54977 0
M  V30 11906 C 2040.06 -0.094668 1.38677 0
M  V30 11907 O 2040.08 1.13053 1.28163 0
M  V30 11908 N 2040.18 -0.890102 0.232633 0
M  V30 11909 C 2040.18 -2.26958 0.21772 0
M  V30 11910 N 2040.31 -2.84626 -0.97925 0
M  V30 11911 N 2040.05 -3.0178 1.31033 0
M  V30 11912 C 2039.93 -2.26781 2.43843 0
M  V30 11913 H 2036.95 -4.797 7.24003 0
M  V30 11914 H 2036.68 -3.69856 5.84513 0
M  V30 11915 H 2037.55 -6.10356 5.41441 0
M  V30 11916 H 2040.2 -4.79061 3.27488 0
M  V30 11917 H 2040.48 -3.64906 6.05785 0
M  V30 11918 H 2041.47 -4.8868 5.2125 0
M  V30 11919 H 2039.64 -5.66726 7.06352 0
M  V30 11920 H 2039.59 -1.71169 5.60966 0
M  V30 11921 H 2040.27 -0.419134 -0.644739 0
M  V30 11922 H 2040.31 -3.87332 -1.06098 0
M  V30 11923 H 2040.41 -2.26417 -1.82483 0
M  V30 11924 P 2041.51 -7.20834 5.23717 0
M  V30 11925 O 2041.73 -8.66104 5.38572 0
M  V30 11926 O 2042.3 -6.33544 6.1349 0
M  V30 11927 O 2041.76 -6.7751 3.72168 0
M  V30 11928 C 2040.82 -7.20825 2.7076 0
M  V30 11929 C 2041.55 -7.45864 1.40599 0
M  V30 11930 O 2041.76 -6.17651 0.734225 0
M  V30 11931 C 2042.95 -8.05808 1.51899 0
M  V30 11932 O 2043.34 -8.74358 0.335205 0
M  V30 11933 C 2043.83 -6.83093 1.70294 0
M  V30 11934 C 2043.12 -5.79992 0.836974 0
M  V30 11935 N 2043.17 -4.41864 1.38293 0
M  V30 11936 C 2043.09 -3.99538 2.69438 0
M  V30 11937 N 2043.17 -2.69909 2.84277 0
M  V30 11938 C 2043.31 -2.21719 1.5408 0
M  V30 11939 C 2043.44 -0.891712 1.06628 0
M  V30 11940 O 2043.46 0.161298 1.70137 0
M  V30 11941 N 2043.56 -0.856846 -0.334985 0
M  V30 11942 C 2043.56 -1.9641 -1.15789 0
M  V30 11943 N 2043.69 -1.72708 -2.46522 0
M  V30 11944 N 2043.43 -3.21165 -0.713741 0
M  V30 11945 C 2043.31 -3.26797 0.639748 0
M  V30 11946 H 2040.33 -8.13644 3.0377 0
M  V30 11947 H 2040.06 -6.42788 2.55485 0
M  V30 11948 H 2040.93 -8.12039 0.792769 0
M  V30 11949 H 2043.58 -5.80061 -0.166416 0
M  V30 11950 H 2043.86 -6.51287 2.75604 0
M  V30 11951 H 2044.85 -7.01734 1.34462 0
M  V30 11952 H 2043.02 -8.73674 2.38337 0
M  V30 11953 H 2042.97 -4.68207 3.53221 0
M  V30 11954 H 2043.65 0.0398818 -0.767965 0
M  V30 11955 H 2043.69 -2.50995 -3.13503 0
M  V30 11956 H 2043.79 -0.759148 -2.80716 0
M  V30 11957 P 2044.89 -8.91 3.28946e-11 0
M  V30 11958 O 2045.11 -10.1746 -0.733838 0
M  V30 11959 O 2045.68 -8.73346 1.23964 0
M  V30 11960 O 2045.14 -7.66872 -0.971405 0
M  V30 11961 C 2044.2 -7.42405 -2.04668 0
M  V30 11962 C 2044.93 -6.86059 -3.24661 0
M  V30 11963 O 2045.14 -5.42934 -3.03695 0
M  V30 11964 C 2046.33 -7.41287 -3.50796 0
M  V30 11965 O 2046.72 -7.27073 -4.86816 0
M  V30 11966 C 2047.21 -6.5273 -2.63741 0
M  V30 11967 C 2046.5 -5.1842 -2.73198 0
M  V30 11968 N 2046.55 -4.38762 -1.4784 0
M  V30 11969 C 2046.47 -4.83651 -0.183876 0
M  V30 11970 N 2046.54 -3.88759 0.699393 0
M  V30 11971 C 2046.69 -2.7404 -0.0575568 0
M  V30 11972 C 2046.82 -1.37902 0.293928 0
M  V30 11973 N 2046.83 -0.938021 1.54797 0
M  V30 11974 N 2046.94 -0.491817 -0.70549 0
M  V30 11975 C 2046.93 -0.931735 -1.95979 0
M  V30 11976 N 2046.81 -2.16017 -2.41481 0
M  V30 11977 C 2046.69 -3.02547 -1.39121 0
M  V30 11978 H 2043.71 -8.36899 -2.3252 0
M  V30 11979 H 2043.44 -6.70391 -1.71179 0
M  V30 11980 H 2044.31 -7.03638 -4.13219 0
M  V30 11981 H 2046.96 -4.59931 -3.54016 0
M  V30 11982 H 2047.24 -6.88995 -1.59871 0
M  V30 11983 H 2048.23 -6.4684 -3.0373 0
M  V30 11984 H 2046.4 -8.47002 -3.20749 0
M  V30 11985 H 2046.36 -5.8885 0.0765548 0
M  V30 11986 H 2046.74 -1.60276 2.32875 0
M  V30 11987 H 2046.93 0.0699355 1.73859 0
M  V30 11988 H 2047.03 -0.165507 -2.71897 0
M  V30 11989 P 2048.27 -7.20834 -5.23717 0
M  V30 11990 O 2048.49 -7.79853 -6.57286 0
M  V30 11991 O 2049.06 -7.79239 -4.12957 0
M  V30 11992 O 2048.52 -5.63315 -5.29344 0
M  V30 11993 C 2047.58 -4.80255 -6.01876 0
M  V30 11994 C 2048.31 -3.64202 -6.65911 0
M  V30 11995 O 2048.52 -2.60694 -5.64732 0
M  V30 11996 C 2049.71 -3.93473 -7.1943 0
M  V30 11997 O 2050.1 -3.02071 -8.21205 0
M  V30 11998 C 2050.59 -3.73047 -5.97036 0
M  V30 11999 C 2049.88 -2.58828 -5.25741 0
M  V30 12000 N 2049.93 -2.68068 -3.77503 0
M  V30 12001 H 2047.09 -5.40332 -6.79951 0
M  V30 12002 H 2046.82 -4.41613 -5.32378 0
M  V30 12003 H 2047.69 -3.26331 -7.47797 0
M  V30 12004 P 2051.65 -2.75334 -8.47391 0
M  V30 12005 O 2051.87 -2.44571 -9.90142 0
M  V30 12006 O 2052.44 -3.87688 -7.92115 0
M  V30 12007 O 2051.9 -1.4459 -7.59357 0
M  V30 12008 C 2050.96 -0.347608 -7.69215 0
M  V30 12009 C 2051.69 0.96767 -7.52806 0
M  V30 12010 O 2051.9 1.21036 -6.1011 0
M  V30 12011 C 2053.09 1.04544 -8.13308 0
M  V30 12012 O 2053.48 2.38311 -8.41922 0
M  V30 12013 C 2053.97 0.491279 -7.02284 0
M  V30 12014 C 2053.26 0.996264 -5.77469 0
M  V30 12015 N 2053.31 0.0501916 -4.62973 0
M  V30 12016 H 2050.47 -0.374722 -8.67691 0
M  V30 12017 H 2050.2 -0.443485 -6.90277 0
M  V30 12018 H 2051.07 1.75537 -7.96793 0
M  V30 12019 P 2055.03 2.75334 -8.47391 0
M  V30 12020 O 2055.25 3.84166 -9.4489 0
M  V30 12021 O 2055.82 1.51964 -8.6881 0
M  V30 12022 O 2055.28 3.29363 -6.99321 0
M  V30 12023 C 2054.34 4.23956 -6.42656 0
M  V30 12024 C 2055.07 5.20775 -5.52155 0
M  V30 12025 O 2055.28 4.56534 -4.22446 0
M  V30 12026 C 2056.47 5.62629 -5.96531 0
M  V30 12027 O 2056.86 6.87667 -5.41053 0
M  V30 12028 C 2057.35 4.52537 -5.39283 0
M  V30 12029 C 2056.64 4.20027 -4.08623 0
M  V30 12030 N 2056.69 2.7613 -3.71522 0
M  V30 12031 C 2056.84 2.45612 -2.37989 0
M  V30 12032 O 2056.93 3.30919 -1.51621 0
M  V30 12033 N 2056.88 1.10684 -2.08435 0
M  V30 12034 C 2056.79 0.0690084 -2.9792 0
M  V30 12035 O 2056.84 -1.10553 -2.59426 0
M  V30 12036 C 2056.64 0.481522 -4.35345 0
M  V30 12037 C 2056.53 -0.618778 -5.36443 0
M  V30 12038 C 2056.59 1.78906 -4.67968 0
M  V30 12039 H 2053.85 4.797 -7.24003 0
M  V30 12040 H 2053.58 3.69802 -5.84429 0
M  V30 12041 H 2054.45 6.10356 -5.41441 0
M  V30 12042 H 2057.1 4.78651 -3.27911 0
M  V30 12043 H 2057.38 3.64957 -6.05871 0
M  V30 12044 H 2058.37 4.8868 -5.2125 0
M  V30 12045 H 2056.54 5.66726 -7.06352 0
M  V30 12046 H 2056.47 2.07737 -5.72367 0
M  V30 12047 H 2057.5 -0.754375 -5.86871 0
M  V30 12048 H 2055.76 -0.359721 -6.10641 0
M  V30 12049 H 2056.25 -1.55533 -4.8581 0
M  V30 12050 H 2056.98 0.862651 -1.12037 0
M  V30 12051 P 2058.41 7.20834 -5.23717 0
M  V30 12052 O 2058.63 8.66104 -5.38572 0
M  V30 12053 O 2059.2 6.33544 -6.1349 0
M  V30 12054 O 2058.66 6.7751 -3.72168 0
M  V30 12055 C 2057.72 7.20825 -2.7076 0
M  V30 12056 C 2058.45 7.45864 -1.40599 0
M  V30 12057 O 2058.66 6.17651 -0.734225 0
M  V30 12058 C 2059.85 8.05808 -1.51899 0
M  V30 12059 O 2060.24 8.74358 -0.335205 0
M  V30 12060 C 2060.73 6.83093 -1.70294 0
M  V30 12061 C 2060.02 5.79992 -0.836974 0
M  V30 12062 N 2060.07 4.41864 -1.38293 0
M  V30 12063 H 2057.23 8.13644 -3.0377 0
M  V30 12064 H 2056.96 6.42788 -2.55485 0
M  V30 12065 H 2057.83 8.12039 -0.792769 0
M  V30 12066 P 2061.79 8.91 -3.40036e-11 0
M  V30 12067 O 2062.01 10.1726 0.733694 0
M  V30 12068 O 2062.58 8.73148 -1.23936 0
M  V30 12069 O 2062.04 7.66872 0.971405 0
M  V30 12070 C 2061.1 7.42309 2.04641 0
M  V30 12071 C 2061.83 6.86059 3.24661 0
M  V30 12072 O 2062.04 5.42847 3.03646 0
M  V30 12073 C 2063.23 7.41196 3.50753 0
M  V30 12074 O 2063.62 7.27073 4.86816 0
M  V30 12075 C 2064.11 6.5273 2.63741 0
M  V30 12076 C 2063.4 5.1842 2.73198 0
M  V30 12077 N 2063.45 4.38762 1.4784 0
M  V30 12078 H 2060.61 8.36803 2.32493 0
M  V30 12079 H 2060.34 6.70197 1.71129 0
M  V30 12080 H 2061.21 7.03551 4.13168 0
M  V30 12081 P 2065.17 7.20834 5.23717 0
M  V30 12082 O 2065.39 7.79853 6.57286 0
M  V30 12083 O 2065.96 7.79239 4.12957 0
M  V30 12084 O 2065.42 5.63315 5.29344 0
M  V30 12085 C 2064.48 4.80255 6.01876 0
M  V30 12086 C 2065.21 3.64202 6.65911 0
M  V30 12087 O 2065.42 2.60694 5.64732 0
M  V30 12088 C 2066.61 3.93473 7.1943 0
M  V30 12089 O 2067 3.02071 8.21205 0
M  V30 12090 C 2067.49 3.73047 5.97036 0
M  V30 12091 C 2066.78 2.58828 5.25741 0
M  V30 12092 N 2066.83 2.68068 3.77503 0
M  V30 12093 H 2063.99 5.40332 6.79951 0
M  V30 12094 H 2063.72 4.41613 5.32378 0
M  V30 12095 H 2064.59 3.26331 7.47797 0
M  V30 12096 P 2068.55 2.75334 8.47391 0
M  V30 12097 O 2068.77 2.44571 9.90142 0
M  V30 12098 O 2069.34 3.87688 7.92115 0
M  V30 12099 O 2068.8 1.4459 7.59357 0
M  V30 12100 C 2067.86 0.347608 7.69215 0
M  V30 12101 C 2068.59 -0.96767 7.52806 0
M  V30 12102 O 2068.8 -1.21036 6.1011 0
M  V30 12103 C 2069.99 -1.04544 8.13308 0
M  V30 12104 O 2070.38 -2.38311 8.41922 0
M  V30 12105 C 2070.87 -0.491279 7.02284 0
M  V30 12106 C 2070.16 -0.996264 5.77469 0
M  V30 12107 N 2070.21 -0.0501916 4.62973 0
M  V30 12108 H 2067.37 0.374722 8.67691 0
M  V30 12109 H 2067.1 0.443485 6.90277 0
M  V30 12110 H 2067.97 -1.75537 7.96793 0
M  V30 12111 P 2071.93 -2.75334 8.47391 0
M  V30 12112 O 2072.15 -3.84128 9.44797 0
M  V30 12113 O 2072.72 -1.51947 8.68712 0
M  V30 12114 O 2072.18 -3.29363 6.99321 0
M  V30 12115 C 2071.24 -4.24011 6.4274 0
M  V30 12116 C 2071.97 -5.20775 5.52155 0
M  V30 12117 O 2072.18 -4.56534 4.22446 0
M  V30 12118 C 2073.37 -5.62629 5.96531 0
M  V30 12119 O 2073.76 -6.87667 5.41053 0
M  V30 12120 C 2074.25 -4.52537 5.39283 0
M  V30 12121 C 2073.54 -4.20027 4.08623 0
M  V30 12122 N 2073.59 -2.76189 3.71603 0
M  V30 12123 H 2070.75 -4.797 7.24003 0
M  V30 12124 H 2070.48 -3.69856 5.84513 0
M  V30 12125 H 2071.35 -6.10356 5.41441 0
M  V30 12126 P 2075.31 -7.20834 5.23717 0
M  V30 12127 O 2075.53 -8.66104 5.38572 0
M  V30 12128 O 2076.1 -6.33544 6.1349 0
M  V30 12129 O 2075.56 -6.7751 3.72168 0
M  V30 12130 C 2074.62 -7.20825 2.7076 0
M  V30 12131 C 2075.35 -7.45864 1.40599 0
M  V30 12132 O 2075.56 -6.17651 0.734225 0
M  V30 12133 C 2076.75 -8.05808 1.51899 0
M  V30 12134 O 2077.14 -8.74358 0.335205 0
M  V30 12135 C 2077.63 -6.83093 1.70294 0
M  V30 12136 C 2076.92 -5.79992 0.836974 0
M  V30 12137 N 2076.97 -4.41864 1.38293 0
M  V30 12138 H 2074.13 -8.13644 3.0377 0
M  V30 12139 H 2073.86 -6.42788 2.55485 0
M  V30 12140 H 2074.73 -8.12039 0.792769 0
M  V30 12141 P 2078.69 -8.91 3.51126e-11 0
M  V30 12142 O 2078.91 -10.1726 -0.733694 0
M  V30 12143 O 2079.48 -8.73148 1.23936 0
M  V30 12144 O 2078.94 -7.66872 -0.971405 0
M  V30 12145 C 2078 -7.42309 -2.04641 0
M  V30 12146 C 2078.73 -6.86059 -3.24661 0
M  V30 12147 O 2078.94 -5.42847 -3.03646 0
M  V30 12148 C 2080.13 -7.41196 -3.50753 0
M  V30 12149 O 2080.52 -7.27073 -4.86816 0
M  V30 12150 C 2081.01 -6.5273 -2.63741 0
M  V30 12151 C 2080.3 -5.1842 -2.73198 0
M  V30 12152 N 2080.35 -4.38762 -1.4784 0
M  V30 12153 H 2077.51 -8.36803 -2.32493 0
M  V30 12154 H 2077.24 -6.70197 -1.71129 0
M  V30 12155 H 2078.11 -7.03551 -4.13168 0
M  V30 12156 P 2082.07 -7.20834 -5.23717 0
M  V30 12157 O 2082.29 -7.79853 -6.57286 0
M  V30 12158 O 2082.86 -7.79239 -4.12957 0
M  V30 12159 O 2082.32 -5.63315 -5.29344 0
M  V30 12160 C 2081.38 -4.80255 -6.01876 0
M  V30 12161 C 2082.11 -3.64202 -6.65911 0
M  V30 12162 O 2082.32 -2.60694 -5.64732 0
M  V30 12163 C 2083.51 -3.93473 -7.1943 0
M  V30 12164 O 2083.9 -3.02071 -8.21205 0
M  V30 12165 C 2084.39 -3.73047 -5.97036 0
M  V30 12166 C 2083.68 -2.58828 -5.25741 0
M  V30 12167 N 2083.73 -2.68068 -3.77503 0
M  V30 12168 H 2080.89 -5.40332 -6.79951 0
M  V30 12169 H 2080.62 -4.41613 -5.32378 0
M  V30 12170 H 2081.49 -3.26331 -7.47797 0
M  V30 12171 P 2085.45 -2.75334 -8.47391 0
M  V30 12172 O 2085.67 -2.44619 -9.90336 0
M  V30 12173 O 2086.24 -3.87776 -7.92294 0
M  V30 12174 O 2085.7 -1.4459 -7.59357 0
M  V30 12175 C 2084.76 -0.347653 -7.69315 0
M  V30 12176 C 2085.49 0.96767 -7.52806 0
M  V30 12177 O 2085.7 1.21055 -6.10208 0
M  V30 12178 C 2086.89 1.04557 -8.13408 0
M  V30 12179 O 2087.28 2.38311 -8.41922 0
M  V30 12180 C 2087.77 0.491279 -7.02284 0
M  V30 12181 C 2087.06 0.996264 -5.77469 0
M  V30 12182 N 2087.11 0.0501916 -4.62973 0
M  V30 12183 C 2087.03 -1.31969 -4.65661 0
M  V30 12184 N 2087.1 -1.86649 -3.48119 0
M  V30 12185 C 2087.25 -0.792089 -2.62406 0
M  V30 12186 C 2087.38 -0.705684 -1.2207 0
M  V30 12187 N 2087.39 -1.76207 -0.413762 0
M  V30 12188 N 2087.5 0.518981 -0.685754 0
M  V30 12189 C 2087.49 1.57595 -1.49174 0
M  V30 12190 N 2087.37 1.62909 -2.80066 0
M  V30 12191 C 2087.25 0.388195 -3.3073 0
M  V30 12192 H 2084.27 -0.374765 -8.67791 0
M  V30 12193 H 2084 -0.443613 -6.90476 0
M  V30 12194 H 2084.87 1.75559 -7.96891 0
M  V30 12195 H 2087.52 1.94563 -5.46818 0
M  V30 12196 H 2087.8 -0.608651 -7.04676 0
M  V30 12197 H 2088.79 0.889796 -7.09039 0
M  V30 12198 H 2086.96 0.433128 -9.04664 0
M  V30 12199 H 2086.92 -1.89246 -5.57664 0
M  V30 12200 H 2087.3 -2.71005 -0.804694 0
M  V30 12201 H 2087.49 -1.63189 0.603768 0
M  V30 12202 H 2087.59 2.53475 -0.997614 0
M  V30 12203 P 2088.83 2.75334 -8.47391 0
M  V30 12204 O 2089.05 3.84128 -9.44797 0
M  V30 12205 O 2089.62 1.51947 -8.68712 0
M  V30 12206 O 2089.08 3.29363 -6.99321 0
M  V30 12207 C 2088.14 4.24011 -6.4274 0
M  V30 12208 C 2088.87 5.20775 -5.52155 0
M  V30 12209 O 2089.08 4.56534 -4.22446 0
M  V30 12210 C 2090.27 5.62629 -5.96531 0
M  V30 12211 O 2090.66 6.87667 -5.41053 0
M  V30 12212 C 2091.15 4.52537 -5.39283 0
M  V30 12213 C 2090.44 4.20027 -4.08623 0
M  V30 12214 N 2090.49 2.76189 -3.71603 0
M  V30 12215 H 2087.65 4.797 -7.24003 0
M  V30 12216 H 2087.38 3.69856 -5.84513 0
M  V30 12217 H 2088.25 6.10356 -5.41441 0
M  V30 12218 P 2092.21 7.20834 -5.23717 0
M  V30 12219 O 2092.43 8.66104 -5.38572 0
M  V30 12220 O 2093 6.33544 -6.1349 0
M  V30 12221 O 2092.46 6.7751 -3.72168 0
M  V30 12222 C 2091.52 7.20825 -2.7076 0
M  V30 12223 C 2092.25 7.45864 -1.40599 0
M  V30 12224 O 2092.46 6.17651 -0.734225 0
M  V30 12225 C 2093.65 8.05808 -1.51899 0
M  V30 12226 O 2094.04 8.74358 -0.335205 0
M  V30 12227 C 2094.53 6.83093 -1.70294 0
M  V30 12228 C 2093.82 5.79992 -0.836974 0
M  V30 12229 N 2093.87 4.41864 -1.38293 0
M  V30 12230 H 2091.03 8.13644 -3.0377 0
M  V30 12231 H 2090.76 6.42788 -2.55485 0
M  V30 12232 H 2091.63 8.12039 -0.792769 0
M  V30 12233 P 2095.59 8.91 -3.62216e-11 0
M  V30 12234 O 2095.81 10.1736 0.733766 0
M  V30 12235 O 2096.38 8.73247 -1.2395 0
M  V30 12236 O 2095.84 7.66872 0.971405 0
M  V30 12237 C 2094.9 7.42212 2.04614 0
M  V30 12238 C 2095.63 6.86059 3.24661 0
M  V30 12239 O 2095.84 5.42847 3.03646 0
M  V30 12240 C 2097.03 7.41196 3.50753 0
M  V30 12241 O 2097.42 7.27073 4.86816 0
M  V30 12242 C 2097.91 6.5273 2.63741 0
M  V30 12243 C 2097.2 5.1842 2.73198 0
M  V30 12244 N 2097.25 4.38668 1.47808 0
M  V30 12245 C 2097.4 3.02239 1.60048 0
M  V30 12246 O 2097.49 2.46459 2.67869 0
M  V30 12247 N 2097.44 2.32436 0.408571 0
M  V30 12248 C 2097.35 2.85471 -0.854993 0
M  V30 12249 C 2097.2 4.28918 -0.887335 0
M  V30 12250 C 2097.15 5.00349 0.255399 0
M  V30 12251 H 2094.41 8.36803 2.32493 0
M  V30 12252 H 2094.14 6.701 1.71105 0
M  V30 12253 H 2095.01 7.03551 4.13168 0
M  V30 12254 H 2097.66 4.59773 3.53894 0
M  V30 12255 H 2097.94 6.88995 1.59871 0
M  V30 12256 H 2098.93 6.46749 3.03687 0
M  V30 12257 H 2097.1 8.46908 3.20714 0
M  V30 12258 H 2097.03 6.08548 0.206986 0
M  V30 12259 P 2098.97 7.20834 5.23717 0
M  V30 12260 O 2099.19 7.79853 6.57286 0
M  V30 12261 O 2099.76 7.79239 4.12957 0
M  V30 12262 O 2099.22 5.63315 5.29344 0
M  V30 12263 C 2098.28 4.80255 6.01876 0
M  V30 12264 C 2099.01 3.64202 6.65911 0
M  V30 12265 O 2099.22 2.60694 5.64732 0
M  V30 12266 C 2100.41 3.93473 7.1943 0
M  V30 12267 O 2100.8 3.02071 8.21205 0
M  V30 12268 C 2101.29 3.73047 5.97036 0
M  V30 12269 C 2100.58 2.58828 5.25741 0
M  V30 12270 N 2100.63 2.68068 3.77503 0
M  V30 12271 H 2097.79 5.40332 6.79951 0
M  V30 12272 H 2097.52 4.41613 5.32378 0
M  V30 12273 H 2098.39 3.26331 7.47797 0
M  V30 12274 P 2102.35 2.75334 8.47391 0
M  V30 12275 O 2102.57 2.44571 9.90142 0
M  V30 12276 O 2103.14 3.87688 7.92115 0
M  V30 12277 O 2102.6 1.4459 7.59357 0
M  V30 12278 C 2101.66 0.347608 7.69215 0
M  V30 12279 C 2102.39 -0.96767 7.52806 0
M  V30 12280 O 2102.6 -1.21036 6.1011 0
M  V30 12281 C 2103.79 -1.04544 8.13308 0
M  V30 12282 O 2104.18 -2.38311 8.41922 0
M  V30 12283 C 2104.67 -0.491279 7.02284 0
M  V30 12284 C 2103.96 -0.996264 5.77469 0
M  V30 12285 N 2104.01 -0.0501916 4.62973 0
M  V30 12286 H 2101.17 0.374722 8.67691 0
M  V30 12287 H 2100.9 0.443485 6.90277 0
M  V30 12288 H 2101.77 -1.75537 7.96793 0
M  V30 12289 P 2105.73 -2.75334 8.47391 0
M  V30 12290 O 2105.95 -3.84128 9.44797 0
M  V30 12291 O 2106.52 -1.51947 8.68712 0
M  V30 12292 O 2105.98 -3.29363 6.99321 0
M  V30 12293 C 2105.04 -4.24011 6.4274 0
M  V30 12294 C 2105.77 -5.20775 5.52155 0
M  V30 12295 O 2105.98 -4.56534 4.22446 0
M  V30 12296 C 2107.17 -5.62629 5.96531 0
M  V30 12297 O 2107.56 -6.87667 5.41053 0
M  V30 12298 C 2108.05 -4.52537 5.39283 0
M  V30 12299 C 2107.34 -4.20027 4.08623 0
M  V30 12300 N 2107.39 -2.76189 3.71603 0
M  V30 12301 H 2104.55 -4.797 7.24003 0
M  V30 12302 H 2104.28 -3.69856 5.84513 0
M  V30 12303 H 2105.15 -6.10356 5.41441 0
M  V30 12304 P 2109.11 -7.20834 5.23717 0
M  V30 12305 O 2109.33 -8.66104 5.38572 0
M  V30 12306 O 2109.9 -6.33544 6.1349 0
M  V30 12307 O 2109.36 -6.7751 3.72168 0
M  V30 12308 C 2108.42 -7.20825 2.7076 0
M  V30 12309 C 2109.15 -7.45864 1.40599 0
M  V30 12310 O 2109.36 -6.17651 0.734225 0
M  V30 12311 C 2110.55 -8.05808 1.51899 0
M  V30 12312 O 2110.94 -8.74358 0.335205 0
M  V30 12313 C 2111.43 -6.83093 1.70294 0
M  V30 12314 C 2110.72 -5.79992 0.836974 0
M  V30 12315 N 2110.77 -4.41864 1.38293 0
M  V30 12316 H 2107.93 -8.13644 3.0377 0
M  V30 12317 H 2107.66 -6.42788 2.55485 0
M  V30 12318 H 2108.53 -8.12039 0.792769 0
M  V30 12319 P 2112.49 -8.91 3.73306e-11 0
M  V30 12320 O 2112.71 -10.1726 -0.733694 0
M  V30 12321 O 2113.28 -8.73148 1.23936 0
M  V30 12322 O 2112.74 -7.66872 -0.971405 0
M  V30 12323 C 2111.8 -7.42309 -2.04641 0
M  V30 12324 C 2112.53 -6.86059 -3.24661 0
M  V30 12325 O 2112.74 -5.42847 -3.03646 0
M  V30 12326 C 2113.93 -7.41196 -3.50753 0
M  V30 12327 O 2114.32 -7.27073 -4.86816 0
M  V30 12328 C 2114.81 -6.5273 -2.63741 0
M  V30 12329 C 2114.1 -5.1842 -2.73198 0
M  V30 12330 N 2114.15 -4.38762 -1.4784 0
M  V30 12331 H 2111.31 -8.36803 -2.32493 0
M  V30 12332 H 2111.04 -6.70197 -1.71129 0
M  V30 12333 H 2111.91 -7.03551 -4.13168 0
M  V30 12334 P 2115.87 -7.20834 -5.23717 0
M  V30 12335 O 2116.09 -7.79853 -6.57286 0
M  V30 12336 O 2116.66 -7.79239 -4.12957 0
M  V30 12337 O 2116.12 -5.63315 -5.29344 0
M  V30 12338 C 2115.18 -4.80255 -6.01876 0
M  V30 12339 C 2115.91 -3.64202 -6.65911 0
M  V30 12340 O 2116.12 -2.60694 -5.64732 0
M  V30 12341 C 2117.31 -3.93473 -7.1943 0
M  V30 12342 O 2117.7 -3.02071 -8.21205 0
M  V30 12343 C 2118.19 -3.73047 -5.97036 0
M  V30 12344 C 2117.48 -2.58828 -5.25741 0
M  V30 12345 N 2117.53 -2.68068 -3.77503 0
M  V30 12346 H 2114.69 -5.40332 -6.79951 0
M  V30 12347 H 2114.42 -4.41613 -5.32378 0
M  V30 12348 H 2115.29 -3.26331 -7.47797 0
M  V30 12349 P 2119.25 -2.75334 -8.47391 0
M  V30 12350 O 2119.47 -2.44571 -9.90142 0
M  V30 12351 O 2120.04 -3.87688 -7.92115 0
M  V30 12352 O 2119.5 -1.4459 -7.59357 0
M  V30 12353 C 2118.56 -0.347608 -7.69215 0
M  V30 12354 C 2119.29 0.96767 -7.52806 0
M  V30 12355 O 2119.5 1.21036 -6.1011 0
M  V30 12356 C 2120.69 1.04544 -8.13308 0
M  V30 12357 O 2121.08 2.38311 -8.41922 0
M  V30 12358 C 2121.57 0.491279 -7.02284 0
M  V30 12359 C 2120.86 0.996264 -5.77469 0
M  V30 12360 N 2120.91 0.0501916 -4.62973 0
M  V30 12361 H 2118.07 -0.374722 -8.67691 0
M  V30 12362 H 2117.8 -0.443485 -6.90277 0
M  V30 12363 H 2118.67 1.75537 -7.96793 0
M  V30 12364 P 2122.63 2.75334 -8.47391 0
M  V30 12365 O 2122.85 3.84128 -9.44797 0
M  V30 12366 O 2123.42 1.51947 -8.68712 0
M  V30 12367 O 2122.88 3.29363 -6.99321 0
M  V30 12368 C 2121.94 4.24011 -6.4274 0
M  V30 12369 C 2122.67 5.20775 -5.52155 0
M  V30 12370 O 2122.88 4.56534 -4.22446 0
M  V30 12371 C 2124.07 5.62629 -5.96531 0
M  V30 12372 O 2124.46 6.87667 -5.41053 0
M  V30 12373 C 2124.95 4.52537 -5.39283 0
M  V30 12374 C 2124.24 4.20027 -4.08623 0
M  V30 12375 N 2124.29 2.76189 -3.71603 0
M  V30 12376 H 2121.45 4.797 -7.24003 0
M  V30 12377 H 2121.18 3.69856 -5.84513 0
M  V30 12378 H 2122.05 6.10356 -5.41441 0
M  V30 12379 P 2126.01 7.20834 -5.23717 0
M  V30 12380 O 2126.23 8.66189 -5.38625 0
M  V30 12381 O 2126.8 6.33615 -6.1356 0
M  V30 12382 O 2126.26 6.7751 -3.72168 0
M  V30 12383 C 2125.32 7.20732 -2.70725 0
M  V30 12384 C 2126.05 7.45864 -1.40599 0
M  V30 12385 O 2126.26 6.17651 -0.734225 0
M  V30 12386 C 2127.45 8.05808 -1.51899 0
M  V30 12387 O 2127.84 8.74358 -0.335205 0
M  V30 12388 C 2128.33 6.83093 -1.70294 0
M  V30 12389 C 2127.62 5.79992 -0.836974 0
M  V30 12390 N 2127.67 4.41769 -1.38263 0
M  V30 12391 C 2127.82 3.38591 -0.481702 0
M  V30 12392 O 2127.91 3.56839 0.718452 0
M  V30 12393 N 2127.86 2.1206 -1.03569 0
M  V30 12394 C 2127.77 1.80696 -2.36966 0
M  V30 12395 C 2127.62 2.94845 -3.23898 0
M  V30 12396 C 2127.57 4.19803 -2.73435 0
M  V30 12397 H 2124.83 8.13644 -3.0377 0
M  V30 12398 H 2124.56 6.42695 -2.55448 0
M  V30 12399 H 2125.43 8.12039 -0.792769 0
M  V30 12400 H 2128.08 5.79978 0.160587 0
M  V30 12401 H 2128.36 6.51379 -2.75643 0
M  V30 12402 H 2129.35 7.01734 -1.34462 0
M  V30 12403 H 2127.52 8.73674 -2.38337 0
M  V30 12404 H 2127.45 5.04492 -3.4095 0
M  V30 12405 P 2129.39 8.91 -3.84396e-11 0
M  V30 12406 O 2129.61 10.1726 0.733694 0
M  V30 12407 O 2130.18 8.73148 -1.23936 0
M  V30 12408 O 2129.64 7.66872 0.971405 0
M  V30 12409 C 2128.7 7.42309 2.04641 0
M  V30 12410 C 2129.43 6.86059 3.24661 0
M  V30 12411 O 2129.64 5.42847 3.03646 0
M  V30 12412 C 2130.83 7.41196 3.50753 0
M  V30 12413 O 2131.22 7.27073 4.86816 0
M  V30 12414 C 2131.71 6.5273 2.63741 0
M  V30 12415 C 2131 5.1842 2.73198 0
M  V30 12416 N 2131.05 4.38762 1.4784 0
M  V30 12417 C 2130.97 4.81605 0.168631 0
M  V30 12418 N 2131.05 3.85454 -0.713363 0
M  V30 12419 C 2131.19 2.6994 0.0566958 0
M  V30 12420 C 2131.32 1.34815 -0.338502 0
M  V30 12421 N 2131.44 0.496304 0.77465 0
M  V30 12422 C 2131.44 0.908403 2.09122 0
M  V30 12423 N 2131.57 -0.0517805 3.00955 0
M  V30 12424 N 2131.31 2.17875 2.46519 0
M  V30 12425 C 2131.19 3.01988 1.4033 0
M  V30 12426 H 2128.21 8.36803 2.32493 0
M  V30 12427 H 2127.94 6.70197 1.71129 0
M  V30 12428 H 2128.81 7.03551 4.13168 0
M  V30 12429 P 2132.77 7.20834 5.23717 0
M  V30 12430 O 2132.99 7.79853 6.57286 0
M  V30 12431 O 2133.56 7.79239 4.12957 0
M  V30 12432 O 2133.02 5.63315 5.29344 0
M  V30 12433 C 2132.08 4.80255 6.01876 0
M  V30 12434 C 2132.81 3.64202 6.65911 0
M  V30 12435 O 2133.02 2.60694 5.64732 0
M  V30 12436 C 2134.21 3.93473 7.1943 0
M  V30 12437 O 2134.6 3.02071 8.21205 0
M  V30 12438 C 2135.09 3.73047 5.97036 0
M  V30 12439 C 2134.38 2.58828 5.25741 0
M  V30 12440 N 2134.43 2.68068 3.77503 0
M  V30 12441 C 2134.35 3.79715 2.96723 0
M  V30 12442 N 2134.43 3.5377 1.68852 0
M  V30 12443 C 2134.57 2.15054 1.63254 0
M  V30 12444 C 2134.7 1.28964 0.518571 0
M  V30 12445 O 2134.72 1.56826 -0.679156 0
M  V30 12446 N 2134.82 -0.0538097 0.918425 0
M  V30 12447 C 2134.82 -0.494275 2.22578 0
M  V30 12448 N 2134.95 -1.81086 2.40434 0
M  V30 12449 N 2134.69 0.313645 3.27502 0
M  V30 12450 C 2134.57 1.61829 2.91033 0
M  V30 12451 H 2131.59 5.40332 6.79951 0
M  V30 12452 H 2131.32 4.41613 5.32378 0
M  V30 12453 H 2132.19 3.26331 7.47797 0
M  V30 12454 H 2134.84 1.63422 5.56814 0
M  V30 12455 H 2135.12 4.63374 5.34244 0
M  V30 12456 H 2136.11 3.44728 6.25838 0
M  V30 12457 H 2134.28 4.96652 7.57263 0
M  V30 12458 H 2134.23 4.80617 3.3614 0
M  V30 12459 H 2134.91 -0.742702 0.199384 0
M  V30 12460 H 2134.95 -2.20598 3.35588 0
M  V30 12461 H 2135.05 -2.43518 1.58945 0
M  V30 12462 P 2136.15 2.75334 8.47391 0
M  V30 12463 O 2136.37 2.44571 9.90142 0
M  V30 12464 O 2136.94 3.87688 7.92115 0
M  V30 12465 O 2136.4 1.4459 7.59357 0
M  V30 12466 C 2135.46 0.347608 7.69215 0
M  V30 12467 C 2136.19 -0.96767 7.52806 0
M  V30 12468 O 2136.4 -1.21036 6.1011 0
M  V30 12469 C 2137.59 -1.04544 8.13308 0
M  V30 12470 O 2137.98 -2.38311 8.41922 0
M  V30 12471 C 2138.47 -0.491279 7.02284 0
M  V30 12472 C 2137.76 -0.996264 5.77469 0
M  V30 12473 N 2137.81 -0.0501916 4.62973 0
M  V30 12474 H 2134.97 0.374722 8.67691 0
M  V30 12475 H 2134.7 0.443485 6.90277 0
M  V30 12476 H 2135.57 -1.75537 7.96793 0
M  V30 12477 P 2139.53 -2.75334 8.47391 0
M  V30 12478 O 2139.75 -3.84204 9.44982 0
M  V30 12479 O 2140.32 -1.51982 8.68909 0
M  V30 12480 O 2139.78 -3.29363 6.99321 0
M  V30 12481 C 2138.84 -4.24066 6.42823 0
M  V30 12482 C 2139.57 -5.20775 5.52155 0
M  V30 12483 O 2139.78 -4.56607 4.22514 0
M  V30 12484 C 2140.97 -5.62697 5.96604 0
M  V30 12485 O 2141.36 -6.87667 5.41053 0
M  V30 12486 C 2141.85 -4.52537 5.39283 0
M  V30 12487 C 2141.14 -4.20027 4.08623 0
M  V30 12488 N 2141.19 -2.76189 3.71603 0
M  V30 12489 C 2141.11 -1.66944 4.54297 0
M  V30 12490 N 2141.18 -0.536169 3.91344 0
M  V30 12491 C 2141.33 -0.901569 2.58849 0
M  V30 12492 C 2141.46 -0.146599 1.40236 0
M  V30 12493 N 2141.47 1.18234 1.37046 0
M  V30 12494 N 2141.58 -0.822941 0.249738 0
M  V30 12495 C 2141.57 -2.15179 0.280525 0
M  V30 12496 N 2141.45 -2.96414 1.30822 0
M  V30 12497 C 2141.33 -2.25804 2.44748 0
M  V30 12498 H 2138.35 -4.79756 7.24086 0
M  V30 12499 H 2138.08 -3.69963 5.84682 0
M  V30 12500 H 2138.95 -6.10431 5.41508 0
M  V30 12501 H 2141.6 -4.78816 3.28024 0
M  V30 12502 H 2141.88 -3.64957 6.05871 0
M  V30 12503 H 2142.87 -4.88748 5.21323 0
M  V30 12504 H 2141.04 -5.66789 7.0643 0
M  V30 12505 H 2141 -1.74684 5.62396 0
M  V30 12506 H 2141.38 1.71949 2.24394 0
M  V30 12507 H 2141.57 1.67511 0.470742 0
M  V30 12508 H 2141.67 -2.63704 -0.6828 0
M  V30 12509 P 2142.91 -7.20834 5.23717 0
M  V30 12510 O 2143.13 -8.66104 5.38572 0
M  V30 12511 O 2143.7 -6.33544 6.1349 0
M  V30 12512 O 2143.16 -6.7751 3.72168 0
M  V30 12513 C 2142.22 -7.20825 2.7076 0
M  V30 12514 C 2142.95 -7.45864 1.40599 0
M  V30 12515 O 2143.16 -6.17651 0.734225 0
M  V30 12516 C 2144.35 -8.05808 1.51899 0
M  V30 12517 O 2144.74 -8.74358 0.335205 0
M  V30 12518 C 2145.23 -6.83093 1.70294 0
M  V30 12519 C 2144.52 -5.79992 0.836974 0
M  V30 12520 N 2144.57 -4.41864 1.38293 0
M  V30 12521 H 2141.73 -8.13644 3.0377 0
M  V30 12522 H 2141.46 -6.42788 2.55485 0
M  V30 12523 H 2142.33 -8.12039 0.792769 0
M  V30 12524 P 2146.29 -8.91 3.95487e-11 0
M  V30 12525 O 2146.51 -10.1726 -0.733694 0
M  V30 12526 O 2147.08 -8.73148 1.23936 0
M  V30 12527 O 2146.54 -7.66872 -0.971405 0
M  V30 12528 C 2145.6 -7.42309 -2.04641 0
M  V30 12529 C 2146.33 -6.86059 -3.24661 0
M  V30 12530 O 2146.54 -5.42847 -3.03646 0
M  V30 12531 C 2147.73 -7.41196 -3.50753 0
M  V30 12532 O 2148.12 -7.27073 -4.86816 0
M  V30 12533 C 2148.61 -6.5273 -2.63741 0
M  V30 12534 C 2147.9 -5.1842 -2.73198 0
M  V30 12535 N 2147.95 -4.38762 -1.4784 0
M  V30 12536 H 2145.11 -8.36803 -2.32493 0
M  V30 12537 H 2144.84 -6.70197 -1.71129 0
M  V30 12538 H 2145.71 -7.03551 -4.13168 0
M  V30 12539 P 2149.67 -7.20834 -5.23717 0
M  V30 12540 O 2149.89 -7.79853 -6.57286 0
M  V30 12541 O 2150.46 -7.79239 -4.12957 0
M  V30 12542 O 2149.92 -5.63315 -5.29344 0
M  V30 12543 C 2148.98 -4.80255 -6.01876 0
M  V30 12544 C 2149.71 -3.64202 -6.65911 0
M  V30 12545 O 2149.92 -2.60694 -5.64732 0
M  V30 12546 C 2151.11 -3.93473 -7.1943 0
M  V30 12547 O 2151.5 -3.02071 -8.21205 0
M  V30 12548 C 2151.99 -3.73047 -5.97036 0
M  V30 12549 C 2151.28 -2.58828 -5.25741 0
M  V30 12550 N 2151.33 -2.68068 -3.77503 0
M  V30 12551 H 2148.49 -5.40332 -6.79951 0
M  V30 12552 H 2148.22 -4.41613 -5.32378 0
M  V30 12553 H 2149.09 -3.26331 -7.47797 0
M  V30 12554 P 2153.05 -2.75334 -8.47391 0
M  V30 12555 O 2153.27 -2.44571 -9.90142 0
M  V30 12556 O 2153.84 -3.87688 -7.92115 0
M  V30 12557 O 2153.3 -1.4459 -7.59357 0
M  V30 12558 C 2152.36 -0.347608 -7.69215 0
M  V30 12559 C 2153.09 0.96767 -7.52806 0
M  V30 12560 O 2153.3 1.21036 -6.1011 0
M  V30 12561 C 2154.49 1.04544 -8.13308 0
M  V30 12562 O 2154.88 2.38311 -8.41922 0
M  V30 12563 C 2155.37 0.491279 -7.02284 0
M  V30 12564 C 2154.66 0.996264 -5.77469 0
M  V30 12565 N 2154.71 0.0501916 -4.62973 0
M  V30 12566 H 2151.87 -0.374722 -8.67691 0
M  V30 12567 H 2151.6 -0.443485 -6.90277 0
M  V30 12568 H 2152.47 1.75537 -7.96793 0
M  V30 12569 P 2156.43 2.75334 -8.47391 0
M  V30 12570 O 2156.65 3.84166 -9.4489 0
M  V30 12571 O 2157.22 1.51964 -8.6881 0
M  V30 12572 O 2156.68 3.29363 -6.99321 0
M  V30 12573 C 2155.74 4.23956 -6.42656 0
M  V30 12574 C 2156.47 5.20775 -5.52155 0
M  V30 12575 O 2156.68 4.56534 -4.22446 0
M  V30 12576 C 2157.87 5.62629 -5.96531 0
M  V30 12577 O 2158.26 6.87667 -5.41053 0
M  V30 12578 C 2158.75 4.52537 -5.39283 0
M  V30 12579 C 2158.04 4.20027 -4.08623 0
M  V30 12580 N 2158.09 2.7613 -3.71522 0
M  V30 12581 C 2158.24 2.45612 -2.37989 0
M  V30 12582 O 2158.33 3.30919 -1.51621 0
M  V30 12583 N 2158.28 1.10684 -2.08435 0
M  V30 12584 C 2158.19 0.0690084 -2.9792 0
M  V30 12585 O 2158.24 -1.10553 -2.59426 0
M  V30 12586 C 2158.04 0.481522 -4.35345 0
M  V30 12587 C 2157.93 -0.618778 -5.36443 0
M  V30 12588 C 2157.99 1.78906 -4.67968 0
M  V30 12589 H 2155.25 4.797 -7.24003 0
M  V30 12590 H 2154.98 3.69802 -5.84429 0
M  V30 12591 H 2155.85 6.10356 -5.41441 0
M  V30 12592 H 2158.5 4.78651 -3.27911 0
M  V30 12593 H 2158.78 3.64957 -6.05871 0
M  V30 12594 H 2159.77 4.8868 -5.2125 0
M  V30 12595 H 2157.94 5.66726 -7.06352 0
M  V30 12596 H 2157.87 2.07737 -5.72367 0
M  V30 12597 H 2158.9 -0.754375 -5.86871 0
M  V30 12598 H 2157.16 -0.359721 -6.10641 0
M  V30 12599 H 2157.65 -1.55533 -4.8581 0
M  V30 12600 H 2158.38 0.862651 -1.12037 0
M  V30 12601 P 2159.81 7.20834 -5.23717 0
M  V30 12602 O 2160.03 8.66189 -5.38625 0
M  V30 12603 O 2160.6 6.33615 -6.1356 0
M  V30 12604 O 2160.06 6.7751 -3.72168 0
M  V30 12605 C 2159.12 7.20732 -2.70725 0
M  V30 12606 C 2159.85 7.45864 -1.40599 0
M  V30 12607 O 2160.06 6.17651 -0.734225 0
M  V30 12608 C 2161.25 8.05808 -1.51899 0
M  V30 12609 O 2161.64 8.74358 -0.335205 0
M  V30 12610 C 2162.13 6.83093 -1.70294 0
M  V30 12611 C 2161.42 5.79992 -0.836974 0
M  V30 12612 N 2161.47 4.41769 -1.38263 0
M  V30 12613 C 2161.62 3.38591 -0.481702 0
M  V30 12614 O 2161.71 3.56839 0.718452 0
M  V30 12615 N 2161.66 2.1206 -1.03569 0
M  V30 12616 C 2161.57 1.80696 -2.36966 0
M  V30 12617 C 2161.42 2.94845 -3.23898 0
M  V30 12618 C 2161.37 4.19803 -2.73435 0
M  V30 12619 H 2158.63 8.13644 -3.0377 0
M  V30 12620 H 2158.36 6.42695 -2.55448 0
M  V30 12621 H 2159.23 8.12039 -0.792769 0
M  V30 12622 H 2161.88 5.79978 0.160587 0
M  V30 12623 H 2162.16 6.51379 -2.75643 0
M  V30 12624 H 2163.15 7.01734 -1.34462 0
M  V30 12625 H 2161.32 8.73674 -2.38337 0
M  V30 12626 H 2161.25 5.04492 -3.4095 0
M  V30 12627 P 2163.19 8.91 -4.06577e-11 0
M  V30 12628 O 2163.41 10.1736 0.733766 0
M  V30 12629 O 2163.98 8.73247 -1.2395 0
M  V30 12630 O 2163.44 7.66872 0.971405 0
M  V30 12631 C 2162.5 7.42212 2.04614 0
M  V30 12632 C 2163.23 6.86059 3.24661 0
M  V30 12633 O 2163.44 5.42847 3.03646 0
M  V30 12634 C 2164.63 7.41196 3.50753 0
M  V30 12635 O 2165.02 7.27073 4.86816 0
M  V30 12636 C 2165.51 6.5273 2.63741 0
M  V30 12637 C 2164.8 5.1842 2.73198 0
M  V30 12638 N 2164.85 4.38668 1.47808 0
M  V30 12639 C 2165 3.02239 1.60048 0
M  V30 12640 O 2165.09 2.46459 2.67869 0
M  V30 12641 N 2165.04 2.32436 0.408571 0
M  V30 12642 C 2164.95 2.85471 -0.854993 0
M  V30 12643 O 2165 2.12566 -1.8531 0
M  V30 12644 C 2164.8 4.28918 -0.887335 0
M  V30 12645 C 2164.69 4.91066 -2.24619 0
M  V30 12646 C 2164.75 5.00349 0.255399 0
M  V30 12647 H 2162.01 8.36803 2.32493 0
M  V30 12648 H 2161.74 6.701 1.71105 0
M  V30 12649 H 2162.61 7.03551 4.13168 0
M  V30 12650 H 2165.26 4.59773 3.53894 0
M  V30 12651 H 2165.54 6.88995 1.59871 0
M  V30 12652 H 2166.53 6.46749 3.03687 0
M  V30 12653 H 2164.7 8.46908 3.20714 0
M  V30 12654 H 2164.63 6.08548 0.206986 0
M  V30 12655 H 2165.66 5.34836 -2.53099 0
M  V30 12656 H 2163.92 5.69638 -2.2291 0
M  V30 12657 H 2164.41 4.13971 -2.98044 0
M  V30 12658 H 2165.14 1.33211 0.474216 0
M  V30 12659 P 2166.57 7.20834 5.23717 0
M  V30 12660 O 2166.79 7.79853 6.57286 0
M  V30 12661 O 2167.36 7.79239 4.12957 0
M  V30 12662 O 2166.82 5.63315 5.29344 0
M  V30 12663 C 2165.88 4.80255 6.01876 0
M  V30 12664 C 2166.61 3.64202 6.65911 0
M  V30 12665 O 2166.82 2.60694 5.64732 0
M  V30 12666 C 2168.01 3.93473 7.1943 0
M  V30 12667 O 2168.4 3.02071 8.21205 0
M  V30 12668 C 2168.89 3.73047 5.97036 0
M  V30 12669 C 2168.18 2.58828 5.25741 0
M  V30 12670 N 2168.23 2.68068 3.77503 0
M  V30 12671 H 2165.39 5.40332 6.79951 0
M  V30 12672 H 2165.12 4.41613 5.32378 0
M  V30 12673 H 2165.99 3.26331 7.47797 0
M  V30 12674 P 2169.95 2.75334 8.47391 0
M  V30 12675 O 2170.17 2.44571 9.90142 0
M  V30 12676 O 2170.74 3.87688 7.92115 0
M  V30 12677 O 2170.2 1.4459 7.59357 0
M  V30 12678 C 2169.26 0.347608 7.69215 0
M  V30 12679 C 2169.99 -0.96767 7.52806 0
M  V30 12680 O 2170.2 -1.21036 6.1011 0
M  V30 12681 C 2171.39 -1.04544 8.13308 0
M  V30 12682 O 2171.78 -2.38311 8.41922 0
M  V30 12683 C 2172.27 -0.491279 7.02284 0
M  V30 12684 C 2171.56 -0.996264 5.77469 0
M  V30 12685 N 2171.61 -0.0501916 4.62973 0
M  V30 12686 H 2168.77 0.374722 8.67691 0
M  V30 12687 H 2168.5 0.443485 6.90277 0
M  V30 12688 H 2169.37 -1.75537 7.96793 0
M  V30 12689 P 2173.33 -2.75334 8.47391 0
M  V30 12690 O 2173.55 -3.84128 9.44797 0
M  V30 12691 O 2174.12 -1.51947 8.68712 0
M  V30 12692 O 2173.58 -3.29363 6.99321 0
M  V30 12693 C 2172.64 -4.24011 6.4274 0
M  V30 12694 C 2173.37 -5.20775 5.52155 0
M  V30 12695 O 2173.58 -4.56534 4.22446 0
M  V30 12696 C 2174.77 -5.62629 5.96531 0
M  V30 12697 O 2175.16 -6.87667 5.41053 0
M  V30 12698 C 2175.65 -4.52537 5.39283 0
M  V30 12699 C 2174.94 -4.20027 4.08623 0
M  V30 12700 N 2174.99 -2.76189 3.71603 0
M  V30 12701 H 2172.15 -4.797 7.24003 0
M  V30 12702 H 2171.88 -3.69856 5.84513 0
M  V30 12703 H 2172.75 -6.10356 5.41441 0
M  V30 12704 P 2176.71 -7.20834 5.23717 0
M  V30 12705 O 2176.93 -8.66104 5.38572 0
M  V30 12706 O 2177.5 -6.33544 6.1349 0
M  V30 12707 O 2176.96 -6.7751 3.72168 0
M  V30 12708 C 2176.02 -7.20825 2.7076 0
M  V30 12709 C 2176.75 -7.45864 1.40599 0
M  V30 12710 O 2176.96 -6.17651 0.734225 0
M  V30 12711 C 2178.15 -8.05808 1.51899 0
M  V30 12712 O 2178.54 -8.74358 0.335205 0
M  V30 12713 C 2179.03 -6.83093 1.70294 0
M  V30 12714 C 2178.32 -5.79992 0.836974 0
M  V30 12715 N 2178.37 -4.41864 1.38293 0
M  V30 12716 H 2175.53 -8.13644 3.0377 0
M  V30 12717 H 2175.26 -6.42788 2.55485 0
M  V30 12718 H 2176.13 -8.12039 0.792769 0
M  V30 12719 P 2180.09 -8.91 4.17667e-11 0
M  V30 12720 O 2180.31 -10.1726 -0.733694 0
M  V30 12721 O 2180.88 -8.73148 1.23936 0
M  V30 12722 O 2180.34 -7.66872 -0.971405 0
M  V30 12723 C 2179.4 -7.42309 -2.04641 0
M  V30 12724 C 2180.13 -6.86059 -3.24661 0
M  V30 12725 O 2180.34 -5.42847 -3.03646 0
M  V30 12726 C 2181.53 -7.41196 -3.50753 0
M  V30 12727 O 2181.92 -7.27073 -4.86816 0
M  V30 12728 C 2182.41 -6.5273 -2.63741 0
M  V30 12729 C 2181.7 -5.1842 -2.73198 0
M  V30 12730 N 2181.75 -4.38762 -1.4784 0
M  V30 12731 H 2178.91 -8.36803 -2.32493 0
M  V30 12732 H 2178.64 -6.70197 -1.71129 0
M  V30 12733 H 2179.51 -7.03551 -4.13168 0
M  V30 12734 P 2183.47 -7.20834 -5.23717 0
M  V30 12735 O 2183.69 -7.80006 -6.57415 0
M  V30 12736 O 2184.26 -7.79416 -4.13051 0
M  V30 12737 O 2183.72 -5.63315 -5.29344 0
M  V30 12738 C 2182.78 -4.80318 -6.01954 0
M  V30 12739 C 2183.51 -3.64202 -6.65911 0
M  V30 12740 O 2183.72 -2.60736 -5.64823 0
M  V30 12741 C 2184.91 -3.93521 -7.19518 0
M  V30 12742 O 2185.3 -3.02071 -8.21205 0
M  V30 12743 C 2185.79 -3.73047 -5.97036 0
M  V30 12744 C 2185.08 -2.58828 -5.25741 0
M  V30 12745 N 2185.13 -2.68068 -3.77503 0
M  V30 12746 H 2182.29 -5.40394 -6.8003 0
M  V30 12747 H 2182.02 -4.41741 -5.32532 0
M  V30 12748 H 2182.89 -3.26371 -7.47889 0
M  V30 12749 H 2185.54 -1.64007 -5.56746 0
M  V30 12750 H 2185.82 -4.63439 -5.3432 0
M  V30 12751 H 2186.81 -3.44776 -6.25925 0
M  V30 12752 H 2184.98 -4.96707 -7.57347 0
M  V30 12753 P 2186.85 -2.75334 -8.47391 0
M  V30 12754 O 2187.07 -2.44571 -9.90142 0
M  V30 12755 O 2187.64 -3.87688 -7.92115 0
M  V30 12756 O 2187.1 -1.4459 -7.59357 0
M  V30 12757 C 2186.16 -0.347608 -7.69215 0
M  V30 12758 C 2186.89 0.96767 -7.52806 0
M  V30 12759 O 2187.1 1.21036 -6.1011 0
M  V30 12760 C 2188.29 1.04544 -8.13308 0
M  V30 12761 O 2188.68 2.38311 -8.41922 0
M  V30 12762 C 2189.17 0.491279 -7.02284 0
M  V30 12763 C 2188.46 0.996264 -5.77469 0
M  V30 12764 N 2188.51 0.0501916 -4.62973 0
M  V30 12765 H 2185.67 -0.374722 -8.67691 0
M  V30 12766 H 2185.4 -0.443485 -6.90277 0
M  V30 12767 H 2186.27 1.75537 -7.96793 0
M  V30 12768 P 2190.23 2.75334 -8.47391 0
M  V30 12769 O 2190.45 3.84128 -9.44797 0
M  V30 12770 O 2191.02 1.51947 -8.68712 0
M  V30 12771 O 2190.48 3.29363 -6.99321 0
M  V30 12772 C 2189.54 4.24011 -6.4274 0
M  V30 12773 C 2190.27 5.20775 -5.52155 0
M  V30 12774 O 2190.48 4.56534 -4.22446 0
M  V30 12775 C 2191.67 5.62629 -5.96531 0
M  V30 12776 O 2192.06 6.87667 -5.41053 0
M  V30 12777 C 2192.55 4.52537 -5.39283 0
M  V30 12778 C 2191.84 4.20027 -4.08623 0
M  V30 12779 N 2191.89 2.76189 -3.71603 0
M  V30 12780 H 2189.05 4.797 -7.24003 0
M  V30 12781 H 2188.78 3.69856 -5.84513 0
M  V30 12782 H 2189.65 6.10356 -5.41441 0
M  V30 12783 P 2193.61 7.20834 -5.23717 0
M  V30 12784 O 2193.83 8.66104 -5.38572 0
M  V30 12785 O 2194.4 6.33544 -6.1349 0
M  V30 12786 O 2193.86 6.7751 -3.72168 0
M  V30 12787 C 2192.92 7.20825 -2.7076 0
M  V30 12788 C 2193.65 7.45864 -1.40599 0
M  V30 12789 O 2193.86 6.17651 -0.734225 0
M  V30 12790 C 2195.05 8.05808 -1.51899 0
M  V30 12791 O 2195.44 8.74358 -0.335205 0
M  V30 12792 C 2195.93 6.83093 -1.70294 0
M  V30 12793 C 2195.22 5.79992 -0.836974 0
M  V30 12794 N 2195.27 4.41864 -1.38293 0
M  V30 12795 H 2192.43 8.13644 -3.0377 0
M  V30 12796 H 2192.16 6.42788 -2.55485 0
M  V30 12797 H 2193.03 8.12039 -0.792769 0
M  V30 12798 P 2196.99 8.91 -4.28757e-11 0
M  V30 12799 O 2197.21 10.1726 0.733694 0
M  V30 12800 O 2197.78 8.73148 -1.23936 0
M  V30 12801 O 2197.24 7.66872 0.971405 0
M  V30 12802 C 2196.3 7.42309 2.04641 0
M  V30 12803 C 2197.03 6.86059 3.24661 0
M  V30 12804 O 2197.24 5.42847 3.03646 0
M  V30 12805 C 2198.43 7.41196 3.50753 0
M  V30 12806 O 2198.82 7.27073 4.86816 0
M  V30 12807 C 2199.31 6.5273 2.63741 0
M  V30 12808 C 2198.6 5.1842 2.73198 0
M  V30 12809 N 2198.65 4.38762 1.4784 0
M  V30 12810 H 2195.81 8.36803 2.32493 0
M  V30 12811 H 2195.54 6.70197 1.71129 0
M  V30 12812 H 2196.4 7.03551 4.13168 0
M  V30 12813 P 2200.37 7.20834 5.23717 0
M  V30 12814 O 2200.59 7.7993 6.57351 0
M  V30 12815 O 2201.16 7.79328 4.13004 0
M  V30 12816 O 2200.62 5.63315 5.29344 0
M  V30 12817 C 2199.68 4.80193 6.01798 0
M  V30 12818 C 2200.41 3.64202 6.65911 0
M  V30 12819 O 2200.62 2.60694 5.64732 0
M  V30 12820 C 2201.81 3.93473 7.1943 0
M  V30 12821 O 2202.2 3.02071 8.21205 0
M  V30 12822 C 2202.69 3.73047 5.97036 0
M  V30 12823 C 2201.98 2.58828 5.25741 0
M  V30 12824 N 2202.03 2.6801 3.77422 0
M  V30 12825 C 2202.18 1.50443 3.07133 0
M  V30 12826 O 2202.27 0.419406 3.61576 0
M  V30 12827 N 2202.22 1.6403 1.69677 0
M  V30 12828 C 2202.13 2.81206 0.986255 0
M  V30 12829 O 2202.18 2.80892 -0.249754 0
M  V30 12830 C 2201.98 3.99158 1.80325 0
M  V30 12831 C 2201.87 5.29309 1.06921 0
M  V30 12832 C 2201.93 3.89779 3.1476 0
M  V30 12833 H 2199.19 5.40332 6.79951 0
M  V30 12834 H 2198.92 4.41549 5.32301 0
M  V30 12835 H 2199.78 3.26331 7.47797 0
M  V30 12836 H 2202.44 1.6395 5.56554 0
M  V30 12837 H 2202.72 4.63439 5.3432 0
M  V30 12838 H 2203.71 3.44728 6.25838 0
M  V30 12839 H 2201.88 4.96652 7.57263 0
M  V30 12840 H 2201.81 4.80159 3.74441 0
M  V30 12841 H 2202.84 5.81459 1.09608 0
M  V30 12842 H 2201.1 5.9187 1.54487 0
M  V30 12843 H 2201.59 5.10095 0.0220288 0
M  V30 12844 H 2202.32 0.798962 1.16664 0
M  V30 12845 P 2203.75 2.75334 8.47391 0
M  V30 12846 O 2203.97 2.44571 9.90142 0
M  V30 12847 O 2204.54 3.87688 7.92115 0
M  V30 12848 O 2204 1.4459 7.59357 0
M  V30 12849 C 2203.06 0.347608 7.69215 0
M  V30 12850 C 2203.79 -0.96767 7.52806 0
M  V30 12851 O 2204 -1.21036 6.1011 0
M  V30 12852 C 2205.19 -1.04544 8.13308 0
M  V30 12853 O 2205.58 -2.38311 8.41922 0
M  V30 12854 C 2206.07 -0.491279 7.02284 0
M  V30 12855 C 2205.36 -0.996264 5.77469 0
M  V30 12856 N 2205.41 -0.0501916 4.62973 0
M  V30 12857 C 2205.33 1.32786 4.63244 0
M  V30 12858 N 2205.41 1.86957 3.44545 0
M  V30 12859 C 2205.55 0.780241 2.58481 0
M  V30 12860 C 2205.68 0.738536 1.17757 0
M  V30 12861 O 2205.7 1.66794 0.372349 0
M  V30 12862 N 2205.8 -0.58337 0.711393 0
M  V30 12863 C 2205.8 -1.70816 1.51017 0
M  V30 12864 N 2205.93 -2.87826 0.880757 0
M  V30 12865 N 2205.67 -1.67126 2.8339 0
M  V30 12866 C 2205.55 -0.401421 3.30572 0
M  V30 12867 H 2202.57 0.374722 8.67691 0
M  V30 12868 H 2202.3 0.443485 6.90277 0
M  V30 12869 H 2203.16 -1.75537 7.96793 0
M  V30 12870 H 2205.82 -1.95076 5.46529 0
M  V30 12871 H 2206.1 0.608565 7.04577 0
M  V30 12872 H 2207.09 -0.889672 7.08939 0
M  V30 12873 H 2205.26 -0.43308 9.04564 0
M  V30 12874 H 2205.21 1.91249 5.54442 0
M  V30 12875 H 2205.89 -0.718054 -0.275244 0
M  V30 12876 H 2205.93 -3.75721 1.41832 0
M  V30 12877 H 2206.03 -2.90436 -0.145468 0
M  V30 12878 P 2207.13 -2.75334 8.47391 0
M  V30 12879 O 2207.35 -3.84128 9.44797 0
M  V30 12880 O 2207.92 -1.51947 8.68712 0
M  V30 12881 O 2207.38 -3.29363 6.99321 0
M  V30 12882 C 2206.44 -4.24011 6.4274 0
M  V30 12883 C 2207.17 -5.20775 5.52155 0
M  V30 12884 O 2207.38 -4.56534 4.22446 0
M  V30 12885 C 2208.57 -5.62629 5.96531 0
M  V30 12886 O 2208.96 -6.87667 5.41053 0
M  V30 12887 C 2209.45 -4.52537 5.39283 0
M  V30 12888 C 2208.74 -4.20027 4.08623 0
M  V30 12889 N 2208.79 -2.76189 3.71603 0
M  V30 12890 C 2208.71 -1.64862 4.52822 0
M  V30 12891 N 2208.79 -0.512671 3.88633 0
M  V30 12892 C 2208.93 -0.888083 2.54977 0
M  V30 12893 C 2209.06 -0.094668 1.38677 0
M  V30 12894 N 2209.18 -0.890102 0.232633 0
M  V30 12895 C 2209.18 -2.26958 0.21772 0
M  V30 12896 N 2209.31 -2.84626 -0.97925 0
M  V30 12897 N 2209.05 -3.0178 1.31033 0
M  V30 12898 C 2208.93 -2.26781 2.43843 0
M  V30 12899 H 2205.95 -4.797 7.24003 0
M  V30 12900 H 2205.68 -3.69856 5.84513 0
M  V30 12901 H 2206.54 -6.10356 5.41441 0
M  V30 12902 P 2210.51 -7.20834 5.23717 0
M  V30 12903 O 2210.73 -8.66104 5.38572 0
M  V30 12904 O 2211.3 -6.33544 6.1349 0
M  V30 12905 O 2210.76 -6.7751 3.72168 0
M  V30 12906 C 2209.82 -7.20825 2.7076 0
M  V30 12907 C 2210.55 -7.45864 1.40599 0
M  V30 12908 O 2210.76 -6.17651 0.734225 0
M  V30 12909 C 2211.95 -8.05808 1.51899 0
M  V30 12910 O 2212.34 -8.74358 0.335205 0
M  V30 12911 C 2212.83 -6.83093 1.70294 0
M  V30 12912 C 2212.12 -5.79992 0.836974 0
M  V30 12913 N 2212.17 -4.41864 1.38293 0
M  V30 12914 H 2209.33 -8.13644 3.0377 0
M  V30 12915 H 2209.06 -6.42788 2.55485 0
M  V30 12916 H 2209.92 -8.12039 0.792769 0
M  V30 12917 P 2213.89 -8.91 4.39847e-11 0
M  V30 12918 O 2214.11 -10.1746 -0.733838 0
M  V30 12919 O 2214.68 -8.73346 1.23964 0
M  V30 12920 O 2214.14 -7.66872 -0.971405 0
M  V30 12921 C 2213.2 -7.42405 -2.04668 0
M  V30 12922 C 2213.93 -6.86059 -3.24661 0
M  V30 12923 O 2214.14 -5.42934 -3.03695 0
M  V30 12924 C 2215.33 -7.41287 -3.50796 0
M  V30 12925 O 2215.72 -7.27073 -4.86816 0
M  V30 12926 C 2216.21 -6.5273 -2.63741 0
M  V30 12927 C 2215.5 -5.1842 -2.73198 0
M  V30 12928 N 2215.55 -4.38762 -1.4784 0
M  V30 12929 H 2212.71 -8.36899 -2.3252 0
M  V30 12930 H 2212.44 -6.70391 -1.71179 0
M  V30 12931 H 2213.3 -7.03638 -4.13219 0
M  V30 12932 H 2215.96 -4.59931 -3.54016 0
M  V30 12933 H 2216.24 -6.88995 -1.59871 0
M  V30 12934 H 2217.23 -6.4684 -3.0373 0
M  V30 12935 H 2215.4 -8.47002 -3.20749 0
M  V30 12936 P 2217.27 -7.20834 -5.23717 0
M  V30 12937 O 2217.49 -7.7993 -6.57351 0
M  V30 12938 O 2218.06 -7.79328 -4.13004 0
M  V30 12939 O 2217.52 -5.63315 -5.29344 0
M  V30 12940 C 2216.58 -4.80193 -6.01798 0
M  V30 12941 C 2217.31 -3.64202 -6.65911 0
M  V30 12942 O 2217.52 -2.60694 -5.64732 0
M  V30 12943 C 2218.71 -3.93473 -7.1943 0
M  V30 12944 O 2219.1 -3.02071 -8.21205 0
M  V30 12945 C 2219.59 -3.73047 -5.97036 0
M  V30 12946 C 2218.88 -2.58828 -5.25741 0
M  V30 12947 N 2218.93 -2.6801 -3.77422 0
M  V30 12948 C 2219.08 -1.50443 -3.07133 0
M  V30 12949 O 2219.17 -0.419406 -3.61576 0
M  V30 12950 N 2219.12 -1.6403 -1.69677 0
M  V30 12951 C 2219.03 -2.81206 -0.986255 0
M  V30 12952 O 2219.08 -2.80892 0.249754 0
M  V30 12953 C 2218.88 -3.99158 -1.80325 0
M  V30 12954 C 2218.77 -5.29309 -1.06921 0
M  V30 12955 C 2218.83 -3.89779 -3.1476 0
M  V30 12956 H 2216.09 -5.40332 -6.79951 0
M  V30 12957 H 2215.82 -4.41549 -5.32301 0
M  V30 12958 H 2216.68 -3.26331 -7.47797 0
M  V30 12959 H 2219.34 -1.6395 -5.56554 0
M  V30 12960 H 2219.62 -4.63439 -5.3432 0
M  V30 12961 H 2220.61 -3.44728 -6.25838 0
M  V30 12962 H 2218.78 -4.96652 -7.57263 0
M  V30 12963 H 2218.71 -4.80159 -3.74441 0
M  V30 12964 H 2219.74 -5.81459 -1.09608 0
M  V30 12965 H 2218 -5.9187 -1.54487 0
M  V30 12966 H 2218.49 -5.10095 -0.0220288 0
M  V30 12967 H 2219.22 -0.798962 -1.16664 0
M  V30 12968 P 2220.65 -2.75334 -8.47391 0
M  V30 12969 O 2220.87 -2.44571 -9.90142 0
M  V30 12970 O 2221.44 -3.87688 -7.92115 0
M  V30 12971 O 2220.9 -1.4459 -7.59357 0
M  V30 12972 C 2219.96 -0.347608 -7.69215 0
M  V30 12973 C 2220.69 0.96767 -7.52806 0
M  V30 12974 O 2220.9 1.21036 -6.1011 0
M  V30 12975 C 2222.09 1.04544 -8.13308 0
M  V30 12976 O 2222.48 2.38311 -8.41922 0
M  V30 12977 C 2222.97 0.491279 -7.02284 0
M  V30 12978 C 2222.26 0.996264 -5.77469 0
M  V30 12979 N 2222.31 0.0501916 -4.62973 0
M  V30 12980 H 2219.47 -0.374722 -8.67691 0
M  V30 12981 H 2219.2 -0.443485 -6.90277 0
M  V30 12982 H 2220.06 1.75537 -7.96793 0
M  V30 12983 P 2224.03 2.75334 -8.47391 0
M  V30 12984 O 2224.25 3.84166 -9.4489 0
M  V30 12985 O 2224.82 1.51964 -8.6881 0
M  V30 12986 O 2224.28 3.29363 -6.99321 0
M  V30 12987 C 2223.34 4.23956 -6.42656 0
M  V30 12988 C 2224.07 5.20775 -5.52155 0
M  V30 12989 O 2224.28 4.56534 -4.22446 0
M  V30 12990 C 2225.47 5.62629 -5.96531 0
M  V30 12991 O 2225.86 6.87667 -5.41053 0
M  V30 12992 C 2226.35 4.52537 -5.39283 0
M  V30 12993 C 2225.64 4.20027 -4.08623 0
M  V30 12994 N 2225.69 2.7613 -3.71522 0
M  V30 12995 C 2225.84 2.45612 -2.37989 0
M  V30 12996 O 2225.93 3.30919 -1.51621 0
M  V30 12997 N 2225.88 1.10684 -2.08435 0
M  V30 12998 C 2225.79 0.0690084 -2.9792 0
M  V30 12999 C 2225.64 0.481522 -4.35345 0
M  V30 13000 C 2225.59 1.78906 -4.67968 0
M  V30 13001 H 2222.85 4.797 -7.24003 0
M  V30 13002 H 2222.58 3.69802 -5.84429 0
M  V30 13003 H 2223.44 6.10356 -5.41441 0
M  V30 13004 H 2226.1 4.78651 -3.27911 0
M  V30 13005 H 2226.38 3.64957 -6.05871 0
M  V30 13006 H 2227.37 4.8868 -5.2125 0
M  V30 13007 H 2225.54 5.66726 -7.06352 0
M  V30 13008 H 2225.47 2.07737 -5.72367 0
M  V30 13009 P 2227.41 7.20834 -5.23717 0
M  V30 13010 O 2227.63 8.66274 -5.38678 0
M  V30 13011 O 2228.2 6.33687 -6.13629 0
M  V30 13012 O 2227.66 6.7751 -3.72168 0
M  V30 13013 C 2226.72 7.20919 -2.70795 0
M  V30 13014 C 2227.45 7.45864 -1.40599 0
M  V30 13015 O 2227.66 6.17751 -0.734343 0
M  V30 13016 C 2228.85 8.05906 -1.51917 0
M  V30 13017 O 2229.24 8.74358 -0.335205 0
M  V30 13018 C 2229.73 6.83093 -1.70294 0
M  V30 13019 C 2229.02 5.79992 -0.836974 0
M  V30 13020 N 2229.07 4.41864 -1.38293 0
M  V30 13021 H 2226.23 8.13738 -3.03804 0
M  V30 13022 H 2225.96 6.42974 -2.55559 0
M  V30 13023 H 2226.82 8.12139 -0.792866 0
M  V30 13024 H 2229.48 5.80178 0.160643 0
M  V30 13025 H 2229.76 6.51379 -2.75643 0
M  V30 13026 H 2230.75 7.01832 -1.3448 0
M  V30 13027 H 2228.92 8.73771 -2.38364 0
M  V30 13028 P 2230.79 8.91 -4.50937e-11 0
M  V30 13029 O 2231.01 10.1726 0.733694 0
M  V30 13030 O 2231.58 8.73148 -1.23936 0
M  V30 13031 O 2231.04 7.66872 0.971405 0
M  V30 13032 C 2230.1 7.42309 2.04641 0
M  V30 13033 C 2230.83 6.86059 3.24661 0
M  V30 13034 O 2231.04 5.42847 3.03646 0
M  V30 13035 C 2232.23 7.41196 3.50753 0
M  V30 13036 O 2232.62 7.27073 4.86816 0
M  V30 13037 C 2233.11 6.5273 2.63741 0
M  V30 13038 C 2232.4 5.1842 2.73198 0
M  V30 13039 N 2232.45 4.38762 1.4784 0
M  V30 13040 H 2229.61 8.36803 2.32493 0
M  V30 13041 H 2229.34 6.70197 1.71129 0
M  V30 13042 H 2230.2 7.03551 4.13168 0
M  V30 13043 P 2234.17 7.20834 5.23717 0
M  V30 13044 O 2234.39 7.80006 6.57415 0
M  V30 13045 O 2234.96 7.79416 4.13051 0
M  V30 13046 O 2234.42 5.63315 5.29344 0
M  V30 13047 C 2233.48 4.80318 6.01954 0
M  V30 13048 C 2234.21 3.64202 6.65911 0
M  V30 13049 O 2234.42 2.60736 5.64823 0
M  V30 13050 C 2235.61 3.93521 7.19518 0
M  V30 13051 O 2236 3.02071 8.21205 0
M  V30 13052 C 2236.49 3.73047 5.97036 0
M  V30 13053 C 2235.78 2.58828 5.25741 0
M  V30 13054 N 2235.83 2.68068 3.77503 0
M  V30 13055 C 2235.75 3.80474 2.99159 0
M  V30 13056 N 2235.82 3.55622 1.71925 0
M  V30 13057 C 2235.97 2.1832 1.65733 0
M  V30 13058 C 2236.1 1.28842 0.572777 0
M  V30 13059 N 2236.11 1.66875 -0.70098 0
M  V30 13060 N 2236.22 -0.016788 0.859836 0
M  V30 13061 C 2236.21 -0.398145 2.13316 0
M  V30 13062 N 2236.09 0.328224 3.22333 0
M  V30 13063 C 2235.97 1.62992 2.90383 0
M  V30 13064 H 2232.99 5.40394 6.8003 0
M  V30 13065 H 2232.72 4.41741 5.32532 0
M  V30 13066 H 2233.58 3.26371 7.47889 0
M  V30 13067 H 2236.24 1.64007 5.56746 0
M  V30 13068 H 2236.52 4.63439 5.3432 0
M  V30 13069 H 2237.51 3.44776 6.25925 0
M  V30 13070 H 2235.68 4.96707 7.57347 0
M  V30 13071 H 2235.64 4.8089 3.39924 0
M  V30 13072 H 2236.02 2.66547 -0.941919 0
M  V30 13073 H 2236.21 0.965341 -1.44766 0
M  V30 13074 H 2236.31 -1.46427 2.29697 0
M  V30 13075 P 2237.55 2.75334 8.47391 0
M  V30 13076 O 2237.77 2.44571 9.90142 0
M  V30 13077 O 2238.34 3.87688 7.92115 0
M  V30 13078 O 2237.8 1.4459 7.59357 0
M  V30 13079 C 2236.86 0.347608 7.69215 0
M  V30 13080 C 2237.59 -0.96767 7.52806 0
M  V30 13081 O 2237.8 -1.21036 6.1011 0
M  V30 13082 C 2238.99 -1.04544 8.13308 0
M  V30 13083 O 2239.38 -2.38311 8.41922 0
M  V30 13084 C 2239.87 -0.491279 7.02284 0
M  V30 13085 C 2239.16 -0.996264 5.77469 0
M  V30 13086 N 2239.21 -0.0501916 4.62973 0
M  V30 13087 H 2236.37 0.374722 8.67691 0
M  V30 13088 H 2236.1 0.443485 6.90277 0
M  V30 13089 H 2236.96 -1.75537 7.96793 0
M  V30 13090 P 2240.93 -2.75334 8.47391 0
M  V30 13091 O 2241.15 -3.84166 9.4489 0
M  V30 13092 O 2241.72 -1.51964 8.6881 0
M  V30 13093 O 2241.18 -3.29363 6.99321 0
M  V30 13094 C 2240.24 -4.23956 6.42656 0
M  V30 13095 C 2240.97 -5.20775 5.52155 0
M  V30 13096 O 2241.18 -4.56534 4.22446 0
M  V30 13097 C 2242.37 -5.62629 5.96531 0
M  V30 13098 O 2242.76 -6.87667 5.41053 0
M  V30 13099 C 2243.25 -4.52537 5.39283 0
M  V30 13100 C 2242.54 -4.20027 4.08623 0
M  V30 13101 N 2242.59 -2.7613 3.71522 0
M  V30 13102 C 2242.74 -2.45612 2.37989 0
M  V30 13103 O 2242.83 -3.30919 1.51621 0
M  V30 13104 N 2242.78 -1.10684 2.08435 0
M  V30 13105 C 2242.69 -0.0690084 2.9792 0
M  V30 13106 O 2242.74 1.10553 2.59426 0
M  V30 13107 C 2242.54 -0.481522 4.35345 0
M  V30 13108 C 2242.43 0.618778 5.36443 0
M  V30 13109 C 2242.49 -1.78906 4.67968 0
M  V30 13110 H 2239.75 -4.797 7.24003 0
M  V30 13111 H 2239.48 -3.69802 5.84429 0
M  V30 13112 H 2240.34 -6.10356 5.41441 0
M  V30 13113 H 2243 -4.78651 3.27911 0
M  V30 13114 H 2243.28 -3.64957 6.05871 0
M  V30 13115 H 2244.27 -4.8868 5.2125 0
M  V30 13116 H 2242.44 -5.66726 7.06352 0
M  V30 13117 H 2242.37 -2.07737 5.72367 0
M  V30 13118 H 2243.4 0.754375 5.86871 0
M  V30 13119 H 2241.66 0.359721 6.10641 0
M  V30 13120 H 2242.15 1.55533 4.8581 0
M  V30 13121 H 2242.88 -0.862651 1.12037 0
M  V30 13122 P 2244.31 -7.20834 5.23717 0
M  V30 13123 O 2244.53 -8.66274 5.38678 0
M  V30 13124 O 2245.1 -6.33687 6.13629 0
M  V30 13125 O 2244.56 -6.7751 3.72168 0
M  V30 13126 C 2243.62 -7.20919 2.70795 0
M  V30 13127 C 2244.35 -7.45864 1.40599 0
M  V30 13128 O 2244.56 -6.17751 0.734343 0
M  V30 13129 C 2245.75 -8.05906 1.51917 0
M  V30 13130 O 2246.14 -8.74358 0.335205 0
M  V30 13131 C 2246.63 -6.83093 1.70294 0
M  V30 13132 C 2245.92 -5.79992 0.836974 0
M  V30 13133 N 2245.97 -4.41864 1.38293 0
M  V30 13134 C 2245.89 -4.02089 2.69407 0
M  V30 13135 N 2245.96 -2.73403 2.85089 0
M  V30 13136 C 2246.11 -2.25086 1.5642 0
M  V30 13137 C 2246.24 -0.942887 1.04836 0
M  V30 13138 N 2246.25 0.150999 1.80369 0
M  V30 13139 N 2246.36 -0.812565 -0.28167 0
M  V30 13140 C 2246.35 -1.90572 -1.03784 0
M  V30 13141 N 2246.23 -3.167 -0.683905 0
M  V30 13142 C 2246.11 -3.26538 0.652815 0
M  V30 13143 H 2243.13 -8.13738 3.03804 0
M  V30 13144 H 2242.86 -6.42974 2.55559 0
M  V30 13145 H 2243.72 -8.12139 0.792866 0
M  V30 13146 H 2246.38 -5.80178 -0.160643 0
M  V30 13147 H 2246.66 -6.51379 2.75643 0
M  V30 13148 H 2247.65 -7.01832 1.3448 0
M  V30 13149 H 2245.82 -8.73771 2.38364 0
M  V30 13150 H 2245.78 -4.7189 3.52311 0
M  V30 13151 H 2246.16 0.0721434 2.82608 0
M  V30 13152 H 2246.35 1.0785 1.36544 0
M  V30 13153 H 2246.45 -1.73207 -2.10241 0
M  V30 13154 P 2247.69 -8.91 4.62027e-11 0
M  V30 13155 O 2247.91 -10.1736 -0.733766 0
M  V30 13156 O 2248.48 -8.73247 1.2395 0
M  V30 13157 O 2247.94 -7.66872 -0.971405 0
M  V30 13158 C 2247 -7.42212 -2.04614 0
M  V30 13159 C 2247.73 -6.86059 -3.24661 0
M  V30 13160 O 2247.94 -5.42847 -3.03646 0
M  V30 13161 C 2249.13 -7.41196 -3.50753 0
M  V30 13162 O 2249.52 -7.27073 -4.86816 0
M  V30 13163 C 2250.01 -6.5273 -2.63741 0
M  V30 13164 C 2249.3 -5.1842 -2.73198 0
M  V30 13165 N 2249.35 -4.38668 -1.47808 0
M  V30 13166 C 2249.5 -3.02239 -1.60048 0
M  V30 13167 O 2249.59 -2.46459 -2.67869 0
M  V30 13168 N 2249.54 -2.32436 -0.408571 0
M  V30 13169 C 2249.45 -2.85471 0.854993 0
M  V30 13170 O 2249.5 -2.12566 1.8531 0
M  V30 13171 C 2249.3 -4.28918 0.887335 0
M  V30 13172 C 2249.19 -4.91066 2.24619 0
M  V30 13173 C 2249.25 -5.00349 -0.255399 0
M  V30 13174 H 2246.51 -8.36803 -2.32493 0
M  V30 13175 H 2246.24 -6.701 -1.71105 0
M  V30 13176 H 2247.1 -7.03551 -4.13168 0
M  V30 13177 H 2249.76 -4.59773 -3.53894 0
M  V30 13178 H 2250.04 -6.88995 -1.59871 0
M  V30 13179 H 2251.03 -6.46749 -3.03687 0
M  V30 13180 H 2249.2 -8.46908 -3.20714 0
M  V30 13181 H 2249.13 -6.08548 -0.206986 0
M  V30 13182 H 2250.16 -5.34836 2.53099 0
M  V30 13183 H 2248.42 -5.69638 2.2291 0
M  V30 13184 H 2248.91 -4.13971 2.98044 0
M  V30 13185 H 2249.64 -1.33211 -0.474216 0
M  V30 13186 P 2251.07 -7.20834 -5.23717 0
M  V30 13187 O 2251.29 -7.79853 -6.57286 0
M  V30 13188 O 2251.86 -7.79239 -4.12957 0
M  V30 13189 O 2251.32 -5.63315 -5.29344 0
M  V30 13190 C 2250.38 -4.80255 -6.01876 0
M  V30 13191 C 2251.11 -3.64202 -6.65911 0
M  V30 13192 O 2251.32 -2.60694 -5.64732 0
M  V30 13193 C 2252.51 -3.93473 -7.1943 0
M  V30 13194 O 2252.9 -3.02071 -8.21205 0
M  V30 13195 C 2253.39 -3.73047 -5.97036 0
M  V30 13196 C 2252.68 -2.58828 -5.25741 0
M  V30 13197 N 2252.73 -2.68068 -3.77503 0
M  V30 13198 C 2252.65 -3.79715 -2.96723 0
M  V30 13199 N 2252.73 -3.5377 -1.68852 0
M  V30 13200 C 2252.87 -2.15054 -1.63254 0
M  V30 13201 C 2253 -1.28964 -0.518571 0
M  V30 13202 O 2253.02 -1.56826 0.679156 0
M  V30 13203 N 2253.12 0.0538097 -0.918425 0
M  V30 13204 C 2253.12 0.494275 -2.22578 0
M  V30 13205 N 2253.25 1.81086 -2.40434 0
M  V30 13206 N 2252.99 -0.313645 -3.27502 0
M  V30 13207 C 2252.87 -1.61829 -2.91033 0
M  V30 13208 H 2249.89 -5.40332 -6.79951 0
M  V30 13209 H 2249.62 -4.41613 -5.32378 0
M  V30 13210 H 2250.48 -3.26331 -7.47797 0
M  V30 13211 H 2253.14 -1.63422 -5.56814 0
M  V30 13212 H 2253.42 -4.63374 -5.34244 0
M  V30 13213 H 2254.41 -3.44728 -6.25838 0
M  V30 13214 H 2252.58 -4.96652 -7.57263 0
M  V30 13215 H 2252.53 -4.80617 -3.3614 0
M  V30 13216 H 2253.21 0.742702 -0.199384 0
M  V30 13217 H 2253.25 2.20598 -3.35588 0
M  V30 13218 H 2253.35 2.43518 -1.58945 0
M  V30 13219 P 2254.45 -2.75334 -8.47391 0
M  V30 13220 O 2254.67 -2.44571 -9.90142 0
M  V30 13221 O 2255.24 -3.87688 -7.92115 0
M  V30 13222 O 2254.7 -1.4459 -7.59357 0
M  V30 13223 C 2253.76 -0.347608 -7.69215 0
M  V30 13224 C 2254.49 0.96767 -7.52806 0
M  V30 13225 O 2254.7 1.21036 -6.1011 0
M  V30 13226 C 2255.89 1.04544 -8.13308 0
M  V30 13227 O 2256.28 2.38311 -8.41922 0
M  V30 13228 C 2256.77 0.491279 -7.02284 0
M  V30 13229 C 2256.06 0.996264 -5.77469 0
M  V30 13230 N 2256.11 0.0501916 -4.62973 0
M  V30 13231 C 2256.03 -1.32786 -4.63244 0
M  V30 13232 N 2256.11 -1.86957 -3.44545 0
M  V30 13233 C 2256.25 -0.780241 -2.58481 0
M  V30 13234 C 2256.38 -0.738536 -1.17757 0
M  V30 13235 N 2256.5 0.58337 -0.711393 0
M  V30 13236 C 2256.5 1.70816 -1.51017 0
M  V30 13237 N 2256.63 2.87826 -0.880757 0
M  V30 13238 N 2256.37 1.67126 -2.8339 0
M  V30 13239 C 2256.25 0.401421 -3.30572 0
M  V30 13240 H 2253.27 -0.374722 -8.67691 0
M  V30 13241 H 2253 -0.443485 -6.90277 0
M  V30 13242 H 2253.86 1.75537 -7.96793 0
M  V30 13243 P 2257.83 2.75334 -8.47391 0
M  V30 13244 O 2258.05 3.84128 -9.44797 0
M  V30 13245 O 2258.62 1.51947 -8.68712 0
M  V30 13246 O 2258.08 3.29363 -6.99321 0
M  V30 13247 C 2257.14 4.24011 -6.4274 0
M  V30 13248 C 2257.87 5.20775 -5.52155 0
M  V30 13249 O 2258.08 4.56534 -4.22446 0
M  V30 13250 C 2259.27 5.62629 -5.96531 0
M  V30 13251 O 2259.66 6.87667 -5.41053 0
M  V30 13252 C 2260.15 4.52537 -5.39283 0
M  V30 13253 C 2259.44 4.20027 -4.08623 0
M  V30 13254 N 2259.49 2.76189 -3.71603 0
M  V30 13255 H 2256.65 4.797 -7.24003 0
M  V30 13256 H 2256.38 3.69856 -5.84513 0
M  V30 13257 H 2257.24 6.10356 -5.41441 0
M  V30 13258 P 2261.21 7.20834 -5.23717 0
M  V30 13259 O 2261.43 8.66104 -5.38572 0
M  V30 13260 O 2262 6.33544 -6.1349 0
M  V30 13261 O 2261.46 6.7751 -3.72168 0
M  V30 13262 C 2260.52 7.20825 -2.7076 0
M  V30 13263 C 2261.25 7.45864 -1.40599 0
M  V30 13264 O 2261.46 6.17651 -0.734225 0
M  V30 13265 C 2262.65 8.05808 -1.51899 0
M  V30 13266 O 2263.04 8.74358 -0.335205 0
M  V30 13267 C 2263.53 6.83093 -1.70294 0
M  V30 13268 C 2262.82 5.79992 -0.836974 0
M  V30 13269 N 2262.87 4.41864 -1.38293 0
M  V30 13270 H 2260.03 8.13644 -3.0377 0
M  V30 13271 H 2259.76 6.42788 -2.55485 0
M  V30 13272 H 2260.62 8.12039 -0.792769 0
M  V30 13273 P 2264.59 8.91 -4.73117e-11 0
M  V30 13274 O 2264.81 10.1726 0.733694 0
M  V30 13275 O 2265.38 8.73148 -1.23936 0
M  V30 13276 O 2264.84 7.66872 0.971405 0
M  V30 13277 C 2263.9 7.42309 2.04641 0
M  V30 13278 C 2264.63 6.86059 3.24661 0
M  V30 13279 O 2264.84 5.42847 3.03646 0
M  V30 13280 C 2266.03 7.41196 3.50753 0
M  V30 13281 O 2266.42 7.27073 4.86816 0
M  V30 13282 C 2266.91 6.5273 2.63741 0
M  V30 13283 C 2266.2 5.1842 2.73198 0
M  V30 13284 N 2266.25 4.38762 1.4784 0
M  V30 13285 H 2263.41 8.36803 2.32493 0
M  V30 13286 H 2263.14 6.70197 1.71129 0
M  V30 13287 H 2264 7.03551 4.13168 0
M  V30 13288 P 2267.97 7.20834 5.23717 0
M  V30 13289 O 2268.19 7.7993 6.57351 0
M  V30 13290 O 2268.76 7.79328 4.13004 0
M  V30 13291 O 2268.22 5.63315 5.29344 0
M  V30 13292 C 2267.28 4.80193 6.01798 0
M  V30 13293 C 2268.01 3.64202 6.65911 0
M  V30 13294 O 2268.22 2.60694 5.64732 0
M  V30 13295 C 2269.41 3.93473 7.1943 0
M  V30 13296 O 2269.8 3.02071 8.21205 0
M  V30 13297 C 2270.29 3.73047 5.97036 0
M  V30 13298 C 2269.58 2.58828 5.25741 0
M  V30 13299 N 2269.63 2.6801 3.77422 0
M  V30 13300 C 2269.78 1.50443 3.07133 0
M  V30 13301 O 2269.87 0.419406 3.61576 0
M  V30 13302 N 2269.82 1.6403 1.69677 0
M  V30 13303 C 2269.73 2.81206 0.986255 0
M  V30 13304 O 2269.78 2.80892 -0.249754 0
M  V30 13305 C 2269.58 3.99158 1.80325 0
M  V30 13306 C 2269.47 5.29309 1.06921 0
M  V30 13307 C 2269.53 3.89779 3.1476 0
M  V30 13308 H 2266.79 5.40332 6.79951 0
M  V30 13309 H 2266.52 4.41549 5.32301 0
M  V30 13310 H 2267.38 3.26331 7.47797 0
M  V30 13311 H 2270.04 1.6395 5.56554 0
M  V30 13312 H 2270.32 4.63439 5.3432 0
M  V30 13313 H 2271.31 3.44728 6.25838 0
M  V30 13314 H 2269.48 4.96652 7.57263 0
M  V30 13315 H 2269.41 4.80159 3.74441 0
M  V30 13316 H 2270.44 5.81459 1.09608 0
M  V30 13317 H 2268.7 5.9187 1.54487 0
M  V30 13318 H 2269.19 5.10095 0.0220288 0
M  V30 13319 H 2269.92 0.798962 1.16664 0
M  V30 13320 P 2271.35 2.75334 8.47391 0
M  V30 13321 O 2271.57 2.44571 9.90142 0
M  V30 13322 O 2272.14 3.87688 7.92115 0
M  V30 13323 O 2271.6 1.4459 7.59357 0
M  V30 13324 C 2270.66 0.347608 7.69215 0
M  V30 13325 C 2271.39 -0.96767 7.52806 0
M  V30 13326 O 2271.6 -1.21036 6.1011 0
M  V30 13327 C 2272.79 -1.04544 8.13308 0
M  V30 13328 O 2273.18 -2.38311 8.41922 0
M  V30 13329 C 2273.67 -0.491279 7.02284 0
M  V30 13330 C 2272.96 -0.996264 5.77469 0
M  V30 13331 N 2273.01 -0.0501916 4.62973 0
M  V30 13332 H 2270.17 0.374722 8.67691 0
M  V30 13333 H 2269.9 0.443485 6.90277 0
M  V30 13334 H 2270.76 -1.75537 7.96793 0
M  V30 13335 P 2274.73 -2.75334 8.47391 0
M  V30 13336 O 2274.95 -3.84128 9.44797 0
M  V30 13337 O 2275.52 -1.51947 8.68712 0
M  V30 13338 O 2274.98 -3.29363 6.99321 0
M  V30 13339 C 2274.04 -4.24011 6.4274 0
M  V30 13340 C 2274.77 -5.20775 5.52155 0
M  V30 13341 O 2274.98 -4.56534 4.22446 0
M  V30 13342 C 2276.17 -5.62629 5.96531 0
M  V30 13343 O 2276.56 -6.87667 5.41053 0
M  V30 13344 C 2277.05 -4.52537 5.39283 0
M  V30 13345 C 2276.34 -4.20027 4.08623 0
M  V30 13346 N 2276.39 -2.76189 3.71603 0
M  V30 13347 H 2273.55 -4.797 7.24003 0
M  V30 13348 H 2273.28 -3.69856 5.84513 0
M  V30 13349 H 2274.14 -6.10356 5.41441 0
M  V30 13350 P 2278.11 -7.20834 5.23717 0
M  V30 13351 O 2278.33 -8.66104 5.38572 0
M  V30 13352 O 2278.9 -6.33544 6.1349 0
M  V30 13353 O 2278.36 -6.7751 3.72168 0
M  V30 13354 C 2277.42 -7.20825 2.7076 0
M  V30 13355 C 2278.15 -7.45864 1.40599 0
M  V30 13356 O 2278.36 -6.17651 0.734225 0
M  V30 13357 C 2279.55 -8.05808 1.51899 0
M  V30 13358 O 2279.94 -8.74358 0.335205 0
M  V30 13359 C 2280.43 -6.83093 1.70294 0
M  V30 13360 C 2279.72 -5.79992 0.836974 0
M  V30 13361 N 2279.77 -4.41864 1.38293 0
M  V30 13362 H 2276.93 -8.13644 3.0377 0
M  V30 13363 H 2276.66 -6.42788 2.55485 0
M  V30 13364 H 2277.52 -8.12039 0.792769 0
M  V30 13365 P 2281.49 -8.91 4.84207e-11 0
M  V30 13366 O 2281.71 -10.1726 -0.733694 0
M  V30 13367 O 2282.28 -8.73148 1.23936 0
M  V30 13368 O 2281.74 -7.66872 -0.971405 0
M  V30 13369 C 2280.8 -7.42309 -2.04641 0
M  V30 13370 C 2281.53 -6.86059 -3.24661 0
M  V30 13371 O 2281.74 -5.42847 -3.03646 0
M  V30 13372 C 2282.93 -7.41196 -3.50753 0
M  V30 13373 O 2283.32 -7.27073 -4.86816 0
M  V30 13374 C 2283.81 -6.5273 -2.63741 0
M  V30 13375 C 2283.1 -5.1842 -2.73198 0
M  V30 13376 N 2283.15 -4.38762 -1.4784 0
M  V30 13377 H 2280.31 -8.36803 -2.32493 0
M  V30 13378 H 2280.04 -6.70197 -1.71129 0
M  V30 13379 H 2280.9 -7.03551 -4.13168 0
M  V30 13380 P 2284.87 -7.20834 -5.23717 0
M  V30 13381 O 2285.09 -7.79853 -6.57286 0
M  V30 13382 O 2285.66 -7.79239 -4.12957 0
M  V30 13383 O 2285.12 -5.63315 -5.29344 0
M  V30 13384 C 2284.18 -4.80255 -6.01876 0
M  V30 13385 C 2284.91 -3.64202 -6.65911 0
M  V30 13386 O 2285.12 -2.60694 -5.64732 0
M  V30 13387 C 2286.31 -3.93473 -7.1943 0
M  V30 13388 O 2286.7 -3.02071 -8.21205 0
M  V30 13389 C 2287.19 -3.73047 -5.97036 0
M  V30 13390 C 2286.48 -2.58828 -5.25741 0
M  V30 13391 N 2286.53 -2.68068 -3.77503 0
M  V30 13392 H 2283.69 -5.40332 -6.79951 0
M  V30 13393 H 2283.42 -4.41613 -5.32378 0
M  V30 13394 H 2284.28 -3.26331 -7.47797 0
M  V30 13395 P 2288.25 -2.75334 -8.47391 0
M  V30 13396 O 2288.47 -2.44571 -9.90142 0
M  V30 13397 O 2289.04 -3.87688 -7.92115 0
M  V30 13398 O 2288.5 -1.4459 -7.59357 0
M  V30 13399 C 2287.56 -0.347608 -7.69215 0
M  V30 13400 C 2288.29 0.96767 -7.52806 0
M  V30 13401 O 2288.5 1.21036 -6.1011 0
M  V30 13402 C 2289.69 1.04544 -8.13308 0
M  V30 13403 O 2290.08 2.38311 -8.41922 0
M  V30 13404 C 2290.57 0.491279 -7.02284 0
M  V30 13405 C 2289.86 0.996264 -5.77469 0
M  V30 13406 N 2289.91 0.0501916 -4.62973 0
M  V30 13407 H 2287.07 -0.374722 -8.67691 0
M  V30 13408 H 2286.8 -0.443485 -6.90277 0
M  V30 13409 H 2287.66 1.75537 -7.96793 0
M  V30 13410 P 2291.63 2.75334 -8.47391 0
M  V30 13411 O 2291.85 3.84128 -9.44797 0
M  V30 13412 O 2292.42 1.51947 -8.68712 0
M  V30 13413 O 2291.88 3.29363 -6.99321 0
M  V30 13414 C 2290.94 4.24011 -6.4274 0
M  V30 13415 C 2291.67 5.20775 -5.52155 0
M  V30 13416 O 2291.88 4.56534 -4.22446 0
M  V30 13417 C 2293.07 5.62629 -5.96531 0
M  V30 13418 O 2293.46 6.87667 -5.41053 0
M  V30 13419 C 2293.95 4.52537 -5.39283 0
M  V30 13420 C 2293.24 4.20027 -4.08623 0
M  V30 13421 N 2293.29 2.76189 -3.71603 0
M  V30 13422 H 2290.45 4.797 -7.24003 0
M  V30 13423 H 2290.18 3.69856 -5.84513 0
M  V30 13424 H 2291.04 6.10356 -5.41441 0
M  V30 13425 P 2295.01 7.20834 -5.23717 0
M  V30 13426 O 2295.23 8.66104 -5.38572 0
M  V30 13427 O 2295.8 6.33544 -6.1349 0
M  V30 13428 O 2295.26 6.7751 -3.72168 0
M  V30 13429 C 2294.32 7.20825 -2.7076 0
M  V30 13430 C 2295.05 7.45864 -1.40599 0
M  V30 13431 O 2295.26 6.17651 -0.734225 0
M  V30 13432 C 2296.45 8.05808 -1.51899 0
M  V30 13433 O 2296.84 8.74358 -0.335205 0
M  V30 13434 C 2297.33 6.83093 -1.70294 0
M  V30 13435 C 2296.62 5.79992 -0.836974 0
M  V30 13436 N 2296.67 4.41864 -1.38293 0
M  V30 13437 H 2293.83 8.13644 -3.0377 0
M  V30 13438 H 2293.56 6.42788 -2.55485 0
M  V30 13439 H 2294.42 8.12039 -0.792769 0
M  V30 13440 P 2298.39 8.91 -4.95297e-11 0
M  V30 13441 O 2298.61 10.1726 0.733694 0
M  V30 13442 O 2299.18 8.73148 -1.23936 0
M  V30 13443 O 2298.64 7.66872 0.971405 0
M  V30 13444 C 2297.7 7.42309 2.04641 0
M  V30 13445 C 2298.43 6.86059 3.24661 0
M  V30 13446 O 2298.64 5.42847 3.03646 0
M  V30 13447 C 2299.83 7.41196 3.50753 0
M  V30 13448 O 2300.22 7.27073 4.86816 0
M  V30 13449 C 2300.71 6.5273 2.63741 0
M  V30 13450 C 2300 5.1842 2.73198 0
M  V30 13451 N 2300.05 4.38762 1.4784 0
M  V30 13452 H 2297.21 8.36803 2.32493 0
M  V30 13453 H 2296.94 6.70197 1.71129 0
M  V30 13454 H 2297.8 7.03551 4.13168 0
M  V30 13455 P 2301.77 7.20834 5.23717 0
M  V30 13456 O 2301.99 7.79853 6.57286 0
M  V30 13457 O 2302.56 7.79239 4.12957 0
M  V30 13458 O 2302.02 5.63315 5.29344 0
M  V30 13459 C 2301.08 4.80255 6.01876 0
M  V30 13460 C 2301.81 3.64202 6.65911 0
M  V30 13461 O 2302.02 2.60694 5.64732 0
M  V30 13462 C 2303.21 3.93473 7.1943 0
M  V30 13463 O 2303.6 3.02071 8.21205 0
M  V30 13464 C 2304.09 3.73047 5.97036 0
M  V30 13465 C 2303.38 2.58828 5.25741 0
M  V30 13466 N 2303.43 2.68068 3.77503 0
M  V30 13467 C 2303.35 3.79715 2.96723 0
M  V30 13468 N 2303.43 3.5377 1.68852 0
M  V30 13469 C 2303.57 2.15054 1.63254 0
M  V30 13470 C 2303.7 1.28964 0.518571 0
M  V30 13471 N 2303.82 -0.0538097 0.918425 0
M  V30 13472 C 2303.82 -0.494275 2.22578 0
M  V30 13473 N 2303.95 -1.81086 2.40434 0
M  V30 13474 N 2303.69 0.313645 3.27502 0
M  V30 13475 C 2303.57 1.61829 2.91033 0
M  V30 13476 H 2300.59 5.40332 6.79951 0
M  V30 13477 H 2300.32 4.41613 5.32378 0
M  V30 13478 H 2301.18 3.26331 7.47797 0
M  V30 13479 P 2305.15 2.75334 8.47391 0
M  V30 13480 O 2305.37 2.44571 9.90142 0
M  V30 13481 O 2305.94 3.87688 7.92115 0
M  V30 13482 O 2305.4 1.4459 7.59357 0
M  V30 13483 C 2304.46 0.347608 7.69215 0
M  V30 13484 C 2305.19 -0.96767 7.52806 0
M  V30 13485 O 2305.4 -1.21036 6.1011 0
M  V30 13486 C 2306.59 -1.04544 8.13308 0
M  V30 13487 O 2306.98 -2.38311 8.41922 0
M  V30 13488 C 2307.47 -0.491279 7.02284 0
M  V30 13489 C 2306.76 -0.996264 5.77469 0
M  V30 13490 N 2306.81 -0.0501916 4.62973 0
M  V30 13491 H 2303.97 0.374722 8.67691 0
M  V30 13492 H 2303.7 0.443485 6.90277 0
M  V30 13493 H 2304.56 -1.75537 7.96793 0
M  V30 13494 P 2308.53 -2.75334 8.47391 0
M  V30 13495 O 2308.75 -3.84128 9.44797 0
M  V30 13496 O 2309.32 -1.51947 8.68712 0
M  V30 13497 O 2308.78 -3.29363 6.99321 0
M  V30 13498 C 2307.84 -4.24011 6.4274 0
M  V30 13499 C 2308.57 -5.20775 5.52155 0
M  V30 13500 O 2308.78 -4.56534 4.22446 0
M  V30 13501 C 2309.97 -5.62629 5.96531 0
M  V30 13502 O 2310.36 -6.87667 5.41053 0
M  V30 13503 C 2310.85 -4.52537 5.39283 0
M  V30 13504 C 2310.14 -4.20027 4.08623 0
M  V30 13505 N 2310.19 -2.76189 3.71603 0
M  V30 13506 H 2307.35 -4.797 7.24003 0
M  V30 13507 H 2307.08 -3.69856 5.84513 0
M  V30 13508 H 2307.94 -6.10356 5.41441 0
M  V30 13509 P 2311.91 -7.20834 5.23717 0
M  V30 13510 O 2312.13 -8.66104 5.38572 0
M  V30 13511 O 2312.7 -6.33544 6.1349 0
M  V30 13512 O 2312.16 -6.7751 3.72168 0
M  V30 13513 C 2311.22 -7.20825 2.7076 0
M  V30 13514 C 2311.95 -7.45864 1.40599 0
M  V30 13515 O 2312.16 -6.17651 0.734225 0
M  V30 13516 C 2313.35 -8.05808 1.51899 0
M  V30 13517 O 2313.74 -8.74358 0.335205 0
M  V30 13518 C 2314.23 -6.83093 1.70294 0
M  V30 13519 C 2313.52 -5.79992 0.836974 0
M  V30 13520 N 2313.57 -4.41864 1.38293 0
M  V30 13521 H 2310.73 -8.13644 3.0377 0
M  V30 13522 H 2310.46 -6.42788 2.55485 0
M  V30 13523 H 2311.32 -8.12039 0.792769 0
M  V30 13524 P 2315.29 -8.91 5.06387e-11 0
M  V30 13525 O 2315.51 -10.1726 -0.733694 0
M  V30 13526 O 2316.08 -8.73148 1.23936 0
M  V30 13527 O 2315.54 -7.66872 -0.971405 0
M  V30 13528 C 2314.6 -7.42309 -2.04641 0
M  V30 13529 C 2315.33 -6.86059 -3.24661 0
M  V30 13530 O 2315.54 -5.42847 -3.03646 0
M  V30 13531 C 2316.73 -7.41196 -3.50753 0
M  V30 13532 O 2317.12 -7.27073 -4.86816 0
M  V30 13533 C 2317.61 -6.5273 -2.63741 0
M  V30 13534 C 2316.9 -5.1842 -2.73198 0
M  V30 13535 N 2316.95 -4.38762 -1.4784 0
M  V30 13536 C 2316.87 -4.81605 -0.168631 0
M  V30 13537 N 2316.95 -3.85454 0.713363 0
M  V30 13538 C 2317.09 -2.6994 -0.0566958 0
M  V30 13539 C 2317.22 -1.34815 0.338502 0
M  V30 13540 O 2317.24 -0.869548 1.47125 0
M  V30 13541 N 2317.34 -0.496304 -0.77465 0
M  V30 13542 C 2317.34 -0.908403 -2.09122 0
M  V30 13543 N 2317.47 0.0517805 -3.00955 0
M  V30 13544 N 2317.21 -2.17875 -2.46519 0
M  V30 13545 C 2317.09 -3.01988 -1.4033 0
M  V30 13546 H 2314.11 -8.36803 -2.32493 0
M  V30 13547 H 2313.84 -6.70197 -1.71129 0
M  V30 13548 H 2314.7 -7.03551 -4.13168 0
M  V30 13549 H 2317.36 -4.59498 -3.54415 0
M  V30 13550 H 2317.64 -6.88898 -1.59848 0
M  V30 13551 H 2318.63 -6.46749 -3.03687 0
M  V30 13552 H 2316.8 -8.46908 -3.20714 0
M  V30 13553 H 2316.75 -5.86405 0.105564 0
M  V30 13554 H 2317.43 0.483664 -0.597855 0
M  V30 13555 H 2317.47 -0.187865 -4.0116 0
M  V30 13556 H 2317.57 1.03585 -2.71726 0
M  V30 13557 P 2318.67 -7.20834 -5.23717 0
M  V30 13558 O 2318.89 -7.79853 -6.57286 0
M  V30 13559 O 2319.46 -7.79239 -4.12957 0
M  V30 13560 O 2318.92 -5.63315 -5.29344 0
M  V30 13561 C 2317.98 -4.80255 -6.01876 0
M  V30 13562 C 2318.71 -3.64202 -6.65911 0
M  V30 13563 O 2318.92 -2.60694 -5.64732 0
M  V30 13564 C 2320.11 -3.93473 -7.1943 0
M  V30 13565 O 2320.5 -3.02071 -8.21205 0
M  V30 13566 C 2320.99 -3.73047 -5.97036 0
M  V30 13567 C 2320.28 -2.58828 -5.25741 0
M  V30 13568 N 2320.33 -2.68068 -3.77503 0
M  V30 13569 C 2320.25 -3.79715 -2.96723 0
M  V30 13570 N 2320.33 -3.5377 -1.68852 0
M  V30 13571 C 2320.47 -2.15054 -1.63254 0
M  V30 13572 C 2320.6 -1.28964 -0.518571 0
M  V30 13573 N 2320.72 0.0538097 -0.918425 0
M  V30 13574 C 2320.72 0.494275 -2.22578 0
M  V30 13575 N 2320.85 1.81086 -2.40434 0
M  V30 13576 N 2320.59 -0.313645 -3.27502 0
M  V30 13577 C 2320.47 -1.61829 -2.91033 0
M  V30 13578 H 2317.49 -5.40332 -6.79951 0
M  V30 13579 H 2317.22 -4.41613 -5.32378 0
M  V30 13580 H 2318.08 -3.26331 -7.47797 0
M  V30 13581 P 2322.05 -2.75334 -8.47391 0
M  V30 13582 O 2322.27 -2.44571 -9.90142 0
M  V30 13583 O 2322.84 -3.87688 -7.92115 0
M  V30 13584 O 2322.3 -1.4459 -7.59357 0
M  V30 13585 C 2321.36 -0.347608 -7.69215 0
M  V30 13586 C 2322.09 0.96767 -7.52806 0
M  V30 13587 O 2322.3 1.21036 -6.1011 0
M  V30 13588 C 2323.49 1.04544 -8.13308 0
M  V30 13589 O 2323.88 2.38311 -8.41922 0
M  V30 13590 C 2324.37 0.491279 -7.02284 0
M  V30 13591 C 2323.66 0.996264 -5.77469 0
M  V30 13592 N 2323.71 0.0501916 -4.62973 0
M  V30 13593 C 2323.63 -1.32786 -4.63244 0
M  V30 13594 N 2323.71 -1.86957 -3.44545 0
M  V30 13595 C 2323.85 -0.780241 -2.58481 0
M  V30 13596 C 2323.98 -0.738536 -1.17757 0
M  V30 13597 N 2324.1 0.58337 -0.711393 0
M  V30 13598 C 2324.1 1.70816 -1.51017 0
M  V30 13599 N 2324.23 2.87826 -0.880757 0
M  V30 13600 N 2323.97 1.67126 -2.8339 0
M  V30 13601 C 2323.85 0.401421 -3.30572 0
M  V30 13602 H 2320.87 -0.374722 -8.67691 0
M  V30 13603 H 2320.6 -0.443485 -6.90277 0
M  V30 13604 H 2321.46 1.75537 -7.96793 0
M  V30 13605 P 2325.43 2.75334 -8.47391 0
M  V30 13606 O 2325.65 3.84128 -9.44797 0
M  V30 13607 O 2326.22 1.51947 -8.68712 0
M  V30 13608 O 2325.68 3.29363 -6.99321 0
M  V30 13609 C 2324.74 4.24011 -6.4274 0
M  V30 13610 C 2325.47 5.20775 -5.52155 0
M  V30 13611 O 2325.68 4.56534 -4.22446 0
M  V30 13612 C 2326.87 5.62629 -5.96531 0
M  V30 13613 O 2327.26 6.87667 -5.41053 0
M  V30 13614 C 2327.75 4.52537 -5.39283 0
M  V30 13615 C 2327.04 4.20027 -4.08623 0
M  V30 13616 N 2327.09 2.76189 -3.71603 0
M  V30 13617 H 2324.25 4.797 -7.24003 0
M  V30 13618 H 2323.98 3.69856 -5.84513 0
M  V30 13619 H 2324.84 6.10356 -5.41441 0
M  V30 13620 P 2328.81 7.20834 -5.23717 0
M  V30 13621 O 2329.03 8.66104 -5.38572 0
M  V30 13622 O 2329.6 6.33544 -6.1349 0
M  V30 13623 O 2329.06 6.7751 -3.72168 0
M  V30 13624 C 2328.12 7.20825 -2.7076 0
M  V30 13625 C 2328.85 7.45864 -1.40599 0
M  V30 13626 O 2329.06 6.17651 -0.734225 0
M  V30 13627 C 2330.25 8.05808 -1.51899 0
M  V30 13628 O 2330.64 8.74358 -0.335205 0
M  V30 13629 C 2331.13 6.83093 -1.70294 0
M  V30 13630 C 2330.42 5.79992 -0.836974 0
M  V30 13631 N 2330.47 4.41864 -1.38293 0
M  V30 13632 C 2330.39 3.99538 -2.69438 0
M  V30 13633 N 2330.47 2.69909 -2.84277 0
M  V30 13634 C 2330.61 2.21719 -1.5408 0
M  V30 13635 C 2330.74 0.891712 -1.06628 0
M  V30 13636 N 2330.86 0.856846 0.334985 0
M  V30 13637 C 2330.86 1.9641 1.15789 0
M  V30 13638 N 2330.99 1.72708 2.46522 0
M  V30 13639 N 2330.73 3.21165 0.713741 0
M  V30 13640 C 2330.61 3.26797 -0.639748 0
M  V30 13641 H 2327.63 8.13644 -3.0377 0
M  V30 13642 H 2327.36 6.42788 -2.55485 0
M  V30 13643 H 2328.22 8.12039 -0.792769 0
M  V30 13644 P 2332.19 8.91 -5.17477e-11 0
M  V30 13645 O 2332.41 10.1726 0.733694 0
M  V30 13646 O 2332.98 8.73148 -1.23936 0
M  V30 13647 O 2332.44 7.66872 0.971405 0
M  V30 13648 C 2331.5 7.42309 2.04641 0
M  V30 13649 C 2332.23 6.86059 3.24661 0
M  V30 13650 O 2332.44 5.42847 3.03646 0
M  V30 13651 C 2333.63 7.41196 3.50753 0
M  V30 13652 O 2334.02 7.27073 4.86816 0
M  V30 13653 C 2334.51 6.5273 2.63741 0
M  V30 13654 C 2333.8 5.1842 2.73198 0
M  V30 13655 N 2333.85 4.38762 1.4784 0
M  V30 13656 H 2331.01 8.36803 2.32493 0
M  V30 13657 H 2330.74 6.70197 1.71129 0
M  V30 13658 H 2331.6 7.03551 4.13168 0
M  V30 13659 P 2335.57 7.20834 5.23717 0
M  V30 13660 O 2335.79 7.80006 6.57415 0
M  V30 13661 O 2336.36 7.79416 4.13051 0
M  V30 13662 O 2335.82 5.63315 5.29344 0
M  V30 13663 C 2334.88 4.80318 6.01954 0
M  V30 13664 C 2335.61 3.64202 6.65911 0
M  V30 13665 O 2335.82 2.60736 5.64823 0
M  V30 13666 C 2337.01 3.93521 7.19518 0
M  V30 13667 O 2337.4 3.02071 8.21205 0
M  V30 13668 C 2337.89 3.73047 5.97036 0
M  V30 13669 C 2337.18 2.58828 5.25741 0
M  V30 13670 N 2337.23 2.68068 3.77503 0
M  V30 13671 C 2337.15 3.80474 2.99159 0
M  V30 13672 N 2337.22 3.55622 1.71925 0
M  V30 13673 C 2337.37 2.1832 1.65733 0
M  V30 13674 C 2337.5 1.28842 0.572777 0
M  V30 13675 N 2337.51 1.66875 -0.70098 0
M  V30 13676 N 2337.62 -0.016788 0.859836 0
M  V30 13677 C 2337.61 -0.398145 2.13316 0
M  V30 13678 N 2337.49 0.328224 3.22333 0
M  V30 13679 C 2337.37 1.62992 2.90383 0
M  V30 13680 H 2334.39 5.40394 6.8003 0
M  V30 13681 H 2334.12 4.41741 5.32532 0
M  V30 13682 H 2334.98 3.26371 7.47889 0
M  V30 13683 H 2337.64 1.64007 5.56746 0
M  V30 13684 H 2337.92 4.63439 5.3432 0
M  V30 13685 H 2338.91 3.44776 6.25925 0
M  V30 13686 H 2337.08 4.96707 7.57347 0
M  V30 13687 H 2337.04 4.8089 3.39924 0
M  V30 13688 H 2337.42 2.66547 -0.941919 0
M  V30 13689 H 2337.61 0.965341 -1.44766 0
M  V30 13690 H 2337.71 -1.46427 2.29697 0
M  V30 13691 P 2338.95 2.75334 8.47391 0
M  V30 13692 O 2339.17 2.44571 9.90142 0
M  V30 13693 O 2339.74 3.87688 7.92115 0
M  V30 13694 O 2339.2 1.4459 7.59357 0
M  V30 13695 C 2338.26 0.347608 7.69215 0
M  V30 13696 C 2338.99 -0.96767 7.52806 0
M  V30 13697 O 2339.2 -1.21036 6.1011 0
M  V30 13698 C 2340.39 -1.04544 8.13308 0
M  V30 13699 O 2340.78 -2.38311 8.41922 0
M  V30 13700 C 2341.27 -0.491279 7.02284 0
M  V30 13701 C 2340.56 -0.996264 5.77469 0
M  V30 13702 N 2340.61 -0.0501916 4.62973 0
M  V30 13703 H 2337.77 0.374722 8.67691 0
M  V30 13704 H 2337.5 0.443485 6.90277 0
M  V30 13705 H 2338.36 -1.75537 7.96793 0
M  V30 13706 P 2342.33 -2.75334 8.47391 0
M  V30 13707 O 2342.55 -3.84128 9.44797 0
M  V30 13708 O 2343.12 -1.51947 8.68712 0
M  V30 13709 O 2342.58 -3.29363 6.99321 0
M  V30 13710 C 2341.64 -4.24011 6.4274 0
M  V30 13711 C 2342.37 -5.20775 5.52155 0
M  V30 13712 O 2342.58 -4.56534 4.22446 0
M  V30 13713 C 2343.77 -5.62629 5.96531 0
M  V30 13714 O 2344.16 -6.87667 5.41053 0
M  V30 13715 C 2344.65 -4.52537 5.39283 0
M  V30 13716 C 2343.94 -4.20027 4.08623 0
M  V30 13717 N 2343.99 -2.76189 3.71603 0
M  V30 13718 H 2341.15 -4.797 7.24003 0
M  V30 13719 H 2340.88 -3.69856 5.84513 0
M  V30 13720 H 2341.74 -6.10356 5.41441 0
M  V30 13721 P 2345.71 -7.20834 5.23717 0
M  V30 13722 O 2345.93 -8.66274 5.38678 0
M  V30 13723 O 2346.5 -6.33687 6.13629 0
M  V30 13724 O 2345.96 -6.7751 3.72168 0
M  V30 13725 C 2345.02 -7.20919 2.70795 0
M  V30 13726 C 2345.75 -7.45864 1.40599 0
M  V30 13727 O 2345.96 -6.17751 0.734343 0
M  V30 13728 C 2347.15 -8.05906 1.51917 0
M  V30 13729 O 2347.54 -8.74358 0.335205 0
M  V30 13730 C 2348.03 -6.83093 1.70294 0
M  V30 13731 C 2347.32 -5.79992 0.836974 0
M  V30 13732 N 2347.37 -4.41864 1.38293 0
M  V30 13733 C 2347.29 -4.02089 2.69407 0
M  V30 13734 N 2347.36 -2.73403 2.85089 0
M  V30 13735 C 2347.51 -2.25086 1.5642 0
M  V30 13736 C 2347.64 -0.942887 1.04836 0
M  V30 13737 N 2347.65 0.150999 1.80369 0
M  V30 13738 N 2347.76 -0.812565 -0.28167 0
M  V30 13739 C 2347.75 -1.90572 -1.03784 0
M  V30 13740 N 2347.63 -3.167 -0.683905 0
M  V30 13741 C 2347.51 -3.26538 0.652815 0
M  V30 13742 H 2344.53 -8.13738 3.03804 0
M  V30 13743 H 2344.26 -6.42974 2.55559 0
M  V30 13744 H 2345.12 -8.12139 0.792866 0
M  V30 13745 H 2347.78 -5.80178 -0.160643 0
M  V30 13746 H 2348.06 -6.51379 2.75643 0
M  V30 13747 H 2349.05 -7.01832 1.3448 0
M  V30 13748 H 2347.22 -8.73771 2.38364 0
M  V30 13749 H 2347.18 -4.7189 3.52311 0
M  V30 13750 H 2347.56 0.0721434 2.82608 0
M  V30 13751 H 2347.75 1.0785 1.36544 0
M  V30 13752 H 2347.85 -1.73207 -2.10241 0
M  V30 13753 P 2349.09 -8.91 5.28567e-11 0
M  V30 13754 O 2349.31 -10.1726 -0.733694 0
M  V30 13755 O 2349.88 -8.73148 1.23936 0
M  V30 13756 O 2349.34 -7.66872 -0.971405 0
M  V30 13757 C 2348.4 -7.42309 -2.04641 0
M  V30 13758 C 2349.13 -6.86059 -3.24661 0
M  V30 13759 O 2349.34 -5.42847 -3.03646 0
M  V30 13760 C 2350.53 -7.41196 -3.50753 0
M  V30 13761 O 2350.92 -7.27073 -4.86816 0
M  V30 13762 C 2351.41 -6.5273 -2.63741 0
M  V30 13763 C 2350.7 -5.1842 -2.73198 0
M  V30 13764 N 2350.75 -4.38762 -1.4784 0
M  V30 13765 H 2347.91 -8.36803 -2.32493 0
M  V30 13766 H 2347.64 -6.70197 -1.71129 0
M  V30 13767 H 2348.5 -7.03551 -4.13168 0
M  V30 13768 P 2352.47 -7.20834 -5.23717 0
M  V30 13769 O 2352.69 -7.79853 -6.57286 0
M  V30 13770 O 2353.26 -7.79239 -4.12957 0
M  V30 13771 O 2352.72 -5.63315 -5.29344 0
M  V30 13772 C 2351.78 -4.80255 -6.01876 0
M  V30 13773 C 2352.51 -3.64202 -6.65911 0
M  V30 13774 O 2352.72 -2.60694 -5.64732 0
M  V30 13775 C 2353.91 -3.93473 -7.1943 0
M  V30 13776 O 2354.3 -3.02071 -8.21205 0
M  V30 13777 C 2354.79 -3.73047 -5.97036 0
M  V30 13778 C 2354.08 -2.58828 -5.25741 0
M  V30 13779 N 2354.13 -2.68068 -3.77503 0
M  V30 13780 H 2351.29 -5.40332 -6.79951 0
M  V30 13781 H 2351.02 -4.41613 -5.32378 0
M  V30 13782 H 2351.88 -3.26331 -7.47797 0
M  V30 13783 P 2355.85 -2.75334 -8.47391 0
M  V30 13784 O 2356.07 -2.44571 -9.90142 0
M  V30 13785 O 2356.64 -3.87688 -7.92115 0
M  V30 13786 O 2356.1 -1.4459 -7.59357 0
M  V30 13787 C 2355.16 -0.347608 -7.69215 0
M  V30 13788 C 2355.89 0.96767 -7.52806 0
M  V30 13789 O 2356.1 1.21036 -6.1011 0
M  V30 13790 C 2357.29 1.04544 -8.13308 0
M  V30 13791 O 2357.68 2.38311 -8.41922 0
M  V30 13792 C 2358.17 0.491279 -7.02284 0
M  V30 13793 C 2357.46 0.996264 -5.77469 0
M  V30 13794 N 2357.51 0.0501916 -4.62973 0
M  V30 13795 H 2354.67 -0.374722 -8.67691 0
M  V30 13796 H 2354.4 -0.443485 -6.90277 0
M  V30 13797 H 2355.26 1.75537 -7.96793 0
M  V30 13798 P 2359.23 2.75334 -8.47391 0
M  V30 13799 O 2359.45 3.84166 -9.4489 0
M  V30 13800 O 2360.02 1.51964 -8.6881 0
M  V30 13801 O 2359.48 3.29363 -6.99321 0
M  V30 13802 C 2358.54 4.23956 -6.42656 0
M  V30 13803 C 2359.27 5.20775 -5.52155 0
M  V30 13804 O 2359.48 4.56534 -4.22446 0
M  V30 13805 C 2360.67 5.62629 -5.96531 0
M  V30 13806 O 2361.06 6.87667 -5.41053 0
M  V30 13807 C 2361.55 4.52537 -5.39283 0
M  V30 13808 C 2360.84 4.20027 -4.08623 0
M  V30 13809 N 2360.89 2.7613 -3.71522 0
M  V30 13810 C 2361.04 2.45612 -2.37989 0
M  V30 13811 O 2361.13 3.30919 -1.51621 0
M  V30 13812 N 2361.08 1.10684 -2.08435 0
M  V30 13813 C 2360.99 0.0690084 -2.9792 0
M  V30 13814 C 2360.84 0.481522 -4.35345 0
M  V30 13815 C 2360.79 1.78906 -4.67968 0
M  V30 13816 H 2358.05 4.797 -7.24003 0
M  V30 13817 H 2357.78 3.69802 -5.84429 0
M  V30 13818 H 2358.64 6.10356 -5.41441 0
M  V30 13819 H 2361.3 4.78651 -3.27911 0
M  V30 13820 H 2361.58 3.64957 -6.05871 0
M  V30 13821 H 2362.57 4.8868 -5.2125 0
M  V30 13822 H 2360.74 5.66726 -7.06352 0
M  V30 13823 H 2360.67 2.07737 -5.72367 0
M  V30 13824 P 2362.61 7.20834 -5.23717 0
M  V30 13825 O 2362.83 8.66104 -5.38572 0
M  V30 13826 O 2363.4 6.33544 -6.1349 0
M  V30 13827 O 2362.86 6.7751 -3.72168 0
M  V30 13828 C 2361.92 7.20825 -2.7076 0
M  V30 13829 C 2362.65 7.45864 -1.40599 0
M  V30 13830 O 2362.86 6.17651 -0.734225 0
M  V30 13831 C 2364.05 8.05808 -1.51899 0
M  V30 13832 O 2364.44 8.74358 -0.335205 0
M  V30 13833 C 2364.93 6.83093 -1.70294 0
M  V30 13834 C 2364.22 5.79992 -0.836974 0
M  V30 13835 N 2364.27 4.41864 -1.38293 0
M  V30 13836 H 2361.43 8.13644 -3.0377 0
M  V30 13837 H 2361.16 6.42788 -2.55485 0
M  V30 13838 H 2362.02 8.12039 -0.792769 0
M  V30 13839 P 2365.99 8.91 -5.39657e-11 0
M  V30 13840 O 2366.21 10.1726 0.733694 0
M  V30 13841 O 2366.78 8.73148 -1.23936 0
M  V30 13842 O 2366.24 7.66872 0.971405 0
M  V30 13843 C 2365.3 7.42309 2.04641 0
M  V30 13844 C 2366.03 6.86059 3.24661 0
M  V30 13845 O 2366.24 5.42847 3.03646 0
M  V30 13846 C 2367.43 7.41196 3.50753 0
M  V30 13847 O 2367.82 7.27073 4.86816 0
M  V30 13848 C 2368.31 6.5273 2.63741 0
M  V30 13849 C 2367.6 5.1842 2.73198 0
M  V30 13850 N 2367.65 4.38762 1.4784 0
M  V30 13851 H 2364.81 8.36803 2.32493 0
M  V30 13852 H 2364.54 6.70197 1.71129 0
M  V30 13853 H 2365.4 7.03551 4.13168 0
M  V30 13854 P 2369.37 7.20834 5.23717 0
M  V30 13855 O 2369.59 7.79853 6.57286 0
M  V30 13856 O 2370.16 7.79239 4.12957 0
M  V30 13857 O 2369.62 5.63315 5.29344 0
M  V30 13858 C 2368.68 4.80255 6.01876 0
M  V30 13859 C 2369.41 3.64202 6.65911 0
M  V30 13860 O 2369.62 2.60694 5.64732 0
M  V30 13861 C 2370.81 3.93473 7.1943 0
M  V30 13862 O 2371.2 3.02071 8.21205 0
M  V30 13863 C 2371.69 3.73047 5.97036 0
M  V30 13864 C 2370.98 2.58828 5.25741 0
M  V30 13865 N 2371.03 2.68068 3.77503 0
M  V30 13866 H 2368.19 5.40332 6.79951 0
M  V30 13867 H 2367.92 4.41613 5.32378 0
M  V30 13868 H 2368.78 3.26331 7.47797 0
M  V30 13869 P 2372.75 2.75334 8.47391 0
M  V30 13870 O 2372.97 2.44571 9.90142 0
M  V30 13871 O 2373.54 3.87688 7.92115 0
M  V30 13872 O 2373 1.4459 7.59357 0
M  V30 13873 C 2372.06 0.347608 7.69215 0
M  V30 13874 C 2372.79 -0.96767 7.52806 0
M  V30 13875 O 2373 -1.21036 6.1011 0
M  V30 13876 C 2374.19 -1.04544 8.13308 0
M  V30 13877 O 2374.58 -2.38311 8.41922 0
M  V30 13878 C 2375.07 -0.491279 7.02284 0
M  V30 13879 C 2374.36 -0.996264 5.77469 0
M  V30 13880 N 2374.41 -0.0501916 4.62973 0
M  V30 13881 H 2371.57 0.374722 8.67691 0
M  V30 13882 H 2371.3 0.443485 6.90277 0
M  V30 13883 H 2372.16 -1.75537 7.96793 0
M  V30 13884 P 2376.13 -2.75334 8.47391 0
M  V30 13885 O 2376.35 -3.84204 9.44982 0
M  V30 13886 O 2376.92 -1.51982 8.68909 0
M  V30 13887 O 2376.38 -3.29363 6.99321 0
M  V30 13888 C 2375.44 -4.24066 6.42823 0
M  V30 13889 C 2376.17 -5.20775 5.52155 0
M  V30 13890 O 2376.38 -4.56607 4.22514 0
M  V30 13891 C 2377.57 -5.62697 5.96604 0
M  V30 13892 O 2377.96 -6.87667 5.41053 0
M  V30 13893 C 2378.45 -4.52537 5.39283 0
M  V30 13894 C 2377.74 -4.20027 4.08623 0
M  V30 13895 N 2377.79 -2.76189 3.71603 0
M  V30 13896 C 2377.71 -1.66944 4.54297 0
M  V30 13897 N 2377.78 -0.536169 3.91344 0
M  V30 13898 C 2377.93 -0.901569 2.58849 0
M  V30 13899 C 2378.06 -0.146599 1.40236 0
M  V30 13900 N 2378.07 1.18234 1.37046 0
M  V30 13901 N 2378.18 -0.822941 0.249738 0
M  V30 13902 C 2378.17 -2.15179 0.280525 0
M  V30 13903 N 2378.05 -2.96414 1.30822 0
M  V30 13904 C 2377.93 -2.25804 2.44748 0
M  V30 13905 H 2374.95 -4.79756 7.24086 0
M  V30 13906 H 2374.68 -3.69963 5.84682 0
M  V30 13907 H 2375.54 -6.10431 5.41508 0
M  V30 13908 H 2378.2 -4.78816 3.28024 0
M  V30 13909 H 2378.48 -3.64957 6.05871 0
M  V30 13910 H 2379.47 -4.88748 5.21323 0
M  V30 13911 H 2377.64 -5.66789 7.0643 0
M  V30 13912 H 2377.59 -1.74684 5.62396 0
M  V30 13913 H 2377.98 1.71949 2.24394 0
M  V30 13914 H 2378.16 1.67511 0.470742 0
M  V30 13915 H 2378.27 -2.63704 -0.6828 0
M  V30 13916 P 2379.51 -7.20834 5.23717 0
M  V30 13917 O 2379.73 -8.66104 5.38572 0
M  V30 13918 O 2380.3 -6.33544 6.1349 0
M  V30 13919 O 2379.76 -6.7751 3.72168 0
M  V30 13920 C 2378.82 -7.20825 2.7076 0
M  V30 13921 C 2379.55 -7.45864 1.40599 0
M  V30 13922 O 2379.76 -6.17651 0.734225 0
M  V30 13923 C 2380.95 -8.05808 1.51899 0
M  V30 13924 O 2381.34 -8.74358 0.335205 0
M  V30 13925 C 2381.83 -6.83093 1.70294 0
M  V30 13926 C 2381.12 -5.79992 0.836974 0
M  V30 13927 N 2381.17 -4.41864 1.38293 0
M  V30 13928 H 2378.33 -8.13644 3.0377 0
M  V30 13929 H 2378.06 -6.42788 2.55485 0
M  V30 13930 H 2378.92 -8.12039 0.792769 0
M  V30 13931 P 2382.89 -8.91 5.50747e-11 0
M  V30 13932 O 2383.11 -10.1736 -0.733766 0
M  V30 13933 O 2383.68 -8.73247 1.2395 0
M  V30 13934 O 2383.14 -7.66872 -0.971405 0
M  V30 13935 C 2382.2 -7.42212 -2.04614 0
M  V30 13936 C 2382.93 -6.86059 -3.24661 0
M  V30 13937 O 2383.14 -5.42847 -3.03646 0
M  V30 13938 C 2384.33 -7.41196 -3.50753 0
M  V30 13939 O 2384.72 -7.27073 -4.86816 0
M  V30 13940 C 2385.21 -6.5273 -2.63741 0
M  V30 13941 C 2384.5 -5.1842 -2.73198 0
M  V30 13942 N 2384.55 -4.38668 -1.47808 0
M  V30 13943 C 2384.7 -3.02239 -1.60048 0
M  V30 13944 O 2384.79 -2.46459 -2.67869 0
M  V30 13945 N 2384.74 -2.32436 -0.408571 0
M  V30 13946 C 2384.65 -2.85471 0.854993 0
M  V30 13947 C 2384.5 -4.28918 0.887335 0
M  V30 13948 C 2384.45 -5.00349 -0.255399 0
M  V30 13949 H 2381.71 -8.36803 -2.32493 0
M  V30 13950 H 2381.44 -6.701 -1.71105 0
M  V30 13951 H 2382.3 -7.03551 -4.13168 0
M  V30 13952 H 2384.96 -4.59773 -3.53894 0
M  V30 13953 H 2385.24 -6.88995 -1.59871 0
M  V30 13954 H 2386.23 -6.46749 -3.03687 0
M  V30 13955 H 2384.4 -8.46908 -3.20714 0
M  V30 13956 H 2384.32 -6.08548 -0.206986 0
M  V30 13957 P 2386.27 -7.20834 -5.23717 0
M  V30 13958 O 2386.49 -7.79853 -6.57286 0
M  V30 13959 O 2387.06 -7.79239 -4.12957 0
M  V30 13960 O 2386.52 -5.63315 -5.29344 0
M  V30 13961 C 2385.58 -4.80255 -6.01876 0
M  V30 13962 C 2386.31 -3.64202 -6.65911 0
M  V30 13963 O 2386.52 -2.60694 -5.64732 0
M  V30 13964 C 2387.71 -3.93473 -7.1943 0
M  V30 13965 O 2388.1 -3.02071 -8.21205 0
M  V30 13966 C 2388.59 -3.73047 -5.97036 0
M  V30 13967 C 2387.88 -2.58828 -5.25741 0
M  V30 13968 N 2387.93 -2.68068 -3.77503 0
M  V30 13969 H 2385.09 -5.40332 -6.79951 0
M  V30 13970 H 2384.82 -4.41613 -5.32378 0
M  V30 13971 H 2385.68 -3.26331 -7.47797 0
M  V30 13972 P 2389.65 -2.75334 -8.47391 0
M  V30 13973 O 2389.87 -2.44571 -9.90142 0
M  V30 13974 O 2390.44 -3.87688 -7.92115 0
M  V30 13975 O 2389.9 -1.4459 -7.59357 0
M  V30 13976 C 2388.96 -0.347608 -7.69215 0
M  V30 13977 C 2389.69 0.96767 -7.52806 0
M  V30 13978 O 2389.9 1.21036 -6.1011 0
M  V30 13979 C 2391.09 1.04544 -8.13308 0
M  V30 13980 O 2391.48 2.38311 -8.41922 0
M  V30 13981 C 2391.97 0.491279 -7.02284 0
M  V30 13982 C 2391.26 0.996264 -5.77469 0
M  V30 13983 N 2391.31 0.0501916 -4.62973 0
M  V30 13984 H 2388.47 -0.374722 -8.67691 0
M  V30 13985 H 2388.2 -0.443485 -6.90277 0
M  V30 13986 H 2389.06 1.75537 -7.96793 0
M  V30 13987 P 2393.03 2.75334 -8.47391 0
M  V30 13988 O 2393.25 3.84128 -9.44797 0
M  V30 13989 O 2393.82 1.51947 -8.68712 0
M  V30 13990 O 2393.28 3.29363 -6.99321 0
M  V30 13991 C 2392.34 4.24011 -6.4274 0
M  V30 13992 C 2393.07 5.20775 -5.52155 0
M  V30 13993 O 2393.28 4.56534 -4.22446 0
M  V30 13994 C 2394.47 5.62629 -5.96531 0
M  V30 13995 O 2394.86 6.87667 -5.41053 0
M  V30 13996 C 2395.35 4.52537 -5.39283 0
M  V30 13997 C 2394.64 4.20027 -4.08623 0
M  V30 13998 N 2394.69 2.76189 -3.71603 0
M  V30 13999 H 2391.85 4.797 -7.24003 0
M  V30 14000 H 2391.58 3.69856 -5.84513 0
M  V30 14001 H 2392.44 6.10356 -5.41441 0
M  V30 14002 P 2396.41 7.20834 -5.23717 0
M  V30 14003 O 2396.63 8.66104 -5.38572 0
M  V30 14004 O 2397.2 6.33544 -6.1349 0
M  V30 14005 O 2396.66 6.7751 -3.72168 0
M  V30 14006 C 2395.72 7.20825 -2.7076 0
M  V30 14007 C 2396.45 7.45864 -1.40599 0
M  V30 14008 O 2396.66 6.17651 -0.734225 0
M  V30 14009 C 2397.85 8.05808 -1.51899 0
M  V30 14010 O 2398.24 8.74358 -0.335205 0
M  V30 14011 C 2398.73 6.83093 -1.70294 0
M  V30 14012 C 2398.02 5.79992 -0.836974 0
M  V30 14013 N 2398.07 4.41864 -1.38293 0
M  V30 14014 H 2395.23 8.13644 -3.0377 0
M  V30 14015 H 2394.96 6.42788 -2.55485 0
M  V30 14016 H 2395.82 8.12039 -0.792769 0
M  V30 14017 P 2399.79 8.91 -5.61837e-11 0
M  V30 14018 O 2400.01 10.1726 0.733694 0
M  V30 14019 O 2400.58 8.73148 -1.23936 0
M  V30 14020 O 2400.04 7.66872 0.971405 0
M  V30 14021 C 2399.1 7.42309 2.04641 0
M  V30 14022 C 2399.83 6.86059 3.24661 0
M  V30 14023 O 2400.04 5.42847 3.03646 0
M  V30 14024 C 2401.23 7.41196 3.50753 0
M  V30 14025 O 2401.62 7.27073 4.86816 0
M  V30 14026 C 2402.11 6.5273 2.63741 0
M  V30 14027 C 2401.4 5.1842 2.73198 0
M  V30 14028 N 2401.45 4.38762 1.4784 0
M  V30 14029 H 2398.61 8.36803 2.32493 0
M  V30 14030 H 2398.34 6.70197 1.71129 0
M  V30 14031 H 2399.2 7.03551 4.13168 0
M  V30 14032 P 2403.17 7.20834 5.23717 0
M  V30 14033 O 2403.39 7.79853 6.57286 0
M  V30 14034 O 2403.96 7.79239 4.12957 0
M  V30 14035 O 2403.42 5.63315 5.29344 0
M  V30 14036 C 2402.48 4.80255 6.01876 0
M  V30 14037 C 2403.21 3.64202 6.65911 0
M  V30 14038 O 2403.42 2.60694 5.64732 0
M  V30 14039 C 2404.61 3.93473 7.1943 0
M  V30 14040 O 2405 3.02071 8.21205 0
M  V30 14041 C 2405.49 3.73047 5.97036 0
M  V30 14042 C 2404.78 2.58828 5.25741 0
M  V30 14043 N 2404.83 2.68068 3.77503 0
M  V30 14044 C 2404.75 3.79715 2.96723 0
M  V30 14045 N 2404.83 3.5377 1.68852 0
M  V30 14046 C 2404.97 2.15054 1.63254 0
M  V30 14047 C 2405.1 1.28964 0.518571 0
M  V30 14048 N 2405.22 -0.0538097 0.918425 0
M  V30 14049 C 2405.22 -0.494275 2.22578 0
M  V30 14050 N 2405.35 -1.81086 2.40434 0
M  V30 14051 N 2405.09 0.313645 3.27502 0
M  V30 14052 C 2404.97 1.61829 2.91033 0
M  V30 14053 H 2401.99 5.40332 6.79951 0
M  V30 14054 H 2401.72 4.41613 5.32378 0
M  V30 14055 H 2402.58 3.26331 7.47797 0
M  V30 14056 P 2406.55 2.75334 8.47391 0
M  V30 14057 O 2406.77 2.44571 9.90142 0
M  V30 14058 O 2407.34 3.87688 7.92115 0
M  V30 14059 O 2406.8 1.4459 7.59357 0
M  V30 14060 C 2405.86 0.347608 7.69215 0
M  V30 14061 C 2406.59 -0.96767 7.52806 0
M  V30 14062 O 2406.8 -1.21036 6.1011 0
M  V30 14063 C 2407.99 -1.04544 8.13308 0
M  V30 14064 O 2408.38 -2.38311 8.41922 0
M  V30 14065 C 2408.87 -0.491279 7.02284 0
M  V30 14066 C 2408.16 -0.996264 5.77469 0
M  V30 14067 N 2408.21 -0.0501916 4.62973 0
M  V30 14068 H 2405.37 0.374722 8.67691 0
M  V30 14069 H 2405.1 0.443485 6.90277 0
M  V30 14070 H 2405.96 -1.75537 7.96793 0
M  V30 14071 P 2409.93 -2.75334 8.47391 0
M  V30 14072 O 2410.15 -3.84204 9.44982 0
M  V30 14073 O 2410.72 -1.51982 8.68909 0
M  V30 14074 O 2410.18 -3.29363 6.99321 0
M  V30 14075 C 2409.24 -4.24066 6.42823 0
M  V30 14076 C 2409.97 -5.20775 5.52155 0
M  V30 14077 O 2410.18 -4.56607 4.22514 0
M  V30 14078 C 2411.37 -5.62697 5.96604 0
M  V30 14079 O 2411.76 -6.87667 5.41053 0
M  V30 14080 C 2412.25 -4.52537 5.39283 0
M  V30 14081 C 2411.54 -4.20027 4.08623 0
M  V30 14082 N 2411.59 -2.76189 3.71603 0
M  V30 14083 H 2408.75 -4.79756 7.24086 0
M  V30 14084 H 2408.48 -3.69963 5.84682 0
M  V30 14085 H 2409.34 -6.10431 5.41508 0
M  V30 14086 H 2412 -4.78816 3.28024 0
M  V30 14087 H 2412.28 -3.64957 6.05871 0
M  V30 14088 H 2413.27 -4.88748 5.21323 0
M  V30 14089 H 2411.44 -5.66789 7.0643 0
M  V30 14090 P 2413.31 -7.20834 5.23717 0
M  V30 14091 O 2413.53 -8.66274 5.38678 0
M  V30 14092 O 2414.1 -6.33687 6.13629 0
M  V30 14093 O 2413.56 -6.7751 3.72168 0
M  V30 14094 C 2412.62 -7.20919 2.70795 0
M  V30 14095 C 2413.35 -7.45864 1.40599 0
M  V30 14096 O 2413.56 -6.17751 0.734343 0
M  V30 14097 C 2414.75 -8.05906 1.51917 0
M  V30 14098 O 2415.14 -8.74358 0.335205 0
M  V30 14099 C 2415.63 -6.83093 1.70294 0
M  V30 14100 C 2414.92 -5.79992 0.836974 0
M  V30 14101 N 2414.97 -4.41864 1.38293 0
M  V30 14102 C 2414.89 -4.02089 2.69407 0
M  V30 14103 N 2414.96 -2.73403 2.85089 0
M  V30 14104 C 2415.11 -2.25086 1.5642 0
M  V30 14105 C 2415.24 -0.942887 1.04836 0
M  V30 14106 N 2415.25 0.150999 1.80369 0
M  V30 14107 N 2415.36 -0.812565 -0.28167 0
M  V30 14108 C 2415.35 -1.90572 -1.03784 0
M  V30 14109 N 2415.23 -3.167 -0.683905 0
M  V30 14110 C 2415.11 -3.26538 0.652815 0
M  V30 14111 H 2412.13 -8.13738 3.03804 0
M  V30 14112 H 2411.86 -6.42974 2.55559 0
M  V30 14113 H 2412.72 -8.12139 0.792866 0
M  V30 14114 H 2415.38 -5.80178 -0.160643 0
M  V30 14115 H 2415.66 -6.51379 2.75643 0
M  V30 14116 H 2416.65 -7.01832 1.3448 0
M  V30 14117 H 2414.82 -8.73771 2.38364 0
M  V30 14118 H 2414.77 -4.7189 3.52311 0
M  V30 14119 H 2415.16 0.0721434 2.82608 0
M  V30 14120 H 2415.34 1.0785 1.36544 0
M  V30 14121 H 2415.45 -1.73207 -2.10241 0
M  V30 14122 P 2416.69 -8.91 5.72927e-11 0
M  V30 14123 O 2416.91 -10.1746 -0.733838 0
M  V30 14124 O 2417.48 -8.73346 1.23964 0
M  V30 14125 O 2416.94 -7.66872 -0.971405 0
M  V30 14126 C 2416 -7.42405 -2.04668 0
M  V30 14127 C 2416.73 -6.86059 -3.24661 0
M  V30 14128 O 2416.94 -5.42934 -3.03695 0
M  V30 14129 C 2418.13 -7.41287 -3.50796 0
M  V30 14130 O 2418.52 -7.27073 -4.86816 0
M  V30 14131 C 2419.01 -6.5273 -2.63741 0
M  V30 14132 C 2418.3 -5.1842 -2.73198 0
M  V30 14133 N 2418.35 -4.38762 -1.4784 0
M  V30 14134 H 2415.51 -8.36899 -2.3252 0
M  V30 14135 H 2415.24 -6.70391 -1.71179 0
M  V30 14136 H 2416.1 -7.03638 -4.13219 0
M  V30 14137 H 2418.76 -4.59931 -3.54016 0
M  V30 14138 H 2419.04 -6.88995 -1.59871 0
M  V30 14139 H 2420.03 -6.4684 -3.0373 0
M  V30 14140 H 2418.2 -8.47002 -3.20749 0
M  V30 14141 P 2420.07 -7.20834 -5.23717 0
M  V30 14142 O 2420.29 -7.79853 -6.57286 0
M  V30 14143 O 2420.86 -7.79239 -4.12957 0
M  V30 14144 O 2420.32 -5.63315 -5.29344 0
M  V30 14145 C 2419.38 -4.80255 -6.01876 0
M  V30 14146 C 2420.11 -3.64202 -6.65911 0
M  V30 14147 O 2420.32 -2.60694 -5.64732 0
M  V30 14148 C 2421.51 -3.93473 -7.1943 0
M  V30 14149 O 2421.9 -3.02071 -8.21205 0
M  V30 14150 C 2422.39 -3.73047 -5.97036 0
M  V30 14151 C 2421.68 -2.58828 -5.25741 0
M  V30 14152 N 2421.73 -2.68068 -3.77503 0
M  V30 14153 H 2418.89 -5.40332 -6.79951 0
M  V30 14154 H 2418.62 -4.41613 -5.32378 0
M  V30 14155 H 2419.48 -3.26331 -7.47797 0
M  V30 14156 P 2423.45 -2.75334 -8.47391 0
M  V30 14157 O 2423.67 -2.44571 -9.90142 0
M  V30 14158 O 2424.24 -3.87688 -7.92115 0
M  V30 14159 O 2423.7 -1.4459 -7.59357 0
M  V30 14160 C 2422.76 -0.347608 -7.69215 0
M  V30 14161 C 2423.49 0.96767 -7.52806 0
M  V30 14162 O 2423.7 1.21036 -6.1011 0
M  V30 14163 C 2424.89 1.04544 -8.13308 0
M  V30 14164 O 2425.28 2.38311 -8.41922 0
M  V30 14165 C 2425.77 0.491279 -7.02284 0
M  V30 14166 C 2425.06 0.996264 -5.77469 0
M  V30 14167 N 2425.11 0.0501916 -4.62973 0
M  V30 14168 H 2422.27 -0.374722 -8.67691 0
M  V30 14169 H 2422 -0.443485 -6.90277 0
M  V30 14170 H 2422.86 1.75537 -7.96793 0
M  V30 14171 P 2426.83 2.75334 -8.47391 0
M  V30 14172 O 2427.05 3.84128 -9.44797 0
M  V30 14173 O 2427.62 1.51947 -8.68712 0
M  V30 14174 O 2427.08 3.29363 -6.99321 0
M  V30 14175 C 2426.14 4.24011 -6.4274 0
M  V30 14176 C 2426.87 5.20775 -5.52155 0
M  V30 14177 O 2427.08 4.56534 -4.22446 0
M  V30 14178 C 2428.27 5.62629 -5.96531 0
M  V30 14179 O 2428.66 6.87667 -5.41053 0
M  V30 14180 C 2429.15 4.52537 -5.39283 0
M  V30 14181 C 2428.44 4.20027 -4.08623 0
M  V30 14182 N 2428.49 2.76189 -3.71603 0
M  V30 14183 C 2428.41 1.64862 -4.52822 0
M  V30 14184 N 2428.49 0.512671 -3.88633 0
M  V30 14185 C 2428.63 0.888083 -2.54977 0
M  V30 14186 C 2428.76 0.094668 -1.38677 0
M  V30 14187 N 2428.88 0.890102 -0.232633 0
M  V30 14188 C 2428.88 2.26958 -0.21772 0
M  V30 14189 N 2429.01 2.84626 0.97925 0
M  V30 14190 N 2428.75 3.0178 -1.31033 0
M  V30 14191 C 2428.63 2.26781 -2.43843 0
M  V30 14192 H 2425.65 4.797 -7.24003 0
M  V30 14193 H 2425.38 3.69856 -5.84513 0
M  V30 14194 H 2426.24 6.10356 -5.41441 0
M  V30 14195 P 2430.21 7.20834 -5.23717 0
M  V30 14196 O 2430.43 8.66104 -5.38572 0
M  V30 14197 O 2431 6.33544 -6.1349 0
M  V30 14198 O 2430.46 6.7751 -3.72168 0
M  V30 14199 C 2429.52 7.20825 -2.7076 0
M  V30 14200 C 2430.25 7.45864 -1.40599 0
M  V30 14201 O 2430.46 6.17651 -0.734225 0
M  V30 14202 C 2431.65 8.05808 -1.51899 0
M  V30 14203 O 2432.04 8.74358 -0.335205 0
M  V30 14204 C 2432.53 6.83093 -1.70294 0
M  V30 14205 C 2431.82 5.79992 -0.836974 0
M  V30 14206 N 2431.87 4.41864 -1.38293 0
M  V30 14207 H 2429.03 8.13644 -3.0377 0
M  V30 14208 H 2428.76 6.42788 -2.55485 0
M  V30 14209 H 2429.62 8.12039 -0.792769 0
M  V30 14210 P 2433.59 8.91 -5.84017e-11 0
M  V30 14211 O 2433.81 10.1726 0.733694 0
M  V30 14212 O 2434.38 8.73148 -1.23936 0
M  V30 14213 O 2433.84 7.66872 0.971405 0
M  V30 14214 C 2432.9 7.42309 2.04641 0
M  V30 14215 C 2433.63 6.86059 3.24661 0
M  V30 14216 O 2433.84 5.42847 3.03646 0
M  V30 14217 C 2435.03 7.41196 3.50753 0
M  V30 14218 O 2435.42 7.27073 4.86816 0
M  V30 14219 C 2435.91 6.5273 2.63741 0
M  V30 14220 C 2435.2 5.1842 2.73198 0
M  V30 14221 N 2435.25 4.38762 1.4784 0
M  V30 14222 H 2432.41 8.36803 2.32493 0
M  V30 14223 H 2432.14 6.70197 1.71129 0
M  V30 14224 H 2433 7.03551 4.13168 0
M  V30 14225 P 2436.97 7.20834 5.23717 0
M  V30 14226 O 2437.19 7.79853 6.57286 0
M  V30 14227 O 2437.76 7.79239 4.12957 0
M  V30 14228 O 2437.22 5.63315 5.29344 0
M  V30 14229 C 2436.28 4.80255 6.01876 0
M  V30 14230 C 2437.01 3.64202 6.65911 0
M  V30 14231 O 2437.22 2.60694 5.64732 0
M  V30 14232 C 2438.41 3.93473 7.1943 0
M  V30 14233 O 2438.8 3.02071 8.21205 0
M  V30 14234 C 2439.29 3.73047 5.97036 0
M  V30 14235 C 2438.58 2.58828 5.25741 0
M  V30 14236 N 2438.63 2.68068 3.77503 0
M  V30 14237 C 2438.55 3.79715 2.96723 0
M  V30 14238 N 2438.63 3.5377 1.68852 0
M  V30 14239 C 2438.77 2.15054 1.63254 0
M  V30 14240 C 2438.9 1.28964 0.518571 0
M  V30 14241 O 2438.92 1.56826 -0.679156 0
M  V30 14242 N 2439.02 -0.0538097 0.918425 0
M  V30 14243 C 2439.02 -0.494275 2.22578 0
M  V30 14244 N 2439.15 -1.81086 2.40434 0
M  V30 14245 N 2438.89 0.313645 3.27502 0
M  V30 14246 C 2438.77 1.61829 2.91033 0
M  V30 14247 H 2435.79 5.40332 6.79951 0
M  V30 14248 H 2435.52 4.41613 5.32378 0
M  V30 14249 H 2436.38 3.26331 7.47797 0
M  V30 14250 H 2439.04 1.63422 5.56814 0
M  V30 14251 H 2439.32 4.63374 5.34244 0
M  V30 14252 H 2440.31 3.44728 6.25838 0
M  V30 14253 H 2438.48 4.96652 7.57263 0
M  V30 14254 H 2438.43 4.80617 3.3614 0
M  V30 14255 H 2439.11 -0.742702 0.199384 0
M  V30 14256 H 2439.15 -2.20598 3.35588 0
M  V30 14257 H 2439.25 -2.43518 1.58945 0
M  V30 14258 P 2440.35 2.75334 8.47391 0
M  V30 14259 O 2440.57 2.44571 9.90142 0
M  V30 14260 O 2441.14 3.87688 7.92115 0
M  V30 14261 O 2440.6 1.4459 7.59357 0
M  V30 14262 C 2439.66 0.347608 7.69215 0
M  V30 14263 C 2440.39 -0.96767 7.52806 0
M  V30 14264 O 2440.6 -1.21036 6.1011 0
M  V30 14265 C 2441.79 -1.04544 8.13308 0
M  V30 14266 O 2442.18 -2.38311 8.41922 0
M  V30 14267 C 2442.67 -0.491279 7.02284 0
M  V30 14268 C 2441.96 -0.996264 5.77469 0
M  V30 14269 N 2442.01 -0.0501916 4.62973 0
M  V30 14270 H 2439.17 0.374722 8.67691 0
M  V30 14271 H 2438.9 0.443485 6.90277 0
M  V30 14272 H 2439.76 -1.75537 7.96793 0
M  V30 14273 P 2443.73 -2.75334 8.47391 0
M  V30 14274 O 2443.95 -3.84128 9.44797 0
M  V30 14275 O 2444.52 -1.51947 8.68712 0
M  V30 14276 O 2443.98 -3.29363 6.99321 0
M  V30 14277 C 2443.04 -4.24011 6.4274 0
M  V30 14278 C 2443.77 -5.20775 5.52155 0
M  V30 14279 O 2443.98 -4.56534 4.22446 0
M  V30 14280 C 2445.17 -5.62629 5.96531 0
M  V30 14281 O 2445.56 -6.87667 5.41053 0
M  V30 14282 C 2446.05 -4.52537 5.39283 0
M  V30 14283 C 2445.34 -4.20027 4.08623 0
M  V30 14284 N 2445.39 -2.76189 3.71603 0
M  V30 14285 H 2442.55 -4.797 7.24003 0
M  V30 14286 H 2442.28 -3.69856 5.84513 0
M  V30 14287 H 2443.14 -6.10356 5.41441 0
M  V30 14288 P 2447.11 -7.20834 5.23717 0
M  V30 14289 O 2447.33 -8.66189 5.38625 0
M  V30 14290 O 2447.9 -6.33615 6.1356 0
M  V30 14291 O 2447.36 -6.7751 3.72168 0
M  V30 14292 C 2446.42 -7.20732 2.70725 0
M  V30 14293 C 2447.15 -7.45864 1.40599 0
M  V30 14294 O 2447.36 -6.17651 0.734225 0
M  V30 14295 C 2448.55 -8.05808 1.51899 0
M  V30 14296 O 2448.94 -8.74358 0.335205 0
M  V30 14297 C 2449.43 -6.83093 1.70294 0
M  V30 14298 C 2448.72 -5.79992 0.836974 0
M  V30 14299 N 2448.77 -4.41769 1.38263 0
M  V30 14300 C 2448.92 -3.38591 0.481702 0
M  V30 14301 O 2449.01 -3.56839 -0.718452 0
M  V30 14302 N 2448.96 -2.1206 1.03569 0
M  V30 14303 C 2448.87 -1.80696 2.36966 0
M  V30 14304 O 2448.92 -0.630473 2.74862 0
M  V30 14305 C 2448.72 -2.94845 3.23898 0
M  V30 14306 C 2448.61 -2.65253 4.70362 0
M  V30 14307 C 2448.67 -4.19803 2.73435 0
M  V30 14308 H 2445.93 -8.13644 3.0377 0
M  V30 14309 H 2445.66 -6.42695 2.55448 0
M  V30 14310 H 2446.52 -8.12039 0.792769 0
M  V30 14311 H 2449.18 -5.79978 -0.160587 0
M  V30 14312 H 2449.46 -6.51379 2.75643 0
M  V30 14313 H 2450.45 -7.01734 1.34462 0
M  V30 14314 H 2448.62 -8.73674 2.38337 0
M  V30 14315 H 2448.54 -5.04492 3.4095 0
M  V30 14316 H 2449.57 -2.83924 5.1913 0
M  V30 14317 H 2447.84 -3.29824 5.15163 0
M  V30 14318 H 2448.33 -1.59723 4.84449 0
M  V30 14319 H 2449.06 -1.35644 0.399345 0
M  V30 14320 P 2450.49 -8.91 5.95107e-11 0
M  V30 14321 O 2450.71 -10.1746 -0.733838 0
M  V30 14322 O 2451.28 -8.73346 1.23964 0
M  V30 14323 O 2450.74 -7.66872 -0.971405 0
M  V30 14324 C 2449.8 -7.42405 -2.04668 0
M  V30 14325 C 2450.53 -6.86059 -3.24661 0
M  V30 14326 O 2450.74 -5.42934 -3.03695 0
M  V30 14327 C 2451.93 -7.41287 -3.50796 0
M  V30 14328 O 2452.32 -7.27073 -4.86816 0
M  V30 14329 C 2452.81 -6.5273 -2.63741 0
M  V30 14330 C 2452.1 -5.1842 -2.73198 0
M  V30 14331 N 2452.15 -4.38762 -1.4784 0
M  V30 14332 C 2452.07 -4.83651 -0.183876 0
M  V30 14333 N 2452.14 -3.88759 0.699393 0
M  V30 14334 C 2452.29 -2.7404 -0.0575568 0
M  V30 14335 C 2452.42 -1.37902 0.293928 0
M  V30 14336 N 2452.43 -0.938021 1.54797 0
M  V30 14337 N 2452.54 -0.491817 -0.70549 0
M  V30 14338 C 2452.53 -0.931735 -1.95979 0
M  V30 14339 N 2452.41 -2.16017 -2.41481 0
M  V30 14340 C 2452.29 -3.02547 -1.39121 0
M  V30 14341 H 2449.31 -8.36899 -2.3252 0
M  V30 14342 H 2449.04 -6.70391 -1.71179 0
M  V30 14343 H 2449.9 -7.03638 -4.13219 0
M  V30 14344 H 2452.56 -4.59931 -3.54016 0
M  V30 14345 H 2452.84 -6.88995 -1.59871 0
M  V30 14346 H 2453.83 -6.4684 -3.0373 0
M  V30 14347 H 2452 -8.47002 -3.20749 0
M  V30 14348 H 2451.95 -5.8885 0.0765548 0
M  V30 14349 H 2452.34 -1.60276 2.32875 0
M  V30 14350 H 2452.52 0.0699355 1.73859 0
M  V30 14351 H 2452.63 -0.165507 -2.71897 0
M  V30 14352 P 2453.87 -7.20834 -5.23717 0
M  V30 14353 O 2454.09 -7.79853 -6.57286 0
M  V30 14354 O 2454.66 -7.79239 -4.12957 0
M  V30 14355 O 2454.12 -5.63315 -5.29344 0
M  V30 14356 C 2453.18 -4.80255 -6.01876 0
M  V30 14357 C 2453.91 -3.64202 -6.65911 0
M  V30 14358 O 2454.12 -2.60694 -5.64732 0
M  V30 14359 C 2455.31 -3.93473 -7.1943 0
M  V30 14360 O 2455.7 -3.02071 -8.21205 0
M  V30 14361 C 2456.19 -3.73047 -5.97036 0
M  V30 14362 C 2455.48 -2.58828 -5.25741 0
M  V30 14363 N 2455.53 -2.68068 -3.77503 0
M  V30 14364 H 2452.69 -5.40332 -6.79951 0
M  V30 14365 H 2452.42 -4.41613 -5.32378 0
M  V30 14366 H 2453.28 -3.26331 -7.47797 0
M  V30 14367 P 2457.25 -2.75334 -8.47391 0
M  V30 14368 O 2457.47 -2.44619 -9.90336 0
M  V30 14369 O 2458.04 -3.87776 -7.92294 0
M  V30 14370 O 2457.5 -1.4459 -7.59357 0
M  V30 14371 C 2456.56 -0.347653 -7.69315 0
M  V30 14372 C 2457.29 0.96767 -7.52806 0
M  V30 14373 O 2457.5 1.21055 -6.10208 0
M  V30 14374 C 2458.69 1.04557 -8.13408 0
M  V30 14375 O 2459.08 2.38311 -8.41922 0
M  V30 14376 C 2459.57 0.491279 -7.02284 0
M  V30 14377 C 2458.86 0.996264 -5.77469 0
M  V30 14378 N 2458.91 0.0501916 -4.62973 0
M  V30 14379 C 2458.83 -1.31969 -4.65661 0
M  V30 14380 N 2458.9 -1.86649 -3.48119 0
M  V30 14381 C 2459.05 -0.792089 -2.62406 0
M  V30 14382 C 2459.18 -0.705684 -1.2207 0
M  V30 14383 N 2459.19 -1.76207 -0.413762 0
M  V30 14384 N 2459.3 0.518981 -0.685754 0
M  V30 14385 C 2459.29 1.57595 -1.49174 0
M  V30 14386 N 2459.17 1.62909 -2.80066 0
M  V30 14387 C 2459.05 0.388195 -3.3073 0
M  V30 14388 H 2456.07 -0.374765 -8.67791 0
M  V30 14389 H 2455.8 -0.443613 -6.90476 0
M  V30 14390 H 2456.66 1.75559 -7.96891 0
M  V30 14391 H 2459.32 1.94563 -5.46818 0
M  V30 14392 H 2459.6 -0.608651 -7.04676 0
M  V30 14393 H 2460.59 0.889796 -7.09039 0
M  V30 14394 H 2458.76 0.433128 -9.04664 0
M  V30 14395 H 2458.71 -1.89246 -5.57664 0
M  V30 14396 H 2459.1 -2.71005 -0.804694 0
M  V30 14397 H 2459.28 -1.63189 0.603768 0
M  V30 14398 H 2459.39 2.53475 -0.997614 0
M  V30 14399 P 2460.63 2.75334 -8.47391 0
M  V30 14400 O 2460.85 3.84128 -9.44797 0
M  V30 14401 O 2461.42 1.51947 -8.68712 0
M  V30 14402 O 2460.88 3.29363 -6.99321 0
M  V30 14403 C 2459.94 4.24011 -6.4274 0
M  V30 14404 C 2460.67 5.20775 -5.52155 0
M  V30 14405 O 2460.88 4.56534 -4.22446 0
M  V30 14406 C 2462.07 5.62629 -5.96531 0
M  V30 14407 O 2462.46 6.87667 -5.41053 0
M  V30 14408 C 2462.95 4.52537 -5.39283 0
M  V30 14409 C 2462.24 4.20027 -4.08623 0
M  V30 14410 N 2462.29 2.76189 -3.71603 0
M  V30 14411 H 2459.45 4.797 -7.24003 0
M  V30 14412 H 2459.18 3.69856 -5.84513 0
M  V30 14413 H 2460.04 6.10356 -5.41441 0
M  V30 14414 P 2464.01 7.20834 -5.23717 0
M  V30 14415 O 2464.23 8.66104 -5.38572 0
M  V30 14416 O 2464.8 6.33544 -6.1349 0
M  V30 14417 O 2464.26 6.7751 -3.72168 0
M  V30 14418 C 2463.32 7.20825 -2.7076 0
M  V30 14419 C 2464.05 7.45864 -1.40599 0
M  V30 14420 O 2464.26 6.17651 -0.734225 0
M  V30 14421 C 2465.45 8.05808 -1.51899 0
M  V30 14422 O 2465.84 8.74358 -0.335205 0
M  V30 14423 C 2466.33 6.83093 -1.70294 0
M  V30 14424 C 2465.62 5.79992 -0.836974 0
M  V30 14425 N 2465.67 4.41864 -1.38293 0
M  V30 14426 C 2465.59 3.99538 -2.69438 0
M  V30 14427 N 2465.67 2.69909 -2.84277 0
M  V30 14428 C 2465.81 2.21719 -1.5408 0
M  V30 14429 C 2465.94 0.891712 -1.06628 0
M  V30 14430 O 2465.96 -0.161298 -1.70137 0
M  V30 14431 N 2466.06 0.856846 0.334985 0
M  V30 14432 C 2466.06 1.9641 1.15789 0
M  V30 14433 N 2466.19 1.72708 2.46522 0
M  V30 14434 N 2465.93 3.21165 0.713741 0
M  V30 14435 C 2465.81 3.26797 -0.639748 0
M  V30 14436 H 2462.83 8.13644 -3.0377 0
M  V30 14437 H 2462.56 6.42788 -2.55485 0
M  V30 14438 H 2463.42 8.12039 -0.792769 0
M  V30 14439 H 2466.08 5.80061 0.166416 0
M  V30 14440 H 2466.36 6.51287 -2.75604 0
M  V30 14441 H 2467.35 7.01734 -1.34462 0
M  V30 14442 H 2465.52 8.73674 -2.38337 0
M  V30 14443 H 2465.47 4.68207 -3.53221 0
M  V30 14444 H 2466.15 -0.0398818 0.767965 0
M  V30 14445 H 2466.19 2.50995 3.13503 0
M  V30 14446 H 2466.29 0.759148 2.80716 0
M  V30 14447 P 2467.39 8.91 -6.06197e-11 0
M  V30 14448 O 2467.61 10.1726 0.733694 0
M  V30 14449 O 2468.18 8.73148 -1.23936 0
M  V30 14450 O 2467.64 7.66872 0.971405 0
M  V30 14451 C 2466.7 7.42309 2.04641 0
M  V30 14452 C 2467.43 6.86059 3.24661 0
M  V30 14453 O 2467.64 5.42847 3.03646 0
M  V30 14454 C 2468.83 7.41196 3.50753 0
M  V30 14455 O 2469.22 7.27073 4.86816 0
M  V30 14456 C 2469.71 6.5273 2.63741 0
M  V30 14457 C 2469 5.1842 2.73198 0
M  V30 14458 N 2469.05 4.38762 1.4784 0
M  V30 14459 H 2466.21 8.36803 2.32493 0
M  V30 14460 H 2465.94 6.70197 1.71129 0
M  V30 14461 H 2466.8 7.03551 4.13168 0
M  V30 14462 P 2470.77 7.20834 5.23717 0
M  V30 14463 O 2470.99 7.79853 6.57286 0
M  V30 14464 O 2471.56 7.79239 4.12957 0
M  V30 14465 O 2471.02 5.63315 5.29344 0
M  V30 14466 C 2470.08 4.80255 6.01876 0
M  V30 14467 C 2470.81 3.64202 6.65911 0
M  V30 14468 O 2471.02 2.60694 5.64732 0
M  V30 14469 C 2472.21 3.93473 7.1943 0
M  V30 14470 O 2472.6 3.02071 8.21205 0
M  V30 14471 C 2473.09 3.73047 5.97036 0
M  V30 14472 C 2472.38 2.58828 5.25741 0
M  V30 14473 N 2472.43 2.68068 3.77503 0
M  V30 14474 H 2469.59 5.40332 6.79951 0
M  V30 14475 H 2469.32 4.41613 5.32378 0
M  V30 14476 H 2470.18 3.26331 7.47797 0
M  V30 14477 P 2474.15 2.75334 8.47391 0
M  V30 14478 O 2474.37 2.44571 9.90142 0
M  V30 14479 O 2474.94 3.87688 7.92115 0
M  V30 14480 O 2474.4 1.4459 7.59357 0
M  V30 14481 C 2473.46 0.347608 7.69215 0
M  V30 14482 C 2474.19 -0.96767 7.52806 0
M  V30 14483 O 2474.4 -1.21036 6.1011 0
M  V30 14484 C 2475.59 -1.04544 8.13308 0
M  V30 14485 O 2475.98 -2.38311 8.41922 0
M  V30 14486 C 2476.47 -0.491279 7.02284 0
M  V30 14487 C 2475.76 -0.996264 5.77469 0
M  V30 14488 N 2475.81 -0.0501916 4.62973 0
M  V30 14489 H 2472.97 0.374722 8.67691 0
M  V30 14490 H 2472.7 0.443485 6.90277 0
M  V30 14491 H 2473.56 -1.75537 7.96793 0
M  V30 14492 P 2477.53 -2.75334 8.47391 0
M  V30 14493 O 2477.75 -3.84204 9.44982 0
M  V30 14494 O 2478.32 -1.51982 8.68909 0
M  V30 14495 O 2477.78 -3.29363 6.99321 0
M  V30 14496 C 2476.84 -4.24066 6.42823 0
M  V30 14497 C 2477.57 -5.20775 5.52155 0
M  V30 14498 O 2477.78 -4.56607 4.22514 0
M  V30 14499 C 2478.97 -5.62697 5.96604 0
M  V30 14500 O 2479.36 -6.87667 5.41053 0
M  V30 14501 C 2479.85 -4.52537 5.39283 0
M  V30 14502 C 2479.14 -4.20027 4.08623 0
M  V30 14503 N 2479.19 -2.76189 3.71603 0
M  V30 14504 H 2476.35 -4.79756 7.24086 0
M  V30 14505 H 2476.08 -3.69963 5.84682 0
M  V30 14506 H 2476.94 -6.10431 5.41508 0
M  V30 14507 H 2479.6 -4.78816 3.28024 0
M  V30 14508 H 2479.88 -3.64957 6.05871 0
M  V30 14509 H 2480.87 -4.88748 5.21323 0
M  V30 14510 H 2479.04 -5.66789 7.0643 0
M  V30 14511 P 2480.91 -7.20834 5.23717 0
M  V30 14512 O 2481.13 -8.66104 5.38572 0
M  V30 14513 O 2481.7 -6.33544 6.1349 0
M  V30 14514 O 2481.16 -6.7751 3.72168 0
M  V30 14515 C 2480.22 -7.20825 2.7076 0
M  V30 14516 C 2480.95 -7.45864 1.40599 0
M  V30 14517 O 2481.16 -6.17651 0.734225 0
M  V30 14518 C 2482.35 -8.05808 1.51899 0
M  V30 14519 O 2482.74 -8.74358 0.335205 0
M  V30 14520 C 2483.23 -6.83093 1.70294 0
M  V30 14521 C 2482.52 -5.79992 0.836974 0
M  V30 14522 N 2482.57 -4.41864 1.38293 0
M  V30 14523 C 2482.49 -3.99538 2.69438 0
M  V30 14524 N 2482.57 -2.69909 2.84277 0
M  V30 14525 C 2482.71 -2.21719 1.5408 0
M  V30 14526 C 2482.84 -0.891712 1.06628 0
M  V30 14527 N 2482.96 -0.856846 -0.334985 0
M  V30 14528 C 2482.96 -1.9641 -1.15789 0
M  V30 14529 N 2483.09 -1.72708 -2.46522 0
M  V30 14530 N 2482.83 -3.21165 -0.713741 0
M  V30 14531 C 2482.71 -3.26797 0.639748 0
M  V30 14532 H 2479.73 -8.13644 3.0377 0
M  V30 14533 H 2479.46 -6.42788 2.55485 0
M  V30 14534 H 2480.32 -8.12039 0.792769 0
M  V30 14535 P 2484.29 -8.91 6.17288e-11 0
M  V30 14536 O 2484.51 -10.1746 -0.733838 0
M  V30 14537 O 2485.08 -8.73346 1.23964 0
M  V30 14538 O 2484.54 -7.66872 -0.971405 0
M  V30 14539 C 2483.6 -7.42405 -2.04668 0
M  V30 14540 C 2484.33 -6.86059 -3.24661 0
M  V30 14541 O 2484.54 -5.42934 -3.03695 0
M  V30 14542 C 2485.73 -7.41287 -3.50796 0
M  V30 14543 O 2486.12 -7.27073 -4.86816 0
M  V30 14544 C 2486.61 -6.5273 -2.63741 0
M  V30 14545 C 2485.9 -5.1842 -2.73198 0
M  V30 14546 N 2485.95 -4.38762 -1.4784 0
M  V30 14547 C 2485.87 -4.83651 -0.183876 0
M  V30 14548 N 2485.94 -3.88759 0.699393 0
M  V30 14549 C 2486.09 -2.7404 -0.0575568 0
M  V30 14550 C 2486.22 -1.37902 0.293928 0
M  V30 14551 N 2486.23 -0.938021 1.54797 0
M  V30 14552 N 2486.34 -0.491817 -0.70549 0
M  V30 14553 C 2486.33 -0.931735 -1.95979 0
M  V30 14554 N 2486.21 -2.16017 -2.41481 0
M  V30 14555 C 2486.09 -3.02547 -1.39121 0
M  V30 14556 H 2483.11 -8.36899 -2.3252 0
M  V30 14557 H 2482.84 -6.70391 -1.71179 0
M  V30 14558 H 2483.7 -7.03638 -4.13219 0
M  V30 14559 H 2486.36 -4.59931 -3.54016 0
M  V30 14560 H 2486.64 -6.88995 -1.59871 0
M  V30 14561 H 2487.63 -6.4684 -3.0373 0
M  V30 14562 H 2485.8 -8.47002 -3.20749 0
M  V30 14563 H 2485.75 -5.8885 0.0765548 0
M  V30 14564 H 2486.14 -1.60276 2.32875 0
M  V30 14565 H 2486.32 0.0699355 1.73859 0
M  V30 14566 H 2486.43 -0.165507 -2.71897 0
M  V30 14567 P 2487.67 -7.20834 -5.23717 0
M  V30 14568 O 2487.89 -7.7993 -6.57351 0
M  V30 14569 O 2488.46 -7.79328 -4.13004 0
M  V30 14570 O 2487.92 -5.63315 -5.29344 0
M  V30 14571 C 2486.98 -4.80193 -6.01798 0
M  V30 14572 C 2487.71 -3.64202 -6.65911 0
M  V30 14573 O 2487.92 -2.60694 -5.64732 0
M  V30 14574 C 2489.11 -3.93473 -7.1943 0
M  V30 14575 O 2489.5 -3.02071 -8.21205 0
M  V30 14576 C 2489.99 -3.73047 -5.97036 0
M  V30 14577 C 2489.28 -2.58828 -5.25741 0
M  V30 14578 N 2489.33 -2.6801 -3.77422 0
M  V30 14579 C 2489.48 -1.50443 -3.07133 0
M  V30 14580 O 2489.57 -0.419406 -3.61576 0
M  V30 14581 N 2489.52 -1.6403 -1.69677 0
M  V30 14582 C 2489.43 -2.81206 -0.986255 0
M  V30 14583 O 2489.48 -2.80892 0.249754 0
M  V30 14584 C 2489.28 -3.99158 -1.80325 0
M  V30 14585 C 2489.17 -5.29309 -1.06921 0
M  V30 14586 C 2489.23 -3.89779 -3.1476 0
M  V30 14587 H 2486.49 -5.40332 -6.79951 0
M  V30 14588 H 2486.22 -4.41549 -5.32301 0
M  V30 14589 H 2487.08 -3.26331 -7.47797 0
M  V30 14590 H 2489.74 -1.6395 -5.56554 0
M  V30 14591 H 2490.02 -4.63439 -5.3432 0
M  V30 14592 H 2491.01 -3.44728 -6.25838 0
M  V30 14593 H 2489.18 -4.96652 -7.57263 0
M  V30 14594 H 2489.1 -4.80159 -3.74441 0
M  V30 14595 H 2490.13 -5.81459 -1.09608 0
M  V30 14596 H 2488.4 -5.9187 -1.54487 0
M  V30 14597 H 2488.89 -5.10095 -0.0220288 0
M  V30 14598 H 2489.62 -0.798962 -1.16664 0
M  V30 14599 P 2491.05 -2.75334 -8.47391 0
M  V30 14600 O 2491.27 -2.44619 -9.90336 0
M  V30 14601 O 2491.84 -3.87776 -7.92294 0
M  V30 14602 O 2491.3 -1.4459 -7.59357 0
M  V30 14603 C 2490.36 -0.347653 -7.69315 0
M  V30 14604 C 2491.09 0.96767 -7.52806 0
M  V30 14605 O 2491.3 1.21055 -6.10208 0
M  V30 14606 C 2492.49 1.04557 -8.13408 0
M  V30 14607 O 2492.88 2.38311 -8.41922 0
M  V30 14608 C 2493.37 0.491279 -7.02284 0
M  V30 14609 C 2492.66 0.996264 -5.77469 0
M  V30 14610 N 2492.71 0.0501916 -4.62973 0
M  V30 14611 C 2492.63 -1.31969 -4.65661 0
M  V30 14612 N 2492.7 -1.86649 -3.48119 0
M  V30 14613 C 2492.85 -0.792089 -2.62406 0
M  V30 14614 C 2492.98 -0.705684 -1.2207 0
M  V30 14615 N 2492.99 -1.76207 -0.413762 0
M  V30 14616 N 2493.1 0.518981 -0.685754 0
M  V30 14617 C 2493.09 1.57595 -1.49174 0
M  V30 14618 N 2492.97 1.62909 -2.80066 0
M  V30 14619 C 2492.85 0.388195 -3.3073 0
M  V30 14620 H 2489.87 -0.374765 -8.67791 0
M  V30 14621 H 2489.6 -0.443613 -6.90476 0
M  V30 14622 H 2490.46 1.75559 -7.96891 0
M  V30 14623 H 2493.12 1.94563 -5.46818 0
M  V30 14624 H 2493.4 -0.608651 -7.04676 0
M  V30 14625 H 2494.39 0.889796 -7.09039 0
M  V30 14626 H 2492.56 0.433128 -9.04664 0
M  V30 14627 H 2492.51 -1.89246 -5.57664 0
M  V30 14628 H 2492.9 -2.71005 -0.804694 0
M  V30 14629 H 2493.08 -1.63189 0.603768 0
M  V30 14630 H 2493.19 2.53475 -0.997614 0
M  V30 14631 P 2494.43 2.75334 -8.47391 0
M  V30 14632 O 2494.65 3.84204 -9.44982 0
M  V30 14633 O 2495.22 1.51982 -8.68909 0
M  V30 14634 O 2494.68 3.29363 -6.99321 0
M  V30 14635 C 2493.74 4.24066 -6.42823 0
M  V30 14636 C 2494.47 5.20775 -5.52155 0
M  V30 14637 O 2494.68 4.56607 -4.22514 0
M  V30 14638 C 2495.87 5.62697 -5.96604 0
M  V30 14639 O 2496.26 6.87667 -5.41053 0
M  V30 14640 C 2496.75 4.52537 -5.39283 0
M  V30 14641 C 2496.04 4.20027 -4.08623 0
M  V30 14642 N 2496.09 2.76189 -3.71603 0
M  V30 14643 C 2496.01 1.66944 -4.54297 0
M  V30 14644 N 2496.08 0.536169 -3.91344 0
M  V30 14645 C 2496.23 0.901569 -2.58849 0
M  V30 14646 C 2496.36 0.146599 -1.40236 0
M  V30 14647 N 2496.37 -1.18234 -1.37046 0
M  V30 14648 N 2496.48 0.822941 -0.249738 0
M  V30 14649 C 2496.47 2.15179 -0.280525 0
M  V30 14650 N 2496.35 2.96414 -1.30822 0
M  V30 14651 C 2496.23 2.25804 -2.44748 0
M  V30 14652 H 2493.25 4.79756 -7.24086 0
M  V30 14653 H 2492.98 3.69963 -5.84682 0
M  V30 14654 H 2493.84 6.10431 -5.41508 0
M  V30 14655 H 2496.5 4.78816 -3.28024 0
M  V30 14656 H 2496.78 3.64957 -6.05871 0
M  V30 14657 H 2497.77 4.88748 -5.21323 0
M  V30 14658 H 2495.94 5.66789 -7.0643 0
M  V30 14659 H 2495.89 1.74684 -5.62396 0
M  V30 14660 H 2496.28 -1.71949 -2.24394 0
M  V30 14661 H 2496.46 -1.67511 -0.470742 0
M  V30 14662 H 2496.57 2.63704 0.6828 0
M  V30 14663 P 2497.81 7.20834 -5.23717 0
M  V30 14664 O 2498.03 8.66104 -5.38572 0
M  V30 14665 O 2498.6 6.33544 -6.1349 0
M  V30 14666 O 2498.06 6.7751 -3.72168 0
M  V30 14667 C 2497.12 7.20825 -2.7076 0
M  V30 14668 C 2497.85 7.45864 -1.40599 0
M  V30 14669 O 2498.06 6.17651 -0.734225 0
M  V30 14670 C 2499.25 8.05808 -1.51899 0
M  V30 14671 O 2499.64 8.74358 -0.335205 0
M  V30 14672 C 2500.13 6.83093 -1.70294 0
M  V30 14673 C 2499.42 5.79992 -0.836974 0
M  V30 14674 N 2499.47 4.41864 -1.38293 0
M  V30 14675 H 2496.63 8.13644 -3.0377 0
M  V30 14676 H 2496.36 6.42788 -2.55485 0
M  V30 14677 H 2497.22 8.12039 -0.792769 0
M  V30 14678 P 2501.19 8.91 -6.28378e-11 0
M  V30 14679 O 2501.41 10.1726 0.733694 0
M  V30 14680 O 2501.98 8.73148 -1.23936 0
M  V30 14681 O 2501.44 7.66872 0.971405 0
M  V30 14682 C 2500.5 7.42309 2.04641 0
M  V30 14683 C 2501.23 6.86059 3.24661 0
M  V30 14684 O 2501.44 5.42847 3.03646 0
M  V30 14685 C 2502.63 7.41196 3.50753 0
M  V30 14686 O 2503.02 7.27073 4.86816 0
M  V30 14687 C 2503.51 6.5273 2.63741 0
M  V30 14688 C 2502.8 5.1842 2.73198 0
M  V30 14689 N 2502.85 4.38762 1.4784 0
M  V30 14690 H 2500.01 8.36803 2.32493 0
M  V30 14691 H 2499.74 6.70197 1.71129 0
M  V30 14692 H 2500.6 7.03551 4.13168 0
M  V30 14693 P 2504.57 7.20834 5.23717 0
M  V30 14694 O 2504.79 7.79853 6.57286 0
M  V30 14695 O 2505.36 7.79239 4.12957 0
M  V30 14696 O 2504.82 5.63315 5.29344 0
M  V30 14697 C 2503.88 4.80255 6.01876 0
M  V30 14698 C 2504.61 3.64202 6.65911 0
M  V30 14699 O 2504.82 2.60694 5.64732 0
M  V30 14700 C 2506.01 3.93473 7.1943 0
M  V30 14701 O 2506.4 3.02071 8.21205 0
M  V30 14702 C 2506.89 3.73047 5.97036 0
M  V30 14703 C 2506.18 2.58828 5.25741 0
M  V30 14704 N 2506.23 2.68068 3.77503 0
M  V30 14705 H 2503.39 5.40332 6.79951 0
M  V30 14706 H 2503.12 4.41613 5.32378 0
M  V30 14707 H 2503.98 3.26331 7.47797 0
M  V30 14708 P 2507.95 2.75334 8.47391 0
M  V30 14709 O 2508.17 2.44571 9.90142 0
M  V30 14710 O 2508.74 3.87688 7.92115 0
M  V30 14711 O 2508.2 1.4459 7.59357 0
M  V30 14712 C 2507.26 0.347608 7.69215 0
M  V30 14713 C 2507.99 -0.96767 7.52806 0
M  V30 14714 O 2508.2 -1.21036 6.1011 0
M  V30 14715 C 2509.39 -1.04544 8.13308 0
M  V30 14716 O 2509.78 -2.38311 8.41922 0
M  V30 14717 C 2510.27 -0.491279 7.02284 0
M  V30 14718 C 2509.56 -0.996264 5.77469 0
M  V30 14719 N 2509.61 -0.0501916 4.62973 0
M  V30 14720 C 2509.53 1.32786 4.63244 0
M  V30 14721 N 2509.61 1.86957 3.44545 0
M  V30 14722 C 2509.75 0.780241 2.58481 0
M  V30 14723 C 2509.88 0.738536 1.17757 0
M  V30 14724 O 2509.9 1.66794 0.372349 0
M  V30 14725 N 2510 -0.58337 0.711393 0
M  V30 14726 C 2510 -1.70816 1.51017 0
M  V30 14727 N 2510.13 -2.87826 0.880757 0
M  V30 14728 N 2509.87 -1.67126 2.8339 0
M  V30 14729 C 2509.75 -0.401421 3.30572 0
M  V30 14730 H 2506.77 0.374722 8.67691 0
M  V30 14731 H 2506.5 0.443485 6.90277 0
M  V30 14732 H 2507.36 -1.75537 7.96793 0
M  V30 14733 H 2510.02 -1.95076 5.46529 0
M  V30 14734 H 2510.3 0.608565 7.04577 0
M  V30 14735 H 2511.29 -0.889672 7.08939 0
M  V30 14736 H 2509.46 -0.43308 9.04564 0
M  V30 14737 H 2509.41 1.91249 5.54442 0
M  V30 14738 H 2510.09 -0.718054 -0.275244 0
M  V30 14739 H 2510.13 -3.75721 1.41832 0
M  V30 14740 H 2510.23 -2.90436 -0.145468 0
M  V30 14741 P 2511.33 -2.75334 8.47391 0
M  V30 14742 O 2511.55 -3.84128 9.44797 0
M  V30 14743 O 2512.12 -1.51947 8.68712 0
M  V30 14744 O 2511.58 -3.29363 6.99321 0
M  V30 14745 C 2510.64 -4.24011 6.4274 0
M  V30 14746 C 2511.37 -5.20775 5.52155 0
M  V30 14747 O 2511.58 -4.56534 4.22446 0
M  V30 14748 C 2512.77 -5.62629 5.96531 0
M  V30 14749 O 2513.16 -6.87667 5.41053 0
M  V30 14750 C 2513.65 -4.52537 5.39283 0
M  V30 14751 C 2512.94 -4.20027 4.08623 0
M  V30 14752 N 2512.99 -2.76189 3.71603 0
M  V30 14753 H 2510.15 -4.797 7.24003 0
M  V30 14754 H 2509.88 -3.69856 5.84513 0
M  V30 14755 H 2510.74 -6.10356 5.41441 0
M  V30 14756 P 2514.71 -7.20834 5.23717 0
M  V30 14757 O 2514.93 -8.66104 5.38572 0
M  V30 14758 O 2515.5 -6.33544 6.1349 0
M  V30 14759 O 2514.96 -6.7751 3.72168 0
M  V30 14760 C 2514.02 -7.20825 2.7076 0
M  V30 14761 C 2514.75 -7.45864 1.40599 0
M  V30 14762 O 2514.96 -6.17651 0.734225 0
M  V30 14763 C 2516.15 -8.05808 1.51899 0
M  V30 14764 O 2516.54 -8.74358 0.335205 0
M  V30 14765 C 2517.03 -6.83093 1.70294 0
M  V30 14766 C 2516.32 -5.79992 0.836974 0
M  V30 14767 N 2516.37 -4.41864 1.38293 0
M  V30 14768 H 2513.53 -8.13644 3.0377 0
M  V30 14769 H 2513.26 -6.42788 2.55485 0
M  V30 14770 H 2514.12 -8.12039 0.792769 0
M  V30 14771 P 2518.09 -8.91 6.39468e-11 0
M  V30 14772 O 2518.31 -10.1726 -0.733694 0
M  V30 14773 O 2518.88 -8.73148 1.23936 0
M  V30 14774 O 2518.34 -7.66872 -0.971405 0
M  V30 14775 C 2517.4 -7.42309 -2.04641 0
M  V30 14776 C 2518.13 -6.86059 -3.24661 0
M  V30 14777 O 2518.34 -5.42847 -3.03646 0
M  V30 14778 C 2519.53 -7.41196 -3.50753 0
M  V30 14779 O 2519.92 -7.27073 -4.86816 0
M  V30 14780 C 2520.41 -6.5273 -2.63741 0
M  V30 14781 C 2519.7 -5.1842 -2.73198 0
M  V30 14782 N 2519.75 -4.38762 -1.4784 0
M  V30 14783 H 2516.91 -8.36803 -2.32493 0
M  V30 14784 H 2516.64 -6.70197 -1.71129 0
M  V30 14785 H 2517.5 -7.03551 -4.13168 0
M  V30 14786 P 2521.47 -7.20834 -5.23717 0
M  V30 14787 O 2521.69 -7.79853 -6.57286 0
M  V30 14788 O 2522.26 -7.79239 -4.12957 0
M  V30 14789 O 2521.72 -5.63315 -5.29344 0
M  V30 14790 C 2520.78 -4.80255 -6.01876 0
M  V30 14791 C 2521.51 -3.64202 -6.65911 0
M  V30 14792 O 2521.72 -2.60694 -5.64732 0
M  V30 14793 C 2522.91 -3.93473 -7.1943 0
M  V30 14794 O 2523.3 -3.02071 -8.21205 0
M  V30 14795 C 2523.79 -3.73047 -5.97036 0
M  V30 14796 C 2523.08 -2.58828 -5.25741 0
M  V30 14797 N 2523.13 -2.68068 -3.77503 0
M  V30 14798 H 2520.29 -5.40332 -6.79951 0
M  V30 14799 H 2520.02 -4.41613 -5.32378 0
M  V30 14800 H 2520.88 -3.26331 -7.47797 0
M  V30 14801 P 2524.85 -2.75334 -8.47391 0
M  V30 14802 O 2525.07 -2.44595 -9.90239 0
M  V30 14803 O 2525.64 -3.87732 -7.92204 0
M  V30 14804 O 2525.1 -1.4459 -7.59357 0
M  V30 14805 C 2524.16 -0.347563 -7.69115 0
M  V30 14806 C 2524.89 0.96767 -7.52806 0
M  V30 14807 O 2525.1 1.21036 -6.1011 0
M  V30 14808 C 2526.29 1.04544 -8.13308 0
M  V30 14809 O 2526.68 2.38311 -8.41922 0
M  V30 14810 C 2527.17 0.491279 -7.02284 0
M  V30 14811 C 2526.46 0.996264 -5.77469 0
M  V30 14812 N 2526.51 0.0501808 -4.62873 0
M  V30 14813 C 2526.66 0.588177 -3.36904 0
M  V30 14814 O 2526.75 1.78598 -3.17173 0
M  V30 14815 N 2526.7 -0.329694 -2.33686 0
M  V30 14816 C 2526.61 -1.6953 -2.45079 0
M  V30 14817 O 2526.66 -2.41926 -1.44899 0
M  V30 14818 C 2526.46 -2.16933 -3.80505 0
M  V30 14819 C 2526.35 -3.65373 -3.97621 0
M  V30 14820 C 2526.41 -1.30326 -4.83752 0
M  V30 14821 H 2523.67 -0.374722 -8.67691 0
M  V30 14822 H 2523.4 -0.443421 -6.90177 0
M  V30 14823 H 2524.26 1.75537 -7.96793 0
M  V30 14824 H 2526.92 1.94496 -5.46629 0
M  V30 14825 H 2527.2 -0.608651 -7.04676 0
M  V30 14826 H 2528.19 0.889672 -7.08939 0
M  V30 14827 H 2526.36 0.43308 -9.04564 0
M  V30 14828 H 2526.28 -1.68366 -5.8516 0
M  V30 14829 H 2527.31 -4.05985 -4.30448 0
M  V30 14830 H 2525.58 -3.88028 -4.72875 0
M  V30 14831 H 2526.07 -4.11381 -3.01609 0
M  V30 14832 H 2526.8 0.0393617 -1.41345 0
M  V30 14833 P 2528.23 2.75334 -8.47391 0
M  V30 14834 O 2528.45 3.84128 -9.44797 0
M  V30 14835 O 2529.02 1.51947 -8.68712 0
M  V30 14836 O 2528.48 3.29363 -6.99321 0
M  V30 14837 C 2527.54 4.24011 -6.4274 0
M  V30 14838 C 2528.27 5.20775 -5.52155 0
M  V30 14839 O 2528.48 4.56534 -4.22446 0
M  V30 14840 C 2529.67 5.62629 -5.96531 0
M  V30 14841 O 2530.06 6.87667 -5.41053 0
M  V30 14842 C 2530.55 4.52537 -5.39283 0
M  V30 14843 C 2529.84 4.20027 -4.08623 0
M  V30 14844 N 2529.89 2.76189 -3.71603 0
M  V30 14845 H 2527.05 4.797 -7.24003 0
M  V30 14846 H 2526.78 3.69856 -5.84513 0
M  V30 14847 H 2527.64 6.10356 -5.41441 0
M  V30 14848 P 2531.61 7.20834 -5.23717 0
M  V30 14849 O 2531.83 8.66189 -5.38625 0
M  V30 14850 O 2532.4 6.33615 -6.1356 0
M  V30 14851 O 2531.86 6.7751 -3.72168 0
M  V30 14852 C 2530.92 7.20732 -2.70725 0
M  V30 14853 C 2531.65 7.45864 -1.40599 0
M  V30 14854 O 2531.86 6.17651 -0.734225 0
M  V30 14855 C 2533.05 8.05808 -1.51899 0
M  V30 14856 O 2533.44 8.74358 -0.335205 0
M  V30 14857 C 2533.93 6.83093 -1.70294 0
M  V30 14858 C 2533.22 5.79992 -0.836974 0
M  V30 14859 N 2533.27 4.41769 -1.38263 0
M  V30 14860 C 2533.42 3.38591 -0.481702 0
M  V30 14861 O 2533.51 3.56839 0.718452 0
M  V30 14862 N 2533.46 2.1206 -1.03569 0
M  V30 14863 C 2533.37 1.80696 -2.36966 0
M  V30 14864 O 2533.42 0.630473 -2.74862 0
M  V30 14865 C 2533.22 2.94845 -3.23898 0
M  V30 14866 C 2533.11 2.65253 -4.70362 0
M  V30 14867 C 2533.17 4.19803 -2.73435 0
M  V30 14868 H 2530.43 8.13644 -3.0377 0
M  V30 14869 H 2530.16 6.42695 -2.55448 0
M  V30 14870 H 2531.02 8.12039 -0.792769 0
M  V30 14871 H 2533.68 5.79978 0.160587 0
M  V30 14872 H 2533.96 6.51379 -2.75643 0
M  V30 14873 H 2534.95 7.01734 -1.34462 0
M  V30 14874 H 2533.12 8.73674 -2.38337 0
M  V30 14875 H 2533.04 5.04492 -3.4095 0
M  V30 14876 H 2534.07 2.83924 -5.1913 0
M  V30 14877 H 2532.34 3.29824 -5.15163 0
M  V30 14878 H 2532.83 1.59723 -4.84449 0
M  V30 14879 H 2533.56 1.35644 -0.399345 0
M  V30 14880 P 2534.99 8.91 -6.50558e-11 0
M  V30 14881 O 2535.21 10.1726 0.733694 0
M  V30 14882 O 2535.78 8.73148 -1.23936 0
M  V30 14883 O 2535.24 7.66872 0.971405 0
M  V30 14884 C 2534.3 7.42309 2.04641 0
M  V30 14885 C 2535.03 6.86059 3.24661 0
M  V30 14886 O 2535.24 5.42847 3.03646 0
M  V30 14887 C 2536.43 7.41196 3.50753 0
M  V30 14888 O 2536.82 7.27073 4.86816 0
M  V30 14889 C 2537.31 6.5273 2.63741 0
M  V30 14890 C 2536.6 5.1842 2.73198 0
M  V30 14891 N 2536.65 4.38762 1.4784 0
M  V30 14892 H 2533.81 8.36803 2.32493 0
M  V30 14893 H 2533.54 6.70197 1.71129 0
M  V30 14894 H 2534.4 7.03551 4.13168 0
M  V30 14895 P 2538.36 7.20834 5.23717 0
M  V30 14896 O 2538.58 7.79853 6.57286 0
M  V30 14897 O 2539.15 7.79239 4.12957 0
M  V30 14898 O 2538.61 5.63315 5.29344 0
M  V30 14899 C 2537.67 4.80255 6.01876 0
M  V30 14900 C 2538.4 3.64202 6.65911 0
M  V30 14901 O 2538.61 2.60694 5.64732 0
M  V30 14902 C 2539.8 3.93473 7.1943 0
M  V30 14903 O 2540.19 3.02071 8.21205 0
M  V30 14904 C 2540.68 3.73047 5.97036 0
M  V30 14905 C 2539.97 2.58828 5.25741 0
M  V30 14906 N 2540.02 2.68068 3.77503 0
M  V30 14907 H 2537.19 5.40332 6.79951 0
M  V30 14908 H 2536.92 4.41613 5.32378 0
M  V30 14909 H 2537.78 3.26331 7.47797 0
M  V30 14910 P 2541.74 2.75334 8.47391 0
M  V30 14911 O 2541.96 2.44571 9.90142 0
M  V30 14912 O 2542.53 3.87688 7.92115 0
M  V30 14913 O 2541.99 1.4459 7.59357 0
M  V30 14914 C 2541.05 0.347608 7.69215 0
M  V30 14915 C 2541.78 -0.96767 7.52806 0
M  V30 14916 O 2541.99 -1.21036 6.1011 0
M  V30 14917 C 2543.18 -1.04544 8.13308 0
M  V30 14918 O 2543.57 -2.38311 8.41922 0
M  V30 14919 C 2544.06 -0.491279 7.02284 0
M  V30 14920 C 2543.35 -0.996264 5.77469 0
M  V30 14921 N 2543.4 -0.0501916 4.62973 0
M  V30 14922 H 2540.57 0.374722 8.67691 0
M  V30 14923 H 2540.3 0.443485 6.90277 0
M  V30 14924 H 2541.16 -1.75537 7.96793 0
M  V30 14925 P 2545.12 -2.75334 8.47391 0
M  V30 14926 O 2545.34 -3.84128 9.44797 0
M  V30 14927 O 2545.91 -1.51947 8.68712 0
M  V30 14928 O 2545.37 -3.29363 6.99321 0
M  V30 14929 C 2544.43 -4.24011 6.4274 0
M  V30 14930 C 2545.16 -5.20775 5.52155 0
M  V30 14931 O 2545.37 -4.56534 4.22446 0
M  V30 14932 C 2546.56 -5.62629 5.96531 0
M  V30 14933 O 2546.95 -6.87667 5.41053 0
M  V30 14934 C 2547.44 -4.52537 5.39283 0
M  V30 14935 C 2546.73 -4.20027 4.08623 0
M  V30 14936 N 2546.78 -2.76189 3.71603 0
M  V30 14937 C 2546.7 -1.64862 4.52822 0
M  V30 14938 N 2546.78 -0.512671 3.88633 0
M  V30 14939 C 2546.92 -0.888083 2.54977 0
M  V30 14940 C 2547.05 -0.094668 1.38677 0
M  V30 14941 N 2547.17 -0.890102 0.232633 0
M  V30 14942 C 2547.17 -2.26958 0.21772 0
M  V30 14943 N 2547.3 -2.84626 -0.97925 0
M  V30 14944 N 2547.04 -3.0178 1.31033 0
M  V30 14945 C 2546.92 -2.26781 2.43843 0
M  V30 14946 H 2543.95 -4.797 7.24003 0
M  V30 14947 H 2543.68 -3.69856 5.84513 0
M  V30 14948 H 2544.54 -6.10356 5.41441 0
M  V30 14949 P 2548.5 -7.20834 5.23717 0
M  V30 14950 O 2548.72 -8.66104 5.38572 0
M  V30 14951 O 2549.29 -6.33544 6.1349 0
M  V30 14952 O 2548.75 -6.7751 3.72168 0
M  V30 14953 C 2547.81 -7.20825 2.7076 0
M  V30 14954 C 2548.54 -7.45864 1.40599 0
M  V30 14955 O 2548.75 -6.17651 0.734225 0
M  V30 14956 C 2549.94 -8.05808 1.51899 0
M  V30 14957 O 2550.33 -8.74358 0.335205 0
M  V30 14958 C 2550.82 -6.83093 1.70294 0
M  V30 14959 C 2550.11 -5.79992 0.836974 0
M  V30 14960 N 2550.16 -4.41864 1.38293 0
M  V30 14961 C 2550.08 -3.99538 2.69438 0
M  V30 14962 N 2550.16 -2.69909 2.84277 0
M  V30 14963 C 2550.3 -2.21719 1.5408 0
M  V30 14964 C 2550.43 -0.891712 1.06628 0
M  V30 14965 N 2550.55 -0.856846 -0.334985 0
M  V30 14966 C 2550.55 -1.9641 -1.15789 0
M  V30 14967 N 2550.68 -1.72708 -2.46522 0
M  V30 14968 N 2550.42 -3.21165 -0.713741 0
M  V30 14969 C 2550.3 -3.26797 0.639748 0
M  V30 14970 H 2547.33 -8.13644 3.0377 0
M  V30 14971 H 2547.06 -6.42788 2.55485 0
M  V30 14972 H 2547.92 -8.12039 0.792769 0
M  V30 14973 P 2551.88 -8.91 6.61648e-11 0
M  V30 14974 O 2552.1 -10.1726 -0.733694 0
M  V30 14975 O 2552.67 -8.73148 1.23936 0
M  V30 14976 O 2552.13 -7.66872 -0.971405 0
M  V30 14977 C 2551.19 -7.42309 -2.04641 0
M  V30 14978 C 2551.92 -6.86059 -3.24661 0
M  V30 14979 O 2552.13 -5.42847 -3.03646 0
M  V30 14980 C 2553.32 -7.41196 -3.50753 0
M  V30 14981 O 2553.71 -7.27073 -4.86816 0
M  V30 14982 C 2554.2 -6.5273 -2.63741 0
M  V30 14983 C 2553.49 -5.1842 -2.73198 0
M  V30 14984 N 2553.54 -4.38762 -1.4784 0
M  V30 14985 H 2550.71 -8.36803 -2.32493 0
M  V30 14986 H 2550.44 -6.70197 -1.71129 0
M  V30 14987 H 2551.3 -7.03551 -4.13168 0
M  V30 14988 P 2555.26 -7.20834 -5.23717 0
M  V30 14989 O 2555.48 -7.80006 -6.57415 0
M  V30 14990 O 2556.05 -7.79416 -4.13051 0
M  V30 14991 O 2555.51 -5.63315 -5.29344 0
M  V30 14992 C 2554.57 -4.80318 -6.01954 0
M  V30 14993 C 2555.3 -3.64202 -6.65911 0
M  V30 14994 O 2555.51 -2.60736 -5.64823 0
M  V30 14995 C 2556.7 -3.93521 -7.19518 0
M  V30 14996 O 2557.09 -3.02071 -8.21205 0
M  V30 14997 C 2557.58 -3.73047 -5.97036 0
M  V30 14998 C 2556.87 -2.58828 -5.25741 0
M  V30 14999 N 2556.92 -2.68068 -3.77503 0
M  V30 15000 C 2556.84 -3.80474 -2.99159 0
M  V30 15001 N 2556.91 -3.55622 -1.71925 0
M  V30 15002 C 2557.06 -2.1832 -1.65733 0
M  V30 15003 C 2557.19 -1.28842 -0.572777 0
M  V30 15004 N 2557.2 -1.66875 0.70098 0
M  V30 15005 N 2557.31 0.016788 -0.859836 0
M  V30 15006 C 2557.3 0.398145 -2.13316 0
M  V30 15007 N 2557.18 -0.328224 -3.22333 0
M  V30 15008 C 2557.06 -1.62992 -2.90383 0
M  V30 15009 H 2554.09 -5.40394 -6.8003 0
M  V30 15010 H 2553.81 -4.41741 -5.32532 0
M  V30 15011 H 2554.68 -3.26371 -7.47889 0
M  V30 15012 H 2557.34 -1.64007 -5.56746 0
M  V30 15013 H 2557.62 -4.63439 -5.3432 0
M  V30 15014 H 2558.61 -3.44776 -6.25925 0
M  V30 15015 H 2556.77 -4.96707 -7.57347 0
M  V30 15016 H 2556.73 -4.8089 -3.39924 0
M  V30 15017 H 2557.11 -2.66547 0.941919 0
M  V30 15018 H 2557.3 -0.965341 1.44766 0
M  V30 15019 H 2557.41 1.46427 -2.29697 0
M  V30 15020 P 2558.64 -2.75334 -8.47391 0
M  V30 15021 O 2558.86 -2.44571 -9.90142 0
M  V30 15022 O 2559.43 -3.87688 -7.92115 0
M  V30 15023 O 2558.89 -1.4459 -7.59357 0
M  V30 15024 C 2557.95 -0.347608 -7.69215 0
M  V30 15025 C 2558.68 0.96767 -7.52806 0
M  V30 15026 O 2558.89 1.21036 -6.1011 0
M  V30 15027 C 2560.08 1.04544 -8.13308 0
M  V30 15028 O 2560.47 2.38311 -8.41922 0
M  V30 15029 C 2560.96 0.491279 -7.02284 0
M  V30 15030 C 2560.25 0.996264 -5.77469 0
M  V30 15031 N 2560.3 0.0501916 -4.62973 0
M  V30 15032 H 2557.47 -0.374722 -8.67691 0
M  V30 15033 H 2557.2 -0.443485 -6.90277 0
M  V30 15034 H 2558.06 1.75537 -7.96793 0
M  V30 15035 P 2562.02 2.75334 -8.47391 0
M  V30 15036 O 2562.24 3.84204 -9.44982 0
M  V30 15037 O 2562.81 1.51982 -8.68909 0
M  V30 15038 O 2562.27 3.29363 -6.99321 0
M  V30 15039 C 2561.33 4.24066 -6.42823 0
M  V30 15040 C 2562.06 5.20775 -5.52155 0
M  V30 15041 O 2562.27 4.56607 -4.22514 0
M  V30 15042 C 2563.46 5.62697 -5.96604 0
M  V30 15043 O 2563.85 6.87667 -5.41053 0
M  V30 15044 C 2564.34 4.52537 -5.39283 0
M  V30 15045 C 2563.63 4.20027 -4.08623 0
M  V30 15046 N 2563.68 2.76189 -3.71603 0
M  V30 15047 C 2563.6 1.66944 -4.54297 0
M  V30 15048 N 2563.67 0.536169 -3.91344 0
M  V30 15049 C 2563.82 0.901569 -2.58849 0
M  V30 15050 C 2563.95 0.146599 -1.40236 0
M  V30 15051 N 2563.96 -1.18234 -1.37046 0
M  V30 15052 N 2564.07 0.822941 -0.249738 0
M  V30 15053 C 2564.06 2.15179 -0.280525 0
M  V30 15054 N 2563.94 2.96414 -1.30822 0
M  V30 15055 C 2563.82 2.25804 -2.44748 0
M  V30 15056 H 2560.85 4.79756 -7.24086 0
M  V30 15057 H 2560.57 3.69963 -5.84682 0
M  V30 15058 H 2561.44 6.10431 -5.41508 0
M  V30 15059 H 2564.1 4.78816 -3.28024 0
M  V30 15060 H 2564.38 3.64957 -6.05871 0
M  V30 15061 H 2565.37 4.88748 -5.21323 0
M  V30 15062 H 2563.53 5.66789 -7.0643 0
M  V30 15063 H 2563.49 1.74684 -5.62396 0
M  V30 15064 H 2563.87 -1.71949 -2.24394 0
M  V30 15065 H 2564.06 -1.67511 -0.470742 0
M  V30 15066 H 2564.17 2.63704 0.6828 0
M  V30 15067 P 2565.4 7.20834 -5.23717 0
M  V30 15068 O 2565.62 8.66104 -5.38572 0
M  V30 15069 O 2566.19 6.33544 -6.1349 0
M  V30 15070 O 2565.65 6.7751 -3.72168 0
M  V30 15071 C 2564.71 7.20825 -2.7076 0
M  V30 15072 C 2565.44 7.45864 -1.40599 0
M  V30 15073 O 2565.65 6.17651 -0.734225 0
M  V30 15074 C 2566.84 8.05808 -1.51899 0
M  V30 15075 O 2567.23 8.74358 -0.335205 0
M  V30 15076 C 2567.72 6.83093 -1.70294 0
M  V30 15077 C 2567.01 5.79992 -0.836974 0
M  V30 15078 N 2567.06 4.41864 -1.38293 0
M  V30 15079 H 2564.23 8.13644 -3.0377 0
M  V30 15080 H 2563.96 6.42788 -2.55485 0
M  V30 15081 H 2564.82 8.12039 -0.792769 0
M  V30 15082 P 2568.78 8.91 -6.72738e-11 0
M  V30 15083 O 2569 10.1726 0.733694 0
M  V30 15084 O 2569.57 8.73148 -1.23936 0
M  V30 15085 O 2569.03 7.66872 0.971405 0
M  V30 15086 C 2568.09 7.42309 2.04641 0
M  V30 15087 C 2568.82 6.86059 3.24661 0
M  V30 15088 O 2569.03 5.42847 3.03646 0
M  V30 15089 C 2570.22 7.41196 3.50753 0
M  V30 15090 O 2570.61 7.27073 4.86816 0
M  V30 15091 C 2571.1 6.5273 2.63741 0
M  V30 15092 C 2570.39 5.1842 2.73198 0
M  V30 15093 N 2570.44 4.38762 1.4784 0
M  V30 15094 H 2567.61 8.36803 2.32493 0
M  V30 15095 H 2567.34 6.70197 1.71129 0
M  V30 15096 H 2568.2 7.03551 4.13168 0
M  V30 15097 P 2572.16 7.20834 5.23717 0
M  V30 15098 O 2572.38 7.79853 6.57286 0
M  V30 15099 O 2572.95 7.79239 4.12957 0
M  V30 15100 O 2572.41 5.63315 5.29344 0
M  V30 15101 C 2571.47 4.80255 6.01876 0
M  V30 15102 C 2572.2 3.64202 6.65911 0
M  V30 15103 O 2572.41 2.60694 5.64732 0
M  V30 15104 C 2573.6 3.93473 7.1943 0
M  V30 15105 O 2573.99 3.02071 8.21205 0
M  V30 15106 C 2574.48 3.73047 5.97036 0
M  V30 15107 C 2573.77 2.58828 5.25741 0
M  V30 15108 N 2573.82 2.68068 3.77503 0
M  V30 15109 H 2570.99 5.40332 6.79951 0
M  V30 15110 H 2570.72 4.41613 5.32378 0
M  V30 15111 H 2571.58 3.26331 7.47797 0
M  V30 15112 P 2575.54 2.75334 8.47391 0
M  V30 15113 O 2575.76 2.44571 9.90142 0
M  V30 15114 O 2576.33 3.87688 7.92115 0
M  V30 15115 O 2575.79 1.4459 7.59357 0
M  V30 15116 C 2574.85 0.347608 7.69215 0
M  V30 15117 C 2575.58 -0.96767 7.52806 0
M  V30 15118 O 2575.79 -1.21036 6.1011 0
M  V30 15119 C 2576.98 -1.04544 8.13308 0
M  V30 15120 O 2577.37 -2.38311 8.41922 0
M  V30 15121 C 2577.86 -0.491279 7.02284 0
M  V30 15122 C 2577.15 -0.996264 5.77469 0
M  V30 15123 N 2577.2 -0.0501916 4.62973 0
M  V30 15124 C 2577.12 1.32786 4.63244 0
M  V30 15125 N 2577.2 1.86957 3.44545 0
M  V30 15126 C 2577.34 0.780241 2.58481 0
M  V30 15127 C 2577.47 0.738536 1.17757 0
M  V30 15128 O 2577.49 1.66794 0.372349 0
M  V30 15129 N 2577.59 -0.58337 0.711393 0
M  V30 15130 C 2577.59 -1.70816 1.51017 0
M  V30 15131 N 2577.72 -2.87826 0.880757 0
M  V30 15132 N 2577.46 -1.67126 2.8339 0
M  V30 15133 C 2577.34 -0.401421 3.30572 0
M  V30 15134 H 2574.37 0.374722 8.67691 0
M  V30 15135 H 2574.1 0.443485 6.90277 0
M  V30 15136 H 2574.96 -1.75537 7.96793 0
M  V30 15137 H 2577.62 -1.95076 5.46529 0
M  V30 15138 H 2577.9 0.608565 7.04577 0
M  V30 15139 H 2578.89 -0.889672 7.08939 0
M  V30 15140 H 2577.05 -0.43308 9.04564 0
M  V30 15141 H 2577.01 1.91249 5.54442 0
M  V30 15142 H 2577.69 -0.718054 -0.275244 0
M  V30 15143 H 2577.72 -3.75721 1.41832 0
M  V30 15144 H 2577.83 -2.90436 -0.145468 0
M  V30 15145 P 2578.92 -2.75334 8.47391 0
M  V30 15146 O 2579.14 -3.84128 9.44797 0
M  V30 15147 O 2579.71 -1.51947 8.68712 0
M  V30 15148 O 2579.17 -3.29363 6.99321 0
M  V30 15149 C 2578.23 -4.24011 6.4274 0
M  V30 15150 C 2578.96 -5.20775 5.52155 0
M  V30 15151 O 2579.17 -4.56534 4.22446 0
M  V30 15152 C 2580.36 -5.62629 5.96531 0
M  V30 15153 O 2580.75 -6.87667 5.41053 0
M  V30 15154 C 2581.24 -4.52537 5.39283 0
M  V30 15155 C 2580.53 -4.20027 4.08623 0
M  V30 15156 N 2580.58 -2.76189 3.71603 0
M  V30 15157 H 2577.75 -4.797 7.24003 0
M  V30 15158 H 2577.48 -3.69856 5.84513 0
M  V30 15159 H 2578.34 -6.10356 5.41441 0
M  V30 15160 P 2582.3 -7.20834 5.23717 0
M  V30 15161 O 2582.52 -8.66104 5.38572 0
M  V30 15162 O 2583.09 -6.33544 6.1349 0
M  V30 15163 O 2582.55 -6.7751 3.72168 0
M  V30 15164 C 2581.61 -7.20825 2.7076 0
M  V30 15165 C 2582.34 -7.45864 1.40599 0
M  V30 15166 O 2582.55 -6.17651 0.734225 0
M  V30 15167 C 2583.74 -8.05808 1.51899 0
M  V30 15168 O 2584.13 -8.74358 0.335205 0
M  V30 15169 C 2584.62 -6.83093 1.70294 0
M  V30 15170 C 2583.91 -5.79992 0.836974 0
M  V30 15171 N 2583.96 -4.41864 1.38293 0
M  V30 15172 H 2581.13 -8.13644 3.0377 0
M  V30 15173 H 2580.86 -6.42788 2.55485 0
M  V30 15174 H 2581.72 -8.12039 0.792769 0
M  V30 15175 P 2585.68 -8.91 6.83828e-11 0
M  V30 15176 O 2585.9 -10.1736 -0.733766 0
M  V30 15177 O 2586.47 -8.73247 1.2395 0
M  V30 15178 O 2585.93 -7.66872 -0.971405 0
M  V30 15179 C 2584.99 -7.42212 -2.04614 0
M  V30 15180 C 2585.72 -6.86059 -3.24661 0
M  V30 15181 O 2585.93 -5.42847 -3.03646 0
M  V30 15182 C 2587.12 -7.41196 -3.50753 0
M  V30 15183 O 2587.51 -7.27073 -4.86816 0
M  V30 15184 C 2588 -6.5273 -2.63741 0
M  V30 15185 C 2587.29 -5.1842 -2.73198 0
M  V30 15186 N 2587.34 -4.38668 -1.47808 0
M  V30 15187 C 2587.49 -3.02239 -1.60048 0
M  V30 15188 O 2587.58 -2.46459 -2.67869 0
M  V30 15189 N 2587.53 -2.32436 -0.408571 0
M  V30 15190 C 2587.44 -2.85471 0.854993 0
M  V30 15191 C 2587.29 -4.28918 0.887335 0
M  V30 15192 C 2587.24 -5.00349 -0.255399 0
M  V30 15193 H 2584.5 -8.36803 -2.32493 0
M  V30 15194 H 2584.24 -6.701 -1.71105 0
M  V30 15195 H 2585.1 -7.03551 -4.13168 0
M  V30 15196 H 2587.76 -4.59773 -3.53894 0
M  V30 15197 H 2588.04 -6.88995 -1.59871 0
M  V30 15198 H 2589.03 -6.46749 -3.03687 0
M  V30 15199 H 2587.19 -8.46908 -3.20714 0
M  V30 15200 H 2587.12 -6.08548 -0.206986 0
M  V30 15201 P 2589.06 -7.20834 -5.23717 0
M  V30 15202 O 2589.28 -7.79853 -6.57286 0
M  V30 15203 O 2589.85 -7.79239 -4.12957 0
M  V30 15204 O 2589.31 -5.63315 -5.29344 0
M  V30 15205 C 2588.37 -4.80255 -6.01876 0
M  V30 15206 C 2589.1 -3.64202 -6.65911 0
M  V30 15207 O 2589.31 -2.60694 -5.64732 0
M  V30 15208 C 2590.5 -3.93473 -7.1943 0
M  V30 15209 O 2590.89 -3.02071 -8.21205 0
M  V30 15210 C 2591.38 -3.73047 -5.97036 0
M  V30 15211 C 2590.67 -2.58828 -5.25741 0
M  V30 15212 N 2590.72 -2.68068 -3.77503 0
M  V30 15213 C 2590.64 -3.79715 -2.96723 0
M  V30 15214 N 2590.72 -3.5377 -1.68852 0
M  V30 15215 C 2590.86 -2.15054 -1.63254 0
M  V30 15216 C 2590.99 -1.28964 -0.518571 0
M  V30 15217 O 2591.01 -1.56826 0.679156 0
M  V30 15218 N 2591.11 0.0538097 -0.918425 0
M  V30 15219 C 2591.11 0.494275 -2.22578 0
M  V30 15220 N 2591.24 1.81086 -2.40434 0
M  V30 15221 N 2590.98 -0.313645 -3.27502 0
M  V30 15222 C 2590.86 -1.61829 -2.91033 0
M  V30 15223 H 2587.89 -5.40332 -6.79951 0
M  V30 15224 H 2587.62 -4.41613 -5.32378 0
M  V30 15225 H 2588.48 -3.26331 -7.47797 0
M  V30 15226 H 2591.14 -1.63422 -5.56814 0
M  V30 15227 H 2591.42 -4.63374 -5.34244 0
M  V30 15228 H 2592.41 -3.44728 -6.25838 0
M  V30 15229 H 2590.57 -4.96652 -7.57263 0
M  V30 15230 H 2590.53 -4.80617 -3.3614 0
M  V30 15231 H 2591.21 0.742702 -0.199384 0
M  V30 15232 H 2591.24 2.20598 -3.35588 0
M  V30 15233 H 2591.35 2.43518 -1.58945 0
M  V30 15234 P 2592.44 -2.75334 -8.47391 0
M  V30 15235 O 2592.66 -2.44619 -9.90336 0
M  V30 15236 O 2593.23 -3.87776 -7.92294 0
M  V30 15237 O 2592.69 -1.4459 -7.59357 0
M  V30 15238 C 2591.75 -0.347653 -7.69315 0
M  V30 15239 C 2592.48 0.96767 -7.52806 0
M  V30 15240 O 2592.69 1.21055 -6.10208 0
M  V30 15241 C 2593.88 1.04557 -8.13408 0
M  V30 15242 O 2594.27 2.38311 -8.41922 0
M  V30 15243 C 2594.76 0.491279 -7.02284 0
M  V30 15244 C 2594.05 0.996264 -5.77469 0
M  V30 15245 N 2594.1 0.0501916 -4.62973 0
M  V30 15246 H 2591.27 -0.374765 -8.67791 0
M  V30 15247 H 2590.99 -0.443613 -6.90476 0
M  V30 15248 H 2591.86 1.75559 -7.96891 0
M  V30 15249 H 2594.52 1.94563 -5.46818 0
M  V30 15250 H 2594.8 -0.608651 -7.04676 0
M  V30 15251 H 2595.79 0.889796 -7.09039 0
M  V30 15252 H 2593.95 0.433128 -9.04664 0
M  V30 15253 P 2595.82 2.75334 -8.47391 0
M  V30 15254 O 2596.04 3.84128 -9.44797 0
M  V30 15255 O 2596.61 1.51947 -8.68712 0
M  V30 15256 O 2596.07 3.29363 -6.99321 0
M  V30 15257 C 2595.13 4.24011 -6.4274 0
M  V30 15258 C 2595.86 5.20775 -5.52155 0
M  V30 15259 O 2596.07 4.56534 -4.22446 0
M  V30 15260 C 2597.26 5.62629 -5.96531 0
M  V30 15261 O 2597.65 6.87667 -5.41053 0
M  V30 15262 C 2598.14 4.52537 -5.39283 0
M  V30 15263 C 2597.43 4.20027 -4.08623 0
M  V30 15264 N 2597.48 2.76189 -3.71603 0
M  V30 15265 H 2594.65 4.797 -7.24003 0
M  V30 15266 H 2594.38 3.69856 -5.84513 0
M  V30 15267 H 2595.24 6.10356 -5.41441 0
M  V30 15268 P 2599.2 7.20834 -5.23717 0
M  V30 15269 O 2599.42 8.66274 -5.38678 0
M  V30 15270 O 2599.99 6.33687 -6.13629 0
M  V30 15271 O 2599.45 6.7751 -3.72168 0
M  V30 15272 C 2598.51 7.20919 -2.70795 0
M  V30 15273 C 2599.24 7.45864 -1.40599 0
M  V30 15274 O 2599.45 6.17751 -0.734343 0
M  V30 15275 C 2600.64 8.05906 -1.51917 0
M  V30 15276 O 2601.03 8.74358 -0.335205 0
M  V30 15277 C 2601.52 6.83093 -1.70294 0
M  V30 15278 C 2600.81 5.79992 -0.836974 0
M  V30 15279 N 2600.86 4.41864 -1.38293 0
M  V30 15280 C 2600.78 4.02089 -2.69407 0
M  V30 15281 N 2600.85 2.73403 -2.85089 0
M  V30 15282 C 2601 2.25086 -1.5642 0
M  V30 15283 C 2601.13 0.942887 -1.04836 0
M  V30 15284 N 2601.14 -0.150999 -1.80369 0
M  V30 15285 N 2601.25 0.812565 0.28167 0
M  V30 15286 C 2601.24 1.90572 1.03784 0
M  V30 15287 N 2601.12 3.167 0.683905 0
M  V30 15288 C 2601 3.26538 -0.652815 0
M  V30 15289 H 2598.03 8.13738 -3.03804 0
M  V30 15290 H 2597.75 6.42974 -2.55559 0
M  V30 15291 H 2598.62 8.12139 -0.792866 0
M  V30 15292 H 2601.28 5.80178 0.160643 0
M  V30 15293 H 2601.56 6.51379 -2.75643 0
M  V30 15294 H 2602.55 7.01832 -1.3448 0
M  V30 15295 H 2600.71 8.73771 -2.38364 0
M  V30 15296 H 2600.67 4.7189 -3.52311 0
M  V30 15297 H 2601.05 -0.0721434 -2.82608 0
M  V30 15298 H 2601.24 -1.0785 -1.36544 0
M  V30 15299 H 2601.35 1.73207 2.10241 0
M  V30 15300 P 2602.58 8.91 -6.94918e-11 0
M  V30 15301 O 2602.8 10.1726 0.733694 0
M  V30 15302 O 2603.37 8.73148 -1.23936 0
M  V30 15303 O 2602.83 7.66872 0.971405 0
M  V30 15304 C 2601.89 7.42309 2.04641 0
M  V30 15305 C 2602.62 6.86059 3.24661 0
M  V30 15306 O 2602.83 5.42847 3.03646 0
M  V30 15307 C 2604.02 7.41196 3.50753 0
M  V30 15308 O 2604.41 7.27073 4.86816 0
M  V30 15309 C 2604.9 6.5273 2.63741 0
M  V30 15310 C 2604.19 5.1842 2.73198 0
M  V30 15311 N 2604.24 4.38762 1.4784 0
M  V30 15312 H 2601.41 8.36803 2.32493 0
M  V30 15313 H 2601.14 6.70197 1.71129 0
M  V30 15314 H 2602 7.03551 4.13168 0
M  V30 15315 P 2605.96 7.20834 5.23717 0
M  V30 15316 O 2606.18 7.79853 6.57286 0
M  V30 15317 O 2606.75 7.79239 4.12957 0
M  V30 15318 O 2606.21 5.63315 5.29344 0
M  V30 15319 C 2605.27 4.80255 6.01876 0
M  V30 15320 C 2606 3.64202 6.65911 0
M  V30 15321 O 2606.21 2.60694 5.64732 0
M  V30 15322 C 2607.4 3.93473 7.1943 0
M  V30 15323 O 2607.79 3.02071 8.21205 0
M  V30 15324 C 2608.28 3.73047 5.97036 0
M  V30 15325 C 2607.57 2.58828 5.25741 0
M  V30 15326 N 2607.62 2.68068 3.77503 0
M  V30 15327 C 2607.54 3.79715 2.96723 0
M  V30 15328 N 2607.62 3.5377 1.68852 0
M  V30 15329 C 2607.76 2.15054 1.63254 0
M  V30 15330 C 2607.89 1.28964 0.518571 0
M  V30 15331 O 2607.91 1.56826 -0.679156 0
M  V30 15332 N 2608.01 -0.0538097 0.918425 0
M  V30 15333 C 2608.01 -0.494275 2.22578 0
M  V30 15334 N 2608.14 -1.81086 2.40434 0
M  V30 15335 N 2607.88 0.313645 3.27502 0
M  V30 15336 C 2607.76 1.61829 2.91033 0
M  V30 15337 H 2604.79 5.40332 6.79951 0
M  V30 15338 H 2604.52 4.41613 5.32378 0
M  V30 15339 H 2605.38 3.26331 7.47797 0
M  V30 15340 H 2608.04 1.63422 5.56814 0
M  V30 15341 H 2608.32 4.63374 5.34244 0
M  V30 15342 H 2609.31 3.44728 6.25838 0
M  V30 15343 H 2607.47 4.96652 7.57263 0
M  V30 15344 H 2607.43 4.80617 3.3614 0
M  V30 15345 H 2608.11 -0.742702 0.199384 0
M  V30 15346 H 2608.14 -2.20598 3.35588 0
M  V30 15347 H 2608.25 -2.43518 1.58945 0
M  V30 15348 P 2609.34 2.75334 8.47391 0
M  V30 15349 O 2609.56 2.44571 9.90142 0
M  V30 15350 O 2610.13 3.87688 7.92115 0
M  V30 15351 O 2609.59 1.4459 7.59357 0
M  V30 15352 C 2608.65 0.347608 7.69215 0
M  V30 15353 C 2609.38 -0.96767 7.52806 0
M  V30 15354 O 2609.59 -1.21036 6.1011 0
M  V30 15355 C 2610.78 -1.04544 8.13308 0
M  V30 15356 O 2611.17 -2.38311 8.41922 0
M  V30 15357 C 2611.66 -0.491279 7.02284 0
M  V30 15358 C 2610.95 -0.996264 5.77469 0
M  V30 15359 N 2611 -0.0501916 4.62973 0
M  V30 15360 H 2608.17 0.374722 8.67691 0
M  V30 15361 H 2607.9 0.443485 6.90277 0
M  V30 15362 H 2608.76 -1.75537 7.96793 0
M  V30 15363 P 2612.72 -2.75334 8.47391 0
M  V30 15364 O 2612.94 -3.84204 9.44982 0
M  V30 15365 O 2613.51 -1.51982 8.68909 0
M  V30 15366 O 2612.97 -3.29363 6.99321 0
M  V30 15367 C 2612.03 -4.24066 6.42823 0
M  V30 15368 C 2612.76 -5.20775 5.52155 0
M  V30 15369 O 2612.97 -4.56607 4.22514 0
M  V30 15370 C 2614.16 -5.62697 5.96604 0
M  V30 15371 O 2614.55 -6.87667 5.41053 0
M  V30 15372 C 2615.04 -4.52537 5.39283 0
M  V30 15373 C 2614.33 -4.20027 4.08623 0
M  V30 15374 N 2614.38 -2.76189 3.71603 0
M  V30 15375 C 2614.3 -1.66944 4.54297 0
M  V30 15376 N 2614.37 -0.536169 3.91344 0
M  V30 15377 C 2614.52 -0.901569 2.58849 0
M  V30 15378 C 2614.65 -0.146599 1.40236 0
M  V30 15379 N 2614.66 1.18234 1.37046 0
M  V30 15380 N 2614.77 -0.822941 0.249738 0
M  V30 15381 C 2614.76 -2.15179 0.280525 0
M  V30 15382 N 2614.64 -2.96414 1.30822 0
M  V30 15383 C 2614.52 -2.25804 2.44748 0
M  V30 15384 H 2611.55 -4.79756 7.24086 0
M  V30 15385 H 2611.27 -3.69963 5.84682 0
M  V30 15386 H 2612.14 -6.10431 5.41508 0
M  V30 15387 H 2614.8 -4.78816 3.28024 0
M  V30 15388 H 2615.08 -3.64957 6.05871 0
M  V30 15389 H 2616.07 -4.88748 5.21323 0
M  V30 15390 H 2614.23 -5.66789 7.0643 0
M  V30 15391 H 2614.19 -1.74684 5.62396 0
M  V30 15392 H 2614.57 1.71949 2.24394 0
M  V30 15393 H 2614.76 1.67511 0.470742 0
M  V30 15394 H 2614.87 -2.63704 -0.6828 0
M  V30 15395 P 2616.1 -7.20834 5.23717 0
M  V30 15396 O 2616.32 -8.66104 5.38572 0
M  V30 15397 O 2616.89 -6.33544 6.1349 0
M  V30 15398 O 2616.35 -6.7751 3.72168 0
M  V30 15399 C 2615.41 -7.20825 2.7076 0
M  V30 15400 C 2616.14 -7.45864 1.40599 0
M  V30 15401 O 2616.35 -6.17651 0.734225 0
M  V30 15402 C 2617.54 -8.05808 1.51899 0
M  V30 15403 O 2617.93 -8.74358 0.335205 0
M  V30 15404 C 2618.42 -6.83093 1.70294 0
M  V30 15405 C 2617.71 -5.79992 0.836974 0
M  V30 15406 N 2617.76 -4.41864 1.38293 0
M  V30 15407 C 2617.68 -3.99538 2.69438 0
M  V30 15408 N 2617.76 -2.69909 2.84277 0
M  V30 15409 C 2617.9 -2.21719 1.5408 0
M  V30 15410 C 2618.03 -0.891712 1.06628 0
M  V30 15411 N 2618.15 -0.856846 -0.334985 0
M  V30 15412 C 2618.15 -1.9641 -1.15789 0
M  V30 15413 N 2618.28 -1.72708 -2.46522 0
M  V30 15414 N 2618.02 -3.21165 -0.713741 0
M  V30 15415 C 2617.9 -3.26797 0.639748 0
M  V30 15416 H 2614.93 -8.13644 3.0377 0
M  V30 15417 H 2614.66 -6.42788 2.55485 0
M  V30 15418 H 2615.52 -8.12039 0.792769 0
M  V30 15419 P 2619.48 -8.91 7.06008e-11 0
M  V30 15420 O 2619.7 -10.1726 -0.733694 0
M  V30 15421 O 2620.27 -8.73148 1.23936 0
M  V30 15422 O 2619.73 -7.66872 -0.971405 0
M  V30 15423 C 2618.79 -7.42309 -2.04641 0
M  V30 15424 C 2619.52 -6.86059 -3.24661 0
M  V30 15425 O 2619.73 -5.42847 -3.03646 0
M  V30 15426 C 2620.92 -7.41196 -3.50753 0
M  V30 15427 O 2621.31 -7.27073 -4.86816 0
M  V30 15428 C 2621.8 -6.5273 -2.63741 0
M  V30 15429 C 2621.09 -5.1842 -2.73198 0
M  V30 15430 N 2621.14 -4.38762 -1.4784 0
M  V30 15431 H 2618.31 -8.36803 -2.32493 0
M  V30 15432 H 2618.04 -6.70197 -1.71129 0
M  V30 15433 H 2618.9 -7.03551 -4.13168 0
M  V30 15434 P 2622.86 -7.20834 -5.23717 0
M  V30 15435 O 2623.08 -7.79853 -6.57286 0
M  V30 15436 O 2623.65 -7.79239 -4.12957 0
M  V30 15437 O 2623.11 -5.63315 -5.29344 0
M  V30 15438 C 2622.17 -4.80255 -6.01876 0
M  V30 15439 C 2622.9 -3.64202 -6.65911 0
M  V30 15440 O 2623.11 -2.60694 -5.64732 0
M  V30 15441 C 2624.3 -3.93473 -7.1943 0
M  V30 15442 O 2624.69 -3.02071 -8.21205 0
M  V30 15443 C 2625.18 -3.73047 -5.97036 0
M  V30 15444 C 2624.47 -2.58828 -5.25741 0
M  V30 15445 N 2624.52 -2.68068 -3.77503 0
M  V30 15446 H 2621.69 -5.40332 -6.79951 0
M  V30 15447 H 2621.42 -4.41613 -5.32378 0
M  V30 15448 H 2622.28 -3.26331 -7.47797 0
M  V30 15449 P 2626.24 -2.75334 -8.47391 0
M  V30 15450 O 2626.46 -2.44571 -9.90142 0
M  V30 15451 O 2627.03 -3.87688 -7.92115 0
M  V30 15452 O 2626.49 -1.4459 -7.59357 0
M  V30 15453 C 2625.55 -0.347608 -7.69215 0
M  V30 15454 C 2626.28 0.96767 -7.52806 0
M  V30 15455 O 2626.49 1.21036 -6.1011 0
M  V30 15456 C 2627.68 1.04544 -8.13308 0
M  V30 15457 O 2628.07 2.38311 -8.41922 0
M  V30 15458 C 2628.56 0.491279 -7.02284 0
M  V30 15459 C 2627.85 0.996264 -5.77469 0
M  V30 15460 N 2627.9 0.0501916 -4.62973 0
M  V30 15461 H 2625.07 -0.374722 -8.67691 0
M  V30 15462 H 2624.8 -0.443485 -6.90277 0
M  V30 15463 H 2625.66 1.75537 -7.96793 0
M  V30 15464 P 2629.62 2.75334 -8.47391 0
M  V30 15465 O 2629.84 3.84128 -9.44797 0
M  V30 15466 O 2630.41 1.51947 -8.68712 0
M  V30 15467 O 2629.87 3.29363 -6.99321 0
M  V30 15468 C 2628.93 4.24011 -6.4274 0
M  V30 15469 C 2629.66 5.20775 -5.52155 0
M  V30 15470 O 2629.87 4.56534 -4.22446 0
M  V30 15471 C 2631.06 5.62629 -5.96531 0
M  V30 15472 O 2631.45 6.87667 -5.41053 0
M  V30 15473 C 2631.94 4.52537 -5.39283 0
M  V30 15474 C 2631.23 4.20027 -4.08623 0
M  V30 15475 N 2631.28 2.76189 -3.71603 0
M  V30 15476 H 2628.45 4.797 -7.24003 0
M  V30 15477 H 2628.18 3.69856 -5.84513 0
M  V30 15478 H 2629.04 6.10356 -5.41441 0
M  V30 15479 P 2633 7.20834 -5.23717 0
M  V30 15480 O 2633.22 8.66104 -5.38572 0
M  V30 15481 O 2633.79 6.33544 -6.1349 0
M  V30 15482 O 2633.25 6.7751 -3.72168 0
M  V30 15483 C 2632.31 7.20825 -2.7076 0
M  V30 15484 C 2633.04 7.45864 -1.40599 0
M  V30 15485 O 2633.25 6.17651 -0.734225 0
M  V30 15486 C 2634.44 8.05808 -1.51899 0
M  V30 15487 O 2634.83 8.74358 -0.335205 0
M  V30 15488 C 2635.32 6.83093 -1.70294 0
M  V30 15489 C 2634.61 5.79992 -0.836974 0
M  V30 15490 N 2634.66 4.41864 -1.38293 0
M  V30 15491 H 2631.83 8.13644 -3.0377 0
M  V30 15492 H 2631.56 6.42788 -2.55485 0
M  V30 15493 H 2632.42 8.12039 -0.792769 0
M  V30 15494 P 2636.38 8.91 -7.17098e-11 0
M  V30 15495 O 2636.6 10.1726 0.733694 0
M  V30 15496 O 2637.17 8.73148 -1.23936 0
M  V30 15497 O 2636.63 7.66872 0.971405 0
M  V30 15498 C 2635.69 7.42309 2.04641 0
M  V30 15499 C 2636.42 6.86059 3.24661 0
M  V30 15500 O 2636.63 5.42847 3.03646 0
M  V30 15501 C 2637.82 7.41196 3.50753 0
M  V30 15502 O 2638.21 7.27073 4.86816 0
M  V30 15503 C 2638.7 6.5273 2.63741 0
M  V30 15504 C 2637.99 5.1842 2.73198 0
M  V30 15505 N 2638.04 4.38762 1.4784 0
M  V30 15506 C 2637.96 4.81605 0.168631 0
M  V30 15507 N 2638.04 3.85454 -0.713363 0
M  V30 15508 C 2638.18 2.6994 0.0566958 0
M  V30 15509 C 2638.31 1.34815 -0.338502 0
M  V30 15510 N 2638.43 0.496304 0.77465 0
M  V30 15511 C 2638.43 0.908403 2.09122 0
M  V30 15512 N 2638.56 -0.0517805 3.00955 0
M  V30 15513 N 2638.3 2.17875 2.46519 0
M  V30 15514 C 2638.18 3.01988 1.4033 0
M  V30 15515 H 2635.21 8.36803 2.32493 0
M  V30 15516 H 2634.94 6.70197 1.71129 0
M  V30 15517 H 2635.8 7.03551 4.13168 0
M  V30 15518 P 2639.76 7.20834 5.23717 0
M  V30 15519 O 2639.98 7.79853 6.57286 0
M  V30 15520 O 2640.55 7.79239 4.12957 0
M  V30 15521 O 2640.01 5.63315 5.29344 0
M  V30 15522 C 2639.07 4.80255 6.01876 0
M  V30 15523 C 2639.8 3.64202 6.65911 0
M  V30 15524 O 2640.01 2.60694 5.64732 0
M  V30 15525 C 2641.2 3.93473 7.1943 0
M  V30 15526 O 2641.59 3.02071 8.21205 0
M  V30 15527 C 2642.08 3.73047 5.97036 0
M  V30 15528 C 2641.37 2.58828 5.25741 0
M  V30 15529 N 2641.42 2.68068 3.77503 0
M  V30 15530 H 2638.59 5.40332 6.79951 0
M  V30 15531 H 2638.32 4.41613 5.32378 0
M  V30 15532 H 2639.18 3.26331 7.47797 0
M  V30 15533 P 2643.14 2.75334 8.47391 0
M  V30 15534 O 2643.36 2.44571 9.90142 0
M  V30 15535 O 2643.93 3.87688 7.92115 0
M  V30 15536 O 2643.39 1.4459 7.59357 0
M  V30 15537 C 2642.45 0.347608 7.69215 0
M  V30 15538 C 2643.18 -0.96767 7.52806 0
M  V30 15539 O 2643.39 -1.21036 6.1011 0
M  V30 15540 C 2644.58 -1.04544 8.13308 0
M  V30 15541 O 2644.97 -2.38311 8.41922 0
M  V30 15542 C 2645.46 -0.491279 7.02284 0
M  V30 15543 C 2644.75 -0.996264 5.77469 0
M  V30 15544 N 2644.8 -0.0501916 4.62973 0
M  V30 15545 H 2641.97 0.374722 8.67691 0
M  V30 15546 H 2641.7 0.443485 6.90277 0
M  V30 15547 H 2642.56 -1.75537 7.96793 0
M  V30 15548 P 2646.52 -2.75334 8.47391 0
M  V30 15549 O 2646.74 -3.84204 9.44982 0
M  V30 15550 O 2647.31 -1.51982 8.68909 0
M  V30 15551 O 2646.77 -3.29363 6.99321 0
M  V30 15552 C 2645.83 -4.24066 6.42823 0
M  V30 15553 C 2646.56 -5.20775 5.52155 0
M  V30 15554 O 2646.77 -4.56607 4.22514 0
M  V30 15555 C 2647.96 -5.62697 5.96604 0
M  V30 15556 O 2648.35 -6.87667 5.41053 0
M  V30 15557 C 2648.84 -4.52537 5.39283 0
M  V30 15558 C 2648.13 -4.20027 4.08623 0
M  V30 15559 N 2648.18 -2.76189 3.71603 0
M  V30 15560 C 2648.1 -1.66944 4.54297 0
M  V30 15561 N 2648.17 -0.536169 3.91344 0
M  V30 15562 C 2648.32 -0.901569 2.58849 0
M  V30 15563 C 2648.45 -0.146599 1.40236 0
M  V30 15564 N 2648.46 1.18234 1.37046 0
M  V30 15565 N 2648.57 -0.822941 0.249738 0
M  V30 15566 C 2648.56 -2.15179 0.280525 0
M  V30 15567 N 2648.44 -2.96414 1.30822 0
M  V30 15568 C 2648.32 -2.25804 2.44748 0
M  V30 15569 H 2645.35 -4.79756 7.24086 0
M  V30 15570 H 2645.07 -3.69963 5.84682 0
M  V30 15571 H 2645.94 -6.10431 5.41508 0
M  V30 15572 H 2648.6 -4.78816 3.28024 0
M  V30 15573 H 2648.88 -3.64957 6.05871 0
M  V30 15574 H 2649.87 -4.88748 5.21323 0
M  V30 15575 H 2648.03 -5.66789 7.0643 0
M  V30 15576 H 2647.99 -1.74684 5.62396 0
M  V30 15577 H 2648.37 1.71949 2.24394 0
M  V30 15578 H 2648.56 1.67511 0.470742 0
M  V30 15579 H 2648.67 -2.63704 -0.6828 0
M  V30 15580 P 2649.9 -7.20834 5.23717 0
M  V30 15581 O 2650.12 -8.66104 5.38572 0
M  V30 15582 O 2650.69 -6.33544 6.1349 0
M  V30 15583 O 2650.15 -6.7751 3.72168 0
M  V30 15584 C 2649.21 -7.20825 2.7076 0
M  V30 15585 C 2649.94 -7.45864 1.40599 0
M  V30 15586 O 2650.15 -6.17651 0.734225 0
M  V30 15587 C 2651.34 -8.05808 1.51899 0
M  V30 15588 O 2651.73 -8.74358 0.335205 0
M  V30 15589 C 2652.22 -6.83093 1.70294 0
M  V30 15590 C 2651.51 -5.79992 0.836974 0
M  V30 15591 N 2651.56 -4.41864 1.38293 0
M  V30 15592 H 2648.73 -8.13644 3.0377 0
M  V30 15593 H 2648.46 -6.42788 2.55485 0
M  V30 15594 H 2649.32 -8.12039 0.792769 0
M  V30 15595 P 2653.28 -8.91 7.28188e-11 0
M  V30 15596 O 2653.5 -10.1726 -0.733694 0
M  V30 15597 O 2654.07 -8.73148 1.23936 0
M  V30 15598 O 2653.53 -7.66872 -0.971405 0
M  V30 15599 C 2652.59 -7.42309 -2.04641 0
M  V30 15600 C 2653.32 -6.86059 -3.24661 0
M  V30 15601 O 2653.53 -5.42847 -3.03646 0
M  V30 15602 C 2654.72 -7.41196 -3.50753 0
M  V30 15603 O 2655.11 -7.27073 -4.86816 0
M  V30 15604 C 2655.6 -6.5273 -2.63741 0
M  V30 15605 C 2654.89 -5.1842 -2.73198 0
M  V30 15606 N 2654.94 -4.38762 -1.4784 0
M  V30 15607 H 2652.11 -8.36803 -2.32493 0
M  V30 15608 H 2651.84 -6.70197 -1.71129 0
M  V30 15609 H 2652.7 -7.03551 -4.13168 0
M  V30 15610 P 2656.66 -7.20834 -5.23717 0
M  V30 15611 O 2656.88 -7.7993 -6.57351 0
M  V30 15612 O 2657.45 -7.79328 -4.13004 0
M  V30 15613 O 2656.91 -5.63315 -5.29344 0
M  V30 15614 C 2655.97 -4.80193 -6.01798 0
M  V30 15615 C 2656.7 -3.64202 -6.65911 0
M  V30 15616 O 2656.91 -2.60694 -5.64732 0
M  V30 15617 C 2658.1 -3.93473 -7.1943 0
M  V30 15618 O 2658.49 -3.02071 -8.21205 0
M  V30 15619 C 2658.98 -3.73047 -5.97036 0
M  V30 15620 C 2658.27 -2.58828 -5.25741 0
M  V30 15621 N 2658.32 -2.6801 -3.77422 0
M  V30 15622 C 2658.47 -1.50443 -3.07133 0
M  V30 15623 O 2658.56 -0.419406 -3.61576 0
M  V30 15624 N 2658.51 -1.6403 -1.69677 0
M  V30 15625 C 2658.42 -2.81206 -0.986255 0
M  V30 15626 C 2658.27 -3.99158 -1.80325 0
M  V30 15627 C 2658.22 -3.89779 -3.1476 0
M  V30 15628 H 2655.48 -5.40332 -6.79951 0
M  V30 15629 H 2655.22 -4.41549 -5.32301 0
M  V30 15630 H 2656.08 -3.26331 -7.47797 0
M  V30 15631 H 2658.74 -1.6395 -5.56554 0
M  V30 15632 H 2659.02 -4.63439 -5.3432 0
M  V30 15633 H 2660.01 -3.44728 -6.25838 0
M  V30 15634 H 2658.17 -4.96652 -7.57263 0
M  V30 15635 H 2658.1 -4.80159 -3.74441 0
M  V30 15636 P 2660.04 -2.75334 -8.47391 0
M  V30 15637 O 2660.26 -2.44619 -9.90336 0
M  V30 15638 O 2660.83 -3.87776 -7.92294 0
M  V30 15639 O 2660.29 -1.4459 -7.59357 0
M  V30 15640 C 2659.35 -0.347653 -7.69315 0
M  V30 15641 C 2660.08 0.96767 -7.52806 0
M  V30 15642 O 2660.29 1.21055 -6.10208 0
M  V30 15643 C 2661.48 1.04557 -8.13408 0
M  V30 15644 O 2661.87 2.38311 -8.41922 0
M  V30 15645 C 2662.36 0.491279 -7.02284 0
M  V30 15646 C 2661.65 0.996264 -5.77469 0
M  V30 15647 N 2661.7 0.0501916 -4.62973 0
M  V30 15648 H 2658.87 -0.374765 -8.67791 0
M  V30 15649 H 2658.59 -0.443613 -6.90476 0
M  V30 15650 H 2659.46 1.75559 -7.96891 0
M  V30 15651 H 2662.12 1.94563 -5.46818 0
M  V30 15652 H 2662.4 -0.608651 -7.04676 0
M  V30 15653 H 2663.39 0.889796 -7.09039 0
M  V30 15654 H 2661.55 0.433128 -9.04664 0
M  V30 15655 P 2663.42 2.75334 -8.47391 0
M  V30 15656 O 2663.64 3.84128 -9.44797 0
M  V30 15657 O 2664.21 1.51947 -8.68712 0
M  V30 15658 O 2663.67 3.29363 -6.99321 0
M  V30 15659 C 2662.73 4.24011 -6.4274 0
M  V30 15660 C 2663.46 5.20775 -5.52155 0
M  V30 15661 O 2663.67 4.56534 -4.22446 0
M  V30 15662 C 2664.86 5.62629 -5.96531 0
M  V30 15663 O 2665.25 6.87667 -5.41053 0
M  V30 15664 C 2665.74 4.52537 -5.39283 0
M  V30 15665 C 2665.03 4.20027 -4.08623 0
M  V30 15666 N 2665.08 2.76189 -3.71603 0
M  V30 15667 H 2662.25 4.797 -7.24003 0
M  V30 15668 H 2661.98 3.69856 -5.84513 0
M  V30 15669 H 2662.84 6.10356 -5.41441 0
M  V30 15670 P 2666.8 7.20834 -5.23717 0
M  V30 15671 O 2667.02 8.66104 -5.38572 0
M  V30 15672 O 2667.59 6.33544 -6.1349 0
M  V30 15673 O 2667.05 6.7751 -3.72168 0
M  V30 15674 C 2666.11 7.20825 -2.7076 0
M  V30 15675 C 2666.84 7.45864 -1.40599 0
M  V30 15676 O 2667.05 6.17651 -0.734225 0
M  V30 15677 C 2668.24 8.05808 -1.51899 0
M  V30 15678 O 2668.63 8.74358 -0.335205 0
M  V30 15679 C 2669.12 6.83093 -1.70294 0
M  V30 15680 C 2668.41 5.79992 -0.836974 0
M  V30 15681 N 2668.46 4.41864 -1.38293 0
M  V30 15682 H 2665.63 8.13644 -3.0377 0
M  V30 15683 H 2665.36 6.42788 -2.55485 0
M  V30 15684 H 2666.22 8.12039 -0.792769 0
M  V30 15685 P 2670.18 8.91 -7.39278e-11 0
M  V30 15686 O 2670.4 10.1736 0.733766 0
M  V30 15687 O 2670.97 8.73247 -1.2395 0
M  V30 15688 O 2670.43 7.66872 0.971405 0
M  V30 15689 C 2669.49 7.42212 2.04614 0
M  V30 15690 C 2670.22 6.86059 3.24661 0
M  V30 15691 O 2670.43 5.42847 3.03646 0
M  V30 15692 C 2671.62 7.41196 3.50753 0
M  V30 15693 O 2672.01 7.27073 4.86816 0
M  V30 15694 C 2672.5 6.5273 2.63741 0
M  V30 15695 C 2671.79 5.1842 2.73198 0
M  V30 15696 N 2671.84 4.38668 1.47808 0
M  V30 15697 C 2671.99 3.02239 1.60048 0
M  V30 15698 O 2672.08 2.46459 2.67869 0
M  V30 15699 N 2672.03 2.32436 0.408571 0
M  V30 15700 C 2671.94 2.85471 -0.854993 0
M  V30 15701 C 2671.79 4.28918 -0.887335 0
M  V30 15702 C 2671.74 5.00349 0.255399 0
M  V30 15703 H 2669 8.36803 2.32493 0
M  V30 15704 H 2668.74 6.701 1.71105 0
M  V30 15705 H 2669.6 7.03551 4.13168 0
M  V30 15706 H 2672.26 4.59773 3.53894 0
M  V30 15707 H 2672.54 6.88995 1.59871 0
M  V30 15708 H 2673.53 6.46749 3.03687 0
M  V30 15709 H 2671.69 8.46908 3.20714 0
M  V30 15710 H 2671.62 6.08548 0.206986 0
M  V30 15711 P 2673.56 7.20834 5.23717 0
M  V30 15712 O 2673.78 7.79853 6.57286 0
M  V30 15713 O 2674.35 7.79239 4.12957 0
M  V30 15714 O 2673.81 5.63315 5.29344 0
M  V30 15715 C 2672.87 4.80255 6.01876 0
M  V30 15716 C 2673.6 3.64202 6.65911 0
M  V30 15717 O 2673.81 2.60694 5.64732 0
M  V30 15718 C 2675 3.93473 7.1943 0
M  V30 15719 O 2675.39 3.02071 8.21205 0
M  V30 15720 C 2675.88 3.73047 5.97036 0
M  V30 15721 C 2675.17 2.58828 5.25741 0
M  V30 15722 N 2675.22 2.68068 3.77503 0
M  V30 15723 H 2672.39 5.40332 6.79951 0
M  V30 15724 H 2672.12 4.41613 5.32378 0
M  V30 15725 H 2672.98 3.26331 7.47797 0
M  V30 15726 P 2676.94 2.75334 8.47391 0
M  V30 15727 O 2677.16 2.44571 9.90142 0
M  V30 15728 O 2677.73 3.87688 7.92115 0
M  V30 15729 O 2677.19 1.4459 7.59357 0
M  V30 15730 C 2676.25 0.347608 7.69215 0
M  V30 15731 C 2676.98 -0.96767 7.52806 0
M  V30 15732 O 2677.19 -1.21036 6.1011 0
M  V30 15733 C 2678.38 -1.04544 8.13308 0
M  V30 15734 O 2678.77 -2.38311 8.41922 0
M  V30 15735 C 2679.26 -0.491279 7.02284 0
M  V30 15736 C 2678.55 -0.996264 5.77469 0
M  V30 15737 N 2678.6 -0.0501916 4.62973 0
M  V30 15738 H 2675.77 0.374722 8.67691 0
M  V30 15739 H 2675.5 0.443485 6.90277 0
M  V30 15740 H 2676.36 -1.75537 7.96793 0
M  V30 15741 P 2680.32 -2.75334 8.47391 0
M  V30 15742 O 2680.54 -3.84128 9.44797 0
M  V30 15743 O 2681.11 -1.51947 8.68712 0
M  V30 15744 O 2680.57 -3.29363 6.99321 0
M  V30 15745 C 2679.63 -4.24011 6.4274 0
M  V30 15746 C 2680.36 -5.20775 5.52155 0
M  V30 15747 O 2680.57 -4.56534 4.22446 0
M  V30 15748 C 2681.76 -5.62629 5.96531 0
M  V30 15749 O 2682.15 -6.87667 5.41053 0
M  V30 15750 C 2682.64 -4.52537 5.39283 0
M  V30 15751 C 2681.93 -4.20027 4.08623 0
M  V30 15752 N 2681.98 -2.76189 3.71603 0
M  V30 15753 C 2681.9 -1.64862 4.52822 0
M  V30 15754 N 2681.98 -0.512671 3.88633 0
M  V30 15755 C 2682.12 -0.888083 2.54977 0
M  V30 15756 C 2682.25 -0.094668 1.38677 0
M  V30 15757 N 2682.37 -0.890102 0.232633 0
M  V30 15758 C 2682.37 -2.26958 0.21772 0
M  V30 15759 N 2682.5 -2.84626 -0.97925 0
M  V30 15760 N 2682.24 -3.0178 1.31033 0
M  V30 15761 C 2682.12 -2.26781 2.43843 0
M  V30 15762 H 2679.15 -4.797 7.24003 0
M  V30 15763 H 2678.88 -3.69856 5.84513 0
M  V30 15764 H 2679.74 -6.10356 5.41441 0
M  V30 15765 P 2683.7 -7.20834 5.23717 0
M  V30 15766 O 2683.92 -8.66189 5.38625 0
M  V30 15767 O 2684.49 -6.33615 6.1356 0
M  V30 15768 O 2683.95 -6.7751 3.72168 0
M  V30 15769 C 2683.01 -7.20732 2.70725 0
M  V30 15770 C 2683.74 -7.45864 1.40599 0
M  V30 15771 O 2683.95 -6.17651 0.734225 0
M  V30 15772 C 2685.14 -8.05808 1.51899 0
M  V30 15773 O 2685.53 -8.74358 0.335205 0
M  V30 15774 C 2686.02 -6.83093 1.70294 0
M  V30 15775 C 2685.31 -5.79992 0.836974 0
M  V30 15776 N 2685.36 -4.41769 1.38263 0
M  V30 15777 C 2685.51 -3.38591 0.481702 0
M  V30 15778 O 2685.6 -3.56839 -0.718452 0
M  V30 15779 N 2685.55 -2.1206 1.03569 0
M  V30 15780 C 2685.46 -1.80696 2.36966 0
M  V30 15781 C 2685.31 -2.94845 3.23898 0
M  V30 15782 C 2685.26 -4.19803 2.73435 0
M  V30 15783 H 2682.52 -8.13644 3.0377 0
M  V30 15784 H 2682.26 -6.42695 2.55448 0
M  V30 15785 H 2683.12 -8.12039 0.792769 0
M  V30 15786 H 2685.78 -5.79978 -0.160587 0
M  V30 15787 H 2686.06 -6.51379 2.75643 0
M  V30 15788 H 2687.05 -7.01734 1.34462 0
M  V30 15789 H 2685.21 -8.73674 2.38337 0
M  V30 15790 H 2685.14 -5.04492 3.4095 0
M  V30 15791 P 2687.08 -8.91 7.50368e-11 0
M  V30 15792 O 2687.3 -10.1726 -0.733694 0
M  V30 15793 O 2687.87 -8.73148 1.23936 0
M  V30 15794 O 2687.33 -7.66872 -0.971405 0
M  V30 15795 C 2686.39 -7.42309 -2.04641 0
M  V30 15796 C 2687.12 -6.86059 -3.24661 0
M  V30 15797 O 2687.33 -5.42847 -3.03646 0
M  V30 15798 C 2688.52 -7.41196 -3.50753 0
M  V30 15799 O 2688.91 -7.27073 -4.86816 0
M  V30 15800 C 2689.4 -6.5273 -2.63741 0
M  V30 15801 C 2688.69 -5.1842 -2.73198 0
M  V30 15802 N 2688.74 -4.38762 -1.4784 0
M  V30 15803 H 2685.91 -8.36803 -2.32493 0
M  V30 15804 H 2685.64 -6.70197 -1.71129 0
M  V30 15805 H 2686.5 -7.03551 -4.13168 0
M  V30 15806 P 2690.46 -7.20834 -5.23717 0
M  V30 15807 O 2690.68 -7.79853 -6.57286 0
M  V30 15808 O 2691.25 -7.79239 -4.12957 0
M  V30 15809 O 2690.71 -5.63315 -5.29344 0
M  V30 15810 C 2689.77 -4.80255 -6.01876 0
M  V30 15811 C 2690.5 -3.64202 -6.65911 0
M  V30 15812 O 2690.71 -2.60694 -5.64732 0
M  V30 15813 C 2691.9 -3.93473 -7.1943 0
M  V30 15814 O 2692.29 -3.02071 -8.21205 0
M  V30 15815 C 2692.78 -3.73047 -5.97036 0
M  V30 15816 C 2692.07 -2.58828 -5.25741 0
M  V30 15817 N 2692.12 -2.68068 -3.77503 0
M  V30 15818 C 2692.04 -3.79715 -2.96723 0
M  V30 15819 N 2692.12 -3.5377 -1.68852 0
M  V30 15820 C 2692.26 -2.15054 -1.63254 0
M  V30 15821 C 2692.39 -1.28964 -0.518571 0
M  V30 15822 O 2692.41 -1.56826 0.679156 0
M  V30 15823 N 2692.51 0.0538097 -0.918425 0
M  V30 15824 C 2692.51 0.494275 -2.22578 0
M  V30 15825 N 2692.64 1.81086 -2.40434 0
M  V30 15826 N 2692.38 -0.313645 -3.27502 0
M  V30 15827 C 2692.26 -1.61829 -2.91033 0
M  V30 15828 H 2689.29 -5.40332 -6.79951 0
M  V30 15829 H 2689.02 -4.41613 -5.32378 0
M  V30 15830 H 2689.88 -3.26331 -7.47797 0
M  V30 15831 H 2692.54 -1.63422 -5.56814 0
M  V30 15832 H 2692.82 -4.63374 -5.34244 0
M  V30 15833 H 2693.81 -3.44728 -6.25838 0
M  V30 15834 H 2691.97 -4.96652 -7.57263 0
M  V30 15835 H 2691.93 -4.80617 -3.3614 0
M  V30 15836 H 2692.61 0.742702 -0.199384 0
M  V30 15837 H 2692.64 2.20598 -3.35588 0
M  V30 15838 H 2692.75 2.43518 -1.58945 0
M  V30 15839 P 2693.84 -2.75334 -8.47391 0
M  V30 15840 O 2694.06 -2.44571 -9.90142 0
M  V30 15841 O 2694.63 -3.87688 -7.92115 0
M  V30 15842 O 2694.09 -1.4459 -7.59357 0
M  V30 15843 C 2693.15 -0.347608 -7.69215 0
M  V30 15844 C 2693.88 0.96767 -7.52806 0
M  V30 15845 O 2694.09 1.21036 -6.1011 0
M  V30 15846 C 2695.28 1.04544 -8.13308 0
M  V30 15847 O 2695.67 2.38311 -8.41922 0
M  V30 15848 C 2696.16 0.491279 -7.02284 0
M  V30 15849 C 2695.45 0.996264 -5.77469 0
M  V30 15850 N 2695.5 0.0501916 -4.62973 0
M  V30 15851 H 2692.67 -0.374722 -8.67691 0
M  V30 15852 H 2692.4 -0.443485 -6.90277 0
M  V30 15853 H 2693.26 1.75537 -7.96793 0
M  V30 15854 P 2697.22 2.75334 -8.47391 0
M  V30 15855 O 2697.44 3.84128 -9.44797 0
M  V30 15856 O 2698.01 1.51947 -8.68712 0
M  V30 15857 O 2697.47 3.29363 -6.99321 0
M  V30 15858 C 2696.53 4.24011 -6.4274 0
M  V30 15859 C 2697.26 5.20775 -5.52155 0
M  V30 15860 O 2697.47 4.56534 -4.22446 0
M  V30 15861 C 2698.66 5.62629 -5.96531 0
M  V30 15862 O 2699.05 6.87667 -5.41053 0
M  V30 15863 C 2699.54 4.52537 -5.39283 0
M  V30 15864 C 2698.83 4.20027 -4.08623 0
M  V30 15865 N 2698.88 2.76189 -3.71603 0
M  V30 15866 H 2696.05 4.797 -7.24003 0
M  V30 15867 H 2695.78 3.69856 -5.84513 0
M  V30 15868 H 2696.64 6.10356 -5.41441 0
M  V30 15869 P 2700.6 7.20834 -5.23717 0
M  V30 15870 O 2700.82 8.66104 -5.38572 0
M  V30 15871 O 2701.39 6.33544 -6.1349 0
M  V30 15872 O 2700.85 6.7751 -3.72168 0
M  V30 15873 C 2699.91 7.20825 -2.7076 0
M  V30 15874 C 2700.64 7.45864 -1.40599 0
M  V30 15875 O 2700.85 6.17651 -0.734225 0
M  V30 15876 C 2702.04 8.05808 -1.51899 0
M  V30 15877 O 2702.43 8.74358 -0.335205 0
M  V30 15878 C 2702.92 6.83093 -1.70294 0
M  V30 15879 C 2702.21 5.79992 -0.836974 0
M  V30 15880 N 2702.26 4.41864 -1.38293 0
M  V30 15881 H 2699.43 8.13644 -3.0377 0
M  V30 15882 H 2699.16 6.42788 -2.55485 0
M  V30 15883 H 2700.02 8.12039 -0.792769 0
M  V30 15884 P 2703.98 8.91 -7.61458e-11 0
M  V30 15885 O 2704.2 10.1736 0.733766 0
M  V30 15886 O 2704.77 8.73247 -1.2395 0
M  V30 15887 O 2704.23 7.66872 0.971405 0
M  V30 15888 C 2703.29 7.42212 2.04614 0
M  V30 15889 C 2704.02 6.86059 3.24661 0
M  V30 15890 O 2704.23 5.42847 3.03646 0
M  V30 15891 C 2705.42 7.41196 3.50753 0
M  V30 15892 O 2705.81 7.27073 4.86816 0
M  V30 15893 C 2706.3 6.5273 2.63741 0
M  V30 15894 C 2705.59 5.1842 2.73198 0
M  V30 15895 N 2705.64 4.38668 1.47808 0
M  V30 15896 C 2705.79 3.02239 1.60048 0
M  V30 15897 O 2705.88 2.46459 2.67869 0
M  V30 15898 N 2705.83 2.32436 0.408571 0
M  V30 15899 C 2705.74 2.85471 -0.854993 0
M  V30 15900 C 2705.59 4.28918 -0.887335 0
M  V30 15901 C 2705.54 5.00349 0.255399 0
M  V30 15902 H 2702.8 8.36803 2.32493 0
M  V30 15903 H 2702.54 6.701 1.71105 0
M  V30 15904 H 2703.4 7.03551 4.13168 0
M  V30 15905 H 2706.06 4.59773 3.53894 0
M  V30 15906 H 2706.34 6.88995 1.59871 0
M  V30 15907 H 2707.33 6.46749 3.03687 0
M  V30 15908 H 2705.49 8.46908 3.20714 0
M  V30 15909 H 2705.42 6.08548 0.206986 0
M  V30 15910 P 2707.36 7.20834 5.23717 0
M  V30 15911 O 2707.58 7.80006 6.57415 0
M  V30 15912 O 2708.15 7.79416 4.13051 0
M  V30 15913 O 2707.61 5.63315 5.29344 0
M  V30 15914 C 2706.67 4.80318 6.01954 0
M  V30 15915 C 2707.4 3.64202 6.65911 0
M  V30 15916 O 2707.61 2.60736 5.64823 0
M  V30 15917 C 2708.8 3.93521 7.19518 0
M  V30 15918 O 2709.19 3.02071 8.21205 0
M  V30 15919 C 2709.68 3.73047 5.97036 0
M  V30 15920 C 2708.97 2.58828 5.25741 0
M  V30 15921 N 2709.02 2.68068 3.77503 0
M  V30 15922 H 2706.19 5.40394 6.8003 0
M  V30 15923 H 2705.91 4.41741 5.32532 0
M  V30 15924 H 2706.78 3.26371 7.47889 0
M  V30 15925 H 2709.44 1.64007 5.56746 0
M  V30 15926 H 2709.72 4.63439 5.3432 0
M  V30 15927 H 2710.71 3.44776 6.25925 0
M  V30 15928 H 2708.87 4.96707 7.57347 0
M  V30 15929 P 2710.74 2.75334 8.47391 0
M  V30 15930 O 2710.96 2.44571 9.90142 0
M  V30 15931 O 2711.53 3.87688 7.92115 0
M  V30 15932 O 2710.99 1.4459 7.59357 0
M  V30 15933 C 2710.05 0.347608 7.69215 0
M  V30 15934 C 2710.78 -0.96767 7.52806 0
M  V30 15935 O 2710.99 -1.21036 6.1011 0
M  V30 15936 C 2712.18 -1.04544 8.13308 0
M  V30 15937 O 2712.57 -2.38311 8.41922 0
M  V30 15938 C 2713.06 -0.491279 7.02284 0
M  V30 15939 C 2712.35 -0.996264 5.77469 0
M  V30 15940 N 2712.4 -0.0501916 4.62973 0
M  V30 15941 H 2709.56 0.374722 8.67691 0
M  V30 15942 H 2709.29 0.443485 6.90277 0
M  V30 15943 H 2710.16 -1.75537 7.96793 0
M  V30 15944 P 2714.12 -2.75334 8.47391 0
M  V30 15945 O 2714.34 -3.84128 9.44797 0
M  V30 15946 O 2714.91 -1.51947 8.68712 0
M  V30 15947 O 2714.37 -3.29363 6.99321 0
M  V30 15948 C 2713.43 -4.24011 6.4274 0
M  V30 15949 C 2714.16 -5.20775 5.52155 0
M  V30 15950 O 2714.37 -4.56534 4.22446 0
M  V30 15951 C 2715.56 -5.62629 5.96531 0
M  V30 15952 O 2715.95 -6.87667 5.41053 0
M  V30 15953 C 2716.44 -4.52537 5.39283 0
M  V30 15954 C 2715.73 -4.20027 4.08623 0
M  V30 15955 N 2715.78 -2.76189 3.71603 0
M  V30 15956 C 2715.7 -1.64862 4.52822 0
M  V30 15957 N 2715.78 -0.512671 3.88633 0
M  V30 15958 C 2715.92 -0.888083 2.54977 0
M  V30 15959 C 2716.05 -0.094668 1.38677 0
M  V30 15960 N 2716.17 -0.890102 0.232633 0
M  V30 15961 C 2716.17 -2.26958 0.21772 0
M  V30 15962 N 2716.3 -2.84626 -0.97925 0
M  V30 15963 N 2716.04 -3.0178 1.31033 0
M  V30 15964 C 2715.92 -2.26781 2.43843 0
M  V30 15965 H 2712.94 -4.797 7.24003 0
M  V30 15966 H 2712.67 -3.69856 5.84513 0
M  V30 15967 H 2713.54 -6.10356 5.41441 0
M  V30 15968 P 2717.5 -7.20834 5.23717 0
M  V30 15969 O 2717.72 -8.66189 5.38625 0
M  V30 15970 O 2718.29 -6.33615 6.1356 0
M  V30 15971 O 2717.75 -6.7751 3.72168 0
M  V30 15972 C 2716.81 -7.20732 2.70725 0
M  V30 15973 C 2717.54 -7.45864 1.40599 0
M  V30 15974 O 2717.75 -6.17651 0.734225 0
M  V30 15975 C 2718.94 -8.05808 1.51899 0
M  V30 15976 O 2719.33 -8.74358 0.335205 0
M  V30 15977 C 2719.82 -6.83093 1.70294 0
M  V30 15978 C 2719.11 -5.79992 0.836974 0
M  V30 15979 N 2719.16 -4.41769 1.38263 0
M  V30 15980 C 2719.31 -3.38591 0.481702 0
M  V30 15981 O 2719.4 -3.56839 -0.718452 0
M  V30 15982 N 2719.35 -2.1206 1.03569 0
M  V30 15983 C 2719.26 -1.80696 2.36966 0
M  V30 15984 O 2719.31 -0.630473 2.74862 0
M  V30 15985 C 2719.11 -2.94845 3.23898 0
M  V30 15986 C 2719 -2.65253 4.70362 0
M  V30 15987 C 2719.06 -4.19803 2.73435 0
M  V30 15988 H 2716.32 -8.13644 3.0377 0
M  V30 15989 H 2716.05 -6.42695 2.55448 0
M  V30 15990 H 2716.92 -8.12039 0.792769 0
M  V30 15991 H 2719.58 -5.79978 -0.160587 0
M  V30 15992 H 2719.86 -6.51379 2.75643 0
M  V30 15993 H 2720.85 -7.01734 1.34462 0
M  V30 15994 H 2719.01 -8.73674 2.38337 0
M  V30 15995 H 2718.94 -5.04492 3.4095 0
M  V30 15996 H 2719.97 -2.83924 5.1913 0
M  V30 15997 H 2718.24 -3.29824 5.15163 0
M  V30 15998 H 2718.72 -1.59723 4.84449 0
M  V30 15999 H 2719.46 -1.35644 0.399345 0
M  V30 16000 P 2720.88 -8.91 7.72548e-11 0
M  V30 16001 O 2721.1 -10.1726 -0.733694 0
M  V30 16002 O 2721.67 -8.73148 1.23936 0
M  V30 16003 O 2721.13 -7.66872 -0.971405 0
M  V30 16004 C 2720.19 -7.42309 -2.04641 0
M  V30 16005 C 2720.92 -6.86059 -3.24661 0
M  V30 16006 O 2721.13 -5.42847 -3.03646 0
M  V30 16007 C 2722.32 -7.41196 -3.50753 0
M  V30 16008 O 2722.71 -7.27073 -4.86816 0
M  V30 16009 C 2723.2 -6.5273 -2.63741 0
M  V30 16010 C 2722.49 -5.1842 -2.73198 0
M  V30 16011 N 2722.54 -4.38762 -1.4784 0
M  V30 16012 C 2722.46 -4.81605 -0.168631 0
M  V30 16013 N 2722.54 -3.85454 0.713363 0
M  V30 16014 C 2722.68 -2.6994 -0.0566958 0
M  V30 16015 C 2722.81 -1.34815 0.338502 0
M  V30 16016 N 2722.93 -0.496304 -0.77465 0
M  V30 16017 C 2722.93 -0.908403 -2.09122 0
M  V30 16018 N 2723.06 0.0517805 -3.00955 0
M  V30 16019 N 2722.8 -2.17875 -2.46519 0
M  V30 16020 C 2722.68 -3.01988 -1.4033 0
M  V30 16021 H 2719.7 -8.36803 -2.32493 0
M  V30 16022 H 2719.43 -6.70197 -1.71129 0
M  V30 16023 H 2720.3 -7.03551 -4.13168 0
M  V30 16024 P 2724.26 -7.20834 -5.23717 0
M  V30 16025 O 2724.48 -7.80006 -6.57415 0
M  V30 16026 O 2725.05 -7.79416 -4.13051 0
M  V30 16027 O 2724.51 -5.63315 -5.29344 0
M  V30 16028 C 2723.57 -4.80318 -6.01954 0
M  V30 16029 C 2724.3 -3.64202 -6.65911 0
M  V30 16030 O 2724.51 -2.60736 -5.64823 0
M  V30 16031 C 2725.7 -3.93521 -7.19518 0
M  V30 16032 O 2726.09 -3.02071 -8.21205 0
M  V30 16033 C 2726.58 -3.73047 -5.97036 0
M  V30 16034 C 2725.87 -2.58828 -5.25741 0
M  V30 16035 N 2725.92 -2.68068 -3.77503 0
M  V30 16036 C 2725.84 -3.80474 -2.99159 0
M  V30 16037 N 2725.91 -3.55622 -1.71925 0
M  V30 16038 C 2726.06 -2.1832 -1.65733 0
M  V30 16039 C 2726.19 -1.28842 -0.572777 0
M  V30 16040 N 2726.2 -1.66875 0.70098 0
M  V30 16041 N 2726.31 0.016788 -0.859836 0
M  V30 16042 C 2726.3 0.398145 -2.13316 0
M  V30 16043 N 2726.18 -0.328224 -3.22333 0
M  V30 16044 C 2726.06 -1.62992 -2.90383 0
M  V30 16045 H 2723.09 -5.40394 -6.8003 0
M  V30 16046 H 2722.81 -4.41741 -5.32532 0
M  V30 16047 H 2723.68 -3.26371 -7.47889 0
M  V30 16048 H 2726.34 -1.64007 -5.56746 0
M  V30 16049 H 2726.62 -4.63439 -5.3432 0
M  V30 16050 H 2727.61 -3.44776 -6.25925 0
M  V30 16051 H 2725.77 -4.96707 -7.57347 0
M  V30 16052 H 2725.73 -4.8089 -3.39924 0
M  V30 16053 H 2726.11 -2.66547 0.941919 0
M  V30 16054 H 2726.3 -0.965341 1.44766 0
M  V30 16055 H 2726.41 1.46427 -2.29697 0
M  V30 16056 P 2727.64 -2.75334 -8.47391 0
M  V30 16057 O 2727.86 -2.44571 -9.90142 0
M  V30 16058 O 2728.43 -3.87688 -7.92115 0
M  V30 16059 O 2727.89 -1.4459 -7.59357 0
M  V30 16060 C 2726.95 -0.347608 -7.69215 0
M  V30 16061 C 2727.68 0.96767 -7.52806 0
M  V30 16062 O 2727.89 1.21036 -6.1011 0
M  V30 16063 C 2729.08 1.04544 -8.13308 0
M  V30 16064 O 2729.47 2.38311 -8.41922 0
M  V30 16065 C 2729.96 0.491279 -7.02284 0
M  V30 16066 C 2729.25 0.996264 -5.77469 0
M  V30 16067 N 2729.3 0.0501916 -4.62973 0
M  V30 16068 H 2726.46 -0.374722 -8.67691 0
M  V30 16069 H 2726.19 -0.443485 -6.90277 0
M  V30 16070 H 2727.06 1.75537 -7.96793 0
M  V30 16071 P 2731.02 2.75334 -8.47391 0
M  V30 16072 O 2731.24 3.84204 -9.44982 0
M  V30 16073 O 2731.81 1.51982 -8.68909 0
M  V30 16074 O 2731.27 3.29363 -6.99321 0
M  V30 16075 C 2730.33 4.24066 -6.42823 0
M  V30 16076 C 2731.06 5.20775 -5.52155 0
M  V30 16077 O 2731.27 4.56607 -4.22514 0
M  V30 16078 C 2732.46 5.62697 -5.96604 0
M  V30 16079 O 2732.85 6.87667 -5.41053 0
M  V30 16080 C 2733.34 4.52537 -5.39283 0
M  V30 16081 C 2732.63 4.20027 -4.08623 0
M  V30 16082 N 2732.68 2.76189 -3.71603 0
M  V30 16083 C 2732.6 1.66944 -4.54297 0
M  V30 16084 N 2732.67 0.536169 -3.91344 0
M  V30 16085 C 2732.82 0.901569 -2.58849 0
M  V30 16086 C 2732.95 0.146599 -1.40236 0
M  V30 16087 N 2732.96 -1.18234 -1.37046 0
M  V30 16088 N 2733.07 0.822941 -0.249738 0
M  V30 16089 C 2733.06 2.15179 -0.280525 0
M  V30 16090 N 2732.94 2.96414 -1.30822 0
M  V30 16091 C 2732.82 2.25804 -2.44748 0
M  V30 16092 H 2729.85 4.79756 -7.24086 0
M  V30 16093 H 2729.57 3.69963 -5.84682 0
M  V30 16094 H 2730.44 6.10431 -5.41508 0
M  V30 16095 H 2733.1 4.78816 -3.28024 0
M  V30 16096 H 2733.38 3.64957 -6.05871 0
M  V30 16097 H 2734.37 4.88748 -5.21323 0
M  V30 16098 H 2732.53 5.66789 -7.0643 0
M  V30 16099 H 2732.49 1.74684 -5.62396 0
M  V30 16100 H 2732.87 -1.71949 -2.24394 0
M  V30 16101 H 2733.06 -1.67511 -0.470742 0
M  V30 16102 H 2733.17 2.63704 0.6828 0
M  V30 16103 P 2734.4 7.20834 -5.23717 0
M  V30 16104 O 2734.62 8.66104 -5.38572 0
M  V30 16105 O 2735.19 6.33544 -6.1349 0
M  V30 16106 O 2734.65 6.7751 -3.72168 0
M  V30 16107 C 2733.71 7.20825 -2.7076 0
M  V30 16108 C 2734.44 7.45864 -1.40599 0
M  V30 16109 O 2734.65 6.17651 -0.734225 0
M  V30 16110 C 2735.84 8.05808 -1.51899 0
M  V30 16111 O 2736.23 8.74358 -0.335205 0
M  V30 16112 C 2736.72 6.83093 -1.70294 0
M  V30 16113 C 2736.01 5.79992 -0.836974 0
M  V30 16114 N 2736.06 4.41864 -1.38293 0
M  V30 16115 H 2733.22 8.13644 -3.0377 0
M  V30 16116 H 2732.95 6.42788 -2.55485 0
M  V30 16117 H 2733.82 8.12039 -0.792769 0
M  V30 16118 P 2737.78 8.91 -7.83638e-11 0
M  V30 16119 O 2738 10.1726 0.733694 0
M  V30 16120 O 2738.57 8.73148 -1.23936 0
M  V30 16121 O 2738.03 7.66872 0.971405 0
M  V30 16122 C 2737.09 7.42309 2.04641 0
M  V30 16123 C 2737.82 6.86059 3.24661 0
M  V30 16124 O 2738.03 5.42847 3.03646 0
M  V30 16125 C 2739.22 7.41196 3.50753 0
M  V30 16126 O 2739.61 7.27073 4.86816 0
M  V30 16127 C 2740.1 6.5273 2.63741 0
M  V30 16128 C 2739.39 5.1842 2.73198 0
M  V30 16129 N 2739.44 4.38762 1.4784 0
M  V30 16130 H 2736.6 8.36803 2.32493 0
M  V30 16131 H 2736.33 6.70197 1.71129 0
M  V30 16132 H 2737.2 7.03551 4.13168 0
M  V30 16133 P 2741.16 7.20834 5.23717 0
M  V30 16134 O 2741.38 7.79853 6.57286 0
M  V30 16135 O 2741.95 7.79239 4.12957 0
M  V30 16136 O 2741.41 5.63315 5.29344 0
M  V30 16137 C 2740.47 4.80255 6.01876 0
M  V30 16138 C 2741.2 3.64202 6.65911 0
M  V30 16139 O 2741.41 2.60694 5.64732 0
M  V30 16140 C 2742.6 3.93473 7.1943 0
M  V30 16141 O 2742.99 3.02071 8.21205 0
M  V30 16142 C 2743.48 3.73047 5.97036 0
M  V30 16143 C 2742.77 2.58828 5.25741 0
M  V30 16144 N 2742.82 2.68068 3.77503 0
M  V30 16145 H 2739.98 5.40332 6.79951 0
M  V30 16146 H 2739.71 4.41613 5.32378 0
M  V30 16147 H 2740.58 3.26331 7.47797 0
M  V30 16148 P 2744.54 2.75334 8.47391 0
M  V30 16149 O 2744.76 2.44571 9.90142 0
M  V30 16150 O 2745.33 3.87688 7.92115 0
M  V30 16151 O 2744.79 1.4459 7.59357 0
M  V30 16152 C 2743.85 0.347608 7.69215 0
M  V30 16153 C 2744.58 -0.96767 7.52806 0
M  V30 16154 O 2744.79 -1.21036 6.1011 0
M  V30 16155 C 2745.98 -1.04544 8.13308 0
M  V30 16156 O 2746.37 -2.38311 8.41922 0
M  V30 16157 C 2746.86 -0.491279 7.02284 0
M  V30 16158 C 2746.15 -0.996264 5.77469 0
M  V30 16159 N 2746.2 -0.0501916 4.62973 0
M  V30 16160 C 2746.12 1.32786 4.63244 0
M  V30 16161 N 2746.2 1.86957 3.44545 0
M  V30 16162 C 2746.34 0.780241 2.58481 0
M  V30 16163 C 2746.47 0.738536 1.17757 0
M  V30 16164 O 2746.49 1.66794 0.372349 0
M  V30 16165 N 2746.59 -0.58337 0.711393 0
M  V30 16166 C 2746.59 -1.70816 1.51017 0
M  V30 16167 N 2746.72 -2.87826 0.880757 0
M  V30 16168 N 2746.46 -1.67126 2.8339 0
M  V30 16169 C 2746.34 -0.401421 3.30572 0
M  V30 16170 H 2743.36 0.374722 8.67691 0
M  V30 16171 H 2743.09 0.443485 6.90277 0
M  V30 16172 H 2743.96 -1.75537 7.96793 0
M  V30 16173 H 2746.62 -1.95076 5.46529 0
M  V30 16174 H 2746.9 0.608565 7.04577 0
M  V30 16175 H 2747.89 -0.889672 7.08939 0
M  V30 16176 H 2746.05 -0.43308 9.04564 0
M  V30 16177 H 2746 1.91249 5.54442 0
M  V30 16178 H 2746.69 -0.718054 -0.275244 0
M  V30 16179 H 2746.72 -3.75721 1.41832 0
M  V30 16180 H 2746.82 -2.90436 -0.145468 0
M  V30 16181 P 2747.92 -2.75334 8.47391 0
M  V30 16182 O 2748.14 -3.84166 9.4489 0
M  V30 16183 O 2748.71 -1.51964 8.6881 0
M  V30 16184 O 2748.17 -3.29363 6.99321 0
M  V30 16185 C 2747.23 -4.23956 6.42656 0
M  V30 16186 C 2747.96 -5.20775 5.52155 0
M  V30 16187 O 2748.17 -4.56534 4.22446 0
M  V30 16188 C 2749.36 -5.62629 5.96531 0
M  V30 16189 O 2749.75 -6.87667 5.41053 0
M  V30 16190 C 2750.24 -4.52537 5.39283 0
M  V30 16191 C 2749.53 -4.20027 4.08623 0
M  V30 16192 N 2749.58 -2.7613 3.71522 0
M  V30 16193 C 2749.73 -2.45612 2.37989 0
M  V30 16194 O 2749.82 -3.30919 1.51621 0
M  V30 16195 N 2749.77 -1.10684 2.08435 0
M  V30 16196 C 2749.68 -0.0690084 2.9792 0
M  V30 16197 C 2749.53 -0.481522 4.35345 0
M  V30 16198 C 2749.48 -1.78906 4.67968 0
M  V30 16199 H 2746.74 -4.797 7.24003 0
M  V30 16200 H 2746.47 -3.69802 5.84429 0
M  V30 16201 H 2747.34 -6.10356 5.41441 0
M  V30 16202 H 2750 -4.78651 3.27911 0
M  V30 16203 H 2750.28 -3.64957 6.05871 0
M  V30 16204 H 2751.27 -4.8868 5.2125 0
M  V30 16205 H 2749.43 -5.66726 7.06352 0
M  V30 16206 H 2749.36 -2.07737 5.72367 0
M  V30 16207 P 2751.3 -7.20834 5.23717 0
M  V30 16208 O 2751.52 -8.66104 5.38572 0
M  V30 16209 O 2752.09 -6.33544 6.1349 0
M  V30 16210 O 2751.55 -6.7751 3.72168 0
M  V30 16211 C 2750.61 -7.20825 2.7076 0
M  V30 16212 C 2751.34 -7.45864 1.40599 0
M  V30 16213 O 2751.55 -6.17651 0.734225 0
M  V30 16214 C 2752.74 -8.05808 1.51899 0
M  V30 16215 O 2753.13 -8.74358 0.335205 0
M  V30 16216 C 2753.62 -6.83093 1.70294 0
M  V30 16217 C 2752.91 -5.79992 0.836974 0
M  V30 16218 N 2752.96 -4.41864 1.38293 0
M  V30 16219 H 2750.12 -8.13644 3.0377 0
M  V30 16220 H 2749.85 -6.42788 2.55485 0
M  V30 16221 H 2750.72 -8.12039 0.792769 0
M  V30 16222 P 2754.68 -8.91 7.94728e-11 0
M  V30 16223 O 2754.9 -10.1726 -0.733694 0
M  V30 16224 O 2755.47 -8.73148 1.23936 0
M  V30 16225 O 2754.93 -7.66872 -0.971405 0
M  V30 16226 C 2753.99 -7.42309 -2.04641 0
M  V30 16227 C 2754.72 -6.86059 -3.24661 0
M  V30 16228 O 2754.93 -5.42847 -3.03646 0
M  V30 16229 C 2756.12 -7.41196 -3.50753 0
M  V30 16230 O 2756.51 -7.27073 -4.86816 0
M  V30 16231 C 2757 -6.5273 -2.63741 0
M  V30 16232 C 2756.29 -5.1842 -2.73198 0
M  V30 16233 N 2756.34 -4.38762 -1.4784 0
M  V30 16234 H 2753.5 -8.36803 -2.32493 0
M  V30 16235 H 2753.23 -6.70197 -1.71129 0
M  V30 16236 H 2754.1 -7.03551 -4.13168 0
M  V30 16237 P 2758.06 -7.20834 -5.23717 0
M  V30 16238 O 2758.28 -7.7993 -6.57351 0
M  V30 16239 O 2758.85 -7.79328 -4.13004 0
M  V30 16240 O 2758.31 -5.63315 -5.29344 0
M  V30 16241 C 2757.37 -4.80193 -6.01798 0
M  V30 16242 C 2758.1 -3.64202 -6.65911 0
M  V30 16243 O 2758.31 -2.60694 -5.64732 0
M  V30 16244 C 2759.5 -3.93473 -7.1943 0
M  V30 16245 O 2759.89 -3.02071 -8.21205 0
M  V30 16246 C 2760.38 -3.73047 -5.97036 0
M  V30 16247 C 2759.67 -2.58828 -5.25741 0
M  V30 16248 N 2759.72 -2.6801 -3.77422 0
M  V30 16249 C 2759.87 -1.50443 -3.07133 0
M  V30 16250 O 2759.96 -0.419406 -3.61576 0
M  V30 16251 N 2759.91 -1.6403 -1.69677 0
M  V30 16252 C 2759.82 -2.81206 -0.986255 0
M  V30 16253 O 2759.87 -2.80892 0.249754 0
M  V30 16254 C 2759.67 -3.99158 -1.80325 0
M  V30 16255 C 2759.56 -5.29309 -1.06921 0
M  V30 16256 C 2759.62 -3.89779 -3.1476 0
M  V30 16257 H 2756.88 -5.40332 -6.79951 0
M  V30 16258 H 2756.61 -4.41549 -5.32301 0
M  V30 16259 H 2757.48 -3.26331 -7.47797 0
M  V30 16260 H 2760.14 -1.6395 -5.56554 0
M  V30 16261 H 2760.42 -4.63439 -5.3432 0
M  V30 16262 H 2761.41 -3.44728 -6.25838 0
M  V30 16263 H 2759.57 -4.96652 -7.57263 0
M  V30 16264 H 2759.5 -4.80159 -3.74441 0
M  V30 16265 H 2760.53 -5.81459 -1.09608 0
M  V30 16266 H 2758.8 -5.9187 -1.54487 0
M  V30 16267 H 2759.28 -5.10095 -0.0220288 0
M  V30 16268 H 2760.02 -0.798962 -1.16664 0
M  V30 16269 P 2761.44 -2.75334 -8.47391 0
M  V30 16270 O 2761.66 -2.44571 -9.90142 0
M  V30 16271 O 2762.23 -3.87688 -7.92115 0
M  V30 16272 O 2761.69 -1.4459 -7.59357 0
M  V30 16273 C 2760.75 -0.347608 -7.69215 0
M  V30 16274 C 2761.48 0.96767 -7.52806 0
M  V30 16275 O 2761.69 1.21036 -6.1011 0
M  V30 16276 C 2762.88 1.04544 -8.13308 0
M  V30 16277 O 2763.27 2.38311 -8.41922 0
M  V30 16278 C 2763.76 0.491279 -7.02284 0
M  V30 16279 C 2763.05 0.996264 -5.77469 0
M  V30 16280 N 2763.1 0.0501916 -4.62973 0
M  V30 16281 H 2760.26 -0.374722 -8.67691 0
M  V30 16282 H 2759.99 -0.443485 -6.90277 0
M  V30 16283 H 2760.86 1.75537 -7.96793 0
M  V30 16284 P 2764.82 2.75334 -8.47391 0
M  V30 16285 O 2765.04 3.84128 -9.44797 0
M  V30 16286 O 2765.61 1.51947 -8.68712 0
M  V30 16287 O 2765.07 3.29363 -6.99321 0
M  V30 16288 C 2764.13 4.24011 -6.4274 0
M  V30 16289 C 2764.86 5.20775 -5.52155 0
M  V30 16290 O 2765.07 4.56534 -4.22446 0
M  V30 16291 C 2766.26 5.62629 -5.96531 0
M  V30 16292 O 2766.65 6.87667 -5.41053 0
M  V30 16293 C 2767.14 4.52537 -5.39283 0
M  V30 16294 C 2766.43 4.20027 -4.08623 0
M  V30 16295 N 2766.48 2.76189 -3.71603 0
M  V30 16296 H 2763.64 4.797 -7.24003 0
M  V30 16297 H 2763.37 3.69856 -5.84513 0
M  V30 16298 H 2764.24 6.10356 -5.41441 0
M  V30 16299 P 2768.2 7.20834 -5.23717 0
M  V30 16300 O 2768.42 8.66104 -5.38572 0
M  V30 16301 O 2768.99 6.33544 -6.1349 0
M  V30 16302 O 2768.45 6.7751 -3.72168 0
M  V30 16303 C 2767.51 7.20825 -2.7076 0
M  V30 16304 C 2768.24 7.45864 -1.40599 0
M  V30 16305 O 2768.45 6.17651 -0.734225 0
M  V30 16306 C 2769.64 8.05808 -1.51899 0
M  V30 16307 O 2770.03 8.74358 -0.335205 0
M  V30 16308 C 2770.52 6.83093 -1.70294 0
M  V30 16309 C 2769.81 5.79992 -0.836974 0
M  V30 16310 N 2769.86 4.41864 -1.38293 0
M  V30 16311 C 2769.78 3.99538 -2.69438 0
M  V30 16312 N 2769.86 2.69909 -2.84277 0
M  V30 16313 C 2770 2.21719 -1.5408 0
M  V30 16314 C 2770.13 0.891712 -1.06628 0
M  V30 16315 O 2770.15 -0.161298 -1.70137 0
M  V30 16316 N 2770.25 0.856846 0.334985 0
M  V30 16317 C 2770.25 1.9641 1.15789 0
M  V30 16318 N 2770.38 1.72708 2.46522 0
M  V30 16319 N 2770.12 3.21165 0.713741 0
M  V30 16320 C 2770 3.26797 -0.639748 0
M  V30 16321 H 2767.02 8.13644 -3.0377 0
M  V30 16322 H 2766.75 6.42788 -2.55485 0
M  V30 16323 H 2767.62 8.12039 -0.792769 0
M  V30 16324 H 2770.28 5.80061 0.166416 0
M  V30 16325 H 2770.56 6.51287 -2.75604 0
M  V30 16326 H 2771.55 7.01734 -1.34462 0
M  V30 16327 H 2769.71 8.73674 -2.38337 0
M  V30 16328 H 2769.66 4.68207 -3.53221 0
M  V30 16329 H 2770.35 -0.0398818 0.767965 0
M  V30 16330 H 2770.38 2.50995 3.13503 0
M  V30 16331 H 2770.48 0.759148 2.80716 0
M  V30 16332 P 2771.58 8.91 -8.05818e-11 0
M  V30 16333 O 2771.8 10.1726 0.733694 0
M  V30 16334 O 2772.37 8.73148 -1.23936 0
M  V30 16335 O 2771.83 7.66872 0.971405 0
M  V30 16336 C 2770.89 7.42309 2.04641 0
M  V30 16337 C 2771.62 6.86059 3.24661 0
M  V30 16338 O 2771.83 5.42847 3.03646 0
M  V30 16339 C 2773.02 7.41196 3.50753 0
M  V30 16340 O 2773.41 7.27073 4.86816 0
M  V30 16341 C 2773.9 6.5273 2.63741 0
M  V30 16342 C 2773.19 5.1842 2.73198 0
M  V30 16343 N 2773.24 4.38762 1.4784 0
M  V30 16344 C 2773.16 4.81605 0.168631 0
M  V30 16345 N 2773.24 3.85454 -0.713363 0
M  V30 16346 C 2773.38 2.6994 0.0566958 0
M  V30 16347 C 2773.51 1.34815 -0.338502 0
M  V30 16348 N 2773.63 0.496304 0.77465 0
M  V30 16349 C 2773.63 0.908403 2.09122 0
M  V30 16350 N 2773.76 -0.0517805 3.00955 0
M  V30 16351 N 2773.5 2.17875 2.46519 0
M  V30 16352 C 2773.38 3.01988 1.4033 0
M  V30 16353 H 2770.4 8.36803 2.32493 0
M  V30 16354 H 2770.13 6.70197 1.71129 0
M  V30 16355 H 2771 7.03551 4.13168 0
M  V30 16356 P 2774.96 7.20834 5.23717 0
M  V30 16357 O 2775.18 7.79853 6.57286 0
M  V30 16358 O 2775.75 7.79239 4.12957 0
M  V30 16359 O 2775.21 5.63315 5.29344 0
M  V30 16360 C 2774.27 4.80255 6.01876 0
M  V30 16361 C 2775 3.64202 6.65911 0
M  V30 16362 O 2775.21 2.60694 5.64732 0
M  V30 16363 C 2776.4 3.93473 7.1943 0
M  V30 16364 O 2776.79 3.02071 8.21205 0
M  V30 16365 C 2777.28 3.73047 5.97036 0
M  V30 16366 C 2776.57 2.58828 5.25741 0
M  V30 16367 N 2776.62 2.68068 3.77503 0
M  V30 16368 C 2776.54 3.79715 2.96723 0
M  V30 16369 N 2776.62 3.5377 1.68852 0
M  V30 16370 C 2776.76 2.15054 1.63254 0
M  V30 16371 C 2776.89 1.28964 0.518571 0
M  V30 16372 N 2777.01 -0.0538097 0.918425 0
M  V30 16373 C 2777.01 -0.494275 2.22578 0
M  V30 16374 N 2777.14 -1.81086 2.40434 0
M  V30 16375 N 2776.88 0.313645 3.27502 0
M  V30 16376 C 2776.76 1.61829 2.91033 0
M  V30 16377 H 2773.78 5.40332 6.79951 0
M  V30 16378 H 2773.51 4.41613 5.32378 0
M  V30 16379 H 2774.38 3.26331 7.47797 0
M  V30 16380 P 2778.34 2.75334 8.47391 0
M  V30 16381 O 2778.56 2.44571 9.90142 0
M  V30 16382 O 2779.13 3.87688 7.92115 0
M  V30 16383 O 2778.59 1.4459 7.59357 0
M  V30 16384 C 2777.65 0.347608 7.69215 0
M  V30 16385 C 2778.38 -0.96767 7.52806 0
M  V30 16386 O 2778.59 -1.21036 6.1011 0
M  V30 16387 C 2779.78 -1.04544 8.13308 0
M  V30 16388 O 2780.17 -2.38311 8.41922 0
M  V30 16389 C 2780.66 -0.491279 7.02284 0
M  V30 16390 C 2779.95 -0.996264 5.77469 0
M  V30 16391 N 2780 -0.0501916 4.62973 0
M  V30 16392 H 2777.16 0.374722 8.67691 0
M  V30 16393 H 2776.89 0.443485 6.90277 0
M  V30 16394 H 2777.76 -1.75537 7.96793 0
M  V30 16395 P 2781.72 -2.75334 8.47391 0
M  V30 16396 O 2781.94 -3.84166 9.4489 0
M  V30 16397 O 2782.51 -1.51964 8.6881 0
M  V30 16398 O 2781.97 -3.29363 6.99321 0
M  V30 16399 C 2781.03 -4.23956 6.42656 0
M  V30 16400 C 2781.76 -5.20775 5.52155 0
M  V30 16401 O 2781.97 -4.56534 4.22446 0
M  V30 16402 C 2783.16 -5.62629 5.96531 0
M  V30 16403 O 2783.55 -6.87667 5.41053 0
M  V30 16404 C 2784.04 -4.52537 5.39283 0
M  V30 16405 C 2783.33 -4.20027 4.08623 0
M  V30 16406 N 2783.38 -2.7613 3.71522 0
M  V30 16407 C 2783.53 -2.45612 2.37989 0
M  V30 16408 O 2783.62 -3.30919 1.51621 0
M  V30 16409 N 2783.57 -1.10684 2.08435 0
M  V30 16410 C 2783.48 -0.0690084 2.9792 0
M  V30 16411 C 2783.33 -0.481522 4.35345 0
M  V30 16412 C 2783.28 -1.78906 4.67968 0
M  V30 16413 H 2780.54 -4.797 7.24003 0
M  V30 16414 H 2780.27 -3.69802 5.84429 0
M  V30 16415 H 2781.14 -6.10356 5.41441 0
M  V30 16416 H 2783.8 -4.78651 3.27911 0
M  V30 16417 H 2784.08 -3.64957 6.05871 0
M  V30 16418 H 2785.07 -4.8868 5.2125 0
M  V30 16419 H 2783.23 -5.66726 7.06352 0
M  V30 16420 H 2783.16 -2.07737 5.72367 0
M  V30 16421 P 2785.1 -7.20834 5.23717 0
M  V30 16422 O 2785.32 -8.66104 5.38572 0
M  V30 16423 O 2785.89 -6.33544 6.1349 0
M  V30 16424 O 2785.35 -6.7751 3.72168 0
M  V30 16425 C 2784.41 -7.20825 2.7076 0
M  V30 16426 C 2785.14 -7.45864 1.40599 0
M  V30 16427 O 2785.35 -6.17651 0.734225 0
M  V30 16428 C 2786.54 -8.05808 1.51899 0
M  V30 16429 O 2786.93 -8.74358 0.335205 0
M  V30 16430 C 2787.42 -6.83093 1.70294 0
M  V30 16431 C 2786.71 -5.79992 0.836974 0
M  V30 16432 N 2786.76 -4.41864 1.38293 0
M  V30 16433 H 2783.92 -8.13644 3.0377 0
M  V30 16434 H 2783.65 -6.42788 2.55485 0
M  V30 16435 H 2784.52 -8.12039 0.792769 0
M  V30 16436 P 2788.48 -8.91 8.16908e-11 0
M  V30 16437 O 2788.7 -10.1726 -0.733694 0
M  V30 16438 O 2789.27 -8.73148 1.23936 0
M  V30 16439 O 2788.73 -7.66872 -0.971405 0
M  V30 16440 C 2787.79 -7.42309 -2.04641 0
M  V30 16441 C 2788.52 -6.86059 -3.24661 0
M  V30 16442 O 2788.73 -5.42847 -3.03646 0
M  V30 16443 C 2789.92 -7.41196 -3.50753 0
M  V30 16444 O 2790.31 -7.27073 -4.86816 0
M  V30 16445 C 2790.8 -6.5273 -2.63741 0
M  V30 16446 C 2790.09 -5.1842 -2.73198 0
M  V30 16447 N 2790.14 -4.38762 -1.4784 0
M  V30 16448 H 2787.3 -8.36803 -2.32493 0
M  V30 16449 H 2787.03 -6.70197 -1.71129 0
M  V30 16450 H 2787.9 -7.03551 -4.13168 0
M  V30 16451 P 2791.86 -7.20834 -5.23717 0
M  V30 16452 O 2792.08 -7.79853 -6.57286 0
M  V30 16453 O 2792.65 -7.79239 -4.12957 0
M  V30 16454 O 2792.11 -5.63315 -5.29344 0
M  V30 16455 C 2791.17 -4.80255 -6.01876 0
M  V30 16456 C 2791.9 -3.64202 -6.65911 0
M  V30 16457 O 2792.11 -2.60694 -5.64732 0
M  V30 16458 C 2793.3 -3.93473 -7.1943 0
M  V30 16459 O 2793.69 -3.02071 -8.21205 0
M  V30 16460 C 2794.18 -3.73047 -5.97036 0
M  V30 16461 C 2793.47 -2.58828 -5.25741 0
M  V30 16462 N 2793.52 -2.68068 -3.77503 0
M  V30 16463 H 2790.68 -5.40332 -6.79951 0
M  V30 16464 H 2790.41 -4.41613 -5.32378 0
M  V30 16465 H 2791.28 -3.26331 -7.47797 0
M  V30 16466 P 2795.24 -2.75334 -8.47391 0
M  V30 16467 O 2795.46 -2.44571 -9.90142 0
M  V30 16468 O 2796.03 -3.87688 -7.92115 0
M  V30 16469 O 2795.49 -1.4459 -7.59357 0
M  V30 16470 C 2794.55 -0.347608 -7.69215 0
M  V30 16471 C 2795.28 0.96767 -7.52806 0
M  V30 16472 O 2795.49 1.21036 -6.1011 0
M  V30 16473 C 2796.68 1.04544 -8.13308 0
M  V30 16474 O 2797.07 2.38311 -8.41922 0
M  V30 16475 C 2797.56 0.491279 -7.02284 0
M  V30 16476 C 2796.85 0.996264 -5.77469 0
M  V30 16477 N 2796.9 0.0501916 -4.62973 0
M  V30 16478 H 2794.06 -0.374722 -8.67691 0
M  V30 16479 H 2793.79 -0.443485 -6.90277 0
M  V30 16480 H 2794.66 1.75537 -7.96793 0
M  V30 16481 P 2798.62 2.75334 -8.47391 0
M  V30 16482 O 2798.84 3.84128 -9.44797 0
M  V30 16483 O 2799.41 1.51947 -8.68712 0
M  V30 16484 O 2798.87 3.29363 -6.99321 0
M  V30 16485 C 2797.93 4.24011 -6.4274 0
M  V30 16486 C 2798.66 5.20775 -5.52155 0
M  V30 16487 O 2798.87 4.56534 -4.22446 0
M  V30 16488 C 2800.06 5.62629 -5.96531 0
M  V30 16489 O 2800.45 6.87667 -5.41053 0
M  V30 16490 C 2800.94 4.52537 -5.39283 0
M  V30 16491 C 2800.23 4.20027 -4.08623 0
M  V30 16492 N 2800.28 2.76189 -3.71603 0
M  V30 16493 H 2797.44 4.797 -7.24003 0
M  V30 16494 H 2797.17 3.69856 -5.84513 0
M  V30 16495 H 2798.04 6.10356 -5.41441 0
M  V30 16496 P 2802 7.20834 -5.23717 0
M  V30 16497 O 2802.22 8.66104 -5.38572 0
M  V30 16498 O 2802.79 6.33544 -6.1349 0
M  V30 16499 O 2802.25 6.7751 -3.72168 0
M  V30 16500 C 2801.31 7.20825 -2.7076 0
M  V30 16501 C 2802.04 7.45864 -1.40599 0
M  V30 16502 O 2802.25 6.17651 -0.734225 0
M  V30 16503 C 2803.44 8.05808 -1.51899 0
M  V30 16504 O 2803.83 8.74358 -0.335205 0
M  V30 16505 C 2804.32 6.83093 -1.70294 0
M  V30 16506 C 2803.61 5.79992 -0.836974 0
M  V30 16507 N 2803.66 4.41864 -1.38293 0
M  V30 16508 H 2800.82 8.13644 -3.0377 0
M  V30 16509 H 2800.55 6.42788 -2.55485 0
M  V30 16510 H 2801.42 8.12039 -0.792769 0
M  V30 16511 P 2805.38 8.91 -8.27998e-11 0
M  V30 16512 O 2805.6 10.1726 0.733694 0
M  V30 16513 O 2806.17 8.73148 -1.23936 0
M  V30 16514 O 2805.63 7.66872 0.971405 0
M  V30 16515 C 2804.69 7.42309 2.04641 0
M  V30 16516 C 2805.42 6.86059 3.24661 0
M  V30 16517 O 2805.63 5.42847 3.03646 0
M  V30 16518 C 2806.82 7.41196 3.50753 0
M  V30 16519 O 2807.21 7.27073 4.86816 0
M  V30 16520 C 2807.7 6.5273 2.63741 0
M  V30 16521 C 2806.99 5.1842 2.73198 0
M  V30 16522 N 2807.04 4.38762 1.4784 0
M  V30 16523 H 2804.2 8.36803 2.32493 0
M  V30 16524 H 2803.93 6.70197 1.71129 0
M  V30 16525 H 2804.8 7.03551 4.13168 0
M  V30 16526 P 2808.76 7.20834 5.23717 0
M  V30 16527 O 2808.98 7.79853 6.57286 0
M  V30 16528 O 2809.55 7.79239 4.12957 0
M  V30 16529 O 2809.01 5.63315 5.29344 0
M  V30 16530 C 2808.07 4.80255 6.01876 0
M  V30 16531 C 2808.8 3.64202 6.65911 0
M  V30 16532 O 2809.01 2.60694 5.64732 0
M  V30 16533 C 2810.2 3.93473 7.1943 0
M  V30 16534 O 2810.59 3.02071 8.21205 0
M  V30 16535 C 2811.08 3.73047 5.97036 0
M  V30 16536 C 2810.37 2.58828 5.25741 0
M  V30 16537 N 2810.42 2.68068 3.77503 0
M  V30 16538 H 2807.58 5.40332 6.79951 0
M  V30 16539 H 2807.31 4.41613 5.32378 0
M  V30 16540 H 2808.18 3.26331 7.47797 0
M  V30 16541 P 2812.14 2.75334 8.47391 0
M  V30 16542 O 2812.36 2.44571 9.90142 0
M  V30 16543 O 2812.93 3.87688 7.92115 0
M  V30 16544 O 2812.39 1.4459 7.59357 0
M  V30 16545 C 2811.45 0.347608 7.69215 0
M  V30 16546 C 2812.18 -0.96767 7.52806 0
M  V30 16547 O 2812.39 -1.21036 6.1011 0
M  V30 16548 C 2813.58 -1.04544 8.13308 0
M  V30 16549 O 2813.97 -2.38311 8.41922 0
M  V30 16550 C 2814.46 -0.491279 7.02284 0
M  V30 16551 C 2813.75 -0.996264 5.77469 0
M  V30 16552 N 2813.8 -0.0501916 4.62973 0
M  V30 16553 C 2813.72 1.32786 4.63244 0
M  V30 16554 N 2813.8 1.86957 3.44545 0
M  V30 16555 C 2813.94 0.780241 2.58481 0
M  V30 16556 C 2814.07 0.738536 1.17757 0
M  V30 16557 O 2814.09 1.66794 0.372349 0
M  V30 16558 N 2814.19 -0.58337 0.711393 0
M  V30 16559 C 2814.19 -1.70816 1.51017 0
M  V30 16560 N 2814.32 -2.87826 0.880757 0
M  V30 16561 N 2814.06 -1.67126 2.8339 0
M  V30 16562 C 2813.94 -0.401421 3.30572 0
M  V30 16563 H 2810.96 0.374722 8.67691 0
M  V30 16564 H 2810.69 0.443485 6.90277 0
M  V30 16565 H 2811.56 -1.75537 7.96793 0
M  V30 16566 H 2814.22 -1.95076 5.46529 0
M  V30 16567 H 2814.5 0.608565 7.04577 0
M  V30 16568 H 2815.49 -0.889672 7.08939 0
M  V30 16569 H 2813.65 -0.43308 9.04564 0
M  V30 16570 H 2813.6 1.91249 5.54442 0
M  V30 16571 H 2814.29 -0.718054 -0.275244 0
M  V30 16572 H 2814.32 -3.75721 1.41832 0
M  V30 16573 H 2814.42 -2.90436 -0.145468 0
M  V30 16574 P 2815.52 -2.75334 8.47391 0
M  V30 16575 O 2815.74 -3.84204 9.44982 0
M  V30 16576 O 2816.31 -1.51982 8.68909 0
M  V30 16577 O 2815.77 -3.29363 6.99321 0
M  V30 16578 C 2814.83 -4.24066 6.42823 0
M  V30 16579 C 2815.56 -5.20775 5.52155 0
M  V30 16580 O 2815.77 -4.56607 4.22514 0
M  V30 16581 C 2816.96 -5.62697 5.96604 0
M  V30 16582 O 2817.35 -6.87667 5.41053 0
M  V30 16583 C 2817.84 -4.52537 5.39283 0
M  V30 16584 C 2817.13 -4.20027 4.08623 0
M  V30 16585 N 2817.18 -2.76189 3.71603 0
M  V30 16586 C 2817.1 -1.66944 4.54297 0
M  V30 16587 N 2817.17 -0.536169 3.91344 0
M  V30 16588 C 2817.32 -0.901569 2.58849 0
M  V30 16589 C 2817.45 -0.146599 1.40236 0
M  V30 16590 N 2817.46 1.18234 1.37046 0
M  V30 16591 N 2817.57 -0.822941 0.249738 0
M  V30 16592 C 2817.56 -2.15179 0.280525 0
M  V30 16593 N 2817.44 -2.96414 1.30822 0
M  V30 16594 C 2817.32 -2.25804 2.44748 0
M  V30 16595 H 2814.35 -4.79756 7.24086 0
M  V30 16596 H 2814.07 -3.69963 5.84682 0
M  V30 16597 H 2814.94 -6.10431 5.41508 0
M  V30 16598 H 2817.6 -4.78816 3.28024 0
M  V30 16599 H 2817.88 -3.64957 6.05871 0
M  V30 16600 H 2818.87 -4.88748 5.21323 0
M  V30 16601 H 2817.03 -5.66789 7.0643 0
M  V30 16602 H 2816.99 -1.74684 5.62396 0
M  V30 16603 H 2817.37 1.71949 2.24394 0
M  V30 16604 H 2817.56 1.67511 0.470742 0
M  V30 16605 H 2817.67 -2.63704 -0.6828 0
M  V30 16606 P 2818.9 -7.20834 5.23717 0
M  V30 16607 O 2819.12 -8.66104 5.38572 0
M  V30 16608 O 2819.69 -6.33544 6.1349 0
M  V30 16609 O 2819.15 -6.7751 3.72168 0
M  V30 16610 C 2818.21 -7.20825 2.7076 0
M  V30 16611 C 2818.94 -7.45864 1.40599 0
M  V30 16612 O 2819.15 -6.17651 0.734225 0
M  V30 16613 C 2820.34 -8.05808 1.51899 0
M  V30 16614 O 2820.73 -8.74358 0.335205 0
M  V30 16615 C 2821.22 -6.83093 1.70294 0
M  V30 16616 C 2820.51 -5.79992 0.836974 0
M  V30 16617 N 2820.56 -4.41864 1.38293 0
M  V30 16618 C 2820.48 -3.99538 2.69438 0
M  V30 16619 N 2820.56 -2.69909 2.84277 0
M  V30 16620 C 2820.7 -2.21719 1.5408 0
M  V30 16621 C 2820.83 -0.891712 1.06628 0
M  V30 16622 N 2820.95 -0.856846 -0.334985 0
M  V30 16623 C 2820.95 -1.9641 -1.15789 0
M  V30 16624 N 2821.08 -1.72708 -2.46522 0
M  V30 16625 N 2820.82 -3.21165 -0.713741 0
M  V30 16626 C 2820.7 -3.26797 0.639748 0
M  V30 16627 H 2817.72 -8.13644 3.0377 0
M  V30 16628 H 2817.45 -6.42788 2.55485 0
M  V30 16629 H 2818.32 -8.12039 0.792769 0
M  V30 16630 P 2822.28 -8.91 8.39088e-11 0
M  V30 16631 O 2822.5 -10.1726 -0.733694 0
M  V30 16632 O 2823.07 -8.73148 1.23936 0
M  V30 16633 O 2822.53 -7.66872 -0.971405 0
M  V30 16634 C 2821.59 -7.42309 -2.04641 0
M  V30 16635 C 2822.32 -6.86059 -3.24661 0
M  V30 16636 O 2822.53 -5.42847 -3.03646 0
M  V30 16637 C 2823.72 -7.41196 -3.50753 0
M  V30 16638 O 2824.11 -7.27073 -4.86816 0
M  V30 16639 C 2824.6 -6.5273 -2.63741 0
M  V30 16640 C 2823.89 -5.1842 -2.73198 0
M  V30 16641 N 2823.94 -4.38762 -1.4784 0
M  V30 16642 C 2823.86 -4.81605 -0.168631 0
M  V30 16643 N 2823.94 -3.85454 0.713363 0
M  V30 16644 C 2824.08 -2.6994 -0.0566958 0
M  V30 16645 C 2824.21 -1.34815 0.338502 0
M  V30 16646 N 2824.33 -0.496304 -0.77465 0
M  V30 16647 C 2824.33 -0.908403 -2.09122 0
M  V30 16648 N 2824.46 0.0517805 -3.00955 0
M  V30 16649 N 2824.2 -2.17875 -2.46519 0
M  V30 16650 C 2824.08 -3.01988 -1.4033 0
M  V30 16651 H 2821.1 -8.36803 -2.32493 0
M  V30 16652 H 2820.83 -6.70197 -1.71129 0
M  V30 16653 H 2821.7 -7.03551 -4.13168 0
M  V30 16654 P 2825.66 -7.20834 -5.23717 0
M  V30 16655 O 2825.88 -7.80006 -6.57415 0
M  V30 16656 O 2826.45 -7.79416 -4.13051 0
M  V30 16657 O 2825.91 -5.63315 -5.29344 0
M  V30 16658 C 2824.97 -4.80318 -6.01954 0
M  V30 16659 C 2825.7 -3.64202 -6.65911 0
M  V30 16660 O 2825.91 -2.60736 -5.64823 0
M  V30 16661 C 2827.1 -3.93521 -7.19518 0
M  V30 16662 O 2827.49 -3.02071 -8.21205 0
M  V30 16663 C 2827.98 -3.73047 -5.97036 0
M  V30 16664 C 2827.27 -2.58828 -5.25741 0
M  V30 16665 N 2827.32 -2.68068 -3.77503 0
M  V30 16666 C 2827.24 -3.80474 -2.99159 0
M  V30 16667 N 2827.31 -3.55622 -1.71925 0
M  V30 16668 C 2827.46 -2.1832 -1.65733 0
M  V30 16669 C 2827.59 -1.28842 -0.572777 0
M  V30 16670 N 2827.6 -1.66875 0.70098 0
M  V30 16671 N 2827.71 0.016788 -0.859836 0
M  V30 16672 C 2827.7 0.398145 -2.13316 0
M  V30 16673 N 2827.58 -0.328224 -3.22333 0
M  V30 16674 C 2827.46 -1.62992 -2.90383 0
M  V30 16675 H 2824.49 -5.40394 -6.8003 0
M  V30 16676 H 2824.21 -4.41741 -5.32532 0
M  V30 16677 H 2825.08 -3.26371 -7.47889 0
M  V30 16678 H 2827.74 -1.64007 -5.56746 0
M  V30 16679 H 2828.02 -4.63439 -5.3432 0
M  V30 16680 H 2829.01 -3.44776 -6.25925 0
M  V30 16681 H 2827.17 -4.96707 -7.57347 0
M  V30 16682 H 2827.13 -4.8089 -3.39924 0
M  V30 16683 H 2827.51 -2.66547 0.941919 0
M  V30 16684 H 2827.7 -0.965341 1.44766 0
M  V30 16685 H 2827.81 1.46427 -2.29697 0
M  V30 16686 P 2829.04 -2.75334 -8.47391 0
M  V30 16687 O 2829.26 -2.44619 -9.90336 0
M  V30 16688 O 2829.83 -3.87776 -7.92294 0
M  V30 16689 O 2829.29 -1.4459 -7.59357 0
M  V30 16690 C 2828.35 -0.347653 -7.69315 0
M  V30 16691 C 2829.08 0.96767 -7.52806 0
M  V30 16692 O 2829.29 1.21055 -6.10208 0
M  V30 16693 C 2830.48 1.04557 -8.13408 0
M  V30 16694 O 2830.87 2.38311 -8.41922 0
M  V30 16695 C 2831.36 0.491279 -7.02284 0
M  V30 16696 C 2830.65 0.996264 -5.77469 0
M  V30 16697 N 2830.7 0.0501916 -4.62973 0
M  V30 16698 C 2830.62 -1.31969 -4.65661 0
M  V30 16699 N 2830.69 -1.86649 -3.48119 0
M  V30 16700 C 2830.84 -0.792089 -2.62406 0
M  V30 16701 C 2830.97 -0.705684 -1.2207 0
M  V30 16702 N 2830.98 -1.76207 -0.413762 0
M  V30 16703 N 2831.09 0.518981 -0.685754 0
M  V30 16704 C 2831.08 1.57595 -1.49174 0
M  V30 16705 N 2830.96 1.62909 -2.80066 0
M  V30 16706 C 2830.84 0.388195 -3.3073 0
M  V30 16707 H 2827.87 -0.374765 -8.67791 0
M  V30 16708 H 2827.59 -0.443613 -6.90476 0
M  V30 16709 H 2828.46 1.75559 -7.96891 0
M  V30 16710 H 2831.12 1.94563 -5.46818 0
M  V30 16711 H 2831.4 -0.608651 -7.04676 0
M  V30 16712 H 2832.39 0.889796 -7.09039 0
M  V30 16713 H 2830.55 0.433128 -9.04664 0
M  V30 16714 H 2830.51 -1.89246 -5.57664 0
M  V30 16715 H 2830.89 -2.71005 -0.804694 0
M  V30 16716 H 2831.08 -1.63189 0.603768 0
M  V30 16717 H 2831.19 2.53475 -0.997614 0
M  V30 16718 P 2832.42 2.75334 -8.47391 0
M  V30 16719 O 2832.64 3.84204 -9.44982 0
M  V30 16720 O 2833.21 1.51982 -8.68909 0
M  V30 16721 O 2832.67 3.29363 -6.99321 0
M  V30 16722 C 2831.73 4.24066 -6.42823 0
M  V30 16723 C 2832.46 5.20775 -5.52155 0
M  V30 16724 O 2832.67 4.56607 -4.22514 0
M  V30 16725 C 2833.86 5.62697 -5.96604 0
M  V30 16726 O 2834.25 6.87667 -5.41053 0
M  V30 16727 C 2834.74 4.52537 -5.39283 0
M  V30 16728 C 2834.03 4.20027 -4.08623 0
M  V30 16729 N 2834.08 2.76189 -3.71603 0
M  V30 16730 C 2834 1.66944 -4.54297 0
M  V30 16731 N 2834.07 0.536169 -3.91344 0
M  V30 16732 C 2834.22 0.901569 -2.58849 0
M  V30 16733 C 2834.35 0.146599 -1.40236 0
M  V30 16734 N 2834.36 -1.18234 -1.37046 0
M  V30 16735 N 2834.47 0.822941 -0.249738 0
M  V30 16736 C 2834.46 2.15179 -0.280525 0
M  V30 16737 N 2834.34 2.96414 -1.30822 0
M  V30 16738 C 2834.22 2.25804 -2.44748 0
M  V30 16739 H 2831.25 4.79756 -7.24086 0
M  V30 16740 H 2830.97 3.69963 -5.84682 0
M  V30 16741 H 2831.84 6.10431 -5.41508 0
M  V30 16742 H 2834.5 4.78816 -3.28024 0
M  V30 16743 H 2834.78 3.64957 -6.05871 0
M  V30 16744 H 2835.77 4.88748 -5.21323 0
M  V30 16745 H 2833.93 5.66789 -7.0643 0
M  V30 16746 H 2833.89 1.74684 -5.62396 0
M  V30 16747 H 2834.27 -1.71949 -2.24394 0
M  V30 16748 H 2834.46 -1.67511 -0.470742 0
M  V30 16749 H 2834.57 2.63704 0.6828 0
M  V30 16750 P 2835.8 7.20834 -5.23717 0
M  V30 16751 O 2836.02 8.66104 -5.38572 0
M  V30 16752 O 2836.59 6.33544 -6.1349 0
M  V30 16753 O 2836.05 6.7751 -3.72168 0
M  V30 16754 C 2835.11 7.20825 -2.7076 0
M  V30 16755 C 2835.84 7.45864 -1.40599 0
M  V30 16756 O 2836.05 6.17651 -0.734225 0
M  V30 16757 C 2837.24 8.05808 -1.51899 0
M  V30 16758 O 2837.63 8.74358 -0.335205 0
M  V30 16759 C 2838.12 6.83093 -1.70294 0
M  V30 16760 C 2837.41 5.79992 -0.836974 0
M  V30 16761 N 2837.46 4.41864 -1.38293 0
M  V30 16762 H 2834.62 8.13644 -3.0377 0
M  V30 16763 H 2834.35 6.42788 -2.55485 0
M  V30 16764 H 2835.22 8.12039 -0.792769 0
M  V30 16765 P 2839.18 8.91 -8.50179e-11 0
M  V30 16766 O 2839.4 10.1726 0.733694 0
M  V30 16767 O 2839.97 8.73148 -1.23936 0
M  V30 16768 O 2839.43 7.66872 0.971405 0
M  V30 16769 C 2838.49 7.42309 2.04641 0
M  V30 16770 C 2839.22 6.86059 3.24661 0
M  V30 16771 O 2839.43 5.42847 3.03646 0
M  V30 16772 C 2840.62 7.41196 3.50753 0
M  V30 16773 O 2841.01 7.27073 4.86816 0
M  V30 16774 C 2841.5 6.5273 2.63741 0
M  V30 16775 C 2840.79 5.1842 2.73198 0
M  V30 16776 N 2840.84 4.38762 1.4784 0
M  V30 16777 C 2840.76 4.81605 0.168631 0
M  V30 16778 N 2840.84 3.85454 -0.713363 0
M  V30 16779 C 2840.98 2.6994 0.0566958 0
M  V30 16780 C 2841.11 1.34815 -0.338502 0
M  V30 16781 N 2841.23 0.496304 0.77465 0
M  V30 16782 C 2841.23 0.908403 2.09122 0
M  V30 16783 N 2841.36 -0.0517805 3.00955 0
M  V30 16784 N 2841.1 2.17875 2.46519 0
M  V30 16785 C 2840.98 3.01988 1.4033 0
M  V30 16786 H 2838 8.36803 2.32493 0
M  V30 16787 H 2837.73 6.70197 1.71129 0
M  V30 16788 H 2838.6 7.03551 4.13168 0
M  V30 16789 P 2842.56 7.20834 5.23717 0
M  V30 16790 O 2842.78 7.80006 6.57415 0
M  V30 16791 O 2843.35 7.79416 4.13051 0
M  V30 16792 O 2842.81 5.63315 5.29344 0
M  V30 16793 C 2841.87 4.80318 6.01954 0
M  V30 16794 C 2842.6 3.64202 6.65911 0
M  V30 16795 O 2842.81 2.60736 5.64823 0
M  V30 16796 C 2844 3.93521 7.19518 0
M  V30 16797 O 2844.39 3.02071 8.21205 0
M  V30 16798 C 2844.88 3.73047 5.97036 0
M  V30 16799 C 2844.17 2.58828 5.25741 0
M  V30 16800 N 2844.22 2.68068 3.77503 0
M  V30 16801 C 2844.14 3.80474 2.99159 0
M  V30 16802 N 2844.21 3.55622 1.71925 0
M  V30 16803 C 2844.36 2.1832 1.65733 0
M  V30 16804 C 2844.49 1.28842 0.572777 0
M  V30 16805 N 2844.5 1.66875 -0.70098 0
M  V30 16806 N 2844.61 -0.016788 0.859836 0
M  V30 16807 C 2844.6 -0.398145 2.13316 0
M  V30 16808 N 2844.48 0.328224 3.22333 0
M  V30 16809 C 2844.36 1.62992 2.90383 0
M  V30 16810 H 2841.39 5.40394 6.8003 0
M  V30 16811 H 2841.11 4.41741 5.32532 0
M  V30 16812 H 2841.98 3.26371 7.47889 0
M  V30 16813 H 2844.64 1.64007 5.56746 0
M  V30 16814 H 2844.92 4.63439 5.3432 0
M  V30 16815 H 2845.91 3.44776 6.25925 0
M  V30 16816 H 2844.07 4.96707 7.57347 0
M  V30 16817 H 2844.03 4.8089 3.39924 0
M  V30 16818 H 2844.41 2.66547 -0.941919 0
M  V30 16819 H 2844.6 0.965341 -1.44766 0
M  V30 16820 H 2844.71 -1.46427 2.29697 0
M  V30 16821 P 2845.94 2.75334 8.47391 0
M  V30 16822 O 2846.16 2.44619 9.90336 0
M  V30 16823 O 2846.73 3.87776 7.92294 0
M  V30 16824 O 2846.19 1.4459 7.59357 0
M  V30 16825 C 2845.25 0.347653 7.69315 0
M  V30 16826 C 2845.98 -0.96767 7.52806 0
M  V30 16827 O 2846.19 -1.21055 6.10208 0
M  V30 16828 C 2847.38 -1.04557 8.13408 0
M  V30 16829 O 2847.77 -2.38311 8.41922 0
M  V30 16830 C 2848.26 -0.491279 7.02284 0
M  V30 16831 C 2847.55 -0.996264 5.77469 0
M  V30 16832 N 2847.6 -0.0501916 4.62973 0
M  V30 16833 C 2847.52 1.31969 4.65661 0
M  V30 16834 N 2847.59 1.86649 3.48119 0
M  V30 16835 C 2847.74 0.792089 2.62406 0
M  V30 16836 C 2847.87 0.705684 1.2207 0
M  V30 16837 N 2847.88 1.76207 0.413762 0
M  V30 16838 N 2847.99 -0.518981 0.685754 0
M  V30 16839 C 2847.98 -1.57595 1.49174 0
M  V30 16840 N 2847.86 -1.62909 2.80066 0
M  V30 16841 C 2847.74 -0.388195 3.3073 0
M  V30 16842 H 2844.77 0.374765 8.67791 0
M  V30 16843 H 2844.49 0.443613 6.90476 0
M  V30 16844 H 2845.36 -1.75559 7.96891 0
M  V30 16845 H 2848.02 -1.94563 5.46818 0
M  V30 16846 H 2848.3 0.608651 7.04676 0
M  V30 16847 H 2849.29 -0.889796 7.09039 0
M  V30 16848 H 2847.45 -0.433128 9.04664 0
M  V30 16849 H 2847.41 1.89246 5.57664 0
M  V30 16850 H 2847.79 2.71005 0.804694 0
M  V30 16851 H 2847.98 1.63189 -0.603768 0
M  V30 16852 H 2848.09 -2.53475 0.997614 0
M  V30 16853 P 2849.32 -2.75334 8.47391 0
M  V30 16854 O 2849.54 -3.84128 9.44797 0
M  V30 16855 O 2850.11 -1.51947 8.68712 0
M  V30 16856 O 2849.57 -3.29363 6.99321 0
M  V30 16857 C 2848.63 -4.24011 6.4274 0
M  V30 16858 C 2849.36 -5.20775 5.52155 0
M  V30 16859 O 2849.57 -4.56534 4.22446 0
M  V30 16860 C 2850.76 -5.62629 5.96531 0
M  V30 16861 O 2851.15 -6.87667 5.41053 0
M  V30 16862 C 2851.64 -4.52537 5.39283 0
M  V30 16863 C 2850.93 -4.20027 4.08623 0
M  V30 16864 N 2850.98 -2.76189 3.71603 0
M  V30 16865 H 2848.14 -4.797 7.24003 0
M  V30 16866 H 2847.87 -3.69856 5.84513 0
M  V30 16867 H 2848.74 -6.10356 5.41441 0
M  V30 16868 P 2852.7 -7.20834 5.23717 0
M  V30 16869 O 2852.92 -8.66104 5.38572 0
M  V30 16870 O 2853.49 -6.33544 6.1349 0
M  V30 16871 O 2852.95 -6.7751 3.72168 0
M  V30 16872 C 2852.01 -7.20825 2.7076 0
M  V30 16873 C 2852.74 -7.45864 1.40599 0
M  V30 16874 O 2852.95 -6.17651 0.734225 0
M  V30 16875 C 2854.14 -8.05808 1.51899 0
M  V30 16876 O 2854.53 -8.74358 0.335205 0
M  V30 16877 C 2855.02 -6.83093 1.70294 0
M  V30 16878 C 2854.31 -5.79992 0.836974 0
M  V30 16879 N 2854.36 -4.41864 1.38293 0
M  V30 16880 H 2851.52 -8.13644 3.0377 0
M  V30 16881 H 2851.25 -6.42788 2.55485 0
M  V30 16882 H 2852.12 -8.12039 0.792769 0
M  V30 16883 P 2856.08 -8.91 8.61269e-11 0
M  V30 16884 O 2856.3 -10.1746 -0.733838 0
M  V30 16885 O 2856.87 -8.73346 1.23964 0
M  V30 16886 O 2856.33 -7.66872 -0.971405 0
M  V30 16887 C 2855.39 -7.42405 -2.04668 0
M  V30 16888 C 2856.12 -6.86059 -3.24661 0
M  V30 16889 O 2856.33 -5.42934 -3.03695 0
M  V30 16890 C 2857.52 -7.41287 -3.50796 0
M  V30 16891 O 2857.91 -7.27073 -4.86816 0
M  V30 16892 C 2858.4 -6.5273 -2.63741 0
M  V30 16893 C 2857.69 -5.1842 -2.73198 0
M  V30 16894 N 2857.74 -4.38762 -1.4784 0
M  V30 16895 C 2857.66 -4.83651 -0.183876 0
M  V30 16896 N 2857.73 -3.88759 0.699393 0
M  V30 16897 C 2857.88 -2.7404 -0.0575568 0
M  V30 16898 C 2858.01 -1.37902 0.293928 0
M  V30 16899 N 2858.02 -0.938021 1.54797 0
M  V30 16900 N 2858.13 -0.491817 -0.70549 0
M  V30 16901 C 2858.12 -0.931735 -1.95979 0
M  V30 16902 N 2858 -2.16017 -2.41481 0
M  V30 16903 C 2857.88 -3.02547 -1.39121 0
M  V30 16904 H 2854.91 -8.36899 -2.3252 0
M  V30 16905 H 2854.63 -6.70391 -1.71179 0
M  V30 16906 H 2855.5 -7.03638 -4.13219 0
M  V30 16907 H 2858.16 -4.59931 -3.54016 0
M  V30 16908 H 2858.44 -6.88995 -1.59871 0
M  V30 16909 H 2859.43 -6.4684 -3.0373 0
M  V30 16910 H 2857.59 -8.47002 -3.20749 0
M  V30 16911 H 2857.55 -5.8885 0.0765548 0
M  V30 16912 H 2857.93 -1.60276 2.32875 0
M  V30 16913 H 2858.12 0.0699355 1.73859 0
M  V30 16914 H 2858.23 -0.165507 -2.71897 0
M  V30 16915 P 2859.46 -7.20834 -5.23717 0
M  V30 16916 O 2859.68 -7.79853 -6.57286 0
M  V30 16917 O 2860.25 -7.79239 -4.12957 0
M  V30 16918 O 2859.71 -5.63315 -5.29344 0
M  V30 16919 C 2858.77 -4.80255 -6.01876 0
M  V30 16920 C 2859.5 -3.64202 -6.65911 0
M  V30 16921 O 2859.71 -2.60694 -5.64732 0
M  V30 16922 C 2860.9 -3.93473 -7.1943 0
M  V30 16923 O 2861.29 -3.02071 -8.21205 0
M  V30 16924 C 2861.78 -3.73047 -5.97036 0
M  V30 16925 C 2861.07 -2.58828 -5.25741 0
M  V30 16926 N 2861.12 -2.68068 -3.77503 0
M  V30 16927 H 2858.28 -5.40332 -6.79951 0
M  V30 16928 H 2858.01 -4.41613 -5.32378 0
M  V30 16929 H 2858.88 -3.26331 -7.47797 0
M  V30 16930 P 2862.84 -2.75334 -8.47391 0
M  V30 16931 O 2863.06 -2.44619 -9.90336 0
M  V30 16932 O 2863.63 -3.87776 -7.92294 0
M  V30 16933 O 2863.09 -1.4459 -7.59357 0
M  V30 16934 C 2862.15 -0.347653 -7.69315 0
M  V30 16935 C 2862.88 0.96767 -7.52806 0
M  V30 16936 O 2863.09 1.21055 -6.10208 0
M  V30 16937 C 2864.28 1.04557 -8.13408 0
M  V30 16938 O 2864.67 2.38311 -8.41922 0
M  V30 16939 C 2865.16 0.491279 -7.02284 0
M  V30 16940 C 2864.45 0.996264 -5.77469 0
M  V30 16941 N 2864.5 0.0501916 -4.62973 0
M  V30 16942 H 2861.67 -0.374765 -8.67791 0
M  V30 16943 H 2861.39 -0.443613 -6.90476 0
M  V30 16944 H 2862.26 1.75559 -7.96891 0
M  V30 16945 H 2864.92 1.94563 -5.46818 0
M  V30 16946 H 2865.2 -0.608651 -7.04676 0
M  V30 16947 H 2866.19 0.889796 -7.09039 0
M  V30 16948 H 2864.35 0.433128 -9.04664 0
M  V30 16949 P 2866.22 2.75334 -8.47391 0
M  V30 16950 O 2866.44 3.84128 -9.44797 0
M  V30 16951 O 2867.01 1.51947 -8.68712 0
M  V30 16952 O 2866.47 3.29363 -6.99321 0
M  V30 16953 C 2865.53 4.24011 -6.4274 0
M  V30 16954 C 2866.26 5.20775 -5.52155 0
M  V30 16955 O 2866.47 4.56534 -4.22446 0
M  V30 16956 C 2867.66 5.62629 -5.96531 0
M  V30 16957 O 2868.05 6.87667 -5.41053 0
M  V30 16958 C 2868.54 4.52537 -5.39283 0
M  V30 16959 C 2867.83 4.20027 -4.08623 0
M  V30 16960 N 2867.88 2.76189 -3.71603 0
M  V30 16961 H 2865.04 4.797 -7.24003 0
M  V30 16962 H 2864.77 3.69856 -5.84513 0
M  V30 16963 H 2865.64 6.10356 -5.41441 0
M  V30 16964 P 2869.6 7.20834 -5.23717 0
M  V30 16965 O 2869.82 8.66104 -5.38572 0
M  V30 16966 O 2870.39 6.33544 -6.1349 0
M  V30 16967 O 2869.85 6.7751 -3.72168 0
M  V30 16968 C 2868.91 7.20825 -2.7076 0
M  V30 16969 C 2869.64 7.45864 -1.40599 0
M  V30 16970 O 2869.85 6.17651 -0.734225 0
M  V30 16971 C 2871.04 8.05808 -1.51899 0
M  V30 16972 O 2871.43 8.74358 -0.335205 0
M  V30 16973 C 2871.92 6.83093 -1.70294 0
M  V30 16974 C 2871.21 5.79992 -0.836974 0
M  V30 16975 N 2871.26 4.41864 -1.38293 0
M  V30 16976 C 2871.18 3.99538 -2.69438 0
M  V30 16977 N 2871.26 2.69909 -2.84277 0
M  V30 16978 C 2871.4 2.21719 -1.5408 0
M  V30 16979 C 2871.53 0.891712 -1.06628 0
M  V30 16980 O 2871.55 -0.161298 -1.70137 0
M  V30 16981 N 2871.65 0.856846 0.334985 0
M  V30 16982 C 2871.65 1.9641 1.15789 0
M  V30 16983 N 2871.78 1.72708 2.46522 0
M  V30 16984 N 2871.52 3.21165 0.713741 0
M  V30 16985 C 2871.4 3.26797 -0.639748 0
M  V30 16986 H 2868.42 8.13644 -3.0377 0
M  V30 16987 H 2868.15 6.42788 -2.55485 0
M  V30 16988 H 2869.02 8.12039 -0.792769 0
M  V30 16989 H 2871.68 5.80061 0.166416 0
M  V30 16990 H 2871.96 6.51287 -2.75604 0
M  V30 16991 H 2872.95 7.01734 -1.34462 0
M  V30 16992 H 2871.11 8.73674 -2.38337 0
M  V30 16993 H 2871.06 4.68207 -3.53221 0
M  V30 16994 H 2871.75 -0.0398818 0.767965 0
M  V30 16995 H 2871.78 2.50995 3.13503 0
M  V30 16996 H 2871.88 0.759148 2.80716 0
M  V30 16997 P 2872.98 8.91 -8.72359e-11 0
M  V30 16998 O 2873.2 10.1736 0.733766 0
M  V30 16999 O 2873.77 8.73247 -1.2395 0
M  V30 17000 O 2873.23 7.66872 0.971405 0
M  V30 17001 C 2872.29 7.42212 2.04614 0
M  V30 17002 C 2873.02 6.86059 3.24661 0
M  V30 17003 O 2873.23 5.42847 3.03646 0
M  V30 17004 C 2874.42 7.41196 3.50753 0
M  V30 17005 O 2874.81 7.27073 4.86816 0
M  V30 17006 C 2875.3 6.5273 2.63741 0
M  V30 17007 C 2874.59 5.1842 2.73198 0
M  V30 17008 N 2874.64 4.38668 1.47808 0
M  V30 17009 C 2874.79 3.02239 1.60048 0
M  V30 17010 O 2874.88 2.46459 2.67869 0
M  V30 17011 N 2874.83 2.32436 0.408571 0
M  V30 17012 C 2874.74 2.85471 -0.854993 0
M  V30 17013 O 2874.79 2.12566 -1.8531 0
M  V30 17014 C 2874.59 4.28918 -0.887335 0
M  V30 17015 C 2874.48 4.91066 -2.24619 0
M  V30 17016 C 2874.54 5.00349 0.255399 0
M  V30 17017 H 2871.8 8.36803 2.32493 0
M  V30 17018 H 2871.53 6.701 1.71105 0
M  V30 17019 H 2872.4 7.03551 4.13168 0
M  V30 17020 H 2875.06 4.59773 3.53894 0
M  V30 17021 H 2875.34 6.88995 1.59871 0
M  V30 17022 H 2876.33 6.46749 3.03687 0
M  V30 17023 H 2874.49 8.46908 3.20714 0
M  V30 17024 H 2874.42 6.08548 0.206986 0
M  V30 17025 H 2875.45 5.34836 -2.53099 0
M  V30 17026 H 2873.72 5.69638 -2.2291 0
M  V30 17027 H 2874.2 4.13971 -2.98044 0
M  V30 17028 H 2874.94 1.33211 0.474216 0
M  V30 17029 P 2876.36 7.20834 5.23717 0
M  V30 17030 O 2876.58 7.80006 6.57415 0
M  V30 17031 O 2877.15 7.79416 4.13051 0
M  V30 17032 O 2876.61 5.63315 5.29344 0
M  V30 17033 C 2875.67 4.80318 6.01954 0
M  V30 17034 C 2876.4 3.64202 6.65911 0
M  V30 17035 O 2876.61 2.60736 5.64823 0
M  V30 17036 C 2877.8 3.93521 7.19518 0
M  V30 17037 O 2878.19 3.02071 8.21205 0
M  V30 17038 C 2878.68 3.73047 5.97036 0
M  V30 17039 C 2877.97 2.58828 5.25741 0
M  V30 17040 N 2878.02 2.68068 3.77503 0
M  V30 17041 C 2877.94 3.80474 2.99159 0
M  V30 17042 N 2878.01 3.55622 1.71925 0
M  V30 17043 C 2878.16 2.1832 1.65733 0
M  V30 17044 C 2878.29 1.28842 0.572777 0
M  V30 17045 N 2878.3 1.66875 -0.70098 0
M  V30 17046 N 2878.41 -0.016788 0.859836 0
M  V30 17047 C 2878.4 -0.398145 2.13316 0
M  V30 17048 N 2878.28 0.328224 3.22333 0
M  V30 17049 C 2878.16 1.62992 2.90383 0
M  V30 17050 H 2875.18 5.40394 6.8003 0
M  V30 17051 H 2874.91 4.41741 5.32532 0
M  V30 17052 H 2875.78 3.26371 7.47889 0
M  V30 17053 H 2878.44 1.64007 5.56746 0
M  V30 17054 H 2878.72 4.63439 5.3432 0
M  V30 17055 H 2879.71 3.44776 6.25925 0
M  V30 17056 H 2877.87 4.96707 7.57347 0
M  V30 17057 H 2877.83 4.8089 3.39924 0
M  V30 17058 H 2878.21 2.66547 -0.941919 0
M  V30 17059 H 2878.4 0.965341 -1.44766 0
M  V30 17060 H 2878.51 -1.46427 2.29697 0
M  V30 17061 P 2879.74 2.75334 8.47391 0
M  V30 17062 O 2879.96 2.44619 9.90336 0
M  V30 17063 O 2880.53 3.87776 7.92294 0
M  V30 17064 O 2879.99 1.4459 7.59357 0
M  V30 17065 C 2879.05 0.347653 7.69315 0
M  V30 17066 C 2879.78 -0.96767 7.52806 0
M  V30 17067 O 2879.99 -1.21055 6.10208 0
M  V30 17068 C 2881.18 -1.04557 8.13408 0
M  V30 17069 O 2881.57 -2.38311 8.41922 0
M  V30 17070 C 2882.06 -0.491279 7.02284 0
M  V30 17071 C 2881.35 -0.996264 5.77469 0
M  V30 17072 N 2881.4 -0.0501916 4.62973 0
M  V30 17073 C 2881.32 1.31969 4.65661 0
M  V30 17074 N 2881.39 1.86649 3.48119 0
M  V30 17075 C 2881.54 0.792089 2.62406 0
M  V30 17076 C 2881.67 0.705684 1.2207 0
M  V30 17077 N 2881.68 1.76207 0.413762 0
M  V30 17078 N 2881.79 -0.518981 0.685754 0
M  V30 17079 C 2881.78 -1.57595 1.49174 0
M  V30 17080 N 2881.66 -1.62909 2.80066 0
M  V30 17081 C 2881.54 -0.388195 3.3073 0
M  V30 17082 H 2878.56 0.374765 8.67791 0
M  V30 17083 H 2878.29 0.443613 6.90476 0
M  V30 17084 H 2879.16 -1.75559 7.96891 0
M  V30 17085 H 2881.82 -1.94563 5.46818 0
M  V30 17086 H 2882.1 0.608651 7.04676 0
M  V30 17087 H 2883.09 -0.889796 7.09039 0
M  V30 17088 H 2881.25 -0.433128 9.04664 0
M  V30 17089 H 2881.21 1.89246 5.57664 0
M  V30 17090 H 2881.59 2.71005 0.804694 0
M  V30 17091 H 2881.78 1.63189 -0.603768 0
M  V30 17092 H 2881.89 -2.53475 0.997614 0
M  V30 17093 P 2883.12 -2.75334 8.47391 0
M  V30 17094 O 2883.34 -3.84128 9.44797 0
M  V30 17095 O 2883.91 -1.51947 8.68712 0
M  V30 17096 O 2883.37 -3.29363 6.99321 0
M  V30 17097 C 2882.43 -4.24011 6.4274 0
M  V30 17098 C 2883.16 -5.20775 5.52155 0
M  V30 17099 O 2883.37 -4.56534 4.22446 0
M  V30 17100 C 2884.56 -5.62629 5.96531 0
M  V30 17101 O 2884.95 -6.87667 5.41053 0
M  V30 17102 C 2885.44 -4.52537 5.39283 0
M  V30 17103 C 2884.73 -4.20027 4.08623 0
M  V30 17104 N 2884.78 -2.76189 3.71603 0
M  V30 17105 H 2881.94 -4.797 7.24003 0
M  V30 17106 H 2881.67 -3.69856 5.84513 0
M  V30 17107 H 2882.54 -6.10356 5.41441 0
M  V30 17108 P 2886.5 -7.20834 5.23717 0
M  V30 17109 O 2886.72 -8.66104 5.38572 0
M  V30 17110 O 2887.29 -6.33544 6.1349 0
M  V30 17111 O 2886.75 -6.7751 3.72168 0
M  V30 17112 C 2885.81 -7.20825 2.7076 0
M  V30 17113 C 2886.54 -7.45864 1.40599 0
M  V30 17114 O 2886.75 -6.17651 0.734225 0
M  V30 17115 C 2887.94 -8.05808 1.51899 0
M  V30 17116 O 2888.33 -8.74358 0.335205 0
M  V30 17117 C 2888.82 -6.83093 1.70294 0
M  V30 17118 C 2888.11 -5.79992 0.836974 0
M  V30 17119 N 2888.16 -4.41864 1.38293 0
M  V30 17120 H 2885.32 -8.13644 3.0377 0
M  V30 17121 H 2885.05 -6.42788 2.55485 0
M  V30 17122 H 2885.92 -8.12039 0.792769 0
M  V30 17123 P 2889.88 -8.91 8.83449e-11 0
M  V30 17124 O 2890.1 -10.1726 -0.733694 0
M  V30 17125 O 2890.67 -8.73148 1.23936 0
M  V30 17126 O 2890.13 -7.66872 -0.971405 0
M  V30 17127 C 2889.19 -7.42309 -2.04641 0
M  V30 17128 C 2889.92 -6.86059 -3.24661 0
M  V30 17129 O 2890.13 -5.42847 -3.03646 0
M  V30 17130 C 2891.32 -7.41196 -3.50753 0
M  V30 17131 O 2891.71 -7.27073 -4.86816 0
M  V30 17132 C 2892.2 -6.5273 -2.63741 0
M  V30 17133 C 2891.49 -5.1842 -2.73198 0
M  V30 17134 N 2891.54 -4.38762 -1.4784 0
M  V30 17135 H 2888.7 -8.36803 -2.32493 0
M  V30 17136 H 2888.43 -6.70197 -1.71129 0
M  V30 17137 H 2889.3 -7.03551 -4.13168 0
M  V30 17138 P 2893.26 -7.20834 -5.23717 0
M  V30 17139 O 2893.48 -7.79853 -6.57286 0
M  V30 17140 O 2894.05 -7.79239 -4.12957 0
M  V30 17141 O 2893.51 -5.63315 -5.29344 0
M  V30 17142 C 2892.57 -4.80255 -6.01876 0
M  V30 17143 C 2893.3 -3.64202 -6.65911 0
M  V30 17144 O 2893.51 -2.60694 -5.64732 0
M  V30 17145 C 2894.7 -3.93473 -7.1943 0
M  V30 17146 O 2895.09 -3.02071 -8.21205 0
M  V30 17147 C 2895.58 -3.73047 -5.97036 0
M  V30 17148 C 2894.87 -2.58828 -5.25741 0
M  V30 17149 N 2894.92 -2.68068 -3.77503 0
M  V30 17150 H 2892.08 -5.40332 -6.79951 0
M  V30 17151 H 2891.81 -4.41613 -5.32378 0
M  V30 17152 H 2892.68 -3.26331 -7.47797 0
M  V30 17153 P 2896.64 -2.75334 -8.47391 0
M  V30 17154 O 2896.86 -2.44571 -9.90142 0
M  V30 17155 O 2897.43 -3.87688 -7.92115 0
M  V30 17156 O 2896.89 -1.4459 -7.59357 0
M  V30 17157 C 2895.95 -0.347608 -7.69215 0
M  V30 17158 C 2896.68 0.96767 -7.52806 0
M  V30 17159 O 2896.89 1.21036 -6.1011 0
M  V30 17160 C 2898.08 1.04544 -8.13308 0
M  V30 17161 O 2898.47 2.38311 -8.41922 0
M  V30 17162 C 2898.96 0.491279 -7.02284 0
M  V30 17163 C 2898.25 0.996264 -5.77469 0
M  V30 17164 N 2898.3 0.0501916 -4.62973 0
M  V30 17165 C 2898.22 -1.32786 -4.63244 0
M  V30 17166 N 2898.3 -1.86957 -3.44545 0
M  V30 17167 C 2898.44 -0.780241 -2.58481 0
M  V30 17168 C 2898.57 -0.738536 -1.17757 0
M  V30 17169 N 2898.69 0.58337 -0.711393 0
M  V30 17170 C 2898.69 1.70816 -1.51017 0
M  V30 17171 N 2898.82 2.87826 -0.880757 0
M  V30 17172 N 2898.56 1.67126 -2.8339 0
M  V30 17173 C 2898.44 0.401421 -3.30572 0
M  V30 17174 H 2895.46 -0.374722 -8.67691 0
M  V30 17175 H 2895.19 -0.443485 -6.90277 0
M  V30 17176 H 2896.06 1.75537 -7.96793 0
M  V30 17177 P 2900.02 2.75334 -8.47391 0
M  V30 17178 O 2900.24 3.84204 -9.44982 0
M  V30 17179 O 2900.81 1.51982 -8.68909 0
M  V30 17180 O 2900.27 3.29363 -6.99321 0
M  V30 17181 C 2899.33 4.24066 -6.42823 0
M  V30 17182 C 2900.06 5.20775 -5.52155 0
M  V30 17183 O 2900.27 4.56607 -4.22514 0
M  V30 17184 C 2901.46 5.62697 -5.96604 0
M  V30 17185 O 2901.85 6.87667 -5.41053 0
M  V30 17186 C 2902.34 4.52537 -5.39283 0
M  V30 17187 C 2901.63 4.20027 -4.08623 0
M  V30 17188 N 2901.68 2.76189 -3.71603 0
M  V30 17189 C 2901.6 1.66944 -4.54297 0
M  V30 17190 N 2901.67 0.536169 -3.91344 0
M  V30 17191 C 2901.82 0.901569 -2.58849 0
M  V30 17192 C 2901.95 0.146599 -1.40236 0
M  V30 17193 N 2901.96 -1.18234 -1.37046 0
M  V30 17194 N 2902.07 0.822941 -0.249738 0
M  V30 17195 C 2902.06 2.15179 -0.280525 0
M  V30 17196 N 2901.94 2.96414 -1.30822 0
M  V30 17197 C 2901.82 2.25804 -2.44748 0
M  V30 17198 H 2898.84 4.79756 -7.24086 0
M  V30 17199 H 2898.57 3.69963 -5.84682 0
M  V30 17200 H 2899.44 6.10431 -5.41508 0
M  V30 17201 H 2902.1 4.78816 -3.28024 0
M  V30 17202 H 2902.38 3.64957 -6.05871 0
M  V30 17203 H 2903.37 4.88748 -5.21323 0
M  V30 17204 H 2901.53 5.66789 -7.0643 0
M  V30 17205 H 2901.49 1.74684 -5.62396 0
M  V30 17206 H 2901.87 -1.71949 -2.24394 0
M  V30 17207 H 2902.06 -1.67511 -0.470742 0
M  V30 17208 H 2902.17 2.63704 0.6828 0
M  V30 17209 P 2903.4 7.20834 -5.23717 0
M  V30 17210 O 2903.62 8.66274 -5.38678 0
M  V30 17211 O 2904.19 6.33687 -6.13629 0
M  V30 17212 O 2903.65 6.7751 -3.72168 0
M  V30 17213 C 2902.71 7.20919 -2.70795 0
M  V30 17214 C 2903.44 7.45864 -1.40599 0
M  V30 17215 O 2903.65 6.17751 -0.734343 0
M  V30 17216 C 2904.84 8.05906 -1.51917 0
M  V30 17217 O 2905.23 8.74358 -0.335205 0
M  V30 17218 C 2905.72 6.83093 -1.70294 0
M  V30 17219 C 2905.01 5.79992 -0.836974 0
M  V30 17220 N 2905.06 4.41864 -1.38293 0
M  V30 17221 H 2902.22 8.13738 -3.03804 0
M  V30 17222 H 2901.95 6.42974 -2.55559 0
M  V30 17223 H 2902.82 8.12139 -0.792866 0
M  V30 17224 H 2905.48 5.80178 0.160643 0
M  V30 17225 H 2905.76 6.51379 -2.75643 0
M  V30 17226 H 2906.75 7.01832 -1.3448 0
M  V30 17227 H 2904.91 8.73771 -2.38364 0
M  V30 17228 P 2906.78 8.91 -8.94539e-11 0
M  V30 17229 O 2907 10.1726 0.733694 0
M  V30 17230 O 2907.57 8.73148 -1.23936 0
M  V30 17231 O 2907.03 7.66872 0.971405 0
M  V30 17232 C 2906.09 7.42309 2.04641 0
M  V30 17233 C 2906.82 6.86059 3.24661 0
M  V30 17234 O 2907.03 5.42847 3.03646 0
M  V30 17235 C 2908.22 7.41196 3.50753 0
M  V30 17236 O 2908.61 7.27073 4.86816 0
M  V30 17237 C 2909.1 6.5273 2.63741 0
M  V30 17238 C 2908.39 5.1842 2.73198 0
M  V30 17239 N 2908.44 4.38762 1.4784 0
M  V30 17240 H 2905.6 8.36803 2.32493 0
M  V30 17241 H 2905.33 6.70197 1.71129 0
M  V30 17242 H 2906.2 7.03551 4.13168 0
M  V30 17243 P 2910.16 7.20834 5.23717 0
M  V30 17244 O 2910.38 7.80006 6.57415 0
M  V30 17245 O 2910.95 7.79416 4.13051 0
M  V30 17246 O 2910.41 5.63315 5.29344 0
M  V30 17247 C 2909.47 4.80318 6.01954 0
M  V30 17248 C 2910.2 3.64202 6.65911 0
M  V30 17249 O 2910.41 2.60736 5.64823 0
M  V30 17250 C 2911.6 3.93521 7.19518 0
M  V30 17251 O 2911.99 3.02071 8.21205 0
M  V30 17252 C 2912.48 3.73047 5.97036 0
M  V30 17253 C 2911.77 2.58828 5.25741 0
M  V30 17254 N 2911.82 2.68068 3.77503 0
M  V30 17255 C 2911.74 3.80474 2.99159 0
M  V30 17256 N 2911.81 3.55622 1.71925 0
M  V30 17257 C 2911.96 2.1832 1.65733 0
M  V30 17258 C 2912.09 1.28842 0.572777 0
M  V30 17259 N 2912.1 1.66875 -0.70098 0
M  V30 17260 N 2912.21 -0.016788 0.859836 0
M  V30 17261 C 2912.2 -0.398145 2.13316 0
M  V30 17262 N 2912.08 0.328224 3.22333 0
M  V30 17263 C 2911.96 1.62992 2.90383 0
M  V30 17264 H 2908.98 5.40394 6.8003 0
M  V30 17265 H 2908.71 4.41741 5.32532 0
M  V30 17266 H 2909.58 3.26371 7.47889 0
M  V30 17267 H 2912.24 1.64007 5.56746 0
M  V30 17268 H 2912.52 4.63439 5.3432 0
M  V30 17269 H 2913.51 3.44776 6.25925 0
M  V30 17270 H 2911.67 4.96707 7.57347 0
M  V30 17271 H 2911.63 4.8089 3.39924 0
M  V30 17272 H 2912.01 2.66547 -0.941919 0
M  V30 17273 H 2912.2 0.965341 -1.44766 0
M  V30 17274 H 2912.31 -1.46427 2.29697 0
M  V30 17275 P 2913.54 2.75334 8.47391 0
M  V30 17276 O 2913.76 2.44571 9.90142 0
M  V30 17277 O 2914.33 3.87688 7.92115 0
M  V30 17278 O 2913.79 1.4459 7.59357 0
M  V30 17279 C 2912.85 0.347608 7.69215 0
M  V30 17280 C 2913.58 -0.96767 7.52806 0
M  V30 17281 O 2913.79 -1.21036 6.1011 0
M  V30 17282 C 2914.98 -1.04544 8.13308 0
M  V30 17283 O 2915.37 -2.38311 8.41922 0
M  V30 17284 C 2915.86 -0.491279 7.02284 0
M  V30 17285 C 2915.15 -0.996264 5.77469 0
M  V30 17286 N 2915.2 -0.0501916 4.62973 0
M  V30 17287 H 2912.36 0.374722 8.67691 0
M  V30 17288 H 2912.09 0.443485 6.90277 0
M  V30 17289 H 2912.96 -1.75537 7.96793 0
M  V30 17290 P 2916.92 -2.75334 8.47391 0
M  V30 17291 O 2917.14 -3.84128 9.44797 0
M  V30 17292 O 2917.71 -1.51947 8.68712 0
M  V30 17293 O 2917.17 -3.29363 6.99321 0
M  V30 17294 C 2916.23 -4.24011 6.4274 0
M  V30 17295 C 2916.96 -5.20775 5.52155 0
M  V30 17296 O 2917.17 -4.56534 4.22446 0
M  V30 17297 C 2918.36 -5.62629 5.96531 0
M  V30 17298 O 2918.75 -6.87667 5.41053 0
M  V30 17299 C 2919.24 -4.52537 5.39283 0
M  V30 17300 C 2918.53 -4.20027 4.08623 0
M  V30 17301 N 2918.58 -2.76189 3.71603 0
M  V30 17302 H 2915.74 -4.797 7.24003 0
M  V30 17303 H 2915.47 -3.69856 5.84513 0
M  V30 17304 H 2916.34 -6.10356 5.41441 0
M  V30 17305 P 2920.3 -7.20834 5.23717 0
M  V30 17306 O 2920.52 -8.66274 5.38678 0
M  V30 17307 O 2921.09 -6.33687 6.13629 0
M  V30 17308 O 2920.55 -6.7751 3.72168 0
M  V30 17309 C 2919.61 -7.20919 2.70795 0
M  V30 17310 C 2920.34 -7.45864 1.40599 0
M  V30 17311 O 2920.55 -6.17751 0.734343 0
M  V30 17312 C 2921.74 -8.05906 1.51917 0
M  V30 17313 O 2922.13 -8.74358 0.335205 0
M  V30 17314 C 2922.62 -6.83093 1.70294 0
M  V30 17315 C 2921.91 -5.79992 0.836974 0
M  V30 17316 N 2921.96 -4.41864 1.38293 0
M  V30 17317 C 2921.88 -4.02089 2.69407 0
M  V30 17318 N 2921.95 -2.73403 2.85089 0
M  V30 17319 C 2922.1 -2.25086 1.5642 0
M  V30 17320 C 2922.23 -0.942887 1.04836 0
M  V30 17321 N 2922.24 0.150999 1.80369 0
M  V30 17322 N 2922.35 -0.812565 -0.28167 0
M  V30 17323 C 2922.34 -1.90572 -1.03784 0
M  V30 17324 N 2922.22 -3.167 -0.683905 0
M  V30 17325 C 2922.1 -3.26538 0.652815 0
M  V30 17326 H 2919.12 -8.13738 3.03804 0
M  V30 17327 H 2918.85 -6.42974 2.55559 0
M  V30 17328 H 2919.72 -8.12139 0.792866 0
M  V30 17329 H 2922.38 -5.80178 -0.160643 0
M  V30 17330 H 2922.66 -6.51379 2.75643 0
M  V30 17331 H 2923.65 -7.01832 1.3448 0
M  V30 17332 H 2921.81 -8.73771 2.38364 0
M  V30 17333 H 2921.77 -4.7189 3.52311 0
M  V30 17334 H 2922.15 0.0721434 2.82608 0
M  V30 17335 H 2922.34 1.0785 1.36544 0
M  V30 17336 H 2922.45 -1.73207 -2.10241 0
M  V30 17337 P 2923.68 -8.91 9.05629e-11 0
M  V30 17338 O 2923.9 -10.1746 -0.733838 0
M  V30 17339 O 2924.47 -8.73346 1.23964 0
M  V30 17340 O 2923.93 -7.66872 -0.971405 0
M  V30 17341 C 2922.99 -7.42405 -2.04668 0
M  V30 17342 C 2923.72 -6.86059 -3.24661 0
M  V30 17343 O 2923.93 -5.42934 -3.03695 0
M  V30 17344 C 2925.12 -7.41287 -3.50796 0
M  V30 17345 O 2925.51 -7.27073 -4.86816 0
M  V30 17346 C 2926 -6.5273 -2.63741 0
M  V30 17347 C 2925.29 -5.1842 -2.73198 0
M  V30 17348 N 2925.34 -4.38762 -1.4784 0
M  V30 17349 H 2922.5 -8.36899 -2.3252 0
M  V30 17350 H 2922.23 -6.70391 -1.71179 0
M  V30 17351 H 2923.1 -7.03638 -4.13219 0
M  V30 17352 H 2925.76 -4.59931 -3.54016 0
M  V30 17353 H 2926.04 -6.88995 -1.59871 0
M  V30 17354 H 2927.03 -6.4684 -3.0373 0
M  V30 17355 H 2925.19 -8.47002 -3.20749 0
M  V30 17356 P 2927.06 -7.20834 -5.23717 0
M  V30 17357 O 2927.28 -7.79853 -6.57286 0
M  V30 17358 O 2927.85 -7.79239 -4.12957 0
M  V30 17359 O 2927.31 -5.63315 -5.29344 0
M  V30 17360 C 2926.37 -4.80255 -6.01876 0
M  V30 17361 C 2927.1 -3.64202 -6.65911 0
M  V30 17362 O 2927.31 -2.60694 -5.64732 0
M  V30 17363 C 2928.5 -3.93473 -7.1943 0
M  V30 17364 O 2928.89 -3.02071 -8.21205 0
M  V30 17365 C 2929.38 -3.73047 -5.97036 0
M  V30 17366 C 2928.67 -2.58828 -5.25741 0
M  V30 17367 N 2928.72 -2.68068 -3.77503 0
M  V30 17368 H 2925.88 -5.40332 -6.79951 0
M  V30 17369 H 2925.61 -4.41613 -5.32378 0
M  V30 17370 H 2926.48 -3.26331 -7.47797 0
M  V30 17371 P 2930.44 -2.75334 -8.47391 0
M  V30 17372 O 2930.66 -2.44571 -9.90142 0
M  V30 17373 O 2931.23 -3.87688 -7.92115 0
M  V30 17374 O 2930.69 -1.4459 -7.59357 0
M  V30 17375 C 2929.75 -0.347608 -7.69215 0
M  V30 17376 C 2930.48 0.96767 -7.52806 0
M  V30 17377 O 2930.69 1.21036 -6.1011 0
M  V30 17378 C 2931.88 1.04544 -8.13308 0
M  V30 17379 O 2932.27 2.38311 -8.41922 0
M  V30 17380 C 2932.76 0.491279 -7.02284 0
M  V30 17381 C 2932.05 0.996264 -5.77469 0
M  V30 17382 N 2932.1 0.0501916 -4.62973 0
M  V30 17383 H 2929.26 -0.374722 -8.67691 0
M  V30 17384 H 2928.99 -0.443485 -6.90277 0
M  V30 17385 H 2929.86 1.75537 -7.96793 0
M  V30 17386 P 2933.82 2.75334 -8.47391 0
M  V30 17387 O 2934.04 3.84204 -9.44982 0
M  V30 17388 O 2934.61 1.51982 -8.68909 0
M  V30 17389 O 2934.07 3.29363 -6.99321 0
M  V30 17390 C 2933.13 4.24066 -6.42823 0
M  V30 17391 C 2933.86 5.20775 -5.52155 0
M  V30 17392 O 2934.07 4.56607 -4.22514 0
M  V30 17393 C 2935.26 5.62697 -5.96604 0
M  V30 17394 O 2935.65 6.87667 -5.41053 0
M  V30 17395 C 2936.14 4.52537 -5.39283 0
M  V30 17396 C 2935.43 4.20027 -4.08623 0
M  V30 17397 N 2935.48 2.76189 -3.71603 0
M  V30 17398 C 2935.4 1.66944 -4.54297 0
M  V30 17399 N 2935.47 0.536169 -3.91344 0
M  V30 17400 C 2935.62 0.901569 -2.58849 0
M  V30 17401 C 2935.75 0.146599 -1.40236 0
M  V30 17402 N 2935.76 -1.18234 -1.37046 0
M  V30 17403 N 2935.87 0.822941 -0.249738 0
M  V30 17404 C 2935.86 2.15179 -0.280525 0
M  V30 17405 N 2935.74 2.96414 -1.30822 0
M  V30 17406 C 2935.62 2.25804 -2.44748 0
M  V30 17407 H 2932.64 4.79756 -7.24086 0
M  V30 17408 H 2932.37 3.69963 -5.84682 0
M  V30 17409 H 2933.24 6.10431 -5.41508 0
M  V30 17410 H 2935.9 4.78816 -3.28024 0
M  V30 17411 H 2936.18 3.64957 -6.05871 0
M  V30 17412 H 2937.17 4.88748 -5.21323 0
M  V30 17413 H 2935.33 5.66789 -7.0643 0
M  V30 17414 H 2935.29 1.74684 -5.62396 0
M  V30 17415 H 2935.67 -1.71949 -2.24394 0
M  V30 17416 H 2935.86 -1.67511 -0.470742 0
M  V30 17417 H 2935.97 2.63704 0.6828 0
M  V30 17418 P 2937.2 7.20834 -5.23717 0
M  V30 17419 O 2937.42 8.66104 -5.38572 0
M  V30 17420 O 2937.99 6.33544 -6.1349 0
M  V30 17421 O 2937.45 6.7751 -3.72168 0
M  V30 17422 C 2936.51 7.20825 -2.7076 0
M  V30 17423 C 2937.24 7.45864 -1.40599 0
M  V30 17424 O 2937.45 6.17651 -0.734225 0
M  V30 17425 C 2938.64 8.05808 -1.51899 0
M  V30 17426 O 2939.03 8.74358 -0.335205 0
M  V30 17427 C 2939.52 6.83093 -1.70294 0
M  V30 17428 C 2938.81 5.79992 -0.836974 0
M  V30 17429 N 2938.86 4.41864 -1.38293 0
M  V30 17430 H 2936.02 8.13644 -3.0377 0
M  V30 17431 H 2935.75 6.42788 -2.55485 0
M  V30 17432 H 2936.62 8.12039 -0.792769 0
M  V30 17433 P 2940.58 8.91 -9.16719e-11 0
M  V30 17434 O 2940.8 10.1726 0.733694 0
M  V30 17435 O 2941.37 8.73148 -1.23936 0
M  V30 17436 O 2940.83 7.66872 0.971405 0
M  V30 17437 C 2939.89 7.42309 2.04641 0
M  V30 17438 C 2940.62 6.86059 3.24661 0
M  V30 17439 O 2940.83 5.42847 3.03646 0
M  V30 17440 C 2942.02 7.41196 3.50753 0
M  V30 17441 O 2942.41 7.27073 4.86816 0
M  V30 17442 C 2942.9 6.5273 2.63741 0
M  V30 17443 C 2942.19 5.1842 2.73198 0
M  V30 17444 N 2942.24 4.38762 1.4784 0
M  V30 17445 H 2939.4 8.36803 2.32493 0
M  V30 17446 H 2939.13 6.70197 1.71129 0
M  V30 17447 H 2940 7.03551 4.13168 0
M  V30 17448 P 2943.96 7.20834 5.23717 0
M  V30 17449 O 2944.18 7.79853 6.57286 0
M  V30 17450 O 2944.75 7.79239 4.12957 0
M  V30 17451 O 2944.21 5.63315 5.29344 0
M  V30 17452 C 2943.27 4.80255 6.01876 0
M  V30 17453 C 2944 3.64202 6.65911 0
M  V30 17454 O 2944.21 2.60694 5.64732 0
M  V30 17455 C 2945.4 3.93473 7.1943 0
M  V30 17456 O 2945.79 3.02071 8.21205 0
M  V30 17457 C 2946.28 3.73047 5.97036 0
M  V30 17458 C 2945.57 2.58828 5.25741 0
M  V30 17459 N 2945.62 2.68068 3.77503 0
M  V30 17460 H 2942.78 5.40332 6.79951 0
M  V30 17461 H 2942.51 4.41613 5.32378 0
M  V30 17462 H 2943.38 3.26331 7.47797 0
M  V30 17463 P 2947.34 2.75334 8.47391 0
M  V30 17464 O 2947.56 2.44571 9.90142 0
M  V30 17465 O 2948.13 3.87688 7.92115 0
M  V30 17466 O 2947.59 1.4459 7.59357 0
M  V30 17467 C 2946.65 0.347608 7.69215 0
M  V30 17468 C 2947.38 -0.96767 7.52806 0
M  V30 17469 O 2947.59 -1.21036 6.1011 0
M  V30 17470 C 2948.78 -1.04544 8.13308 0
M  V30 17471 O 2949.17 -2.38311 8.41922 0
M  V30 17472 C 2949.66 -0.491279 7.02284 0
M  V30 17473 C 2948.95 -0.996264 5.77469 0
M  V30 17474 N 2949 -0.0501916 4.62973 0
M  V30 17475 C 2948.92 1.32786 4.63244 0
M  V30 17476 N 2949 1.86957 3.44545 0
M  V30 17477 C 2949.14 0.780241 2.58481 0
M  V30 17478 C 2949.27 0.738536 1.17757 0
M  V30 17479 N 2949.39 -0.58337 0.711393 0
M  V30 17480 C 2949.39 -1.70816 1.51017 0
M  V30 17481 N 2949.52 -2.87826 0.880757 0
M  V30 17482 N 2949.26 -1.67126 2.8339 0
M  V30 17483 C 2949.14 -0.401421 3.30572 0
M  V30 17484 H 2946.16 0.374722 8.67691 0
M  V30 17485 H 2945.89 0.443485 6.90277 0
M  V30 17486 H 2946.76 -1.75537 7.96793 0
M  V30 17487 P 2950.72 -2.75334 8.47391 0
M  V30 17488 O 2950.94 -3.84128 9.44797 0
M  V30 17489 O 2951.51 -1.51947 8.68712 0
M  V30 17490 O 2950.97 -3.29363 6.99321 0
M  V30 17491 C 2950.03 -4.24011 6.4274 0
M  V30 17492 C 2950.76 -5.20775 5.52155 0
M  V30 17493 O 2950.97 -4.56534 4.22446 0
M  V30 17494 C 2952.16 -5.62629 5.96531 0
M  V30 17495 O 2952.55 -6.87667 5.41053 0
M  V30 17496 C 2953.04 -4.52537 5.39283 0
M  V30 17497 C 2952.33 -4.20027 4.08623 0
M  V30 17498 N 2952.38 -2.76189 3.71603 0
M  V30 17499 H 2949.54 -4.797 7.24003 0
M  V30 17500 H 2949.27 -3.69856 5.84513 0
M  V30 17501 H 2950.14 -6.10356 5.41441 0
M  V30 17502 P 2954.1 -7.20834 5.23717 0
M  V30 17503 O 2954.32 -8.66104 5.38572 0
M  V30 17504 O 2954.89 -6.33544 6.1349 0
M  V30 17505 O 2954.35 -6.7751 3.72168 0
M  V30 17506 C 2953.41 -7.20825 2.7076 0
M  V30 17507 C 2954.14 -7.45864 1.40599 0
M  V30 17508 O 2954.35 -6.17651 0.734225 0
M  V30 17509 C 2955.54 -8.05808 1.51899 0
M  V30 17510 O 2955.93 -8.74358 0.335205 0
M  V30 17511 C 2956.42 -6.83093 1.70294 0
M  V30 17512 C 2955.71 -5.79992 0.836974 0
M  V30 17513 N 2955.76 -4.41864 1.38293 0
M  V30 17514 C 2955.68 -3.99538 2.69438 0
M  V30 17515 N 2955.76 -2.69909 2.84277 0
M  V30 17516 C 2955.9 -2.21719 1.5408 0
M  V30 17517 C 2956.03 -0.891712 1.06628 0
M  V30 17518 N 2956.15 -0.856846 -0.334985 0
M  V30 17519 C 2956.15 -1.9641 -1.15789 0
M  V30 17520 N 2956.28 -1.72708 -2.46522 0
M  V30 17521 N 2956.02 -3.21165 -0.713741 0
M  V30 17522 C 2955.9 -3.26797 0.639748 0
M  V30 17523 H 2952.92 -8.13644 3.0377 0
M  V30 17524 H 2952.65 -6.42788 2.55485 0
M  V30 17525 H 2953.52 -8.12039 0.792769 0
M  V30 17526 P 2957.48 -8.91 9.27809e-11 0
M  V30 17527 O 2957.7 -10.1746 -0.733838 0
M  V30 17528 O 2958.27 -8.73346 1.23964 0
M  V30 17529 O 2957.73 -7.66872 -0.971405 0
M  V30 17530 C 2956.79 -7.42405 -2.04668 0
M  V30 17531 C 2957.52 -6.86059 -3.24661 0
M  V30 17532 O 2957.73 -5.42934 -3.03695 0
M  V30 17533 C 2958.92 -7.41287 -3.50796 0
M  V30 17534 O 2959.31 -7.27073 -4.86816 0
M  V30 17535 C 2959.8 -6.5273 -2.63741 0
M  V30 17536 C 2959.09 -5.1842 -2.73198 0
M  V30 17537 N 2959.14 -4.38762 -1.4784 0
M  V30 17538 H 2956.3 -8.36899 -2.3252 0
M  V30 17539 H 2956.03 -6.70391 -1.71179 0
M  V30 17540 H 2956.9 -7.03638 -4.13219 0
M  V30 17541 H 2959.56 -4.59931 -3.54016 0
M  V30 17542 H 2959.84 -6.88995 -1.59871 0
M  V30 17543 H 2960.83 -6.4684 -3.0373 0
M  V30 17544 H 2958.99 -8.47002 -3.20749 0
M  V30 17545 P 2960.86 -7.20834 -5.23717 0
M  V30 17546 O 2961.08 -7.79853 -6.57286 0
M  V30 17547 O 2961.65 -7.79239 -4.12957 0
M  V30 17548 O 2961.11 -5.63315 -5.29344 0
M  V30 17549 C 2960.17 -4.80255 -6.01876 0
M  V30 17550 C 2960.9 -3.64202 -6.65911 0
M  V30 17551 O 2961.11 -2.60694 -5.64732 0
M  V30 17552 C 2962.3 -3.93473 -7.1943 0
M  V30 17553 O 2962.69 -3.02071 -8.21205 0
M  V30 17554 C 2963.18 -3.73047 -5.97036 0
M  V30 17555 C 2962.47 -2.58828 -5.25741 0
M  V30 17556 N 2962.52 -2.68068 -3.77503 0
M  V30 17557 H 2959.68 -5.40332 -6.79951 0
M  V30 17558 H 2959.41 -4.41613 -5.32378 0
M  V30 17559 H 2960.28 -3.26331 -7.47797 0
M  V30 17560 P 2964.24 -2.75334 -8.47391 0
M  V30 17561 O 2964.46 -2.44619 -9.90336 0
M  V30 17562 O 2965.03 -3.87776 -7.92294 0
M  V30 17563 O 2964.49 -1.4459 -7.59357 0
M  V30 17564 C 2963.55 -0.347653 -7.69315 0
M  V30 17565 C 2964.28 0.96767 -7.52806 0
M  V30 17566 O 2964.49 1.21055 -6.10208 0
M  V30 17567 C 2965.68 1.04557 -8.13408 0
M  V30 17568 O 2966.07 2.38311 -8.41922 0
M  V30 17569 C 2966.56 0.491279 -7.02284 0
M  V30 17570 C 2965.85 0.996264 -5.77469 0
M  V30 17571 N 2965.9 0.0501916 -4.62973 0
M  V30 17572 H 2963.06 -0.374765 -8.67791 0
M  V30 17573 H 2962.79 -0.443613 -6.90476 0
M  V30 17574 H 2963.66 1.75559 -7.96891 0
M  V30 17575 H 2966.32 1.94563 -5.46818 0
M  V30 17576 H 2966.6 -0.608651 -7.04676 0
M  V30 17577 H 2967.59 0.889796 -7.09039 0
M  V30 17578 H 2965.75 0.433128 -9.04664 0
M  V30 17579 P 2967.62 2.75334 -8.47391 0
M  V30 17580 O 2967.84 3.84128 -9.44797 0
M  V30 17581 O 2968.41 1.51947 -8.68712 0
M  V30 17582 O 2967.87 3.29363 -6.99321 0
M  V30 17583 C 2966.93 4.24011 -6.4274 0
M  V30 17584 C 2967.66 5.20775 -5.52155 0
M  V30 17585 O 2967.87 4.56534 -4.22446 0
M  V30 17586 C 2969.06 5.62629 -5.96531 0
M  V30 17587 O 2969.45 6.87667 -5.41053 0
M  V30 17588 C 2969.94 4.52537 -5.39283 0
M  V30 17589 C 2969.23 4.20027 -4.08623 0
M  V30 17590 N 2969.28 2.76189 -3.71603 0
M  V30 17591 H 2966.44 4.797 -7.24003 0
M  V30 17592 H 2966.17 3.69856 -5.84513 0
M  V30 17593 H 2967.04 6.10356 -5.41441 0
M  V30 17594 P 2971 7.20834 -5.23717 0
M  V30 17595 O 2971.22 8.66104 -5.38572 0
M  V30 17596 O 2971.79 6.33544 -6.1349 0
M  V30 17597 O 2971.25 6.7751 -3.72168 0
M  V30 17598 C 2970.31 7.20825 -2.7076 0
M  V30 17599 C 2971.04 7.45864 -1.40599 0
M  V30 17600 O 2971.25 6.17651 -0.734225 0
M  V30 17601 C 2972.44 8.05808 -1.51899 0
M  V30 17602 O 2972.83 8.74358 -0.335205 0
M  V30 17603 C 2973.32 6.83093 -1.70294 0
M  V30 17604 C 2972.61 5.79992 -0.836974 0
M  V30 17605 N 2972.66 4.41864 -1.38293 0
M  V30 17606 H 2969.82 8.13644 -3.0377 0
M  V30 17607 H 2969.55 6.42788 -2.55485 0
M  V30 17608 H 2970.42 8.12039 -0.792769 0
M  V30 17609 P 2974.38 8.91 -9.38899e-11 0
M  V30 17610 O 2974.6 10.1746 0.733838 0
M  V30 17611 O 2975.17 8.73346 -1.23964 0
M  V30 17612 O 2974.63 7.66872 0.971405 0
M  V30 17613 C 2973.69 7.42405 2.04668 0
M  V30 17614 C 2974.42 6.86059 3.24661 0
M  V30 17615 O 2974.63 5.42934 3.03695 0
M  V30 17616 C 2975.82 7.41287 3.50796 0
M  V30 17617 O 2976.21 7.27073 4.86816 0
M  V30 17618 C 2976.7 6.5273 2.63741 0
M  V30 17619 C 2975.99 5.1842 2.73198 0
M  V30 17620 N 2976.04 4.38762 1.4784 0
M  V30 17621 H 2973.2 8.36899 2.3252 0
M  V30 17622 H 2972.93 6.70391 1.71179 0
M  V30 17623 H 2973.8 7.03638 4.13219 0
M  V30 17624 H 2976.46 4.59931 3.54016 0
M  V30 17625 H 2976.74 6.88995 1.59871 0
M  V30 17626 H 2977.73 6.4684 3.0373 0
M  V30 17627 H 2975.89 8.47002 3.20749 0
M  V30 17628 P 2977.76 7.20834 5.23717 0
M  V30 17629 O 2977.98 7.79853 6.57286 0
M  V30 17630 O 2978.55 7.79239 4.12957 0
M  V30 17631 O 2978.01 5.63315 5.29344 0
M  V30 17632 C 2977.07 4.80255 6.01876 0
M  V30 17633 C 2977.8 3.64202 6.65911 0
M  V30 17634 O 2978.01 2.60694 5.64732 0
M  V30 17635 C 2979.2 3.93473 7.1943 0
M  V30 17636 O 2979.59 3.02071 8.21205 0
M  V30 17637 C 2980.08 3.73047 5.97036 0
M  V30 17638 C 2979.37 2.58828 5.25741 0
M  V30 17639 N 2979.42 2.68068 3.77503 0
M  V30 17640 H 2976.58 5.40332 6.79951 0
M  V30 17641 H 2976.31 4.41613 5.32378 0
M  V30 17642 H 2977.18 3.26331 7.47797 0
M  V30 17643 P 2981.14 2.75334 8.47391 0
M  V30 17644 O 2981.36 2.44571 9.90142 0
M  V30 17645 O 2981.93 3.87688 7.92115 0
M  V30 17646 O 2981.39 1.4459 7.59357 0
M  V30 17647 C 2980.45 0.347608 7.69215 0
M  V30 17648 C 2981.18 -0.96767 7.52806 0
M  V30 17649 O 2981.39 -1.21036 6.1011 0
M  V30 17650 C 2982.58 -1.04544 8.13308 0
M  V30 17651 O 2982.97 -2.38311 8.41922 0
M  V30 17652 C 2983.46 -0.491279 7.02284 0
M  V30 17653 C 2982.75 -0.996264 5.77469 0
M  V30 17654 N 2982.8 -0.0501916 4.62973 0
M  V30 17655 H 2979.96 0.374722 8.67691 0
M  V30 17656 H 2979.69 0.443485 6.90277 0
M  V30 17657 H 2980.56 -1.75537 7.96793 0
M  V30 17658 P 2984.52 -2.75334 8.47391 0
M  V30 17659 O 2984.74 -3.84128 9.44797 0
M  V30 17660 O 2985.31 -1.51947 8.68712 0
M  V30 17661 O 2984.77 -3.29363 6.99321 0
M  V30 17662 C 2983.83 -4.24011 6.4274 0
M  V30 17663 C 2984.56 -5.20775 5.52155 0
M  V30 17664 O 2984.77 -4.56534 4.22446 0
M  V30 17665 C 2985.96 -5.62629 5.96531 0
M  V30 17666 O 2986.35 -6.87667 5.41053 0
M  V30 17667 C 2986.84 -4.52537 5.39283 0
M  V30 17668 C 2986.13 -4.20027 4.08623 0
M  V30 17669 N 2986.18 -2.76189 3.71603 0
M  V30 17670 H 2983.34 -4.797 7.24003 0
M  V30 17671 H 2983.07 -3.69856 5.84513 0
M  V30 17672 H 2983.94 -6.10356 5.41441 0
M  V30 17673 P 2987.9 -7.20834 5.23717 0
M  V30 17674 O 2988.12 -8.66104 5.38572 0
M  V30 17675 O 2988.69 -6.33544 6.1349 0
M  V30 17676 O 2988.15 -6.7751 3.72168 0
M  V30 17677 C 2987.21 -7.20825 2.7076 0
M  V30 17678 C 2987.94 -7.45864 1.40599 0
M  V30 17679 O 2988.15 -6.17651 0.734225 0
M  V30 17680 C 2989.34 -8.05808 1.51899 0
M  V30 17681 O 2989.73 -8.74358 0.335205 0
M  V30 17682 C 2990.22 -6.83093 1.70294 0
M  V30 17683 C 2989.51 -5.79992 0.836974 0
M  V30 17684 N 2989.56 -4.41864 1.38293 0
M  V30 17685 H 2986.72 -8.13644 3.0377 0
M  V30 17686 H 2986.45 -6.42788 2.55485 0
M  V30 17687 H 2987.32 -8.12039 0.792769 0
M  V30 17688 P 2991.28 -8.91 9.49989e-11 0
M  V30 17689 O 2991.5 -10.1726 -0.733694 0
M  V30 17690 O 2992.07 -8.73148 1.23936 0
M  V30 17691 O 2991.53 -7.66872 -0.971405 0
M  V30 17692 C 2990.59 -7.42309 -2.04641 0
M  V30 17693 C 2991.32 -6.86059 -3.24661 0
M  V30 17694 O 2991.53 -5.42847 -3.03646 0
M  V30 17695 C 2992.72 -7.41196 -3.50753 0
M  V30 17696 O 2993.11 -7.27073 -4.86816 0
M  V30 17697 C 2993.6 -6.5273 -2.63741 0
M  V30 17698 C 2992.89 -5.1842 -2.73198 0
M  V30 17699 N 2992.94 -4.38762 -1.4784 0
M  V30 17700 H 2990.1 -8.36803 -2.32493 0
M  V30 17701 H 2989.83 -6.70197 -1.71129 0
M  V30 17702 H 2990.7 -7.03551 -4.13168 0
M  V30 17703 P 2994.66 -7.20834 -5.23717 0
M  V30 17704 O 2994.88 -7.79853 -6.57286 0
M  V30 17705 O 2995.45 -7.79239 -4.12957 0
M  V30 17706 O 2994.91 -5.63315 -5.29344 0
M  V30 17707 C 2993.97 -4.80255 -6.01876 0
M  V30 17708 C 2994.7 -3.64202 -6.65911 0
M  V30 17709 O 2994.91 -2.60694 -5.64732 0
M  V30 17710 C 2996.1 -3.93473 -7.1943 0
M  V30 17711 O 2996.49 -3.02071 -8.21205 0
M  V30 17712 C 2996.98 -3.73047 -5.97036 0
M  V30 17713 C 2996.27 -2.58828 -5.25741 0
M  V30 17714 N 2996.32 -2.68068 -3.77503 0
M  V30 17715 H 2993.48 -5.40332 -6.79951 0
M  V30 17716 H 2993.21 -4.41613 -5.32378 0
M  V30 17717 H 2994.08 -3.26331 -7.47797 0
M  V30 17718 P 2998.04 -2.75334 -8.47391 0
M  V30 17719 O 2998.26 -2.44571 -9.90142 0
M  V30 17720 O 2998.83 -3.87688 -7.92115 0
M  V30 17721 O 2998.29 -1.4459 -7.59357 0
M  V30 17722 C 2997.35 -0.347608 -7.69215 0
M  V30 17723 C 2998.08 0.96767 -7.52806 0
M  V30 17724 O 2998.29 1.21036 -6.1011 0
M  V30 17725 C 2999.48 1.04544 -8.13308 0
M  V30 17726 O 2999.87 2.38311 -8.41922 0
M  V30 17727 C 3000.36 0.491279 -7.02284 0
M  V30 17728 C 2999.65 0.996264 -5.77469 0
M  V30 17729 N 2999.7 0.0501916 -4.62973 0
M  V30 17730 H 2996.86 -0.374722 -8.67691 0
M  V30 17731 H 2996.59 -0.443485 -6.90277 0
M  V30 17732 H 2997.46 1.75537 -7.96793 0
M  V30 17733 P 3001.42 2.75334 -8.47391 0
M  V30 17734 O 3001.64 3.84204 -9.44982 0
M  V30 17735 O 3002.21 1.51982 -8.68909 0
M  V30 17736 O 3001.67 3.29363 -6.99321 0
M  V30 17737 C 3000.73 4.24066 -6.42823 0
M  V30 17738 C 3001.46 5.20775 -5.52155 0
M  V30 17739 O 3001.67 4.56607 -4.22514 0
M  V30 17740 C 3002.86 5.62697 -5.96604 0
M  V30 17741 O 3003.25 6.87667 -5.41053 0
M  V30 17742 C 3003.74 4.52537 -5.39283 0
M  V30 17743 C 3003.03 4.20027 -4.08623 0
M  V30 17744 N 3003.08 2.76189 -3.71603 0
M  V30 17745 H 3000.24 4.79756 -7.24086 0
M  V30 17746 H 2999.97 3.69963 -5.84682 0
M  V30 17747 H 3000.84 6.10431 -5.41508 0
M  V30 17748 H 3003.5 4.78816 -3.28024 0
M  V30 17749 H 3003.78 3.64957 -6.05871 0
M  V30 17750 H 3004.77 4.88748 -5.21323 0
M  V30 17751 H 3002.93 5.66789 -7.0643 0
M  V30 17752 P 3004.8 7.20834 -5.23717 0
M  V30 17753 O 3005.02 8.66104 -5.38572 0
M  V30 17754 O 3005.59 6.33544 -6.1349 0
M  V30 17755 O 3005.05 6.7751 -3.72168 0
M  V30 17756 C 3004.11 7.20825 -2.7076 0
M  V30 17757 C 3004.84 7.45864 -1.40599 0
M  V30 17758 O 3005.05 6.17651 -0.734225 0
M  V30 17759 C 3006.24 8.05808 -1.51899 0
M  V30 17760 O 3006.63 8.74358 -0.335205 0
M  V30 17761 C 3007.12 6.83093 -1.70294 0
M  V30 17762 C 3006.41 5.79992 -0.836974 0
M  V30 17763 N 3006.46 4.41864 -1.38293 0
M  V30 17764 H 3003.62 8.13644 -3.0377 0
M  V30 17765 H 3003.35 6.42788 -2.55485 0
M  V30 17766 H 3004.22 8.12039 -0.792769 0
M  V30 17767 P 3008.18 8.91 -9.61079e-11 0
M  V30 17768 O 3008.4 10.1726 0.733694 0
M  V30 17769 O 3008.97 8.73148 -1.23936 0
M  V30 17770 O 3008.43 7.66872 0.971405 0
M  V30 17771 C 3007.49 7.42309 2.04641 0
M  V30 17772 C 3008.22 6.86059 3.24661 0
M  V30 17773 O 3008.43 5.42847 3.03646 0
M  V30 17774 C 3009.62 7.41196 3.50753 0
M  V30 17775 O 3010.01 7.27073 4.86816 0
M  V30 17776 C 3010.5 6.5273 2.63741 0
M  V30 17777 C 3009.79 5.1842 2.73198 0
M  V30 17778 N 3009.84 4.38762 1.4784 0
M  V30 17779 H 3007 8.36803 2.32493 0
M  V30 17780 H 3006.73 6.70197 1.71129 0
M  V30 17781 H 3007.6 7.03551 4.13168 0
M  V30 17782 P 3011.56 7.20834 5.23717 0
M  V30 17783 O 3011.78 7.79853 6.57286 0
M  V30 17784 O 3012.35 7.79239 4.12957 0
M  V30 17785 O 3011.81 5.63315 5.29344 0
M  V30 17786 C 3010.87 4.80255 6.01876 0
M  V30 17787 C 3011.6 3.64202 6.65911 0
M  V30 17788 O 3011.81 2.60694 5.64732 0
M  V30 17789 C 3013 3.93473 7.1943 0
M  V30 17790 O 3013.39 3.02071 8.21205 0
M  V30 17791 C 3013.88 3.73047 5.97036 0
M  V30 17792 C 3013.17 2.58828 5.25741 0
M  V30 17793 N 3013.22 2.68068 3.77503 0
M  V30 17794 H 3010.38 5.40332 6.79951 0
M  V30 17795 H 3010.11 4.41613 5.32378 0
M  V30 17796 H 3010.98 3.26331 7.47797 0
M  V30 17797 P 3014.94 2.75334 8.47391 0
M  V30 17798 O 3015.16 2.44571 9.90142 0
M  V30 17799 O 3015.73 3.87688 7.92115 0
M  V30 17800 O 3015.19 1.4459 7.59357 0
M  V30 17801 C 3014.25 0.347608 7.69215 0
M  V30 17802 C 3014.98 -0.96767 7.52806 0
M  V30 17803 O 3015.19 -1.21036 6.1011 0
M  V30 17804 C 3016.38 -1.04544 8.13308 0
M  V30 17805 O 3016.77 -2.38311 8.41922 0
M  V30 17806 C 3017.26 -0.491279 7.02284 0
M  V30 17807 C 3016.55 -0.996264 5.77469 0
M  V30 17808 N 3016.6 -0.0501916 4.62973 0
M  V30 17809 H 3013.76 0.374722 8.67691 0
M  V30 17810 H 3013.49 0.443485 6.90277 0
M  V30 17811 H 3014.36 -1.75537 7.96793 0
M  V30 17812 P 3018.32 -2.75334 8.47391 0
M  V30 17813 O 3018.54 -3.84128 9.44797 0
M  V30 17814 O 3019.11 -1.51947 8.68712 0
M  V30 17815 O 3018.57 -3.29363 6.99321 0
M  V30 17816 C 3017.63 -4.24011 6.4274 0
M  V30 17817 C 3018.36 -5.20775 5.52155 0
M  V30 17818 O 3018.57 -4.56534 4.22446 0
M  V30 17819 C 3019.76 -5.62629 5.96531 0
M  V30 17820 O 3020.15 -6.87667 5.41053 0
M  V30 17821 C 3020.64 -4.52537 5.39283 0
M  V30 17822 C 3019.93 -4.20027 4.08623 0
M  V30 17823 N 3019.98 -2.76189 3.71603 0
M  V30 17824 H 3017.14 -4.797 7.24003 0
M  V30 17825 H 3016.87 -3.69856 5.84513 0
M  V30 17826 H 3017.74 -6.10356 5.41441 0
M  V30 17827 P 3021.7 -7.20834 5.23717 0
M  V30 17828 O 3021.92 -8.66274 5.38678 0
M  V30 17829 O 3022.49 -6.33687 6.13629 0
M  V30 17830 O 3021.95 -6.7751 3.72168 0
M  V30 17831 C 3021.01 -7.20919 2.70795 0
M  V30 17832 C 3021.74 -7.45864 1.40599 0
M  V30 17833 O 3021.95 -6.17751 0.734343 0
M  V30 17834 C 3023.14 -8.05906 1.51917 0
M  V30 17835 O 3023.53 -8.74358 0.335205 0
M  V30 17836 C 3024.02 -6.83093 1.70294 0
M  V30 17837 C 3023.31 -5.79992 0.836974 0
M  V30 17838 N 3023.36 -4.41864 1.38293 0
M  V30 17839 C 3023.28 -4.02089 2.69407 0
M  V30 17840 N 3023.35 -2.73403 2.85089 0
M  V30 17841 C 3023.5 -2.25086 1.5642 0
M  V30 17842 C 3023.63 -0.942887 1.04836 0
M  V30 17843 N 3023.64 0.150999 1.80369 0
M  V30 17844 N 3023.75 -0.812565 -0.28167 0
M  V30 17845 C 3023.74 -1.90572 -1.03784 0
M  V30 17846 N 3023.62 -3.167 -0.683905 0
M  V30 17847 C 3023.5 -3.26538 0.652815 0
M  V30 17848 H 3020.52 -8.13738 3.03804 0
M  V30 17849 H 3020.25 -6.42974 2.55559 0
M  V30 17850 H 3021.12 -8.12139 0.792866 0
M  V30 17851 H 3023.78 -5.80178 -0.160643 0
M  V30 17852 H 3024.06 -6.51379 2.75643 0
M  V30 17853 H 3025.05 -7.01832 1.3448 0
M  V30 17854 H 3023.21 -8.73771 2.38364 0
M  V30 17855 H 3023.17 -4.7189 3.52311 0
M  V30 17856 H 3023.55 0.0721434 2.82608 0
M  V30 17857 H 3023.74 1.0785 1.36544 0
M  V30 17858 H 3023.85 -1.73207 -2.10241 0
M  V30 17859 P 3025.08 -8.91 9.72169e-11 0
M  V30 17860 O 3025.3 -10.1726 -0.733694 0
M  V30 17861 O 3025.87 -8.73148 1.23936 0
M  V30 17862 O 3025.33 -7.66872 -0.971405 0
M  V30 17863 C 3024.39 -7.42309 -2.04641 0
M  V30 17864 C 3025.12 -6.86059 -3.24661 0
M  V30 17865 O 3025.33 -5.42847 -3.03646 0
M  V30 17866 C 3026.52 -7.41196 -3.50753 0
M  V30 17867 O 3026.91 -7.27073 -4.86816 0
M  V30 17868 C 3027.4 -6.5273 -2.63741 0
M  V30 17869 C 3026.69 -5.1842 -2.73198 0
M  V30 17870 N 3026.74 -4.38762 -1.4784 0
M  V30 17871 H 3023.9 -8.36803 -2.32493 0
M  V30 17872 H 3023.63 -6.70197 -1.71129 0
M  V30 17873 H 3024.5 -7.03551 -4.13168 0
M  V30 17874 P 3028.46 -7.20834 -5.23717 0
M  V30 17875 O 3028.68 -7.80006 -6.57415 0
M  V30 17876 O 3029.25 -7.79416 -4.13051 0
M  V30 17877 O 3028.71 -5.63315 -5.29344 0
M  V30 17878 C 3027.77 -4.80318 -6.01954 0
M  V30 17879 C 3028.5 -3.64202 -6.65911 0
M  V30 17880 O 3028.71 -2.60736 -5.64823 0
M  V30 17881 C 3029.9 -3.93521 -7.19518 0
M  V30 17882 O 3030.29 -3.02071 -8.21205 0
M  V30 17883 C 3030.78 -3.73047 -5.97036 0
M  V30 17884 C 3030.07 -2.58828 -5.25741 0
M  V30 17885 N 3030.12 -2.68068 -3.77503 0
M  V30 17886 C 3030.04 -3.80474 -2.99159 0
M  V30 17887 N 3030.11 -3.55622 -1.71925 0
M  V30 17888 C 3030.26 -2.1832 -1.65733 0
M  V30 17889 C 3030.39 -1.28842 -0.572777 0
M  V30 17890 N 3030.4 -1.66875 0.70098 0
M  V30 17891 N 3030.51 0.016788 -0.859836 0
M  V30 17892 C 3030.5 0.398145 -2.13316 0
M  V30 17893 N 3030.38 -0.328224 -3.22333 0
M  V30 17894 C 3030.26 -1.62992 -2.90383 0
M  V30 17895 H 3027.28 -5.40394 -6.8003 0
M  V30 17896 H 3027.01 -4.41741 -5.32532 0
M  V30 17897 H 3027.88 -3.26371 -7.47889 0
M  V30 17898 H 3030.54 -1.64007 -5.56746 0
M  V30 17899 H 3030.82 -4.63439 -5.3432 0
M  V30 17900 H 3031.81 -3.44776 -6.25925 0
M  V30 17901 H 3029.97 -4.96707 -7.57347 0
M  V30 17902 H 3029.93 -4.8089 -3.39924 0
M  V30 17903 H 3030.31 -2.66547 0.941919 0
M  V30 17904 H 3030.5 -0.965341 1.44766 0
M  V30 17905 H 3030.61 1.46427 -2.29697 0
M  V30 17906 P 3031.84 -2.75334 -8.47391 0
M  V30 17907 O 3032.06 -2.44571 -9.90142 0
M  V30 17908 O 3032.63 -3.87688 -7.92115 0
M  V30 17909 O 3032.09 -1.4459 -7.59357 0
M  V30 17910 C 3031.15 -0.347608 -7.69215 0
M  V30 17911 C 3031.88 0.96767 -7.52806 0
M  V30 17912 O 3032.09 1.21036 -6.1011 0
M  V30 17913 C 3033.28 1.04544 -8.13308 0
M  V30 17914 O 3033.67 2.38311 -8.41922 0
M  V30 17915 C 3034.16 0.491279 -7.02284 0
M  V30 17916 C 3033.45 0.996264 -5.77469 0
M  V30 17917 N 3033.5 0.0501916 -4.62973 0
M  V30 17918 H 3030.66 -0.374722 -8.67691 0
M  V30 17919 H 3030.39 -0.443485 -6.90277 0
M  V30 17920 H 3031.26 1.75537 -7.96793 0
M  V30 17921 P 3035.22 2.75334 -8.47391 0
M  V30 17922 O 3035.44 3.84128 -9.44797 0
M  V30 17923 O 3036.01 1.51947 -8.68712 0
M  V30 17924 O 3035.47 3.29363 -6.99321 0
M  V30 17925 C 3034.53 4.24011 -6.4274 0
M  V30 17926 C 3035.26 5.20775 -5.52155 0
M  V30 17927 O 3035.47 4.56534 -4.22446 0
M  V30 17928 C 3036.66 5.62629 -5.96531 0
M  V30 17929 O 3037.05 6.87667 -5.41053 0
M  V30 17930 C 3037.54 4.52537 -5.39283 0
M  V30 17931 C 3036.83 4.20027 -4.08623 0
M  V30 17932 N 3036.88 2.76189 -3.71603 0
M  V30 17933 H 3034.04 4.797 -7.24003 0
M  V30 17934 H 3033.77 3.69856 -5.84513 0
M  V30 17935 H 3034.64 6.10356 -5.41441 0
M  V30 17936 P 3038.6 7.20834 -5.23717 0
M  V30 17937 O 3038.82 8.66104 -5.38572 0
M  V30 17938 O 3039.39 6.33544 -6.1349 0
M  V30 17939 O 3038.85 6.7751 -3.72168 0
M  V30 17940 C 3037.91 7.20825 -2.7076 0
M  V30 17941 C 3038.64 7.45864 -1.40599 0
M  V30 17942 O 3038.85 6.17651 -0.734225 0
M  V30 17943 C 3040.04 8.05808 -1.51899 0
M  V30 17944 O 3040.43 8.74358 -0.335205 0
M  V30 17945 C 3040.92 6.83093 -1.70294 0
M  V30 17946 C 3040.21 5.79992 -0.836974 0
M  V30 17947 N 3040.26 4.41864 -1.38293 0
M  V30 17948 H 3037.42 8.13644 -3.0377 0
M  V30 17949 H 3037.15 6.42788 -2.55485 0
M  V30 17950 H 3038.02 8.12039 -0.792769 0
M  V30 17951 P 3041.98 8.91 -9.83259e-11 0
M  V30 17952 O 3042.2 10.1746 0.733838 0
M  V30 17953 O 3042.77 8.73346 -1.23964 0
M  V30 17954 O 3042.23 7.66872 0.971405 0
M  V30 17955 C 3041.29 7.42405 2.04668 0
M  V30 17956 C 3042.02 6.86059 3.24661 0
M  V30 17957 O 3042.23 5.42934 3.03695 0
M  V30 17958 C 3043.42 7.41287 3.50796 0
M  V30 17959 O 3043.81 7.27073 4.86816 0
M  V30 17960 C 3044.3 6.5273 2.63741 0
M  V30 17961 C 3043.59 5.1842 2.73198 0
M  V30 17962 N 3043.64 4.38762 1.4784 0
M  V30 17963 H 3040.8 8.36899 2.3252 0
M  V30 17964 H 3040.53 6.70391 1.71179 0
M  V30 17965 H 3041.4 7.03638 4.13219 0
M  V30 17966 H 3044.06 4.59931 3.54016 0
M  V30 17967 H 3044.34 6.88995 1.59871 0
M  V30 17968 H 3045.33 6.4684 3.0373 0
M  V30 17969 H 3043.49 8.47002 3.20749 0
M  V30 17970 P 3045.36 7.20834 5.23717 0
M  V30 17971 O 3045.58 7.79853 6.57286 0
M  V30 17972 O 3046.15 7.79239 4.12957 0
M  V30 17973 O 3045.61 5.63315 5.29344 0
M  V30 17974 C 3044.67 4.80255 6.01876 0
M  V30 17975 C 3045.4 3.64202 6.65911 0
M  V30 17976 O 3045.61 2.60694 5.64732 0
M  V30 17977 C 3046.8 3.93473 7.1943 0
M  V30 17978 O 3047.19 3.02071 8.21205 0
M  V30 17979 C 3047.68 3.73047 5.97036 0
M  V30 17980 C 3046.97 2.58828 5.25741 0
M  V30 17981 N 3047.02 2.68068 3.77503 0
M  V30 17982 H 3044.18 5.40332 6.79951 0
M  V30 17983 H 3043.91 4.41613 5.32378 0
M  V30 17984 H 3044.78 3.26331 7.47797 0
M  V30 17985 P 3048.74 2.75334 8.47391 0
M  V30 17986 O 3048.96 2.44571 9.90142 0
M  V30 17987 O 3049.53 3.87688 7.92115 0
M  V30 17988 O 3048.99 1.4459 7.59357 0
M  V30 17989 C 3048.05 0.347608 7.69215 0
M  V30 17990 C 3048.78 -0.96767 7.52806 0
M  V30 17991 O 3048.99 -1.21036 6.1011 0
M  V30 17992 C 3050.18 -1.04544 8.13308 0
M  V30 17993 O 3050.57 -2.38311 8.41922 0
M  V30 17994 C 3051.06 -0.491279 7.02284 0
M  V30 17995 C 3050.35 -0.996264 5.77469 0
M  V30 17996 N 3050.4 -0.0501916 4.62973 0
M  V30 17997 H 3047.56 0.374722 8.67691 0
M  V30 17998 H 3047.29 0.443485 6.90277 0
M  V30 17999 H 3048.16 -1.75537 7.96793 0
M  V30 18000 P 3052.12 -2.75334 8.47391 0
M  V30 18001 O 3052.34 -3.84204 9.44982 0
M  V30 18002 O 3052.91 -1.51982 8.68909 0
M  V30 18003 O 3052.37 -3.29363 6.99321 0
M  V30 18004 C 3051.43 -4.24066 6.42823 0
M  V30 18005 C 3052.16 -5.20775 5.52155 0
M  V30 18006 O 3052.37 -4.56607 4.22514 0
M  V30 18007 C 3053.56 -5.62697 5.96604 0
M  V30 18008 O 3053.95 -6.87667 5.41053 0
M  V30 18009 C 3054.44 -4.52537 5.39283 0
M  V30 18010 C 3053.73 -4.20027 4.08623 0
M  V30 18011 N 3053.78 -2.76189 3.71603 0
M  V30 18012 H 3050.94 -4.79756 7.24086 0
M  V30 18013 H 3050.67 -3.69963 5.84682 0
M  V30 18014 H 3051.54 -6.10431 5.41508 0
M  V30 18015 H 3054.19 -4.78816 3.28024 0
M  V30 18016 H 3054.47 -3.64957 6.05871 0
M  V30 18017 H 3055.47 -4.88748 5.21323 0
M  V30 18018 H 3053.63 -5.66789 7.0643 0
M  V30 18019 P 3055.5 -7.20834 5.23717 0
M  V30 18020 O 3055.72 -8.66104 5.38572 0
M  V30 18021 O 3056.29 -6.33544 6.1349 0
M  V30 18022 O 3055.75 -6.7751 3.72168 0
M  V30 18023 C 3054.81 -7.20825 2.7076 0
M  V30 18024 C 3055.54 -7.45864 1.40599 0
M  V30 18025 O 3055.75 -6.17651 0.734225 0
M  V30 18026 C 3056.94 -8.05808 1.51899 0
M  V30 18027 O 3057.33 -8.74358 0.335205 0
M  V30 18028 C 3057.82 -6.83093 1.70294 0
M  V30 18029 C 3057.11 -5.79992 0.836974 0
M  V30 18030 N 3057.16 -4.41864 1.38293 0
M  V30 18031 H 3054.32 -8.13644 3.0377 0
M  V30 18032 H 3054.05 -6.42788 2.55485 0
M  V30 18033 H 3054.92 -8.12039 0.792769 0
M  V30 18034 P 3058.88 -8.91 9.94349e-11 0
M  V30 18035 O 3059.1 -10.1726 -0.733694 0
M  V30 18036 O 3059.67 -8.73148 1.23936 0
M  V30 18037 O 3059.13 -7.66872 -0.971405 0
M  V30 18038 C 3058.19 -7.42309 -2.04641 0
M  V30 18039 C 3058.92 -6.86059 -3.24661 0
M  V30 18040 O 3059.13 -5.42847 -3.03646 0
M  V30 18041 C 3060.32 -7.41196 -3.50753 0
M  V30 18042 O 3060.71 -7.27073 -4.86816 0
M  V30 18043 C 3061.2 -6.5273 -2.63741 0
M  V30 18044 C 3060.49 -5.1842 -2.73198 0
M  V30 18045 N 3060.54 -4.38762 -1.4784 0
M  V30 18046 H 3057.7 -8.36803 -2.32493 0
M  V30 18047 H 3057.43 -6.70197 -1.71129 0
M  V30 18048 H 3058.3 -7.03551 -4.13168 0
M  V30 18049 P 3062.26 -7.20834 -5.23717 0
M  V30 18050 O 3062.48 -7.7993 -6.57351 0
M  V30 18051 O 3063.05 -7.79328 -4.13004 0
M  V30 18052 O 3062.51 -5.63315 -5.29344 0
M  V30 18053 C 3061.57 -4.80255 -6.01876 0
M  V30 18054 C 3062.3 -3.64202 -6.65911 0
M  V30 18055 O 3062.51 -2.60694 -5.64732 0
M  V30 18056 C 3063.7 -3.93473 -7.1943 0
M  V30 18057 O 3064.09 -3.02071 -8.21205 0
M  V30 18058 C 3064.58 -3.73047 -5.97036 0
M  V30 18059 C 3063.87 -2.58828 -5.25741 0
M  V30 18060 N 3063.92 -2.6801 -3.77422 0
M  V30 18061 C 3064.07 -1.50173 -3.05038 0
M  V30 18062 O 3064.16 -0.428832 -3.665 0
M  V30 18063 N 3064.12 -1.70922 -1.55541 0
M  V30 18064 C 3064.02 -2.7407 -1.06402 0
M  V30 18065 N 3064.07 -2.74764 0.260931 0
M  V30 18066 C 3063.87 -3.96781 -1.78296 0
M  V30 18067 C 3063.82 -3.87909 -3.13891 0
M  V30 18068 H 3061.08 -5.4027 -6.79873 0
M  V30 18069 H 3060.81 -4.41549 -5.32301 0
M  V30 18070 H 3061.68 -3.26371 -7.47889 0
M  V30 18071 H 3064.33 -1.63978 -5.5665 0
M  V30 18072 H 3064.61 -4.63439 -5.3432 0
M  V30 18073 H 3065.61 -3.44728 -6.25838 0
M  V30 18074 H 3063.77 -4.96652 -7.57263 0
M  V30 18075 H 3063.7 -4.78425 -3.73088 0
M  V30 18076 H 3063.8 -4.92593 -1.26997 0
M  V30 18077 H 3064.19 -1.86285 0.77595 0
M  V30 18078 H 3063.99 -3.63657 0.773896 0
M  V30 18079 P 3065.64 -2.75334 -8.47391 0
M  V30 18080 O 3065.86 -2.44595 -9.90239 0
M  V30 18081 O 3066.43 -3.87732 -7.92204 0
M  V30 18082 O 3065.89 -1.4459 -7.59357 0
M  V30 18083 C 3064.95 -0.347563 -7.69115 0
M  V30 18084 C 3065.68 0.96767 -7.52806 0
M  V30 18085 O 3065.89 1.21036 -6.1011 0
M  V30 18086 C 3067.08 1.04544 -8.13308 0
M  V30 18087 O 3067.47 2.38311 -8.41922 0
M  V30 18088 C 3067.96 0.491279 -7.02284 0
M  V30 18089 C 3067.25 0.996264 -5.77469 0
M  V30 18090 N 3067.3 0.0501808 -4.62873 0
M  V30 18091 C 3067.45 0.588177 -3.36904 0
M  V30 18092 O 3067.54 1.78598 -3.17173 0
M  V30 18093 N 3067.49 -0.329694 -2.33686 0
M  V30 18094 C 3067.4 -1.6953 -2.45079 0
M  V30 18095 O 3067.45 -2.41926 -1.44899 0
M  V30 18096 C 3067.25 -2.16933 -3.80505 0
M  V30 18097 C 3067.14 -3.65373 -3.97621 0
M  V30 18098 C 3067.2 -1.30326 -4.83752 0
M  V30 18099 H 3064.46 -0.374722 -8.67691 0
M  V30 18100 H 3064.19 -0.443421 -6.90177 0
M  V30 18101 H 3065.06 1.75537 -7.96793 0
M  V30 18102 H 3067.71 1.94496 -5.46629 0
M  V30 18103 H 3067.99 -0.608651 -7.04676 0
M  V30 18104 H 3068.99 0.889672 -7.08939 0
M  V30 18105 H 3067.15 0.43308 -9.04564 0
M  V30 18106 H 3067.08 -1.68366 -5.8516 0
M  V30 18107 H 3068.11 -4.05985 -4.30448 0
M  V30 18108 H 3066.37 -3.88028 -4.72875 0
M  V30 18109 H 3066.86 -4.11381 -3.01609 0
M  V30 18110 H 3067.6 0.0393617 -1.41345 0
M  V30 18111 P 3069.02 2.75334 -8.47391 0
M  V30 18112 O 3069.24 3.84128 -9.44797 0
M  V30 18113 O 3069.81 1.51947 -8.68712 0
M  V30 18114 O 3069.27 3.29363 -6.99321 0
M  V30 18115 C 3068.33 4.24011 -6.4274 0
M  V30 18116 C 3069.06 5.20775 -5.52155 0
M  V30 18117 O 3069.27 4.56534 -4.22446 0
M  V30 18118 C 3070.46 5.62629 -5.96531 0
M  V30 18119 O 3070.85 6.87667 -5.41053 0
M  V30 18120 C 3071.34 4.52537 -5.39283 0
M  V30 18121 C 3070.63 4.20027 -4.08623 0
M  V30 18122 N 3070.68 2.76189 -3.71603 0
M  V30 18123 C 3070.6 1.64862 -4.52822 0
M  V30 18124 N 3070.68 0.512671 -3.88633 0
M  V30 18125 C 3070.82 0.888083 -2.54977 0
M  V30 18126 C 3070.95 0.094668 -1.38677 0
M  V30 18127 N 3071.07 0.890102 -0.232633 0
M  V30 18128 C 3071.07 2.26958 -0.21772 0
M  V30 18129 N 3071.2 2.84626 0.97925 0
M  V30 18130 N 3070.94 3.0178 -1.31033 0
M  V30 18131 C 3070.82 2.26781 -2.43843 0
M  V30 18132 H 3067.84 4.797 -7.24003 0
M  V30 18133 H 3067.57 3.69856 -5.84513 0
M  V30 18134 H 3068.44 6.10356 -5.41441 0
M  V30 18135 P 3072.4 7.20834 -5.23717 0
M  V30 18136 O 3072.62 8.66104 -5.38572 0
M  V30 18137 O 3073.19 6.33544 -6.1349 0
M  V30 18138 O 3072.65 6.7751 -3.72168 0
M  V30 18139 C 3071.71 7.20825 -2.7076 0
M  V30 18140 C 3072.44 7.45864 -1.40599 0
M  V30 18141 O 3072.65 6.17651 -0.734225 0
M  V30 18142 C 3073.84 8.05808 -1.51899 0
M  V30 18143 O 3074.23 8.74358 -0.335205 0
M  V30 18144 C 3074.72 6.83093 -1.70294 0
M  V30 18145 C 3074.01 5.79992 -0.836974 0
M  V30 18146 N 3074.06 4.41864 -1.38293 0
M  V30 18147 H 3071.22 8.13644 -3.0377 0
M  V30 18148 H 3070.95 6.42788 -2.55485 0
M  V30 18149 H 3071.82 8.12039 -0.792769 0
M  V30 18150 P 3075.78 8.91 -1.00544e-10 0
M  V30 18151 O 3076 10.1726 0.733694 0
M  V30 18152 O 3076.57 8.73148 -1.23936 0
M  V30 18153 O 3076.03 7.66872 0.971405 0
M  V30 18154 C 3075.09 7.42309 2.04641 0
M  V30 18155 C 3075.82 6.86059 3.24661 0
M  V30 18156 O 3076.03 5.42847 3.03646 0
M  V30 18157 C 3077.22 7.41196 3.50753 0
M  V30 18158 O 3077.61 7.27073 4.86816 0
M  V30 18159 C 3078.1 6.5273 2.63741 0
M  V30 18160 C 3077.39 5.1842 2.73198 0
M  V30 18161 N 3077.44 4.38762 1.4784 0
M  V30 18162 H 3074.6 8.36803 2.32493 0
M  V30 18163 H 3074.33 6.70197 1.71129 0
M  V30 18164 H 3075.2 7.03551 4.13168 0
M  V30 18165 P 3079.16 7.20834 5.23717 0
M  V30 18166 O 3079.38 7.79853 6.57286 0
M  V30 18167 O 3079.95 7.79239 4.12957 0
M  V30 18168 O 3079.41 5.63315 5.29344 0
M  V30 18169 C 3078.47 4.80255 6.01876 0
M  V30 18170 C 3079.2 3.64202 6.65911 0
M  V30 18171 O 3079.41 2.60694 5.64732 0
M  V30 18172 C 3080.6 3.93473 7.1943 0
M  V30 18173 O 3080.99 3.02071 8.21205 0
M  V30 18174 C 3081.48 3.73047 5.97036 0
M  V30 18175 C 3080.77 2.58828 5.25741 0
M  V30 18176 N 3080.82 2.68068 3.77503 0
M  V30 18177 H 3077.98 5.40332 6.79951 0
M  V30 18178 H 3077.71 4.41613 5.32378 0
M  V30 18179 H 3078.58 3.26331 7.47797 0
M  V30 18180 P 3082.54 2.75334 8.47391 0
M  V30 18181 O 3082.76 2.44571 9.90142 0
M  V30 18182 O 3083.33 3.87688 7.92115 0
M  V30 18183 O 3082.79 1.4459 7.59357 0
M  V30 18184 C 3081.85 0.347608 7.69215 0
M  V30 18185 C 3082.58 -0.96767 7.52806 0
M  V30 18186 O 3082.79 -1.21036 6.1011 0
M  V30 18187 C 3083.98 -1.04544 8.13308 0
M  V30 18188 O 3084.37 -2.38311 8.41922 0
M  V30 18189 C 3084.86 -0.491279 7.02284 0
M  V30 18190 C 3084.15 -0.996264 5.77469 0
M  V30 18191 N 3084.2 -0.0501916 4.62973 0
M  V30 18192 H 3081.36 0.374722 8.67691 0
M  V30 18193 H 3081.09 0.443485 6.90277 0
M  V30 18194 H 3081.96 -1.75537 7.96793 0
M  V30 18195 P 3085.92 -2.75334 8.47391 0
M  V30 18196 O 3086.14 -3.84128 9.44797 0
M  V30 18197 O 3086.71 -1.51947 8.68712 0
M  V30 18198 O 3086.17 -3.29363 6.99321 0
M  V30 18199 C 3085.23 -4.24011 6.4274 0
M  V30 18200 C 3085.96 -5.20775 5.52155 0
M  V30 18201 O 3086.17 -4.56534 4.22446 0
M  V30 18202 C 3087.36 -5.62629 5.96531 0
M  V30 18203 O 3087.75 -6.87667 5.41053 0
M  V30 18204 C 3088.24 -4.52537 5.39283 0
M  V30 18205 C 3087.53 -4.20027 4.08623 0
M  V30 18206 N 3087.58 -2.76189 3.71603 0
M  V30 18207 H 3084.74 -4.797 7.24003 0
M  V30 18208 H 3084.47 -3.69856 5.84513 0
M  V30 18209 H 3085.34 -6.10356 5.41441 0
M  V30 18210 P 3089.3 -7.20834 5.23717 0
M  V30 18211 O 3089.52 -8.66104 5.38572 0
M  V30 18212 O 3090.09 -6.33544 6.1349 0
M  V30 18213 O 3089.55 -6.7751 3.72168 0
M  V30 18214 C 3088.61 -7.20825 2.7076 0
M  V30 18215 C 3089.34 -7.45864 1.40599 0
M  V30 18216 O 3089.55 -6.17651 0.734225 0
M  V30 18217 C 3090.74 -8.05808 1.51899 0
M  V30 18218 O 3091.13 -8.74358 0.335205 0
M  V30 18219 C 3091.62 -6.83093 1.70294 0
M  V30 18220 C 3090.91 -5.79992 0.836974 0
M  V30 18221 N 3090.96 -4.41864 1.38293 0
M  V30 18222 H 3088.12 -8.13644 3.0377 0
M  V30 18223 H 3087.85 -6.42788 2.55485 0
M  V30 18224 H 3088.72 -8.12039 0.792769 0
M  V30 18225 P 3092.68 -8.91 1.01653e-10 0
M  V30 18226 O 3092.9 -10.1726 -0.733694 0
M  V30 18227 O 3093.47 -8.73148 1.23936 0
M  V30 18228 O 3092.93 -7.66872 -0.971405 0
M  V30 18229 C 3091.99 -7.42309 -2.04641 0
M  V30 18230 C 3092.72 -6.86059 -3.24661 0
M  V30 18231 O 3092.93 -5.42847 -3.03646 0
M  V30 18232 C 3094.12 -7.41196 -3.50753 0
M  V30 18233 O 3094.51 -7.27073 -4.86816 0
M  V30 18234 C 3095 -6.5273 -2.63741 0
M  V30 18235 C 3094.29 -5.1842 -2.73198 0
M  V30 18236 N 3094.34 -4.38762 -1.4784 0
M  V30 18237 H 3091.5 -8.36803 -2.32493 0
M  V30 18238 H 3091.23 -6.70197 -1.71129 0
M  V30 18239 H 3092.1 -7.03551 -4.13168 0
M  V30 18240 P 3096.06 -7.20834 -5.23717 0
M  V30 18241 O 3096.28 -7.79853 -6.57286 0
M  V30 18242 O 3096.85 -7.79239 -4.12957 0
M  V30 18243 O 3096.31 -5.63315 -5.29344 0
M  V30 18244 C 3095.37 -4.80255 -6.01876 0
M  V30 18245 C 3096.1 -3.64202 -6.65911 0
M  V30 18246 O 3096.31 -2.60694 -5.64732 0
M  V30 18247 C 3097.5 -3.93473 -7.1943 0
M  V30 18248 O 3097.89 -3.02071 -8.21205 0
M  V30 18249 C 3098.38 -3.73047 -5.97036 0
M  V30 18250 C 3097.67 -2.58828 -5.25741 0
M  V30 18251 N 3097.72 -2.68068 -3.77503 0
M  V30 18252 H 3094.88 -5.40332 -6.79951 0
M  V30 18253 H 3094.61 -4.41613 -5.32378 0
M  V30 18254 H 3095.48 -3.26331 -7.47797 0
M  V30 18255 P 3099.44 -2.75334 -8.47391 0
M  V30 18256 O 3099.66 -2.44571 -9.90142 0
M  V30 18257 O 3100.23 -3.87688 -7.92115 0
M  V30 18258 O 3099.69 -1.4459 -7.59357 0
M  V30 18259 C 3098.75 -0.347608 -7.69215 0
M  V30 18260 C 3099.48 0.96767 -7.52806 0
M  V30 18261 O 3099.69 1.21036 -6.1011 0
M  V30 18262 C 3100.88 1.04544 -8.13308 0
M  V30 18263 O 3101.27 2.38311 -8.41922 0
M  V30 18264 C 3101.76 0.491279 -7.02284 0
M  V30 18265 C 3101.05 0.996264 -5.77469 0
M  V30 18266 N 3101.1 0.0501916 -4.62973 0
M  V30 18267 H 3098.26 -0.374722 -8.67691 0
M  V30 18268 H 3097.99 -0.443485 -6.90277 0
M  V30 18269 H 3098.86 1.75537 -7.96793 0
M  V30 18270 P 3102.82 2.75334 -8.47391 0
M  V30 18271 O 3103.04 3.84128 -9.44797 0
M  V30 18272 O 3103.61 1.51947 -8.68712 0
M  V30 18273 O 3103.07 3.29363 -6.99321 0
M  V30 18274 C 3102.13 4.24011 -6.4274 0
M  V30 18275 C 3102.86 5.20775 -5.52155 0
M  V30 18276 O 3103.07 4.56534 -4.22446 0
M  V30 18277 C 3104.26 5.62629 -5.96531 0
M  V30 18278 O 3104.65 6.87667 -5.41053 0
M  V30 18279 C 3105.14 4.52537 -5.39283 0
M  V30 18280 C 3104.43 4.20027 -4.08623 0
M  V30 18281 N 3104.48 2.76189 -3.71603 0
M  V30 18282 C 3104.4 1.64862 -4.52822 0
M  V30 18283 N 3104.48 0.512671 -3.88633 0
M  V30 18284 C 3104.62 0.888083 -2.54977 0
M  V30 18285 C 3104.75 0.094668 -1.38677 0
M  V30 18286 O 3104.77 -1.13053 -1.28163 0
M  V30 18287 N 3104.87 0.890102 -0.232633 0
M  V30 18288 C 3104.87 2.26958 -0.21772 0
M  V30 18289 N 3105 2.84626 0.97925 0
M  V30 18290 N 3104.74 3.0178 -1.31033 0
M  V30 18291 C 3104.62 2.26781 -2.43843 0
M  V30 18292 H 3101.64 4.797 -7.24003 0
M  V30 18293 H 3101.37 3.69856 -5.84513 0
M  V30 18294 H 3102.24 6.10356 -5.41441 0
M  V30 18295 H 3104.89 4.79061 -3.27488 0
M  V30 18296 H 3105.17 3.64906 -6.05785 0
M  V30 18297 H 3106.17 4.8868 -5.2125 0
M  V30 18298 H 3104.33 5.66726 -7.06352 0
M  V30 18299 H 3104.28 1.71169 -5.60966 0
M  V30 18300 H 3104.96 0.419134 0.644739 0
M  V30 18301 H 3105 3.87332 1.06098 0
M  V30 18302 H 3105.1 2.26417 1.82483 0
M  V30 18303 P 3106.2 7.20834 -5.23717 0
M  V30 18304 O 3106.42 8.66104 -5.38572 0
M  V30 18305 O 3106.99 6.33544 -6.1349 0
M  V30 18306 O 3106.45 6.7751 -3.72168 0
M  V30 18307 C 3105.51 7.20825 -2.7076 0
M  V30 18308 C 3106.24 7.45864 -1.40599 0
M  V30 18309 O 3106.45 6.17651 -0.734225 0
M  V30 18310 C 3107.64 8.05808 -1.51899 0
M  V30 18311 O 3108.03 8.74358 -0.335205 0
M  V30 18312 C 3108.52 6.83093 -1.70294 0
M  V30 18313 C 3107.81 5.79992 -0.836974 0
M  V30 18314 N 3107.86 4.41864 -1.38293 0
M  V30 18315 H 3105.02 8.13644 -3.0377 0
M  V30 18316 H 3104.75 6.42788 -2.55485 0
M  V30 18317 H 3105.62 8.12039 -0.792769 0
M  V30 18318 P 3109.58 8.91 -1.02762e-10 0
M  V30 18319 O 3109.8 10.1726 0.733694 0
M  V30 18320 O 3110.37 8.73148 -1.23936 0
M  V30 18321 O 3109.83 7.66872 0.971405 0
M  V30 18322 C 3108.89 7.42309 2.04641 0
M  V30 18323 C 3109.62 6.86059 3.24661 0
M  V30 18324 O 3109.83 5.42847 3.03646 0
M  V30 18325 C 3111.02 7.41196 3.50753 0
M  V30 18326 O 3111.41 7.27073 4.86816 0
M  V30 18327 C 3111.9 6.5273 2.63741 0
M  V30 18328 C 3111.19 5.1842 2.73198 0
M  V30 18329 N 3111.24 4.38762 1.4784 0
M  V30 18330 C 3111.16 4.81605 0.168631 0
M  V30 18331 N 3111.24 3.85454 -0.713363 0
M  V30 18332 C 3111.38 2.6994 0.0566958 0
M  V30 18333 C 3111.51 1.34815 -0.338502 0
M  V30 18334 O 3111.53 0.869548 -1.47125 0
M  V30 18335 N 3111.63 0.496304 0.77465 0
M  V30 18336 C 3111.63 0.908403 2.09122 0
M  V30 18337 N 3111.76 -0.0517805 3.00955 0
M  V30 18338 N 3111.5 2.17875 2.46519 0
M  V30 18339 C 3111.38 3.01988 1.4033 0
M  V30 18340 H 3108.4 8.36803 2.32493 0
M  V30 18341 H 3108.13 6.70197 1.71129 0
M  V30 18342 H 3109 7.03551 4.13168 0
M  V30 18343 H 3111.65 4.59498 3.54415 0
M  V30 18344 H 3111.93 6.88898 1.59848 0
M  V30 18345 H 3112.93 6.46749 3.03687 0
M  V30 18346 H 3111.09 8.46908 3.20714 0
M  V30 18347 H 3111.04 5.86405 -0.105564 0
M  V30 18348 H 3111.72 -0.483664 0.597855 0
M  V30 18349 H 3111.76 0.187865 4.0116 0
M  V30 18350 H 3111.86 -1.03585 2.71726 0
M  V30 18351 P 3112.96 7.20834 5.23717 0
M  V30 18352 O 3113.18 7.79853 6.57286 0
M  V30 18353 O 3113.75 7.79239 4.12957 0
M  V30 18354 O 3113.21 5.63315 5.29344 0
M  V30 18355 C 3112.27 4.80255 6.01876 0
M  V30 18356 C 3113 3.64202 6.65911 0
M  V30 18357 O 3113.21 2.60694 5.64732 0
M  V30 18358 C 3114.4 3.93473 7.1943 0
M  V30 18359 O 3114.79 3.02071 8.21205 0
M  V30 18360 C 3115.28 3.73047 5.97036 0
M  V30 18361 C 3114.57 2.58828 5.25741 0
M  V30 18362 N 3114.62 2.68068 3.77503 0
M  V30 18363 H 3111.78 5.40332 6.79951 0
M  V30 18364 H 3111.51 4.41613 5.32378 0
M  V30 18365 H 3112.38 3.26331 7.47797 0
M  V30 18366 P 3116.34 2.75334 8.47391 0
M  V30 18367 O 3116.56 2.44571 9.90142 0
M  V30 18368 O 3117.13 3.87688 7.92115 0
M  V30 18369 O 3116.59 1.4459 7.59357 0
M  V30 18370 C 3115.65 0.347608 7.69215 0
M  V30 18371 C 3116.38 -0.96767 7.52806 0
M  V30 18372 O 3116.59 -1.21036 6.1011 0
M  V30 18373 C 3117.78 -1.04544 8.13308 0
M  V30 18374 O 3118.17 -2.38311 8.41922 0
M  V30 18375 C 3118.66 -0.491279 7.02284 0
M  V30 18376 C 3117.95 -0.996264 5.77469 0
M  V30 18377 N 3118 -0.0501916 4.62973 0
M  V30 18378 H 3115.16 0.374722 8.67691 0
M  V30 18379 H 3114.89 0.443485 6.90277 0
M  V30 18380 H 3115.76 -1.75537 7.96793 0
M  V30 18381 P 3119.72 -2.75334 8.47391 0
M  V30 18382 O 3119.94 -3.84204 9.44982 0
M  V30 18383 O 3120.51 -1.51982 8.68909 0
M  V30 18384 O 3119.97 -3.29363 6.99321 0
M  V30 18385 C 3119.03 -4.24066 6.42823 0
M  V30 18386 C 3119.76 -5.20775 5.52155 0
M  V30 18387 O 3119.97 -4.56607 4.22514 0
M  V30 18388 C 3121.16 -5.62697 5.96604 0
M  V30 18389 O 3121.55 -6.87667 5.41053 0
M  V30 18390 C 3122.04 -4.52537 5.39283 0
M  V30 18391 C 3121.33 -4.20027 4.08623 0
M  V30 18392 N 3121.38 -2.76189 3.71603 0
M  V30 18393 H 3118.54 -4.79756 7.24086 0
M  V30 18394 H 3118.27 -3.69963 5.84682 0
M  V30 18395 H 3119.14 -6.10431 5.41508 0
M  V30 18396 H 3121.79 -4.78816 3.28024 0
M  V30 18397 H 3122.07 -3.64957 6.05871 0
M  V30 18398 H 3123.07 -4.88748 5.21323 0
M  V30 18399 H 3121.23 -5.66789 7.0643 0
M  V30 18400 P 3123.1 -7.20834 5.23717 0
M  V30 18401 O 3123.32 -8.66104 5.38572 0
M  V30 18402 O 3123.89 -6.33544 6.1349 0
M  V30 18403 O 3123.35 -6.7751 3.72168 0
M  V30 18404 C 3122.41 -7.20825 2.7076 0
M  V30 18405 C 3123.14 -7.45864 1.40599 0
M  V30 18406 O 3123.35 -6.17651 0.734225 0
M  V30 18407 C 3124.54 -8.05808 1.51899 0
M  V30 18408 O 3124.93 -8.74358 0.335205 0
M  V30 18409 C 3125.42 -6.83093 1.70294 0
M  V30 18410 C 3124.71 -5.79992 0.836974 0
M  V30 18411 N 3124.76 -4.41864 1.38293 0
M  V30 18412 H 3121.92 -8.13644 3.0377 0
M  V30 18413 H 3121.65 -6.42788 2.55485 0
M  V30 18414 H 3122.52 -8.12039 0.792769 0
M  V30 18415 P 3126.48 -8.91 1.03871e-10 0
M  V30 18416 O 3126.7 -10.1726 -0.733694 0
M  V30 18417 O 3127.27 -8.73148 1.23936 0
M  V30 18418 O 3126.73 -7.66872 -0.971405 0
M  V30 18419 C 3125.79 -7.42309 -2.04641 0
M  V30 18420 C 3126.52 -6.86059 -3.24661 0
M  V30 18421 O 3126.73 -5.42847 -3.03646 0
M  V30 18422 C 3127.92 -7.41196 -3.50753 0
M  V30 18423 O 3128.31 -7.27073 -4.86816 0
M  V30 18424 C 3128.8 -6.5273 -2.63741 0
M  V30 18425 C 3128.09 -5.1842 -2.73198 0
M  V30 18426 N 3128.14 -4.38762 -1.4784 0
M  V30 18427 H 3125.3 -8.36803 -2.32493 0
M  V30 18428 H 3125.03 -6.70197 -1.71129 0
M  V30 18429 H 3125.9 -7.03551 -4.13168 0
M  V30 18430 P 3129.86 -7.20834 -5.23717 0
M  V30 18431 O 3130.08 -7.80006 -6.57415 0
M  V30 18432 O 3130.65 -7.79416 -4.13051 0
M  V30 18433 O 3130.11 -5.63315 -5.29344 0
M  V30 18434 C 3129.17 -4.80318 -6.01954 0
M  V30 18435 C 3129.9 -3.64202 -6.65911 0
M  V30 18436 O 3130.11 -2.60736 -5.64823 0
M  V30 18437 C 3131.3 -3.93521 -7.19518 0
M  V30 18438 O 3131.69 -3.02071 -8.21205 0
M  V30 18439 C 3132.18 -3.73047 -5.97036 0
M  V30 18440 C 3131.47 -2.58828 -5.25741 0
M  V30 18441 N 3131.52 -2.68068 -3.77503 0
M  V30 18442 C 3131.44 -3.80474 -2.99159 0
M  V30 18443 N 3131.51 -3.55622 -1.71925 0
M  V30 18444 C 3131.66 -2.1832 -1.65733 0
M  V30 18445 C 3131.79 -1.28842 -0.572777 0
M  V30 18446 N 3131.8 -1.66875 0.70098 0
M  V30 18447 N 3131.91 0.016788 -0.859836 0
M  V30 18448 C 3131.9 0.398145 -2.13316 0
M  V30 18449 N 3131.78 -0.328224 -3.22333 0
M  V30 18450 C 3131.66 -1.62992 -2.90383 0
M  V30 18451 H 3128.68 -5.40394 -6.8003 0
M  V30 18452 H 3128.41 -4.41741 -5.32532 0
M  V30 18453 H 3129.28 -3.26371 -7.47889 0
M  V30 18454 H 3131.93 -1.64007 -5.56746 0
M  V30 18455 H 3132.21 -4.63439 -5.3432 0
M  V30 18456 H 3133.21 -3.44776 -6.25925 0
M  V30 18457 H 3131.37 -4.96707 -7.57347 0
M  V30 18458 H 3131.33 -4.8089 -3.39924 0
M  V30 18459 H 3131.71 -2.66547 0.941919 0
M  V30 18460 H 3131.9 -0.965341 1.44766 0
M  V30 18461 H 3132.01 1.46427 -2.29697 0
M  V30 18462 P 3133.24 -2.75334 -8.47391 0
M  V30 18463 O 3133.46 -2.44619 -9.90336 0
M  V30 18464 O 3134.03 -3.87776 -7.92294 0
M  V30 18465 O 3133.49 -1.4459 -7.59357 0
M  V30 18466 C 3132.55 -0.347653 -7.69315 0
M  V30 18467 C 3133.28 0.96767 -7.52806 0
M  V30 18468 O 3133.49 1.21055 -6.10208 0
M  V30 18469 C 3134.68 1.04557 -8.13408 0
M  V30 18470 O 3135.07 2.38311 -8.41922 0
M  V30 18471 C 3135.56 0.491279 -7.02284 0
M  V30 18472 C 3134.85 0.996264 -5.77469 0
M  V30 18473 N 3134.9 0.0501916 -4.62973 0
M  V30 18474 H 3132.06 -0.374765 -8.67791 0
M  V30 18475 H 3131.79 -0.443613 -6.90476 0
M  V30 18476 H 3132.66 1.75559 -7.96891 0
M  V30 18477 H 3135.31 1.94563 -5.46818 0
M  V30 18478 H 3135.59 -0.608651 -7.04676 0
M  V30 18479 H 3136.59 0.889796 -7.09039 0
M  V30 18480 H 3134.75 0.433128 -9.04664 0
M  V30 18481 H 3134.94 2.92663 -7.63961 0
M  V30 18482 H 3138.96 0.0909867 9.51056 0
M  V30 18483 O 3138.84 0.778697 8.86988 0
M  V30 18484 P 3137.4 1.17771 8.83182 0
M  V30 18485 O 3137.18 2.07206 9.98732 0
M  V30 18486 O 3136.61 -0.0743816 8.81969 0
M  V30 18487 O 3137.15 1.97652 7.47304 0
M  V30 18488 C 3138.09 3.01133 7.08783 0
M  V30 18489 C 3137.36 4.12613 6.37049 0
M  V30 18490 O 3137.15 3.72827 4.97879 0
M  V30 18491 C 3135.96 4.45085 6.88694 0
M  V30 18492 O 3135.57 5.7877 6.5624 0
M  V30 18493 C 3135.08 3.47817 6.12078 0
M  V30 18494 C 3135.79 3.39414 4.77697 0
M  V30 18495 N 3135.74 2.04615 4.15333 0
M  V30 18496 H 3138.58 3.41248 7.98759 0
M  V30 18497 H 3138.85 2.5837 6.41742 0
M  V30 18498 H 3137.98 5.02657 6.42673 0
M  V30 18499 P 3134.02 6.144 6.45285 0
M  V30 18500 O 3133.8 7.54673 6.86199 0
M  V30 18501 O 3133.23 5.12391 7.179 0
M  V30 18502 O 3133.77 5.99158 4.88404 0
M  V30 18503 C 3134.71 6.60062 3.96313 0
M  V30 18504 C 3133.98 7.08259 2.72856 0
M  V30 18505 O 3133.77 5.9427 1.83651 0
M  V30 18506 C 3132.58 7.65087 2.94749 0
M  V30 18507 O 3132.19 8.53963 1.90717 0
M  V30 18508 C 3131.7 6.41069 2.90698 0
M  V30 18509 C 3132.41 5.5528 1.86931 0
M  V30 18510 N 3132.36 4.09575 2.15696 0
M  V30 18511 C 3132.21 3.24249 1.08435 0
M  V30 18512 O 3132.12 3.63946 -0.0628747 0
M  V30 18513 N 3132.17 1.90009 1.39973 0
M  V30 18514 C 3132.26 1.34884 2.65614 0
M  V30 18515 O 3132.21 0.123716 2.81728 0
M  V30 18516 C 3132.41 2.3145 3.71736 0
M  V30 18517 C 3132.52 1.75913 5.10438 0
M  V30 18518 C 3132.46 3.63518 3.44754 0
M  V30 18519 H 3135.2 7.45402 4.45526 0
M  V30 18520 H 3135.47 5.86062 3.67208 0
M  V30 18521 H 3134.6 7.84412 2.24479 0
M  V30 18522 H 3131.95 5.73358 0.888409 0
M  V30 18523 H 3131.67 5.90877 3.88583 0
M  V30 18524 H 3130.68 6.65867 2.58821 0
M  V30 18525 H 3132.51 8.16248 3.92006 0
M  V30 18526 H 3132.58 4.34551 4.26383 0
M  V30 18527 H 3131.55 1.85471 5.61775 0
M  V30 18528 H 3133.29 2.31364 5.66257 0
M  V30 18529 H 3132.8 0.695936 5.05229 0
M  V30 18530 H 3132.07 1.26277 0.63625 0
M  V30 18531 P 3130.64 8.7635 1.60911 0
M  V30 18532 O 3130.42 10.1388 1.11561 0
M  V30 18533 O 3129.85 8.36503 2.79617 0
M  V30 18534 O 3130.39 7.71806 0.42951 0
M  V30 18535 C 3131.33 7.67148 -0.673689 0
M  V30 18536 C 3130.6 7.33374 -1.95559 0
M  V30 18537 O 3130.39 5.88721 -2.00726 0
M  V30 18538 C 3129.2 7.92526 -2.10483 0
M  V30 18539 O 3128.81 8.02971 -3.47653 0
M  V30 18540 C 3128.32 6.89602 -1.41652 0
M  V30 18541 C 3129.03 5.59201 -1.75185 0
M  V30 18542 N 3128.98 4.58235 -0.662552 0
M  V30 18543 H 3131.82 8.65116 -0.777161 0
M  V30 18544 H 3132.09 6.90173 -0.474152 0
M  V30 18545 H 3131.22 7.66548 -2.79458 0
M  V30 18546 P 3127.26 8.03563 -3.84925 0
M  V30 18547 O 3127.04 8.85821 -5.0569 0
M  V30 18548 O 3126.47 8.41101 -2.65469 0
M  V30 18549 O 3127.01 6.4965 -4.18908 0
M  V30 18550 C 3127.95 5.81037 -5.05421 0
M  V30 18551 C 3127.22 4.78366 -5.89277 0
M  V30 18552 O 3127.01 3.58302 -5.08433 0
M  V30 18553 C 3125.82 5.17448 -6.36119 0
M  V30 18554 O 3125.43 4.45271 -7.53232 0
M  V30 18555 C 3124.94 4.74639 -5.19936 0
M  V30 18556 C 3125.65 3.49432 -4.70418 0
M  V30 18557 N 3125.6 3.32099 -3.22613 0
M  V30 18558 H 3128.44 6.54213 -5.71376 0
M  V30 18559 H 3128.71 5.30936 -4.43503 0
M  V30 18560 H 3127.84 4.55889 -6.76652 0
M  V30 18561 H 3125.19 2.61715 -5.17932 0
M  V30 18562 H 3124.91 5.52155 -4.41878 0
M  V30 18563 H 3123.92 4.51981 -5.53374 0
M  V30 18564 H 3125.75 6.25124 -6.55234 0
M  V30 18565 P 3123.88 4.23843 -7.83734 0
M  V30 18566 O 3123.66 4.19407 -9.29784 0
M  V30 18567 O 3123.09 5.24426 -7.09156 0
M  V30 18568 O 3123.63 2.7935 -7.20758 0
M  V30 18569 C 3124.57 1.7299 -7.50419 0
M  V30 18570 C 3123.84 0.406376 -7.57911 0
M  V30 18571 O 3123.63 -0.0897726 -6.21935 0
M  V30 18572 C 3122.44 0.447224 -8.1878 0
M  V30 18573 O 3122.05 -0.825065 -8.71101 0
M  V30 18574 C 3121.56 0.783801 -6.99623 0
M  V30 18575 C 3122.27 0.0619192 -5.85967 0
M  V30 18576 N 3122.22 0.7859 -4.56281 0
M  V30 18577 H 3125.06 1.93423 -8.4679 0
M  V30 18578 H 3125.33 1.68181 -6.71046 0
M  V30 18579 H 3124.46 -0.289041 -8.15388 0
M  V30 18580 P 3120.5 -1.17771 -8.83182 0
M  V30 18581 O 3120.28 -2.07206 -9.98732 0
M  V30 18582 O 3119.71 0.0743816 -8.81969 0
M  V30 18583 O 3120.25 -1.97652 -7.47304 0
M  V30 18584 C 3121.19 -3.01133 -7.08783 0
M  V30 18585 C 3120.46 -4.12613 -6.37049 0
M  V30 18586 O 3120.25 -3.72827 -4.97879 0
M  V30 18587 C 3119.06 -4.45085 -6.88694 0
M  V30 18588 O 3118.67 -5.7877 -6.5624 0
M  V30 18589 C 3118.18 -3.47817 -6.12078 0
M  V30 18590 C 3118.89 -3.39414 -4.77697 0
M  V30 18591 N 3118.84 -2.04615 -4.15333 0
M  V30 18592 H 3121.68 -3.41248 -7.98759 0
M  V30 18593 H 3121.95 -2.5837 -6.41742 0
M  V30 18594 H 3121.08 -5.02657 -6.42673 0
M  V30 18595 P 3117.12 -6.144 -6.45285 0
M  V30 18596 O 3116.9 -7.54673 -6.86199 0
M  V30 18597 O 3116.33 -5.12391 -7.179 0
M  V30 18598 O 3116.87 -5.99158 -4.88404 0
M  V30 18599 C 3117.81 -6.60234 -3.96415 0
M  V30 18600 C 3117.08 -7.08259 -2.72856 0
M  V30 18601 O 3116.87 -5.9427 -1.83651 0
M  V30 18602 C 3115.68 -7.64886 -2.9555 0
M  V30 18603 O 3115.29 -8.53963 -1.90717 0
M  V30 18604 C 3114.8 -6.4116 -2.90739 0
M  V30 18605 C 3115.51 -5.55375 -1.86963 0
M  V30 18606 N 3115.46 -4.09664 -2.15742 0
M  V30 18607 H 3118.3 -7.45574 -4.45629 0
M  V30 18608 H 3118.57 -5.86232 -3.67314 0
M  V30 18609 H 3117.7 -7.84412 -2.24479 0
M  V30 18610 P 3113.74 -8.7635 -1.60911 0
M  V30 18611 O 3113.52 -10.1388 -1.11561 0
M  V30 18612 O 3112.95 -8.36503 -2.79617 0
M  V30 18613 O 3113.49 -7.71906 -0.429565 0
M  V30 18614 C 3114.43 -7.67148 0.673689 0
M  V30 18615 C 3113.7 -7.33666 1.94851 0
M  V30 18616 O 3113.49 -5.88816 2.00759 0
M  V30 18617 C 3112.3 -7.92526 2.10483 0
M  V30 18618 O 3111.91 -8.03063 3.47693 0
M  V30 18619 C 3111.42 -6.89602 1.41652 0
M  V30 18620 C 3112.13 -5.59201 1.75185 0
M  V30 18621 N 3112.08 -4.58235 0.662552 0
M  V30 18622 C 3111.93 -3.24451 1.01643 0
M  V30 18623 O 3111.84 -2.94958 2.21722 0
M  V30 18624 N 3111.88 -2.30408 -0.165238 0
M  V30 18625 C 3111.98 -2.66048 -1.25118 0
M  V30 18626 N 3111.93 -1.70787 -2.16813 0
M  V30 18627 C 3112.13 -4.02732 -1.64413 0
M  V30 18628 C 3112.18 -4.9488 -0.63991 0
M  V30 18629 H 3114.92 -8.65017 0.777072 0
M  V30 18630 H 3115.19 -6.90173 0.474152 0
M  V30 18631 H 3114.32 -7.66642 2.79492 0
M  V30 18632 H 3111.67 -5.16254 2.65229 0
M  V30 18633 H 3111.39 -7.06532 0.329431 0
M  V30 18634 H 3110.4 -6.91023 1.82047 0
M  V30 18635 H 3112.23 -8.90873 1.62657 0
M  V30 18636 H 3112.3 -6.00104 -0.892197 0
M  V30 18637 H 3112.2 -4.31733 -2.69229 0
M  V30 18638 H 3111.81 -0.724835 -1.8844 0
M  V30 18639 H 3112.01 -1.94716 -3.16734 0
M  V30 18640 P 3110.36 -8.03563 3.84925 0
M  V30 18641 O 3110.14 -8.85821 5.0569 0
M  V30 18642 O 3109.57 -8.41101 2.65469 0
M  V30 18643 O 3110.11 -6.4965 4.18908 0
M  V30 18644 C 3111.05 -5.81037 5.05421 0
M  V30 18645 C 3110.32 -4.78366 5.89277 0
M  V30 18646 O 3110.11 -3.58302 5.08433 0
M  V30 18647 C 3108.92 -5.17448 6.36119 0
M  V30 18648 O 3108.53 -4.45271 7.53232 0
M  V30 18649 C 3108.04 -4.74639 5.19936 0
M  V30 18650 C 3108.75 -3.49432 4.70418 0
M  V30 18651 N 3108.7 -3.32099 3.22613 0
M  V30 18652 H 3111.54 -6.54213 5.71376 0
M  V30 18653 H 3111.81 -5.30936 4.43503 0
M  V30 18654 H 3110.94 -4.55889 6.76652 0
M  V30 18655 H 3108.29 -2.61715 5.17932 0
M  V30 18656 H 3108.01 -5.52155 4.41878 0
M  V30 18657 H 3107.02 -4.51981 5.53374 0
M  V30 18658 H 3108.85 -6.25124 6.55234 0
M  V30 18659 P 3106.98 -4.23843 7.83734 0
M  V30 18660 O 3106.76 -4.19407 9.29784 0
M  V30 18661 O 3106.19 -5.24426 7.09156 0
M  V30 18662 O 3106.73 -2.79386 7.20852 0
M  V30 18663 C 3107.67 -1.7299 7.50419 0
M  V30 18664 C 3106.94 -0.41401 7.5797 0
M  V30 18665 O 3106.73 0.089787 6.22035 0
M  V30 18666 C 3105.54 -0.447224 8.1878 0
M  V30 18667 O 3105.15 0.825159 8.71201 0
M  V30 18668 C 3104.66 -0.783801 6.99623 0
M  V30 18669 C 3105.37 -0.0619192 5.85967 0
M  V30 18670 N 3105.32 -0.7859 4.56281 0
M  V30 18671 C 3105.17 -0.0359258 3.39981 0
M  V30 18672 O 3105.08 1.19723 3.49038 0
M  V30 18673 N 3105.12 -0.869151 2.14025 0
M  V30 18674 C 3105.22 -2.01207 2.14363 0
M  V30 18675 N 3105.17 -2.58978 0.954287 0
M  V30 18676 C 3105.37 -2.80817 3.32215 0
M  V30 18677 C 3105.42 -2.13785 4.50884 0
M  V30 18678 H 3108.16 -1.93401 8.46693 0
M  V30 18679 H 3108.43 -1.68181 6.71046 0
M  V30 18680 H 3107.56 0.289076 8.15488 0
M  V30 18681 H 3104.91 0.927166 5.72947 0
M  V30 18682 H 3104.63 -1.87 6.82132 0
M  V30 18683 H 3103.64 -0.404009 7.13457 0
M  V30 18684 H 3105.47 -1.20599 8.97534 0
M  V30 18685 H 3105.54 -2.70295 5.43162 0
M  V30 18686 H 3105.44 -3.89465 3.27406 0
M  V30 18687 H 3105.05 -2.01616 0.107046 0
M  V30 18688 H 3105.25 -3.61403 0.873101 0
M  V30 18689 P 3103.6 1.17771 8.83182 0
M  V30 18690 O 3103.38 2.07206 9.98732 0
M  V30 18691 O 3102.81 -0.0743816 8.81969 0
M  V30 18692 O 3103.35 1.97652 7.47304 0
M  V30 18693 C 3104.29 3.01133 7.08783 0
M  V30 18694 C 3103.56 4.12613 6.37049 0
M  V30 18695 O 3103.35 3.72827 4.97879 0
M  V30 18696 C 3102.16 4.45085 6.88694 0
M  V30 18697 O 3101.77 5.7877 6.5624 0
M  V30 18698 C 3101.28 3.47817 6.12078 0
M  V30 18699 C 3101.99 3.39414 4.77697 0
M  V30 18700 N 3101.94 2.04615 4.15333 0
M  V30 18701 H 3104.78 3.41248 7.98759 0
M  V30 18702 H 3105.05 2.5837 6.41742 0
M  V30 18703 H 3104.18 5.02657 6.42673 0
M  V30 18704 P 3100.22 6.144 6.45285 0
M  V30 18705 O 3100 7.54673 6.86199 0
M  V30 18706 O 3099.43 5.12391 7.179 0
M  V30 18707 O 3099.97 5.99158 4.88404 0
M  V30 18708 C 3100.91 6.60234 3.96415 0
M  V30 18709 C 3100.18 7.08259 2.72856 0
M  V30 18710 O 3099.97 5.9427 1.83651 0
M  V30 18711 C 3098.78 7.64886 2.9555 0
M  V30 18712 O 3098.39 8.53963 1.90717 0
M  V30 18713 C 3097.9 6.4116 2.90739 0
M  V30 18714 C 3098.61 5.55375 1.86963 0
M  V30 18715 N 3098.56 4.09664 2.15742 0
M  V30 18716 H 3101.4 7.45574 4.45629 0
M  V30 18717 H 3101.67 5.86232 3.67314 0
M  V30 18718 H 3100.8 7.84412 2.24479 0
M  V30 18719 P 3096.84 8.7635 1.60911 0
M  V30 18720 O 3096.62 10.1388 1.11561 0
M  V30 18721 O 3096.05 8.36503 2.79617 0
M  V30 18722 O 3096.59 7.71806 0.42951 0
M  V30 18723 C 3097.53 7.67148 -0.673689 0
M  V30 18724 C 3096.8 7.33374 -1.95559 0
M  V30 18725 O 3096.59 5.88721 -2.00726 0
M  V30 18726 C 3095.4 7.92526 -2.10483 0
M  V30 18727 O 3095.01 8.02971 -3.47653 0
M  V30 18728 C 3094.52 6.89602 -1.41652 0
M  V30 18729 C 3095.23 5.59201 -1.75185 0
M  V30 18730 N 3095.18 4.58235 -0.662552 0
M  V30 18731 H 3098.02 8.65116 -0.777161 0
M  V30 18732 H 3098.29 6.90173 -0.474152 0
M  V30 18733 H 3097.42 7.66548 -2.79458 0
M  V30 18734 P 3093.46 8.03563 -3.84925 0
M  V30 18735 O 3093.24 8.85821 -5.0569 0
M  V30 18736 O 3092.67 8.41101 -2.65469 0
M  V30 18737 O 3093.21 6.4965 -4.18908 0
M  V30 18738 C 3094.15 5.81037 -5.05421 0
M  V30 18739 C 3093.42 4.78366 -5.89277 0
M  V30 18740 O 3093.21 3.58302 -5.08433 0
M  V30 18741 C 3092.02 5.17448 -6.36119 0
M  V30 18742 O 3091.63 4.45271 -7.53232 0
M  V30 18743 C 3091.14 4.74639 -5.19936 0
M  V30 18744 C 3091.85 3.49432 -4.70418 0
M  V30 18745 N 3091.8 3.31776 -3.22945 0
M  V30 18746 H 3094.64 6.54213 -5.71376 0
M  V30 18747 H 3094.91 5.30492 -4.44033 0
M  V30 18748 H 3094.04 4.55889 -6.76652 0
M  V30 18749 P 3090.08 4.23843 -7.83734 0
M  V30 18750 O 3089.86 4.19407 -9.29784 0
M  V30 18751 O 3089.29 5.24426 -7.09156 0
M  V30 18752 O 3089.83 2.7935 -7.20758 0
M  V30 18753 C 3090.77 1.7299 -7.50419 0
M  V30 18754 C 3090.04 0.406376 -7.57911 0
M  V30 18755 O 3089.83 -0.0897726 -6.21935 0
M  V30 18756 C 3088.64 0.447224 -8.1878 0
M  V30 18757 O 3088.25 -0.825065 -8.71101 0
M  V30 18758 C 3087.76 0.783801 -6.99623 0
M  V30 18759 C 3088.47 0.0619192 -5.85967 0
M  V30 18760 N 3088.42 0.7859 -4.56281 0
M  V30 18761 H 3091.26 1.93423 -8.4679 0
M  V30 18762 H 3091.53 1.68181 -6.71046 0
M  V30 18763 H 3090.66 -0.289041 -8.15388 0
M  V30 18764 P 3086.7 -1.17771 -8.83182 0
M  V30 18765 O 3086.48 -2.07206 -9.98732 0
M  V30 18766 O 3085.91 0.0743816 -8.81969 0
M  V30 18767 O 3086.45 -1.97652 -7.47304 0
M  V30 18768 C 3087.39 -3.01133 -7.08783 0
M  V30 18769 C 3086.66 -4.12613 -6.37049 0
M  V30 18770 O 3086.45 -3.72827 -4.97879 0
M  V30 18771 C 3085.26 -4.45085 -6.88694 0
M  V30 18772 O 3084.87 -5.7877 -6.5624 0
M  V30 18773 C 3084.38 -3.47817 -6.12078 0
M  V30 18774 C 3085.09 -3.39414 -4.77697 0
M  V30 18775 N 3085.04 -2.04615 -4.15333 0
M  V30 18776 H 3087.88 -3.41248 -7.98759 0
M  V30 18777 H 3088.15 -2.5837 -6.41742 0
M  V30 18778 H 3087.28 -5.02657 -6.42673 0
M  V30 18779 P 3083.32 -6.144 -6.45285 0
M  V30 18780 O 3083.1 -7.54673 -6.86199 0
M  V30 18781 O 3082.53 -5.12391 -7.179 0
M  V30 18782 O 3083.07 -5.99158 -4.88404 0
M  V30 18783 C 3084.01 -6.60234 -3.96415 0
M  V30 18784 C 3083.28 -7.08259 -2.72856 0
M  V30 18785 O 3083.07 -5.9427 -1.83651 0
M  V30 18786 C 3081.88 -7.64886 -2.9555 0
M  V30 18787 O 3081.49 -8.53963 -1.90717 0
M  V30 18788 C 3081 -6.4116 -2.90739 0
M  V30 18789 C 3081.71 -5.55375 -1.86963 0
M  V30 18790 N 3081.66 -4.09664 -2.15742 0
M  V30 18791 H 3084.5 -7.45574 -4.45629 0
M  V30 18792 H 3084.77 -5.86232 -3.67314 0
M  V30 18793 H 3083.9 -7.84412 -2.24479 0
M  V30 18794 P 3079.94 -8.7635 -1.60911 0
M  V30 18795 O 3079.72 -10.1388 -1.11561 0
M  V30 18796 O 3079.15 -8.36503 -2.79617 0
M  V30 18797 O 3079.69 -7.71806 -0.42951 0
M  V30 18798 C 3080.63 -7.67148 0.673689 0
M  V30 18799 C 3079.9 -7.33374 1.95559 0
M  V30 18800 O 3079.69 -5.88721 2.00726 0
M  V30 18801 C 3078.5 -7.92526 2.10483 0
M  V30 18802 O 3078.11 -8.02971 3.47653 0
M  V30 18803 C 3077.62 -6.89602 1.41652 0
M  V30 18804 C 3078.33 -5.59201 1.75185 0
M  V30 18805 N 3078.28 -4.58301 0.657969 0
M  V30 18806 H 3081.12 -8.65116 0.777161 0
M  V30 18807 H 3081.39 -6.9022 0.46725 0
M  V30 18808 H 3080.52 -7.66548 2.79458 0
M  V30 18809 H 3077.87 -5.16165 2.65183 0
M  V30 18810 H 3077.59 -7.06433 0.329384 0
M  V30 18811 H 3076.6 -6.90926 1.82021 0
M  V30 18812 H 3078.43 -8.90873 1.62657 0
M  V30 18813 P 3076.56 -8.03563 3.84925 0
M  V30 18814 O 3076.34 -8.85821 5.0569 0
M  V30 18815 O 3075.77 -8.41101 2.65469 0
M  V30 18816 O 3076.31 -6.4965 4.18908 0
M  V30 18817 C 3077.25 -5.81037 5.05421 0
M  V30 18818 C 3076.52 -4.78366 5.89277 0
M  V30 18819 O 3076.31 -3.58302 5.08433 0
M  V30 18820 C 3075.12 -5.17448 6.36119 0
M  V30 18821 O 3074.73 -4.45271 7.53232 0
M  V30 18822 C 3074.24 -4.74639 5.19936 0
M  V30 18823 C 3074.95 -3.49432 4.70418 0
M  V30 18824 N 3074.9 -3.31776 3.22945 0
M  V30 18825 H 3077.74 -6.54213 5.71376 0
M  V30 18826 H 3078.01 -5.30492 4.44033 0
M  V30 18827 H 3077.14 -4.55889 6.76652 0
M  V30 18828 P 3073.18 -4.23843 7.83734 0
M  V30 18829 O 3072.96 -4.19407 9.29784 0
M  V30 18830 O 3072.39 -5.24426 7.09156 0
M  V30 18831 O 3072.93 -2.7935 7.20758 0
M  V30 18832 C 3073.87 -1.72945 7.50224 0
M  V30 18833 C 3073.14 -0.406376 7.57911 0
M  V30 18834 O 3072.93 0.0897726 6.21935 0
M  V30 18835 C 3071.74 -0.438983 8.18724 0
M  V30 18836 O 3071.35 0.825065 8.71101 0
M  V30 18837 C 3070.86 -0.783689 6.99524 0
M  V30 18838 C 3071.57 -0.0619086 5.85867 0
M  V30 18839 N 3071.52 -0.78573 4.56183 0
M  V30 18840 C 3071.37 -0.0292889 3.41887 0
M  V30 18841 O 3071.28 1.18445 3.4419 0
M  V30 18842 N 3071.33 -0.744061 2.23964 0
M  V30 18843 C 3071.42 -2.10932 2.10362 0
M  V30 18844 C 3071.57 -2.8202 3.34994 0
M  V30 18845 C 3071.62 -2.15547 4.52261 0
M  V30 18846 H 3074.36 -1.93379 8.46595 0
M  V30 18847 H 3074.63 -1.68132 6.70852 0
M  V30 18848 H 3073.76 0.289041 8.15388 0
M  V30 18849 H 3071.11 0.926847 5.72749 0
M  V30 18850 H 3070.83 -1.86973 6.82036 0
M  V30 18851 H 3069.84 -0.403896 7.13257 0
M  V30 18852 H 3071.67 -1.20585 8.97435 0
M  V30 18853 H 3071.74 -2.71231 5.45042 0
M  V30 18854 P 3069.8 1.17771 8.83182 0
M  V30 18855 O 3069.58 2.07206 9.98732 0
M  V30 18856 O 3069.01 -0.0743816 8.81969 0
M  V30 18857 O 3069.55 1.97652 7.47304 0
M  V30 18858 C 3070.49 3.01133 7.08783 0
M  V30 18859 C 3069.76 4.12613 6.37049 0
M  V30 18860 O 3069.55 3.72827 4.97879 0
M  V30 18861 C 3068.36 4.45085 6.88694 0
M  V30 18862 O 3067.97 5.7877 6.5624 0
M  V30 18863 C 3067.48 3.47817 6.12078 0
M  V30 18864 C 3068.19 3.39414 4.77697 0
M  V30 18865 N 3068.14 2.04199 4.15538 0
M  V30 18866 C 3068.22 0.821545 4.76977 0
M  V30 18867 N 3068.15 -0.1794 3.94592 0
M  V30 18868 C 3068 0.419121 2.70776 0
M  V30 18869 C 3067.87 -0.109072 1.40577 0
M  V30 18870 N 3067.86 -1.4104 1.1344 0
M  V30 18871 N 3067.75 0.764381 0.39411 0
M  V30 18872 C 3067.76 2.06587 0.664135 0
M  V30 18873 N 3067.88 2.67948 1.82153 0
M  V30 18874 C 3068 1.77942 2.8147 0
M  V30 18875 H 3070.98 3.41248 7.98759 0
M  V30 18876 H 3071.25 2.57728 6.42 0
M  V30 18877 H 3070.38 5.02657 6.42673 0
M  V30 18878 H 3067.73 4.11708 4.08956 0
M  V30 18879 H 3067.45 2.49626 6.61679 0
M  V30 18880 H 3066.46 3.8662 6.00862 0
M  V30 18881 H 3068.29 4.29991 7.97006 0
M  V30 18882 H 3068.33 0.702451 5.84696 0
M  V30 18883 H 3067.95 -2.09647 1.89651 0
M  V30 18884 H 3067.76 -1.73358 0.160575 0
M  V30 18885 H 3067.66 2.71695 -0.195838 0
M  V30 18886 P 3066.42 6.144 6.45285 0
M  V30 18887 O 3066.2 7.54673 6.86199 0
M  V30 18888 O 3065.63 5.12391 7.179 0
M  V30 18889 O 3066.17 5.99158 4.88404 0
M  V30 18890 C 3067.11 6.60234 3.96415 0
M  V30 18891 C 3066.38 7.08259 2.72856 0
M  V30 18892 O 3066.17 5.9427 1.83651 0
M  V30 18893 C 3064.98 7.64886 2.9555 0
M  V30 18894 O 3064.59 8.53963 1.90717 0
M  V30 18895 C 3064.1 6.4116 2.90739 0
M  V30 18896 C 3064.81 5.55375 1.86963 0
M  V30 18897 N 3064.76 4.09664 2.15742 0
M  V30 18898 C 3064.84 3.44381 3.37233 0
M  V30 18899 N 3064.76 2.14131 3.28347 0
M  V30 18900 C 3064.62 1.90247 1.91588 0
M  V30 18901 C 3064.49 0.683992 1.20892 0
M  V30 18902 O 3064.47 -0.46618 1.64523 0
M  V30 18903 N 3064.37 0.903396 -0.173998 0
M  V30 18904 C 3064.37 2.14171 -0.784879 0
M  V30 18905 N 3064.24 2.1435 -2.11317 0
M  V30 18906 N 3064.5 3.28784 -0.119316 0
M  V30 18907 C 3064.62 3.0977 1.22194 0
M  V30 18908 H 3067.6 7.45574 4.45629 0
M  V30 18909 H 3067.87 5.86232 3.67314 0
M  V30 18910 H 3067 7.84412 2.24479 0
M  V30 18911 H 3064.35 5.73556 0.888715 0
M  V30 18912 H 3064.07 5.9096 3.88638 0
M  V30 18913 H 3063.08 6.66053 2.58894 0
M  V30 18914 H 3064.91 8.16429 3.92093 0
M  V30 18915 H 3064.96 3.96785 4.32043 0
M  V30 18916 H 3064.28 0.0999567 -0.761467 0
M  V30 18917 H 3064.24 3.03436 -2.63076 0
M  V30 18918 H 3064.14 1.25228 -2.62233 0
M  V30 18919 P 3063.04 8.7635 1.60911 0
M  V30 18920 O 3062.82 10.1388 1.11561 0
M  V30 18921 O 3062.25 8.36503 2.79617 0
M  V30 18922 O 3062.79 7.71806 0.42951 0
M  V30 18923 C 3063.73 7.67148 -0.673689 0
M  V30 18924 C 3063 7.33374 -1.95559 0
M  V30 18925 O 3062.79 5.88721 -2.00726 0
M  V30 18926 C 3061.6 7.92526 -2.10483 0
M  V30 18927 O 3061.21 8.02971 -3.47653 0
M  V30 18928 C 3060.72 6.89602 -1.41652 0
M  V30 18929 C 3061.43 5.59201 -1.75185 0
M  V30 18930 N 3061.38 4.58235 -0.662552 0
M  V30 18931 H 3064.22 8.65116 -0.777161 0
M  V30 18932 H 3064.49 6.90173 -0.474152 0
M  V30 18933 H 3063.62 7.66548 -2.79458 0
M  V30 18934 P 3059.66 8.03563 -3.84925 0
M  V30 18935 O 3059.44 8.85821 -5.0569 0
M  V30 18936 O 3058.87 8.41101 -2.65469 0
M  V30 18937 O 3059.41 6.4965 -4.18908 0
M  V30 18938 C 3060.35 5.81037 -5.05421 0
M  V30 18939 C 3059.62 4.78366 -5.89277 0
M  V30 18940 O 3059.41 3.58302 -5.08433 0
M  V30 18941 C 3058.22 5.17448 -6.36119 0
M  V30 18942 O 3057.83 4.45271 -7.53232 0
M  V30 18943 C 3057.34 4.74639 -5.19936 0
M  V30 18944 C 3058.05 3.49432 -4.70418 0
M  V30 18945 N 3058 3.31776 -3.22945 0
M  V30 18946 H 3060.84 6.54213 -5.71376 0
M  V30 18947 H 3061.11 5.30492 -4.44033 0
M  V30 18948 H 3060.24 4.55889 -6.76652 0
M  V30 18949 P 3056.28 4.23843 -7.83734 0
M  V30 18950 O 3056.06 4.19407 -9.29784 0
M  V30 18951 O 3055.49 5.24426 -7.09156 0
M  V30 18952 O 3056.03 2.7935 -7.20758 0
M  V30 18953 C 3056.97 1.7299 -7.50419 0
M  V30 18954 C 3056.24 0.406376 -7.57911 0
M  V30 18955 O 3056.03 -0.0897726 -6.21935 0
M  V30 18956 C 3054.84 0.447224 -8.1878 0
M  V30 18957 O 3054.45 -0.825065 -8.71101 0
M  V30 18958 C 3053.96 0.783801 -6.99623 0
M  V30 18959 C 3054.67 0.0619192 -5.85967 0
M  V30 18960 N 3054.62 0.7859 -4.56281 0
M  V30 18961 H 3057.46 1.93423 -8.4679 0
M  V30 18962 H 3057.73 1.68181 -6.71046 0
M  V30 18963 H 3056.86 -0.289041 -8.15388 0
M  V30 18964 P 3052.9 -1.17771 -8.83182 0
M  V30 18965 O 3052.68 -2.07206 -9.98732 0
M  V30 18966 O 3052.11 0.0743816 -8.81969 0
M  V30 18967 O 3052.65 -1.97652 -7.47304 0
M  V30 18968 C 3053.59 -3.01133 -7.08783 0
M  V30 18969 C 3052.86 -4.12613 -6.37049 0
M  V30 18970 O 3052.65 -3.72827 -4.97879 0
M  V30 18971 C 3051.46 -4.45085 -6.88694 0
M  V30 18972 O 3051.07 -5.7877 -6.5624 0
M  V30 18973 C 3050.58 -3.47817 -6.12078 0
M  V30 18974 C 3051.29 -3.39414 -4.77697 0
M  V30 18975 N 3051.24 -2.04615 -4.15333 0
M  V30 18976 H 3054.08 -3.41248 -7.98759 0
M  V30 18977 H 3054.35 -2.5837 -6.41742 0
M  V30 18978 H 3053.48 -5.02657 -6.42673 0
M  V30 18979 P 3049.52 -6.144 -6.45285 0
M  V30 18980 O 3049.3 -7.54673 -6.86199 0
M  V30 18981 O 3048.73 -5.12391 -7.179 0
M  V30 18982 O 3049.27 -5.99158 -4.88404 0
M  V30 18983 C 3050.21 -6.60234 -3.96415 0
M  V30 18984 C 3049.48 -7.08259 -2.72856 0
M  V30 18985 O 3049.27 -5.9427 -1.83651 0
M  V30 18986 C 3048.08 -7.64886 -2.9555 0
M  V30 18987 O 3047.69 -8.53963 -1.90717 0
M  V30 18988 C 3047.2 -6.4116 -2.90739 0
M  V30 18989 C 3047.91 -5.55375 -1.86963 0
M  V30 18990 N 3047.86 -4.09664 -2.15742 0
M  V30 18991 H 3050.7 -7.45574 -4.45629 0
M  V30 18992 H 3050.97 -5.86232 -3.67314 0
M  V30 18993 H 3050.1 -7.84412 -2.24479 0
M  V30 18994 P 3046.14 -8.7635 -1.60911 0
M  V30 18995 O 3045.92 -10.1388 -1.11561 0
M  V30 18996 O 3045.35 -8.36503 -2.79617 0
M  V30 18997 O 3045.89 -7.71806 -0.42951 0
M  V30 18998 C 3046.83 -7.67148 0.673689 0
M  V30 18999 C 3046.1 -7.33374 1.95559 0
M  V30 19000 O 3045.89 -5.88721 2.00726 0
M  V30 19001 C 3044.7 -7.92526 2.10483 0
M  V30 19002 O 3044.31 -8.02971 3.47653 0
M  V30 19003 C 3043.82 -6.89602 1.41652 0
M  V30 19004 C 3044.53 -5.59201 1.75185 0
M  V30 19005 N 3044.48 -4.58235 0.662552 0
M  V30 19006 H 3047.32 -8.65116 0.777161 0
M  V30 19007 H 3047.59 -6.90173 0.474152 0
M  V30 19008 H 3046.73 -7.66548 2.79458 0
M  V30 19009 P 3042.76 -8.03563 3.84925 0
M  V30 19010 O 3042.54 -8.85821 5.0569 0
M  V30 19011 O 3041.97 -8.41101 2.65469 0
M  V30 19012 O 3042.51 -6.4965 4.18908 0
M  V30 19013 C 3043.45 -5.81037 5.05421 0
M  V30 19014 C 3042.72 -4.78366 5.89277 0
M  V30 19015 O 3042.51 -3.58302 5.08433 0
M  V30 19016 C 3041.32 -5.17448 6.36119 0
M  V30 19017 O 3040.93 -4.45271 7.53232 0
M  V30 19018 C 3040.44 -4.74639 5.19936 0
M  V30 19019 C 3041.15 -3.49432 4.70418 0
M  V30 19020 N 3041.1 -3.31776 3.22945 0
M  V30 19021 H 3043.94 -6.54213 5.71376 0
M  V30 19022 H 3044.21 -5.30492 4.44033 0
M  V30 19023 H 3043.35 -4.55889 6.76652 0
M  V30 19024 P 3039.38 -4.23843 7.83734 0
M  V30 19025 O 3039.16 -4.19407 9.29784 0
M  V30 19026 O 3038.59 -5.24426 7.09156 0
M  V30 19027 O 3039.13 -2.7935 7.20758 0
M  V30 19028 C 3040.07 -1.7299 7.50419 0
M  V30 19029 C 3039.34 -0.406376 7.57911 0
M  V30 19030 O 3039.13 0.0897726 6.21935 0
M  V30 19031 C 3037.94 -0.447224 8.1878 0
M  V30 19032 O 3037.55 0.825065 8.71101 0
M  V30 19033 C 3037.06 -0.783801 6.99623 0
M  V30 19034 C 3037.77 -0.0619192 5.85967 0
M  V30 19035 N 3037.72 -0.7859 4.56281 0
M  V30 19036 H 3040.56 -1.93423 8.4679 0
M  V30 19037 H 3040.83 -1.68181 6.71046 0
M  V30 19038 H 3039.97 0.289041 8.15388 0
M  V30 19039 P 3036 1.17771 8.83182 0
M  V30 19040 O 3035.78 2.07206 9.98732 0
M  V30 19041 O 3035.21 -0.0743816 8.81969 0
M  V30 19042 O 3035.75 1.97652 7.47304 0
M  V30 19043 C 3036.69 3.01133 7.08783 0
M  V30 19044 C 3035.96 4.12613 6.37049 0
M  V30 19045 O 3035.75 3.72827 4.97879 0
M  V30 19046 C 3034.56 4.45085 6.88694 0
M  V30 19047 O 3034.17 5.7877 6.5624 0
M  V30 19048 C 3033.68 3.47817 6.12078 0
M  V30 19049 C 3034.39 3.39414 4.77697 0
M  V30 19050 N 3034.34 2.04199 4.15538 0
M  V30 19051 H 3037.18 3.41248 7.98759 0
M  V30 19052 H 3037.45 2.57728 6.42 0
M  V30 19053 H 3036.59 5.02657 6.42673 0
M  V30 19054 H 3033.93 4.11708 4.08956 0
M  V30 19055 H 3033.65 2.49626 6.61679 0
M  V30 19056 H 3032.66 3.8662 6.00862 0
M  V30 19057 H 3034.49 4.29991 7.97006 0
M  V30 19058 P 3032.62 6.144 6.45285 0
M  V30 19059 O 3032.4 7.54673 6.86199 0
M  V30 19060 O 3031.83 5.12391 7.179 0
M  V30 19061 O 3032.37 5.99158 4.88404 0
M  V30 19062 C 3033.31 6.60062 3.96313 0
M  V30 19063 C 3032.58 7.08259 2.72856 0
M  V30 19064 O 3032.37 5.9427 1.83651 0
M  V30 19065 C 3031.18 7.65087 2.94749 0
M  V30 19066 O 3030.79 8.53963 1.90717 0
M  V30 19067 C 3030.3 6.41069 2.90698 0
M  V30 19068 C 3031.01 5.5528 1.86931 0
M  V30 19069 N 3030.96 4.09575 2.15696 0
M  V30 19070 C 3030.81 3.24249 1.08435 0
M  V30 19071 O 3030.72 3.63946 -0.0628747 0
M  V30 19072 N 3030.77 1.90009 1.39973 0
M  V30 19073 C 3030.86 1.34884 2.65614 0
M  V30 19074 O 3030.81 0.123716 2.81728 0
M  V30 19075 C 3031.01 2.3145 3.71736 0
M  V30 19076 C 3031.12 1.75913 5.10438 0
M  V30 19077 C 3031.06 3.63518 3.44754 0
M  V30 19078 H 3033.8 7.45402 4.45526 0
M  V30 19079 H 3034.07 5.86062 3.67208 0
M  V30 19080 H 3033.21 7.84412 2.24479 0
M  V30 19081 H 3030.55 5.73358 0.888409 0
M  V30 19082 H 3030.27 5.90877 3.88583 0
M  V30 19083 H 3029.28 6.65867 2.58821 0
M  V30 19084 H 3031.11 8.16248 3.92006 0
M  V30 19085 H 3031.18 4.34551 4.26383 0
M  V30 19086 H 3030.15 1.85471 5.61775 0
M  V30 19087 H 3031.89 2.31364 5.66257 0
M  V30 19088 H 3031.4 0.695936 5.05229 0
M  V30 19089 H 3030.67 1.26277 0.63625 0
M  V30 19090 P 3029.24 8.7635 1.60911 0
M  V30 19091 O 3029.02 10.1388 1.11561 0
M  V30 19092 O 3028.45 8.36503 2.79617 0
M  V30 19093 O 3028.99 7.71806 0.42951 0
M  V30 19094 C 3029.93 7.67148 -0.673689 0
M  V30 19095 C 3029.2 7.33374 -1.95559 0
M  V30 19096 O 3028.99 5.88721 -2.00726 0
M  V30 19097 C 3027.8 7.92526 -2.10483 0
M  V30 19098 O 3027.41 8.02971 -3.47653 0
M  V30 19099 C 3026.92 6.89602 -1.41652 0
M  V30 19100 C 3027.63 5.59201 -1.75185 0
M  V30 19101 N 3027.58 4.58235 -0.662552 0
M  V30 19102 H 3030.42 8.65116 -0.777161 0
M  V30 19103 H 3030.69 6.90173 -0.474152 0
M  V30 19104 H 3029.83 7.66548 -2.79458 0
M  V30 19105 P 3025.86 8.03563 -3.84925 0
M  V30 19106 O 3025.64 8.85821 -5.0569 0
M  V30 19107 O 3025.07 8.41101 -2.65469 0
M  V30 19108 O 3025.61 6.4965 -4.18908 0
M  V30 19109 C 3026.55 5.80886 -5.05289 0
M  V30 19110 C 3025.82 4.78366 -5.89277 0
M  V30 19111 O 3025.61 3.58302 -5.08433 0
M  V30 19112 C 3024.42 5.16748 -6.36559 0
M  V30 19113 O 3024.03 4.45271 -7.53232 0
M  V30 19114 C 3023.54 4.74572 -5.19863 0
M  V30 19115 C 3024.25 3.49373 -4.70338 0
M  V30 19116 N 3024.2 3.31704 -3.22876 0
M  V30 19117 C 3024.05 2.03326 -2.74871 0
M  V30 19118 O 3023.96 1.06486 -3.48076 0
M  V30 19119 N 3024.01 1.91838 -1.37456 0
M  V30 19120 C 3024.1 2.94295 -0.462035 0
M  V30 19121 O 3024.05 2.71763 0.752928 0
M  V30 19122 C 3024.25 4.25064 -1.05249 0
M  V30 19123 C 3024.36 5.39815 -0.095697 0
M  V30 19124 C 3024.3 4.40214 -2.39192 0
M  V30 19125 H 3027.04 6.54063 -5.71245 0
M  V30 19126 H 3027.31 5.30339 -4.43905 0
M  V30 19127 H 3026.45 4.55889 -6.76652 0
M  V30 19128 H 3023.79 2.6167 -5.17842 0
M  V30 19129 H 3023.51 5.52155 -4.41878 0
M  V30 19130 H 3022.52 4.51918 -5.53297 0
M  V30 19131 H 3024.35 6.25055 -6.55162 0
M  V30 19132 H 3024.42 5.39798 -2.81523 0
M  V30 19133 H 3023.39 5.91593 -0.0279582 0
M  V30 19134 H 3025.13 6.10038 -0.450573 0
M  V30 19135 H 3024.64 5.02007 0.89937 0
M  V30 19136 H 3023.91 0.995326 -1.00435 0
M  V30 19137 P 3022.48 4.23843 -7.83734 0
M  V30 19138 O 3022.26 4.19407 -9.29784 0
M  V30 19139 O 3021.69 5.24426 -7.09156 0
M  V30 19140 O 3022.23 2.7935 -7.20758 0
M  V30 19141 C 3023.17 1.7299 -7.50419 0
M  V30 19142 C 3022.44 0.406376 -7.57911 0
M  V30 19143 O 3022.23 -0.0897726 -6.21935 0
M  V30 19144 C 3021.04 0.447224 -8.1878 0
M  V30 19145 O 3020.65 -0.825065 -8.71101 0
M  V30 19146 C 3020.16 0.783801 -6.99623 0
M  V30 19147 C 3020.87 0.0619192 -5.85967 0
M  V30 19148 N 3020.82 0.790462 -4.56202 0
M  V30 19149 H 3023.66 1.93423 -8.4679 0
M  V30 19150 H 3023.93 1.68852 -6.70877 0
M  V30 19151 H 3023.07 -0.289041 -8.15388 0
M  V30 19152 H 3020.41 -0.927006 -5.72848 0
M  V30 19153 H 3020.13 1.86973 -6.82036 0
M  V30 19154 H 3019.14 0.403953 -7.13357 0
M  V30 19155 H 3020.97 1.20599 -8.97534 0
M  V30 19156 P 3019.1 -1.17771 -8.83182 0
M  V30 19157 O 3018.88 -2.07206 -9.98732 0
M  V30 19158 O 3018.31 0.0743816 -8.81969 0
M  V30 19159 O 3018.85 -1.97652 -7.47304 0
M  V30 19160 C 3019.79 -3.01133 -7.08783 0
M  V30 19161 C 3019.06 -4.12613 -6.37049 0
M  V30 19162 O 3018.85 -3.72827 -4.97879 0
M  V30 19163 C 3017.66 -4.45085 -6.88694 0
M  V30 19164 O 3017.27 -5.7877 -6.5624 0
M  V30 19165 C 3016.78 -3.47817 -6.12078 0
M  V30 19166 C 3017.49 -3.39414 -4.77697 0
M  V30 19167 N 3017.44 -2.04615 -4.15333 0
M  V30 19168 H 3020.28 -3.41248 -7.98759 0
M  V30 19169 H 3020.55 -2.5837 -6.41742 0
M  V30 19170 H 3019.69 -5.02657 -6.42673 0
M  V30 19171 P 3015.72 -6.144 -6.45285 0
M  V30 19172 O 3015.5 -7.54673 -6.86199 0
M  V30 19173 O 3014.93 -5.12391 -7.179 0
M  V30 19174 O 3015.47 -5.99158 -4.88404 0
M  V30 19175 C 3016.41 -6.60234 -3.96415 0
M  V30 19176 C 3015.68 -7.08259 -2.72856 0
M  V30 19177 O 3015.47 -5.9427 -1.83651 0
M  V30 19178 C 3014.28 -7.64886 -2.9555 0
M  V30 19179 O 3013.89 -8.53963 -1.90717 0
M  V30 19180 C 3013.4 -6.4116 -2.90739 0
M  V30 19181 C 3014.11 -5.55375 -1.86963 0
M  V30 19182 N 3014.06 -4.09448 -2.16152 0
M  V30 19183 H 3016.9 -7.45574 -4.45629 0
M  V30 19184 H 3017.17 -5.85864 -3.679 0
M  V30 19185 H 3016.31 -7.84412 -2.24479 0
M  V30 19186 H 3013.65 -5.73457 -0.888562 0
M  V30 19187 H 3013.37 -5.90877 -3.88583 0
M  V30 19188 H 3012.38 -6.6596 -2.58858 0
M  V30 19189 H 3014.21 -8.16339 -3.92049 0
M  V30 19190 P 3012.34 -8.7635 -1.60911 0
M  V30 19191 O 3012.12 -10.1388 -1.11561 0
M  V30 19192 O 3011.55 -8.36503 -2.79617 0
M  V30 19193 O 3012.09 -7.71806 -0.42951 0
M  V30 19194 C 3013.03 -7.67148 0.673689 0
M  V30 19195 C 3012.3 -7.33374 1.95559 0
M  V30 19196 O 3012.09 -5.88721 2.00726 0
M  V30 19197 C 3010.9 -7.92526 2.10483 0
M  V30 19198 O 3010.51 -8.02971 3.47653 0
M  V30 19199 C 3010.02 -6.89602 1.41652 0
M  V30 19200 C 3010.73 -5.59201 1.75185 0
M  V30 19201 N 3010.68 -4.58301 0.657969 0
M  V30 19202 H 3013.52 -8.65116 0.777161 0
M  V30 19203 H 3013.79 -6.9022 0.46725 0
M  V30 19204 H 3012.93 -7.66548 2.79458 0
M  V30 19205 H 3010.27 -5.16165 2.65183 0
M  V30 19206 H 3009.99 -7.06433 0.329384 0
M  V30 19207 H 3009 -6.90926 1.82021 0
M  V30 19208 H 3010.83 -8.90873 1.62657 0
M  V30 19209 P 3008.96 -8.03563 3.84925 0
M  V30 19210 O 3008.74 -8.85821 5.0569 0
M  V30 19211 O 3008.17 -8.41101 2.65469 0
M  V30 19212 O 3008.71 -6.4965 4.18908 0
M  V30 19213 C 3009.65 -5.81037 5.05421 0
M  V30 19214 C 3008.92 -4.78366 5.89277 0
M  V30 19215 O 3008.71 -3.58302 5.08433 0
M  V30 19216 C 3007.52 -5.17448 6.36119 0
M  V30 19217 O 3007.13 -4.45271 7.53232 0
M  V30 19218 C 3006.64 -4.74639 5.19936 0
M  V30 19219 C 3007.35 -3.49432 4.70418 0
M  V30 19220 N 3007.3 -3.32099 3.22613 0
M  V30 19221 H 3010.14 -6.54213 5.71376 0
M  V30 19222 H 3010.41 -5.30936 4.43503 0
M  V30 19223 H 3009.55 -4.55889 6.76652 0
M  V30 19224 H 3006.89 -2.61715 5.17932 0
M  V30 19225 H 3006.61 -5.52155 4.41878 0
M  V30 19226 H 3005.62 -4.51981 5.53374 0
M  V30 19227 H 3007.45 -6.25124 6.55234 0
M  V30 19228 P 3005.58 -4.23843 7.83734 0
M  V30 19229 O 3005.36 -4.19407 9.29784 0
M  V30 19230 O 3004.79 -5.24426 7.09156 0
M  V30 19231 O 3005.33 -2.7935 7.20758 0
M  V30 19232 C 3006.27 -1.7299 7.50419 0
M  V30 19233 C 3005.54 -0.406376 7.57911 0
M  V30 19234 O 3005.33 0.0897726 6.21935 0
M  V30 19235 C 3004.14 -0.447224 8.1878 0
M  V30 19236 O 3003.75 0.825065 8.71101 0
M  V30 19237 C 3003.26 -0.783801 6.99623 0
M  V30 19238 C 3003.97 -0.0619192 5.85967 0
M  V30 19239 N 3003.92 -0.7859 4.56281 0
M  V30 19240 H 3006.76 -1.93423 8.4679 0
M  V30 19241 H 3007.03 -1.68181 6.71046 0
M  V30 19242 H 3006.17 0.289041 8.15388 0
M  V30 19243 P 3002.2 1.17771 8.83182 0
M  V30 19244 O 3001.98 2.07206 9.98732 0
M  V30 19245 O 3001.41 -0.0743816 8.81969 0
M  V30 19246 O 3001.95 1.97652 7.47304 0
M  V30 19247 C 3002.89 3.01133 7.08783 0
M  V30 19248 C 3002.16 4.12613 6.37049 0
M  V30 19249 O 3001.95 3.72827 4.97879 0
M  V30 19250 C 3000.76 4.45085 6.88694 0
M  V30 19251 O 3000.37 5.7877 6.5624 0
M  V30 19252 C 2999.88 3.47817 6.12078 0
M  V30 19253 C 3000.59 3.39414 4.77697 0
M  V30 19254 N 3000.54 2.04615 4.15333 0
M  V30 19255 H 3003.38 3.41248 7.98759 0
M  V30 19256 H 3003.65 2.5837 6.41742 0
M  V30 19257 H 3002.79 5.02657 6.42673 0
M  V30 19258 P 2998.82 6.144 6.45285 0
M  V30 19259 O 2998.6 7.54673 6.86199 0
M  V30 19260 O 2998.03 5.12391 7.179 0
M  V30 19261 O 2998.57 5.99158 4.88404 0
M  V30 19262 C 2999.51 6.60234 3.96415 0
M  V30 19263 C 2998.78 7.08259 2.72856 0
M  V30 19264 O 2998.57 5.9427 1.83651 0
M  V30 19265 C 2997.38 7.64886 2.9555 0
M  V30 19266 O 2996.99 8.53963 1.90717 0
M  V30 19267 C 2996.5 6.4116 2.90739 0
M  V30 19268 C 2997.21 5.55375 1.86963 0
M  V30 19269 N 2997.16 4.09664 2.15742 0
M  V30 19270 H 3000 7.45574 4.45629 0
M  V30 19271 H 3000.27 5.86232 3.67314 0
M  V30 19272 H 2999.41 7.84412 2.24479 0
M  V30 19273 P 2995.44 8.7635 1.60911 0
M  V30 19274 O 2995.22 10.1388 1.11561 0
M  V30 19275 O 2994.65 8.36503 2.79617 0
M  V30 19276 O 2995.19 7.71806 0.42951 0
M  V30 19277 C 2996.13 7.67148 -0.673689 0
M  V30 19278 C 2995.4 7.33374 -1.95559 0
M  V30 19279 O 2995.19 5.88721 -2.00726 0
M  V30 19280 C 2994 7.92526 -2.10483 0
M  V30 19281 O 2993.61 8.02971 -3.47653 0
M  V30 19282 C 2993.12 6.89602 -1.41652 0
M  V30 19283 C 2993.83 5.59201 -1.75185 0
M  V30 19284 N 2993.78 4.58235 -0.662552 0
M  V30 19285 H 2996.62 8.65116 -0.777161 0
M  V30 19286 H 2996.89 6.90173 -0.474152 0
M  V30 19287 H 2996.03 7.66548 -2.79458 0
M  V30 19288 P 2992.06 8.03563 -3.84925 0
M  V30 19289 O 2991.84 8.85821 -5.0569 0
M  V30 19290 O 2991.27 8.41101 -2.65469 0
M  V30 19291 O 2991.81 6.4965 -4.18908 0
M  V30 19292 C 2992.75 5.81037 -5.05421 0
M  V30 19293 C 2992.02 4.78366 -5.89277 0
M  V30 19294 O 2991.81 3.58302 -5.08433 0
M  V30 19295 C 2990.62 5.17448 -6.36119 0
M  V30 19296 O 2990.23 4.45271 -7.53232 0
M  V30 19297 C 2989.74 4.74639 -5.19936 0
M  V30 19298 C 2990.45 3.49432 -4.70418 0
M  V30 19299 N 2990.4 3.31776 -3.22945 0
M  V30 19300 H 2993.24 6.54213 -5.71376 0
M  V30 19301 H 2993.51 5.30492 -4.44033 0
M  V30 19302 H 2992.65 4.55889 -6.76652 0
M  V30 19303 P 2988.68 4.23843 -7.83734 0
M  V30 19304 O 2988.46 4.19407 -9.29784 0
M  V30 19305 O 2987.89 5.24426 -7.09156 0
M  V30 19306 O 2988.43 2.7935 -7.20758 0
M  V30 19307 C 2989.37 1.7299 -7.50419 0
M  V30 19308 C 2988.64 0.406376 -7.57911 0
M  V30 19309 O 2988.43 -0.0897726 -6.21935 0
M  V30 19310 C 2987.24 0.447224 -8.1878 0
M  V30 19311 O 2986.85 -0.825065 -8.71101 0
M  V30 19312 C 2986.36 0.783801 -6.99623 0
M  V30 19313 C 2987.07 0.0619192 -5.85967 0
M  V30 19314 N 2987.02 0.7859 -4.56281 0
M  V30 19315 H 2989.86 1.93423 -8.4679 0
M  V30 19316 H 2990.13 1.68181 -6.71046 0
M  V30 19317 H 2989.27 -0.289041 -8.15388 0
M  V30 19318 P 2985.3 -1.17771 -8.83182 0
M  V30 19319 O 2985.08 -2.07206 -9.98732 0
M  V30 19320 O 2984.51 0.0743816 -8.81969 0
M  V30 19321 O 2985.05 -1.97652 -7.47304 0
M  V30 19322 C 2985.99 -3.01133 -7.08783 0
M  V30 19323 C 2985.26 -4.12613 -6.37049 0
M  V30 19324 O 2985.05 -3.72827 -4.97879 0
M  V30 19325 C 2983.86 -4.45085 -6.88694 0
M  V30 19326 O 2983.47 -5.7877 -6.5624 0
M  V30 19327 C 2982.98 -3.47817 -6.12078 0
M  V30 19328 C 2983.69 -3.39414 -4.77697 0
M  V30 19329 N 2983.64 -2.04615 -4.15333 0
M  V30 19330 H 2986.48 -3.41248 -7.98759 0
M  V30 19331 H 2986.75 -2.5837 -6.41742 0
M  V30 19332 H 2985.89 -5.02657 -6.42673 0
M  V30 19333 P 2981.92 -6.144 -6.45285 0
M  V30 19334 O 2981.7 -7.54673 -6.86199 0
M  V30 19335 O 2981.13 -5.12391 -7.179 0
M  V30 19336 O 2981.67 -5.99158 -4.88404 0
M  V30 19337 C 2982.61 -6.60234 -3.96415 0
M  V30 19338 C 2981.88 -7.08259 -2.72856 0
M  V30 19339 O 2981.67 -5.9427 -1.83651 0
M  V30 19340 C 2980.48 -7.64886 -2.9555 0
M  V30 19341 O 2980.09 -8.53963 -1.90717 0
M  V30 19342 C 2979.6 -6.4116 -2.90739 0
M  V30 19343 C 2980.31 -5.55375 -1.86963 0
M  V30 19344 N 2980.26 -4.09448 -2.16152 0
M  V30 19345 H 2983.1 -7.45574 -4.45629 0
M  V30 19346 H 2983.37 -5.85864 -3.679 0
M  V30 19347 H 2982.51 -7.84412 -2.24479 0
M  V30 19348 H 2979.85 -5.73457 -0.888562 0
M  V30 19349 H 2979.57 -5.90877 -3.88583 0
M  V30 19350 H 2978.58 -6.6596 -2.58858 0
M  V30 19351 H 2980.41 -8.16339 -3.92049 0
M  V30 19352 P 2978.54 -8.7635 -1.60911 0
M  V30 19353 O 2978.32 -10.1388 -1.11561 0
M  V30 19354 O 2977.75 -8.36503 -2.79617 0
M  V30 19355 O 2978.29 -7.71806 -0.42951 0
M  V30 19356 C 2979.23 -7.67148 0.673689 0
M  V30 19357 C 2978.5 -7.33374 1.95559 0
M  V30 19358 O 2978.29 -5.88721 2.00726 0
M  V30 19359 C 2977.1 -7.92526 2.10483 0
M  V30 19360 O 2976.71 -8.02971 3.47653 0
M  V30 19361 C 2976.22 -6.89602 1.41652 0
M  V30 19362 C 2976.93 -5.59201 1.75185 0
M  V30 19363 N 2976.88 -4.58235 0.662552 0
M  V30 19364 H 2979.72 -8.65116 0.777161 0
M  V30 19365 H 2979.99 -6.90173 0.474152 0
M  V30 19366 H 2979.13 -7.66548 2.79458 0
M  V30 19367 P 2975.16 -8.03563 3.84925 0
M  V30 19368 O 2974.94 -8.85821 5.0569 0
M  V30 19369 O 2974.37 -8.41101 2.65469 0
M  V30 19370 O 2974.91 -6.4965 4.18908 0
M  V30 19371 C 2975.85 -5.81037 5.05421 0
M  V30 19372 C 2975.12 -4.78366 5.89277 0
M  V30 19373 O 2974.91 -3.58302 5.08433 0
M  V30 19374 C 2973.72 -5.17448 6.36119 0
M  V30 19375 O 2973.33 -4.45271 7.53232 0
M  V30 19376 C 2972.84 -4.74639 5.19936 0
M  V30 19377 C 2973.55 -3.49432 4.70418 0
M  V30 19378 N 2973.5 -3.31776 3.22945 0
M  V30 19379 H 2976.34 -6.54213 5.71376 0
M  V30 19380 H 2976.61 -5.30492 4.44033 0
M  V30 19381 H 2975.75 -4.55889 6.76652 0
M  V30 19382 P 2971.78 -4.23843 7.83734 0
M  V30 19383 O 2971.56 -4.19407 9.29784 0
M  V30 19384 O 2970.99 -5.24426 7.09156 0
M  V30 19385 O 2971.53 -2.7935 7.20758 0
M  V30 19386 C 2972.47 -1.7299 7.50419 0
M  V30 19387 C 2971.74 -0.406376 7.57911 0
M  V30 19388 O 2971.53 0.0897726 6.21935 0
M  V30 19389 C 2970.34 -0.447224 8.1878 0
M  V30 19390 O 2969.95 0.825065 8.71101 0
M  V30 19391 C 2969.46 -0.783801 6.99623 0
M  V30 19392 C 2970.17 -0.0619192 5.85967 0
M  V30 19393 N 2970.12 -0.7859 4.56281 0
M  V30 19394 H 2972.96 -1.93423 8.4679 0
M  V30 19395 H 2973.23 -1.68181 6.71046 0
M  V30 19396 H 2972.37 0.289041 8.15388 0
M  V30 19397 P 2968.4 1.17771 8.83182 0
M  V30 19398 O 2968.18 2.07206 9.98732 0
M  V30 19399 O 2967.61 -0.0743816 8.81969 0
M  V30 19400 O 2968.15 1.97652 7.47304 0
M  V30 19401 C 2969.09 3.01133 7.08783 0
M  V30 19402 C 2968.36 4.12613 6.37049 0
M  V30 19403 O 2968.15 3.72827 4.97879 0
M  V30 19404 C 2966.96 4.45085 6.88694 0
M  V30 19405 O 2966.57 5.7877 6.5624 0
M  V30 19406 C 2966.08 3.47817 6.12078 0
M  V30 19407 C 2966.79 3.39414 4.77697 0
M  V30 19408 N 2966.74 2.04615 4.15333 0
M  V30 19409 H 2969.58 3.41248 7.98759 0
M  V30 19410 H 2969.85 2.5837 6.41742 0
M  V30 19411 H 2968.99 5.02657 6.42673 0
M  V30 19412 P 2965.02 6.144 6.45285 0
M  V30 19413 O 2964.8 7.54673 6.86199 0
M  V30 19414 O 2964.23 5.12391 7.179 0
M  V30 19415 O 2964.77 5.99158 4.88404 0
M  V30 19416 C 2965.71 6.60234 3.96415 0
M  V30 19417 C 2964.98 7.08259 2.72856 0
M  V30 19418 O 2964.77 5.9427 1.83651 0
M  V30 19419 C 2963.58 7.64886 2.9555 0
M  V30 19420 O 2963.19 8.53963 1.90717 0
M  V30 19421 C 2962.7 6.4116 2.90739 0
M  V30 19422 C 2963.41 5.55375 1.86963 0
M  V30 19423 N 2963.36 4.09664 2.15742 0
M  V30 19424 H 2966.2 7.45574 4.45629 0
M  V30 19425 H 2966.47 5.86232 3.67314 0
M  V30 19426 H 2965.61 7.84412 2.24479 0
M  V30 19427 P 2961.64 8.7635 1.60911 0
M  V30 19428 O 2961.42 10.1388 1.11561 0
M  V30 19429 O 2960.85 8.36503 2.79617 0
M  V30 19430 O 2961.39 7.71806 0.42951 0
M  V30 19431 C 2962.33 7.67148 -0.673689 0
M  V30 19432 C 2961.6 7.33374 -1.95559 0
M  V30 19433 O 2961.39 5.88721 -2.00726 0
M  V30 19434 C 2960.2 7.92526 -2.10483 0
M  V30 19435 O 2959.81 8.02971 -3.47653 0
M  V30 19436 C 2959.32 6.89602 -1.41652 0
M  V30 19437 C 2960.03 5.59201 -1.75185 0
M  V30 19438 N 2959.98 4.58235 -0.662552 0
M  V30 19439 H 2962.82 8.65116 -0.777161 0
M  V30 19440 H 2963.09 6.90173 -0.474152 0
M  V30 19441 H 2962.23 7.66548 -2.79458 0
M  V30 19442 P 2958.26 8.03563 -3.84925 0
M  V30 19443 O 2958.04 8.85821 -5.0569 0
M  V30 19444 O 2957.47 8.41101 -2.65469 0
M  V30 19445 O 2958.01 6.4965 -4.18908 0
M  V30 19446 C 2958.95 5.80886 -5.05289 0
M  V30 19447 C 2958.22 4.78366 -5.89277 0
M  V30 19448 O 2958.01 3.58302 -5.08433 0
M  V30 19449 C 2956.82 5.16748 -6.36559 0
M  V30 19450 O 2956.43 4.45271 -7.53232 0
M  V30 19451 C 2955.94 4.74572 -5.19863 0
M  V30 19452 C 2956.65 3.49373 -4.70338 0
M  V30 19453 N 2956.6 3.31704 -3.22876 0
M  V30 19454 C 2956.45 2.03326 -2.74871 0
M  V30 19455 O 2956.36 1.06486 -3.48076 0
M  V30 19456 N 2956.41 1.91838 -1.37456 0
M  V30 19457 C 2956.5 2.94295 -0.462035 0
M  V30 19458 C 2956.65 4.25064 -1.05249 0
M  V30 19459 C 2956.7 4.40214 -2.39192 0
M  V30 19460 H 2959.44 6.54063 -5.71245 0
M  V30 19461 H 2959.71 5.30339 -4.43905 0
M  V30 19462 H 2958.85 4.55889 -6.76652 0
M  V30 19463 H 2956.19 2.6167 -5.17842 0
M  V30 19464 H 2955.91 5.52155 -4.41878 0
M  V30 19465 H 2954.92 4.51918 -5.53297 0
M  V30 19466 H 2956.75 6.25055 -6.55162 0
M  V30 19467 H 2956.82 5.39798 -2.81523 0
M  V30 19468 P 2954.88 4.23843 -7.83734 0
M  V30 19469 O 2954.66 4.19407 -9.29784 0
M  V30 19470 O 2954.09 5.24426 -7.09156 0
M  V30 19471 O 2954.63 2.7935 -7.20758 0
M  V30 19472 C 2955.57 1.7299 -7.50419 0
M  V30 19473 C 2954.84 0.406376 -7.57911 0
M  V30 19474 O 2954.63 -0.0897726 -6.21935 0
M  V30 19475 C 2953.44 0.447224 -8.1878 0
M  V30 19476 O 2953.05 -0.825065 -8.71101 0
M  V30 19477 C 2952.56 0.783801 -6.99623 0
M  V30 19478 C 2953.27 0.0619192 -5.85967 0
M  V30 19479 N 2953.22 0.7859 -4.56281 0
M  V30 19480 H 2956.06 1.93423 -8.4679 0
M  V30 19481 H 2956.33 1.68181 -6.71046 0
M  V30 19482 H 2955.47 -0.289041 -8.15388 0
M  V30 19483 P 2951.5 -1.17771 -8.83182 0
M  V30 19484 O 2951.28 -2.07206 -9.98732 0
M  V30 19485 O 2950.71 0.0743816 -8.81969 0
M  V30 19486 O 2951.25 -1.97652 -7.47304 0
M  V30 19487 C 2952.19 -3.01055 -7.08599 0
M  V30 19488 C 2951.46 -4.12613 -6.37049 0
M  V30 19489 O 2951.25 -3.72827 -4.97879 0
M  V30 19490 C 2950.06 -4.45719 -6.88164 0
M  V30 19491 O 2949.67 -5.7877 -6.5624 0
M  V30 19492 C 2949.18 -3.47768 -6.11991 0
M  V30 19493 C 2949.89 -3.39356 -4.77615 0
M  V30 19494 N 2949.84 -2.04571 -4.15244 0
M  V30 19495 C 2949.69 -1.98587 -2.78314 0
M  V30 19496 O 2949.6 -2.98134 -2.08835 0
M  V30 19497 N 2949.65 -0.714467 -2.24925 0
M  V30 19498 C 2949.74 0.470001 -2.94169 0
M  V30 19499 C 2949.89 0.312541 -4.36783 0
M  V30 19500 C 2949.94 -0.914512 -4.92583 0
M  V30 19501 H 2952.68 -3.41169 -7.98575 0
M  V30 19502 H 2952.95 -2.58295 -6.41556 0
M  V30 19503 H 2952.09 -5.02657 -6.42673 0
M  V30 19504 H 2949.43 -4.11637 -4.08885 0
M  V30 19505 H 2949.15 -2.49626 -6.61679 0
M  V30 19506 H 2948.16 -3.86566 -6.00778 0
M  V30 19507 H 2949.99 -4.29943 -7.96918 0
M  V30 19508 H 2950.06 -1.00937 -6.00374 0
M  V30 19509 P 2948.12 -6.144 -6.45285 0
M  V30 19510 O 2947.9 -7.54673 -6.86199 0
M  V30 19511 O 2947.33 -5.12391 -7.179 0
M  V30 19512 O 2947.87 -5.99158 -4.88404 0
M  V30 19513 C 2948.81 -6.60234 -3.96415 0
M  V30 19514 C 2948.08 -7.08259 -2.72856 0
M  V30 19515 O 2947.87 -5.9427 -1.83651 0
M  V30 19516 C 2946.68 -7.64886 -2.9555 0
M  V30 19517 O 2946.29 -8.53963 -1.90717 0
M  V30 19518 C 2945.8 -6.4116 -2.90739 0
M  V30 19519 C 2946.51 -5.55375 -1.86963 0
M  V30 19520 N 2946.46 -4.09664 -2.15742 0
M  V30 19521 H 2949.3 -7.45574 -4.45629 0
M  V30 19522 H 2949.57 -5.86232 -3.67314 0
M  V30 19523 H 2948.71 -7.84412 -2.24479 0
M  V30 19524 P 2944.74 -8.7635 -1.60911 0
M  V30 19525 O 2944.52 -10.1388 -1.11561 0
M  V30 19526 O 2943.95 -8.36503 -2.79617 0
M  V30 19527 O 2944.49 -7.71806 -0.42951 0
M  V30 19528 C 2945.43 -7.67148 0.673689 0
M  V30 19529 C 2944.7 -7.33374 1.95559 0
M  V30 19530 O 2944.49 -5.88721 2.00726 0
M  V30 19531 C 2943.3 -7.92526 2.10483 0
M  V30 19532 O 2942.91 -8.02971 3.47653 0
M  V30 19533 C 2942.42 -6.89602 1.41652 0
M  V30 19534 C 2943.13 -5.59201 1.75185 0
M  V30 19535 N 2943.08 -4.58235 0.662552 0
M  V30 19536 H 2945.92 -8.65116 0.777161 0
M  V30 19537 H 2946.19 -6.90173 0.474152 0
M  V30 19538 H 2945.33 -7.66548 2.79458 0
M  V30 19539 P 2941.36 -8.03563 3.84925 0
M  V30 19540 O 2941.14 -8.85821 5.0569 0
M  V30 19541 O 2940.57 -8.41101 2.65469 0
M  V30 19542 O 2941.11 -6.4965 4.18908 0
M  V30 19543 C 2942.05 -5.81037 5.05421 0
M  V30 19544 C 2941.32 -4.78366 5.89277 0
M  V30 19545 O 2941.11 -3.58302 5.08433 0
M  V30 19546 C 2939.92 -5.17448 6.36119 0
M  V30 19547 O 2939.53 -4.45271 7.53232 0
M  V30 19548 C 2939.04 -4.74639 5.19936 0
M  V30 19549 C 2939.75 -3.49432 4.70418 0
M  V30 19550 N 2939.7 -3.31776 3.22945 0
M  V30 19551 H 2942.54 -6.54213 5.71376 0
M  V30 19552 H 2942.81 -5.30492 4.44033 0
M  V30 19553 H 2941.95 -4.55889 6.76652 0
M  V30 19554 P 2937.98 -4.23843 7.83734 0
M  V30 19555 O 2937.76 -4.19407 9.29784 0
M  V30 19556 O 2937.19 -5.24426 7.09156 0
M  V30 19557 O 2937.73 -2.7935 7.20758 0
M  V30 19558 C 2938.67 -1.72945 7.50224 0
M  V30 19559 C 2937.94 -0.406376 7.57911 0
M  V30 19560 O 2937.73 0.0897726 6.21935 0
M  V30 19561 C 2936.54 -0.438983 8.18724 0
M  V30 19562 O 2936.15 0.825065 8.71101 0
M  V30 19563 C 2935.66 -0.783689 6.99524 0
M  V30 19564 C 2936.37 -0.0619086 5.85867 0
M  V30 19565 N 2936.32 -0.78573 4.56183 0
M  V30 19566 C 2936.17 -0.0292889 3.41887 0
M  V30 19567 O 2936.08 1.18445 3.4419 0
M  V30 19568 N 2936.13 -0.744061 2.23964 0
M  V30 19569 C 2936.22 -2.10932 2.10362 0
M  V30 19570 O 2936.17 -2.64117 0.98825 0
M  V30 19571 C 2936.37 -2.8202 3.34994 0
M  V30 19572 C 2936.48 -4.31095 3.25037 0
M  V30 19573 C 2936.42 -2.15547 4.52261 0
M  V30 19574 H 2939.16 -1.93379 8.46595 0
M  V30 19575 H 2939.43 -1.68132 6.70852 0
M  V30 19576 H 2938.57 0.289041 8.15388 0
M  V30 19577 H 2935.91 0.926847 5.72749 0
M  V30 19578 H 2935.63 -1.86973 6.82036 0
M  V30 19579 H 2934.64 -0.403896 7.13257 0
M  V30 19580 H 2936.47 -1.20585 8.97435 0
M  V30 19581 H 2936.54 -2.71231 5.45042 0
M  V30 19582 H 2935.51 -4.76966 3.49992 0
M  V30 19583 H 2937.25 -4.67047 3.95024 0
M  V30 19584 H 2936.76 -4.58996 2.22312 0
M  V30 19585 H 2936.03 -0.214893 1.39758 0
M  V30 19586 P 2934.6 1.17771 8.83182 0
M  V30 19587 O 2934.38 2.07206 9.98732 0
M  V30 19588 O 2933.81 -0.0743816 8.81969 0
M  V30 19589 O 2934.35 1.97652 7.47304 0
M  V30 19590 C 2935.29 3.01133 7.08783 0
M  V30 19591 C 2934.56 4.12613 6.37049 0
M  V30 19592 O 2934.35 3.72827 4.97879 0
M  V30 19593 C 2933.16 4.45085 6.88694 0
M  V30 19594 O 2932.77 5.7877 6.5624 0
M  V30 19595 C 2932.28 3.47817 6.12078 0
M  V30 19596 C 2932.99 3.39414 4.77697 0
M  V30 19597 N 2932.94 2.04615 4.15333 0
M  V30 19598 H 2935.78 3.41248 7.98759 0
M  V30 19599 H 2936.05 2.5837 6.41742 0
M  V30 19600 H 2935.19 5.02657 6.42673 0
M  V30 19601 P 2931.22 6.144 6.45285 0
M  V30 19602 O 2931 7.54673 6.86199 0
M  V30 19603 O 2930.43 5.12391 7.179 0
M  V30 19604 O 2930.97 5.99158 4.88404 0
M  V30 19605 C 2931.91 6.60234 3.96415 0
M  V30 19606 C 2931.18 7.08259 2.72856 0
M  V30 19607 O 2930.97 5.9427 1.83651 0
M  V30 19608 C 2929.78 7.64886 2.9555 0
M  V30 19609 O 2929.39 8.53963 1.90717 0
M  V30 19610 C 2928.9 6.4116 2.90739 0
M  V30 19611 C 2929.61 5.55375 1.86963 0
M  V30 19612 N 2929.56 4.09664 2.15742 0
M  V30 19613 H 2932.4 7.45574 4.45629 0
M  V30 19614 H 2932.67 5.86232 3.67314 0
M  V30 19615 H 2931.81 7.84412 2.24479 0
M  V30 19616 P 2927.84 8.7635 1.60911 0
M  V30 19617 O 2927.62 10.1388 1.11561 0
M  V30 19618 O 2927.05 8.36503 2.79617 0
M  V30 19619 O 2927.59 7.71806 0.42951 0
M  V30 19620 C 2928.53 7.67148 -0.673689 0
M  V30 19621 C 2927.8 7.33374 -1.95559 0
M  V30 19622 O 2927.59 5.88721 -2.00726 0
M  V30 19623 C 2926.4 7.92526 -2.10483 0
M  V30 19624 O 2926.01 8.02971 -3.47653 0
M  V30 19625 C 2925.52 6.89602 -1.41652 0
M  V30 19626 C 2926.23 5.59201 -1.75185 0
M  V30 19627 N 2926.18 4.58235 -0.662552 0
M  V30 19628 H 2929.02 8.65116 -0.777161 0
M  V30 19629 H 2929.29 6.90173 -0.474152 0
M  V30 19630 H 2928.43 7.66548 -2.79458 0
M  V30 19631 P 2924.46 8.03563 -3.84925 0
M  V30 19632 O 2924.24 8.85821 -5.0569 0
M  V30 19633 O 2923.67 8.41101 -2.65469 0
M  V30 19634 O 2924.21 6.4965 -4.18908 0
M  V30 19635 C 2925.15 5.80886 -5.05289 0
M  V30 19636 C 2924.42 4.78366 -5.89277 0
M  V30 19637 O 2924.21 3.58302 -5.08433 0
M  V30 19638 C 2923.02 5.16748 -6.36559 0
M  V30 19639 O 2922.63 4.45271 -7.53232 0
M  V30 19640 C 2922.14 4.74572 -5.19863 0
M  V30 19641 C 2922.85 3.49373 -4.70338 0
M  V30 19642 N 2922.8 3.31704 -3.22876 0
M  V30 19643 C 2922.65 2.03326 -2.74871 0
M  V30 19644 O 2922.56 1.06486 -3.48076 0
M  V30 19645 N 2922.61 1.91838 -1.37456 0
M  V30 19646 C 2922.7 2.94295 -0.462035 0
M  V30 19647 O 2922.65 2.71763 0.752928 0
M  V30 19648 C 2922.85 4.25064 -1.05249 0
M  V30 19649 C 2922.96 5.39815 -0.095697 0
M  V30 19650 C 2922.9 4.40214 -2.39192 0
M  V30 19651 H 2925.64 6.54063 -5.71245 0
M  V30 19652 H 2925.91 5.30339 -4.43905 0
M  V30 19653 H 2925.05 4.55889 -6.76652 0
M  V30 19654 H 2922.39 2.6167 -5.17842 0
M  V30 19655 H 2922.11 5.52155 -4.41878 0
M  V30 19656 H 2921.12 4.51918 -5.53297 0
M  V30 19657 H 2922.95 6.25055 -6.55162 0
M  V30 19658 H 2923.02 5.39798 -2.81523 0
M  V30 19659 H 2921.99 5.91593 -0.0279582 0
M  V30 19660 H 2923.73 6.10038 -0.450573 0
M  V30 19661 H 2923.24 5.02007 0.89937 0
M  V30 19662 H 2922.51 0.995326 -1.00435 0
M  V30 19663 P 2921.08 4.23843 -7.83734 0
M  V30 19664 O 2920.86 4.19407 -9.29784 0
M  V30 19665 O 2920.29 5.24426 -7.09156 0
M  V30 19666 O 2920.83 2.7935 -7.20758 0
M  V30 19667 C 2921.77 1.7299 -7.50419 0
M  V30 19668 C 2921.04 0.406376 -7.57911 0
M  V30 19669 O 2920.83 -0.0897726 -6.21935 0
M  V30 19670 C 2919.64 0.447224 -8.1878 0
M  V30 19671 O 2919.25 -0.825065 -8.71101 0
M  V30 19672 C 2918.76 0.783801 -6.99623 0
M  V30 19673 C 2919.47 0.0619192 -5.85967 0
M  V30 19674 N 2919.42 0.790462 -4.56202 0
M  V30 19675 H 2922.26 1.93423 -8.4679 0
M  V30 19676 H 2922.53 1.68852 -6.70877 0
M  V30 19677 H 2921.67 -0.289041 -8.15388 0
M  V30 19678 H 2919.01 -0.927006 -5.72848 0
M  V30 19679 H 2918.73 1.86973 -6.82036 0
M  V30 19680 H 2917.74 0.403953 -7.13357 0
M  V30 19681 H 2919.57 1.20599 -8.97534 0
M  V30 19682 P 2917.7 -1.17771 -8.83182 0
M  V30 19683 O 2917.48 -2.07206 -9.98732 0
M  V30 19684 O 2916.91 0.0743816 -8.81969 0
M  V30 19685 O 2917.45 -1.97652 -7.47304 0
M  V30 19686 C 2918.39 -3.01133 -7.08783 0
M  V30 19687 C 2917.66 -4.12613 -6.37049 0
M  V30 19688 O 2917.45 -3.72827 -4.97879 0
M  V30 19689 C 2916.26 -4.45085 -6.88694 0
M  V30 19690 O 2915.87 -5.7877 -6.5624 0
M  V30 19691 C 2915.38 -3.47817 -6.12078 0
M  V30 19692 C 2916.09 -3.39414 -4.77697 0
M  V30 19693 N 2916.04 -2.04615 -4.15333 0
M  V30 19694 H 2918.88 -3.41248 -7.98759 0
M  V30 19695 H 2919.15 -2.5837 -6.41742 0
M  V30 19696 H 2918.29 -5.02657 -6.42673 0
M  V30 19697 P 2914.32 -6.144 -6.45285 0
M  V30 19698 O 2914.1 -7.54673 -6.86199 0
M  V30 19699 O 2913.53 -5.12391 -7.179 0
M  V30 19700 O 2914.07 -5.99158 -4.88404 0
M  V30 19701 C 2915.01 -6.60062 -3.96313 0
M  V30 19702 C 2914.28 -7.08259 -2.72856 0
M  V30 19703 O 2914.07 -5.9427 -1.83651 0
M  V30 19704 C 2912.88 -7.65087 -2.94749 0
M  V30 19705 O 2912.49 -8.53963 -1.90717 0
M  V30 19706 C 2912 -6.41069 -2.90698 0
M  V30 19707 C 2912.71 -5.5528 -1.86931 0
M  V30 19708 N 2912.66 -4.09575 -2.15696 0
M  V30 19709 C 2912.51 -3.24249 -1.08435 0
M  V30 19710 O 2912.42 -3.63946 0.0628747 0
M  V30 19711 N 2912.47 -1.90009 -1.39973 0
M  V30 19712 C 2912.56 -1.34884 -2.65614 0
M  V30 19713 O 2912.51 -0.123716 -2.81728 0
M  V30 19714 C 2912.71 -2.3145 -3.71736 0
M  V30 19715 C 2912.82 -1.75913 -5.10438 0
M  V30 19716 C 2912.76 -3.63518 -3.44754 0
M  V30 19717 H 2915.5 -7.45402 -4.45526 0
M  V30 19718 H 2915.77 -5.86062 -3.67208 0
M  V30 19719 H 2914.91 -7.84412 -2.24479 0
M  V30 19720 H 2912.25 -5.73358 -0.888409 0
M  V30 19721 H 2911.97 -5.90877 -3.88583 0
M  V30 19722 H 2910.98 -6.65867 -2.58821 0
M  V30 19723 H 2912.81 -8.16248 -3.92006 0
M  V30 19724 H 2912.88 -4.34551 -4.26383 0
M  V30 19725 H 2911.85 -1.85471 -5.61775 0
M  V30 19726 H 2913.59 -2.31364 -5.66257 0
M  V30 19727 H 2913.1 -0.695936 -5.05229 0
M  V30 19728 H 2912.37 -1.26277 -0.63625 0
M  V30 19729 P 2910.94 -8.7635 -1.60911 0
M  V30 19730 O 2910.72 -10.1388 -1.11561 0
M  V30 19731 O 2910.15 -8.36503 -2.79617 0
M  V30 19732 O 2910.69 -7.71806 -0.42951 0
M  V30 19733 C 2911.63 -7.67148 0.673689 0
M  V30 19734 C 2910.9 -7.33374 1.95559 0
M  V30 19735 O 2910.69 -5.88721 2.00726 0
M  V30 19736 C 2909.5 -7.92526 2.10483 0
M  V30 19737 O 2909.11 -8.02971 3.47653 0
M  V30 19738 C 2908.62 -6.89602 1.41652 0
M  V30 19739 C 2909.33 -5.59201 1.75185 0
M  V30 19740 N 2909.28 -4.58235 0.662552 0
M  V30 19741 H 2912.12 -8.65116 0.777161 0
M  V30 19742 H 2912.39 -6.90173 0.474152 0
M  V30 19743 H 2911.53 -7.66548 2.79458 0
M  V30 19744 P 2907.56 -8.03563 3.84925 0
M  V30 19745 O 2907.34 -8.85821 5.0569 0
M  V30 19746 O 2906.77 -8.41101 2.65469 0
M  V30 19747 O 2907.31 -6.4965 4.18908 0
M  V30 19748 C 2908.25 -5.81037 5.05421 0
M  V30 19749 C 2907.52 -4.78366 5.89277 0
M  V30 19750 O 2907.31 -3.58302 5.08433 0
M  V30 19751 C 2906.12 -5.17448 6.36119 0
M  V30 19752 O 2905.73 -4.45271 7.53232 0
M  V30 19753 C 2905.24 -4.74639 5.19936 0
M  V30 19754 C 2905.95 -3.49432 4.70418 0
M  V30 19755 N 2905.9 -3.31776 3.22945 0
M  V30 19756 H 2908.74 -6.54213 5.71376 0
M  V30 19757 H 2909.01 -5.30492 4.44033 0
M  V30 19758 H 2908.15 -4.55889 6.76652 0
M  V30 19759 P 2904.18 -4.23843 7.83734 0
M  V30 19760 O 2903.96 -4.19407 9.29784 0
M  V30 19761 O 2903.39 -5.24426 7.09156 0
M  V30 19762 O 2903.93 -2.7935 7.20758 0
M  V30 19763 C 2904.87 -1.72945 7.50224 0
M  V30 19764 C 2904.14 -0.406376 7.57911 0
M  V30 19765 O 2903.93 0.0897726 6.21935 0
M  V30 19766 C 2902.74 -0.438983 8.18724 0
M  V30 19767 O 2902.35 0.825065 8.71101 0
M  V30 19768 C 2901.86 -0.783689 6.99524 0
M  V30 19769 C 2902.57 -0.0619086 5.85867 0
M  V30 19770 N 2902.52 -0.78573 4.56183 0
M  V30 19771 C 2902.37 -0.0292889 3.41887 0
M  V30 19772 O 2902.28 1.18445 3.4419 0
M  V30 19773 N 2902.33 -0.744061 2.23964 0
M  V30 19774 C 2902.42 -2.10932 2.10362 0
M  V30 19775 O 2902.37 -2.64117 0.98825 0
M  V30 19776 C 2902.57 -2.8202 3.34994 0
M  V30 19777 C 2902.68 -4.31095 3.25037 0
M  V30 19778 C 2902.62 -2.15547 4.52261 0
M  V30 19779 H 2905.36 -1.93379 8.46595 0
M  V30 19780 H 2905.63 -1.68132 6.70852 0
M  V30 19781 H 2904.77 0.289041 8.15388 0
M  V30 19782 H 2902.11 0.926847 5.72749 0
M  V30 19783 H 2901.83 -1.86973 6.82036 0
M  V30 19784 H 2900.84 -0.403896 7.13257 0
M  V30 19785 H 2902.67 -1.20585 8.97435 0
M  V30 19786 H 2902.74 -2.71231 5.45042 0
M  V30 19787 H 2901.71 -4.76966 3.49992 0
M  V30 19788 H 2903.45 -4.67047 3.95024 0
M  V30 19789 H 2902.96 -4.58996 2.22312 0
M  V30 19790 H 2902.23 -0.214893 1.39758 0
M  V30 19791 P 2900.8 1.17771 8.83182 0
M  V30 19792 O 2900.58 2.07206 9.98732 0
M  V30 19793 O 2900.01 -0.0743816 8.81969 0
M  V30 19794 O 2900.55 1.97652 7.47304 0
M  V30 19795 C 2901.49 3.01055 7.08599 0
M  V30 19796 C 2900.76 4.12613 6.37049 0
M  V30 19797 O 2900.55 3.72827 4.97879 0
M  V30 19798 C 2899.36 4.45719 6.88164 0
M  V30 19799 O 2898.97 5.7877 6.5624 0
M  V30 19800 C 2898.48 3.47768 6.11991 0
M  V30 19801 C 2899.19 3.39356 4.77615 0
M  V30 19802 N 2899.14 2.04571 4.15244 0
M  V30 19803 C 2898.99 1.98587 2.78314 0
M  V30 19804 O 2898.9 2.98134 2.08835 0
M  V30 19805 N 2898.95 0.714467 2.24925 0
M  V30 19806 C 2899.04 -0.470001 2.94169 0
M  V30 19807 C 2899.19 -0.312541 4.36783 0
M  V30 19808 C 2899.24 0.914512 4.92583 0
M  V30 19809 H 2901.98 3.41169 7.98575 0
M  V30 19810 H 2902.25 2.58295 6.41556 0
M  V30 19811 H 2901.39 5.02657 6.42673 0
M  V30 19812 H 2898.73 4.11637 4.08885 0
M  V30 19813 H 2898.45 2.49626 6.61679 0
M  V30 19814 H 2897.46 3.86566 6.00778 0
M  V30 19815 H 2899.29 4.29943 7.96918 0
M  V30 19816 H 2899.36 1.00937 6.00374 0
M  V30 19817 P 2897.42 6.144 6.45285 0
M  V30 19818 O 2897.2 7.54673 6.86199 0
M  V30 19819 O 2896.63 5.12391 7.179 0
M  V30 19820 O 2897.17 5.99158 4.88404 0
M  V30 19821 C 2898.11 6.60234 3.96415 0
M  V30 19822 C 2897.38 7.08259 2.72856 0
M  V30 19823 O 2897.17 5.9427 1.83651 0
M  V30 19824 C 2895.98 7.64886 2.9555 0
M  V30 19825 O 2895.59 8.53963 1.90717 0
M  V30 19826 C 2895.1 6.4116 2.90739 0
M  V30 19827 C 2895.81 5.55375 1.86963 0
M  V30 19828 N 2895.76 4.09448 2.16152 0
M  V30 19829 H 2898.6 7.45574 4.45629 0
M  V30 19830 H 2898.87 5.85864 3.679 0
M  V30 19831 H 2898.01 7.84412 2.24479 0
M  V30 19832 H 2895.35 5.73457 0.888562 0
M  V30 19833 H 2895.07 5.90877 3.88583 0
M  V30 19834 H 2894.08 6.6596 2.58858 0
M  V30 19835 H 2895.91 8.16339 3.92049 0
M  V30 19836 P 2894.04 8.7635 1.60911 0
M  V30 19837 O 2893.82 10.1388 1.11561 0
M  V30 19838 O 2893.25 8.36503 2.79617 0
M  V30 19839 O 2893.79 7.71806 0.42951 0
M  V30 19840 C 2894.73 7.67148 -0.673689 0
M  V30 19841 C 2894 7.33374 -1.95559 0
M  V30 19842 O 2893.79 5.88721 -2.00726 0
M  V30 19843 C 2892.6 7.92526 -2.10483 0
M  V30 19844 O 2892.21 8.02971 -3.47653 0
M  V30 19845 C 2891.72 6.89602 -1.41652 0
M  V30 19846 C 2892.43 5.59201 -1.75185 0
M  V30 19847 N 2892.38 4.58235 -0.662552 0
M  V30 19848 H 2895.22 8.65116 -0.777161 0
M  V30 19849 H 2895.49 6.90173 -0.474152 0
M  V30 19850 H 2894.63 7.66548 -2.79458 0
M  V30 19851 P 2890.66 8.03563 -3.84925 0
M  V30 19852 O 2890.44 8.85821 -5.0569 0
M  V30 19853 O 2889.87 8.41101 -2.65469 0
M  V30 19854 O 2890.41 6.4965 -4.18908 0
M  V30 19855 C 2891.35 5.81037 -5.05421 0
M  V30 19856 C 2890.62 4.78366 -5.89277 0
M  V30 19857 O 2890.41 3.58302 -5.08433 0
M  V30 19858 C 2889.22 5.17448 -6.36119 0
M  V30 19859 O 2888.83 4.45271 -7.53232 0
M  V30 19860 C 2888.34 4.74639 -5.19936 0
M  V30 19861 C 2889.05 3.49432 -4.70418 0
M  V30 19862 N 2889 3.31776 -3.22945 0
M  V30 19863 H 2891.84 6.54213 -5.71376 0
M  V30 19864 H 2892.11 5.30492 -4.44033 0
M  V30 19865 H 2891.25 4.55889 -6.76652 0
M  V30 19866 P 2887.28 4.23843 -7.83734 0
M  V30 19867 O 2887.06 4.19407 -9.29784 0
M  V30 19868 O 2886.49 5.24426 -7.09156 0
M  V30 19869 O 2887.03 2.7935 -7.20758 0
M  V30 19870 C 2887.97 1.7299 -7.50419 0
M  V30 19871 C 2887.24 0.406376 -7.57911 0
M  V30 19872 O 2887.03 -0.0897726 -6.21935 0
M  V30 19873 C 2885.84 0.447224 -8.1878 0
M  V30 19874 O 2885.45 -0.825065 -8.71101 0
M  V30 19875 C 2884.96 0.783801 -6.99623 0
M  V30 19876 C 2885.67 0.0619192 -5.85967 0
M  V30 19877 N 2885.62 0.790462 -4.56202 0
M  V30 19878 H 2888.46 1.93423 -8.4679 0
M  V30 19879 H 2888.73 1.68852 -6.70877 0
M  V30 19880 H 2887.87 -0.289041 -8.15388 0
M  V30 19881 H 2885.21 -0.927006 -5.72848 0
M  V30 19882 H 2884.93 1.86973 -6.82036 0
M  V30 19883 H 2883.94 0.403953 -7.13357 0
M  V30 19884 H 2885.77 1.20599 -8.97534 0
M  V30 19885 P 2883.9 -1.17771 -8.83182 0
M  V30 19886 O 2883.68 -2.07206 -9.98732 0
M  V30 19887 O 2883.11 0.0743816 -8.81969 0
M  V30 19888 O 2883.65 -1.97652 -7.47304 0
M  V30 19889 C 2884.59 -3.01055 -7.08599 0
M  V30 19890 C 2883.86 -4.12613 -6.37049 0
M  V30 19891 O 2883.65 -3.72827 -4.97879 0
M  V30 19892 C 2882.46 -4.45719 -6.88164 0
M  V30 19893 O 2882.07 -5.7877 -6.5624 0
M  V30 19894 C 2881.58 -3.47768 -6.11991 0
M  V30 19895 C 2882.29 -3.39356 -4.77615 0
M  V30 19896 N 2882.24 -2.04571 -4.15244 0
M  V30 19897 C 2882.09 -1.98587 -2.78314 0
M  V30 19898 O 2882 -2.98134 -2.08835 0
M  V30 19899 N 2882.05 -0.714467 -2.24925 0
M  V30 19900 C 2882.14 0.470001 -2.94169 0
M  V30 19901 O 2882.09 1.55587 -2.35195 0
M  V30 19902 C 2882.29 0.312541 -4.36783 0
M  V30 19903 C 2882.4 1.57711 -5.16352 0
M  V30 19904 C 2882.34 -0.914512 -4.92583 0
M  V30 19905 H 2885.08 -3.41169 -7.98575 0
M  V30 19906 H 2885.35 -2.58295 -6.41556 0
M  V30 19907 H 2884.49 -5.02657 -6.42673 0
M  V30 19908 H 2881.83 -4.11637 -4.08885 0
M  V30 19909 H 2881.55 -2.49626 -6.61679 0
M  V30 19910 H 2880.56 -3.86566 -6.00778 0
M  V30 19911 H 2882.39 -4.29943 -7.96918 0
M  V30 19912 H 2882.46 -1.00937 -6.00374 0
M  V30 19913 H 2881.43 1.80153 -5.63503 0
M  V30 19914 H 2883.17 1.4566 -5.94104 0
M  V30 19915 H 2882.68 2.40664 -4.49645 0
M  V30 19916 H 2881.95 -0.647622 -1.25697 0
M  V30 19917 P 2880.52 -6.144 -6.45285 0
M  V30 19918 O 2880.3 -7.54673 -6.86199 0
M  V30 19919 O 2879.73 -5.12391 -7.179 0
M  V30 19920 O 2880.27 -5.99158 -4.88404 0
M  V30 19921 C 2881.21 -6.60062 -3.96313 0
M  V30 19922 C 2880.48 -7.08259 -2.72856 0
M  V30 19923 O 2880.27 -5.9427 -1.83651 0
M  V30 19924 C 2879.08 -7.65087 -2.94749 0
M  V30 19925 O 2878.69 -8.53963 -1.90717 0
M  V30 19926 C 2878.2 -6.41069 -2.90698 0
M  V30 19927 C 2878.91 -5.5528 -1.86931 0
M  V30 19928 N 2878.86 -4.09575 -2.15696 0
M  V30 19929 C 2878.71 -3.24249 -1.08435 0
M  V30 19930 O 2878.62 -3.63946 0.0628747 0
M  V30 19931 N 2878.67 -1.90009 -1.39973 0
M  V30 19932 C 2878.76 -1.34884 -2.65614 0
M  V30 19933 O 2878.71 -0.123716 -2.81728 0
M  V30 19934 C 2878.91 -2.3145 -3.71736 0
M  V30 19935 C 2879.02 -1.75913 -5.10438 0
M  V30 19936 C 2878.96 -3.63518 -3.44754 0
M  V30 19937 H 2881.7 -7.45402 -4.45526 0
M  V30 19938 H 2881.97 -5.86062 -3.67208 0
M  V30 19939 H 2881.11 -7.84412 -2.24479 0
M  V30 19940 H 2878.45 -5.73358 -0.888409 0
M  V30 19941 H 2878.17 -5.90877 -3.88583 0
M  V30 19942 H 2877.18 -6.65867 -2.58821 0
M  V30 19943 H 2879.01 -8.16248 -3.92006 0
M  V30 19944 H 2879.08 -4.34551 -4.26383 0
M  V30 19945 H 2878.05 -1.85471 -5.61775 0
M  V30 19946 H 2879.79 -2.31364 -5.66257 0
M  V30 19947 H 2879.3 -0.695936 -5.05229 0
M  V30 19948 H 2878.57 -1.26277 -0.63625 0
M  V30 19949 P 2877.14 -8.7635 -1.60911 0
M  V30 19950 O 2876.92 -10.1388 -1.11561 0
M  V30 19951 O 2876.35 -8.36503 -2.79617 0
M  V30 19952 O 2876.89 -7.71806 -0.42951 0
M  V30 19953 C 2877.83 -7.67148 0.673689 0
M  V30 19954 C 2877.1 -7.33374 1.95559 0
M  V30 19955 O 2876.89 -5.88721 2.00726 0
M  V30 19956 C 2875.7 -7.92526 2.10483 0
M  V30 19957 O 2875.31 -8.02971 3.47653 0
M  V30 19958 C 2874.82 -6.89602 1.41652 0
M  V30 19959 C 2875.53 -5.59201 1.75185 0
M  V30 19960 N 2875.48 -4.58301 0.657969 0
M  V30 19961 C 2875.56 -4.79019 -0.692603 0
M  V30 19962 N 2875.49 -3.69736 -1.38998 0
M  V30 19963 C 2875.34 -2.70474 -0.438135 0
M  V30 19964 C 2875.21 -1.30327 -0.538142 0
M  V30 19965 N 2875.2 -0.64304 -1.69192 0
M  V30 19966 N 2875.09 -0.611027 0.605183 0
M  V30 19967 C 2875.1 -1.27002 1.75953 0
M  V30 19968 N 2875.22 -2.56038 1.98546 0
M  V30 19969 C 2875.34 -3.22681 0.822541 0
M  V30 19970 H 2878.32 -8.65116 0.777161 0
M  V30 19971 H 2878.59 -6.9022 0.46725 0
M  V30 19972 H 2877.73 -7.66548 2.79458 0
M  V30 19973 H 2875.07 -5.16165 2.65183 0
M  V30 19974 H 2874.79 -7.06433 0.329384 0
M  V30 19975 H 2873.8 -6.90926 1.82021 0
M  V30 19976 H 2875.63 -8.90873 1.62657 0
M  V30 19977 H 2875.68 -5.77785 -1.13874 0
M  V30 19978 H 2875.29 -1.15585 -2.57991 0
M  V30 19979 H 2875.11 0.382989 -1.69835 0
M  V30 19980 H 2875 -0.653331 2.64449 0
M  V30 19981 P 2873.76 -8.03563 3.84925 0
M  V30 19982 O 2873.54 -8.85821 5.0569 0
M  V30 19983 O 2872.97 -8.41101 2.65469 0
M  V30 19984 O 2873.51 -6.49734 4.18962 0
M  V30 19985 C 2874.45 -5.81037 5.05421 0
M  V30 19986 C 2873.72 -4.79018 5.88876 0
M  V30 19987 O 2873.51 -3.58359 5.08515 0
M  V30 19988 C 2872.32 -5.17448 6.36119 0
M  V30 19989 O 2871.93 -4.45322 7.53318 0
M  V30 19990 C 2871.44 -4.74639 5.19936 0
M  V30 19991 C 2872.15 -3.49432 4.70418 0
M  V30 19992 N 2872.1 -3.31776 3.22945 0
M  V30 19993 C 2871.95 -2.02742 2.72939 0
M  V30 19994 O 2871.86 -1.08301 3.52749 0
M  V30 19995 N 2871.9 -1.96117 1.22063 0
M  V30 19996 C 2872 -2.8878 0.551566 0
M  V30 19997 N 2871.95 -2.65609 -0.750198 0
M  V30 19998 C 2872.15 -4.22457 1.03707 0
M  V30 19999 C 2872.2 -4.37979 2.39113 0
M  V30 20000 H 2874.94 -6.54138 5.7131 0
M  V30 20001 H 2875.21 -5.30492 4.44033 0
M  V30 20002 H 2874.35 -4.55945 6.76735 0
M  V30 20003 H 2871.69 -2.6176 5.18021 0
M  V30 20004 H 2871.41 -5.52233 4.41941 0
M  V30 20005 H 2870.42 -4.52045 5.53452 0
M  V30 20006 H 2872.25 -6.25124 6.55234 0
M  V30 20007 H 2872.33 -5.37936 2.80552 0
M  V30 20008 H 2872.22 -5.07528 0.359553 0
M  V30 20009 H 2871.84 -1.69403 -1.09847 0
M  V30 20010 H 2872.03 -3.43701 -1.41792 0
M  V30 20011 P 2870.38 -4.23843 7.83734 0
M  V30 20012 O 2870.16 -4.19407 9.29784 0
M  V30 20013 O 2869.59 -5.24426 7.09156 0
M  V30 20014 O 2870.13 -2.7935 7.20758 0
M  V30 20015 C 2871.07 -1.7299 7.50419 0
M  V30 20016 C 2870.34 -0.406376 7.57911 0
M  V30 20017 O 2870.13 0.0897726 6.21935 0
M  V30 20018 C 2868.94 -0.447224 8.1878 0
M  V30 20019 O 2868.55 0.825065 8.71101 0
M  V30 20020 C 2868.06 -0.783801 6.99623 0
M  V30 20021 C 2868.77 -0.0619192 5.85967 0
M  V30 20022 N 2868.72 -0.7859 4.56281 0
M  V30 20023 H 2871.56 -1.93423 8.4679 0
M  V30 20024 H 2871.83 -1.68181 6.71046 0
M  V30 20025 H 2870.97 0.289041 8.15388 0
M  V30 20026 P 2867 1.17771 8.83182 0
M  V30 20027 O 2866.78 2.07206 9.98732 0
M  V30 20028 O 2866.21 -0.0743816 8.81969 0
M  V30 20029 O 2866.75 1.97652 7.47304 0
M  V30 20030 C 2867.69 3.01133 7.08783 0
M  V30 20031 C 2866.96 4.12613 6.37049 0
M  V30 20032 O 2866.75 3.72827 4.97879 0
M  V30 20033 C 2865.56 4.45085 6.88694 0
M  V30 20034 O 2865.17 5.7877 6.5624 0
M  V30 20035 C 2864.68 3.47817 6.12078 0
M  V30 20036 C 2865.39 3.39414 4.77697 0
M  V30 20037 N 2865.34 2.04615 4.15333 0
M  V30 20038 H 2868.18 3.41248 7.98759 0
M  V30 20039 H 2868.45 2.5837 6.41742 0
M  V30 20040 H 2867.59 5.02657 6.42673 0
M  V30 20041 P 2863.62 6.144 6.45285 0
M  V30 20042 O 2863.4 7.54673 6.86199 0
M  V30 20043 O 2862.83 5.12391 7.179 0
M  V30 20044 O 2863.37 5.99158 4.88404 0
M  V30 20045 C 2864.31 6.60234 3.96415 0
M  V30 20046 C 2863.58 7.08259 2.72856 0
M  V30 20047 O 2863.37 5.9427 1.83651 0
M  V30 20048 C 2862.18 7.64886 2.9555 0
M  V30 20049 O 2861.79 8.53963 1.90717 0
M  V30 20050 C 2861.3 6.4116 2.90739 0
M  V30 20051 C 2862.01 5.55375 1.86963 0
M  V30 20052 N 2861.96 4.09664 2.15742 0
M  V30 20053 H 2864.8 7.45574 4.45629 0
M  V30 20054 H 2865.07 5.86232 3.67314 0
M  V30 20055 H 2864.21 7.84412 2.24479 0
M  V30 20056 P 2860.24 8.7635 1.60911 0
M  V30 20057 O 2860.02 10.1388 1.11561 0
M  V30 20058 O 2859.45 8.36503 2.79617 0
M  V30 20059 O 2859.99 7.71806 0.42951 0
M  V30 20060 C 2860.93 7.66948 -0.673514 0
M  V30 20061 C 2860.2 7.33374 -1.95559 0
M  V30 20062 O 2859.99 5.88721 -2.00726 0
M  V30 20063 C 2858.8 7.92218 -2.1125 0
M  V30 20064 O 2858.41 8.02971 -3.47653 0
M  V30 20065 C 2857.92 6.89504 -1.41631 0
M  V30 20066 C 2858.63 5.59106 -1.75155 0
M  V30 20067 N 2858.58 4.58136 -0.662409 0
M  V30 20068 C 2858.43 3.26059 -1.02863 0
M  V30 20069 O 2858.34 2.90743 -2.19009 0
M  V30 20070 N 2858.39 2.35995 0.0155585 0
M  V30 20071 C 2858.48 2.65248 1.35603 0
M  V30 20072 O 2858.43 1.75605 2.20651 0
M  V30 20073 C 2858.63 4.05747 1.64698 0
M  V30 20074 C 2858.74 4.42345 3.09553 0
M  V30 20075 C 2858.68 4.96734 0.652411 0
M  V30 20076 H 2861.42 8.64917 -0.776982 0
M  V30 20077 H 2861.69 6.89974 -0.474015 0
M  V30 20078 H 2860.83 7.66548 -2.79458 0
M  V30 20079 H 2858.17 5.16076 -2.65138 0
M  V30 20080 H 2857.89 7.06433 -0.329384 0
M  V30 20081 H 2856.9 6.90829 -1.81996 0
M  V30 20082 H 2858.73 8.90774 -1.62639 0
M  V30 20083 H 2858.81 6.02181 0.895285 0
M  V30 20084 H 2857.78 4.80252 3.45468 0
M  V30 20085 H 2859.51 5.20015 3.22119 0
M  V30 20086 H 2859.02 3.53269 3.67833 0
M  V30 20087 H 2858.29 1.39558 -0.227499 0
M  V30 20088 P 2856.86 8.03563 -3.84925 0
M  V30 20089 O 2856.64 8.85821 -5.0569 0
M  V30 20090 O 2856.07 8.41101 -2.65469 0
M  V30 20091 O 2856.61 6.4965 -4.18908 0
M  V30 20092 C 2857.55 5.81037 -5.05421 0
M  V30 20093 C 2856.82 4.78366 -5.89277 0
M  V30 20094 O 2856.61 3.58302 -5.08433 0
M  V30 20095 C 2855.42 5.17448 -6.36119 0
M  V30 20096 O 2855.03 4.45271 -7.53232 0
M  V30 20097 C 2854.54 4.74639 -5.19936 0
M  V30 20098 C 2855.25 3.49432 -4.70418 0
M  V30 20099 N 2855.2 3.31776 -3.22945 0
M  V30 20100 H 2858.04 6.54213 -5.71376 0
M  V30 20101 H 2858.31 5.30492 -4.44033 0
M  V30 20102 H 2857.45 4.55889 -6.76652 0
M  V30 20103 P 2853.48 4.23843 -7.83734 0
M  V30 20104 O 2853.26 4.19407 -9.29784 0
M  V30 20105 O 2852.69 5.24426 -7.09156 0
M  V30 20106 O 2853.23 2.7935 -7.20758 0
M  V30 20107 C 2854.17 1.7299 -7.50419 0
M  V30 20108 C 2853.44 0.406376 -7.57911 0
M  V30 20109 O 2853.23 -0.0897726 -6.21935 0
M  V30 20110 C 2852.04 0.447224 -8.1878 0
M  V30 20111 O 2851.65 -0.825065 -8.71101 0
M  V30 20112 C 2851.16 0.783801 -6.99623 0
M  V30 20113 C 2851.87 0.0619192 -5.85967 0
M  V30 20114 N 2851.82 0.7859 -4.56281 0
M  V30 20115 H 2854.66 1.93423 -8.4679 0
M  V30 20116 H 2854.93 1.68181 -6.71046 0
M  V30 20117 H 2854.07 -0.289041 -8.15388 0
M  V30 20118 P 2850.1 -1.17771 -8.83182 0
M  V30 20119 O 2849.88 -2.07206 -9.98732 0
M  V30 20120 O 2849.31 0.0743816 -8.81969 0
M  V30 20121 O 2849.85 -1.97652 -7.47304 0
M  V30 20122 C 2850.79 -3.01055 -7.08599 0
M  V30 20123 C 2850.06 -4.12613 -6.37049 0
M  V30 20124 O 2849.85 -3.72827 -4.97879 0
M  V30 20125 C 2848.66 -4.45719 -6.88164 0
M  V30 20126 O 2848.27 -5.7877 -6.5624 0
M  V30 20127 C 2847.78 -3.47768 -6.11991 0
M  V30 20128 C 2848.49 -3.39356 -4.77615 0
M  V30 20129 N 2848.44 -2.04571 -4.15244 0
M  V30 20130 C 2848.29 -1.98587 -2.78314 0
M  V30 20131 O 2848.2 -2.98134 -2.08835 0
M  V30 20132 N 2848.25 -0.714467 -2.24925 0
M  V30 20133 C 2848.34 0.470001 -2.94169 0
M  V30 20134 O 2848.29 1.55587 -2.35195 0
M  V30 20135 C 2848.49 0.312541 -4.36783 0
M  V30 20136 C 2848.6 1.57711 -5.16352 0
M  V30 20137 C 2848.54 -0.914512 -4.92583 0
M  V30 20138 H 2851.28 -3.41169 -7.98575 0
M  V30 20139 H 2851.55 -2.58295 -6.41556 0
M  V30 20140 H 2850.69 -5.02657 -6.42673 0
M  V30 20141 H 2848.03 -4.11637 -4.08885 0
M  V30 20142 H 2847.75 -2.49626 -6.61679 0
M  V30 20143 H 2846.76 -3.86566 -6.00778 0
M  V30 20144 H 2848.59 -4.29943 -7.96918 0
M  V30 20145 H 2848.67 -1.00937 -6.00374 0
M  V30 20146 H 2847.64 1.80153 -5.63503 0
M  V30 20147 H 2849.37 1.4566 -5.94104 0
M  V30 20148 H 2848.88 2.40664 -4.49645 0
M  V30 20149 H 2848.15 -0.647622 -1.25697 0
M  V30 20150 P 2846.72 -6.144 -6.45285 0
M  V30 20151 O 2846.5 -7.54673 -6.86199 0
M  V30 20152 O 2845.93 -5.12391 -7.179 0
M  V30 20153 O 2846.47 -5.99158 -4.88404 0
M  V30 20154 C 2847.41 -6.60062 -3.96313 0
M  V30 20155 C 2846.68 -7.08259 -2.72856 0
M  V30 20156 O 2846.47 -5.9427 -1.83651 0
M  V30 20157 C 2845.28 -7.65087 -2.94749 0
M  V30 20158 O 2844.89 -8.53963 -1.90717 0
M  V30 20159 C 2844.4 -6.41069 -2.90698 0
M  V30 20160 C 2845.11 -5.5528 -1.86931 0
M  V30 20161 N 2845.06 -4.09575 -2.15696 0
M  V30 20162 C 2844.91 -3.24249 -1.08435 0
M  V30 20163 O 2844.82 -3.63946 0.0628747 0
M  V30 20164 N 2844.87 -1.90009 -1.39973 0
M  V30 20165 C 2844.96 -1.34884 -2.65614 0
M  V30 20166 O 2844.91 -0.123716 -2.81728 0
M  V30 20167 C 2845.11 -2.3145 -3.71736 0
M  V30 20168 C 2845.22 -1.75913 -5.10438 0
M  V30 20169 C 2845.16 -3.63518 -3.44754 0
M  V30 20170 H 2847.9 -7.45402 -4.45526 0
M  V30 20171 H 2848.17 -5.86062 -3.67208 0
M  V30 20172 H 2847.31 -7.84412 -2.24479 0
M  V30 20173 H 2844.65 -5.73358 -0.888409 0
M  V30 20174 H 2844.37 -5.90877 -3.88583 0
M  V30 20175 H 2843.38 -6.65867 -2.58821 0
M  V30 20176 H 2845.21 -8.16248 -3.92006 0
M  V30 20177 H 2845.29 -4.34551 -4.26383 0
M  V30 20178 H 2844.26 -1.85471 -5.61775 0
M  V30 20179 H 2845.99 -2.31364 -5.66257 0
M  V30 20180 H 2845.5 -0.695936 -5.05229 0
M  V30 20181 H 2844.77 -1.26277 -0.63625 0
M  V30 20182 P 2843.34 -8.7635 -1.60911 0
M  V30 20183 O 2843.12 -10.1388 -1.11561 0
M  V30 20184 O 2842.55 -8.36503 -2.79617 0
M  V30 20185 O 2843.09 -7.71806 -0.42951 0
M  V30 20186 C 2844.03 -7.66948 0.673514 0
M  V30 20187 C 2843.3 -7.33374 1.95559 0
M  V30 20188 O 2843.09 -5.88721 2.00726 0
M  V30 20189 C 2841.9 -7.92218 2.1125 0
M  V30 20190 O 2841.51 -8.02971 3.47653 0
M  V30 20191 C 2841.02 -6.89504 1.41631 0
M  V30 20192 C 2841.73 -5.59106 1.75155 0
M  V30 20193 N 2841.68 -4.58136 0.662409 0
M  V30 20194 C 2841.53 -3.26059 1.02863 0
M  V30 20195 O 2841.44 -2.90743 2.19009 0
M  V30 20196 N 2841.49 -2.35995 -0.0155585 0
M  V30 20197 C 2841.58 -2.65248 -1.35603 0
M  V30 20198 C 2841.73 -4.05747 -1.64698 0
M  V30 20199 C 2841.78 -4.96734 -0.652411 0
M  V30 20200 H 2844.52 -8.64917 0.776982 0
M  V30 20201 H 2844.79 -6.89974 0.474015 0
M  V30 20202 H 2843.93 -7.66548 2.79458 0
M  V30 20203 H 2841.27 -5.16076 2.65138 0
M  V30 20204 H 2840.99 -7.06433 0.329384 0
M  V30 20205 H 2840 -6.90829 1.81996 0
M  V30 20206 H 2841.83 -8.90774 1.62639 0
M  V30 20207 H 2841.91 -6.02181 -0.895285 0
M  V30 20208 P 2839.96 -8.03563 3.84925 0
M  V30 20209 O 2839.74 -8.85821 5.0569 0
M  V30 20210 O 2839.17 -8.41101 2.65469 0
M  V30 20211 O 2839.71 -6.4965 4.18908 0
M  V30 20212 C 2840.65 -5.81037 5.05421 0
M  V30 20213 C 2839.92 -4.78366 5.89277 0
M  V30 20214 O 2839.71 -3.58302 5.08433 0
M  V30 20215 C 2838.52 -5.17448 6.36119 0
M  V30 20216 O 2838.13 -4.45271 7.53232 0
M  V30 20217 C 2837.64 -4.74639 5.19936 0
M  V30 20218 C 2838.35 -3.49432 4.70418 0
M  V30 20219 N 2838.3 -3.31776 3.22945 0
M  V30 20220 H 2841.14 -6.54213 5.71376 0
M  V30 20221 H 2841.41 -5.30492 4.44033 0
M  V30 20222 H 2840.55 -4.55889 6.76652 0
M  V30 20223 P 2836.58 -4.23843 7.83734 0
M  V30 20224 O 2836.36 -4.19407 9.29784 0
M  V30 20225 O 2835.79 -5.24426 7.09156 0
M  V30 20226 O 2836.33 -2.7935 7.20758 0
M  V30 20227 C 2837.27 -1.72945 7.50224 0
M  V30 20228 C 2836.54 -0.406376 7.57911 0
M  V30 20229 O 2836.33 0.0897726 6.21935 0
M  V30 20230 C 2835.14 -0.438983 8.18724 0
M  V30 20231 O 2834.75 0.825065 8.71101 0
M  V30 20232 C 2834.26 -0.783689 6.99524 0
M  V30 20233 C 2834.97 -0.0619086 5.85867 0
M  V30 20234 N 2834.92 -0.78573 4.56183 0
M  V30 20235 C 2834.77 -0.0292889 3.41887 0
M  V30 20236 O 2834.68 1.18445 3.4419 0
M  V30 20237 N 2834.73 -0.744061 2.23964 0
M  V30 20238 C 2834.82 -2.10932 2.10362 0
M  V30 20239 O 2834.77 -2.64117 0.98825 0
M  V30 20240 C 2834.97 -2.8202 3.34994 0
M  V30 20241 C 2835.08 -4.31095 3.25037 0
M  V30 20242 C 2835.02 -2.15547 4.52261 0
M  V30 20243 H 2837.76 -1.93379 8.46595 0
M  V30 20244 H 2838.03 -1.68132 6.70852 0
M  V30 20245 H 2837.17 0.289041 8.15388 0
M  V30 20246 H 2834.51 0.926847 5.72749 0
M  V30 20247 H 2834.23 -1.86973 6.82036 0
M  V30 20248 H 2833.24 -0.403896 7.13257 0
M  V30 20249 H 2835.07 -1.20585 8.97435 0
M  V30 20250 H 2835.15 -2.71231 5.45042 0
M  V30 20251 H 2834.12 -4.76966 3.49992 0
M  V30 20252 H 2835.85 -4.67047 3.95024 0
M  V30 20253 H 2835.36 -4.58996 2.22312 0
M  V30 20254 H 2834.63 -0.214893 1.39758 0
M  V30 20255 P 2833.2 1.17771 8.83182 0
M  V30 20256 O 2832.98 2.07206 9.98732 0
M  V30 20257 O 2832.41 -0.0743816 8.81969 0
M  V30 20258 O 2832.95 1.97652 7.47304 0
M  V30 20259 C 2833.89 3.01055 7.08599 0
M  V30 20260 C 2833.16 4.12613 6.37049 0
M  V30 20261 O 2832.95 3.72827 4.97879 0
M  V30 20262 C 2831.76 4.45719 6.88164 0
M  V30 20263 O 2831.37 5.7877 6.5624 0
M  V30 20264 C 2830.88 3.47768 6.11991 0
M  V30 20265 C 2831.59 3.39356 4.77615 0
M  V30 20266 N 2831.54 2.04571 4.15244 0
M  V30 20267 C 2831.39 1.98587 2.78314 0
M  V30 20268 O 2831.3 2.98134 2.08835 0
M  V30 20269 N 2831.35 0.714467 2.24925 0
M  V30 20270 C 2831.44 -0.470001 2.94169 0
M  V30 20271 O 2831.39 -1.55587 2.35195 0
M  V30 20272 C 2831.59 -0.312541 4.36783 0
M  V30 20273 C 2831.7 -1.57711 5.16352 0
M  V30 20274 C 2831.64 0.914512 4.92583 0
M  V30 20275 H 2834.38 3.41169 7.98575 0
M  V30 20276 H 2834.65 2.58295 6.41556 0
M  V30 20277 H 2833.79 5.02657 6.42673 0
M  V30 20278 H 2831.13 4.11637 4.08885 0
M  V30 20279 H 2830.85 2.49626 6.61679 0
M  V30 20280 H 2829.86 3.86566 6.00778 0
M  V30 20281 H 2831.69 4.29943 7.96918 0
M  V30 20282 H 2831.77 1.00937 6.00374 0
M  V30 20283 H 2830.74 -1.80153 5.63503 0
M  V30 20284 H 2832.47 -1.4566 5.94104 0
M  V30 20285 H 2831.98 -2.40664 4.49645 0
M  V30 20286 H 2831.25 0.647622 1.25697 0
M  V30 20287 P 2829.82 6.144 6.45285 0
M  V30 20288 O 2829.6 7.54673 6.86199 0
M  V30 20289 O 2829.03 5.12391 7.179 0
M  V30 20290 O 2829.57 5.99158 4.88404 0
M  V30 20291 C 2830.51 6.60062 3.96313 0
M  V30 20292 C 2829.78 7.08259 2.72856 0
M  V30 20293 O 2829.57 5.9427 1.83651 0
M  V30 20294 C 2828.38 7.65087 2.94749 0
M  V30 20295 O 2827.99 8.53963 1.90717 0
M  V30 20296 C 2827.5 6.41069 2.90698 0
M  V30 20297 C 2828.21 5.5528 1.86931 0
M  V30 20298 N 2828.16 4.09575 2.15696 0
M  V30 20299 C 2828.01 3.24249 1.08435 0
M  V30 20300 O 2827.92 3.63946 -0.0628747 0
M  V30 20301 N 2827.97 1.90009 1.39973 0
M  V30 20302 C 2828.06 1.34884 2.65614 0
M  V30 20303 O 2828.01 0.123716 2.81728 0
M  V30 20304 C 2828.21 2.3145 3.71736 0
M  V30 20305 C 2828.32 1.75913 5.10438 0
M  V30 20306 C 2828.26 3.63518 3.44754 0
M  V30 20307 H 2831 7.45402 4.45526 0
M  V30 20308 H 2831.27 5.86062 3.67208 0
M  V30 20309 H 2830.41 7.84412 2.24479 0
M  V30 20310 H 2827.75 5.73358 0.888409 0
M  V30 20311 H 2827.47 5.90877 3.88583 0
M  V30 20312 H 2826.48 6.65867 2.58821 0
M  V30 20313 H 2828.31 8.16248 3.92006 0
M  V30 20314 H 2828.39 4.34551 4.26383 0
M  V30 20315 H 2827.36 1.85471 5.61775 0
M  V30 20316 H 2829.09 2.31364 5.66257 0
M  V30 20317 H 2828.6 0.695936 5.05229 0
M  V30 20318 H 2827.87 1.26277 0.63625 0
M  V30 20319 P 2826.44 8.7635 1.60911 0
M  V30 20320 O 2826.22 10.1388 1.11561 0
M  V30 20321 O 2825.65 8.36503 2.79617 0
M  V30 20322 O 2826.19 7.71806 0.42951 0
M  V30 20323 C 2827.13 7.66948 -0.673514 0
M  V30 20324 C 2826.4 7.33374 -1.95559 0
M  V30 20325 O 2826.19 5.88721 -2.00726 0
M  V30 20326 C 2825 7.92218 -2.1125 0
M  V30 20327 O 2824.61 8.02971 -3.47653 0
M  V30 20328 C 2824.12 6.89504 -1.41631 0
M  V30 20329 C 2824.83 5.59106 -1.75155 0
M  V30 20330 N 2824.78 4.58136 -0.662409 0
M  V30 20331 C 2824.63 3.26059 -1.02863 0
M  V30 20332 O 2824.54 2.90743 -2.19009 0
M  V30 20333 N 2824.59 2.35995 0.0155585 0
M  V30 20334 C 2824.68 2.65248 1.35603 0
M  V30 20335 C 2824.83 4.05747 1.64698 0
M  V30 20336 C 2824.88 4.96734 0.652411 0
M  V30 20337 H 2827.62 8.64917 -0.776982 0
M  V30 20338 H 2827.89 6.89974 -0.474015 0
M  V30 20339 H 2827.03 7.66548 -2.79458 0
M  V30 20340 H 2824.37 5.16076 -2.65138 0
M  V30 20341 H 2824.09 7.06433 -0.329384 0
M  V30 20342 H 2823.1 6.90829 -1.81996 0
M  V30 20343 H 2824.93 8.90774 -1.62639 0
M  V30 20344 H 2825.01 6.02181 0.895285 0
M  V30 20345 P 2823.06 8.03563 -3.84925 0
M  V30 20346 O 2822.84 8.85821 -5.0569 0
M  V30 20347 O 2822.27 8.41101 -2.65469 0
M  V30 20348 O 2822.81 6.4965 -4.18908 0
M  V30 20349 C 2823.75 5.80886 -5.05289 0
M  V30 20350 C 2823.02 4.78366 -5.89277 0
M  V30 20351 O 2822.81 3.58302 -5.08433 0
M  V30 20352 C 2821.62 5.16748 -6.36559 0
M  V30 20353 O 2821.23 4.45271 -7.53232 0
M  V30 20354 C 2820.74 4.74572 -5.19863 0
M  V30 20355 C 2821.45 3.49373 -4.70338 0
M  V30 20356 N 2821.4 3.31704 -3.22876 0
M  V30 20357 C 2821.25 2.03326 -2.74871 0
M  V30 20358 O 2821.16 1.06486 -3.48076 0
M  V30 20359 N 2821.21 1.91838 -1.37456 0
M  V30 20360 C 2821.3 2.94295 -0.462035 0
M  V30 20361 C 2821.45 4.25064 -1.05249 0
M  V30 20362 C 2821.5 4.40214 -2.39192 0
M  V30 20363 H 2824.24 6.54063 -5.71245 0
M  V30 20364 H 2824.51 5.30339 -4.43905 0
M  V30 20365 H 2823.65 4.55889 -6.76652 0
M  V30 20366 H 2820.99 2.6167 -5.17842 0
M  V30 20367 H 2820.71 5.52155 -4.41878 0
M  V30 20368 H 2819.72 4.51918 -5.53297 0
M  V30 20369 H 2821.55 6.25055 -6.55162 0
M  V30 20370 H 2821.63 5.39798 -2.81523 0
M  V30 20371 P 2819.68 4.23843 -7.83734 0
M  V30 20372 O 2819.46 4.19407 -9.29784 0
M  V30 20373 O 2818.89 5.24426 -7.09156 0
M  V30 20374 O 2819.43 2.7935 -7.20758 0
M  V30 20375 C 2820.37 1.72945 -7.50224 0
M  V30 20376 C 2819.64 0.406376 -7.57911 0
M  V30 20377 O 2819.43 -0.0897726 -6.21935 0
M  V30 20378 C 2818.24 0.438983 -8.18724 0
M  V30 20379 O 2817.85 -0.825065 -8.71101 0
M  V30 20380 C 2817.36 0.783689 -6.99524 0
M  V30 20381 C 2818.07 0.0619086 -5.85867 0
M  V30 20382 N 2818.02 0.78573 -4.56183 0
M  V30 20383 C 2817.87 0.0292889 -3.41887 0
M  V30 20384 O 2817.78 -1.18445 -3.4419 0
M  V30 20385 N 2817.83 0.744061 -2.23964 0
M  V30 20386 C 2817.92 2.10932 -2.10362 0
M  V30 20387 O 2817.87 2.64117 -0.98825 0
M  V30 20388 C 2818.07 2.8202 -3.34994 0
M  V30 20389 C 2818.18 4.31095 -3.25037 0
M  V30 20390 C 2818.12 2.15547 -4.52261 0
M  V30 20391 H 2820.86 1.93379 -8.46595 0
M  V30 20392 H 2821.13 1.68132 -6.70852 0
M  V30 20393 H 2820.27 -0.289041 -8.15388 0
M  V30 20394 H 2817.61 -0.926847 -5.72749 0
M  V30 20395 H 2817.33 1.86973 -6.82036 0
M  V30 20396 H 2816.34 0.403896 -7.13257 0
M  V30 20397 H 2818.17 1.20585 -8.97435 0
M  V30 20398 H 2818.25 2.71231 -5.45042 0
M  V30 20399 H 2817.22 4.76966 -3.49992 0
M  V30 20400 H 2818.95 4.67047 -3.95024 0
M  V30 20401 H 2818.46 4.58996 -2.22312 0
M  V30 20402 H 2817.73 0.214893 -1.39758 0
M  V30 20403 P 2816.3 -1.17771 -8.83182 0
M  V30 20404 O 2816.08 -2.07206 -9.98732 0
M  V30 20405 O 2815.51 0.0743816 -8.81969 0
M  V30 20406 O 2816.05 -1.97678 -7.474 0
M  V30 20407 C 2816.99 -3.01133 -7.08783 0
M  V30 20408 C 2816.26 -4.1203 -6.37546 0
M  V30 20409 O 2816.05 -3.72887 -4.9796 0
M  V30 20410 C 2814.86 -4.45085 -6.88694 0
M  V30 20411 O 2814.47 -5.78836 -6.56315 0
M  V30 20412 C 2813.98 -3.47817 -6.12078 0
M  V30 20413 C 2814.69 -3.39414 -4.77697 0
M  V30 20414 N 2814.64 -2.04615 -4.15333 0
M  V30 20415 C 2814.49 -1.96929 -2.77162 0
M  V30 20416 O 2814.4 -3.02017 -2.12006 0
M  V30 20417 N 2814.44 -0.55485 -2.24237 0
M  V30 20418 C 2814.54 0.367808 -2.9169 0
M  V30 20419 N 2814.49 1.53426 -2.29427 0
M  V30 20420 C 2814.69 0.319148 -4.33828 0
M  V30 20421 C 2814.74 -0.920672 -4.90433 0
M  V30 20422 H 2817.48 -3.41209 -7.98667 0
M  V30 20423 H 2817.75 -2.5837 -6.41742 0
M  V30 20424 H 2816.89 -5.02718 -6.42752 0
M  V30 20425 H 2814.23 -4.11779 -4.09026 0
M  V30 20426 H 2813.95 -2.49661 -6.61772 0
M  V30 20427 H 2812.96 -3.86674 -6.00946 0
M  V30 20428 H 2814.79 -4.29991 -7.97006 0
M  V30 20429 H 2814.87 -1.00589 -5.98303 0
M  V30 20430 H 2814.76 1.22639 -4.93799 0
M  V30 20431 H 2814.38 1.56819 -1.27167 0
M  V30 20432 H 2814.57 2.41062 -2.83063 0
M  V30 20433 P 2812.92 -6.144 -6.45285 0
M  V30 20434 O 2812.7 -7.54673 -6.86199 0
M  V30 20435 O 2812.13 -5.12391 -7.179 0
M  V30 20436 O 2812.67 -5.99158 -4.88404 0
M  V30 20437 C 2813.61 -6.60234 -3.96415 0
M  V30 20438 C 2812.88 -7.08259 -2.72856 0
M  V30 20439 O 2812.67 -5.9427 -1.83651 0
M  V30 20440 C 2811.48 -7.64886 -2.9555 0
M  V30 20441 O 2811.09 -8.53963 -1.90717 0
M  V30 20442 C 2810.6 -6.4116 -2.90739 0
M  V30 20443 C 2811.31 -5.55375 -1.86963 0
M  V30 20444 N 2811.26 -4.09664 -2.15742 0
M  V30 20445 H 2814.1 -7.45574 -4.45629 0
M  V30 20446 H 2814.37 -5.86232 -3.67314 0
M  V30 20447 H 2813.51 -7.84412 -2.24479 0
M  V30 20448 P 2809.54 -8.7635 -1.60911 0
M  V30 20449 O 2809.32 -10.1388 -1.11561 0
M  V30 20450 O 2808.75 -8.36503 -2.79617 0
M  V30 20451 O 2809.29 -7.71806 -0.42951 0
M  V30 20452 C 2810.23 -7.67148 0.673689 0
M  V30 20453 C 2809.5 -7.33374 1.95559 0
M  V30 20454 O 2809.29 -5.88721 2.00726 0
M  V30 20455 C 2808.1 -7.92526 2.10483 0
M  V30 20456 O 2807.71 -8.02971 3.47653 0
M  V30 20457 C 2807.22 -6.89602 1.41652 0
M  V30 20458 C 2807.93 -5.59201 1.75185 0
M  V30 20459 N 2807.88 -4.58301 0.657969 0
M  V30 20460 H 2810.72 -8.65116 0.777161 0
M  V30 20461 H 2810.99 -6.9022 0.46725 0
M  V30 20462 H 2810.13 -7.66548 2.79458 0
M  V30 20463 H 2807.47 -5.16165 2.65183 0
M  V30 20464 H 2807.19 -7.06433 0.329384 0
M  V30 20465 H 2806.2 -6.90926 1.82021 0
M  V30 20466 H 2808.03 -8.90873 1.62657 0
M  V30 20467 P 2806.16 -8.03563 3.84925 0
M  V30 20468 O 2805.94 -8.85821 5.0569 0
M  V30 20469 O 2805.37 -8.41101 2.65469 0
M  V30 20470 O 2805.91 -6.4965 4.18908 0
M  V30 20471 C 2806.85 -5.81037 5.05421 0
M  V30 20472 C 2806.12 -4.78366 5.89277 0
M  V30 20473 O 2805.91 -3.58302 5.08433 0
M  V30 20474 C 2804.72 -5.17448 6.36119 0
M  V30 20475 O 2804.33 -4.45271 7.53232 0
M  V30 20476 C 2803.84 -4.74639 5.19936 0
M  V30 20477 C 2804.55 -3.49432 4.70418 0
M  V30 20478 N 2804.5 -3.32099 3.22613 0
M  V30 20479 H 2807.34 -6.54213 5.71376 0
M  V30 20480 H 2807.61 -5.30936 4.43503 0
M  V30 20481 H 2806.75 -4.55889 6.76652 0
M  V30 20482 H 2804.09 -2.61715 5.17932 0
M  V30 20483 H 2803.81 -5.52155 4.41878 0
M  V30 20484 H 2802.82 -4.51981 5.53374 0
M  V30 20485 H 2804.65 -6.25124 6.55234 0
M  V30 20486 P 2802.78 -4.23843 7.83734 0
M  V30 20487 O 2802.56 -4.19407 9.29784 0
M  V30 20488 O 2801.99 -5.24426 7.09156 0
M  V30 20489 O 2802.53 -2.7935 7.20758 0
M  V30 20490 C 2803.47 -1.7299 7.50419 0
M  V30 20491 C 2802.74 -0.406376 7.57911 0
M  V30 20492 O 2802.53 0.0897726 6.21935 0
M  V30 20493 C 2801.34 -0.447224 8.1878 0
M  V30 20494 O 2800.95 0.825065 8.71101 0
M  V30 20495 C 2800.46 -0.783801 6.99623 0
M  V30 20496 C 2801.17 -0.0619192 5.85967 0
M  V30 20497 N 2801.12 -0.790462 4.56202 0
M  V30 20498 H 2803.96 -1.93423 8.4679 0
M  V30 20499 H 2804.23 -1.68852 6.70877 0
M  V30 20500 H 2803.37 0.289041 8.15388 0
M  V30 20501 H 2800.71 0.927006 5.72848 0
M  V30 20502 H 2800.43 -1.86973 6.82036 0
M  V30 20503 H 2799.44 -0.403953 7.13357 0
M  V30 20504 H 2801.27 -1.20599 8.97534 0
M  V30 20505 P 2799.4 1.17771 8.83182 0
M  V30 20506 O 2799.18 2.07206 9.98732 0
M  V30 20507 O 2798.61 -0.0743816 8.81969 0
M  V30 20508 O 2799.15 1.97652 7.47304 0
M  V30 20509 C 2800.09 3.01133 7.08783 0
M  V30 20510 C 2799.36 4.12613 6.37049 0
M  V30 20511 O 2799.15 3.72827 4.97879 0
M  V30 20512 C 2797.96 4.45085 6.88694 0
M  V30 20513 O 2797.57 5.7877 6.5624 0
M  V30 20514 C 2797.08 3.47817 6.12078 0
M  V30 20515 C 2797.79 3.39414 4.77697 0
M  V30 20516 N 2797.74 2.04615 4.15333 0
M  V30 20517 H 2800.58 3.41248 7.98759 0
M  V30 20518 H 2800.85 2.5837 6.41742 0
M  V30 20519 H 2799.99 5.02657 6.42673 0
M  V30 20520 P 2796.02 6.144 6.45285 0
M  V30 20521 O 2795.8 7.54673 6.86199 0
M  V30 20522 O 2795.23 5.12391 7.179 0
M  V30 20523 O 2795.77 5.99158 4.88404 0
M  V30 20524 C 2796.71 6.60234 3.96415 0
M  V30 20525 C 2795.98 7.08259 2.72856 0
M  V30 20526 O 2795.77 5.9427 1.83651 0
M  V30 20527 C 2794.58 7.64886 2.9555 0
M  V30 20528 O 2794.19 8.53963 1.90717 0
M  V30 20529 C 2793.7 6.4116 2.90739 0
M  V30 20530 C 2794.41 5.55375 1.86963 0
M  V30 20531 N 2794.36 4.09448 2.16152 0
M  V30 20532 H 2797.2 7.45574 4.45629 0
M  V30 20533 H 2797.47 5.85864 3.679 0
M  V30 20534 H 2796.61 7.84412 2.24479 0
M  V30 20535 H 2793.95 5.73457 0.888562 0
M  V30 20536 H 2793.67 5.90877 3.88583 0
M  V30 20537 H 2792.68 6.6596 2.58858 0
M  V30 20538 H 2794.51 8.16339 3.92049 0
M  V30 20539 P 2792.64 8.7635 1.60911 0
M  V30 20540 O 2792.42 10.1388 1.11561 0
M  V30 20541 O 2791.85 8.36503 2.79617 0
M  V30 20542 O 2792.39 7.71806 0.42951 0
M  V30 20543 C 2793.33 7.67148 -0.673689 0
M  V30 20544 C 2792.6 7.33374 -1.95559 0
M  V30 20545 O 2792.39 5.88721 -2.00726 0
M  V30 20546 C 2791.2 7.92526 -2.10483 0
M  V30 20547 O 2790.81 8.02971 -3.47653 0
M  V30 20548 C 2790.32 6.89602 -1.41652 0
M  V30 20549 C 2791.03 5.59201 -1.75185 0
M  V30 20550 N 2790.98 4.58235 -0.662552 0
M  V30 20551 H 2793.82 8.65116 -0.777161 0
M  V30 20552 H 2794.09 6.90173 -0.474152 0
M  V30 20553 H 2793.23 7.66548 -2.79458 0
M  V30 20554 P 2789.26 8.03563 -3.84925 0
M  V30 20555 O 2789.04 8.85821 -5.0569 0
M  V30 20556 O 2788.47 8.41101 -2.65469 0
M  V30 20557 O 2789.01 6.4965 -4.18908 0
M  V30 20558 C 2789.95 5.81037 -5.05421 0
M  V30 20559 C 2789.22 4.78366 -5.89277 0
M  V30 20560 O 2789.01 3.58302 -5.08433 0
M  V30 20561 C 2787.82 5.17448 -6.36119 0
M  V30 20562 O 2787.43 4.45271 -7.53232 0
M  V30 20563 C 2786.94 4.74639 -5.19936 0
M  V30 20564 C 2787.65 3.49432 -4.70418 0
M  V30 20565 N 2787.6 3.31776 -3.22945 0
M  V30 20566 H 2790.44 6.54213 -5.71376 0
M  V30 20567 H 2790.71 5.30492 -4.44033 0
M  V30 20568 H 2789.85 4.55889 -6.76652 0
M  V30 20569 P 2785.88 4.23843 -7.83734 0
M  V30 20570 O 2785.66 4.19407 -9.29784 0
M  V30 20571 O 2785.09 5.24426 -7.09156 0
M  V30 20572 O 2785.63 2.7935 -7.20758 0
M  V30 20573 C 2786.57 1.7299 -7.50419 0
M  V30 20574 C 2785.84 0.406376 -7.57911 0
M  V30 20575 O 2785.63 -0.0897726 -6.21935 0
M  V30 20576 C 2784.44 0.447224 -8.1878 0
M  V30 20577 O 2784.05 -0.825065 -8.71101 0
M  V30 20578 C 2783.56 0.783801 -6.99623 0
M  V30 20579 C 2784.27 0.0619192 -5.85967 0
M  V30 20580 N 2784.22 0.7859 -4.56281 0
M  V30 20581 C 2784.3 2.14308 -4.31736 0
M  V30 20582 N 2784.22 2.46106 -3.05116 0
M  V30 20583 C 2784.08 1.23422 -2.4014 0
M  V30 20584 C 2783.95 0.938381 -1.02409 0
M  V30 20585 N 2783.83 -0.444647 -0.805413 0
M  V30 20586 C 2783.83 -1.40829 -1.79435 0
M  V30 20587 N 2783.7 -2.67213 -1.38558 0
M  V30 20588 N 2783.96 -1.12947 -3.09005 0
M  V30 20589 C 2784.08 0.204887 -3.32369 0
M  V30 20590 H 2787.06 1.93423 -8.4679 0
M  V30 20591 H 2787.33 1.68181 -6.71046 0
M  V30 20592 H 2786.47 -0.289041 -8.15388 0
M  V30 20593 P 2782.5 -1.17771 -8.83182 0
M  V30 20594 O 2782.28 -2.07206 -9.98732 0
M  V30 20595 O 2781.71 0.0743816 -8.81969 0
M  V30 20596 O 2782.25 -1.97652 -7.47304 0
M  V30 20597 C 2783.19 -3.01133 -7.08783 0
M  V30 20598 C 2782.46 -4.12613 -6.37049 0
M  V30 20599 O 2782.25 -3.72827 -4.97879 0
M  V30 20600 C 2781.06 -4.45085 -6.88694 0
M  V30 20601 O 2780.67 -5.7877 -6.5624 0
M  V30 20602 C 2780.18 -3.47817 -6.12078 0
M  V30 20603 C 2780.89 -3.39414 -4.77697 0
M  V30 20604 N 2780.84 -2.04615 -4.15333 0
M  V30 20605 H 2783.68 -3.41248 -7.98759 0
M  V30 20606 H 2783.95 -2.5837 -6.41742 0
M  V30 20607 H 2783.09 -5.02657 -6.42673 0
M  V30 20608 P 2779.12 -6.144 -6.45285 0
M  V30 20609 O 2778.9 -7.54673 -6.86199 0
M  V30 20610 O 2778.33 -5.12391 -7.179 0
M  V30 20611 O 2778.87 -5.99158 -4.88404 0
M  V30 20612 C 2779.81 -6.60062 -3.96313 0
M  V30 20613 C 2779.08 -7.08259 -2.72856 0
M  V30 20614 O 2778.87 -5.9427 -1.83651 0
M  V30 20615 C 2777.68 -7.65087 -2.94749 0
M  V30 20616 O 2777.29 -8.53963 -1.90717 0
M  V30 20617 C 2776.8 -6.41069 -2.90698 0
M  V30 20618 C 2777.51 -5.5528 -1.86931 0
M  V30 20619 N 2777.46 -4.09575 -2.15696 0
M  V30 20620 C 2777.31 -3.24249 -1.08435 0
M  V30 20621 O 2777.22 -3.63946 0.0628747 0
M  V30 20622 N 2777.27 -1.90009 -1.39973 0
M  V30 20623 C 2777.36 -1.34884 -2.65614 0
M  V30 20624 C 2777.51 -2.3145 -3.71736 0
M  V30 20625 C 2777.56 -3.63518 -3.44754 0
M  V30 20626 H 2780.3 -7.45402 -4.45526 0
M  V30 20627 H 2780.57 -5.86062 -3.67208 0
M  V30 20628 H 2779.71 -7.84412 -2.24479 0
M  V30 20629 H 2777.05 -5.73358 -0.888409 0
M  V30 20630 H 2776.77 -5.90877 -3.88583 0
M  V30 20631 H 2775.78 -6.65867 -2.58821 0
M  V30 20632 H 2777.61 -8.16248 -3.92006 0
M  V30 20633 H 2777.69 -4.34551 -4.26383 0
M  V30 20634 P 2775.74 -8.7635 -1.60911 0
M  V30 20635 O 2775.52 -10.1388 -1.11561 0
M  V30 20636 O 2774.95 -8.36503 -2.79617 0
M  V30 20637 O 2775.49 -7.71806 -0.42951 0
M  V30 20638 C 2776.43 -7.66948 0.673514 0
M  V30 20639 C 2775.7 -7.33374 1.95559 0
M  V30 20640 O 2775.49 -5.88721 2.00726 0
M  V30 20641 C 2774.3 -7.92218 2.1125 0
M  V30 20642 O 2773.91 -8.02971 3.47653 0
M  V30 20643 C 2773.42 -6.89504 1.41631 0
M  V30 20644 C 2774.13 -5.59106 1.75155 0
M  V30 20645 N 2774.08 -4.58136 0.662409 0
M  V30 20646 C 2773.93 -3.26059 1.02863 0
M  V30 20647 O 2773.84 -2.90743 2.19009 0
M  V30 20648 N 2773.89 -2.35995 -0.0155585 0
M  V30 20649 C 2773.98 -2.65248 -1.35603 0
M  V30 20650 C 2774.13 -4.05747 -1.64698 0
M  V30 20651 C 2774.18 -4.96734 -0.652411 0
M  V30 20652 H 2776.92 -8.64917 0.776982 0
M  V30 20653 H 2777.19 -6.89974 0.474015 0
M  V30 20654 H 2776.33 -7.66548 2.79458 0
M  V30 20655 H 2773.67 -5.16076 2.65138 0
M  V30 20656 H 2773.39 -7.06433 0.329384 0
M  V30 20657 H 2772.4 -6.90829 1.81996 0
M  V30 20658 H 2774.23 -8.90774 1.62639 0
M  V30 20659 H 2774.31 -6.02181 -0.895285 0
M  V30 20660 P 2772.36 -8.03563 3.84925 0
M  V30 20661 O 2772.14 -8.85821 5.0569 0
M  V30 20662 O 2771.57 -8.41101 2.65469 0
M  V30 20663 O 2772.11 -6.49734 4.18962 0
M  V30 20664 C 2773.05 -5.81037 5.05421 0
M  V30 20665 C 2772.32 -4.79018 5.88876 0
M  V30 20666 O 2772.11 -3.58359 5.08515 0
M  V30 20667 C 2770.92 -5.17448 6.36119 0
M  V30 20668 O 2770.53 -4.45322 7.53318 0
M  V30 20669 C 2770.04 -4.74639 5.19936 0
M  V30 20670 C 2770.75 -3.49432 4.70418 0
M  V30 20671 N 2770.7 -3.31776 3.22945 0
M  V30 20672 C 2770.55 -2.02742 2.72939 0
M  V30 20673 O 2770.46 -1.08301 3.52749 0
M  V30 20674 N 2770.5 -1.96117 1.22063 0
M  V30 20675 C 2770.6 -2.8878 0.551566 0
M  V30 20676 N 2770.55 -2.65609 -0.750198 0
M  V30 20677 C 2770.75 -4.22457 1.03707 0
M  V30 20678 C 2770.8 -4.37979 2.39113 0
M  V30 20679 H 2773.54 -6.54138 5.7131 0
M  V30 20680 H 2773.81 -5.30492 4.44033 0
M  V30 20681 H 2772.95 -4.55945 6.76735 0
M  V30 20682 H 2770.29 -2.6176 5.18021 0
M  V30 20683 H 2770.01 -5.52233 4.41941 0
M  V30 20684 H 2769.02 -4.52045 5.53452 0
M  V30 20685 H 2770.85 -6.25124 6.55234 0
M  V30 20686 H 2770.93 -5.37936 2.80552 0
M  V30 20687 H 2770.82 -5.07528 0.359553 0
M  V30 20688 H 2770.44 -1.69403 -1.09847 0
M  V30 20689 H 2770.63 -3.43701 -1.41792 0
M  V30 20690 P 2768.98 -4.23843 7.83734 0
M  V30 20691 O 2768.76 -4.19407 9.29784 0
M  V30 20692 O 2768.19 -5.24426 7.09156 0
M  V30 20693 O 2768.73 -2.7935 7.20758 0
M  V30 20694 C 2769.67 -1.7299 7.50419 0
M  V30 20695 C 2768.94 -0.406376 7.57911 0
M  V30 20696 O 2768.73 0.0897726 6.21935 0
M  V30 20697 C 2767.54 -0.447224 8.1878 0
M  V30 20698 O 2767.15 0.825065 8.71101 0
M  V30 20699 C 2766.66 -0.783801 6.99623 0
M  V30 20700 C 2767.37 -0.0619192 5.85967 0
M  V30 20701 N 2767.32 -0.790462 4.56202 0
M  V30 20702 H 2770.16 -1.93423 8.4679 0
M  V30 20703 H 2770.43 -1.68852 6.70877 0
M  V30 20704 H 2769.57 0.289041 8.15388 0
M  V30 20705 H 2766.91 0.927006 5.72848 0
M  V30 20706 H 2766.63 -1.86973 6.82036 0
M  V30 20707 H 2765.64 -0.403953 7.13357 0
M  V30 20708 H 2767.47 -1.20599 8.97534 0
M  V30 20709 P 2765.6 1.17771 8.83182 0
M  V30 20710 O 2765.38 2.07206 9.98732 0
M  V30 20711 O 2764.81 -0.0743816 8.81969 0
M  V30 20712 O 2765.35 1.97652 7.47304 0
M  V30 20713 C 2766.29 3.01133 7.08783 0
M  V30 20714 C 2765.56 4.12613 6.37049 0
M  V30 20715 O 2765.35 3.72827 4.97879 0
M  V30 20716 C 2764.16 4.45085 6.88694 0
M  V30 20717 O 2763.77 5.7877 6.5624 0
M  V30 20718 C 2763.28 3.47817 6.12078 0
M  V30 20719 C 2763.99 3.39414 4.77697 0
M  V30 20720 N 2763.94 2.04615 4.15333 0
M  V30 20721 H 2766.78 3.41248 7.98759 0
M  V30 20722 H 2767.05 2.5837 6.41742 0
M  V30 20723 H 2766.19 5.02657 6.42673 0
M  V30 20724 P 2762.22 6.144 6.45285 0
M  V30 20725 O 2762 7.54673 6.86199 0
M  V30 20726 O 2761.43 5.12391 7.179 0
M  V30 20727 O 2761.97 5.99158 4.88404 0
M  V30 20728 C 2762.91 6.60234 3.96415 0
M  V30 20729 C 2762.18 7.08259 2.72856 0
M  V30 20730 O 2761.97 5.9427 1.83651 0
M  V30 20731 C 2760.78 7.64886 2.9555 0
M  V30 20732 O 2760.39 8.53963 1.90717 0
M  V30 20733 C 2759.9 6.4116 2.90739 0
M  V30 20734 C 2760.61 5.55375 1.86963 0
M  V30 20735 N 2760.56 4.09448 2.16152 0
M  V30 20736 C 2760.64 3.46824 3.37593 0
M  V30 20737 N 2760.57 2.17422 3.29777 0
M  V30 20738 C 2760.42 1.93065 1.94427 0
M  V30 20739 C 2760.29 0.738053 1.20141 0
M  V30 20740 N 2760.28 -0.474256 1.74676 0
M  V30 20741 N 2760.17 0.850049 -0.13045 0
M  V30 20742 C 2760.18 2.06169 -0.676992 0
M  V30 20743 N 2760.3 3.23842 -0.101312 0
M  V30 20744 C 2760.42 3.09402 1.23122 0
M  V30 20745 H 2763.4 7.45574 4.45629 0
M  V30 20746 H 2763.67 5.85864 3.679 0
M  V30 20747 H 2762.81 7.84412 2.24479 0
M  V30 20748 H 2760.15 5.73457 0.888562 0
M  V30 20749 H 2759.87 5.90877 3.88583 0
M  V30 20750 H 2758.88 6.6596 2.58858 0
M  V30 20751 H 2760.71 8.16339 3.92049 0
M  V30 20752 H 2760.76 4.00505 4.3174 0
M  V30 20753 H 2760.37 -0.581337 2.76658 0
M  V30 20754 H 2760.19 -1.30811 1.14888 0
M  V30 20755 H 2760.08 2.08295 -1.75542 0
M  V30 20756 P 2758.84 8.7635 1.60911 0
M  V30 20757 O 2758.62 10.1388 1.11561 0
M  V30 20758 O 2758.05 8.36503 2.79617 0
M  V30 20759 O 2758.59 7.71806 0.42951 0
M  V30 20760 C 2759.53 7.67148 -0.673689 0
M  V30 20761 C 2758.8 7.33374 -1.95559 0
M  V30 20762 O 2758.59 5.88721 -2.00726 0
M  V30 20763 C 2757.4 7.92526 -2.10483 0
M  V30 20764 O 2757.01 8.02971 -3.47653 0
M  V30 20765 C 2756.52 6.89602 -1.41652 0
M  V30 20766 C 2757.23 5.59201 -1.75185 0
M  V30 20767 N 2757.18 4.58235 -0.662552 0
M  V30 20768 H 2760.02 8.65116 -0.777161 0
M  V30 20769 H 2760.29 6.90173 -0.474152 0
M  V30 20770 H 2759.43 7.66548 -2.79458 0
M  V30 20771 P 2755.46 8.03563 -3.84925 0
M  V30 20772 O 2755.24 8.85821 -5.0569 0
M  V30 20773 O 2754.67 8.41101 -2.65469 0
M  V30 20774 O 2755.21 6.4965 -4.18908 0
M  V30 20775 C 2756.15 5.81037 -5.05421 0
M  V30 20776 C 2755.42 4.78366 -5.89277 0
M  V30 20777 O 2755.21 3.58302 -5.08433 0
M  V30 20778 C 2754.02 5.17448 -6.36119 0
M  V30 20779 O 2753.63 4.45271 -7.53232 0
M  V30 20780 C 2753.14 4.74639 -5.19936 0
M  V30 20781 C 2753.85 3.49432 -4.70418 0
M  V30 20782 N 2753.8 3.31776 -3.22945 0
M  V30 20783 H 2756.64 6.54213 -5.71376 0
M  V30 20784 H 2756.91 5.30492 -4.44033 0
M  V30 20785 H 2756.05 4.55889 -6.76652 0
M  V30 20786 P 2752.08 4.23843 -7.83734 0
M  V30 20787 O 2751.86 4.19407 -9.29784 0
M  V30 20788 O 2751.29 5.24426 -7.09156 0
M  V30 20789 O 2751.83 2.7935 -7.20758 0
M  V30 20790 C 2752.77 1.7299 -7.50419 0
M  V30 20791 C 2752.04 0.406376 -7.57911 0
M  V30 20792 O 2751.83 -0.0897726 -6.21935 0
M  V30 20793 C 2750.64 0.447224 -8.1878 0
M  V30 20794 O 2750.25 -0.825065 -8.71101 0
M  V30 20795 C 2749.76 0.783801 -6.99623 0
M  V30 20796 C 2750.47 0.0619192 -5.85967 0
M  V30 20797 N 2750.42 0.7859 -4.56281 0
M  V30 20798 C 2750.5 2.14308 -4.31736 0
M  V30 20799 N 2750.42 2.46106 -3.05116 0
M  V30 20800 C 2750.28 1.23422 -2.4014 0
M  V30 20801 C 2750.15 0.938381 -1.02409 0
M  V30 20802 N 2750.03 -0.444647 -0.805413 0
M  V30 20803 C 2750.03 -1.40829 -1.79435 0
M  V30 20804 N 2749.9 -2.67213 -1.38558 0
M  V30 20805 N 2750.16 -1.12947 -3.09005 0
M  V30 20806 C 2750.28 0.204887 -3.32369 0
M  V30 20807 H 2753.26 1.93423 -8.4679 0
M  V30 20808 H 2753.53 1.68181 -6.71046 0
M  V30 20809 H 2752.67 -0.289041 -8.15388 0
M  V30 20810 P 2748.7 -1.17771 -8.83182 0
M  V30 20811 O 2748.48 -2.07206 -9.98732 0
M  V30 20812 O 2747.91 0.0743816 -8.81969 0
M  V30 20813 O 2748.45 -1.97678 -7.474 0
M  V30 20814 C 2749.39 -3.01133 -7.08783 0
M  V30 20815 C 2748.66 -4.1203 -6.37546 0
M  V30 20816 O 2748.45 -3.72887 -4.9796 0
M  V30 20817 C 2747.26 -4.45085 -6.88694 0
M  V30 20818 O 2746.87 -5.78836 -6.56315 0
M  V30 20819 C 2746.38 -3.47817 -6.12078 0
M  V30 20820 C 2747.09 -3.39414 -4.77697 0
M  V30 20821 N 2747.04 -2.04615 -4.15333 0
M  V30 20822 C 2746.89 -1.96929 -2.77162 0
M  V30 20823 O 2746.8 -3.02017 -2.12006 0
M  V30 20824 N 2746.84 -0.55485 -2.24237 0
M  V30 20825 C 2746.94 0.367808 -2.9169 0
M  V30 20826 N 2746.89 1.53426 -2.29427 0
M  V30 20827 C 2747.09 0.319148 -4.33828 0
M  V30 20828 C 2747.14 -0.920672 -4.90433 0
M  V30 20829 H 2749.88 -3.41209 -7.98667 0
M  V30 20830 H 2750.15 -2.5837 -6.41742 0
M  V30 20831 H 2749.29 -5.02718 -6.42752 0
M  V30 20832 H 2746.63 -4.11779 -4.09026 0
M  V30 20833 H 2746.35 -2.49661 -6.61772 0
M  V30 20834 H 2745.36 -3.86674 -6.00946 0
M  V30 20835 H 2747.19 -4.29991 -7.97006 0
M  V30 20836 H 2747.27 -1.00589 -5.98303 0
M  V30 20837 H 2747.16 1.22639 -4.93799 0
M  V30 20838 H 2746.78 1.56819 -1.27167 0
M  V30 20839 H 2746.97 2.41062 -2.83063 0
M  V30 20840 P 2745.32 -6.144 -6.45285 0
M  V30 20841 O 2745.1 -7.54673 -6.86199 0
M  V30 20842 O 2744.53 -5.12391 -7.179 0
M  V30 20843 O 2745.07 -5.99158 -4.88404 0
M  V30 20844 C 2746.01 -6.60234 -3.96415 0
M  V30 20845 C 2745.28 -7.08259 -2.72856 0
M  V30 20846 O 2745.07 -5.9427 -1.83651 0
M  V30 20847 C 2743.88 -7.64886 -2.9555 0
M  V30 20848 O 2743.49 -8.53963 -1.90717 0
M  V30 20849 C 2743 -6.4116 -2.90739 0
M  V30 20850 C 2743.71 -5.55375 -1.86963 0
M  V30 20851 N 2743.66 -4.09664 -2.15742 0
M  V30 20852 H 2746.5 -7.45574 -4.45629 0
M  V30 20853 H 2746.77 -5.86232 -3.67314 0
M  V30 20854 H 2745.91 -7.84412 -2.24479 0
M  V30 20855 P 2741.94 -8.7635 -1.60911 0
M  V30 20856 O 2741.72 -10.1388 -1.11561 0
M  V30 20857 O 2741.15 -8.36503 -2.79617 0
M  V30 20858 O 2741.69 -7.71806 -0.42951 0
M  V30 20859 C 2742.63 -7.67148 0.673689 0
M  V30 20860 C 2741.9 -7.33374 1.95559 0
M  V30 20861 O 2741.69 -5.88721 2.00726 0
M  V30 20862 C 2740.5 -7.92526 2.10483 0
M  V30 20863 O 2740.11 -8.02971 3.47653 0
M  V30 20864 C 2739.62 -6.89602 1.41652 0
M  V30 20865 C 2740.33 -5.59201 1.75185 0
M  V30 20866 N 2740.28 -4.58235 0.662552 0
M  V30 20867 H 2743.12 -8.65116 0.777161 0
M  V30 20868 H 2743.39 -6.90173 0.474152 0
M  V30 20869 H 2742.53 -7.66548 2.79458 0
M  V30 20870 P 2738.56 -8.03563 3.84925 0
M  V30 20871 O 2738.34 -8.85821 5.0569 0
M  V30 20872 O 2737.77 -8.41101 2.65469 0
M  V30 20873 O 2738.31 -6.4965 4.18908 0
M  V30 20874 C 2739.25 -5.81037 5.05421 0
M  V30 20875 C 2738.52 -4.78366 5.89277 0
M  V30 20876 O 2738.31 -3.58302 5.08433 0
M  V30 20877 C 2737.12 -5.17448 6.36119 0
M  V30 20878 O 2736.73 -4.45271 7.53232 0
M  V30 20879 C 2736.24 -4.74639 5.19936 0
M  V30 20880 C 2736.95 -3.49432 4.70418 0
M  V30 20881 N 2736.9 -3.32099 3.22613 0
M  V30 20882 H 2739.74 -6.54213 5.71376 0
M  V30 20883 H 2740.01 -5.30936 4.43503 0
M  V30 20884 H 2739.15 -4.55889 6.76652 0
M  V30 20885 H 2736.49 -2.61715 5.17932 0
M  V30 20886 H 2736.21 -5.52155 4.41878 0
M  V30 20887 H 2735.22 -4.51981 5.53374 0
M  V30 20888 H 2737.05 -6.25124 6.55234 0
M  V30 20889 P 2735.18 -4.23843 7.83734 0
M  V30 20890 O 2734.96 -4.19407 9.29784 0
M  V30 20891 O 2734.39 -5.24426 7.09156 0
M  V30 20892 O 2734.93 -2.7935 7.20758 0
M  V30 20893 C 2735.87 -1.72945 7.50224 0
M  V30 20894 C 2735.14 -0.406376 7.57911 0
M  V30 20895 O 2734.93 0.0897726 6.21935 0
M  V30 20896 C 2733.74 -0.438983 8.18724 0
M  V30 20897 O 2733.35 0.825065 8.71101 0
M  V30 20898 C 2732.86 -0.783689 6.99524 0
M  V30 20899 C 2733.57 -0.0619086 5.85867 0
M  V30 20900 N 2733.52 -0.78573 4.56183 0
M  V30 20901 C 2733.37 -0.0292889 3.41887 0
M  V30 20902 O 2733.28 1.18445 3.4419 0
M  V30 20903 N 2733.33 -0.744061 2.23964 0
M  V30 20904 C 2733.42 -2.10932 2.10362 0
M  V30 20905 O 2733.37 -2.64117 0.98825 0
M  V30 20906 C 2733.57 -2.8202 3.34994 0
M  V30 20907 C 2733.68 -4.31095 3.25037 0
M  V30 20908 C 2733.62 -2.15547 4.52261 0
M  V30 20909 H 2736.36 -1.93379 8.46595 0
M  V30 20910 H 2736.63 -1.68132 6.70852 0
M  V30 20911 H 2735.77 0.289041 8.15388 0
M  V30 20912 H 2733.11 0.926847 5.72749 0
M  V30 20913 H 2732.83 -1.86973 6.82036 0
M  V30 20914 H 2731.84 -0.403896 7.13257 0
M  V30 20915 H 2733.67 -1.20585 8.97435 0
M  V30 20916 H 2733.75 -2.71231 5.45042 0
M  V30 20917 H 2732.72 -4.76966 3.49992 0
M  V30 20918 H 2734.45 -4.67047 3.95024 0
M  V30 20919 H 2733.96 -4.58996 2.22312 0
M  V30 20920 H 2733.23 -0.214893 1.39758 0
M  V30 20921 P 2731.8 1.17771 8.83182 0
M  V30 20922 O 2731.58 2.07206 9.98732 0
M  V30 20923 O 2731.01 -0.0743816 8.81969 0
M  V30 20924 O 2731.55 1.97652 7.47304 0
M  V30 20925 C 2732.49 3.01133 7.08783 0
M  V30 20926 C 2731.76 4.12613 6.37049 0
M  V30 20927 O 2731.55 3.72827 4.97879 0
M  V30 20928 C 2730.36 4.45085 6.88694 0
M  V30 20929 O 2729.97 5.7877 6.5624 0
M  V30 20930 C 2729.48 3.47817 6.12078 0
M  V30 20931 C 2730.19 3.39414 4.77697 0
M  V30 20932 N 2730.14 2.04615 4.15333 0
M  V30 20933 H 2732.98 3.41248 7.98759 0
M  V30 20934 H 2733.25 2.5837 6.41742 0
M  V30 20935 H 2732.39 5.02657 6.42673 0
M  V30 20936 P 2728.42 6.144 6.45285 0
M  V30 20937 O 2728.2 7.54673 6.86199 0
M  V30 20938 O 2727.63 5.12391 7.179 0
M  V30 20939 O 2728.17 5.99158 4.88404 0
M  V30 20940 C 2729.11 6.60062 3.96313 0
M  V30 20941 C 2728.38 7.08259 2.72856 0
M  V30 20942 O 2728.17 5.9427 1.83651 0
M  V30 20943 C 2726.98 7.65087 2.94749 0
M  V30 20944 O 2726.59 8.53963 1.90717 0
M  V30 20945 C 2726.1 6.41069 2.90698 0
M  V30 20946 C 2726.81 5.5528 1.86931 0
M  V30 20947 N 2726.76 4.09575 2.15696 0
M  V30 20948 C 2726.61 3.24249 1.08435 0
M  V30 20949 O 2726.52 3.63946 -0.0628747 0
M  V30 20950 N 2726.57 1.90009 1.39973 0
M  V30 20951 C 2726.66 1.34884 2.65614 0
M  V30 20952 O 2726.61 0.123716 2.81728 0
M  V30 20953 C 2726.81 2.3145 3.71736 0
M  V30 20954 C 2726.92 1.75913 5.10438 0
M  V30 20955 C 2726.86 3.63518 3.44754 0
M  V30 20956 H 2729.6 7.45402 4.45526 0
M  V30 20957 H 2729.87 5.86062 3.67208 0
M  V30 20958 H 2729.01 7.84412 2.24479 0
M  V30 20959 H 2726.35 5.73358 0.888409 0
M  V30 20960 H 2726.07 5.90877 3.88583 0
M  V30 20961 H 2725.08 6.65867 2.58821 0
M  V30 20962 H 2726.91 8.16248 3.92006 0
M  V30 20963 H 2726.99 4.34551 4.26383 0
M  V30 20964 H 2725.96 1.85471 5.61775 0
M  V30 20965 H 2727.69 2.31364 5.66257 0
M  V30 20966 H 2727.2 0.695936 5.05229 0
M  V30 20967 H 2726.47 1.26277 0.63625 0
M  V30 20968 P 2725.04 8.7635 1.60911 0
M  V30 20969 O 2724.82 10.1388 1.11561 0
M  V30 20970 O 2724.25 8.36503 2.79617 0
M  V30 20971 O 2724.79 7.71806 0.42951 0
M  V30 20972 C 2725.73 7.66948 -0.673514 0
M  V30 20973 C 2725 7.33374 -1.95559 0
M  V30 20974 O 2724.79 5.88721 -2.00726 0
M  V30 20975 C 2723.6 7.92218 -2.1125 0
M  V30 20976 O 2723.21 8.02971 -3.47653 0
M  V30 20977 C 2722.72 6.89504 -1.41631 0
M  V30 20978 C 2723.43 5.59106 -1.75155 0
M  V30 20979 N 2723.38 4.58136 -0.662409 0
M  V30 20980 C 2723.23 3.26059 -1.02863 0
M  V30 20981 O 2723.14 2.90743 -2.19009 0
M  V30 20982 N 2723.19 2.35995 0.0155585 0
M  V30 20983 C 2723.28 2.65248 1.35603 0
M  V30 20984 C 2723.43 4.05747 1.64698 0
M  V30 20985 C 2723.48 4.96734 0.652411 0
M  V30 20986 H 2726.22 8.64917 -0.776982 0
M  V30 20987 H 2726.49 6.89974 -0.474015 0
M  V30 20988 H 2725.63 7.66548 -2.79458 0
M  V30 20989 H 2722.97 5.16076 -2.65138 0
M  V30 20990 H 2722.69 7.06433 -0.329384 0
M  V30 20991 H 2721.7 6.90829 -1.81996 0
M  V30 20992 H 2723.53 8.90774 -1.62639 0
M  V30 20993 H 2723.61 6.02181 0.895285 0
M  V30 20994 P 2721.66 8.03563 -3.84925 0
M  V30 20995 O 2721.44 8.85821 -5.0569 0
M  V30 20996 O 2720.87 8.41101 -2.65469 0
M  V30 20997 O 2721.41 6.4965 -4.18908 0
M  V30 20998 C 2722.35 5.81037 -5.05421 0
M  V30 20999 C 2721.62 4.78366 -5.89277 0
M  V30 21000 O 2721.41 3.58302 -5.08433 0
M  V30 21001 C 2720.22 5.17448 -6.36119 0
M  V30 21002 O 2719.83 4.45271 -7.53232 0
M  V30 21003 C 2719.34 4.74639 -5.19936 0
M  V30 21004 C 2720.05 3.49432 -4.70418 0
M  V30 21005 N 2720 3.32099 -3.22613 0
M  V30 21006 C 2720.08 4.28245 -2.25527 0
M  V30 21007 N 2720.01 3.80823 -1.04874 0
M  V30 21008 C 2719.86 2.44571 -1.23535 0
M  V30 21009 C 2719.73 1.37068 -0.330675 0
M  V30 21010 N 2719.72 1.51472 0.990824 0
M  V30 21011 N 2719.61 0.138614 -0.848756 0
M  V30 21012 C 2719.62 -0.00675923 -2.16999 0
M  V30 21013 N 2719.74 0.904372 -3.11122 0
M  V30 21014 C 2719.86 2.12707 -2.56212 0
M  V30 21015 H 2722.84 6.54213 -5.71376 0
M  V30 21016 H 2723.11 5.30936 -4.43503 0
M  V30 21017 H 2722.25 4.55889 -6.76652 0
M  V30 21018 H 2719.59 2.61715 -5.17932 0
M  V30 21019 H 2719.31 5.52155 -4.41878 0
M  V30 21020 H 2718.32 4.51981 -5.53374 0
M  V30 21021 H 2720.15 6.25124 -6.55234 0
M  V30 21022 H 2720.2 5.34372 -2.47488 0
M  V30 21023 H 2719.81 2.45153 1.4078 0
M  V30 21024 H 2719.63 0.688422 1.59911 0
M  V30 21025 H 2719.52 -1.02584 -2.52346 0
M  V30 21026 P 2718.28 4.23843 -7.83734 0
M  V30 21027 O 2718.06 4.19407 -9.29784 0
M  V30 21028 O 2717.49 5.24426 -7.09156 0
M  V30 21029 O 2718.03 2.7935 -7.20758 0
M  V30 21030 C 2718.97 1.72945 -7.50224 0
M  V30 21031 C 2718.24 0.406376 -7.57911 0
M  V30 21032 O 2718.03 -0.0897726 -6.21935 0
M  V30 21033 C 2716.84 0.438983 -8.18724 0
M  V30 21034 O 2716.45 -0.825065 -8.71101 0
M  V30 21035 C 2715.96 0.783689 -6.99524 0
M  V30 21036 C 2716.67 0.0619086 -5.85867 0
M  V30 21037 N 2716.62 0.78573 -4.56183 0
M  V30 21038 C 2716.47 0.0292889 -3.41887 0
M  V30 21039 O 2716.38 -1.18445 -3.4419 0
M  V30 21040 N 2716.43 0.744061 -2.23964 0
M  V30 21041 C 2716.52 2.10932 -2.10362 0
M  V30 21042 C 2716.67 2.8202 -3.34994 0
M  V30 21043 C 2716.72 2.15547 -4.52261 0
M  V30 21044 H 2719.46 1.93379 -8.46595 0
M  V30 21045 H 2719.73 1.68132 -6.70852 0
M  V30 21046 H 2718.87 -0.289041 -8.15388 0
M  V30 21047 H 2716.21 -0.926847 -5.72749 0
M  V30 21048 H 2715.93 1.86973 -6.82036 0
M  V30 21049 H 2714.94 0.403896 -7.13257 0
M  V30 21050 H 2716.77 1.20585 -8.97435 0
M  V30 21051 H 2716.85 2.71231 -5.45042 0
M  V30 21052 P 2714.9 -1.17771 -8.83182 0
M  V30 21053 O 2714.68 -2.07206 -9.98732 0
M  V30 21054 O 2714.11 0.0743816 -8.81969 0
M  V30 21055 O 2714.65 -1.97652 -7.47304 0
M  V30 21056 C 2715.59 -3.01133 -7.08783 0
M  V30 21057 C 2714.86 -4.12613 -6.37049 0
M  V30 21058 O 2714.65 -3.72827 -4.97879 0
M  V30 21059 C 2713.46 -4.45085 -6.88694 0
M  V30 21060 O 2713.07 -5.7877 -6.5624 0
M  V30 21061 C 2712.58 -3.47817 -6.12078 0
M  V30 21062 C 2713.29 -3.39414 -4.77697 0
M  V30 21063 N 2713.24 -2.04615 -4.15333 0
M  V30 21064 H 2716.08 -3.41248 -7.98759 0
M  V30 21065 H 2716.35 -2.5837 -6.41742 0
M  V30 21066 H 2715.49 -5.02657 -6.42673 0
M  V30 21067 P 2711.52 -6.144 -6.45285 0
M  V30 21068 O 2711.3 -7.54673 -6.86199 0
M  V30 21069 O 2710.73 -5.12391 -7.179 0
M  V30 21070 O 2711.27 -5.99158 -4.88404 0
M  V30 21071 C 2712.21 -6.60234 -3.96415 0
M  V30 21072 C 2711.48 -7.08259 -2.72856 0
M  V30 21073 O 2711.27 -5.9427 -1.83651 0
M  V30 21074 C 2710.08 -7.64886 -2.9555 0
M  V30 21075 O 2709.69 -8.53963 -1.90717 0
M  V30 21076 C 2709.2 -6.4116 -2.90739 0
M  V30 21077 C 2709.91 -5.55375 -1.86963 0
M  V30 21078 N 2709.86 -4.09664 -2.15742 0
M  V30 21079 H 2712.7 -7.45574 -4.45629 0
M  V30 21080 H 2712.97 -5.86232 -3.67314 0
M  V30 21081 H 2712.11 -7.84412 -2.24479 0
M  V30 21082 P 2708.14 -8.7635 -1.60911 0
M  V30 21083 O 2707.92 -10.1388 -1.11561 0
M  V30 21084 O 2707.35 -8.36503 -2.79617 0
M  V30 21085 O 2707.89 -7.71806 -0.42951 0
M  V30 21086 C 2708.83 -7.67148 0.673689 0
M  V30 21087 C 2708.1 -7.33374 1.95559 0
M  V30 21088 O 2707.89 -5.88721 2.00726 0
M  V30 21089 C 2706.7 -7.92526 2.10483 0
M  V30 21090 O 2706.31 -8.02971 3.47653 0
M  V30 21091 C 2705.82 -6.89602 1.41652 0
M  V30 21092 C 2706.53 -5.59201 1.75185 0
M  V30 21093 N 2706.48 -4.58235 0.662552 0
M  V30 21094 C 2706.56 -4.7683 -0.704049 0
M  V30 21095 N 2706.48 -3.66233 -1.39775 0
M  V30 21096 C 2706.34 -2.66526 -0.431739 0
M  V30 21097 C 2706.21 -1.26394 -0.575992 0
M  V30 21098 N 2706.09 -0.62859 0.67177 0
M  V30 21099 C 2706.09 -1.27134 1.89385 0
M  V30 21100 N 2705.96 -0.492035 2.96951 0
M  V30 21101 N 2706.22 -2.58978 2.02907 0
M  V30 21102 C 2706.34 -3.22433 0.832218 0
M  V30 21103 H 2709.32 -8.65116 0.777161 0
M  V30 21104 H 2709.6 -6.90173 0.474152 0
M  V30 21105 H 2708.73 -7.66548 2.79458 0
M  V30 21106 P 2704.76 -8.03563 3.84925 0
M  V30 21107 O 2704.54 -8.85821 5.0569 0
M  V30 21108 O 2703.97 -8.41101 2.65469 0
M  V30 21109 O 2704.51 -6.4965 4.18908 0
M  V30 21110 C 2705.45 -5.81037 5.05421 0
M  V30 21111 C 2704.72 -4.78366 5.89277 0
M  V30 21112 O 2704.51 -3.58302 5.08433 0
M  V30 21113 C 2703.32 -5.17448 6.36119 0
M  V30 21114 O 2702.93 -4.45271 7.53232 0
M  V30 21115 C 2702.44 -4.74639 5.19936 0
M  V30 21116 C 2703.15 -3.49432 4.70418 0
M  V30 21117 N 2703.1 -3.31776 3.22945 0
M  V30 21118 H 2705.94 -6.54213 5.71376 0
M  V30 21119 H 2706.22 -5.30492 4.44033 0
M  V30 21120 H 2705.35 -4.55889 6.76652 0
M  V30 21121 P 2701.38 -4.23843 7.83734 0
M  V30 21122 O 2701.16 -4.19407 9.29784 0
M  V30 21123 O 2700.59 -5.24426 7.09156 0
M  V30 21124 O 2701.13 -2.7935 7.20758 0
M  V30 21125 C 2702.07 -1.7299 7.50419 0
M  V30 21126 C 2701.34 -0.406376 7.57911 0
M  V30 21127 O 2701.13 0.0897726 6.21935 0
M  V30 21128 C 2699.94 -0.447224 8.1878 0
M  V30 21129 O 2699.55 0.825065 8.71101 0
M  V30 21130 C 2699.06 -0.783801 6.99623 0
M  V30 21131 C 2699.77 -0.0619192 5.85967 0
M  V30 21132 N 2699.72 -0.7859 4.56281 0
M  V30 21133 H 2702.56 -1.93423 8.4679 0
M  V30 21134 H 2702.84 -1.68181 6.71046 0
M  V30 21135 H 2701.97 0.289041 8.15388 0
M  V30 21136 P 2698 1.17771 8.83182 0
M  V30 21137 O 2697.78 2.07206 9.98732 0
M  V30 21138 O 2697.21 -0.0743816 8.81969 0
M  V30 21139 O 2697.75 1.97652 7.47304 0
M  V30 21140 C 2698.69 3.01133 7.08783 0
M  V30 21141 C 2697.96 4.12613 6.37049 0
M  V30 21142 O 2697.75 3.72827 4.97879 0
M  V30 21143 C 2696.56 4.45085 6.88694 0
M  V30 21144 O 2696.17 5.7877 6.5624 0
M  V30 21145 C 2695.68 3.47817 6.12078 0
M  V30 21146 C 2696.39 3.39414 4.77697 0
M  V30 21147 N 2696.34 2.04615 4.15333 0
M  V30 21148 H 2699.18 3.41248 7.98759 0
M  V30 21149 H 2699.46 2.5837 6.41742 0
M  V30 21150 H 2698.59 5.02657 6.42673 0
M  V30 21151 P 2694.62 6.144 6.45285 0
M  V30 21152 O 2694.4 7.54673 6.86199 0
M  V30 21153 O 2693.83 5.12391 7.179 0
M  V30 21154 O 2694.37 5.99236 4.88467 0
M  V30 21155 C 2695.31 6.60234 3.96415 0
M  V30 21156 C 2694.58 7.08079 2.736 0
M  V30 21157 O 2694.37 5.94365 1.8368 0
M  V30 21158 C 2693.18 7.64886 2.9555 0
M  V30 21159 O 2692.79 8.5406 1.90739 0
M  V30 21160 C 2692.3 6.4116 2.90739 0
M  V30 21161 C 2693.01 5.55375 1.86963 0
M  V30 21162 N 2692.96 4.09664 2.15742 0
M  V30 21163 C 2692.81 3.22231 1.08477 0
M  V30 21164 O 2692.72 3.68951 -0.0600489 0
M  V30 21165 N 2692.76 1.76692 1.48799 0
M  V30 21166 C 2692.86 1.41695 2.57602 0
M  V30 21167 N 2692.81 0.107296 2.75791 0
M  V30 21168 C 2693.01 2.29178 3.69733 0
M  V30 21169 C 2693.06 3.62753 3.42653 0
M  V30 21170 H 2695.8 7.45488 4.45578 0
M  V30 21171 H 2696.07 5.86232 3.67314 0
M  V30 21172 H 2695.21 7.84508 2.24507 0
M  V30 21173 H 2692.55 5.73556 0.888715 0
M  V30 21174 H 2692.27 5.9096 3.88638 0
M  V30 21175 H 2691.28 6.66053 2.58894 0
M  V30 21176 H 2693.12 8.16339 3.92049 0
M  V30 21177 H 2693.19 4.33052 4.24913 0
M  V30 21178 H 2693.09 1.9103 4.71577 0
M  V30 21179 H 2692.7 -0.521221 1.95056 0
M  V30 21180 H 2692.89 -0.286429 3.70695 0
M  V30 21181 P 2691.24 8.7635 1.60911 0
M  V30 21182 O 2691.02 10.1388 1.11561 0
M  V30 21183 O 2690.45 8.36503 2.79617 0
M  V30 21184 O 2690.99 7.71806 0.42951 0
M  V30 21185 C 2691.93 7.67148 -0.673689 0
M  V30 21186 C 2691.2 7.33374 -1.95559 0
M  V30 21187 O 2690.99 5.88721 -2.00726 0
M  V30 21188 C 2689.8 7.92526 -2.10483 0
M  V30 21189 O 2689.41 8.02971 -3.47653 0
M  V30 21190 C 2688.92 6.89602 -1.41652 0
M  V30 21191 C 2689.63 5.59201 -1.75185 0
M  V30 21192 N 2689.58 4.58235 -0.662552 0
M  V30 21193 H 2692.42 8.65116 -0.777161 0
M  V30 21194 H 2692.7 6.90173 -0.474152 0
M  V30 21195 H 2691.83 7.66548 -2.79458 0
M  V30 21196 P 2687.86 8.03563 -3.84925 0
M  V30 21197 O 2687.64 8.85821 -5.0569 0
M  V30 21198 O 2687.07 8.41101 -2.65469 0
M  V30 21199 O 2687.61 6.4965 -4.18908 0
M  V30 21200 C 2688.55 5.81037 -5.05421 0
M  V30 21201 C 2687.82 4.78366 -5.89277 0
M  V30 21202 O 2687.61 3.58302 -5.08433 0
M  V30 21203 C 2686.42 5.17448 -6.36119 0
M  V30 21204 O 2686.03 4.45271 -7.53232 0
M  V30 21205 C 2685.54 4.74639 -5.19936 0
M  V30 21206 C 2686.25 3.49432 -4.70418 0
M  V30 21207 N 2686.2 3.31776 -3.22945 0
M  V30 21208 C 2686.28 4.27147 -2.23315 0
M  V30 21209 N 2686.2 3.78447 -1.02186 0
M  V30 21210 C 2686.06 2.41001 -1.21732 0
M  V30 21211 C 2685.93 1.36111 -0.27694 0
M  V30 21212 N 2685.81 0.113683 -0.912949 0
M  V30 21213 C 2685.81 -0.0846396 -2.27943 0
M  V30 21214 N 2685.68 -1.34737 -2.6916 0
M  V30 21215 N 2685.94 0.902521 -3.16379 0
M  V30 21216 C 2686.06 2.11937 -2.56849 0
M  V30 21217 H 2689.04 6.54213 -5.71376 0
M  V30 21218 H 2689.32 5.30492 -4.44033 0
M  V30 21219 H 2688.45 4.55889 -6.76652 0
M  V30 21220 P 2684.48 4.23843 -7.83734 0
M  V30 21221 O 2684.26 4.19407 -9.29784 0
M  V30 21222 O 2683.69 5.24426 -7.09156 0
M  V30 21223 O 2684.23 2.7935 -7.20758 0
M  V30 21224 C 2685.17 1.72945 -7.50224 0
M  V30 21225 C 2684.44 0.406376 -7.57911 0
M  V30 21226 O 2684.23 -0.0897726 -6.21935 0
M  V30 21227 C 2683.04 0.438983 -8.18724 0
M  V30 21228 O 2682.65 -0.825065 -8.71101 0
M  V30 21229 C 2682.16 0.783689 -6.99524 0
M  V30 21230 C 2682.87 0.0619086 -5.85867 0
M  V30 21231 N 2682.82 0.78573 -4.56183 0
M  V30 21232 C 2682.67 0.0292889 -3.41887 0
M  V30 21233 O 2682.58 -1.18445 -3.4419 0
M  V30 21234 N 2682.63 0.744061 -2.23964 0
M  V30 21235 C 2682.72 2.10932 -2.10362 0
M  V30 21236 C 2682.87 2.8202 -3.34994 0
M  V30 21237 C 2682.92 2.15547 -4.52261 0
M  V30 21238 H 2685.67 1.93379 -8.46595 0
M  V30 21239 H 2685.93 1.68132 -6.70852 0
M  V30 21240 H 2685.07 -0.289041 -8.15388 0
M  V30 21241 H 2682.41 -0.926847 -5.72749 0
M  V30 21242 H 2682.13 1.86973 -6.82036 0
M  V30 21243 H 2681.14 0.403896 -7.13257 0
M  V30 21244 H 2682.98 1.20585 -8.97435 0
M  V30 21245 H 2683.05 2.71231 -5.45042 0
M  V30 21246 P 2681.1 -1.17771 -8.83182 0
M  V30 21247 O 2680.88 -2.07206 -9.98732 0
M  V30 21248 O 2680.31 0.0743816 -8.81969 0
M  V30 21249 O 2680.85 -1.97652 -7.47304 0
M  V30 21250 C 2681.79 -3.01133 -7.08783 0
M  V30 21251 C 2681.06 -4.12613 -6.37049 0
M  V30 21252 O 2680.85 -3.72827 -4.97879 0
M  V30 21253 C 2679.66 -4.45085 -6.88694 0
M  V30 21254 O 2679.27 -5.7877 -6.5624 0
M  V30 21255 C 2678.78 -3.47817 -6.12078 0
M  V30 21256 C 2679.49 -3.39414 -4.77697 0
M  V30 21257 N 2679.44 -2.04615 -4.15333 0
M  V30 21258 H 2682.28 -3.41248 -7.98759 0
M  V30 21259 H 2682.56 -2.5837 -6.41742 0
M  V30 21260 H 2681.69 -5.02657 -6.42673 0
M  V30 21261 P 2677.72 -6.144 -6.45285 0
M  V30 21262 O 2677.5 -7.54673 -6.86199 0
M  V30 21263 O 2676.93 -5.12391 -7.179 0
M  V30 21264 O 2677.47 -5.99158 -4.88404 0
M  V30 21265 C 2678.41 -6.60234 -3.96415 0
M  V30 21266 C 2677.68 -7.08259 -2.72856 0
M  V30 21267 O 2677.47 -5.9427 -1.83651 0
M  V30 21268 C 2676.28 -7.64886 -2.9555 0
M  V30 21269 O 2675.89 -8.53963 -1.90717 0
M  V30 21270 C 2675.4 -6.4116 -2.90739 0
M  V30 21271 C 2676.11 -5.55375 -1.86963 0
M  V30 21272 N 2676.06 -4.09664 -2.15742 0
M  V30 21273 H 2678.9 -7.45574 -4.45629 0
M  V30 21274 H 2679.18 -5.86232 -3.67314 0
M  V30 21275 H 2678.31 -7.84412 -2.24479 0
M  V30 21276 P 2674.34 -8.7635 -1.60911 0
M  V30 21277 O 2674.12 -10.1388 -1.11561 0
M  V30 21278 O 2673.55 -8.36503 -2.79617 0
M  V30 21279 O 2674.09 -7.71806 -0.42951 0
M  V30 21280 C 2675.03 -7.67148 0.673689 0
M  V30 21281 C 2674.3 -7.33374 1.95559 0
M  V30 21282 O 2674.09 -5.88721 2.00726 0
M  V30 21283 C 2672.9 -7.92526 2.10483 0
M  V30 21284 O 2672.51 -8.02971 3.47653 0
M  V30 21285 C 2672.02 -6.89602 1.41652 0
M  V30 21286 C 2672.73 -5.59201 1.75185 0
M  V30 21287 N 2672.68 -4.58235 0.662552 0
M  V30 21288 C 2672.76 -4.7683 -0.704049 0
M  V30 21289 N 2672.68 -3.66233 -1.39775 0
M  V30 21290 C 2672.54 -2.66526 -0.431739 0
M  V30 21291 C 2672.41 -1.26394 -0.575992 0
M  V30 21292 N 2672.29 -0.62859 0.67177 0
M  V30 21293 C 2672.29 -1.27134 1.89385 0
M  V30 21294 N 2672.16 -0.492035 2.96951 0
M  V30 21295 N 2672.42 -2.58978 2.02907 0
M  V30 21296 C 2672.54 -3.22433 0.832218 0
M  V30 21297 H 2675.52 -8.65116 0.777161 0
M  V30 21298 H 2675.8 -6.90173 0.474152 0
M  V30 21299 H 2674.93 -7.66548 2.79458 0
M  V30 21300 P 2670.96 -8.03563 3.84925 0
M  V30 21301 O 2670.74 -8.85821 5.0569 0
M  V30 21302 O 2670.17 -8.41101 2.65469 0
M  V30 21303 O 2670.71 -6.4965 4.18908 0
M  V30 21304 C 2671.65 -5.81037 5.05421 0
M  V30 21305 C 2670.92 -4.78366 5.89277 0
M  V30 21306 O 2670.71 -3.58302 5.08433 0
M  V30 21307 C 2669.52 -5.17448 6.36119 0
M  V30 21308 O 2669.13 -4.45271 7.53232 0
M  V30 21309 C 2668.64 -4.74639 5.19936 0
M  V30 21310 C 2669.35 -3.49432 4.70418 0
M  V30 21311 N 2669.3 -3.31776 3.22945 0
M  V30 21312 H 2672.14 -6.54213 5.71376 0
M  V30 21313 H 2672.42 -5.30492 4.44033 0
M  V30 21314 H 2671.55 -4.55889 6.76652 0
M  V30 21315 P 2667.58 -4.23843 7.83734 0
M  V30 21316 O 2667.36 -4.19407 9.29784 0
M  V30 21317 O 2666.79 -5.24426 7.09156 0
M  V30 21318 O 2667.33 -2.7935 7.20758 0
M  V30 21319 C 2668.27 -1.7299 7.50419 0
M  V30 21320 C 2667.54 -0.406376 7.57911 0
M  V30 21321 O 2667.33 0.0897726 6.21935 0
M  V30 21322 C 2666.14 -0.447224 8.1878 0
M  V30 21323 O 2665.75 0.825065 8.71101 0
M  V30 21324 C 2665.26 -0.783801 6.99623 0
M  V30 21325 C 2665.97 -0.0619192 5.85967 0
M  V30 21326 N 2665.92 -0.790462 4.56202 0
M  V30 21327 H 2668.76 -1.93423 8.4679 0
M  V30 21328 H 2669.04 -1.68852 6.70877 0
M  V30 21329 H 2668.17 0.289041 8.15388 0
M  V30 21330 H 2665.51 0.927006 5.72848 0
M  V30 21331 H 2665.23 -1.86973 6.82036 0
M  V30 21332 H 2664.24 -0.403953 7.13357 0
M  V30 21333 H 2666.08 -1.20599 8.97534 0
M  V30 21334 P 2664.2 1.17771 8.83182 0
M  V30 21335 O 2663.98 2.07206 9.98732 0
M  V30 21336 O 2663.41 -0.0743816 8.81969 0
M  V30 21337 O 2663.95 1.97652 7.47304 0
M  V30 21338 C 2664.89 3.01133 7.08783 0
M  V30 21339 C 2664.16 4.12613 6.37049 0
M  V30 21340 O 2663.95 3.72827 4.97879 0
M  V30 21341 C 2662.76 4.45085 6.88694 0
M  V30 21342 O 2662.37 5.7877 6.5624 0
M  V30 21343 C 2661.88 3.47817 6.12078 0
M  V30 21344 C 2662.59 3.39414 4.77697 0
M  V30 21345 N 2662.54 2.04615 4.15333 0
M  V30 21346 H 2665.38 3.41248 7.98759 0
M  V30 21347 H 2665.66 2.5837 6.41742 0
M  V30 21348 H 2664.79 5.02657 6.42673 0
M  V30 21349 P 2660.82 6.144 6.45285 0
M  V30 21350 O 2660.6 7.54673 6.86199 0
M  V30 21351 O 2660.03 5.12391 7.179 0
M  V30 21352 O 2660.57 5.99158 4.88404 0
M  V30 21353 C 2661.51 6.60234 3.96415 0
M  V30 21354 C 2660.78 7.08259 2.72856 0
M  V30 21355 O 2660.57 5.9427 1.83651 0
M  V30 21356 C 2659.38 7.64886 2.9555 0
M  V30 21357 O 2658.99 8.53963 1.90717 0
M  V30 21358 C 2658.5 6.4116 2.90739 0
M  V30 21359 C 2659.21 5.55375 1.86963 0
M  V30 21360 N 2659.16 4.09664 2.15742 0
M  V30 21361 C 2659.24 3.44381 3.37233 0
M  V30 21362 N 2659.16 2.14131 3.28347 0
M  V30 21363 C 2659.02 1.90247 1.91588 0
M  V30 21364 C 2658.89 0.683992 1.20892 0
M  V30 21365 N 2658.77 0.903396 -0.173998 0
M  V30 21366 C 2658.77 2.14171 -0.784879 0
M  V30 21367 N 2658.64 2.1435 -2.11317 0
M  V30 21368 N 2658.9 3.28784 -0.119316 0
M  V30 21369 C 2659.02 3.0977 1.22194 0
M  V30 21370 H 2662 7.45574 4.45629 0
M  V30 21371 H 2662.28 5.86232 3.67314 0
M  V30 21372 H 2661.41 7.84412 2.24479 0
M  V30 21373 P 2657.44 8.7635 1.60911 0
M  V30 21374 O 2657.22 10.1388 1.11561 0
M  V30 21375 O 2656.65 8.36503 2.79617 0
M  V30 21376 O 2657.19 7.71806 0.42951 0
M  V30 21377 C 2658.13 7.67148 -0.673689 0
M  V30 21378 C 2657.4 7.33374 -1.95559 0
M  V30 21379 O 2657.19 5.88721 -2.00726 0
M  V30 21380 C 2656 7.92526 -2.10483 0
M  V30 21381 O 2655.61 8.02971 -3.47653 0
M  V30 21382 C 2655.12 6.89602 -1.41652 0
M  V30 21383 C 2655.83 5.59201 -1.75185 0
M  V30 21384 N 2655.78 4.58301 -0.657969 0
M  V30 21385 H 2658.62 8.65116 -0.777161 0
M  V30 21386 H 2658.9 6.9022 -0.46725 0
M  V30 21387 H 2658.03 7.66548 -2.79458 0
M  V30 21388 H 2655.37 5.16165 -2.65183 0
M  V30 21389 H 2655.09 7.06433 -0.329384 0
M  V30 21390 H 2654.1 6.90926 -1.82021 0
M  V30 21391 H 2655.94 8.90873 -1.62657 0
M  V30 21392 P 2654.06 8.03563 -3.84925 0
M  V30 21393 O 2653.84 8.85821 -5.0569 0
M  V30 21394 O 2653.27 8.41101 -2.65469 0
M  V30 21395 O 2653.81 6.4965 -4.18908 0
M  V30 21396 C 2654.75 5.81037 -5.05421 0
M  V30 21397 C 2654.02 4.78366 -5.89277 0
M  V30 21398 O 2653.81 3.58302 -5.08433 0
M  V30 21399 C 2652.62 5.17448 -6.36119 0
M  V30 21400 O 2652.23 4.45271 -7.53232 0
M  V30 21401 C 2651.74 4.74639 -5.19936 0
M  V30 21402 C 2652.45 3.49432 -4.70418 0
M  V30 21403 N 2652.4 3.31776 -3.22945 0
M  V30 21404 H 2655.24 6.54213 -5.71376 0
M  V30 21405 H 2655.52 5.30492 -4.44033 0
M  V30 21406 H 2654.65 4.55889 -6.76652 0
M  V30 21407 P 2650.68 4.23843 -7.83734 0
M  V30 21408 O 2650.46 4.19407 -9.29784 0
M  V30 21409 O 2649.89 5.24426 -7.09156 0
M  V30 21410 O 2650.43 2.7935 -7.20758 0
M  V30 21411 C 2651.37 1.72945 -7.50224 0
M  V30 21412 C 2650.64 0.406376 -7.57911 0
M  V30 21413 O 2650.43 -0.0897726 -6.21935 0
M  V30 21414 C 2649.24 0.438983 -8.18724 0
M  V30 21415 O 2648.85 -0.825065 -8.71101 0
M  V30 21416 C 2648.36 0.783689 -6.99524 0
M  V30 21417 C 2649.07 0.0619086 -5.85867 0
M  V30 21418 N 2649.02 0.78573 -4.56183 0
M  V30 21419 C 2648.87 0.0292889 -3.41887 0
M  V30 21420 O 2648.78 -1.18445 -3.4419 0
M  V30 21421 N 2648.83 0.744061 -2.23964 0
M  V30 21422 C 2648.92 2.10932 -2.10362 0
M  V30 21423 O 2648.87 2.64117 -0.98825 0
M  V30 21424 C 2649.07 2.8202 -3.34994 0
M  V30 21425 C 2649.18 4.31095 -3.25037 0
M  V30 21426 C 2649.12 2.15547 -4.52261 0
M  V30 21427 H 2651.87 1.93379 -8.46595 0
M  V30 21428 H 2652.13 1.68132 -6.70852 0
M  V30 21429 H 2651.27 -0.289041 -8.15388 0
M  V30 21430 H 2648.61 -0.926847 -5.72749 0
M  V30 21431 H 2648.33 1.86973 -6.82036 0
M  V30 21432 H 2647.34 0.403896 -7.13257 0
M  V30 21433 H 2649.18 1.20585 -8.97435 0
M  V30 21434 H 2649.25 2.71231 -5.45042 0
M  V30 21435 H 2648.22 4.76966 -3.49992 0
M  V30 21436 H 2649.95 4.67047 -3.95024 0
M  V30 21437 H 2649.47 4.58996 -2.22312 0
M  V30 21438 H 2648.73 0.214893 -1.39758 0
M  V30 21439 P 2647.3 -1.17771 -8.83182 0
M  V30 21440 O 2647.08 -2.07206 -9.98732 0
M  V30 21441 O 2646.51 0.0743816 -8.81969 0
M  V30 21442 O 2647.05 -1.97652 -7.47304 0
M  V30 21443 C 2647.99 -3.01133 -7.08783 0
M  V30 21444 C 2647.26 -4.12613 -6.37049 0
M  V30 21445 O 2647.05 -3.72827 -4.97879 0
M  V30 21446 C 2645.86 -4.45085 -6.88694 0
M  V30 21447 O 2645.47 -5.7877 -6.5624 0
M  V30 21448 C 2644.98 -3.47817 -6.12078 0
M  V30 21449 C 2645.69 -3.39414 -4.77697 0
M  V30 21450 N 2645.64 -2.04615 -4.15333 0
M  V30 21451 H 2648.48 -3.41248 -7.98759 0
M  V30 21452 H 2648.76 -2.5837 -6.41742 0
M  V30 21453 H 2647.89 -5.02657 -6.42673 0
M  V30 21454 P 2643.92 -6.144 -6.45285 0
M  V30 21455 O 2643.7 -7.54673 -6.86199 0
M  V30 21456 O 2643.13 -5.12391 -7.179 0
M  V30 21457 O 2643.67 -5.99158 -4.88404 0
M  V30 21458 C 2644.61 -6.60234 -3.96415 0
M  V30 21459 C 2643.88 -7.08259 -2.72856 0
M  V30 21460 O 2643.67 -5.9427 -1.83651 0
M  V30 21461 C 2642.48 -7.64886 -2.9555 0
M  V30 21462 O 2642.09 -8.53963 -1.90717 0
M  V30 21463 C 2641.6 -6.4116 -2.90739 0
M  V30 21464 C 2642.31 -5.55375 -1.86963 0
M  V30 21465 N 2642.26 -4.09448 -2.16152 0
M  V30 21466 H 2645.1 -7.45574 -4.45629 0
M  V30 21467 H 2645.38 -5.85864 -3.679 0
M  V30 21468 H 2644.51 -7.84412 -2.24479 0
M  V30 21469 H 2641.85 -5.73457 -0.888562 0
M  V30 21470 H 2641.57 -5.90877 -3.88583 0
M  V30 21471 H 2640.58 -6.6596 -2.58858 0
M  V30 21472 H 2642.42 -8.16339 -3.92049 0
M  V30 21473 P 2640.54 -8.7635 -1.60911 0
M  V30 21474 O 2640.32 -10.1388 -1.11561 0
M  V30 21475 O 2639.75 -8.36503 -2.79617 0
M  V30 21476 O 2640.29 -7.71806 -0.42951 0
M  V30 21477 C 2641.23 -7.66948 0.673514 0
M  V30 21478 C 2640.5 -7.33374 1.95559 0
M  V30 21479 O 2640.29 -5.88721 2.00726 0
M  V30 21480 C 2639.1 -7.92218 2.1125 0
M  V30 21481 O 2638.71 -8.02971 3.47653 0
M  V30 21482 C 2638.22 -6.89504 1.41631 0
M  V30 21483 C 2638.93 -5.59106 1.75155 0
M  V30 21484 N 2638.88 -4.58136 0.662409 0
M  V30 21485 C 2638.73 -3.26059 1.02863 0
M  V30 21486 O 2638.64 -2.90743 2.19009 0
M  V30 21487 N 2638.69 -2.35995 -0.0155585 0
M  V30 21488 C 2638.78 -2.65248 -1.35603 0
M  V30 21489 C 2638.93 -4.05747 -1.64698 0
M  V30 21490 C 2638.98 -4.96734 -0.652411 0
M  V30 21491 H 2641.73 -8.64917 0.776982 0
M  V30 21492 H 2641.99 -6.89974 0.474015 0
M  V30 21493 H 2641.13 -7.66548 2.79458 0
M  V30 21494 H 2638.47 -5.16076 2.65138 0
M  V30 21495 H 2638.19 -7.06433 0.329384 0
M  V30 21496 H 2637.2 -6.90829 1.81996 0
M  V30 21497 H 2639.04 -8.90774 1.62639 0
M  V30 21498 H 2639.11 -6.02181 -0.895285 0
M  V30 21499 P 2637.16 -8.03563 3.84925 0
M  V30 21500 O 2636.94 -8.85821 5.0569 0
M  V30 21501 O 2636.37 -8.41101 2.65469 0
M  V30 21502 O 2636.91 -6.4965 4.18908 0
M  V30 21503 C 2637.85 -5.81037 5.05421 0
M  V30 21504 C 2637.12 -4.78366 5.89277 0
M  V30 21505 O 2636.91 -3.58302 5.08433 0
M  V30 21506 C 2635.72 -5.17448 6.36119 0
M  V30 21507 O 2635.33 -4.45271 7.53232 0
M  V30 21508 C 2634.84 -4.74639 5.19936 0
M  V30 21509 C 2635.55 -3.49432 4.70418 0
M  V30 21510 N 2635.5 -3.31776 3.22945 0
M  V30 21511 H 2638.34 -6.54213 5.71376 0
M  V30 21512 H 2638.62 -5.30492 4.44033 0
M  V30 21513 H 2637.75 -4.55889 6.76652 0
M  V30 21514 P 2633.78 -4.23843 7.83734 0
M  V30 21515 O 2633.56 -4.19407 9.29784 0
M  V30 21516 O 2632.99 -5.24426 7.09156 0
M  V30 21517 O 2633.53 -2.7935 7.20758 0
M  V30 21518 C 2634.47 -1.7299 7.50419 0
M  V30 21519 C 2633.74 -0.406376 7.57911 0
M  V30 21520 O 2633.53 0.0897726 6.21935 0
M  V30 21521 C 2632.34 -0.447224 8.1878 0
M  V30 21522 O 2631.95 0.825065 8.71101 0
M  V30 21523 C 2631.46 -0.783801 6.99623 0
M  V30 21524 C 2632.17 -0.0619192 5.85967 0
M  V30 21525 N 2632.12 -0.7859 4.56281 0
M  V30 21526 H 2634.96 -1.93423 8.4679 0
M  V30 21527 H 2635.24 -1.68181 6.71046 0
M  V30 21528 H 2634.37 0.289041 8.15388 0
M  V30 21529 P 2630.4 1.17771 8.83182 0
M  V30 21530 O 2630.18 2.07206 9.98732 0
M  V30 21531 O 2629.61 -0.0743816 8.81969 0
M  V30 21532 O 2630.15 1.97652 7.47304 0
M  V30 21533 C 2631.09 3.01133 7.08783 0
M  V30 21534 C 2630.36 4.12613 6.37049 0
M  V30 21535 O 2630.15 3.72827 4.97879 0
M  V30 21536 C 2628.96 4.45085 6.88694 0
M  V30 21537 O 2628.57 5.7877 6.5624 0
M  V30 21538 C 2628.08 3.47817 6.12078 0
M  V30 21539 C 2628.79 3.39414 4.77697 0
M  V30 21540 N 2628.74 2.04615 4.15333 0
M  V30 21541 H 2631.58 3.41248 7.98759 0
M  V30 21542 H 2631.86 2.5837 6.41742 0
M  V30 21543 H 2630.99 5.02657 6.42673 0
M  V30 21544 P 2627.02 6.144 6.45285 0
M  V30 21545 O 2626.8 7.54673 6.86199 0
M  V30 21546 O 2626.23 5.12391 7.179 0
M  V30 21547 O 2626.77 5.99158 4.88404 0
M  V30 21548 C 2627.71 6.60234 3.96415 0
M  V30 21549 C 2626.98 7.08259 2.72856 0
M  V30 21550 O 2626.77 5.9427 1.83651 0
M  V30 21551 C 2625.58 7.64886 2.9555 0
M  V30 21552 O 2625.19 8.53963 1.90717 0
M  V30 21553 C 2624.7 6.4116 2.90739 0
M  V30 21554 C 2625.41 5.55375 1.86963 0
M  V30 21555 N 2625.36 4.09664 2.15742 0
M  V30 21556 H 2628.2 7.45574 4.45629 0
M  V30 21557 H 2628.48 5.86232 3.67314 0
M  V30 21558 H 2627.61 7.84412 2.24479 0
M  V30 21559 P 2623.64 8.7635 1.60911 0
M  V30 21560 O 2623.42 10.1388 1.11561 0
M  V30 21561 O 2622.85 8.36503 2.79617 0
M  V30 21562 O 2623.39 7.71806 0.42951 0
M  V30 21563 C 2624.33 7.67148 -0.673689 0
M  V30 21564 C 2623.6 7.33374 -1.95559 0
M  V30 21565 O 2623.39 5.88721 -2.00726 0
M  V30 21566 C 2622.2 7.92526 -2.10483 0
M  V30 21567 O 2621.81 8.02971 -3.47653 0
M  V30 21568 C 2621.32 6.89602 -1.41652 0
M  V30 21569 C 2622.03 5.59201 -1.75185 0
M  V30 21570 N 2621.98 4.58235 -0.662552 0
M  V30 21571 H 2624.82 8.65116 -0.777161 0
M  V30 21572 H 2625.1 6.90173 -0.474152 0
M  V30 21573 H 2624.23 7.66548 -2.79458 0
M  V30 21574 P 2620.26 8.03563 -3.84925 0
M  V30 21575 O 2620.04 8.85821 -5.0569 0
M  V30 21576 O 2619.47 8.41101 -2.65469 0
M  V30 21577 O 2620.01 6.4965 -4.18908 0
M  V30 21578 C 2620.95 5.80886 -5.05289 0
M  V30 21579 C 2620.22 4.78366 -5.89277 0
M  V30 21580 O 2620.01 3.58302 -5.08433 0
M  V30 21581 C 2618.82 5.16748 -6.36559 0
M  V30 21582 O 2618.43 4.45271 -7.53232 0
M  V30 21583 C 2617.94 4.74572 -5.19863 0
M  V30 21584 C 2618.65 3.49373 -4.70338 0
M  V30 21585 N 2618.6 3.31704 -3.22876 0
M  V30 21586 C 2618.45 2.03326 -2.74871 0
M  V30 21587 O 2618.36 1.06486 -3.48076 0
M  V30 21588 N 2618.41 1.91838 -1.37456 0
M  V30 21589 C 2618.5 2.94295 -0.462035 0
M  V30 21590 C 2618.65 4.25064 -1.05249 0
M  V30 21591 C 2618.7 4.40214 -2.39192 0
M  V30 21592 H 2621.45 6.54063 -5.71245 0
M  V30 21593 H 2621.71 5.30339 -4.43905 0
M  V30 21594 H 2620.85 4.55889 -6.76652 0
M  V30 21595 H 2618.19 2.6167 -5.17842 0
M  V30 21596 H 2617.91 5.52155 -4.41878 0
M  V30 21597 H 2616.92 4.51918 -5.53297 0
M  V30 21598 H 2618.76 6.25055 -6.55162 0
M  V30 21599 H 2618.83 5.39798 -2.81523 0
M  V30 21600 P 2616.88 4.23843 -7.83734 0
M  V30 21601 O 2616.66 4.19407 -9.29784 0
M  V30 21602 O 2616.09 5.24426 -7.09156 0
M  V30 21603 O 2616.63 2.7935 -7.20758 0
M  V30 21604 C 2617.57 1.72945 -7.50224 0
M  V30 21605 C 2616.84 0.406376 -7.57911 0
M  V30 21606 O 2616.63 -0.0897726 -6.21935 0
M  V30 21607 C 2615.44 0.438983 -8.18724 0
M  V30 21608 O 2615.05 -0.825065 -8.71101 0
M  V30 21609 C 2614.56 0.783689 -6.99524 0
M  V30 21610 C 2615.27 0.0619086 -5.85867 0
M  V30 21611 N 2615.22 0.78573 -4.56183 0
M  V30 21612 C 2615.07 0.0292889 -3.41887 0
M  V30 21613 O 2614.98 -1.18445 -3.4419 0
M  V30 21614 N 2615.03 0.744061 -2.23964 0
M  V30 21615 C 2615.12 2.10932 -2.10362 0
M  V30 21616 O 2615.07 2.64117 -0.98825 0
M  V30 21617 C 2615.27 2.8202 -3.34994 0
M  V30 21618 C 2615.38 4.31095 -3.25037 0
M  V30 21619 C 2615.32 2.15547 -4.52261 0
M  V30 21620 H 2618.07 1.93379 -8.46595 0
M  V30 21621 H 2618.33 1.68132 -6.70852 0
M  V30 21622 H 2617.47 -0.289041 -8.15388 0
M  V30 21623 H 2614.81 -0.926847 -5.72749 0
M  V30 21624 H 2614.53 1.86973 -6.82036 0
M  V30 21625 H 2613.54 0.403896 -7.13257 0
M  V30 21626 H 2615.38 1.20585 -8.97435 0
M  V30 21627 H 2615.45 2.71231 -5.45042 0
M  V30 21628 H 2614.42 4.76966 -3.49992 0
M  V30 21629 H 2616.15 4.67047 -3.95024 0
M  V30 21630 H 2615.67 4.58996 -2.22312 0
M  V30 21631 H 2614.93 0.214893 -1.39758 0
M  V30 21632 P 2613.5 -1.17771 -8.83182 0
M  V30 21633 O 2613.28 -2.07206 -9.98732 0
M  V30 21634 O 2612.71 0.0743816 -8.81969 0
M  V30 21635 O 2613.25 -1.97652 -7.47304 0
M  V30 21636 C 2614.19 -3.01133 -7.08783 0
M  V30 21637 C 2613.46 -4.12613 -6.37049 0
M  V30 21638 O 2613.25 -3.72827 -4.97879 0
M  V30 21639 C 2612.06 -4.45085 -6.88694 0
M  V30 21640 O 2611.67 -5.7877 -6.5624 0
M  V30 21641 C 2611.18 -3.47817 -6.12078 0
M  V30 21642 C 2611.89 -3.39414 -4.77697 0
M  V30 21643 N 2611.84 -2.04615 -4.15333 0
M  V30 21644 H 2614.68 -3.41248 -7.98759 0
M  V30 21645 H 2614.96 -2.5837 -6.41742 0
M  V30 21646 H 2614.09 -5.02657 -6.42673 0
M  V30 21647 P 2610.12 -6.144 -6.45285 0
M  V30 21648 O 2609.9 -7.54673 -6.86199 0
M  V30 21649 O 2609.33 -5.12391 -7.179 0
M  V30 21650 O 2609.87 -5.99236 -4.88467 0
M  V30 21651 C 2610.81 -6.60234 -3.96415 0
M  V30 21652 C 2610.08 -7.08079 -2.736 0
M  V30 21653 O 2609.87 -5.94365 -1.8368 0
M  V30 21654 C 2608.68 -7.64886 -2.9555 0
M  V30 21655 O 2608.29 -8.5406 -1.90739 0
M  V30 21656 C 2607.8 -6.4116 -2.90739 0
M  V30 21657 C 2608.51 -5.55375 -1.86963 0
M  V30 21658 N 2608.46 -4.09664 -2.15742 0
M  V30 21659 C 2608.31 -3.22231 -1.08477 0
M  V30 21660 O 2608.22 -3.68951 0.0600489 0
M  V30 21661 N 2608.26 -1.76692 -1.48799 0
M  V30 21662 C 2608.36 -1.41695 -2.57602 0
M  V30 21663 N 2608.31 -0.107296 -2.75791 0
M  V30 21664 C 2608.51 -2.29178 -3.69733 0
M  V30 21665 C 2608.56 -3.62753 -3.42653 0
M  V30 21666 H 2611.3 -7.45488 -4.45578 0
M  V30 21667 H 2611.57 -5.86232 -3.67314 0
M  V30 21668 H 2610.71 -7.84508 -2.24507 0
M  V30 21669 H 2608.05 -5.73556 -0.888715 0
M  V30 21670 H 2607.77 -5.9096 -3.88638 0
M  V30 21671 H 2606.78 -6.66053 -2.58894 0
M  V30 21672 H 2608.62 -8.16339 -3.92049 0
M  V30 21673 H 2608.69 -4.33052 -4.24913 0
M  V30 21674 H 2608.59 -1.9103 -4.71577 0
M  V30 21675 H 2608.2 0.521221 -1.95056 0
M  V30 21676 H 2608.39 0.286429 -3.70695 0
M  V30 21677 P 2606.74 -8.7635 -1.60911 0
M  V30 21678 O 2606.52 -10.1388 -1.11561 0
M  V30 21679 O 2605.95 -8.36503 -2.79617 0
M  V30 21680 O 2606.49 -7.71806 -0.42951 0
M  V30 21681 C 2607.43 -7.67148 0.673689 0
M  V30 21682 C 2606.7 -7.33374 1.95559 0
M  V30 21683 O 2606.49 -5.88721 2.00726 0
M  V30 21684 C 2605.3 -7.92526 2.10483 0
M  V30 21685 O 2604.91 -8.02971 3.47653 0
M  V30 21686 C 2604.42 -6.89602 1.41652 0
M  V30 21687 C 2605.13 -5.59201 1.75185 0
M  V30 21688 N 2605.08 -4.58235 0.662552 0
M  V30 21689 H 2607.92 -8.65116 0.777161 0
M  V30 21690 H 2608.2 -6.90173 0.474152 0
M  V30 21691 H 2607.33 -7.66548 2.79458 0
M  V30 21692 P 2603.36 -8.03563 3.84925 0
M  V30 21693 O 2603.14 -8.85821 5.0569 0
M  V30 21694 O 2602.57 -8.41101 2.65469 0
M  V30 21695 O 2603.11 -6.4965 4.18908 0
M  V30 21696 C 2604.05 -5.80886 5.05289 0
M  V30 21697 C 2603.32 -4.78366 5.89277 0
M  V30 21698 O 2603.11 -3.58302 5.08433 0
M  V30 21699 C 2601.92 -5.16748 6.36559 0
M  V30 21700 O 2601.53 -4.45271 7.53232 0
M  V30 21701 C 2601.04 -4.74572 5.19863 0
M  V30 21702 C 2601.75 -3.49373 4.70338 0
M  V30 21703 N 2601.7 -3.31704 3.22876 0
M  V30 21704 C 2601.55 -2.03326 2.74871 0
M  V30 21705 O 2601.46 -1.06486 3.48076 0
M  V30 21706 N 2601.51 -1.91838 1.37456 0
M  V30 21707 C 2601.6 -2.94295 0.462035 0
M  V30 21708 O 2601.55 -2.71763 -0.752928 0
M  V30 21709 C 2601.75 -4.25064 1.05249 0
M  V30 21710 C 2601.86 -5.39815 0.095697 0
M  V30 21711 C 2601.8 -4.40214 2.39192 0
M  V30 21712 H 2604.55 -6.54063 5.71245 0
M  V30 21713 H 2604.81 -5.30339 4.43905 0
M  V30 21714 H 2603.95 -4.55889 6.76652 0
M  V30 21715 H 2601.29 -2.6167 5.17842 0
M  V30 21716 H 2601.01 -5.52155 4.41878 0
M  V30 21717 H 2600.02 -4.51918 5.53297 0
M  V30 21718 H 2601.86 -6.25055 6.55162 0
M  V30 21719 H 2601.93 -5.39798 2.81523 0
M  V30 21720 H 2600.9 -5.91593 0.0279582 0
M  V30 21721 H 2602.63 -6.10038 0.450573 0
M  V30 21722 H 2602.15 -5.02007 -0.89937 0
M  V30 21723 H 2601.41 -0.995326 1.00435 0
M  V30 21724 P 2599.98 -4.23843 7.83734 0
M  V30 21725 O 2599.76 -4.19407 9.29784 0
M  V30 21726 O 2599.19 -5.24426 7.09156 0
M  V30 21727 O 2599.73 -2.7935 7.20758 0
M  V30 21728 C 2600.67 -1.7299 7.50419 0
M  V30 21729 C 2599.94 -0.406376 7.57911 0
M  V30 21730 O 2599.73 0.0897726 6.21935 0
M  V30 21731 C 2598.54 -0.447224 8.1878 0
M  V30 21732 O 2598.15 0.825065 8.71101 0
M  V30 21733 C 2597.66 -0.783801 6.99623 0
M  V30 21734 C 2598.37 -0.0619192 5.85967 0
M  V30 21735 N 2598.32 -0.790462 4.56202 0
M  V30 21736 H 2601.16 -1.93423 8.4679 0
M  V30 21737 H 2601.44 -1.68852 6.70877 0
M  V30 21738 H 2600.57 0.289041 8.15388 0
M  V30 21739 H 2597.91 0.927006 5.72848 0
M  V30 21740 H 2597.63 -1.86973 6.82036 0
M  V30 21741 H 2596.64 -0.403953 7.13357 0
M  V30 21742 H 2598.48 -1.20599 8.97534 0
M  V30 21743 P 2596.6 1.17771 8.83182 0
M  V30 21744 O 2596.38 2.07206 9.98732 0
M  V30 21745 O 2595.81 -0.0743816 8.81969 0
M  V30 21746 O 2596.35 1.97652 7.47304 0
M  V30 21747 C 2597.29 3.01133 7.08783 0
M  V30 21748 C 2596.56 4.12613 6.37049 0
M  V30 21749 O 2596.35 3.72827 4.97879 0
M  V30 21750 C 2595.16 4.45085 6.88694 0
M  V30 21751 O 2594.77 5.7877 6.5624 0
M  V30 21752 C 2594.28 3.47817 6.12078 0
M  V30 21753 C 2594.99 3.39414 4.77697 0
M  V30 21754 N 2594.94 2.04615 4.15333 0
M  V30 21755 H 2597.78 3.41248 7.98759 0
M  V30 21756 H 2598.06 2.5837 6.41742 0
M  V30 21757 H 2597.19 5.02657 6.42673 0
M  V30 21758 P 2593.22 6.144 6.45285 0
M  V30 21759 O 2593 7.54673 6.86199 0
M  V30 21760 O 2592.43 5.12391 7.179 0
M  V30 21761 O 2592.97 5.99236 4.88467 0
M  V30 21762 C 2593.91 6.60234 3.96415 0
M  V30 21763 C 2593.18 7.08079 2.736 0
M  V30 21764 O 2592.97 5.94365 1.8368 0
M  V30 21765 C 2591.78 7.64886 2.9555 0
M  V30 21766 O 2591.39 8.5406 1.90739 0
M  V30 21767 C 2590.9 6.4116 2.90739 0
M  V30 21768 C 2591.61 5.55375 1.86963 0
M  V30 21769 N 2591.56 4.09664 2.15742 0
M  V30 21770 C 2591.41 3.22231 1.08477 0
M  V30 21771 O 2591.32 3.68951 -0.0600489 0
M  V30 21772 N 2591.36 1.76692 1.48799 0
M  V30 21773 C 2591.46 1.41695 2.57602 0
M  V30 21774 N 2591.41 0.107296 2.75791 0
M  V30 21775 C 2591.61 2.29178 3.69733 0
M  V30 21776 C 2591.66 3.62753 3.42653 0
M  V30 21777 H 2594.4 7.45488 4.45578 0
M  V30 21778 H 2594.67 5.86232 3.67314 0
M  V30 21779 H 2593.81 7.84508 2.24507 0
M  V30 21780 H 2591.15 5.73556 0.888715 0
M  V30 21781 H 2590.87 5.9096 3.88638 0
M  V30 21782 H 2589.88 6.66053 2.58894 0
M  V30 21783 H 2591.72 8.16339 3.92049 0
M  V30 21784 H 2591.79 4.33052 4.24913 0
M  V30 21785 H 2591.69 1.9103 4.71577 0
M  V30 21786 H 2591.3 -0.521221 1.95056 0
M  V30 21787 H 2591.49 -0.286429 3.70695 0
M  V30 21788 P 2589.84 8.7635 1.60911 0
M  V30 21789 O 2589.62 10.1388 1.11561 0
M  V30 21790 O 2589.05 8.36503 2.79617 0
M  V30 21791 O 2589.59 7.71806 0.42951 0
M  V30 21792 C 2590.53 7.67148 -0.673689 0
M  V30 21793 C 2589.8 7.33374 -1.95559 0
M  V30 21794 O 2589.59 5.88721 -2.00726 0
M  V30 21795 C 2588.4 7.92526 -2.10483 0
M  V30 21796 O 2588.01 8.02971 -3.47653 0
M  V30 21797 C 2587.52 6.89602 -1.41652 0
M  V30 21798 C 2588.23 5.59201 -1.75185 0
M  V30 21799 N 2588.18 4.58235 -0.662552 0
M  V30 21800 C 2588.26 4.7683 0.704049 0
M  V30 21801 N 2588.18 3.66233 1.39775 0
M  V30 21802 C 2588.04 2.66526 0.431739 0
M  V30 21803 C 2587.91 1.26394 0.575992 0
M  V30 21804 N 2587.79 0.62859 -0.67177 0
M  V30 21805 C 2587.79 1.27134 -1.89385 0
M  V30 21806 N 2587.66 0.492035 -2.96951 0
M  V30 21807 N 2587.92 2.58978 -2.02907 0
M  V30 21808 C 2588.04 3.22433 -0.832218 0
M  V30 21809 H 2591.02 8.65116 -0.777161 0
M  V30 21810 H 2591.3 6.90173 -0.474152 0
M  V30 21811 H 2590.43 7.66548 -2.79458 0
M  V30 21812 P 2586.46 8.03563 -3.84925 0
M  V30 21813 O 2586.24 8.85821 -5.0569 0
M  V30 21814 O 2585.67 8.41101 -2.65469 0
M  V30 21815 O 2586.21 6.4965 -4.18908 0
M  V30 21816 C 2587.15 5.81037 -5.05421 0
M  V30 21817 C 2586.42 4.78366 -5.89277 0
M  V30 21818 O 2586.21 3.58302 -5.08433 0
M  V30 21819 C 2585.02 5.17448 -6.36119 0
M  V30 21820 O 2584.63 4.45271 -7.53232 0
M  V30 21821 C 2584.14 4.74639 -5.19936 0
M  V30 21822 C 2584.85 3.49432 -4.70418 0
M  V30 21823 N 2584.8 3.31776 -3.22945 0
M  V30 21824 H 2587.64 6.54213 -5.71376 0
M  V30 21825 H 2587.92 5.30492 -4.44033 0
M  V30 21826 H 2587.05 4.55889 -6.76652 0
M  V30 21827 P 2583.08 4.23843 -7.83734 0
M  V30 21828 O 2582.86 4.19407 -9.29784 0
M  V30 21829 O 2582.29 5.24426 -7.09156 0
M  V30 21830 O 2582.83 2.7935 -7.20758 0
M  V30 21831 C 2583.77 1.7299 -7.50419 0
M  V30 21832 C 2583.04 0.406376 -7.57911 0
M  V30 21833 O 2582.83 -0.0897726 -6.21935 0
M  V30 21834 C 2581.64 0.447224 -8.1878 0
M  V30 21835 O 2581.25 -0.825065 -8.71101 0
M  V30 21836 C 2580.76 0.783801 -6.99623 0
M  V30 21837 C 2581.47 0.0619192 -5.85967 0
M  V30 21838 N 2581.42 0.7859 -4.56281 0
M  V30 21839 H 2584.26 1.93423 -8.4679 0
M  V30 21840 H 2584.54 1.68181 -6.71046 0
M  V30 21841 H 2583.67 -0.289041 -8.15388 0
M  V30 21842 P 2579.7 -1.17771 -8.83182 0
M  V30 21843 O 2579.48 -2.07206 -9.98732 0
M  V30 21844 O 2578.91 0.0743816 -8.81969 0
M  V30 21845 O 2579.45 -1.97678 -7.474 0
M  V30 21846 C 2580.39 -3.01133 -7.08783 0
M  V30 21847 C 2579.66 -4.1203 -6.37546 0
M  V30 21848 O 2579.45 -3.72887 -4.9796 0
M  V30 21849 C 2578.26 -4.45085 -6.88694 0
M  V30 21850 O 2577.87 -5.78836 -6.56315 0
M  V30 21851 C 2577.38 -3.47817 -6.12078 0
M  V30 21852 C 2578.09 -3.39414 -4.77697 0
M  V30 21853 N 2578.04 -2.04615 -4.15333 0
M  V30 21854 C 2577.89 -1.96929 -2.77162 0
M  V30 21855 O 2577.8 -3.02017 -2.12006 0
M  V30 21856 N 2577.84 -0.55485 -2.24237 0
M  V30 21857 C 2577.94 0.367808 -2.9169 0
M  V30 21858 N 2577.89 1.53426 -2.29427 0
M  V30 21859 C 2578.09 0.319148 -4.33828 0
M  V30 21860 C 2578.14 -0.920672 -4.90433 0
M  V30 21861 H 2580.88 -3.41209 -7.98667 0
M  V30 21862 H 2581.15 -2.5837 -6.41742 0
M  V30 21863 H 2580.29 -5.02718 -6.42752 0
M  V30 21864 H 2577.63 -4.11779 -4.09026 0
M  V30 21865 H 2577.35 -2.49661 -6.61772 0
M  V30 21866 H 2576.36 -3.86674 -6.00946 0
M  V30 21867 H 2578.2 -4.29991 -7.97006 0
M  V30 21868 H 2578.27 -1.00589 -5.98303 0
M  V30 21869 H 2578.17 1.22639 -4.93799 0
M  V30 21870 H 2577.78 1.56819 -1.27167 0
M  V30 21871 H 2577.97 2.41062 -2.83063 0
M  V30 21872 P 2576.32 -6.144 -6.45285 0
M  V30 21873 O 2576.1 -7.54673 -6.86199 0
M  V30 21874 O 2575.53 -5.12391 -7.179 0
M  V30 21875 O 2576.07 -5.99158 -4.88404 0
M  V30 21876 C 2577.01 -6.60234 -3.96415 0
M  V30 21877 C 2576.28 -7.08259 -2.72856 0
M  V30 21878 O 2576.07 -5.9427 -1.83651 0
M  V30 21879 C 2574.88 -7.64886 -2.9555 0
M  V30 21880 O 2574.49 -8.53963 -1.90717 0
M  V30 21881 C 2574 -6.4116 -2.90739 0
M  V30 21882 C 2574.71 -5.55375 -1.86963 0
M  V30 21883 N 2574.66 -4.09664 -2.15742 0
M  V30 21884 H 2577.5 -7.45574 -4.45629 0
M  V30 21885 H 2577.78 -5.86232 -3.67314 0
M  V30 21886 H 2576.91 -7.84412 -2.24479 0
M  V30 21887 P 2572.94 -8.7635 -1.60911 0
M  V30 21888 O 2572.72 -10.1388 -1.11561 0
M  V30 21889 O 2572.15 -8.36503 -2.79617 0
M  V30 21890 O 2572.69 -7.71806 -0.42951 0
M  V30 21891 C 2573.63 -7.67148 0.673689 0
M  V30 21892 C 2572.9 -7.33374 1.95559 0
M  V30 21893 O 2572.69 -5.88721 2.00726 0
M  V30 21894 C 2571.5 -7.92526 2.10483 0
M  V30 21895 O 2571.11 -8.02971 3.47653 0
M  V30 21896 C 2570.62 -6.89602 1.41652 0
M  V30 21897 C 2571.33 -5.59201 1.75185 0
M  V30 21898 N 2571.28 -4.58235 0.662552 0
M  V30 21899 H 2574.12 -8.65116 0.777161 0
M  V30 21900 H 2574.4 -6.90173 0.474152 0
M  V30 21901 H 2573.53 -7.66548 2.79458 0
M  V30 21902 P 2569.56 -8.03563 3.84925 0
M  V30 21903 O 2569.34 -8.85821 5.0569 0
M  V30 21904 O 2568.77 -8.41101 2.65469 0
M  V30 21905 O 2569.31 -6.4965 4.18908 0
M  V30 21906 C 2570.25 -5.81037 5.05421 0
M  V30 21907 C 2569.52 -4.78366 5.89277 0
M  V30 21908 O 2569.31 -3.58302 5.08433 0
M  V30 21909 C 2568.12 -5.17448 6.36119 0
M  V30 21910 O 2567.73 -4.45271 7.53232 0
M  V30 21911 C 2567.24 -4.74639 5.19936 0
M  V30 21912 C 2567.95 -3.49432 4.70418 0
M  V30 21913 N 2567.9 -3.31776 3.22945 0
M  V30 21914 H 2570.74 -6.54213 5.71376 0
M  V30 21915 H 2571.02 -5.30492 4.44033 0
M  V30 21916 H 2570.15 -4.55889 6.76652 0
M  V30 21917 P 2566.18 -4.23843 7.83734 0
M  V30 21918 O 2565.96 -4.19407 9.29784 0
M  V30 21919 O 2565.39 -5.24426 7.09156 0
M  V30 21920 O 2565.93 -2.7935 7.20758 0
M  V30 21921 C 2566.87 -1.72945 7.50224 0
M  V30 21922 C 2566.14 -0.406376 7.57911 0
M  V30 21923 O 2565.93 0.0897726 6.21935 0
M  V30 21924 C 2564.74 -0.438983 8.18724 0
M  V30 21925 O 2564.35 0.825065 8.71101 0
M  V30 21926 C 2563.86 -0.783689 6.99524 0
M  V30 21927 C 2564.57 -0.0619086 5.85867 0
M  V30 21928 N 2564.52 -0.78573 4.56183 0
M  V30 21929 C 2564.37 -0.0292889 3.41887 0
M  V30 21930 O 2564.28 1.18445 3.4419 0
M  V30 21931 N 2564.33 -0.744061 2.23964 0
M  V30 21932 C 2564.42 -2.10932 2.10362 0
M  V30 21933 O 2564.37 -2.64117 0.98825 0
M  V30 21934 C 2564.57 -2.8202 3.34994 0
M  V30 21935 C 2564.68 -4.31095 3.25037 0
M  V30 21936 C 2564.62 -2.15547 4.52261 0
M  V30 21937 H 2567.37 -1.93379 8.46595 0
M  V30 21938 H 2567.63 -1.68132 6.70852 0
M  V30 21939 H 2566.77 0.289041 8.15388 0
M  V30 21940 H 2564.11 0.926847 5.72749 0
M  V30 21941 H 2563.83 -1.86973 6.82036 0
M  V30 21942 H 2562.84 -0.403896 7.13257 0
M  V30 21943 H 2564.68 -1.20585 8.97435 0
M  V30 21944 H 2564.75 -2.71231 5.45042 0
M  V30 21945 H 2563.72 -4.76966 3.49992 0
M  V30 21946 H 2565.45 -4.67047 3.95024 0
M  V30 21947 H 2564.97 -4.58996 2.22312 0
M  V30 21948 H 2564.23 -0.214893 1.39758 0
M  V30 21949 P 2562.8 1.17771 8.83182 0
M  V30 21950 O 2562.58 2.07206 9.98732 0
M  V30 21951 O 2562.01 -0.0743816 8.81969 0
M  V30 21952 O 2562.55 1.97652 7.47304 0
M  V30 21953 C 2563.49 3.01133 7.08783 0
M  V30 21954 C 2562.76 4.12613 6.37049 0
M  V30 21955 O 2562.55 3.72827 4.97879 0
M  V30 21956 C 2561.36 4.45085 6.88694 0
M  V30 21957 O 2560.97 5.7877 6.5624 0
M  V30 21958 C 2560.48 3.47817 6.12078 0
M  V30 21959 C 2561.19 3.39414 4.77697 0
M  V30 21960 N 2561.14 2.04199 4.15538 0
M  V30 21961 H 2563.98 3.41248 7.98759 0
M  V30 21962 H 2564.26 2.57728 6.42 0
M  V30 21963 H 2563.39 5.02657 6.42673 0
M  V30 21964 H 2560.73 4.11708 4.08956 0
M  V30 21965 H 2560.45 2.49626 6.61679 0
M  V30 21966 H 2559.46 3.8662 6.00862 0
M  V30 21967 H 2561.3 4.29991 7.97006 0
M  V30 21968 P 2559.42 6.144 6.45285 0
M  V30 21969 O 2559.2 7.54673 6.86199 0
M  V30 21970 O 2558.63 5.12391 7.179 0
M  V30 21971 O 2559.17 5.99158 4.88404 0
M  V30 21972 C 2560.11 6.60062 3.96313 0
M  V30 21973 C 2559.38 7.08259 2.72856 0
M  V30 21974 O 2559.17 5.9427 1.83651 0
M  V30 21975 C 2557.98 7.65087 2.94749 0
M  V30 21976 O 2557.59 8.53963 1.90717 0
M  V30 21977 C 2557.1 6.41069 2.90698 0
M  V30 21978 C 2557.81 5.5528 1.86931 0
M  V30 21979 N 2557.76 4.09575 2.15696 0
M  V30 21980 C 2557.61 3.24249 1.08435 0
M  V30 21981 O 2557.52 3.63946 -0.0628747 0
M  V30 21982 N 2557.57 1.90009 1.39973 0
M  V30 21983 C 2557.66 1.34884 2.65614 0
M  V30 21984 O 2557.61 0.123716 2.81728 0
M  V30 21985 C 2557.81 2.3145 3.71736 0
M  V30 21986 C 2557.92 1.75913 5.10438 0
M  V30 21987 C 2557.86 3.63518 3.44754 0
M  V30 21988 H 2560.61 7.45402 4.45526 0
M  V30 21989 H 2560.87 5.86062 3.67208 0
M  V30 21990 H 2560.01 7.84412 2.24479 0
M  V30 21991 H 2557.35 5.73358 0.888409 0
M  V30 21992 H 2557.07 5.90877 3.88583 0
M  V30 21993 H 2556.08 6.65867 2.58821 0
M  V30 21994 H 2557.92 8.16248 3.92006 0
M  V30 21995 H 2557.99 4.34551 4.26383 0
M  V30 21996 H 2556.96 1.85471 5.61775 0
M  V30 21997 H 2558.69 2.31364 5.66257 0
M  V30 21998 H 2558.21 0.695936 5.05229 0
M  V30 21999 H 2557.47 1.26277 0.63625 0
M  V30 22000 P 2556.04 8.7635 1.60911 0
M  V30 22001 O 2555.82 10.1388 1.11561 0
M  V30 22002 O 2555.25 8.36503 2.79617 0
M  V30 22003 O 2555.79 7.71806 0.42951 0
M  V30 22004 C 2556.73 7.67148 -0.673689 0
M  V30 22005 C 2556 7.33374 -1.95559 0
M  V30 22006 O 2555.79 5.88721 -2.00726 0
M  V30 22007 C 2554.6 7.92526 -2.10483 0
M  V30 22008 O 2554.21 8.02971 -3.47653 0
M  V30 22009 C 2553.72 6.89602 -1.41652 0
M  V30 22010 C 2554.43 5.59201 -1.75185 0
M  V30 22011 N 2554.38 4.58301 -0.657969 0
M  V30 22012 H 2557.22 8.65116 -0.777161 0
M  V30 22013 H 2557.5 6.9022 -0.46725 0
M  V30 22014 H 2556.63 7.66548 -2.79458 0
M  V30 22015 H 2553.97 5.16165 -2.65183 0
M  V30 22016 H 2553.69 7.06433 -0.329384 0
M  V30 22017 H 2552.7 6.90926 -1.82021 0
M  V30 22018 H 2554.54 8.90873 -1.62657 0
M  V30 22019 P 2552.66 8.03563 -3.84925 0
M  V30 22020 O 2552.44 8.85821 -5.0569 0
M  V30 22021 O 2551.87 8.41101 -2.65469 0
M  V30 22022 O 2552.41 6.4965 -4.18908 0
M  V30 22023 C 2553.35 5.80886 -5.05289 0
M  V30 22024 C 2552.62 4.78366 -5.89277 0
M  V30 22025 O 2552.41 3.58302 -5.08433 0
M  V30 22026 C 2551.22 5.16748 -6.36559 0
M  V30 22027 O 2550.83 4.45271 -7.53232 0
M  V30 22028 C 2550.34 4.74572 -5.19863 0
M  V30 22029 C 2551.05 3.49373 -4.70338 0
M  V30 22030 N 2551 3.31704 -3.22876 0
M  V30 22031 C 2550.85 2.03326 -2.74871 0
M  V30 22032 O 2550.76 1.06486 -3.48076 0
M  V30 22033 N 2550.81 1.91838 -1.37456 0
M  V30 22034 C 2550.9 2.94295 -0.462035 0
M  V30 22035 C 2551.05 4.25064 -1.05249 0
M  V30 22036 C 2551.1 4.40214 -2.39192 0
M  V30 22037 H 2553.85 6.54063 -5.71245 0
M  V30 22038 H 2554.11 5.30339 -4.43905 0
M  V30 22039 H 2553.25 4.55889 -6.76652 0
M  V30 22040 H 2550.59 2.6167 -5.17842 0
M  V30 22041 H 2550.31 5.52155 -4.41878 0
M  V30 22042 H 2549.32 4.51918 -5.53297 0
M  V30 22043 H 2551.16 6.25055 -6.55162 0
M  V30 22044 H 2551.23 5.39798 -2.81523 0
M  V30 22045 P 2549.28 4.23843 -7.83734 0
M  V30 22046 O 2549.06 4.19407 -9.29784 0
M  V30 22047 O 2548.49 5.24426 -7.09156 0
M  V30 22048 O 2549.03 2.7935 -7.20758 0
M  V30 22049 C 2549.97 1.72945 -7.50224 0
M  V30 22050 C 2549.24 0.406376 -7.57911 0
M  V30 22051 O 2549.03 -0.0897726 -6.21935 0
M  V30 22052 C 2547.84 0.438983 -8.18724 0
M  V30 22053 O 2547.45 -0.825065 -8.71101 0
M  V30 22054 C 2546.96 0.783689 -6.99524 0
M  V30 22055 C 2547.67 0.0619086 -5.85867 0
M  V30 22056 N 2547.62 0.78573 -4.56183 0
M  V30 22057 C 2547.47 0.0292889 -3.41887 0
M  V30 22058 O 2547.38 -1.18445 -3.4419 0
M  V30 22059 N 2547.43 0.744061 -2.23964 0
M  V30 22060 C 2547.52 2.10932 -2.10362 0
M  V30 22061 C 2547.67 2.8202 -3.34994 0
M  V30 22062 C 2547.72 2.15547 -4.52261 0
M  V30 22063 H 2550.47 1.93379 -8.46595 0
M  V30 22064 H 2550.73 1.68132 -6.70852 0
M  V30 22065 H 2549.87 -0.289041 -8.15388 0
M  V30 22066 H 2547.21 -0.926847 -5.72749 0
M  V30 22067 H 2546.93 1.86973 -6.82036 0
M  V30 22068 H 2545.94 0.403896 -7.13257 0
M  V30 22069 H 2547.78 1.20585 -8.97435 0
M  V30 22070 H 2547.85 2.71231 -5.45042 0
M  V30 22071 P 2545.9 -1.17771 -8.83182 0
M  V30 22072 O 2545.68 -2.07206 -9.98732 0
M  V30 22073 O 2545.11 0.0743816 -8.81969 0
M  V30 22074 O 2545.65 -1.97652 -7.47304 0
M  V30 22075 C 2546.59 -3.01133 -7.08783 0
M  V30 22076 C 2545.86 -4.12613 -6.37049 0
M  V30 22077 O 2545.65 -3.72827 -4.97879 0
M  V30 22078 C 2544.46 -4.45085 -6.88694 0
M  V30 22079 O 2544.07 -5.7877 -6.5624 0
M  V30 22080 C 2543.58 -3.47817 -6.12078 0
M  V30 22081 C 2544.29 -3.39414 -4.77697 0
M  V30 22082 N 2544.24 -2.04615 -4.15333 0
M  V30 22083 H 2547.08 -3.41248 -7.98759 0
M  V30 22084 H 2547.36 -2.5837 -6.41742 0
M  V30 22085 H 2546.49 -5.02657 -6.42673 0
M  V30 22086 P 2542.52 -6.144 -6.45285 0
M  V30 22087 O 2542.3 -7.54673 -6.86199 0
M  V30 22088 O 2541.73 -5.12391 -7.179 0
M  V30 22089 O 2542.27 -5.99158 -4.88404 0
M  V30 22090 C 2543.21 -6.60234 -3.96415 0
M  V30 22091 C 2542.48 -7.08259 -2.72856 0
M  V30 22092 O 2542.27 -5.9427 -1.83651 0
M  V30 22093 C 2541.08 -7.64886 -2.9555 0
M  V30 22094 O 2540.69 -8.53963 -1.90717 0
M  V30 22095 C 2540.2 -6.4116 -2.90739 0
M  V30 22096 C 2540.91 -5.55375 -1.86963 0
M  V30 22097 N 2540.86 -4.09664 -2.15742 0
M  V30 22098 H 2543.7 -7.45574 -4.45629 0
M  V30 22099 H 2543.98 -5.86232 -3.67314 0
M  V30 22100 H 2543.11 -7.84412 -2.24479 0
M  V30 22101 P 2539.15 -8.7635 -1.60911 0
M  V30 22102 O 2538.93 -10.1388 -1.11561 0
M  V30 22103 O 2538.36 -8.36503 -2.79617 0
M  V30 22104 O 2538.9 -7.71806 -0.42951 0
M  V30 22105 C 2539.84 -7.67148 0.673689 0
M  V30 22106 C 2539.11 -7.33374 1.95559 0
M  V30 22107 O 2538.9 -5.88721 2.00726 0
M  V30 22108 C 2537.71 -7.92526 2.10483 0
M  V30 22109 O 2537.32 -8.02971 3.47653 0
M  V30 22110 C 2536.83 -6.89602 1.41652 0
M  V30 22111 C 2537.54 -5.59201 1.75185 0
M  V30 22112 N 2537.49 -4.58301 0.657969 0
M  V30 22113 H 2540.32 -8.65116 0.777161 0
M  V30 22114 H 2540.6 -6.9022 0.46725 0
M  V30 22115 H 2539.73 -7.66548 2.79458 0
M  V30 22116 H 2537.07 -5.16165 2.65183 0
M  V30 22117 H 2536.79 -7.06433 0.329384 0
M  V30 22118 H 2535.8 -6.90926 1.82021 0
M  V30 22119 H 2537.64 -8.90873 1.62657 0
M  V30 22120 P 2535.77 -8.03563 3.84925 0
M  V30 22121 O 2535.55 -8.85821 5.0569 0
M  V30 22122 O 2534.98 -8.41101 2.65469 0
M  V30 22123 O 2535.52 -6.4965 4.18908 0
M  V30 22124 C 2536.46 -5.81037 5.05421 0
M  V30 22125 C 2535.73 -4.78366 5.89277 0
M  V30 22126 O 2535.52 -3.58302 5.08433 0
M  V30 22127 C 2534.33 -5.17448 6.36119 0
M  V30 22128 O 2533.94 -4.45271 7.53232 0
M  V30 22129 C 2533.45 -4.74639 5.19936 0
M  V30 22130 C 2534.16 -3.49432 4.70418 0
M  V30 22131 N 2534.11 -3.32099 3.22613 0
M  V30 22132 C 2534.19 -4.28245 2.25527 0
M  V30 22133 N 2534.12 -3.80823 1.04874 0
M  V30 22134 C 2533.97 -2.44571 1.23535 0
M  V30 22135 C 2533.84 -1.37068 0.330675 0
M  V30 22136 N 2533.83 -1.51472 -0.990824 0
M  V30 22137 N 2533.72 -0.138614 0.848756 0
M  V30 22138 C 2533.73 0.00675923 2.16999 0
M  V30 22139 N 2533.85 -0.904372 3.11122 0
M  V30 22140 C 2533.97 -2.12707 2.56212 0
M  V30 22141 H 2536.94 -6.54213 5.71376 0
M  V30 22142 H 2537.22 -5.30936 4.43503 0
M  V30 22143 H 2536.35 -4.55889 6.76652 0
M  V30 22144 H 2533.69 -2.61715 5.17932 0
M  V30 22145 H 2533.41 -5.52155 4.41878 0
M  V30 22146 H 2532.42 -4.51981 5.53374 0
M  V30 22147 H 2534.26 -6.25124 6.55234 0
M  V30 22148 H 2534.3 -5.34372 2.47488 0
M  V30 22149 H 2533.92 -2.45153 -1.4078 0
M  V30 22150 H 2533.73 -0.688422 -1.59911 0
M  V30 22151 H 2533.62 1.02584 2.52346 0
M  V30 22152 P 2532.39 -4.23843 7.83734 0
M  V30 22153 O 2532.17 -4.19407 9.29784 0
M  V30 22154 O 2531.6 -5.24426 7.09156 0
M  V30 22155 O 2532.14 -2.7935 7.20758 0
M  V30 22156 C 2533.08 -1.7299 7.50419 0
M  V30 22157 C 2532.35 -0.406376 7.57911 0
M  V30 22158 O 2532.14 0.0897726 6.21935 0
M  V30 22159 C 2530.95 -0.447224 8.1878 0
M  V30 22160 O 2530.56 0.825065 8.71101 0
M  V30 22161 C 2530.07 -0.783801 6.99623 0
M  V30 22162 C 2530.78 -0.0619192 5.85967 0
M  V30 22163 N 2530.73 -0.7859 4.56281 0
M  V30 22164 H 2533.56 -1.93423 8.4679 0
M  V30 22165 H 2533.84 -1.68181 6.71046 0
M  V30 22166 H 2532.97 0.289041 8.15388 0
M  V30 22167 P 2529.01 1.17771 8.83182 0
M  V30 22168 O 2528.79 2.07206 9.98732 0
M  V30 22169 O 2528.22 -0.0743816 8.81969 0
M  V30 22170 O 2528.76 1.97652 7.47304 0
M  V30 22171 C 2529.7 3.01133 7.08783 0
M  V30 22172 C 2528.97 4.12613 6.37049 0
M  V30 22173 O 2528.76 3.72827 4.97879 0
M  V30 22174 C 2527.57 4.45085 6.88694 0
M  V30 22175 O 2527.18 5.7877 6.5624 0
M  V30 22176 C 2526.69 3.47817 6.12078 0
M  V30 22177 C 2527.4 3.39414 4.77697 0
M  V30 22178 N 2527.35 2.04199 4.15538 0
M  V30 22179 C 2527.43 0.821545 4.76977 0
M  V30 22180 N 2527.36 -0.1794 3.94592 0
M  V30 22181 C 2527.21 0.419121 2.70776 0
M  V30 22182 C 2527.08 -0.109072 1.40577 0
M  V30 22183 N 2527.07 -1.4104 1.1344 0
M  V30 22184 N 2526.96 0.764381 0.39411 0
M  V30 22185 C 2526.97 2.06587 0.664135 0
M  V30 22186 N 2527.09 2.67948 1.82153 0
M  V30 22187 C 2527.21 1.77942 2.8147 0
M  V30 22188 H 2530.18 3.41248 7.98759 0
M  V30 22189 H 2530.46 2.57728 6.42 0
M  V30 22190 H 2529.59 5.02657 6.42673 0
M  V30 22191 H 2526.93 4.11708 4.08956 0
M  V30 22192 H 2526.65 2.49626 6.61679 0
M  V30 22193 H 2525.66 3.8662 6.00862 0
M  V30 22194 H 2527.5 4.29991 7.97006 0
M  V30 22195 H 2527.54 0.702451 5.84696 0
M  V30 22196 H 2527.16 -2.09647 1.89651 0
M  V30 22197 H 2526.97 -1.73358 0.160575 0
M  V30 22198 H 2526.86 2.71695 -0.195838 0
M  V30 22199 P 2525.63 6.144 6.45285 0
M  V30 22200 O 2525.41 7.54673 6.86199 0
M  V30 22201 O 2524.84 5.12391 7.179 0
M  V30 22202 O 2525.38 5.99158 4.88404 0
M  V30 22203 C 2526.32 6.60234 3.96415 0
M  V30 22204 C 2525.59 7.08259 2.72856 0
M  V30 22205 O 2525.38 5.9427 1.83651 0
M  V30 22206 C 2524.19 7.64886 2.9555 0
M  V30 22207 O 2523.8 8.53963 1.90717 0
M  V30 22208 C 2523.31 6.4116 2.90739 0
M  V30 22209 C 2524.02 5.55375 1.86963 0
M  V30 22210 N 2523.97 4.09664 2.15742 0
M  V30 22211 H 2526.8 7.45574 4.45629 0
M  V30 22212 H 2527.08 5.86232 3.67314 0
M  V30 22213 H 2526.21 7.84412 2.24479 0
M  V30 22214 P 2522.25 8.7635 1.60911 0
M  V30 22215 O 2522.03 10.1388 1.11561 0
M  V30 22216 O 2521.46 8.36503 2.79617 0
M  V30 22217 O 2522 7.71806 0.42951 0
M  V30 22218 C 2522.94 7.67148 -0.673689 0
M  V30 22219 C 2522.21 7.33374 -1.95559 0
M  V30 22220 O 2522 5.88721 -2.00726 0
M  V30 22221 C 2520.81 7.92526 -2.10483 0
M  V30 22222 O 2520.42 8.02971 -3.47653 0
M  V30 22223 C 2519.93 6.89602 -1.41652 0
M  V30 22224 C 2520.64 5.59201 -1.75185 0
M  V30 22225 N 2520.59 4.58235 -0.662552 0
M  V30 22226 H 2523.42 8.65116 -0.777161 0
M  V30 22227 H 2523.7 6.90173 -0.474152 0
M  V30 22228 H 2522.83 7.66548 -2.79458 0
M  V30 22229 P 2518.87 8.03563 -3.84925 0
M  V30 22230 O 2518.65 8.85821 -5.0569 0
M  V30 22231 O 2518.08 8.41101 -2.65469 0
M  V30 22232 O 2518.62 6.4965 -4.18908 0
M  V30 22233 C 2519.56 5.81037 -5.05421 0
M  V30 22234 C 2518.83 4.78366 -5.89277 0
M  V30 22235 O 2518.62 3.58302 -5.08433 0
M  V30 22236 C 2517.43 5.17448 -6.36119 0
M  V30 22237 O 2517.04 4.45271 -7.53232 0
M  V30 22238 C 2516.55 4.74639 -5.19936 0
M  V30 22239 C 2517.26 3.49432 -4.70418 0
M  V30 22240 N 2517.21 3.31776 -3.22945 0
M  V30 22241 H 2520.04 6.54213 -5.71376 0
M  V30 22242 H 2520.32 5.30492 -4.44033 0
M  V30 22243 H 2519.45 4.55889 -6.76652 0
M  V30 22244 P 2515.49 4.23843 -7.83734 0
M  V30 22245 O 2515.27 4.19407 -9.29784 0
M  V30 22246 O 2514.7 5.24426 -7.09156 0
M  V30 22247 O 2515.24 2.7935 -7.20758 0
M  V30 22248 C 2516.18 1.7299 -7.50419 0
M  V30 22249 C 2515.45 0.406376 -7.57911 0
M  V30 22250 O 2515.24 -0.0897726 -6.21935 0
M  V30 22251 C 2514.05 0.447224 -8.1878 0
M  V30 22252 O 2513.66 -0.825065 -8.71101 0
M  V30 22253 C 2513.17 0.783801 -6.99623 0
M  V30 22254 C 2513.88 0.0619192 -5.85967 0
M  V30 22255 N 2513.83 0.7859 -4.56281 0
M  V30 22256 H 2516.66 1.93423 -8.4679 0
M  V30 22257 H 2516.94 1.68181 -6.71046 0
M  V30 22258 H 2516.07 -0.289041 -8.15388 0
M  V30 22259 P 2512.11 -1.17771 -8.83182 0
M  V30 22260 O 2511.89 -2.07206 -9.98732 0
M  V30 22261 O 2511.32 0.0743816 -8.81969 0
M  V30 22262 O 2511.86 -1.97678 -7.474 0
M  V30 22263 C 2512.8 -3.01133 -7.08783 0
M  V30 22264 C 2512.07 -4.1203 -6.37546 0
M  V30 22265 O 2511.86 -3.72887 -4.9796 0
M  V30 22266 C 2510.67 -4.45085 -6.88694 0
M  V30 22267 O 2510.28 -5.78836 -6.56315 0
M  V30 22268 C 2509.79 -3.47817 -6.12078 0
M  V30 22269 C 2510.5 -3.39414 -4.77697 0
M  V30 22270 N 2510.45 -2.04615 -4.15333 0
M  V30 22271 C 2510.3 -1.96929 -2.77162 0
M  V30 22272 O 2510.21 -3.02017 -2.12006 0
M  V30 22273 N 2510.25 -0.55485 -2.24237 0
M  V30 22274 C 2510.35 0.367808 -2.9169 0
M  V30 22275 N 2510.3 1.53426 -2.29427 0
M  V30 22276 C 2510.5 0.319148 -4.33828 0
M  V30 22277 C 2510.55 -0.920672 -4.90433 0
M  V30 22278 H 2513.29 -3.41209 -7.98667 0
M  V30 22279 H 2513.56 -2.5837 -6.41742 0
M  V30 22280 H 2512.69 -5.02718 -6.42752 0
M  V30 22281 H 2510.03 -4.11779 -4.09026 0
M  V30 22282 H 2509.75 -2.49661 -6.61772 0
M  V30 22283 H 2508.76 -3.86674 -6.00946 0
M  V30 22284 H 2510.6 -4.29991 -7.97006 0
M  V30 22285 H 2510.67 -1.00589 -5.98303 0
M  V30 22286 H 2510.57 1.22639 -4.93799 0
M  V30 22287 H 2510.18 1.56819 -1.27167 0
M  V30 22288 H 2510.37 2.41062 -2.83063 0
M  V30 22289 P 2508.73 -6.144 -6.45285 0
M  V30 22290 O 2508.51 -7.54673 -6.86199 0
M  V30 22291 O 2507.94 -5.12391 -7.179 0
M  V30 22292 O 2508.48 -5.99158 -4.88404 0
M  V30 22293 C 2509.42 -6.60234 -3.96415 0
M  V30 22294 C 2508.69 -7.08259 -2.72856 0
M  V30 22295 O 2508.48 -5.9427 -1.83651 0
M  V30 22296 C 2507.29 -7.64886 -2.9555 0
M  V30 22297 O 2506.9 -8.53963 -1.90717 0
M  V30 22298 C 2506.41 -6.4116 -2.90739 0
M  V30 22299 C 2507.12 -5.55375 -1.86963 0
M  V30 22300 N 2507.07 -4.09664 -2.15742 0
M  V30 22301 H 2509.9 -7.45574 -4.45629 0
M  V30 22302 H 2510.18 -5.86232 -3.67314 0
M  V30 22303 H 2509.31 -7.84412 -2.24479 0
M  V30 22304 P 2505.35 -8.7635 -1.60911 0
M  V30 22305 O 2505.13 -10.1388 -1.11561 0
M  V30 22306 O 2504.56 -8.36503 -2.79617 0
M  V30 22307 O 2505.1 -7.71806 -0.42951 0
M  V30 22308 C 2506.04 -7.67148 0.673689 0
M  V30 22309 C 2505.31 -7.33374 1.95559 0
M  V30 22310 O 2505.1 -5.88721 2.00726 0
M  V30 22311 C 2503.91 -7.92526 2.10483 0
M  V30 22312 O 2503.52 -8.02971 3.47653 0
M  V30 22313 C 2503.03 -6.89602 1.41652 0
M  V30 22314 C 2503.74 -5.59201 1.75185 0
M  V30 22315 N 2503.69 -4.58235 0.662552 0
M  V30 22316 H 2506.52 -8.65116 0.777161 0
M  V30 22317 H 2506.8 -6.90173 0.474152 0
M  V30 22318 H 2505.93 -7.66548 2.79458 0
M  V30 22319 P 2501.97 -8.03563 3.84925 0
M  V30 22320 O 2501.75 -8.85821 5.0569 0
M  V30 22321 O 2501.18 -8.41101 2.65469 0
M  V30 22322 O 2501.72 -6.4965 4.18908 0
M  V30 22323 C 2502.66 -5.81037 5.05421 0
M  V30 22324 C 2501.93 -4.78366 5.89277 0
M  V30 22325 O 2501.72 -3.58302 5.08433 0
M  V30 22326 C 2500.53 -5.17448 6.36119 0
M  V30 22327 O 2500.14 -4.45271 7.53232 0
M  V30 22328 C 2499.65 -4.74639 5.19936 0
M  V30 22329 C 2500.36 -3.49432 4.70418 0
M  V30 22330 N 2500.31 -3.31776 3.22945 0
M  V30 22331 H 2503.14 -6.54213 5.71376 0
M  V30 22332 H 2503.42 -5.30492 4.44033 0
M  V30 22333 H 2502.55 -4.55889 6.76652 0
M  V30 22334 P 2498.59 -4.23843 7.83734 0
M  V30 22335 O 2498.37 -4.19407 9.29784 0
M  V30 22336 O 2497.8 -5.24426 7.09156 0
M  V30 22337 O 2498.34 -2.7935 7.20758 0
M  V30 22338 C 2499.28 -1.72945 7.50224 0
M  V30 22339 C 2498.55 -0.406376 7.57911 0
M  V30 22340 O 2498.34 0.0897726 6.21935 0
M  V30 22341 C 2497.15 -0.438983 8.18724 0
M  V30 22342 O 2496.76 0.825065 8.71101 0
M  V30 22343 C 2496.27 -0.783689 6.99524 0
M  V30 22344 C 2496.98 -0.0619086 5.85867 0
M  V30 22345 N 2496.93 -0.78573 4.56183 0
M  V30 22346 C 2496.78 -0.0292889 3.41887 0
M  V30 22347 O 2496.69 1.18445 3.4419 0
M  V30 22348 N 2496.74 -0.744061 2.23964 0
M  V30 22349 C 2496.83 -2.10932 2.10362 0
M  V30 22350 O 2496.78 -2.64117 0.98825 0
M  V30 22351 C 2496.98 -2.8202 3.34994 0
M  V30 22352 C 2497.09 -4.31095 3.25037 0
M  V30 22353 C 2497.03 -2.15547 4.52261 0
M  V30 22354 H 2499.77 -1.93379 8.46595 0
M  V30 22355 H 2500.04 -1.68132 6.70852 0
M  V30 22356 H 2499.17 0.289041 8.15388 0
M  V30 22357 H 2496.51 0.926847 5.72749 0
M  V30 22358 H 2496.23 -1.86973 6.82036 0
M  V30 22359 H 2495.24 -0.403896 7.13257 0
M  V30 22360 H 2497.08 -1.20585 8.97435 0
M  V30 22361 H 2497.15 -2.71231 5.45042 0
M  V30 22362 H 2496.12 -4.76966 3.49992 0
M  V30 22363 H 2497.85 -4.67047 3.95024 0
M  V30 22364 H 2497.37 -4.58996 2.22312 0
M  V30 22365 H 2496.63 -0.214893 1.39758 0
M  V30 22366 P 2495.21 1.17771 8.83182 0
M  V30 22367 O 2494.99 2.07206 9.98732 0
M  V30 22368 O 2494.42 -0.0743816 8.81969 0
M  V30 22369 O 2494.96 1.97652 7.47304 0
M  V30 22370 C 2495.9 3.01055 7.08599 0
M  V30 22371 C 2495.17 4.12613 6.37049 0
M  V30 22372 O 2494.96 3.72827 4.97879 0
M  V30 22373 C 2493.77 4.45719 6.88164 0
M  V30 22374 O 2493.38 5.7877 6.5624 0
M  V30 22375 C 2492.89 3.47768 6.11991 0
M  V30 22376 C 2493.6 3.39356 4.77615 0
M  V30 22377 N 2493.55 2.04571 4.15244 0
M  V30 22378 C 2493.4 1.98587 2.78314 0
M  V30 22379 O 2493.31 2.98134 2.08835 0
M  V30 22380 N 2493.36 0.714467 2.24925 0
M  V30 22381 C 2493.45 -0.470001 2.94169 0
M  V30 22382 O 2493.4 -1.55587 2.35195 0
M  V30 22383 C 2493.6 -0.312541 4.36783 0
M  V30 22384 C 2493.71 -1.57711 5.16352 0
M  V30 22385 C 2493.65 0.914512 4.92583 0
M  V30 22386 H 2496.39 3.41169 7.98575 0
M  V30 22387 H 2496.66 2.58295 6.41556 0
M  V30 22388 H 2495.79 5.02657 6.42673 0
M  V30 22389 H 2493.13 4.11637 4.08885 0
M  V30 22390 H 2492.85 2.49626 6.61679 0
M  V30 22391 H 2491.86 3.86566 6.00778 0
M  V30 22392 H 2493.7 4.29943 7.96918 0
M  V30 22393 H 2493.77 1.00937 6.00374 0
M  V30 22394 H 2492.74 -1.80153 5.63503 0
M  V30 22395 H 2494.47 -1.4566 5.94104 0
M  V30 22396 H 2493.99 -2.40664 4.49645 0
M  V30 22397 H 2493.25 0.647622 1.25697 0
M  V30 22398 P 2491.83 6.144 6.45285 0
M  V30 22399 O 2491.61 7.54673 6.86199 0
M  V30 22400 O 2491.04 5.12391 7.179 0
M  V30 22401 O 2491.58 5.99158 4.88404 0
M  V30 22402 C 2492.52 6.60234 3.96415 0
M  V30 22403 C 2491.79 7.08259 2.72856 0
M  V30 22404 O 2491.58 5.9427 1.83651 0
M  V30 22405 C 2490.39 7.64886 2.9555 0
M  V30 22406 O 2490 8.53963 1.90717 0
M  V30 22407 C 2489.51 6.4116 2.90739 0
M  V30 22408 C 2490.22 5.55375 1.86963 0
M  V30 22409 N 2490.17 4.09448 2.16152 0
M  V30 22410 C 2490.25 3.46824 3.37593 0
M  V30 22411 N 2490.18 2.17422 3.29777 0
M  V30 22412 C 2490.03 1.93065 1.94427 0
M  V30 22413 C 2489.9 0.738053 1.20141 0
M  V30 22414 N 2489.89 -0.474256 1.74676 0
M  V30 22415 N 2489.78 0.850049 -0.13045 0
M  V30 22416 C 2489.79 2.06169 -0.676992 0
M  V30 22417 N 2489.91 3.23842 -0.101312 0
M  V30 22418 C 2490.03 3.09402 1.23122 0
M  V30 22419 H 2493 7.45574 4.45629 0
M  V30 22420 H 2493.28 5.85864 3.679 0
M  V30 22421 H 2492.41 7.84412 2.24479 0
M  V30 22422 H 2489.75 5.73457 0.888562 0
M  V30 22423 H 2489.47 5.90877 3.88583 0
M  V30 22424 H 2488.48 6.6596 2.58858 0
M  V30 22425 H 2490.32 8.16339 3.92049 0
M  V30 22426 H 2490.36 4.00505 4.3174 0
M  V30 22427 H 2489.98 -0.581337 2.76658 0
M  V30 22428 H 2489.79 -1.30811 1.14888 0
M  V30 22429 H 2489.68 2.08295 -1.75542 0
M  V30 22430 P 2488.45 8.7635 1.60911 0
M  V30 22431 O 2488.23 10.1388 1.11561 0
M  V30 22432 O 2487.66 8.36503 2.79617 0
M  V30 22433 O 2488.2 7.71806 0.42951 0
M  V30 22434 C 2489.14 7.66948 -0.673514 0
M  V30 22435 C 2488.41 7.33374 -1.95559 0
M  V30 22436 O 2488.2 5.88721 -2.00726 0
M  V30 22437 C 2487.01 7.92218 -2.1125 0
M  V30 22438 O 2486.62 8.02971 -3.47653 0
M  V30 22439 C 2486.13 6.89504 -1.41631 0
M  V30 22440 C 2486.84 5.59106 -1.75155 0
M  V30 22441 N 2486.79 4.58136 -0.662409 0
M  V30 22442 C 2486.64 3.26059 -1.02863 0
M  V30 22443 O 2486.55 2.90743 -2.19009 0
M  V30 22444 N 2486.6 2.35995 0.0155585 0
M  V30 22445 C 2486.69 2.65248 1.35603 0
M  V30 22446 O 2486.64 1.75605 2.20651 0
M  V30 22447 C 2486.84 4.05747 1.64698 0
M  V30 22448 C 2486.95 4.42345 3.09553 0
M  V30 22449 C 2486.89 4.96734 0.652411 0
M  V30 22450 H 2489.63 8.64917 -0.776982 0
M  V30 22451 H 2489.9 6.89974 -0.474015 0
M  V30 22452 H 2489.03 7.66548 -2.79458 0
M  V30 22453 H 2486.37 5.16076 -2.65138 0
M  V30 22454 H 2486.09 7.06433 -0.329384 0
M  V30 22455 H 2485.1 6.90829 -1.81996 0
M  V30 22456 H 2486.94 8.90774 -1.62639 0
M  V30 22457 H 2487.01 6.02181 0.895285 0
M  V30 22458 H 2485.98 4.80252 3.45468 0
M  V30 22459 H 2487.71 5.20015 3.22119 0
M  V30 22460 H 2487.23 3.53269 3.67833 0
M  V30 22461 H 2486.49 1.39558 -0.227499 0
M  V30 22462 P 2485.07 8.03563 -3.84925 0
M  V30 22463 O 2484.85 8.85821 -5.0569 0
M  V30 22464 O 2484.28 8.41101 -2.65469 0
M  V30 22465 O 2484.82 6.4965 -4.18908 0
M  V30 22466 C 2485.76 5.80886 -5.05289 0
M  V30 22467 C 2485.03 4.78366 -5.89277 0
M  V30 22468 O 2484.82 3.58302 -5.08433 0
M  V30 22469 C 2483.63 5.16748 -6.36559 0
M  V30 22470 O 2483.24 4.45271 -7.53232 0
M  V30 22471 C 2482.75 4.74572 -5.19863 0
M  V30 22472 C 2483.46 3.49373 -4.70338 0
M  V30 22473 N 2483.41 3.31704 -3.22876 0
M  V30 22474 C 2483.26 2.03326 -2.74871 0
M  V30 22475 O 2483.17 1.06486 -3.48076 0
M  V30 22476 N 2483.22 1.91838 -1.37456 0
M  V30 22477 C 2483.31 2.94295 -0.462035 0
M  V30 22478 C 2483.46 4.25064 -1.05249 0
M  V30 22479 C 2483.51 4.40214 -2.39192 0
M  V30 22480 H 2486.25 6.54063 -5.71245 0
M  V30 22481 H 2486.52 5.30339 -4.43905 0
M  V30 22482 H 2485.65 4.55889 -6.76652 0
M  V30 22483 H 2482.99 2.6167 -5.17842 0
M  V30 22484 H 2482.71 5.52155 -4.41878 0
M  V30 22485 H 2481.72 4.51918 -5.53297 0
M  V30 22486 H 2483.56 6.25055 -6.55162 0
M  V30 22487 H 2483.63 5.39798 -2.81523 0
M  V30 22488 P 2481.69 4.23843 -7.83734 0
M  V30 22489 O 2481.47 4.19407 -9.29784 0
M  V30 22490 O 2480.9 5.24426 -7.09156 0
M  V30 22491 O 2481.44 2.7935 -7.20758 0
M  V30 22492 C 2482.38 1.7299 -7.50419 0
M  V30 22493 C 2481.65 0.406376 -7.57911 0
M  V30 22494 O 2481.44 -0.0897726 -6.21935 0
M  V30 22495 C 2480.25 0.447224 -8.1878 0
M  V30 22496 O 2479.86 -0.825065 -8.71101 0
M  V30 22497 C 2479.37 0.783801 -6.99623 0
M  V30 22498 C 2480.08 0.0619192 -5.85967 0
M  V30 22499 N 2480.03 0.7859 -4.56281 0
M  V30 22500 H 2482.86 1.93423 -8.4679 0
M  V30 22501 H 2483.14 1.68181 -6.71046 0
M  V30 22502 H 2482.27 -0.289041 -8.15388 0
M  V30 22503 P 2478.31 -1.17771 -8.83182 0
M  V30 22504 O 2478.09 -2.07206 -9.98732 0
M  V30 22505 O 2477.52 0.0743816 -8.81969 0
M  V30 22506 O 2478.06 -1.97652 -7.47304 0
M  V30 22507 C 2479 -3.01133 -7.08783 0
M  V30 22508 C 2478.27 -4.12613 -6.37049 0
M  V30 22509 O 2478.06 -3.72827 -4.97879 0
M  V30 22510 C 2476.87 -4.45085 -6.88694 0
M  V30 22511 O 2476.48 -5.7877 -6.5624 0
M  V30 22512 C 2475.99 -3.47817 -6.12078 0
M  V30 22513 C 2476.7 -3.39414 -4.77697 0
M  V30 22514 N 2476.65 -2.04615 -4.15333 0
M  V30 22515 H 2479.48 -3.41248 -7.98759 0
M  V30 22516 H 2479.76 -2.5837 -6.41742 0
M  V30 22517 H 2478.89 -5.02657 -6.42673 0
M  V30 22518 P 2474.93 -6.144 -6.45285 0
M  V30 22519 O 2474.71 -7.54673 -6.86199 0
M  V30 22520 O 2474.14 -5.12391 -7.179 0
M  V30 22521 O 2474.68 -5.99158 -4.88404 0
M  V30 22522 C 2475.62 -6.60234 -3.96415 0
M  V30 22523 C 2474.89 -7.08259 -2.72856 0
M  V30 22524 O 2474.68 -5.9427 -1.83651 0
M  V30 22525 C 2473.49 -7.64886 -2.9555 0
M  V30 22526 O 2473.1 -8.53963 -1.90717 0
M  V30 22527 C 2472.61 -6.4116 -2.90739 0
M  V30 22528 C 2473.32 -5.55375 -1.86963 0
M  V30 22529 N 2473.27 -4.09448 -2.16152 0
M  V30 22530 H 2476.1 -7.45574 -4.45629 0
M  V30 22531 H 2476.38 -5.85864 -3.679 0
M  V30 22532 H 2475.51 -7.84412 -2.24479 0
M  V30 22533 H 2472.85 -5.73457 -0.888562 0
M  V30 22534 H 2472.57 -5.90877 -3.88583 0
M  V30 22535 H 2471.58 -6.6596 -2.58858 0
M  V30 22536 H 2473.42 -8.16339 -3.92049 0
M  V30 22537 P 2471.55 -8.7635 -1.60911 0
M  V30 22538 O 2471.33 -10.1388 -1.11561 0
M  V30 22539 O 2470.76 -8.36503 -2.79617 0
M  V30 22540 O 2471.3 -7.71806 -0.42951 0
M  V30 22541 C 2472.24 -7.67148 0.673689 0
M  V30 22542 C 2471.51 -7.33374 1.95559 0
M  V30 22543 O 2471.3 -5.88721 2.00726 0
M  V30 22544 C 2470.11 -7.92526 2.10483 0
M  V30 22545 O 2469.72 -8.02971 3.47653 0
M  V30 22546 C 2469.23 -6.89602 1.41652 0
M  V30 22547 C 2469.94 -5.59201 1.75185 0
M  V30 22548 N 2469.89 -4.58301 0.657969 0
M  V30 22549 H 2472.72 -8.65116 0.777161 0
M  V30 22550 H 2473 -6.9022 0.46725 0
M  V30 22551 H 2472.13 -7.66548 2.79458 0
M  V30 22552 H 2469.47 -5.16165 2.65183 0
M  V30 22553 H 2469.19 -7.06433 0.329384 0
M  V30 22554 H 2468.2 -6.90926 1.82021 0
M  V30 22555 H 2470.04 -8.90873 1.62657 0
M  V30 22556 P 2468.17 -8.03563 3.84925 0
M  V30 22557 O 2467.95 -8.85821 5.0569 0
M  V30 22558 O 2467.38 -8.41101 2.65469 0
M  V30 22559 O 2467.92 -6.49734 4.18962 0
M  V30 22560 C 2468.86 -5.81037 5.05421 0
M  V30 22561 C 2468.13 -4.79018 5.88876 0
M  V30 22562 O 2467.92 -3.58359 5.08515 0
M  V30 22563 C 2466.73 -5.17448 6.36119 0
M  V30 22564 O 2466.34 -4.45322 7.53318 0
M  V30 22565 C 2465.85 -4.74639 5.19936 0
M  V30 22566 C 2466.56 -3.49432 4.70418 0
M  V30 22567 N 2466.51 -3.31776 3.22945 0
M  V30 22568 C 2466.36 -2.02742 2.72939 0
M  V30 22569 O 2466.27 -1.08301 3.52749 0
M  V30 22570 N 2466.31 -1.96117 1.22063 0
M  V30 22571 C 2466.41 -2.8878 0.551566 0
M  V30 22572 N 2466.36 -2.65609 -0.750198 0
M  V30 22573 C 2466.56 -4.22457 1.03707 0
M  V30 22574 C 2466.61 -4.37979 2.39113 0
M  V30 22575 H 2469.35 -6.54138 5.7131 0
M  V30 22576 H 2469.62 -5.30492 4.44033 0
M  V30 22577 H 2468.75 -4.55945 6.76735 0
M  V30 22578 H 2466.09 -2.6176 5.18021 0
M  V30 22579 H 2465.81 -5.52233 4.41941 0
M  V30 22580 H 2464.82 -4.52045 5.53452 0
M  V30 22581 H 2466.66 -6.25124 6.55234 0
M  V30 22582 H 2466.73 -5.37936 2.80552 0
M  V30 22583 H 2466.63 -5.07528 0.359553 0
M  V30 22584 H 2466.24 -1.69403 -1.09847 0
M  V30 22585 H 2466.43 -3.43701 -1.41792 0
M  V30 22586 P 2464.79 -4.23843 7.83734 0
M  V30 22587 O 2464.57 -4.19407 9.29784 0
M  V30 22588 O 2464 -5.24426 7.09156 0
M  V30 22589 O 2464.54 -2.7935 7.20758 0
M  V30 22590 C 2465.48 -1.7299 7.50419 0
M  V30 22591 C 2464.75 -0.406376 7.57911 0
M  V30 22592 O 2464.54 0.0897726 6.21935 0
M  V30 22593 C 2463.35 -0.447224 8.1878 0
M  V30 22594 O 2462.96 0.825065 8.71101 0
M  V30 22595 C 2462.47 -0.783801 6.99623 0
M  V30 22596 C 2463.18 -0.0619192 5.85967 0
M  V30 22597 N 2463.13 -0.7859 4.56281 0
M  V30 22598 H 2465.96 -1.93423 8.4679 0
M  V30 22599 H 2466.24 -1.68181 6.71046 0
M  V30 22600 H 2465.37 0.289041 8.15388 0
M  V30 22601 P 2461.41 1.17771 8.83182 0
M  V30 22602 O 2461.19 2.07206 9.98732 0
M  V30 22603 O 2460.62 -0.0743816 8.81969 0
M  V30 22604 O 2461.16 1.97652 7.47304 0
M  V30 22605 C 2462.1 3.01055 7.08599 0
M  V30 22606 C 2461.37 4.12613 6.37049 0
M  V30 22607 O 2461.16 3.72827 4.97879 0
M  V30 22608 C 2459.97 4.45719 6.88164 0
M  V30 22609 O 2459.58 5.7877 6.5624 0
M  V30 22610 C 2459.09 3.47768 6.11991 0
M  V30 22611 C 2459.8 3.39356 4.77615 0
M  V30 22612 N 2459.75 2.04571 4.15244 0
M  V30 22613 C 2459.6 1.98587 2.78314 0
M  V30 22614 O 2459.51 2.98134 2.08835 0
M  V30 22615 N 2459.56 0.714467 2.24925 0
M  V30 22616 C 2459.65 -0.470001 2.94169 0
M  V30 22617 O 2459.6 -1.55587 2.35195 0
M  V30 22618 C 2459.8 -0.312541 4.36783 0
M  V30 22619 C 2459.91 -1.57711 5.16352 0
M  V30 22620 C 2459.85 0.914512 4.92583 0
M  V30 22621 H 2462.59 3.41169 7.98575 0
M  V30 22622 H 2462.86 2.58295 6.41556 0
M  V30 22623 H 2461.99 5.02657 6.42673 0
M  V30 22624 H 2459.33 4.11637 4.08885 0
M  V30 22625 H 2459.05 2.49626 6.61679 0
M  V30 22626 H 2458.06 3.86566 6.00778 0
M  V30 22627 H 2459.9 4.29943 7.96918 0
M  V30 22628 H 2459.97 1.00937 6.00374 0
M  V30 22629 H 2458.94 -1.80153 5.63503 0
M  V30 22630 H 2460.67 -1.4566 5.94104 0
M  V30 22631 H 2460.19 -2.40664 4.49645 0
M  V30 22632 H 2459.45 0.647622 1.25697 0
M  V30 22633 P 2458.03 6.144 6.45285 0
M  V30 22634 O 2457.81 7.54673 6.86199 0
M  V30 22635 O 2457.24 5.12391 7.179 0
M  V30 22636 O 2457.78 5.99158 4.88404 0
M  V30 22637 C 2458.72 6.60234 3.96415 0
M  V30 22638 C 2457.99 7.08259 2.72856 0
M  V30 22639 O 2457.78 5.9427 1.83651 0
M  V30 22640 C 2456.59 7.64886 2.9555 0
M  V30 22641 O 2456.2 8.53963 1.90717 0
M  V30 22642 C 2455.71 6.4116 2.90739 0
M  V30 22643 C 2456.42 5.55375 1.86963 0
M  V30 22644 N 2456.37 4.09664 2.15742 0
M  V30 22645 H 2459.2 7.45574 4.45629 0
M  V30 22646 H 2459.48 5.86232 3.67314 0
M  V30 22647 H 2458.61 7.84412 2.24479 0
M  V30 22648 P 2454.65 8.7635 1.60911 0
M  V30 22649 O 2454.43 10.1388 1.11561 0
M  V30 22650 O 2453.86 8.36503 2.79617 0
M  V30 22651 O 2454.4 7.71806 0.42951 0
M  V30 22652 C 2455.34 7.66948 -0.673514 0
M  V30 22653 C 2454.61 7.33374 -1.95559 0
M  V30 22654 O 2454.4 5.88721 -2.00726 0
M  V30 22655 C 2453.21 7.92218 -2.1125 0
M  V30 22656 O 2452.82 8.02971 -3.47653 0
M  V30 22657 C 2452.33 6.89504 -1.41631 0
M  V30 22658 C 2453.04 5.59106 -1.75155 0
M  V30 22659 N 2452.99 4.58136 -0.662409 0
M  V30 22660 C 2452.84 3.26059 -1.02863 0
M  V30 22661 O 2452.75 2.90743 -2.19009 0
M  V30 22662 N 2452.8 2.35995 0.0155585 0
M  V30 22663 C 2452.89 2.65248 1.35603 0
M  V30 22664 O 2452.84 1.75605 2.20651 0
M  V30 22665 C 2453.04 4.05747 1.64698 0
M  V30 22666 C 2453.15 4.42345 3.09553 0
M  V30 22667 C 2453.09 4.96734 0.652411 0
M  V30 22668 H 2455.83 8.64917 -0.776982 0
M  V30 22669 H 2456.1 6.89974 -0.474015 0
M  V30 22670 H 2455.23 7.66548 -2.79458 0
M  V30 22671 H 2452.57 5.16076 -2.65138 0
M  V30 22672 H 2452.29 7.06433 -0.329384 0
M  V30 22673 H 2451.3 6.90829 -1.81996 0
M  V30 22674 H 2453.14 8.90774 -1.62639 0
M  V30 22675 H 2453.21 6.02181 0.895285 0
M  V30 22676 H 2452.18 4.80252 3.45468 0
M  V30 22677 H 2453.91 5.20015 3.22119 0
M  V30 22678 H 2453.43 3.53269 3.67833 0
M  V30 22679 H 2452.69 1.39558 -0.227499 0
M  V30 22680 P 2451.27 8.03563 -3.84925 0
M  V30 22681 O 2451.05 8.85821 -5.0569 0
M  V30 22682 O 2450.48 8.41101 -2.65469 0
M  V30 22683 O 2451.02 6.4965 -4.18908 0
M  V30 22684 C 2451.96 5.81037 -5.05421 0
M  V30 22685 C 2451.23 4.78366 -5.89277 0
M  V30 22686 O 2451.02 3.58302 -5.08433 0
M  V30 22687 C 2449.83 5.17448 -6.36119 0
M  V30 22688 O 2449.44 4.45271 -7.53232 0
M  V30 22689 C 2448.95 4.74639 -5.19936 0
M  V30 22690 C 2449.66 3.49432 -4.70418 0
M  V30 22691 N 2449.61 3.32099 -3.22613 0
M  V30 22692 C 2449.69 4.28245 -2.25527 0
M  V30 22693 N 2449.62 3.80823 -1.04874 0
M  V30 22694 C 2449.47 2.44571 -1.23535 0
M  V30 22695 C 2449.34 1.37068 -0.330675 0
M  V30 22696 N 2449.33 1.51472 0.990824 0
M  V30 22697 N 2449.22 0.138614 -0.848756 0
M  V30 22698 C 2449.23 -0.00675923 -2.16999 0
M  V30 22699 N 2449.35 0.904372 -3.11122 0
M  V30 22700 C 2449.47 2.12707 -2.56212 0
M  V30 22701 H 2452.44 6.54213 -5.71376 0
M  V30 22702 H 2452.72 5.30936 -4.43503 0
M  V30 22703 H 2451.85 4.55889 -6.76652 0
M  V30 22704 H 2449.19 2.61715 -5.17932 0
M  V30 22705 H 2448.91 5.52155 -4.41878 0
M  V30 22706 H 2447.92 4.51981 -5.53374 0
M  V30 22707 H 2449.76 6.25124 -6.55234 0
M  V30 22708 H 2449.8 5.34372 -2.47488 0
M  V30 22709 H 2449.42 2.45153 1.4078 0
M  V30 22710 H 2449.23 0.688422 1.59911 0
M  V30 22711 H 2449.12 -1.02584 -2.52346 0
M  V30 22712 P 2447.89 4.23843 -7.83734 0
M  V30 22713 O 2447.67 4.19407 -9.29784 0
M  V30 22714 O 2447.1 5.24426 -7.09156 0
M  V30 22715 O 2447.64 2.7935 -7.20758 0
M  V30 22716 C 2448.58 1.7299 -7.50419 0
M  V30 22717 C 2447.85 0.406376 -7.57911 0
M  V30 22718 O 2447.64 -0.0897726 -6.21935 0
M  V30 22719 C 2446.45 0.447224 -8.1878 0
M  V30 22720 O 2446.06 -0.825065 -8.71101 0
M  V30 22721 C 2445.57 0.783801 -6.99623 0
M  V30 22722 C 2446.28 0.0619192 -5.85967 0
M  V30 22723 N 2446.23 0.7859 -4.56281 0
M  V30 22724 H 2449.06 1.93423 -8.4679 0
M  V30 22725 H 2449.34 1.68181 -6.71046 0
M  V30 22726 H 2448.47 -0.289041 -8.15388 0
M  V30 22727 P 2444.51 -1.17771 -8.83182 0
M  V30 22728 O 2444.29 -2.07206 -9.98732 0
M  V30 22729 O 2443.72 0.0743816 -8.81969 0
M  V30 22730 O 2444.26 -1.97652 -7.47304 0
M  V30 22731 C 2445.2 -3.01133 -7.08783 0
M  V30 22732 C 2444.47 -4.12613 -6.37049 0
M  V30 22733 O 2444.26 -3.72827 -4.97879 0
M  V30 22734 C 2443.07 -4.45085 -6.88694 0
M  V30 22735 O 2442.68 -5.7877 -6.5624 0
M  V30 22736 C 2442.19 -3.47817 -6.12078 0
M  V30 22737 C 2442.9 -3.39414 -4.77697 0
M  V30 22738 N 2442.85 -2.04615 -4.15333 0
M  V30 22739 H 2445.68 -3.41248 -7.98759 0
M  V30 22740 H 2445.96 -2.5837 -6.41742 0
M  V30 22741 H 2445.09 -5.02657 -6.42673 0
M  V30 22742 P 2441.13 -6.144 -6.45285 0
M  V30 22743 O 2440.91 -7.54673 -6.86199 0
M  V30 22744 O 2440.34 -5.12391 -7.179 0
M  V30 22745 O 2440.88 -5.99236 -4.88467 0
M  V30 22746 C 2441.82 -6.60234 -3.96415 0
M  V30 22747 C 2441.09 -7.08079 -2.736 0
M  V30 22748 O 2440.88 -5.94365 -1.8368 0
M  V30 22749 C 2439.69 -7.64886 -2.9555 0
M  V30 22750 O 2439.3 -8.5406 -1.90739 0
M  V30 22751 C 2438.81 -6.4116 -2.90739 0
M  V30 22752 C 2439.52 -5.55375 -1.86963 0
M  V30 22753 N 2439.47 -4.09664 -2.15742 0
M  V30 22754 C 2439.32 -3.22231 -1.08477 0
M  V30 22755 O 2439.23 -3.68951 0.0600489 0
M  V30 22756 N 2439.27 -1.76692 -1.48799 0
M  V30 22757 C 2439.37 -1.41695 -2.57602 0
M  V30 22758 N 2439.32 -0.107296 -2.75791 0
M  V30 22759 C 2439.52 -2.29178 -3.69733 0
M  V30 22760 C 2439.57 -3.62753 -3.42653 0
M  V30 22761 H 2442.31 -7.45488 -4.45578 0
M  V30 22762 H 2442.58 -5.86232 -3.67314 0
M  V30 22763 H 2441.71 -7.84508 -2.24507 0
M  V30 22764 H 2439.05 -5.73556 -0.888715 0
M  V30 22765 H 2438.77 -5.9096 -3.88638 0
M  V30 22766 H 2437.78 -6.66053 -2.58894 0
M  V30 22767 H 2439.62 -8.16339 -3.92049 0
M  V30 22768 H 2439.69 -4.33052 -4.24913 0
M  V30 22769 H 2439.59 -1.9103 -4.71577 0
M  V30 22770 H 2439.2 0.521221 -1.95056 0
M  V30 22771 H 2439.39 0.286429 -3.70695 0
M  V30 22772 P 2437.75 -8.7635 -1.60911 0
M  V30 22773 O 2437.53 -10.1388 -1.11561 0
M  V30 22774 O 2436.96 -8.36503 -2.79617 0
M  V30 22775 O 2437.5 -7.71806 -0.42951 0
M  V30 22776 C 2438.44 -7.67148 0.673689 0
M  V30 22777 C 2437.71 -7.33374 1.95559 0
M  V30 22778 O 2437.5 -5.88721 2.00726 0
M  V30 22779 C 2436.31 -7.92526 2.10483 0
M  V30 22780 O 2435.92 -8.02971 3.47653 0
M  V30 22781 C 2435.43 -6.89602 1.41652 0
M  V30 22782 C 2436.14 -5.59201 1.75185 0
M  V30 22783 N 2436.09 -4.58301 0.657969 0
M  V30 22784 H 2438.92 -8.65116 0.777161 0
M  V30 22785 H 2439.2 -6.9022 0.46725 0
M  V30 22786 H 2438.33 -7.66548 2.79458 0
M  V30 22787 H 2435.67 -5.16165 2.65183 0
M  V30 22788 H 2435.39 -7.06433 0.329384 0
M  V30 22789 H 2434.4 -6.90926 1.82021 0
M  V30 22790 H 2436.24 -8.90873 1.62657 0
M  V30 22791 P 2434.37 -8.03563 3.84925 0
M  V30 22792 O 2434.15 -8.85821 5.0569 0
M  V30 22793 O 2433.58 -8.41101 2.65469 0
M  V30 22794 O 2434.12 -6.4965 4.18908 0
M  V30 22795 C 2435.06 -5.81037 5.05421 0
M  V30 22796 C 2434.33 -4.78366 5.89277 0
M  V30 22797 O 2434.12 -3.58302 5.08433 0
M  V30 22798 C 2432.93 -5.17448 6.36119 0
M  V30 22799 O 2432.54 -4.45271 7.53232 0
M  V30 22800 C 2432.05 -4.74639 5.19936 0
M  V30 22801 C 2432.76 -3.49432 4.70418 0
M  V30 22802 N 2432.71 -3.32099 3.22613 0
M  V30 22803 H 2435.54 -6.54213 5.71376 0
M  V30 22804 H 2435.82 -5.30936 4.43503 0
M  V30 22805 H 2434.95 -4.55889 6.76652 0
M  V30 22806 H 2432.29 -2.61715 5.17932 0
M  V30 22807 H 2432.01 -5.52155 4.41878 0
M  V30 22808 H 2431.02 -4.51981 5.53374 0
M  V30 22809 H 2432.86 -6.25124 6.55234 0
M  V30 22810 P 2430.99 -4.23843 7.83734 0
M  V30 22811 O 2430.77 -4.19407 9.29784 0
M  V30 22812 O 2430.2 -5.24426 7.09156 0
M  V30 22813 O 2430.74 -2.7935 7.20758 0
M  V30 22814 C 2431.68 -1.72945 7.50224 0
M  V30 22815 C 2430.95 -0.406376 7.57911 0
M  V30 22816 O 2430.74 0.0897726 6.21935 0
M  V30 22817 C 2429.55 -0.438983 8.18724 0
M  V30 22818 O 2429.16 0.825065 8.71101 0
M  V30 22819 C 2428.67 -0.783689 6.99524 0
M  V30 22820 C 2429.38 -0.0619086 5.85867 0
M  V30 22821 N 2429.33 -0.78573 4.56183 0
M  V30 22822 C 2429.18 -0.0292889 3.41887 0
M  V30 22823 O 2429.09 1.18445 3.4419 0
M  V30 22824 N 2429.14 -0.744061 2.23964 0
M  V30 22825 C 2429.23 -2.10932 2.10362 0
M  V30 22826 C 2429.38 -2.8202 3.34994 0
M  V30 22827 C 2429.43 -2.15547 4.52261 0
M  V30 22828 H 2432.17 -1.93379 8.46595 0
M  V30 22829 H 2432.44 -1.68132 6.70852 0
M  V30 22830 H 2431.57 0.289041 8.15388 0
M  V30 22831 H 2428.91 0.926847 5.72749 0
M  V30 22832 H 2428.63 -1.86973 6.82036 0
M  V30 22833 H 2427.64 -0.403896 7.13257 0
M  V30 22834 H 2429.48 -1.20585 8.97435 0
M  V30 22835 H 2429.55 -2.71231 5.45042 0
M  V30 22836 P 2427.61 1.17771 8.83182 0
M  V30 22837 O 2427.39 2.07206 9.98732 0
M  V30 22838 O 2426.82 -0.0743816 8.81969 0
M  V30 22839 O 2427.36 1.97652 7.47304 0
M  V30 22840 C 2428.3 3.01133 7.08783 0
M  V30 22841 C 2427.57 4.12613 6.37049 0
M  V30 22842 O 2427.36 3.72827 4.97879 0
M  V30 22843 C 2426.17 4.45085 6.88694 0
M  V30 22844 O 2425.78 5.7877 6.5624 0
M  V30 22845 C 2425.29 3.47817 6.12078 0
M  V30 22846 C 2426 3.39414 4.77697 0
M  V30 22847 N 2425.95 2.04199 4.15538 0
M  V30 22848 H 2428.78 3.41248 7.98759 0
M  V30 22849 H 2429.06 2.57728 6.42 0
M  V30 22850 H 2428.19 5.02657 6.42673 0
M  V30 22851 H 2425.53 4.11708 4.08956 0
M  V30 22852 H 2425.25 2.49626 6.61679 0
M  V30 22853 H 2424.26 3.8662 6.00862 0
M  V30 22854 H 2426.1 4.29991 7.97006 0
M  V30 22855 P 2424.23 6.144 6.45285 0
M  V30 22856 O 2424.01 7.54673 6.86199 0
M  V30 22857 O 2423.44 5.12391 7.179 0
M  V30 22858 O 2423.98 5.99158 4.88404 0
M  V30 22859 C 2424.92 6.60234 3.96415 0
M  V30 22860 C 2424.19 7.08259 2.72856 0
M  V30 22861 O 2423.98 5.9427 1.83651 0
M  V30 22862 C 2422.79 7.64886 2.9555 0
M  V30 22863 O 2422.4 8.53963 1.90717 0
M  V30 22864 C 2421.91 6.4116 2.90739 0
M  V30 22865 C 2422.62 5.55375 1.86963 0
M  V30 22866 N 2422.57 4.09664 2.15742 0
M  V30 22867 H 2425.4 7.45574 4.45629 0
M  V30 22868 H 2425.68 5.86232 3.67314 0
M  V30 22869 H 2424.81 7.84412 2.24479 0
M  V30 22870 P 2420.85 8.7635 1.60911 0
M  V30 22871 O 2420.63 10.1388 1.11561 0
M  V30 22872 O 2420.06 8.36503 2.79617 0
M  V30 22873 O 2420.6 7.71806 0.42951 0
M  V30 22874 C 2421.54 7.67148 -0.673689 0
M  V30 22875 C 2420.81 7.33374 -1.95559 0
M  V30 22876 O 2420.6 5.88721 -2.00726 0
M  V30 22877 C 2419.41 7.92526 -2.10483 0
M  V30 22878 O 2419.02 8.02971 -3.47653 0
M  V30 22879 C 2418.53 6.89602 -1.41652 0
M  V30 22880 C 2419.24 5.59201 -1.75185 0
M  V30 22881 N 2419.19 4.58235 -0.662552 0
M  V30 22882 H 2422.02 8.65116 -0.777161 0
M  V30 22883 H 2422.3 6.90173 -0.474152 0
M  V30 22884 H 2421.43 7.66548 -2.79458 0
M  V30 22885 P 2417.47 8.03563 -3.84925 0
M  V30 22886 O 2417.25 8.85821 -5.0569 0
M  V30 22887 O 2416.68 8.41101 -2.65469 0
M  V30 22888 O 2417.22 6.4965 -4.18908 0
M  V30 22889 C 2418.16 5.80886 -5.05289 0
M  V30 22890 C 2417.43 4.78366 -5.89277 0
M  V30 22891 O 2417.22 3.58302 -5.08433 0
M  V30 22892 C 2416.03 5.16748 -6.36559 0
M  V30 22893 O 2415.64 4.45271 -7.53232 0
M  V30 22894 C 2415.15 4.74572 -5.19863 0
M  V30 22895 C 2415.86 3.49373 -4.70338 0
M  V30 22896 N 2415.81 3.31704 -3.22876 0
M  V30 22897 C 2415.66 2.03326 -2.74871 0
M  V30 22898 O 2415.57 1.06486 -3.48076 0
M  V30 22899 N 2415.62 1.91838 -1.37456 0
M  V30 22900 C 2415.71 2.94295 -0.462035 0
M  V30 22901 O 2415.66 2.71763 0.752928 0
M  V30 22902 C 2415.86 4.25064 -1.05249 0
M  V30 22903 C 2415.97 5.39815 -0.095697 0
M  V30 22904 C 2415.91 4.40214 -2.39192 0
M  V30 22905 H 2418.65 6.54063 -5.71245 0
M  V30 22906 H 2418.92 5.30339 -4.43905 0
M  V30 22907 H 2418.05 4.55889 -6.76652 0
M  V30 22908 H 2415.39 2.6167 -5.17842 0
M  V30 22909 H 2415.11 5.52155 -4.41878 0
M  V30 22910 H 2414.12 4.51918 -5.53297 0
M  V30 22911 H 2415.96 6.25055 -6.55162 0
M  V30 22912 H 2416.03 5.39798 -2.81523 0
M  V30 22913 H 2415 5.91593 -0.0279582 0
M  V30 22914 H 2416.73 6.10038 -0.450573 0
M  V30 22915 H 2416.25 5.02007 0.89937 0
M  V30 22916 H 2415.51 0.995326 -1.00435 0
M  V30 22917 P 2414.09 4.23843 -7.83734 0
M  V30 22918 O 2413.87 4.19407 -9.29784 0
M  V30 22919 O 2413.3 5.24426 -7.09156 0
M  V30 22920 O 2413.84 2.7935 -7.20758 0
M  V30 22921 C 2414.78 1.7299 -7.50419 0
M  V30 22922 C 2414.05 0.406376 -7.57911 0
M  V30 22923 O 2413.84 -0.0897726 -6.21935 0
M  V30 22924 C 2412.65 0.447224 -8.1878 0
M  V30 22925 O 2412.26 -0.825065 -8.71101 0
M  V30 22926 C 2411.77 0.783801 -6.99623 0
M  V30 22927 C 2412.48 0.0619192 -5.85967 0
M  V30 22928 N 2412.43 0.7859 -4.56281 0
M  V30 22929 H 2415.26 1.93423 -8.4679 0
M  V30 22930 H 2415.54 1.68181 -6.71046 0
M  V30 22931 H 2414.67 -0.289041 -8.15388 0
M  V30 22932 P 2410.71 -1.17771 -8.83182 0
M  V30 22933 O 2410.49 -2.07206 -9.98732 0
M  V30 22934 O 2409.92 0.0743816 -8.81969 0
M  V30 22935 O 2410.46 -1.97652 -7.47304 0
M  V30 22936 C 2411.4 -3.01133 -7.08783 0
M  V30 22937 C 2410.67 -4.12613 -6.37049 0
M  V30 22938 O 2410.46 -3.72827 -4.97879 0
M  V30 22939 C 2409.27 -4.45085 -6.88694 0
M  V30 22940 O 2408.88 -5.7877 -6.5624 0
M  V30 22941 C 2408.39 -3.47817 -6.12078 0
M  V30 22942 C 2409.1 -3.39414 -4.77697 0
M  V30 22943 N 2409.05 -2.04615 -4.15333 0
M  V30 22944 H 2411.88 -3.41248 -7.98759 0
M  V30 22945 H 2412.16 -2.5837 -6.41742 0
M  V30 22946 H 2411.29 -5.02657 -6.42673 0
M  V30 22947 P 2407.33 -6.144 -6.45285 0
M  V30 22948 O 2407.11 -7.54673 -6.86199 0
M  V30 22949 O 2406.54 -5.12391 -7.179 0
M  V30 22950 O 2407.08 -5.99158 -4.88404 0
M  V30 22951 C 2408.02 -6.60062 -3.96313 0
M  V30 22952 C 2407.29 -7.08259 -2.72856 0
M  V30 22953 O 2407.08 -5.9427 -1.83651 0
M  V30 22954 C 2405.89 -7.65087 -2.94749 0
M  V30 22955 O 2405.5 -8.53963 -1.90717 0
M  V30 22956 C 2405.01 -6.41069 -2.90698 0
M  V30 22957 C 2405.72 -5.5528 -1.86931 0
M  V30 22958 N 2405.67 -4.09575 -2.15696 0
M  V30 22959 C 2405.52 -3.24249 -1.08435 0
M  V30 22960 O 2405.43 -3.63946 0.0628747 0
M  V30 22961 N 2405.48 -1.90009 -1.39973 0
M  V30 22962 C 2405.57 -1.34884 -2.65614 0
M  V30 22963 C 2405.72 -2.3145 -3.71736 0
M  V30 22964 C 2405.77 -3.63518 -3.44754 0
M  V30 22965 H 2408.51 -7.45402 -4.45526 0
M  V30 22966 H 2408.78 -5.86062 -3.67208 0
M  V30 22967 H 2407.91 -7.84412 -2.24479 0
M  V30 22968 H 2405.25 -5.73358 -0.888409 0
M  V30 22969 H 2404.97 -5.90877 -3.88583 0
M  V30 22970 H 2403.98 -6.65867 -2.58821 0
M  V30 22971 H 2405.82 -8.16248 -3.92006 0
M  V30 22972 H 2405.89 -4.34551 -4.26383 0
M  V30 22973 P 2403.95 -8.7635 -1.60911 0
M  V30 22974 O 2403.73 -10.1388 -1.11561 0
M  V30 22975 O 2403.16 -8.36503 -2.79617 0
M  V30 22976 O 2403.7 -7.71806 -0.42951 0
M  V30 22977 C 2404.64 -7.67148 0.673689 0
M  V30 22978 C 2403.91 -7.33374 1.95559 0
M  V30 22979 O 2403.7 -5.88721 2.00726 0
M  V30 22980 C 2402.51 -7.92526 2.10483 0
M  V30 22981 O 2402.12 -8.02971 3.47653 0
M  V30 22982 C 2401.63 -6.89602 1.41652 0
M  V30 22983 C 2402.34 -5.59201 1.75185 0
M  V30 22984 N 2402.29 -4.58235 0.662552 0
M  V30 22985 H 2405.12 -8.65116 0.777161 0
M  V30 22986 H 2405.4 -6.90173 0.474152 0
M  V30 22987 H 2404.53 -7.66548 2.79458 0
M  V30 22988 P 2400.57 -8.03563 3.84925 0
M  V30 22989 O 2400.35 -8.85821 5.0569 0
M  V30 22990 O 2399.78 -8.41101 2.65469 0
M  V30 22991 O 2400.32 -6.4965 4.18908 0
M  V30 22992 C 2401.26 -5.81037 5.05421 0
M  V30 22993 C 2400.53 -4.78366 5.89277 0
M  V30 22994 O 2400.32 -3.58302 5.08433 0
M  V30 22995 C 2399.13 -5.17448 6.36119 0
M  V30 22996 O 2398.74 -4.45271 7.53232 0
M  V30 22997 C 2398.25 -4.74639 5.19936 0
M  V30 22998 C 2398.96 -3.49432 4.70418 0
M  V30 22999 N 2398.91 -3.31776 3.22945 0
M  V30 23000 H 2401.74 -6.54213 5.71376 0
M  V30 23001 H 2402.02 -5.30492 4.44033 0
M  V30 23002 H 2401.15 -4.55889 6.76652 0
M  V30 23003 P 2397.19 -4.23843 7.83734 0
M  V30 23004 O 2396.97 -4.19407 9.29784 0
M  V30 23005 O 2396.4 -5.24426 7.09156 0
M  V30 23006 O 2396.94 -2.7935 7.20758 0
M  V30 23007 C 2397.88 -1.7299 7.50419 0
M  V30 23008 C 2397.15 -0.406376 7.57911 0
M  V30 23009 O 2396.94 0.0897726 6.21935 0
M  V30 23010 C 2395.75 -0.447224 8.1878 0
M  V30 23011 O 2395.36 0.825065 8.71101 0
M  V30 23012 C 2394.87 -0.783801 6.99623 0
M  V30 23013 C 2395.58 -0.0619192 5.85967 0
M  V30 23014 N 2395.53 -0.7859 4.56281 0
M  V30 23015 H 2398.36 -1.93423 8.4679 0
M  V30 23016 H 2398.64 -1.68181 6.71046 0
M  V30 23017 H 2397.77 0.289041 8.15388 0
M  V30 23018 P 2393.81 1.17771 8.83182 0
M  V30 23019 O 2393.59 2.07206 9.98732 0
M  V30 23020 O 2393.02 -0.0743816 8.81969 0
M  V30 23021 O 2393.56 1.97652 7.47304 0
M  V30 23022 C 2394.5 3.01133 7.08783 0
M  V30 23023 C 2393.77 4.12613 6.37049 0
M  V30 23024 O 2393.56 3.72827 4.97879 0
M  V30 23025 C 2392.37 4.45085 6.88694 0
M  V30 23026 O 2391.98 5.7877 6.5624 0
M  V30 23027 C 2391.49 3.47817 6.12078 0
M  V30 23028 C 2392.2 3.39414 4.77697 0
M  V30 23029 N 2392.15 2.04615 4.15333 0
M  V30 23030 H 2394.98 3.41248 7.98759 0
M  V30 23031 H 2395.26 2.5837 6.41742 0
M  V30 23032 H 2394.39 5.02657 6.42673 0
M  V30 23033 P 2390.43 6.144 6.45285 0
M  V30 23034 O 2390.21 7.54673 6.86199 0
M  V30 23035 O 2389.64 5.12391 7.179 0
M  V30 23036 O 2390.18 5.99158 4.88404 0
M  V30 23037 C 2391.12 6.60234 3.96415 0
M  V30 23038 C 2390.39 7.08259 2.72856 0
M  V30 23039 O 2390.18 5.9427 1.83651 0
M  V30 23040 C 2388.99 7.64886 2.9555 0
M  V30 23041 O 2388.6 8.53963 1.90717 0
M  V30 23042 C 2388.11 6.4116 2.90739 0
M  V30 23043 C 2388.82 5.55375 1.86963 0
M  V30 23044 N 2388.77 4.09448 2.16152 0
M  V30 23045 H 2391.6 7.45574 4.45629 0
M  V30 23046 H 2391.88 5.85864 3.679 0
M  V30 23047 H 2391.01 7.84412 2.24479 0
M  V30 23048 H 2388.35 5.73457 0.888562 0
M  V30 23049 H 2388.07 5.90877 3.88583 0
M  V30 23050 H 2387.08 6.6596 2.58858 0
M  V30 23051 H 2388.92 8.16339 3.92049 0
M  V30 23052 P 2387.05 8.7635 1.60911 0
M  V30 23053 O 2386.83 10.1388 1.11561 0
M  V30 23054 O 2386.26 8.36503 2.79617 0
M  V30 23055 O 2386.8 7.71806 0.42951 0
M  V30 23056 C 2387.74 7.67148 -0.673689 0
M  V30 23057 C 2387.01 7.33374 -1.95559 0
M  V30 23058 O 2386.8 5.88721 -2.00726 0
M  V30 23059 C 2385.61 7.92526 -2.10483 0
M  V30 23060 O 2385.22 8.02971 -3.47653 0
M  V30 23061 C 2384.73 6.89602 -1.41652 0
M  V30 23062 C 2385.44 5.59201 -1.75185 0
M  V30 23063 N 2385.39 4.58235 -0.662552 0
M  V30 23064 C 2385.47 4.7683 0.704049 0
M  V30 23065 N 2385.39 3.66233 1.39775 0
M  V30 23066 C 2385.25 2.66526 0.431739 0
M  V30 23067 C 2385.12 1.26394 0.575992 0
M  V30 23068 N 2385 0.62859 -0.67177 0
M  V30 23069 C 2385 1.27134 -1.89385 0
M  V30 23070 N 2384.87 0.492035 -2.96951 0
M  V30 23071 N 2385.13 2.58978 -2.02907 0
M  V30 23072 C 2385.25 3.22433 -0.832218 0
M  V30 23073 H 2388.22 8.65116 -0.777161 0
M  V30 23074 H 2388.5 6.90173 -0.474152 0
M  V30 23075 H 2387.63 7.66548 -2.79458 0
M  V30 23076 P 2383.67 8.03563 -3.84925 0
M  V30 23077 O 2383.45 8.85821 -5.0569 0
M  V30 23078 O 2382.88 8.41101 -2.65469 0
M  V30 23079 O 2383.42 6.4965 -4.18908 0
M  V30 23080 C 2384.36 5.81037 -5.05421 0
M  V30 23081 C 2383.63 4.78366 -5.89277 0
M  V30 23082 O 2383.42 3.58302 -5.08433 0
M  V30 23083 C 2382.23 5.17448 -6.36119 0
M  V30 23084 O 2381.84 4.45271 -7.53232 0
M  V30 23085 C 2381.35 4.74639 -5.19936 0
M  V30 23086 C 2382.06 3.49432 -4.70418 0
M  V30 23087 N 2382.01 3.32099 -3.22613 0
M  V30 23088 H 2384.84 6.54213 -5.71376 0
M  V30 23089 H 2385.12 5.30936 -4.43503 0
M  V30 23090 H 2384.25 4.55889 -6.76652 0
M  V30 23091 H 2381.59 2.61715 -5.17932 0
M  V30 23092 H 2381.31 5.52155 -4.41878 0
M  V30 23093 H 2380.32 4.51981 -5.53374 0
M  V30 23094 H 2382.16 6.25124 -6.55234 0
M  V30 23095 P 2380.29 4.23843 -7.83734 0
M  V30 23096 O 2380.07 4.19407 -9.29784 0
M  V30 23097 O 2379.5 5.24426 -7.09156 0
M  V30 23098 O 2380.04 2.7935 -7.20758 0
M  V30 23099 C 2380.98 1.72945 -7.50224 0
M  V30 23100 C 2380.25 0.406376 -7.57911 0
M  V30 23101 O 2380.04 -0.0897726 -6.21935 0
M  V30 23102 C 2378.85 0.438983 -8.18724 0
M  V30 23103 O 2378.46 -0.825065 -8.71101 0
M  V30 23104 C 2377.97 0.783689 -6.99524 0
M  V30 23105 C 2378.68 0.0619086 -5.85867 0
M  V30 23106 N 2378.63 0.78573 -4.56183 0
M  V30 23107 C 2378.48 0.0292889 -3.41887 0
M  V30 23108 O 2378.39 -1.18445 -3.4419 0
M  V30 23109 N 2378.44 0.744061 -2.23964 0
M  V30 23110 C 2378.53 2.10932 -2.10362 0
M  V30 23111 O 2378.48 2.64117 -0.98825 0
M  V30 23112 C 2378.68 2.8202 -3.34994 0
M  V30 23113 C 2378.79 4.31095 -3.25037 0
M  V30 23114 C 2378.73 2.15547 -4.52261 0
M  V30 23115 H 2381.47 1.93379 -8.46595 0
M  V30 23116 H 2381.74 1.68132 -6.70852 0
M  V30 23117 H 2380.87 -0.289041 -8.15388 0
M  V30 23118 H 2378.21 -0.926847 -5.72749 0
M  V30 23119 H 2377.93 1.86973 -6.82036 0
M  V30 23120 H 2376.94 0.403896 -7.13257 0
M  V30 23121 H 2378.78 1.20585 -8.97435 0
M  V30 23122 H 2378.85 2.71231 -5.45042 0
M  V30 23123 H 2377.82 4.76966 -3.49992 0
M  V30 23124 H 2379.55 4.67047 -3.95024 0
M  V30 23125 H 2379.07 4.58996 -2.22312 0
M  V30 23126 H 2378.33 0.214893 -1.39758 0
M  V30 23127 P 2376.91 -1.17771 -8.83182 0
M  V30 23128 O 2376.69 -2.07206 -9.98732 0
M  V30 23129 O 2376.12 0.0743816 -8.81969 0
M  V30 23130 O 2376.66 -1.97652 -7.47304 0
M  V30 23131 C 2377.6 -3.01133 -7.08783 0
M  V30 23132 C 2376.87 -4.12613 -6.37049 0
M  V30 23133 O 2376.66 -3.72827 -4.97879 0
M  V30 23134 C 2375.47 -4.45085 -6.88694 0
M  V30 23135 O 2375.08 -5.7877 -6.5624 0
M  V30 23136 C 2374.59 -3.47817 -6.12078 0
M  V30 23137 C 2375.3 -3.39414 -4.77697 0
M  V30 23138 N 2375.25 -2.04199 -4.15538 0
M  V30 23139 H 2378.08 -3.41248 -7.98759 0
M  V30 23140 H 2378.36 -2.57728 -6.42 0
M  V30 23141 H 2377.49 -5.02657 -6.42673 0
M  V30 23142 H 2374.83 -4.11708 -4.08956 0
M  V30 23143 H 2374.55 -2.49626 -6.61679 0
M  V30 23144 H 2373.56 -3.8662 -6.00862 0
M  V30 23145 H 2375.4 -4.29991 -7.97006 0
M  V30 23146 P 2373.53 -6.144 -6.45285 0
M  V30 23147 O 2373.31 -7.54673 -6.86199 0
M  V30 23148 O 2372.74 -5.12391 -7.179 0
M  V30 23149 O 2373.28 -5.99158 -4.88404 0
M  V30 23150 C 2374.22 -6.60234 -3.96415 0
M  V30 23151 C 2373.49 -7.08259 -2.72856 0
M  V30 23152 O 2373.28 -5.9427 -1.83651 0
M  V30 23153 C 2372.09 -7.64886 -2.9555 0
M  V30 23154 O 2371.7 -8.53963 -1.90717 0
M  V30 23155 C 2371.21 -6.4116 -2.90739 0
M  V30 23156 C 2371.92 -5.55375 -1.86963 0
M  V30 23157 N 2371.87 -4.09664 -2.15742 0
M  V30 23158 H 2374.7 -7.45574 -4.45629 0
M  V30 23159 H 2374.98 -5.86232 -3.67314 0
M  V30 23160 H 2374.11 -7.84412 -2.24479 0
M  V30 23161 P 2370.15 -8.7635 -1.60911 0
M  V30 23162 O 2369.93 -10.1388 -1.11561 0
M  V30 23163 O 2369.36 -8.36503 -2.79617 0
M  V30 23164 O 2369.9 -7.71806 -0.42951 0
M  V30 23165 C 2370.84 -7.67148 0.673689 0
M  V30 23166 C 2370.11 -7.33374 1.95559 0
M  V30 23167 O 2369.9 -5.88721 2.00726 0
M  V30 23168 C 2368.71 -7.92526 2.10483 0
M  V30 23169 O 2368.32 -8.02971 3.47653 0
M  V30 23170 C 2367.83 -6.89602 1.41652 0
M  V30 23171 C 2368.54 -5.59201 1.75185 0
M  V30 23172 N 2368.49 -4.58235 0.662552 0
M  V30 23173 H 2371.33 -8.65116 0.777161 0
M  V30 23174 H 2371.6 -6.90173 0.474152 0
M  V30 23175 H 2370.73 -7.66548 2.79458 0
M  V30 23176 P 2366.77 -8.03563 3.84925 0
M  V30 23177 O 2366.55 -8.85821 5.0569 0
M  V30 23178 O 2365.98 -8.41101 2.65469 0
M  V30 23179 O 2366.52 -6.4965 4.18908 0
M  V30 23180 C 2367.46 -5.81037 5.05421 0
M  V30 23181 C 2366.73 -4.78366 5.89277 0
M  V30 23182 O 2366.52 -3.58302 5.08433 0
M  V30 23183 C 2365.33 -5.17448 6.36119 0
M  V30 23184 O 2364.94 -4.45271 7.53232 0
M  V30 23185 C 2364.45 -4.74639 5.19936 0
M  V30 23186 C 2365.16 -3.49432 4.70418 0
M  V30 23187 N 2365.11 -3.31776 3.22945 0
M  V30 23188 H 2367.95 -6.54213 5.71376 0
M  V30 23189 H 2368.22 -5.30492 4.44033 0
M  V30 23190 H 2367.35 -4.55889 6.76652 0
M  V30 23191 P 2363.39 -4.23843 7.83734 0
M  V30 23192 O 2363.17 -4.19407 9.29784 0
M  V30 23193 O 2362.6 -5.24426 7.09156 0
M  V30 23194 O 2363.14 -2.7935 7.20758 0
M  V30 23195 C 2364.08 -1.7299 7.50419 0
M  V30 23196 C 2363.35 -0.406376 7.57911 0
M  V30 23197 O 2363.14 0.0897726 6.21935 0
M  V30 23198 C 2361.95 -0.447224 8.1878 0
M  V30 23199 O 2361.56 0.825065 8.71101 0
M  V30 23200 C 2361.07 -0.783801 6.99623 0
M  V30 23201 C 2361.78 -0.0619192 5.85967 0
M  V30 23202 N 2361.73 -0.7859 4.56281 0
M  V30 23203 C 2361.81 -2.14308 4.31736 0
M  V30 23204 N 2361.73 -2.46106 3.05116 0
M  V30 23205 C 2361.59 -1.23422 2.4014 0
M  V30 23206 C 2361.46 -0.938381 1.02409 0
M  V30 23207 N 2361.34 0.444647 0.805413 0
M  V30 23208 C 2361.34 1.40829 1.79435 0
M  V30 23209 N 2361.21 2.67213 1.38558 0
M  V30 23210 N 2361.47 1.12947 3.09005 0
M  V30 23211 C 2361.59 -0.204887 3.32369 0
M  V30 23212 H 2364.57 -1.93423 8.4679 0
M  V30 23213 H 2364.84 -1.68181 6.71046 0
M  V30 23214 H 2363.97 0.289041 8.15388 0
M  V30 23215 P 2360.01 1.17771 8.83182 0
M  V30 23216 O 2359.79 2.07206 9.98732 0
M  V30 23217 O 2359.22 -0.0743816 8.81969 0
M  V30 23218 O 2359.76 1.97652 7.47304 0
M  V30 23219 C 2360.7 3.01133 7.08783 0
M  V30 23220 C 2359.97 4.12613 6.37049 0
M  V30 23221 O 2359.76 3.72827 4.97879 0
M  V30 23222 C 2358.57 4.45085 6.88694 0
M  V30 23223 O 2358.18 5.7877 6.5624 0
M  V30 23224 C 2357.69 3.47817 6.12078 0
M  V30 23225 C 2358.4 3.39414 4.77697 0
M  V30 23226 N 2358.35 2.04199 4.15538 0
M  V30 23227 H 2361.19 3.41248 7.98759 0
M  V30 23228 H 2361.46 2.57728 6.42 0
M  V30 23229 H 2360.59 5.02657 6.42673 0
M  V30 23230 H 2357.93 4.11708 4.08956 0
M  V30 23231 H 2357.65 2.49626 6.61679 0
M  V30 23232 H 2356.66 3.8662 6.00862 0
M  V30 23233 H 2358.5 4.29991 7.97006 0
M  V30 23234 P 2356.63 6.144 6.45285 0
M  V30 23235 O 2356.41 7.54673 6.86199 0
M  V30 23236 O 2355.84 5.12391 7.179 0
M  V30 23237 O 2356.38 5.99158 4.88404 0
M  V30 23238 C 2357.32 6.60234 3.96415 0
M  V30 23239 C 2356.59 7.08259 2.72856 0
M  V30 23240 O 2356.38 5.9427 1.83651 0
M  V30 23241 C 2355.19 7.64886 2.9555 0
M  V30 23242 O 2354.8 8.53963 1.90717 0
M  V30 23243 C 2354.31 6.4116 2.90739 0
M  V30 23244 C 2355.02 5.55375 1.86963 0
M  V30 23245 N 2354.97 4.09664 2.15742 0
M  V30 23246 H 2357.81 7.45574 4.45629 0
M  V30 23247 H 2358.08 5.86232 3.67314 0
M  V30 23248 H 2357.21 7.84412 2.24479 0
M  V30 23249 P 2353.25 8.7635 1.60911 0
M  V30 23250 O 2353.03 10.1388 1.11561 0
M  V30 23251 O 2352.46 8.36503 2.79617 0
M  V30 23252 O 2353 7.71806 0.42951 0
M  V30 23253 C 2353.94 7.67148 -0.673689 0
M  V30 23254 C 2353.21 7.33374 -1.95559 0
M  V30 23255 O 2353 5.88721 -2.00726 0
M  V30 23256 C 2351.81 7.92526 -2.10483 0
M  V30 23257 O 2351.42 8.02971 -3.47653 0
M  V30 23258 C 2350.93 6.89602 -1.41652 0
M  V30 23259 C 2351.64 5.59201 -1.75185 0
M  V30 23260 N 2351.59 4.58235 -0.662552 0
M  V30 23261 H 2354.43 8.65116 -0.777161 0
M  V30 23262 H 2354.7 6.90173 -0.474152 0
M  V30 23263 H 2353.83 7.66548 -2.79458 0
M  V30 23264 P 2349.87 8.03563 -3.84925 0
M  V30 23265 O 2349.65 8.85821 -5.0569 0
M  V30 23266 O 2349.08 8.41101 -2.65469 0
M  V30 23267 O 2349.62 6.4965 -4.18908 0
M  V30 23268 C 2350.56 5.80886 -5.05289 0
M  V30 23269 C 2349.83 4.78366 -5.89277 0
M  V30 23270 O 2349.62 3.58302 -5.08433 0
M  V30 23271 C 2348.43 5.16748 -6.36559 0
M  V30 23272 O 2348.04 4.45271 -7.53232 0
M  V30 23273 C 2347.55 4.74572 -5.19863 0
M  V30 23274 C 2348.26 3.49373 -4.70338 0
M  V30 23275 N 2348.21 3.31704 -3.22876 0
M  V30 23276 C 2348.06 2.03326 -2.74871 0
M  V30 23277 O 2347.97 1.06486 -3.48076 0
M  V30 23278 N 2348.02 1.91838 -1.37456 0
M  V30 23279 C 2348.11 2.94295 -0.462035 0
M  V30 23280 O 2348.06 2.71763 0.752928 0
M  V30 23281 C 2348.26 4.25064 -1.05249 0
M  V30 23282 C 2348.37 5.39815 -0.095697 0
M  V30 23283 C 2348.31 4.40214 -2.39192 0
M  V30 23284 H 2351.05 6.54063 -5.71245 0
M  V30 23285 H 2351.32 5.30339 -4.43905 0
M  V30 23286 H 2350.45 4.55889 -6.76652 0
M  V30 23287 H 2347.79 2.6167 -5.17842 0
M  V30 23288 H 2347.52 5.52155 -4.41878 0
M  V30 23289 H 2346.52 4.51918 -5.53297 0
M  V30 23290 H 2348.36 6.25055 -6.55162 0
M  V30 23291 H 2348.43 5.39798 -2.81523 0
M  V30 23292 H 2347.4 5.91593 -0.0279582 0
M  V30 23293 H 2349.14 6.10038 -0.450573 0
M  V30 23294 H 2348.65 5.02007 0.89937 0
M  V30 23295 H 2347.91 0.995326 -1.00435 0
M  V30 23296 P 2346.49 4.23843 -7.83734 0
M  V30 23297 O 2346.27 4.19407 -9.29784 0
M  V30 23298 O 2345.7 5.24426 -7.09156 0
M  V30 23299 O 2346.24 2.7935 -7.20758 0
M  V30 23300 C 2347.18 1.7299 -7.50419 0
M  V30 23301 C 2346.45 0.406376 -7.57911 0
M  V30 23302 O 2346.24 -0.0897726 -6.21935 0
M  V30 23303 C 2345.05 0.447224 -8.1878 0
M  V30 23304 O 2344.66 -0.825065 -8.71101 0
M  V30 23305 C 2344.17 0.783801 -6.99623 0
M  V30 23306 C 2344.88 0.0619192 -5.85967 0
M  V30 23307 N 2344.83 0.7859 -4.56281 0
M  V30 23308 H 2347.67 1.93423 -8.4679 0
M  V30 23309 H 2347.94 1.68181 -6.71046 0
M  V30 23310 H 2347.07 -0.289041 -8.15388 0
M  V30 23311 P 2343.11 -1.17771 -8.83182 0
M  V30 23312 O 2342.89 -2.07206 -9.98732 0
M  V30 23313 O 2342.32 0.0743816 -8.81969 0
M  V30 23314 O 2342.86 -1.97652 -7.47304 0
M  V30 23315 C 2343.8 -3.01133 -7.08783 0
M  V30 23316 C 2343.07 -4.12613 -6.37049 0
M  V30 23317 O 2342.86 -3.72827 -4.97879 0
M  V30 23318 C 2341.67 -4.45085 -6.88694 0
M  V30 23319 O 2341.28 -5.7877 -6.5624 0
M  V30 23320 C 2340.79 -3.47817 -6.12078 0
M  V30 23321 C 2341.5 -3.39414 -4.77697 0
M  V30 23322 N 2341.45 -2.04615 -4.15333 0
M  V30 23323 H 2344.29 -3.41248 -7.98759 0
M  V30 23324 H 2344.56 -2.5837 -6.41742 0
M  V30 23325 H 2343.69 -5.02657 -6.42673 0
M  V30 23326 P 2339.73 -6.144 -6.45285 0
M  V30 23327 O 2339.51 -7.54673 -6.86199 0
M  V30 23328 O 2338.94 -5.12391 -7.179 0
M  V30 23329 O 2339.48 -5.99158 -4.88404 0
M  V30 23330 C 2340.42 -6.60062 -3.96313 0
M  V30 23331 C 2339.69 -7.08259 -2.72856 0
M  V30 23332 O 2339.48 -5.9427 -1.83651 0
M  V30 23333 C 2338.29 -7.65087 -2.94749 0
M  V30 23334 O 2337.9 -8.53963 -1.90717 0
M  V30 23335 C 2337.41 -6.41069 -2.90698 0
M  V30 23336 C 2338.12 -5.5528 -1.86931 0
M  V30 23337 N 2338.07 -4.09575 -2.15696 0
M  V30 23338 C 2337.92 -3.24249 -1.08435 0
M  V30 23339 O 2337.83 -3.63946 0.0628747 0
M  V30 23340 N 2337.88 -1.90009 -1.39973 0
M  V30 23341 C 2337.97 -1.34884 -2.65614 0
M  V30 23342 O 2337.92 -0.123716 -2.81728 0
M  V30 23343 C 2338.12 -2.3145 -3.71736 0
M  V30 23344 C 2338.23 -1.75913 -5.10438 0
M  V30 23345 C 2338.17 -3.63518 -3.44754 0
M  V30 23346 H 2340.91 -7.45402 -4.45526 0
M  V30 23347 H 2341.18 -5.86062 -3.67208 0
M  V30 23348 H 2340.31 -7.84412 -2.24479 0
M  V30 23349 H 2337.65 -5.73358 -0.888409 0
M  V30 23350 H 2337.38 -5.90877 -3.88583 0
M  V30 23351 H 2336.38 -6.65867 -2.58821 0
M  V30 23352 H 2338.22 -8.16248 -3.92006 0
M  V30 23353 H 2338.29 -4.34551 -4.26383 0
M  V30 23354 H 2337.26 -1.85471 -5.61775 0
M  V30 23355 H 2339 -2.31364 -5.66257 0
M  V30 23356 H 2338.51 -0.695936 -5.05229 0
M  V30 23357 H 2337.77 -1.26277 -0.63625 0
M  V30 23358 P 2336.35 -8.7635 -1.60911 0
M  V30 23359 O 2336.13 -10.1388 -1.11561 0
M  V30 23360 O 2335.56 -8.36503 -2.79617 0
M  V30 23361 O 2336.1 -7.71806 -0.42951 0
M  V30 23362 C 2337.04 -7.67148 0.673689 0
M  V30 23363 C 2336.31 -7.33374 1.95559 0
M  V30 23364 O 2336.1 -5.88721 2.00726 0
M  V30 23365 C 2334.91 -7.92526 2.10483 0
M  V30 23366 O 2334.52 -8.02971 3.47653 0
M  V30 23367 C 2334.03 -6.89602 1.41652 0
M  V30 23368 C 2334.74 -5.59201 1.75185 0
M  V30 23369 N 2334.69 -4.58235 0.662552 0
M  V30 23370 H 2337.53 -8.65116 0.777161 0
M  V30 23371 H 2337.8 -6.90173 0.474152 0
M  V30 23372 H 2336.93 -7.66548 2.79458 0
M  V30 23373 P 2332.97 -8.03563 3.84925 0
M  V30 23374 O 2332.75 -8.85821 5.0569 0
M  V30 23375 O 2332.18 -8.41101 2.65469 0
M  V30 23376 O 2332.72 -6.4965 4.18908 0
M  V30 23377 C 2333.66 -5.80886 5.05289 0
M  V30 23378 C 2332.93 -4.78366 5.89277 0
M  V30 23379 O 2332.72 -3.58302 5.08433 0
M  V30 23380 C 2331.53 -5.16748 6.36559 0
M  V30 23381 O 2331.14 -4.45271 7.53232 0
M  V30 23382 C 2330.65 -4.74572 5.19863 0
M  V30 23383 C 2331.36 -3.49373 4.70338 0
M  V30 23384 N 2331.31 -3.31704 3.22876 0
M  V30 23385 C 2331.16 -2.03326 2.74871 0
M  V30 23386 O 2331.07 -1.06486 3.48076 0
M  V30 23387 N 2331.12 -1.91838 1.37456 0
M  V30 23388 C 2331.21 -2.94295 0.462035 0
M  V30 23389 C 2331.36 -4.25064 1.05249 0
M  V30 23390 C 2331.41 -4.40214 2.39192 0
M  V30 23391 H 2334.15 -6.54063 5.71245 0
M  V30 23392 H 2334.42 -5.30339 4.43905 0
M  V30 23393 H 2333.55 -4.55889 6.76652 0
M  V30 23394 H 2330.89 -2.6167 5.17842 0
M  V30 23395 H 2330.62 -5.52155 4.41878 0
M  V30 23396 H 2329.62 -4.51918 5.53297 0
M  V30 23397 H 2331.46 -6.25055 6.55162 0
M  V30 23398 H 2331.53 -5.39798 2.81523 0
M  V30 23399 P 2329.59 -4.23843 7.83734 0
M  V30 23400 O 2329.37 -4.19407 9.29784 0
M  V30 23401 O 2328.8 -5.24426 7.09156 0
M  V30 23402 O 2329.34 -2.7935 7.20758 0
M  V30 23403 C 2330.28 -1.7299 7.50419 0
M  V30 23404 C 2329.55 -0.406376 7.57911 0
M  V30 23405 O 2329.34 0.0897726 6.21935 0
M  V30 23406 C 2328.15 -0.447224 8.1878 0
M  V30 23407 O 2327.76 0.825065 8.71101 0
M  V30 23408 C 2327.27 -0.783801 6.99623 0
M  V30 23409 C 2327.98 -0.0619192 5.85967 0
M  V30 23410 N 2327.93 -0.7859 4.56281 0
M  V30 23411 H 2330.77 -1.93423 8.4679 0
M  V30 23412 H 2331.04 -1.68181 6.71046 0
M  V30 23413 H 2330.17 0.289041 8.15388 0
M  V30 23414 P 2326.21 1.17771 8.83182 0
M  V30 23415 O 2325.99 2.07206 9.98732 0
M  V30 23416 O 2325.42 -0.0743816 8.81969 0
M  V30 23417 O 2325.96 1.97652 7.47304 0
M  V30 23418 C 2326.9 3.01055 7.08599 0
M  V30 23419 C 2326.17 4.12613 6.37049 0
M  V30 23420 O 2325.96 3.72827 4.97879 0
M  V30 23421 C 2324.77 4.45719 6.88164 0
M  V30 23422 O 2324.38 5.7877 6.5624 0
M  V30 23423 C 2323.89 3.47768 6.11991 0
M  V30 23424 C 2324.6 3.39356 4.77615 0
M  V30 23425 N 2324.55 2.04571 4.15244 0
M  V30 23426 C 2324.4 1.98587 2.78314 0
M  V30 23427 O 2324.31 2.98134 2.08835 0
M  V30 23428 N 2324.36 0.714467 2.24925 0
M  V30 23429 C 2324.45 -0.470001 2.94169 0
M  V30 23430 C 2324.6 -0.312541 4.36783 0
M  V30 23431 C 2324.65 0.914512 4.92583 0
M  V30 23432 H 2327.39 3.41169 7.98575 0
M  V30 23433 H 2327.66 2.58295 6.41556 0
M  V30 23434 H 2326.79 5.02657 6.42673 0
M  V30 23435 H 2324.13 4.11637 4.08885 0
M  V30 23436 H 2323.86 2.49626 6.61679 0
M  V30 23437 H 2322.86 3.86566 6.00778 0
M  V30 23438 H 2324.7 4.29943 7.96918 0
M  V30 23439 H 2324.77 1.00937 6.00374 0
M  V30 23440 P 2322.83 6.144 6.45285 0
M  V30 23441 O 2322.61 7.54673 6.86199 0
M  V30 23442 O 2322.04 5.12391 7.179 0
M  V30 23443 O 2322.58 5.99158 4.88404 0
M  V30 23444 C 2323.52 6.60062 3.96313 0
M  V30 23445 C 2322.79 7.08259 2.72856 0
M  V30 23446 O 2322.58 5.9427 1.83651 0
M  V30 23447 C 2321.39 7.65087 2.94749 0
M  V30 23448 O 2321 8.53963 1.90717 0
M  V30 23449 C 2320.51 6.41069 2.90698 0
M  V30 23450 C 2321.22 5.5528 1.86931 0
M  V30 23451 N 2321.17 4.09575 2.15696 0
M  V30 23452 C 2321.02 3.24249 1.08435 0
M  V30 23453 O 2320.93 3.63946 -0.0628747 0
M  V30 23454 N 2320.98 1.90009 1.39973 0
M  V30 23455 C 2321.07 1.34884 2.65614 0
M  V30 23456 C 2321.22 2.3145 3.71736 0
M  V30 23457 C 2321.27 3.63518 3.44754 0
M  V30 23458 H 2324.01 7.45402 4.45526 0
M  V30 23459 H 2324.28 5.86062 3.67208 0
M  V30 23460 H 2323.41 7.84412 2.24479 0
M  V30 23461 H 2320.75 5.73358 0.888409 0
M  V30 23462 H 2320.48 5.90877 3.88583 0
M  V30 23463 H 2319.48 6.65867 2.58821 0
M  V30 23464 H 2321.32 8.16248 3.92006 0
M  V30 23465 H 2321.39 4.34551 4.26383 0
M  V30 23466 P 2319.45 8.7635 1.60911 0
M  V30 23467 O 2319.23 10.1388 1.11561 0
M  V30 23468 O 2318.66 8.36503 2.79617 0
M  V30 23469 O 2319.2 7.71906 0.429565 0
M  V30 23470 C 2320.14 7.67148 -0.673689 0
M  V30 23471 C 2319.41 7.33666 -1.94851 0
M  V30 23472 O 2319.2 5.88816 -2.00759 0
M  V30 23473 C 2318.01 7.92526 -2.10483 0
M  V30 23474 O 2317.62 8.03063 -3.47693 0
M  V30 23475 C 2317.13 6.89602 -1.41652 0
M  V30 23476 C 2317.84 5.59201 -1.75185 0
M  V30 23477 N 2317.79 4.58235 -0.662552 0
M  V30 23478 C 2317.64 3.24451 -1.01643 0
M  V30 23479 O 2317.55 2.94958 -2.21722 0
M  V30 23480 N 2317.59 2.30408 0.165238 0
M  V30 23481 C 2317.69 2.66048 1.25118 0
M  V30 23482 N 2317.64 1.70787 2.16813 0
M  V30 23483 C 2317.84 4.02732 1.64413 0
M  V30 23484 C 2317.89 4.9488 0.63991 0
M  V30 23485 H 2320.63 8.65017 -0.777072 0
M  V30 23486 H 2320.9 6.90173 -0.474152 0
M  V30 23487 H 2320.03 7.66642 -2.79492 0
M  V30 23488 H 2317.37 5.16254 -2.65229 0
M  V30 23489 H 2317.09 7.06532 -0.329431 0
M  V30 23490 H 2316.1 6.91023 -1.82047 0
M  V30 23491 H 2317.94 8.90873 -1.62657 0
M  V30 23492 H 2318.01 6.00104 0.892197 0
M  V30 23493 H 2317.91 4.31733 2.69229 0
M  V30 23494 H 2317.52 0.724835 1.8844 0
M  V30 23495 H 2317.72 1.94716 3.16734 0
M  V30 23496 P 2316.07 8.03563 -3.84925 0
M  V30 23497 O 2315.85 8.85821 -5.0569 0
M  V30 23498 O 2315.28 8.41101 -2.65469 0
M  V30 23499 O 2315.82 6.4965 -4.18908 0
M  V30 23500 C 2316.76 5.81037 -5.05421 0
M  V30 23501 C 2316.03 4.78366 -5.89277 0
M  V30 23502 O 2315.82 3.58302 -5.08433 0
M  V30 23503 C 2314.63 5.17448 -6.36119 0
M  V30 23504 O 2314.24 4.45271 -7.53232 0
M  V30 23505 C 2313.75 4.74639 -5.19936 0
M  V30 23506 C 2314.46 3.49432 -4.70418 0
M  V30 23507 N 2314.41 3.31776 -3.22945 0
M  V30 23508 H 2317.25 6.54213 -5.71376 0
M  V30 23509 H 2317.52 5.30492 -4.44033 0
M  V30 23510 H 2316.65 4.55889 -6.76652 0
M  V30 23511 P 2312.69 4.23843 -7.83734 0
M  V30 23512 O 2312.47 4.19407 -9.29784 0
M  V30 23513 O 2311.9 5.24426 -7.09156 0
M  V30 23514 O 2312.44 2.7935 -7.20758 0
M  V30 23515 C 2313.38 1.7299 -7.50419 0
M  V30 23516 C 2312.65 0.406376 -7.57911 0
M  V30 23517 O 2312.44 -0.0897726 -6.21935 0
M  V30 23518 C 2311.25 0.447224 -8.1878 0
M  V30 23519 O 2310.86 -0.825065 -8.71101 0
M  V30 23520 C 2310.37 0.783801 -6.99623 0
M  V30 23521 C 2311.08 0.0619192 -5.85967 0
M  V30 23522 N 2311.03 0.7859 -4.56281 0
M  V30 23523 H 2313.87 1.93423 -8.4679 0
M  V30 23524 H 2314.14 1.68181 -6.71046 0
M  V30 23525 H 2313.27 -0.289041 -8.15388 0
M  V30 23526 P 2309.31 -1.17771 -8.83182 0
M  V30 23527 O 2309.09 -2.07206 -9.98732 0
M  V30 23528 O 2308.52 0.0743816 -8.81969 0
M  V30 23529 O 2309.06 -1.97652 -7.47304 0
M  V30 23530 C 2310 -3.01133 -7.08783 0
M  V30 23531 C 2309.27 -4.12613 -6.37049 0
M  V30 23532 O 2309.06 -3.72827 -4.97879 0
M  V30 23533 C 2307.87 -4.45085 -6.88694 0
M  V30 23534 O 2307.48 -5.7877 -6.5624 0
M  V30 23535 C 2306.99 -3.47817 -6.12078 0
M  V30 23536 C 2307.7 -3.39414 -4.77697 0
M  V30 23537 N 2307.65 -2.04615 -4.15333 0
M  V30 23538 H 2310.49 -3.41248 -7.98759 0
M  V30 23539 H 2310.76 -2.5837 -6.41742 0
M  V30 23540 H 2309.89 -5.02657 -6.42673 0
M  V30 23541 P 2305.93 -6.144 -6.45285 0
M  V30 23542 O 2305.71 -7.54673 -6.86199 0
M  V30 23543 O 2305.14 -5.12391 -7.179 0
M  V30 23544 O 2305.68 -5.99158 -4.88404 0
M  V30 23545 C 2306.62 -6.60062 -3.96313 0
M  V30 23546 C 2305.89 -7.08259 -2.72856 0
M  V30 23547 O 2305.68 -5.9427 -1.83651 0
M  V30 23548 C 2304.49 -7.65087 -2.94749 0
M  V30 23549 O 2304.1 -8.53963 -1.90717 0
M  V30 23550 C 2303.61 -6.41069 -2.90698 0
M  V30 23551 C 2304.32 -5.5528 -1.86931 0
M  V30 23552 N 2304.27 -4.09575 -2.15696 0
M  V30 23553 C 2304.12 -3.24249 -1.08435 0
M  V30 23554 O 2304.03 -3.63946 0.0628747 0
M  V30 23555 N 2304.08 -1.90009 -1.39973 0
M  V30 23556 C 2304.17 -1.34884 -2.65614 0
M  V30 23557 C 2304.32 -2.3145 -3.71736 0
M  V30 23558 C 2304.37 -3.63518 -3.44754 0
M  V30 23559 H 2307.11 -7.45402 -4.45526 0
M  V30 23560 H 2307.38 -5.86062 -3.67208 0
M  V30 23561 H 2306.51 -7.84412 -2.24479 0
M  V30 23562 H 2303.85 -5.73358 -0.888409 0
M  V30 23563 H 2303.58 -5.90877 -3.88583 0
M  V30 23564 H 2302.58 -6.65867 -2.58821 0
M  V30 23565 H 2304.42 -8.16248 -3.92006 0
M  V30 23566 H 2304.49 -4.34551 -4.26383 0
M  V30 23567 P 2302.55 -8.7635 -1.60911 0
M  V30 23568 O 2302.33 -10.1388 -1.11561 0
M  V30 23569 O 2301.76 -8.36503 -2.79617 0
M  V30 23570 O 2302.3 -7.71806 -0.42951 0
M  V30 23571 C 2303.24 -7.67148 0.673689 0
M  V30 23572 C 2302.51 -7.33374 1.95559 0
M  V30 23573 O 2302.3 -5.88721 2.00726 0
M  V30 23574 C 2301.11 -7.92526 2.10483 0
M  V30 23575 O 2300.72 -8.02971 3.47653 0
M  V30 23576 C 2300.23 -6.89602 1.41652 0
M  V30 23577 C 2300.94 -5.59201 1.75185 0
M  V30 23578 N 2300.89 -4.58235 0.662552 0
M  V30 23579 H 2303.73 -8.65116 0.777161 0
M  V30 23580 H 2304 -6.90173 0.474152 0
M  V30 23581 H 2303.13 -7.66548 2.79458 0
M  V30 23582 P 2299.17 -8.03563 3.84925 0
M  V30 23583 O 2298.95 -8.85821 5.0569 0
M  V30 23584 O 2298.38 -8.41101 2.65469 0
M  V30 23585 O 2298.92 -6.4965 4.18908 0
M  V30 23586 C 2299.86 -5.81037 5.05421 0
M  V30 23587 C 2299.13 -4.78366 5.89277 0
M  V30 23588 O 2298.92 -3.58302 5.08433 0
M  V30 23589 C 2297.73 -5.17448 6.36119 0
M  V30 23590 O 2297.34 -4.45271 7.53232 0
M  V30 23591 C 2296.85 -4.74639 5.19936 0
M  V30 23592 C 2297.56 -3.49432 4.70418 0
M  V30 23593 N 2297.51 -3.31776 3.22945 0
M  V30 23594 H 2300.35 -6.54213 5.71376 0
M  V30 23595 H 2300.62 -5.30492 4.44033 0
M  V30 23596 H 2299.75 -4.55889 6.76652 0
M  V30 23597 P 2295.79 -4.23843 7.83734 0
M  V30 23598 O 2295.57 -4.19407 9.29784 0
M  V30 23599 O 2295 -5.24426 7.09156 0
M  V30 23600 O 2295.54 -2.7935 7.20758 0
M  V30 23601 C 2296.48 -1.7299 7.50419 0
M  V30 23602 C 2295.75 -0.406376 7.57911 0
M  V30 23603 O 2295.54 0.0897726 6.21935 0
M  V30 23604 C 2294.35 -0.447224 8.1878 0
M  V30 23605 O 2293.96 0.825065 8.71101 0
M  V30 23606 C 2293.47 -0.783801 6.99623 0
M  V30 23607 C 2294.18 -0.0619192 5.85967 0
M  V30 23608 N 2294.13 -0.7859 4.56281 0
M  V30 23609 H 2296.97 -1.93423 8.4679 0
M  V30 23610 H 2297.24 -1.68181 6.71046 0
M  V30 23611 H 2296.37 0.289041 8.15388 0
M  V30 23612 P 2292.41 1.17771 8.83182 0
M  V30 23613 O 2292.19 2.07206 9.98732 0
M  V30 23614 O 2291.62 -0.0743816 8.81969 0
M  V30 23615 O 2292.16 1.97652 7.47304 0
M  V30 23616 C 2293.1 3.01133 7.08783 0
M  V30 23617 C 2292.37 4.12613 6.37049 0
M  V30 23618 O 2292.16 3.72827 4.97879 0
M  V30 23619 C 2290.97 4.45085 6.88694 0
M  V30 23620 O 2290.58 5.7877 6.5624 0
M  V30 23621 C 2290.09 3.47817 6.12078 0
M  V30 23622 C 2290.8 3.39414 4.77697 0
M  V30 23623 N 2290.75 2.04615 4.15333 0
M  V30 23624 H 2293.59 3.41248 7.98759 0
M  V30 23625 H 2293.86 2.5837 6.41742 0
M  V30 23626 H 2292.99 5.02657 6.42673 0
M  V30 23627 P 2289.03 6.144 6.45285 0
M  V30 23628 O 2288.81 7.54673 6.86199 0
M  V30 23629 O 2288.24 5.12391 7.179 0
M  V30 23630 O 2288.78 5.99158 4.88404 0
M  V30 23631 C 2289.72 6.60234 3.96415 0
M  V30 23632 C 2288.99 7.08259 2.72856 0
M  V30 23633 O 2288.78 5.9427 1.83651 0
M  V30 23634 C 2287.59 7.64886 2.9555 0
M  V30 23635 O 2287.2 8.53963 1.90717 0
M  V30 23636 C 2286.71 6.4116 2.90739 0
M  V30 23637 C 2287.42 5.55375 1.86963 0
M  V30 23638 N 2287.37 4.09664 2.15742 0
M  V30 23639 H 2290.21 7.45574 4.45629 0
M  V30 23640 H 2290.48 5.86232 3.67314 0
M  V30 23641 H 2289.61 7.84412 2.24479 0
M  V30 23642 P 2285.65 8.7635 1.60911 0
M  V30 23643 O 2285.43 10.1388 1.11561 0
M  V30 23644 O 2284.86 8.36503 2.79617 0
M  V30 23645 O 2285.4 7.71806 0.42951 0
M  V30 23646 C 2286.34 7.67148 -0.673689 0
M  V30 23647 C 2285.61 7.33374 -1.95559 0
M  V30 23648 O 2285.4 5.88721 -2.00726 0
M  V30 23649 C 2284.21 7.92526 -2.10483 0
M  V30 23650 O 2283.82 8.02971 -3.47653 0
M  V30 23651 C 2283.33 6.89602 -1.41652 0
M  V30 23652 C 2284.04 5.59201 -1.75185 0
M  V30 23653 N 2283.99 4.58235 -0.662552 0
M  V30 23654 H 2286.83 8.65116 -0.777161 0
M  V30 23655 H 2287.1 6.90173 -0.474152 0
M  V30 23656 H 2286.23 7.66548 -2.79458 0
M  V30 23657 P 2282.27 8.03563 -3.84925 0
M  V30 23658 O 2282.05 8.85821 -5.0569 0
M  V30 23659 O 2281.48 8.41101 -2.65469 0
M  V30 23660 O 2282.02 6.4965 -4.18908 0
M  V30 23661 C 2282.96 5.81037 -5.05421 0
M  V30 23662 C 2282.23 4.78366 -5.89277 0
M  V30 23663 O 2282.02 3.58302 -5.08433 0
M  V30 23664 C 2280.83 5.17448 -6.36119 0
M  V30 23665 O 2280.44 4.45271 -7.53232 0
M  V30 23666 C 2279.95 4.74639 -5.19936 0
M  V30 23667 C 2280.66 3.49432 -4.70418 0
M  V30 23668 N 2280.61 3.31776 -3.22945 0
M  V30 23669 H 2283.45 6.54213 -5.71376 0
M  V30 23670 H 2283.72 5.30492 -4.44033 0
M  V30 23671 H 2282.85 4.55889 -6.76652 0
M  V30 23672 P 2278.89 4.23843 -7.83734 0
M  V30 23673 O 2278.67 4.19407 -9.29784 0
M  V30 23674 O 2278.1 5.24426 -7.09156 0
M  V30 23675 O 2278.64 2.7935 -7.20758 0
M  V30 23676 C 2279.58 1.7299 -7.50419 0
M  V30 23677 C 2278.85 0.406376 -7.57911 0
M  V30 23678 O 2278.64 -0.0897726 -6.21935 0
M  V30 23679 C 2277.45 0.447224 -8.1878 0
M  V30 23680 O 2277.06 -0.825065 -8.71101 0
M  V30 23681 C 2276.57 0.783801 -6.99623 0
M  V30 23682 C 2277.28 0.0619192 -5.85967 0
M  V30 23683 N 2277.23 0.7859 -4.56281 0
M  V30 23684 H 2280.07 1.93423 -8.4679 0
M  V30 23685 H 2280.34 1.68181 -6.71046 0
M  V30 23686 H 2279.47 -0.289041 -8.15388 0
M  V30 23687 P 2275.51 -1.17771 -8.83182 0
M  V30 23688 O 2275.29 -2.07206 -9.98732 0
M  V30 23689 O 2274.72 0.0743816 -8.81969 0
M  V30 23690 O 2275.26 -1.97652 -7.47304 0
M  V30 23691 C 2276.2 -3.01133 -7.08783 0
M  V30 23692 C 2275.47 -4.12613 -6.37049 0
M  V30 23693 O 2275.26 -3.72827 -4.97879 0
M  V30 23694 C 2274.07 -4.45085 -6.88694 0
M  V30 23695 O 2273.68 -5.7877 -6.5624 0
M  V30 23696 C 2273.19 -3.47817 -6.12078 0
M  V30 23697 C 2273.9 -3.39414 -4.77697 0
M  V30 23698 N 2273.85 -2.04199 -4.15538 0
M  V30 23699 H 2276.69 -3.41248 -7.98759 0
M  V30 23700 H 2276.96 -2.57728 -6.42 0
M  V30 23701 H 2276.09 -5.02657 -6.42673 0
M  V30 23702 H 2273.43 -4.11708 -4.08956 0
M  V30 23703 H 2273.15 -2.49626 -6.61679 0
M  V30 23704 H 2272.16 -3.8662 -6.00862 0
M  V30 23705 H 2274 -4.29991 -7.97006 0
M  V30 23706 P 2272.13 -6.144 -6.45285 0
M  V30 23707 O 2271.91 -7.54673 -6.86199 0
M  V30 23708 O 2271.34 -5.12391 -7.179 0
M  V30 23709 O 2271.88 -5.99158 -4.88404 0
M  V30 23710 C 2272.82 -6.60234 -3.96415 0
M  V30 23711 C 2272.09 -7.08259 -2.72856 0
M  V30 23712 O 2271.88 -5.9427 -1.83651 0
M  V30 23713 C 2270.69 -7.64886 -2.9555 0
M  V30 23714 O 2270.3 -8.53963 -1.90717 0
M  V30 23715 C 2269.81 -6.4116 -2.90739 0
M  V30 23716 C 2270.52 -5.55375 -1.86963 0
M  V30 23717 N 2270.47 -4.09448 -2.16152 0
M  V30 23718 C 2270.55 -3.46824 -3.37593 0
M  V30 23719 N 2270.48 -2.17422 -3.29777 0
M  V30 23720 C 2270.33 -1.93065 -1.94427 0
M  V30 23721 C 2270.2 -0.738053 -1.20141 0
M  V30 23722 N 2270.19 0.474256 -1.74676 0
M  V30 23723 N 2270.08 -0.850049 0.13045 0
M  V30 23724 C 2270.09 -2.06169 0.676992 0
M  V30 23725 N 2270.21 -3.23842 0.101312 0
M  V30 23726 C 2270.33 -3.09402 -1.23122 0
M  V30 23727 H 2273.31 -7.45574 -4.45629 0
M  V30 23728 H 2273.58 -5.85864 -3.679 0
M  V30 23729 H 2272.71 -7.84412 -2.24479 0
M  V30 23730 H 2270.05 -5.73457 -0.888562 0
M  V30 23731 H 2269.77 -5.90877 -3.88583 0
M  V30 23732 H 2268.78 -6.6596 -2.58858 0
M  V30 23733 H 2270.62 -8.16339 -3.92049 0
M  V30 23734 H 2270.66 -4.00505 -4.3174 0
M  V30 23735 H 2270.28 0.581337 -2.76658 0
M  V30 23736 H 2270.09 1.30811 -1.14888 0
M  V30 23737 H 2269.98 -2.08295 1.75542 0
M  V30 23738 P 2268.75 -8.7635 -1.60911 0
M  V30 23739 O 2268.53 -10.1388 -1.11561 0
M  V30 23740 O 2267.96 -8.36503 -2.79617 0
M  V30 23741 O 2268.5 -7.71806 -0.42951 0
M  V30 23742 C 2269.44 -7.67148 0.673689 0
M  V30 23743 C 2268.71 -7.33374 1.95559 0
M  V30 23744 O 2268.5 -5.88721 2.00726 0
M  V30 23745 C 2267.31 -7.92526 2.10483 0
M  V30 23746 O 2266.92 -8.02971 3.47653 0
M  V30 23747 C 2266.43 -6.89602 1.41652 0
M  V30 23748 C 2267.14 -5.59201 1.75185 0
M  V30 23749 N 2267.09 -4.58301 0.657969 0
M  V30 23750 H 2269.93 -8.65116 0.777161 0
M  V30 23751 H 2270.2 -6.9022 0.46725 0
M  V30 23752 H 2269.33 -7.66548 2.79458 0
M  V30 23753 H 2266.67 -5.16165 2.65183 0
M  V30 23754 H 2266.39 -7.06433 0.329384 0
M  V30 23755 H 2265.4 -6.90926 1.82021 0
M  V30 23756 H 2267.24 -8.90873 1.62657 0
M  V30 23757 P 2265.37 -8.03563 3.84925 0
M  V30 23758 O 2265.15 -8.85821 5.0569 0
M  V30 23759 O 2264.58 -8.41101 2.65469 0
M  V30 23760 O 2265.12 -6.4965 4.18908 0
M  V30 23761 C 2266.06 -5.81037 5.05421 0
M  V30 23762 C 2265.33 -4.78366 5.89277 0
M  V30 23763 O 2265.12 -3.58302 5.08433 0
M  V30 23764 C 2263.93 -5.17448 6.36119 0
M  V30 23765 O 2263.54 -4.45271 7.53232 0
M  V30 23766 C 2263.05 -4.74639 5.19936 0
M  V30 23767 C 2263.76 -3.49432 4.70418 0
M  V30 23768 N 2263.71 -3.32099 3.22613 0
M  V30 23769 H 2266.55 -6.54213 5.71376 0
M  V30 23770 H 2266.82 -5.30936 4.43503 0
M  V30 23771 H 2265.95 -4.55889 6.76652 0
M  V30 23772 H 2263.29 -2.61715 5.17932 0
M  V30 23773 H 2263.01 -5.52155 4.41878 0
M  V30 23774 H 2262.02 -4.51981 5.53374 0
M  V30 23775 H 2263.86 -6.25124 6.55234 0
M  V30 23776 P 2261.99 -4.23843 7.83734 0
M  V30 23777 O 2261.77 -4.19407 9.29784 0
M  V30 23778 O 2261.2 -5.24426 7.09156 0
M  V30 23779 O 2261.74 -2.7935 7.20758 0
M  V30 23780 C 2262.68 -1.7299 7.50419 0
M  V30 23781 C 2261.95 -0.406376 7.57911 0
M  V30 23782 O 2261.74 0.0897726 6.21935 0
M  V30 23783 C 2260.55 -0.447224 8.1878 0
M  V30 23784 O 2260.16 0.825065 8.71101 0
M  V30 23785 C 2259.67 -0.783801 6.99623 0
M  V30 23786 C 2260.38 -0.0619192 5.85967 0
M  V30 23787 N 2260.33 -0.7859 4.56281 0
M  V30 23788 H 2263.17 -1.93423 8.4679 0
M  V30 23789 H 2263.44 -1.68181 6.71046 0
M  V30 23790 H 2262.57 0.289041 8.15388 0
M  V30 23791 P 2258.61 1.17771 8.83182 0
M  V30 23792 O 2258.39 2.07206 9.98732 0
M  V30 23793 O 2257.82 -0.0743816 8.81969 0
M  V30 23794 O 2258.36 1.97652 7.47304 0
M  V30 23795 C 2259.3 3.01055 7.08599 0
M  V30 23796 C 2258.57 4.12613 6.37049 0
M  V30 23797 O 2258.36 3.72827 4.97879 0
M  V30 23798 C 2257.17 4.45719 6.88164 0
M  V30 23799 O 2256.78 5.7877 6.5624 0
M  V30 23800 C 2256.29 3.47768 6.11991 0
M  V30 23801 C 2257 3.39356 4.77615 0
M  V30 23802 N 2256.95 2.04571 4.15244 0
M  V30 23803 C 2256.8 1.98587 2.78314 0
M  V30 23804 O 2256.71 2.98134 2.08835 0
M  V30 23805 N 2256.76 0.714467 2.24925 0
M  V30 23806 C 2256.85 -0.470001 2.94169 0
M  V30 23807 C 2257 -0.312541 4.36783 0
M  V30 23808 C 2257.05 0.914512 4.92583 0
M  V30 23809 H 2259.79 3.41169 7.98575 0
M  V30 23810 H 2260.06 2.58295 6.41556 0
M  V30 23811 H 2259.19 5.02657 6.42673 0
M  V30 23812 H 2256.53 4.11637 4.08885 0
M  V30 23813 H 2256.26 2.49626 6.61679 0
M  V30 23814 H 2255.26 3.86566 6.00778 0
M  V30 23815 H 2257.1 4.29943 7.96918 0
M  V30 23816 H 2257.17 1.00937 6.00374 0
M  V30 23817 P 2255.23 6.144 6.45285 0
M  V30 23818 O 2255.01 7.54673 6.86199 0
M  V30 23819 O 2254.44 5.12391 7.179 0
M  V30 23820 O 2254.98 5.99236 4.88467 0
M  V30 23821 C 2255.92 6.60234 3.96415 0
M  V30 23822 C 2255.19 7.08079 2.736 0
M  V30 23823 O 2254.98 5.94365 1.8368 0
M  V30 23824 C 2253.79 7.64886 2.9555 0
M  V30 23825 O 2253.4 8.5406 1.90739 0
M  V30 23826 C 2252.91 6.4116 2.90739 0
M  V30 23827 C 2253.62 5.55375 1.86963 0
M  V30 23828 N 2253.57 4.09664 2.15742 0
M  V30 23829 C 2253.42 3.22231 1.08477 0
M  V30 23830 O 2253.33 3.68951 -0.0600489 0
M  V30 23831 N 2253.37 1.76692 1.48799 0
M  V30 23832 C 2253.47 1.41695 2.57602 0
M  V30 23833 N 2253.42 0.107296 2.75791 0
M  V30 23834 C 2253.62 2.29178 3.69733 0
M  V30 23835 C 2253.67 3.62753 3.42653 0
M  V30 23836 H 2256.41 7.45488 4.45578 0
M  V30 23837 H 2256.68 5.86232 3.67314 0
M  V30 23838 H 2255.81 7.84508 2.24507 0
M  V30 23839 H 2253.15 5.73556 0.888715 0
M  V30 23840 H 2252.87 5.9096 3.88638 0
M  V30 23841 H 2251.88 6.66053 2.58894 0
M  V30 23842 H 2253.72 8.16339 3.92049 0
M  V30 23843 H 2253.79 4.33052 4.24913 0
M  V30 23844 H 2253.69 1.9103 4.71577 0
M  V30 23845 H 2253.3 -0.521221 1.95056 0
M  V30 23846 H 2253.5 -0.286429 3.70695 0
M  V30 23847 P 2251.85 8.7635 1.60911 0
M  V30 23848 O 2251.63 10.1388 1.11561 0
M  V30 23849 O 2251.06 8.36503 2.79617 0
M  V30 23850 O 2251.6 7.71806 0.42951 0
M  V30 23851 C 2252.54 7.67148 -0.673689 0
M  V30 23852 C 2251.81 7.33374 -1.95559 0
M  V30 23853 O 2251.6 5.88721 -2.00726 0
M  V30 23854 C 2250.41 7.92526 -2.10483 0
M  V30 23855 O 2250.02 8.02971 -3.47653 0
M  V30 23856 C 2249.53 6.89602 -1.41652 0
M  V30 23857 C 2250.24 5.59201 -1.75185 0
M  V30 23858 N 2250.19 4.58301 -0.657969 0
M  V30 23859 C 2250.27 4.79019 0.692603 0
M  V30 23860 N 2250.2 3.69736 1.38998 0
M  V30 23861 C 2250.05 2.70474 0.438135 0
M  V30 23862 C 2249.92 1.30327 0.538142 0
M  V30 23863 N 2249.91 0.64304 1.69192 0
M  V30 23864 N 2249.8 0.611027 -0.605183 0
M  V30 23865 C 2249.81 1.27002 -1.75953 0
M  V30 23866 N 2249.93 2.56038 -1.98546 0
M  V30 23867 C 2250.05 3.22681 -0.822541 0
M  V30 23868 H 2253.03 8.65116 -0.777161 0
M  V30 23869 H 2253.3 6.9022 -0.46725 0
M  V30 23870 H 2252.43 7.66548 -2.79458 0
M  V30 23871 H 2249.77 5.16165 -2.65183 0
M  V30 23872 H 2249.49 7.06433 -0.329384 0
M  V30 23873 H 2248.5 6.90926 -1.82021 0
M  V30 23874 H 2250.34 8.90873 -1.62657 0
M  V30 23875 H 2250.38 5.77785 1.13874 0
M  V30 23876 H 2250 1.15585 2.57991 0
M  V30 23877 H 2249.81 -0.382989 1.69835 0
M  V30 23878 H 2249.7 0.653331 -2.64449 0
M  V30 23879 P 2248.47 8.03563 -3.84925 0
M  V30 23880 O 2248.25 8.85821 -5.0569 0
M  V30 23881 O 2247.68 8.41101 -2.65469 0
M  V30 23882 O 2248.22 6.4965 -4.18908 0
M  V30 23883 C 2249.16 5.80886 -5.05289 0
M  V30 23884 C 2248.43 4.78366 -5.89277 0
M  V30 23885 O 2248.22 3.58302 -5.08433 0
M  V30 23886 C 2247.03 5.16748 -6.36559 0
M  V30 23887 O 2246.64 4.45271 -7.53232 0
M  V30 23888 C 2246.15 4.74572 -5.19863 0
M  V30 23889 C 2246.86 3.49373 -4.70338 0
M  V30 23890 N 2246.81 3.31704 -3.22876 0
M  V30 23891 C 2246.66 2.03326 -2.74871 0
M  V30 23892 O 2246.57 1.06486 -3.48076 0
M  V30 23893 N 2246.62 1.91838 -1.37456 0
M  V30 23894 C 2246.71 2.94295 -0.462035 0
M  V30 23895 O 2246.66 2.71763 0.752928 0
M  V30 23896 C 2246.86 4.25064 -1.05249 0
M  V30 23897 C 2246.97 5.39815 -0.095697 0
M  V30 23898 C 2246.91 4.40214 -2.39192 0
M  V30 23899 H 2249.65 6.54063 -5.71245 0
M  V30 23900 H 2249.92 5.30339 -4.43905 0
M  V30 23901 H 2249.05 4.55889 -6.76652 0
M  V30 23902 H 2246.39 2.6167 -5.17842 0
M  V30 23903 H 2246.12 5.52155 -4.41878 0
M  V30 23904 H 2245.12 4.51918 -5.53297 0
M  V30 23905 H 2246.96 6.25055 -6.55162 0
M  V30 23906 H 2247.03 5.39798 -2.81523 0
M  V30 23907 H 2246 5.91593 -0.0279582 0
M  V30 23908 H 2247.74 6.10038 -0.450573 0
M  V30 23909 H 2247.25 5.02007 0.89937 0
M  V30 23910 H 2246.51 0.995326 -1.00435 0
M  V30 23911 P 2245.09 4.23843 -7.83734 0
M  V30 23912 O 2244.87 4.19407 -9.29784 0
M  V30 23913 O 2244.3 5.24426 -7.09156 0
M  V30 23914 O 2244.84 2.7935 -7.20758 0
M  V30 23915 C 2245.78 1.7299 -7.50419 0
M  V30 23916 C 2245.05 0.406376 -7.57911 0
M  V30 23917 O 2244.84 -0.0897726 -6.21935 0
M  V30 23918 C 2243.65 0.447224 -8.1878 0
M  V30 23919 O 2243.26 -0.825065 -8.71101 0
M  V30 23920 C 2242.77 0.783801 -6.99623 0
M  V30 23921 C 2243.48 0.0619192 -5.85967 0
M  V30 23922 N 2243.43 0.790462 -4.56202 0
M  V30 23923 C 2243.51 2.13895 -4.34171 0
M  V30 23924 N 2243.44 2.46449 -3.08687 0
M  V30 23925 C 2243.29 1.2525 -2.43697 0
M  V30 23926 C 2243.16 0.914535 -1.07318 0
M  V30 23927 N 2243.15 1.80782 -0.0887348 0
M  V30 23928 N 2243.04 -0.386745 -0.768133 0
M  V30 23929 C 2243.05 -1.28096 -1.75159 0
M  V30 23930 N 2243.17 -1.09708 -3.04861 0
M  V30 23931 C 2243.29 0.214857 -3.32306 0
M  V30 23932 H 2246.27 1.93423 -8.4679 0
M  V30 23933 H 2246.54 1.68852 -6.70877 0
M  V30 23934 H 2245.67 -0.289041 -8.15388 0
M  V30 23935 H 2243.01 -0.927006 -5.72848 0
M  V30 23936 H 2242.73 1.86973 -6.82036 0
M  V30 23937 H 2241.74 0.403953 -7.13357 0
M  V30 23938 H 2243.58 1.20599 -8.97534 0
M  V30 23939 H 2243.62 2.86846 -5.14318 0
M  V30 23940 H 2243.24 2.81082 -0.302037 0
M  V30 23941 H 2243.05 1.49688 0.889064 0
M  V30 23942 H 2242.94 -2.31317 -1.43855 0
M  V30 23943 P 2241.71 -1.17771 -8.83182 0
M  V30 23944 O 2241.49 -2.07206 -9.98732 0
M  V30 23945 O 2240.92 0.0743816 -8.81969 0
M  V30 23946 O 2241.46 -1.97652 -7.47304 0
M  V30 23947 C 2242.4 -3.01133 -7.08783 0
M  V30 23948 C 2241.67 -4.12613 -6.37049 0
M  V30 23949 O 2241.46 -3.72827 -4.97879 0
M  V30 23950 C 2240.27 -4.45085 -6.88694 0
M  V30 23951 O 2239.88 -5.7877 -6.5624 0
M  V30 23952 C 2239.39 -3.47817 -6.12078 0
M  V30 23953 C 2240.1 -3.39414 -4.77697 0
M  V30 23954 N 2240.05 -2.04615 -4.15333 0
M  V30 23955 H 2242.89 -3.41248 -7.98759 0
M  V30 23956 H 2243.16 -2.5837 -6.41742 0
M  V30 23957 H 2242.29 -5.02657 -6.42673 0
M  V30 23958 P 2238.33 -6.144 -6.45285 0
M  V30 23959 O 2238.11 -7.54673 -6.86199 0
M  V30 23960 O 2237.54 -5.12391 -7.179 0
M  V30 23961 O 2238.08 -5.99158 -4.88404 0
M  V30 23962 C 2239.02 -6.60062 -3.96313 0
M  V30 23963 C 2238.29 -7.08259 -2.72856 0
M  V30 23964 O 2238.08 -5.9427 -1.83651 0
M  V30 23965 C 2236.89 -7.65087 -2.94749 0
M  V30 23966 O 2236.5 -8.53963 -1.90717 0
M  V30 23967 C 2236.01 -6.41069 -2.90698 0
M  V30 23968 C 2236.72 -5.5528 -1.86931 0
M  V30 23969 N 2236.67 -4.09575 -2.15696 0
M  V30 23970 C 2236.52 -3.24249 -1.08435 0
M  V30 23971 O 2236.43 -3.63946 0.0628747 0
M  V30 23972 N 2236.48 -1.90009 -1.39973 0
M  V30 23973 C 2236.57 -1.34884 -2.65614 0
M  V30 23974 O 2236.52 -0.123716 -2.81728 0
M  V30 23975 C 2236.72 -2.3145 -3.71736 0
M  V30 23976 C 2236.83 -1.75913 -5.10438 0
M  V30 23977 C 2236.77 -3.63518 -3.44754 0
M  V30 23978 H 2239.51 -7.45402 -4.45526 0
M  V30 23979 H 2239.78 -5.86062 -3.67208 0
M  V30 23980 H 2238.91 -7.84412 -2.24479 0
M  V30 23981 H 2236.25 -5.73358 -0.888409 0
M  V30 23982 H 2235.98 -5.90877 -3.88583 0
M  V30 23983 H 2234.98 -6.65867 -2.58821 0
M  V30 23984 H 2236.82 -8.16248 -3.92006 0
M  V30 23985 H 2236.89 -4.34551 -4.26383 0
M  V30 23986 H 2235.86 -1.85471 -5.61775 0
M  V30 23987 H 2237.6 -2.31364 -5.66257 0
M  V30 23988 H 2237.11 -0.695936 -5.05229 0
M  V30 23989 H 2236.37 -1.26277 -0.63625 0
M  V30 23990 P 2234.95 -8.7635 -1.60911 0
M  V30 23991 O 2234.73 -10.1388 -1.11561 0
M  V30 23992 O 2234.16 -8.36503 -2.79617 0
M  V30 23993 O 2234.7 -7.71806 -0.42951 0
M  V30 23994 C 2235.64 -7.67148 0.673689 0
M  V30 23995 C 2234.91 -7.33374 1.95559 0
M  V30 23996 O 2234.7 -5.88721 2.00726 0
M  V30 23997 C 2233.51 -7.92526 2.10483 0
M  V30 23998 O 2233.12 -8.02971 3.47653 0
M  V30 23999 C 2232.63 -6.89602 1.41652 0
M  V30 24000 C 2233.34 -5.59201 1.75185 0
M  V30 24001 N 2233.29 -4.58235 0.662552 0
M  V30 24002 H 2236.13 -8.65116 0.777161 0
M  V30 24003 H 2236.4 -6.90173 0.474152 0
M  V30 24004 H 2235.53 -7.66548 2.79458 0
M  V30 24005 P 2231.57 -8.03563 3.84925 0
M  V30 24006 O 2231.35 -8.85821 5.0569 0
M  V30 24007 O 2230.78 -8.41101 2.65469 0
M  V30 24008 O 2231.32 -6.4965 4.18908 0
M  V30 24009 C 2232.26 -5.81037 5.05421 0
M  V30 24010 C 2231.53 -4.78366 5.89277 0
M  V30 24011 O 2231.32 -3.58302 5.08433 0
M  V30 24012 C 2230.13 -5.17448 6.36119 0
M  V30 24013 O 2229.74 -4.45271 7.53232 0
M  V30 24014 C 2229.25 -4.74639 5.19936 0
M  V30 24015 C 2229.96 -3.49432 4.70418 0
M  V30 24016 N 2229.91 -3.31776 3.22945 0
M  V30 24017 H 2232.75 -6.54213 5.71376 0
M  V30 24018 H 2233.02 -5.30492 4.44033 0
M  V30 24019 H 2232.15 -4.55889 6.76652 0
M  V30 24020 P 2228.19 -4.23843 7.83734 0
M  V30 24021 O 2227.97 -4.19407 9.29784 0
M  V30 24022 O 2227.4 -5.24426 7.09156 0
M  V30 24023 O 2227.94 -2.7935 7.20758 0
M  V30 24024 C 2228.88 -1.7299 7.50419 0
M  V30 24025 C 2228.15 -0.406376 7.57911 0
M  V30 24026 O 2227.94 0.0897726 6.21935 0
M  V30 24027 C 2226.75 -0.447224 8.1878 0
M  V30 24028 O 2226.36 0.825065 8.71101 0
M  V30 24029 C 2225.87 -0.783801 6.99623 0
M  V30 24030 C 2226.58 -0.0619192 5.85967 0
M  V30 24031 N 2226.53 -0.7859 4.56281 0
M  V30 24032 C 2226.61 -2.14308 4.31736 0
M  V30 24033 N 2226.53 -2.46106 3.05116 0
M  V30 24034 C 2226.39 -1.23422 2.4014 0
M  V30 24035 C 2226.26 -0.938381 1.02409 0
M  V30 24036 N 2226.14 0.444647 0.805413 0
M  V30 24037 C 2226.14 1.40829 1.79435 0
M  V30 24038 N 2226.01 2.67213 1.38558 0
M  V30 24039 N 2226.27 1.12947 3.09005 0
M  V30 24040 C 2226.39 -0.204887 3.32369 0
M  V30 24041 H 2229.37 -1.93423 8.4679 0
M  V30 24042 H 2229.64 -1.68181 6.71046 0
M  V30 24043 H 2228.77 0.289041 8.15388 0
M  V30 24044 P 2224.81 1.17771 8.83182 0
M  V30 24045 O 2224.59 2.07206 9.98732 0
M  V30 24046 O 2224.02 -0.0743816 8.81969 0
M  V30 24047 O 2224.56 1.97652 7.47304 0
M  V30 24048 C 2225.5 3.01133 7.08783 0
M  V30 24049 C 2224.77 4.12613 6.37049 0
M  V30 24050 O 2224.56 3.72827 4.97879 0
M  V30 24051 C 2223.37 4.45085 6.88694 0
M  V30 24052 O 2222.98 5.7877 6.5624 0
M  V30 24053 C 2222.49 3.47817 6.12078 0
M  V30 24054 C 2223.2 3.39414 4.77697 0
M  V30 24055 N 2223.15 2.04199 4.15538 0
M  V30 24056 H 2225.99 3.41248 7.98759 0
M  V30 24057 H 2226.26 2.57728 6.42 0
M  V30 24058 H 2225.39 5.02657 6.42673 0
M  V30 24059 H 2222.73 4.11708 4.08956 0
M  V30 24060 H 2222.45 2.49626 6.61679 0
M  V30 24061 H 2221.46 3.8662 6.00862 0
M  V30 24062 H 2223.3 4.29991 7.97006 0
M  V30 24063 P 2221.43 6.144 6.45285 0
M  V30 24064 O 2221.21 7.54673 6.86199 0
M  V30 24065 O 2220.64 5.12391 7.179 0
M  V30 24066 O 2221.18 5.99158 4.88404 0
M  V30 24067 C 2222.12 6.60234 3.96415 0
M  V30 24068 C 2221.39 7.08259 2.72856 0
M  V30 24069 O 2221.18 5.9427 1.83651 0
M  V30 24070 C 2219.99 7.64886 2.9555 0
M  V30 24071 O 2219.6 8.53963 1.90717 0
M  V30 24072 C 2219.11 6.4116 2.90739 0
M  V30 24073 C 2219.82 5.55375 1.86963 0
M  V30 24074 N 2219.77 4.09448 2.16152 0
M  V30 24075 C 2219.85 3.46824 3.37593 0
M  V30 24076 N 2219.78 2.17422 3.29777 0
M  V30 24077 C 2219.63 1.93065 1.94427 0
M  V30 24078 C 2219.5 0.738053 1.20141 0
M  V30 24079 N 2219.49 -0.474256 1.74676 0
M  V30 24080 N 2219.38 0.850049 -0.13045 0
M  V30 24081 C 2219.39 2.06169 -0.676992 0
M  V30 24082 N 2219.51 3.23842 -0.101312 0
M  V30 24083 C 2219.63 3.09402 1.23122 0
M  V30 24084 H 2222.61 7.45574 4.45629 0
M  V30 24085 H 2222.88 5.85864 3.679 0
M  V30 24086 H 2222.01 7.84412 2.24479 0
M  V30 24087 H 2219.35 5.73457 0.888562 0
M  V30 24088 H 2219.07 5.90877 3.88583 0
M  V30 24089 H 2218.08 6.6596 2.58858 0
M  V30 24090 H 2219.92 8.16339 3.92049 0
M  V30 24091 H 2219.96 4.00505 4.3174 0
M  V30 24092 H 2219.58 -0.581337 2.76658 0
M  V30 24093 H 2219.39 -1.30811 1.14888 0
M  V30 24094 H 2219.28 2.08295 -1.75542 0
M  V30 24095 P 2218.05 8.7635 1.60911 0
M  V30 24096 O 2217.83 10.1388 1.11561 0
M  V30 24097 O 2217.26 8.36503 2.79617 0
M  V30 24098 O 2217.8 7.71806 0.42951 0
M  V30 24099 C 2218.74 7.67148 -0.673689 0
M  V30 24100 C 2218.01 7.33374 -1.95559 0
M  V30 24101 O 2217.8 5.88721 -2.00726 0
M  V30 24102 C 2216.61 7.92526 -2.10483 0
M  V30 24103 O 2216.22 8.02971 -3.47653 0
M  V30 24104 C 2215.73 6.89602 -1.41652 0
M  V30 24105 C 2216.44 5.59201 -1.75185 0
M  V30 24106 N 2216.39 4.58235 -0.662552 0
M  V30 24107 H 2219.23 8.65116 -0.777161 0
M  V30 24108 H 2219.5 6.90173 -0.474152 0
M  V30 24109 H 2218.63 7.66548 -2.79458 0
M  V30 24110 P 2214.67 8.03563 -3.84925 0
M  V30 24111 O 2214.45 8.85821 -5.0569 0
M  V30 24112 O 2213.88 8.41101 -2.65469 0
M  V30 24113 O 2214.42 6.4965 -4.18908 0
M  V30 24114 C 2215.36 5.81037 -5.05421 0
M  V30 24115 C 2214.63 4.78366 -5.89277 0
M  V30 24116 O 2214.42 3.58302 -5.08433 0
M  V30 24117 C 2213.23 5.17448 -6.36119 0
M  V30 24118 O 2212.84 4.45271 -7.53232 0
M  V30 24119 C 2212.35 4.74639 -5.19936 0
M  V30 24120 C 2213.06 3.49432 -4.70418 0
M  V30 24121 N 2213.01 3.31776 -3.22945 0
M  V30 24122 H 2215.85 6.54213 -5.71376 0
M  V30 24123 H 2216.12 5.30492 -4.44033 0
M  V30 24124 H 2215.25 4.55889 -6.76652 0
M  V30 24125 P 2211.29 4.23843 -7.83734 0
M  V30 24126 O 2211.07 4.19407 -9.29784 0
M  V30 24127 O 2210.5 5.24426 -7.09156 0
M  V30 24128 O 2211.04 2.7935 -7.20758 0
M  V30 24129 C 2211.98 1.72945 -7.50224 0
M  V30 24130 C 2211.25 0.406376 -7.57911 0
M  V30 24131 O 2211.04 -0.0897726 -6.21935 0
M  V30 24132 C 2209.85 0.438983 -8.18724 0
M  V30 24133 O 2209.46 -0.825065 -8.71101 0
M  V30 24134 C 2208.97 0.783689 -6.99524 0
M  V30 24135 C 2209.68 0.0619086 -5.85867 0
M  V30 24136 N 2209.63 0.78573 -4.56183 0
M  V30 24137 C 2209.48 0.0292889 -3.41887 0
M  V30 24138 O 2209.39 -1.18445 -3.4419 0
M  V30 24139 N 2209.44 0.744061 -2.23964 0
M  V30 24140 C 2209.53 2.10932 -2.10362 0
M  V30 24141 C 2209.68 2.8202 -3.34994 0
M  V30 24142 C 2209.73 2.15547 -4.52261 0
M  V30 24143 H 2212.47 1.93379 -8.46595 0
M  V30 24144 H 2212.74 1.68132 -6.70852 0
M  V30 24145 H 2211.87 -0.289041 -8.15388 0
M  V30 24146 H 2209.21 -0.926847 -5.72749 0
M  V30 24147 H 2208.94 1.86973 -6.82036 0
M  V30 24148 H 2207.94 0.403896 -7.13257 0
M  V30 24149 H 2209.78 1.20585 -8.97435 0
M  V30 24150 H 2209.85 2.71231 -5.45042 0
M  V30 24151 P 2207.91 -1.17771 -8.83182 0
M  V30 24152 O 2207.69 -2.07206 -9.98732 0
M  V30 24153 O 2207.12 0.0743816 -8.81969 0
M  V30 24154 O 2207.66 -1.97678 -7.474 0
M  V30 24155 C 2208.6 -3.01133 -7.08783 0
M  V30 24156 C 2207.87 -4.1203 -6.37546 0
M  V30 24157 O 2207.66 -3.72887 -4.9796 0
M  V30 24158 C 2206.47 -4.45085 -6.88694 0
M  V30 24159 O 2206.08 -5.78836 -6.56315 0
M  V30 24160 C 2205.59 -3.47817 -6.12078 0
M  V30 24161 C 2206.3 -3.39414 -4.77697 0
M  V30 24162 N 2206.25 -2.04615 -4.15333 0
M  V30 24163 C 2206.1 -1.96929 -2.77162 0
M  V30 24164 O 2206.01 -3.02017 -2.12006 0
M  V30 24165 N 2206.05 -0.55485 -2.24237 0
M  V30 24166 C 2206.15 0.367808 -2.9169 0
M  V30 24167 N 2206.1 1.53426 -2.29427 0
M  V30 24168 C 2206.3 0.319148 -4.33828 0
M  V30 24169 C 2206.35 -0.920672 -4.90433 0
M  V30 24170 H 2209.09 -3.41209 -7.98667 0
M  V30 24171 H 2209.36 -2.5837 -6.41742 0
M  V30 24172 H 2208.49 -5.02718 -6.42752 0
M  V30 24173 H 2205.83 -4.11779 -4.09026 0
M  V30 24174 H 2205.55 -2.49661 -6.61772 0
M  V30 24175 H 2204.56 -3.86674 -6.00946 0
M  V30 24176 H 2206.4 -4.29991 -7.97006 0
M  V30 24177 H 2206.47 -1.00589 -5.98303 0
M  V30 24178 H 2206.37 1.22639 -4.93799 0
M  V30 24179 H 2205.98 1.56819 -1.27167 0
M  V30 24180 H 2206.18 2.41062 -2.83063 0
M  V30 24181 P 2204.53 -6.144 -6.45285 0
M  V30 24182 O 2204.31 -7.54673 -6.86199 0
M  V30 24183 O 2203.74 -5.12391 -7.179 0
M  V30 24184 O 2204.28 -5.99158 -4.88404 0
M  V30 24185 C 2205.22 -6.60234 -3.96415 0
M  V30 24186 C 2204.49 -7.08259 -2.72856 0
M  V30 24187 O 2204.28 -5.9427 -1.83651 0
M  V30 24188 C 2203.09 -7.64886 -2.9555 0
M  V30 24189 O 2202.7 -8.53963 -1.90717 0
M  V30 24190 C 2202.21 -6.4116 -2.90739 0
M  V30 24191 C 2202.92 -5.55375 -1.86963 0
M  V30 24192 N 2202.87 -4.09448 -2.16152 0
M  V30 24193 C 2202.95 -3.46824 -3.37593 0
M  V30 24194 N 2202.88 -2.17422 -3.29777 0
M  V30 24195 C 2202.73 -1.93065 -1.94427 0
M  V30 24196 C 2202.6 -0.738053 -1.20141 0
M  V30 24197 N 2202.59 0.474256 -1.74676 0
M  V30 24198 N 2202.48 -0.850049 0.13045 0
M  V30 24199 C 2202.49 -2.06169 0.676992 0
M  V30 24200 N 2202.61 -3.23842 0.101312 0
M  V30 24201 C 2202.73 -3.09402 -1.23122 0
M  V30 24202 H 2205.71 -7.45574 -4.45629 0
M  V30 24203 H 2205.98 -5.85864 -3.679 0
M  V30 24204 H 2205.11 -7.84412 -2.24479 0
M  V30 24205 H 2202.45 -5.73457 -0.888562 0
M  V30 24206 H 2202.17 -5.90877 -3.88583 0
M  V30 24207 H 2201.18 -6.6596 -2.58858 0
M  V30 24208 H 2203.02 -8.16339 -3.92049 0
M  V30 24209 H 2203.06 -4.00505 -4.3174 0
M  V30 24210 H 2202.68 0.581337 -2.76658 0
M  V30 24211 H 2202.49 1.30811 -1.14888 0
M  V30 24212 H 2202.38 -2.08295 1.75542 0
M  V30 24213 P 2201.15 -8.7635 -1.60911 0
M  V30 24214 O 2200.93 -10.1388 -1.11561 0
M  V30 24215 O 2200.36 -8.36503 -2.79617 0
M  V30 24216 O 2200.9 -7.71806 -0.42951 0
M  V30 24217 C 2201.84 -7.67148 0.673689 0
M  V30 24218 C 2201.11 -7.33374 1.95559 0
M  V30 24219 O 2200.9 -5.88721 2.00726 0
M  V30 24220 C 2199.71 -7.92526 2.10483 0
M  V30 24221 O 2199.32 -8.02971 3.47653 0
M  V30 24222 C 2198.83 -6.89602 1.41652 0
M  V30 24223 C 2199.54 -5.59201 1.75185 0
M  V30 24224 N 2199.49 -4.58301 0.657969 0
M  V30 24225 H 2202.33 -8.65116 0.777161 0
M  V30 24226 H 2202.6 -6.9022 0.46725 0
M  V30 24227 H 2201.73 -7.66548 2.79458 0
M  V30 24228 H 2199.07 -5.16165 2.65183 0
M  V30 24229 H 2198.79 -7.06433 0.329384 0
M  V30 24230 H 2197.8 -6.90926 1.82021 0
M  V30 24231 H 2199.64 -8.90873 1.62657 0
M  V30 24232 P 2197.77 -8.03563 3.84925 0
M  V30 24233 O 2197.55 -8.85821 5.0569 0
M  V30 24234 O 2196.98 -8.41101 2.65469 0
M  V30 24235 O 2197.52 -6.4965 4.18908 0
M  V30 24236 C 2198.46 -5.81037 5.05421 0
M  V30 24237 C 2197.73 -4.78366 5.89277 0
M  V30 24238 O 2197.52 -3.58302 5.08433 0
M  V30 24239 C 2196.33 -5.17448 6.36119 0
M  V30 24240 O 2195.94 -4.45271 7.53232 0
M  V30 24241 C 2195.45 -4.74639 5.19936 0
M  V30 24242 C 2196.16 -3.49432 4.70418 0
M  V30 24243 N 2196.11 -3.31776 3.22945 0
M  V30 24244 H 2198.95 -6.54213 5.71376 0
M  V30 24245 H 2199.22 -5.30492 4.44033 0
M  V30 24246 H 2198.35 -4.55889 6.76652 0
M  V30 24247 P 2194.39 -4.23843 7.83734 0
M  V30 24248 O 2194.17 -4.19407 9.29784 0
M  V30 24249 O 2193.6 -5.24426 7.09156 0
M  V30 24250 O 2194.14 -2.7935 7.20758 0
M  V30 24251 C 2195.08 -1.7299 7.50419 0
M  V30 24252 C 2194.35 -0.406376 7.57911 0
M  V30 24253 O 2194.14 0.0897726 6.21935 0
M  V30 24254 C 2192.95 -0.447224 8.1878 0
M  V30 24255 O 2192.56 0.825065 8.71101 0
M  V30 24256 C 2192.07 -0.783801 6.99623 0
M  V30 24257 C 2192.78 -0.0619192 5.85967 0
M  V30 24258 N 2192.73 -0.7859 4.56281 0
M  V30 24259 H 2195.57 -1.93423 8.4679 0
M  V30 24260 H 2195.84 -1.68181 6.71046 0
M  V30 24261 H 2194.97 0.289041 8.15388 0
M  V30 24262 P 2191.01 1.17771 8.83182 0
M  V30 24263 O 2190.79 2.07206 9.98732 0
M  V30 24264 O 2190.22 -0.0743816 8.81969 0
M  V30 24265 O 2190.76 1.97652 7.47304 0
M  V30 24266 C 2191.7 3.01133 7.08783 0
M  V30 24267 C 2190.97 4.12613 6.37049 0
M  V30 24268 O 2190.76 3.72827 4.97879 0
M  V30 24269 C 2189.57 4.45085 6.88694 0
M  V30 24270 O 2189.18 5.7877 6.5624 0
M  V30 24271 C 2188.69 3.47817 6.12078 0
M  V30 24272 C 2189.4 3.39414 4.77697 0
M  V30 24273 N 2189.35 2.04615 4.15333 0
M  V30 24274 H 2192.19 3.41248 7.98759 0
M  V30 24275 H 2192.46 2.5837 6.41742 0
M  V30 24276 H 2191.59 5.02657 6.42673 0
M  V30 24277 P 2187.63 6.144 6.45285 0
M  V30 24278 O 2187.41 7.54673 6.86199 0
M  V30 24279 O 2186.84 5.12391 7.179 0
M  V30 24280 O 2187.38 5.99158 4.88404 0
M  V30 24281 C 2188.32 6.60234 3.96415 0
M  V30 24282 C 2187.59 7.08259 2.72856 0
M  V30 24283 O 2187.38 5.9427 1.83651 0
M  V30 24284 C 2186.19 7.64886 2.9555 0
M  V30 24285 O 2185.8 8.53963 1.90717 0
M  V30 24286 C 2185.31 6.4116 2.90739 0
M  V30 24287 C 2186.02 5.55375 1.86963 0
M  V30 24288 N 2185.97 4.09664 2.15742 0
M  V30 24289 H 2188.81 7.45574 4.45629 0
M  V30 24290 H 2189.08 5.86232 3.67314 0
M  V30 24291 H 2188.21 7.84412 2.24479 0
M  V30 24292 P 2184.25 8.7635 1.60911 0
M  V30 24293 O 2184.03 10.1388 1.11561 0
M  V30 24294 O 2183.46 8.36503 2.79617 0
M  V30 24295 O 2184 7.71806 0.42951 0
M  V30 24296 C 2184.94 7.67148 -0.673689 0
M  V30 24297 C 2184.21 7.33374 -1.95559 0
M  V30 24298 O 2184 5.88721 -2.00726 0
M  V30 24299 C 2182.81 7.92526 -2.10483 0
M  V30 24300 O 2182.42 8.02971 -3.47653 0
M  V30 24301 C 2181.93 6.89602 -1.41652 0
M  V30 24302 C 2182.64 5.59201 -1.75185 0
M  V30 24303 N 2182.59 4.58235 -0.662552 0
M  V30 24304 H 2185.43 8.65116 -0.777161 0
M  V30 24305 H 2185.7 6.90173 -0.474152 0
M  V30 24306 H 2184.83 7.66548 -2.79458 0
M  V30 24307 P 2180.87 8.03563 -3.84925 0
M  V30 24308 O 2180.65 8.85821 -5.0569 0
M  V30 24309 O 2180.08 8.41101 -2.65469 0
M  V30 24310 O 2180.62 6.4965 -4.18908 0
M  V30 24311 C 2181.56 5.81037 -5.05421 0
M  V30 24312 C 2180.83 4.78366 -5.89277 0
M  V30 24313 O 2180.62 3.58302 -5.08433 0
M  V30 24314 C 2179.43 5.17448 -6.36119 0
M  V30 24315 O 2179.04 4.45271 -7.53232 0
M  V30 24316 C 2178.55 4.74639 -5.19936 0
M  V30 24317 C 2179.26 3.49432 -4.70418 0
M  V30 24318 N 2179.21 3.31776 -3.22945 0
M  V30 24319 H 2182.05 6.54213 -5.71376 0
M  V30 24320 H 2182.32 5.30492 -4.44033 0
M  V30 24321 H 2181.45 4.55889 -6.76652 0
M  V30 24322 P 2177.49 4.23843 -7.83734 0
M  V30 24323 O 2177.27 4.19407 -9.29784 0
M  V30 24324 O 2176.7 5.24426 -7.09156 0
M  V30 24325 O 2177.24 2.7935 -7.20758 0
M  V30 24326 C 2178.18 1.7299 -7.50419 0
M  V30 24327 C 2177.45 0.406376 -7.57911 0
M  V30 24328 O 2177.24 -0.0897726 -6.21935 0
M  V30 24329 C 2176.05 0.447224 -8.1878 0
M  V30 24330 O 2175.66 -0.825065 -8.71101 0
M  V30 24331 C 2175.17 0.783801 -6.99623 0
M  V30 24332 C 2175.88 0.0619192 -5.85967 0
M  V30 24333 N 2175.83 0.7859 -4.56281 0
M  V30 24334 H 2178.67 1.93423 -8.4679 0
M  V30 24335 H 2178.94 1.68181 -6.71046 0
M  V30 24336 H 2178.07 -0.289041 -8.15388 0
M  V30 24337 P 2174.11 -1.17771 -8.83182 0
M  V30 24338 O 2173.89 -2.07206 -9.98732 0
M  V30 24339 O 2173.32 0.0743816 -8.81969 0
M  V30 24340 O 2173.86 -1.97652 -7.47304 0
M  V30 24341 C 2174.8 -3.01133 -7.08783 0
M  V30 24342 C 2174.07 -4.12613 -6.37049 0
M  V30 24343 O 2173.86 -3.72827 -4.97879 0
M  V30 24344 C 2172.67 -4.45085 -6.88694 0
M  V30 24345 O 2172.28 -5.7877 -6.5624 0
M  V30 24346 C 2171.79 -3.47817 -6.12078 0
M  V30 24347 C 2172.5 -3.39414 -4.77697 0
M  V30 24348 N 2172.45 -2.04199 -4.15538 0
M  V30 24349 H 2175.29 -3.41248 -7.98759 0
M  V30 24350 H 2175.56 -2.57728 -6.42 0
M  V30 24351 H 2174.69 -5.02657 -6.42673 0
M  V30 24352 H 2172.04 -4.11708 -4.08956 0
M  V30 24353 H 2171.76 -2.49626 -6.61679 0
M  V30 24354 H 2170.76 -3.8662 -6.00862 0
M  V30 24355 H 2172.6 -4.29991 -7.97006 0
M  V30 24356 P 2170.73 -6.144 -6.45285 0
M  V30 24357 O 2170.51 -7.54673 -6.86199 0
M  V30 24358 O 2169.94 -5.12391 -7.179 0
M  V30 24359 O 2170.48 -5.99158 -4.88404 0
M  V30 24360 C 2171.42 -6.60234 -3.96415 0
M  V30 24361 C 2170.69 -7.08259 -2.72856 0
M  V30 24362 O 2170.48 -5.9427 -1.83651 0
M  V30 24363 C 2169.29 -7.64886 -2.9555 0
M  V30 24364 O 2168.9 -8.53963 -1.90717 0
M  V30 24365 C 2168.41 -6.4116 -2.90739 0
M  V30 24366 C 2169.12 -5.55375 -1.86963 0
M  V30 24367 N 2169.07 -4.09448 -2.16152 0
M  V30 24368 H 2171.91 -7.45574 -4.45629 0
M  V30 24369 H 2172.18 -5.85864 -3.679 0
M  V30 24370 H 2171.31 -7.84412 -2.24479 0
M  V30 24371 H 2168.66 -5.73457 -0.888562 0
M  V30 24372 H 2168.38 -5.90877 -3.88583 0
M  V30 24373 H 2167.38 -6.6596 -2.58858 0
M  V30 24374 H 2169.22 -8.16339 -3.92049 0
M  V30 24375 P 2167.35 -8.7635 -1.60911 0
M  V30 24376 O 2167.13 -10.1388 -1.11561 0
M  V30 24377 O 2166.56 -8.36503 -2.79617 0
M  V30 24378 O 2167.1 -7.71806 -0.42951 0
M  V30 24379 C 2168.04 -7.67148 0.673689 0
M  V30 24380 C 2167.31 -7.33374 1.95559 0
M  V30 24381 O 2167.1 -5.88721 2.00726 0
M  V30 24382 C 2165.91 -7.92526 2.10483 0
M  V30 24383 O 2165.52 -8.02971 3.47653 0
M  V30 24384 C 2165.03 -6.89602 1.41652 0
M  V30 24385 C 2165.74 -5.59201 1.75185 0
M  V30 24386 N 2165.69 -4.58301 0.657969 0
M  V30 24387 C 2165.77 -4.79019 -0.692603 0
M  V30 24388 N 2165.7 -3.69736 -1.38998 0
M  V30 24389 C 2165.55 -2.70474 -0.438135 0
M  V30 24390 C 2165.42 -1.30327 -0.538142 0
M  V30 24391 N 2165.41 -0.64304 -1.69192 0
M  V30 24392 N 2165.3 -0.611027 0.605183 0
M  V30 24393 C 2165.31 -1.27002 1.75953 0
M  V30 24394 N 2165.43 -2.56038 1.98546 0
M  V30 24395 C 2165.55 -3.22681 0.822541 0
M  V30 24396 H 2168.53 -8.65116 0.777161 0
M  V30 24397 H 2168.8 -6.9022 0.46725 0
M  V30 24398 H 2167.93 -7.66548 2.79458 0
M  V30 24399 H 2165.28 -5.16165 2.65183 0
M  V30 24400 H 2165 -7.06433 0.329384 0
M  V30 24401 H 2164 -6.90926 1.82021 0
M  V30 24402 H 2165.84 -8.90873 1.62657 0
M  V30 24403 H 2165.88 -5.77785 -1.13874 0
M  V30 24404 H 2165.5 -1.15585 -2.57991 0
M  V30 24405 H 2165.31 0.382989 -1.69835 0
M  V30 24406 H 2165.2 -0.653331 2.64449 0
M  V30 24407 P 2163.97 -8.03563 3.84925 0
M  V30 24408 O 2163.75 -8.85821 5.0569 0
M  V30 24409 O 2163.18 -8.41101 2.65469 0
M  V30 24410 O 2163.72 -6.4965 4.18908 0
M  V30 24411 C 2164.66 -5.81037 5.05421 0
M  V30 24412 C 2163.93 -4.78366 5.89277 0
M  V30 24413 O 2163.72 -3.58302 5.08433 0
M  V30 24414 C 2162.53 -5.17448 6.36119 0
M  V30 24415 O 2162.14 -4.45271 7.53232 0
M  V30 24416 C 2161.65 -4.74639 5.19936 0
M  V30 24417 C 2162.36 -3.49432 4.70418 0
M  V30 24418 N 2162.31 -3.31776 3.22945 0
M  V30 24419 C 2162.39 -4.27147 2.23315 0
M  V30 24420 N 2162.31 -3.78447 1.02186 0
M  V30 24421 C 2162.17 -2.41001 1.21732 0
M  V30 24422 C 2162.04 -1.36111 0.27694 0
M  V30 24423 N 2161.92 -0.113683 0.912949 0
M  V30 24424 C 2161.92 0.0846396 2.27943 0
M  V30 24425 N 2161.79 1.34737 2.6916 0
M  V30 24426 N 2162.05 -0.902521 3.16379 0
M  V30 24427 C 2162.17 -2.11937 2.56849 0
M  V30 24428 H 2165.15 -6.54213 5.71376 0
M  V30 24429 H 2165.42 -5.30492 4.44033 0
M  V30 24430 H 2164.55 -4.55889 6.76652 0
M  V30 24431 P 2160.59 -4.23843 7.83734 0
M  V30 24432 O 2160.37 -4.19407 9.29784 0
M  V30 24433 O 2159.8 -5.24426 7.09156 0
M  V30 24434 O 2160.34 -2.7935 7.20758 0
M  V30 24435 C 2161.28 -1.7299 7.50419 0
M  V30 24436 C 2160.55 -0.406376 7.57911 0
M  V30 24437 O 2160.34 0.0897726 6.21935 0
M  V30 24438 C 2159.15 -0.447224 8.1878 0
M  V30 24439 O 2158.76 0.825065 8.71101 0
M  V30 24440 C 2158.27 -0.783801 6.99623 0
M  V30 24441 C 2158.98 -0.0619192 5.85967 0
M  V30 24442 N 2158.93 -0.790462 4.56202 0
M  V30 24443 C 2159.01 -2.13895 4.34171 0
M  V30 24444 N 2158.94 -2.46449 3.08687 0
M  V30 24445 C 2158.79 -1.2525 2.43697 0
M  V30 24446 C 2158.66 -0.914535 1.07318 0
M  V30 24447 N 2158.65 -1.80782 0.0887348 0
M  V30 24448 N 2158.54 0.386745 0.768133 0
M  V30 24449 C 2158.55 1.28096 1.75159 0
M  V30 24450 N 2158.67 1.09708 3.04861 0
M  V30 24451 C 2158.79 -0.214857 3.32306 0
M  V30 24452 H 2161.77 -1.93423 8.4679 0
M  V30 24453 H 2162.04 -1.68852 6.70877 0
M  V30 24454 H 2161.17 0.289041 8.15388 0
M  V30 24455 H 2158.52 0.927006 5.72848 0
M  V30 24456 H 2158.24 -1.86973 6.82036 0
M  V30 24457 H 2157.24 -0.403953 7.13357 0
M  V30 24458 H 2159.08 -1.20599 8.97534 0
M  V30 24459 H 2159.12 -2.86846 5.14318 0
M  V30 24460 H 2158.74 -2.81082 0.302037 0
M  V30 24461 H 2158.55 -1.49688 -0.889064 0
M  V30 24462 H 2158.44 2.31317 1.43855 0
M  V30 24463 P 2157.21 1.17771 8.83182 0
M  V30 24464 O 2156.99 2.07206 9.98732 0
M  V30 24465 O 2156.42 -0.0743816 8.81969 0
M  V30 24466 O 2156.96 1.97652 7.47304 0
M  V30 24467 C 2157.9 3.01133 7.08783 0
M  V30 24468 C 2157.17 4.12613 6.37049 0
M  V30 24469 O 2156.96 3.72827 4.97879 0
M  V30 24470 C 2155.77 4.45085 6.88694 0
M  V30 24471 O 2155.38 5.7877 6.5624 0
M  V30 24472 C 2154.89 3.47817 6.12078 0
M  V30 24473 C 2155.6 3.39414 4.77697 0
M  V30 24474 N 2155.55 2.04199 4.15538 0
M  V30 24475 H 2158.39 3.41248 7.98759 0
M  V30 24476 H 2158.66 2.57728 6.42 0
M  V30 24477 H 2157.79 5.02657 6.42673 0
M  V30 24478 H 2155.14 4.11708 4.08956 0
M  V30 24479 H 2154.86 2.49626 6.61679 0
M  V30 24480 H 2153.86 3.8662 6.00862 0
M  V30 24481 H 2155.7 4.29991 7.97006 0
M  V30 24482 P 2153.83 6.144 6.45285 0
M  V30 24483 O 2153.61 7.54673 6.86199 0
M  V30 24484 O 2153.04 5.12391 7.179 0
M  V30 24485 O 2153.58 5.99158 4.88404 0
M  V30 24486 C 2154.52 6.60234 3.96415 0
M  V30 24487 C 2153.79 7.08259 2.72856 0
M  V30 24488 O 2153.58 5.9427 1.83651 0
M  V30 24489 C 2152.39 7.64886 2.9555 0
M  V30 24490 O 2152 8.53963 1.90717 0
M  V30 24491 C 2151.51 6.4116 2.90739 0
M  V30 24492 C 2152.22 5.55375 1.86963 0
M  V30 24493 N 2152.17 4.09448 2.16152 0
M  V30 24494 H 2155.01 7.45574 4.45629 0
M  V30 24495 H 2155.28 5.85864 3.679 0
M  V30 24496 H 2154.41 7.84412 2.24479 0
M  V30 24497 H 2151.76 5.73457 0.888562 0
M  V30 24498 H 2151.48 5.90877 3.88583 0
M  V30 24499 H 2150.48 6.6596 2.58858 0
M  V30 24500 H 2152.32 8.16339 3.92049 0
M  V30 24501 P 2150.45 8.7635 1.60911 0
M  V30 24502 O 2150.23 10.1388 1.11561 0
M  V30 24503 O 2149.66 8.36503 2.79617 0
M  V30 24504 O 2150.2 7.71806 0.42951 0
M  V30 24505 C 2151.14 7.67148 -0.673689 0
M  V30 24506 C 2150.41 7.33374 -1.95559 0
M  V30 24507 O 2150.2 5.88721 -2.00726 0
M  V30 24508 C 2149.01 7.92526 -2.10483 0
M  V30 24509 O 2148.62 8.02971 -3.47653 0
M  V30 24510 C 2148.13 6.89602 -1.41652 0
M  V30 24511 C 2148.84 5.59201 -1.75185 0
M  V30 24512 N 2148.79 4.58235 -0.662552 0
M  V30 24513 H 2151.63 8.65116 -0.777161 0
M  V30 24514 H 2151.9 6.90173 -0.474152 0
M  V30 24515 H 2151.03 7.66548 -2.79458 0
M  V30 24516 P 2147.07 8.03563 -3.84925 0
M  V30 24517 O 2146.85 8.85821 -5.0569 0
M  V30 24518 O 2146.28 8.41101 -2.65469 0
M  V30 24519 O 2146.82 6.4965 -4.18908 0
M  V30 24520 C 2147.76 5.81037 -5.05421 0
M  V30 24521 C 2147.03 4.78366 -5.89277 0
M  V30 24522 O 2146.82 3.58302 -5.08433 0
M  V30 24523 C 2145.63 5.17448 -6.36119 0
M  V30 24524 O 2145.24 4.45271 -7.53232 0
M  V30 24525 C 2144.75 4.74639 -5.19936 0
M  V30 24526 C 2145.46 3.49432 -4.70418 0
M  V30 24527 N 2145.41 3.32099 -3.22613 0
M  V30 24528 H 2148.25 6.54213 -5.71376 0
M  V30 24529 H 2148.52 5.30936 -4.43503 0
M  V30 24530 H 2147.65 4.55889 -6.76652 0
M  V30 24531 H 2145 2.61715 -5.17932 0
M  V30 24532 H 2144.72 5.52155 -4.41878 0
M  V30 24533 H 2143.72 4.51981 -5.53374 0
M  V30 24534 H 2145.56 6.25124 -6.55234 0
M  V30 24535 P 2143.69 4.23843 -7.83734 0
M  V30 24536 O 2143.47 4.19407 -9.29784 0
M  V30 24537 O 2142.9 5.24426 -7.09156 0
M  V30 24538 O 2143.44 2.7935 -7.20758 0
M  V30 24539 C 2144.38 1.72945 -7.50224 0
M  V30 24540 C 2143.65 0.406376 -7.57911 0
M  V30 24541 O 2143.44 -0.0897726 -6.21935 0
M  V30 24542 C 2142.25 0.438983 -8.18724 0
M  V30 24543 O 2141.86 -0.825065 -8.71101 0
M  V30 24544 C 2141.37 0.783689 -6.99524 0
M  V30 24545 C 2142.08 0.0619086 -5.85867 0
M  V30 24546 N 2142.03 0.78573 -4.56183 0
M  V30 24547 C 2141.88 0.0292889 -3.41887 0
M  V30 24548 O 2141.79 -1.18445 -3.4419 0
M  V30 24549 N 2141.84 0.744061 -2.23964 0
M  V30 24550 C 2141.93 2.10932 -2.10362 0
M  V30 24551 O 2141.88 2.64117 -0.98825 0
M  V30 24552 C 2142.08 2.8202 -3.34994 0
M  V30 24553 C 2142.19 4.31095 -3.25037 0
M  V30 24554 C 2142.13 2.15547 -4.52261 0
M  V30 24555 H 2144.87 1.93379 -8.46595 0
M  V30 24556 H 2145.14 1.68132 -6.70852 0
M  V30 24557 H 2144.27 -0.289041 -8.15388 0
M  V30 24558 H 2141.62 -0.926847 -5.72749 0
M  V30 24559 H 2141.34 1.86973 -6.82036 0
M  V30 24560 H 2140.34 0.403896 -7.13257 0
M  V30 24561 H 2142.18 1.20585 -8.97435 0
M  V30 24562 H 2142.25 2.71231 -5.45042 0
M  V30 24563 H 2141.22 4.76966 -3.49992 0
M  V30 24564 H 2142.96 4.67047 -3.95024 0
M  V30 24565 H 2142.47 4.58996 -2.22312 0
M  V30 24566 H 2141.73 0.214893 -1.39758 0
M  V30 24567 P 2140.31 -1.17771 -8.83182 0
M  V30 24568 O 2140.09 -2.07206 -9.98732 0
M  V30 24569 O 2139.52 0.0743816 -8.81969 0
M  V30 24570 O 2140.06 -1.97652 -7.47304 0
M  V30 24571 C 2141 -3.01133 -7.08783 0
M  V30 24572 C 2140.27 -4.12613 -6.37049 0
M  V30 24573 O 2140.06 -3.72827 -4.97879 0
M  V30 24574 C 2138.87 -4.45085 -6.88694 0
M  V30 24575 O 2138.48 -5.7877 -6.5624 0
M  V30 24576 C 2137.99 -3.47817 -6.12078 0
M  V30 24577 C 2138.7 -3.39414 -4.77697 0
M  V30 24578 N 2138.65 -2.04615 -4.15333 0
M  V30 24579 H 2141.49 -3.41248 -7.98759 0
M  V30 24580 H 2141.76 -2.5837 -6.41742 0
M  V30 24581 H 2140.89 -5.02657 -6.42673 0
M  V30 24582 P 2136.93 -6.144 -6.45285 0
M  V30 24583 O 2136.71 -7.54673 -6.86199 0
M  V30 24584 O 2136.14 -5.12391 -7.179 0
M  V30 24585 O 2136.68 -5.99236 -4.88467 0
M  V30 24586 C 2137.62 -6.60234 -3.96415 0
M  V30 24587 C 2136.89 -7.08079 -2.736 0
M  V30 24588 O 2136.68 -5.94365 -1.8368 0
M  V30 24589 C 2135.49 -7.64886 -2.9555 0
M  V30 24590 O 2135.1 -8.5406 -1.90739 0
M  V30 24591 C 2134.61 -6.4116 -2.90739 0
M  V30 24592 C 2135.32 -5.55375 -1.86963 0
M  V30 24593 N 2135.27 -4.09664 -2.15742 0
M  V30 24594 C 2135.12 -3.22231 -1.08477 0
M  V30 24595 O 2135.03 -3.68951 0.0600489 0
M  V30 24596 N 2135.07 -1.76692 -1.48799 0
M  V30 24597 C 2135.17 -1.41695 -2.57602 0
M  V30 24598 N 2135.12 -0.107296 -2.75791 0
M  V30 24599 C 2135.32 -2.29178 -3.69733 0
M  V30 24600 C 2135.37 -3.62753 -3.42653 0
M  V30 24601 H 2138.11 -7.45488 -4.45578 0
M  V30 24602 H 2138.38 -5.86232 -3.67314 0
M  V30 24603 H 2137.51 -7.84508 -2.24507 0
M  V30 24604 H 2134.86 -5.73556 -0.888715 0
M  V30 24605 H 2134.58 -5.9096 -3.88638 0
M  V30 24606 H 2133.58 -6.66053 -2.58894 0
M  V30 24607 H 2135.42 -8.16339 -3.92049 0
M  V30 24608 H 2135.49 -4.33052 -4.24913 0
M  V30 24609 H 2135.39 -1.9103 -4.71577 0
M  V30 24610 H 2135 0.521221 -1.95056 0
M  V30 24611 H 2135.2 0.286429 -3.70695 0
M  V30 24612 P 2133.55 -8.7635 -1.60911 0
M  V30 24613 O 2133.33 -10.1388 -1.11561 0
M  V30 24614 O 2132.76 -8.36503 -2.79617 0
M  V30 24615 O 2133.3 -7.71806 -0.42951 0
M  V30 24616 C 2134.24 -7.66948 0.673514 0
M  V30 24617 C 2133.51 -7.33374 1.95559 0
M  V30 24618 O 2133.3 -5.88721 2.00726 0
M  V30 24619 C 2132.11 -7.92218 2.1125 0
M  V30 24620 O 2131.72 -8.02971 3.47653 0
M  V30 24621 C 2131.23 -6.89504 1.41631 0
M  V30 24622 C 2131.94 -5.59106 1.75155 0
M  V30 24623 N 2131.89 -4.58136 0.662409 0
M  V30 24624 C 2131.74 -3.26059 1.02863 0
M  V30 24625 O 2131.65 -2.90743 2.19009 0
M  V30 24626 N 2131.7 -2.35995 -0.0155585 0
M  V30 24627 C 2131.79 -2.65248 -1.35603 0
M  V30 24628 C 2131.94 -4.05747 -1.64698 0
M  V30 24629 C 2131.99 -4.96734 -0.652411 0
M  V30 24630 H 2134.73 -8.64917 0.776982 0
M  V30 24631 H 2135 -6.89974 0.474015 0
M  V30 24632 H 2134.13 -7.66548 2.79458 0
M  V30 24633 H 2131.48 -5.16076 2.65138 0
M  V30 24634 H 2131.2 -7.06433 0.329384 0
M  V30 24635 H 2130.2 -6.90829 1.81996 0
M  V30 24636 H 2132.04 -8.90774 1.62639 0
M  V30 24637 H 2132.11 -6.02181 -0.895285 0
M  V30 24638 P 2130.17 -8.03563 3.84925 0
M  V30 24639 O 2129.95 -8.85821 5.0569 0
M  V30 24640 O 2129.38 -8.41101 2.65469 0
M  V30 24641 O 2129.92 -6.4965 4.18908 0
M  V30 24642 C 2130.86 -5.81037 5.05421 0
M  V30 24643 C 2130.13 -4.78366 5.89277 0
M  V30 24644 O 2129.92 -3.58302 5.08433 0
M  V30 24645 C 2128.73 -5.17448 6.36119 0
M  V30 24646 O 2128.34 -4.45271 7.53232 0
M  V30 24647 C 2127.85 -4.74639 5.19936 0
M  V30 24648 C 2128.56 -3.49432 4.70418 0
M  V30 24649 N 2128.51 -3.31776 3.22945 0
M  V30 24650 C 2128.59 -4.27147 2.23315 0
M  V30 24651 N 2128.51 -3.78447 1.02186 0
M  V30 24652 C 2128.37 -2.41001 1.21732 0
M  V30 24653 C 2128.24 -1.36111 0.27694 0
M  V30 24654 N 2128.12 -0.113683 0.912949 0
M  V30 24655 C 2128.12 0.0846396 2.27943 0
M  V30 24656 N 2127.99 1.34737 2.6916 0
M  V30 24657 N 2128.25 -0.902521 3.16379 0
M  V30 24658 C 2128.37 -2.11937 2.56849 0
M  V30 24659 H 2131.35 -6.54213 5.71376 0
M  V30 24660 H 2131.62 -5.30492 4.44033 0
M  V30 24661 H 2130.75 -4.55889 6.76652 0
M  V30 24662 P 2126.79 -4.23843 7.83734 0
M  V30 24663 O 2126.57 -4.19407 9.29784 0
M  V30 24664 O 2126 -5.24426 7.09156 0
M  V30 24665 O 2126.54 -2.7935 7.20758 0
M  V30 24666 C 2127.48 -1.7299 7.50419 0
M  V30 24667 C 2126.75 -0.406376 7.57911 0
M  V30 24668 O 2126.54 0.0897726 6.21935 0
M  V30 24669 C 2125.35 -0.447224 8.1878 0
M  V30 24670 O 2124.96 0.825065 8.71101 0
M  V30 24671 C 2124.47 -0.783801 6.99623 0
M  V30 24672 C 2125.18 -0.0619192 5.85967 0
M  V30 24673 N 2125.13 -0.7859 4.56281 0
M  V30 24674 H 2127.97 -1.93423 8.4679 0
M  V30 24675 H 2128.24 -1.68181 6.71046 0
M  V30 24676 H 2127.37 0.289041 8.15388 0
M  V30 24677 P 2123.41 1.17771 8.83182 0
M  V30 24678 O 2123.19 2.07206 9.98732 0
M  V30 24679 O 2122.62 -0.0743816 8.81969 0
M  V30 24680 O 2123.16 1.97652 7.47304 0
M  V30 24681 C 2124.1 3.01133 7.08783 0
M  V30 24682 C 2123.37 4.12613 6.37049 0
M  V30 24683 O 2123.16 3.72827 4.97879 0
M  V30 24684 C 2121.97 4.45085 6.88694 0
M  V30 24685 O 2121.58 5.7877 6.5624 0
M  V30 24686 C 2121.09 3.47817 6.12078 0
M  V30 24687 C 2121.8 3.39414 4.77697 0
M  V30 24688 N 2121.75 2.04615 4.15333 0
M  V30 24689 H 2124.59 3.41248 7.98759 0
M  V30 24690 H 2124.86 2.5837 6.41742 0
M  V30 24691 H 2123.99 5.02657 6.42673 0
M  V30 24692 P 2120.03 6.144 6.45285 0
M  V30 24693 O 2119.81 7.54673 6.86199 0
M  V30 24694 O 2119.24 5.12391 7.179 0
M  V30 24695 O 2119.78 5.99158 4.88404 0
M  V30 24696 C 2120.72 6.60234 3.96415 0
M  V30 24697 C 2119.99 7.08259 2.72856 0
M  V30 24698 O 2119.78 5.9427 1.83651 0
M  V30 24699 C 2118.59 7.64886 2.9555 0
M  V30 24700 O 2118.2 8.53963 1.90717 0
M  V30 24701 C 2117.71 6.4116 2.90739 0
M  V30 24702 C 2118.42 5.55375 1.86963 0
M  V30 24703 N 2118.37 4.09664 2.15742 0
M  V30 24704 H 2121.21 7.45574 4.45629 0
M  V30 24705 H 2121.48 5.86232 3.67314 0
M  V30 24706 H 2120.61 7.84412 2.24479 0
M  V30 24707 P 2116.65 8.7635 1.60911 0
M  V30 24708 O 2116.43 10.1388 1.11561 0
M  V30 24709 O 2115.86 8.36503 2.79617 0
M  V30 24710 O 2116.4 7.71806 0.42951 0
M  V30 24711 C 2117.34 7.67148 -0.673689 0
M  V30 24712 C 2116.61 7.33374 -1.95559 0
M  V30 24713 O 2116.4 5.88721 -2.00726 0
M  V30 24714 C 2115.21 7.92526 -2.10483 0
M  V30 24715 O 2114.82 8.02971 -3.47653 0
M  V30 24716 C 2114.33 6.89602 -1.41652 0
M  V30 24717 C 2115.04 5.59201 -1.75185 0
M  V30 24718 N 2114.99 4.58235 -0.662552 0
M  V30 24719 H 2117.83 8.65116 -0.777161 0
M  V30 24720 H 2118.1 6.90173 -0.474152 0
M  V30 24721 H 2117.23 7.66548 -2.79458 0
M  V30 24722 P 2113.27 8.03563 -3.84925 0
M  V30 24723 O 2113.05 8.85821 -5.0569 0
M  V30 24724 O 2112.48 8.41101 -2.65469 0
M  V30 24725 O 2113.02 6.4965 -4.18908 0
M  V30 24726 C 2113.96 5.81037 -5.05421 0
M  V30 24727 C 2113.23 4.78366 -5.89277 0
M  V30 24728 O 2113.02 3.58302 -5.08433 0
M  V30 24729 C 2111.83 5.17448 -6.36119 0
M  V30 24730 O 2111.44 4.45271 -7.53232 0
M  V30 24731 C 2110.95 4.74639 -5.19936 0
M  V30 24732 C 2111.66 3.49432 -4.70418 0
M  V30 24733 N 2111.61 3.32099 -3.22613 0
M  V30 24734 H 2114.45 6.54213 -5.71376 0
M  V30 24735 H 2114.72 5.30936 -4.43503 0
M  V30 24736 H 2113.85 4.55889 -6.76652 0
M  V30 24737 H 2111.2 2.61715 -5.17932 0
M  V30 24738 H 2110.92 5.52155 -4.41878 0
M  V30 24739 H 2109.92 4.51981 -5.53374 0
M  V30 24740 H 2111.76 6.25124 -6.55234 0
M  V30 24741 P 2109.89 4.23843 -7.83734 0
M  V30 24742 O 2109.67 4.19407 -9.29784 0
M  V30 24743 O 2109.1 5.24426 -7.09156 0
M  V30 24744 O 2109.64 2.7935 -7.20758 0
M  V30 24745 C 2110.58 1.7299 -7.50419 0
M  V30 24746 C 2109.85 0.406376 -7.57911 0
M  V30 24747 O 2109.64 -0.0897726 -6.21935 0
M  V30 24748 C 2108.45 0.447224 -8.1878 0
M  V30 24749 O 2108.06 -0.825065 -8.71101 0
M  V30 24750 C 2107.57 0.783801 -6.99623 0
M  V30 24751 C 2108.28 0.0619192 -5.85967 0
M  V30 24752 N 2108.23 0.7859 -4.56281 0
M  V30 24753 H 2111.07 1.93423 -8.4679 0
M  V30 24754 H 2111.34 1.68181 -6.71046 0
M  V30 24755 H 2110.47 -0.289041 -8.15388 0
M  V30 24756 P 2106.51 -1.17771 -8.83182 0
M  V30 24757 O 2106.29 -2.07206 -9.98732 0
M  V30 24758 O 2105.72 0.0743816 -8.81969 0
M  V30 24759 O 2106.26 -1.97652 -7.47304 0
M  V30 24760 C 2107.2 -3.01133 -7.08783 0
M  V30 24761 C 2106.47 -4.12613 -6.37049 0
M  V30 24762 O 2106.26 -3.72827 -4.97879 0
M  V30 24763 C 2105.07 -4.45085 -6.88694 0
M  V30 24764 O 2104.68 -5.7877 -6.5624 0
M  V30 24765 C 2104.19 -3.47817 -6.12078 0
M  V30 24766 C 2104.9 -3.39414 -4.77697 0
M  V30 24767 N 2104.85 -2.04615 -4.15333 0
M  V30 24768 H 2107.69 -3.41248 -7.98759 0
M  V30 24769 H 2107.96 -2.5837 -6.41742 0
M  V30 24770 H 2107.09 -5.02657 -6.42673 0
M  V30 24771 P 2103.13 -6.144 -6.45285 0
M  V30 24772 O 2102.91 -7.54673 -6.86199 0
M  V30 24773 O 2102.34 -5.12391 -7.179 0
M  V30 24774 O 2102.88 -5.99158 -4.88404 0
M  V30 24775 C 2103.82 -6.60234 -3.96415 0
M  V30 24776 C 2103.09 -7.08259 -2.72856 0
M  V30 24777 O 2102.88 -5.9427 -1.83651 0
M  V30 24778 C 2101.69 -7.64886 -2.9555 0
M  V30 24779 O 2101.3 -8.53963 -1.90717 0
M  V30 24780 C 2100.81 -6.4116 -2.90739 0
M  V30 24781 C 2101.52 -5.55375 -1.86963 0
M  V30 24782 N 2101.47 -4.09664 -2.15742 0
M  V30 24783 H 2104.31 -7.45574 -4.45629 0
M  V30 24784 H 2104.58 -5.86232 -3.67314 0
M  V30 24785 H 2103.71 -7.84412 -2.24479 0
M  V30 24786 P 2099.75 -8.7635 -1.60911 0
M  V30 24787 O 2099.53 -10.1388 -1.11561 0
M  V30 24788 O 2098.96 -8.36503 -2.79617 0
M  V30 24789 O 2099.5 -7.71806 -0.42951 0
M  V30 24790 C 2100.44 -7.67148 0.673689 0
M  V30 24791 C 2099.71 -7.33374 1.95559 0
M  V30 24792 O 2099.5 -5.88721 2.00726 0
M  V30 24793 C 2098.31 -7.92526 2.10483 0
M  V30 24794 O 2097.92 -8.02971 3.47653 0
M  V30 24795 C 2097.43 -6.89602 1.41652 0
M  V30 24796 C 2098.14 -5.59201 1.75185 0
M  V30 24797 N 2098.09 -4.58235 0.662552 0
M  V30 24798 C 2098.17 -4.7683 -0.704049 0
M  V30 24799 N 2098.09 -3.66233 -1.39775 0
M  V30 24800 C 2097.95 -2.66526 -0.431739 0
M  V30 24801 C 2097.82 -1.26394 -0.575992 0
M  V30 24802 N 2097.7 -0.62859 0.67177 0
M  V30 24803 C 2097.7 -1.27134 1.89385 0
M  V30 24804 N 2097.57 -0.492035 2.96951 0
M  V30 24805 N 2097.83 -2.58978 2.02907 0
M  V30 24806 C 2097.95 -3.22433 0.832218 0
M  V30 24807 H 2100.93 -8.65116 0.777161 0
M  V30 24808 H 2101.2 -6.90173 0.474152 0
M  V30 24809 H 2100.33 -7.66548 2.79458 0
M  V30 24810 P 2096.37 -8.03563 3.84925 0
M  V30 24811 O 2096.15 -8.85821 5.0569 0
M  V30 24812 O 2095.58 -8.41101 2.65469 0
M  V30 24813 O 2096.12 -6.4965 4.18908 0
M  V30 24814 C 2097.06 -5.81037 5.05421 0
M  V30 24815 C 2096.33 -4.78366 5.89277 0
M  V30 24816 O 2096.12 -3.58302 5.08433 0
M  V30 24817 C 2094.93 -5.17448 6.36119 0
M  V30 24818 O 2094.54 -4.45271 7.53232 0
M  V30 24819 C 2094.05 -4.74639 5.19936 0
M  V30 24820 C 2094.76 -3.49432 4.70418 0
M  V30 24821 N 2094.71 -3.32099 3.22613 0
M  V30 24822 H 2097.55 -6.54213 5.71376 0
M  V30 24823 H 2097.82 -5.30936 4.43503 0
M  V30 24824 H 2096.95 -4.55889 6.76652 0
M  V30 24825 H 2094.3 -2.61715 5.17932 0
M  V30 24826 H 2094.02 -5.52155 4.41878 0
M  V30 24827 H 2093.02 -4.51981 5.53374 0
M  V30 24828 H 2094.86 -6.25124 6.55234 0
M  V30 24829 P 2092.99 -4.23843 7.83734 0
M  V30 24830 O 2092.77 -4.19407 9.29784 0
M  V30 24831 O 2092.2 -5.24426 7.09156 0
M  V30 24832 O 2092.74 -2.7935 7.20758 0
M  V30 24833 C 2093.68 -1.7299 7.50419 0
M  V30 24834 C 2092.95 -0.406376 7.57911 0
M  V30 24835 O 2092.74 0.0897726 6.21935 0
M  V30 24836 C 2091.55 -0.447224 8.1878 0
M  V30 24837 O 2091.16 0.825065 8.71101 0
M  V30 24838 C 2090.67 -0.783801 6.99623 0
M  V30 24839 C 2091.38 -0.0619192 5.85967 0
M  V30 24840 N 2091.33 -0.7859 4.56281 0
M  V30 24841 H 2094.17 -1.93423 8.4679 0
M  V30 24842 H 2094.44 -1.68181 6.71046 0
M  V30 24843 H 2093.57 0.289041 8.15388 0
M  V30 24844 P 2089.61 1.17771 8.83182 0
M  V30 24845 O 2089.39 2.07206 9.98732 0
M  V30 24846 O 2088.82 -0.0743816 8.81969 0
M  V30 24847 O 2089.36 1.97652 7.47304 0
M  V30 24848 C 2090.3 3.01055 7.08599 0
M  V30 24849 C 2089.57 4.12613 6.37049 0
M  V30 24850 O 2089.36 3.72827 4.97879 0
M  V30 24851 C 2088.17 4.45719 6.88164 0
M  V30 24852 O 2087.78 5.7877 6.5624 0
M  V30 24853 C 2087.29 3.47768 6.11991 0
M  V30 24854 C 2088 3.39356 4.77615 0
M  V30 24855 N 2087.95 2.04571 4.15244 0
M  V30 24856 C 2087.8 1.98587 2.78314 0
M  V30 24857 O 2087.71 2.98134 2.08835 0
M  V30 24858 N 2087.76 0.714467 2.24925 0
M  V30 24859 C 2087.85 -0.470001 2.94169 0
M  V30 24860 O 2087.8 -1.55587 2.35195 0
M  V30 24861 C 2088 -0.312541 4.36783 0
M  V30 24862 C 2088.11 -1.57711 5.16352 0
M  V30 24863 C 2088.05 0.914512 4.92583 0
M  V30 24864 H 2090.79 3.41169 7.98575 0
M  V30 24865 H 2091.06 2.58295 6.41556 0
M  V30 24866 H 2090.19 5.02657 6.42673 0
M  V30 24867 H 2087.54 4.11637 4.08885 0
M  V30 24868 H 2087.26 2.49626 6.61679 0
M  V30 24869 H 2086.26 3.86566 6.00778 0
M  V30 24870 H 2088.1 4.29943 7.96918 0
M  V30 24871 H 2088.17 1.00937 6.00374 0
M  V30 24872 H 2087.14 -1.80153 5.63503 0
M  V30 24873 H 2088.88 -1.4566 5.94104 0
M  V30 24874 H 2088.39 -2.40664 4.49645 0
M  V30 24875 H 2087.65 0.647622 1.25697 0
M  V30 24876 P 2086.23 6.144 6.45285 0
M  V30 24877 O 2086.01 7.54673 6.86199 0
M  V30 24878 O 2085.44 5.12391 7.179 0
M  V30 24879 O 2085.98 5.99158 4.88404 0
M  V30 24880 C 2086.92 6.60234 3.96415 0
M  V30 24881 C 2086.19 7.08259 2.72856 0
M  V30 24882 O 2085.98 5.9427 1.83651 0
M  V30 24883 C 2084.79 7.64886 2.9555 0
M  V30 24884 O 2084.4 8.53963 1.90717 0
M  V30 24885 C 2083.91 6.4116 2.90739 0
M  V30 24886 C 2084.62 5.55375 1.86963 0
M  V30 24887 N 2084.57 4.09664 2.15742 0
M  V30 24888 H 2087.41 7.45574 4.45629 0
M  V30 24889 H 2087.68 5.86232 3.67314 0
M  V30 24890 H 2086.81 7.84412 2.24479 0
M  V30 24891 P 2082.85 8.7635 1.60911 0
M  V30 24892 O 2082.63 10.1388 1.11561 0
M  V30 24893 O 2082.06 8.36503 2.79617 0
M  V30 24894 O 2082.6 7.71806 0.42951 0
M  V30 24895 C 2083.54 7.67148 -0.673689 0
M  V30 24896 C 2082.81 7.33374 -1.95559 0
M  V30 24897 O 2082.6 5.88721 -2.00726 0
M  V30 24898 C 2081.41 7.92526 -2.10483 0
M  V30 24899 O 2081.02 8.02971 -3.47653 0
M  V30 24900 C 2080.53 6.89602 -1.41652 0
M  V30 24901 C 2081.24 5.59201 -1.75185 0
M  V30 24902 N 2081.19 4.58235 -0.662552 0
M  V30 24903 H 2084.03 8.65116 -0.777161 0
M  V30 24904 H 2084.3 6.90173 -0.474152 0
M  V30 24905 H 2083.43 7.66548 -2.79458 0
M  V30 24906 P 2079.47 8.03563 -3.84925 0
M  V30 24907 O 2079.25 8.85821 -5.0569 0
M  V30 24908 O 2078.68 8.41101 -2.65469 0
M  V30 24909 O 2079.22 6.4965 -4.18908 0
M  V30 24910 C 2080.16 5.81037 -5.05421 0
M  V30 24911 C 2079.43 4.78366 -5.89277 0
M  V30 24912 O 2079.22 3.58302 -5.08433 0
M  V30 24913 C 2078.03 5.17448 -6.36119 0
M  V30 24914 O 2077.64 4.45271 -7.53232 0
M  V30 24915 C 2077.15 4.74639 -5.19936 0
M  V30 24916 C 2077.86 3.49432 -4.70418 0
M  V30 24917 N 2077.81 3.31776 -3.22945 0
M  V30 24918 H 2080.65 6.54213 -5.71376 0
M  V30 24919 H 2080.92 5.30492 -4.44033 0
M  V30 24920 H 2080.05 4.55889 -6.76652 0
M  V30 24921 P 2076.09 4.23843 -7.83734 0
M  V30 24922 O 2075.87 4.19407 -9.29784 0
M  V30 24923 O 2075.3 5.24426 -7.09156 0
M  V30 24924 O 2075.84 2.7935 -7.20758 0
M  V30 24925 C 2076.78 1.7299 -7.50419 0
M  V30 24926 C 2076.05 0.406376 -7.57911 0
M  V30 24927 O 2075.84 -0.0897726 -6.21935 0
M  V30 24928 C 2074.65 0.447224 -8.1878 0
M  V30 24929 O 2074.26 -0.825065 -8.71101 0
M  V30 24930 C 2073.77 0.783801 -6.99623 0
M  V30 24931 C 2074.48 0.0619192 -5.85967 0
M  V30 24932 N 2074.43 0.7859 -4.56281 0
M  V30 24933 H 2077.27 1.93423 -8.4679 0
M  V30 24934 H 2077.54 1.68181 -6.71046 0
M  V30 24935 H 2076.67 -0.289041 -8.15388 0
M  V30 24936 P 2072.71 -1.17771 -8.83182 0
M  V30 24937 O 2072.49 -2.07206 -9.98732 0
M  V30 24938 O 2071.92 0.0743816 -8.81969 0
M  V30 24939 O 2072.46 -1.97652 -7.47304 0
M  V30 24940 C 2073.4 -3.01133 -7.08783 0
M  V30 24941 C 2072.67 -4.12613 -6.37049 0
M  V30 24942 O 2072.46 -3.72827 -4.97879 0
M  V30 24943 C 2071.27 -4.45085 -6.88694 0
M  V30 24944 O 2070.88 -5.7877 -6.5624 0
M  V30 24945 C 2070.39 -3.47817 -6.12078 0
M  V30 24946 C 2071.1 -3.39414 -4.77697 0
M  V30 24947 N 2071.05 -2.04615 -4.15333 0
M  V30 24948 H 2073.89 -3.41248 -7.98759 0
M  V30 24949 H 2074.16 -2.5837 -6.41742 0
M  V30 24950 H 2073.29 -5.02657 -6.42673 0
M  V30 24951 P 2069.33 -6.144 -6.45285 0
M  V30 24952 O 2069.11 -7.54673 -6.86199 0
M  V30 24953 O 2068.54 -5.12391 -7.179 0
M  V30 24954 O 2069.08 -5.99158 -4.88404 0
M  V30 24955 C 2070.02 -6.60234 -3.96415 0
M  V30 24956 C 2069.29 -7.08259 -2.72856 0
M  V30 24957 O 2069.08 -5.9427 -1.83651 0
M  V30 24958 C 2067.89 -7.64886 -2.9555 0
M  V30 24959 O 2067.5 -8.53963 -1.90717 0
M  V30 24960 C 2067.01 -6.4116 -2.90739 0
M  V30 24961 C 2067.72 -5.55375 -1.86963 0
M  V30 24962 N 2067.67 -4.09664 -2.15742 0
M  V30 24963 H 2070.51 -7.45574 -4.45629 0
M  V30 24964 H 2070.78 -5.86232 -3.67314 0
M  V30 24965 H 2069.91 -7.84412 -2.24479 0
M  V30 24966 P 2065.95 -8.7635 -1.60911 0
M  V30 24967 O 2065.73 -10.1388 -1.11561 0
M  V30 24968 O 2065.16 -8.36503 -2.79617 0
M  V30 24969 O 2065.7 -7.71806 -0.42951 0
M  V30 24970 C 2066.64 -7.67148 0.673689 0
M  V30 24971 C 2065.91 -7.33374 1.95559 0
M  V30 24972 O 2065.7 -5.88721 2.00726 0
M  V30 24973 C 2064.51 -7.92526 2.10483 0
M  V30 24974 O 2064.12 -8.02971 3.47653 0
M  V30 24975 C 2063.63 -6.89602 1.41652 0
M  V30 24976 C 2064.34 -5.59201 1.75185 0
M  V30 24977 N 2064.29 -4.58235 0.662552 0
M  V30 24978 H 2067.13 -8.65116 0.777161 0
M  V30 24979 H 2067.4 -6.90173 0.474152 0
M  V30 24980 H 2066.53 -7.66548 2.79458 0
M  V30 24981 P 2062.57 -8.03563 3.84925 0
M  V30 24982 O 2062.35 -8.85821 5.0569 0
M  V30 24983 O 2061.78 -8.41101 2.65469 0
M  V30 24984 O 2062.32 -6.4965 4.18908 0
M  V30 24985 C 2063.26 -5.81037 5.05421 0
M  V30 24986 C 2062.53 -4.78366 5.89277 0
M  V30 24987 O 2062.32 -3.58302 5.08433 0
M  V30 24988 C 2061.13 -5.17448 6.36119 0
M  V30 24989 O 2060.74 -4.45271 7.53232 0
M  V30 24990 C 2060.25 -4.74639 5.19936 0
M  V30 24991 C 2060.96 -3.49432 4.70418 0
M  V30 24992 N 2060.91 -3.32099 3.22613 0
M  V30 24993 H 2063.75 -6.54213 5.71376 0
M  V30 24994 H 2064.02 -5.30936 4.43503 0
M  V30 24995 H 2063.15 -4.55889 6.76652 0
M  V30 24996 H 2060.5 -2.61715 5.17932 0
M  V30 24997 H 2060.22 -5.52155 4.41878 0
M  V30 24998 H 2059.22 -4.51981 5.53374 0
M  V30 24999 H 2061.06 -6.25124 6.55234 0
M  V30 25000 P 2059.19 -4.23843 7.83734 0
M  V30 25001 O 2058.97 -4.19407 9.29784 0
M  V30 25002 O 2058.4 -5.24426 7.09156 0
M  V30 25003 O 2058.94 -2.7935 7.20758 0
M  V30 25004 C 2059.88 -1.7299 7.50419 0
M  V30 25005 C 2059.15 -0.406376 7.57911 0
M  V30 25006 O 2058.94 0.0897726 6.21935 0
M  V30 25007 C 2057.75 -0.447224 8.1878 0
M  V30 25008 O 2057.36 0.825065 8.71101 0
M  V30 25009 C 2056.87 -0.783801 6.99623 0
M  V30 25010 C 2057.58 -0.0619192 5.85967 0
M  V30 25011 N 2057.53 -0.790462 4.56202 0
M  V30 25012 C 2057.61 -2.13895 4.34171 0
M  V30 25013 N 2057.54 -2.46449 3.08687 0
M  V30 25014 C 2057.39 -1.2525 2.43697 0
M  V30 25015 C 2057.26 -0.914535 1.07318 0
M  V30 25016 N 2057.25 -1.80782 0.0887348 0
M  V30 25017 N 2057.14 0.386745 0.768133 0
M  V30 25018 C 2057.15 1.28096 1.75159 0
M  V30 25019 N 2057.27 1.09708 3.04861 0
M  V30 25020 C 2057.39 -0.214857 3.32306 0
M  V30 25021 H 2060.37 -1.93423 8.4679 0
M  V30 25022 H 2060.64 -1.68852 6.70877 0
M  V30 25023 H 2059.77 0.289041 8.15388 0
M  V30 25024 H 2057.12 0.927006 5.72848 0
M  V30 25025 H 2056.84 -1.86973 6.82036 0
M  V30 25026 H 2055.84 -0.403953 7.13357 0
M  V30 25027 H 2057.68 -1.20599 8.97534 0
M  V30 25028 H 2057.72 -2.86846 5.14318 0
M  V30 25029 H 2057.34 -2.81082 0.302037 0
M  V30 25030 H 2057.15 -1.49688 -0.889064 0
M  V30 25031 H 2057.04 2.31317 1.43855 0
M  V30 25032 P 2055.81 1.17771 8.83182 0
M  V30 25033 O 2055.59 2.07206 9.98732 0
M  V30 25034 O 2055.02 -0.0743816 8.81969 0
M  V30 25035 O 2055.56 1.97652 7.47304 0
M  V30 25036 C 2056.5 3.01133 7.08783 0
M  V30 25037 C 2055.77 4.12613 6.37049 0
M  V30 25038 O 2055.56 3.72827 4.97879 0
M  V30 25039 C 2054.37 4.45085 6.88694 0
M  V30 25040 O 2053.98 5.7877 6.5624 0
M  V30 25041 C 2053.49 3.47817 6.12078 0
M  V30 25042 C 2054.2 3.39414 4.77697 0
M  V30 25043 N 2054.15 2.04199 4.15538 0
M  V30 25044 H 2056.99 3.41248 7.98759 0
M  V30 25045 H 2057.26 2.57728 6.42 0
M  V30 25046 H 2056.39 5.02657 6.42673 0
M  V30 25047 H 2053.74 4.11708 4.08956 0
M  V30 25048 H 2053.46 2.49626 6.61679 0
M  V30 25049 H 2052.46 3.8662 6.00862 0
M  V30 25050 H 2054.3 4.29991 7.97006 0
M  V30 25051 P 2052.43 6.144 6.45285 0
M  V30 25052 O 2052.21 7.54673 6.86199 0
M  V30 25053 O 2051.64 5.12391 7.179 0
M  V30 25054 O 2052.18 5.99158 4.88404 0
M  V30 25055 C 2053.12 6.60234 3.96415 0
M  V30 25056 C 2052.39 7.08259 2.72856 0
M  V30 25057 O 2052.18 5.9427 1.83651 0
M  V30 25058 C 2050.99 7.64886 2.9555 0
M  V30 25059 O 2050.6 8.53963 1.90717 0
M  V30 25060 C 2050.11 6.4116 2.90739 0
M  V30 25061 C 2050.82 5.55375 1.86963 0
M  V30 25062 N 2050.77 4.09664 2.15742 0
M  V30 25063 H 2053.61 7.45574 4.45629 0
M  V30 25064 H 2053.88 5.86232 3.67314 0
M  V30 25065 H 2053.01 7.84412 2.24479 0
M  V30 25066 P 2049.05 8.7635 1.60911 0
M  V30 25067 O 2048.83 10.1388 1.11561 0
M  V30 25068 O 2048.26 8.36503 2.79617 0
M  V30 25069 O 2048.8 7.71806 0.42951 0
M  V30 25070 C 2049.74 7.66948 -0.673514 0
M  V30 25071 C 2049.01 7.33374 -1.95559 0
M  V30 25072 O 2048.8 5.88721 -2.00726 0
M  V30 25073 C 2047.61 7.92218 -2.1125 0
M  V30 25074 O 2047.22 8.02971 -3.47653 0
M  V30 25075 C 2046.73 6.89504 -1.41631 0
M  V30 25076 C 2047.44 5.59106 -1.75155 0
M  V30 25077 N 2047.39 4.58136 -0.662409 0
M  V30 25078 C 2047.24 3.26059 -1.02863 0
M  V30 25079 O 2047.15 2.90743 -2.19009 0
M  V30 25080 N 2047.2 2.35995 0.0155585 0
M  V30 25081 C 2047.29 2.65248 1.35603 0
M  V30 25082 O 2047.24 1.75605 2.20651 0
M  V30 25083 C 2047.44 4.05747 1.64698 0
M  V30 25084 C 2047.55 4.42345 3.09553 0
M  V30 25085 C 2047.49 4.96734 0.652411 0
M  V30 25086 H 2050.23 8.64917 -0.776982 0
M  V30 25087 H 2050.5 6.89974 -0.474015 0
M  V30 25088 H 2049.63 7.66548 -2.79458 0
M  V30 25089 H 2046.98 5.16076 -2.65138 0
M  V30 25090 H 2046.7 7.06433 -0.329384 0
M  V30 25091 H 2045.7 6.90829 -1.81996 0
M  V30 25092 H 2047.54 8.90774 -1.62639 0
M  V30 25093 H 2047.61 6.02181 0.895285 0
M  V30 25094 H 2046.58 4.80252 3.45468 0
M  V30 25095 H 2048.32 5.20015 3.22119 0
M  V30 25096 H 2047.83 3.53269 3.67833 0
M  V30 25097 H 2047.09 1.39558 -0.227499 0
M  V30 25098 P 2045.67 8.03563 -3.84925 0
M  V30 25099 O 2045.45 8.85821 -5.0569 0
M  V30 25100 O 2044.88 8.41101 -2.65469 0
M  V30 25101 O 2045.42 6.49734 -4.18962 0
M  V30 25102 C 2046.36 5.81037 -5.05421 0
M  V30 25103 C 2045.63 4.79018 -5.88876 0
M  V30 25104 O 2045.42 3.58359 -5.08515 0
M  V30 25105 C 2044.23 5.17448 -6.36119 0
M  V30 25106 O 2043.84 4.45322 -7.53318 0
M  V30 25107 C 2043.35 4.74639 -5.19936 0
M  V30 25108 C 2044.06 3.49432 -4.70418 0
M  V30 25109 N 2044.01 3.31776 -3.22945 0
M  V30 25110 C 2043.86 2.02742 -2.72939 0
M  V30 25111 O 2043.77 1.08301 -3.52749 0
M  V30 25112 N 2043.81 1.96117 -1.22063 0
M  V30 25113 C 2043.91 2.8878 -0.551566 0
M  V30 25114 N 2043.86 2.65609 0.750198 0
M  V30 25115 C 2044.06 4.22457 -1.03707 0
M  V30 25116 C 2044.11 4.37979 -2.39113 0
M  V30 25117 H 2046.85 6.54138 -5.7131 0
M  V30 25118 H 2047.12 5.30492 -4.44033 0
M  V30 25119 H 2046.25 4.55945 -6.76735 0
M  V30 25120 H 2043.6 2.6176 -5.18021 0
M  V30 25121 H 2043.32 5.52233 -4.41941 0
M  V30 25122 H 2042.32 4.52045 -5.53452 0
M  V30 25123 H 2044.16 6.25124 -6.55234 0
M  V30 25124 H 2044.23 5.37936 -2.80552 0
M  V30 25125 H 2044.13 5.07528 -0.359553 0
M  V30 25126 H 2043.74 1.69403 1.09847 0
M  V30 25127 H 2043.94 3.43701 1.41792 0
M  V30 25128 P 2042.29 4.23843 -7.83734 0
M  V30 25129 O 2042.07 4.19407 -9.29784 0
M  V30 25130 O 2041.5 5.24426 -7.09156 0
M  V30 25131 O 2042.04 2.79386 -7.20852 0
M  V30 25132 C 2042.98 1.7299 -7.50419 0
M  V30 25133 C 2042.25 0.41401 -7.5797 0
M  V30 25134 O 2042.04 -0.089787 -6.22035 0
M  V30 25135 C 2040.85 0.447224 -8.1878 0
M  V30 25136 O 2040.46 -0.825159 -8.71201 0
M  V30 25137 C 2039.97 0.783801 -6.99623 0
M  V30 25138 C 2040.68 0.0619192 -5.85967 0
M  V30 25139 N 2040.63 0.7859 -4.56281 0
M  V30 25140 C 2040.48 0.0359258 -3.39981 0
M  V30 25141 O 2040.39 -1.19723 -3.49038 0
M  V30 25142 N 2040.43 0.869151 -2.14025 0
M  V30 25143 C 2040.53 2.01207 -2.14363 0
M  V30 25144 N 2040.48 2.58978 -0.954287 0
M  V30 25145 C 2040.68 2.80817 -3.32215 0
M  V30 25146 C 2040.73 2.13785 -4.50884 0
M  V30 25147 H 2043.47 1.93401 -8.46693 0
M  V30 25148 H 2043.74 1.68181 -6.71046 0
M  V30 25149 H 2042.87 -0.289076 -8.15488 0
M  V30 25150 H 2040.22 -0.927166 -5.72947 0
M  V30 25151 H 2039.94 1.87 -6.82132 0
M  V30 25152 H 2038.94 0.404009 -7.13457 0
M  V30 25153 H 2040.78 1.20599 -8.97534 0
M  V30 25154 H 2040.85 2.70295 -5.43162 0
M  V30 25155 H 2040.75 3.89465 -3.27406 0
M  V30 25156 H 2040.36 2.01616 -0.107046 0
M  V30 25157 H 2040.56 3.61403 -0.873101 0
M  V30 25158 P 2038.91 -1.17771 -8.83182 0
M  V30 25159 O 2038.69 -2.07206 -9.98732 0
M  V30 25160 O 2038.12 0.0743816 -8.81969 0
M  V30 25161 O 2038.66 -1.97652 -7.47304 0
M  V30 25162 C 2039.6 -3.01133 -7.08783 0
M  V30 25163 C 2038.87 -4.12613 -6.37049 0
M  V30 25164 O 2038.66 -3.72827 -4.97879 0
M  V30 25165 C 2037.47 -4.45085 -6.88694 0
M  V30 25166 O 2037.08 -5.7877 -6.5624 0
M  V30 25167 C 2036.59 -3.47817 -6.12078 0
M  V30 25168 C 2037.3 -3.39414 -4.77697 0
M  V30 25169 N 2037.25 -2.04615 -4.15333 0
M  V30 25170 H 2040.09 -3.41248 -7.98759 0
M  V30 25171 H 2040.36 -2.5837 -6.41742 0
M  V30 25172 H 2039.49 -5.02657 -6.42673 0
M  V30 25173 P 2035.53 -6.144 -6.45285 0
M  V30 25174 O 2035.31 -7.54673 -6.86199 0
M  V30 25175 O 2034.74 -5.12391 -7.179 0
M  V30 25176 O 2035.28 -5.99158 -4.88404 0
M  V30 25177 C 2036.22 -6.60234 -3.96415 0
M  V30 25178 C 2035.49 -7.08259 -2.72856 0
M  V30 25179 O 2035.28 -5.9427 -1.83651 0
M  V30 25180 C 2034.09 -7.64886 -2.9555 0
M  V30 25181 O 2033.7 -8.53963 -1.90717 0
M  V30 25182 C 2033.21 -6.4116 -2.90739 0
M  V30 25183 C 2033.92 -5.55375 -1.86963 0
M  V30 25184 N 2033.87 -4.09448 -2.16152 0
M  V30 25185 C 2033.95 -3.46824 -3.37593 0
M  V30 25186 N 2033.88 -2.17422 -3.29777 0
M  V30 25187 C 2033.73 -1.93065 -1.94427 0
M  V30 25188 C 2033.6 -0.738053 -1.20141 0
M  V30 25189 N 2033.59 0.474256 -1.74676 0
M  V30 25190 N 2033.48 -0.850049 0.13045 0
M  V30 25191 C 2033.49 -2.06169 0.676992 0
M  V30 25192 N 2033.61 -3.23842 0.101312 0
M  V30 25193 C 2033.73 -3.09402 -1.23122 0
M  V30 25194 H 2036.71 -7.45574 -4.45629 0
M  V30 25195 H 2036.98 -5.85864 -3.679 0
M  V30 25196 H 2036.11 -7.84412 -2.24479 0
M  V30 25197 H 2033.46 -5.73457 -0.888562 0
M  V30 25198 H 2033.18 -5.90877 -3.88583 0
M  V30 25199 H 2032.18 -6.6596 -2.58858 0
M  V30 25200 H 2034.02 -8.16339 -3.92049 0
M  V30 25201 H 2034.06 -4.00505 -4.3174 0
M  V30 25202 H 2033.68 0.581337 -2.76658 0
M  V30 25203 H 2033.49 1.30811 -1.14888 0
M  V30 25204 H 2033.38 -2.08295 1.75542 0
M  V30 25205 P 2032.15 -8.7635 -1.60911 0
M  V30 25206 O 2031.93 -10.1388 -1.11561 0
M  V30 25207 O 2031.36 -8.36503 -2.79617 0
M  V30 25208 O 2031.9 -7.71806 -0.42951 0
M  V30 25209 C 2032.84 -7.67148 0.673689 0
M  V30 25210 C 2032.11 -7.33374 1.95559 0
M  V30 25211 O 2031.9 -5.88721 2.00726 0
M  V30 25212 C 2030.71 -7.92526 2.10483 0
M  V30 25213 O 2030.32 -8.02971 3.47653 0
M  V30 25214 C 2029.83 -6.89602 1.41652 0
M  V30 25215 C 2030.54 -5.59201 1.75185 0
M  V30 25216 N 2030.49 -4.58301 0.657969 0
M  V30 25217 H 2033.33 -8.65116 0.777161 0
M  V30 25218 H 2033.6 -6.9022 0.46725 0
M  V30 25219 H 2032.73 -7.66548 2.79458 0
M  V30 25220 H 2030.08 -5.16165 2.65183 0
M  V30 25221 H 2029.8 -7.06433 0.329384 0
M  V30 25222 H 2028.8 -6.90926 1.82021 0
M  V30 25223 H 2030.64 -8.90873 1.62657 0
M  V30 25224 P 2028.77 -8.03563 3.84925 0
M  V30 25225 O 2028.55 -8.85821 5.0569 0
M  V30 25226 O 2027.98 -8.41101 2.65469 0
M  V30 25227 O 2028.52 -6.4965 4.18908 0
M  V30 25228 C 2029.46 -5.81037 5.05421 0
M  V30 25229 C 2028.73 -4.78366 5.89277 0
M  V30 25230 O 2028.52 -3.58302 5.08433 0
M  V30 25231 C 2027.33 -5.17448 6.36119 0
M  V30 25232 O 2026.94 -4.45271 7.53232 0
M  V30 25233 C 2026.45 -4.74639 5.19936 0
M  V30 25234 C 2027.16 -3.49432 4.70418 0
M  V30 25235 N 2027.11 -3.32099 3.22613 0
M  V30 25236 H 2029.95 -6.54213 5.71376 0
M  V30 25237 H 2030.22 -5.30936 4.43503 0
M  V30 25238 H 2029.35 -4.55889 6.76652 0
M  V30 25239 H 2026.7 -2.61715 5.17932 0
M  V30 25240 H 2026.42 -5.52155 4.41878 0
M  V30 25241 H 2025.43 -4.51981 5.53374 0
M  V30 25242 H 2027.26 -6.25124 6.55234 0
M  V30 25243 P 2025.39 -4.23843 7.83734 0
M  V30 25244 O 2025.17 -4.19407 9.29784 0
M  V30 25245 O 2024.6 -5.24426 7.09156 0
M  V30 25246 O 2025.14 -2.7935 7.20758 0
M  V30 25247 C 2026.08 -1.7299 7.50419 0
M  V30 25248 C 2025.35 -0.406376 7.57911 0
M  V30 25249 O 2025.14 0.0897726 6.21935 0
M  V30 25250 C 2023.95 -0.447224 8.1878 0
M  V30 25251 O 2023.56 0.825065 8.71101 0
M  V30 25252 C 2023.07 -0.783801 6.99623 0
M  V30 25253 C 2023.78 -0.0619192 5.85967 0
M  V30 25254 N 2023.73 -0.7859 4.56281 0
M  V30 25255 H 2026.57 -1.93423 8.4679 0
M  V30 25256 H 2026.84 -1.68181 6.71046 0
M  V30 25257 H 2025.97 0.289041 8.15388 0
M  V30 25258 P 2022.01 1.17771 8.83182 0
M  V30 25259 O 2021.79 2.07206 9.98732 0
M  V30 25260 O 2021.22 -0.0743816 8.81969 0
M  V30 25261 O 2021.76 1.97652 7.47304 0
M  V30 25262 C 2022.7 3.01133 7.08783 0
M  V30 25263 C 2021.97 4.12613 6.37049 0
M  V30 25264 O 2021.76 3.72827 4.97879 0
M  V30 25265 C 2020.57 4.45085 6.88694 0
M  V30 25266 O 2020.18 5.7877 6.5624 0
M  V30 25267 C 2019.69 3.47817 6.12078 0
M  V30 25268 C 2020.4 3.39414 4.77697 0
M  V30 25269 N 2020.35 2.04615 4.15333 0
M  V30 25270 H 2023.19 3.41248 7.98759 0
M  V30 25271 H 2023.46 2.5837 6.41742 0
M  V30 25272 H 2022.59 5.02657 6.42673 0
M  V30 25273 P 2018.63 6.144 6.45285 0
M  V30 25274 O 2018.41 7.54673 6.86199 0
M  V30 25275 O 2017.84 5.12391 7.179 0
M  V30 25276 O 2018.38 5.99158 4.88404 0
M  V30 25277 C 2019.32 6.60234 3.96415 0
M  V30 25278 C 2018.59 7.08259 2.72856 0
M  V30 25279 O 2018.38 5.9427 1.83651 0
M  V30 25280 C 2017.19 7.64886 2.9555 0
M  V30 25281 O 2016.8 8.53963 1.90717 0
M  V30 25282 C 2016.31 6.4116 2.90739 0
M  V30 25283 C 2017.02 5.55375 1.86963 0
M  V30 25284 N 2016.97 4.09448 2.16152 0
M  V30 25285 H 2019.81 7.45574 4.45629 0
M  V30 25286 H 2020.08 5.85864 3.679 0
M  V30 25287 H 2019.21 7.84412 2.24479 0
M  V30 25288 H 2016.56 5.73457 0.888562 0
M  V30 25289 H 2016.28 5.90877 3.88583 0
M  V30 25290 H 2015.29 6.6596 2.58858 0
M  V30 25291 H 2017.12 8.16339 3.92049 0
M  V30 25292 P 2015.25 8.7635 1.60911 0
M  V30 25293 O 2015.03 10.1388 1.11561 0
M  V30 25294 O 2014.46 8.36503 2.79617 0
M  V30 25295 O 2015 7.71806 0.42951 0
M  V30 25296 C 2015.94 7.67148 -0.673689 0
M  V30 25297 C 2015.21 7.33374 -1.95559 0
M  V30 25298 O 2015 5.88721 -2.00726 0
M  V30 25299 C 2013.81 7.92526 -2.10483 0
M  V30 25300 O 2013.42 8.02971 -3.47653 0
M  V30 25301 C 2012.93 6.89602 -1.41652 0
M  V30 25302 C 2013.64 5.59201 -1.75185 0
M  V30 25303 N 2013.59 4.58235 -0.662552 0
M  V30 25304 H 2016.43 8.65116 -0.777161 0
M  V30 25305 H 2016.7 6.90173 -0.474152 0
M  V30 25306 H 2015.83 7.66548 -2.79458 0
M  V30 25307 P 2011.87 8.03563 -3.84925 0
M  V30 25308 O 2011.65 8.85821 -5.0569 0
M  V30 25309 O 2011.08 8.41101 -2.65469 0
M  V30 25310 O 2011.62 6.49734 -4.18962 0
M  V30 25311 C 2012.56 5.81037 -5.05421 0
M  V30 25312 C 2011.83 4.79018 -5.88876 0
M  V30 25313 O 2011.62 3.58359 -5.08515 0
M  V30 25314 C 2010.43 5.17448 -6.36119 0
M  V30 25315 O 2010.04 4.45322 -7.53318 0
M  V30 25316 C 2009.55 4.74639 -5.19936 0
M  V30 25317 C 2010.26 3.49432 -4.70418 0
M  V30 25318 N 2010.21 3.31776 -3.22945 0
M  V30 25319 C 2010.06 2.02742 -2.72939 0
M  V30 25320 O 2009.97 1.08301 -3.52749 0
M  V30 25321 N 2010.01 1.96117 -1.22063 0
M  V30 25322 C 2010.11 2.8878 -0.551566 0
M  V30 25323 N 2010.06 2.65609 0.750198 0
M  V30 25324 C 2010.26 4.22457 -1.03707 0
M  V30 25325 C 2010.31 4.37979 -2.39113 0
M  V30 25326 H 2013.05 6.54138 -5.7131 0
M  V30 25327 H 2013.32 5.30492 -4.44033 0
M  V30 25328 H 2012.45 4.55945 -6.76735 0
M  V30 25329 H 2009.8 2.6176 -5.18021 0
M  V30 25330 H 2009.52 5.52233 -4.41941 0
M  V30 25331 H 2008.53 4.52045 -5.53452 0
M  V30 25332 H 2010.36 6.25124 -6.55234 0
M  V30 25333 H 2010.43 5.37936 -2.80552 0
M  V30 25334 H 2010.33 5.07528 -0.359553 0
M  V30 25335 H 2009.94 1.69403 1.09847 0
M  V30 25336 H 2010.14 3.43701 1.41792 0
M  V30 25337 P 2008.49 4.23843 -7.83734 0
M  V30 25338 O 2008.27 4.19407 -9.29784 0
M  V30 25339 O 2007.7 5.24426 -7.09156 0
M  V30 25340 O 2008.24 2.7935 -7.20758 0
M  V30 25341 C 2009.18 1.7299 -7.50419 0
M  V30 25342 C 2008.45 0.406376 -7.57911 0
M  V30 25343 O 2008.24 -0.0897726 -6.21935 0
M  V30 25344 C 2007.05 0.447224 -8.1878 0
M  V30 25345 O 2006.66 -0.825065 -8.71101 0
M  V30 25346 C 2006.17 0.783801 -6.99623 0
M  V30 25347 C 2006.88 0.0619192 -5.85967 0
M  V30 25348 N 2006.83 0.7859 -4.56281 0
M  V30 25349 H 2009.67 1.93423 -8.4679 0
M  V30 25350 H 2009.94 1.68181 -6.71046 0
M  V30 25351 H 2009.07 -0.289041 -8.15388 0
M  V30 25352 P 2005.11 -1.17771 -8.83182 0
M  V30 25353 O 2004.89 -2.07206 -9.98732 0
M  V30 25354 O 2004.32 0.0743816 -8.81969 0
M  V30 25355 O 2004.86 -1.97652 -7.47304 0
M  V30 25356 C 2005.8 -3.01133 -7.08783 0
M  V30 25357 C 2005.07 -4.12613 -6.37049 0
M  V30 25358 O 2004.86 -3.72827 -4.97879 0
M  V30 25359 C 2003.67 -4.45085 -6.88694 0
M  V30 25360 O 2003.28 -5.7877 -6.5624 0
M  V30 25361 C 2002.79 -3.47817 -6.12078 0
M  V30 25362 C 2003.5 -3.39414 -4.77697 0
M  V30 25363 N 2003.45 -2.04199 -4.15538 0
M  V30 25364 H 2006.29 -3.41248 -7.98759 0
M  V30 25365 H 2006.56 -2.57728 -6.42 0
M  V30 25366 H 2005.69 -5.02657 -6.42673 0
M  V30 25367 H 2003.04 -4.11708 -4.08956 0
M  V30 25368 H 2002.76 -2.49626 -6.61679 0
M  V30 25369 H 2001.77 -3.8662 -6.00862 0
M  V30 25370 H 2003.6 -4.29991 -7.97006 0
M  V30 25371 P 2001.73 -6.144 -6.45285 0
M  V30 25372 O 2001.51 -7.54673 -6.86199 0
M  V30 25373 O 2000.94 -5.12391 -7.179 0
M  V30 25374 O 2001.48 -5.99158 -4.88404 0
M  V30 25375 C 2002.42 -6.60234 -3.96415 0
M  V30 25376 C 2001.69 -7.08259 -2.72856 0
M  V30 25377 O 2001.48 -5.9427 -1.83651 0
M  V30 25378 C 2000.29 -7.64886 -2.9555 0
M  V30 25379 O 1999.9 -8.53963 -1.90717 0
M  V30 25380 C 1999.41 -6.4116 -2.90739 0
M  V30 25381 C 2000.12 -5.55375 -1.86963 0
M  V30 25382 N 2000.07 -4.09664 -2.15742 0
M  V30 25383 H 2002.91 -7.45574 -4.45629 0
M  V30 25384 H 2003.18 -5.86232 -3.67314 0
M  V30 25385 H 2002.31 -7.84412 -2.24479 0
M  V30 25386 P 1998.35 -8.7635 -1.60911 0
M  V30 25387 O 1998.13 -10.1388 -1.11561 0
M  V30 25388 O 1997.56 -8.36503 -2.79617 0
M  V30 25389 O 1998.1 -7.71806 -0.42951 0
M  V30 25390 C 1999.04 -7.67148 0.673689 0
M  V30 25391 C 1998.31 -7.33374 1.95559 0
M  V30 25392 O 1998.1 -5.88721 2.00726 0
M  V30 25393 C 1996.91 -7.92526 2.10483 0
M  V30 25394 O 1996.52 -8.02971 3.47653 0
M  V30 25395 C 1996.03 -6.89602 1.41652 0
M  V30 25396 C 1996.74 -5.59201 1.75185 0
M  V30 25397 N 1996.69 -4.58235 0.662552 0
M  V30 25398 H 1999.53 -8.65116 0.777161 0
M  V30 25399 H 1999.8 -6.90173 0.474152 0
M  V30 25400 H 1998.93 -7.66548 2.79458 0
M  V30 25401 P 1994.97 -8.03563 3.84925 0
M  V30 25402 O 1994.75 -8.85821 5.0569 0
M  V30 25403 O 1994.18 -8.41101 2.65469 0
M  V30 25404 O 1994.72 -6.4965 4.18908 0
M  V30 25405 C 1995.66 -5.81037 5.05421 0
M  V30 25406 C 1994.93 -4.78366 5.89277 0
M  V30 25407 O 1994.72 -3.58302 5.08433 0
M  V30 25408 C 1993.53 -5.17448 6.36119 0
M  V30 25409 O 1993.14 -4.45271 7.53232 0
M  V30 25410 C 1992.65 -4.74639 5.19936 0
M  V30 25411 C 1993.36 -3.49432 4.70418 0
M  V30 25412 N 1993.31 -3.31776 3.22945 0
M  V30 25413 H 1996.15 -6.54213 5.71376 0
M  V30 25414 H 1996.42 -5.30492 4.44033 0
M  V30 25415 H 1995.55 -4.55889 6.76652 0
M  V30 25416 P 1991.59 -4.23843 7.83734 0
M  V30 25417 O 1991.37 -4.19407 9.29784 0
M  V30 25418 O 1990.8 -5.24426 7.09156 0
M  V30 25419 O 1991.34 -2.7935 7.20758 0
M  V30 25420 C 1992.28 -1.7299 7.50419 0
M  V30 25421 C 1991.55 -0.406376 7.57911 0
M  V30 25422 O 1991.34 0.0897726 6.21935 0
M  V30 25423 C 1990.15 -0.447224 8.1878 0
M  V30 25424 O 1989.76 0.825065 8.71101 0
M  V30 25425 C 1989.27 -0.783801 6.99623 0
M  V30 25426 C 1989.98 -0.0619192 5.85967 0
M  V30 25427 N 1989.93 -0.7859 4.56281 0
M  V30 25428 H 1992.77 -1.93423 8.4679 0
M  V30 25429 H 1993.04 -1.68181 6.71046 0
M  V30 25430 H 1992.17 0.289041 8.15388 0
M  V30 25431 P 1988.21 1.17771 8.83182 0
M  V30 25432 O 1987.99 2.07206 9.98732 0
M  V30 25433 O 1987.42 -0.0743816 8.81969 0
M  V30 25434 O 1987.96 1.97652 7.47304 0
M  V30 25435 C 1988.9 3.01133 7.08783 0
M  V30 25436 C 1988.17 4.12613 6.37049 0
M  V30 25437 O 1987.96 3.72827 4.97879 0
M  V30 25438 C 1986.77 4.45085 6.88694 0
M  V30 25439 O 1986.38 5.7877 6.5624 0
M  V30 25440 C 1985.89 3.47817 6.12078 0
M  V30 25441 C 1986.6 3.39414 4.77697 0
M  V30 25442 N 1986.55 2.04199 4.15538 0
M  V30 25443 C 1986.63 0.821545 4.76977 0
M  V30 25444 N 1986.56 -0.1794 3.94592 0
M  V30 25445 C 1986.41 0.419121 2.70776 0
M  V30 25446 C 1986.28 -0.109072 1.40577 0
M  V30 25447 N 1986.27 -1.4104 1.1344 0
M  V30 25448 N 1986.16 0.764381 0.39411 0
M  V30 25449 C 1986.17 2.06587 0.664135 0
M  V30 25450 N 1986.29 2.67948 1.82153 0
M  V30 25451 C 1986.41 1.77942 2.8147 0
M  V30 25452 H 1989.39 3.41248 7.98759 0
M  V30 25453 H 1989.66 2.57728 6.42 0
M  V30 25454 H 1988.79 5.02657 6.42673 0
M  V30 25455 H 1986.14 4.11708 4.08956 0
M  V30 25456 H 1985.86 2.49626 6.61679 0
M  V30 25457 H 1984.87 3.8662 6.00862 0
M  V30 25458 H 1986.7 4.29991 7.97006 0
M  V30 25459 H 1986.74 0.702451 5.84696 0
M  V30 25460 H 1986.36 -2.09647 1.89651 0
M  V30 25461 H 1986.17 -1.73358 0.160575 0
M  V30 25462 H 1986.06 2.71695 -0.195838 0
M  V30 25463 P 1984.83 6.144 6.45285 0
M  V30 25464 O 1984.61 7.54673 6.86199 0
M  V30 25465 O 1984.04 5.12391 7.179 0
M  V30 25466 O 1984.58 5.99158 4.88404 0
M  V30 25467 C 1985.52 6.60234 3.96415 0
M  V30 25468 C 1984.79 7.08259 2.72856 0
M  V30 25469 O 1984.58 5.9427 1.83651 0
M  V30 25470 C 1983.39 7.64886 2.9555 0
M  V30 25471 O 1983 8.53963 1.90717 0
M  V30 25472 C 1982.51 6.4116 2.90739 0
M  V30 25473 C 1983.22 5.55375 1.86963 0
M  V30 25474 N 1983.17 4.09664 2.15742 0
M  V30 25475 H 1986.01 7.45574 4.45629 0
M  V30 25476 H 1986.28 5.86232 3.67314 0
M  V30 25477 H 1985.41 7.84412 2.24479 0
M  V30 25478 P 1981.45 8.7635 1.60911 0
M  V30 25479 O 1981.23 10.1388 1.11561 0
M  V30 25480 O 1980.66 8.36503 2.79617 0
M  V30 25481 O 1981.2 7.71806 0.42951 0
M  V30 25482 C 1982.14 7.67148 -0.673689 0
M  V30 25483 C 1981.41 7.33374 -1.95559 0
M  V30 25484 O 1981.2 5.88721 -2.00726 0
M  V30 25485 C 1980.01 7.92526 -2.10483 0
M  V30 25486 O 1979.62 8.02971 -3.47653 0
M  V30 25487 C 1979.13 6.89602 -1.41652 0
M  V30 25488 C 1979.84 5.59201 -1.75185 0
M  V30 25489 N 1979.79 4.58235 -0.662552 0
M  V30 25490 H 1982.63 8.65116 -0.777161 0
M  V30 25491 H 1982.9 6.90173 -0.474152 0
M  V30 25492 H 1982.03 7.66548 -2.79458 0
M  V30 25493 P 1978.07 8.03563 -3.84925 0
M  V30 25494 O 1977.85 8.85821 -5.0569 0
M  V30 25495 O 1977.28 8.41101 -2.65469 0
M  V30 25496 O 1977.82 6.4965 -4.18908 0
M  V30 25497 C 1978.76 5.81037 -5.05421 0
M  V30 25498 C 1978.03 4.78366 -5.89277 0
M  V30 25499 O 1977.82 3.58302 -5.08433 0
M  V30 25500 C 1976.63 5.17448 -6.36119 0
M  V30 25501 O 1976.24 4.45271 -7.53232 0
M  V30 25502 C 1975.75 4.74639 -5.19936 0
M  V30 25503 C 1976.46 3.49432 -4.70418 0
M  V30 25504 N 1976.41 3.31776 -3.22945 0
M  V30 25505 H 1979.25 6.54213 -5.71376 0
M  V30 25506 H 1979.52 5.30492 -4.44033 0
M  V30 25507 H 1978.65 4.55889 -6.76652 0
M  V30 25508 P 1974.69 4.23843 -7.83734 0
M  V30 25509 O 1974.47 4.19407 -9.29784 0
M  V30 25510 O 1973.9 5.24426 -7.09156 0
M  V30 25511 O 1974.44 2.7935 -7.20758 0
M  V30 25512 C 1975.38 1.7299 -7.50419 0
M  V30 25513 C 1974.65 0.406376 -7.57911 0
M  V30 25514 O 1974.44 -0.0897726 -6.21935 0
M  V30 25515 C 1973.25 0.447224 -8.1878 0
M  V30 25516 O 1972.86 -0.825065 -8.71101 0
M  V30 25517 C 1972.37 0.783801 -6.99623 0
M  V30 25518 C 1973.08 0.0619192 -5.85967 0
M  V30 25519 N 1973.03 0.790462 -4.56202 0
M  V30 25520 H 1975.87 1.93423 -8.4679 0
M  V30 25521 H 1976.14 1.68852 -6.70877 0
M  V30 25522 H 1975.27 -0.289041 -8.15388 0
M  V30 25523 H 1972.62 -0.927006 -5.72848 0
M  V30 25524 H 1972.34 1.86973 -6.82036 0
M  V30 25525 H 1971.35 0.403953 -7.13357 0
M  V30 25526 H 1973.18 1.20599 -8.97534 0
M  V30 25527 P 1971.31 -1.17771 -8.83182 0
M  V30 25528 O 1971.09 -2.07206 -9.98732 0
M  V30 25529 O 1970.52 0.0743816 -8.81969 0
M  V30 25530 O 1971.06 -1.97652 -7.47304 0
M  V30 25531 C 1972 -3.01133 -7.08783 0
M  V30 25532 C 1971.27 -4.12613 -6.37049 0
M  V30 25533 O 1971.06 -3.72827 -4.97879 0
M  V30 25534 C 1969.87 -4.45085 -6.88694 0
M  V30 25535 O 1969.48 -5.7877 -6.5624 0
M  V30 25536 C 1968.99 -3.47817 -6.12078 0
M  V30 25537 C 1969.7 -3.39414 -4.77697 0
M  V30 25538 N 1969.65 -2.04199 -4.15538 0
M  V30 25539 C 1969.73 -0.821545 -4.76977 0
M  V30 25540 N 1969.66 0.1794 -3.94592 0
M  V30 25541 C 1969.51 -0.419121 -2.70776 0
M  V30 25542 C 1969.38 0.109072 -1.40577 0
M  V30 25543 N 1969.37 1.4104 -1.1344 0
M  V30 25544 N 1969.26 -0.764381 -0.39411 0
M  V30 25545 C 1969.27 -2.06587 -0.664135 0
M  V30 25546 N 1969.39 -2.67948 -1.82153 0
M  V30 25547 C 1969.51 -1.77942 -2.8147 0
M  V30 25548 H 1972.49 -3.41248 -7.98759 0
M  V30 25549 H 1972.76 -2.57728 -6.42 0
M  V30 25550 H 1971.89 -5.02657 -6.42673 0
M  V30 25551 H 1969.24 -4.11708 -4.08956 0
M  V30 25552 H 1968.96 -2.49626 -6.61679 0
M  V30 25553 H 1967.97 -3.8662 -6.00862 0
M  V30 25554 H 1969.8 -4.29991 -7.97006 0
M  V30 25555 H 1969.84 -0.702451 -5.84696 0
M  V30 25556 H 1969.46 2.09647 -1.89651 0
M  V30 25557 H 1969.27 1.73358 -0.160575 0
M  V30 25558 H 1969.16 -2.71695 0.195838 0
M  V30 25559 P 1967.93 -6.144 -6.45285 0
M  V30 25560 O 1967.71 -7.54673 -6.86199 0
M  V30 25561 O 1967.14 -5.12391 -7.179 0
M  V30 25562 O 1967.68 -5.99158 -4.88404 0
M  V30 25563 C 1968.62 -6.60234 -3.96415 0
M  V30 25564 C 1967.89 -7.08259 -2.72856 0
M  V30 25565 O 1967.68 -5.9427 -1.83651 0
M  V30 25566 C 1966.49 -7.64886 -2.9555 0
M  V30 25567 O 1966.1 -8.53963 -1.90717 0
M  V30 25568 C 1965.61 -6.4116 -2.90739 0
M  V30 25569 C 1966.32 -5.55375 -1.86963 0
M  V30 25570 N 1966.27 -4.09448 -2.16152 0
M  V30 25571 H 1969.11 -7.45574 -4.45629 0
M  V30 25572 H 1969.38 -5.85864 -3.679 0
M  V30 25573 H 1968.51 -7.84412 -2.24479 0
M  V30 25574 H 1965.86 -5.73457 -0.888562 0
M  V30 25575 H 1965.58 -5.90877 -3.88583 0
M  V30 25576 H 1964.59 -6.6596 -2.58858 0
M  V30 25577 H 1966.42 -8.16339 -3.92049 0
M  V30 25578 P 1964.55 -8.7635 -1.60911 0
M  V30 25579 O 1964.33 -10.1388 -1.11561 0
M  V30 25580 O 1963.76 -8.36503 -2.79617 0
M  V30 25581 O 1964.3 -7.71806 -0.42951 0
M  V30 25582 C 1965.24 -7.67148 0.673689 0
M  V30 25583 C 1964.51 -7.33374 1.95559 0
M  V30 25584 O 1964.3 -5.88721 2.00726 0
M  V30 25585 C 1963.11 -7.92526 2.10483 0
M  V30 25586 O 1962.72 -8.02971 3.47653 0
M  V30 25587 C 1962.23 -6.89602 1.41652 0
M  V30 25588 C 1962.94 -5.59201 1.75185 0
M  V30 25589 N 1962.89 -4.58301 0.657969 0
M  V30 25590 H 1965.73 -8.65116 0.777161 0
M  V30 25591 H 1966 -6.9022 0.46725 0
M  V30 25592 H 1965.13 -7.66548 2.79458 0
M  V30 25593 H 1962.48 -5.16165 2.65183 0
M  V30 25594 H 1962.2 -7.06433 0.329384 0
M  V30 25595 H 1961.21 -6.90926 1.82021 0
M  V30 25596 H 1963.04 -8.90873 1.62657 0
M  V30 25597 P 1961.17 -8.03563 3.84925 0
M  V30 25598 O 1960.95 -8.85821 5.0569 0
M  V30 25599 O 1960.38 -8.41101 2.65469 0
M  V30 25600 O 1960.92 -6.4965 4.18908 0
M  V30 25601 C 1961.86 -5.81037 5.05421 0
M  V30 25602 C 1961.13 -4.78366 5.89277 0
M  V30 25603 O 1960.92 -3.58302 5.08433 0
M  V30 25604 C 1959.73 -5.17448 6.36119 0
M  V30 25605 O 1959.34 -4.45271 7.53232 0
M  V30 25606 C 1958.85 -4.74639 5.19936 0
M  V30 25607 C 1959.56 -3.49432 4.70418 0
M  V30 25608 N 1959.51 -3.31776 3.22945 0
M  V30 25609 H 1962.35 -6.54213 5.71376 0
M  V30 25610 H 1962.62 -5.30492 4.44033 0
M  V30 25611 H 1961.75 -4.55889 6.76652 0
M  V30 25612 P 1957.79 -4.23843 7.83734 0
M  V30 25613 O 1957.57 -4.19407 9.29784 0
M  V30 25614 O 1957 -5.24426 7.09156 0
M  V30 25615 O 1957.54 -2.7935 7.20758 0
M  V30 25616 C 1958.48 -1.7299 7.50419 0
M  V30 25617 C 1957.75 -0.406376 7.57911 0
M  V30 25618 O 1957.54 0.0897726 6.21935 0
M  V30 25619 C 1956.35 -0.447224 8.1878 0
M  V30 25620 O 1955.96 0.825065 8.71101 0
M  V30 25621 C 1955.47 -0.783801 6.99623 0
M  V30 25622 C 1956.18 -0.0619192 5.85967 0
M  V30 25623 N 1956.13 -0.7859 4.56281 0
M  V30 25624 H 1958.97 -1.93423 8.4679 0
M  V30 25625 H 1959.24 -1.68181 6.71046 0
M  V30 25626 H 1958.37 0.289041 8.15388 0
M  V30 25627 P 1954.41 1.17771 8.83182 0
M  V30 25628 O 1954.19 2.07206 9.98732 0
M  V30 25629 O 1953.62 -0.0743816 8.81969 0
M  V30 25630 O 1954.16 1.97652 7.47304 0
M  V30 25631 C 1955.1 3.01133 7.08783 0
M  V30 25632 C 1954.37 4.12613 6.37049 0
M  V30 25633 O 1954.16 3.72827 4.97879 0
M  V30 25634 C 1952.97 4.45085 6.88694 0
M  V30 25635 O 1952.58 5.7877 6.5624 0
M  V30 25636 C 1952.09 3.47817 6.12078 0
M  V30 25637 C 1952.8 3.39414 4.77697 0
M  V30 25638 N 1952.75 2.04615 4.15333 0
M  V30 25639 H 1955.59 3.41248 7.98759 0
M  V30 25640 H 1955.86 2.5837 6.41742 0
M  V30 25641 H 1954.99 5.02657 6.42673 0
M  V30 25642 P 1951.03 6.144 6.45285 0
M  V30 25643 O 1950.81 7.54673 6.86199 0
M  V30 25644 O 1950.24 5.12391 7.179 0
M  V30 25645 O 1950.78 5.99158 4.88404 0
M  V30 25646 C 1951.72 6.60234 3.96415 0
M  V30 25647 C 1950.99 7.08259 2.72856 0
M  V30 25648 O 1950.78 5.9427 1.83651 0
M  V30 25649 C 1949.59 7.64886 2.9555 0
M  V30 25650 O 1949.2 8.53963 1.90717 0
M  V30 25651 C 1948.71 6.4116 2.90739 0
M  V30 25652 C 1949.42 5.55375 1.86963 0
M  V30 25653 N 1949.37 4.09664 2.15742 0
M  V30 25654 H 1952.21 7.45574 4.45629 0
M  V30 25655 H 1952.48 5.86232 3.67314 0
M  V30 25656 H 1951.61 7.84412 2.24479 0
M  V30 25657 P 1947.65 8.7635 1.60911 0
M  V30 25658 O 1947.43 10.1388 1.11561 0
M  V30 25659 O 1946.86 8.36503 2.79617 0
M  V30 25660 O 1947.4 7.71806 0.42951 0
M  V30 25661 C 1948.34 7.67148 -0.673689 0
M  V30 25662 C 1947.61 7.33374 -1.95559 0
M  V30 25663 O 1947.4 5.88721 -2.00726 0
M  V30 25664 C 1946.21 7.92526 -2.10483 0
M  V30 25665 O 1945.82 8.02971 -3.47653 0
M  V30 25666 C 1945.33 6.89602 -1.41652 0
M  V30 25667 C 1946.04 5.59201 -1.75185 0
M  V30 25668 N 1945.99 4.58235 -0.662552 0
M  V30 25669 H 1948.83 8.65116 -0.777161 0
M  V30 25670 H 1949.1 6.90173 -0.474152 0
M  V30 25671 H 1948.23 7.66548 -2.79458 0
M  V30 25672 P 1944.27 8.03563 -3.84925 0
M  V30 25673 O 1944.05 8.85821 -5.0569 0
M  V30 25674 O 1943.48 8.41101 -2.65469 0
M  V30 25675 O 1944.02 6.49734 -4.18962 0
M  V30 25676 C 1944.96 5.81037 -5.05421 0
M  V30 25677 C 1944.23 4.79018 -5.88876 0
M  V30 25678 O 1944.02 3.58359 -5.08515 0
M  V30 25679 C 1942.83 5.17448 -6.36119 0
M  V30 25680 O 1942.44 4.45322 -7.53318 0
M  V30 25681 C 1941.95 4.74639 -5.19936 0
M  V30 25682 C 1942.66 3.49432 -4.70418 0
M  V30 25683 N 1942.61 3.31776 -3.22945 0
M  V30 25684 C 1942.46 2.02742 -2.72939 0
M  V30 25685 O 1942.37 1.08301 -3.52749 0
M  V30 25686 N 1942.41 1.96117 -1.22063 0
M  V30 25687 C 1942.51 2.8878 -0.551566 0
M  V30 25688 N 1942.46 2.65609 0.750198 0
M  V30 25689 C 1942.66 4.22457 -1.03707 0
M  V30 25690 C 1942.71 4.37979 -2.39113 0
M  V30 25691 H 1945.45 6.54138 -5.7131 0
M  V30 25692 H 1945.72 5.30492 -4.44033 0
M  V30 25693 H 1944.85 4.55945 -6.76735 0
M  V30 25694 H 1942.2 2.6176 -5.18021 0
M  V30 25695 H 1941.92 5.52233 -4.41941 0
M  V30 25696 H 1940.93 4.52045 -5.53452 0
M  V30 25697 H 1942.76 6.25124 -6.55234 0
M  V30 25698 H 1942.83 5.37936 -2.80552 0
M  V30 25699 H 1942.73 5.07528 -0.359553 0
M  V30 25700 H 1942.34 1.69403 1.09847 0
M  V30 25701 H 1942.54 3.43701 1.41792 0
M  V30 25702 P 1940.89 4.23843 -7.83734 0
M  V30 25703 O 1940.67 4.19407 -9.29784 0
M  V30 25704 O 1940.1 5.24426 -7.09156 0
M  V30 25705 O 1940.64 2.7935 -7.20758 0
M  V30 25706 C 1941.58 1.72945 -7.50224 0
M  V30 25707 C 1940.85 0.406376 -7.57911 0
M  V30 25708 O 1940.64 -0.0897726 -6.21935 0
M  V30 25709 C 1939.45 0.438983 -8.18724 0
M  V30 25710 O 1939.06 -0.825065 -8.71101 0
M  V30 25711 C 1938.57 0.783689 -6.99524 0
M  V30 25712 C 1939.28 0.0619086 -5.85867 0
M  V30 25713 N 1939.23 0.78573 -4.56183 0
M  V30 25714 C 1939.08 0.0292889 -3.41887 0
M  V30 25715 O 1938.99 -1.18445 -3.4419 0
M  V30 25716 N 1939.04 0.744061 -2.23964 0
M  V30 25717 C 1939.13 2.10932 -2.10362 0
M  V30 25718 O 1939.08 2.64117 -0.98825 0
M  V30 25719 C 1939.28 2.8202 -3.34994 0
M  V30 25720 C 1939.39 4.31095 -3.25037 0
M  V30 25721 C 1939.33 2.15547 -4.52261 0
M  V30 25722 H 1942.07 1.93379 -8.46595 0
M  V30 25723 H 1942.34 1.68132 -6.70852 0
M  V30 25724 H 1941.47 -0.289041 -8.15388 0
M  V30 25725 H 1938.82 -0.926847 -5.72749 0
M  V30 25726 H 1938.54 1.86973 -6.82036 0
M  V30 25727 H 1937.55 0.403896 -7.13257 0
M  V30 25728 H 1939.38 1.20585 -8.97435 0
M  V30 25729 H 1939.45 2.71231 -5.45042 0
M  V30 25730 H 1938.42 4.76966 -3.49992 0
M  V30 25731 H 1940.16 4.67047 -3.95024 0
M  V30 25732 H 1939.67 4.58996 -2.22312 0
M  V30 25733 H 1938.93 0.214893 -1.39758 0
M  V30 25734 P 1937.51 -1.17771 -8.83182 0
M  V30 25735 O 1937.29 -2.07206 -9.98732 0
M  V30 25736 O 1936.72 0.0743816 -8.81969 0
M  V30 25737 O 1937.26 -1.97652 -7.47304 0
M  V30 25738 C 1938.2 -3.01133 -7.08783 0
M  V30 25739 C 1937.47 -4.12613 -6.37049 0
M  V30 25740 O 1937.26 -3.72827 -4.97879 0
M  V30 25741 C 1936.07 -4.45085 -6.88694 0
M  V30 25742 O 1935.68 -5.7877 -6.5624 0
M  V30 25743 C 1935.19 -3.47817 -6.12078 0
M  V30 25744 C 1935.9 -3.39414 -4.77697 0
M  V30 25745 N 1935.85 -2.04615 -4.15333 0
M  V30 25746 H 1938.69 -3.41248 -7.98759 0
M  V30 25747 H 1938.96 -2.5837 -6.41742 0
M  V30 25748 H 1938.09 -5.02657 -6.42673 0
M  V30 25749 P 1934.13 -6.144 -6.45285 0
M  V30 25750 O 1933.91 -7.54673 -6.86199 0
M  V30 25751 O 1933.34 -5.12391 -7.179 0
M  V30 25752 O 1933.88 -5.99158 -4.88404 0
M  V30 25753 C 1934.82 -6.60234 -3.96415 0
M  V30 25754 C 1934.09 -7.08259 -2.72856 0
M  V30 25755 O 1933.88 -5.9427 -1.83651 0
M  V30 25756 C 1932.69 -7.64886 -2.9555 0
M  V30 25757 O 1932.3 -8.53963 -1.90717 0
M  V30 25758 C 1931.81 -6.4116 -2.90739 0
M  V30 25759 C 1932.52 -5.55375 -1.86963 0
M  V30 25760 N 1932.47 -4.09664 -2.15742 0
M  V30 25761 H 1935.31 -7.45574 -4.45629 0
M  V30 25762 H 1935.58 -5.86232 -3.67314 0
M  V30 25763 H 1934.71 -7.84412 -2.24479 0
M  V30 25764 P 1930.75 -8.7635 -1.60911 0
M  V30 25765 O 1930.53 -10.1388 -1.11561 0
M  V30 25766 O 1929.96 -8.36503 -2.79617 0
M  V30 25767 O 1930.5 -7.71806 -0.42951 0
M  V30 25768 C 1931.44 -7.67148 0.673689 0
M  V30 25769 C 1930.71 -7.33374 1.95559 0
M  V30 25770 O 1930.5 -5.88721 2.00726 0
M  V30 25771 C 1929.31 -7.92526 2.10483 0
M  V30 25772 O 1928.92 -8.02971 3.47653 0
M  V30 25773 C 1928.43 -6.89602 1.41652 0
M  V30 25774 C 1929.14 -5.59201 1.75185 0
M  V30 25775 N 1929.09 -4.58235 0.662552 0
M  V30 25776 H 1931.93 -8.65116 0.777161 0
M  V30 25777 H 1932.2 -6.90173 0.474152 0
M  V30 25778 H 1931.33 -7.66548 2.79458 0
M  V30 25779 P 1927.37 -8.03563 3.84925 0
M  V30 25780 O 1927.15 -8.85821 5.0569 0
M  V30 25781 O 1926.58 -8.41101 2.65469 0
M  V30 25782 O 1927.12 -6.4965 4.18908 0
M  V30 25783 C 1928.06 -5.80886 5.05289 0
M  V30 25784 C 1927.33 -4.78366 5.89277 0
M  V30 25785 O 1927.12 -3.58302 5.08433 0
M  V30 25786 C 1925.93 -5.16748 6.36559 0
M  V30 25787 O 1925.54 -4.45271 7.53232 0
M  V30 25788 C 1925.05 -4.74572 5.19863 0
M  V30 25789 C 1925.76 -3.49373 4.70338 0
M  V30 25790 N 1925.71 -3.31704 3.22876 0
M  V30 25791 C 1925.56 -2.03326 2.74871 0
M  V30 25792 O 1925.47 -1.06486 3.48076 0
M  V30 25793 N 1925.52 -1.91838 1.37456 0
M  V30 25794 C 1925.61 -2.94295 0.462035 0
M  V30 25795 O 1925.56 -2.71763 -0.752928 0
M  V30 25796 C 1925.76 -4.25064 1.05249 0
M  V30 25797 C 1925.87 -5.39815 0.095697 0
M  V30 25798 C 1925.81 -4.40214 2.39192 0
M  V30 25799 H 1928.55 -6.54063 5.71245 0
M  V30 25800 H 1928.82 -5.30339 4.43905 0
M  V30 25801 H 1927.95 -4.55889 6.76652 0
M  V30 25802 H 1925.3 -2.6167 5.17842 0
M  V30 25803 H 1925.02 -5.52155 4.41878 0
M  V30 25804 H 1924.03 -4.51918 5.53297 0
M  V30 25805 H 1925.86 -6.25055 6.55162 0
M  V30 25806 H 1925.93 -5.39798 2.81523 0
M  V30 25807 H 1924.9 -5.91593 0.0279582 0
M  V30 25808 H 1926.64 -6.10038 0.450573 0
M  V30 25809 H 1926.15 -5.02007 -0.89937 0
M  V30 25810 H 1925.41 -0.995326 1.00435 0
M  V30 25811 P 1923.99 -4.23843 7.83734 0
M  V30 25812 O 1923.77 -4.19407 9.29784 0
M  V30 25813 O 1923.2 -5.24426 7.09156 0
M  V30 25814 O 1923.74 -2.7935 7.20758 0
M  V30 25815 C 1924.68 -1.7299 7.50419 0
M  V30 25816 C 1923.95 -0.406376 7.57911 0
M  V30 25817 O 1923.74 0.0897726 6.21935 0
M  V30 25818 C 1922.55 -0.447224 8.1878 0
M  V30 25819 O 1922.16 0.825065 8.71101 0
M  V30 25820 C 1921.67 -0.783801 6.99623 0
M  V30 25821 C 1922.38 -0.0619192 5.85967 0
M  V30 25822 N 1922.33 -0.790462 4.56202 0
M  V30 25823 H 1925.17 -1.93423 8.4679 0
M  V30 25824 H 1925.44 -1.68852 6.70877 0
M  V30 25825 H 1924.57 0.289041 8.15388 0
M  V30 25826 H 1921.92 0.927006 5.72848 0
M  V30 25827 H 1921.64 -1.86973 6.82036 0
M  V30 25828 H 1920.65 -0.403953 7.13357 0
M  V30 25829 H 1922.48 -1.20599 8.97534 0
M  V30 25830 P 1920.61 1.17771 8.83182 0
M  V30 25831 O 1920.39 2.07206 9.98732 0
M  V30 25832 O 1919.82 -0.0743816 8.81969 0
M  V30 25833 O 1920.36 1.97652 7.47304 0
M  V30 25834 C 1921.3 3.01133 7.08783 0
M  V30 25835 C 1920.57 4.12613 6.37049 0
M  V30 25836 O 1920.36 3.72827 4.97879 0
M  V30 25837 C 1919.17 4.45085 6.88694 0
M  V30 25838 O 1918.78 5.7877 6.5624 0
M  V30 25839 C 1918.29 3.47817 6.12078 0
M  V30 25840 C 1919 3.39414 4.77697 0
M  V30 25841 N 1918.95 2.04199 4.15538 0
M  V30 25842 H 1921.79 3.41248 7.98759 0
M  V30 25843 H 1922.06 2.57728 6.42 0
M  V30 25844 H 1921.19 5.02657 6.42673 0
M  V30 25845 H 1918.54 4.11708 4.08956 0
M  V30 25846 H 1918.26 2.49626 6.61679 0
M  V30 25847 H 1917.27 3.8662 6.00862 0
M  V30 25848 H 1919.1 4.29991 7.97006 0
M  V30 25849 P 1917.23 6.144 6.45285 0
M  V30 25850 O 1917.01 7.54673 6.86199 0
M  V30 25851 O 1916.44 5.12391 7.179 0
M  V30 25852 O 1916.98 5.99158 4.88404 0
M  V30 25853 C 1917.92 6.60234 3.96415 0
M  V30 25854 C 1917.19 7.08259 2.72856 0
M  V30 25855 O 1916.98 5.9427 1.83651 0
M  V30 25856 C 1915.79 7.64886 2.9555 0
M  V30 25857 O 1915.4 8.53963 1.90717 0
M  V30 25858 C 1914.91 6.4116 2.90739 0
M  V30 25859 C 1915.62 5.55375 1.86963 0
M  V30 25860 N 1915.57 4.09664 2.15742 0
M  V30 25861 H 1918.41 7.45574 4.45629 0
M  V30 25862 H 1918.68 5.86232 3.67314 0
M  V30 25863 H 1917.81 7.84412 2.24479 0
M  V30 25864 P 1913.85 8.7635 1.60911 0
M  V30 25865 O 1913.63 10.1388 1.11561 0
M  V30 25866 O 1913.06 8.36503 2.79617 0
M  V30 25867 O 1913.6 7.71806 0.42951 0
M  V30 25868 C 1914.54 7.67148 -0.673689 0
M  V30 25869 C 1913.81 7.33374 -1.95559 0
M  V30 25870 O 1913.6 5.88721 -2.00726 0
M  V30 25871 C 1912.41 7.92526 -2.10483 0
M  V30 25872 O 1912.02 8.02971 -3.47653 0
M  V30 25873 C 1911.53 6.89602 -1.41652 0
M  V30 25874 C 1912.24 5.59201 -1.75185 0
M  V30 25875 N 1912.19 4.58235 -0.662552 0
M  V30 25876 H 1915.03 8.65116 -0.777161 0
M  V30 25877 H 1915.3 6.90173 -0.474152 0
M  V30 25878 H 1914.43 7.66548 -2.79458 0
M  V30 25879 P 1910.47 8.03563 -3.84925 0
M  V30 25880 O 1910.25 8.85821 -5.0569 0
M  V30 25881 O 1909.68 8.41101 -2.65469 0
M  V30 25882 O 1910.22 6.4965 -4.18908 0
M  V30 25883 C 1911.16 5.81037 -5.05421 0
M  V30 25884 C 1910.43 4.78366 -5.89277 0
M  V30 25885 O 1910.22 3.58302 -5.08433 0
M  V30 25886 C 1909.03 5.17448 -6.36119 0
M  V30 25887 O 1908.64 4.45271 -7.53232 0
M  V30 25888 C 1908.15 4.74639 -5.19936 0
M  V30 25889 C 1908.86 3.49432 -4.70418 0
M  V30 25890 N 1908.81 3.31776 -3.22945 0
M  V30 25891 H 1911.65 6.54213 -5.71376 0
M  V30 25892 H 1911.92 5.30492 -4.44033 0
M  V30 25893 H 1911.05 4.55889 -6.76652 0
M  V30 25894 P 1907.09 4.23843 -7.83734 0
M  V30 25895 O 1906.87 4.19407 -9.29784 0
M  V30 25896 O 1906.3 5.24426 -7.09156 0
M  V30 25897 O 1906.84 2.7935 -7.20758 0
M  V30 25898 C 1907.78 1.72945 -7.50224 0
M  V30 25899 C 1907.05 0.406376 -7.57911 0
M  V30 25900 O 1906.84 -0.0897726 -6.21935 0
M  V30 25901 C 1905.65 0.438983 -8.18724 0
M  V30 25902 O 1905.26 -0.825065 -8.71101 0
M  V30 25903 C 1904.77 0.783689 -6.99524 0
M  V30 25904 C 1905.48 0.0619086 -5.85867 0
M  V30 25905 N 1905.43 0.78573 -4.56183 0
M  V30 25906 C 1905.28 0.0292889 -3.41887 0
M  V30 25907 O 1905.19 -1.18445 -3.4419 0
M  V30 25908 N 1905.24 0.744061 -2.23964 0
M  V30 25909 C 1905.33 2.10932 -2.10362 0
M  V30 25910 O 1905.28 2.64117 -0.98825 0
M  V30 25911 C 1905.48 2.8202 -3.34994 0
M  V30 25912 C 1905.59 4.31095 -3.25037 0
M  V30 25913 C 1905.53 2.15547 -4.52261 0
M  V30 25914 H 1908.27 1.93379 -8.46595 0
M  V30 25915 H 1908.54 1.68132 -6.70852 0
M  V30 25916 H 1907.67 -0.289041 -8.15388 0
M  V30 25917 H 1905.02 -0.926847 -5.72749 0
M  V30 25918 H 1904.74 1.86973 -6.82036 0
M  V30 25919 H 1903.75 0.403896 -7.13257 0
M  V30 25920 H 1905.58 1.20585 -8.97435 0
M  V30 25921 H 1905.65 2.71231 -5.45042 0
M  V30 25922 H 1904.62 4.76966 -3.49992 0
M  V30 25923 H 1906.36 4.67047 -3.95024 0
M  V30 25924 H 1905.87 4.58996 -2.22312 0
M  V30 25925 H 1905.13 0.214893 -1.39758 0
M  V30 25926 P 1903.71 -1.17771 -8.83182 0
M  V30 25927 O 1903.49 -2.07206 -9.98732 0
M  V30 25928 O 1902.92 0.0743816 -8.81969 0
M  V30 25929 O 1903.46 -1.97652 -7.47304 0
M  V30 25930 C 1904.4 -3.01133 -7.08783 0
M  V30 25931 C 1903.67 -4.12613 -6.37049 0
M  V30 25932 O 1903.46 -3.72827 -4.97879 0
M  V30 25933 C 1902.27 -4.45085 -6.88694 0
M  V30 25934 O 1901.88 -5.7877 -6.5624 0
M  V30 25935 C 1901.39 -3.47817 -6.12078 0
M  V30 25936 C 1902.1 -3.39414 -4.77697 0
M  V30 25937 N 1902.05 -2.04615 -4.15333 0
M  V30 25938 H 1904.89 -3.41248 -7.98759 0
M  V30 25939 H 1905.16 -2.5837 -6.41742 0
M  V30 25940 H 1904.29 -5.02657 -6.42673 0
M  V30 25941 P 1900.33 -6.144 -6.45285 0
M  V30 25942 O 1900.11 -7.54673 -6.86199 0
M  V30 25943 O 1899.54 -5.12391 -7.179 0
M  V30 25944 O 1900.08 -5.99158 -4.88404 0
M  V30 25945 C 1901.02 -6.60062 -3.96313 0
M  V30 25946 C 1900.29 -7.08259 -2.72856 0
M  V30 25947 O 1900.08 -5.9427 -1.83651 0
M  V30 25948 C 1898.89 -7.65087 -2.94749 0
M  V30 25949 O 1898.5 -8.53963 -1.90717 0
M  V30 25950 C 1898.01 -6.41069 -2.90698 0
M  V30 25951 C 1898.72 -5.5528 -1.86931 0
M  V30 25952 N 1898.67 -4.09575 -2.15696 0
M  V30 25953 C 1898.52 -3.24249 -1.08435 0
M  V30 25954 O 1898.43 -3.63946 0.0628747 0
M  V30 25955 N 1898.48 -1.90009 -1.39973 0
M  V30 25956 C 1898.57 -1.34884 -2.65614 0
M  V30 25957 C 1898.72 -2.3145 -3.71736 0
M  V30 25958 C 1898.77 -3.63518 -3.44754 0
M  V30 25959 H 1901.51 -7.45402 -4.45526 0
M  V30 25960 H 1901.78 -5.86062 -3.67208 0
M  V30 25961 H 1900.91 -7.84412 -2.24479 0
M  V30 25962 H 1898.26 -5.73358 -0.888409 0
M  V30 25963 H 1897.98 -5.90877 -3.88583 0
M  V30 25964 H 1896.99 -6.65867 -2.58821 0
M  V30 25965 H 1898.82 -8.16248 -3.92006 0
M  V30 25966 H 1898.89 -4.34551 -4.26383 0
M  V30 25967 P 1896.95 -8.7635 -1.60911 0
M  V30 25968 O 1896.73 -10.1388 -1.11561 0
M  V30 25969 O 1896.16 -8.36503 -2.79617 0
M  V30 25970 O 1896.7 -7.71806 -0.42951 0
M  V30 25971 C 1897.64 -7.67148 0.673689 0
M  V30 25972 C 1896.91 -7.33374 1.95559 0
M  V30 25973 O 1896.7 -5.88721 2.00726 0
M  V30 25974 C 1895.51 -7.92526 2.10483 0
M  V30 25975 O 1895.12 -8.02971 3.47653 0
M  V30 25976 C 1894.63 -6.89602 1.41652 0
M  V30 25977 C 1895.34 -5.59201 1.75185 0
M  V30 25978 N 1895.29 -4.58235 0.662552 0
M  V30 25979 H 1898.13 -8.65116 0.777161 0
M  V30 25980 H 1898.4 -6.90173 0.474152 0
M  V30 25981 H 1897.53 -7.66548 2.79458 0
M  V30 25982 P 1893.57 -8.03563 3.84925 0
M  V30 25983 O 1893.35 -8.85821 5.0569 0
M  V30 25984 O 1892.78 -8.41101 2.65469 0
M  V30 25985 O 1893.32 -6.4965 4.18908 0
M  V30 25986 C 1894.26 -5.81037 5.05421 0
M  V30 25987 C 1893.53 -4.78366 5.89277 0
M  V30 25988 O 1893.32 -3.58302 5.08433 0
M  V30 25989 C 1892.13 -5.17448 6.36119 0
M  V30 25990 O 1891.74 -4.45271 7.53232 0
M  V30 25991 C 1891.25 -4.74639 5.19936 0
M  V30 25992 C 1891.96 -3.49432 4.70418 0
M  V30 25993 N 1891.91 -3.32099 3.22613 0
M  V30 25994 C 1891.99 -4.28245 2.25527 0
M  V30 25995 N 1891.92 -3.80823 1.04874 0
M  V30 25996 C 1891.77 -2.44571 1.23535 0
M  V30 25997 C 1891.64 -1.37068 0.330675 0
M  V30 25998 N 1891.63 -1.51472 -0.990824 0
M  V30 25999 N 1891.52 -0.138614 0.848756 0
M  V30 26000 C 1891.53 0.00675923 2.16999 0
M  V30 26001 N 1891.65 -0.904372 3.11122 0
M  V30 26002 C 1891.77 -2.12707 2.56212 0
M  V30 26003 H 1894.75 -6.54213 5.71376 0
M  V30 26004 H 1895.02 -5.30936 4.43503 0
M  V30 26005 H 1894.15 -4.55889 6.76652 0
M  V30 26006 H 1891.5 -2.61715 5.17932 0
M  V30 26007 H 1891.22 -5.52155 4.41878 0
M  V30 26008 H 1890.23 -4.51981 5.53374 0
M  V30 26009 H 1892.06 -6.25124 6.55234 0
M  V30 26010 H 1892.1 -5.34372 2.47488 0
M  V30 26011 H 1891.72 -2.45153 -1.4078 0
M  V30 26012 H 1891.53 -0.688422 -1.59911 0
M  V30 26013 H 1891.42 1.02584 2.52346 0
M  V30 26014 P 1890.19 -4.23843 7.83734 0
M  V30 26015 O 1889.97 -4.19407 9.29784 0
M  V30 26016 O 1889.4 -5.24426 7.09156 0
M  V30 26017 O 1889.94 -2.7935 7.20758 0
M  V30 26018 C 1890.88 -1.7299 7.50419 0
M  V30 26019 C 1890.15 -0.406376 7.57911 0
M  V30 26020 O 1889.94 0.0897726 6.21935 0
M  V30 26021 C 1888.75 -0.447224 8.1878 0
M  V30 26022 O 1888.36 0.825065 8.71101 0
M  V30 26023 C 1887.87 -0.783801 6.99623 0
M  V30 26024 C 1888.58 -0.0619192 5.85967 0
M  V30 26025 N 1888.53 -0.7859 4.56281 0
M  V30 26026 H 1891.37 -1.93423 8.4679 0
M  V30 26027 H 1891.64 -1.68181 6.71046 0
M  V30 26028 H 1890.77 0.289041 8.15388 0
M  V30 26029 P 1886.81 1.17771 8.83182 0
M  V30 26030 O 1886.59 2.07206 9.98732 0
M  V30 26031 O 1886.02 -0.0743816 8.81969 0
M  V30 26032 O 1886.56 1.97652 7.47304 0
M  V30 26033 C 1887.5 3.01133 7.08783 0
M  V30 26034 C 1886.77 4.12613 6.37049 0
M  V30 26035 O 1886.56 3.72827 4.97879 0
M  V30 26036 C 1885.37 4.45085 6.88694 0
M  V30 26037 O 1884.98 5.7877 6.5624 0
M  V30 26038 C 1884.49 3.47817 6.12078 0
M  V30 26039 C 1885.2 3.39414 4.77697 0
M  V30 26040 N 1885.15 2.04615 4.15333 0
M  V30 26041 H 1887.99 3.41248 7.98759 0
M  V30 26042 H 1888.26 2.5837 6.41742 0
M  V30 26043 H 1887.39 5.02657 6.42673 0
M  V30 26044 P 1883.43 6.144 6.45285 0
M  V30 26045 O 1883.21 7.54673 6.86199 0
M  V30 26046 O 1882.64 5.12391 7.179 0
M  V30 26047 O 1883.18 5.99158 4.88404 0
M  V30 26048 C 1884.12 6.60234 3.96415 0
M  V30 26049 C 1883.39 7.08259 2.72856 0
M  V30 26050 O 1883.18 5.9427 1.83651 0
M  V30 26051 C 1881.99 7.64886 2.9555 0
M  V30 26052 O 1881.6 8.53963 1.90717 0
M  V30 26053 C 1881.11 6.4116 2.90739 0
M  V30 26054 C 1881.82 5.55375 1.86963 0
M  V30 26055 N 1881.77 4.09664 2.15742 0
M  V30 26056 H 1884.61 7.45574 4.45629 0
M  V30 26057 H 1884.88 5.86232 3.67314 0
M  V30 26058 H 1884.01 7.84412 2.24479 0
M  V30 26059 P 1880.05 8.7635 1.60911 0
M  V30 26060 O 1879.83 10.1388 1.11561 0
M  V30 26061 O 1879.26 8.36503 2.79617 0
M  V30 26062 O 1879.8 7.71806 0.42951 0
M  V30 26063 C 1880.74 7.67148 -0.673689 0
M  V30 26064 C 1880.01 7.33374 -1.95559 0
M  V30 26065 O 1879.8 5.88721 -2.00726 0
M  V30 26066 C 1878.61 7.92526 -2.10483 0
M  V30 26067 O 1878.22 8.02971 -3.47653 0
M  V30 26068 C 1877.73 6.89602 -1.41652 0
M  V30 26069 C 1878.44 5.59201 -1.75185 0
M  V30 26070 N 1878.39 4.58301 -0.657969 0
M  V30 26071 H 1881.23 8.65116 -0.777161 0
M  V30 26072 H 1881.5 6.9022 -0.46725 0
M  V30 26073 H 1880.63 7.66548 -2.79458 0
M  V30 26074 H 1877.98 5.16165 -2.65183 0
M  V30 26075 H 1877.7 7.06433 -0.329384 0
M  V30 26076 H 1876.71 6.90926 -1.82021 0
M  V30 26077 H 1878.54 8.90873 -1.62657 0
M  V30 26078 P 1876.67 8.03563 -3.84925 0
M  V30 26079 O 1876.45 8.85821 -5.0569 0
M  V30 26080 O 1875.88 8.41101 -2.65469 0
M  V30 26081 O 1876.42 6.4965 -4.18908 0
M  V30 26082 C 1877.36 5.81037 -5.05421 0
M  V30 26083 C 1876.63 4.78366 -5.89277 0
M  V30 26084 O 1876.42 3.58302 -5.08433 0
M  V30 26085 C 1875.23 5.17448 -6.36119 0
M  V30 26086 O 1874.84 4.45271 -7.53232 0
M  V30 26087 C 1874.35 4.74639 -5.19936 0
M  V30 26088 C 1875.06 3.49432 -4.70418 0
M  V30 26089 N 1875.01 3.31776 -3.22945 0
M  V30 26090 H 1877.85 6.54213 -5.71376 0
M  V30 26091 H 1878.12 5.30492 -4.44033 0
M  V30 26092 H 1877.25 4.55889 -6.76652 0
M  V30 26093 P 1873.29 4.23843 -7.83734 0
M  V30 26094 O 1873.07 4.19407 -9.29784 0
M  V30 26095 O 1872.5 5.24426 -7.09156 0
M  V30 26096 O 1873.04 2.7935 -7.20758 0
M  V30 26097 C 1873.98 1.7299 -7.50419 0
M  V30 26098 C 1873.25 0.406376 -7.57911 0
M  V30 26099 O 1873.04 -0.0897726 -6.21935 0
M  V30 26100 C 1871.85 0.447224 -8.1878 0
M  V30 26101 O 1871.46 -0.825065 -8.71101 0
M  V30 26102 C 1870.97 0.783801 -6.99623 0
M  V30 26103 C 1871.68 0.0619192 -5.85967 0
M  V30 26104 N 1871.63 0.7859 -4.56281 0
M  V30 26105 H 1874.47 1.93423 -8.4679 0
M  V30 26106 H 1874.74 1.68181 -6.71046 0
M  V30 26107 H 1873.87 -0.289041 -8.15388 0
M  V30 26108 P 1869.91 -1.17771 -8.83182 0
M  V30 26109 O 1869.69 -2.07206 -9.98732 0
M  V30 26110 O 1869.12 0.0743816 -8.81969 0
M  V30 26111 O 1869.66 -1.97652 -7.47304 0
M  V30 26112 C 1870.6 -3.01133 -7.08783 0
M  V30 26113 C 1869.87 -4.12613 -6.37049 0
M  V30 26114 O 1869.66 -3.72827 -4.97879 0
M  V30 26115 C 1868.47 -4.45085 -6.88694 0
M  V30 26116 O 1868.08 -5.7877 -6.5624 0
M  V30 26117 C 1867.59 -3.47817 -6.12078 0
M  V30 26118 C 1868.3 -3.39414 -4.77697 0
M  V30 26119 N 1868.25 -2.04615 -4.15333 0
M  V30 26120 H 1871.09 -3.41248 -7.98759 0
M  V30 26121 H 1871.36 -2.5837 -6.41742 0
M  V30 26122 H 1870.49 -5.02657 -6.42673 0
M  V30 26123 P 1866.53 -6.144 -6.45285 0
M  V30 26124 O 1866.31 -7.54673 -6.86199 0
M  V30 26125 O 1865.74 -5.12391 -7.179 0
M  V30 26126 O 1866.28 -5.99158 -4.88404 0
M  V30 26127 C 1867.22 -6.60234 -3.96415 0
M  V30 26128 C 1866.49 -7.08259 -2.72856 0
M  V30 26129 O 1866.28 -5.9427 -1.83651 0
M  V30 26130 C 1865.09 -7.64886 -2.9555 0
M  V30 26131 O 1864.7 -8.53963 -1.90717 0
M  V30 26132 C 1864.21 -6.4116 -2.90739 0
M  V30 26133 C 1864.92 -5.55375 -1.86963 0
M  V30 26134 N 1864.87 -4.09664 -2.15742 0
M  V30 26135 H 1867.71 -7.45574 -4.45629 0
M  V30 26136 H 1867.98 -5.86232 -3.67314 0
M  V30 26137 H 1867.11 -7.84412 -2.24479 0
M  V30 26138 P 1863.15 -8.7635 -1.60911 0
M  V30 26139 O 1862.93 -10.1388 -1.11561 0
M  V30 26140 O 1862.36 -8.36503 -2.79617 0
M  V30 26141 O 1862.9 -7.71806 -0.42951 0
M  V30 26142 C 1863.84 -7.67148 0.673689 0
M  V30 26143 C 1863.11 -7.33374 1.95559 0
M  V30 26144 O 1862.9 -5.88721 2.00726 0
M  V30 26145 C 1861.71 -7.92526 2.10483 0
M  V30 26146 O 1861.32 -8.02971 3.47653 0
M  V30 26147 C 1860.83 -6.89602 1.41652 0
M  V30 26148 C 1861.54 -5.59201 1.75185 0
M  V30 26149 N 1861.49 -4.58235 0.662552 0
M  V30 26150 H 1864.33 -8.65116 0.777161 0
M  V30 26151 H 1864.6 -6.90173 0.474152 0
M  V30 26152 H 1863.73 -7.66548 2.79458 0
M  V30 26153 P 1859.77 -8.03563 3.84925 0
M  V30 26154 O 1859.55 -8.85821 5.0569 0
M  V30 26155 O 1858.98 -8.41101 2.65469 0
M  V30 26156 O 1859.52 -6.4965 4.18908 0
M  V30 26157 C 1860.46 -5.81037 5.05421 0
M  V30 26158 C 1859.73 -4.78366 5.89277 0
M  V30 26159 O 1859.52 -3.58302 5.08433 0
M  V30 26160 C 1858.33 -5.17448 6.36119 0
M  V30 26161 O 1857.94 -4.45271 7.53232 0
M  V30 26162 C 1857.45 -4.74639 5.19936 0
M  V30 26163 C 1858.16 -3.49432 4.70418 0
M  V30 26164 N 1858.11 -3.32099 3.22613 0
M  V30 26165 H 1860.95 -6.54213 5.71376 0
M  V30 26166 H 1861.22 -5.30936 4.43503 0
M  V30 26167 H 1860.35 -4.55889 6.76652 0
M  V30 26168 H 1857.7 -2.61715 5.17932 0
M  V30 26169 H 1857.42 -5.52155 4.41878 0
M  V30 26170 H 1856.43 -4.51981 5.53374 0
M  V30 26171 H 1858.26 -6.25124 6.55234 0
M  V30 26172 P 1856.39 -4.23843 7.83734 0
M  V30 26173 O 1856.17 -4.19407 9.29784 0
M  V30 26174 O 1855.6 -5.24426 7.09156 0
M  V30 26175 O 1856.14 -2.7935 7.20758 0
M  V30 26176 C 1857.08 -1.7299 7.50419 0
M  V30 26177 C 1856.35 -0.406376 7.57911 0
M  V30 26178 O 1856.14 0.0897726 6.21935 0
M  V30 26179 C 1854.95 -0.447224 8.1878 0
M  V30 26180 O 1854.56 0.825065 8.71101 0
M  V30 26181 C 1854.07 -0.783801 6.99623 0
M  V30 26182 C 1854.78 -0.0619192 5.85967 0
M  V30 26183 N 1854.73 -0.7859 4.56281 0
M  V30 26184 H 1857.57 -1.93423 8.4679 0
M  V30 26185 H 1857.84 -1.68181 6.71046 0
M  V30 26186 H 1856.97 0.289041 8.15388 0
M  V30 26187 P 1853.01 1.17771 8.83182 0
M  V30 26188 O 1852.79 2.07206 9.98732 0
M  V30 26189 O 1852.22 -0.0743816 8.81969 0
M  V30 26190 O 1852.76 1.97652 7.47304 0
M  V30 26191 C 1853.7 3.01133 7.08783 0
M  V30 26192 C 1852.97 4.12613 6.37049 0
M  V30 26193 O 1852.76 3.72827 4.97879 0
M  V30 26194 C 1851.57 4.45085 6.88694 0
M  V30 26195 O 1851.18 5.7877 6.5624 0
M  V30 26196 C 1850.69 3.47817 6.12078 0
M  V30 26197 C 1851.4 3.39414 4.77697 0
M  V30 26198 N 1851.35 2.04199 4.15538 0
M  V30 26199 H 1854.19 3.41248 7.98759 0
M  V30 26200 H 1854.46 2.57728 6.42 0
M  V30 26201 H 1853.59 5.02657 6.42673 0
M  V30 26202 H 1850.94 4.11708 4.08956 0
M  V30 26203 H 1850.66 2.49626 6.61679 0
M  V30 26204 H 1849.67 3.8662 6.00862 0
M  V30 26205 H 1851.5 4.29991 7.97006 0
M  V30 26206 P 1849.63 6.144 6.45285 0
M  V30 26207 O 1849.41 7.54673 6.86199 0
M  V30 26208 O 1848.84 5.12391 7.179 0
M  V30 26209 O 1849.38 5.99158 4.88404 0
M  V30 26210 C 1850.32 6.60234 3.96415 0
M  V30 26211 C 1849.59 7.08259 2.72856 0
M  V30 26212 O 1849.38 5.9427 1.83651 0
M  V30 26213 C 1848.19 7.64886 2.9555 0
M  V30 26214 O 1847.8 8.53963 1.90717 0
M  V30 26215 C 1847.31 6.4116 2.90739 0
M  V30 26216 C 1848.02 5.55375 1.86963 0
M  V30 26217 N 1847.97 4.09664 2.15742 0
M  V30 26218 H 1850.81 7.45574 4.45629 0
M  V30 26219 H 1851.08 5.86232 3.67314 0
M  V30 26220 H 1850.21 7.84412 2.24479 0
M  V30 26221 P 1846.25 8.7635 1.60911 0
M  V30 26222 O 1846.03 10.1388 1.11561 0
M  V30 26223 O 1845.46 8.36503 2.79617 0
M  V30 26224 O 1846 7.71806 0.42951 0
M  V30 26225 C 1846.94 7.67148 -0.673689 0
M  V30 26226 C 1846.21 7.33374 -1.95559 0
M  V30 26227 O 1846 5.88721 -2.00726 0
M  V30 26228 C 1844.81 7.92526 -2.10483 0
M  V30 26229 O 1844.42 8.02971 -3.47653 0
M  V30 26230 C 1843.93 6.89602 -1.41652 0
M  V30 26231 C 1844.64 5.59201 -1.75185 0
M  V30 26232 N 1844.59 4.58301 -0.657969 0
M  V30 26233 H 1847.43 8.65116 -0.777161 0
M  V30 26234 H 1847.7 6.9022 -0.46725 0
M  V30 26235 H 1846.83 7.66548 -2.79458 0
M  V30 26236 H 1844.18 5.16165 -2.65183 0
M  V30 26237 H 1843.9 7.06433 -0.329384 0
M  V30 26238 H 1842.91 6.90926 -1.82021 0
M  V30 26239 H 1844.74 8.90873 -1.62657 0
M  V30 26240 P 1842.87 8.03563 -3.84925 0
M  V30 26241 O 1842.65 8.85821 -5.0569 0
M  V30 26242 O 1842.08 8.41101 -2.65469 0
M  V30 26243 O 1842.62 6.4965 -4.18908 0
M  V30 26244 C 1843.56 5.81037 -5.05421 0
M  V30 26245 C 1842.83 4.78366 -5.89277 0
M  V30 26246 O 1842.62 3.58302 -5.08433 0
M  V30 26247 C 1841.43 5.17448 -6.36119 0
M  V30 26248 O 1841.04 4.45271 -7.53232 0
M  V30 26249 C 1840.55 4.74639 -5.19936 0
M  V30 26250 C 1841.26 3.49432 -4.70418 0
M  V30 26251 N 1841.21 3.31776 -3.22945 0
M  V30 26252 H 1844.05 6.54213 -5.71376 0
M  V30 26253 H 1844.32 5.30492 -4.44033 0
M  V30 26254 H 1843.45 4.55889 -6.76652 0
M  V30 26255 P 1839.49 4.23843 -7.83734 0
M  V30 26256 O 1839.27 4.19407 -9.29784 0
M  V30 26257 O 1838.7 5.24426 -7.09156 0
M  V30 26258 O 1839.24 2.79386 -7.20852 0
M  V30 26259 C 1840.18 1.7299 -7.50419 0
M  V30 26260 C 1839.45 0.41401 -7.5797 0
M  V30 26261 O 1839.24 -0.089787 -6.22035 0
M  V30 26262 C 1838.05 0.447224 -8.1878 0
M  V30 26263 O 1837.66 -0.825159 -8.71201 0
M  V30 26264 C 1837.17 0.783801 -6.99623 0
M  V30 26265 C 1837.88 0.0619192 -5.85967 0
M  V30 26266 N 1837.83 0.7859 -4.56281 0
M  V30 26267 C 1837.68 0.0359258 -3.39981 0
M  V30 26268 O 1837.59 -1.19723 -3.49038 0
M  V30 26269 N 1837.63 0.869151 -2.14025 0
M  V30 26270 C 1837.73 2.01207 -2.14363 0
M  V30 26271 N 1837.68 2.58978 -0.954287 0
M  V30 26272 C 1837.88 2.80817 -3.32215 0
M  V30 26273 C 1837.93 2.13785 -4.50884 0
M  V30 26274 H 1840.67 1.93401 -8.46693 0
M  V30 26275 H 1840.94 1.68181 -6.71046 0
M  V30 26276 H 1840.07 -0.289076 -8.15488 0
M  V30 26277 H 1837.42 -0.927166 -5.72947 0
M  V30 26278 H 1837.14 1.87 -6.82132 0
M  V30 26279 H 1836.15 0.404009 -7.13457 0
M  V30 26280 H 1837.98 1.20599 -8.97534 0
M  V30 26281 H 1838.05 2.70295 -5.43162 0
M  V30 26282 H 1837.95 3.89465 -3.27406 0
M  V30 26283 H 1837.56 2.01616 -0.107046 0
M  V30 26284 H 1837.76 3.61403 -0.873101 0
M  V30 26285 P 1836.11 -1.17771 -8.83182 0
M  V30 26286 O 1835.89 -2.07206 -9.98732 0
M  V30 26287 O 1835.32 0.0743816 -8.81969 0
M  V30 26288 O 1835.86 -1.97652 -7.47304 0
M  V30 26289 C 1836.8 -3.01133 -7.08783 0
M  V30 26290 C 1836.07 -4.12613 -6.37049 0
M  V30 26291 O 1835.86 -3.72827 -4.97879 0
M  V30 26292 C 1834.67 -4.45085 -6.88694 0
M  V30 26293 O 1834.28 -5.7877 -6.5624 0
M  V30 26294 C 1833.79 -3.47817 -6.12078 0
M  V30 26295 C 1834.5 -3.39414 -4.77697 0
M  V30 26296 N 1834.45 -2.04615 -4.15333 0
M  V30 26297 H 1837.29 -3.41248 -7.98759 0
M  V30 26298 H 1837.56 -2.5837 -6.41742 0
M  V30 26299 H 1836.69 -5.02657 -6.42673 0
M  V30 26300 P 1832.73 -6.144 -6.45285 0
M  V30 26301 O 1832.51 -7.54673 -6.86199 0
M  V30 26302 O 1831.94 -5.12391 -7.179 0
M  V30 26303 O 1832.48 -5.99158 -4.88404 0
M  V30 26304 C 1833.42 -6.60062 -3.96313 0
M  V30 26305 C 1832.69 -7.08259 -2.72856 0
M  V30 26306 O 1832.48 -5.9427 -1.83651 0
M  V30 26307 C 1831.29 -7.65087 -2.94749 0
M  V30 26308 O 1830.9 -8.53963 -1.90717 0
M  V30 26309 C 1830.41 -6.41069 -2.90698 0
M  V30 26310 C 1831.12 -5.5528 -1.86931 0
M  V30 26311 N 1831.07 -4.09575 -2.15696 0
M  V30 26312 C 1830.92 -3.24249 -1.08435 0
M  V30 26313 O 1830.83 -3.63946 0.0628747 0
M  V30 26314 N 1830.88 -1.90009 -1.39973 0
M  V30 26315 C 1830.97 -1.34884 -2.65614 0
M  V30 26316 C 1831.12 -2.3145 -3.71736 0
M  V30 26317 C 1831.17 -3.63518 -3.44754 0
M  V30 26318 H 1833.91 -7.45402 -4.45526 0
M  V30 26319 H 1834.18 -5.86062 -3.67208 0
M  V30 26320 H 1833.31 -7.84412 -2.24479 0
M  V30 26321 H 1830.66 -5.73358 -0.888409 0
M  V30 26322 H 1830.38 -5.90877 -3.88583 0
M  V30 26323 H 1829.39 -6.65867 -2.58821 0
M  V30 26324 H 1831.22 -8.16248 -3.92006 0
M  V30 26325 H 1831.29 -4.34551 -4.26383 0
M  V30 26326 P 1829.35 -8.7635 -1.60911 0
M  V30 26327 O 1829.13 -10.1388 -1.11561 0
M  V30 26328 O 1828.56 -8.36503 -2.79617 0
M  V30 26329 O 1829.1 -7.71806 -0.42951 0
M  V30 26330 C 1830.04 -7.67148 0.673689 0
M  V30 26331 C 1829.31 -7.33374 1.95559 0
M  V30 26332 O 1829.1 -5.88721 2.00726 0
M  V30 26333 C 1827.91 -7.92526 2.10483 0
M  V30 26334 O 1827.52 -8.02971 3.47653 0
M  V30 26335 C 1827.03 -6.89602 1.41652 0
M  V30 26336 C 1827.74 -5.59201 1.75185 0
M  V30 26337 N 1827.69 -4.58235 0.662552 0
M  V30 26338 H 1830.53 -8.65116 0.777161 0
M  V30 26339 H 1830.8 -6.90173 0.474152 0
M  V30 26340 H 1829.93 -7.66548 2.79458 0
M  V30 26341 P 1825.97 -8.03563 3.84925 0
M  V30 26342 O 1825.75 -8.85821 5.0569 0
M  V30 26343 O 1825.18 -8.41101 2.65469 0
M  V30 26344 O 1825.72 -6.4965 4.18908 0
M  V30 26345 C 1826.66 -5.81037 5.05421 0
M  V30 26346 C 1825.93 -4.78366 5.89277 0
M  V30 26347 O 1825.72 -3.58302 5.08433 0
M  V30 26348 C 1824.53 -5.17448 6.36119 0
M  V30 26349 O 1824.14 -4.45271 7.53232 0
M  V30 26350 C 1823.65 -4.74639 5.19936 0
M  V30 26351 C 1824.36 -3.49432 4.70418 0
M  V30 26352 N 1824.31 -3.31776 3.22945 0
M  V30 26353 H 1827.15 -6.54213 5.71376 0
M  V30 26354 H 1827.42 -5.30492 4.44033 0
M  V30 26355 H 1826.55 -4.55889 6.76652 0
M  V30 26356 P 1822.59 -4.23843 7.83734 0
M  V30 26357 O 1822.37 -4.19407 9.29784 0
M  V30 26358 O 1821.8 -5.24426 7.09156 0
M  V30 26359 O 1822.34 -2.7935 7.20758 0
M  V30 26360 C 1823.28 -1.72945 7.50224 0
M  V30 26361 C 1822.55 -0.406376 7.57911 0
M  V30 26362 O 1822.34 0.0897726 6.21935 0
M  V30 26363 C 1821.15 -0.438983 8.18724 0
M  V30 26364 O 1820.76 0.825065 8.71101 0
M  V30 26365 C 1820.27 -0.783689 6.99524 0
M  V30 26366 C 1820.98 -0.0619086 5.85867 0
M  V30 26367 N 1820.93 -0.78573 4.56183 0
M  V30 26368 C 1820.78 -0.0292889 3.41887 0
M  V30 26369 O 1820.69 1.18445 3.4419 0
M  V30 26370 N 1820.74 -0.744061 2.23964 0
M  V30 26371 C 1820.83 -2.10932 2.10362 0
M  V30 26372 C 1820.98 -2.8202 3.34994 0
M  V30 26373 C 1821.03 -2.15547 4.52261 0
M  V30 26374 H 1823.77 -1.93379 8.46595 0
M  V30 26375 H 1824.04 -1.68132 6.70852 0
M  V30 26376 H 1823.17 0.289041 8.15388 0
M  V30 26377 H 1820.52 0.926847 5.72749 0
M  V30 26378 H 1820.24 -1.86973 6.82036 0
M  V30 26379 H 1819.25 -0.403896 7.13257 0
M  V30 26380 H 1821.08 -1.20585 8.97435 0
M  V30 26381 H 1821.15 -2.71231 5.45042 0
M  V30 26382 P 1819.21 1.17771 8.83182 0
M  V30 26383 O 1818.99 2.07206 9.98732 0
M  V30 26384 O 1818.42 -0.0743816 8.81969 0
M  V30 26385 O 1818.96 1.97652 7.47304 0
M  V30 26386 C 1819.9 3.01133 7.08783 0
M  V30 26387 C 1819.17 4.12613 6.37049 0
M  V30 26388 O 1818.96 3.72827 4.97879 0
M  V30 26389 C 1817.77 4.45085 6.88694 0
M  V30 26390 O 1817.38 5.7877 6.5624 0
M  V30 26391 C 1816.89 3.47817 6.12078 0
M  V30 26392 C 1817.6 3.39414 4.77697 0
M  V30 26393 N 1817.55 2.04199 4.15538 0
M  V30 26394 H 1820.39 3.41248 7.98759 0
M  V30 26395 H 1820.66 2.57728 6.42 0
M  V30 26396 H 1819.79 5.02657 6.42673 0
M  V30 26397 H 1817.14 4.11708 4.08956 0
M  V30 26398 H 1816.86 2.49626 6.61679 0
M  V30 26399 H 1815.87 3.8662 6.00862 0
M  V30 26400 H 1817.7 4.29991 7.97006 0
M  V30 26401 P 1815.83 6.144 6.45285 0
M  V30 26402 O 1815.61 7.54673 6.86199 0
M  V30 26403 O 1815.04 5.12391 7.179 0
M  V30 26404 O 1815.58 5.99158 4.88404 0
M  V30 26405 C 1816.52 6.60234 3.96415 0
M  V30 26406 C 1815.79 7.08259 2.72856 0
M  V30 26407 O 1815.58 5.9427 1.83651 0
M  V30 26408 C 1814.39 7.64886 2.9555 0
M  V30 26409 O 1814 8.53963 1.90717 0
M  V30 26410 C 1813.51 6.4116 2.90739 0
M  V30 26411 C 1814.22 5.55375 1.86963 0
M  V30 26412 N 1814.17 4.09664 2.15742 0
M  V30 26413 H 1817.01 7.45574 4.45629 0
M  V30 26414 H 1817.28 5.86232 3.67314 0
M  V30 26415 H 1816.41 7.84412 2.24479 0
M  V30 26416 P 1812.45 8.7635 1.60911 0
M  V30 26417 O 1812.23 10.1388 1.11561 0
M  V30 26418 O 1811.66 8.36503 2.79617 0
M  V30 26419 O 1812.2 7.71806 0.42951 0
M  V30 26420 C 1813.14 7.67148 -0.673689 0
M  V30 26421 C 1812.41 7.33374 -1.95559 0
M  V30 26422 O 1812.2 5.88721 -2.00726 0
M  V30 26423 C 1811.01 7.92526 -2.10483 0
M  V30 26424 O 1810.62 8.02971 -3.47653 0
M  V30 26425 C 1810.13 6.89602 -1.41652 0
M  V30 26426 C 1810.84 5.59201 -1.75185 0
M  V30 26427 N 1810.79 4.58235 -0.662552 0
M  V30 26428 H 1813.63 8.65116 -0.777161 0
M  V30 26429 H 1813.9 6.90173 -0.474152 0
M  V30 26430 H 1813.03 7.66548 -2.79458 0
M  V30 26431 P 1809.07 8.03563 -3.84925 0
M  V30 26432 O 1808.85 8.85821 -5.0569 0
M  V30 26433 O 1808.28 8.41101 -2.65469 0
M  V30 26434 O 1808.82 6.4965 -4.18908 0
M  V30 26435 C 1809.76 5.81037 -5.05421 0
M  V30 26436 C 1809.03 4.78366 -5.89277 0
M  V30 26437 O 1808.82 3.58302 -5.08433 0
M  V30 26438 C 1807.63 5.17448 -6.36119 0
M  V30 26439 O 1807.24 4.45271 -7.53232 0
M  V30 26440 C 1806.75 4.74639 -5.19936 0
M  V30 26441 C 1807.46 3.49432 -4.70418 0
M  V30 26442 N 1807.41 3.31776 -3.22945 0
M  V30 26443 H 1810.25 6.54213 -5.71376 0
M  V30 26444 H 1810.52 5.30492 -4.44033 0
M  V30 26445 H 1809.65 4.55889 -6.76652 0
M  V30 26446 P 1805.69 4.23843 -7.83734 0
M  V30 26447 O 1805.47 4.19407 -9.29784 0
M  V30 26448 O 1804.9 5.24426 -7.09156 0
M  V30 26449 O 1805.44 2.7935 -7.20758 0
M  V30 26450 C 1806.38 1.7299 -7.50419 0
M  V30 26451 C 1805.65 0.406376 -7.57911 0
M  V30 26452 O 1805.44 -0.0897726 -6.21935 0
M  V30 26453 C 1804.25 0.447224 -8.1878 0
M  V30 26454 O 1803.86 -0.825065 -8.71101 0
M  V30 26455 C 1803.37 0.783801 -6.99623 0
M  V30 26456 C 1804.08 0.0619192 -5.85967 0
M  V30 26457 N 1804.03 0.7859 -4.56281 0
M  V30 26458 H 1806.87 1.93423 -8.4679 0
M  V30 26459 H 1807.14 1.68181 -6.71046 0
M  V30 26460 H 1806.27 -0.289041 -8.15388 0
M  V30 26461 P 1802.31 -1.17771 -8.83182 0
M  V30 26462 O 1802.09 -2.07206 -9.98732 0
M  V30 26463 O 1801.52 0.0743816 -8.81969 0
M  V30 26464 O 1802.06 -1.97652 -7.47304 0
M  V30 26465 C 1803 -3.01133 -7.08783 0
M  V30 26466 C 1802.27 -4.12613 -6.37049 0
M  V30 26467 O 1802.06 -3.72827 -4.97879 0
M  V30 26468 C 1800.87 -4.45085 -6.88694 0
M  V30 26469 O 1800.48 -5.7877 -6.5624 0
M  V30 26470 C 1799.99 -3.47817 -6.12078 0
M  V30 26471 C 1800.7 -3.39414 -4.77697 0
M  V30 26472 N 1800.65 -2.04615 -4.15333 0
M  V30 26473 H 1803.49 -3.41248 -7.98759 0
M  V30 26474 H 1803.76 -2.5837 -6.41742 0
M  V30 26475 H 1802.89 -5.02657 -6.42673 0
M  V30 26476 P 1798.93 -6.144 -6.45285 0
M  V30 26477 O 1798.71 -7.54673 -6.86199 0
M  V30 26478 O 1798.14 -5.12391 -7.179 0
M  V30 26479 O 1798.68 -5.99158 -4.88404 0
M  V30 26480 C 1799.62 -6.60234 -3.96415 0
M  V30 26481 C 1798.89 -7.08259 -2.72856 0
M  V30 26482 O 1798.68 -5.9427 -1.83651 0
M  V30 26483 C 1797.49 -7.64886 -2.9555 0
M  V30 26484 O 1797.1 -8.53963 -1.90717 0
M  V30 26485 C 1796.61 -6.4116 -2.90739 0
M  V30 26486 C 1797.32 -5.55375 -1.86963 0
M  V30 26487 N 1797.27 -4.09664 -2.15742 0
M  V30 26488 H 1800.11 -7.45574 -4.45629 0
M  V30 26489 H 1800.38 -5.86232 -3.67314 0
M  V30 26490 H 1799.51 -7.84412 -2.24479 0
M  V30 26491 P 1795.55 -8.7635 -1.60911 0
M  V30 26492 O 1795.33 -10.1388 -1.11561 0
M  V30 26493 O 1794.76 -8.36503 -2.79617 0
M  V30 26494 O 1795.3 -7.71806 -0.42951 0
M  V30 26495 C 1796.24 -7.67148 0.673689 0
M  V30 26496 C 1795.51 -7.33374 1.95559 0
M  V30 26497 O 1795.3 -5.88721 2.00726 0
M  V30 26498 C 1794.11 -7.92526 2.10483 0
M  V30 26499 O 1793.72 -8.02971 3.47653 0
M  V30 26500 C 1793.23 -6.89602 1.41652 0
M  V30 26501 C 1793.94 -5.59201 1.75185 0
M  V30 26502 N 1793.89 -4.58235 0.662552 0
M  V30 26503 H 1796.73 -8.65116 0.777161 0
M  V30 26504 H 1797 -6.90173 0.474152 0
M  V30 26505 H 1796.13 -7.66548 2.79458 0
M  V30 26506 P 1792.17 -8.03563 3.84925 0
M  V30 26507 O 1791.95 -8.85821 5.0569 0
M  V30 26508 O 1791.38 -8.41101 2.65469 0
M  V30 26509 O 1791.92 -6.4965 4.18908 0
M  V30 26510 C 1792.86 -5.81037 5.05421 0
M  V30 26511 C 1792.13 -4.78366 5.89277 0
M  V30 26512 O 1791.92 -3.58302 5.08433 0
M  V30 26513 C 1790.73 -5.17448 6.36119 0
M  V30 26514 O 1790.34 -4.45271 7.53232 0
M  V30 26515 C 1789.85 -4.74639 5.19936 0
M  V30 26516 C 1790.56 -3.49432 4.70418 0
M  V30 26517 N 1790.51 -3.31776 3.22945 0
M  V30 26518 H 1793.35 -6.54213 5.71376 0
M  V30 26519 H 1793.62 -5.30492 4.44033 0
M  V30 26520 H 1792.75 -4.55889 6.76652 0
M  V30 26521 P 1788.79 -4.23843 7.83734 0
M  V30 26522 O 1788.57 -4.19407 9.29784 0
M  V30 26523 O 1788 -5.24426 7.09156 0
M  V30 26524 O 1788.54 -2.7935 7.20758 0
M  V30 26525 C 1789.48 -1.7299 7.50419 0
M  V30 26526 C 1788.75 -0.406376 7.57911 0
M  V30 26527 O 1788.54 0.0897726 6.21935 0
M  V30 26528 C 1787.35 -0.447224 8.1878 0
M  V30 26529 O 1786.96 0.825065 8.71101 0
M  V30 26530 C 1786.47 -0.783801 6.99623 0
M  V30 26531 C 1787.18 -0.0619192 5.85967 0
M  V30 26532 N 1787.13 -0.7859 4.56281 0
M  V30 26533 H 1789.97 -1.93423 8.4679 0
M  V30 26534 H 1790.24 -1.68181 6.71046 0
M  V30 26535 H 1789.37 0.289041 8.15388 0
M  V30 26536 P 1785.41 1.17771 8.83182 0
M  V30 26537 O 1785.19 2.07206 9.98732 0
M  V30 26538 O 1784.62 -0.0743816 8.81969 0
M  V30 26539 O 1785.16 1.97652 7.47304 0
M  V30 26540 C 1786.1 3.01133 7.08783 0
M  V30 26541 C 1785.37 4.12613 6.37049 0
M  V30 26542 O 1785.16 3.72827 4.97879 0
M  V30 26543 C 1783.97 4.45085 6.88694 0
M  V30 26544 O 1783.58 5.7877 6.5624 0
M  V30 26545 C 1783.09 3.47817 6.12078 0
M  V30 26546 C 1783.8 3.39414 4.77697 0
M  V30 26547 N 1783.75 2.04615 4.15333 0
M  V30 26548 H 1786.59 3.41248 7.98759 0
M  V30 26549 H 1786.86 2.5837 6.41742 0
M  V30 26550 H 1785.99 5.02657 6.42673 0
M  V30 26551 P 1782.03 6.144 6.45285 0
M  V30 26552 O 1781.81 7.54673 6.86199 0
M  V30 26553 O 1781.24 5.12391 7.179 0
M  V30 26554 O 1781.78 5.99158 4.88404 0
M  V30 26555 C 1782.72 6.60234 3.96415 0
M  V30 26556 C 1781.99 7.08259 2.72856 0
M  V30 26557 O 1781.78 5.9427 1.83651 0
M  V30 26558 C 1780.59 7.64886 2.9555 0
M  V30 26559 O 1780.2 8.53963 1.90717 0
M  V30 26560 C 1779.71 6.4116 2.90739 0
M  V30 26561 C 1780.42 5.55375 1.86963 0
M  V30 26562 N 1780.37 4.09664 2.15742 0
M  V30 26563 H 1783.21 7.45574 4.45629 0
M  V30 26564 H 1783.48 5.86232 3.67314 0
M  V30 26565 H 1782.61 7.84412 2.24479 0
M  V30 26566 P 1778.65 8.7635 1.60911 0
M  V30 26567 O 1778.43 10.1388 1.11561 0
M  V30 26568 O 1777.86 8.36503 2.79617 0
M  V30 26569 O 1778.4 7.71806 0.42951 0
M  V30 26570 C 1779.34 7.67148 -0.673689 0
M  V30 26571 C 1778.61 7.33374 -1.95559 0
M  V30 26572 O 1778.4 5.88721 -2.00726 0
M  V30 26573 C 1777.21 7.92526 -2.10483 0
M  V30 26574 O 1776.82 8.02971 -3.47653 0
M  V30 26575 C 1776.33 6.89602 -1.41652 0
M  V30 26576 C 1777.04 5.59201 -1.75185 0
M  V30 26577 N 1776.99 4.58235 -0.662552 0
M  V30 26578 H 1779.83 8.65116 -0.777161 0
M  V30 26579 H 1780.1 6.90173 -0.474152 0
M  V30 26580 H 1779.23 7.66548 -2.79458 0
M  V30 26581 P 1775.27 8.03563 -3.84925 0
M  V30 26582 O 1775.05 8.85821 -5.0569 0
M  V30 26583 O 1774.48 8.41101 -2.65469 0
M  V30 26584 O 1775.02 6.4965 -4.18908 0
M  V30 26585 C 1775.96 5.81037 -5.05421 0
M  V30 26586 C 1775.23 4.78366 -5.89277 0
M  V30 26587 O 1775.02 3.58302 -5.08433 0
M  V30 26588 C 1773.83 5.17448 -6.36119 0
M  V30 26589 O 1773.44 4.45271 -7.53232 0
M  V30 26590 C 1772.95 4.74639 -5.19936 0
M  V30 26591 C 1773.66 3.49432 -4.70418 0
M  V30 26592 N 1773.61 3.31776 -3.22945 0
M  V30 26593 H 1776.45 6.54213 -5.71376 0
M  V30 26594 H 1776.72 5.30492 -4.44033 0
M  V30 26595 H 1775.85 4.55889 -6.76652 0
M  V30 26596 P 1771.89 4.23843 -7.83734 0
M  V30 26597 O 1771.67 4.19407 -9.29784 0
M  V30 26598 O 1771.1 5.24426 -7.09156 0
M  V30 26599 O 1771.64 2.7935 -7.20758 0
M  V30 26600 C 1772.58 1.7299 -7.50419 0
M  V30 26601 C 1771.85 0.406376 -7.57911 0
M  V30 26602 O 1771.64 -0.0897726 -6.21935 0
M  V30 26603 C 1770.45 0.447224 -8.1878 0
M  V30 26604 O 1770.06 -0.825065 -8.71101 0
M  V30 26605 C 1769.57 0.783801 -6.99623 0
M  V30 26606 C 1770.28 0.0619192 -5.85967 0
M  V30 26607 N 1770.23 0.7859 -4.56281 0
M  V30 26608 H 1773.07 1.93423 -8.4679 0
M  V30 26609 H 1773.34 1.68181 -6.71046 0
M  V30 26610 H 1772.47 -0.289041 -8.15388 0
M  V30 26611 P 1768.51 -1.17771 -8.83182 0
M  V30 26612 O 1768.29 -2.07206 -9.98732 0
M  V30 26613 O 1767.72 0.0743816 -8.81969 0
M  V30 26614 O 1768.26 -1.97652 -7.47304 0
M  V30 26615 C 1769.2 -3.01133 -7.08783 0
M  V30 26616 C 1768.47 -4.12613 -6.37049 0
M  V30 26617 O 1768.26 -3.72827 -4.97879 0
M  V30 26618 C 1767.07 -4.45085 -6.88694 0
M  V30 26619 O 1766.68 -5.7877 -6.5624 0
M  V30 26620 C 1766.19 -3.47817 -6.12078 0
M  V30 26621 C 1766.9 -3.39414 -4.77697 0
M  V30 26622 N 1766.85 -2.04615 -4.15333 0
M  V30 26623 H 1769.69 -3.41248 -7.98759 0
M  V30 26624 H 1769.96 -2.5837 -6.41742 0
M  V30 26625 H 1769.09 -5.02657 -6.42673 0
M  V30 26626 P 1765.13 -6.144 -6.45285 0
M  V30 26627 O 1764.91 -7.54673 -6.86199 0
M  V30 26628 O 1764.34 -5.12391 -7.179 0
M  V30 26629 O 1764.88 -5.99158 -4.88404 0
M  V30 26630 C 1765.82 -6.60234 -3.96415 0
M  V30 26631 C 1765.09 -7.08259 -2.72856 0
M  V30 26632 O 1764.88 -5.9427 -1.83651 0
M  V30 26633 C 1763.69 -7.64886 -2.9555 0
M  V30 26634 O 1763.3 -8.53963 -1.90717 0
M  V30 26635 C 1762.81 -6.4116 -2.90739 0
M  V30 26636 C 1763.52 -5.55375 -1.86963 0
M  V30 26637 N 1763.47 -4.09664 -2.15742 0
M  V30 26638 H 1766.31 -7.45574 -4.45629 0
M  V30 26639 H 1766.58 -5.86232 -3.67314 0
M  V30 26640 H 1765.71 -7.84412 -2.24479 0
M  V30 26641 P 1761.75 -8.7635 -1.60911 0
M  V30 26642 O 1761.53 -10.1388 -1.11561 0
M  V30 26643 O 1760.96 -8.36503 -2.79617 0
M  V30 26644 O 1761.5 -7.71906 -0.429565 0
M  V30 26645 C 1762.44 -7.67148 0.673689 0
M  V30 26646 C 1761.71 -7.33666 1.94851 0
M  V30 26647 O 1761.5 -5.88816 2.00759 0
M  V30 26648 C 1760.31 -7.92526 2.10483 0
M  V30 26649 O 1759.92 -8.03063 3.47693 0
M  V30 26650 C 1759.43 -6.89602 1.41652 0
M  V30 26651 C 1760.14 -5.59201 1.75185 0
M  V30 26652 N 1760.09 -4.58235 0.662552 0
M  V30 26653 C 1759.94 -3.24451 1.01643 0
M  V30 26654 O 1759.85 -2.94958 2.21722 0
M  V30 26655 N 1759.89 -2.30408 -0.165238 0
M  V30 26656 C 1759.99 -2.66048 -1.25118 0
M  V30 26657 N 1759.94 -1.70787 -2.16813 0
M  V30 26658 C 1760.14 -4.02732 -1.64413 0
M  V30 26659 C 1760.19 -4.9488 -0.63991 0
M  V30 26660 H 1762.93 -8.65017 0.777072 0
M  V30 26661 H 1763.2 -6.90173 0.474152 0
M  V30 26662 H 1762.33 -7.66642 2.79492 0
M  V30 26663 H 1759.68 -5.16254 2.65229 0
M  V30 26664 H 1759.4 -7.06532 0.329431 0
M  V30 26665 H 1758.41 -6.91023 1.82047 0
M  V30 26666 H 1760.24 -8.90873 1.62657 0
M  V30 26667 H 1760.31 -6.00104 -0.892197 0
M  V30 26668 H 1760.21 -4.31733 -2.69229 0
M  V30 26669 H 1759.82 -0.724835 -1.8844 0
M  V30 26670 H 1760.02 -1.94716 -3.16734 0
M  V30 26671 P 1758.37 -8.03563 3.84925 0
M  V30 26672 O 1758.15 -8.85821 5.0569 0
M  V30 26673 O 1757.58 -8.41101 2.65469 0
M  V30 26674 O 1758.12 -6.4965 4.18908 0
M  V30 26675 C 1759.06 -5.81037 5.05421 0
M  V30 26676 C 1758.33 -4.78366 5.89277 0
M  V30 26677 O 1758.12 -3.58302 5.08433 0
M  V30 26678 C 1756.93 -5.17448 6.36119 0
M  V30 26679 O 1756.54 -4.45271 7.53232 0
M  V30 26680 C 1756.05 -4.74639 5.19936 0
M  V30 26681 C 1756.76 -3.49432 4.70418 0
M  V30 26682 N 1756.71 -3.32099 3.22613 0
M  V30 26683 H 1759.55 -6.54213 5.71376 0
M  V30 26684 H 1759.82 -5.30936 4.43503 0
M  V30 26685 H 1758.95 -4.55889 6.76652 0
M  V30 26686 H 1756.3 -2.61715 5.17932 0
M  V30 26687 H 1756.02 -5.52155 4.41878 0
M  V30 26688 H 1755.03 -4.51981 5.53374 0
M  V30 26689 H 1756.86 -6.25124 6.55234 0
M  V30 26690 P 1754.99 -4.23843 7.83734 0
M  V30 26691 O 1754.77 -4.19407 9.29784 0
M  V30 26692 O 1754.2 -5.24426 7.09156 0
M  V30 26693 O 1754.74 -2.7935 7.20758 0
M  V30 26694 C 1755.68 -1.7299 7.50419 0
M  V30 26695 C 1754.95 -0.406376 7.57911 0
M  V30 26696 O 1754.74 0.0897726 6.21935 0
M  V30 26697 C 1753.55 -0.447224 8.1878 0
M  V30 26698 O 1753.16 0.825065 8.71101 0
M  V30 26699 C 1752.67 -0.783801 6.99623 0
M  V30 26700 C 1753.38 -0.0619192 5.85967 0
M  V30 26701 N 1753.33 -0.7859 4.56281 0
M  V30 26702 H 1756.17 -1.93423 8.4679 0
M  V30 26703 H 1756.44 -1.68181 6.71046 0
M  V30 26704 H 1755.57 0.289041 8.15388 0
M  V30 26705 P 1751.61 1.17771 8.83182 0
M  V30 26706 O 1751.39 2.07206 9.98732 0
M  V30 26707 O 1750.82 -0.0743816 8.81969 0
M  V30 26708 O 1751.36 1.97652 7.47304 0
M  V30 26709 C 1752.3 3.01133 7.08783 0
M  V30 26710 C 1751.57 4.12613 6.37049 0
M  V30 26711 O 1751.36 3.72827 4.97879 0
M  V30 26712 C 1750.17 4.45085 6.88694 0
M  V30 26713 O 1749.78 5.7877 6.5624 0
M  V30 26714 C 1749.29 3.47817 6.12078 0
M  V30 26715 C 1750 3.39414 4.77697 0
M  V30 26716 N 1749.95 2.04199 4.15538 0
M  V30 26717 H 1752.79 3.41248 7.98759 0
M  V30 26718 H 1753.06 2.57728 6.42 0
M  V30 26719 H 1752.19 5.02657 6.42673 0
M  V30 26720 H 1749.54 4.11708 4.08956 0
M  V30 26721 H 1749.26 2.49626 6.61679 0
M  V30 26722 H 1748.27 3.8662 6.00862 0
M  V30 26723 H 1750.1 4.29991 7.97006 0
M  V30 26724 P 1748.23 6.144 6.45285 0
M  V30 26725 O 1748.01 7.54673 6.86199 0
M  V30 26726 O 1747.44 5.12391 7.179 0
M  V30 26727 O 1747.98 5.99158 4.88404 0
M  V30 26728 C 1748.92 6.60234 3.96415 0
M  V30 26729 C 1748.19 7.08259 2.72856 0
M  V30 26730 O 1747.98 5.9427 1.83651 0
M  V30 26731 C 1746.79 7.64886 2.9555 0
M  V30 26732 O 1746.4 8.53963 1.90717 0
M  V30 26733 C 1745.91 6.4116 2.90739 0
M  V30 26734 C 1746.62 5.55375 1.86963 0
M  V30 26735 N 1746.57 4.09664 2.15742 0
M  V30 26736 H 1749.41 7.45574 4.45629 0
M  V30 26737 H 1749.68 5.86232 3.67314 0
M  V30 26738 H 1748.81 7.84412 2.24479 0
M  V30 26739 P 1744.85 8.7635 1.60911 0
M  V30 26740 O 1744.63 10.1388 1.11561 0
M  V30 26741 O 1744.06 8.36503 2.79617 0
M  V30 26742 O 1744.6 7.71806 0.42951 0
M  V30 26743 C 1745.54 7.67148 -0.673689 0
M  V30 26744 C 1744.81 7.33374 -1.95559 0
M  V30 26745 O 1744.6 5.88721 -2.00726 0
M  V30 26746 C 1743.41 7.92526 -2.10483 0
M  V30 26747 O 1743.02 8.02971 -3.47653 0
M  V30 26748 C 1742.53 6.89602 -1.41652 0
M  V30 26749 C 1743.24 5.59201 -1.75185 0
M  V30 26750 N 1743.19 4.58235 -0.662552 0
M  V30 26751 H 1746.03 8.65116 -0.777161 0
M  V30 26752 H 1746.3 6.90173 -0.474152 0
M  V30 26753 H 1745.43 7.66548 -2.79458 0
M  V30 26754 P 1741.47 8.03563 -3.84925 0
M  V30 26755 O 1741.25 8.85821 -5.0569 0
M  V30 26756 O 1740.68 8.41101 -2.65469 0
M  V30 26757 O 1741.22 6.4965 -4.18908 0
M  V30 26758 C 1742.16 5.81037 -5.05421 0
M  V30 26759 C 1741.43 4.78366 -5.89277 0
M  V30 26760 O 1741.22 3.58302 -5.08433 0
M  V30 26761 C 1740.03 5.17448 -6.36119 0
M  V30 26762 O 1739.64 4.45271 -7.53232 0
M  V30 26763 C 1739.15 4.74639 -5.19936 0
M  V30 26764 C 1739.86 3.49432 -4.70418 0
M  V30 26765 N 1739.81 3.32099 -3.22613 0
M  V30 26766 H 1742.65 6.54213 -5.71376 0
M  V30 26767 H 1742.92 5.30936 -4.43503 0
M  V30 26768 H 1742.05 4.55889 -6.76652 0
M  V30 26769 H 1739.4 2.61715 -5.17932 0
M  V30 26770 H 1739.12 5.52155 -4.41878 0
M  V30 26771 H 1738.13 4.51981 -5.53374 0
M  V30 26772 H 1739.96 6.25124 -6.55234 0
M  V30 26773 P 1738.09 4.23843 -7.83734 0
M  V30 26774 O 1737.87 4.19407 -9.29784 0
M  V30 26775 O 1737.3 5.24426 -7.09156 0
M  V30 26776 O 1737.84 2.7935 -7.20758 0
M  V30 26777 C 1738.78 1.7299 -7.50419 0
M  V30 26778 C 1738.05 0.406376 -7.57911 0
M  V30 26779 O 1737.84 -0.0897726 -6.21935 0
M  V30 26780 C 1736.65 0.447224 -8.1878 0
M  V30 26781 O 1736.26 -0.825065 -8.71101 0
M  V30 26782 C 1735.77 0.783801 -6.99623 0
M  V30 26783 C 1736.48 0.0619192 -5.85967 0
M  V30 26784 N 1736.43 0.7859 -4.56281 0
M  V30 26785 H 1739.27 1.93423 -8.4679 0
M  V30 26786 H 1739.54 1.68181 -6.71046 0
M  V30 26787 H 1738.67 -0.289041 -8.15388 0
M  V30 26788 P 1734.71 -1.17771 -8.83182 0
M  V30 26789 O 1734.49 -2.07206 -9.98732 0
M  V30 26790 O 1733.92 0.0743816 -8.81969 0
M  V30 26791 O 1734.46 -1.97652 -7.47304 0
M  V30 26792 C 1735.4 -3.01133 -7.08783 0
M  V30 26793 C 1734.67 -4.12613 -6.37049 0
M  V30 26794 O 1734.46 -3.72827 -4.97879 0
M  V30 26795 C 1733.27 -4.45085 -6.88694 0
M  V30 26796 O 1732.88 -5.7877 -6.5624 0
M  V30 26797 C 1732.39 -3.47817 -6.12078 0
M  V30 26798 C 1733.1 -3.39414 -4.77697 0
M  V30 26799 N 1733.05 -2.04615 -4.15333 0
M  V30 26800 H 1735.89 -3.41248 -7.98759 0
M  V30 26801 H 1736.16 -2.5837 -6.41742 0
M  V30 26802 H 1735.29 -5.02657 -6.42673 0
M  V30 26803 P 1731.33 -6.144 -6.45285 0
M  V30 26804 O 1731.11 -7.54673 -6.86199 0
M  V30 26805 O 1730.54 -5.12391 -7.179 0
M  V30 26806 O 1731.08 -5.99158 -4.88404 0
M  V30 26807 C 1732.02 -6.60234 -3.96415 0
M  V30 26808 C 1731.29 -7.08259 -2.72856 0
M  V30 26809 O 1731.08 -5.9427 -1.83651 0
M  V30 26810 C 1729.89 -7.64886 -2.9555 0
M  V30 26811 O 1729.5 -8.53963 -1.90717 0
M  V30 26812 C 1729.01 -6.4116 -2.90739 0
M  V30 26813 C 1729.72 -5.55375 -1.86963 0
M  V30 26814 N 1729.67 -4.09664 -2.15742 0
M  V30 26815 H 1732.51 -7.45574 -4.45629 0
M  V30 26816 H 1732.78 -5.86232 -3.67314 0
M  V30 26817 H 1731.91 -7.84412 -2.24479 0
M  V30 26818 P 1727.95 -8.7635 -1.60911 0
M  V30 26819 O 1727.73 -10.1388 -1.11561 0
M  V30 26820 O 1727.16 -8.36503 -2.79617 0
M  V30 26821 O 1727.7 -7.71806 -0.42951 0
M  V30 26822 C 1728.64 -7.67148 0.673689 0
M  V30 26823 C 1727.91 -7.33374 1.95559 0
M  V30 26824 O 1727.7 -5.88721 2.00726 0
M  V30 26825 C 1726.51 -7.92526 2.10483 0
M  V30 26826 O 1726.12 -8.02971 3.47653 0
M  V30 26827 C 1725.63 -6.89602 1.41652 0
M  V30 26828 C 1726.34 -5.59201 1.75185 0
M  V30 26829 N 1726.29 -4.58301 0.657969 0
M  V30 26830 H 1729.13 -8.65116 0.777161 0
M  V30 26831 H 1729.4 -6.9022 0.46725 0
M  V30 26832 H 1728.53 -7.66548 2.79458 0
M  V30 26833 H 1725.88 -5.16165 2.65183 0
M  V30 26834 H 1725.6 -7.06433 0.329384 0
M  V30 26835 H 1724.61 -6.90926 1.82021 0
M  V30 26836 H 1726.44 -8.90873 1.62657 0
M  V30 26837 P 1724.57 -8.03563 3.84925 0
M  V30 26838 O 1724.35 -8.85821 5.0569 0
M  V30 26839 O 1723.78 -8.41101 2.65469 0
M  V30 26840 O 1724.32 -6.4965 4.18908 0
M  V30 26841 C 1725.26 -5.81037 5.05421 0
M  V30 26842 C 1724.53 -4.78366 5.89277 0
M  V30 26843 O 1724.32 -3.58302 5.08433 0
M  V30 26844 C 1723.13 -5.17448 6.36119 0
M  V30 26845 O 1722.74 -4.45271 7.53232 0
M  V30 26846 C 1722.25 -4.74639 5.19936 0
M  V30 26847 C 1722.96 -3.49432 4.70418 0
M  V30 26848 N 1722.91 -3.31776 3.22945 0
M  V30 26849 H 1725.75 -6.54213 5.71376 0
M  V30 26850 H 1726.02 -5.30492 4.44033 0
M  V30 26851 H 1725.15 -4.55889 6.76652 0
M  V30 26852 P 1721.19 -4.23843 7.83734 0
M  V30 26853 O 1720.97 -4.19407 9.29784 0
M  V30 26854 O 1720.4 -5.24426 7.09156 0
M  V30 26855 O 1720.94 -2.7935 7.20758 0
M  V30 26856 C 1721.88 -1.7299 7.50419 0
M  V30 26857 C 1721.15 -0.406376 7.57911 0
M  V30 26858 O 1720.94 0.0897726 6.21935 0
M  V30 26859 C 1719.75 -0.447224 8.1878 0
M  V30 26860 O 1719.36 0.825065 8.71101 0
M  V30 26861 C 1718.87 -0.783801 6.99623 0
M  V30 26862 C 1719.58 -0.0619192 5.85967 0
M  V30 26863 N 1719.53 -0.7859 4.56281 0
M  V30 26864 H 1722.37 -1.93423 8.4679 0
M  V30 26865 H 1722.64 -1.68181 6.71046 0
M  V30 26866 H 1721.77 0.289041 8.15388 0
M  V30 26867 P 1717.81 1.17771 8.83182 0
M  V30 26868 O 1717.59 2.07206 9.98732 0
M  V30 26869 O 1717.02 -0.0743816 8.81969 0
M  V30 26870 O 1717.56 1.97652 7.47304 0
M  V30 26871 C 1718.5 3.01133 7.08783 0
M  V30 26872 C 1717.77 4.12613 6.37049 0
M  V30 26873 O 1717.56 3.72827 4.97879 0
M  V30 26874 C 1716.37 4.45085 6.88694 0
M  V30 26875 O 1715.98 5.7877 6.5624 0
M  V30 26876 C 1715.49 3.47817 6.12078 0
M  V30 26877 C 1716.2 3.39414 4.77697 0
M  V30 26878 N 1716.15 2.04615 4.15333 0
M  V30 26879 H 1718.99 3.41248 7.98759 0
M  V30 26880 H 1719.26 2.5837 6.41742 0
M  V30 26881 H 1718.39 5.02657 6.42673 0
M  V30 26882 P 1714.43 6.144 6.45285 0
M  V30 26883 O 1714.21 7.54673 6.86199 0
M  V30 26884 O 1713.64 5.12391 7.179 0
M  V30 26885 O 1714.18 5.99158 4.88404 0
M  V30 26886 C 1715.12 6.60234 3.96415 0
M  V30 26887 C 1714.39 7.08259 2.72856 0
M  V30 26888 O 1714.18 5.9427 1.83651 0
M  V30 26889 C 1712.99 7.64886 2.9555 0
M  V30 26890 O 1712.6 8.53963 1.90717 0
M  V30 26891 C 1712.11 6.4116 2.90739 0
M  V30 26892 C 1712.82 5.55375 1.86963 0
M  V30 26893 N 1712.77 4.09664 2.15742 0
M  V30 26894 H 1715.61 7.45574 4.45629 0
M  V30 26895 H 1715.88 5.86232 3.67314 0
M  V30 26896 H 1715.01 7.84412 2.24479 0
M  V30 26897 P 1711.05 8.7635 1.60911 0
M  V30 26898 O 1710.83 10.1388 1.11561 0
M  V30 26899 O 1710.26 8.36503 2.79617 0
M  V30 26900 O 1710.8 7.71806 0.42951 0
M  V30 26901 C 1711.74 7.67148 -0.673689 0
M  V30 26902 C 1711.01 7.33374 -1.95559 0
M  V30 26903 O 1710.8 5.88721 -2.00726 0
M  V30 26904 C 1709.61 7.92526 -2.10483 0
M  V30 26905 O 1709.22 8.02971 -3.47653 0
M  V30 26906 C 1708.73 6.89602 -1.41652 0
M  V30 26907 C 1709.44 5.59201 -1.75185 0
M  V30 26908 N 1709.39 4.58235 -0.662552 0
M  V30 26909 H 1712.23 8.65116 -0.777161 0
M  V30 26910 H 1712.5 6.90173 -0.474152 0
M  V30 26911 H 1711.63 7.66548 -2.79458 0
M  V30 26912 P 1707.67 8.03563 -3.84925 0
M  V30 26913 O 1707.45 8.85821 -5.0569 0
M  V30 26914 O 1706.88 8.41101 -2.65469 0
M  V30 26915 O 1707.42 6.4965 -4.18908 0
M  V30 26916 C 1708.36 5.81037 -5.05421 0
M  V30 26917 C 1707.63 4.78366 -5.89277 0
M  V30 26918 O 1707.42 3.58302 -5.08433 0
M  V30 26919 C 1706.23 5.17448 -6.36119 0
M  V30 26920 O 1705.84 4.45271 -7.53232 0
M  V30 26921 C 1705.35 4.74639 -5.19936 0
M  V30 26922 C 1706.06 3.49432 -4.70418 0
M  V30 26923 N 1706.01 3.32099 -3.22613 0
M  V30 26924 C 1706.09 4.28245 -2.25527 0
M  V30 26925 N 1706.02 3.80823 -1.04874 0
M  V30 26926 C 1705.87 2.44571 -1.23535 0
M  V30 26927 C 1705.74 1.37068 -0.330675 0
M  V30 26928 N 1705.73 1.51472 0.990824 0
M  V30 26929 N 1705.62 0.138614 -0.848756 0
M  V30 26930 C 1705.63 -0.00675923 -2.16999 0
M  V30 26931 N 1705.75 0.904372 -3.11122 0
M  V30 26932 C 1705.87 2.12707 -2.56212 0
M  V30 26933 H 1708.85 6.54213 -5.71376 0
M  V30 26934 H 1709.12 5.30936 -4.43503 0
M  V30 26935 H 1708.25 4.55889 -6.76652 0
M  V30 26936 H 1705.6 2.61715 -5.17932 0
M  V30 26937 H 1705.32 5.52155 -4.41878 0
M  V30 26938 H 1704.33 4.51981 -5.53374 0
M  V30 26939 H 1706.16 6.25124 -6.55234 0
M  V30 26940 H 1706.2 5.34372 -2.47488 0
M  V30 26941 H 1705.82 2.45153 1.4078 0
M  V30 26942 H 1705.63 0.688422 1.59911 0
M  V30 26943 H 1705.52 -1.02584 -2.52346 0
M  V30 26944 P 1704.29 4.23843 -7.83734 0
M  V30 26945 O 1704.07 4.19407 -9.29784 0
M  V30 26946 O 1703.5 5.24426 -7.09156 0
M  V30 26947 O 1704.04 2.7935 -7.20758 0
M  V30 26948 C 1704.98 1.7299 -7.50419 0
M  V30 26949 C 1704.25 0.406376 -7.57911 0
M  V30 26950 O 1704.04 -0.0897726 -6.21935 0
M  V30 26951 C 1702.85 0.447224 -8.1878 0
M  V30 26952 O 1702.46 -0.825065 -8.71101 0
M  V30 26953 C 1701.97 0.783801 -6.99623 0
M  V30 26954 C 1702.68 0.0619192 -5.85967 0
M  V30 26955 N 1702.63 0.7859 -4.56281 0
M  V30 26956 H 1705.47 1.93423 -8.4679 0
M  V30 26957 H 1705.74 1.68181 -6.71046 0
M  V30 26958 H 1704.87 -0.289041 -8.15388 0
M  V30 26959 P 1700.91 -1.17771 -8.83182 0
M  V30 26960 O 1700.69 -2.07206 -9.98732 0
M  V30 26961 O 1700.12 0.0743816 -8.81969 0
M  V30 26962 O 1700.66 -1.97652 -7.47304 0
M  V30 26963 C 1701.6 -3.01133 -7.08783 0
M  V30 26964 C 1700.87 -4.12613 -6.37049 0
M  V30 26965 O 1700.66 -3.72827 -4.97879 0
M  V30 26966 C 1699.47 -4.45085 -6.88694 0
M  V30 26967 O 1699.08 -5.7877 -6.5624 0
M  V30 26968 C 1698.59 -3.47817 -6.12078 0
M  V30 26969 C 1699.3 -3.39414 -4.77697 0
M  V30 26970 N 1699.25 -2.04199 -4.15538 0
M  V30 26971 H 1702.09 -3.41248 -7.98759 0
M  V30 26972 H 1702.36 -2.57728 -6.42 0
M  V30 26973 H 1701.49 -5.02657 -6.42673 0
M  V30 26974 H 1698.84 -4.11708 -4.08956 0
M  V30 26975 H 1698.56 -2.49626 -6.61679 0
M  V30 26976 H 1697.57 -3.8662 -6.00862 0
M  V30 26977 H 1699.4 -4.29991 -7.97006 0
M  V30 26978 P 1697.53 -6.144 -6.45285 0
M  V30 26979 O 1697.31 -7.54673 -6.86199 0
M  V30 26980 O 1696.74 -5.12391 -7.179 0
M  V30 26981 O 1697.28 -5.99158 -4.88404 0
M  V30 26982 C 1698.22 -6.60062 -3.96313 0
M  V30 26983 C 1697.49 -7.08259 -2.72856 0
M  V30 26984 O 1697.28 -5.9427 -1.83651 0
M  V30 26985 C 1696.09 -7.65087 -2.94749 0
M  V30 26986 O 1695.7 -8.53963 -1.90717 0
M  V30 26987 C 1695.21 -6.41069 -2.90698 0
M  V30 26988 C 1695.92 -5.5528 -1.86931 0
M  V30 26989 N 1695.87 -4.09575 -2.15696 0
M  V30 26990 C 1695.72 -3.24249 -1.08435 0
M  V30 26991 O 1695.63 -3.63946 0.0628747 0
M  V30 26992 N 1695.68 -1.90009 -1.39973 0
M  V30 26993 C 1695.77 -1.34884 -2.65614 0
M  V30 26994 O 1695.72 -0.123716 -2.81728 0
M  V30 26995 C 1695.92 -2.3145 -3.71736 0
M  V30 26996 C 1696.03 -1.75913 -5.10438 0
M  V30 26997 C 1695.97 -3.63518 -3.44754 0
M  V30 26998 H 1698.71 -7.45402 -4.45526 0
M  V30 26999 H 1698.98 -5.86062 -3.67208 0
M  V30 27000 H 1698.11 -7.84412 -2.24479 0
M  V30 27001 H 1695.46 -5.73358 -0.888409 0
M  V30 27002 H 1695.18 -5.90877 -3.88583 0
M  V30 27003 H 1694.19 -6.65867 -2.58821 0
M  V30 27004 H 1696.02 -8.16248 -3.92006 0
M  V30 27005 H 1696.09 -4.34551 -4.26383 0
M  V30 27006 H 1695.06 -1.85471 -5.61775 0
M  V30 27007 H 1696.8 -2.31364 -5.66257 0
M  V30 27008 H 1696.31 -0.695936 -5.05229 0
M  V30 27009 H 1695.57 -1.26277 -0.63625 0
M  V30 27010 P 1694.15 -8.7635 -1.60911 0
M  V30 27011 O 1693.93 -10.1388 -1.11561 0
M  V30 27012 O 1693.36 -8.36503 -2.79617 0
M  V30 27013 O 1693.9 -7.71806 -0.42951 0
M  V30 27014 C 1694.84 -7.67148 0.673689 0
M  V30 27015 C 1694.11 -7.33374 1.95559 0
M  V30 27016 O 1693.9 -5.88721 2.00726 0
M  V30 27017 C 1692.71 -7.92526 2.10483 0
M  V30 27018 O 1692.32 -8.02971 3.47653 0
M  V30 27019 C 1691.83 -6.89602 1.41652 0
M  V30 27020 C 1692.54 -5.59201 1.75185 0
M  V30 27021 N 1692.49 -4.58301 0.657969 0
M  V30 27022 H 1695.33 -8.65116 0.777161 0
M  V30 27023 H 1695.6 -6.9022 0.46725 0
M  V30 27024 H 1694.73 -7.66548 2.79458 0
M  V30 27025 H 1692.08 -5.16165 2.65183 0
M  V30 27026 H 1691.8 -7.06433 0.329384 0
M  V30 27027 H 1690.81 -6.90926 1.82021 0
M  V30 27028 H 1692.64 -8.90873 1.62657 0
M  V30 27029 P 1690.77 -8.03563 3.84925 0
M  V30 27030 O 1690.55 -8.85821 5.0569 0
M  V30 27031 O 1689.98 -8.41101 2.65469 0
M  V30 27032 O 1690.52 -6.4965 4.18908 0
M  V30 27033 C 1691.46 -5.81037 5.05421 0
M  V30 27034 C 1690.73 -4.78366 5.89277 0
M  V30 27035 O 1690.52 -3.58302 5.08433 0
M  V30 27036 C 1689.33 -5.17448 6.36119 0
M  V30 27037 O 1688.94 -4.45271 7.53232 0
M  V30 27038 C 1688.45 -4.74639 5.19936 0
M  V30 27039 C 1689.16 -3.49432 4.70418 0
M  V30 27040 N 1689.11 -3.31776 3.22945 0
M  V30 27041 H 1691.95 -6.54213 5.71376 0
M  V30 27042 H 1692.22 -5.30492 4.44033 0
M  V30 27043 H 1691.35 -4.55889 6.76652 0
M  V30 27044 P 1687.39 -4.23843 7.83734 0
M  V30 27045 O 1687.17 -4.19407 9.29784 0
M  V30 27046 O 1686.6 -5.24426 7.09156 0
M  V30 27047 O 1687.14 -2.7935 7.20758 0
M  V30 27048 C 1688.08 -1.72945 7.50224 0
M  V30 27049 C 1687.35 -0.406376 7.57911 0
M  V30 27050 O 1687.14 0.0897726 6.21935 0
M  V30 27051 C 1685.95 -0.438983 8.18724 0
M  V30 27052 O 1685.56 0.825065 8.71101 0
M  V30 27053 C 1685.07 -0.783689 6.99524 0
M  V30 27054 C 1685.78 -0.0619086 5.85867 0
M  V30 27055 N 1685.73 -0.78573 4.56183 0
M  V30 27056 C 1685.58 -0.0292889 3.41887 0
M  V30 27057 O 1685.49 1.18445 3.4419 0
M  V30 27058 N 1685.54 -0.744061 2.23964 0
M  V30 27059 C 1685.63 -2.10932 2.10362 0
M  V30 27060 O 1685.58 -2.64117 0.98825 0
M  V30 27061 C 1685.78 -2.8202 3.34994 0
M  V30 27062 C 1685.89 -4.31095 3.25037 0
M  V30 27063 C 1685.83 -2.15547 4.52261 0
M  V30 27064 H 1688.57 -1.93379 8.46595 0
M  V30 27065 H 1688.84 -1.68132 6.70852 0
M  V30 27066 H 1687.97 0.289041 8.15388 0
M  V30 27067 H 1685.32 0.926847 5.72749 0
M  V30 27068 H 1685.04 -1.86973 6.82036 0
M  V30 27069 H 1684.05 -0.403896 7.13257 0
M  V30 27070 H 1685.88 -1.20585 8.97435 0
M  V30 27071 H 1685.95 -2.71231 5.45042 0
M  V30 27072 H 1684.92 -4.76966 3.49992 0
M  V30 27073 H 1686.66 -4.67047 3.95024 0
M  V30 27074 H 1686.17 -4.58996 2.22312 0
M  V30 27075 H 1685.44 -0.214893 1.39758 0
M  V30 27076 P 1684.01 1.17771 8.83182 0
M  V30 27077 O 1683.79 2.07206 9.98732 0
M  V30 27078 O 1683.22 -0.0743816 8.81969 0
M  V30 27079 O 1683.76 1.97652 7.47304 0
M  V30 27080 C 1684.7 3.01055 7.08599 0
M  V30 27081 C 1683.97 4.12613 6.37049 0
M  V30 27082 O 1683.76 3.72827 4.97879 0
M  V30 27083 C 1682.57 4.45719 6.88164 0
M  V30 27084 O 1682.18 5.7877 6.5624 0
M  V30 27085 C 1681.69 3.47768 6.11991 0
M  V30 27086 C 1682.4 3.39356 4.77615 0
M  V30 27087 N 1682.35 2.04571 4.15244 0
M  V30 27088 C 1682.2 1.98587 2.78314 0
M  V30 27089 O 1682.11 2.98134 2.08835 0
M  V30 27090 N 1682.16 0.714467 2.24925 0
M  V30 27091 C 1682.25 -0.470001 2.94169 0
M  V30 27092 O 1682.2 -1.55587 2.35195 0
M  V30 27093 C 1682.4 -0.312541 4.36783 0
M  V30 27094 C 1682.51 -1.57711 5.16352 0
M  V30 27095 C 1682.45 0.914512 4.92583 0
M  V30 27096 H 1685.19 3.41169 7.98575 0
M  V30 27097 H 1685.46 2.58295 6.41556 0
M  V30 27098 H 1684.59 5.02657 6.42673 0
M  V30 27099 H 1681.94 4.11637 4.08885 0
M  V30 27100 H 1681.66 2.49626 6.61679 0
M  V30 27101 H 1680.67 3.86566 6.00778 0
M  V30 27102 H 1682.5 4.29943 7.96918 0
M  V30 27103 H 1682.57 1.00937 6.00374 0
M  V30 27104 H 1681.54 -1.80153 5.63503 0
M  V30 27105 H 1683.28 -1.4566 5.94104 0
M  V30 27106 H 1682.79 -2.40664 4.49645 0
M  V30 27107 H 1682.06 0.647622 1.25697 0
M  V30 27108 P 1680.63 6.144 6.45285 0
M  V30 27109 O 1680.41 7.54673 6.86199 0
M  V30 27110 O 1679.84 5.12391 7.179 0
M  V30 27111 O 1680.38 5.99158 4.88404 0
M  V30 27112 C 1681.32 6.60234 3.96415 0
M  V30 27113 C 1680.59 7.08259 2.72856 0
M  V30 27114 O 1680.38 5.9427 1.83651 0
M  V30 27115 C 1679.19 7.64886 2.9555 0
M  V30 27116 O 1678.8 8.53963 1.90717 0
M  V30 27117 C 1678.31 6.4116 2.90739 0
M  V30 27118 C 1679.02 5.55375 1.86963 0
M  V30 27119 N 1678.97 4.09664 2.15742 0
M  V30 27120 C 1679.05 3.44381 3.37233 0
M  V30 27121 N 1678.97 2.14131 3.28347 0
M  V30 27122 C 1678.83 1.90247 1.91588 0
M  V30 27123 C 1678.7 0.683992 1.20892 0
M  V30 27124 N 1678.58 0.903396 -0.173998 0
M  V30 27125 C 1678.58 2.14171 -0.784879 0
M  V30 27126 N 1678.45 2.1435 -2.11317 0
M  V30 27127 N 1678.71 3.28784 -0.119316 0
M  V30 27128 C 1678.83 3.0977 1.22194 0
M  V30 27129 H 1681.81 7.45574 4.45629 0
M  V30 27130 H 1682.08 5.86232 3.67314 0
M  V30 27131 H 1681.21 7.84412 2.24479 0
M  V30 27132 P 1677.25 8.7635 1.60911 0
M  V30 27133 O 1677.03 10.1388 1.11561 0
M  V30 27134 O 1676.46 8.36503 2.79617 0
M  V30 27135 O 1677 7.71806 0.42951 0
M  V30 27136 C 1677.94 7.66948 -0.673514 0
M  V30 27137 C 1677.21 7.33374 -1.95559 0
M  V30 27138 O 1677 5.88721 -2.00726 0
M  V30 27139 C 1675.81 7.92218 -2.1125 0
M  V30 27140 O 1675.42 8.02971 -3.47653 0
M  V30 27141 C 1674.93 6.89504 -1.41631 0
M  V30 27142 C 1675.64 5.59106 -1.75155 0
M  V30 27143 N 1675.59 4.58136 -0.662409 0
M  V30 27144 C 1675.44 3.26059 -1.02863 0
M  V30 27145 O 1675.35 2.90743 -2.19009 0
M  V30 27146 N 1675.4 2.35995 0.0155585 0
M  V30 27147 C 1675.49 2.65248 1.35603 0
M  V30 27148 C 1675.64 4.05747 1.64698 0
M  V30 27149 C 1675.69 4.96734 0.652411 0
M  V30 27150 H 1678.43 8.64917 -0.776982 0
M  V30 27151 H 1678.7 6.89974 -0.474015 0
M  V30 27152 H 1677.83 7.66548 -2.79458 0
M  V30 27153 H 1675.18 5.16076 -2.65138 0
M  V30 27154 H 1674.9 7.06433 -0.329384 0
M  V30 27155 H 1673.91 6.90829 -1.81996 0
M  V30 27156 H 1675.74 8.90774 -1.62639 0
M  V30 27157 H 1675.81 6.02181 0.895285 0
M  V30 27158 P 1673.87 8.03563 -3.84925 0
M  V30 27159 O 1673.65 8.85821 -5.0569 0
M  V30 27160 O 1673.08 8.41101 -2.65469 0
M  V30 27161 O 1673.62 6.49734 -4.18962 0
M  V30 27162 C 1674.56 5.81037 -5.05421 0
M  V30 27163 C 1673.83 4.79018 -5.88876 0
M  V30 27164 O 1673.62 3.58359 -5.08515 0
M  V30 27165 C 1672.43 5.17448 -6.36119 0
M  V30 27166 O 1672.04 4.45322 -7.53318 0
M  V30 27167 C 1671.55 4.74639 -5.19936 0
M  V30 27168 C 1672.26 3.49432 -4.70418 0
M  V30 27169 N 1672.21 3.31776 -3.22945 0
M  V30 27170 C 1672.06 2.02742 -2.72939 0
M  V30 27171 O 1671.97 1.08301 -3.52749 0
M  V30 27172 N 1672.01 1.96117 -1.22063 0
M  V30 27173 C 1672.11 2.8878 -0.551566 0
M  V30 27174 N 1672.06 2.65609 0.750198 0
M  V30 27175 C 1672.26 4.22457 -1.03707 0
M  V30 27176 C 1672.31 4.37979 -2.39113 0
M  V30 27177 H 1675.05 6.54138 -5.7131 0
M  V30 27178 H 1675.32 5.30492 -4.44033 0
M  V30 27179 H 1674.45 4.55945 -6.76735 0
M  V30 27180 H 1671.8 2.6176 -5.18021 0
M  V30 27181 H 1671.52 5.52233 -4.41941 0
M  V30 27182 H 1670.53 4.52045 -5.53452 0
M  V30 27183 H 1672.36 6.25124 -6.55234 0
M  V30 27184 H 1672.43 5.37936 -2.80552 0
M  V30 27185 H 1672.33 5.07528 -0.359553 0
M  V30 27186 H 1671.94 1.69403 1.09847 0
M  V30 27187 H 1672.14 3.43701 1.41792 0
M  V30 27188 P 1670.49 4.23843 -7.83734 0
M  V30 27189 O 1670.27 4.19407 -9.29784 0
M  V30 27190 O 1669.7 5.24426 -7.09156 0
M  V30 27191 O 1670.24 2.7935 -7.20758 0
M  V30 27192 C 1671.18 1.72945 -7.50224 0
M  V30 27193 C 1670.45 0.406376 -7.57911 0
M  V30 27194 O 1670.24 -0.0897726 -6.21935 0
M  V30 27195 C 1669.05 0.438983 -8.18724 0
M  V30 27196 O 1668.66 -0.825065 -8.71101 0
M  V30 27197 C 1668.17 0.783689 -6.99524 0
M  V30 27198 C 1668.88 0.0619086 -5.85867 0
M  V30 27199 N 1668.83 0.78573 -4.56183 0
M  V30 27200 C 1668.68 0.0292889 -3.41887 0
M  V30 27201 O 1668.59 -1.18445 -3.4419 0
M  V30 27202 N 1668.64 0.744061 -2.23964 0
M  V30 27203 C 1668.73 2.10932 -2.10362 0
M  V30 27204 O 1668.68 2.64117 -0.98825 0
M  V30 27205 C 1668.88 2.8202 -3.34994 0
M  V30 27206 C 1668.99 4.31095 -3.25037 0
M  V30 27207 C 1668.93 2.15547 -4.52261 0
M  V30 27208 H 1671.67 1.93379 -8.46595 0
M  V30 27209 H 1671.94 1.68132 -6.70852 0
M  V30 27210 H 1671.07 -0.289041 -8.15388 0
M  V30 27211 H 1668.42 -0.926847 -5.72749 0
M  V30 27212 H 1668.14 1.86973 -6.82036 0
M  V30 27213 H 1667.15 0.403896 -7.13257 0
M  V30 27214 H 1668.98 1.20585 -8.97435 0
M  V30 27215 H 1669.05 2.71231 -5.45042 0
M  V30 27216 H 1668.02 4.76966 -3.49992 0
M  V30 27217 H 1669.76 4.67047 -3.95024 0
M  V30 27218 H 1669.27 4.58996 -2.22312 0
M  V30 27219 H 1668.54 0.214893 -1.39758 0
M  V30 27220 P 1667.11 -1.17771 -8.83182 0
M  V30 27221 O 1666.89 -2.07206 -9.98732 0
M  V30 27222 O 1666.32 0.0743816 -8.81969 0
M  V30 27223 O 1666.86 -1.97652 -7.47304 0
M  V30 27224 C 1667.8 -3.01133 -7.08783 0
M  V30 27225 C 1667.07 -4.12613 -6.37049 0
M  V30 27226 O 1666.86 -3.72827 -4.97879 0
M  V30 27227 C 1665.67 -4.45085 -6.88694 0
M  V30 27228 O 1665.28 -5.7877 -6.5624 0
M  V30 27229 C 1664.79 -3.47817 -6.12078 0
M  V30 27230 C 1665.5 -3.39414 -4.77697 0
M  V30 27231 N 1665.45 -2.04615 -4.15333 0
M  V30 27232 H 1668.29 -3.41248 -7.98759 0
M  V30 27233 H 1668.56 -2.5837 -6.41742 0
M  V30 27234 H 1667.69 -5.02657 -6.42673 0
M  V30 27235 P 1663.73 -6.144 -6.45285 0
M  V30 27236 O 1663.51 -7.54673 -6.86199 0
M  V30 27237 O 1662.94 -5.12391 -7.179 0
M  V30 27238 O 1663.48 -5.99158 -4.88404 0
M  V30 27239 C 1664.42 -6.60234 -3.96415 0
M  V30 27240 C 1663.69 -7.08259 -2.72856 0
M  V30 27241 O 1663.48 -5.9427 -1.83651 0
M  V30 27242 C 1662.29 -7.64886 -2.9555 0
M  V30 27243 O 1661.9 -8.53963 -1.90717 0
M  V30 27244 C 1661.41 -6.4116 -2.90739 0
M  V30 27245 C 1662.12 -5.55375 -1.86963 0
M  V30 27246 N 1662.07 -4.09664 -2.15742 0
M  V30 27247 H 1664.91 -7.45574 -4.45629 0
M  V30 27248 H 1665.18 -5.86232 -3.67314 0
M  V30 27249 H 1664.31 -7.84412 -2.24479 0
M  V30 27250 P 1660.35 -8.7635 -1.60911 0
M  V30 27251 O 1660.13 -10.1388 -1.11561 0
M  V30 27252 O 1659.56 -8.36503 -2.79617 0
M  V30 27253 O 1660.1 -7.71806 -0.42951 0
M  V30 27254 C 1661.04 -7.67148 0.673689 0
M  V30 27255 C 1660.31 -7.33374 1.95559 0
M  V30 27256 O 1660.1 -5.88721 2.00726 0
M  V30 27257 C 1658.91 -7.92526 2.10483 0
M  V30 27258 O 1658.52 -8.02971 3.47653 0
M  V30 27259 C 1658.03 -6.89602 1.41652 0
M  V30 27260 C 1658.74 -5.59201 1.75185 0
M  V30 27261 N 1658.69 -4.58235 0.662552 0
M  V30 27262 H 1661.53 -8.65116 0.777161 0
M  V30 27263 H 1661.8 -6.90173 0.474152 0
M  V30 27264 H 1660.93 -7.66548 2.79458 0
M  V30 27265 P 1656.97 -8.03563 3.84925 0
M  V30 27266 O 1656.75 -8.85821 5.0569 0
M  V30 27267 O 1656.18 -8.41101 2.65469 0
M  V30 27268 O 1656.72 -6.4965 4.18908 0
M  V30 27269 C 1657.66 -5.80886 5.05289 0
M  V30 27270 C 1656.93 -4.78366 5.89277 0
M  V30 27271 O 1656.72 -3.58302 5.08433 0
M  V30 27272 C 1655.53 -5.16748 6.36559 0
M  V30 27273 O 1655.14 -4.45271 7.53232 0
M  V30 27274 C 1654.65 -4.74572 5.19863 0
M  V30 27275 C 1655.36 -3.49373 4.70338 0
M  V30 27276 N 1655.31 -3.31704 3.22876 0
M  V30 27277 C 1655.16 -2.03326 2.74871 0
M  V30 27278 O 1655.07 -1.06486 3.48076 0
M  V30 27279 N 1655.12 -1.91838 1.37456 0
M  V30 27280 C 1655.21 -2.94295 0.462035 0
M  V30 27281 O 1655.16 -2.71763 -0.752928 0
M  V30 27282 C 1655.36 -4.25064 1.05249 0
M  V30 27283 C 1655.47 -5.39815 0.095697 0
M  V30 27284 C 1655.41 -4.40214 2.39192 0
M  V30 27285 H 1658.15 -6.54063 5.71245 0
M  V30 27286 H 1658.42 -5.30339 4.43905 0
M  V30 27287 H 1657.55 -4.55889 6.76652 0
M  V30 27288 H 1654.9 -2.6167 5.17842 0
M  V30 27289 H 1654.62 -5.52155 4.41878 0
M  V30 27290 H 1653.63 -4.51918 5.53297 0
M  V30 27291 H 1655.46 -6.25055 6.55162 0
M  V30 27292 H 1655.53 -5.39798 2.81523 0
M  V30 27293 H 1654.5 -5.91593 0.0279582 0
M  V30 27294 H 1656.24 -6.10038 0.450573 0
M  V30 27295 H 1655.75 -5.02007 -0.89937 0
M  V30 27296 H 1655.02 -0.995326 1.00435 0
M  V30 27297 P 1653.59 -4.23843 7.83734 0
M  V30 27298 O 1653.37 -4.19407 9.29784 0
M  V30 27299 O 1652.8 -5.24426 7.09156 0
M  V30 27300 O 1653.34 -2.7935 7.20758 0
M  V30 27301 C 1654.28 -1.7299 7.50419 0
M  V30 27302 C 1653.55 -0.406376 7.57911 0
M  V30 27303 O 1653.34 0.0897726 6.21935 0
M  V30 27304 C 1652.15 -0.447224 8.1878 0
M  V30 27305 O 1651.76 0.825065 8.71101 0
M  V30 27306 C 1651.27 -0.783801 6.99623 0
M  V30 27307 C 1651.98 -0.0619192 5.85967 0
M  V30 27308 N 1651.93 -0.7859 4.56281 0
M  V30 27309 H 1654.77 -1.93423 8.4679 0
M  V30 27310 H 1655.04 -1.68181 6.71046 0
M  V30 27311 H 1654.17 0.289041 8.15388 0
M  V30 27312 P 1650.21 1.17771 8.83182 0
M  V30 27313 O 1649.99 2.07206 9.98732 0
M  V30 27314 O 1649.42 -0.0743816 8.81969 0
M  V30 27315 O 1649.96 1.97652 7.47304 0
M  V30 27316 C 1650.9 3.01133 7.08783 0
M  V30 27317 C 1650.17 4.12613 6.37049 0
M  V30 27318 O 1649.96 3.72827 4.97879 0
M  V30 27319 C 1648.77 4.45085 6.88694 0
M  V30 27320 O 1648.38 5.7877 6.5624 0
M  V30 27321 C 1647.89 3.47817 6.12078 0
M  V30 27322 C 1648.6 3.39414 4.77697 0
M  V30 27323 N 1648.55 2.04615 4.15333 0
M  V30 27324 H 1651.39 3.41248 7.98759 0
M  V30 27325 H 1651.66 2.5837 6.41742 0
M  V30 27326 H 1650.79 5.02657 6.42673 0
M  V30 27327 P 1646.83 6.144 6.45285 0
M  V30 27328 O 1646.61 7.54673 6.86199 0
M  V30 27329 O 1646.04 5.12391 7.179 0
M  V30 27330 O 1646.58 5.99158 4.88404 0
M  V30 27331 C 1647.52 6.60234 3.96415 0
M  V30 27332 C 1646.79 7.08259 2.72856 0
M  V30 27333 O 1646.58 5.9427 1.83651 0
M  V30 27334 C 1645.39 7.64886 2.9555 0
M  V30 27335 O 1645 8.53963 1.90717 0
M  V30 27336 C 1644.51 6.4116 2.90739 0
M  V30 27337 C 1645.22 5.55375 1.86963 0
M  V30 27338 N 1645.17 4.09664 2.15742 0
M  V30 27339 H 1648.01 7.45574 4.45629 0
M  V30 27340 H 1648.28 5.86232 3.67314 0
M  V30 27341 H 1647.41 7.84412 2.24479 0
M  V30 27342 P 1643.45 8.7635 1.60911 0
M  V30 27343 O 1643.23 10.1388 1.11561 0
M  V30 27344 O 1642.66 8.36503 2.79617 0
M  V30 27345 O 1643.2 7.71806 0.42951 0
M  V30 27346 C 1644.14 7.67148 -0.673689 0
M  V30 27347 C 1643.41 7.33374 -1.95559 0
M  V30 27348 O 1643.2 5.88721 -2.00726 0
M  V30 27349 C 1642.01 7.92526 -2.10483 0
M  V30 27350 O 1641.62 8.02971 -3.47653 0
M  V30 27351 C 1641.13 6.89602 -1.41652 0
M  V30 27352 C 1641.84 5.59201 -1.75185 0
M  V30 27353 N 1641.79 4.58235 -0.662552 0
M  V30 27354 H 1644.63 8.65116 -0.777161 0
M  V30 27355 H 1644.9 6.90173 -0.474152 0
M  V30 27356 H 1644.03 7.66548 -2.79458 0
M  V30 27357 P 1640.07 8.03563 -3.84925 0
M  V30 27358 O 1639.85 8.85821 -5.0569 0
M  V30 27359 O 1639.28 8.41101 -2.65469 0
M  V30 27360 O 1639.82 6.4965 -4.18908 0
M  V30 27361 C 1640.76 5.81037 -5.05421 0
M  V30 27362 C 1640.03 4.78366 -5.89277 0
M  V30 27363 O 1639.82 3.58302 -5.08433 0
M  V30 27364 C 1638.63 5.17448 -6.36119 0
M  V30 27365 O 1638.24 4.45271 -7.53232 0
M  V30 27366 C 1637.75 4.74639 -5.19936 0
M  V30 27367 C 1638.46 3.49432 -4.70418 0
M  V30 27368 N 1638.41 3.32099 -3.22613 0
M  V30 27369 C 1638.49 4.28245 -2.25527 0
M  V30 27370 N 1638.42 3.80823 -1.04874 0
M  V30 27371 C 1638.27 2.44571 -1.23535 0
M  V30 27372 C 1638.14 1.37068 -0.330675 0
M  V30 27373 N 1638.13 1.51472 0.990824 0
M  V30 27374 N 1638.02 0.138614 -0.848756 0
M  V30 27375 C 1638.03 -0.00675923 -2.16999 0
M  V30 27376 N 1638.15 0.904372 -3.11122 0
M  V30 27377 C 1638.27 2.12707 -2.56212 0
M  V30 27378 H 1641.25 6.54213 -5.71376 0
M  V30 27379 H 1641.52 5.30936 -4.43503 0
M  V30 27380 H 1640.65 4.55889 -6.76652 0
M  V30 27381 H 1638 2.61715 -5.17932 0
M  V30 27382 H 1637.72 5.52155 -4.41878 0
M  V30 27383 H 1636.73 4.51981 -5.53374 0
M  V30 27384 H 1638.56 6.25124 -6.55234 0
M  V30 27385 H 1638.6 5.34372 -2.47488 0
M  V30 27386 H 1638.22 2.45153 1.4078 0
M  V30 27387 H 1638.03 0.688422 1.59911 0
M  V30 27388 H 1637.92 -1.02584 -2.52346 0
M  V30 27389 P 1636.69 4.23843 -7.83734 0
M  V30 27390 O 1636.47 4.19407 -9.29784 0
M  V30 27391 O 1635.9 5.24426 -7.09156 0
M  V30 27392 O 1636.44 2.7935 -7.20758 0
M  V30 27393 C 1637.38 1.7299 -7.50419 0
M  V30 27394 C 1636.65 0.406376 -7.57911 0
M  V30 27395 O 1636.44 -0.0897726 -6.21935 0
M  V30 27396 C 1635.25 0.447224 -8.1878 0
M  V30 27397 O 1634.86 -0.825065 -8.71101 0
M  V30 27398 C 1634.37 0.783801 -6.99623 0
M  V30 27399 C 1635.08 0.0619192 -5.85967 0
M  V30 27400 N 1635.03 0.7859 -4.56281 0
M  V30 27401 H 1637.87 1.93423 -8.4679 0
M  V30 27402 H 1638.14 1.68181 -6.71046 0
M  V30 27403 H 1637.27 -0.289041 -8.15388 0
M  V30 27404 P 1633.31 -1.17771 -8.83182 0
M  V30 27405 O 1633.09 -2.07206 -9.98732 0
M  V30 27406 O 1632.52 0.0743816 -8.81969 0
M  V30 27407 O 1633.06 -1.97652 -7.47304 0
M  V30 27408 C 1634 -3.01133 -7.08783 0
M  V30 27409 C 1633.27 -4.12613 -6.37049 0
M  V30 27410 O 1633.06 -3.72827 -4.97879 0
M  V30 27411 C 1631.87 -4.45085 -6.88694 0
M  V30 27412 O 1631.48 -5.7877 -6.5624 0
M  V30 27413 C 1630.99 -3.47817 -6.12078 0
M  V30 27414 C 1631.7 -3.39414 -4.77697 0
M  V30 27415 N 1631.65 -2.04615 -4.15333 0
M  V30 27416 H 1634.49 -3.41248 -7.98759 0
M  V30 27417 H 1634.76 -2.5837 -6.41742 0
M  V30 27418 H 1633.89 -5.02657 -6.42673 0
M  V30 27419 P 1629.93 -6.144 -6.45285 0
M  V30 27420 O 1629.71 -7.54673 -6.86199 0
M  V30 27421 O 1629.14 -5.12391 -7.179 0
M  V30 27422 O 1629.68 -5.99158 -4.88404 0
M  V30 27423 C 1630.62 -6.60234 -3.96415 0
M  V30 27424 C 1629.89 -7.08259 -2.72856 0
M  V30 27425 O 1629.68 -5.9427 -1.83651 0
M  V30 27426 C 1628.49 -7.64886 -2.9555 0
M  V30 27427 O 1628.1 -8.53963 -1.90717 0
M  V30 27428 C 1627.61 -6.4116 -2.90739 0
M  V30 27429 C 1628.32 -5.55375 -1.86963 0
M  V30 27430 N 1628.27 -4.09664 -2.15742 0
M  V30 27431 H 1631.11 -7.45574 -4.45629 0
M  V30 27432 H 1631.38 -5.86232 -3.67314 0
M  V30 27433 H 1630.51 -7.84412 -2.24479 0
M  V30 27434 P 1626.55 -8.7635 -1.60911 0
M  V30 27435 O 1626.33 -10.1388 -1.11561 0
M  V30 27436 O 1625.76 -8.36503 -2.79617 0
M  V30 27437 O 1626.3 -7.71806 -0.42951 0
M  V30 27438 C 1627.24 -7.67148 0.673689 0
M  V30 27439 C 1626.51 -7.33374 1.95559 0
M  V30 27440 O 1626.3 -5.88721 2.00726 0
M  V30 27441 C 1625.11 -7.92526 2.10483 0
M  V30 27442 O 1624.72 -8.02971 3.47653 0
M  V30 27443 C 1624.23 -6.89602 1.41652 0
M  V30 27444 C 1624.94 -5.59201 1.75185 0
M  V30 27445 N 1624.89 -4.58301 0.657969 0
M  V30 27446 H 1627.73 -8.65116 0.777161 0
M  V30 27447 H 1628 -6.9022 0.46725 0
M  V30 27448 H 1627.13 -7.66548 2.79458 0
M  V30 27449 H 1624.48 -5.16165 2.65183 0
M  V30 27450 H 1624.2 -7.06433 0.329384 0
M  V30 27451 H 1623.21 -6.90926 1.82021 0
M  V30 27452 H 1625.04 -8.90873 1.62657 0
M  V30 27453 P 1623.17 -8.03563 3.84925 0
M  V30 27454 O 1622.95 -8.85821 5.0569 0
M  V30 27455 O 1622.38 -8.41101 2.65469 0
M  V30 27456 O 1622.92 -6.49734 4.18962 0
M  V30 27457 C 1623.86 -5.81037 5.05421 0
M  V30 27458 C 1623.13 -4.79018 5.88876 0
M  V30 27459 O 1622.92 -3.58359 5.08515 0
M  V30 27460 C 1621.73 -5.17448 6.36119 0
M  V30 27461 O 1621.34 -4.45322 7.53318 0
M  V30 27462 C 1620.85 -4.74639 5.19936 0
M  V30 27463 C 1621.56 -3.49432 4.70418 0
M  V30 27464 N 1621.51 -3.31776 3.22945 0
M  V30 27465 C 1621.36 -2.02742 2.72939 0
M  V30 27466 O 1621.27 -1.08301 3.52749 0
M  V30 27467 N 1621.31 -1.96117 1.22063 0
M  V30 27468 C 1621.41 -2.8878 0.551566 0
M  V30 27469 N 1621.36 -2.65609 -0.750198 0
M  V30 27470 C 1621.56 -4.22457 1.03707 0
M  V30 27471 C 1621.61 -4.37979 2.39113 0
M  V30 27472 H 1624.35 -6.54138 5.7131 0
M  V30 27473 H 1624.62 -5.30492 4.44033 0
M  V30 27474 H 1623.75 -4.55945 6.76735 0
M  V30 27475 H 1621.1 -2.6176 5.18021 0
M  V30 27476 H 1620.82 -5.52233 4.41941 0
M  V30 27477 H 1619.83 -4.52045 5.53452 0
M  V30 27478 H 1621.66 -6.25124 6.55234 0
M  V30 27479 H 1621.73 -5.37936 2.80552 0
M  V30 27480 H 1621.63 -5.07528 0.359553 0
M  V30 27481 H 1621.24 -1.69403 -1.09847 0
M  V30 27482 H 1621.44 -3.43701 -1.41792 0
M  V30 27483 P 1619.79 -4.23843 7.83734 0
M  V30 27484 O 1619.57 -4.19407 9.29784 0
M  V30 27485 O 1619 -5.24426 7.09156 0
M  V30 27486 O 1619.54 -2.7935 7.20758 0
M  V30 27487 C 1620.48 -1.7299 7.50419 0
M  V30 27488 C 1619.75 -0.406376 7.57911 0
M  V30 27489 O 1619.54 0.0897726 6.21935 0
M  V30 27490 C 1618.35 -0.447224 8.1878 0
M  V30 27491 O 1617.96 0.825065 8.71101 0
M  V30 27492 C 1617.47 -0.783801 6.99623 0
M  V30 27493 C 1618.18 -0.0619192 5.85967 0
M  V30 27494 N 1618.13 -0.790462 4.56202 0
M  V30 27495 H 1620.97 -1.93423 8.4679 0
M  V30 27496 H 1621.24 -1.68852 6.70877 0
M  V30 27497 H 1620.37 0.289041 8.15388 0
M  V30 27498 H 1617.72 0.927006 5.72848 0
M  V30 27499 H 1617.44 -1.86973 6.82036 0
M  V30 27500 H 1616.45 -0.403953 7.13357 0
M  V30 27501 H 1618.28 -1.20599 8.97534 0
M  V30 27502 P 1616.41 1.17771 8.83182 0
M  V30 27503 O 1616.19 2.07206 9.98732 0
M  V30 27504 O 1615.62 -0.0743816 8.81969 0
M  V30 27505 O 1616.16 1.97678 7.474 0
M  V30 27506 C 1617.1 3.01133 7.08783 0
M  V30 27507 C 1616.37 4.1203 6.37546 0
M  V30 27508 O 1616.16 3.72887 4.9796 0
M  V30 27509 C 1614.97 4.45085 6.88694 0
M  V30 27510 O 1614.58 5.78836 6.56315 0
M  V30 27511 C 1614.09 3.47817 6.12078 0
M  V30 27512 C 1614.8 3.39414 4.77697 0
M  V30 27513 N 1614.75 2.04615 4.15333 0
M  V30 27514 C 1614.6 1.96929 2.77162 0
M  V30 27515 O 1614.51 3.02017 2.12006 0
M  V30 27516 N 1614.55 0.55485 2.24237 0
M  V30 27517 C 1614.65 -0.367808 2.9169 0
M  V30 27518 N 1614.6 -1.53426 2.29427 0
M  V30 27519 C 1614.8 -0.319148 4.33828 0
M  V30 27520 C 1614.85 0.920672 4.90433 0
M  V30 27521 H 1617.59 3.41209 7.98667 0
M  V30 27522 H 1617.86 2.5837 6.41742 0
M  V30 27523 H 1616.99 5.02718 6.42752 0
M  V30 27524 H 1614.34 4.11779 4.09026 0
M  V30 27525 H 1614.06 2.49661 6.61772 0
M  V30 27526 H 1613.07 3.86674 6.00946 0
M  V30 27527 H 1614.9 4.29991 7.97006 0
M  V30 27528 H 1614.97 1.00589 5.98303 0
M  V30 27529 H 1614.87 -1.22639 4.93799 0
M  V30 27530 H 1614.48 -1.56819 1.27167 0
M  V30 27531 H 1614.68 -2.41062 2.83063 0
M  V30 27532 P 1613.03 6.144 6.45285 0
M  V30 27533 O 1612.81 7.54673 6.86199 0
M  V30 27534 O 1612.24 5.12391 7.179 0
M  V30 27535 O 1612.78 5.99158 4.88404 0
M  V30 27536 C 1613.72 6.60062 3.96313 0
M  V30 27537 C 1612.99 7.08259 2.72856 0
M  V30 27538 O 1612.78 5.9427 1.83651 0
M  V30 27539 C 1611.59 7.65087 2.94749 0
M  V30 27540 O 1611.2 8.53963 1.90717 0
M  V30 27541 C 1610.71 6.41069 2.90698 0
M  V30 27542 C 1611.42 5.5528 1.86931 0
M  V30 27543 N 1611.37 4.09575 2.15696 0
M  V30 27544 C 1611.22 3.24249 1.08435 0
M  V30 27545 O 1611.13 3.63946 -0.0628747 0
M  V30 27546 N 1611.18 1.90009 1.39973 0
M  V30 27547 C 1611.27 1.34884 2.65614 0
M  V30 27548 O 1611.22 0.123716 2.81728 0
M  V30 27549 C 1611.42 2.3145 3.71736 0
M  V30 27550 C 1611.53 1.75913 5.10438 0
M  V30 27551 C 1611.47 3.63518 3.44754 0
M  V30 27552 H 1614.21 7.45402 4.45526 0
M  V30 27553 H 1614.48 5.86062 3.67208 0
M  V30 27554 H 1613.61 7.84412 2.24479 0
M  V30 27555 H 1610.96 5.73358 0.888409 0
M  V30 27556 H 1610.68 5.90877 3.88583 0
M  V30 27557 H 1609.69 6.65867 2.58821 0
M  V30 27558 H 1611.52 8.16248 3.92006 0
M  V30 27559 H 1611.59 4.34551 4.26383 0
M  V30 27560 H 1610.56 1.85471 5.61775 0
M  V30 27561 H 1612.3 2.31364 5.66257 0
M  V30 27562 H 1611.81 0.695936 5.05229 0
M  V30 27563 H 1611.08 1.26277 0.63625 0
M  V30 27564 P 1609.65 8.7635 1.60911 0
M  V30 27565 O 1609.43 10.1388 1.11561 0
M  V30 27566 O 1608.86 8.36503 2.79617 0
M  V30 27567 O 1609.4 7.71806 0.42951 0
M  V30 27568 C 1610.34 7.67148 -0.673689 0
M  V30 27569 C 1609.61 7.33374 -1.95559 0
M  V30 27570 O 1609.4 5.88721 -2.00726 0
M  V30 27571 C 1608.21 7.92526 -2.10483 0
M  V30 27572 O 1607.82 8.02971 -3.47653 0
M  V30 27573 C 1607.33 6.89602 -1.41652 0
M  V30 27574 C 1608.04 5.59201 -1.75185 0
M  V30 27575 N 1607.99 4.58235 -0.662552 0
M  V30 27576 H 1610.83 8.65116 -0.777161 0
M  V30 27577 H 1611.1 6.90173 -0.474152 0
M  V30 27578 H 1610.23 7.66548 -2.79458 0
M  V30 27579 P 1606.27 8.03563 -3.84925 0
M  V30 27580 O 1606.05 8.85821 -5.0569 0
M  V30 27581 O 1605.48 8.41101 -2.65469 0
M  V30 27582 O 1606.02 6.4965 -4.18908 0
M  V30 27583 C 1606.96 5.81037 -5.05421 0
M  V30 27584 C 1606.23 4.78366 -5.89277 0
M  V30 27585 O 1606.02 3.58302 -5.08433 0
M  V30 27586 C 1604.83 5.17448 -6.36119 0
M  V30 27587 O 1604.44 4.45271 -7.53232 0
M  V30 27588 C 1603.95 4.74639 -5.19936 0
M  V30 27589 C 1604.66 3.49432 -4.70418 0
M  V30 27590 N 1604.61 3.31776 -3.22945 0
M  V30 27591 H 1607.45 6.54213 -5.71376 0
M  V30 27592 H 1607.72 5.30492 -4.44033 0
M  V30 27593 H 1606.85 4.55889 -6.76652 0
M  V30 27594 P 1602.89 4.23843 -7.83734 0
M  V30 27595 O 1602.67 4.19407 -9.29784 0
M  V30 27596 O 1602.1 5.24426 -7.09156 0
M  V30 27597 O 1602.64 2.7935 -7.20758 0
M  V30 27598 C 1603.58 1.7299 -7.50419 0
M  V30 27599 C 1602.85 0.406376 -7.57911 0
M  V30 27600 O 1602.64 -0.0897726 -6.21935 0
M  V30 27601 C 1601.45 0.447224 -8.1878 0
M  V30 27602 O 1601.06 -0.825065 -8.71101 0
M  V30 27603 C 1600.57 0.783801 -6.99623 0
M  V30 27604 C 1601.28 0.0619192 -5.85967 0
M  V30 27605 N 1601.23 0.7859 -4.56281 0
M  V30 27606 H 1604.07 1.93423 -8.4679 0
M  V30 27607 H 1604.34 1.68181 -6.71046 0
M  V30 27608 H 1603.47 -0.289041 -8.15388 0
M  V30 27609 P 1599.51 -1.17771 -8.83182 0
M  V30 27610 O 1599.29 -2.07206 -9.98732 0
M  V30 27611 O 1598.72 0.0743816 -8.81969 0
M  V30 27612 O 1599.26 -1.97652 -7.47304 0
M  V30 27613 C 1600.2 -3.01133 -7.08783 0
M  V30 27614 C 1599.47 -4.12613 -6.37049 0
M  V30 27615 O 1599.26 -3.72827 -4.97879 0
M  V30 27616 C 1598.07 -4.45085 -6.88694 0
M  V30 27617 O 1597.68 -5.7877 -6.5624 0
M  V30 27618 C 1597.19 -3.47817 -6.12078 0
M  V30 27619 C 1597.9 -3.39414 -4.77697 0
M  V30 27620 N 1597.85 -2.04615 -4.15333 0
M  V30 27621 H 1600.69 -3.41248 -7.98759 0
M  V30 27622 H 1600.96 -2.5837 -6.41742 0
M  V30 27623 H 1600.09 -5.02657 -6.42673 0
M  V30 27624 P 1596.13 -6.144 -6.45285 0
M  V30 27625 O 1595.91 -7.54673 -6.86199 0
M  V30 27626 O 1595.34 -5.12391 -7.179 0
M  V30 27627 O 1595.88 -5.99158 -4.88404 0
M  V30 27628 C 1596.82 -6.60234 -3.96415 0
M  V30 27629 C 1596.09 -7.08259 -2.72856 0
M  V30 27630 O 1595.88 -5.9427 -1.83651 0
M  V30 27631 C 1594.69 -7.64886 -2.9555 0
M  V30 27632 O 1594.3 -8.53963 -1.90717 0
M  V30 27633 C 1593.81 -6.4116 -2.90739 0
M  V30 27634 C 1594.52 -5.55375 -1.86963 0
M  V30 27635 N 1594.47 -4.09448 -2.16152 0
M  V30 27636 C 1594.55 -3.46824 -3.37593 0
M  V30 27637 N 1594.48 -2.17422 -3.29777 0
M  V30 27638 C 1594.33 -1.93065 -1.94427 0
M  V30 27639 C 1594.2 -0.738053 -1.20141 0
M  V30 27640 N 1594.19 0.474256 -1.74676 0
M  V30 27641 N 1594.08 -0.850049 0.13045 0
M  V30 27642 C 1594.09 -2.06169 0.676992 0
M  V30 27643 N 1594.21 -3.23842 0.101312 0
M  V30 27644 C 1594.33 -3.09402 -1.23122 0
M  V30 27645 H 1597.31 -7.45574 -4.45629 0
M  V30 27646 H 1597.58 -5.85864 -3.679 0
M  V30 27647 H 1596.71 -7.84412 -2.24479 0
M  V30 27648 H 1594.06 -5.73457 -0.888562 0
M  V30 27649 H 1593.78 -5.90877 -3.88583 0
M  V30 27650 H 1592.79 -6.6596 -2.58858 0
M  V30 27651 H 1594.62 -8.16339 -3.92049 0
M  V30 27652 H 1594.66 -4.00505 -4.3174 0
M  V30 27653 H 1594.28 0.581337 -2.76658 0
M  V30 27654 H 1594.09 1.30811 -1.14888 0
M  V30 27655 H 1593.98 -2.08295 1.75542 0
M  V30 27656 P 1592.75 -8.7635 -1.60911 0
M  V30 27657 O 1592.53 -10.1388 -1.11561 0
M  V30 27658 O 1591.96 -8.36503 -2.79617 0
M  V30 27659 O 1592.5 -7.71806 -0.42951 0
M  V30 27660 C 1593.44 -7.67148 0.673689 0
M  V30 27661 C 1592.71 -7.33374 1.95559 0
M  V30 27662 O 1592.5 -5.88721 2.00726 0
M  V30 27663 C 1591.31 -7.92526 2.10483 0
M  V30 27664 O 1590.92 -8.02971 3.47653 0
M  V30 27665 C 1590.43 -6.89602 1.41652 0
M  V30 27666 C 1591.14 -5.59201 1.75185 0
M  V30 27667 N 1591.09 -4.58235 0.662552 0
M  V30 27668 H 1593.93 -8.65116 0.777161 0
M  V30 27669 H 1594.2 -6.90173 0.474152 0
M  V30 27670 H 1593.33 -7.66548 2.79458 0
M  V30 27671 P 1589.37 -8.03563 3.84925 0
M  V30 27672 O 1589.15 -8.85821 5.0569 0
M  V30 27673 O 1588.58 -8.41101 2.65469 0
M  V30 27674 O 1589.12 -6.4965 4.18908 0
M  V30 27675 C 1590.06 -5.81037 5.05421 0
M  V30 27676 C 1589.33 -4.78366 5.89277 0
M  V30 27677 O 1589.12 -3.58302 5.08433 0
M  V30 27678 C 1587.93 -5.17448 6.36119 0
M  V30 27679 O 1587.54 -4.45271 7.53232 0
M  V30 27680 C 1587.05 -4.74639 5.19936 0
M  V30 27681 C 1587.76 -3.49432 4.70418 0
M  V30 27682 N 1587.71 -3.32099 3.22613 0
M  V30 27683 C 1587.79 -4.28245 2.25527 0
M  V30 27684 N 1587.72 -3.80823 1.04874 0
M  V30 27685 C 1587.57 -2.44571 1.23535 0
M  V30 27686 C 1587.44 -1.37068 0.330675 0
M  V30 27687 N 1587.43 -1.51472 -0.990824 0
M  V30 27688 N 1587.32 -0.138614 0.848756 0
M  V30 27689 C 1587.33 0.00675923 2.16999 0
M  V30 27690 N 1587.45 -0.904372 3.11122 0
M  V30 27691 C 1587.57 -2.12707 2.56212 0
M  V30 27692 H 1590.55 -6.54213 5.71376 0
M  V30 27693 H 1590.82 -5.30936 4.43503 0
M  V30 27694 H 1589.95 -4.55889 6.76652 0
M  V30 27695 H 1587.3 -2.61715 5.17932 0
M  V30 27696 H 1587.02 -5.52155 4.41878 0
M  V30 27697 H 1586.03 -4.51981 5.53374 0
M  V30 27698 H 1587.86 -6.25124 6.55234 0
M  V30 27699 H 1587.9 -5.34372 2.47488 0
M  V30 27700 H 1587.52 -2.45153 -1.4078 0
M  V30 27701 H 1587.33 -0.688422 -1.59911 0
M  V30 27702 H 1587.22 1.02584 2.52346 0
M  V30 27703 P 1585.99 -4.23843 7.83734 0
M  V30 27704 O 1585.77 -4.19407 9.29784 0
M  V30 27705 O 1585.2 -5.24426 7.09156 0
M  V30 27706 O 1585.74 -2.7935 7.20758 0
M  V30 27707 C 1586.68 -1.7299 7.50419 0
M  V30 27708 C 1585.95 -0.406376 7.57911 0
M  V30 27709 O 1585.74 0.0897726 6.21935 0
M  V30 27710 C 1584.55 -0.447224 8.1878 0
M  V30 27711 O 1584.16 0.825065 8.71101 0
M  V30 27712 C 1583.67 -0.783801 6.99623 0
M  V30 27713 C 1584.38 -0.0619192 5.85967 0
M  V30 27714 N 1584.33 -0.790462 4.56202 0
M  V30 27715 H 1587.17 -1.93423 8.4679 0
M  V30 27716 H 1587.44 -1.68852 6.70877 0
M  V30 27717 H 1586.57 0.289041 8.15388 0
M  V30 27718 H 1583.92 0.927006 5.72848 0
M  V30 27719 H 1583.64 -1.86973 6.82036 0
M  V30 27720 H 1582.65 -0.403953 7.13357 0
M  V30 27721 H 1584.48 -1.20599 8.97534 0
M  V30 27722 P 1582.61 1.17771 8.83182 0
M  V30 27723 O 1582.39 2.07206 9.98732 0
M  V30 27724 O 1581.82 -0.0743816 8.81969 0
M  V30 27725 O 1582.36 1.97652 7.47304 0
M  V30 27726 C 1583.3 3.01133 7.08783 0
M  V30 27727 C 1582.57 4.12613 6.37049 0
M  V30 27728 O 1582.36 3.72827 4.97879 0
M  V30 27729 C 1581.17 4.45085 6.88694 0
M  V30 27730 O 1580.78 5.7877 6.5624 0
M  V30 27731 C 1580.29 3.47817 6.12078 0
M  V30 27732 C 1581 3.39414 4.77697 0
M  V30 27733 N 1580.95 2.04615 4.15333 0
M  V30 27734 H 1583.79 3.41248 7.98759 0
M  V30 27735 H 1584.06 2.5837 6.41742 0
M  V30 27736 H 1583.19 5.02657 6.42673 0
M  V30 27737 P 1579.23 6.144 6.45285 0
M  V30 27738 O 1579.01 7.54673 6.86199 0
M  V30 27739 O 1578.44 5.12391 7.179 0
M  V30 27740 O 1578.98 5.99158 4.88404 0
M  V30 27741 C 1579.92 6.60234 3.96415 0
M  V30 27742 C 1579.19 7.08259 2.72856 0
M  V30 27743 O 1578.98 5.9427 1.83651 0
M  V30 27744 C 1577.79 7.64886 2.9555 0
M  V30 27745 O 1577.4 8.53963 1.90717 0
M  V30 27746 C 1576.91 6.4116 2.90739 0
M  V30 27747 C 1577.62 5.55375 1.86963 0
M  V30 27748 N 1577.57 4.09448 2.16152 0
M  V30 27749 H 1580.41 7.45574 4.45629 0
M  V30 27750 H 1580.68 5.85864 3.679 0
M  V30 27751 H 1579.81 7.84412 2.24479 0
M  V30 27752 H 1577.16 5.73457 0.888562 0
M  V30 27753 H 1576.88 5.90877 3.88583 0
M  V30 27754 H 1575.89 6.6596 2.58858 0
M  V30 27755 H 1577.72 8.16339 3.92049 0
M  V30 27756 P 1575.85 8.7635 1.60911 0
M  V30 27757 O 1575.63 10.1388 1.11561 0
M  V30 27758 O 1575.06 8.36503 2.79617 0
M  V30 27759 O 1575.6 7.71806 0.42951 0
M  V30 27760 C 1576.54 7.67148 -0.673689 0
M  V30 27761 C 1575.81 7.33374 -1.95559 0
M  V30 27762 O 1575.6 5.88721 -2.00726 0
M  V30 27763 C 1574.41 7.92526 -2.10483 0
M  V30 27764 O 1574.02 8.02971 -3.47653 0
M  V30 27765 C 1573.53 6.89602 -1.41652 0
M  V30 27766 C 1574.24 5.59201 -1.75185 0
M  V30 27767 N 1574.19 4.58235 -0.662552 0
M  V30 27768 H 1577.03 8.65116 -0.777161 0
M  V30 27769 H 1577.3 6.90173 -0.474152 0
M  V30 27770 H 1576.43 7.66548 -2.79458 0
M  V30 27771 P 1572.47 8.03563 -3.84925 0
M  V30 27772 O 1572.25 8.85821 -5.0569 0
M  V30 27773 O 1571.68 8.41101 -2.65469 0
M  V30 27774 O 1572.22 6.4965 -4.18908 0
M  V30 27775 C 1573.16 5.81037 -5.05421 0
M  V30 27776 C 1572.43 4.78366 -5.89277 0
M  V30 27777 O 1572.22 3.58302 -5.08433 0
M  V30 27778 C 1571.03 5.17448 -6.36119 0
M  V30 27779 O 1570.64 4.45271 -7.53232 0
M  V30 27780 C 1570.15 4.74639 -5.19936 0
M  V30 27781 C 1570.86 3.49432 -4.70418 0
M  V30 27782 N 1570.81 3.31776 -3.22945 0
M  V30 27783 H 1573.65 6.54213 -5.71376 0
M  V30 27784 H 1573.92 5.30492 -4.44033 0
M  V30 27785 H 1573.05 4.55889 -6.76652 0
M  V30 27786 P 1569.09 4.23843 -7.83734 0
M  V30 27787 O 1568.87 4.19407 -9.29784 0
M  V30 27788 O 1568.3 5.24426 -7.09156 0
M  V30 27789 O 1568.84 2.7935 -7.20758 0
M  V30 27790 C 1569.78 1.72945 -7.50224 0
M  V30 27791 C 1569.05 0.406376 -7.57911 0
M  V30 27792 O 1568.84 -0.0897726 -6.21935 0
M  V30 27793 C 1567.65 0.438983 -8.18724 0
M  V30 27794 O 1567.26 -0.825065 -8.71101 0
M  V30 27795 C 1566.77 0.783689 -6.99524 0
M  V30 27796 C 1567.48 0.0619086 -5.85867 0
M  V30 27797 N 1567.43 0.78573 -4.56183 0
M  V30 27798 C 1567.28 0.0292889 -3.41887 0
M  V30 27799 O 1567.19 -1.18445 -3.4419 0
M  V30 27800 N 1567.24 0.744061 -2.23964 0
M  V30 27801 C 1567.33 2.10932 -2.10362 0
M  V30 27802 C 1567.48 2.8202 -3.34994 0
M  V30 27803 C 1567.53 2.15547 -4.52261 0
M  V30 27804 H 1570.27 1.93379 -8.46595 0
M  V30 27805 H 1570.54 1.68132 -6.70852 0
M  V30 27806 H 1569.67 -0.289041 -8.15388 0
M  V30 27807 H 1567.02 -0.926847 -5.72749 0
M  V30 27808 H 1566.74 1.86973 -6.82036 0
M  V30 27809 H 1565.75 0.403896 -7.13257 0
M  V30 27810 H 1567.58 1.20585 -8.97435 0
M  V30 27811 H 1567.65 2.71231 -5.45042 0
M  V30 27812 P 1565.71 -1.17771 -8.83182 0
M  V30 27813 O 1565.49 -2.07206 -9.98732 0
M  V30 27814 O 1564.92 0.0743816 -8.81969 0
M  V30 27815 O 1565.46 -1.97652 -7.47304 0
M  V30 27816 C 1566.4 -3.01133 -7.08783 0
M  V30 27817 C 1565.67 -4.12613 -6.37049 0
M  V30 27818 O 1565.46 -3.72827 -4.97879 0
M  V30 27819 C 1564.27 -4.45085 -6.88694 0
M  V30 27820 O 1563.88 -5.7877 -6.5624 0
M  V30 27821 C 1563.39 -3.47817 -6.12078 0
M  V30 27822 C 1564.1 -3.39414 -4.77697 0
M  V30 27823 N 1564.05 -2.04615 -4.15333 0
M  V30 27824 H 1566.89 -3.41248 -7.98759 0
M  V30 27825 H 1567.16 -2.5837 -6.41742 0
M  V30 27826 H 1566.29 -5.02657 -6.42673 0
M  V30 27827 P 1562.33 -6.144 -6.45285 0
M  V30 27828 O 1562.11 -7.54673 -6.86199 0
M  V30 27829 O 1561.54 -5.12391 -7.179 0
M  V30 27830 O 1562.08 -5.99158 -4.88404 0
M  V30 27831 C 1563.02 -6.60062 -3.96313 0
M  V30 27832 C 1562.29 -7.08259 -2.72856 0
M  V30 27833 O 1562.08 -5.9427 -1.83651 0
M  V30 27834 C 1560.89 -7.65087 -2.94749 0
M  V30 27835 O 1560.5 -8.53963 -1.90717 0
M  V30 27836 C 1560.01 -6.41069 -2.90698 0
M  V30 27837 C 1560.72 -5.5528 -1.86931 0
M  V30 27838 N 1560.67 -4.09575 -2.15696 0
M  V30 27839 C 1560.52 -3.24249 -1.08435 0
M  V30 27840 O 1560.43 -3.63946 0.0628747 0
M  V30 27841 N 1560.48 -1.90009 -1.39973 0
M  V30 27842 C 1560.57 -1.34884 -2.65614 0
M  V30 27843 O 1560.52 -0.123716 -2.81728 0
M  V30 27844 C 1560.72 -2.3145 -3.71736 0
M  V30 27845 C 1560.83 -1.75913 -5.10438 0
M  V30 27846 C 1560.77 -3.63518 -3.44754 0
M  V30 27847 H 1563.51 -7.45402 -4.45526 0
M  V30 27848 H 1563.78 -5.86062 -3.67208 0
M  V30 27849 H 1562.91 -7.84412 -2.24479 0
M  V30 27850 H 1560.26 -5.73358 -0.888409 0
M  V30 27851 H 1559.98 -5.90877 -3.88583 0
M  V30 27852 H 1558.99 -6.65867 -2.58821 0
M  V30 27853 H 1560.82 -8.16248 -3.92006 0
M  V30 27854 H 1560.89 -4.34551 -4.26383 0
M  V30 27855 H 1559.86 -1.85471 -5.61775 0
M  V30 27856 H 1561.6 -2.31364 -5.66257 0
M  V30 27857 H 1561.11 -0.695936 -5.05229 0
M  V30 27858 H 1560.38 -1.26277 -0.63625 0
M  V30 27859 P 1558.95 -8.7635 -1.60911 0
M  V30 27860 O 1558.73 -10.1388 -1.11561 0
M  V30 27861 O 1558.16 -8.36503 -2.79617 0
M  V30 27862 O 1558.7 -7.71806 -0.42951 0
M  V30 27863 C 1559.64 -7.67148 0.673689 0
M  V30 27864 C 1558.91 -7.33374 1.95559 0
M  V30 27865 O 1558.7 -5.88721 2.00726 0
M  V30 27866 C 1557.51 -7.92526 2.10483 0
M  V30 27867 O 1557.12 -8.02971 3.47653 0
M  V30 27868 C 1556.63 -6.89602 1.41652 0
M  V30 27869 C 1557.34 -5.59201 1.75185 0
M  V30 27870 N 1557.29 -4.58235 0.662552 0
M  V30 27871 H 1560.13 -8.65116 0.777161 0
M  V30 27872 H 1560.4 -6.90173 0.474152 0
M  V30 27873 H 1559.53 -7.66548 2.79458 0
M  V30 27874 P 1555.57 -8.03563 3.84925 0
M  V30 27875 O 1555.35 -8.85821 5.0569 0
M  V30 27876 O 1554.78 -8.41101 2.65469 0
M  V30 27877 O 1555.32 -6.4965 4.18908 0
M  V30 27878 C 1556.26 -5.81037 5.05421 0
M  V30 27879 C 1555.53 -4.78366 5.89277 0
M  V30 27880 O 1555.32 -3.58302 5.08433 0
M  V30 27881 C 1554.13 -5.17448 6.36119 0
M  V30 27882 O 1553.74 -4.45271 7.53232 0
M  V30 27883 C 1553.25 -4.74639 5.19936 0
M  V30 27884 C 1553.96 -3.49432 4.70418 0
M  V30 27885 N 1553.91 -3.32099 3.22613 0
M  V30 27886 H 1556.75 -6.54213 5.71376 0
M  V30 27887 H 1557.02 -5.30936 4.43503 0
M  V30 27888 H 1556.15 -4.55889 6.76652 0
M  V30 27889 H 1553.5 -2.61715 5.17932 0
M  V30 27890 H 1553.22 -5.52155 4.41878 0
M  V30 27891 H 1552.23 -4.51981 5.53374 0
M  V30 27892 H 1554.06 -6.25124 6.55234 0
M  V30 27893 P 1552.19 -4.23843 7.83734 0
M  V30 27894 O 1551.97 -4.19407 9.29784 0
M  V30 27895 O 1551.4 -5.24426 7.09156 0
M  V30 27896 O 1551.94 -2.7935 7.20758 0
M  V30 27897 C 1552.88 -1.7299 7.50419 0
M  V30 27898 C 1552.15 -0.406376 7.57911 0
M  V30 27899 O 1551.94 0.0897726 6.21935 0
M  V30 27900 C 1550.75 -0.447224 8.1878 0
M  V30 27901 O 1550.36 0.825065 8.71101 0
M  V30 27902 C 1549.87 -0.783801 6.99623 0
M  V30 27903 C 1550.58 -0.0619192 5.85967 0
M  V30 27904 N 1550.53 -0.790462 4.56202 0
M  V30 27905 H 1553.37 -1.93423 8.4679 0
M  V30 27906 H 1553.64 -1.68852 6.70877 0
M  V30 27907 H 1552.77 0.289041 8.15388 0
M  V30 27908 H 1550.12 0.927006 5.72848 0
M  V30 27909 H 1549.84 -1.86973 6.82036 0
M  V30 27910 H 1548.85 -0.403953 7.13357 0
M  V30 27911 H 1550.68 -1.20599 8.97534 0
M  V30 27912 P 1548.81 1.17771 8.83182 0
M  V30 27913 O 1548.59 2.07206 9.98732 0
M  V30 27914 O 1548.02 -0.0743816 8.81969 0
M  V30 27915 O 1548.56 1.97652 7.47304 0
M  V30 27916 C 1549.5 3.01133 7.08783 0
M  V30 27917 C 1548.77 4.12613 6.37049 0
M  V30 27918 O 1548.56 3.72827 4.97879 0
M  V30 27919 C 1547.37 4.45085 6.88694 0
M  V30 27920 O 1546.98 5.7877 6.5624 0
M  V30 27921 C 1546.49 3.47817 6.12078 0
M  V30 27922 C 1547.2 3.39414 4.77697 0
M  V30 27923 N 1547.15 2.04615 4.15333 0
M  V30 27924 H 1549.99 3.41248 7.98759 0
M  V30 27925 H 1550.26 2.5837 6.41742 0
M  V30 27926 H 1549.39 5.02657 6.42673 0
M  V30 27927 P 1545.43 6.144 6.45285 0
M  V30 27928 O 1545.21 7.54673 6.86199 0
M  V30 27929 O 1544.64 5.12391 7.179 0
M  V30 27930 O 1545.18 5.99158 4.88404 0
M  V30 27931 C 1546.12 6.60234 3.96415 0
M  V30 27932 C 1545.39 7.08259 2.72856 0
M  V30 27933 O 1545.18 5.9427 1.83651 0
M  V30 27934 C 1543.99 7.64886 2.9555 0
M  V30 27935 O 1543.6 8.53963 1.90717 0
M  V30 27936 C 1543.11 6.4116 2.90739 0
M  V30 27937 C 1543.82 5.55375 1.86963 0
M  V30 27938 N 1543.77 4.09448 2.16152 0
M  V30 27939 H 1546.61 7.45574 4.45629 0
M  V30 27940 H 1546.88 5.85864 3.679 0
M  V30 27941 H 1546.01 7.84412 2.24479 0
M  V30 27942 H 1543.36 5.73457 0.888562 0
M  V30 27943 H 1543.08 5.90877 3.88583 0
M  V30 27944 H 1542.09 6.6596 2.58858 0
M  V30 27945 H 1543.92 8.16339 3.92049 0
M  V30 27946 P 1542.05 8.7635 1.60911 0
M  V30 27947 O 1541.83 10.1388 1.11561 0
M  V30 27948 O 1541.26 8.36503 2.79617 0
M  V30 27949 O 1541.8 7.71806 0.42951 0
M  V30 27950 C 1542.74 7.67148 -0.673689 0
M  V30 27951 C 1542.01 7.33374 -1.95559 0
M  V30 27952 O 1541.8 5.88721 -2.00726 0
M  V30 27953 C 1540.61 7.92526 -2.10483 0
M  V30 27954 O 1540.22 8.02971 -3.47653 0
M  V30 27955 C 1539.73 6.89602 -1.41652 0
M  V30 27956 C 1540.44 5.59201 -1.75185 0
M  V30 27957 N 1540.39 4.58235 -0.662552 0
M  V30 27958 H 1543.23 8.65116 -0.777161 0
M  V30 27959 H 1543.5 6.90173 -0.474152 0
M  V30 27960 H 1542.63 7.66548 -2.79458 0
M  V30 27961 P 1538.67 8.03563 -3.84925 0
M  V30 27962 O 1538.45 8.85821 -5.0569 0
M  V30 27963 O 1537.88 8.41101 -2.65469 0
M  V30 27964 O 1538.42 6.4965 -4.18908 0
M  V30 27965 C 1539.36 5.80886 -5.05289 0
M  V30 27966 C 1538.63 4.78366 -5.89277 0
M  V30 27967 O 1538.42 3.58302 -5.08433 0
M  V30 27968 C 1537.23 5.16748 -6.36559 0
M  V30 27969 O 1536.84 4.45271 -7.53232 0
M  V30 27970 C 1536.35 4.74572 -5.19863 0
M  V30 27971 C 1537.06 3.49373 -4.70338 0
M  V30 27972 N 1537.01 3.31704 -3.22876 0
M  V30 27973 C 1536.86 2.03326 -2.74871 0
M  V30 27974 O 1536.77 1.06486 -3.48076 0
M  V30 27975 N 1536.82 1.91838 -1.37456 0
M  V30 27976 C 1536.91 2.94295 -0.462035 0
M  V30 27977 C 1537.06 4.25064 -1.05249 0
M  V30 27978 C 1537.11 4.40214 -2.39192 0
M  V30 27979 H 1539.85 6.54063 -5.71245 0
M  V30 27980 H 1540.12 5.30339 -4.43905 0
M  V30 27981 H 1539.25 4.55889 -6.76652 0
M  V30 27982 H 1536.6 2.6167 -5.17842 0
M  V30 27983 H 1536.32 5.52155 -4.41878 0
M  V30 27984 H 1535.33 4.51918 -5.53297 0
M  V30 27985 H 1537.16 6.25055 -6.55162 0
M  V30 27986 H 1537.23 5.39798 -2.81523 0
M  V30 27987 P 1535.29 4.23843 -7.83734 0
M  V30 27988 O 1535.07 4.19407 -9.29784 0
M  V30 27989 O 1534.5 5.24426 -7.09156 0
M  V30 27990 O 1535.04 2.79386 -7.20852 0
M  V30 27991 C 1535.98 1.7299 -7.50419 0
M  V30 27992 C 1535.25 0.41401 -7.5797 0
M  V30 27993 O 1535.04 -0.089787 -6.22035 0
M  V30 27994 C 1533.85 0.447224 -8.1878 0
M  V30 27995 O 1533.46 -0.825159 -8.71201 0
M  V30 27996 C 1532.97 0.783801 -6.99623 0
M  V30 27997 C 1533.68 0.0619192 -5.85967 0
M  V30 27998 N 1533.63 0.7859 -4.56281 0
M  V30 27999 C 1533.48 0.0359258 -3.39981 0
M  V30 28000 O 1533.39 -1.19723 -3.49038 0
M  V30 28001 N 1533.43 0.869151 -2.14025 0
M  V30 28002 C 1533.53 2.01207 -2.14363 0
M  V30 28003 N 1533.48 2.58978 -0.954287 0
M  V30 28004 C 1533.68 2.80817 -3.32215 0
M  V30 28005 C 1533.73 2.13785 -4.50884 0
M  V30 28006 H 1536.47 1.93401 -8.46693 0
M  V30 28007 H 1536.74 1.68181 -6.71046 0
M  V30 28008 H 1535.87 -0.289076 -8.15488 0
M  V30 28009 H 1533.22 -0.927166 -5.72947 0
M  V30 28010 H 1532.94 1.87 -6.82132 0
M  V30 28011 H 1531.95 0.404009 -7.13457 0
M  V30 28012 H 1533.78 1.20599 -8.97534 0
M  V30 28013 H 1533.85 2.70295 -5.43162 0
M  V30 28014 H 1533.75 3.89465 -3.27406 0
M  V30 28015 H 1533.36 2.01616 -0.107046 0
M  V30 28016 H 1533.56 3.61403 -0.873101 0
M  V30 28017 P 1531.91 -1.17771 -8.83182 0
M  V30 28018 O 1531.69 -2.07206 -9.98732 0
M  V30 28019 O 1531.12 0.0743816 -8.81969 0
M  V30 28020 O 1531.66 -1.97652 -7.47304 0
M  V30 28021 C 1532.6 -3.01055 -7.08599 0
M  V30 28022 C 1531.87 -4.12613 -6.37049 0
M  V30 28023 O 1531.66 -3.72827 -4.97879 0
M  V30 28024 C 1530.47 -4.45719 -6.88164 0
M  V30 28025 O 1530.08 -5.7877 -6.5624 0
M  V30 28026 C 1529.59 -3.47768 -6.11991 0
M  V30 28027 C 1530.3 -3.39356 -4.77615 0
M  V30 28028 N 1530.25 -2.04571 -4.15244 0
M  V30 28029 C 1530.1 -1.98587 -2.78314 0
M  V30 28030 O 1530.01 -2.98134 -2.08835 0
M  V30 28031 N 1530.06 -0.714467 -2.24925 0
M  V30 28032 C 1530.15 0.470001 -2.94169 0
M  V30 28033 O 1530.1 1.55587 -2.35195 0
M  V30 28034 C 1530.3 0.312541 -4.36783 0
M  V30 28035 C 1530.41 1.57711 -5.16352 0
M  V30 28036 C 1530.35 -0.914512 -4.92583 0
M  V30 28037 H 1533.09 -3.41169 -7.98575 0
M  V30 28038 H 1533.36 -2.58295 -6.41556 0
M  V30 28039 H 1532.49 -5.02657 -6.42673 0
M  V30 28040 H 1529.84 -4.11637 -4.08885 0
M  V30 28041 H 1529.56 -2.49626 -6.61679 0
M  V30 28042 H 1528.57 -3.86566 -6.00778 0
M  V30 28043 H 1530.4 -4.29943 -7.96918 0
M  V30 28044 H 1530.47 -1.00937 -6.00374 0
M  V30 28045 H 1529.44 1.80153 -5.63503 0
M  V30 28046 H 1531.18 1.4566 -5.94104 0
M  V30 28047 H 1530.69 2.40664 -4.49645 0
M  V30 28048 H 1529.96 -0.647622 -1.25697 0
M  V30 28049 P 1528.53 -6.144 -6.45285 0
M  V30 28050 O 1528.31 -7.54673 -6.86199 0
M  V30 28051 O 1527.74 -5.12391 -7.179 0
M  V30 28052 O 1528.28 -5.99158 -4.88404 0
M  V30 28053 C 1529.22 -6.60234 -3.96415 0
M  V30 28054 C 1528.49 -7.08259 -2.72856 0
M  V30 28055 O 1528.28 -5.9427 -1.83651 0
M  V30 28056 C 1527.09 -7.64886 -2.9555 0
M  V30 28057 O 1526.7 -8.53963 -1.90717 0
M  V30 28058 C 1526.21 -6.4116 -2.90739 0
M  V30 28059 C 1526.92 -5.55375 -1.86963 0
M  V30 28060 N 1526.87 -4.09664 -2.15742 0
M  V30 28061 H 1529.71 -7.45574 -4.45629 0
M  V30 28062 H 1529.98 -5.86232 -3.67314 0
M  V30 28063 H 1529.11 -7.84412 -2.24479 0
M  V30 28064 P 1525.15 -8.7635 -1.60911 0
M  V30 28065 O 1524.93 -10.1388 -1.11561 0
M  V30 28066 O 1524.36 -8.36503 -2.79617 0
M  V30 28067 O 1524.9 -7.71806 -0.42951 0
M  V30 28068 C 1525.84 -7.67148 0.673689 0
M  V30 28069 C 1525.11 -7.33374 1.95559 0
M  V30 28070 O 1524.9 -5.88721 2.00726 0
M  V30 28071 C 1523.71 -7.92526 2.10483 0
M  V30 28072 O 1523.32 -8.02971 3.47653 0
M  V30 28073 C 1522.83 -6.89602 1.41652 0
M  V30 28074 C 1523.54 -5.59201 1.75185 0
M  V30 28075 N 1523.49 -4.58301 0.657969 0
M  V30 28076 H 1526.33 -8.65116 0.777161 0
M  V30 28077 H 1526.6 -6.9022 0.46725 0
M  V30 28078 H 1525.73 -7.66548 2.79458 0
M  V30 28079 H 1523.08 -5.16165 2.65183 0
M  V30 28080 H 1522.8 -7.06433 0.329384 0
M  V30 28081 H 1521.81 -6.90926 1.82021 0
M  V30 28082 H 1523.64 -8.90873 1.62657 0
M  V30 28083 P 1521.77 -8.03563 3.84925 0
M  V30 28084 O 1521.55 -8.85821 5.0569 0
M  V30 28085 O 1520.98 -8.41101 2.65469 0
M  V30 28086 O 1521.52 -6.4965 4.18908 0
M  V30 28087 C 1522.46 -5.81037 5.05421 0
M  V30 28088 C 1521.73 -4.78366 5.89277 0
M  V30 28089 O 1521.52 -3.58302 5.08433 0
M  V30 28090 C 1520.33 -5.17448 6.36119 0
M  V30 28091 O 1519.94 -4.45271 7.53232 0
M  V30 28092 C 1519.45 -4.74639 5.19936 0
M  V30 28093 C 1520.16 -3.49432 4.70418 0
M  V30 28094 N 1520.11 -3.31776 3.22945 0
M  V30 28095 H 1522.95 -6.54213 5.71376 0
M  V30 28096 H 1523.22 -5.30492 4.44033 0
M  V30 28097 H 1522.35 -4.55889 6.76652 0
M  V30 28098 P 1518.39 -4.23843 7.83734 0
M  V30 28099 O 1518.17 -4.19407 9.29784 0
M  V30 28100 O 1517.6 -5.24426 7.09156 0
M  V30 28101 O 1518.14 -2.7935 7.20758 0
M  V30 28102 C 1519.08 -1.7299 7.50419 0
M  V30 28103 C 1518.35 -0.406376 7.57911 0
M  V30 28104 O 1518.14 0.0897726 6.21935 0
M  V30 28105 C 1516.95 -0.447224 8.1878 0
M  V30 28106 O 1516.56 0.825065 8.71101 0
M  V30 28107 C 1516.07 -0.783801 6.99623 0
M  V30 28108 C 1516.78 -0.0619192 5.85967 0
M  V30 28109 N 1516.73 -0.7859 4.56281 0
M  V30 28110 H 1519.57 -1.93423 8.4679 0
M  V30 28111 H 1519.84 -1.68181 6.71046 0
M  V30 28112 H 1518.97 0.289041 8.15388 0
M  V30 28113 P 1515.01 1.17771 8.83182 0
M  V30 28114 O 1514.79 2.07206 9.98732 0
M  V30 28115 O 1514.22 -0.0743816 8.81969 0
M  V30 28116 O 1514.76 1.97652 7.47304 0
M  V30 28117 C 1515.7 3.01133 7.08783 0
M  V30 28118 C 1514.97 4.12613 6.37049 0
M  V30 28119 O 1514.76 3.72827 4.97879 0
M  V30 28120 C 1513.57 4.45085 6.88694 0
M  V30 28121 O 1513.18 5.7877 6.5624 0
M  V30 28122 C 1512.69 3.47817 6.12078 0
M  V30 28123 C 1513.4 3.39414 4.77697 0
M  V30 28124 N 1513.35 2.04615 4.15333 0
M  V30 28125 H 1516.19 3.41248 7.98759 0
M  V30 28126 H 1516.46 2.5837 6.41742 0
M  V30 28127 H 1515.59 5.02657 6.42673 0
M  V30 28128 P 1511.63 6.144 6.45285 0
M  V30 28129 O 1511.41 7.54673 6.86199 0
M  V30 28130 O 1510.84 5.12391 7.179 0
M  V30 28131 O 1511.38 5.99158 4.88404 0
M  V30 28132 C 1512.32 6.60234 3.96415 0
M  V30 28133 C 1511.59 7.08259 2.72856 0
M  V30 28134 O 1511.38 5.9427 1.83651 0
M  V30 28135 C 1510.19 7.64886 2.9555 0
M  V30 28136 O 1509.8 8.53963 1.90717 0
M  V30 28137 C 1509.31 6.4116 2.90739 0
M  V30 28138 C 1510.02 5.55375 1.86963 0
M  V30 28139 N 1509.97 4.09664 2.15742 0
M  V30 28140 C 1510.05 3.44381 3.37233 0
M  V30 28141 N 1509.97 2.14131 3.28347 0
M  V30 28142 C 1509.83 1.90247 1.91588 0
M  V30 28143 C 1509.7 0.683992 1.20892 0
M  V30 28144 N 1509.58 0.903396 -0.173998 0
M  V30 28145 C 1509.58 2.14171 -0.784879 0
M  V30 28146 N 1509.45 2.1435 -2.11317 0
M  V30 28147 N 1509.71 3.28784 -0.119316 0
M  V30 28148 C 1509.83 3.0977 1.22194 0
M  V30 28149 H 1512.81 7.45574 4.45629 0
M  V30 28150 H 1513.08 5.86232 3.67314 0
M  V30 28151 H 1512.21 7.84412 2.24479 0
M  V30 28152 P 1508.25 8.7635 1.60911 0
M  V30 28153 O 1508.03 10.1388 1.11561 0
M  V30 28154 O 1507.46 8.36503 2.79617 0
M  V30 28155 O 1508 7.71806 0.42951 0
M  V30 28156 C 1508.94 7.67148 -0.673689 0
M  V30 28157 C 1508.21 7.33374 -1.95559 0
M  V30 28158 O 1508 5.88721 -2.00726 0
M  V30 28159 C 1506.81 7.92526 -2.10483 0
M  V30 28160 O 1506.42 8.02971 -3.47653 0
M  V30 28161 C 1505.93 6.89602 -1.41652 0
M  V30 28162 C 1506.64 5.59201 -1.75185 0
M  V30 28163 N 1506.59 4.58301 -0.657969 0
M  V30 28164 H 1509.43 8.65116 -0.777161 0
M  V30 28165 H 1509.7 6.9022 -0.46725 0
M  V30 28166 H 1508.83 7.66548 -2.79458 0
M  V30 28167 H 1506.18 5.16165 -2.65183 0
M  V30 28168 H 1505.9 7.06433 -0.329384 0
M  V30 28169 H 1504.91 6.90926 -1.82021 0
M  V30 28170 H 1506.74 8.90873 -1.62657 0
M  V30 28171 P 1504.87 8.03563 -3.84925 0
M  V30 28172 O 1504.65 8.85821 -5.0569 0
M  V30 28173 O 1504.08 8.41101 -2.65469 0
M  V30 28174 O 1504.62 6.4965 -4.18908 0
M  V30 28175 C 1505.56 5.81037 -5.05421 0
M  V30 28176 C 1504.83 4.78366 -5.89277 0
M  V30 28177 O 1504.62 3.58302 -5.08433 0
M  V30 28178 C 1503.43 5.17448 -6.36119 0
M  V30 28179 O 1503.04 4.45271 -7.53232 0
M  V30 28180 C 1502.55 4.74639 -5.19936 0
M  V30 28181 C 1503.26 3.49432 -4.70418 0
M  V30 28182 N 1503.21 3.31776 -3.22945 0
M  V30 28183 H 1506.05 6.54213 -5.71376 0
M  V30 28184 H 1506.32 5.30492 -4.44033 0
M  V30 28185 H 1505.45 4.55889 -6.76652 0
M  V30 28186 P 1501.49 4.23843 -7.83734 0
M  V30 28187 O 1501.27 4.19407 -9.29784 0
M  V30 28188 O 1500.7 5.24426 -7.09156 0
M  V30 28189 O 1501.24 2.7935 -7.20758 0
M  V30 28190 C 1502.18 1.7299 -7.50419 0
M  V30 28191 C 1501.45 0.406376 -7.57911 0
M  V30 28192 O 1501.24 -0.0897726 -6.21935 0
M  V30 28193 C 1500.05 0.447224 -8.1878 0
M  V30 28194 O 1499.66 -0.825065 -8.71101 0
M  V30 28195 C 1499.17 0.783801 -6.99623 0
M  V30 28196 C 1499.88 0.0619192 -5.85967 0
M  V30 28197 N 1499.83 0.7859 -4.56281 0
M  V30 28198 H 1502.67 1.93423 -8.4679 0
M  V30 28199 H 1502.94 1.68181 -6.71046 0
M  V30 28200 H 1502.07 -0.289041 -8.15388 0
M  V30 28201 P 1498.11 -1.17771 -8.83182 0
M  V30 28202 O 1497.89 -2.07206 -9.98732 0
M  V30 28203 O 1497.32 0.0743816 -8.81969 0
M  V30 28204 O 1497.86 -1.97652 -7.47304 0
M  V30 28205 C 1498.8 -3.01133 -7.08783 0
M  V30 28206 C 1498.07 -4.12613 -6.37049 0
M  V30 28207 O 1497.86 -3.72827 -4.97879 0
M  V30 28208 C 1496.67 -4.45085 -6.88694 0
M  V30 28209 O 1496.28 -5.7877 -6.5624 0
M  V30 28210 C 1495.79 -3.47817 -6.12078 0
M  V30 28211 C 1496.5 -3.39414 -4.77697 0
M  V30 28212 N 1496.45 -2.04615 -4.15333 0
M  V30 28213 H 1499.29 -3.41248 -7.98759 0
M  V30 28214 H 1499.56 -2.5837 -6.41742 0
M  V30 28215 H 1498.69 -5.02657 -6.42673 0
M  V30 28216 P 1494.73 -6.144 -6.45285 0
M  V30 28217 O 1494.51 -7.54673 -6.86199 0
M  V30 28218 O 1493.94 -5.12391 -7.179 0
M  V30 28219 O 1494.48 -5.99158 -4.88404 0
M  V30 28220 C 1495.42 -6.60234 -3.96415 0
M  V30 28221 C 1494.69 -7.08259 -2.72856 0
M  V30 28222 O 1494.48 -5.9427 -1.83651 0
M  V30 28223 C 1493.29 -7.64886 -2.9555 0
M  V30 28224 O 1492.9 -8.53963 -1.90717 0
M  V30 28225 C 1492.41 -6.4116 -2.90739 0
M  V30 28226 C 1493.12 -5.55375 -1.86963 0
M  V30 28227 N 1493.07 -4.09448 -2.16152 0
M  V30 28228 C 1493.15 -3.46824 -3.37593 0
M  V30 28229 N 1493.08 -2.17422 -3.29777 0
M  V30 28230 C 1492.93 -1.93065 -1.94427 0
M  V30 28231 C 1492.8 -0.738053 -1.20141 0
M  V30 28232 N 1492.79 0.474256 -1.74676 0
M  V30 28233 N 1492.68 -0.850049 0.13045 0
M  V30 28234 C 1492.69 -2.06169 0.676992 0
M  V30 28235 N 1492.81 -3.23842 0.101312 0
M  V30 28236 C 1492.93 -3.09402 -1.23122 0
M  V30 28237 H 1495.91 -7.45574 -4.45629 0
M  V30 28238 H 1496.18 -5.85864 -3.679 0
M  V30 28239 H 1495.31 -7.84412 -2.24479 0
M  V30 28240 H 1492.66 -5.73457 -0.888562 0
M  V30 28241 H 1492.38 -5.90877 -3.88583 0
M  V30 28242 H 1491.39 -6.6596 -2.58858 0
M  V30 28243 H 1493.22 -8.16339 -3.92049 0
M  V30 28244 H 1493.26 -4.00505 -4.3174 0
M  V30 28245 H 1492.88 0.581337 -2.76658 0
M  V30 28246 H 1492.69 1.30811 -1.14888 0
M  V30 28247 H 1492.59 -2.08295 1.75542 0
M  V30 28248 P 1491.35 -8.7635 -1.60911 0
M  V30 28249 O 1491.13 -10.1388 -1.11561 0
M  V30 28250 O 1490.56 -8.36503 -2.79617 0
M  V30 28251 O 1491.1 -7.71806 -0.42951 0
M  V30 28252 C 1492.04 -7.67148 0.673689 0
M  V30 28253 C 1491.31 -7.33374 1.95559 0
M  V30 28254 O 1491.1 -5.88721 2.00726 0
M  V30 28255 C 1489.91 -7.92526 2.10483 0
M  V30 28256 O 1489.52 -8.02971 3.47653 0
M  V30 28257 C 1489.03 -6.89602 1.41652 0
M  V30 28258 C 1489.74 -5.59201 1.75185 0
M  V30 28259 N 1489.69 -4.58301 0.657969 0
M  V30 28260 H 1492.53 -8.65116 0.777161 0
M  V30 28261 H 1492.8 -6.9022 0.46725 0
M  V30 28262 H 1491.93 -7.66548 2.79458 0
M  V30 28263 H 1489.28 -5.16165 2.65183 0
M  V30 28264 H 1489 -7.06433 0.329384 0
M  V30 28265 H 1488.01 -6.90926 1.82021 0
M  V30 28266 H 1489.84 -8.90873 1.62657 0
M  V30 28267 P 1487.97 -8.03563 3.84925 0
M  V30 28268 O 1487.75 -8.85821 5.0569 0
M  V30 28269 O 1487.18 -8.41101 2.65469 0
M  V30 28270 O 1487.72 -6.4965 4.18908 0
M  V30 28271 C 1488.66 -5.81037 5.05421 0
M  V30 28272 C 1487.93 -4.78366 5.89277 0
M  V30 28273 O 1487.72 -3.58302 5.08433 0
M  V30 28274 C 1486.53 -5.17448 6.36119 0
M  V30 28275 O 1486.14 -4.45271 7.53232 0
M  V30 28276 C 1485.65 -4.74639 5.19936 0
M  V30 28277 C 1486.36 -3.49432 4.70418 0
M  V30 28278 N 1486.31 -3.31776 3.22945 0
M  V30 28279 H 1489.15 -6.54213 5.71376 0
M  V30 28280 H 1489.42 -5.30492 4.44033 0
M  V30 28281 H 1488.55 -4.55889 6.76652 0
M  V30 28282 P 1484.59 -4.23843 7.83734 0
M  V30 28283 O 1484.37 -4.19407 9.29784 0
M  V30 28284 O 1483.8 -5.24426 7.09156 0
M  V30 28285 O 1484.34 -2.7935 7.20758 0
M  V30 28286 C 1485.28 -1.72945 7.50224 0
M  V30 28287 C 1484.55 -0.406376 7.57911 0
M  V30 28288 O 1484.34 0.0897726 6.21935 0
M  V30 28289 C 1483.15 -0.438983 8.18724 0
M  V30 28290 O 1482.76 0.825065 8.71101 0
M  V30 28291 C 1482.27 -0.783689 6.99524 0
M  V30 28292 C 1482.98 -0.0619086 5.85867 0
M  V30 28293 N 1482.93 -0.78573 4.56183 0
M  V30 28294 C 1482.78 -0.0292889 3.41887 0
M  V30 28295 O 1482.69 1.18445 3.4419 0
M  V30 28296 N 1482.74 -0.744061 2.23964 0
M  V30 28297 C 1482.83 -2.10932 2.10362 0
M  V30 28298 O 1482.78 -2.64117 0.98825 0
M  V30 28299 C 1482.98 -2.8202 3.34994 0
M  V30 28300 C 1483.09 -4.31095 3.25037 0
M  V30 28301 C 1483.03 -2.15547 4.52261 0
M  V30 28302 H 1485.77 -1.93379 8.46595 0
M  V30 28303 H 1486.04 -1.68132 6.70852 0
M  V30 28304 H 1485.17 0.289041 8.15388 0
M  V30 28305 H 1482.52 0.926847 5.72749 0
M  V30 28306 H 1482.24 -1.86973 6.82036 0
M  V30 28307 H 1481.25 -0.403896 7.13257 0
M  V30 28308 H 1483.08 -1.20585 8.97435 0
M  V30 28309 H 1483.15 -2.71231 5.45042 0
M  V30 28310 H 1482.12 -4.76966 3.49992 0
M  V30 28311 H 1483.86 -4.67047 3.95024 0
M  V30 28312 H 1483.37 -4.58996 2.22312 0
M  V30 28313 H 1482.64 -0.214893 1.39758 0
M  V30 28314 P 1481.21 1.17771 8.83182 0
M  V30 28315 O 1480.99 2.07206 9.98732 0
M  V30 28316 O 1480.42 -0.0743816 8.81969 0
M  V30 28317 O 1480.96 1.97652 7.47304 0
M  V30 28318 C 1481.9 3.01133 7.08783 0
M  V30 28319 C 1481.17 4.12613 6.37049 0
M  V30 28320 O 1480.96 3.72827 4.97879 0
M  V30 28321 C 1479.77 4.45085 6.88694 0
M  V30 28322 O 1479.38 5.7877 6.5624 0
M  V30 28323 C 1478.89 3.47817 6.12078 0
M  V30 28324 C 1479.6 3.39414 4.77697 0
M  V30 28325 N 1479.55 2.04615 4.15333 0
M  V30 28326 H 1482.39 3.41248 7.98759 0
M  V30 28327 H 1482.66 2.5837 6.41742 0
M  V30 28328 H 1481.79 5.02657 6.42673 0
M  V30 28329 P 1477.83 6.144 6.45285 0
M  V30 28330 O 1477.61 7.54673 6.86199 0
M  V30 28331 O 1477.04 5.12391 7.179 0
M  V30 28332 O 1477.58 5.99236 4.88467 0
M  V30 28333 C 1478.52 6.60234 3.96415 0
M  V30 28334 C 1477.79 7.08079 2.736 0
M  V30 28335 O 1477.58 5.94365 1.8368 0
M  V30 28336 C 1476.39 7.64886 2.9555 0
M  V30 28337 O 1476 8.5406 1.90739 0
M  V30 28338 C 1475.51 6.4116 2.90739 0
M  V30 28339 C 1476.22 5.55375 1.86963 0
M  V30 28340 N 1476.17 4.09664 2.15742 0
M  V30 28341 C 1476.02 3.22231 1.08477 0
M  V30 28342 O 1475.93 3.68951 -0.0600489 0
M  V30 28343 N 1475.97 1.76692 1.48799 0
M  V30 28344 C 1476.07 1.41695 2.57602 0
M  V30 28345 N 1476.02 0.107296 2.75791 0
M  V30 28346 C 1476.22 2.29178 3.69733 0
M  V30 28347 C 1476.27 3.62753 3.42653 0
M  V30 28348 H 1479.01 7.45488 4.45578 0
M  V30 28349 H 1479.28 5.86232 3.67314 0
M  V30 28350 H 1478.41 7.84508 2.24507 0
M  V30 28351 H 1475.76 5.73556 0.888715 0
M  V30 28352 H 1475.48 5.9096 3.88638 0
M  V30 28353 H 1474.49 6.66053 2.58894 0
M  V30 28354 H 1476.32 8.16339 3.92049 0
M  V30 28355 H 1476.39 4.33052 4.24913 0
M  V30 28356 H 1476.29 1.9103 4.71577 0
M  V30 28357 H 1475.9 -0.521221 1.95056 0
M  V30 28358 H 1476.1 -0.286429 3.70695 0
M  V30 28359 P 1474.45 8.7635 1.60911 0
M  V30 28360 O 1474.23 10.1388 1.11561 0
M  V30 28361 O 1473.66 8.36503 2.79617 0
M  V30 28362 O 1474.2 7.71806 0.42951 0
M  V30 28363 C 1475.14 7.66948 -0.673514 0
M  V30 28364 C 1474.41 7.33374 -1.95559 0
M  V30 28365 O 1474.2 5.88721 -2.00726 0
M  V30 28366 C 1473.01 7.92218 -2.1125 0
M  V30 28367 O 1472.62 8.02971 -3.47653 0
M  V30 28368 C 1472.13 6.89504 -1.41631 0
M  V30 28369 C 1472.84 5.59106 -1.75155 0
M  V30 28370 N 1472.79 4.58136 -0.662409 0
M  V30 28371 C 1472.64 3.26059 -1.02863 0
M  V30 28372 O 1472.55 2.90743 -2.19009 0
M  V30 28373 N 1472.6 2.35995 0.0155585 0
M  V30 28374 C 1472.69 2.65248 1.35603 0
M  V30 28375 C 1472.84 4.05747 1.64698 0
M  V30 28376 C 1472.89 4.96734 0.652411 0
M  V30 28377 H 1475.63 8.64917 -0.776982 0
M  V30 28378 H 1475.9 6.89974 -0.474015 0
M  V30 28379 H 1475.03 7.66548 -2.79458 0
M  V30 28380 H 1472.38 5.16076 -2.65138 0
M  V30 28381 H 1472.1 7.06433 -0.329384 0
M  V30 28382 H 1471.11 6.90829 -1.81996 0
M  V30 28383 H 1472.94 8.90774 -1.62639 0
M  V30 28384 H 1473.01 6.02181 0.895285 0
M  V30 28385 P 1471.07 8.03563 -3.84925 0
M  V30 28386 O 1470.85 8.85821 -5.0569 0
M  V30 28387 O 1470.28 8.41101 -2.65469 0
M  V30 28388 O 1470.82 6.4965 -4.18908 0
M  V30 28389 C 1471.76 5.81037 -5.05421 0
M  V30 28390 C 1471.03 4.78366 -5.89277 0
M  V30 28391 O 1470.82 3.58302 -5.08433 0
M  V30 28392 C 1469.63 5.17448 -6.36119 0
M  V30 28393 O 1469.24 4.45271 -7.53232 0
M  V30 28394 C 1468.75 4.74639 -5.19936 0
M  V30 28395 C 1469.46 3.49432 -4.70418 0
M  V30 28396 N 1469.41 3.31776 -3.22945 0
M  V30 28397 H 1472.25 6.54213 -5.71376 0
M  V30 28398 H 1472.52 5.30492 -4.44033 0
M  V30 28399 H 1471.65 4.55889 -6.76652 0
M  V30 28400 P 1467.69 4.23843 -7.83734 0
M  V30 28401 O 1467.47 4.19407 -9.29784 0
M  V30 28402 O 1466.9 5.24426 -7.09156 0
M  V30 28403 O 1467.44 2.7935 -7.20758 0
M  V30 28404 C 1468.38 1.7299 -7.50419 0
M  V30 28405 C 1467.65 0.406376 -7.57911 0
M  V30 28406 O 1467.44 -0.0897726 -6.21935 0
M  V30 28407 C 1466.25 0.447224 -8.1878 0
M  V30 28408 O 1465.86 -0.825065 -8.71101 0
M  V30 28409 C 1465.37 0.783801 -6.99623 0
M  V30 28410 C 1466.08 0.0619192 -5.85967 0
M  V30 28411 N 1466.03 0.7859 -4.56281 0
M  V30 28412 H 1468.87 1.93423 -8.4679 0
M  V30 28413 H 1469.14 1.68181 -6.71046 0
M  V30 28414 H 1468.27 -0.289041 -8.15388 0
M  V30 28415 P 1464.31 -1.17771 -8.83182 0
M  V30 28416 O 1464.09 -2.07206 -9.98732 0
M  V30 28417 O 1463.52 0.0743816 -8.81969 0
M  V30 28418 O 1464.06 -1.97652 -7.47304 0
M  V30 28419 C 1465 -3.01133 -7.08783 0
M  V30 28420 C 1464.27 -4.12613 -6.37049 0
M  V30 28421 O 1464.06 -3.72827 -4.97879 0
M  V30 28422 C 1462.87 -4.45085 -6.88694 0
M  V30 28423 O 1462.48 -5.7877 -6.5624 0
M  V30 28424 C 1461.99 -3.47817 -6.12078 0
M  V30 28425 C 1462.7 -3.39414 -4.77697 0
M  V30 28426 N 1462.65 -2.04615 -4.15333 0
M  V30 28427 H 1465.49 -3.41248 -7.98759 0
M  V30 28428 H 1465.76 -2.5837 -6.41742 0
M  V30 28429 H 1464.89 -5.02657 -6.42673 0
M  V30 28430 P 1460.93 -6.144 -6.45285 0
M  V30 28431 O 1460.71 -7.54673 -6.86199 0
M  V30 28432 O 1460.14 -5.12391 -7.179 0
M  V30 28433 O 1460.68 -5.99236 -4.88467 0
M  V30 28434 C 1461.62 -6.60234 -3.96415 0
M  V30 28435 C 1460.89 -7.08079 -2.736 0
M  V30 28436 O 1460.68 -5.94365 -1.8368 0
M  V30 28437 C 1459.49 -7.64886 -2.9555 0
M  V30 28438 O 1459.1 -8.5406 -1.90739 0
M  V30 28439 C 1458.61 -6.4116 -2.90739 0
M  V30 28440 C 1459.32 -5.55375 -1.86963 0
M  V30 28441 N 1459.27 -4.09664 -2.15742 0
M  V30 28442 C 1459.12 -3.22231 -1.08477 0
M  V30 28443 O 1459.03 -3.68951 0.0600489 0
M  V30 28444 N 1459.07 -1.76692 -1.48799 0
M  V30 28445 C 1459.17 -1.41695 -2.57602 0
M  V30 28446 N 1459.12 -0.107296 -2.75791 0
M  V30 28447 C 1459.32 -2.29178 -3.69733 0
M  V30 28448 C 1459.37 -3.62753 -3.42653 0
M  V30 28449 H 1462.11 -7.45488 -4.45578 0
M  V30 28450 H 1462.38 -5.86232 -3.67314 0
M  V30 28451 H 1461.51 -7.84508 -2.24507 0
M  V30 28452 H 1458.86 -5.73556 -0.888715 0
M  V30 28453 H 1458.58 -5.9096 -3.88638 0
M  V30 28454 H 1457.59 -6.66053 -2.58894 0
M  V30 28455 H 1459.42 -8.16339 -3.92049 0
M  V30 28456 H 1459.49 -4.33052 -4.24913 0
M  V30 28457 H 1459.39 -1.9103 -4.71577 0
M  V30 28458 H 1459 0.521221 -1.95056 0
M  V30 28459 H 1459.2 0.286429 -3.70695 0
M  V30 28460 P 1457.55 -8.7635 -1.60911 0
M  V30 28461 O 1457.33 -10.1388 -1.11561 0
M  V30 28462 O 1456.76 -8.36503 -2.79617 0
M  V30 28463 O 1457.3 -7.71806 -0.42951 0
M  V30 28464 C 1458.24 -7.67148 0.673689 0
M  V30 28465 C 1457.51 -7.33374 1.95559 0
M  V30 28466 O 1457.3 -5.88721 2.00726 0
M  V30 28467 C 1456.11 -7.92526 2.10483 0
M  V30 28468 O 1455.72 -8.02971 3.47653 0
M  V30 28469 C 1455.23 -6.89602 1.41652 0
M  V30 28470 C 1455.94 -5.59201 1.75185 0
M  V30 28471 N 1455.89 -4.58235 0.662552 0
M  V30 28472 C 1455.97 -4.7683 -0.704049 0
M  V30 28473 N 1455.89 -3.66233 -1.39775 0
M  V30 28474 C 1455.75 -2.66526 -0.431739 0
M  V30 28475 C 1455.62 -1.26394 -0.575992 0
M  V30 28476 N 1455.5 -0.62859 0.67177 0
M  V30 28477 C 1455.5 -1.27134 1.89385 0
M  V30 28478 N 1455.37 -0.492035 2.96951 0
M  V30 28479 N 1455.63 -2.58978 2.02907 0
M  V30 28480 C 1455.75 -3.22433 0.832218 0
M  V30 28481 H 1458.73 -8.65116 0.777161 0
M  V30 28482 H 1459 -6.90173 0.474152 0
M  V30 28483 H 1458.13 -7.66548 2.79458 0
M  V30 28484 P 1454.17 -8.03563 3.84925 0
M  V30 28485 O 1453.95 -8.85821 5.0569 0
M  V30 28486 O 1453.38 -8.41101 2.65469 0
M  V30 28487 O 1453.92 -6.4965 4.18908 0
M  V30 28488 C 1454.86 -5.81037 5.05421 0
M  V30 28489 C 1454.13 -4.78366 5.89277 0
M  V30 28490 O 1453.92 -3.58302 5.08433 0
M  V30 28491 C 1452.73 -5.17448 6.36119 0
M  V30 28492 O 1452.34 -4.45271 7.53232 0
M  V30 28493 C 1451.85 -4.74639 5.19936 0
M  V30 28494 C 1452.56 -3.49432 4.70418 0
M  V30 28495 N 1452.51 -3.31776 3.22945 0
M  V30 28496 H 1455.35 -6.54213 5.71376 0
M  V30 28497 H 1455.62 -5.30492 4.44033 0
M  V30 28498 H 1454.75 -4.55889 6.76652 0
M  V30 28499 P 1450.79 -4.23843 7.83734 0
M  V30 28500 O 1450.57 -4.19407 9.29784 0
M  V30 28501 O 1450 -5.24426 7.09156 0
M  V30 28502 O 1450.54 -2.7935 7.20758 0
M  V30 28503 C 1451.48 -1.72945 7.50224 0
M  V30 28504 C 1450.75 -0.406376 7.57911 0
M  V30 28505 O 1450.54 0.0897726 6.21935 0
M  V30 28506 C 1449.35 -0.438983 8.18724 0
M  V30 28507 O 1448.96 0.825065 8.71101 0
M  V30 28508 C 1448.47 -0.783689 6.99524 0
M  V30 28509 C 1449.18 -0.0619086 5.85867 0
M  V30 28510 N 1449.13 -0.78573 4.56183 0
M  V30 28511 C 1448.98 -0.0292889 3.41887 0
M  V30 28512 O 1448.89 1.18445 3.4419 0
M  V30 28513 N 1448.94 -0.744061 2.23964 0
M  V30 28514 C 1449.03 -2.10932 2.10362 0
M  V30 28515 O 1448.98 -2.64117 0.98825 0
M  V30 28516 C 1449.18 -2.8202 3.34994 0
M  V30 28517 C 1449.29 -4.31095 3.25037 0
M  V30 28518 C 1449.23 -2.15547 4.52261 0
M  V30 28519 H 1451.97 -1.93379 8.46595 0
M  V30 28520 H 1452.24 -1.68132 6.70852 0
M  V30 28521 H 1451.37 0.289041 8.15388 0
M  V30 28522 H 1448.72 0.926847 5.72749 0
M  V30 28523 H 1448.44 -1.86973 6.82036 0
M  V30 28524 H 1447.45 -0.403896 7.13257 0
M  V30 28525 H 1449.28 -1.20585 8.97435 0
M  V30 28526 H 1449.35 -2.71231 5.45042 0
M  V30 28527 H 1448.32 -4.76966 3.49992 0
M  V30 28528 H 1450.06 -4.67047 3.95024 0
M  V30 28529 H 1449.57 -4.58996 2.22312 0
M  V30 28530 H 1448.84 -0.214893 1.39758 0
M  V30 28531 P 1447.41 1.17771 8.83182 0
M  V30 28532 O 1447.19 2.07206 9.98732 0
M  V30 28533 O 1446.62 -0.0743816 8.81969 0
M  V30 28534 O 1447.16 1.97652 7.47304 0
M  V30 28535 C 1448.1 3.01133 7.08783 0
M  V30 28536 C 1447.37 4.12613 6.37049 0
M  V30 28537 O 1447.16 3.72827 4.97879 0
M  V30 28538 C 1445.97 4.45085 6.88694 0
M  V30 28539 O 1445.58 5.7877 6.5624 0
M  V30 28540 C 1445.09 3.47817 6.12078 0
M  V30 28541 C 1445.8 3.39414 4.77697 0
M  V30 28542 N 1445.75 2.04615 4.15333 0
M  V30 28543 H 1448.59 3.41248 7.98759 0
M  V30 28544 H 1448.86 2.5837 6.41742 0
M  V30 28545 H 1447.99 5.02657 6.42673 0
M  V30 28546 P 1444.03 6.144 6.45285 0
M  V30 28547 O 1443.81 7.54673 6.86199 0
M  V30 28548 O 1443.24 5.12391 7.179 0
M  V30 28549 O 1443.78 5.99158 4.88404 0
M  V30 28550 C 1444.72 6.60234 3.96415 0
M  V30 28551 C 1443.99 7.08259 2.72856 0
M  V30 28552 O 1443.78 5.9427 1.83651 0
M  V30 28553 C 1442.59 7.64886 2.9555 0
M  V30 28554 O 1442.2 8.53963 1.90717 0
M  V30 28555 C 1441.71 6.4116 2.90739 0
M  V30 28556 C 1442.42 5.55375 1.86963 0
M  V30 28557 N 1442.37 4.09664 2.15742 0
M  V30 28558 H 1445.21 7.45574 4.45629 0
M  V30 28559 H 1445.48 5.86232 3.67314 0
M  V30 28560 H 1444.61 7.84412 2.24479 0
M  V30 28561 P 1440.65 8.7635 1.60911 0
M  V30 28562 O 1440.43 10.1388 1.11561 0
M  V30 28563 O 1439.86 8.36503 2.79617 0
M  V30 28564 O 1440.4 7.71906 0.429565 0
M  V30 28565 C 1441.34 7.67148 -0.673689 0
M  V30 28566 C 1440.61 7.33666 -1.94851 0
M  V30 28567 O 1440.4 5.88816 -2.00759 0
M  V30 28568 C 1439.21 7.92526 -2.10483 0
M  V30 28569 O 1438.82 8.03063 -3.47693 0
M  V30 28570 C 1438.33 6.89602 -1.41652 0
M  V30 28571 C 1439.04 5.59201 -1.75185 0
M  V30 28572 N 1438.99 4.58235 -0.662552 0
M  V30 28573 C 1438.84 3.24451 -1.01643 0
M  V30 28574 O 1438.75 2.94958 -2.21722 0
M  V30 28575 N 1438.79 2.30408 0.165238 0
M  V30 28576 C 1438.89 2.66048 1.25118 0
M  V30 28577 N 1438.84 1.70787 2.16813 0
M  V30 28578 C 1439.04 4.02732 1.64413 0
M  V30 28579 C 1439.09 4.9488 0.63991 0
M  V30 28580 H 1441.83 8.65017 -0.777072 0
M  V30 28581 H 1442.1 6.90173 -0.474152 0
M  V30 28582 H 1441.23 7.66642 -2.79492 0
M  V30 28583 H 1438.58 5.16254 -2.65229 0
M  V30 28584 H 1438.3 7.06532 -0.329431 0
M  V30 28585 H 1437.31 6.91023 -1.82047 0
M  V30 28586 H 1439.14 8.90873 -1.62657 0
M  V30 28587 H 1439.21 6.00104 0.892197 0
M  V30 28588 H 1439.11 4.31733 2.69229 0
M  V30 28589 H 1438.72 0.724835 1.8844 0
M  V30 28590 H 1438.92 1.94716 3.16734 0
M  V30 28591 P 1437.27 8.03563 -3.84925 0
M  V30 28592 O 1437.05 8.85821 -5.0569 0
M  V30 28593 O 1436.48 8.41101 -2.65469 0
M  V30 28594 O 1437.02 6.4965 -4.18908 0
M  V30 28595 C 1437.96 5.80886 -5.05289 0
M  V30 28596 C 1437.23 4.78366 -5.89277 0
M  V30 28597 O 1437.02 3.58302 -5.08433 0
M  V30 28598 C 1435.83 5.16748 -6.36559 0
M  V30 28599 O 1435.44 4.45271 -7.53232 0
M  V30 28600 C 1434.95 4.74572 -5.19863 0
M  V30 28601 C 1435.66 3.49373 -4.70338 0
M  V30 28602 N 1435.61 3.31704 -3.22876 0
M  V30 28603 C 1435.46 2.03326 -2.74871 0
M  V30 28604 O 1435.37 1.06486 -3.48076 0
M  V30 28605 N 1435.42 1.91838 -1.37456 0
M  V30 28606 C 1435.51 2.94295 -0.462035 0
M  V30 28607 C 1435.66 4.25064 -1.05249 0
M  V30 28608 C 1435.71 4.40214 -2.39192 0
M  V30 28609 H 1438.45 6.54063 -5.71245 0
M  V30 28610 H 1438.72 5.30339 -4.43905 0
M  V30 28611 H 1437.85 4.55889 -6.76652 0
M  V30 28612 H 1435.2 2.6167 -5.17842 0
M  V30 28613 H 1434.92 5.52155 -4.41878 0
M  V30 28614 H 1433.93 4.51918 -5.53297 0
M  V30 28615 H 1435.76 6.25055 -6.55162 0
M  V30 28616 H 1435.83 5.39798 -2.81523 0
M  V30 28617 P 1433.89 4.23843 -7.83734 0
M  V30 28618 O 1433.67 4.19407 -9.29784 0
M  V30 28619 O 1433.1 5.24426 -7.09156 0
M  V30 28620 O 1433.64 2.7935 -7.20758 0
M  V30 28621 C 1434.58 1.7299 -7.50419 0
M  V30 28622 C 1433.85 0.406376 -7.57911 0
M  V30 28623 O 1433.64 -0.0897726 -6.21935 0
M  V30 28624 C 1432.45 0.447224 -8.1878 0
M  V30 28625 O 1432.06 -0.825065 -8.71101 0
M  V30 28626 C 1431.57 0.783801 -6.99623 0
M  V30 28627 C 1432.28 0.0619192 -5.85967 0
M  V30 28628 N 1432.23 0.790462 -4.56202 0
M  V30 28629 H 1435.07 1.93423 -8.4679 0
M  V30 28630 H 1435.34 1.68852 -6.70877 0
M  V30 28631 H 1434.47 -0.289041 -8.15388 0
M  V30 28632 H 1431.82 -0.927006 -5.72848 0
M  V30 28633 H 1431.54 1.86973 -6.82036 0
M  V30 28634 H 1430.55 0.403953 -7.13357 0
M  V30 28635 H 1432.38 1.20599 -8.97534 0
M  V30 28636 P 1430.51 -1.17771 -8.83182 0
M  V30 28637 O 1430.29 -2.07206 -9.98732 0
M  V30 28638 O 1429.72 0.0743816 -8.81969 0
M  V30 28639 O 1430.26 -1.97652 -7.47304 0
M  V30 28640 C 1431.2 -3.01133 -7.08783 0
M  V30 28641 C 1430.47 -4.12613 -6.37049 0
M  V30 28642 O 1430.26 -3.72827 -4.97879 0
M  V30 28643 C 1429.07 -4.45085 -6.88694 0
M  V30 28644 O 1428.68 -5.7877 -6.5624 0
M  V30 28645 C 1428.19 -3.47817 -6.12078 0
M  V30 28646 C 1428.9 -3.39414 -4.77697 0
M  V30 28647 N 1428.85 -2.04615 -4.15333 0
M  V30 28648 C 1428.93 -0.803897 -4.75249 0
M  V30 28649 N 1428.85 0.197615 -3.91502 0
M  V30 28650 C 1428.71 -0.413002 -2.66823 0
M  V30 28651 C 1428.58 0.157221 -1.38007 0
M  V30 28652 N 1428.46 -0.833136 -0.390236 0
M  V30 28653 C 1428.46 -2.19402 -0.623885 0
M  V30 28654 N 1428.33 -2.97622 0.449677 0
M  V30 28655 N 1428.59 -2.73005 -1.83601 0
M  V30 28656 C 1428.71 -1.78786 -2.80935 0
M  V30 28657 H 1431.69 -3.41248 -7.98759 0
M  V30 28658 H 1431.96 -2.5837 -6.41742 0
M  V30 28659 H 1431.09 -5.02657 -6.42673 0
M  V30 28660 P 1427.13 -6.144 -6.45285 0
M  V30 28661 O 1426.91 -7.54673 -6.86199 0
M  V30 28662 O 1426.34 -5.12391 -7.179 0
M  V30 28663 O 1426.88 -5.99158 -4.88404 0
M  V30 28664 C 1427.82 -6.60234 -3.96415 0
M  V30 28665 C 1427.09 -7.08259 -2.72856 0
M  V30 28666 O 1426.88 -5.9427 -1.83651 0
M  V30 28667 C 1425.69 -7.64886 -2.9555 0
M  V30 28668 O 1425.3 -8.53963 -1.90717 0
M  V30 28669 C 1424.81 -6.4116 -2.90739 0
M  V30 28670 C 1425.52 -5.55375 -1.86963 0
M  V30 28671 N 1425.47 -4.09448 -2.16152 0
M  V30 28672 H 1428.31 -7.45574 -4.45629 0
M  V30 28673 H 1428.58 -5.85864 -3.679 0
M  V30 28674 H 1427.71 -7.84412 -2.24479 0
M  V30 28675 H 1425.06 -5.73457 -0.888562 0
M  V30 28676 H 1424.78 -5.90877 -3.88583 0
M  V30 28677 H 1423.79 -6.6596 -2.58858 0
M  V30 28678 H 1425.62 -8.16339 -3.92049 0
M  V30 28679 P 1423.75 -8.7635 -1.60911 0
M  V30 28680 O 1423.53 -10.1388 -1.11561 0
M  V30 28681 O 1422.96 -8.36503 -2.79617 0
M  V30 28682 O 1423.5 -7.71806 -0.42951 0
M  V30 28683 C 1424.44 -7.67148 0.673689 0
M  V30 28684 C 1423.71 -7.33374 1.95559 0
M  V30 28685 O 1423.5 -5.88721 2.00726 0
M  V30 28686 C 1422.31 -7.92526 2.10483 0
M  V30 28687 O 1421.92 -8.02971 3.47653 0
M  V30 28688 C 1421.43 -6.89602 1.41652 0
M  V30 28689 C 1422.14 -5.59201 1.75185 0
M  V30 28690 N 1422.09 -4.58235 0.662552 0
M  V30 28691 H 1424.93 -8.65116 0.777161 0
M  V30 28692 H 1425.2 -6.90173 0.474152 0
M  V30 28693 H 1424.33 -7.66548 2.79458 0
M  V30 28694 P 1420.37 -8.03563 3.84925 0
M  V30 28695 O 1420.15 -8.85821 5.0569 0
M  V30 28696 O 1419.58 -8.41101 2.65469 0
M  V30 28697 O 1420.12 -6.4965 4.18908 0
M  V30 28698 C 1421.06 -5.81037 5.05421 0
M  V30 28699 C 1420.33 -4.78366 5.89277 0
M  V30 28700 O 1420.12 -3.58302 5.08433 0
M  V30 28701 C 1418.93 -5.17448 6.36119 0
M  V30 28702 O 1418.54 -4.45271 7.53232 0
M  V30 28703 C 1418.05 -4.74639 5.19936 0
M  V30 28704 C 1418.76 -3.49432 4.70418 0
M  V30 28705 N 1418.71 -3.31776 3.22945 0
M  V30 28706 H 1421.55 -6.54213 5.71376 0
M  V30 28707 H 1421.82 -5.30492 4.44033 0
M  V30 28708 H 1420.95 -4.55889 6.76652 0
M  V30 28709 P 1416.99 -4.23843 7.83734 0
M  V30 28710 O 1416.77 -4.19407 9.29784 0
M  V30 28711 O 1416.2 -5.24426 7.09156 0
M  V30 28712 O 1416.74 -2.7935 7.20758 0
M  V30 28713 C 1417.68 -1.7299 7.50419 0
M  V30 28714 C 1416.95 -0.406376 7.57911 0
M  V30 28715 O 1416.74 0.0897726 6.21935 0
M  V30 28716 C 1415.55 -0.447224 8.1878 0
M  V30 28717 O 1415.16 0.825065 8.71101 0
M  V30 28718 C 1414.67 -0.783801 6.99623 0
M  V30 28719 C 1415.38 -0.0619192 5.85967 0
M  V30 28720 N 1415.33 -0.7859 4.56281 0
M  V30 28721 H 1418.17 -1.93423 8.4679 0
M  V30 28722 H 1418.44 -1.68181 6.71046 0
M  V30 28723 H 1417.57 0.289041 8.15388 0
M  V30 28724 P 1413.61 1.17771 8.83182 0
M  V30 28725 O 1413.39 2.07206 9.98732 0
M  V30 28726 O 1412.82 -0.0743816 8.81969 0
M  V30 28727 O 1413.36 1.97678 7.474 0
M  V30 28728 C 1414.3 3.01133 7.08783 0
M  V30 28729 C 1413.57 4.1203 6.37546 0
M  V30 28730 O 1413.36 3.72887 4.9796 0
M  V30 28731 C 1412.17 4.45085 6.88694 0
M  V30 28732 O 1411.78 5.78836 6.56315 0
M  V30 28733 C 1411.29 3.47817 6.12078 0
M  V30 28734 C 1412 3.39414 4.77697 0
M  V30 28735 N 1411.95 2.04615 4.15333 0
M  V30 28736 C 1411.8 1.96929 2.77162 0
M  V30 28737 O 1411.71 3.02017 2.12006 0
M  V30 28738 N 1411.75 0.55485 2.24237 0
M  V30 28739 C 1411.85 -0.367808 2.9169 0
M  V30 28740 N 1411.8 -1.53426 2.29427 0
M  V30 28741 C 1412 -0.319148 4.33828 0
M  V30 28742 C 1412.05 0.920672 4.90433 0
M  V30 28743 H 1414.79 3.41209 7.98667 0
M  V30 28744 H 1415.06 2.5837 6.41742 0
M  V30 28745 H 1414.19 5.02718 6.42752 0
M  V30 28746 H 1411.54 4.11779 4.09026 0
M  V30 28747 H 1411.26 2.49661 6.61772 0
M  V30 28748 H 1410.27 3.86674 6.00946 0
M  V30 28749 H 1412.1 4.29991 7.97006 0
M  V30 28750 H 1412.17 1.00589 5.98303 0
M  V30 28751 H 1412.07 -1.22639 4.93799 0
M  V30 28752 H 1411.68 -1.56819 1.27167 0
M  V30 28753 H 1411.88 -2.41062 2.83063 0
M  V30 28754 P 1410.23 6.144 6.45285 0
M  V30 28755 O 1410.01 7.54673 6.86199 0
M  V30 28756 O 1409.44 5.12391 7.179 0
M  V30 28757 O 1409.98 5.99158 4.88404 0
M  V30 28758 C 1410.92 6.60234 3.96415 0
M  V30 28759 C 1410.19 7.08259 2.72856 0
M  V30 28760 O 1409.98 5.9427 1.83651 0
M  V30 28761 C 1408.79 7.64886 2.9555 0
M  V30 28762 O 1408.4 8.53963 1.90717 0
M  V30 28763 C 1407.91 6.4116 2.90739 0
M  V30 28764 C 1408.62 5.55375 1.86963 0
M  V30 28765 N 1408.57 4.09664 2.15742 0
M  V30 28766 H 1411.41 7.45574 4.45629 0
M  V30 28767 H 1411.68 5.86232 3.67314 0
M  V30 28768 H 1410.81 7.84412 2.24479 0
M  V30 28769 P 1406.85 8.7635 1.60911 0
M  V30 28770 O 1406.63 10.1388 1.11561 0
M  V30 28771 O 1406.06 8.36503 2.79617 0
M  V30 28772 O 1406.6 7.71806 0.42951 0
M  V30 28773 C 1407.54 7.67148 -0.673689 0
M  V30 28774 C 1406.81 7.33374 -1.95559 0
M  V30 28775 O 1406.6 5.88721 -2.00726 0
M  V30 28776 C 1405.41 7.92526 -2.10483 0
M  V30 28777 O 1405.02 8.02971 -3.47653 0
M  V30 28778 C 1404.53 6.89602 -1.41652 0
M  V30 28779 C 1405.24 5.59201 -1.75185 0
M  V30 28780 N 1405.19 4.58301 -0.657969 0
M  V30 28781 H 1408.03 8.65116 -0.777161 0
M  V30 28782 H 1408.3 6.9022 -0.46725 0
M  V30 28783 H 1407.43 7.66548 -2.79458 0
M  V30 28784 H 1404.78 5.16165 -2.65183 0
M  V30 28785 H 1404.5 7.06433 -0.329384 0
M  V30 28786 H 1403.51 6.90926 -1.82021 0
M  V30 28787 H 1405.34 8.90873 -1.62657 0
M  V30 28788 P 1403.47 8.03563 -3.84925 0
M  V30 28789 O 1403.25 8.85821 -5.0569 0
M  V30 28790 O 1402.68 8.41101 -2.65469 0
M  V30 28791 O 1403.22 6.4965 -4.18908 0
M  V30 28792 C 1404.16 5.81037 -5.05421 0
M  V30 28793 C 1403.43 4.78366 -5.89277 0
M  V30 28794 O 1403.22 3.58302 -5.08433 0
M  V30 28795 C 1402.03 5.17448 -6.36119 0
M  V30 28796 O 1401.64 4.45271 -7.53232 0
M  V30 28797 C 1401.15 4.74639 -5.19936 0
M  V30 28798 C 1401.86 3.49432 -4.70418 0
M  V30 28799 N 1401.81 3.31776 -3.22945 0
M  V30 28800 H 1404.65 6.54213 -5.71376 0
M  V30 28801 H 1404.92 5.30492 -4.44033 0
M  V30 28802 H 1404.05 4.55889 -6.76652 0
M  V30 28803 P 1400.09 4.23843 -7.83734 0
M  V30 28804 O 1399.87 4.19407 -9.29784 0
M  V30 28805 O 1399.3 5.24426 -7.09156 0
M  V30 28806 O 1399.84 2.7935 -7.20758 0
M  V30 28807 C 1400.78 1.72945 -7.50224 0
M  V30 28808 C 1400.05 0.406376 -7.57911 0
M  V30 28809 O 1399.84 -0.0897726 -6.21935 0
M  V30 28810 C 1398.65 0.438983 -8.18724 0
M  V30 28811 O 1398.26 -0.825065 -8.71101 0
M  V30 28812 C 1397.77 0.783689 -6.99524 0
M  V30 28813 C 1398.48 0.0619086 -5.85867 0
M  V30 28814 N 1398.43 0.78573 -4.56183 0
M  V30 28815 C 1398.28 0.0292889 -3.41887 0
M  V30 28816 O 1398.19 -1.18445 -3.4419 0
M  V30 28817 N 1398.24 0.744061 -2.23964 0
M  V30 28818 C 1398.33 2.10932 -2.10362 0
M  V30 28819 O 1398.28 2.64117 -0.98825 0
M  V30 28820 C 1398.48 2.8202 -3.34994 0
M  V30 28821 C 1398.59 4.31095 -3.25037 0
M  V30 28822 C 1398.53 2.15547 -4.52261 0
M  V30 28823 H 1401.27 1.93379 -8.46595 0
M  V30 28824 H 1401.54 1.68132 -6.70852 0
M  V30 28825 H 1400.67 -0.289041 -8.15388 0
M  V30 28826 H 1398.02 -0.926847 -5.72749 0
M  V30 28827 H 1397.74 1.86973 -6.82036 0
M  V30 28828 H 1396.75 0.403896 -7.13257 0
M  V30 28829 H 1398.58 1.20585 -8.97435 0
M  V30 28830 H 1398.65 2.71231 -5.45042 0
M  V30 28831 H 1397.62 4.76966 -3.49992 0
M  V30 28832 H 1399.36 4.67047 -3.95024 0
M  V30 28833 H 1398.87 4.58996 -2.22312 0
M  V30 28834 H 1398.14 0.214893 -1.39758 0
M  V30 28835 P 1396.71 -1.17771 -8.83182 0
M  V30 28836 O 1396.49 -2.07206 -9.98732 0
M  V30 28837 O 1395.92 0.0743816 -8.81969 0
M  V30 28838 O 1396.46 -1.97652 -7.47304 0
M  V30 28839 C 1397.4 -3.01133 -7.08783 0
M  V30 28840 C 1396.67 -4.12613 -6.37049 0
M  V30 28841 O 1396.46 -3.72827 -4.97879 0
M  V30 28842 C 1395.27 -4.45085 -6.88694 0
M  V30 28843 O 1394.88 -5.7877 -6.5624 0
M  V30 28844 C 1394.39 -3.47817 -6.12078 0
M  V30 28845 C 1395.1 -3.39414 -4.77697 0
M  V30 28846 N 1395.05 -2.04199 -4.15538 0
M  V30 28847 H 1397.89 -3.41248 -7.98759 0
M  V30 28848 H 1398.16 -2.57728 -6.42 0
M  V30 28849 H 1397.29 -5.02657 -6.42673 0
M  V30 28850 H 1394.64 -4.11708 -4.08956 0
M  V30 28851 H 1394.36 -2.49626 -6.61679 0
M  V30 28852 H 1393.37 -3.8662 -6.00862 0
M  V30 28853 H 1395.2 -4.29991 -7.97006 0
M  V30 28854 P 1393.33 -6.144 -6.45285 0
M  V30 28855 O 1393.11 -7.54673 -6.86199 0
M  V30 28856 O 1392.54 -5.12391 -7.179 0
M  V30 28857 O 1393.08 -5.99158 -4.88404 0
M  V30 28858 C 1394.02 -6.60234 -3.96415 0
M  V30 28859 C 1393.29 -7.08259 -2.72856 0
M  V30 28860 O 1393.08 -5.9427 -1.83651 0
M  V30 28861 C 1391.89 -7.64886 -2.9555 0
M  V30 28862 O 1391.5 -8.53963 -1.90717 0
M  V30 28863 C 1391.01 -6.4116 -2.90739 0
M  V30 28864 C 1391.72 -5.55375 -1.86963 0
M  V30 28865 N 1391.67 -4.09664 -2.15742 0
M  V30 28866 H 1394.51 -7.45574 -4.45629 0
M  V30 28867 H 1394.78 -5.86232 -3.67314 0
M  V30 28868 H 1393.91 -7.84412 -2.24479 0
M  V30 28869 P 1389.95 -8.7635 -1.60911 0
M  V30 28870 O 1389.73 -10.1388 -1.11561 0
M  V30 28871 O 1389.16 -8.36503 -2.79617 0
M  V30 28872 O 1389.7 -7.71806 -0.42951 0
M  V30 28873 C 1390.64 -7.67148 0.673689 0
M  V30 28874 C 1389.91 -7.33374 1.95559 0
M  V30 28875 O 1389.7 -5.88721 2.00726 0
M  V30 28876 C 1388.51 -7.92526 2.10483 0
M  V30 28877 O 1388.12 -8.02971 3.47653 0
M  V30 28878 C 1387.63 -6.89602 1.41652 0
M  V30 28879 C 1388.34 -5.59201 1.75185 0
M  V30 28880 N 1388.29 -4.58301 0.657969 0
M  V30 28881 H 1391.13 -8.65116 0.777161 0
M  V30 28882 H 1391.4 -6.9022 0.46725 0
M  V30 28883 H 1390.53 -7.66548 2.79458 0
M  V30 28884 H 1387.88 -5.16165 2.65183 0
M  V30 28885 H 1387.6 -7.06433 0.329384 0
M  V30 28886 H 1386.61 -6.90926 1.82021 0
M  V30 28887 H 1388.44 -8.90873 1.62657 0
M  V30 28888 P 1386.57 -8.03563 3.84925 0
M  V30 28889 O 1386.35 -8.85821 5.0569 0
M  V30 28890 O 1385.78 -8.41101 2.65469 0
M  V30 28891 O 1386.32 -6.4965 4.18908 0
M  V30 28892 C 1387.26 -5.81037 5.05421 0
M  V30 28893 C 1386.53 -4.78366 5.89277 0
M  V30 28894 O 1386.32 -3.58302 5.08433 0
M  V30 28895 C 1385.13 -5.17448 6.36119 0
M  V30 28896 O 1384.74 -4.45271 7.53232 0
M  V30 28897 C 1384.25 -4.74639 5.19936 0
M  V30 28898 C 1384.96 -3.49432 4.70418 0
M  V30 28899 N 1384.91 -3.31776 3.22945 0
M  V30 28900 H 1387.75 -6.54213 5.71376 0
M  V30 28901 H 1388.02 -5.30492 4.44033 0
M  V30 28902 H 1387.15 -4.55889 6.76652 0
M  V30 28903 P 1383.19 -4.23843 7.83734 0
M  V30 28904 O 1382.97 -4.19407 9.29784 0
M  V30 28905 O 1382.4 -5.24426 7.09156 0
M  V30 28906 O 1382.94 -2.7935 7.20758 0
M  V30 28907 C 1383.88 -1.7299 7.50419 0
M  V30 28908 C 1383.15 -0.406376 7.57911 0
M  V30 28909 O 1382.94 0.0897726 6.21935 0
M  V30 28910 C 1381.75 -0.447224 8.1878 0
M  V30 28911 O 1381.36 0.825065 8.71101 0
M  V30 28912 C 1380.87 -0.783801 6.99623 0
M  V30 28913 C 1381.58 -0.0619192 5.85967 0
M  V30 28914 N 1381.53 -0.7859 4.56281 0
M  V30 28915 H 1384.37 -1.93423 8.4679 0
M  V30 28916 H 1384.64 -1.68181 6.71046 0
M  V30 28917 H 1383.77 0.289041 8.15388 0
M  V30 28918 P 1379.81 1.17771 8.83182 0
M  V30 28919 O 1379.59 2.07206 9.98732 0
M  V30 28920 O 1379.02 -0.0743816 8.81969 0
M  V30 28921 O 1379.56 1.97652 7.47304 0
M  V30 28922 C 1380.5 3.01133 7.08783 0
M  V30 28923 C 1379.77 4.12613 6.37049 0
M  V30 28924 O 1379.56 3.72827 4.97879 0
M  V30 28925 C 1378.37 4.45085 6.88694 0
M  V30 28926 O 1377.98 5.7877 6.5624 0
M  V30 28927 C 1377.49 3.47817 6.12078 0
M  V30 28928 C 1378.2 3.39414 4.77697 0
M  V30 28929 N 1378.15 2.04615 4.15333 0
M  V30 28930 H 1380.99 3.41248 7.98759 0
M  V30 28931 H 1381.26 2.5837 6.41742 0
M  V30 28932 H 1380.39 5.02657 6.42673 0
M  V30 28933 P 1376.43 6.144 6.45285 0
M  V30 28934 O 1376.21 7.54673 6.86199 0
M  V30 28935 O 1375.64 5.12391 7.179 0
M  V30 28936 O 1376.18 5.99158 4.88404 0
M  V30 28937 C 1377.12 6.60234 3.96415 0
M  V30 28938 C 1376.39 7.08259 2.72856 0
M  V30 28939 O 1376.18 5.9427 1.83651 0
M  V30 28940 C 1374.99 7.64886 2.9555 0
M  V30 28941 O 1374.6 8.53963 1.90717 0
M  V30 28942 C 1374.11 6.4116 2.90739 0
M  V30 28943 C 1374.82 5.55375 1.86963 0
M  V30 28944 N 1374.77 4.09664 2.15742 0
M  V30 28945 H 1377.61 7.45574 4.45629 0
M  V30 28946 H 1377.88 5.86232 3.67314 0
M  V30 28947 H 1377.01 7.84412 2.24479 0
M  V30 28948 P 1373.05 8.7635 1.60911 0
M  V30 28949 O 1372.83 10.1388 1.11561 0
M  V30 28950 O 1372.26 8.36503 2.79617 0
M  V30 28951 O 1372.8 7.71806 0.42951 0
M  V30 28952 C 1373.74 7.67148 -0.673689 0
M  V30 28953 C 1373.01 7.33374 -1.95559 0
M  V30 28954 O 1372.8 5.88721 -2.00726 0
M  V30 28955 C 1371.61 7.92526 -2.10483 0
M  V30 28956 O 1371.22 8.02971 -3.47653 0
M  V30 28957 C 1370.73 6.89602 -1.41652 0
M  V30 28958 C 1371.44 5.59201 -1.75185 0
M  V30 28959 N 1371.39 4.58301 -0.657969 0
M  V30 28960 H 1374.23 8.65116 -0.777161 0
M  V30 28961 H 1374.5 6.9022 -0.46725 0
M  V30 28962 H 1373.63 7.66548 -2.79458 0
M  V30 28963 H 1370.98 5.16165 -2.65183 0
M  V30 28964 H 1370.7 7.06433 -0.329384 0
M  V30 28965 H 1369.71 6.90926 -1.82021 0
M  V30 28966 H 1371.54 8.90873 -1.62657 0
M  V30 28967 P 1369.67 8.03563 -3.84925 0
M  V30 28968 O 1369.45 8.85821 -5.0569 0
M  V30 28969 O 1368.88 8.41101 -2.65469 0
M  V30 28970 O 1369.42 6.4965 -4.18908 0
M  V30 28971 C 1370.36 5.81037 -5.05421 0
M  V30 28972 C 1369.63 4.78366 -5.89277 0
M  V30 28973 O 1369.42 3.58302 -5.08433 0
M  V30 28974 C 1368.23 5.17448 -6.36119 0
M  V30 28975 O 1367.84 4.45271 -7.53232 0
M  V30 28976 C 1367.35 4.74639 -5.19936 0
M  V30 28977 C 1368.06 3.49432 -4.70418 0
M  V30 28978 N 1368.01 3.31776 -3.22945 0
M  V30 28979 H 1370.85 6.54213 -5.71376 0
M  V30 28980 H 1371.12 5.30492 -4.44033 0
M  V30 28981 H 1370.25 4.55889 -6.76652 0
M  V30 28982 P 1366.29 4.23843 -7.83734 0
M  V30 28983 O 1366.07 4.19407 -9.29784 0
M  V30 28984 O 1365.5 5.24426 -7.09156 0
M  V30 28985 O 1366.04 2.7935 -7.20758 0
M  V30 28986 C 1366.98 1.7299 -7.50419 0
M  V30 28987 C 1366.25 0.406376 -7.57911 0
M  V30 28988 O 1366.04 -0.0897726 -6.21935 0
M  V30 28989 C 1364.85 0.447224 -8.1878 0
M  V30 28990 O 1364.46 -0.825065 -8.71101 0
M  V30 28991 C 1363.97 0.783801 -6.99623 0
M  V30 28992 C 1364.68 0.0619192 -5.85967 0
M  V30 28993 N 1364.63 0.7859 -4.56281 0
M  V30 28994 H 1367.47 1.93423 -8.4679 0
M  V30 28995 H 1367.74 1.68181 -6.71046 0
M  V30 28996 H 1366.87 -0.289041 -8.15388 0
M  V30 28997 P 1362.91 -1.17771 -8.83182 0
M  V30 28998 O 1362.69 -2.07206 -9.98732 0
M  V30 28999 O 1362.12 0.0743816 -8.81969 0
M  V30 29000 O 1362.66 -1.97652 -7.47304 0
M  V30 29001 C 1363.6 -3.01133 -7.08783 0
M  V30 29002 C 1362.87 -4.12613 -6.37049 0
M  V30 29003 O 1362.66 -3.72827 -4.97879 0
M  V30 29004 C 1361.47 -4.45085 -6.88694 0
M  V30 29005 O 1361.08 -5.7877 -6.5624 0
M  V30 29006 C 1360.59 -3.47817 -6.12078 0
M  V30 29007 C 1361.3 -3.39414 -4.77697 0
M  V30 29008 N 1361.25 -2.04615 -4.15333 0
M  V30 29009 H 1364.09 -3.41248 -7.98759 0
M  V30 29010 H 1364.36 -2.5837 -6.41742 0
M  V30 29011 H 1363.49 -5.02657 -6.42673 0
M  V30 29012 P 1359.53 -6.144 -6.45285 0
M  V30 29013 O 1359.31 -7.54673 -6.86199 0
M  V30 29014 O 1358.74 -5.12391 -7.179 0
M  V30 29015 O 1359.28 -5.99158 -4.88404 0
M  V30 29016 C 1360.22 -6.60234 -3.96415 0
M  V30 29017 C 1359.49 -7.08259 -2.72856 0
M  V30 29018 O 1359.28 -5.9427 -1.83651 0
M  V30 29019 C 1358.09 -7.64886 -2.9555 0
M  V30 29020 O 1357.7 -8.53963 -1.90717 0
M  V30 29021 C 1357.21 -6.4116 -2.90739 0
M  V30 29022 C 1357.92 -5.55375 -1.86963 0
M  V30 29023 N 1357.87 -4.09664 -2.15742 0
M  V30 29024 H 1360.71 -7.45574 -4.45629 0
M  V30 29025 H 1360.98 -5.86232 -3.67314 0
M  V30 29026 H 1360.11 -7.84412 -2.24479 0
M  V30 29027 P 1356.15 -8.7635 -1.60911 0
M  V30 29028 O 1355.93 -10.1388 -1.11561 0
M  V30 29029 O 1355.36 -8.36503 -2.79617 0
M  V30 29030 O 1355.9 -7.71806 -0.42951 0
M  V30 29031 C 1356.84 -7.66948 0.673514 0
M  V30 29032 C 1356.11 -7.33374 1.95559 0
M  V30 29033 O 1355.9 -5.88721 2.00726 0
M  V30 29034 C 1354.71 -7.92218 2.1125 0
M  V30 29035 O 1354.32 -8.02971 3.47653 0
M  V30 29036 C 1353.83 -6.89504 1.41631 0
M  V30 29037 C 1354.54 -5.59106 1.75155 0
M  V30 29038 N 1354.49 -4.58136 0.662409 0
M  V30 29039 C 1354.34 -3.26059 1.02863 0
M  V30 29040 O 1354.25 -2.90743 2.19009 0
M  V30 29041 N 1354.3 -2.35995 -0.0155585 0
M  V30 29042 C 1354.39 -2.65248 -1.35603 0
M  V30 29043 O 1354.34 -1.75605 -2.20651 0
M  V30 29044 C 1354.54 -4.05747 -1.64698 0
M  V30 29045 C 1354.65 -4.42345 -3.09553 0
M  V30 29046 C 1354.59 -4.96734 -0.652411 0
M  V30 29047 H 1357.33 -8.64917 0.776982 0
M  V30 29048 H 1357.6 -6.89974 0.474015 0
M  V30 29049 H 1356.73 -7.66548 2.79458 0
M  V30 29050 H 1354.08 -5.16076 2.65138 0
M  V30 29051 H 1353.8 -7.06433 0.329384 0
M  V30 29052 H 1352.81 -6.90829 1.81996 0
M  V30 29053 H 1354.64 -8.90774 1.62639 0
M  V30 29054 H 1354.71 -6.02181 -0.895285 0
M  V30 29055 H 1353.68 -4.80252 -3.45468 0
M  V30 29056 H 1355.42 -5.20015 -3.22119 0
M  V30 29057 H 1354.93 -3.53269 -3.67833 0
M  V30 29058 H 1354.2 -1.39558 0.227499 0
M  V30 29059 P 1352.77 -8.03563 3.84925 0
M  V30 29060 O 1352.55 -8.85821 5.0569 0
M  V30 29061 O 1351.98 -8.41101 2.65469 0
M  V30 29062 O 1352.52 -6.4965 4.18908 0
M  V30 29063 C 1353.46 -5.80886 5.05289 0
M  V30 29064 C 1352.73 -4.78366 5.89277 0
M  V30 29065 O 1352.52 -3.58302 5.08433 0
M  V30 29066 C 1351.33 -5.16748 6.36559 0
M  V30 29067 O 1350.94 -4.45271 7.53232 0
M  V30 29068 C 1350.45 -4.74572 5.19863 0
M  V30 29069 C 1351.16 -3.49373 4.70338 0
M  V30 29070 N 1351.11 -3.31704 3.22876 0
M  V30 29071 C 1350.96 -2.03326 2.74871 0
M  V30 29072 O 1350.87 -1.06486 3.48076 0
M  V30 29073 N 1350.92 -1.91838 1.37456 0
M  V30 29074 C 1351.01 -2.94295 0.462035 0
M  V30 29075 C 1351.16 -4.25064 1.05249 0
M  V30 29076 C 1351.21 -4.40214 2.39192 0
M  V30 29077 H 1353.95 -6.54063 5.71245 0
M  V30 29078 H 1354.22 -5.30339 4.43905 0
M  V30 29079 H 1353.36 -4.55889 6.76652 0
M  V30 29080 H 1350.7 -2.6167 5.17842 0
M  V30 29081 H 1350.42 -5.52155 4.41878 0
M  V30 29082 H 1349.43 -4.51918 5.53297 0
M  V30 29083 H 1351.26 -6.25055 6.55162 0
M  V30 29084 H 1351.33 -5.39798 2.81523 0
M  V30 29085 P 1349.39 -4.23843 7.83734 0
M  V30 29086 O 1349.17 -4.19407 9.29784 0
M  V30 29087 O 1348.6 -5.24426 7.09156 0
M  V30 29088 O 1349.14 -2.7935 7.20758 0
M  V30 29089 C 1350.08 -1.7299 7.50419 0
M  V30 29090 C 1349.35 -0.406376 7.57911 0
M  V30 29091 O 1349.14 0.0897726 6.21935 0
M  V30 29092 C 1347.95 -0.447224 8.1878 0
M  V30 29093 O 1347.56 0.825065 8.71101 0
M  V30 29094 C 1347.07 -0.783801 6.99623 0
M  V30 29095 C 1347.78 -0.0619192 5.85967 0
M  V30 29096 N 1347.73 -0.7859 4.56281 0
M  V30 29097 H 1350.57 -1.93423 8.4679 0
M  V30 29098 H 1350.84 -1.68181 6.71046 0
M  V30 29099 H 1349.98 0.289041 8.15388 0
M  V30 29100 P 1346.01 1.17771 8.83182 0
M  V30 29101 O 1345.79 2.07206 9.98732 0
M  V30 29102 O 1345.22 -0.0743816 8.81969 0
M  V30 29103 O 1345.76 1.97652 7.47304 0
M  V30 29104 C 1346.7 3.01055 7.08599 0
M  V30 29105 C 1345.97 4.12613 6.37049 0
M  V30 29106 O 1345.76 3.72827 4.97879 0
M  V30 29107 C 1344.57 4.45719 6.88164 0
M  V30 29108 O 1344.18 5.7877 6.5624 0
M  V30 29109 C 1343.69 3.47768 6.11991 0
M  V30 29110 C 1344.4 3.39356 4.77615 0
M  V30 29111 N 1344.35 2.04571 4.15244 0
M  V30 29112 C 1344.2 1.98587 2.78314 0
M  V30 29113 O 1344.11 2.98134 2.08835 0
M  V30 29114 N 1344.16 0.714467 2.24925 0
M  V30 29115 C 1344.25 -0.470001 2.94169 0
M  V30 29116 C 1344.4 -0.312541 4.36783 0
M  V30 29117 C 1344.45 0.914512 4.92583 0
M  V30 29118 H 1347.19 3.41169 7.98575 0
M  V30 29119 H 1347.46 2.58295 6.41556 0
M  V30 29120 H 1346.6 5.02657 6.42673 0
M  V30 29121 H 1343.94 4.11637 4.08885 0
M  V30 29122 H 1343.66 2.49626 6.61679 0
M  V30 29123 H 1342.67 3.86566 6.00778 0
M  V30 29124 H 1344.5 4.29943 7.96918 0
M  V30 29125 H 1344.57 1.00937 6.00374 0
M  V30 29126 P 1342.63 6.144 6.45285 0
M  V30 29127 O 1342.41 7.54673 6.86199 0
M  V30 29128 O 1341.84 5.12391 7.179 0
M  V30 29129 O 1342.38 5.99158 4.88404 0
M  V30 29130 C 1343.32 6.60234 3.96415 0
M  V30 29131 C 1342.59 7.08259 2.72856 0
M  V30 29132 O 1342.38 5.9427 1.83651 0
M  V30 29133 C 1341.19 7.64886 2.9555 0
M  V30 29134 O 1340.8 8.53963 1.90717 0
M  V30 29135 C 1340.31 6.4116 2.90739 0
M  V30 29136 C 1341.02 5.55375 1.86963 0
M  V30 29137 N 1340.97 4.09448 2.16152 0
M  V30 29138 H 1343.81 7.45574 4.45629 0
M  V30 29139 H 1344.08 5.85864 3.679 0
M  V30 29140 H 1343.22 7.84412 2.24479 0
M  V30 29141 H 1340.56 5.73457 0.888562 0
M  V30 29142 H 1340.28 5.90877 3.88583 0
M  V30 29143 H 1339.29 6.6596 2.58858 0
M  V30 29144 H 1341.12 8.16339 3.92049 0
M  V30 29145 P 1339.25 8.7635 1.60911 0
M  V30 29146 O 1339.03 10.1388 1.11561 0
M  V30 29147 O 1338.46 8.36503 2.79617 0
M  V30 29148 O 1339 7.71806 0.42951 0
M  V30 29149 C 1339.94 7.67148 -0.673689 0
M  V30 29150 C 1339.21 7.33374 -1.95559 0
M  V30 29151 O 1339 5.88721 -2.00726 0
M  V30 29152 C 1337.81 7.92526 -2.10483 0
M  V30 29153 O 1337.42 8.02971 -3.47653 0
M  V30 29154 C 1336.93 6.89602 -1.41652 0
M  V30 29155 C 1337.64 5.59201 -1.75185 0
M  V30 29156 N 1337.59 4.58235 -0.662552 0
M  V30 29157 H 1340.43 8.65116 -0.777161 0
M  V30 29158 H 1340.7 6.90173 -0.474152 0
M  V30 29159 H 1339.84 7.66548 -2.79458 0
M  V30 29160 P 1335.87 8.03563 -3.84925 0
M  V30 29161 O 1335.65 8.85821 -5.0569 0
M  V30 29162 O 1335.08 8.41101 -2.65469 0
M  V30 29163 O 1335.62 6.4965 -4.18908 0
M  V30 29164 C 1336.56 5.81037 -5.05421 0
M  V30 29165 C 1335.83 4.78366 -5.89277 0
M  V30 29166 O 1335.62 3.58302 -5.08433 0
M  V30 29167 C 1334.43 5.17448 -6.36119 0
M  V30 29168 O 1334.04 4.45271 -7.53232 0
M  V30 29169 C 1333.55 4.74639 -5.19936 0
M  V30 29170 C 1334.26 3.49432 -4.70418 0
M  V30 29171 N 1334.21 3.31776 -3.22945 0
M  V30 29172 H 1337.05 6.54213 -5.71376 0
M  V30 29173 H 1337.32 5.30492 -4.44033 0
M  V30 29174 H 1336.46 4.55889 -6.76652 0
M  V30 29175 P 1332.49 4.23843 -7.83734 0
M  V30 29176 O 1332.27 4.19407 -9.29784 0
M  V30 29177 O 1331.7 5.24426 -7.09156 0
M  V30 29178 O 1332.24 2.7935 -7.20758 0
M  V30 29179 C 1333.18 1.7299 -7.50419 0
M  V30 29180 C 1332.45 0.406376 -7.57911 0
M  V30 29181 O 1332.24 -0.0897726 -6.21935 0
M  V30 29182 C 1331.05 0.447224 -8.1878 0
M  V30 29183 O 1330.66 -0.825065 -8.71101 0
M  V30 29184 C 1330.17 0.783801 -6.99623 0
M  V30 29185 C 1330.88 0.0619192 -5.85967 0
M  V30 29186 N 1330.83 0.790462 -4.56202 0
M  V30 29187 H 1333.67 1.93423 -8.4679 0
M  V30 29188 H 1333.94 1.68852 -6.70877 0
M  V30 29189 H 1333.08 -0.289041 -8.15388 0
M  V30 29190 H 1330.42 -0.927006 -5.72848 0
M  V30 29191 H 1330.14 1.86973 -6.82036 0
M  V30 29192 H 1329.15 0.403953 -7.13357 0
M  V30 29193 H 1330.98 1.20599 -8.97534 0
M  V30 29194 P 1329.11 -1.17771 -8.83182 0
M  V30 29195 O 1328.89 -2.07206 -9.98732 0
M  V30 29196 O 1328.32 0.0743816 -8.81969 0
M  V30 29197 O 1328.86 -1.97652 -7.47304 0
M  V30 29198 C 1329.8 -3.01133 -7.08783 0
M  V30 29199 C 1329.07 -4.12613 -6.37049 0
M  V30 29200 O 1328.86 -3.72827 -4.97879 0
M  V30 29201 C 1327.67 -4.45085 -6.88694 0
M  V30 29202 O 1327.28 -5.7877 -6.5624 0
M  V30 29203 C 1326.79 -3.47817 -6.12078 0
M  V30 29204 C 1327.5 -3.39414 -4.77697 0
M  V30 29205 N 1327.45 -2.04615 -4.15333 0
M  V30 29206 H 1330.29 -3.41248 -7.98759 0
M  V30 29207 H 1330.56 -2.5837 -6.41742 0
M  V30 29208 H 1329.7 -5.02657 -6.42673 0
M  V30 29209 P 1325.73 -6.144 -6.45285 0
M  V30 29210 O 1325.51 -7.54673 -6.86199 0
M  V30 29211 O 1324.94 -5.12391 -7.179 0
M  V30 29212 O 1325.48 -5.99158 -4.88404 0
M  V30 29213 C 1326.42 -6.60062 -3.96313 0
M  V30 29214 C 1325.69 -7.08259 -2.72856 0
M  V30 29215 O 1325.48 -5.9427 -1.83651 0
M  V30 29216 C 1324.29 -7.65087 -2.94749 0
M  V30 29217 O 1323.9 -8.53963 -1.90717 0
M  V30 29218 C 1323.41 -6.41069 -2.90698 0
M  V30 29219 C 1324.12 -5.5528 -1.86931 0
M  V30 29220 N 1324.07 -4.09575 -2.15696 0
M  V30 29221 C 1323.92 -3.24249 -1.08435 0
M  V30 29222 O 1323.83 -3.63946 0.0628747 0
M  V30 29223 N 1323.88 -1.90009 -1.39973 0
M  V30 29224 C 1323.97 -1.34884 -2.65614 0
M  V30 29225 O 1323.92 -0.123716 -2.81728 0
M  V30 29226 C 1324.12 -2.3145 -3.71736 0
M  V30 29227 C 1324.23 -1.75913 -5.10438 0
M  V30 29228 C 1324.17 -3.63518 -3.44754 0
M  V30 29229 H 1326.91 -7.45402 -4.45526 0
M  V30 29230 H 1327.18 -5.86062 -3.67208 0
M  V30 29231 H 1326.32 -7.84412 -2.24479 0
M  V30 29232 H 1323.66 -5.73358 -0.888409 0
M  V30 29233 H 1323.38 -5.90877 -3.88583 0
M  V30 29234 H 1322.39 -6.65867 -2.58821 0
M  V30 29235 H 1324.22 -8.16248 -3.92006 0
M  V30 29236 H 1324.29 -4.34551 -4.26383 0
M  V30 29237 H 1323.26 -1.85471 -5.61775 0
M  V30 29238 H 1325 -2.31364 -5.66257 0
M  V30 29239 H 1324.51 -0.695936 -5.05229 0
M  V30 29240 H 1323.78 -1.26277 -0.63625 0
M  V30 29241 P 1322.35 -8.7635 -1.60911 0
M  V30 29242 O 1322.13 -10.1388 -1.11561 0
M  V30 29243 O 1321.56 -8.36503 -2.79617 0
M  V30 29244 O 1322.1 -7.71806 -0.42951 0
M  V30 29245 C 1323.04 -7.67148 0.673689 0
M  V30 29246 C 1322.31 -7.33374 1.95559 0
M  V30 29247 O 1322.1 -5.88721 2.00726 0
M  V30 29248 C 1320.91 -7.92526 2.10483 0
M  V30 29249 O 1320.52 -8.02971 3.47653 0
M  V30 29250 C 1320.03 -6.89602 1.41652 0
M  V30 29251 C 1320.74 -5.59201 1.75185 0
M  V30 29252 N 1320.69 -4.58301 0.657969 0
M  V30 29253 H 1323.53 -8.65116 0.777161 0
M  V30 29254 H 1323.8 -6.9022 0.46725 0
M  V30 29255 H 1322.94 -7.66548 2.79458 0
M  V30 29256 H 1320.28 -5.16165 2.65183 0
M  V30 29257 H 1320 -7.06433 0.329384 0
M  V30 29258 H 1319.01 -6.90926 1.82021 0
M  V30 29259 H 1320.84 -8.90873 1.62657 0
M  V30 29260 P 1318.97 -8.03563 3.84925 0
M  V30 29261 O 1318.75 -8.85821 5.0569 0
M  V30 29262 O 1318.18 -8.41101 2.65469 0
M  V30 29263 O 1318.72 -6.4965 4.18908 0
M  V30 29264 C 1319.66 -5.81037 5.05421 0
M  V30 29265 C 1318.93 -4.78366 5.89277 0
M  V30 29266 O 1318.72 -3.58302 5.08433 0
M  V30 29267 C 1317.53 -5.17448 6.36119 0
M  V30 29268 O 1317.14 -4.45271 7.53232 0
M  V30 29269 C 1316.65 -4.74639 5.19936 0
M  V30 29270 C 1317.36 -3.49432 4.70418 0
M  V30 29271 N 1317.31 -3.31776 3.22945 0
M  V30 29272 H 1320.15 -6.54213 5.71376 0
M  V30 29273 H 1320.42 -5.30492 4.44033 0
M  V30 29274 H 1319.56 -4.55889 6.76652 0
M  V30 29275 P 1315.59 -4.23843 7.83734 0
M  V30 29276 O 1315.37 -4.19407 9.29784 0
M  V30 29277 O 1314.8 -5.24426 7.09156 0
M  V30 29278 O 1315.34 -2.7935 7.20758 0
M  V30 29279 C 1316.28 -1.7299 7.50419 0
M  V30 29280 C 1315.55 -0.406376 7.57911 0
M  V30 29281 O 1315.34 0.0897726 6.21935 0
M  V30 29282 C 1314.15 -0.447224 8.1878 0
M  V30 29283 O 1313.76 0.825065 8.71101 0
M  V30 29284 C 1313.27 -0.783801 6.99623 0
M  V30 29285 C 1313.98 -0.0619192 5.85967 0
M  V30 29286 N 1313.93 -0.7859 4.56281 0
M  V30 29287 C 1314.01 -2.14308 4.31736 0
M  V30 29288 N 1313.93 -2.46106 3.05116 0
M  V30 29289 C 1313.79 -1.23422 2.4014 0
M  V30 29290 C 1313.66 -0.938381 1.02409 0
M  V30 29291 N 1313.54 0.444647 0.805413 0
M  V30 29292 C 1313.54 1.40829 1.79435 0
M  V30 29293 N 1313.41 2.67213 1.38558 0
M  V30 29294 N 1313.67 1.12947 3.09005 0
M  V30 29295 C 1313.79 -0.204887 3.32369 0
M  V30 29296 H 1316.77 -1.93423 8.4679 0
M  V30 29297 H 1317.04 -1.68181 6.71046 0
M  V30 29298 H 1316.18 0.289041 8.15388 0
M  V30 29299 P 1312.21 1.17771 8.83182 0
M  V30 29300 O 1311.99 2.07206 9.98732 0
M  V30 29301 O 1311.42 -0.0743816 8.81969 0
M  V30 29302 O 1311.96 1.97652 7.47304 0
M  V30 29303 C 1312.9 3.01133 7.08783 0
M  V30 29304 C 1312.17 4.12613 6.37049 0
M  V30 29305 O 1311.96 3.72827 4.97879 0
M  V30 29306 C 1310.77 4.45085 6.88694 0
M  V30 29307 O 1310.38 5.7877 6.5624 0
M  V30 29308 C 1309.89 3.47817 6.12078 0
M  V30 29309 C 1310.6 3.39414 4.77697 0
M  V30 29310 N 1310.55 2.04199 4.15538 0
M  V30 29311 H 1313.39 3.41248 7.98759 0
M  V30 29312 H 1313.66 2.57728 6.42 0
M  V30 29313 H 1312.8 5.02657 6.42673 0
M  V30 29314 H 1310.14 4.11708 4.08956 0
M  V30 29315 H 1309.86 2.49626 6.61679 0
M  V30 29316 H 1308.87 3.8662 6.00862 0
M  V30 29317 H 1310.7 4.29991 7.97006 0
M  V30 29318 P 1308.83 6.144 6.45285 0
M  V30 29319 O 1308.61 7.54673 6.86199 0
M  V30 29320 O 1308.04 5.12391 7.179 0
M  V30 29321 O 1308.58 5.99158 4.88404 0
M  V30 29322 C 1309.52 6.60234 3.96415 0
M  V30 29323 C 1308.79 7.08259 2.72856 0
M  V30 29324 O 1308.58 5.9427 1.83651 0
M  V30 29325 C 1307.39 7.64886 2.9555 0
M  V30 29326 O 1307 8.53963 1.90717 0
M  V30 29327 C 1306.51 6.4116 2.90739 0
M  V30 29328 C 1307.22 5.55375 1.86963 0
M  V30 29329 N 1307.17 4.09664 2.15742 0
M  V30 29330 H 1310.01 7.45574 4.45629 0
M  V30 29331 H 1310.28 5.86232 3.67314 0
M  V30 29332 H 1309.42 7.84412 2.24479 0
M  V30 29333 P 1305.45 8.7635 1.60911 0
M  V30 29334 O 1305.23 10.1388 1.11561 0
M  V30 29335 O 1304.66 8.36503 2.79617 0
M  V30 29336 O 1305.2 7.71806 0.42951 0
M  V30 29337 C 1306.14 7.66948 -0.673514 0
M  V30 29338 C 1305.41 7.33374 -1.95559 0
M  V30 29339 O 1305.2 5.88721 -2.00726 0
M  V30 29340 C 1304.01 7.92218 -2.1125 0
M  V30 29341 O 1303.62 8.02971 -3.47653 0
M  V30 29342 C 1303.13 6.89504 -1.41631 0
M  V30 29343 C 1303.84 5.59106 -1.75155 0
M  V30 29344 N 1303.79 4.58136 -0.662409 0
M  V30 29345 C 1303.64 3.26059 -1.02863 0
M  V30 29346 O 1303.55 2.90743 -2.19009 0
M  V30 29347 N 1303.6 2.35995 0.0155585 0
M  V30 29348 C 1303.69 2.65248 1.35603 0
M  V30 29349 O 1303.64 1.75605 2.20651 0
M  V30 29350 C 1303.84 4.05747 1.64698 0
M  V30 29351 C 1303.95 4.42345 3.09553 0
M  V30 29352 C 1303.89 4.96734 0.652411 0
M  V30 29353 H 1306.63 8.64917 -0.776982 0
M  V30 29354 H 1306.9 6.89974 -0.474015 0
M  V30 29355 H 1306.04 7.66548 -2.79458 0
M  V30 29356 H 1303.38 5.16076 -2.65138 0
M  V30 29357 H 1303.1 7.06433 -0.329384 0
M  V30 29358 H 1302.11 6.90829 -1.81996 0
M  V30 29359 H 1303.94 8.90774 -1.62639 0
M  V30 29360 H 1304.01 6.02181 0.895285 0
M  V30 29361 H 1302.98 4.80252 3.45468 0
M  V30 29362 H 1304.72 5.20015 3.22119 0
M  V30 29363 H 1304.23 3.53269 3.67833 0
M  V30 29364 H 1303.5 1.39558 -0.227499 0
M  V30 29365 P 1302.07 8.03563 -3.84925 0
M  V30 29366 O 1301.85 8.85821 -5.0569 0
M  V30 29367 O 1301.28 8.41101 -2.65469 0
M  V30 29368 O 1301.82 6.4965 -4.18908 0
M  V30 29369 C 1302.76 5.81037 -5.05421 0
M  V30 29370 C 1302.03 4.78366 -5.89277 0
M  V30 29371 O 1301.82 3.58302 -5.08433 0
M  V30 29372 C 1300.63 5.17448 -6.36119 0
M  V30 29373 O 1300.24 4.45271 -7.53232 0
M  V30 29374 C 1299.75 4.74639 -5.19936 0
M  V30 29375 C 1300.46 3.49432 -4.70418 0
M  V30 29376 N 1300.41 3.31776 -3.22945 0
M  V30 29377 H 1303.25 6.54213 -5.71376 0
M  V30 29378 H 1303.52 5.30492 -4.44033 0
M  V30 29379 H 1302.66 4.55889 -6.76652 0
M  V30 29380 P 1298.69 4.23843 -7.83734 0
M  V30 29381 O 1298.47 4.19407 -9.29784 0
M  V30 29382 O 1297.9 5.24426 -7.09156 0
M  V30 29383 O 1298.44 2.7935 -7.20758 0
M  V30 29384 C 1299.38 1.7299 -7.50419 0
M  V30 29385 C 1298.65 0.406376 -7.57911 0
M  V30 29386 O 1298.44 -0.0897726 -6.21935 0
M  V30 29387 C 1297.25 0.447224 -8.1878 0
M  V30 29388 O 1296.86 -0.825065 -8.71101 0
M  V30 29389 C 1296.37 0.783801 -6.99623 0
M  V30 29390 C 1297.08 0.0619192 -5.85967 0
M  V30 29391 N 1297.03 0.7859 -4.56281 0
M  V30 29392 H 1299.87 1.93423 -8.4679 0
M  V30 29393 H 1300.14 1.68181 -6.71046 0
M  V30 29394 H 1299.28 -0.289041 -8.15388 0
M  V30 29395 P 1295.31 -1.17771 -8.83182 0
M  V30 29396 O 1295.09 -2.07206 -9.98732 0
M  V30 29397 O 1294.52 0.0743816 -8.81969 0
M  V30 29398 O 1295.06 -1.97652 -7.47304 0
M  V30 29399 C 1296 -3.01133 -7.08783 0
M  V30 29400 C 1295.27 -4.12613 -6.37049 0
M  V30 29401 O 1295.06 -3.72827 -4.97879 0
M  V30 29402 C 1293.87 -4.45085 -6.88694 0
M  V30 29403 O 1293.48 -5.7877 -6.5624 0
M  V30 29404 C 1292.99 -3.47817 -6.12078 0
M  V30 29405 C 1293.7 -3.39414 -4.77697 0
M  V30 29406 N 1293.65 -2.04615 -4.15333 0
M  V30 29407 H 1296.49 -3.41248 -7.98759 0
M  V30 29408 H 1296.76 -2.5837 -6.41742 0
M  V30 29409 H 1295.9 -5.02657 -6.42673 0
M  V30 29410 P 1291.93 -6.144 -6.45285 0
M  V30 29411 O 1291.71 -7.54673 -6.86199 0
M  V30 29412 O 1291.14 -5.12391 -7.179 0
M  V30 29413 O 1291.68 -5.99158 -4.88404 0
M  V30 29414 C 1292.62 -6.60234 -3.96415 0
M  V30 29415 C 1291.89 -7.08259 -2.72856 0
M  V30 29416 O 1291.68 -5.9427 -1.83651 0
M  V30 29417 C 1290.49 -7.64886 -2.9555 0
M  V30 29418 O 1290.1 -8.53963 -1.90717 0
M  V30 29419 C 1289.61 -6.4116 -2.90739 0
M  V30 29420 C 1290.32 -5.55375 -1.86963 0
M  V30 29421 N 1290.27 -4.09664 -2.15742 0
M  V30 29422 C 1290.35 -3.44381 -3.37233 0
M  V30 29423 N 1290.27 -2.14131 -3.28347 0
M  V30 29424 C 1290.13 -1.90247 -1.91588 0
M  V30 29425 C 1290 -0.683992 -1.20892 0
M  V30 29426 N 1289.88 -0.903396 0.173998 0
M  V30 29427 C 1289.88 -2.14171 0.784879 0
M  V30 29428 N 1289.75 -2.1435 2.11317 0
M  V30 29429 N 1290.01 -3.28784 0.119316 0
M  V30 29430 C 1290.13 -3.0977 -1.22194 0
M  V30 29431 H 1293.11 -7.45574 -4.45629 0
M  V30 29432 H 1293.38 -5.86232 -3.67314 0
M  V30 29433 H 1292.52 -7.84412 -2.24479 0
M  V30 29434 P 1288.55 -8.7635 -1.60911 0
M  V30 29435 O 1288.33 -10.1388 -1.11561 0
M  V30 29436 O 1287.76 -8.36503 -2.79617 0
M  V30 29437 O 1288.3 -7.71806 -0.42951 0
M  V30 29438 C 1289.24 -7.66948 0.673514 0
M  V30 29439 C 1288.51 -7.33374 1.95559 0
M  V30 29440 O 1288.3 -5.88721 2.00726 0
M  V30 29441 C 1287.11 -7.92218 2.1125 0
M  V30 29442 O 1286.72 -8.02971 3.47653 0
M  V30 29443 C 1286.23 -6.89504 1.41631 0
M  V30 29444 C 1286.94 -5.59106 1.75155 0
M  V30 29445 N 1286.89 -4.58136 0.662409 0
M  V30 29446 C 1286.74 -3.26059 1.02863 0
M  V30 29447 O 1286.65 -2.90743 2.19009 0
M  V30 29448 N 1286.7 -2.35995 -0.0155585 0
M  V30 29449 C 1286.79 -2.65248 -1.35603 0
M  V30 29450 O 1286.74 -1.75605 -2.20651 0
M  V30 29451 C 1286.94 -4.05747 -1.64698 0
M  V30 29452 C 1287.05 -4.42345 -3.09553 0
M  V30 29453 C 1286.99 -4.96734 -0.652411 0
M  V30 29454 H 1289.73 -8.64917 0.776982 0
M  V30 29455 H 1290 -6.89974 0.474015 0
M  V30 29456 H 1289.14 -7.66548 2.79458 0
M  V30 29457 H 1286.48 -5.16076 2.65138 0
M  V30 29458 H 1286.2 -7.06433 0.329384 0
M  V30 29459 H 1285.21 -6.90829 1.81996 0
M  V30 29460 H 1287.04 -8.90774 1.62639 0
M  V30 29461 H 1287.11 -6.02181 -0.895285 0
M  V30 29462 H 1286.08 -4.80252 -3.45468 0
M  V30 29463 H 1287.82 -5.20015 -3.22119 0
M  V30 29464 H 1287.33 -3.53269 -3.67833 0
M  V30 29465 H 1286.6 -1.39558 0.227499 0
M  V30 29466 P 1285.17 -8.03563 3.84925 0
M  V30 29467 O 1284.95 -8.85821 5.0569 0
M  V30 29468 O 1284.38 -8.41101 2.65469 0
M  V30 29469 O 1284.92 -6.4965 4.18908 0
M  V30 29470 C 1285.86 -5.80886 5.05289 0
M  V30 29471 C 1285.13 -4.78366 5.89277 0
M  V30 29472 O 1284.92 -3.58302 5.08433 0
M  V30 29473 C 1283.73 -5.16748 6.36559 0
M  V30 29474 O 1283.34 -4.45271 7.53232 0
M  V30 29475 C 1282.85 -4.74572 5.19863 0
M  V30 29476 C 1283.56 -3.49373 4.70338 0
M  V30 29477 N 1283.51 -3.31704 3.22876 0
M  V30 29478 C 1283.36 -2.03326 2.74871 0
M  V30 29479 O 1283.27 -1.06486 3.48076 0
M  V30 29480 N 1283.32 -1.91838 1.37456 0
M  V30 29481 C 1283.41 -2.94295 0.462035 0
M  V30 29482 O 1283.36 -2.71763 -0.752928 0
M  V30 29483 C 1283.56 -4.25064 1.05249 0
M  V30 29484 C 1283.67 -5.39815 0.095697 0
M  V30 29485 C 1283.61 -4.40214 2.39192 0
M  V30 29486 H 1286.35 -6.54063 5.71245 0
M  V30 29487 H 1286.62 -5.30339 4.43905 0
M  V30 29488 H 1285.76 -4.55889 6.76652 0
M  V30 29489 H 1283.1 -2.6167 5.17842 0
M  V30 29490 H 1282.82 -5.52155 4.41878 0
M  V30 29491 H 1281.83 -4.51918 5.53297 0
M  V30 29492 H 1283.66 -6.25055 6.55162 0
M  V30 29493 H 1283.73 -5.39798 2.81523 0
M  V30 29494 H 1282.7 -5.91593 0.0279582 0
M  V30 29495 H 1284.44 -6.10038 0.450573 0
M  V30 29496 H 1283.95 -5.02007 -0.89937 0
M  V30 29497 H 1283.22 -0.995326 1.00435 0
M  V30 29498 P 1281.79 -4.23843 7.83734 0
M  V30 29499 O 1281.57 -4.19407 9.29784 0
M  V30 29500 O 1281 -5.24426 7.09156 0
M  V30 29501 O 1281.54 -2.7935 7.20758 0
M  V30 29502 C 1282.48 -1.7299 7.50419 0
M  V30 29503 C 1281.75 -0.406376 7.57911 0
M  V30 29504 O 1281.54 0.0897726 6.21935 0
M  V30 29505 C 1280.35 -0.447224 8.1878 0
M  V30 29506 O 1279.96 0.825065 8.71101 0
M  V30 29507 C 1279.47 -0.783801 6.99623 0
M  V30 29508 C 1280.18 -0.0619192 5.85967 0
M  V30 29509 N 1280.13 -0.7859 4.56281 0
M  V30 29510 H 1282.97 -1.93423 8.4679 0
M  V30 29511 H 1283.24 -1.68181 6.71046 0
M  V30 29512 H 1282.38 0.289041 8.15388 0
M  V30 29513 P 1278.41 1.17771 8.83182 0
M  V30 29514 O 1278.19 2.07206 9.98732 0
M  V30 29515 O 1277.62 -0.0743816 8.81969 0
M  V30 29516 O 1278.16 1.97678 7.474 0
M  V30 29517 C 1279.1 3.01133 7.08783 0
M  V30 29518 C 1278.37 4.1203 6.37546 0
M  V30 29519 O 1278.16 3.72887 4.9796 0
M  V30 29520 C 1276.97 4.45085 6.88694 0
M  V30 29521 O 1276.58 5.78836 6.56315 0
M  V30 29522 C 1276.09 3.47817 6.12078 0
M  V30 29523 C 1276.8 3.39414 4.77697 0
M  V30 29524 N 1276.75 2.04615 4.15333 0
M  V30 29525 C 1276.6 1.96929 2.77162 0
M  V30 29526 O 1276.51 3.02017 2.12006 0
M  V30 29527 N 1276.55 0.55485 2.24237 0
M  V30 29528 C 1276.65 -0.367808 2.9169 0
M  V30 29529 N 1276.6 -1.53426 2.29427 0
M  V30 29530 C 1276.8 -0.319148 4.33828 0
M  V30 29531 C 1276.85 0.920672 4.90433 0
M  V30 29532 H 1279.59 3.41209 7.98667 0
M  V30 29533 H 1279.86 2.5837 6.41742 0
M  V30 29534 H 1279 5.02718 6.42752 0
M  V30 29535 H 1276.34 4.11779 4.09026 0
M  V30 29536 H 1276.06 2.49661 6.61772 0
M  V30 29537 H 1275.07 3.86674 6.00946 0
M  V30 29538 H 1276.9 4.29991 7.97006 0
M  V30 29539 H 1276.98 1.00589 5.98303 0
M  V30 29540 H 1276.87 -1.22639 4.93799 0
M  V30 29541 H 1276.49 -1.56819 1.27167 0
M  V30 29542 H 1276.68 -2.41062 2.83063 0
M  V30 29543 P 1275.03 6.144 6.45285 0
M  V30 29544 O 1274.81 7.54673 6.86199 0
M  V30 29545 O 1274.24 5.12391 7.179 0
M  V30 29546 O 1274.78 5.99158 4.88404 0
M  V30 29547 C 1275.72 6.60234 3.96415 0
M  V30 29548 C 1274.99 7.08259 2.72856 0
M  V30 29549 O 1274.78 5.9427 1.83651 0
M  V30 29550 C 1273.59 7.64886 2.9555 0
M  V30 29551 O 1273.2 8.53963 1.90717 0
M  V30 29552 C 1272.71 6.4116 2.90739 0
M  V30 29553 C 1273.42 5.55375 1.86963 0
M  V30 29554 N 1273.37 4.09664 2.15742 0
M  V30 29555 H 1276.21 7.45574 4.45629 0
M  V30 29556 H 1276.48 5.86232 3.67314 0
M  V30 29557 H 1275.62 7.84412 2.24479 0
M  V30 29558 P 1271.65 8.7635 1.60911 0
M  V30 29559 O 1271.43 10.1388 1.11561 0
M  V30 29560 O 1270.86 8.36503 2.79617 0
M  V30 29561 O 1271.4 7.71806 0.42951 0
M  V30 29562 C 1272.34 7.67148 -0.673689 0
M  V30 29563 C 1271.61 7.33374 -1.95559 0
M  V30 29564 O 1271.4 5.88721 -2.00726 0
M  V30 29565 C 1270.21 7.92526 -2.10483 0
M  V30 29566 O 1269.82 8.02971 -3.47653 0
M  V30 29567 C 1269.33 6.89602 -1.41652 0
M  V30 29568 C 1270.04 5.59201 -1.75185 0
M  V30 29569 N 1269.99 4.58235 -0.662552 0
M  V30 29570 H 1272.83 8.65116 -0.777161 0
M  V30 29571 H 1273.1 6.90173 -0.474152 0
M  V30 29572 H 1272.24 7.66548 -2.79458 0
M  V30 29573 P 1268.27 8.03563 -3.84925 0
M  V30 29574 O 1268.05 8.85821 -5.0569 0
M  V30 29575 O 1267.48 8.41101 -2.65469 0
M  V30 29576 O 1268.02 6.4965 -4.18908 0
M  V30 29577 C 1268.96 5.81037 -5.05421 0
M  V30 29578 C 1268.23 4.78366 -5.89277 0
M  V30 29579 O 1268.02 3.58302 -5.08433 0
M  V30 29580 C 1266.83 5.17448 -6.36119 0
M  V30 29581 O 1266.44 4.45271 -7.53232 0
M  V30 29582 C 1265.95 4.74639 -5.19936 0
M  V30 29583 C 1266.66 3.49432 -4.70418 0
M  V30 29584 N 1266.61 3.31776 -3.22945 0
M  V30 29585 H 1269.45 6.54213 -5.71376 0
M  V30 29586 H 1269.72 5.30492 -4.44033 0
M  V30 29587 H 1268.86 4.55889 -6.76652 0
M  V30 29588 P 1264.89 4.23843 -7.83734 0
M  V30 29589 O 1264.67 4.19407 -9.29784 0
M  V30 29590 O 1264.1 5.24426 -7.09156 0
M  V30 29591 O 1264.64 2.7935 -7.20758 0
M  V30 29592 C 1265.58 1.72945 -7.50224 0
M  V30 29593 C 1264.85 0.406376 -7.57911 0
M  V30 29594 O 1264.64 -0.0897726 -6.21935 0
M  V30 29595 C 1263.45 0.438983 -8.18724 0
M  V30 29596 O 1263.06 -0.825065 -8.71101 0
M  V30 29597 C 1262.57 0.783689 -6.99524 0
M  V30 29598 C 1263.28 0.0619086 -5.85867 0
M  V30 29599 N 1263.23 0.78573 -4.56183 0
M  V30 29600 C 1263.08 0.0292889 -3.41887 0
M  V30 29601 O 1262.99 -1.18445 -3.4419 0
M  V30 29602 N 1263.04 0.744061 -2.23964 0
M  V30 29603 C 1263.13 2.10932 -2.10362 0
M  V30 29604 O 1263.08 2.64117 -0.98825 0
M  V30 29605 C 1263.28 2.8202 -3.34994 0
M  V30 29606 C 1263.39 4.31095 -3.25037 0
M  V30 29607 C 1263.33 2.15547 -4.52261 0
M  V30 29608 H 1266.07 1.93379 -8.46595 0
M  V30 29609 H 1266.34 1.68132 -6.70852 0
M  V30 29610 H 1265.48 -0.289041 -8.15388 0
M  V30 29611 H 1262.82 -0.926847 -5.72749 0
M  V30 29612 H 1262.54 1.86973 -6.82036 0
M  V30 29613 H 1261.55 0.403896 -7.13257 0
M  V30 29614 H 1263.38 1.20585 -8.97435 0
M  V30 29615 H 1263.45 2.71231 -5.45042 0
M  V30 29616 H 1262.42 4.76966 -3.49992 0
M  V30 29617 H 1264.16 4.67047 -3.95024 0
M  V30 29618 H 1263.67 4.58996 -2.22312 0
M  V30 29619 H 1262.94 0.214893 -1.39758 0
M  V30 29620 P 1261.51 -1.17771 -8.83182 0
M  V30 29621 O 1261.29 -2.07206 -9.98732 0
M  V30 29622 O 1260.72 0.0743816 -8.81969 0
M  V30 29623 O 1261.26 -1.97652 -7.47304 0
M  V30 29624 C 1262.2 -3.01133 -7.08783 0
M  V30 29625 C 1261.47 -4.12613 -6.37049 0
M  V30 29626 O 1261.26 -3.72827 -4.97879 0
M  V30 29627 C 1260.07 -4.45085 -6.88694 0
M  V30 29628 O 1259.68 -5.7877 -6.5624 0
M  V30 29629 C 1259.19 -3.47817 -6.12078 0
M  V30 29630 C 1259.9 -3.39414 -4.77697 0
M  V30 29631 N 1259.85 -2.04615 -4.15333 0
M  V30 29632 H 1262.69 -3.41248 -7.98759 0
M  V30 29633 H 1262.96 -2.5837 -6.41742 0
M  V30 29634 H 1262.1 -5.02657 -6.42673 0
M  V30 29635 P 1258.13 -6.144 -6.45285 0
M  V30 29636 O 1257.91 -7.54673 -6.86199 0
M  V30 29637 O 1257.34 -5.12391 -7.179 0
M  V30 29638 O 1257.88 -5.99158 -4.88404 0
M  V30 29639 C 1258.82 -6.60234 -3.96415 0
M  V30 29640 C 1258.09 -7.08259 -2.72856 0
M  V30 29641 O 1257.88 -5.9427 -1.83651 0
M  V30 29642 C 1256.69 -7.64886 -2.9555 0
M  V30 29643 O 1256.3 -8.53963 -1.90717 0
M  V30 29644 C 1255.81 -6.4116 -2.90739 0
M  V30 29645 C 1256.52 -5.55375 -1.86963 0
M  V30 29646 N 1256.47 -4.09448 -2.16152 0
M  V30 29647 H 1259.31 -7.45574 -4.45629 0
M  V30 29648 H 1259.58 -5.85864 -3.679 0
M  V30 29649 H 1258.72 -7.84412 -2.24479 0
M  V30 29650 H 1256.06 -5.73457 -0.888562 0
M  V30 29651 H 1255.78 -5.90877 -3.88583 0
M  V30 29652 H 1254.79 -6.6596 -2.58858 0
M  V30 29653 H 1256.62 -8.16339 -3.92049 0
M  V30 29654 P 1254.75 -8.7635 -1.60911 0
M  V30 29655 O 1254.53 -10.1388 -1.11561 0
M  V30 29656 O 1253.96 -8.36503 -2.79617 0
M  V30 29657 O 1254.5 -7.71806 -0.42951 0
M  V30 29658 C 1255.44 -7.67148 0.673689 0
M  V30 29659 C 1254.71 -7.33374 1.95559 0
M  V30 29660 O 1254.5 -5.88721 2.00726 0
M  V30 29661 C 1253.31 -7.92526 2.10483 0
M  V30 29662 O 1252.92 -8.02971 3.47653 0
M  V30 29663 C 1252.43 -6.89602 1.41652 0
M  V30 29664 C 1253.14 -5.59201 1.75185 0
M  V30 29665 N 1253.09 -4.58235 0.662552 0
M  V30 29666 H 1255.93 -8.65116 0.777161 0
M  V30 29667 H 1256.2 -6.90173 0.474152 0
M  V30 29668 H 1255.34 -7.66548 2.79458 0
M  V30 29669 P 1251.37 -8.03563 3.84925 0
M  V30 29670 O 1251.15 -8.85821 5.0569 0
M  V30 29671 O 1250.58 -8.41101 2.65469 0
M  V30 29672 O 1251.12 -6.49734 4.18962 0
M  V30 29673 C 1252.06 -5.81037 5.05421 0
M  V30 29674 C 1251.33 -4.79018 5.88876 0
M  V30 29675 O 1251.12 -3.58359 5.08515 0
M  V30 29676 C 1249.93 -5.17448 6.36119 0
M  V30 29677 O 1249.54 -4.45322 7.53318 0
M  V30 29678 C 1249.05 -4.74639 5.19936 0
M  V30 29679 C 1249.76 -3.49432 4.70418 0
M  V30 29680 N 1249.71 -3.31776 3.22945 0
M  V30 29681 C 1249.56 -2.02742 2.72939 0
M  V30 29682 O 1249.47 -1.08301 3.52749 0
M  V30 29683 N 1249.51 -1.96117 1.22063 0
M  V30 29684 C 1249.61 -2.8878 0.551566 0
M  V30 29685 N 1249.56 -2.65609 -0.750198 0
M  V30 29686 C 1249.76 -4.22457 1.03707 0
M  V30 29687 C 1249.81 -4.37979 2.39113 0
M  V30 29688 H 1252.55 -6.54138 5.7131 0
M  V30 29689 H 1252.82 -5.30492 4.44033 0
M  V30 29690 H 1251.96 -4.55945 6.76735 0
M  V30 29691 H 1249.3 -2.6176 5.18021 0
M  V30 29692 H 1249.02 -5.52233 4.41941 0
M  V30 29693 H 1248.03 -4.52045 5.53452 0
M  V30 29694 H 1249.86 -6.25124 6.55234 0
M  V30 29695 H 1249.94 -5.37936 2.80552 0
M  V30 29696 H 1249.83 -5.07528 0.359553 0
M  V30 29697 H 1249.45 -1.69403 -1.09847 0
M  V30 29698 H 1249.64 -3.43701 -1.41792 0
M  V30 29699 P 1247.99 -4.23843 7.83734 0
M  V30 29700 O 1247.77 -4.19407 9.29784 0
M  V30 29701 O 1247.2 -5.24426 7.09156 0
M  V30 29702 O 1247.74 -2.7935 7.20758 0
M  V30 29703 C 1248.68 -1.7299 7.50419 0
M  V30 29704 C 1247.95 -0.406376 7.57911 0
M  V30 29705 O 1247.74 0.0897726 6.21935 0
M  V30 29706 C 1246.55 -0.447224 8.1878 0
M  V30 29707 O 1246.16 0.825065 8.71101 0
M  V30 29708 C 1245.67 -0.783801 6.99623 0
M  V30 29709 C 1246.38 -0.0619192 5.85967 0
M  V30 29710 N 1246.33 -0.7859 4.56281 0
M  V30 29711 H 1249.17 -1.93423 8.4679 0
M  V30 29712 H 1249.44 -1.68181 6.71046 0
M  V30 29713 H 1248.58 0.289041 8.15388 0
M  V30 29714 P 1244.61 1.17771 8.83182 0
M  V30 29715 O 1244.39 2.07206 9.98732 0
M  V30 29716 O 1243.82 -0.0743816 8.81969 0
M  V30 29717 O 1244.36 1.97652 7.47304 0
M  V30 29718 C 1245.3 3.01133 7.08783 0
M  V30 29719 C 1244.57 4.12613 6.37049 0
M  V30 29720 O 1244.36 3.72827 4.97879 0
M  V30 29721 C 1243.17 4.45085 6.88694 0
M  V30 29722 O 1242.78 5.7877 6.5624 0
M  V30 29723 C 1242.29 3.47817 6.12078 0
M  V30 29724 C 1243 3.39414 4.77697 0
M  V30 29725 N 1242.95 2.04615 4.15333 0
M  V30 29726 H 1245.79 3.41248 7.98759 0
M  V30 29727 H 1246.06 2.5837 6.41742 0
M  V30 29728 H 1245.2 5.02657 6.42673 0
M  V30 29729 P 1241.23 6.144 6.45285 0
M  V30 29730 O 1241.01 7.54673 6.86199 0
M  V30 29731 O 1240.44 5.12391 7.179 0
M  V30 29732 O 1240.98 5.99158 4.88404 0
M  V30 29733 C 1241.92 6.60234 3.96415 0
M  V30 29734 C 1241.19 7.08259 2.72856 0
M  V30 29735 O 1240.98 5.9427 1.83651 0
M  V30 29736 C 1239.79 7.64886 2.9555 0
M  V30 29737 O 1239.4 8.53963 1.90717 0
M  V30 29738 C 1238.91 6.4116 2.90739 0
M  V30 29739 C 1239.62 5.55375 1.86963 0
M  V30 29740 N 1239.57 4.09664 2.15742 0
M  V30 29741 H 1242.41 7.45574 4.45629 0
M  V30 29742 H 1242.68 5.86232 3.67314 0
M  V30 29743 H 1241.82 7.84412 2.24479 0
M  V30 29744 P 1237.85 8.7635 1.60911 0
M  V30 29745 O 1237.63 10.1388 1.11561 0
M  V30 29746 O 1237.06 8.36503 2.79617 0
M  V30 29747 O 1237.6 7.71806 0.42951 0
M  V30 29748 C 1238.54 7.66948 -0.673514 0
M  V30 29749 C 1237.81 7.33374 -1.95559 0
M  V30 29750 O 1237.6 5.88721 -2.00726 0
M  V30 29751 C 1236.41 7.92218 -2.1125 0
M  V30 29752 O 1236.02 8.02971 -3.47653 0
M  V30 29753 C 1235.53 6.89504 -1.41631 0
M  V30 29754 C 1236.24 5.59106 -1.75155 0
M  V30 29755 N 1236.19 4.58136 -0.662409 0
M  V30 29756 C 1236.04 3.26059 -1.02863 0
M  V30 29757 O 1235.95 2.90743 -2.19009 0
M  V30 29758 N 1236 2.35995 0.0155585 0
M  V30 29759 C 1236.09 2.65248 1.35603 0
M  V30 29760 O 1236.04 1.75605 2.20651 0
M  V30 29761 C 1236.24 4.05747 1.64698 0
M  V30 29762 C 1236.35 4.42345 3.09553 0
M  V30 29763 C 1236.29 4.96734 0.652411 0
M  V30 29764 H 1239.03 8.64917 -0.776982 0
M  V30 29765 H 1239.3 6.89974 -0.474015 0
M  V30 29766 H 1238.44 7.66548 -2.79458 0
M  V30 29767 H 1235.78 5.16076 -2.65138 0
M  V30 29768 H 1235.5 7.06433 -0.329384 0
M  V30 29769 H 1234.51 6.90829 -1.81996 0
M  V30 29770 H 1236.34 8.90774 -1.62639 0
M  V30 29771 H 1236.41 6.02181 0.895285 0
M  V30 29772 H 1235.38 4.80252 3.45468 0
M  V30 29773 H 1237.12 5.20015 3.22119 0
M  V30 29774 H 1236.63 3.53269 3.67833 0
M  V30 29775 H 1235.9 1.39558 -0.227499 0
M  V30 29776 P 1234.47 8.03563 -3.84925 0
M  V30 29777 O 1234.25 8.85821 -5.0569 0
M  V30 29778 O 1233.68 8.41101 -2.65469 0
M  V30 29779 O 1234.22 6.4965 -4.18908 0
M  V30 29780 C 1235.16 5.81037 -5.05421 0
M  V30 29781 C 1234.43 4.78366 -5.89277 0
M  V30 29782 O 1234.22 3.58302 -5.08433 0
M  V30 29783 C 1233.03 5.17448 -6.36119 0
M  V30 29784 O 1232.64 4.45271 -7.53232 0
M  V30 29785 C 1232.15 4.74639 -5.19936 0
M  V30 29786 C 1232.86 3.49432 -4.70418 0
M  V30 29787 N 1232.81 3.32099 -3.22613 0
M  V30 29788 H 1235.65 6.54213 -5.71376 0
M  V30 29789 H 1235.92 5.30936 -4.43503 0
M  V30 29790 H 1235.06 4.55889 -6.76652 0
M  V30 29791 H 1232.4 2.61715 -5.17932 0
M  V30 29792 H 1232.12 5.52155 -4.41878 0
M  V30 29793 H 1231.13 4.51981 -5.53374 0
M  V30 29794 H 1232.96 6.25124 -6.55234 0
M  V30 29795 P 1231.09 4.23843 -7.83734 0
M  V30 29796 O 1230.87 4.19407 -9.29784 0
M  V30 29797 O 1230.3 5.24426 -7.09156 0
M  V30 29798 O 1230.84 2.7935 -7.20758 0
M  V30 29799 C 1231.78 1.7299 -7.50419 0
M  V30 29800 C 1231.05 0.406376 -7.57911 0
M  V30 29801 O 1230.84 -0.0897726 -6.21935 0
M  V30 29802 C 1229.65 0.447224 -8.1878 0
M  V30 29803 O 1229.26 -0.825065 -8.71101 0
M  V30 29804 C 1228.77 0.783801 -6.99623 0
M  V30 29805 C 1229.48 0.0619192 -5.85967 0
M  V30 29806 N 1229.43 0.7859 -4.56281 0
M  V30 29807 H 1232.27 1.93423 -8.4679 0
M  V30 29808 H 1232.54 1.68181 -6.71046 0
M  V30 29809 H 1231.68 -0.289041 -8.15388 0
M  V30 29810 P 1227.71 -1.17771 -8.83182 0
M  V30 29811 O 1227.49 -2.07206 -9.98732 0
M  V30 29812 O 1226.92 0.0743816 -8.81969 0
M  V30 29813 O 1227.46 -1.97652 -7.47304 0
M  V30 29814 C 1228.4 -3.01133 -7.08783 0
M  V30 29815 C 1227.67 -4.12613 -6.37049 0
M  V30 29816 O 1227.46 -3.72827 -4.97879 0
M  V30 29817 C 1226.27 -4.45085 -6.88694 0
M  V30 29818 O 1225.88 -5.7877 -6.5624 0
M  V30 29819 C 1225.39 -3.47817 -6.12078 0
M  V30 29820 C 1226.1 -3.39414 -4.77697 0
M  V30 29821 N 1226.05 -2.04615 -4.15333 0
M  V30 29822 H 1228.89 -3.41248 -7.98759 0
M  V30 29823 H 1229.16 -2.5837 -6.41742 0
M  V30 29824 H 1228.3 -5.02657 -6.42673 0
M  V30 29825 P 1224.33 -6.144 -6.45285 0
M  V30 29826 O 1224.11 -7.54673 -6.86199 0
M  V30 29827 O 1223.54 -5.12391 -7.179 0
M  V30 29828 O 1224.08 -5.99158 -4.88404 0
M  V30 29829 C 1225.02 -6.60234 -3.96415 0
M  V30 29830 C 1224.29 -7.08259 -2.72856 0
M  V30 29831 O 1224.08 -5.9427 -1.83651 0
M  V30 29832 C 1222.89 -7.64886 -2.9555 0
M  V30 29833 O 1222.5 -8.53963 -1.90717 0
M  V30 29834 C 1222.01 -6.4116 -2.90739 0
M  V30 29835 C 1222.72 -5.55375 -1.86963 0
M  V30 29836 N 1222.67 -4.09448 -2.16152 0
M  V30 29837 H 1225.51 -7.45574 -4.45629 0
M  V30 29838 H 1225.78 -5.85864 -3.679 0
M  V30 29839 H 1224.92 -7.84412 -2.24479 0
M  V30 29840 H 1222.26 -5.73457 -0.888562 0
M  V30 29841 H 1221.98 -5.90877 -3.88583 0
M  V30 29842 H 1220.99 -6.6596 -2.58858 0
M  V30 29843 H 1222.82 -8.16339 -3.92049 0
M  V30 29844 P 1220.95 -8.7635 -1.60911 0
M  V30 29845 O 1220.73 -10.1388 -1.11561 0
M  V30 29846 O 1220.16 -8.36503 -2.79617 0
M  V30 29847 O 1220.7 -7.71806 -0.42951 0
M  V30 29848 C 1221.64 -7.67148 0.673689 0
M  V30 29849 C 1220.91 -7.33374 1.95559 0
M  V30 29850 O 1220.7 -5.88721 2.00726 0
M  V30 29851 C 1219.51 -7.92526 2.10483 0
M  V30 29852 O 1219.12 -8.02971 3.47653 0
M  V30 29853 C 1218.63 -6.89602 1.41652 0
M  V30 29854 C 1219.34 -5.59201 1.75185 0
M  V30 29855 N 1219.29 -4.58235 0.662552 0
M  V30 29856 H 1222.13 -8.65116 0.777161 0
M  V30 29857 H 1222.4 -6.90173 0.474152 0
M  V30 29858 H 1221.54 -7.66548 2.79458 0
M  V30 29859 P 1217.57 -8.03563 3.84925 0
M  V30 29860 O 1217.35 -8.85821 5.0569 0
M  V30 29861 O 1216.78 -8.41101 2.65469 0
M  V30 29862 O 1217.32 -6.4965 4.18908 0
M  V30 29863 C 1218.26 -5.81037 5.05421 0
M  V30 29864 C 1217.53 -4.78366 5.89277 0
M  V30 29865 O 1217.32 -3.58302 5.08433 0
M  V30 29866 C 1216.13 -5.17448 6.36119 0
M  V30 29867 O 1215.74 -4.45271 7.53232 0
M  V30 29868 C 1215.25 -4.74639 5.19936 0
M  V30 29869 C 1215.96 -3.49432 4.70418 0
M  V30 29870 N 1215.91 -3.32099 3.22613 0
M  V30 29871 H 1218.75 -6.54213 5.71376 0
M  V30 29872 H 1219.02 -5.30936 4.43503 0
M  V30 29873 H 1218.16 -4.55889 6.76652 0
M  V30 29874 H 1215.5 -2.61715 5.17932 0
M  V30 29875 H 1215.22 -5.52155 4.41878 0
M  V30 29876 H 1214.23 -4.51981 5.53374 0
M  V30 29877 H 1216.06 -6.25124 6.55234 0
M  V30 29878 P 1214.19 -4.23843 7.83734 0
M  V30 29879 O 1213.97 -4.19407 9.29784 0
M  V30 29880 O 1213.4 -5.24426 7.09156 0
M  V30 29881 O 1213.94 -2.7935 7.20758 0
M  V30 29882 C 1214.88 -1.7299 7.50419 0
M  V30 29883 C 1214.15 -0.406376 7.57911 0
M  V30 29884 O 1213.94 0.0897726 6.21935 0
M  V30 29885 C 1212.75 -0.447224 8.1878 0
M  V30 29886 O 1212.36 0.825065 8.71101 0
M  V30 29887 C 1211.87 -0.783801 6.99623 0
M  V30 29888 C 1212.58 -0.0619192 5.85967 0
M  V30 29889 N 1212.53 -0.790462 4.56202 0
M  V30 29890 H 1215.37 -1.93423 8.4679 0
M  V30 29891 H 1215.64 -1.68852 6.70877 0
M  V30 29892 H 1214.78 0.289041 8.15388 0
M  V30 29893 H 1212.12 0.927006 5.72848 0
M  V30 29894 H 1211.84 -1.86973 6.82036 0
M  V30 29895 H 1210.85 -0.403953 7.13357 0
M  V30 29896 H 1212.68 -1.20599 8.97534 0
M  V30 29897 P 1210.81 1.17771 8.83182 0
M  V30 29898 O 1210.59 2.07206 9.98732 0
M  V30 29899 O 1210.02 -0.0743816 8.81969 0
M  V30 29900 O 1210.56 1.97652 7.47304 0
M  V30 29901 C 1211.5 3.01133 7.08783 0
M  V30 29902 C 1210.77 4.12613 6.37049 0
M  V30 29903 O 1210.56 3.72827 4.97879 0
M  V30 29904 C 1209.37 4.45085 6.88694 0
M  V30 29905 O 1208.98 5.7877 6.5624 0
M  V30 29906 C 1208.49 3.47817 6.12078 0
M  V30 29907 C 1209.2 3.39414 4.77697 0
M  V30 29908 N 1209.15 2.04199 4.15538 0
M  V30 29909 C 1209.23 0.821545 4.76977 0
M  V30 29910 N 1209.16 -0.1794 3.94592 0
M  V30 29911 C 1209.01 0.419121 2.70776 0
M  V30 29912 C 1208.88 -0.109072 1.40577 0
M  V30 29913 N 1208.87 -1.4104 1.1344 0
M  V30 29914 N 1208.76 0.764381 0.39411 0
M  V30 29915 C 1208.77 2.06587 0.664135 0
M  V30 29916 N 1208.89 2.67948 1.82153 0
M  V30 29917 C 1209.01 1.77942 2.8147 0
M  V30 29918 H 1211.99 3.41248 7.98759 0
M  V30 29919 H 1212.26 2.57728 6.42 0
M  V30 29920 H 1211.4 5.02657 6.42673 0
M  V30 29921 H 1208.74 4.11708 4.08956 0
M  V30 29922 H 1208.46 2.49626 6.61679 0
M  V30 29923 H 1207.47 3.8662 6.00862 0
M  V30 29924 H 1209.3 4.29991 7.97006 0
M  V30 29925 H 1209.34 0.702451 5.84696 0
M  V30 29926 H 1208.96 -2.09647 1.89651 0
M  V30 29927 H 1208.77 -1.73358 0.160575 0
M  V30 29928 H 1208.67 2.71695 -0.195838 0
M  V30 29929 P 1207.43 6.144 6.45285 0
M  V30 29930 O 1207.21 7.54673 6.86199 0
M  V30 29931 O 1206.64 5.12391 7.179 0
M  V30 29932 O 1207.18 5.99158 4.88404 0
M  V30 29933 C 1208.12 6.60234 3.96415 0
M  V30 29934 C 1207.39 7.08259 2.72856 0
M  V30 29935 O 1207.18 5.9427 1.83651 0
M  V30 29936 C 1205.99 7.64886 2.9555 0
M  V30 29937 O 1205.6 8.53963 1.90717 0
M  V30 29938 C 1205.11 6.4116 2.90739 0
M  V30 29939 C 1205.82 5.55375 1.86963 0
M  V30 29940 N 1205.77 4.09664 2.15742 0
M  V30 29941 H 1208.61 7.45574 4.45629 0
M  V30 29942 H 1208.88 5.86232 3.67314 0
M  V30 29943 H 1208.02 7.84412 2.24479 0
M  V30 29944 P 1204.05 8.7635 1.60911 0
M  V30 29945 O 1203.83 10.1388 1.11561 0
M  V30 29946 O 1203.26 8.36503 2.79617 0
M  V30 29947 O 1203.8 7.71806 0.42951 0
M  V30 29948 C 1204.74 7.67148 -0.673689 0
M  V30 29949 C 1204.01 7.33374 -1.95559 0
M  V30 29950 O 1203.8 5.88721 -2.00726 0
M  V30 29951 C 1202.61 7.92526 -2.10483 0
M  V30 29952 O 1202.22 8.02971 -3.47653 0
M  V30 29953 C 1201.73 6.89602 -1.41652 0
M  V30 29954 C 1202.44 5.59201 -1.75185 0
M  V30 29955 N 1202.39 4.58301 -0.657969 0
M  V30 29956 C 1202.47 4.79019 0.692603 0
M  V30 29957 N 1202.4 3.69736 1.38998 0
M  V30 29958 C 1202.25 2.70474 0.438135 0
M  V30 29959 C 1202.12 1.30327 0.538142 0
M  V30 29960 N 1202.11 0.64304 1.69192 0
M  V30 29961 N 1202 0.611027 -0.605183 0
M  V30 29962 C 1202.01 1.27002 -1.75953 0
M  V30 29963 N 1202.13 2.56038 -1.98546 0
M  V30 29964 C 1202.25 3.22681 -0.822541 0
M  V30 29965 H 1205.23 8.65116 -0.777161 0
M  V30 29966 H 1205.5 6.9022 -0.46725 0
M  V30 29967 H 1204.64 7.66548 -2.79458 0
M  V30 29968 H 1201.98 5.16165 -2.65183 0
M  V30 29969 H 1201.7 7.06433 -0.329384 0
M  V30 29970 H 1200.71 6.90926 -1.82021 0
M  V30 29971 H 1202.54 8.90873 -1.62657 0
M  V30 29972 H 1202.58 5.77785 1.13874 0
M  V30 29973 H 1202.2 1.15585 2.57991 0
M  V30 29974 H 1202.01 -0.382989 1.69835 0
M  V30 29975 H 1201.91 0.653331 -2.64449 0
M  V30 29976 P 1200.67 8.03563 -3.84925 0
M  V30 29977 O 1200.45 8.85821 -5.0569 0
M  V30 29978 O 1199.88 8.41101 -2.65469 0
M  V30 29979 O 1200.42 6.4965 -4.18908 0
M  V30 29980 C 1201.36 5.81037 -5.05421 0
M  V30 29981 C 1200.63 4.78366 -5.89277 0
M  V30 29982 O 1200.42 3.58302 -5.08433 0
M  V30 29983 C 1199.23 5.17448 -6.36119 0
M  V30 29984 O 1198.84 4.45271 -7.53232 0
M  V30 29985 C 1198.35 4.74639 -5.19936 0
M  V30 29986 C 1199.06 3.49432 -4.70418 0
M  V30 29987 N 1199.01 3.32099 -3.22613 0
M  V30 29988 H 1201.85 6.54213 -5.71376 0
M  V30 29989 H 1202.12 5.30936 -4.43503 0
M  V30 29990 H 1201.26 4.55889 -6.76652 0
M  V30 29991 H 1198.6 2.61715 -5.17932 0
M  V30 29992 H 1198.32 5.52155 -4.41878 0
M  V30 29993 H 1197.33 4.51981 -5.53374 0
M  V30 29994 H 1199.16 6.25124 -6.55234 0
M  V30 29995 P 1197.29 4.23843 -7.83734 0
M  V30 29996 O 1197.07 4.19407 -9.29784 0
M  V30 29997 O 1196.5 5.24426 -7.09156 0
M  V30 29998 O 1197.04 2.7935 -7.20758 0
M  V30 29999 C 1197.98 1.7299 -7.50419 0
M  V30 30000 C 1197.25 0.406376 -7.57911 0
M  V30 30001 O 1197.04 -0.0897726 -6.21935 0
M  V30 30002 C 1195.85 0.447224 -8.1878 0
M  V30 30003 O 1195.46 -0.825065 -8.71101 0
M  V30 30004 C 1194.97 0.783801 -6.99623 0
M  V30 30005 C 1195.68 0.0619192 -5.85967 0
M  V30 30006 N 1195.63 0.7859 -4.56281 0
M  V30 30007 H 1198.47 1.93423 -8.4679 0
M  V30 30008 H 1198.74 1.68181 -6.71046 0
M  V30 30009 H 1197.88 -0.289041 -8.15388 0
M  V30 30010 P 1193.91 -1.17771 -8.83182 0
M  V30 30011 O 1193.69 -2.07206 -9.98732 0
M  V30 30012 O 1193.12 0.0743816 -8.81969 0
M  V30 30013 O 1193.66 -1.97652 -7.47304 0
M  V30 30014 C 1194.6 -3.01055 -7.08599 0
M  V30 30015 C 1193.87 -4.12613 -6.37049 0
M  V30 30016 O 1193.66 -3.72827 -4.97879 0
M  V30 30017 C 1192.47 -4.45719 -6.88164 0
M  V30 30018 O 1192.08 -5.7877 -6.5624 0
M  V30 30019 C 1191.59 -3.47768 -6.11991 0
M  V30 30020 C 1192.3 -3.39356 -4.77615 0
M  V30 30021 N 1192.25 -2.04571 -4.15244 0
M  V30 30022 C 1192.1 -1.98587 -2.78314 0
M  V30 30023 O 1192.01 -2.98134 -2.08835 0
M  V30 30024 N 1192.06 -0.714467 -2.24925 0
M  V30 30025 C 1192.15 0.470001 -2.94169 0
M  V30 30026 O 1192.1 1.55587 -2.35195 0
M  V30 30027 C 1192.3 0.312541 -4.36783 0
M  V30 30028 C 1192.41 1.57711 -5.16352 0
M  V30 30029 C 1192.35 -0.914512 -4.92583 0
M  V30 30030 H 1195.09 -3.41169 -7.98575 0
M  V30 30031 H 1195.36 -2.58295 -6.41556 0
M  V30 30032 H 1194.5 -5.02657 -6.42673 0
M  V30 30033 H 1191.84 -4.11637 -4.08885 0
M  V30 30034 H 1191.56 -2.49626 -6.61679 0
M  V30 30035 H 1190.57 -3.86566 -6.00778 0
M  V30 30036 H 1192.4 -4.29943 -7.96918 0
M  V30 30037 H 1192.47 -1.00937 -6.00374 0
M  V30 30038 H 1191.44 1.80153 -5.63503 0
M  V30 30039 H 1193.18 1.4566 -5.94104 0
M  V30 30040 H 1192.69 2.40664 -4.49645 0
M  V30 30041 H 1191.96 -0.647622 -1.25697 0
M  V30 30042 P 1190.53 -6.144 -6.45285 0
M  V30 30043 O 1190.31 -7.54673 -6.86199 0
M  V30 30044 O 1189.74 -5.12391 -7.179 0
M  V30 30045 O 1190.28 -5.99158 -4.88404 0
M  V30 30046 C 1191.22 -6.60234 -3.96415 0
M  V30 30047 C 1190.49 -7.08259 -2.72856 0
M  V30 30048 O 1190.28 -5.9427 -1.83651 0
M  V30 30049 C 1189.09 -7.64886 -2.9555 0
M  V30 30050 O 1188.7 -8.53963 -1.90717 0
M  V30 30051 C 1188.21 -6.4116 -2.90739 0
M  V30 30052 C 1188.92 -5.55375 -1.86963 0
M  V30 30053 N 1188.87 -4.09664 -2.15742 0
M  V30 30054 H 1191.71 -7.45574 -4.45629 0
M  V30 30055 H 1191.98 -5.86232 -3.67314 0
M  V30 30056 H 1191.12 -7.84412 -2.24479 0
M  V30 30057 P 1187.15 -8.7635 -1.60911 0
M  V30 30058 O 1186.93 -10.1388 -1.11561 0
M  V30 30059 O 1186.36 -8.36503 -2.79617 0
M  V30 30060 O 1186.9 -7.71806 -0.42951 0
M  V30 30061 C 1187.84 -7.67148 0.673689 0
M  V30 30062 C 1187.11 -7.33374 1.95559 0
M  V30 30063 O 1186.9 -5.88721 2.00726 0
M  V30 30064 C 1185.71 -7.92526 2.10483 0
M  V30 30065 O 1185.32 -8.02971 3.47653 0
M  V30 30066 C 1184.83 -6.89602 1.41652 0
M  V30 30067 C 1185.54 -5.59201 1.75185 0
M  V30 30068 N 1185.49 -4.58235 0.662552 0
M  V30 30069 H 1188.33 -8.65116 0.777161 0
M  V30 30070 H 1188.6 -6.90173 0.474152 0
M  V30 30071 H 1187.74 -7.66548 2.79458 0
M  V30 30072 P 1183.77 -8.03563 3.84925 0
M  V30 30073 O 1183.55 -8.85821 5.0569 0
M  V30 30074 O 1182.98 -8.41101 2.65469 0
M  V30 30075 O 1183.52 -6.4965 4.18908 0
M  V30 30076 C 1184.46 -5.81037 5.05421 0
M  V30 30077 C 1183.73 -4.78366 5.89277 0
M  V30 30078 O 1183.52 -3.58302 5.08433 0
M  V30 30079 C 1182.33 -5.17448 6.36119 0
M  V30 30080 O 1181.94 -4.45271 7.53232 0
M  V30 30081 C 1181.45 -4.74639 5.19936 0
M  V30 30082 C 1182.16 -3.49432 4.70418 0
M  V30 30083 N 1182.11 -3.31776 3.22945 0
M  V30 30084 H 1184.95 -6.54213 5.71376 0
M  V30 30085 H 1185.22 -5.30492 4.44033 0
M  V30 30086 H 1184.36 -4.55889 6.76652 0
M  V30 30087 P 1180.39 -4.23843 7.83734 0
M  V30 30088 O 1180.17 -4.19407 9.29784 0
M  V30 30089 O 1179.6 -5.24426 7.09156 0
M  V30 30090 O 1180.14 -2.7935 7.20758 0
M  V30 30091 C 1181.08 -1.72945 7.50224 0
M  V30 30092 C 1180.35 -0.406376 7.57911 0
M  V30 30093 O 1180.14 0.0897726 6.21935 0
M  V30 30094 C 1178.95 -0.438983 8.18724 0
M  V30 30095 O 1178.56 0.825065 8.71101 0
M  V30 30096 C 1178.07 -0.783689 6.99524 0
M  V30 30097 C 1178.78 -0.0619086 5.85867 0
M  V30 30098 N 1178.73 -0.78573 4.56183 0
M  V30 30099 C 1178.58 -0.0292889 3.41887 0
M  V30 30100 O 1178.49 1.18445 3.4419 0
M  V30 30101 N 1178.54 -0.744061 2.23964 0
M  V30 30102 C 1178.63 -2.10932 2.10362 0
M  V30 30103 O 1178.58 -2.64117 0.98825 0
M  V30 30104 C 1178.78 -2.8202 3.34994 0
M  V30 30105 C 1178.89 -4.31095 3.25037 0
M  V30 30106 C 1178.83 -2.15547 4.52261 0
M  V30 30107 H 1181.57 -1.93379 8.46595 0
M  V30 30108 H 1181.84 -1.68132 6.70852 0
M  V30 30109 H 1180.98 0.289041 8.15388 0
M  V30 30110 H 1178.32 0.926847 5.72749 0
M  V30 30111 H 1178.04 -1.86973 6.82036 0
M  V30 30112 H 1177.05 -0.403896 7.13257 0
M  V30 30113 H 1178.88 -1.20585 8.97435 0
M  V30 30114 H 1178.96 -2.71231 5.45042 0
M  V30 30115 H 1177.93 -4.76966 3.49992 0
M  V30 30116 H 1179.66 -4.67047 3.95024 0
M  V30 30117 H 1179.17 -4.58996 2.22312 0
M  V30 30118 H 1178.44 -0.214893 1.39758 0
M  V30 30119 P 1177.01 1.17771 8.83182 0
M  V30 30120 O 1176.79 2.07206 9.98732 0
M  V30 30121 O 1176.22 -0.0743816 8.81969 0
M  V30 30122 O 1176.76 1.97652 7.47304 0
M  V30 30123 C 1177.7 3.01133 7.08783 0
M  V30 30124 C 1176.97 4.12613 6.37049 0
M  V30 30125 O 1176.76 3.72827 4.97879 0
M  V30 30126 C 1175.57 4.45085 6.88694 0
M  V30 30127 O 1175.18 5.7877 6.5624 0
M  V30 30128 C 1174.69 3.47817 6.12078 0
M  V30 30129 C 1175.4 3.39414 4.77697 0
M  V30 30130 N 1175.35 2.04199 4.15538 0
M  V30 30131 H 1178.19 3.41248 7.98759 0
M  V30 30132 H 1178.46 2.57728 6.42 0
M  V30 30133 H 1177.6 5.02657 6.42673 0
M  V30 30134 H 1174.94 4.11708 4.08956 0
M  V30 30135 H 1174.66 2.49626 6.61679 0
M  V30 30136 H 1173.67 3.8662 6.00862 0
M  V30 30137 H 1175.5 4.29991 7.97006 0
M  V30 30138 P 1173.63 6.144 6.45285 0
M  V30 30139 O 1173.41 7.54673 6.86199 0
M  V30 30140 O 1172.84 5.12391 7.179 0
M  V30 30141 O 1173.38 5.99158 4.88404 0
M  V30 30142 C 1174.32 6.60234 3.96415 0
M  V30 30143 C 1173.59 7.08259 2.72856 0
M  V30 30144 O 1173.38 5.9427 1.83651 0
M  V30 30145 C 1172.19 7.64886 2.9555 0
M  V30 30146 O 1171.8 8.53963 1.90717 0
M  V30 30147 C 1171.31 6.4116 2.90739 0
M  V30 30148 C 1172.02 5.55375 1.86963 0
M  V30 30149 N 1171.97 4.09664 2.15742 0
M  V30 30150 H 1174.81 7.45574 4.45629 0
M  V30 30151 H 1175.08 5.86232 3.67314 0
M  V30 30152 H 1174.22 7.84412 2.24479 0
M  V30 30153 P 1170.25 8.7635 1.60911 0
M  V30 30154 O 1170.03 10.1388 1.11561 0
M  V30 30155 O 1169.46 8.36503 2.79617 0
M  V30 30156 O 1170 7.71806 0.42951 0
M  V30 30157 C 1170.94 7.67148 -0.673689 0
M  V30 30158 C 1170.21 7.33374 -1.95559 0
M  V30 30159 O 1170 5.88721 -2.00726 0
M  V30 30160 C 1168.81 7.92526 -2.10483 0
M  V30 30161 O 1168.42 8.02971 -3.47653 0
M  V30 30162 C 1167.93 6.89602 -1.41652 0
M  V30 30163 C 1168.64 5.59201 -1.75185 0
M  V30 30164 N 1168.59 4.58235 -0.662552 0
M  V30 30165 H 1171.43 8.65116 -0.777161 0
M  V30 30166 H 1171.7 6.90173 -0.474152 0
M  V30 30167 H 1170.84 7.66548 -2.79458 0
M  V30 30168 P 1166.87 8.03563 -3.84925 0
M  V30 30169 O 1166.65 8.85821 -5.0569 0
M  V30 30170 O 1166.08 8.41101 -2.65469 0
M  V30 30171 O 1166.62 6.4965 -4.18908 0
M  V30 30172 C 1167.56 5.81037 -5.05421 0
M  V30 30173 C 1166.83 4.78366 -5.89277 0
M  V30 30174 O 1166.62 3.58302 -5.08433 0
M  V30 30175 C 1165.43 5.17448 -6.36119 0
M  V30 30176 O 1165.04 4.45271 -7.53232 0
M  V30 30177 C 1164.55 4.74639 -5.19936 0
M  V30 30178 C 1165.26 3.49432 -4.70418 0
M  V30 30179 N 1165.21 3.32099 -3.22613 0
M  V30 30180 H 1168.05 6.54213 -5.71376 0
M  V30 30181 H 1168.32 5.30936 -4.43503 0
M  V30 30182 H 1167.46 4.55889 -6.76652 0
M  V30 30183 H 1164.8 2.61715 -5.17932 0
M  V30 30184 H 1164.52 5.52155 -4.41878 0
M  V30 30185 H 1163.53 4.51981 -5.53374 0
M  V30 30186 H 1165.36 6.25124 -6.55234 0
M  V30 30187 P 1163.49 4.23843 -7.83734 0
M  V30 30188 O 1163.27 4.19407 -9.29784 0
M  V30 30189 O 1162.7 5.24426 -7.09156 0
M  V30 30190 O 1163.24 2.7935 -7.20758 0
M  V30 30191 C 1164.18 1.72945 -7.50224 0
M  V30 30192 C 1163.45 0.406376 -7.57911 0
M  V30 30193 O 1163.24 -0.0897726 -6.21935 0
M  V30 30194 C 1162.05 0.438983 -8.18724 0
M  V30 30195 O 1161.66 -0.825065 -8.71101 0
M  V30 30196 C 1161.17 0.783689 -6.99524 0
M  V30 30197 C 1161.88 0.0619086 -5.85867 0
M  V30 30198 N 1161.83 0.78573 -4.56183 0
M  V30 30199 C 1161.68 0.0292889 -3.41887 0
M  V30 30200 O 1161.59 -1.18445 -3.4419 0
M  V30 30201 N 1161.64 0.744061 -2.23964 0
M  V30 30202 C 1161.73 2.10932 -2.10362 0
M  V30 30203 O 1161.68 2.64117 -0.98825 0
M  V30 30204 C 1161.88 2.8202 -3.34994 0
M  V30 30205 C 1161.99 4.31095 -3.25037 0
M  V30 30206 C 1161.93 2.15547 -4.52261 0
M  V30 30207 H 1164.67 1.93379 -8.46595 0
M  V30 30208 H 1164.94 1.68132 -6.70852 0
M  V30 30209 H 1164.08 -0.289041 -8.15388 0
M  V30 30210 H 1161.42 -0.926847 -5.72749 0
M  V30 30211 H 1161.14 1.86973 -6.82036 0
M  V30 30212 H 1160.15 0.403896 -7.13257 0
M  V30 30213 H 1161.98 1.20585 -8.97435 0
M  V30 30214 H 1162.06 2.71231 -5.45042 0
M  V30 30215 H 1161.03 4.76966 -3.49992 0
M  V30 30216 H 1162.76 4.67047 -3.95024 0
M  V30 30217 H 1162.27 4.58996 -2.22312 0
M  V30 30218 H 1161.54 0.214893 -1.39758 0
M  V30 30219 P 1160.11 -1.17771 -8.83182 0
M  V30 30220 O 1159.89 -2.07206 -9.98732 0
M  V30 30221 O 1159.32 0.0743816 -8.81969 0
M  V30 30222 O 1159.86 -1.97652 -7.47304 0
M  V30 30223 C 1160.8 -3.01133 -7.08783 0
M  V30 30224 C 1160.07 -4.12613 -6.37049 0
M  V30 30225 O 1159.86 -3.72827 -4.97879 0
M  V30 30226 C 1158.67 -4.45085 -6.88694 0
M  V30 30227 O 1158.28 -5.7877 -6.5624 0
M  V30 30228 C 1157.79 -3.47817 -6.12078 0
M  V30 30229 C 1158.5 -3.39414 -4.77697 0
M  V30 30230 N 1158.45 -2.04615 -4.15333 0
M  V30 30231 H 1161.29 -3.41248 -7.98759 0
M  V30 30232 H 1161.56 -2.5837 -6.41742 0
M  V30 30233 H 1160.7 -5.02657 -6.42673 0
M  V30 30234 P 1156.73 -6.144 -6.45285 0
M  V30 30235 O 1156.51 -7.54673 -6.86199 0
M  V30 30236 O 1155.94 -5.12391 -7.179 0
M  V30 30237 O 1156.48 -5.99158 -4.88404 0
M  V30 30238 C 1157.42 -6.60234 -3.96415 0
M  V30 30239 C 1156.69 -7.08259 -2.72856 0
M  V30 30240 O 1156.48 -5.9427 -1.83651 0
M  V30 30241 C 1155.29 -7.64886 -2.9555 0
M  V30 30242 O 1154.9 -8.53963 -1.90717 0
M  V30 30243 C 1154.41 -6.4116 -2.90739 0
M  V30 30244 C 1155.12 -5.55375 -1.86963 0
M  V30 30245 N 1155.07 -4.09664 -2.15742 0
M  V30 30246 H 1157.91 -7.45574 -4.45629 0
M  V30 30247 H 1158.18 -5.86232 -3.67314 0
M  V30 30248 H 1157.32 -7.84412 -2.24479 0
M  V30 30249 P 1153.35 -8.7635 -1.60911 0
M  V30 30250 O 1153.13 -10.1388 -1.11561 0
M  V30 30251 O 1152.56 -8.36503 -2.79617 0
M  V30 30252 O 1153.1 -7.71806 -0.42951 0
M  V30 30253 C 1154.04 -7.66948 0.673514 0
M  V30 30254 C 1153.31 -7.33374 1.95559 0
M  V30 30255 O 1153.1 -5.88721 2.00726 0
M  V30 30256 C 1151.91 -7.92218 2.1125 0
M  V30 30257 O 1151.52 -8.02971 3.47653 0
M  V30 30258 C 1151.03 -6.89504 1.41631 0
M  V30 30259 C 1151.74 -5.59106 1.75155 0
M  V30 30260 N 1151.69 -4.58136 0.662409 0
M  V30 30261 C 1151.54 -3.26059 1.02863 0
M  V30 30262 O 1151.45 -2.90743 2.19009 0
M  V30 30263 N 1151.5 -2.35995 -0.0155585 0
M  V30 30264 C 1151.59 -2.65248 -1.35603 0
M  V30 30265 O 1151.54 -1.75605 -2.20651 0
M  V30 30266 C 1151.74 -4.05747 -1.64698 0
M  V30 30267 C 1151.85 -4.42345 -3.09553 0
M  V30 30268 C 1151.79 -4.96734 -0.652411 0
M  V30 30269 H 1154.53 -8.64917 0.776982 0
M  V30 30270 H 1154.8 -6.89974 0.474015 0
M  V30 30271 H 1153.94 -7.66548 2.79458 0
M  V30 30272 H 1151.28 -5.16076 2.65138 0
M  V30 30273 H 1151 -7.06433 0.329384 0
M  V30 30274 H 1150.01 -6.90829 1.81996 0
M  V30 30275 H 1151.84 -8.90774 1.62639 0
M  V30 30276 H 1151.92 -6.02181 -0.895285 0
M  V30 30277 H 1150.89 -4.80252 -3.45468 0
M  V30 30278 H 1152.62 -5.20015 -3.22119 0
M  V30 30279 H 1152.13 -3.53269 -3.67833 0
M  V30 30280 H 1151.4 -1.39558 0.227499 0
M  V30 30281 P 1149.97 -8.03563 3.84925 0
M  V30 30282 O 1149.75 -8.85821 5.0569 0
M  V30 30283 O 1149.18 -8.41101 2.65469 0
M  V30 30284 O 1149.72 -6.4965 4.18908 0
M  V30 30285 C 1150.66 -5.81037 5.05421 0
M  V30 30286 C 1149.93 -4.78366 5.89277 0
M  V30 30287 O 1149.72 -3.58302 5.08433 0
M  V30 30288 C 1148.53 -5.17448 6.36119 0
M  V30 30289 O 1148.14 -4.45271 7.53232 0
M  V30 30290 C 1147.65 -4.74639 5.19936 0
M  V30 30291 C 1148.36 -3.49432 4.70418 0
M  V30 30292 N 1148.31 -3.32099 3.22613 0
M  V30 30293 H 1151.15 -6.54213 5.71376 0
M  V30 30294 H 1151.42 -5.30936 4.43503 0
M  V30 30295 H 1150.56 -4.55889 6.76652 0
M  V30 30296 H 1147.9 -2.61715 5.17932 0
M  V30 30297 H 1147.62 -5.52155 4.41878 0
M  V30 30298 H 1146.63 -4.51981 5.53374 0
M  V30 30299 H 1148.46 -6.25124 6.55234 0
M  V30 30300 P 1146.59 -4.23843 7.83734 0
M  V30 30301 O 1146.37 -4.19407 9.29784 0
M  V30 30302 O 1145.8 -5.24426 7.09156 0
M  V30 30303 O 1146.34 -2.7935 7.20758 0
M  V30 30304 C 1147.28 -1.7299 7.50419 0
M  V30 30305 C 1146.55 -0.406376 7.57911 0
M  V30 30306 O 1146.34 0.0897726 6.21935 0
M  V30 30307 C 1145.15 -0.447224 8.1878 0
M  V30 30308 O 1144.76 0.825065 8.71101 0
M  V30 30309 C 1144.27 -0.783801 6.99623 0
M  V30 30310 C 1144.98 -0.0619192 5.85967 0
M  V30 30311 N 1144.93 -0.7859 4.56281 0
M  V30 30312 H 1147.77 -1.93423 8.4679 0
M  V30 30313 H 1148.04 -1.68181 6.71046 0
M  V30 30314 H 1147.18 0.289041 8.15388 0
M  V30 30315 P 1143.21 1.17771 8.83182 0
M  V30 30316 O 1142.99 2.07206 9.98732 0
M  V30 30317 O 1142.42 -0.0743816 8.81969 0
M  V30 30318 O 1142.96 1.97652 7.47304 0
M  V30 30319 C 1143.9 3.01133 7.08783 0
M  V30 30320 C 1143.17 4.12613 6.37049 0
M  V30 30321 O 1142.96 3.72827 4.97879 0
M  V30 30322 C 1141.77 4.45085 6.88694 0
M  V30 30323 O 1141.38 5.7877 6.5624 0
M  V30 30324 C 1140.89 3.47817 6.12078 0
M  V30 30325 C 1141.6 3.39414 4.77697 0
M  V30 30326 N 1141.55 2.04199 4.15538 0
M  V30 30327 C 1141.63 0.821545 4.76977 0
M  V30 30328 N 1141.56 -0.1794 3.94592 0
M  V30 30329 C 1141.41 0.419121 2.70776 0
M  V30 30330 C 1141.28 -0.109072 1.40577 0
M  V30 30331 N 1141.27 -1.4104 1.1344 0
M  V30 30332 N 1141.16 0.764381 0.39411 0
M  V30 30333 C 1141.17 2.06587 0.664135 0
M  V30 30334 N 1141.29 2.67948 1.82153 0
M  V30 30335 C 1141.41 1.77942 2.8147 0
M  V30 30336 H 1144.39 3.41248 7.98759 0
M  V30 30337 H 1144.66 2.57728 6.42 0
M  V30 30338 H 1143.8 5.02657 6.42673 0
M  V30 30339 H 1141.14 4.11708 4.08956 0
M  V30 30340 H 1140.86 2.49626 6.61679 0
M  V30 30341 H 1139.87 3.8662 6.00862 0
M  V30 30342 H 1141.7 4.29991 7.97006 0
M  V30 30343 H 1141.75 0.702451 5.84696 0
M  V30 30344 H 1141.36 -2.09647 1.89651 0
M  V30 30345 H 1141.18 -1.73358 0.160575 0
M  V30 30346 H 1141.07 2.71695 -0.195838 0
M  V30 30347 P 1139.83 6.144 6.45285 0
M  V30 30348 O 1139.61 7.54673 6.86199 0
M  V30 30349 O 1139.04 5.12391 7.179 0
M  V30 30350 O 1139.58 5.99158 4.88404 0
M  V30 30351 C 1140.52 6.60234 3.96415 0
M  V30 30352 C 1139.79 7.08259 2.72856 0
M  V30 30353 O 1139.58 5.9427 1.83651 0
M  V30 30354 C 1138.39 7.64886 2.9555 0
M  V30 30355 O 1138 8.53963 1.90717 0
M  V30 30356 C 1137.51 6.4116 2.90739 0
M  V30 30357 C 1138.22 5.55375 1.86963 0
M  V30 30358 N 1138.17 4.09664 2.15742 0
M  V30 30359 H 1141.01 7.45574 4.45629 0
M  V30 30360 H 1141.28 5.86232 3.67314 0
M  V30 30361 H 1140.42 7.84412 2.24479 0
M  V30 30362 P 1136.45 8.7635 1.60911 0
M  V30 30363 O 1136.23 10.1388 1.11561 0
M  V30 30364 O 1135.66 8.36503 2.79617 0
M  V30 30365 O 1136.2 7.71806 0.42951 0
M  V30 30366 C 1137.14 7.67148 -0.673689 0
M  V30 30367 C 1136.41 7.33374 -1.95559 0
M  V30 30368 O 1136.2 5.88721 -2.00726 0
M  V30 30369 C 1135.01 7.92526 -2.10483 0
M  V30 30370 O 1134.62 8.02971 -3.47653 0
M  V30 30371 C 1134.13 6.89602 -1.41652 0
M  V30 30372 C 1134.84 5.59201 -1.75185 0
M  V30 30373 N 1134.79 4.58235 -0.662552 0
M  V30 30374 H 1137.63 8.65116 -0.777161 0
M  V30 30375 H 1137.9 6.90173 -0.474152 0
M  V30 30376 H 1137.04 7.66548 -2.79458 0
M  V30 30377 P 1133.07 8.03563 -3.84925 0
M  V30 30378 O 1132.85 8.85821 -5.0569 0
M  V30 30379 O 1132.28 8.41101 -2.65469 0
M  V30 30380 O 1132.82 6.4965 -4.18908 0
M  V30 30381 C 1133.76 5.81037 -5.05421 0
M  V30 30382 C 1133.03 4.78366 -5.89277 0
M  V30 30383 O 1132.82 3.58302 -5.08433 0
M  V30 30384 C 1131.63 5.17448 -6.36119 0
M  V30 30385 O 1131.24 4.45271 -7.53232 0
M  V30 30386 C 1130.75 4.74639 -5.19936 0
M  V30 30387 C 1131.46 3.49432 -4.70418 0
M  V30 30388 N 1131.41 3.32099 -3.22613 0
M  V30 30389 H 1134.25 6.54213 -5.71376 0
M  V30 30390 H 1134.52 5.30936 -4.43503 0
M  V30 30391 H 1133.66 4.55889 -6.76652 0
M  V30 30392 H 1131 2.61715 -5.17932 0
M  V30 30393 H 1130.72 5.52155 -4.41878 0
M  V30 30394 H 1129.73 4.51981 -5.53374 0
M  V30 30395 H 1131.56 6.25124 -6.55234 0
M  V30 30396 P 1129.69 4.23843 -7.83734 0
M  V30 30397 O 1129.47 4.19407 -9.29784 0
M  V30 30398 O 1128.9 5.24426 -7.09156 0
M  V30 30399 O 1129.44 2.7935 -7.20758 0
M  V30 30400 C 1130.38 1.7299 -7.50419 0
M  V30 30401 C 1129.65 0.406376 -7.57911 0
M  V30 30402 O 1129.44 -0.0897726 -6.21935 0
M  V30 30403 C 1128.25 0.447224 -8.1878 0
M  V30 30404 O 1127.86 -0.825065 -8.71101 0
M  V30 30405 C 1127.37 0.783801 -6.99623 0
M  V30 30406 C 1128.08 0.0619192 -5.85967 0
M  V30 30407 N 1128.03 0.7859 -4.56281 0
M  V30 30408 H 1130.87 1.93423 -8.4679 0
M  V30 30409 H 1131.14 1.68181 -6.71046 0
M  V30 30410 H 1130.28 -0.289041 -8.15388 0
M  V30 30411 P 1126.31 -1.17771 -8.83182 0
M  V30 30412 O 1126.09 -2.07206 -9.98732 0
M  V30 30413 O 1125.52 0.0743816 -8.81969 0
M  V30 30414 O 1126.06 -1.97652 -7.47304 0
M  V30 30415 C 1127 -3.01133 -7.08783 0
M  V30 30416 C 1126.27 -4.12613 -6.37049 0
M  V30 30417 O 1126.06 -3.72827 -4.97879 0
M  V30 30418 C 1124.87 -4.45085 -6.88694 0
M  V30 30419 O 1124.48 -5.7877 -6.5624 0
M  V30 30420 C 1123.99 -3.47817 -6.12078 0
M  V30 30421 C 1124.7 -3.39414 -4.77697 0
M  V30 30422 N 1124.65 -2.04615 -4.15333 0
M  V30 30423 H 1127.49 -3.41248 -7.98759 0
M  V30 30424 H 1127.76 -2.5837 -6.41742 0
M  V30 30425 H 1126.9 -5.02657 -6.42673 0
M  V30 30426 P 1122.93 -6.144 -6.45285 0
M  V30 30427 O 1122.71 -7.54673 -6.86199 0
M  V30 30428 O 1122.14 -5.12391 -7.179 0
M  V30 30429 O 1122.68 -5.99158 -4.88404 0
M  V30 30430 C 1123.62 -6.60234 -3.96415 0
M  V30 30431 C 1122.89 -7.08259 -2.72856 0
M  V30 30432 O 1122.68 -5.9427 -1.83651 0
M  V30 30433 C 1121.49 -7.64886 -2.9555 0
M  V30 30434 O 1121.1 -8.53963 -1.90717 0
M  V30 30435 C 1120.61 -6.4116 -2.90739 0
M  V30 30436 C 1121.32 -5.55375 -1.86963 0
M  V30 30437 N 1121.27 -4.09448 -2.16152 0
M  V30 30438 C 1121.35 -3.46824 -3.37593 0
M  V30 30439 N 1121.28 -2.17422 -3.29777 0
M  V30 30440 C 1121.13 -1.93065 -1.94427 0
M  V30 30441 C 1121 -0.738053 -1.20141 0
M  V30 30442 N 1120.99 0.474256 -1.74676 0
M  V30 30443 N 1120.88 -0.850049 0.13045 0
M  V30 30444 C 1120.89 -2.06169 0.676992 0
M  V30 30445 N 1121.01 -3.23842 0.101312 0
M  V30 30446 C 1121.13 -3.09402 -1.23122 0
M  V30 30447 H 1124.11 -7.45574 -4.45629 0
M  V30 30448 H 1124.38 -5.85864 -3.679 0
M  V30 30449 H 1123.52 -7.84412 -2.24479 0
M  V30 30450 H 1120.86 -5.73457 -0.888562 0
M  V30 30451 H 1120.58 -5.90877 -3.88583 0
M  V30 30452 H 1119.59 -6.6596 -2.58858 0
M  V30 30453 H 1121.42 -8.16339 -3.92049 0
M  V30 30454 H 1121.47 -4.00505 -4.3174 0
M  V30 30455 H 1121.08 0.581337 -2.76658 0
M  V30 30456 H 1120.9 1.30811 -1.14888 0
M  V30 30457 H 1120.79 -2.08295 1.75542 0
M  V30 30458 P 1119.55 -8.7635 -1.60911 0
M  V30 30459 O 1119.33 -10.1388 -1.11561 0
M  V30 30460 O 1118.76 -8.36503 -2.79617 0
M  V30 30461 O 1119.3 -7.71806 -0.42951 0
M  V30 30462 C 1120.24 -7.67148 0.673689 0
M  V30 30463 C 1119.51 -7.33374 1.95559 0
M  V30 30464 O 1119.3 -5.88721 2.00726 0
M  V30 30465 C 1118.11 -7.92526 2.10483 0
M  V30 30466 O 1117.72 -8.02971 3.47653 0
M  V30 30467 C 1117.23 -6.89602 1.41652 0
M  V30 30468 C 1117.94 -5.59201 1.75185 0
M  V30 30469 N 1117.89 -4.58235 0.662552 0
M  V30 30470 H 1120.73 -8.65116 0.777161 0
M  V30 30471 H 1121 -6.90173 0.474152 0
M  V30 30472 H 1120.14 -7.66548 2.79458 0
M  V30 30473 P 1116.17 -8.03563 3.84925 0
M  V30 30474 O 1115.95 -8.85821 5.0569 0
M  V30 30475 O 1115.38 -8.41101 2.65469 0
M  V30 30476 O 1115.92 -6.4965 4.18908 0
M  V30 30477 C 1116.86 -5.81037 5.05421 0
M  V30 30478 C 1116.13 -4.78366 5.89277 0
M  V30 30479 O 1115.92 -3.58302 5.08433 0
M  V30 30480 C 1114.73 -5.17448 6.36119 0
M  V30 30481 O 1114.34 -4.45271 7.53232 0
M  V30 30482 C 1113.85 -4.74639 5.19936 0
M  V30 30483 C 1114.56 -3.49432 4.70418 0
M  V30 30484 N 1114.51 -3.31776 3.22945 0
M  V30 30485 C 1114.59 -4.27147 2.23315 0
M  V30 30486 N 1114.51 -3.78447 1.02186 0
M  V30 30487 C 1114.37 -2.41001 1.21732 0
M  V30 30488 C 1114.24 -1.36111 0.27694 0
M  V30 30489 N 1114.12 -0.113683 0.912949 0
M  V30 30490 C 1114.12 0.0846396 2.27943 0
M  V30 30491 N 1113.99 1.34737 2.6916 0
M  V30 30492 N 1114.25 -0.902521 3.16379 0
M  V30 30493 C 1114.37 -2.11937 2.56849 0
M  V30 30494 H 1117.35 -6.54213 5.71376 0
M  V30 30495 H 1117.62 -5.30492 4.44033 0
M  V30 30496 H 1116.76 -4.55889 6.76652 0
M  V30 30497 P 1112.79 -4.23843 7.83734 0
M  V30 30498 O 1112.57 -4.19407 9.29784 0
M  V30 30499 O 1112 -5.24426 7.09156 0
M  V30 30500 O 1112.54 -2.7935 7.20758 0
M  V30 30501 C 1113.48 -1.7299 7.50419 0
M  V30 30502 C 1112.75 -0.406376 7.57911 0
M  V30 30503 O 1112.54 0.0897726 6.21935 0
M  V30 30504 C 1111.35 -0.447224 8.1878 0
M  V30 30505 O 1110.96 0.825065 8.71101 0
M  V30 30506 C 1110.47 -0.783801 6.99623 0
M  V30 30507 C 1111.18 -0.0619192 5.85967 0
M  V30 30508 N 1111.13 -0.7859 4.56281 0
M  V30 30509 H 1113.97 -1.93423 8.4679 0
M  V30 30510 H 1114.24 -1.68181 6.71046 0
M  V30 30511 H 1113.38 0.289041 8.15388 0
M  V30 30512 P 1109.41 1.17771 8.83182 0
M  V30 30513 O 1109.19 2.07206 9.98732 0
M  V30 30514 O 1108.62 -0.0743816 8.81969 0
M  V30 30515 O 1109.16 1.97652 7.47304 0
M  V30 30516 C 1110.1 3.01133 7.08783 0
M  V30 30517 C 1109.37 4.12613 6.37049 0
M  V30 30518 O 1109.16 3.72827 4.97879 0
M  V30 30519 C 1107.97 4.45085 6.88694 0
M  V30 30520 O 1107.58 5.7877 6.5624 0
M  V30 30521 C 1107.09 3.47817 6.12078 0
M  V30 30522 C 1107.8 3.39414 4.77697 0
M  V30 30523 N 1107.75 2.04199 4.15538 0
M  V30 30524 H 1110.59 3.41248 7.98759 0
M  V30 30525 H 1110.86 2.57728 6.42 0
M  V30 30526 H 1110 5.02657 6.42673 0
M  V30 30527 H 1107.34 4.11708 4.08956 0
M  V30 30528 H 1107.06 2.49626 6.61679 0
M  V30 30529 H 1106.07 3.8662 6.00862 0
M  V30 30530 H 1107.9 4.29991 7.97006 0
M  V30 30531 P 1106.03 6.144 6.45285 0
M  V30 30532 O 1105.81 7.54673 6.86199 0
M  V30 30533 O 1105.24 5.12391 7.179 0
M  V30 30534 O 1105.78 5.99158 4.88404 0
M  V30 30535 C 1106.72 6.60234 3.96415 0
M  V30 30536 C 1105.99 7.08259 2.72856 0
M  V30 30537 O 1105.78 5.9427 1.83651 0
M  V30 30538 C 1104.59 7.64886 2.9555 0
M  V30 30539 O 1104.2 8.53963 1.90717 0
M  V30 30540 C 1103.71 6.4116 2.90739 0
M  V30 30541 C 1104.42 5.55375 1.86963 0
M  V30 30542 N 1104.37 4.09664 2.15742 0
M  V30 30543 C 1104.45 3.44381 3.37233 0
M  V30 30544 N 1104.37 2.14131 3.28347 0
M  V30 30545 C 1104.23 1.90247 1.91588 0
M  V30 30546 C 1104.1 0.683992 1.20892 0
M  V30 30547 N 1103.98 0.903396 -0.173998 0
M  V30 30548 C 1103.98 2.14171 -0.784879 0
M  V30 30549 N 1103.85 2.1435 -2.11317 0
M  V30 30550 N 1104.11 3.28784 -0.119316 0
M  V30 30551 C 1104.23 3.0977 1.22194 0
M  V30 30552 H 1107.21 7.45574 4.45629 0
M  V30 30553 H 1107.48 5.86232 3.67314 0
M  V30 30554 H 1106.62 7.84412 2.24479 0
M  V30 30555 P 1102.65 8.7635 1.60911 0
M  V30 30556 O 1102.43 10.1388 1.11561 0
M  V30 30557 O 1101.86 8.36503 2.79617 0
M  V30 30558 O 1102.4 7.71806 0.42951 0
M  V30 30559 C 1103.34 7.67148 -0.673689 0
M  V30 30560 C 1102.61 7.33374 -1.95559 0
M  V30 30561 O 1102.4 5.88721 -2.00726 0
M  V30 30562 C 1101.21 7.92526 -2.10483 0
M  V30 30563 O 1100.82 8.02971 -3.47653 0
M  V30 30564 C 1100.33 6.89602 -1.41652 0
M  V30 30565 C 1101.04 5.59201 -1.75185 0
M  V30 30566 N 1100.99 4.58301 -0.657969 0
M  V30 30567 H 1103.83 8.65116 -0.777161 0
M  V30 30568 H 1104.1 6.9022 -0.46725 0
M  V30 30569 H 1103.24 7.66548 -2.79458 0
M  V30 30570 H 1100.58 5.16165 -2.65183 0
M  V30 30571 H 1100.3 7.06433 -0.329384 0
M  V30 30572 H 1099.31 6.90926 -1.82021 0
M  V30 30573 H 1101.14 8.90873 -1.62657 0
M  V30 30574 P 1099.27 8.03563 -3.84925 0
M  V30 30575 O 1099.05 8.85821 -5.0569 0
M  V30 30576 O 1098.48 8.41101 -2.65469 0
M  V30 30577 O 1099.02 6.4965 -4.18908 0
M  V30 30578 C 1099.96 5.81037 -5.05421 0
M  V30 30579 C 1099.23 4.78366 -5.89277 0
M  V30 30580 O 1099.02 3.58302 -5.08433 0
M  V30 30581 C 1097.83 5.17448 -6.36119 0
M  V30 30582 O 1097.44 4.45271 -7.53232 0
M  V30 30583 C 1096.95 4.74639 -5.19936 0
M  V30 30584 C 1097.66 3.49432 -4.70418 0
M  V30 30585 N 1097.61 3.31776 -3.22945 0
M  V30 30586 H 1100.45 6.54213 -5.71376 0
M  V30 30587 H 1100.72 5.30492 -4.44033 0
M  V30 30588 H 1099.86 4.55889 -6.76652 0
M  V30 30589 P 1095.89 4.23843 -7.83734 0
M  V30 30590 O 1095.67 4.19407 -9.29784 0
M  V30 30591 O 1095.1 5.24426 -7.09156 0
M  V30 30592 O 1095.64 2.7935 -7.20758 0
M  V30 30593 C 1096.58 1.7299 -7.50419 0
M  V30 30594 C 1095.85 0.406376 -7.57911 0
M  V30 30595 O 1095.64 -0.0897726 -6.21935 0
M  V30 30596 C 1094.45 0.447224 -8.1878 0
M  V30 30597 O 1094.06 -0.825065 -8.71101 0
M  V30 30598 C 1093.57 0.783801 -6.99623 0
M  V30 30599 C 1094.28 0.0619192 -5.85967 0
M  V30 30600 N 1094.23 0.7859 -4.56281 0
M  V30 30601 H 1097.07 1.93423 -8.4679 0
M  V30 30602 H 1097.34 1.68181 -6.71046 0
M  V30 30603 H 1096.48 -0.289041 -8.15388 0
M  V30 30604 P 1092.51 -1.17771 -8.83182 0
M  V30 30605 O 1092.29 -2.07206 -9.98732 0
M  V30 30606 O 1091.72 0.0743816 -8.81969 0
M  V30 30607 O 1092.26 -1.97652 -7.47304 0
M  V30 30608 C 1093.2 -3.01133 -7.08783 0
M  V30 30609 C 1092.47 -4.12613 -6.37049 0
M  V30 30610 O 1092.26 -3.72827 -4.97879 0
M  V30 30611 C 1091.07 -4.45085 -6.88694 0
M  V30 30612 O 1090.68 -5.7877 -6.5624 0
M  V30 30613 C 1090.19 -3.47817 -6.12078 0
M  V30 30614 C 1090.9 -3.39414 -4.77697 0
M  V30 30615 N 1090.85 -2.04199 -4.15538 0
M  V30 30616 C 1090.93 -0.821545 -4.76977 0
M  V30 30617 N 1090.86 0.1794 -3.94592 0
M  V30 30618 C 1090.71 -0.419121 -2.70776 0
M  V30 30619 C 1090.58 0.109072 -1.40577 0
M  V30 30620 N 1090.57 1.4104 -1.1344 0
M  V30 30621 N 1090.46 -0.764381 -0.39411 0
M  V30 30622 C 1090.47 -2.06587 -0.664135 0
M  V30 30623 N 1090.59 -2.67948 -1.82153 0
M  V30 30624 C 1090.71 -1.77942 -2.8147 0
M  V30 30625 H 1093.69 -3.41248 -7.98759 0
M  V30 30626 H 1093.96 -2.57728 -6.42 0
M  V30 30627 H 1093.1 -5.02657 -6.42673 0
M  V30 30628 H 1090.44 -4.11708 -4.08956 0
M  V30 30629 H 1090.16 -2.49626 -6.61679 0
M  V30 30630 H 1089.17 -3.8662 -6.00862 0
M  V30 30631 H 1091 -4.29991 -7.97006 0
M  V30 30632 H 1091.05 -0.702451 -5.84696 0
M  V30 30633 H 1090.66 2.09647 -1.89651 0
M  V30 30634 H 1090.48 1.73358 -0.160575 0
M  V30 30635 H 1090.37 -2.71695 0.195838 0
M  V30 30636 P 1089.13 -6.144 -6.45285 0
M  V30 30637 O 1088.91 -7.54673 -6.86199 0
M  V30 30638 O 1088.34 -5.12391 -7.179 0
M  V30 30639 O 1088.88 -5.99158 -4.88404 0
M  V30 30640 C 1089.82 -6.60062 -3.96313 0
M  V30 30641 C 1089.09 -7.08259 -2.72856 0
M  V30 30642 O 1088.88 -5.9427 -1.83651 0
M  V30 30643 C 1087.69 -7.65087 -2.94749 0
M  V30 30644 O 1087.3 -8.53963 -1.90717 0
M  V30 30645 C 1086.81 -6.41069 -2.90698 0
M  V30 30646 C 1087.52 -5.5528 -1.86931 0
M  V30 30647 N 1087.47 -4.09575 -2.15696 0
M  V30 30648 C 1087.32 -3.24249 -1.08435 0
M  V30 30649 O 1087.23 -3.63946 0.0628747 0
M  V30 30650 N 1087.28 -1.90009 -1.39973 0
M  V30 30651 C 1087.37 -1.34884 -2.65614 0
M  V30 30652 O 1087.32 -0.123716 -2.81728 0
M  V30 30653 C 1087.52 -2.3145 -3.71736 0
M  V30 30654 C 1087.63 -1.75913 -5.10438 0
M  V30 30655 C 1087.57 -3.63518 -3.44754 0
M  V30 30656 H 1090.31 -7.45402 -4.45526 0
M  V30 30657 H 1090.58 -5.86062 -3.67208 0
M  V30 30658 H 1089.72 -7.84412 -2.24479 0
M  V30 30659 H 1087.06 -5.73358 -0.888409 0
M  V30 30660 H 1086.78 -5.90877 -3.88583 0
M  V30 30661 H 1085.79 -6.65867 -2.58821 0
M  V30 30662 H 1087.62 -8.16248 -3.92006 0
M  V30 30663 H 1087.7 -4.34551 -4.26383 0
M  V30 30664 H 1086.67 -1.85471 -5.61775 0
M  V30 30665 H 1088.4 -2.31364 -5.66257 0
M  V30 30666 H 1087.91 -0.695936 -5.05229 0
M  V30 30667 H 1087.18 -1.26277 -0.63625 0
M  V30 30668 P 1085.75 -8.7635 -1.60911 0
M  V30 30669 O 1085.53 -10.1388 -1.11561 0
M  V30 30670 O 1084.96 -8.36503 -2.79617 0
M  V30 30671 O 1085.5 -7.71806 -0.42951 0
M  V30 30672 C 1086.44 -7.67148 0.673689 0
M  V30 30673 C 1085.71 -7.33374 1.95559 0
M  V30 30674 O 1085.5 -5.88721 2.00726 0
M  V30 30675 C 1084.31 -7.92526 2.10483 0
M  V30 30676 O 1083.92 -8.02971 3.47653 0
M  V30 30677 C 1083.43 -6.89602 1.41652 0
M  V30 30678 C 1084.14 -5.59201 1.75185 0
M  V30 30679 N 1084.09 -4.58301 0.657969 0
M  V30 30680 C 1084.17 -4.79019 -0.692603 0
M  V30 30681 N 1084.1 -3.69736 -1.38998 0
M  V30 30682 C 1083.95 -2.70474 -0.438135 0
M  V30 30683 C 1083.82 -1.30327 -0.538142 0
M  V30 30684 N 1083.81 -0.64304 -1.69192 0
M  V30 30685 N 1083.7 -0.611027 0.605183 0
M  V30 30686 C 1083.71 -1.27002 1.75953 0
M  V30 30687 N 1083.83 -2.56038 1.98546 0
M  V30 30688 C 1083.95 -3.22681 0.822541 0
M  V30 30689 H 1086.93 -8.65116 0.777161 0
M  V30 30690 H 1087.2 -6.9022 0.46725 0
M  V30 30691 H 1086.34 -7.66548 2.79458 0
M  V30 30692 H 1083.68 -5.16165 2.65183 0
M  V30 30693 H 1083.4 -7.06433 0.329384 0
M  V30 30694 H 1082.41 -6.90926 1.82021 0
M  V30 30695 H 1084.24 -8.90873 1.62657 0
M  V30 30696 H 1084.29 -5.77785 -1.13874 0
M  V30 30697 H 1083.9 -1.15585 -2.57991 0
M  V30 30698 H 1083.72 0.382989 -1.69835 0
M  V30 30699 H 1083.61 -0.653331 2.64449 0
M  V30 30700 P 1082.37 -8.03563 3.84925 0
M  V30 30701 O 1082.15 -8.85821 5.0569 0
M  V30 30702 O 1081.58 -8.41101 2.65469 0
M  V30 30703 O 1082.12 -6.4965 4.18908 0
M  V30 30704 C 1083.06 -5.81037 5.05421 0
M  V30 30705 C 1082.33 -4.78366 5.89277 0
M  V30 30706 O 1082.12 -3.58302 5.08433 0
M  V30 30707 C 1080.93 -5.17448 6.36119 0
M  V30 30708 O 1080.54 -4.45271 7.53232 0
M  V30 30709 C 1080.05 -4.74639 5.19936 0
M  V30 30710 C 1080.76 -3.49432 4.70418 0
M  V30 30711 N 1080.71 -3.31776 3.22945 0
M  V30 30712 H 1083.55 -6.54213 5.71376 0
M  V30 30713 H 1083.82 -5.30492 4.44033 0
M  V30 30714 H 1082.96 -4.55889 6.76652 0
M  V30 30715 P 1078.99 -4.23843 7.83734 0
M  V30 30716 O 1078.77 -4.19407 9.29784 0
M  V30 30717 O 1078.2 -5.24426 7.09156 0
M  V30 30718 O 1078.74 -2.7935 7.20758 0
M  V30 30719 C 1079.68 -1.7299 7.50419 0
M  V30 30720 C 1078.95 -0.406376 7.57911 0
M  V30 30721 O 1078.74 0.0897726 6.21935 0
M  V30 30722 C 1077.55 -0.447224 8.1878 0
M  V30 30723 O 1077.16 0.825065 8.71101 0
M  V30 30724 C 1076.67 -0.783801 6.99623 0
M  V30 30725 C 1077.38 -0.0619192 5.85967 0
M  V30 30726 N 1077.33 -0.7859 4.56281 0
M  V30 30727 H 1080.17 -1.93423 8.4679 0
M  V30 30728 H 1080.44 -1.68181 6.71046 0
M  V30 30729 H 1079.58 0.289041 8.15388 0
M  V30 30730 P 1075.61 1.17771 8.83182 0
M  V30 30731 O 1075.39 2.07206 9.98732 0
M  V30 30732 O 1074.82 -0.0743816 8.81969 0
M  V30 30733 O 1075.36 1.97652 7.47304 0
M  V30 30734 C 1076.3 3.01133 7.08783 0
M  V30 30735 C 1075.57 4.12613 6.37049 0
M  V30 30736 O 1075.36 3.72827 4.97879 0
M  V30 30737 C 1074.17 4.45085 6.88694 0
M  V30 30738 O 1073.78 5.7877 6.5624 0
M  V30 30739 C 1073.29 3.47817 6.12078 0
M  V30 30740 C 1074 3.39414 4.77697 0
M  V30 30741 N 1073.95 2.04615 4.15333 0
M  V30 30742 H 1076.79 3.41248 7.98759 0
M  V30 30743 H 1077.06 2.5837 6.41742 0
M  V30 30744 H 1076.2 5.02657 6.42673 0
M  V30 30745 P 1072.23 6.144 6.45285 0
M  V30 30746 O 1072.01 7.54673 6.86199 0
M  V30 30747 O 1071.44 5.12391 7.179 0
M  V30 30748 O 1071.98 5.99158 4.88404 0
M  V30 30749 C 1072.92 6.60062 3.96313 0
M  V30 30750 C 1072.19 7.08259 2.72856 0
M  V30 30751 O 1071.98 5.9427 1.83651 0
M  V30 30752 C 1070.79 7.65087 2.94749 0
M  V30 30753 O 1070.4 8.53963 1.90717 0
M  V30 30754 C 1069.91 6.41069 2.90698 0
M  V30 30755 C 1070.62 5.5528 1.86931 0
M  V30 30756 N 1070.57 4.09575 2.15696 0
M  V30 30757 C 1070.42 3.24249 1.08435 0
M  V30 30758 O 1070.33 3.63946 -0.0628747 0
M  V30 30759 N 1070.38 1.90009 1.39973 0
M  V30 30760 C 1070.47 1.34884 2.65614 0
M  V30 30761 O 1070.42 0.123716 2.81728 0
M  V30 30762 C 1070.62 2.3145 3.71736 0
M  V30 30763 C 1070.73 1.75913 5.10438 0
M  V30 30764 C 1070.67 3.63518 3.44754 0
M  V30 30765 H 1073.41 7.45402 4.45526 0
M  V30 30766 H 1073.68 5.86062 3.67208 0
M  V30 30767 H 1072.82 7.84412 2.24479 0
M  V30 30768 H 1070.16 5.73358 0.888409 0
M  V30 30769 H 1069.88 5.90877 3.88583 0
M  V30 30770 H 1068.89 6.65867 2.58821 0
M  V30 30771 H 1070.72 8.16248 3.92006 0
M  V30 30772 H 1070.8 4.34551 4.26383 0
M  V30 30773 H 1069.77 1.85471 5.61775 0
M  V30 30774 H 1071.5 2.31364 5.66257 0
M  V30 30775 H 1071.01 0.695936 5.05229 0
M  V30 30776 H 1070.28 1.26277 0.63625 0
M  V30 30777 P 1068.85 8.7635 1.60911 0
M  V30 30778 O 1068.63 10.1388 1.11561 0
M  V30 30779 O 1068.06 8.36503 2.79617 0
M  V30 30780 O 1068.6 7.71806 0.42951 0
M  V30 30781 C 1069.54 7.67148 -0.673689 0
M  V30 30782 C 1068.81 7.33374 -1.95559 0
M  V30 30783 O 1068.6 5.88721 -2.00726 0
M  V30 30784 C 1067.41 7.92526 -2.10483 0
M  V30 30785 O 1067.02 8.02971 -3.47653 0
M  V30 30786 C 1066.53 6.89602 -1.41652 0
M  V30 30787 C 1067.24 5.59201 -1.75185 0
M  V30 30788 N 1067.19 4.58235 -0.662552 0
M  V30 30789 H 1070.03 8.65116 -0.777161 0
M  V30 30790 H 1070.3 6.90173 -0.474152 0
M  V30 30791 H 1069.44 7.66548 -2.79458 0
M  V30 30792 P 1065.47 8.03563 -3.84925 0
M  V30 30793 O 1065.25 8.85821 -5.0569 0
M  V30 30794 O 1064.68 8.41101 -2.65469 0
M  V30 30795 O 1065.22 6.4965 -4.18908 0
M  V30 30796 C 1066.16 5.81037 -5.05421 0
M  V30 30797 C 1065.43 4.78366 -5.89277 0
M  V30 30798 O 1065.22 3.58302 -5.08433 0
M  V30 30799 C 1064.03 5.17448 -6.36119 0
M  V30 30800 O 1063.64 4.45271 -7.53232 0
M  V30 30801 C 1063.15 4.74639 -5.19936 0
M  V30 30802 C 1063.86 3.49432 -4.70418 0
M  V30 30803 N 1063.81 3.32099 -3.22613 0
M  V30 30804 H 1066.65 6.54213 -5.71376 0
M  V30 30805 H 1066.92 5.30936 -4.43503 0
M  V30 30806 H 1066.06 4.55889 -6.76652 0
M  V30 30807 H 1063.4 2.61715 -5.17932 0
M  V30 30808 H 1063.12 5.52155 -4.41878 0
M  V30 30809 H 1062.13 4.51981 -5.53374 0
M  V30 30810 H 1063.96 6.25124 -6.55234 0
M  V30 30811 P 1062.09 4.23843 -7.83734 0
M  V30 30812 O 1061.87 4.19407 -9.29784 0
M  V30 30813 O 1061.3 5.24426 -7.09156 0
M  V30 30814 O 1061.84 2.7935 -7.20758 0
M  V30 30815 C 1062.78 1.72945 -7.50224 0
M  V30 30816 C 1062.05 0.406376 -7.57911 0
M  V30 30817 O 1061.84 -0.0897726 -6.21935 0
M  V30 30818 C 1060.65 0.438983 -8.18724 0
M  V30 30819 O 1060.26 -0.825065 -8.71101 0
M  V30 30820 C 1059.77 0.783689 -6.99524 0
M  V30 30821 C 1060.48 0.0619086 -5.85867 0
M  V30 30822 N 1060.43 0.78573 -4.56183 0
M  V30 30823 C 1060.28 0.0292889 -3.41887 0
M  V30 30824 O 1060.19 -1.18445 -3.4419 0
M  V30 30825 N 1060.24 0.744061 -2.23964 0
M  V30 30826 C 1060.33 2.10932 -2.10362 0
M  V30 30827 O 1060.28 2.64117 -0.98825 0
M  V30 30828 C 1060.48 2.8202 -3.34994 0
M  V30 30829 C 1060.59 4.31095 -3.25037 0
M  V30 30830 C 1060.53 2.15547 -4.52261 0
M  V30 30831 H 1063.27 1.93379 -8.46595 0
M  V30 30832 H 1063.54 1.68132 -6.70852 0
M  V30 30833 H 1062.68 -0.289041 -8.15388 0
M  V30 30834 H 1060.02 -0.926847 -5.72749 0
M  V30 30835 H 1059.74 1.86973 -6.82036 0
M  V30 30836 H 1058.75 0.403896 -7.13257 0
M  V30 30837 H 1060.58 1.20585 -8.97435 0
M  V30 30838 H 1060.66 2.71231 -5.45042 0
M  V30 30839 H 1059.63 4.76966 -3.49992 0
M  V30 30840 H 1061.36 4.67047 -3.95024 0
M  V30 30841 H 1060.87 4.58996 -2.22312 0
M  V30 30842 H 1060.14 0.214893 -1.39758 0
M  V30 30843 P 1058.71 -1.17771 -8.83182 0
M  V30 30844 O 1058.49 -2.07206 -9.98732 0
M  V30 30845 O 1057.92 0.0743816 -8.81969 0
M  V30 30846 O 1058.46 -1.97652 -7.47304 0
M  V30 30847 C 1059.4 -3.01133 -7.08783 0
M  V30 30848 C 1058.67 -4.12613 -6.37049 0
M  V30 30849 O 1058.46 -3.72827 -4.97879 0
M  V30 30850 C 1057.27 -4.45085 -6.88694 0
M  V30 30851 O 1056.88 -5.7877 -6.5624 0
M  V30 30852 C 1056.39 -3.47817 -6.12078 0
M  V30 30853 C 1057.1 -3.39414 -4.77697 0
M  V30 30854 N 1057.05 -2.04615 -4.15333 0
M  V30 30855 H 1059.89 -3.41248 -7.98759 0
M  V30 30856 H 1060.16 -2.5837 -6.41742 0
M  V30 30857 H 1059.3 -5.02657 -6.42673 0
M  V30 30858 P 1055.33 -6.144 -6.45285 0
M  V30 30859 O 1055.11 -7.54673 -6.86199 0
M  V30 30860 O 1054.54 -5.12391 -7.179 0
M  V30 30861 O 1055.08 -5.99158 -4.88404 0
M  V30 30862 C 1056.02 -6.60234 -3.96415 0
M  V30 30863 C 1055.29 -7.08259 -2.72856 0
M  V30 30864 O 1055.08 -5.9427 -1.83651 0
M  V30 30865 C 1053.89 -7.64886 -2.9555 0
M  V30 30866 O 1053.5 -8.53963 -1.90717 0
M  V30 30867 C 1053.01 -6.4116 -2.90739 0
M  V30 30868 C 1053.72 -5.55375 -1.86963 0
M  V30 30869 N 1053.67 -4.09448 -2.16152 0
M  V30 30870 H 1056.51 -7.45574 -4.45629 0
M  V30 30871 H 1056.78 -5.85864 -3.679 0
M  V30 30872 H 1055.92 -7.84412 -2.24479 0
M  V30 30873 H 1053.26 -5.73457 -0.888562 0
M  V30 30874 H 1052.98 -5.90877 -3.88583 0
M  V30 30875 H 1051.99 -6.6596 -2.58858 0
M  V30 30876 H 1053.82 -8.16339 -3.92049 0
M  V30 30877 P 1051.95 -8.7635 -1.60911 0
M  V30 30878 O 1051.73 -10.1388 -1.11561 0
M  V30 30879 O 1051.16 -8.36503 -2.79617 0
M  V30 30880 O 1051.7 -7.71806 -0.42951 0
M  V30 30881 C 1052.64 -7.67148 0.673689 0
M  V30 30882 C 1051.91 -7.33374 1.95559 0
M  V30 30883 O 1051.7 -5.88721 2.00726 0
M  V30 30884 C 1050.51 -7.92526 2.10483 0
M  V30 30885 O 1050.12 -8.02971 3.47653 0
M  V30 30886 C 1049.63 -6.89602 1.41652 0
M  V30 30887 C 1050.34 -5.59201 1.75185 0
M  V30 30888 N 1050.29 -4.58301 0.657969 0
M  V30 30889 C 1050.37 -4.79019 -0.692603 0
M  V30 30890 N 1050.3 -3.69736 -1.38998 0
M  V30 30891 C 1050.15 -2.70474 -0.438135 0
M  V30 30892 C 1050.02 -1.30327 -0.538142 0
M  V30 30893 N 1050.01 -0.64304 -1.69192 0
M  V30 30894 N 1049.9 -0.611027 0.605183 0
M  V30 30895 C 1049.91 -1.27002 1.75953 0
M  V30 30896 N 1050.03 -2.56038 1.98546 0
M  V30 30897 C 1050.15 -3.22681 0.822541 0
M  V30 30898 H 1053.13 -8.65116 0.777161 0
M  V30 30899 H 1053.4 -6.9022 0.46725 0
M  V30 30900 H 1052.54 -7.66548 2.79458 0
M  V30 30901 H 1049.88 -5.16165 2.65183 0
M  V30 30902 H 1049.6 -7.06433 0.329384 0
M  V30 30903 H 1048.61 -6.90926 1.82021 0
M  V30 30904 H 1050.44 -8.90873 1.62657 0
M  V30 30905 H 1050.49 -5.77785 -1.13874 0
M  V30 30906 H 1050.1 -1.15585 -2.57991 0
M  V30 30907 H 1049.92 0.382989 -1.69835 0
M  V30 30908 H 1049.81 -0.653331 2.64449 0
M  V30 30909 P 1048.57 -8.03563 3.84925 0
M  V30 30910 O 1048.35 -8.85821 5.0569 0
M  V30 30911 O 1047.78 -8.41101 2.65469 0
M  V30 30912 O 1048.32 -6.4965 4.18908 0
M  V30 30913 C 1049.26 -5.81037 5.05421 0
M  V30 30914 C 1048.53 -4.78366 5.89277 0
M  V30 30915 O 1048.32 -3.58302 5.08433 0
M  V30 30916 C 1047.13 -5.17448 6.36119 0
M  V30 30917 O 1046.74 -4.45271 7.53232 0
M  V30 30918 C 1046.25 -4.74639 5.19936 0
M  V30 30919 C 1046.96 -3.49432 4.70418 0
M  V30 30920 N 1046.91 -3.31776 3.22945 0
M  V30 30921 H 1049.75 -6.54213 5.71376 0
M  V30 30922 H 1050.02 -5.30492 4.44033 0
M  V30 30923 H 1049.16 -4.55889 6.76652 0
M  V30 30924 P 1045.19 -4.23843 7.83734 0
M  V30 30925 O 1044.97 -4.19407 9.29784 0
M  V30 30926 O 1044.4 -5.24426 7.09156 0
M  V30 30927 O 1044.94 -2.7935 7.20758 0
M  V30 30928 C 1045.88 -1.7299 7.50419 0
M  V30 30929 C 1045.15 -0.406376 7.57911 0
M  V30 30930 O 1044.94 0.0897726 6.21935 0
M  V30 30931 C 1043.75 -0.447224 8.1878 0
M  V30 30932 O 1043.36 0.825065 8.71101 0
M  V30 30933 C 1042.87 -0.783801 6.99623 0
M  V30 30934 C 1043.58 -0.0619192 5.85967 0
M  V30 30935 N 1043.53 -0.7859 4.56281 0
M  V30 30936 H 1046.37 -1.93423 8.4679 0
M  V30 30937 H 1046.64 -1.68181 6.71046 0
M  V30 30938 H 1045.78 0.289041 8.15388 0
M  V30 30939 P 1041.81 1.17771 8.83182 0
M  V30 30940 O 1041.59 2.07206 9.98732 0
M  V30 30941 O 1041.02 -0.0743816 8.81969 0
M  V30 30942 O 1041.56 1.97652 7.47304 0
M  V30 30943 C 1042.5 3.01133 7.08783 0
M  V30 30944 C 1041.77 4.12613 6.37049 0
M  V30 30945 O 1041.56 3.72827 4.97879 0
M  V30 30946 C 1040.37 4.45085 6.88694 0
M  V30 30947 O 1039.98 5.7877 6.5624 0
M  V30 30948 C 1039.49 3.47817 6.12078 0
M  V30 30949 C 1040.2 3.39414 4.77697 0
M  V30 30950 N 1040.15 2.04615 4.15333 0
M  V30 30951 H 1042.99 3.41248 7.98759 0
M  V30 30952 H 1043.26 2.5837 6.41742 0
M  V30 30953 H 1042.4 5.02657 6.42673 0
M  V30 30954 P 1038.43 6.144 6.45285 0
M  V30 30955 O 1038.21 7.54673 6.86199 0
M  V30 30956 O 1037.64 5.12391 7.179 0
M  V30 30957 O 1038.18 5.99158 4.88404 0
M  V30 30958 C 1039.12 6.60234 3.96415 0
M  V30 30959 C 1038.39 7.08259 2.72856 0
M  V30 30960 O 1038.18 5.9427 1.83651 0
M  V30 30961 C 1036.99 7.64886 2.9555 0
M  V30 30962 O 1036.6 8.53963 1.90717 0
M  V30 30963 C 1036.11 6.4116 2.90739 0
M  V30 30964 C 1036.82 5.55375 1.86963 0
M  V30 30965 N 1036.77 4.09448 2.16152 0
M  V30 30966 H 1039.61 7.45574 4.45629 0
M  V30 30967 H 1039.88 5.85864 3.679 0
M  V30 30968 H 1039.02 7.84412 2.24479 0
M  V30 30969 H 1036.36 5.73457 0.888562 0
M  V30 30970 H 1036.08 5.90877 3.88583 0
M  V30 30971 H 1035.09 6.6596 2.58858 0
M  V30 30972 H 1036.92 8.16339 3.92049 0
M  V30 30973 P 1035.05 8.7635 1.60911 0
M  V30 30974 O 1034.83 10.1388 1.11561 0
M  V30 30975 O 1034.26 8.36503 2.79617 0
M  V30 30976 O 1034.8 7.71806 0.42951 0
M  V30 30977 C 1035.74 7.66948 -0.673514 0
M  V30 30978 C 1035.01 7.33374 -1.95559 0
M  V30 30979 O 1034.8 5.88721 -2.00726 0
M  V30 30980 C 1033.61 7.92218 -2.1125 0
M  V30 30981 O 1033.22 8.02971 -3.47653 0
M  V30 30982 C 1032.73 6.89504 -1.41631 0
M  V30 30983 C 1033.44 5.59106 -1.75155 0
M  V30 30984 N 1033.39 4.58136 -0.662409 0
M  V30 30985 C 1033.24 3.26059 -1.02863 0
M  V30 30986 O 1033.15 2.90743 -2.19009 0
M  V30 30987 N 1033.2 2.35995 0.0155585 0
M  V30 30988 C 1033.29 2.65248 1.35603 0
M  V30 30989 O 1033.24 1.75605 2.20651 0
M  V30 30990 C 1033.44 4.05747 1.64698 0
M  V30 30991 C 1033.55 4.42345 3.09553 0
M  V30 30992 C 1033.49 4.96734 0.652411 0
M  V30 30993 H 1036.23 8.64917 -0.776982 0
M  V30 30994 H 1036.5 6.89974 -0.474015 0
M  V30 30995 H 1035.64 7.66548 -2.79458 0
M  V30 30996 H 1032.98 5.16076 -2.65138 0
M  V30 30997 H 1032.7 7.06433 -0.329384 0
M  V30 30998 H 1031.71 6.90829 -1.81996 0
M  V30 30999 H 1033.54 8.90774 -1.62639 0
M  V30 31000 H 1033.62 6.02181 0.895285 0
M  V30 31001 H 1032.59 4.80252 3.45468 0
M  V30 31002 H 1034.32 5.20015 3.22119 0
M  V30 31003 H 1033.83 3.53269 3.67833 0
M  V30 31004 H 1033.1 1.39558 -0.227499 0
M  V30 31005 P 1031.67 8.03563 -3.84925 0
M  V30 31006 O 1031.45 8.85821 -5.0569 0
M  V30 31007 O 1030.88 8.41101 -2.65469 0
M  V30 31008 O 1031.42 6.4965 -4.18908 0
M  V30 31009 C 1032.36 5.80886 -5.05289 0
M  V30 31010 C 1031.63 4.78366 -5.89277 0
M  V30 31011 O 1031.42 3.58302 -5.08433 0
M  V30 31012 C 1030.23 5.16748 -6.36559 0
M  V30 31013 O 1029.84 4.45271 -7.53232 0
M  V30 31014 C 1029.35 4.74572 -5.19863 0
M  V30 31015 C 1030.06 3.49373 -4.70338 0
M  V30 31016 N 1030.01 3.31704 -3.22876 0
M  V30 31017 C 1029.86 2.03326 -2.74871 0
M  V30 31018 O 1029.77 1.06486 -3.48076 0
M  V30 31019 N 1029.82 1.91838 -1.37456 0
M  V30 31020 C 1029.91 2.94295 -0.462035 0
M  V30 31021 O 1029.86 2.71763 0.752928 0
M  V30 31022 C 1030.06 4.25064 -1.05249 0
M  V30 31023 C 1030.17 5.39815 -0.095697 0
M  V30 31024 C 1030.11 4.40214 -2.39192 0
M  V30 31025 H 1032.85 6.54063 -5.71245 0
M  V30 31026 H 1033.12 5.30339 -4.43905 0
M  V30 31027 H 1032.26 4.55889 -6.76652 0
M  V30 31028 H 1029.6 2.6167 -5.17842 0
M  V30 31029 H 1029.32 5.52155 -4.41878 0
M  V30 31030 H 1028.33 4.51918 -5.53297 0
M  V30 31031 H 1030.16 6.25055 -6.55162 0
M  V30 31032 H 1030.24 5.39798 -2.81523 0
M  V30 31033 H 1029.21 5.91593 -0.0279582 0
M  V30 31034 H 1030.94 6.10038 -0.450573 0
M  V30 31035 H 1030.45 5.02007 0.89937 0
M  V30 31036 H 1029.72 0.995326 -1.00435 0
M  V30 31037 P 1028.29 4.23843 -7.83734 0
M  V30 31038 O 1028.07 4.19407 -9.29784 0
M  V30 31039 O 1027.5 5.24426 -7.09156 0
M  V30 31040 O 1028.04 2.7935 -7.20758 0
M  V30 31041 C 1028.98 1.7299 -7.50419 0
M  V30 31042 C 1028.25 0.406376 -7.57911 0
M  V30 31043 O 1028.04 -0.0897726 -6.21935 0
M  V30 31044 C 1026.85 0.447224 -8.1878 0
M  V30 31045 O 1026.46 -0.825065 -8.71101 0
M  V30 31046 C 1025.97 0.783801 -6.99623 0
M  V30 31047 C 1026.68 0.0619192 -5.85967 0
M  V30 31048 N 1026.63 0.7859 -4.56281 0
M  V30 31049 H 1029.47 1.93423 -8.4679 0
M  V30 31050 H 1029.74 1.68181 -6.71046 0
M  V30 31051 H 1028.88 -0.289041 -8.15388 0
M  V30 31052 P 1024.91 -1.17771 -8.83182 0
M  V30 31053 O 1024.69 -2.07206 -9.98732 0
M  V30 31054 O 1024.12 0.0743816 -8.81969 0
M  V30 31055 O 1024.66 -1.97652 -7.47304 0
M  V30 31056 C 1025.6 -3.01133 -7.08783 0
M  V30 31057 C 1024.87 -4.12613 -6.37049 0
M  V30 31058 O 1024.66 -3.72827 -4.97879 0
M  V30 31059 C 1023.47 -4.45085 -6.88694 0
M  V30 31060 O 1023.08 -5.7877 -6.5624 0
M  V30 31061 C 1022.59 -3.47817 -6.12078 0
M  V30 31062 C 1023.3 -3.39414 -4.77697 0
M  V30 31063 N 1023.25 -2.04199 -4.15538 0
M  V30 31064 H 1026.09 -3.41248 -7.98759 0
M  V30 31065 H 1026.36 -2.57728 -6.42 0
M  V30 31066 H 1025.5 -5.02657 -6.42673 0
M  V30 31067 H 1022.84 -4.11708 -4.08956 0
M  V30 31068 H 1022.56 -2.49626 -6.61679 0
M  V30 31069 H 1021.57 -3.8662 -6.00862 0
M  V30 31070 H 1023.4 -4.29991 -7.97006 0
M  V30 31071 P 1021.53 -6.144 -6.45285 0
M  V30 31072 O 1021.31 -7.54673 -6.86199 0
M  V30 31073 O 1020.74 -5.12391 -7.179 0
M  V30 31074 O 1021.28 -5.99158 -4.88404 0
M  V30 31075 C 1022.22 -6.60062 -3.96313 0
M  V30 31076 C 1021.49 -7.08259 -2.72856 0
M  V30 31077 O 1021.28 -5.9427 -1.83651 0
M  V30 31078 C 1020.09 -7.65087 -2.94749 0
M  V30 31079 O 1019.7 -8.53963 -1.90717 0
M  V30 31080 C 1019.21 -6.41069 -2.90698 0
M  V30 31081 C 1019.92 -5.5528 -1.86931 0
M  V30 31082 N 1019.87 -4.09575 -2.15696 0
M  V30 31083 C 1019.72 -3.24249 -1.08435 0
M  V30 31084 O 1019.63 -3.63946 0.0628747 0
M  V30 31085 N 1019.68 -1.90009 -1.39973 0
M  V30 31086 C 1019.77 -1.34884 -2.65614 0
M  V30 31087 O 1019.72 -0.123716 -2.81728 0
M  V30 31088 C 1019.92 -2.3145 -3.71736 0
M  V30 31089 C 1020.03 -1.75913 -5.10438 0
M  V30 31090 C 1019.97 -3.63518 -3.44754 0
M  V30 31091 H 1022.71 -7.45402 -4.45526 0
M  V30 31092 H 1022.98 -5.86062 -3.67208 0
M  V30 31093 H 1022.12 -7.84412 -2.24479 0
M  V30 31094 H 1019.46 -5.73358 -0.888409 0
M  V30 31095 H 1019.18 -5.90877 -3.88583 0
M  V30 31096 H 1018.19 -6.65867 -2.58821 0
M  V30 31097 H 1020.02 -8.16248 -3.92006 0
M  V30 31098 H 1020.1 -4.34551 -4.26383 0
M  V30 31099 H 1019.07 -1.85471 -5.61775 0
M  V30 31100 H 1020.8 -2.31364 -5.66257 0
M  V30 31101 H 1020.31 -0.695936 -5.05229 0
M  V30 31102 H 1019.58 -1.26277 -0.63625 0
M  V30 31103 P 1018.15 -8.7635 -1.60911 0
M  V30 31104 O 1017.93 -10.1388 -1.11561 0
M  V30 31105 O 1017.36 -8.36503 -2.79617 0
M  V30 31106 O 1017.9 -7.71906 -0.429565 0
M  V30 31107 C 1018.84 -7.67148 0.673689 0
M  V30 31108 C 1018.11 -7.33666 1.94851 0
M  V30 31109 O 1017.9 -5.88816 2.00759 0
M  V30 31110 C 1016.71 -7.92526 2.10483 0
M  V30 31111 O 1016.32 -8.03063 3.47693 0
M  V30 31112 C 1015.83 -6.89602 1.41652 0
M  V30 31113 C 1016.54 -5.59201 1.75185 0
M  V30 31114 N 1016.49 -4.58235 0.662552 0
M  V30 31115 C 1016.34 -3.24451 1.01643 0
M  V30 31116 O 1016.25 -2.94958 2.21722 0
M  V30 31117 N 1016.29 -2.30408 -0.165238 0
M  V30 31118 C 1016.39 -2.66048 -1.25118 0
M  V30 31119 N 1016.34 -1.70787 -2.16813 0
M  V30 31120 C 1016.54 -4.02732 -1.64413 0
M  V30 31121 C 1016.59 -4.9488 -0.63991 0
M  V30 31122 H 1019.33 -8.65017 0.777072 0
M  V30 31123 H 1019.6 -6.90173 0.474152 0
M  V30 31124 H 1018.74 -7.66642 2.79492 0
M  V30 31125 H 1016.08 -5.16254 2.65229 0
M  V30 31126 H 1015.8 -7.06532 0.329431 0
M  V30 31127 H 1014.81 -6.91023 1.82047 0
M  V30 31128 H 1016.65 -8.90873 1.62657 0
M  V30 31129 H 1016.72 -6.00104 -0.892197 0
M  V30 31130 H 1016.62 -4.31733 -2.69229 0
M  V30 31131 H 1016.23 -0.724835 -1.8844 0
M  V30 31132 H 1016.42 -1.94716 -3.16734 0
M  V30 31133 P 1014.77 -8.03563 3.84925 0
M  V30 31134 O 1014.55 -8.85821 5.0569 0
M  V30 31135 O 1013.98 -8.41101 2.65469 0
M  V30 31136 O 1014.52 -6.4965 4.18908 0
M  V30 31137 C 1015.46 -5.81037 5.05421 0
M  V30 31138 C 1014.73 -4.78366 5.89277 0
M  V30 31139 O 1014.52 -3.58302 5.08433 0
M  V30 31140 C 1013.33 -5.17448 6.36119 0
M  V30 31141 O 1012.94 -4.45271 7.53232 0
M  V30 31142 C 1012.45 -4.74639 5.19936 0
M  V30 31143 C 1013.16 -3.49432 4.70418 0
M  V30 31144 N 1013.11 -3.32099 3.22613 0
M  V30 31145 H 1015.95 -6.54213 5.71376 0
M  V30 31146 H 1016.23 -5.30936 4.43503 0
M  V30 31147 H 1015.36 -4.55889 6.76652 0
M  V30 31148 H 1012.7 -2.61715 5.17932 0
M  V30 31149 H 1012.42 -5.52155 4.41878 0
M  V30 31150 H 1011.43 -4.51981 5.53374 0
M  V30 31151 H 1013.27 -6.25124 6.55234 0
M  V30 31152 P 1011.39 -4.23843 7.83734 0
M  V30 31153 O 1011.17 -4.19407 9.29784 0
M  V30 31154 O 1010.6 -5.24426 7.09156 0
M  V30 31155 O 1011.14 -2.7935 7.20758 0
M  V30 31156 C 1012.08 -1.72945 7.50224 0
M  V30 31157 C 1011.35 -0.406376 7.57911 0
M  V30 31158 O 1011.14 0.0897726 6.21935 0
M  V30 31159 C 1009.95 -0.438983 8.18724 0
M  V30 31160 O 1009.56 0.825065 8.71101 0
M  V30 31161 C 1009.07 -0.783689 6.99524 0
M  V30 31162 C 1009.78 -0.0619086 5.85867 0
M  V30 31163 N 1009.73 -0.78573 4.56183 0
M  V30 31164 C 1009.58 -0.0292889 3.41887 0
M  V30 31165 O 1009.49 1.18445 3.4419 0
M  V30 31166 N 1009.54 -0.744061 2.23964 0
M  V30 31167 C 1009.63 -2.10932 2.10362 0
M  V30 31168 O 1009.58 -2.64117 0.98825 0
M  V30 31169 C 1009.78 -2.8202 3.34994 0
M  V30 31170 C 1009.89 -4.31095 3.25037 0
M  V30 31171 C 1009.83 -2.15547 4.52261 0
M  V30 31172 H 1012.58 -1.93379 8.46595 0
M  V30 31173 H 1012.84 -1.68132 6.70852 0
M  V30 31174 H 1011.98 0.289041 8.15388 0
M  V30 31175 H 1009.32 0.926847 5.72749 0
M  V30 31176 H 1009.04 -1.86973 6.82036 0
M  V30 31177 H 1008.05 -0.403896 7.13257 0
M  V30 31178 H 1009.89 -1.20585 8.97435 0
M  V30 31179 H 1009.96 -2.71231 5.45042 0
M  V30 31180 H 1008.93 -4.76966 3.49992 0
M  V30 31181 H 1010.66 -4.67047 3.95024 0
M  V30 31182 H 1010.18 -4.58996 2.22312 0
M  V30 31183 H 1009.44 -0.214893 1.39758 0
M  V30 31184 P 1008.01 1.17771 8.83182 0
M  V30 31185 O 1007.79 2.07206 9.98732 0
M  V30 31186 O 1007.22 -0.0743816 8.81969 0
M  V30 31187 O 1007.76 1.97652 7.47304 0
M  V30 31188 C 1008.7 3.01133 7.08783 0
M  V30 31189 C 1007.97 4.12613 6.37049 0
M  V30 31190 O 1007.76 3.72827 4.97879 0
M  V30 31191 C 1006.57 4.45085 6.88694 0
M  V30 31192 O 1006.18 5.7877 6.5624 0
M  V30 31193 C 1005.69 3.47817 6.12078 0
M  V30 31194 C 1006.4 3.39414 4.77697 0
M  V30 31195 N 1006.35 2.04615 4.15333 0
M  V30 31196 H 1009.19 3.41248 7.98759 0
M  V30 31197 H 1009.47 2.5837 6.41742 0
M  V30 31198 H 1008.6 5.02657 6.42673 0
M  V30 31199 P 1004.63 6.144 6.45285 0
M  V30 31200 O 1004.41 7.54673 6.86199 0
M  V30 31201 O 1003.84 5.12391 7.179 0
M  V30 31202 O 1004.38 5.99158 4.88404 0
M  V30 31203 C 1005.32 6.60234 3.96415 0
M  V30 31204 C 1004.59 7.08259 2.72856 0
M  V30 31205 O 1004.38 5.9427 1.83651 0
M  V30 31206 C 1003.19 7.64886 2.9555 0
M  V30 31207 O 1002.8 8.53963 1.90717 0
M  V30 31208 C 1002.31 6.4116 2.90739 0
M  V30 31209 C 1003.02 5.55375 1.86963 0
M  V30 31210 N 1002.97 4.09664 2.15742 0
M  V30 31211 H 1005.81 7.45574 4.45629 0
M  V30 31212 H 1006.09 5.86232 3.67314 0
M  V30 31213 H 1005.22 7.84412 2.24479 0
M  V30 31214 P 1001.25 8.7635 1.60911 0
M  V30 31215 O 1001.03 10.1388 1.11561 0
M  V30 31216 O 1000.46 8.36503 2.79617 0
M  V30 31217 O 1001 7.71806 0.42951 0
M  V30 31218 C 1001.94 7.67148 -0.673689 0
M  V30 31219 C 1001.21 7.33374 -1.95559 0
M  V30 31220 O 1001 5.88721 -2.00726 0
M  V30 31221 C 999.814 7.92526 -2.10483 0
M  V30 31222 O 999.424 8.02971 -3.47653 0
M  V30 31223 C 998.934 6.89602 -1.41652 0
M  V30 31224 C 999.644 5.59201 -1.75185 0
M  V30 31225 N 999.594 4.58235 -0.662552 0
M  V30 31226 H 1002.43 8.65116 -0.777161 0
M  V30 31227 H 1002.71 6.90173 -0.474152 0
M  V30 31228 H 1001.84 7.66548 -2.79458 0
M  V30 31229 P 997.874 8.03563 -3.84925 0
M  V30 31230 O 997.654 8.85821 -5.0569 0
M  V30 31231 O 997.084 8.41101 -2.65469 0
M  V30 31232 O 997.624 6.4965 -4.18908 0
M  V30 31233 C 998.564 5.81037 -5.05421 0
M  V30 31234 C 997.834 4.78366 -5.89277 0
M  V30 31235 O 997.624 3.58302 -5.08433 0
M  V30 31236 C 996.434 5.17448 -6.36119 0
M  V30 31237 O 996.044 4.45271 -7.53232 0
M  V30 31238 C 995.554 4.74639 -5.19936 0
M  V30 31239 C 996.264 3.49432 -4.70418 0
M  V30 31240 N 996.214 3.32099 -3.22613 0
M  V30 31241 H 999.053 6.54213 -5.71376 0
M  V30 31242 H 999.325 5.30936 -4.43503 0
M  V30 31243 H 998.457 4.55889 -6.76652 0
M  V30 31244 H 995.802 2.61715 -5.17932 0
M  V30 31245 H 995.522 5.52155 -4.41878 0
M  V30 31246 H 994.531 4.51981 -5.53374 0
M  V30 31247 H 996.365 6.25124 -6.55234 0
M  V30 31248 P 994.494 4.23843 -7.83734 0
M  V30 31249 O 994.274 4.19407 -9.29784 0
M  V30 31250 O 993.704 5.24426 -7.09156 0
M  V30 31251 O 994.244 2.79386 -7.20852 0
M  V30 31252 C 995.184 1.7299 -7.50419 0
M  V30 31253 C 994.454 0.41401 -7.5797 0
M  V30 31254 O 994.244 -0.089787 -6.22035 0
M  V30 31255 C 993.054 0.447224 -8.1878 0
M  V30 31256 O 992.664 -0.825159 -8.71201 0
M  V30 31257 C 992.174 0.783801 -6.99623 0
M  V30 31258 C 992.884 0.0619192 -5.85967 0
M  V30 31259 N 992.834 0.7859 -4.56281 0
M  V30 31260 C 992.684 0.0359258 -3.39981 0
M  V30 31261 O 992.594 -1.19723 -3.49038 0
M  V30 31262 N 992.634 0.869151 -2.14025 0
M  V30 31263 C 992.734 2.01207 -2.14363 0
M  V30 31264 N 992.684 2.58978 -0.954287 0
M  V30 31265 C 992.884 2.80817 -3.32215 0
M  V30 31266 C 992.934 2.13785 -4.50884 0
M  V30 31267 H 995.674 1.93401 -8.46693 0
M  V30 31268 H 995.944 1.68181 -6.71046 0
M  V30 31269 H 995.077 -0.289076 -8.15488 0
M  V30 31270 H 992.422 -0.927166 -5.72947 0
M  V30 31271 H 992.142 1.87 -6.82132 0
M  V30 31272 H 991.151 0.404009 -7.13457 0
M  V30 31273 H 992.985 1.20599 -8.97534 0
M  V30 31274 H 993.057 2.70295 -5.43162 0
M  V30 31275 H 992.955 3.89465 -3.27406 0
M  V30 31276 H 992.567 2.01616 -0.107046 0
M  V30 31277 H 992.763 3.61403 -0.873101 0
M  V30 31278 P 991.114 -1.17771 -8.83182 0
M  V30 31279 O 990.894 -2.07206 -9.98732 0
M  V30 31280 O 990.324 0.0743816 -8.81969 0
M  V30 31281 O 990.864 -1.97652 -7.47304 0
M  V30 31282 C 991.804 -3.01055 -7.08599 0
M  V30 31283 C 991.074 -4.12613 -6.37049 0
M  V30 31284 O 990.864 -3.72827 -4.97879 0
M  V30 31285 C 989.674 -4.45719 -6.88164 0
M  V30 31286 O 989.284 -5.7877 -6.5624 0
M  V30 31287 C 988.794 -3.47768 -6.11991 0
M  V30 31288 C 989.504 -3.39356 -4.77615 0
M  V30 31289 N 989.454 -2.04571 -4.15244 0
M  V30 31290 C 989.304 -1.98587 -2.78314 0
M  V30 31291 O 989.214 -2.98134 -2.08835 0
M  V30 31292 N 989.264 -0.714467 -2.24925 0
M  V30 31293 C 989.354 0.470001 -2.94169 0
M  V30 31294 O 989.304 1.55587 -2.35195 0
M  V30 31295 C 989.504 0.312541 -4.36783 0
M  V30 31296 C 989.614 1.57711 -5.16352 0
M  V30 31297 C 989.554 -0.914512 -4.92583 0
M  V30 31298 H 992.295 -3.41169 -7.98575 0
M  V30 31299 H 992.564 -2.58295 -6.41556 0
M  V30 31300 H 991.697 -5.02657 -6.42673 0
M  V30 31301 H 989.042 -4.11637 -4.08885 0
M  V30 31302 H 988.763 -2.49626 -6.61679 0
M  V30 31303 H 987.771 -3.86566 -6.00778 0
M  V30 31304 H 989.605 -4.29943 -7.96918 0
M  V30 31305 H 989.676 -1.00937 -6.00374 0
M  V30 31306 H 988.646 1.80153 -5.63503 0
M  V30 31307 H 990.383 1.4566 -5.94104 0
M  V30 31308 H 989.895 2.40664 -4.49645 0
M  V30 31309 H 989.159 -0.647622 -1.25697 0
M  V30 31310 P 987.734 -6.144 -6.45285 0
M  V30 31311 O 987.514 -7.54673 -6.86199 0
M  V30 31312 O 986.944 -5.12391 -7.179 0
M  V30 31313 O 987.484 -5.99158 -4.88404 0
M  V30 31314 C 988.424 -6.60234 -3.96415 0
M  V30 31315 C 987.694 -7.08259 -2.72856 0
M  V30 31316 O 987.484 -5.9427 -1.83651 0
M  V30 31317 C 986.294 -7.64886 -2.9555 0
M  V30 31318 O 985.904 -8.53963 -1.90717 0
M  V30 31319 C 985.414 -6.4116 -2.90739 0
M  V30 31320 C 986.124 -5.55375 -1.86963 0
M  V30 31321 N 986.074 -4.09664 -2.15742 0
M  V30 31322 H 988.913 -7.45574 -4.45629 0
M  V30 31323 H 989.185 -5.86232 -3.67314 0
M  V30 31324 H 988.317 -7.84412 -2.24479 0
M  V30 31325 P 984.354 -8.7635 -1.60911 0
M  V30 31326 O 984.134 -10.1388 -1.11561 0
M  V30 31327 O 983.564 -8.36503 -2.79617 0
M  V30 31328 O 984.104 -7.71806 -0.42951 0
M  V30 31329 C 985.044 -7.67148 0.673689 0
M  V30 31330 C 984.314 -7.33374 1.95559 0
M  V30 31331 O 984.104 -5.88721 2.00726 0
M  V30 31332 C 982.914 -7.92526 2.10483 0
M  V30 31333 O 982.524 -8.02971 3.47653 0
M  V30 31334 C 982.034 -6.89602 1.41652 0
M  V30 31335 C 982.744 -5.59201 1.75185 0
M  V30 31336 N 982.694 -4.58235 0.662552 0
M  V30 31337 H 985.533 -8.65116 0.777161 0
M  V30 31338 H 985.805 -6.90173 0.474152 0
M  V30 31339 H 984.937 -7.66548 2.79458 0
M  V30 31340 P 980.974 -8.03563 3.84925 0
M  V30 31341 O 980.754 -8.85821 5.0569 0
M  V30 31342 O 980.184 -8.41101 2.65469 0
M  V30 31343 O 980.724 -6.4965 4.18908 0
M  V30 31344 C 981.664 -5.81037 5.05421 0
M  V30 31345 C 980.934 -4.78366 5.89277 0
M  V30 31346 O 980.724 -3.58302 5.08433 0
M  V30 31347 C 979.534 -5.17448 6.36119 0
M  V30 31348 O 979.144 -4.45271 7.53232 0
M  V30 31349 C 978.654 -4.74639 5.19936 0
M  V30 31350 C 979.364 -3.49432 4.70418 0
M  V30 31351 N 979.314 -3.32099 3.22613 0
M  V30 31352 H 982.153 -6.54213 5.71376 0
M  V30 31353 H 982.425 -5.30936 4.43503 0
M  V30 31354 H 981.557 -4.55889 6.76652 0
M  V30 31355 H 978.902 -2.61715 5.17932 0
M  V30 31356 H 978.622 -5.52155 4.41878 0
M  V30 31357 H 977.631 -4.51981 5.53374 0
M  V30 31358 H 979.465 -6.25124 6.55234 0
M  V30 31359 P 977.594 -4.23843 7.83734 0
M  V30 31360 O 977.374 -4.19407 9.29784 0
M  V30 31361 O 976.804 -5.24426 7.09156 0
M  V30 31362 O 977.344 -2.7935 7.20758 0
M  V30 31363 C 978.284 -1.72945 7.50224 0
M  V30 31364 C 977.554 -0.406376 7.57911 0
M  V30 31365 O 977.344 0.0897726 6.21935 0
M  V30 31366 C 976.154 -0.438983 8.18724 0
M  V30 31367 O 975.764 0.825065 8.71101 0
M  V30 31368 C 975.274 -0.783689 6.99524 0
M  V30 31369 C 975.984 -0.0619086 5.85867 0
M  V30 31370 N 975.934 -0.78573 4.56183 0
M  V30 31371 C 975.784 -0.0292889 3.41887 0
M  V30 31372 O 975.694 1.18445 3.4419 0
M  V30 31373 N 975.744 -0.744061 2.23964 0
M  V30 31374 C 975.834 -2.10932 2.10362 0
M  V30 31375 O 975.784 -2.64117 0.98825 0
M  V30 31376 C 975.984 -2.8202 3.34994 0
M  V30 31377 C 976.094 -4.31095 3.25037 0
M  V30 31378 C 976.034 -2.15547 4.52261 0
M  V30 31379 H 978.775 -1.93379 8.46595 0
M  V30 31380 H 979.044 -1.68132 6.70852 0
M  V30 31381 H 978.177 0.289041 8.15388 0
M  V30 31382 H 975.522 0.926847 5.72749 0
M  V30 31383 H 975.243 -1.86973 6.82036 0
M  V30 31384 H 974.251 -0.403896 7.13257 0
M  V30 31385 H 976.085 -1.20585 8.97435 0
M  V30 31386 H 976.156 -2.71231 5.45042 0
M  V30 31387 H 975.126 -4.76966 3.49992 0
M  V30 31388 H 976.863 -4.67047 3.95024 0
M  V30 31389 H 976.375 -4.58996 2.22312 0
M  V30 31390 H 975.639 -0.214893 1.39758 0
M  V30 31391 P 974.214 1.17771 8.83182 0
M  V30 31392 O 973.994 2.07206 9.98732 0
M  V30 31393 O 973.424 -0.0743816 8.81969 0
M  V30 31394 O 973.964 1.97652 7.47304 0
M  V30 31395 C 974.904 3.01133 7.08783 0
M  V30 31396 C 974.174 4.12613 6.37049 0
M  V30 31397 O 973.964 3.72827 4.97879 0
M  V30 31398 C 972.774 4.45085 6.88694 0
M  V30 31399 O 972.384 5.7877 6.5624 0
M  V30 31400 C 971.894 3.47817 6.12078 0
M  V30 31401 C 972.604 3.39414 4.77697 0
M  V30 31402 N 972.554 2.04199 4.15538 0
M  V30 31403 C 972.634 0.821545 4.76977 0
M  V30 31404 N 972.564 -0.1794 3.94592 0
M  V30 31405 C 972.414 0.419121 2.70776 0
M  V30 31406 C 972.284 -0.109072 1.40577 0
M  V30 31407 N 972.274 -1.4104 1.1344 0
M  V30 31408 N 972.164 0.764381 0.39411 0
M  V30 31409 C 972.174 2.06587 0.664135 0
M  V30 31410 N 972.294 2.67948 1.82153 0
M  V30 31411 C 972.414 1.77942 2.8147 0
M  V30 31412 H 975.393 3.41248 7.98759 0
M  V30 31413 H 975.665 2.57728 6.42 0
M  V30 31414 H 974.797 5.02657 6.42673 0
M  V30 31415 H 972.142 4.11708 4.08956 0
M  V30 31416 H 971.862 2.49626 6.61679 0
M  V30 31417 H 970.871 3.8662 6.00862 0
M  V30 31418 H 972.705 4.29991 7.97006 0
M  V30 31419 H 972.746 0.702451 5.84696 0
M  V30 31420 H 972.365 -2.09647 1.89651 0
M  V30 31421 H 972.176 -1.73358 0.160575 0
M  V30 31422 H 972.068 2.71695 -0.195838 0
M  V30 31423 P 970.834 6.144 6.45285 0
M  V30 31424 O 970.614 7.54673 6.86199 0
M  V30 31425 O 970.044 5.12391 7.179 0
M  V30 31426 O 970.584 5.99158 4.88404 0
M  V30 31427 C 971.524 6.60234 3.96415 0
M  V30 31428 C 970.794 7.08259 2.72856 0
M  V30 31429 O 970.584 5.9427 1.83651 0
M  V30 31430 C 969.394 7.64886 2.9555 0
M  V30 31431 O 969.004 8.53963 1.90717 0
M  V30 31432 C 968.514 6.4116 2.90739 0
M  V30 31433 C 969.224 5.55375 1.86963 0
M  V30 31434 N 969.174 4.09664 2.15742 0
M  V30 31435 H 972.013 7.45574 4.45629 0
M  V30 31436 H 972.285 5.86232 3.67314 0
M  V30 31437 H 971.417 7.84412 2.24479 0
M  V30 31438 P 967.454 8.7635 1.60911 0
M  V30 31439 O 967.234 10.1388 1.11561 0
M  V30 31440 O 966.664 8.36503 2.79617 0
M  V30 31441 O 967.204 7.71806 0.42951 0
M  V30 31442 C 968.144 7.66948 -0.673514 0
M  V30 31443 C 967.414 7.33374 -1.95559 0
M  V30 31444 O 967.204 5.88721 -2.00726 0
M  V30 31445 C 966.014 7.92218 -2.1125 0
M  V30 31446 O 965.624 8.02971 -3.47653 0
M  V30 31447 C 965.134 6.89504 -1.41631 0
M  V30 31448 C 965.844 5.59106 -1.75155 0
M  V30 31449 N 965.794 4.58136 -0.662409 0
M  V30 31450 C 965.644 3.26059 -1.02863 0
M  V30 31451 O 965.554 2.90743 -2.19009 0
M  V30 31452 N 965.604 2.35995 0.0155585 0
M  V30 31453 C 965.694 2.65248 1.35603 0
M  V30 31454 C 965.844 4.05747 1.64698 0
M  V30 31455 C 965.894 4.96734 0.652411 0
M  V30 31456 H 968.635 8.64917 -0.776982 0
M  V30 31457 H 968.904 6.89974 -0.474015 0
M  V30 31458 H 968.037 7.66548 -2.79458 0
M  V30 31459 H 965.382 5.16076 -2.65138 0
M  V30 31460 H 965.103 7.06433 -0.329384 0
M  V30 31461 H 964.111 6.90829 -1.81996 0
M  V30 31462 H 965.945 8.90774 -1.62639 0
M  V30 31463 H 966.016 6.02181 0.895285 0
M  V30 31464 P 964.074 8.03563 -3.84925 0
M  V30 31465 O 963.854 8.85821 -5.0569 0
M  V30 31466 O 963.284 8.41101 -2.65469 0
M  V30 31467 O 963.824 6.4965 -4.18908 0
M  V30 31468 C 964.764 5.81037 -5.05421 0
M  V30 31469 C 964.034 4.78366 -5.89277 0
M  V30 31470 O 963.824 3.58302 -5.08433 0
M  V30 31471 C 962.634 5.17448 -6.36119 0
M  V30 31472 O 962.244 4.45271 -7.53232 0
M  V30 31473 C 961.754 4.74639 -5.19936 0
M  V30 31474 C 962.464 3.49432 -4.70418 0
M  V30 31475 N 962.414 3.32099 -3.22613 0
M  V30 31476 H 965.253 6.54213 -5.71376 0
M  V30 31477 H 965.525 5.30936 -4.43503 0
M  V30 31478 H 964.657 4.55889 -6.76652 0
M  V30 31479 H 962.002 2.61715 -5.17932 0
M  V30 31480 H 961.722 5.52155 -4.41878 0
M  V30 31481 H 960.731 4.51981 -5.53374 0
M  V30 31482 H 962.565 6.25124 -6.55234 0
M  V30 31483 P 960.694 4.23843 -7.83734 0
M  V30 31484 O 960.474 4.19407 -9.29784 0
M  V30 31485 O 959.904 5.24426 -7.09156 0
M  V30 31486 O 960.444 2.7935 -7.20758 0
M  V30 31487 C 961.384 1.7299 -7.50419 0
M  V30 31488 C 960.654 0.406376 -7.57911 0
M  V30 31489 O 960.444 -0.0897726 -6.21935 0
M  V30 31490 C 959.254 0.447224 -8.1878 0
M  V30 31491 O 958.864 -0.825065 -8.71101 0
M  V30 31492 C 958.374 0.783801 -6.99623 0
M  V30 31493 C 959.084 0.0619192 -5.85967 0
M  V30 31494 N 959.034 0.7859 -4.56281 0
M  V30 31495 H 961.873 1.93423 -8.4679 0
M  V30 31496 H 962.145 1.68181 -6.71046 0
M  V30 31497 H 961.277 -0.289041 -8.15388 0
M  V30 31498 P 957.314 -1.17771 -8.83182 0
M  V30 31499 O 957.094 -2.07206 -9.98732 0
M  V30 31500 O 956.524 0.0743816 -8.81969 0
M  V30 31501 O 957.064 -1.97652 -7.47304 0
M  V30 31502 C 958.004 -3.01133 -7.08783 0
M  V30 31503 C 957.274 -4.12613 -6.37049 0
M  V30 31504 O 957.064 -3.72827 -4.97879 0
M  V30 31505 C 955.874 -4.45085 -6.88694 0
M  V30 31506 O 955.484 -5.7877 -6.5624 0
M  V30 31507 C 954.994 -3.47817 -6.12078 0
M  V30 31508 C 955.704 -3.39414 -4.77697 0
M  V30 31509 N 955.654 -2.04615 -4.15333 0
M  V30 31510 H 958.493 -3.41248 -7.98759 0
M  V30 31511 H 958.765 -2.5837 -6.41742 0
M  V30 31512 H 957.897 -5.02657 -6.42673 0
M  V30 31513 P 953.934 -6.144 -6.45285 0
M  V30 31514 O 953.714 -7.54673 -6.86199 0
M  V30 31515 O 953.144 -5.12391 -7.179 0
M  V30 31516 O 953.684 -5.99158 -4.88404 0
M  V30 31517 C 954.624 -6.60234 -3.96415 0
M  V30 31518 C 953.894 -7.08259 -2.72856 0
M  V30 31519 O 953.684 -5.9427 -1.83651 0
M  V30 31520 C 952.494 -7.64886 -2.9555 0
M  V30 31521 O 952.104 -8.53963 -1.90717 0
M  V30 31522 C 951.614 -6.4116 -2.90739 0
M  V30 31523 C 952.324 -5.55375 -1.86963 0
M  V30 31524 N 952.274 -4.09664 -2.15742 0
M  V30 31525 C 952.354 -3.44381 -3.37233 0
M  V30 31526 N 952.274 -2.14131 -3.28347 0
M  V30 31527 C 952.134 -1.90247 -1.91588 0
M  V30 31528 C 952.004 -0.683992 -1.20892 0
M  V30 31529 N 951.884 -0.903396 0.173998 0
M  V30 31530 C 951.884 -2.14171 0.784879 0
M  V30 31531 N 951.754 -2.1435 2.11317 0
M  V30 31532 N 952.014 -3.28784 0.119316 0
M  V30 31533 C 952.134 -3.0977 -1.22194 0
M  V30 31534 H 955.113 -7.45574 -4.45629 0
M  V30 31535 H 955.385 -5.86232 -3.67314 0
M  V30 31536 H 954.517 -7.84412 -2.24479 0
M  V30 31537 P 950.554 -8.7635 -1.60911 0
M  V30 31538 O 950.334 -10.1388 -1.11561 0
M  V30 31539 O 949.764 -8.36503 -2.79617 0
M  V30 31540 O 950.304 -7.71806 -0.42951 0
M  V30 31541 C 951.244 -7.67148 0.673689 0
M  V30 31542 C 950.514 -7.33374 1.95559 0
M  V30 31543 O 950.304 -5.88721 2.00726 0
M  V30 31544 C 949.114 -7.92526 2.10483 0
M  V30 31545 O 948.724 -8.02971 3.47653 0
M  V30 31546 C 948.234 -6.89602 1.41652 0
M  V30 31547 C 948.944 -5.59201 1.75185 0
M  V30 31548 N 948.894 -4.58301 0.657969 0
M  V30 31549 H 951.733 -8.65116 0.777161 0
M  V30 31550 H 952.005 -6.9022 0.46725 0
M  V30 31551 H 951.137 -7.66548 2.79458 0
M  V30 31552 H 948.482 -5.16165 2.65183 0
M  V30 31553 H 948.202 -7.06433 0.329384 0
M  V30 31554 H 947.211 -6.90926 1.82021 0
M  V30 31555 H 949.045 -8.90873 1.62657 0
M  V30 31556 P 947.174 -8.03563 3.84925 0
M  V30 31557 O 946.954 -8.85821 5.0569 0
M  V30 31558 O 946.384 -8.41101 2.65469 0
M  V30 31559 O 946.924 -6.4965 4.18908 0
M  V30 31560 C 947.864 -5.81037 5.05421 0
M  V30 31561 C 947.134 -4.78366 5.89277 0
M  V30 31562 O 946.924 -3.58302 5.08433 0
M  V30 31563 C 945.734 -5.17448 6.36119 0
M  V30 31564 O 945.344 -4.45271 7.53232 0
M  V30 31565 C 944.854 -4.74639 5.19936 0
M  V30 31566 C 945.564 -3.49432 4.70418 0
M  V30 31567 N 945.514 -3.32099 3.22613 0
M  V30 31568 H 948.353 -6.54213 5.71376 0
M  V30 31569 H 948.625 -5.30936 4.43503 0
M  V30 31570 H 947.757 -4.55889 6.76652 0
M  V30 31571 H 945.102 -2.61715 5.17932 0
M  V30 31572 H 944.822 -5.52155 4.41878 0
M  V30 31573 H 943.831 -4.51981 5.53374 0
M  V30 31574 H 945.665 -6.25124 6.55234 0
M  V30 31575 P 943.794 -4.23843 7.83734 0
M  V30 31576 O 943.574 -4.19407 9.29784 0
M  V30 31577 O 943.004 -5.24426 7.09156 0
M  V30 31578 O 943.544 -2.7935 7.20758 0
M  V30 31579 C 944.484 -1.7299 7.50419 0
M  V30 31580 C 943.754 -0.406376 7.57911 0
M  V30 31581 O 943.544 0.0897726 6.21935 0
M  V30 31582 C 942.354 -0.447224 8.1878 0
M  V30 31583 O 941.964 0.825065 8.71101 0
M  V30 31584 C 941.474 -0.783801 6.99623 0
M  V30 31585 C 942.184 -0.0619192 5.85967 0
M  V30 31586 N 942.134 -0.7859 4.56281 0
M  V30 31587 H 944.973 -1.93423 8.4679 0
M  V30 31588 H 945.245 -1.68181 6.71046 0
M  V30 31589 H 944.377 0.289041 8.15388 0
M  V30 31590 P 940.414 1.17771 8.83182 0
M  V30 31591 O 940.194 2.07206 9.98732 0
M  V30 31592 O 939.624 -0.0743816 8.81969 0
M  V30 31593 O 940.164 1.97652 7.47304 0
M  V30 31594 C 941.104 3.01133 7.08783 0
M  V30 31595 C 940.374 4.12613 6.37049 0
M  V30 31596 O 940.164 3.72827 4.97879 0
M  V30 31597 C 938.974 4.45085 6.88694 0
M  V30 31598 O 938.584 5.7877 6.5624 0
M  V30 31599 C 938.094 3.47817 6.12078 0
M  V30 31600 C 938.804 3.39414 4.77697 0
M  V30 31601 N 938.754 2.04615 4.15333 0
M  V30 31602 H 941.593 3.41248 7.98759 0
M  V30 31603 H 941.865 2.5837 6.41742 0
M  V30 31604 H 940.997 5.02657 6.42673 0
M  V30 31605 P 937.034 6.144 6.45285 0
M  V30 31606 O 936.814 7.54673 6.86199 0
M  V30 31607 O 936.244 5.12391 7.179 0
M  V30 31608 O 936.784 5.99236 4.88467 0
M  V30 31609 C 937.724 6.60234 3.96415 0
M  V30 31610 C 936.994 7.08079 2.736 0
M  V30 31611 O 936.784 5.94365 1.8368 0
M  V30 31612 C 935.594 7.64886 2.9555 0
M  V30 31613 O 935.204 8.5406 1.90739 0
M  V30 31614 C 934.714 6.4116 2.90739 0
M  V30 31615 C 935.424 5.55375 1.86963 0
M  V30 31616 N 935.374 4.09664 2.15742 0
M  V30 31617 C 935.224 3.22231 1.08477 0
M  V30 31618 O 935.134 3.68951 -0.0600489 0
M  V30 31619 N 935.174 1.76692 1.48799 0
M  V30 31620 C 935.274 1.41695 2.57602 0
M  V30 31621 N 935.224 0.107296 2.75791 0
M  V30 31622 C 935.424 2.29178 3.69733 0
M  V30 31623 C 935.474 3.62753 3.42653 0
M  V30 31624 H 938.214 7.45488 4.45578 0
M  V30 31625 H 938.484 5.86232 3.67314 0
M  V30 31626 H 937.617 7.84508 2.24507 0
M  V30 31627 H 934.962 5.73556 0.888715 0
M  V30 31628 H 934.682 5.9096 3.88638 0
M  V30 31629 H 933.691 6.66053 2.58894 0
M  V30 31630 H 935.525 8.16339 3.92049 0
M  V30 31631 H 935.597 4.33052 4.24913 0
M  V30 31632 H 935.495 1.9103 4.71577 0
M  V30 31633 H 935.107 -0.521221 1.95056 0
M  V30 31634 H 935.303 -0.286429 3.70695 0
M  V30 31635 P 933.655 8.7635 1.60911 0
M  V30 31636 O 933.435 10.1388 1.11561 0
M  V30 31637 O 932.865 8.36503 2.79617 0
M  V30 31638 O 933.405 7.71806 0.42951 0
M  V30 31639 C 934.345 7.67148 -0.673689 0
M  V30 31640 C 933.615 7.33374 -1.95559 0
M  V30 31641 O 933.405 5.88721 -2.00726 0
M  V30 31642 C 932.215 7.92526 -2.10483 0
M  V30 31643 O 931.825 8.02971 -3.47653 0
M  V30 31644 C 931.335 6.89602 -1.41652 0
M  V30 31645 C 932.045 5.59201 -1.75185 0
M  V30 31646 N 931.995 4.58235 -0.662552 0
M  V30 31647 H 934.834 8.65116 -0.777161 0
M  V30 31648 H 935.106 6.90173 -0.474152 0
M  V30 31649 H 934.238 7.66548 -2.79458 0
M  V30 31650 P 930.275 8.03563 -3.84925 0
M  V30 31651 O 930.055 8.85821 -5.0569 0
M  V30 31652 O 929.485 8.41101 -2.65469 0
M  V30 31653 O 930.025 6.4965 -4.18908 0
M  V30 31654 C 930.965 5.81037 -5.05421 0
M  V30 31655 C 930.235 4.78366 -5.89277 0
M  V30 31656 O 930.025 3.58302 -5.08433 0
M  V30 31657 C 928.835 5.17448 -6.36119 0
M  V30 31658 O 928.445 4.45271 -7.53232 0
M  V30 31659 C 927.955 4.74639 -5.19936 0
M  V30 31660 C 928.665 3.49432 -4.70418 0
M  V30 31661 N 928.615 3.31776 -3.22945 0
M  V30 31662 H 931.454 6.54213 -5.71376 0
M  V30 31663 H 931.726 5.30492 -4.44033 0
M  V30 31664 H 930.858 4.55889 -6.76652 0
M  V30 31665 P 926.895 4.23843 -7.83734 0
M  V30 31666 O 926.675 4.19407 -9.29784 0
M  V30 31667 O 926.105 5.24426 -7.09156 0
M  V30 31668 O 926.645 2.7935 -7.20758 0
M  V30 31669 C 927.585 1.7299 -7.50419 0
M  V30 31670 C 926.855 0.406376 -7.57911 0
M  V30 31671 O 926.645 -0.0897726 -6.21935 0
M  V30 31672 C 925.455 0.447224 -8.1878 0
M  V30 31673 O 925.065 -0.825065 -8.71101 0
M  V30 31674 C 924.575 0.783801 -6.99623 0
M  V30 31675 C 925.285 0.0619192 -5.85967 0
M  V30 31676 N 925.235 0.7859 -4.56281 0
M  V30 31677 H 928.074 1.93423 -8.4679 0
M  V30 31678 H 928.346 1.68181 -6.71046 0
M  V30 31679 H 927.478 -0.289041 -8.15388 0
M  V30 31680 P 923.515 -1.17771 -8.83182 0
M  V30 31681 O 923.295 -2.07206 -9.98732 0
M  V30 31682 O 922.725 0.0743816 -8.81969 0
M  V30 31683 O 923.265 -1.97652 -7.47304 0
M  V30 31684 C 924.205 -3.01133 -7.08783 0
M  V30 31685 C 923.475 -4.12613 -6.37049 0
M  V30 31686 O 923.265 -3.72827 -4.97879 0
M  V30 31687 C 922.075 -4.45085 -6.88694 0
M  V30 31688 O 921.685 -5.7877 -6.5624 0
M  V30 31689 C 921.195 -3.47817 -6.12078 0
M  V30 31690 C 921.905 -3.39414 -4.77697 0
M  V30 31691 N 921.855 -2.04615 -4.15333 0
M  V30 31692 H 924.694 -3.41248 -7.98759 0
M  V30 31693 H 924.966 -2.5837 -6.41742 0
M  V30 31694 H 924.098 -5.02657 -6.42673 0
M  V30 31695 P 920.135 -6.144 -6.45285 0
M  V30 31696 O 919.915 -7.54673 -6.86199 0
M  V30 31697 O 919.345 -5.12391 -7.179 0
M  V30 31698 O 919.885 -5.99158 -4.88404 0
M  V30 31699 C 920.825 -6.60062 -3.96313 0
M  V30 31700 C 920.095 -7.08259 -2.72856 0
M  V30 31701 O 919.885 -5.9427 -1.83651 0
M  V30 31702 C 918.695 -7.65087 -2.94749 0
M  V30 31703 O 918.305 -8.53963 -1.90717 0
M  V30 31704 C 917.815 -6.41069 -2.90698 0
M  V30 31705 C 918.525 -5.5528 -1.86931 0
M  V30 31706 N 918.475 -4.09575 -2.15696 0
M  V30 31707 C 918.325 -3.24249 -1.08435 0
M  V30 31708 O 918.235 -3.63946 0.0628747 0
M  V30 31709 N 918.285 -1.90009 -1.39973 0
M  V30 31710 C 918.375 -1.34884 -2.65614 0
M  V30 31711 O 918.325 -0.123716 -2.81728 0
M  V30 31712 C 918.525 -2.3145 -3.71736 0
M  V30 31713 C 918.635 -1.75913 -5.10438 0
M  V30 31714 C 918.575 -3.63518 -3.44754 0
M  V30 31715 H 921.316 -7.45402 -4.45526 0
M  V30 31716 H 921.585 -5.86062 -3.67208 0
M  V30 31717 H 920.718 -7.84412 -2.24479 0
M  V30 31718 H 918.063 -5.73358 -0.888409 0
M  V30 31719 H 917.784 -5.90877 -3.88583 0
M  V30 31720 H 916.792 -6.65867 -2.58821 0
M  V30 31721 H 918.626 -8.16248 -3.92006 0
M  V30 31722 H 918.697 -4.34551 -4.26383 0
M  V30 31723 H 917.667 -1.85471 -5.61775 0
M  V30 31724 H 919.404 -2.31364 -5.66257 0
M  V30 31725 H 918.916 -0.695936 -5.05229 0
M  V30 31726 H 918.18 -1.26277 -0.63625 0
M  V30 31727 P 916.755 -8.7635 -1.60911 0
M  V30 31728 O 916.535 -10.1388 -1.11561 0
M  V30 31729 O 915.965 -8.36503 -2.79617 0
M  V30 31730 O 916.505 -7.71806 -0.42951 0
M  V30 31731 C 917.445 -7.66948 0.673514 0
M  V30 31732 C 916.715 -7.33374 1.95559 0
M  V30 31733 O 916.505 -5.88721 2.00726 0
M  V30 31734 C 915.315 -7.92218 2.1125 0
M  V30 31735 O 914.925 -8.02971 3.47653 0
M  V30 31736 C 914.435 -6.89504 1.41631 0
M  V30 31737 C 915.145 -5.59106 1.75155 0
M  V30 31738 N 915.095 -4.58136 0.662409 0
M  V30 31739 C 914.945 -3.26059 1.02863 0
M  V30 31740 O 914.855 -2.90743 2.19009 0
M  V30 31741 N 914.905 -2.35995 -0.0155585 0
M  V30 31742 C 914.995 -2.65248 -1.35603 0
M  V30 31743 O 914.945 -1.75605 -2.20651 0
M  V30 31744 C 915.145 -4.05747 -1.64698 0
M  V30 31745 C 915.255 -4.42345 -3.09553 0
M  V30 31746 C 915.195 -4.96734 -0.652411 0
M  V30 31747 H 917.936 -8.64917 0.776982 0
M  V30 31748 H 918.205 -6.89974 0.474015 0
M  V30 31749 H 917.338 -7.66548 2.79458 0
M  V30 31750 H 914.683 -5.16076 2.65138 0
M  V30 31751 H 914.404 -7.06433 0.329384 0
M  V30 31752 H 913.412 -6.90829 1.81996 0
M  V30 31753 H 915.246 -8.90774 1.62639 0
M  V30 31754 H 915.317 -6.02181 -0.895285 0
M  V30 31755 H 914.287 -4.80252 -3.45468 0
M  V30 31756 H 916.024 -5.20015 -3.22119 0
M  V30 31757 H 915.536 -3.53269 -3.67833 0
M  V30 31758 H 914.8 -1.39558 0.227499 0
M  V30 31759 P 913.375 -8.03563 3.84925 0
M  V30 31760 O 913.155 -8.85821 5.0569 0
M  V30 31761 O 912.585 -8.41101 2.65469 0
M  V30 31762 O 913.125 -6.4965 4.18908 0
M  V30 31763 C 914.065 -5.81037 5.05421 0
M  V30 31764 C 913.335 -4.78366 5.89277 0
M  V30 31765 O 913.125 -3.58302 5.08433 0
M  V30 31766 C 911.935 -5.17448 6.36119 0
M  V30 31767 O 911.545 -4.45271 7.53232 0
M  V30 31768 C 911.055 -4.74639 5.19936 0
M  V30 31769 C 911.765 -3.49432 4.70418 0
M  V30 31770 N 911.715 -3.31776 3.22945 0
M  V30 31771 H 914.554 -6.54213 5.71376 0
M  V30 31772 H 914.826 -5.30492 4.44033 0
M  V30 31773 H 913.958 -4.55889 6.76652 0
M  V30 31774 P 909.995 -4.23843 7.83734 0
M  V30 31775 O 909.775 -4.19407 9.29784 0
M  V30 31776 O 909.205 -5.24426 7.09156 0
M  V30 31777 O 909.745 -2.7935 7.20758 0
M  V30 31778 C 910.685 -1.7299 7.50419 0
M  V30 31779 C 909.955 -0.406376 7.57911 0
M  V30 31780 O 909.745 0.0897726 6.21935 0
M  V30 31781 C 908.555 -0.447224 8.1878 0
M  V30 31782 O 908.165 0.825065 8.71101 0
M  V30 31783 C 907.675 -0.783801 6.99623 0
M  V30 31784 C 908.385 -0.0619192 5.85967 0
M  V30 31785 N 908.335 -0.7859 4.56281 0
M  V30 31786 H 911.174 -1.93423 8.4679 0
M  V30 31787 H 911.446 -1.68181 6.71046 0
M  V30 31788 H 910.578 0.289041 8.15388 0
M  V30 31789 P 906.615 1.17771 8.83182 0
M  V30 31790 O 906.395 2.07206 9.98732 0
M  V30 31791 O 905.825 -0.0743816 8.81969 0
M  V30 31792 O 906.365 1.97652 7.47304 0
M  V30 31793 C 907.305 3.01133 7.08783 0
M  V30 31794 C 906.575 4.12613 6.37049 0
M  V30 31795 O 906.365 3.72827 4.97879 0
M  V30 31796 C 905.175 4.45085 6.88694 0
M  V30 31797 O 904.785 5.7877 6.5624 0
M  V30 31798 C 904.295 3.47817 6.12078 0
M  V30 31799 C 905.005 3.39414 4.77697 0
M  V30 31800 N 904.955 2.04615 4.15333 0
M  V30 31801 H 907.794 3.41248 7.98759 0
M  V30 31802 H 908.066 2.5837 6.41742 0
M  V30 31803 H 907.198 5.02657 6.42673 0
M  V30 31804 P 903.235 6.144 6.45285 0
M  V30 31805 O 903.015 7.54673 6.86199 0
M  V30 31806 O 902.445 5.12391 7.179 0
M  V30 31807 O 902.985 5.99158 4.88404 0
M  V30 31808 C 903.925 6.60234 3.96415 0
M  V30 31809 C 903.195 7.08259 2.72856 0
M  V30 31810 O 902.985 5.9427 1.83651 0
M  V30 31811 C 901.795 7.64886 2.9555 0
M  V30 31812 O 901.405 8.53963 1.90717 0
M  V30 31813 C 900.915 6.4116 2.90739 0
M  V30 31814 C 901.625 5.55375 1.86963 0
M  V30 31815 N 901.575 4.09664 2.15742 0
M  V30 31816 H 904.414 7.45574 4.45629 0
M  V30 31817 H 904.686 5.86232 3.67314 0
M  V30 31818 H 903.818 7.84412 2.24479 0
M  V30 31819 P 899.855 8.7635 1.60911 0
M  V30 31820 O 899.635 10.1388 1.11561 0
M  V30 31821 O 899.065 8.36503 2.79617 0
M  V30 31822 O 899.605 7.71806 0.42951 0
M  V30 31823 C 900.545 7.67148 -0.673689 0
M  V30 31824 C 899.815 7.33374 -1.95559 0
M  V30 31825 O 899.605 5.88721 -2.00726 0
M  V30 31826 C 898.415 7.92526 -2.10483 0
M  V30 31827 O 898.025 8.02971 -3.47653 0
M  V30 31828 C 897.535 6.89602 -1.41652 0
M  V30 31829 C 898.245 5.59201 -1.75185 0
M  V30 31830 N 898.195 4.58235 -0.662552 0
M  V30 31831 H 901.034 8.65116 -0.777161 0
M  V30 31832 H 901.306 6.90173 -0.474152 0
M  V30 31833 H 900.438 7.66548 -2.79458 0
M  V30 31834 P 896.475 8.03563 -3.84925 0
M  V30 31835 O 896.255 8.85821 -5.0569 0
M  V30 31836 O 895.685 8.41101 -2.65469 0
M  V30 31837 O 896.225 6.4965 -4.18908 0
M  V30 31838 C 897.165 5.81037 -5.05421 0
M  V30 31839 C 896.435 4.78366 -5.89277 0
M  V30 31840 O 896.225 3.58302 -5.08433 0
M  V30 31841 C 895.035 5.17448 -6.36119 0
M  V30 31842 O 894.645 4.45271 -7.53232 0
M  V30 31843 C 894.155 4.74639 -5.19936 0
M  V30 31844 C 894.865 3.49432 -4.70418 0
M  V30 31845 N 894.815 3.31776 -3.22945 0
M  V30 31846 H 897.654 6.54213 -5.71376 0
M  V30 31847 H 897.926 5.30492 -4.44033 0
M  V30 31848 H 897.058 4.55889 -6.76652 0
M  V30 31849 P 893.095 4.23843 -7.83734 0
M  V30 31850 O 892.875 4.19407 -9.29784 0
M  V30 31851 O 892.305 5.24426 -7.09156 0
M  V30 31852 O 892.845 2.7935 -7.20758 0
M  V30 31853 C 893.785 1.7299 -7.50419 0
M  V30 31854 C 893.055 0.406376 -7.57911 0
M  V30 31855 O 892.845 -0.0897726 -6.21935 0
M  V30 31856 C 891.655 0.447224 -8.1878 0
M  V30 31857 O 891.265 -0.825065 -8.71101 0
M  V30 31858 C 890.775 0.783801 -6.99623 0
M  V30 31859 C 891.485 0.0619192 -5.85967 0
M  V30 31860 N 891.435 0.7859 -4.56281 0
M  V30 31861 H 894.274 1.93423 -8.4679 0
M  V30 31862 H 894.546 1.68181 -6.71046 0
M  V30 31863 H 893.678 -0.289041 -8.15388 0
M  V30 31864 P 889.715 -1.17771 -8.83182 0
M  V30 31865 O 889.495 -2.07206 -9.98732 0
M  V30 31866 O 888.925 0.0743816 -8.81969 0
M  V30 31867 O 889.465 -1.97652 -7.47304 0
M  V30 31868 C 890.405 -3.01133 -7.08783 0
M  V30 31869 C 889.675 -4.12613 -6.37049 0
M  V30 31870 O 889.465 -3.72827 -4.97879 0
M  V30 31871 C 888.275 -4.45085 -6.88694 0
M  V30 31872 O 887.885 -5.7877 -6.5624 0
M  V30 31873 C 887.395 -3.47817 -6.12078 0
M  V30 31874 C 888.105 -3.39414 -4.77697 0
M  V30 31875 N 888.055 -2.04615 -4.15333 0
M  V30 31876 H 890.894 -3.41248 -7.98759 0
M  V30 31877 H 891.166 -2.5837 -6.41742 0
M  V30 31878 H 890.298 -5.02657 -6.42673 0
M  V30 31879 P 886.335 -6.144 -6.45285 0
M  V30 31880 O 886.115 -7.54673 -6.86199 0
M  V30 31881 O 885.545 -5.12391 -7.179 0
M  V30 31882 O 886.085 -5.99158 -4.88404 0
M  V30 31883 C 887.025 -6.60234 -3.96415 0
M  V30 31884 C 886.295 -7.08259 -2.72856 0
M  V30 31885 O 886.085 -5.9427 -1.83651 0
M  V30 31886 C 884.895 -7.64886 -2.9555 0
M  V30 31887 O 884.505 -8.53963 -1.90717 0
M  V30 31888 C 884.015 -6.4116 -2.90739 0
M  V30 31889 C 884.725 -5.55375 -1.86963 0
M  V30 31890 N 884.675 -4.09664 -2.15742 0
M  V30 31891 C 884.755 -3.44381 -3.37233 0
M  V30 31892 N 884.675 -2.14131 -3.28347 0
M  V30 31893 C 884.535 -1.90247 -1.91588 0
M  V30 31894 C 884.405 -0.683992 -1.20892 0
M  V30 31895 O 884.385 0.46618 -1.64523 0
M  V30 31896 N 884.285 -0.903396 0.173998 0
M  V30 31897 C 884.285 -2.14171 0.784879 0
M  V30 31898 N 884.155 -2.1435 2.11317 0
M  V30 31899 N 884.415 -3.28784 0.119316 0
M  V30 31900 C 884.535 -3.0977 -1.22194 0
M  V30 31901 H 887.514 -7.45574 -4.45629 0
M  V30 31902 H 887.786 -5.86232 -3.67314 0
M  V30 31903 H 886.918 -7.84412 -2.24479 0
M  V30 31904 H 884.263 -5.73556 -0.888715 0
M  V30 31905 H 883.983 -5.9096 -3.88638 0
M  V30 31906 H 882.992 -6.66053 -2.58894 0
M  V30 31907 H 884.826 -8.16429 -3.92093 0
M  V30 31908 H 884.875 -3.96785 -4.32043 0
M  V30 31909 H 884.193 -0.0999567 0.761467 0
M  V30 31910 H 884.156 -3.03436 2.63076 0
M  V30 31911 H 884.055 -1.25228 2.62233 0
M  V30 31912 P 882.955 -8.7635 -1.60911 0
M  V30 31913 O 882.735 -10.1388 -1.11561 0
M  V30 31914 O 882.165 -8.36503 -2.79617 0
M  V30 31915 O 882.705 -7.71806 -0.42951 0
M  V30 31916 C 883.645 -7.67148 0.673689 0
M  V30 31917 C 882.915 -7.33374 1.95559 0
M  V30 31918 O 882.705 -5.88721 2.00726 0
M  V30 31919 C 881.515 -7.92526 2.10483 0
M  V30 31920 O 881.125 -8.02971 3.47653 0
M  V30 31921 C 880.635 -6.89602 1.41652 0
M  V30 31922 C 881.345 -5.59201 1.75185 0
M  V30 31923 N 881.295 -4.58301 0.657969 0
M  V30 31924 C 881.375 -4.79019 -0.692603 0
M  V30 31925 N 881.305 -3.69736 -1.38998 0
M  V30 31926 C 881.155 -2.70474 -0.438135 0
M  V30 31927 C 881.025 -1.30327 -0.538142 0
M  V30 31928 N 881.015 -0.64304 -1.69192 0
M  V30 31929 N 880.905 -0.611027 0.605183 0
M  V30 31930 C 880.915 -1.27002 1.75953 0
M  V30 31931 N 881.035 -2.56038 1.98546 0
M  V30 31932 C 881.155 -3.22681 0.822541 0
M  V30 31933 H 884.134 -8.65116 0.777161 0
M  V30 31934 H 884.406 -6.9022 0.46725 0
M  V30 31935 H 883.538 -7.66548 2.79458 0
M  V30 31936 H 880.883 -5.16165 2.65183 0
M  V30 31937 H 880.603 -7.06433 0.329384 0
M  V30 31938 H 879.612 -6.90926 1.82021 0
M  V30 31939 H 881.446 -8.90873 1.62657 0
M  V30 31940 H 881.487 -5.77785 -1.13874 0
M  V30 31941 H 881.106 -1.15585 -2.57991 0
M  V30 31942 H 880.917 0.382989 -1.69835 0
M  V30 31943 H 880.809 -0.653331 2.64449 0
M  V30 31944 P 879.575 -8.03563 3.84925 0
M  V30 31945 O 879.355 -8.85821 5.0569 0
M  V30 31946 O 878.785 -8.41101 2.65469 0
M  V30 31947 O 879.325 -6.4965 4.18908 0
M  V30 31948 C 880.265 -5.81037 5.05421 0
M  V30 31949 C 879.535 -4.78366 5.89277 0
M  V30 31950 O 879.325 -3.58302 5.08433 0
M  V30 31951 C 878.135 -5.17448 6.36119 0
M  V30 31952 O 877.745 -4.45271 7.53232 0
M  V30 31953 C 877.255 -4.74639 5.19936 0
M  V30 31954 C 877.965 -3.49432 4.70418 0
M  V30 31955 N 877.915 -3.31776 3.22945 0
M  V30 31956 H 880.754 -6.54213 5.71376 0
M  V30 31957 H 881.026 -5.30492 4.44033 0
M  V30 31958 H 880.158 -4.55889 6.76652 0
M  V30 31959 P 876.195 -4.23843 7.83734 0
M  V30 31960 O 875.975 -4.19407 9.29784 0
M  V30 31961 O 875.405 -5.24426 7.09156 0
M  V30 31962 O 875.945 -2.7935 7.20758 0
M  V30 31963 C 876.885 -1.7299 7.50419 0
M  V30 31964 C 876.155 -0.406376 7.57911 0
M  V30 31965 O 875.945 0.0897726 6.21935 0
M  V30 31966 C 874.755 -0.447224 8.1878 0
M  V30 31967 O 874.365 0.825065 8.71101 0
M  V30 31968 C 873.875 -0.783801 6.99623 0
M  V30 31969 C 874.585 -0.0619192 5.85967 0
M  V30 31970 N 874.535 -0.7859 4.56281 0
M  V30 31971 H 877.374 -1.93423 8.4679 0
M  V30 31972 H 877.646 -1.68181 6.71046 0
M  V30 31973 H 876.778 0.289041 8.15388 0
M  V30 31974 P 872.815 1.17771 8.83182 0
M  V30 31975 O 872.595 2.07206 9.98732 0
M  V30 31976 O 872.025 -0.0743816 8.81969 0
M  V30 31977 O 872.565 1.97652 7.47304 0
M  V30 31978 C 873.505 3.01133 7.08783 0
M  V30 31979 C 872.775 4.12613 6.37049 0
M  V30 31980 O 872.565 3.72827 4.97879 0
M  V30 31981 C 871.375 4.45085 6.88694 0
M  V30 31982 O 870.985 5.7877 6.5624 0
M  V30 31983 C 870.495 3.47817 6.12078 0
M  V30 31984 C 871.205 3.39414 4.77697 0
M  V30 31985 N 871.155 2.04615 4.15333 0
M  V30 31986 H 873.994 3.41248 7.98759 0
M  V30 31987 H 874.266 2.5837 6.41742 0
M  V30 31988 H 873.398 5.02657 6.42673 0
M  V30 31989 P 869.435 6.144 6.45285 0
M  V30 31990 O 869.215 7.54673 6.86199 0
M  V30 31991 O 868.645 5.12391 7.179 0
M  V30 31992 O 869.185 5.99158 4.88404 0
M  V30 31993 C 870.125 6.60234 3.96415 0
M  V30 31994 C 869.395 7.08259 2.72856 0
M  V30 31995 O 869.185 5.9427 1.83651 0
M  V30 31996 C 867.995 7.64886 2.9555 0
M  V30 31997 O 867.605 8.53963 1.90717 0
M  V30 31998 C 867.115 6.4116 2.90739 0
M  V30 31999 C 867.825 5.55375 1.86963 0
M  V30 32000 N 867.775 4.09664 2.15742 0
M  V30 32001 H 870.614 7.45574 4.45629 0
M  V30 32002 H 870.886 5.86232 3.67314 0
M  V30 32003 H 870.018 7.84412 2.24479 0
M  V30 32004 P 866.055 8.7635 1.60911 0
M  V30 32005 O 865.835 10.1388 1.11561 0
M  V30 32006 O 865.265 8.36503 2.79617 0
M  V30 32007 O 865.805 7.71806 0.42951 0
M  V30 32008 C 866.745 7.67148 -0.673689 0
M  V30 32009 C 866.015 7.33374 -1.95559 0
M  V30 32010 O 865.805 5.88721 -2.00726 0
M  V30 32011 C 864.615 7.92526 -2.10483 0
M  V30 32012 O 864.225 8.02971 -3.47653 0
M  V30 32013 C 863.735 6.89602 -1.41652 0
M  V30 32014 C 864.445 5.59201 -1.75185 0
M  V30 32015 N 864.395 4.58235 -0.662552 0
M  V30 32016 H 867.234 8.65116 -0.777161 0
M  V30 32017 H 867.506 6.90173 -0.474152 0
M  V30 32018 H 866.638 7.66548 -2.79458 0
M  V30 32019 P 862.675 8.03563 -3.84925 0
M  V30 32020 O 862.455 8.85821 -5.0569 0
M  V30 32021 O 861.885 8.41101 -2.65469 0
M  V30 32022 O 862.425 6.4965 -4.18908 0
M  V30 32023 C 863.365 5.81037 -5.05421 0
M  V30 32024 C 862.635 4.78366 -5.89277 0
M  V30 32025 O 862.425 3.58302 -5.08433 0
M  V30 32026 C 861.235 5.17448 -6.36119 0
M  V30 32027 O 860.845 4.45271 -7.53232 0
M  V30 32028 C 860.355 4.74639 -5.19936 0
M  V30 32029 C 861.065 3.49432 -4.70418 0
M  V30 32030 N 861.015 3.32099 -3.22613 0
M  V30 32031 H 863.854 6.54213 -5.71376 0
M  V30 32032 H 864.126 5.30936 -4.43503 0
M  V30 32033 H 863.258 4.55889 -6.76652 0
M  V30 32034 H 860.603 2.61715 -5.17932 0
M  V30 32035 H 860.323 5.52155 -4.41878 0
M  V30 32036 H 859.332 4.51981 -5.53374 0
M  V30 32037 H 861.166 6.25124 -6.55234 0
M  V30 32038 P 859.295 4.23843 -7.83734 0
M  V30 32039 O 859.075 4.19407 -9.29784 0
M  V30 32040 O 858.505 5.24426 -7.09156 0
M  V30 32041 O 859.045 2.7935 -7.20758 0
M  V30 32042 C 859.985 1.7299 -7.50419 0
M  V30 32043 C 859.255 0.406376 -7.57911 0
M  V30 32044 O 859.045 -0.0897726 -6.21935 0
M  V30 32045 C 857.855 0.447224 -8.1878 0
M  V30 32046 O 857.465 -0.825065 -8.71101 0
M  V30 32047 C 856.975 0.783801 -6.99623 0
M  V30 32048 C 857.685 0.0619192 -5.85967 0
M  V30 32049 N 857.635 0.790462 -4.56202 0
M  V30 32050 C 857.715 2.13895 -4.34171 0
M  V30 32051 N 857.645 2.46449 -3.08687 0
M  V30 32052 C 857.495 1.2525 -2.43697 0
M  V30 32053 C 857.365 0.914535 -1.07318 0
M  V30 32054 N 857.355 1.80782 -0.0887348 0
M  V30 32055 N 857.245 -0.386745 -0.768133 0
M  V30 32056 C 857.255 -1.28096 -1.75159 0
M  V30 32057 N 857.375 -1.09708 -3.04861 0
M  V30 32058 C 857.495 0.214857 -3.32306 0
M  V30 32059 H 860.474 1.93423 -8.4679 0
M  V30 32060 H 860.746 1.68852 -6.70877 0
M  V30 32061 H 859.878 -0.289041 -8.15388 0
M  V30 32062 H 857.223 -0.927006 -5.72848 0
M  V30 32063 H 856.943 1.86973 -6.82036 0
M  V30 32064 H 855.952 0.403953 -7.13357 0
M  V30 32065 H 857.786 1.20599 -8.97534 0
M  V30 32066 H 857.827 2.86846 -5.14318 0
M  V30 32067 H 857.446 2.81082 -0.302037 0
M  V30 32068 H 857.257 1.49688 0.889064 0
M  V30 32069 H 857.149 -2.31317 -1.43855 0
M  V30 32070 P 855.915 -1.17771 -8.83182 0
M  V30 32071 O 855.695 -2.07206 -9.98732 0
M  V30 32072 O 855.125 0.0743816 -8.81969 0
M  V30 32073 O 855.665 -1.97652 -7.47304 0
M  V30 32074 C 856.605 -3.01133 -7.08783 0
M  V30 32075 C 855.875 -4.12613 -6.37049 0
M  V30 32076 O 855.665 -3.72827 -4.97879 0
M  V30 32077 C 854.475 -4.45085 -6.88694 0
M  V30 32078 O 854.085 -5.7877 -6.5624 0
M  V30 32079 C 853.595 -3.47817 -6.12078 0
M  V30 32080 C 854.305 -3.39414 -4.77697 0
M  V30 32081 N 854.255 -2.04199 -4.15538 0
M  V30 32082 H 857.094 -3.41248 -7.98759 0
M  V30 32083 H 857.366 -2.57728 -6.42 0
M  V30 32084 H 856.498 -5.02657 -6.42673 0
M  V30 32085 H 853.843 -4.11708 -4.08956 0
M  V30 32086 H 853.563 -2.49626 -6.61679 0
M  V30 32087 H 852.572 -3.8662 -6.00862 0
M  V30 32088 H 854.406 -4.29991 -7.97006 0
M  V30 32089 P 852.535 -6.144 -6.45285 0
M  V30 32090 O 852.315 -7.54673 -6.86199 0
M  V30 32091 O 851.745 -5.12391 -7.179 0
M  V30 32092 O 852.285 -5.99158 -4.88404 0
M  V30 32093 C 853.225 -6.60234 -3.96415 0
M  V30 32094 C 852.495 -7.08259 -2.72856 0
M  V30 32095 O 852.285 -5.9427 -1.83651 0
M  V30 32096 C 851.095 -7.64886 -2.9555 0
M  V30 32097 O 850.705 -8.53963 -1.90717 0
M  V30 32098 C 850.215 -6.4116 -2.90739 0
M  V30 32099 C 850.925 -5.55375 -1.86963 0
M  V30 32100 N 850.875 -4.09664 -2.15742 0
M  V30 32101 H 853.714 -7.45574 -4.45629 0
M  V30 32102 H 853.986 -5.86232 -3.67314 0
M  V30 32103 H 853.118 -7.84412 -2.24479 0
M  V30 32104 P 849.155 -8.7635 -1.60911 0
M  V30 32105 O 848.935 -10.1388 -1.11561 0
M  V30 32106 O 848.365 -8.36503 -2.79617 0
M  V30 32107 O 848.905 -7.71806 -0.42951 0
M  V30 32108 C 849.845 -7.67148 0.673689 0
M  V30 32109 C 849.115 -7.33374 1.95559 0
M  V30 32110 O 848.905 -5.88721 2.00726 0
M  V30 32111 C 847.715 -7.92526 2.10483 0
M  V30 32112 O 847.325 -8.02971 3.47653 0
M  V30 32113 C 846.835 -6.89602 1.41652 0
M  V30 32114 C 847.545 -5.59201 1.75185 0
M  V30 32115 N 847.495 -4.58301 0.657969 0
M  V30 32116 C 847.575 -4.79019 -0.692603 0
M  V30 32117 N 847.505 -3.69736 -1.38998 0
M  V30 32118 C 847.355 -2.70474 -0.438135 0
M  V30 32119 C 847.225 -1.30327 -0.538142 0
M  V30 32120 N 847.215 -0.64304 -1.69192 0
M  V30 32121 N 847.105 -0.611027 0.605183 0
M  V30 32122 C 847.115 -1.27002 1.75953 0
M  V30 32123 N 847.235 -2.56038 1.98546 0
M  V30 32124 C 847.355 -3.22681 0.822541 0
M  V30 32125 H 850.334 -8.65116 0.777161 0
M  V30 32126 H 850.606 -6.9022 0.46725 0
M  V30 32127 H 849.738 -7.66548 2.79458 0
M  V30 32128 H 847.083 -5.16165 2.65183 0
M  V30 32129 H 846.803 -7.06433 0.329384 0
M  V30 32130 H 845.812 -6.90926 1.82021 0
M  V30 32131 H 847.646 -8.90873 1.62657 0
M  V30 32132 H 847.687 -5.77785 -1.13874 0
M  V30 32133 H 847.306 -1.15585 -2.57991 0
M  V30 32134 H 847.117 0.382989 -1.69835 0
M  V30 32135 H 847.009 -0.653331 2.64449 0
M  V30 32136 P 845.775 -8.03563 3.84925 0
M  V30 32137 O 845.555 -8.85821 5.0569 0
M  V30 32138 O 844.985 -8.41101 2.65469 0
M  V30 32139 O 845.525 -6.4965 4.18908 0
M  V30 32140 C 846.465 -5.80886 5.05289 0
M  V30 32141 C 845.735 -4.78366 5.89277 0
M  V30 32142 O 845.525 -3.58302 5.08433 0
M  V30 32143 C 844.335 -5.16748 6.36559 0
M  V30 32144 O 843.945 -4.45271 7.53232 0
M  V30 32145 C 843.455 -4.74572 5.19863 0
M  V30 32146 C 844.165 -3.49373 4.70338 0
M  V30 32147 N 844.115 -3.31704 3.22876 0
M  V30 32148 C 843.965 -2.03326 2.74871 0
M  V30 32149 O 843.875 -1.06486 3.48076 0
M  V30 32150 N 843.925 -1.91838 1.37456 0
M  V30 32151 C 844.015 -2.94295 0.462035 0
M  V30 32152 O 843.965 -2.71763 -0.752928 0
M  V30 32153 C 844.165 -4.25064 1.05249 0
M  V30 32154 C 844.275 -5.39815 0.095697 0
M  V30 32155 C 844.215 -4.40214 2.39192 0
M  V30 32156 H 846.956 -6.54063 5.71245 0
M  V30 32157 H 847.225 -5.30339 4.43905 0
M  V30 32158 H 846.358 -4.55889 6.76652 0
M  V30 32159 H 843.703 -2.6167 5.17842 0
M  V30 32160 H 843.424 -5.52155 4.41878 0
M  V30 32161 H 842.432 -4.51918 5.53297 0
M  V30 32162 H 844.266 -6.25055 6.55162 0
M  V30 32163 H 844.337 -5.39798 2.81523 0
M  V30 32164 H 843.307 -5.91593 0.0279582 0
M  V30 32165 H 845.044 -6.10038 0.450573 0
M  V30 32166 H 844.556 -5.02007 -0.89937 0
M  V30 32167 H 843.82 -0.995326 1.00435 0
M  V30 32168 P 842.395 -4.23843 7.83734 0
M  V30 32169 O 842.175 -4.19407 9.29784 0
M  V30 32170 O 841.605 -5.24426 7.09156 0
M  V30 32171 O 842.145 -2.7935 7.20758 0
M  V30 32172 C 843.085 -1.7299 7.50419 0
M  V30 32173 C 842.355 -0.406376 7.57911 0
M  V30 32174 O 842.145 0.0897726 6.21935 0
M  V30 32175 C 840.955 -0.447224 8.1878 0
M  V30 32176 O 840.565 0.825065 8.71101 0
M  V30 32177 C 840.075 -0.783801 6.99623 0
M  V30 32178 C 840.785 -0.0619192 5.85967 0
M  V30 32179 N 840.735 -0.7859 4.56281 0
M  V30 32180 H 843.574 -1.93423 8.4679 0
M  V30 32181 H 843.846 -1.68181 6.71046 0
M  V30 32182 H 842.978 0.289041 8.15388 0
M  V30 32183 P 839.015 1.17771 8.83182 0
M  V30 32184 O 838.795 2.07206 9.98732 0
M  V30 32185 O 838.225 -0.0743816 8.81969 0
M  V30 32186 O 838.765 1.97652 7.47304 0
M  V30 32187 C 839.705 3.01133 7.08783 0
M  V30 32188 C 838.975 4.12613 6.37049 0
M  V30 32189 O 838.765 3.72827 4.97879 0
M  V30 32190 C 837.575 4.45085 6.88694 0
M  V30 32191 O 837.185 5.7877 6.5624 0
M  V30 32192 C 836.695 3.47817 6.12078 0
M  V30 32193 C 837.405 3.39414 4.77697 0
M  V30 32194 N 837.355 2.04615 4.15333 0
M  V30 32195 H 840.194 3.41248 7.98759 0
M  V30 32196 H 840.466 2.5837 6.41742 0
M  V30 32197 H 839.598 5.02657 6.42673 0
M  V30 32198 P 835.635 6.144 6.45285 0
M  V30 32199 O 835.415 7.54673 6.86199 0
M  V30 32200 O 834.845 5.12391 7.179 0
M  V30 32201 O 835.385 5.99158 4.88404 0
M  V30 32202 C 836.325 6.60234 3.96415 0
M  V30 32203 C 835.595 7.08259 2.72856 0
M  V30 32204 O 835.385 5.9427 1.83651 0
M  V30 32205 C 834.195 7.64886 2.9555 0
M  V30 32206 O 833.805 8.53963 1.90717 0
M  V30 32207 C 833.315 6.4116 2.90739 0
M  V30 32208 C 834.025 5.55375 1.86963 0
M  V30 32209 N 833.975 4.09664 2.15742 0
M  V30 32210 C 834.055 3.44381 3.37233 0
M  V30 32211 N 833.975 2.14131 3.28347 0
M  V30 32212 C 833.835 1.90247 1.91588 0
M  V30 32213 C 833.705 0.683992 1.20892 0
M  V30 32214 N 833.585 0.903396 -0.173998 0
M  V30 32215 C 833.585 2.14171 -0.784879 0
M  V30 32216 N 833.455 2.1435 -2.11317 0
M  V30 32217 N 833.715 3.28784 -0.119316 0
M  V30 32218 C 833.835 3.0977 1.22194 0
M  V30 32219 H 836.814 7.45574 4.45629 0
M  V30 32220 H 837.086 5.86232 3.67314 0
M  V30 32221 H 836.218 7.84412 2.24479 0
M  V30 32222 P 832.255 8.7635 1.60911 0
M  V30 32223 O 832.035 10.1388 1.11561 0
M  V30 32224 O 831.465 8.36503 2.79617 0
M  V30 32225 O 832.005 7.71806 0.42951 0
M  V30 32226 C 832.945 7.67148 -0.673689 0
M  V30 32227 C 832.215 7.33374 -1.95559 0
M  V30 32228 O 832.005 5.88721 -2.00726 0
M  V30 32229 C 830.815 7.92526 -2.10483 0
M  V30 32230 O 830.425 8.02971 -3.47653 0
M  V30 32231 C 829.935 6.89602 -1.41652 0
M  V30 32232 C 830.645 5.59201 -1.75185 0
M  V30 32233 N 830.595 4.58301 -0.657969 0
M  V30 32234 H 833.434 8.65116 -0.777161 0
M  V30 32235 H 833.706 6.9022 -0.46725 0
M  V30 32236 H 832.838 7.66548 -2.79458 0
M  V30 32237 H 830.183 5.16165 -2.65183 0
M  V30 32238 H 829.903 7.06433 -0.329384 0
M  V30 32239 H 828.912 6.90926 -1.82021 0
M  V30 32240 H 830.746 8.90873 -1.62657 0
M  V30 32241 P 828.875 8.03563 -3.84925 0
M  V30 32242 O 828.655 8.85821 -5.0569 0
M  V30 32243 O 828.085 8.41101 -2.65469 0
M  V30 32244 O 828.625 6.4965 -4.18908 0
M  V30 32245 C 829.565 5.81037 -5.05421 0
M  V30 32246 C 828.835 4.78366 -5.89277 0
M  V30 32247 O 828.625 3.58302 -5.08433 0
M  V30 32248 C 827.435 5.17448 -6.36119 0
M  V30 32249 O 827.045 4.45271 -7.53232 0
M  V30 32250 C 826.555 4.74639 -5.19936 0
M  V30 32251 C 827.265 3.49432 -4.70418 0
M  V30 32252 N 827.215 3.31776 -3.22945 0
M  V30 32253 H 830.054 6.54213 -5.71376 0
M  V30 32254 H 830.326 5.30492 -4.44033 0
M  V30 32255 H 829.458 4.55889 -6.76652 0
M  V30 32256 P 825.495 4.23843 -7.83734 0
M  V30 32257 O 825.275 4.19407 -9.29784 0
M  V30 32258 O 824.705 5.24426 -7.09156 0
M  V30 32259 O 825.245 2.7935 -7.20758 0
M  V30 32260 C 826.185 1.7299 -7.50419 0
M  V30 32261 C 825.455 0.406376 -7.57911 0
M  V30 32262 O 825.245 -0.0897726 -6.21935 0
M  V30 32263 C 824.055 0.447224 -8.1878 0
M  V30 32264 O 823.665 -0.825065 -8.71101 0
M  V30 32265 C 823.175 0.783801 -6.99623 0
M  V30 32266 C 823.885 0.0619192 -5.85967 0
M  V30 32267 N 823.835 0.7859 -4.56281 0
M  V30 32268 C 823.915 2.14308 -4.31736 0
M  V30 32269 N 823.835 2.46106 -3.05116 0
M  V30 32270 C 823.695 1.23422 -2.4014 0
M  V30 32271 C 823.565 0.938381 -1.02409 0
M  V30 32272 N 823.445 -0.444647 -0.805413 0
M  V30 32273 C 823.445 -1.40829 -1.79435 0
M  V30 32274 N 823.315 -2.67213 -1.38558 0
M  V30 32275 N 823.575 -1.12947 -3.09005 0
M  V30 32276 C 823.695 0.204887 -3.32369 0
M  V30 32277 H 826.674 1.93423 -8.4679 0
M  V30 32278 H 826.946 1.68181 -6.71046 0
M  V30 32279 H 826.078 -0.289041 -8.15388 0
M  V30 32280 P 822.115 -1.17771 -8.83182 0
M  V30 32281 O 821.895 -2.07206 -9.98732 0
M  V30 32282 O 821.325 0.0743816 -8.81969 0
M  V30 32283 O 821.865 -1.97652 -7.47304 0
M  V30 32284 C 822.805 -3.01055 -7.08599 0
M  V30 32285 C 822.075 -4.12613 -6.37049 0
M  V30 32286 O 821.865 -3.72827 -4.97879 0
M  V30 32287 C 820.675 -4.45719 -6.88164 0
M  V30 32288 O 820.285 -5.7877 -6.5624 0
M  V30 32289 C 819.795 -3.47768 -6.11991 0
M  V30 32290 C 820.505 -3.39356 -4.77615 0
M  V30 32291 N 820.455 -2.04571 -4.15244 0
M  V30 32292 C 820.305 -1.98587 -2.78314 0
M  V30 32293 O 820.215 -2.98134 -2.08835 0
M  V30 32294 N 820.265 -0.714467 -2.24925 0
M  V30 32295 C 820.355 0.470001 -2.94169 0
M  V30 32296 O 820.305 1.55587 -2.35195 0
M  V30 32297 C 820.505 0.312541 -4.36783 0
M  V30 32298 C 820.615 1.57711 -5.16352 0
M  V30 32299 C 820.555 -0.914512 -4.92583 0
M  V30 32300 H 823.296 -3.41169 -7.98575 0
M  V30 32301 H 823.565 -2.58295 -6.41556 0
M  V30 32302 H 822.698 -5.02657 -6.42673 0
M  V30 32303 H 820.043 -4.11637 -4.08885 0
M  V30 32304 H 819.764 -2.49626 -6.61679 0
M  V30 32305 H 818.772 -3.86566 -6.00778 0
M  V30 32306 H 820.606 -4.29943 -7.96918 0
M  V30 32307 H 820.677 -1.00937 -6.00374 0
M  V30 32308 H 819.647 1.80153 -5.63503 0
M  V30 32309 H 821.384 1.4566 -5.94104 0
M  V30 32310 H 820.896 2.40664 -4.49645 0
M  V30 32311 H 820.16 -0.647622 -1.25697 0
M  V30 32312 P 818.735 -6.144 -6.45285 0
M  V30 32313 O 818.515 -7.54673 -6.86199 0
M  V30 32314 O 817.945 -5.12391 -7.179 0
M  V30 32315 O 818.485 -5.99158 -4.88404 0
M  V30 32316 C 819.425 -6.60234 -3.96415 0
M  V30 32317 C 818.695 -7.08259 -2.72856 0
M  V30 32318 O 818.485 -5.9427 -1.83651 0
M  V30 32319 C 817.295 -7.64886 -2.9555 0
M  V30 32320 O 816.905 -8.53963 -1.90717 0
M  V30 32321 C 816.415 -6.4116 -2.90739 0
M  V30 32322 C 817.125 -5.55375 -1.86963 0
M  V30 32323 N 817.075 -4.09664 -2.15742 0
M  V30 32324 H 819.914 -7.45574 -4.45629 0
M  V30 32325 H 820.186 -5.86232 -3.67314 0
M  V30 32326 H 819.318 -7.84412 -2.24479 0
M  V30 32327 P 815.355 -8.7635 -1.60911 0
M  V30 32328 O 815.135 -10.1388 -1.11561 0
M  V30 32329 O 814.565 -8.36503 -2.79617 0
M  V30 32330 O 815.105 -7.71806 -0.42951 0
M  V30 32331 C 816.045 -7.67148 0.673689 0
M  V30 32332 C 815.315 -7.33374 1.95559 0
M  V30 32333 O 815.105 -5.88721 2.00726 0
M  V30 32334 C 813.915 -7.92526 2.10483 0
M  V30 32335 O 813.525 -8.02971 3.47653 0
M  V30 32336 C 813.035 -6.89602 1.41652 0
M  V30 32337 C 813.745 -5.59201 1.75185 0
M  V30 32338 N 813.695 -4.58235 0.662552 0
M  V30 32339 H 816.534 -8.65116 0.777161 0
M  V30 32340 H 816.806 -6.90173 0.474152 0
M  V30 32341 H 815.938 -7.66548 2.79458 0
M  V30 32342 P 811.975 -8.03563 3.84925 0
M  V30 32343 O 811.755 -8.85821 5.0569 0
M  V30 32344 O 811.185 -8.41101 2.65469 0
M  V30 32345 O 811.725 -6.4965 4.18908 0
M  V30 32346 C 812.665 -5.81037 5.05421 0
M  V30 32347 C 811.935 -4.78366 5.89277 0
M  V30 32348 O 811.725 -3.58302 5.08433 0
M  V30 32349 C 810.535 -5.17448 6.36119 0
M  V30 32350 O 810.145 -4.45271 7.53232 0
M  V30 32351 C 809.655 -4.74639 5.19936 0
M  V30 32352 C 810.365 -3.49432 4.70418 0
M  V30 32353 N 810.315 -3.32099 3.22613 0
M  V30 32354 H 813.154 -6.54213 5.71376 0
M  V30 32355 H 813.426 -5.30936 4.43503 0
M  V30 32356 H 812.558 -4.55889 6.76652 0
M  V30 32357 H 809.903 -2.61715 5.17932 0
M  V30 32358 H 809.623 -5.52155 4.41878 0
M  V30 32359 H 808.632 -4.51981 5.53374 0
M  V30 32360 H 810.466 -6.25124 6.55234 0
M  V30 32361 P 808.595 -4.23843 7.83734 0
M  V30 32362 O 808.375 -4.19407 9.29784 0
M  V30 32363 O 807.805 -5.24426 7.09156 0
M  V30 32364 O 808.345 -2.7935 7.20758 0
M  V30 32365 C 809.285 -1.7299 7.50419 0
M  V30 32366 C 808.555 -0.406376 7.57911 0
M  V30 32367 O 808.345 0.0897726 6.21935 0
M  V30 32368 C 807.155 -0.447224 8.1878 0
M  V30 32369 O 806.765 0.825065 8.71101 0
M  V30 32370 C 806.275 -0.783801 6.99623 0
M  V30 32371 C 806.985 -0.0619192 5.85967 0
M  V30 32372 N 806.935 -0.7859 4.56281 0
M  V30 32373 H 809.774 -1.93423 8.4679 0
M  V30 32374 H 810.046 -1.68181 6.71046 0
M  V30 32375 H 809.178 0.289041 8.15388 0
M  V30 32376 P 805.215 1.17771 8.83182 0
M  V30 32377 O 804.995 2.07206 9.98732 0
M  V30 32378 O 804.425 -0.0743816 8.81969 0
M  V30 32379 O 804.965 1.97652 7.47304 0
M  V30 32380 C 805.905 3.01133 7.08783 0
M  V30 32381 C 805.175 4.12613 6.37049 0
M  V30 32382 O 804.965 3.72827 4.97879 0
M  V30 32383 C 803.775 4.45085 6.88694 0
M  V30 32384 O 803.385 5.7877 6.5624 0
M  V30 32385 C 802.895 3.47817 6.12078 0
M  V30 32386 C 803.605 3.39414 4.77697 0
M  V30 32387 N 803.555 2.04615 4.15333 0
M  V30 32388 H 806.394 3.41248 7.98759 0
M  V30 32389 H 806.666 2.5837 6.41742 0
M  V30 32390 H 805.798 5.02657 6.42673 0
M  V30 32391 P 801.835 6.144 6.45285 0
M  V30 32392 O 801.615 7.54673 6.86199 0
M  V30 32393 O 801.045 5.12391 7.179 0
M  V30 32394 O 801.585 5.99158 4.88404 0
M  V30 32395 C 802.525 6.60234 3.96415 0
M  V30 32396 C 801.795 7.08259 2.72856 0
M  V30 32397 O 801.585 5.9427 1.83651 0
M  V30 32398 C 800.395 7.64886 2.9555 0
M  V30 32399 O 800.005 8.53963 1.90717 0
M  V30 32400 C 799.515 6.4116 2.90739 0
M  V30 32401 C 800.225 5.55375 1.86963 0
M  V30 32402 N 800.175 4.09664 2.15742 0
M  V30 32403 H 803.014 7.45574 4.45629 0
M  V30 32404 H 803.286 5.86232 3.67314 0
M  V30 32405 H 802.418 7.84412 2.24479 0
M  V30 32406 P 798.455 8.7635 1.60911 0
M  V30 32407 O 798.235 10.1388 1.11561 0
M  V30 32408 O 797.665 8.36503 2.79617 0
M  V30 32409 O 798.205 7.71806 0.42951 0
M  V30 32410 C 799.145 7.67148 -0.673689 0
M  V30 32411 C 798.415 7.33374 -1.95559 0
M  V30 32412 O 798.205 5.88721 -2.00726 0
M  V30 32413 C 797.015 7.92526 -2.10483 0
M  V30 32414 O 796.625 8.02971 -3.47653 0
M  V30 32415 C 796.135 6.89602 -1.41652 0
M  V30 32416 C 796.845 5.59201 -1.75185 0
M  V30 32417 N 796.795 4.58235 -0.662552 0
M  V30 32418 H 799.634 8.65116 -0.777161 0
M  V30 32419 H 799.906 6.90173 -0.474152 0
M  V30 32420 H 799.038 7.66548 -2.79458 0
M  V30 32421 P 795.075 8.03563 -3.84925 0
M  V30 32422 O 794.855 8.85821 -5.0569 0
M  V30 32423 O 794.285 8.41101 -2.65469 0
M  V30 32424 O 794.825 6.4965 -4.18908 0
M  V30 32425 C 795.765 5.81037 -5.05421 0
M  V30 32426 C 795.035 4.78366 -5.89277 0
M  V30 32427 O 794.825 3.58302 -5.08433 0
M  V30 32428 C 793.635 5.17448 -6.36119 0
M  V30 32429 O 793.245 4.45271 -7.53232 0
M  V30 32430 C 792.755 4.74639 -5.19936 0
M  V30 32431 C 793.465 3.49432 -4.70418 0
M  V30 32432 N 793.415 3.32099 -3.22613 0
M  V30 32433 H 796.254 6.54213 -5.71376 0
M  V30 32434 H 796.526 5.30936 -4.43503 0
M  V30 32435 H 795.658 4.55889 -6.76652 0
M  V30 32436 H 793.003 2.61715 -5.17932 0
M  V30 32437 H 792.723 5.52155 -4.41878 0
M  V30 32438 H 791.732 4.51981 -5.53374 0
M  V30 32439 H 793.566 6.25124 -6.55234 0
M  V30 32440 P 791.695 4.23843 -7.83734 0
M  V30 32441 O 791.475 4.19407 -9.29784 0
M  V30 32442 O 790.905 5.24426 -7.09156 0
M  V30 32443 O 791.445 2.7935 -7.20758 0
M  V30 32444 C 792.385 1.72945 -7.50224 0
M  V30 32445 C 791.655 0.406376 -7.57911 0
M  V30 32446 O 791.445 -0.0897726 -6.21935 0
M  V30 32447 C 790.255 0.438983 -8.18724 0
M  V30 32448 O 789.865 -0.825065 -8.71101 0
M  V30 32449 C 789.375 0.783689 -6.99524 0
M  V30 32450 C 790.085 0.0619086 -5.85867 0
M  V30 32451 N 790.035 0.78573 -4.56183 0
M  V30 32452 C 789.885 0.0292889 -3.41887 0
M  V30 32453 O 789.795 -1.18445 -3.4419 0
M  V30 32454 N 789.845 0.744061 -2.23964 0
M  V30 32455 C 789.935 2.10932 -2.10362 0
M  V30 32456 O 789.885 2.64117 -0.98825 0
M  V30 32457 C 790.085 2.8202 -3.34994 0
M  V30 32458 C 790.195 4.31095 -3.25037 0
M  V30 32459 C 790.135 2.15547 -4.52261 0
M  V30 32460 H 792.876 1.93379 -8.46595 0
M  V30 32461 H 793.145 1.68132 -6.70852 0
M  V30 32462 H 792.278 -0.289041 -8.15388 0
M  V30 32463 H 789.623 -0.926847 -5.72749 0
M  V30 32464 H 789.344 1.86973 -6.82036 0
M  V30 32465 H 788.352 0.403896 -7.13257 0
M  V30 32466 H 790.186 1.20585 -8.97435 0
M  V30 32467 H 790.257 2.71231 -5.45042 0
M  V30 32468 H 789.227 4.76966 -3.49992 0
M  V30 32469 H 790.964 4.67047 -3.95024 0
M  V30 32470 H 790.476 4.58996 -2.22312 0
M  V30 32471 H 789.74 0.214893 -1.39758 0
M  V30 32472 P 788.315 -1.17771 -8.83182 0
M  V30 32473 O 788.095 -2.07206 -9.98732 0
M  V30 32474 O 787.525 0.0743816 -8.81969 0
M  V30 32475 O 788.065 -1.97652 -7.47304 0
M  V30 32476 C 789.005 -3.01055 -7.08599 0
M  V30 32477 C 788.275 -4.12613 -6.37049 0
M  V30 32478 O 788.065 -3.72827 -4.97879 0
M  V30 32479 C 786.875 -4.45719 -6.88164 0
M  V30 32480 O 786.485 -5.7877 -6.5624 0
M  V30 32481 C 785.995 -3.47768 -6.11991 0
M  V30 32482 C 786.705 -3.39356 -4.77615 0
M  V30 32483 N 786.655 -2.04571 -4.15244 0
M  V30 32484 C 786.505 -1.98587 -2.78314 0
M  V30 32485 O 786.415 -2.98134 -2.08835 0
M  V30 32486 N 786.465 -0.714467 -2.24925 0
M  V30 32487 C 786.555 0.470001 -2.94169 0
M  V30 32488 O 786.505 1.55587 -2.35195 0
M  V30 32489 C 786.705 0.312541 -4.36783 0
M  V30 32490 C 786.815 1.57711 -5.16352 0
M  V30 32491 C 786.755 -0.914512 -4.92583 0
M  V30 32492 H 789.496 -3.41169 -7.98575 0
M  V30 32493 H 789.765 -2.58295 -6.41556 0
M  V30 32494 H 788.898 -5.02657 -6.42673 0
M  V30 32495 H 786.243 -4.11637 -4.08885 0
M  V30 32496 H 785.964 -2.49626 -6.61679 0
M  V30 32497 H 784.972 -3.86566 -6.00778 0
M  V30 32498 H 786.806 -4.29943 -7.96918 0
M  V30 32499 H 786.877 -1.00937 -6.00374 0
M  V30 32500 H 785.847 1.80153 -5.63503 0
M  V30 32501 H 787.584 1.4566 -5.94104 0
M  V30 32502 H 787.096 2.40664 -4.49645 0
M  V30 32503 H 786.36 -0.647622 -1.25697 0
M  V30 32504 P 784.935 -6.144 -6.45285 0
M  V30 32505 O 784.715 -7.54673 -6.86199 0
M  V30 32506 O 784.145 -5.12391 -7.179 0
M  V30 32507 O 784.685 -5.99158 -4.88404 0
M  V30 32508 C 785.625 -6.60234 -3.96415 0
M  V30 32509 C 784.895 -7.08259 -2.72856 0
M  V30 32510 O 784.685 -5.9427 -1.83651 0
M  V30 32511 C 783.495 -7.64886 -2.9555 0
M  V30 32512 O 783.105 -8.53963 -1.90717 0
M  V30 32513 C 782.615 -6.4116 -2.90739 0
M  V30 32514 C 783.325 -5.55375 -1.86963 0
M  V30 32515 N 783.275 -4.09664 -2.15742 0
M  V30 32516 H 786.114 -7.45574 -4.45629 0
M  V30 32517 H 786.386 -5.86232 -3.67314 0
M  V30 32518 H 785.518 -7.84412 -2.24479 0
M  V30 32519 P 781.555 -8.7635 -1.60911 0
M  V30 32520 O 781.335 -10.1388 -1.11561 0
M  V30 32521 O 780.765 -8.36503 -2.79617 0
M  V30 32522 O 781.305 -7.71806 -0.42951 0
M  V30 32523 C 782.245 -7.67148 0.673689 0
M  V30 32524 C 781.515 -7.33374 1.95559 0
M  V30 32525 O 781.305 -5.88721 2.00726 0
M  V30 32526 C 780.115 -7.92526 2.10483 0
M  V30 32527 O 779.725 -8.02971 3.47653 0
M  V30 32528 C 779.235 -6.89602 1.41652 0
M  V30 32529 C 779.945 -5.59201 1.75185 0
M  V30 32530 N 779.895 -4.58301 0.657969 0
M  V30 32531 C 779.975 -4.79019 -0.692603 0
M  V30 32532 N 779.905 -3.69736 -1.38998 0
M  V30 32533 C 779.755 -2.70474 -0.438135 0
M  V30 32534 C 779.625 -1.30327 -0.538142 0
M  V30 32535 N 779.615 -0.64304 -1.69192 0
M  V30 32536 N 779.505 -0.611027 0.605183 0
M  V30 32537 C 779.515 -1.27002 1.75953 0
M  V30 32538 N 779.635 -2.56038 1.98546 0
M  V30 32539 C 779.755 -3.22681 0.822541 0
M  V30 32540 H 782.734 -8.65116 0.777161 0
M  V30 32541 H 783.006 -6.9022 0.46725 0
M  V30 32542 H 782.138 -7.66548 2.79458 0
M  V30 32543 H 779.483 -5.16165 2.65183 0
M  V30 32544 H 779.203 -7.06433 0.329384 0
M  V30 32545 H 778.212 -6.90926 1.82021 0
M  V30 32546 H 780.046 -8.90873 1.62657 0
M  V30 32547 H 780.087 -5.77785 -1.13874 0
M  V30 32548 H 779.706 -1.15585 -2.57991 0
M  V30 32549 H 779.517 0.382989 -1.69835 0
M  V30 32550 H 779.409 -0.653331 2.64449 0
M  V30 32551 P 778.175 -8.03563 3.84925 0
M  V30 32552 O 777.955 -8.85821 5.0569 0
M  V30 32553 O 777.385 -8.41101 2.65469 0
M  V30 32554 O 777.925 -6.4965 4.18908 0
M  V30 32555 C 778.865 -5.81037 5.05421 0
M  V30 32556 C 778.135 -4.78366 5.89277 0
M  V30 32557 O 777.925 -3.58302 5.08433 0
M  V30 32558 C 776.735 -5.17448 6.36119 0
M  V30 32559 O 776.345 -4.45271 7.53232 0
M  V30 32560 C 775.855 -4.74639 5.19936 0
M  V30 32561 C 776.565 -3.49432 4.70418 0
M  V30 32562 N 776.515 -3.32099 3.22613 0
M  V30 32563 H 779.354 -6.54213 5.71376 0
M  V30 32564 H 779.626 -5.30936 4.43503 0
M  V30 32565 H 778.758 -4.55889 6.76652 0
M  V30 32566 H 776.103 -2.61715 5.17932 0
M  V30 32567 H 775.823 -5.52155 4.41878 0
M  V30 32568 H 774.832 -4.51981 5.53374 0
M  V30 32569 H 776.666 -6.25124 6.55234 0
M  V30 32570 P 774.795 -4.23843 7.83734 0
M  V30 32571 O 774.575 -4.19407 9.29784 0
M  V30 32572 O 774.005 -5.24426 7.09156 0
M  V30 32573 O 774.545 -2.7935 7.20758 0
M  V30 32574 C 775.485 -1.72945 7.50224 0
M  V30 32575 C 774.755 -0.406376 7.57911 0
M  V30 32576 O 774.545 0.0897726 6.21935 0
M  V30 32577 C 773.355 -0.438983 8.18724 0
M  V30 32578 O 772.965 0.825065 8.71101 0
M  V30 32579 C 772.475 -0.783689 6.99524 0
M  V30 32580 C 773.185 -0.0619086 5.85867 0
M  V30 32581 N 773.135 -0.78573 4.56183 0
M  V30 32582 C 772.985 -0.0292889 3.41887 0
M  V30 32583 O 772.895 1.18445 3.4419 0
M  V30 32584 N 772.945 -0.744061 2.23964 0
M  V30 32585 C 773.035 -2.10932 2.10362 0
M  V30 32586 O 772.985 -2.64117 0.98825 0
M  V30 32587 C 773.185 -2.8202 3.34994 0
M  V30 32588 C 773.295 -4.31095 3.25037 0
M  V30 32589 C 773.235 -2.15547 4.52261 0
M  V30 32590 H 775.976 -1.93379 8.46595 0
M  V30 32591 H 776.245 -1.68132 6.70852 0
M  V30 32592 H 775.378 0.289041 8.15388 0
M  V30 32593 H 772.723 0.926847 5.72749 0
M  V30 32594 H 772.444 -1.86973 6.82036 0
M  V30 32595 H 771.452 -0.403896 7.13257 0
M  V30 32596 H 773.286 -1.20585 8.97435 0
M  V30 32597 H 773.357 -2.71231 5.45042 0
M  V30 32598 H 772.327 -4.76966 3.49992 0
M  V30 32599 H 774.064 -4.67047 3.95024 0
M  V30 32600 H 773.576 -4.58996 2.22312 0
M  V30 32601 H 772.84 -0.214893 1.39758 0
M  V30 32602 P 771.415 1.17771 8.83182 0
M  V30 32603 O 771.195 2.07206 9.98732 0
M  V30 32604 O 770.625 -0.0743816 8.81969 0
M  V30 32605 O 771.165 1.97678 7.474 0
M  V30 32606 C 772.105 3.01133 7.08783 0
M  V30 32607 C 771.375 4.1203 6.37546 0
M  V30 32608 O 771.165 3.72887 4.9796 0
M  V30 32609 C 769.975 4.45085 6.88694 0
M  V30 32610 O 769.585 5.78836 6.56315 0
M  V30 32611 C 769.095 3.47817 6.12078 0
M  V30 32612 C 769.805 3.39414 4.77697 0
M  V30 32613 N 769.755 2.04615 4.15333 0
M  V30 32614 C 769.605 1.96929 2.77162 0
M  V30 32615 O 769.515 3.02017 2.12006 0
M  V30 32616 N 769.555 0.55485 2.24237 0
M  V30 32617 C 769.655 -0.367808 2.9169 0
M  V30 32618 N 769.605 -1.53426 2.29427 0
M  V30 32619 C 769.805 -0.319148 4.33828 0
M  V30 32620 C 769.855 0.920672 4.90433 0
M  V30 32621 H 772.595 3.41209 7.98667 0
M  V30 32622 H 772.865 2.5837 6.41742 0
M  V30 32623 H 771.998 5.02718 6.42752 0
M  V30 32624 H 769.343 4.11779 4.09026 0
M  V30 32625 H 769.063 2.49661 6.61772 0
M  V30 32626 H 768.072 3.86674 6.00946 0
M  V30 32627 H 769.906 4.29991 7.97006 0
M  V30 32628 H 769.978 1.00589 5.98303 0
M  V30 32629 H 769.876 -1.22639 4.93799 0
M  V30 32630 H 769.488 -1.56819 1.27167 0
M  V30 32631 H 769.684 -2.41062 2.83063 0
M  V30 32632 P 768.035 6.144 6.45285 0
M  V30 32633 O 767.815 7.54673 6.86199 0
M  V30 32634 O 767.245 5.12391 7.179 0
M  V30 32635 O 767.785 5.99158 4.88404 0
M  V30 32636 C 768.725 6.60062 3.96313 0
M  V30 32637 C 767.995 7.08259 2.72856 0
M  V30 32638 O 767.785 5.9427 1.83651 0
M  V30 32639 C 766.595 7.65087 2.94749 0
M  V30 32640 O 766.205 8.53963 1.90717 0
M  V30 32641 C 765.715 6.41069 2.90698 0
M  V30 32642 C 766.425 5.5528 1.86931 0
M  V30 32643 N 766.375 4.09575 2.15696 0
M  V30 32644 C 766.225 3.24249 1.08435 0
M  V30 32645 O 766.135 3.63946 -0.0628747 0
M  V30 32646 N 766.185 1.90009 1.39973 0
M  V30 32647 C 766.275 1.34884 2.65614 0
M  V30 32648 C 766.425 2.3145 3.71736 0
M  V30 32649 C 766.475 3.63518 3.44754 0
M  V30 32650 H 769.216 7.45402 4.45526 0
M  V30 32651 H 769.485 5.86062 3.67208 0
M  V30 32652 H 768.618 7.84412 2.24479 0
M  V30 32653 H 765.963 5.73358 0.888409 0
M  V30 32654 H 765.684 5.90877 3.88583 0
M  V30 32655 H 764.692 6.65867 2.58821 0
M  V30 32656 H 766.526 8.16248 3.92006 0
M  V30 32657 H 766.597 4.34551 4.26383 0
M  V30 32658 P 764.656 8.7635 1.60911 0
M  V30 32659 O 764.436 10.1388 1.11561 0
M  V30 32660 O 763.866 8.36503 2.79617 0
M  V30 32661 O 764.406 7.71806 0.42951 0
M  V30 32662 C 765.346 7.67148 -0.673689 0
M  V30 32663 C 764.616 7.33374 -1.95559 0
M  V30 32664 O 764.406 5.88721 -2.00726 0
M  V30 32665 C 763.216 7.92526 -2.10483 0
M  V30 32666 O 762.826 8.02971 -3.47653 0
M  V30 32667 C 762.336 6.89602 -1.41652 0
M  V30 32668 C 763.046 5.59201 -1.75185 0
M  V30 32669 N 762.996 4.58235 -0.662552 0
M  V30 32670 H 765.835 8.65116 -0.777161 0
M  V30 32671 H 766.107 6.90173 -0.474152 0
M  V30 32672 H 765.239 7.66548 -2.79458 0
M  V30 32673 P 761.276 8.03563 -3.84925 0
M  V30 32674 O 761.056 8.85821 -5.0569 0
M  V30 32675 O 760.486 8.41101 -2.65469 0
M  V30 32676 O 761.026 6.4965 -4.18908 0
M  V30 32677 C 761.966 5.81037 -5.05421 0
M  V30 32678 C 761.236 4.78366 -5.89277 0
M  V30 32679 O 761.026 3.58302 -5.08433 0
M  V30 32680 C 759.836 5.17448 -6.36119 0
M  V30 32681 O 759.446 4.45271 -7.53232 0
M  V30 32682 C 758.956 4.74639 -5.19936 0
M  V30 32683 C 759.666 3.49432 -4.70418 0
M  V30 32684 N 759.616 3.32099 -3.22613 0
M  V30 32685 H 762.455 6.54213 -5.71376 0
M  V30 32686 H 762.727 5.30936 -4.43503 0
M  V30 32687 H 761.859 4.55889 -6.76652 0
M  V30 32688 H 759.204 2.61715 -5.17932 0
M  V30 32689 H 758.924 5.52155 -4.41878 0
M  V30 32690 H 757.933 4.51981 -5.53374 0
M  V30 32691 H 759.767 6.25124 -6.55234 0
M  V30 32692 P 757.896 4.23843 -7.83734 0
M  V30 32693 O 757.676 4.19407 -9.29784 0
M  V30 32694 O 757.106 5.24426 -7.09156 0
M  V30 32695 O 757.646 2.7935 -7.20758 0
M  V30 32696 C 758.586 1.7299 -7.50419 0
M  V30 32697 C 757.856 0.406376 -7.57911 0
M  V30 32698 O 757.646 -0.0897726 -6.21935 0
M  V30 32699 C 756.456 0.447224 -8.1878 0
M  V30 32700 O 756.066 -0.825065 -8.71101 0
M  V30 32701 C 755.576 0.783801 -6.99623 0
M  V30 32702 C 756.286 0.0619192 -5.85967 0
M  V30 32703 N 756.236 0.7859 -4.56281 0
M  V30 32704 H 759.075 1.93423 -8.4679 0
M  V30 32705 H 759.347 1.68181 -6.71046 0
M  V30 32706 H 758.479 -0.289041 -8.15388 0
M  V30 32707 P 754.516 -1.17771 -8.83182 0
M  V30 32708 O 754.296 -2.07206 -9.98732 0
M  V30 32709 O 753.726 0.0743816 -8.81969 0
M  V30 32710 O 754.266 -1.97678 -7.474 0
M  V30 32711 C 755.206 -3.01133 -7.08783 0
M  V30 32712 C 754.476 -4.1203 -6.37546 0
M  V30 32713 O 754.266 -3.72887 -4.9796 0
M  V30 32714 C 753.076 -4.45085 -6.88694 0
M  V30 32715 O 752.686 -5.78836 -6.56315 0
M  V30 32716 C 752.196 -3.47817 -6.12078 0
M  V30 32717 C 752.906 -3.39414 -4.77697 0
M  V30 32718 N 752.856 -2.04615 -4.15333 0
M  V30 32719 C 752.706 -1.96929 -2.77162 0
M  V30 32720 O 752.616 -3.02017 -2.12006 0
M  V30 32721 N 752.656 -0.55485 -2.24237 0
M  V30 32722 C 752.756 0.367808 -2.9169 0
M  V30 32723 N 752.706 1.53426 -2.29427 0
M  V30 32724 C 752.906 0.319148 -4.33828 0
M  V30 32725 C 752.956 -0.920672 -4.90433 0
M  V30 32726 H 755.696 -3.41209 -7.98667 0
M  V30 32727 H 755.966 -2.5837 -6.41742 0
M  V30 32728 H 755.099 -5.02718 -6.42752 0
M  V30 32729 H 752.444 -4.11779 -4.09026 0
M  V30 32730 H 752.164 -2.49661 -6.61772 0
M  V30 32731 H 751.173 -3.86674 -6.00946 0
M  V30 32732 H 753.007 -4.29991 -7.97006 0
M  V30 32733 H 753.079 -1.00589 -5.98303 0
M  V30 32734 H 752.977 1.22639 -4.93799 0
M  V30 32735 H 752.589 1.56819 -1.27167 0
M  V30 32736 H 752.785 2.41062 -2.83063 0
M  V30 32737 P 751.136 -6.144 -6.45285 0
M  V30 32738 O 750.916 -7.54673 -6.86199 0
M  V30 32739 O 750.346 -5.12391 -7.179 0
M  V30 32740 O 750.886 -5.99158 -4.88404 0
M  V30 32741 C 751.826 -6.60062 -3.96313 0
M  V30 32742 C 751.096 -7.08259 -2.72856 0
M  V30 32743 O 750.886 -5.9427 -1.83651 0
M  V30 32744 C 749.696 -7.65087 -2.94749 0
M  V30 32745 O 749.306 -8.53963 -1.90717 0
M  V30 32746 C 748.816 -6.41069 -2.90698 0
M  V30 32747 C 749.526 -5.5528 -1.86931 0
M  V30 32748 N 749.476 -4.09575 -2.15696 0
M  V30 32749 C 749.326 -3.24249 -1.08435 0
M  V30 32750 O 749.236 -3.63946 0.0628747 0
M  V30 32751 N 749.286 -1.90009 -1.39973 0
M  V30 32752 C 749.376 -1.34884 -2.65614 0
M  V30 32753 O 749.326 -0.123716 -2.81728 0
M  V30 32754 C 749.526 -2.3145 -3.71736 0
M  V30 32755 C 749.636 -1.75913 -5.10438 0
M  V30 32756 C 749.576 -3.63518 -3.44754 0
M  V30 32757 H 752.317 -7.45402 -4.45526 0
M  V30 32758 H 752.586 -5.86062 -3.67208 0
M  V30 32759 H 751.719 -7.84412 -2.24479 0
M  V30 32760 H 749.064 -5.73358 -0.888409 0
M  V30 32761 H 748.785 -5.90877 -3.88583 0
M  V30 32762 H 747.793 -6.65867 -2.58821 0
M  V30 32763 H 749.627 -8.16248 -3.92006 0
M  V30 32764 H 749.698 -4.34551 -4.26383 0
M  V30 32765 H 748.668 -1.85471 -5.61775 0
M  V30 32766 H 750.405 -2.31364 -5.66257 0
M  V30 32767 H 749.917 -0.695936 -5.05229 0
M  V30 32768 H 749.181 -1.26277 -0.63625 0
M  V30 32769 P 747.756 -8.7635 -1.60911 0
M  V30 32770 O 747.536 -10.1388 -1.11561 0
M  V30 32771 O 746.966 -8.36503 -2.79617 0
M  V30 32772 O 747.506 -7.71806 -0.42951 0
M  V30 32773 C 748.446 -7.67148 0.673689 0
M  V30 32774 C 747.716 -7.33374 1.95559 0
M  V30 32775 O 747.506 -5.88721 2.00726 0
M  V30 32776 C 746.316 -7.92526 2.10483 0
M  V30 32777 O 745.926 -8.02971 3.47653 0
M  V30 32778 C 745.436 -6.89602 1.41652 0
M  V30 32779 C 746.146 -5.59201 1.75185 0
M  V30 32780 N 746.096 -4.58235 0.662552 0
M  V30 32781 H 748.935 -8.65116 0.777161 0
M  V30 32782 H 749.207 -6.90173 0.474152 0
M  V30 32783 H 748.339 -7.66548 2.79458 0
M  V30 32784 P 744.376 -8.03563 3.84925 0
M  V30 32785 O 744.156 -8.85821 5.0569 0
M  V30 32786 O 743.586 -8.41101 2.65469 0
M  V30 32787 O 744.126 -6.4965 4.18908 0
M  V30 32788 C 745.066 -5.81037 5.05421 0
M  V30 32789 C 744.336 -4.78366 5.89277 0
M  V30 32790 O 744.126 -3.58302 5.08433 0
M  V30 32791 C 742.936 -5.17448 6.36119 0
M  V30 32792 O 742.546 -4.45271 7.53232 0
M  V30 32793 C 742.056 -4.74639 5.19936 0
M  V30 32794 C 742.766 -3.49432 4.70418 0
M  V30 32795 N 742.716 -3.32099 3.22613 0
M  V30 32796 H 745.555 -6.54213 5.71376 0
M  V30 32797 H 745.827 -5.30936 4.43503 0
M  V30 32798 H 744.959 -4.55889 6.76652 0
M  V30 32799 H 742.304 -2.61715 5.17932 0
M  V30 32800 H 742.024 -5.52155 4.41878 0
M  V30 32801 H 741.033 -4.51981 5.53374 0
M  V30 32802 H 742.867 -6.25124 6.55234 0
M  V30 32803 P 740.996 -4.23843 7.83734 0
M  V30 32804 O 740.776 -4.19407 9.29784 0
M  V30 32805 O 740.206 -5.24426 7.09156 0
M  V30 32806 O 740.746 -2.7935 7.20758 0
M  V30 32807 C 741.686 -1.7299 7.50419 0
M  V30 32808 C 740.956 -0.406376 7.57911 0
M  V30 32809 O 740.746 0.0897726 6.21935 0
M  V30 32810 C 739.556 -0.447224 8.1878 0
M  V30 32811 O 739.166 0.825065 8.71101 0
M  V30 32812 C 738.676 -0.783801 6.99623 0
M  V30 32813 C 739.386 -0.0619192 5.85967 0
M  V30 32814 N 739.336 -0.7859 4.56281 0
M  V30 32815 H 742.175 -1.93423 8.4679 0
M  V30 32816 H 742.447 -1.68181 6.71046 0
M  V30 32817 H 741.579 0.289041 8.15388 0
M  V30 32818 P 737.616 1.17771 8.83182 0
M  V30 32819 O 737.396 2.07206 9.98732 0
M  V30 32820 O 736.826 -0.0743816 8.81969 0
M  V30 32821 O 737.366 1.97652 7.47304 0
M  V30 32822 C 738.306 3.01133 7.08783 0
M  V30 32823 C 737.576 4.12613 6.37049 0
M  V30 32824 O 737.366 3.72827 4.97879 0
M  V30 32825 C 736.176 4.45085 6.88694 0
M  V30 32826 O 735.786 5.7877 6.5624 0
M  V30 32827 C 735.296 3.47817 6.12078 0
M  V30 32828 C 736.006 3.39414 4.77697 0
M  V30 32829 N 735.956 2.04615 4.15333 0
M  V30 32830 H 738.795 3.41248 7.98759 0
M  V30 32831 H 739.067 2.5837 6.41742 0
M  V30 32832 H 738.199 5.02657 6.42673 0
M  V30 32833 P 734.236 6.144 6.45285 0
M  V30 32834 O 734.016 7.54673 6.86199 0
M  V30 32835 O 733.446 5.12391 7.179 0
M  V30 32836 O 733.986 5.99158 4.88404 0
M  V30 32837 C 734.926 6.60234 3.96415 0
M  V30 32838 C 734.196 7.08259 2.72856 0
M  V30 32839 O 733.986 5.9427 1.83651 0
M  V30 32840 C 732.796 7.64886 2.9555 0
M  V30 32841 O 732.406 8.53963 1.90717 0
M  V30 32842 C 731.916 6.4116 2.90739 0
M  V30 32843 C 732.626 5.55375 1.86963 0
M  V30 32844 N 732.576 4.09664 2.15742 0
M  V30 32845 H 735.415 7.45574 4.45629 0
M  V30 32846 H 735.687 5.86232 3.67314 0
M  V30 32847 H 734.819 7.84412 2.24479 0
M  V30 32848 P 730.856 8.7635 1.60911 0
M  V30 32849 O 730.636 10.1388 1.11561 0
M  V30 32850 O 730.066 8.36503 2.79617 0
M  V30 32851 O 730.606 7.71806 0.42951 0
M  V30 32852 C 731.546 7.66948 -0.673514 0
M  V30 32853 C 730.816 7.33374 -1.95559 0
M  V30 32854 O 730.606 5.88721 -2.00726 0
M  V30 32855 C 729.416 7.92218 -2.1125 0
M  V30 32856 O 729.026 8.02971 -3.47653 0
M  V30 32857 C 728.536 6.89504 -1.41631 0
M  V30 32858 C 729.246 5.59106 -1.75155 0
M  V30 32859 N 729.196 4.58136 -0.662409 0
M  V30 32860 C 729.046 3.26059 -1.02863 0
M  V30 32861 O 728.956 2.90743 -2.19009 0
M  V30 32862 N 729.006 2.35995 0.0155585 0
M  V30 32863 C 729.096 2.65248 1.35603 0
M  V30 32864 O 729.046 1.75605 2.20651 0
M  V30 32865 C 729.246 4.05747 1.64698 0
M  V30 32866 C 729.356 4.42345 3.09553 0
M  V30 32867 C 729.296 4.96734 0.652411 0
M  V30 32868 H 732.037 8.64917 -0.776982 0
M  V30 32869 H 732.306 6.89974 -0.474015 0
M  V30 32870 H 731.439 7.66548 -2.79458 0
M  V30 32871 H 728.784 5.16076 -2.65138 0
M  V30 32872 H 728.505 7.06433 -0.329384 0
M  V30 32873 H 727.513 6.90829 -1.81996 0
M  V30 32874 H 729.347 8.90774 -1.62639 0
M  V30 32875 H 729.418 6.02181 0.895285 0
M  V30 32876 H 728.388 4.80252 3.45468 0
M  V30 32877 H 730.125 5.20015 3.22119 0
M  V30 32878 H 729.637 3.53269 3.67833 0
M  V30 32879 H 728.901 1.39558 -0.227499 0
M  V30 32880 P 727.476 8.03563 -3.84925 0
M  V30 32881 O 727.256 8.85821 -5.0569 0
M  V30 32882 O 726.686 8.41101 -2.65469 0
M  V30 32883 O 727.226 6.4965 -4.18908 0
M  V30 32884 C 728.166 5.81037 -5.05421 0
M  V30 32885 C 727.436 4.78366 -5.89277 0
M  V30 32886 O 727.226 3.58302 -5.08433 0
M  V30 32887 C 726.036 5.17448 -6.36119 0
M  V30 32888 O 725.646 4.45271 -7.53232 0
M  V30 32889 C 725.156 4.74639 -5.19936 0
M  V30 32890 C 725.866 3.49432 -4.70418 0
M  V30 32891 N 725.816 3.31776 -3.22945 0
M  V30 32892 C 725.896 4.27147 -2.23315 0
M  V30 32893 N 725.816 3.78447 -1.02186 0
M  V30 32894 C 725.676 2.41001 -1.21732 0
M  V30 32895 C 725.546 1.36111 -0.27694 0
M  V30 32896 N 725.426 0.113683 -0.912949 0
M  V30 32897 C 725.426 -0.0846396 -2.27943 0
M  V30 32898 N 725.296 -1.34737 -2.6916 0
M  V30 32899 N 725.556 0.902521 -3.16379 0
M  V30 32900 C 725.676 2.11937 -2.56849 0
M  V30 32901 H 728.655 6.54213 -5.71376 0
M  V30 32902 H 728.927 5.30492 -4.44033 0
M  V30 32903 H 728.059 4.55889 -6.76652 0
M  V30 32904 P 724.096 4.23843 -7.83734 0
M  V30 32905 O 723.876 4.19407 -9.29784 0
M  V30 32906 O 723.306 5.24426 -7.09156 0
M  V30 32907 O 723.846 2.7935 -7.20758 0
M  V30 32908 C 724.786 1.7299 -7.50419 0
M  V30 32909 C 724.056 0.406376 -7.57911 0
M  V30 32910 O 723.846 -0.0897726 -6.21935 0
M  V30 32911 C 722.656 0.447224 -8.1878 0
M  V30 32912 O 722.266 -0.825065 -8.71101 0
M  V30 32913 C 721.776 0.783801 -6.99623 0
M  V30 32914 C 722.486 0.0619192 -5.85967 0
M  V30 32915 N 722.436 0.7859 -4.56281 0
M  V30 32916 H 725.275 1.93423 -8.4679 0
M  V30 32917 H 725.547 1.68181 -6.71046 0
M  V30 32918 H 724.679 -0.289041 -8.15388 0
M  V30 32919 P 720.716 -1.17771 -8.83182 0
M  V30 32920 O 720.496 -2.07206 -9.98732 0
M  V30 32921 O 719.926 0.0743816 -8.81969 0
M  V30 32922 O 720.466 -1.97652 -7.47304 0
M  V30 32923 C 721.406 -3.01133 -7.08783 0
M  V30 32924 C 720.676 -4.12613 -6.37049 0
M  V30 32925 O 720.466 -3.72827 -4.97879 0
M  V30 32926 C 719.276 -4.45085 -6.88694 0
M  V30 32927 O 718.886 -5.7877 -6.5624 0
M  V30 32928 C 718.396 -3.47817 -6.12078 0
M  V30 32929 C 719.106 -3.39414 -4.77697 0
M  V30 32930 N 719.056 -2.04199 -4.15538 0
M  V30 32931 C 719.136 -0.821545 -4.76977 0
M  V30 32932 N 719.066 0.1794 -3.94592 0
M  V30 32933 C 718.916 -0.419121 -2.70776 0
M  V30 32934 C 718.786 0.109072 -1.40577 0
M  V30 32935 N 718.776 1.4104 -1.1344 0
M  V30 32936 N 718.666 -0.764381 -0.39411 0
M  V30 32937 C 718.676 -2.06587 -0.664135 0
M  V30 32938 N 718.796 -2.67948 -1.82153 0
M  V30 32939 C 718.916 -1.77942 -2.8147 0
M  V30 32940 H 721.895 -3.41248 -7.98759 0
M  V30 32941 H 722.167 -2.57728 -6.42 0
M  V30 32942 H 721.299 -5.02657 -6.42673 0
M  V30 32943 H 718.644 -4.11708 -4.08956 0
M  V30 32944 H 718.364 -2.49626 -6.61679 0
M  V30 32945 H 717.373 -3.8662 -6.00862 0
M  V30 32946 H 719.207 -4.29991 -7.97006 0
M  V30 32947 H 719.248 -0.702451 -5.84696 0
M  V30 32948 H 718.867 2.09647 -1.89651 0
M  V30 32949 H 718.678 1.73358 -0.160575 0
M  V30 32950 H 718.57 -2.71695 0.195838 0
M  V30 32951 P 717.336 -6.144 -6.45285 0
M  V30 32952 O 717.116 -7.54673 -6.86199 0
M  V30 32953 O 716.546 -5.12391 -7.179 0
M  V30 32954 O 717.086 -5.99158 -4.88404 0
M  V30 32955 C 718.026 -6.60234 -3.96415 0
M  V30 32956 C 717.296 -7.08259 -2.72856 0
M  V30 32957 O 717.086 -5.9427 -1.83651 0
M  V30 32958 C 715.896 -7.64886 -2.9555 0
M  V30 32959 O 715.506 -8.53963 -1.90717 0
M  V30 32960 C 715.016 -6.4116 -2.90739 0
M  V30 32961 C 715.726 -5.55375 -1.86963 0
M  V30 32962 N 715.676 -4.09448 -2.16152 0
M  V30 32963 H 718.515 -7.45574 -4.45629 0
M  V30 32964 H 718.787 -5.85864 -3.679 0
M  V30 32965 H 717.919 -7.84412 -2.24479 0
M  V30 32966 H 715.264 -5.73457 -0.888562 0
M  V30 32967 H 714.984 -5.90877 -3.88583 0
M  V30 32968 H 713.993 -6.6596 -2.58858 0
M  V30 32969 H 715.827 -8.16339 -3.92049 0
M  V30 32970 P 713.956 -8.7635 -1.60911 0
M  V30 32971 O 713.736 -10.1388 -1.11561 0
M  V30 32972 O 713.166 -8.36503 -2.79617 0
M  V30 32973 O 713.706 -7.71806 -0.42951 0
M  V30 32974 C 714.646 -7.67148 0.673689 0
M  V30 32975 C 713.916 -7.33374 1.95559 0
M  V30 32976 O 713.706 -5.88721 2.00726 0
M  V30 32977 C 712.516 -7.92526 2.10483 0
M  V30 32978 O 712.126 -8.02971 3.47653 0
M  V30 32979 C 711.636 -6.89602 1.41652 0
M  V30 32980 C 712.346 -5.59201 1.75185 0
M  V30 32981 N 712.296 -4.58235 0.662552 0
M  V30 32982 H 715.135 -8.65116 0.777161 0
M  V30 32983 H 715.407 -6.90173 0.474152 0
M  V30 32984 H 714.539 -7.66548 2.79458 0
M  V30 32985 P 710.576 -8.03563 3.84925 0
M  V30 32986 O 710.356 -8.85821 5.0569 0
M  V30 32987 O 709.786 -8.41101 2.65469 0
M  V30 32988 O 710.326 -6.49734 4.18962 0
M  V30 32989 C 711.266 -5.81037 5.05421 0
M  V30 32990 C 710.536 -4.79018 5.88876 0
M  V30 32991 O 710.326 -3.58359 5.08515 0
M  V30 32992 C 709.136 -5.17448 6.36119 0
M  V30 32993 O 708.746 -4.45322 7.53318 0
M  V30 32994 C 708.256 -4.74639 5.19936 0
M  V30 32995 C 708.966 -3.49432 4.70418 0
M  V30 32996 N 708.916 -3.31776 3.22945 0
M  V30 32997 C 708.766 -2.02742 2.72939 0
M  V30 32998 O 708.676 -1.08301 3.52749 0
M  V30 32999 N 708.716 -1.96117 1.22063 0
M  V30 33000 C 708.816 -2.8878 0.551566 0
M  V30 33001 N 708.766 -2.65609 -0.750198 0
M  V30 33002 C 708.966 -4.22457 1.03707 0
M  V30 33003 C 709.016 -4.37979 2.39113 0
M  V30 33004 H 711.756 -6.54138 5.7131 0
M  V30 33005 H 712.026 -5.30492 4.44033 0
M  V30 33006 H 711.159 -4.55945 6.76735 0
M  V30 33007 H 708.504 -2.6176 5.18021 0
M  V30 33008 H 708.224 -5.52233 4.41941 0
M  V30 33009 H 707.233 -4.52045 5.53452 0
M  V30 33010 H 709.067 -6.25124 6.55234 0
M  V30 33011 H 709.139 -5.37936 2.80552 0
M  V30 33012 H 709.037 -5.07528 0.359553 0
M  V30 33013 H 708.649 -1.69403 -1.09847 0
M  V30 33014 H 708.845 -3.43701 -1.41792 0
M  V30 33015 P 707.196 -4.23843 7.83734 0
M  V30 33016 O 706.976 -4.19407 9.29784 0
M  V30 33017 O 706.406 -5.24426 7.09156 0
M  V30 33018 O 706.946 -2.79386 7.20852 0
M  V30 33019 C 707.886 -1.7299 7.50419 0
M  V30 33020 C 707.156 -0.41401 7.5797 0
M  V30 33021 O 706.946 0.089787 6.22035 0
M  V30 33022 C 705.756 -0.447224 8.1878 0
M  V30 33023 O 705.366 0.825159 8.71201 0
M  V30 33024 C 704.876 -0.783801 6.99623 0
M  V30 33025 C 705.586 -0.0619192 5.85967 0
M  V30 33026 N 705.536 -0.7859 4.56281 0
M  V30 33027 C 705.386 -0.0359258 3.39981 0
M  V30 33028 O 705.296 1.19723 3.49038 0
M  V30 33029 N 705.336 -0.869151 2.14025 0
M  V30 33030 C 705.436 -2.01207 2.14363 0
M  V30 33031 N 705.386 -2.58978 0.954287 0
M  V30 33032 C 705.586 -2.80817 3.32215 0
M  V30 33033 C 705.636 -2.13785 4.50884 0
M  V30 33034 H 708.376 -1.93401 8.46693 0
M  V30 33035 H 708.646 -1.68181 6.71046 0
M  V30 33036 H 707.779 0.289076 8.15488 0
M  V30 33037 H 705.124 0.927166 5.72947 0
M  V30 33038 H 704.844 -1.87 6.82132 0
M  V30 33039 H 703.853 -0.404009 7.13457 0
M  V30 33040 H 705.687 -1.20599 8.97534 0
M  V30 33041 H 705.759 -2.70295 5.43162 0
M  V30 33042 H 705.657 -3.89465 3.27406 0
M  V30 33043 H 705.269 -2.01616 0.107046 0
M  V30 33044 H 705.465 -3.61403 0.873101 0
M  V30 33045 P 703.816 1.17771 8.83182 0
M  V30 33046 O 703.596 2.07206 9.98732 0
M  V30 33047 O 703.026 -0.0743816 8.81969 0
M  V30 33048 O 703.566 1.97652 7.47304 0
M  V30 33049 C 704.506 3.01133 7.08783 0
M  V30 33050 C 703.776 4.12613 6.37049 0
M  V30 33051 O 703.566 3.72827 4.97879 0
M  V30 33052 C 702.376 4.45085 6.88694 0
M  V30 33053 O 701.986 5.7877 6.5624 0
M  V30 33054 C 701.496 3.47817 6.12078 0
M  V30 33055 C 702.206 3.39414 4.77697 0
M  V30 33056 N 702.156 2.04615 4.15333 0
M  V30 33057 H 704.995 3.41248 7.98759 0
M  V30 33058 H 705.267 2.5837 6.41742 0
M  V30 33059 H 704.399 5.02657 6.42673 0
M  V30 33060 P 700.436 6.144 6.45285 0
M  V30 33061 O 700.216 7.54673 6.86199 0
M  V30 33062 O 699.646 5.12391 7.179 0
M  V30 33063 O 700.186 5.99236 4.88467 0
M  V30 33064 C 701.126 6.60234 3.96415 0
M  V30 33065 C 700.396 7.08079 2.736 0
M  V30 33066 O 700.186 5.94365 1.8368 0
M  V30 33067 C 698.996 7.64886 2.9555 0
M  V30 33068 O 698.606 8.5406 1.90739 0
M  V30 33069 C 698.116 6.4116 2.90739 0
M  V30 33070 C 698.826 5.55375 1.86963 0
M  V30 33071 N 698.776 4.09664 2.15742 0
M  V30 33072 C 698.626 3.22231 1.08477 0
M  V30 33073 O 698.536 3.68951 -0.0600489 0
M  V30 33074 N 698.576 1.76692 1.48799 0
M  V30 33075 C 698.676 1.41695 2.57602 0
M  V30 33076 N 698.626 0.107296 2.75791 0
M  V30 33077 C 698.826 2.29178 3.69733 0
M  V30 33078 C 698.876 3.62753 3.42653 0
M  V30 33079 H 701.616 7.45488 4.45578 0
M  V30 33080 H 701.886 5.86232 3.67314 0
M  V30 33081 H 701.019 7.84508 2.24507 0
M  V30 33082 H 698.364 5.73556 0.888715 0
M  V30 33083 H 698.084 5.9096 3.88638 0
M  V30 33084 H 697.093 6.66053 2.58894 0
M  V30 33085 H 698.927 8.16339 3.92049 0
M  V30 33086 H 698.999 4.33052 4.24913 0
M  V30 33087 H 698.897 1.9103 4.71577 0
M  V30 33088 H 698.509 -0.521221 1.95056 0
M  V30 33089 H 698.705 -0.286429 3.70695 0
M  V30 33090 P 697.056 8.7635 1.60911 0
M  V30 33091 O 696.836 10.1388 1.11561 0
M  V30 33092 O 696.266 8.36503 2.79617 0
M  V30 33093 O 696.806 7.71806 0.42951 0
M  V30 33094 C 697.746 7.67148 -0.673689 0
M  V30 33095 C 697.016 7.33374 -1.95559 0
M  V30 33096 O 696.806 5.88721 -2.00726 0
M  V30 33097 C 695.616 7.92526 -2.10483 0
M  V30 33098 O 695.226 8.02971 -3.47653 0
M  V30 33099 C 694.736 6.89602 -1.41652 0
M  V30 33100 C 695.446 5.59201 -1.75185 0
M  V30 33101 N 695.396 4.58235 -0.662552 0
M  V30 33102 H 698.235 8.65116 -0.777161 0
M  V30 33103 H 698.507 6.90173 -0.474152 0
M  V30 33104 H 697.639 7.66548 -2.79458 0
M  V30 33105 P 693.676 8.03563 -3.84925 0
M  V30 33106 O 693.456 8.85821 -5.0569 0
M  V30 33107 O 692.886 8.41101 -2.65469 0
M  V30 33108 O 693.426 6.4965 -4.18908 0
M  V30 33109 C 694.366 5.81037 -5.05421 0
M  V30 33110 C 693.636 4.78366 -5.89277 0
M  V30 33111 O 693.426 3.58302 -5.08433 0
M  V30 33112 C 692.236 5.17448 -6.36119 0
M  V30 33113 O 691.846 4.45271 -7.53232 0
M  V30 33114 C 691.356 4.74639 -5.19936 0
M  V30 33115 C 692.066 3.49432 -4.70418 0
M  V30 33116 N 692.016 3.31776 -3.22945 0
M  V30 33117 H 694.855 6.54213 -5.71376 0
M  V30 33118 H 695.127 5.30492 -4.44033 0
M  V30 33119 H 694.259 4.55889 -6.76652 0
M  V30 33120 P 690.296 4.23843 -7.83734 0
M  V30 33121 O 690.076 4.19407 -9.29784 0
M  V30 33122 O 689.506 5.24426 -7.09156 0
M  V30 33123 O 690.046 2.7935 -7.20758 0
M  V30 33124 C 690.986 1.7299 -7.50419 0
M  V30 33125 C 690.256 0.406376 -7.57911 0
M  V30 33126 O 690.046 -0.0897726 -6.21935 0
M  V30 33127 C 688.856 0.447224 -8.1878 0
M  V30 33128 O 688.466 -0.825065 -8.71101 0
M  V30 33129 C 687.976 0.783801 -6.99623 0
M  V30 33130 C 688.686 0.0619192 -5.85967 0
M  V30 33131 N 688.636 0.7859 -4.56281 0
M  V30 33132 H 691.475 1.93423 -8.4679 0
M  V30 33133 H 691.747 1.68181 -6.71046 0
M  V30 33134 H 690.879 -0.289041 -8.15388 0
M  V30 33135 P 686.916 -1.17771 -8.83182 0
M  V30 33136 O 686.696 -2.07206 -9.98732 0
M  V30 33137 O 686.126 0.0743816 -8.81969 0
M  V30 33138 O 686.666 -1.97652 -7.47304 0
M  V30 33139 C 687.606 -3.01055 -7.08599 0
M  V30 33140 C 686.876 -4.12613 -6.37049 0
M  V30 33141 O 686.666 -3.72827 -4.97879 0
M  V30 33142 C 685.476 -4.45719 -6.88164 0
M  V30 33143 O 685.086 -5.7877 -6.5624 0
M  V30 33144 C 684.596 -3.47768 -6.11991 0
M  V30 33145 C 685.306 -3.39356 -4.77615 0
M  V30 33146 N 685.256 -2.04571 -4.15244 0
M  V30 33147 C 685.106 -1.98587 -2.78314 0
M  V30 33148 O 685.016 -2.98134 -2.08835 0
M  V30 33149 N 685.066 -0.714467 -2.24925 0
M  V30 33150 C 685.156 0.470001 -2.94169 0
M  V30 33151 O 685.106 1.55587 -2.35195 0
M  V30 33152 C 685.306 0.312541 -4.36783 0
M  V30 33153 C 685.416 1.57711 -5.16352 0
M  V30 33154 C 685.356 -0.914512 -4.92583 0
M  V30 33155 H 688.097 -3.41169 -7.98575 0
M  V30 33156 H 688.366 -2.58295 -6.41556 0
M  V30 33157 H 687.499 -5.02657 -6.42673 0
M  V30 33158 H 684.844 -4.11637 -4.08885 0
M  V30 33159 H 684.565 -2.49626 -6.61679 0
M  V30 33160 H 683.573 -3.86566 -6.00778 0
M  V30 33161 H 685.407 -4.29943 -7.96918 0
M  V30 33162 H 685.478 -1.00937 -6.00374 0
M  V30 33163 H 684.448 1.80153 -5.63503 0
M  V30 33164 H 686.185 1.4566 -5.94104 0
M  V30 33165 H 685.697 2.40664 -4.49645 0
M  V30 33166 H 684.961 -0.647622 -1.25697 0
M  V30 33167 P 683.536 -6.144 -6.45285 0
M  V30 33168 O 683.316 -7.54673 -6.86199 0
M  V30 33169 O 682.746 -5.12391 -7.179 0
M  V30 33170 O 683.286 -5.99158 -4.88404 0
M  V30 33171 C 684.226 -6.60234 -3.96415 0
M  V30 33172 C 683.496 -7.08259 -2.72856 0
M  V30 33173 O 683.286 -5.9427 -1.83651 0
M  V30 33174 C 682.096 -7.64886 -2.9555 0
M  V30 33175 O 681.706 -8.53963 -1.90717 0
M  V30 33176 C 681.216 -6.4116 -2.90739 0
M  V30 33177 C 681.926 -5.55375 -1.86963 0
M  V30 33178 N 681.876 -4.09664 -2.15742 0
M  V30 33179 H 684.715 -7.45574 -4.45629 0
M  V30 33180 H 684.987 -5.86232 -3.67314 0
M  V30 33181 H 684.119 -7.84412 -2.24479 0
M  V30 33182 P 680.156 -8.7635 -1.60911 0
M  V30 33183 O 679.936 -10.1388 -1.11561 0
M  V30 33184 O 679.366 -8.36503 -2.79617 0
M  V30 33185 O 679.906 -7.71806 -0.42951 0
M  V30 33186 C 680.846 -7.66948 0.673514 0
M  V30 33187 C 680.116 -7.33374 1.95559 0
M  V30 33188 O 679.906 -5.88721 2.00726 0
M  V30 33189 C 678.716 -7.92218 2.1125 0
M  V30 33190 O 678.326 -8.02971 3.47653 0
M  V30 33191 C 677.836 -6.89504 1.41631 0
M  V30 33192 C 678.546 -5.59106 1.75155 0
M  V30 33193 N 678.496 -4.58136 0.662409 0
M  V30 33194 C 678.346 -3.26059 1.02863 0
M  V30 33195 O 678.256 -2.90743 2.19009 0
M  V30 33196 N 678.306 -2.35995 -0.0155585 0
M  V30 33197 C 678.396 -2.65248 -1.35603 0
M  V30 33198 O 678.346 -1.75605 -2.20651 0
M  V30 33199 C 678.546 -4.05747 -1.64698 0
M  V30 33200 C 678.656 -4.42345 -3.09553 0
M  V30 33201 C 678.596 -4.96734 -0.652411 0
M  V30 33202 H 681.337 -8.64917 0.776982 0
M  V30 33203 H 681.606 -6.89974 0.474015 0
M  V30 33204 H 680.739 -7.66548 2.79458 0
M  V30 33205 H 678.084 -5.16076 2.65138 0
M  V30 33206 H 677.805 -7.06433 0.329384 0
M  V30 33207 H 676.813 -6.90829 1.81996 0
M  V30 33208 H 678.647 -8.90774 1.62639 0
M  V30 33209 H 678.718 -6.02181 -0.895285 0
M  V30 33210 H 677.688 -4.80252 -3.45468 0
M  V30 33211 H 679.425 -5.20015 -3.22119 0
M  V30 33212 H 678.937 -3.53269 -3.67833 0
M  V30 33213 H 678.201 -1.39558 0.227499 0
M  V30 33214 P 676.776 -8.03563 3.84925 0
M  V30 33215 O 676.556 -8.85821 5.0569 0
M  V30 33216 O 675.986 -8.41101 2.65469 0
M  V30 33217 O 676.526 -6.4965 4.18908 0
M  V30 33218 C 677.466 -5.81037 5.05421 0
M  V30 33219 C 676.736 -4.78366 5.89277 0
M  V30 33220 O 676.526 -3.58302 5.08433 0
M  V30 33221 C 675.336 -5.17448 6.36119 0
M  V30 33222 O 674.946 -4.45271 7.53232 0
M  V30 33223 C 674.456 -4.74639 5.19936 0
M  V30 33224 C 675.166 -3.49432 4.70418 0
M  V30 33225 N 675.116 -3.32099 3.22613 0
M  V30 33226 C 675.196 -4.28245 2.25527 0
M  V30 33227 N 675.126 -3.80823 1.04874 0
M  V30 33228 C 674.976 -2.44571 1.23535 0
M  V30 33229 C 674.846 -1.37068 0.330675 0
M  V30 33230 N 674.836 -1.51472 -0.990824 0
M  V30 33231 N 674.726 -0.138614 0.848756 0
M  V30 33232 C 674.736 0.00675923 2.16999 0
M  V30 33233 N 674.856 -0.904372 3.11122 0
M  V30 33234 C 674.976 -2.12707 2.56212 0
M  V30 33235 H 677.955 -6.54213 5.71376 0
M  V30 33236 H 678.227 -5.30936 4.43503 0
M  V30 33237 H 677.359 -4.55889 6.76652 0
M  V30 33238 H 674.704 -2.61715 5.17932 0
M  V30 33239 H 674.424 -5.52155 4.41878 0
M  V30 33240 H 673.433 -4.51981 5.53374 0
M  V30 33241 H 675.267 -6.25124 6.55234 0
M  V30 33242 H 675.308 -5.34372 2.47488 0
M  V30 33243 H 674.927 -2.45153 -1.4078 0
M  V30 33244 H 674.738 -0.688422 -1.59911 0
M  V30 33245 H 674.63 1.02584 2.52346 0
M  V30 33246 P 673.396 -4.23843 7.83734 0
M  V30 33247 O 673.176 -4.19407 9.29784 0
M  V30 33248 O 672.606 -5.24426 7.09156 0
M  V30 33249 O 673.146 -2.7935 7.20758 0
M  V30 33250 C 674.086 -1.7299 7.50419 0
M  V30 33251 C 673.356 -0.406376 7.57911 0
M  V30 33252 O 673.146 0.0897726 6.21935 0
M  V30 33253 C 671.956 -0.447224 8.1878 0
M  V30 33254 O 671.566 0.825065 8.71101 0
M  V30 33255 C 671.076 -0.783801 6.99623 0
M  V30 33256 C 671.786 -0.0619192 5.85967 0
M  V30 33257 N 671.736 -0.790462 4.56202 0
M  V30 33258 H 674.575 -1.93423 8.4679 0
M  V30 33259 H 674.847 -1.68852 6.70877 0
M  V30 33260 H 673.979 0.289041 8.15388 0
M  V30 33261 H 671.324 0.927006 5.72848 0
M  V30 33262 H 671.044 -1.86973 6.82036 0
M  V30 33263 H 670.053 -0.403953 7.13357 0
M  V30 33264 H 671.887 -1.20599 8.97534 0
M  V30 33265 P 670.016 1.17771 8.83182 0
M  V30 33266 O 669.796 2.07206 9.98732 0
M  V30 33267 O 669.226 -0.0743816 8.81969 0
M  V30 33268 O 669.766 1.97652 7.47304 0
M  V30 33269 C 670.706 3.01133 7.08783 0
M  V30 33270 C 669.976 4.12613 6.37049 0
M  V30 33271 O 669.766 3.72827 4.97879 0
M  V30 33272 C 668.576 4.45085 6.88694 0
M  V30 33273 O 668.186 5.7877 6.5624 0
M  V30 33274 C 667.696 3.47817 6.12078 0
M  V30 33275 C 668.406 3.39414 4.77697 0
M  V30 33276 N 668.356 2.04615 4.15333 0
M  V30 33277 H 671.195 3.41248 7.98759 0
M  V30 33278 H 671.467 2.5837 6.41742 0
M  V30 33279 H 670.599 5.02657 6.42673 0
M  V30 33280 P 666.636 6.144 6.45285 0
M  V30 33281 O 666.416 7.54673 6.86199 0
M  V30 33282 O 665.846 5.12391 7.179 0
M  V30 33283 O 666.386 5.99236 4.88467 0
M  V30 33284 C 667.326 6.60234 3.96415 0
M  V30 33285 C 666.596 7.08079 2.736 0
M  V30 33286 O 666.386 5.94365 1.8368 0
M  V30 33287 C 665.196 7.64886 2.9555 0
M  V30 33288 O 664.806 8.5406 1.90739 0
M  V30 33289 C 664.316 6.4116 2.90739 0
M  V30 33290 C 665.026 5.55375 1.86963 0
M  V30 33291 N 664.976 4.09664 2.15742 0
M  V30 33292 C 664.826 3.22231 1.08477 0
M  V30 33293 O 664.736 3.68951 -0.0600489 0
M  V30 33294 N 664.776 1.76692 1.48799 0
M  V30 33295 C 664.876 1.41695 2.57602 0
M  V30 33296 N 664.826 0.107296 2.75791 0
M  V30 33297 C 665.026 2.29178 3.69733 0
M  V30 33298 C 665.076 3.62753 3.42653 0
M  V30 33299 H 667.816 7.45488 4.45578 0
M  V30 33300 H 668.086 5.86232 3.67314 0
M  V30 33301 H 667.219 7.84508 2.24507 0
M  V30 33302 H 664.564 5.73556 0.888715 0
M  V30 33303 H 664.284 5.9096 3.88638 0
M  V30 33304 H 663.293 6.66053 2.58894 0
M  V30 33305 H 665.127 8.16339 3.92049 0
M  V30 33306 H 665.199 4.33052 4.24913 0
M  V30 33307 H 665.097 1.9103 4.71577 0
M  V30 33308 H 664.709 -0.521221 1.95056 0
M  V30 33309 H 664.905 -0.286429 3.70695 0
M  V30 33310 P 663.256 8.7635 1.60911 0
M  V30 33311 O 663.036 10.1388 1.11561 0
M  V30 33312 O 662.466 8.36503 2.79617 0
M  V30 33313 O 663.006 7.71806 0.42951 0
M  V30 33314 C 663.946 7.67148 -0.673689 0
M  V30 33315 C 663.216 7.33374 -1.95559 0
M  V30 33316 O 663.006 5.88721 -2.00726 0
M  V30 33317 C 661.816 7.92526 -2.10483 0
M  V30 33318 O 661.426 8.02971 -3.47653 0
M  V30 33319 C 660.936 6.89602 -1.41652 0
M  V30 33320 C 661.646 5.59201 -1.75185 0
M  V30 33321 N 661.596 4.58235 -0.662552 0
M  V30 33322 H 664.435 8.65116 -0.777161 0
M  V30 33323 H 664.707 6.90173 -0.474152 0
M  V30 33324 H 663.839 7.66548 -2.79458 0
M  V30 33325 P 659.876 8.03563 -3.84925 0
M  V30 33326 O 659.656 8.85821 -5.0569 0
M  V30 33327 O 659.086 8.41101 -2.65469 0
M  V30 33328 O 659.626 6.49734 -4.18962 0
M  V30 33329 C 660.566 5.81037 -5.05421 0
M  V30 33330 C 659.836 4.79018 -5.88876 0
M  V30 33331 O 659.626 3.58359 -5.08515 0
M  V30 33332 C 658.436 5.17448 -6.36119 0
M  V30 33333 O 658.046 4.45322 -7.53318 0
M  V30 33334 C 657.556 4.74639 -5.19936 0
M  V30 33335 C 658.266 3.49432 -4.70418 0
M  V30 33336 N 658.216 3.31776 -3.22945 0
M  V30 33337 C 658.066 2.02742 -2.72939 0
M  V30 33338 O 657.976 1.08301 -3.52749 0
M  V30 33339 N 658.016 1.96117 -1.22063 0
M  V30 33340 C 658.116 2.8878 -0.551566 0
M  V30 33341 N 658.066 2.65609 0.750198 0
M  V30 33342 C 658.266 4.22457 -1.03707 0
M  V30 33343 C 658.316 4.37979 -2.39113 0
M  V30 33344 H 661.056 6.54138 -5.7131 0
M  V30 33345 H 661.326 5.30492 -4.44033 0
M  V30 33346 H 660.459 4.55945 -6.76735 0
M  V30 33347 H 657.804 2.6176 -5.18021 0
M  V30 33348 H 657.524 5.52233 -4.41941 0
M  V30 33349 H 656.533 4.52045 -5.53452 0
M  V30 33350 H 658.367 6.25124 -6.55234 0
M  V30 33351 H 658.439 5.37936 -2.80552 0
M  V30 33352 H 658.337 5.07528 -0.359553 0
M  V30 33353 H 657.949 1.69403 1.09847 0
M  V30 33354 H 658.145 3.43701 1.41792 0
M  V30 33355 P 656.496 4.23843 -7.83734 0
M  V30 33356 O 656.276 4.19407 -9.29784 0
M  V30 33357 O 655.706 5.24426 -7.09156 0
M  V30 33358 O 656.246 2.7935 -7.20758 0
M  V30 33359 C 657.186 1.7299 -7.50419 0
M  V30 33360 C 656.456 0.406376 -7.57911 0
M  V30 33361 O 656.246 -0.0897726 -6.21935 0
M  V30 33362 C 655.056 0.447224 -8.1878 0
M  V30 33363 O 654.666 -0.825065 -8.71101 0
M  V30 33364 C 654.176 0.783801 -6.99623 0
M  V30 33365 C 654.886 0.0619192 -5.85967 0
M  V30 33366 N 654.836 0.7859 -4.56281 0
M  V30 33367 H 657.675 1.93423 -8.4679 0
M  V30 33368 H 657.947 1.68181 -6.71046 0
M  V30 33369 H 657.079 -0.289041 -8.15388 0
M  V30 33370 P 653.116 -1.17771 -8.83182 0
M  V30 33371 O 652.896 -2.07206 -9.98732 0
M  V30 33372 O 652.326 0.0743816 -8.81969 0
M  V30 33373 O 652.866 -1.97652 -7.47304 0
M  V30 33374 C 653.806 -3.01133 -7.08783 0
M  V30 33375 C 653.076 -4.12613 -6.37049 0
M  V30 33376 O 652.866 -3.72827 -4.97879 0
M  V30 33377 C 651.676 -4.45085 -6.88694 0
M  V30 33378 O 651.286 -5.7877 -6.5624 0
M  V30 33379 C 650.796 -3.47817 -6.12078 0
M  V30 33380 C 651.506 -3.39414 -4.77697 0
M  V30 33381 N 651.456 -2.04615 -4.15333 0
M  V30 33382 H 654.295 -3.41248 -7.98759 0
M  V30 33383 H 654.567 -2.5837 -6.41742 0
M  V30 33384 H 653.699 -5.02657 -6.42673 0
M  V30 33385 P 649.736 -6.144 -6.45285 0
M  V30 33386 O 649.516 -7.54673 -6.86199 0
M  V30 33387 O 648.946 -5.12391 -7.179 0
M  V30 33388 O 649.486 -5.99236 -4.88467 0
M  V30 33389 C 650.426 -6.60234 -3.96415 0
M  V30 33390 C 649.696 -7.08079 -2.736 0
M  V30 33391 O 649.486 -5.94365 -1.8368 0
M  V30 33392 C 648.296 -7.64886 -2.9555 0
M  V30 33393 O 647.906 -8.5406 -1.90739 0
M  V30 33394 C 647.416 -6.4116 -2.90739 0
M  V30 33395 C 648.126 -5.55375 -1.86963 0
M  V30 33396 N 648.076 -4.09664 -2.15742 0
M  V30 33397 C 647.926 -3.22231 -1.08477 0
M  V30 33398 O 647.836 -3.68951 0.0600489 0
M  V30 33399 N 647.876 -1.76692 -1.48799 0
M  V30 33400 C 647.976 -1.41695 -2.57602 0
M  V30 33401 N 647.926 -0.107296 -2.75791 0
M  V30 33402 C 648.126 -2.29178 -3.69733 0
M  V30 33403 C 648.176 -3.62753 -3.42653 0
M  V30 33404 H 650.916 -7.45488 -4.45578 0
M  V30 33405 H 651.186 -5.86232 -3.67314 0
M  V30 33406 H 650.319 -7.84508 -2.24507 0
M  V30 33407 H 647.664 -5.73556 -0.888715 0
M  V30 33408 H 647.384 -5.9096 -3.88638 0
M  V30 33409 H 646.393 -6.66053 -2.58894 0
M  V30 33410 H 648.227 -8.16339 -3.92049 0
M  V30 33411 H 648.299 -4.33052 -4.24913 0
M  V30 33412 H 648.197 -1.9103 -4.71577 0
M  V30 33413 H 647.809 0.521221 -1.95056 0
M  V30 33414 H 648.005 0.286429 -3.70695 0
M  V30 33415 P 646.356 -8.7635 -1.60911 0
M  V30 33416 O 646.136 -10.1388 -1.11561 0
M  V30 33417 O 645.566 -8.36503 -2.79617 0
M  V30 33418 O 646.106 -7.71806 -0.42951 0
M  V30 33419 C 647.046 -7.67148 0.673689 0
M  V30 33420 C 646.316 -7.33374 1.95559 0
M  V30 33421 O 646.106 -5.88721 2.00726 0
M  V30 33422 C 644.916 -7.92526 2.10483 0
M  V30 33423 O 644.526 -8.02971 3.47653 0
M  V30 33424 C 644.036 -6.89602 1.41652 0
M  V30 33425 C 644.746 -5.59201 1.75185 0
M  V30 33426 N 644.696 -4.58235 0.662552 0
M  V30 33427 H 647.535 -8.65116 0.777161 0
M  V30 33428 H 647.807 -6.90173 0.474152 0
M  V30 33429 H 646.939 -7.66548 2.79458 0
M  V30 33430 P 642.976 -8.03563 3.84925 0
M  V30 33431 O 642.756 -8.85821 5.0569 0
M  V30 33432 O 642.186 -8.41101 2.65469 0
M  V30 33433 O 642.726 -6.4965 4.18908 0
M  V30 33434 C 643.666 -5.81037 5.05421 0
M  V30 33435 C 642.936 -4.78366 5.89277 0
M  V30 33436 O 642.726 -3.58302 5.08433 0
M  V30 33437 C 641.536 -5.17448 6.36119 0
M  V30 33438 O 641.146 -4.45271 7.53232 0
M  V30 33439 C 640.656 -4.74639 5.19936 0
M  V30 33440 C 641.366 -3.49432 4.70418 0
M  V30 33441 N 641.316 -3.31776 3.22945 0
M  V30 33442 H 644.155 -6.54213 5.71376 0
M  V30 33443 H 644.427 -5.30492 4.44033 0
M  V30 33444 H 643.559 -4.55889 6.76652 0
M  V30 33445 P 639.596 -4.23843 7.83734 0
M  V30 33446 O 639.376 -4.19407 9.29784 0
M  V30 33447 O 638.806 -5.24426 7.09156 0
M  V30 33448 O 639.346 -2.7935 7.20758 0
M  V30 33449 C 640.286 -1.7299 7.50419 0
M  V30 33450 C 639.556 -0.406376 7.57911 0
M  V30 33451 O 639.346 0.0897726 6.21935 0
M  V30 33452 C 638.156 -0.447224 8.1878 0
M  V30 33453 O 637.766 0.825065 8.71101 0
M  V30 33454 C 637.276 -0.783801 6.99623 0
M  V30 33455 C 637.986 -0.0619192 5.85967 0
M  V30 33456 N 637.936 -0.7859 4.56281 0
M  V30 33457 H 640.775 -1.93423 8.4679 0
M  V30 33458 H 641.047 -1.68181 6.71046 0
M  V30 33459 H 640.179 0.289041 8.15388 0
M  V30 33460 P 636.216 1.17771 8.83182 0
M  V30 33461 O 635.996 2.07206 9.98732 0
M  V30 33462 O 635.426 -0.0743816 8.81969 0
M  V30 33463 O 635.966 1.97652 7.47304 0
M  V30 33464 C 636.906 3.01133 7.08783 0
M  V30 33465 C 636.176 4.12613 6.37049 0
M  V30 33466 O 635.966 3.72827 4.97879 0
M  V30 33467 C 634.776 4.45085 6.88694 0
M  V30 33468 O 634.386 5.7877 6.5624 0
M  V30 33469 C 633.896 3.47817 6.12078 0
M  V30 33470 C 634.606 3.39414 4.77697 0
M  V30 33471 N 634.556 2.04199 4.15538 0
M  V30 33472 H 637.395 3.41248 7.98759 0
M  V30 33473 H 637.667 2.57728 6.42 0
M  V30 33474 H 636.799 5.02657 6.42673 0
M  V30 33475 H 634.144 4.11708 4.08956 0
M  V30 33476 H 633.864 2.49626 6.61679 0
M  V30 33477 H 632.873 3.8662 6.00862 0
M  V30 33478 H 634.707 4.29991 7.97006 0
M  V30 33479 P 632.836 6.144 6.45285 0
M  V30 33480 O 632.616 7.54673 6.86199 0
M  V30 33481 O 632.046 5.12391 7.179 0
M  V30 33482 O 632.586 5.99158 4.88404 0
M  V30 33483 C 633.526 6.60234 3.96415 0
M  V30 33484 C 632.796 7.08259 2.72856 0
M  V30 33485 O 632.586 5.9427 1.83651 0
M  V30 33486 C 631.396 7.64886 2.9555 0
M  V30 33487 O 631.006 8.53963 1.90717 0
M  V30 33488 C 630.516 6.4116 2.90739 0
M  V30 33489 C 631.226 5.55375 1.86963 0
M  V30 33490 N 631.176 4.09448 2.16152 0
M  V30 33491 H 634.015 7.45574 4.45629 0
M  V30 33492 H 634.287 5.85864 3.679 0
M  V30 33493 H 633.419 7.84412 2.24479 0
M  V30 33494 H 630.764 5.73457 0.888562 0
M  V30 33495 H 630.484 5.90877 3.88583 0
M  V30 33496 H 629.493 6.6596 2.58858 0
M  V30 33497 H 631.327 8.16339 3.92049 0
M  V30 33498 P 629.456 8.7635 1.60911 0
M  V30 33499 O 629.236 10.1388 1.11561 0
M  V30 33500 O 628.666 8.36503 2.79617 0
M  V30 33501 O 629.206 7.71806 0.42951 0
M  V30 33502 C 630.146 7.67148 -0.673689 0
M  V30 33503 C 629.416 7.33374 -1.95559 0
M  V30 33504 O 629.206 5.88721 -2.00726 0
M  V30 33505 C 628.016 7.92526 -2.10483 0
M  V30 33506 O 627.626 8.02971 -3.47653 0
M  V30 33507 C 627.136 6.89602 -1.41652 0
M  V30 33508 C 627.846 5.59201 -1.75185 0
M  V30 33509 N 627.796 4.58301 -0.657969 0
M  V30 33510 H 630.635 8.65116 -0.777161 0
M  V30 33511 H 630.907 6.9022 -0.46725 0
M  V30 33512 H 630.039 7.66548 -2.79458 0
M  V30 33513 H 627.384 5.16165 -2.65183 0
M  V30 33514 H 627.104 7.06433 -0.329384 0
M  V30 33515 H 626.113 6.90926 -1.82021 0
M  V30 33516 H 627.947 8.90873 -1.62657 0
M  V30 33517 P 626.076 8.03563 -3.84925 0
M  V30 33518 O 625.856 8.85821 -5.0569 0
M  V30 33519 O 625.286 8.41101 -2.65469 0
M  V30 33520 O 625.826 6.4965 -4.18908 0
M  V30 33521 C 626.766 5.81037 -5.05421 0
M  V30 33522 C 626.036 4.78366 -5.89277 0
M  V30 33523 O 625.826 3.58302 -5.08433 0
M  V30 33524 C 624.636 5.17448 -6.36119 0
M  V30 33525 O 624.246 4.45271 -7.53232 0
M  V30 33526 C 623.756 4.74639 -5.19936 0
M  V30 33527 C 624.466 3.49432 -4.70418 0
M  V30 33528 N 624.416 3.32099 -3.22613 0
M  V30 33529 H 627.255 6.54213 -5.71376 0
M  V30 33530 H 627.527 5.30936 -4.43503 0
M  V30 33531 H 626.659 4.55889 -6.76652 0
M  V30 33532 H 624.004 2.61715 -5.17932 0
M  V30 33533 H 623.724 5.52155 -4.41878 0
M  V30 33534 H 622.733 4.51981 -5.53374 0
M  V30 33535 H 624.567 6.25124 -6.55234 0
M  V30 33536 P 622.696 4.23843 -7.83734 0
M  V30 33537 O 622.476 4.19407 -9.29784 0
M  V30 33538 O 621.906 5.24426 -7.09156 0
M  V30 33539 O 622.446 2.79386 -7.20852 0
M  V30 33540 C 623.386 1.7299 -7.50419 0
M  V30 33541 C 622.656 0.41401 -7.5797 0
M  V30 33542 O 622.446 -0.089787 -6.22035 0
M  V30 33543 C 621.256 0.447224 -8.1878 0
M  V30 33544 O 620.866 -0.825159 -8.71201 0
M  V30 33545 C 620.376 0.783801 -6.99623 0
M  V30 33546 C 621.086 0.0619192 -5.85967 0
M  V30 33547 N 621.036 0.7859 -4.56281 0
M  V30 33548 C 620.886 0.0359258 -3.39981 0
M  V30 33549 O 620.796 -1.19723 -3.49038 0
M  V30 33550 N 620.836 0.869151 -2.14025 0
M  V30 33551 C 620.936 2.01207 -2.14363 0
M  V30 33552 N 620.886 2.58978 -0.954287 0
M  V30 33553 C 621.086 2.80817 -3.32215 0
M  V30 33554 C 621.136 2.13785 -4.50884 0
M  V30 33555 H 623.876 1.93401 -8.46693 0
M  V30 33556 H 624.146 1.68181 -6.71046 0
M  V30 33557 H 623.279 -0.289076 -8.15488 0
M  V30 33558 H 620.624 -0.927166 -5.72947 0
M  V30 33559 H 620.344 1.87 -6.82132 0
M  V30 33560 H 619.353 0.404009 -7.13457 0
M  V30 33561 H 621.187 1.20599 -8.97534 0
M  V30 33562 H 621.259 2.70295 -5.43162 0
M  V30 33563 H 621.157 3.89465 -3.27406 0
M  V30 33564 H 620.769 2.01616 -0.107046 0
M  V30 33565 H 620.965 3.61403 -0.873101 0
M  V30 33566 P 619.316 -1.17771 -8.83182 0
M  V30 33567 O 619.096 -2.07206 -9.98732 0
M  V30 33568 O 618.526 0.0743816 -8.81969 0
M  V30 33569 O 619.066 -1.97652 -7.47304 0
M  V30 33570 C 620.006 -3.01133 -7.08783 0
M  V30 33571 C 619.276 -4.12613 -6.37049 0
M  V30 33572 O 619.066 -3.72827 -4.97879 0
M  V30 33573 C 617.876 -4.45085 -6.88694 0
M  V30 33574 O 617.486 -5.7877 -6.5624 0
M  V30 33575 C 616.996 -3.47817 -6.12078 0
M  V30 33576 C 617.706 -3.39414 -4.77697 0
M  V30 33577 N 617.656 -2.04615 -4.15333 0
M  V30 33578 H 620.495 -3.41248 -7.98759 0
M  V30 33579 H 620.767 -2.5837 -6.41742 0
M  V30 33580 H 619.899 -5.02657 -6.42673 0
M  V30 33581 P 615.936 -6.144 -6.45285 0
M  V30 33582 O 615.716 -7.54673 -6.86199 0
M  V30 33583 O 615.146 -5.12391 -7.179 0
M  V30 33584 O 615.686 -5.99158 -4.88404 0
M  V30 33585 C 616.626 -6.60234 -3.96415 0
M  V30 33586 C 615.896 -7.08259 -2.72856 0
M  V30 33587 O 615.686 -5.9427 -1.83651 0
M  V30 33588 C 614.496 -7.64886 -2.9555 0
M  V30 33589 O 614.106 -8.53963 -1.90717 0
M  V30 33590 C 613.616 -6.4116 -2.90739 0
M  V30 33591 C 614.326 -5.55375 -1.86963 0
M  V30 33592 N 614.276 -4.09664 -2.15742 0
M  V30 33593 H 617.115 -7.45574 -4.45629 0
M  V30 33594 H 617.387 -5.86232 -3.67314 0
M  V30 33595 H 616.519 -7.84412 -2.24479 0
M  V30 33596 P 612.556 -8.7635 -1.60911 0
M  V30 33597 O 612.336 -10.1388 -1.11561 0
M  V30 33598 O 611.766 -8.36503 -2.79617 0
M  V30 33599 O 612.306 -7.71806 -0.42951 0
M  V30 33600 C 613.246 -7.66948 0.673514 0
M  V30 33601 C 612.516 -7.33374 1.95559 0
M  V30 33602 O 612.306 -5.88721 2.00726 0
M  V30 33603 C 611.116 -7.92218 2.1125 0
M  V30 33604 O 610.726 -8.02971 3.47653 0
M  V30 33605 C 610.236 -6.89504 1.41631 0
M  V30 33606 C 610.946 -5.59106 1.75155 0
M  V30 33607 N 610.896 -4.58136 0.662409 0
M  V30 33608 C 610.746 -3.26059 1.02863 0
M  V30 33609 O 610.656 -2.90743 2.19009 0
M  V30 33610 N 610.706 -2.35995 -0.0155585 0
M  V30 33611 C 610.796 -2.65248 -1.35603 0
M  V30 33612 O 610.746 -1.75605 -2.20651 0
M  V30 33613 C 610.946 -4.05747 -1.64698 0
M  V30 33614 C 611.056 -4.42345 -3.09553 0
M  V30 33615 C 610.996 -4.96734 -0.652411 0
M  V30 33616 H 613.737 -8.64917 0.776982 0
M  V30 33617 H 614.006 -6.89974 0.474015 0
M  V30 33618 H 613.139 -7.66548 2.79458 0
M  V30 33619 H 610.484 -5.16076 2.65138 0
M  V30 33620 H 610.205 -7.06433 0.329384 0
M  V30 33621 H 609.213 -6.90829 1.81996 0
M  V30 33622 H 611.047 -8.90774 1.62639 0
M  V30 33623 H 611.118 -6.02181 -0.895285 0
M  V30 33624 H 610.088 -4.80252 -3.45468 0
M  V30 33625 H 611.825 -5.20015 -3.22119 0
M  V30 33626 H 611.337 -3.53269 -3.67833 0
M  V30 33627 H 610.601 -1.39558 0.227499 0
M  V30 33628 P 609.176 -8.03563 3.84925 0
M  V30 33629 O 608.956 -8.85821 5.0569 0
M  V30 33630 O 608.386 -8.41101 2.65469 0
M  V30 33631 O 608.926 -6.4965 4.18908 0
M  V30 33632 C 609.866 -5.81037 5.05421 0
M  V30 33633 C 609.136 -4.78366 5.89277 0
M  V30 33634 O 608.926 -3.58302 5.08433 0
M  V30 33635 C 607.736 -5.17448 6.36119 0
M  V30 33636 O 607.346 -4.45271 7.53232 0
M  V30 33637 C 606.856 -4.74639 5.19936 0
M  V30 33638 C 607.566 -3.49432 4.70418 0
M  V30 33639 N 607.516 -3.31776 3.22945 0
M  V30 33640 H 610.355 -6.54213 5.71376 0
M  V30 33641 H 610.627 -5.30492 4.44033 0
M  V30 33642 H 609.759 -4.55889 6.76652 0
M  V30 33643 P 605.796 -4.23843 7.83734 0
M  V30 33644 O 605.576 -4.19407 9.29784 0
M  V30 33645 O 605.006 -5.24426 7.09156 0
M  V30 33646 O 605.546 -2.7935 7.20758 0
M  V30 33647 C 606.486 -1.7299 7.50419 0
M  V30 33648 C 605.756 -0.406376 7.57911 0
M  V30 33649 O 605.546 0.0897726 6.21935 0
M  V30 33650 C 604.356 -0.447224 8.1878 0
M  V30 33651 O 603.966 0.825065 8.71101 0
M  V30 33652 C 603.476 -0.783801 6.99623 0
M  V30 33653 C 604.186 -0.0619192 5.85967 0
M  V30 33654 N 604.136 -0.7859 4.56281 0
M  V30 33655 H 606.975 -1.93423 8.4679 0
M  V30 33656 H 607.247 -1.68181 6.71046 0
M  V30 33657 H 606.379 0.289041 8.15388 0
M  V30 33658 P 602.416 1.17771 8.83182 0
M  V30 33659 O 602.196 2.07206 9.98732 0
M  V30 33660 O 601.626 -0.0743816 8.81969 0
M  V30 33661 O 602.166 1.97652 7.47304 0
M  V30 33662 C 603.106 3.01133 7.08783 0
M  V30 33663 C 602.376 4.12613 6.37049 0
M  V30 33664 O 602.166 3.72827 4.97879 0
M  V30 33665 C 600.976 4.45085 6.88694 0
M  V30 33666 O 600.586 5.7877 6.5624 0
M  V30 33667 C 600.096 3.47817 6.12078 0
M  V30 33668 C 600.806 3.39414 4.77697 0
M  V30 33669 N 600.756 2.04199 4.15538 0
M  V30 33670 H 603.595 3.41248 7.98759 0
M  V30 33671 H 603.867 2.57728 6.42 0
M  V30 33672 H 602.999 5.02657 6.42673 0
M  V30 33673 H 600.344 4.11708 4.08956 0
M  V30 33674 H 600.064 2.49626 6.61679 0
M  V30 33675 H 599.073 3.8662 6.00862 0
M  V30 33676 H 600.907 4.29991 7.97006 0
M  V30 33677 P 599.036 6.144 6.45285 0
M  V30 33678 O 598.816 7.54673 6.86199 0
M  V30 33679 O 598.246 5.12391 7.179 0
M  V30 33680 O 598.786 5.99158 4.88404 0
M  V30 33681 C 599.726 6.60234 3.96415 0
M  V30 33682 C 598.996 7.08259 2.72856 0
M  V30 33683 O 598.786 5.9427 1.83651 0
M  V30 33684 C 597.596 7.64886 2.9555 0
M  V30 33685 O 597.206 8.53963 1.90717 0
M  V30 33686 C 596.716 6.4116 2.90739 0
M  V30 33687 C 597.426 5.55375 1.86963 0
M  V30 33688 N 597.376 4.09664 2.15742 0
M  V30 33689 H 600.215 7.45574 4.45629 0
M  V30 33690 H 600.487 5.86232 3.67314 0
M  V30 33691 H 599.619 7.84412 2.24479 0
M  V30 33692 P 595.656 8.7635 1.60911 0
M  V30 33693 O 595.437 10.1388 1.11561 0
M  V30 33694 O 594.866 8.36503 2.79617 0
M  V30 33695 O 595.406 7.71806 0.42951 0
M  V30 33696 C 596.346 7.67148 -0.673689 0
M  V30 33697 C 595.616 7.33374 -1.95559 0
M  V30 33698 O 595.406 5.88721 -2.00726 0
M  V30 33699 C 594.216 7.92526 -2.10483 0
M  V30 33700 O 593.827 8.02971 -3.47653 0
M  V30 33701 C 593.337 6.89602 -1.41652 0
M  V30 33702 C 594.046 5.59201 -1.75185 0
M  V30 33703 N 593.996 4.58235 -0.662552 0
M  V30 33704 H 596.836 8.65116 -0.777161 0
M  V30 33705 H 597.107 6.90173 -0.474152 0
M  V30 33706 H 596.24 7.66548 -2.79458 0
M  V30 33707 P 592.277 8.03563 -3.84925 0
M  V30 33708 O 592.057 8.85821 -5.0569 0
M  V30 33709 O 591.487 8.41101 -2.65469 0
M  V30 33710 O 592.027 6.4965 -4.18908 0
M  V30 33711 C 592.967 5.81037 -5.05421 0
M  V30 33712 C 592.237 4.78366 -5.89277 0
M  V30 33713 O 592.027 3.58302 -5.08433 0
M  V30 33714 C 590.837 5.17448 -6.36119 0
M  V30 33715 O 590.447 4.45271 -7.53232 0
M  V30 33716 C 589.957 4.74639 -5.19936 0
M  V30 33717 C 590.667 3.49432 -4.70418 0
M  V30 33718 N 590.617 3.31776 -3.22945 0
M  V30 33719 H 593.456 6.54213 -5.71376 0
M  V30 33720 H 593.728 5.30492 -4.44033 0
M  V30 33721 H 592.86 4.55889 -6.76652 0
M  V30 33722 P 588.897 4.23843 -7.83734 0
M  V30 33723 O 588.677 4.19407 -9.29784 0
M  V30 33724 O 588.107 5.24426 -7.09156 0
M  V30 33725 O 588.647 2.7935 -7.20758 0
M  V30 33726 C 589.587 1.7299 -7.50419 0
M  V30 33727 C 588.857 0.406376 -7.57911 0
M  V30 33728 O 588.647 -0.0897726 -6.21935 0
M  V30 33729 C 587.457 0.447224 -8.1878 0
M  V30 33730 O 587.067 -0.825065 -8.71101 0
M  V30 33731 C 586.577 0.783801 -6.99623 0
M  V30 33732 C 587.287 0.0619192 -5.85967 0
M  V30 33733 N 587.237 0.7859 -4.56281 0
M  V30 33734 H 590.076 1.93423 -8.4679 0
M  V30 33735 H 590.348 1.68181 -6.71046 0
M  V30 33736 H 589.48 -0.289041 -8.15388 0
M  V30 33737 P 585.517 -1.17771 -8.83182 0
M  V30 33738 O 585.297 -2.07206 -9.98732 0
M  V30 33739 O 584.727 0.0743816 -8.81969 0
M  V30 33740 O 585.267 -1.97652 -7.47304 0
M  V30 33741 C 586.207 -3.01133 -7.08783 0
M  V30 33742 C 585.477 -4.12613 -6.37049 0
M  V30 33743 O 585.267 -3.72827 -4.97879 0
M  V30 33744 C 584.077 -4.45085 -6.88694 0
M  V30 33745 O 583.687 -5.7877 -6.5624 0
M  V30 33746 C 583.197 -3.47817 -6.12078 0
M  V30 33747 C 583.907 -3.39414 -4.77697 0
M  V30 33748 N 583.857 -2.04615 -4.15333 0
M  V30 33749 H 586.696 -3.41248 -7.98759 0
M  V30 33750 H 586.968 -2.5837 -6.41742 0
M  V30 33751 H 586.1 -5.02657 -6.42673 0
M  V30 33752 P 582.137 -6.144 -6.45285 0
M  V30 33753 O 581.917 -7.54673 -6.86199 0
M  V30 33754 O 581.347 -5.12391 -7.179 0
M  V30 33755 O 581.887 -5.99158 -4.88404 0
M  V30 33756 C 582.827 -6.60234 -3.96415 0
M  V30 33757 C 582.097 -7.08259 -2.72856 0
M  V30 33758 O 581.887 -5.9427 -1.83651 0
M  V30 33759 C 580.697 -7.64886 -2.9555 0
M  V30 33760 O 580.307 -8.53963 -1.90717 0
M  V30 33761 C 579.817 -6.4116 -2.90739 0
M  V30 33762 C 580.527 -5.55375 -1.86963 0
M  V30 33763 N 580.477 -4.09664 -2.15742 0
M  V30 33764 H 583.316 -7.45574 -4.45629 0
M  V30 33765 H 583.588 -5.86232 -3.67314 0
M  V30 33766 H 582.72 -7.84412 -2.24479 0
M  V30 33767 P 578.757 -8.7635 -1.60911 0
M  V30 33768 O 578.537 -10.1388 -1.11561 0
M  V30 33769 O 577.967 -8.36503 -2.79617 0
M  V30 33770 O 578.507 -7.71806 -0.42951 0
M  V30 33771 C 579.447 -7.67148 0.673689 0
M  V30 33772 C 578.717 -7.33374 1.95559 0
M  V30 33773 O 578.507 -5.88721 2.00726 0
M  V30 33774 C 577.317 -7.92526 2.10483 0
M  V30 33775 O 576.927 -8.02971 3.47653 0
M  V30 33776 C 576.437 -6.89602 1.41652 0
M  V30 33777 C 577.147 -5.59201 1.75185 0
M  V30 33778 N 577.097 -4.58235 0.662552 0
M  V30 33779 H 579.936 -8.65116 0.777161 0
M  V30 33780 H 580.208 -6.90173 0.474152 0
M  V30 33781 H 579.34 -7.66548 2.79458 0
M  V30 33782 P 575.377 -8.03563 3.84925 0
M  V30 33783 O 575.157 -8.85821 5.0569 0
M  V30 33784 O 574.587 -8.41101 2.65469 0
M  V30 33785 O 575.127 -6.49734 4.18962 0
M  V30 33786 C 576.067 -5.81037 5.05421 0
M  V30 33787 C 575.337 -4.79018 5.88876 0
M  V30 33788 O 575.127 -3.58359 5.08515 0
M  V30 33789 C 573.937 -5.17448 6.36119 0
M  V30 33790 O 573.547 -4.45322 7.53318 0
M  V30 33791 C 573.057 -4.74639 5.19936 0
M  V30 33792 C 573.767 -3.49432 4.70418 0
M  V30 33793 N 573.717 -3.31776 3.22945 0
M  V30 33794 C 573.567 -2.02742 2.72939 0
M  V30 33795 O 573.477 -1.08301 3.52749 0
M  V30 33796 N 573.517 -1.96117 1.22063 0
M  V30 33797 C 573.617 -2.8878 0.551566 0
M  V30 33798 N 573.567 -2.65609 -0.750198 0
M  V30 33799 C 573.767 -4.22457 1.03707 0
M  V30 33800 C 573.817 -4.37979 2.39113 0
M  V30 33801 H 576.557 -6.54138 5.7131 0
M  V30 33802 H 576.827 -5.30492 4.44033 0
M  V30 33803 H 575.96 -4.55945 6.76735 0
M  V30 33804 H 573.305 -2.6176 5.18021 0
M  V30 33805 H 573.025 -5.52233 4.41941 0
M  V30 33806 H 572.034 -4.52045 5.53452 0
M  V30 33807 H 573.868 -6.25124 6.55234 0
M  V30 33808 H 573.94 -5.37936 2.80552 0
M  V30 33809 H 573.838 -5.07528 0.359553 0
M  V30 33810 H 573.45 -1.69403 -1.09847 0
M  V30 33811 H 573.646 -3.43701 -1.41792 0
M  V30 33812 P 571.997 -4.23843 7.83734 0
M  V30 33813 O 571.777 -4.19407 9.29784 0
M  V30 33814 O 571.207 -5.24426 7.09156 0
M  V30 33815 O 571.747 -2.7935 7.20758 0
M  V30 33816 C 572.687 -1.7299 7.50419 0
M  V30 33817 C 571.957 -0.406376 7.57911 0
M  V30 33818 O 571.747 0.0897726 6.21935 0
M  V30 33819 C 570.557 -0.447224 8.1878 0
M  V30 33820 O 570.167 0.825065 8.71101 0
M  V30 33821 C 569.677 -0.783801 6.99623 0
M  V30 33822 C 570.387 -0.0619192 5.85967 0
M  V30 33823 N 570.337 -0.7859 4.56281 0
M  V30 33824 C 570.417 -2.14308 4.31736 0
M  V30 33825 N 570.337 -2.46106 3.05116 0
M  V30 33826 C 570.197 -1.23422 2.4014 0
M  V30 33827 C 570.067 -0.938381 1.02409 0
M  V30 33828 N 569.947 0.444647 0.805413 0
M  V30 33829 C 569.947 1.40829 1.79435 0
M  V30 33830 N 569.817 2.67213 1.38558 0
M  V30 33831 N 570.077 1.12947 3.09005 0
M  V30 33832 C 570.197 -0.204887 3.32369 0
M  V30 33833 H 573.176 -1.93423 8.4679 0
M  V30 33834 H 573.448 -1.68181 6.71046 0
M  V30 33835 H 572.58 0.289041 8.15388 0
M  V30 33836 P 568.617 1.17771 8.83182 0
M  V30 33837 O 568.397 2.07206 9.98732 0
M  V30 33838 O 567.827 -0.0743816 8.81969 0
M  V30 33839 O 568.367 1.97652 7.47304 0
M  V30 33840 C 569.307 3.01133 7.08783 0
M  V30 33841 C 568.577 4.12613 6.37049 0
M  V30 33842 O 568.367 3.72827 4.97879 0
M  V30 33843 C 567.177 4.45085 6.88694 0
M  V30 33844 O 566.787 5.7877 6.5624 0
M  V30 33845 C 566.297 3.47817 6.12078 0
M  V30 33846 C 567.007 3.39414 4.77697 0
M  V30 33847 N 566.957 2.04199 4.15538 0
M  V30 33848 H 569.796 3.41248 7.98759 0
M  V30 33849 H 570.068 2.57728 6.42 0
M  V30 33850 H 569.2 5.02657 6.42673 0
M  V30 33851 H 566.545 4.11708 4.08956 0
M  V30 33852 H 566.265 2.49626 6.61679 0
M  V30 33853 H 565.274 3.8662 6.00862 0
M  V30 33854 H 567.108 4.29991 7.97006 0
M  V30 33855 P 565.237 6.144 6.45285 0
M  V30 33856 O 565.017 7.54673 6.86199 0
M  V30 33857 O 564.447 5.12391 7.179 0
M  V30 33858 O 564.987 5.99158 4.88404 0
M  V30 33859 C 565.927 6.60234 3.96415 0
M  V30 33860 C 565.197 7.08259 2.72856 0
M  V30 33861 O 564.987 5.9427 1.83651 0
M  V30 33862 C 563.797 7.64886 2.9555 0
M  V30 33863 O 563.407 8.53963 1.90717 0
M  V30 33864 C 562.917 6.4116 2.90739 0
M  V30 33865 C 563.627 5.55375 1.86963 0
M  V30 33866 N 563.577 4.09664 2.15742 0
M  V30 33867 H 566.416 7.45574 4.45629 0
M  V30 33868 H 566.688 5.86232 3.67314 0
M  V30 33869 H 565.82 7.84412 2.24479 0
M  V30 33870 P 561.857 8.7635 1.60911 0
M  V30 33871 O 561.637 10.1388 1.11561 0
M  V30 33872 O 561.067 8.36503 2.79617 0
M  V30 33873 O 561.607 7.71806 0.42951 0
M  V30 33874 C 562.547 7.67148 -0.673689 0
M  V30 33875 C 561.817 7.33374 -1.95559 0
M  V30 33876 O 561.607 5.88721 -2.00726 0
M  V30 33877 C 560.417 7.92526 -2.10483 0
M  V30 33878 O 560.027 8.02971 -3.47653 0
M  V30 33879 C 559.537 6.89602 -1.41652 0
M  V30 33880 C 560.247 5.59201 -1.75185 0
M  V30 33881 N 560.197 4.58235 -0.662552 0
M  V30 33882 H 563.036 8.65116 -0.777161 0
M  V30 33883 H 563.308 6.90173 -0.474152 0
M  V30 33884 H 562.44 7.66548 -2.79458 0
M  V30 33885 P 558.477 8.03563 -3.84925 0
M  V30 33886 O 558.257 8.85821 -5.0569 0
M  V30 33887 O 557.687 8.41101 -2.65469 0
M  V30 33888 O 558.227 6.4965 -4.18908 0
M  V30 33889 C 559.167 5.81037 -5.05421 0
M  V30 33890 C 558.437 4.78366 -5.89277 0
M  V30 33891 O 558.227 3.58302 -5.08433 0
M  V30 33892 C 557.037 5.17448 -6.36119 0
M  V30 33893 O 556.647 4.45271 -7.53232 0
M  V30 33894 C 556.157 4.74639 -5.19936 0
M  V30 33895 C 556.867 3.49432 -4.70418 0
M  V30 33896 N 556.817 3.31776 -3.22945 0
M  V30 33897 H 559.656 6.54213 -5.71376 0
M  V30 33898 H 559.928 5.30492 -4.44033 0
M  V30 33899 H 559.06 4.55889 -6.76652 0
M  V30 33900 P 555.097 4.23843 -7.83734 0
M  V30 33901 O 554.877 4.19407 -9.29784 0
M  V30 33902 O 554.307 5.24426 -7.09156 0
M  V30 33903 O 554.847 2.7935 -7.20758 0
M  V30 33904 C 555.787 1.7299 -7.50419 0
M  V30 33905 C 555.057 0.406376 -7.57911 0
M  V30 33906 O 554.847 -0.0897726 -6.21935 0
M  V30 33907 C 553.657 0.447224 -8.1878 0
M  V30 33908 O 553.267 -0.825065 -8.71101 0
M  V30 33909 C 552.777 0.783801 -6.99623 0
M  V30 33910 C 553.487 0.0619192 -5.85967 0
M  V30 33911 N 553.437 0.7859 -4.56281 0
M  V30 33912 H 556.276 1.93423 -8.4679 0
M  V30 33913 H 556.548 1.68181 -6.71046 0
M  V30 33914 H 555.68 -0.289041 -8.15388 0
M  V30 33915 P 551.717 -1.17771 -8.83182 0
M  V30 33916 O 551.497 -2.07206 -9.98732 0
M  V30 33917 O 550.927 0.0743816 -8.81969 0
M  V30 33918 O 551.467 -1.97652 -7.47304 0
M  V30 33919 C 552.407 -3.01133 -7.08783 0
M  V30 33920 C 551.677 -4.12613 -6.37049 0
M  V30 33921 O 551.467 -3.72827 -4.97879 0
M  V30 33922 C 550.277 -4.45085 -6.88694 0
M  V30 33923 O 549.887 -5.7877 -6.5624 0
M  V30 33924 C 549.397 -3.47817 -6.12078 0
M  V30 33925 C 550.107 -3.39414 -4.77697 0
M  V30 33926 N 550.057 -2.04615 -4.15333 0
M  V30 33927 H 552.896 -3.41248 -7.98759 0
M  V30 33928 H 553.168 -2.5837 -6.41742 0
M  V30 33929 H 552.3 -5.02657 -6.42673 0
M  V30 33930 P 548.337 -6.144 -6.45285 0
M  V30 33931 O 548.117 -7.54673 -6.86199 0
M  V30 33932 O 547.547 -5.12391 -7.179 0
M  V30 33933 O 548.087 -5.99158 -4.88404 0
M  V30 33934 C 549.027 -6.60234 -3.96415 0
M  V30 33935 C 548.297 -7.08259 -2.72856 0
M  V30 33936 O 548.087 -5.9427 -1.83651 0
M  V30 33937 C 546.897 -7.64886 -2.9555 0
M  V30 33938 O 546.507 -8.53963 -1.90717 0
M  V30 33939 C 546.017 -6.4116 -2.90739 0
M  V30 33940 C 546.727 -5.55375 -1.86963 0
M  V30 33941 N 546.677 -4.09664 -2.15742 0
M  V30 33942 H 549.516 -7.45574 -4.45629 0
M  V30 33943 H 549.788 -5.86232 -3.67314 0
M  V30 33944 H 548.92 -7.84412 -2.24479 0
M  V30 33945 P 544.957 -8.7635 -1.60911 0
M  V30 33946 O 544.737 -10.1388 -1.11561 0
M  V30 33947 O 544.167 -8.36503 -2.79617 0
M  V30 33948 O 544.707 -7.71906 -0.429565 0
M  V30 33949 C 545.647 -7.67148 0.673689 0
M  V30 33950 C 544.917 -7.33666 1.94851 0
M  V30 33951 O 544.707 -5.88816 2.00759 0
M  V30 33952 C 543.517 -7.92526 2.10483 0
M  V30 33953 O 543.127 -8.03063 3.47693 0
M  V30 33954 C 542.637 -6.89602 1.41652 0
M  V30 33955 C 543.347 -5.59201 1.75185 0
M  V30 33956 N 543.297 -4.58235 0.662552 0
M  V30 33957 C 543.147 -3.24451 1.01643 0
M  V30 33958 O 543.057 -2.94958 2.21722 0
M  V30 33959 N 543.097 -2.30408 -0.165238 0
M  V30 33960 C 543.197 -2.66048 -1.25118 0
M  V30 33961 N 543.147 -1.70787 -2.16813 0
M  V30 33962 C 543.347 -4.02732 -1.64413 0
M  V30 33963 C 543.397 -4.9488 -0.63991 0
M  V30 33964 H 546.137 -8.65017 0.777072 0
M  V30 33965 H 546.407 -6.90173 0.474152 0
M  V30 33966 H 545.54 -7.66642 2.79492 0
M  V30 33967 H 542.885 -5.16254 2.65229 0
M  V30 33968 H 542.605 -7.06532 0.329431 0
M  V30 33969 H 541.614 -6.91023 1.82047 0
M  V30 33970 H 543.448 -8.90873 1.62657 0
M  V30 33971 H 543.52 -6.00104 -0.892197 0
M  V30 33972 H 543.418 -4.31733 -2.69229 0
M  V30 33973 H 543.03 -0.724835 -1.8844 0
M  V30 33974 H 543.226 -1.94716 -3.16734 0
M  V30 33975 P 541.577 -8.03563 3.84925 0
M  V30 33976 O 541.357 -8.85821 5.0569 0
M  V30 33977 O 540.787 -8.41101 2.65469 0
M  V30 33978 O 541.327 -6.4965 4.18908 0
M  V30 33979 C 542.267 -5.81037 5.05421 0
M  V30 33980 C 541.537 -4.78366 5.89277 0
M  V30 33981 O 541.327 -3.58302 5.08433 0
M  V30 33982 C 540.137 -5.17448 6.36119 0
M  V30 33983 O 539.747 -4.45271 7.53232 0
M  V30 33984 C 539.257 -4.74639 5.19936 0
M  V30 33985 C 539.967 -3.49432 4.70418 0
M  V30 33986 N 539.917 -3.31776 3.22945 0
M  V30 33987 H 542.756 -6.54213 5.71376 0
M  V30 33988 H 543.028 -5.30492 4.44033 0
M  V30 33989 H 542.16 -4.55889 6.76652 0
M  V30 33990 P 538.197 -4.23843 7.83734 0
M  V30 33991 O 537.977 -4.19407 9.29784 0
M  V30 33992 O 537.407 -5.24426 7.09156 0
M  V30 33993 O 537.947 -2.7935 7.20758 0
M  V30 33994 C 538.887 -1.7299 7.50419 0
M  V30 33995 C 538.157 -0.406376 7.57911 0
M  V30 33996 O 537.947 0.0897726 6.21935 0
M  V30 33997 C 536.757 -0.447224 8.1878 0
M  V30 33998 O 536.367 0.825065 8.71101 0
M  V30 33999 C 535.877 -0.783801 6.99623 0
M  V30 34000 C 536.587 -0.0619192 5.85967 0
M  V30 34001 N 536.537 -0.7859 4.56281 0
M  V30 34002 H 539.376 -1.93423 8.4679 0
M  V30 34003 H 539.648 -1.68181 6.71046 0
M  V30 34004 H 538.78 0.289041 8.15388 0
M  V30 34005 P 534.817 1.17771 8.83182 0
M  V30 34006 O 534.597 2.07206 9.98732 0
M  V30 34007 O 534.027 -0.0743816 8.81969 0
M  V30 34008 O 534.567 1.97652 7.47304 0
M  V30 34009 C 535.507 3.01133 7.08783 0
M  V30 34010 C 534.777 4.12613 6.37049 0
M  V30 34011 O 534.567 3.72827 4.97879 0
M  V30 34012 C 533.377 4.45085 6.88694 0
M  V30 34013 O 532.987 5.7877 6.5624 0
M  V30 34014 C 532.497 3.47817 6.12078 0
M  V30 34015 C 533.207 3.39414 4.77697 0
M  V30 34016 N 533.157 2.04199 4.15538 0
M  V30 34017 C 533.237 0.821545 4.76977 0
M  V30 34018 N 533.167 -0.1794 3.94592 0
M  V30 34019 C 533.017 0.419121 2.70776 0
M  V30 34020 C 532.887 -0.109072 1.40577 0
M  V30 34021 N 532.877 -1.4104 1.1344 0
M  V30 34022 N 532.767 0.764381 0.39411 0
M  V30 34023 C 532.777 2.06587 0.664135 0
M  V30 34024 N 532.897 2.67948 1.82153 0
M  V30 34025 C 533.017 1.77942 2.8147 0
M  V30 34026 H 535.996 3.41248 7.98759 0
M  V30 34027 H 536.268 2.57728 6.42 0
M  V30 34028 H 535.4 5.02657 6.42673 0
M  V30 34029 H 532.745 4.11708 4.08956 0
M  V30 34030 H 532.465 2.49626 6.61679 0
M  V30 34031 H 531.474 3.8662 6.00862 0
M  V30 34032 H 533.308 4.29991 7.97006 0
M  V30 34033 H 533.349 0.702451 5.84696 0
M  V30 34034 H 532.968 -2.09647 1.89651 0
M  V30 34035 H 532.779 -1.73358 0.160575 0
M  V30 34036 H 532.671 2.71695 -0.195838 0
M  V30 34037 P 531.437 6.144 6.45285 0
M  V30 34038 O 531.217 7.54673 6.86199 0
M  V30 34039 O 530.647 5.12391 7.179 0
M  V30 34040 O 531.187 5.99158 4.88404 0
M  V30 34041 C 532.127 6.60234 3.96415 0
M  V30 34042 C 531.397 7.08259 2.72856 0
M  V30 34043 O 531.187 5.9427 1.83651 0
M  V30 34044 C 529.997 7.64886 2.9555 0
M  V30 34045 O 529.607 8.53963 1.90717 0
M  V30 34046 C 529.117 6.4116 2.90739 0
M  V30 34047 C 529.827 5.55375 1.86963 0
M  V30 34048 N 529.777 4.09664 2.15742 0
M  V30 34049 H 532.616 7.45574 4.45629 0
M  V30 34050 H 532.888 5.86232 3.67314 0
M  V30 34051 H 532.02 7.84412 2.24479 0
M  V30 34052 P 528.057 8.7635 1.60911 0
M  V30 34053 O 527.837 10.1388 1.11561 0
M  V30 34054 O 527.267 8.36503 2.79617 0
M  V30 34055 O 527.807 7.71806 0.42951 0
M  V30 34056 C 528.747 7.67148 -0.673689 0
M  V30 34057 C 528.017 7.33374 -1.95559 0
M  V30 34058 O 527.807 5.88721 -2.00726 0
M  V30 34059 C 526.617 7.92526 -2.10483 0
M  V30 34060 O 526.227 8.02971 -3.47653 0
M  V30 34061 C 525.737 6.89602 -1.41652 0
M  V30 34062 C 526.447 5.59201 -1.75185 0
M  V30 34063 N 526.397 4.58301 -0.657969 0
M  V30 34064 C 526.477 4.79019 0.692603 0
M  V30 34065 N 526.407 3.69736 1.38998 0
M  V30 34066 C 526.257 2.70474 0.438135 0
M  V30 34067 C 526.127 1.30327 0.538142 0
M  V30 34068 N 526.117 0.64304 1.69192 0
M  V30 34069 N 526.007 0.611027 -0.605183 0
M  V30 34070 C 526.017 1.27002 -1.75953 0
M  V30 34071 N 526.137 2.56038 -1.98546 0
M  V30 34072 C 526.257 3.22681 -0.822541 0
M  V30 34073 H 529.236 8.65116 -0.777161 0
M  V30 34074 H 529.508 6.9022 -0.46725 0
M  V30 34075 H 528.64 7.66548 -2.79458 0
M  V30 34076 H 525.985 5.16165 -2.65183 0
M  V30 34077 H 525.705 7.06433 -0.329384 0
M  V30 34078 H 524.714 6.90926 -1.82021 0
M  V30 34079 H 526.548 8.90873 -1.62657 0
M  V30 34080 H 526.589 5.77785 1.13874 0
M  V30 34081 H 526.208 1.15585 2.57991 0
M  V30 34082 H 526.019 -0.382989 1.69835 0
M  V30 34083 H 525.911 0.653331 -2.64449 0
M  V30 34084 P 524.677 8.03563 -3.84925 0
M  V30 34085 O 524.457 8.85821 -5.0569 0
M  V30 34086 O 523.887 8.41101 -2.65469 0
M  V30 34087 O 524.427 6.4965 -4.18908 0
M  V30 34088 C 525.367 5.81037 -5.05421 0
M  V30 34089 C 524.637 4.78366 -5.89277 0
M  V30 34090 O 524.427 3.58302 -5.08433 0
M  V30 34091 C 523.237 5.17448 -6.36119 0
M  V30 34092 O 522.847 4.45271 -7.53232 0
M  V30 34093 C 522.357 4.74639 -5.19936 0
M  V30 34094 C 523.067 3.49432 -4.70418 0
M  V30 34095 N 523.017 3.31776 -3.22945 0
M  V30 34096 H 525.856 6.54213 -5.71376 0
M  V30 34097 H 526.128 5.30492 -4.44033 0
M  V30 34098 H 525.26 4.55889 -6.76652 0
M  V30 34099 P 521.297 4.23843 -7.83734 0
M  V30 34100 O 521.077 4.19407 -9.29784 0
M  V30 34101 O 520.507 5.24426 -7.09156 0
M  V30 34102 O 521.047 2.7935 -7.20758 0
M  V30 34103 C 521.987 1.7299 -7.50419 0
M  V30 34104 C 521.257 0.406376 -7.57911 0
M  V30 34105 O 521.047 -0.0897726 -6.21935 0
M  V30 34106 C 519.857 0.447224 -8.1878 0
M  V30 34107 O 519.467 -0.825065 -8.71101 0
M  V30 34108 C 518.977 0.783801 -6.99623 0
M  V30 34109 C 519.687 0.0619192 -5.85967 0
M  V30 34110 N 519.637 0.790462 -4.56202 0
M  V30 34111 C 519.717 2.13895 -4.34171 0
M  V30 34112 N 519.647 2.46449 -3.08687 0
M  V30 34113 C 519.497 1.2525 -2.43697 0
M  V30 34114 C 519.367 0.914535 -1.07318 0
M  V30 34115 N 519.357 1.80782 -0.0887348 0
M  V30 34116 N 519.247 -0.386745 -0.768133 0
M  V30 34117 C 519.257 -1.28096 -1.75159 0
M  V30 34118 N 519.377 -1.09708 -3.04861 0
M  V30 34119 C 519.497 0.214857 -3.32306 0
M  V30 34120 H 522.476 1.93423 -8.4679 0
M  V30 34121 H 522.748 1.68852 -6.70877 0
M  V30 34122 H 521.88 -0.289041 -8.15388 0
M  V30 34123 H 519.225 -0.927006 -5.72848 0
M  V30 34124 H 518.945 1.86973 -6.82036 0
M  V30 34125 H 517.954 0.403953 -7.13357 0
M  V30 34126 H 519.788 1.20599 -8.97534 0
M  V30 34127 H 519.829 2.86846 -5.14318 0
M  V30 34128 H 519.448 2.81082 -0.302037 0
M  V30 34129 H 519.259 1.49688 0.889064 0
M  V30 34130 H 519.151 -2.31317 -1.43855 0
M  V30 34131 P 517.917 -1.17771 -8.83182 0
M  V30 34132 O 517.697 -2.07206 -9.98732 0
M  V30 34133 O 517.127 0.0743816 -8.81969 0
M  V30 34134 O 517.667 -1.97652 -7.47304 0
M  V30 34135 C 518.607 -3.01133 -7.08783 0
M  V30 34136 C 517.877 -4.12613 -6.37049 0
M  V30 34137 O 517.667 -3.72827 -4.97879 0
M  V30 34138 C 516.477 -4.45085 -6.88694 0
M  V30 34139 O 516.087 -5.7877 -6.5624 0
M  V30 34140 C 515.597 -3.47817 -6.12078 0
M  V30 34141 C 516.307 -3.39414 -4.77697 0
M  V30 34142 N 516.257 -2.04615 -4.15333 0
M  V30 34143 H 519.096 -3.41248 -7.98759 0
M  V30 34144 H 519.368 -2.5837 -6.41742 0
M  V30 34145 H 518.5 -5.02657 -6.42673 0
M  V30 34146 P 514.537 -6.144 -6.45285 0
M  V30 34147 O 514.317 -7.54673 -6.86199 0
M  V30 34148 O 513.747 -5.12391 -7.179 0
M  V30 34149 O 514.287 -5.99158 -4.88404 0
M  V30 34150 C 515.227 -6.60234 -3.96415 0
M  V30 34151 C 514.497 -7.08259 -2.72856 0
M  V30 34152 O 514.287 -5.9427 -1.83651 0
M  V30 34153 C 513.097 -7.64886 -2.9555 0
M  V30 34154 O 512.707 -8.53963 -1.90717 0
M  V30 34155 C 512.217 -6.4116 -2.90739 0
M  V30 34156 C 512.927 -5.55375 -1.86963 0
M  V30 34157 N 512.877 -4.09664 -2.15742 0
M  V30 34158 H 515.716 -7.45574 -4.45629 0
M  V30 34159 H 515.988 -5.86232 -3.67314 0
M  V30 34160 H 515.12 -7.84412 -2.24479 0
M  V30 34161 P 511.157 -8.7635 -1.60911 0
M  V30 34162 O 510.937 -10.1388 -1.11561 0
M  V30 34163 O 510.367 -8.36503 -2.79617 0
M  V30 34164 O 510.907 -7.71806 -0.42951 0
M  V30 34165 C 511.847 -7.67148 0.673689 0
M  V30 34166 C 511.117 -7.33374 1.95559 0
M  V30 34167 O 510.907 -5.88721 2.00726 0
M  V30 34168 C 509.717 -7.92526 2.10483 0
M  V30 34169 O 509.327 -8.02971 3.47653 0
M  V30 34170 C 508.837 -6.89602 1.41652 0
M  V30 34171 C 509.547 -5.59201 1.75185 0
M  V30 34172 N 509.497 -4.58235 0.662552 0
M  V30 34173 H 512.336 -8.65116 0.777161 0
M  V30 34174 H 512.608 -6.90173 0.474152 0
M  V30 34175 H 511.74 -7.66548 2.79458 0
M  V30 34176 P 507.777 -8.03563 3.84925 0
M  V30 34177 O 507.557 -8.85821 5.0569 0
M  V30 34178 O 506.987 -8.41101 2.65469 0
M  V30 34179 O 507.527 -6.4965 4.18908 0
M  V30 34180 C 508.467 -5.81037 5.05421 0
M  V30 34181 C 507.737 -4.78366 5.89277 0
M  V30 34182 O 507.527 -3.58302 5.08433 0
M  V30 34183 C 506.337 -5.17448 6.36119 0
M  V30 34184 O 505.947 -4.45271 7.53232 0
M  V30 34185 C 505.457 -4.74639 5.19936 0
M  V30 34186 C 506.167 -3.49432 4.70418 0
M  V30 34187 N 506.117 -3.32099 3.22613 0
M  V30 34188 C 506.197 -4.28245 2.25527 0
M  V30 34189 N 506.127 -3.80823 1.04874 0
M  V30 34190 C 505.977 -2.44571 1.23535 0
M  V30 34191 C 505.847 -1.37068 0.330675 0
M  V30 34192 N 505.837 -1.51472 -0.990824 0
M  V30 34193 N 505.727 -0.138614 0.848756 0
M  V30 34194 C 505.737 0.00675923 2.16999 0
M  V30 34195 N 505.857 -0.904372 3.11122 0
M  V30 34196 C 505.977 -2.12707 2.56212 0
M  V30 34197 H 508.956 -6.54213 5.71376 0
M  V30 34198 H 509.228 -5.30936 4.43503 0
M  V30 34199 H 508.36 -4.55889 6.76652 0
M  V30 34200 H 505.705 -2.61715 5.17932 0
M  V30 34201 H 505.425 -5.52155 4.41878 0
M  V30 34202 H 504.434 -4.51981 5.53374 0
M  V30 34203 H 506.268 -6.25124 6.55234 0
M  V30 34204 H 506.309 -5.34372 2.47488 0
M  V30 34205 H 505.928 -2.45153 -1.4078 0
M  V30 34206 H 505.739 -0.688422 -1.59911 0
M  V30 34207 H 505.631 1.02584 2.52346 0
M  V30 34208 P 504.397 -4.23843 7.83734 0
M  V30 34209 O 504.177 -4.19407 9.29784 0
M  V30 34210 O 503.607 -5.24426 7.09156 0
M  V30 34211 O 504.147 -2.7935 7.20758 0
M  V30 34212 C 505.087 -1.7299 7.50419 0
M  V30 34213 C 504.357 -0.406376 7.57911 0
M  V30 34214 O 504.147 0.0897726 6.21935 0
M  V30 34215 C 502.957 -0.447224 8.1878 0
M  V30 34216 O 502.567 0.825065 8.71101 0
M  V30 34217 C 502.077 -0.783801 6.99623 0
M  V30 34218 C 502.787 -0.0619192 5.85967 0
M  V30 34219 N 502.737 -0.7859 4.56281 0
M  V30 34220 H 505.576 -1.93423 8.4679 0
M  V30 34221 H 505.848 -1.68181 6.71046 0
M  V30 34222 H 504.98 0.289041 8.15388 0
M  V30 34223 P 501.017 1.17771 8.83182 0
M  V30 34224 O 500.797 2.07206 9.98732 0
M  V30 34225 O 500.227 -0.0743816 8.81969 0
M  V30 34226 O 500.767 1.97652 7.47304 0
M  V30 34227 C 501.707 3.01133 7.08783 0
M  V30 34228 C 500.977 4.12613 6.37049 0
M  V30 34229 O 500.767 3.72827 4.97879 0
M  V30 34230 C 499.577 4.45085 6.88694 0
M  V30 34231 O 499.187 5.7877 6.5624 0
M  V30 34232 C 498.697 3.47817 6.12078 0
M  V30 34233 C 499.407 3.39414 4.77697 0
M  V30 34234 N 499.357 2.04615 4.15333 0
M  V30 34235 H 502.196 3.41248 7.98759 0
M  V30 34236 H 502.468 2.5837 6.41742 0
M  V30 34237 H 501.6 5.02657 6.42673 0
M  V30 34238 P 497.637 6.144 6.45285 0
M  V30 34239 O 497.417 7.54673 6.86199 0
M  V30 34240 O 496.847 5.12391 7.179 0
M  V30 34241 O 497.387 5.99158 4.88404 0
M  V30 34242 C 498.327 6.60234 3.96415 0
M  V30 34243 C 497.597 7.08259 2.72856 0
M  V30 34244 O 497.387 5.9427 1.83651 0
M  V30 34245 C 496.197 7.64886 2.9555 0
M  V30 34246 O 495.807 8.53963 1.90717 0
M  V30 34247 C 495.317 6.4116 2.90739 0
M  V30 34248 C 496.027 5.55375 1.86963 0
M  V30 34249 N 495.977 4.09664 2.15742 0
M  V30 34250 H 498.816 7.45574 4.45629 0
M  V30 34251 H 499.088 5.86232 3.67314 0
M  V30 34252 H 498.22 7.84412 2.24479 0
M  V30 34253 P 494.257 8.7635 1.60911 0
M  V30 34254 O 494.037 10.1388 1.11561 0
M  V30 34255 O 493.467 8.36503 2.79617 0
M  V30 34256 O 494.007 7.71806 0.42951 0
M  V30 34257 C 494.947 7.67148 -0.673689 0
M  V30 34258 C 494.217 7.33374 -1.95559 0
M  V30 34259 O 494.007 5.88721 -2.00726 0
M  V30 34260 C 492.817 7.92526 -2.10483 0
M  V30 34261 O 492.427 8.02971 -3.47653 0
M  V30 34262 C 491.937 6.89602 -1.41652 0
M  V30 34263 C 492.647 5.59201 -1.75185 0
M  V30 34264 N 492.597 4.58301 -0.657969 0
M  V30 34265 C 492.677 4.79019 0.692603 0
M  V30 34266 N 492.607 3.69736 1.38998 0
M  V30 34267 C 492.457 2.70474 0.438135 0
M  V30 34268 C 492.327 1.30327 0.538142 0
M  V30 34269 N 492.317 0.64304 1.69192 0
M  V30 34270 N 492.207 0.611027 -0.605183 0
M  V30 34271 C 492.217 1.27002 -1.75953 0
M  V30 34272 N 492.337 2.56038 -1.98546 0
M  V30 34273 C 492.457 3.22681 -0.822541 0
M  V30 34274 H 495.436 8.65116 -0.777161 0
M  V30 34275 H 495.708 6.9022 -0.46725 0
M  V30 34276 H 494.84 7.66548 -2.79458 0
M  V30 34277 H 492.185 5.16165 -2.65183 0
M  V30 34278 H 491.905 7.06433 -0.329384 0
M  V30 34279 H 490.914 6.90926 -1.82021 0
M  V30 34280 H 492.748 8.90873 -1.62657 0
M  V30 34281 H 492.789 5.77785 1.13874 0
M  V30 34282 H 492.408 1.15585 2.57991 0
M  V30 34283 H 492.219 -0.382989 1.69835 0
M  V30 34284 H 492.111 0.653331 -2.64449 0
M  V30 34285 P 490.877 8.03563 -3.84925 0
M  V30 34286 O 490.657 8.85821 -5.0569 0
M  V30 34287 O 490.087 8.41101 -2.65469 0
M  V30 34288 O 490.627 6.4965 -4.18908 0
M  V30 34289 C 491.567 5.81037 -5.05421 0
M  V30 34290 C 490.837 4.78366 -5.89277 0
M  V30 34291 O 490.627 3.58302 -5.08433 0
M  V30 34292 C 489.437 5.17448 -6.36119 0
M  V30 34293 O 489.047 4.45271 -7.53232 0
M  V30 34294 C 488.557 4.74639 -5.19936 0
M  V30 34295 C 489.267 3.49432 -4.70418 0
M  V30 34296 N 489.217 3.31776 -3.22945 0
M  V30 34297 H 492.056 6.54213 -5.71376 0
M  V30 34298 H 492.328 5.30492 -4.44033 0
M  V30 34299 H 491.46 4.55889 -6.76652 0
M  V30 34300 P 487.497 4.23843 -7.83734 0
M  V30 34301 O 487.277 4.19407 -9.29784 0
M  V30 34302 O 486.707 5.24426 -7.09156 0
M  V30 34303 O 487.247 2.7935 -7.20758 0
M  V30 34304 C 488.187 1.7299 -7.50419 0
M  V30 34305 C 487.457 0.406376 -7.57911 0
M  V30 34306 O 487.247 -0.0897726 -6.21935 0
M  V30 34307 C 486.057 0.447224 -8.1878 0
M  V30 34308 O 485.667 -0.825065 -8.71101 0
M  V30 34309 C 485.177 0.783801 -6.99623 0
M  V30 34310 C 485.887 0.0619192 -5.85967 0
M  V30 34311 N 485.837 0.7859 -4.56281 0
M  V30 34312 H 488.676 1.93423 -8.4679 0
M  V30 34313 H 488.948 1.68181 -6.71046 0
M  V30 34314 H 488.08 -0.289041 -8.15388 0
M  V30 34315 P 484.117 -1.17771 -8.83182 0
M  V30 34316 O 483.897 -2.07206 -9.98732 0
M  V30 34317 O 483.327 0.0743816 -8.81969 0
M  V30 34318 O 483.867 -1.97652 -7.47304 0
M  V30 34319 C 484.807 -3.01133 -7.08783 0
M  V30 34320 C 484.077 -4.12613 -6.37049 0
M  V30 34321 O 483.867 -3.72827 -4.97879 0
M  V30 34322 C 482.677 -4.45085 -6.88694 0
M  V30 34323 O 482.287 -5.7877 -6.5624 0
M  V30 34324 C 481.797 -3.47817 -6.12078 0
M  V30 34325 C 482.507 -3.39414 -4.77697 0
M  V30 34326 N 482.457 -2.04615 -4.15333 0
M  V30 34327 H 485.296 -3.41248 -7.98759 0
M  V30 34328 H 485.568 -2.5837 -6.41742 0
M  V30 34329 H 484.7 -5.02657 -6.42673 0
M  V30 34330 P 480.737 -6.144 -6.45285 0
M  V30 34331 O 480.517 -7.54673 -6.86199 0
M  V30 34332 O 479.947 -5.12391 -7.179 0
M  V30 34333 O 480.487 -5.99158 -4.88404 0
M  V30 34334 C 481.427 -6.60062 -3.96313 0
M  V30 34335 C 480.697 -7.08259 -2.72856 0
M  V30 34336 O 480.487 -5.9427 -1.83651 0
M  V30 34337 C 479.297 -7.65087 -2.94749 0
M  V30 34338 O 478.907 -8.53963 -1.90717 0
M  V30 34339 C 478.417 -6.41069 -2.90698 0
M  V30 34340 C 479.127 -5.5528 -1.86931 0
M  V30 34341 N 479.077 -4.09575 -2.15696 0
M  V30 34342 C 478.927 -3.24249 -1.08435 0
M  V30 34343 O 478.837 -3.63946 0.0628747 0
M  V30 34344 N 478.887 -1.90009 -1.39973 0
M  V30 34345 C 478.977 -1.34884 -2.65614 0
M  V30 34346 O 478.927 -0.123716 -2.81728 0
M  V30 34347 C 479.127 -2.3145 -3.71736 0
M  V30 34348 C 479.237 -1.75913 -5.10438 0
M  V30 34349 C 479.177 -3.63518 -3.44754 0
M  V30 34350 H 481.918 -7.45402 -4.45526 0
M  V30 34351 H 482.187 -5.86062 -3.67208 0
M  V30 34352 H 481.32 -7.84412 -2.24479 0
M  V30 34353 H 478.665 -5.73358 -0.888409 0
M  V30 34354 H 478.386 -5.90877 -3.88583 0
M  V30 34355 H 477.394 -6.65867 -2.58821 0
M  V30 34356 H 479.228 -8.16248 -3.92006 0
M  V30 34357 H 479.299 -4.34551 -4.26383 0
M  V30 34358 H 478.269 -1.85471 -5.61775 0
M  V30 34359 H 480.006 -2.31364 -5.66257 0
M  V30 34360 H 479.518 -0.695936 -5.05229 0
M  V30 34361 H 478.782 -1.26277 -0.63625 0
M  V30 34362 P 477.357 -8.7635 -1.60911 0
M  V30 34363 O 477.137 -10.1388 -1.11561 0
M  V30 34364 O 476.567 -8.36503 -2.79617 0
M  V30 34365 O 477.107 -7.71806 -0.42951 0
M  V30 34366 C 478.047 -7.67148 0.673689 0
M  V30 34367 C 477.317 -7.33374 1.95559 0
M  V30 34368 O 477.107 -5.88721 2.00726 0
M  V30 34369 C 475.917 -7.92526 2.10483 0
M  V30 34370 O 475.527 -8.02971 3.47653 0
M  V30 34371 C 475.037 -6.89602 1.41652 0
M  V30 34372 C 475.747 -5.59201 1.75185 0
M  V30 34373 N 475.697 -4.58235 0.662552 0
M  V30 34374 H 478.536 -8.65116 0.777161 0
M  V30 34375 H 478.808 -6.90173 0.474152 0
M  V30 34376 H 477.94 -7.66548 2.79458 0
M  V30 34377 P 473.977 -8.03563 3.84925 0
M  V30 34378 O 473.757 -8.85821 5.0569 0
M  V30 34379 O 473.187 -8.41101 2.65469 0
M  V30 34380 O 473.727 -6.4965 4.18908 0
M  V30 34381 C 474.667 -5.81037 5.05421 0
M  V30 34382 C 473.937 -4.78366 5.89277 0
M  V30 34383 O 473.727 -3.58302 5.08433 0
M  V30 34384 C 472.537 -5.17448 6.36119 0
M  V30 34385 O 472.147 -4.45271 7.53232 0
M  V30 34386 C 471.657 -4.74639 5.19936 0
M  V30 34387 C 472.367 -3.49432 4.70418 0
M  V30 34388 N 472.317 -3.32099 3.22613 0
M  V30 34389 H 475.156 -6.54213 5.71376 0
M  V30 34390 H 475.428 -5.30936 4.43503 0
M  V30 34391 H 474.56 -4.55889 6.76652 0
M  V30 34392 H 471.905 -2.61715 5.17932 0
M  V30 34393 H 471.625 -5.52155 4.41878 0
M  V30 34394 H 470.634 -4.51981 5.53374 0
M  V30 34395 H 472.468 -6.25124 6.55234 0
M  V30 34396 P 470.597 -4.23843 7.83734 0
M  V30 34397 O 470.377 -4.19407 9.29784 0
M  V30 34398 O 469.807 -5.24426 7.09156 0
M  V30 34399 O 470.347 -2.7935 7.20758 0
M  V30 34400 C 471.287 -1.7299 7.50419 0
M  V30 34401 C 470.557 -0.406376 7.57911 0
M  V30 34402 O 470.347 0.0897726 6.21935 0
M  V30 34403 C 469.157 -0.447224 8.1878 0
M  V30 34404 O 468.767 0.825065 8.71101 0
M  V30 34405 C 468.277 -0.783801 6.99623 0
M  V30 34406 C 468.987 -0.0619192 5.85967 0
M  V30 34407 N 468.937 -0.790462 4.56202 0
M  V30 34408 H 471.776 -1.93423 8.4679 0
M  V30 34409 H 472.048 -1.68852 6.70877 0
M  V30 34410 H 471.18 0.289041 8.15388 0
M  V30 34411 H 468.525 0.927006 5.72848 0
M  V30 34412 H 468.245 -1.86973 6.82036 0
M  V30 34413 H 467.254 -0.403953 7.13357 0
M  V30 34414 H 469.088 -1.20599 8.97534 0
M  V30 34415 P 467.217 1.17771 8.83182 0
M  V30 34416 O 466.997 2.07206 9.98732 0
M  V30 34417 O 466.427 -0.0743816 8.81969 0
M  V30 34418 O 466.967 1.97652 7.47304 0
M  V30 34419 C 467.907 3.01133 7.08783 0
M  V30 34420 C 467.177 4.12613 6.37049 0
M  V30 34421 O 466.967 3.72827 4.97879 0
M  V30 34422 C 465.777 4.45085 6.88694 0
M  V30 34423 O 465.387 5.7877 6.5624 0
M  V30 34424 C 464.897 3.47817 6.12078 0
M  V30 34425 C 465.607 3.39414 4.77697 0
M  V30 34426 N 465.557 2.04199 4.15538 0
M  V30 34427 H 468.396 3.41248 7.98759 0
M  V30 34428 H 468.668 2.57728 6.42 0
M  V30 34429 H 467.8 5.02657 6.42673 0
M  V30 34430 H 465.145 4.11708 4.08956 0
M  V30 34431 H 464.865 2.49626 6.61679 0
M  V30 34432 H 463.874 3.8662 6.00862 0
M  V30 34433 H 465.708 4.29991 7.97006 0
M  V30 34434 P 463.837 6.144 6.45285 0
M  V30 34435 O 463.617 7.54673 6.86199 0
M  V30 34436 O 463.047 5.12391 7.179 0
M  V30 34437 O 463.587 5.99236 4.88467 0
M  V30 34438 C 464.527 6.60234 3.96415 0
M  V30 34439 C 463.797 7.08079 2.736 0
M  V30 34440 O 463.587 5.94365 1.8368 0
M  V30 34441 C 462.397 7.64886 2.9555 0
M  V30 34442 O 462.007 8.5406 1.90739 0
M  V30 34443 C 461.517 6.4116 2.90739 0
M  V30 34444 C 462.227 5.55375 1.86963 0
M  V30 34445 N 462.177 4.09664 2.15742 0
M  V30 34446 C 462.027 3.22231 1.08477 0
M  V30 34447 O 461.937 3.68951 -0.0600489 0
M  V30 34448 N 461.977 1.76692 1.48799 0
M  V30 34449 C 462.077 1.41695 2.57602 0
M  V30 34450 N 462.027 0.107296 2.75791 0
M  V30 34451 C 462.227 2.29178 3.69733 0
M  V30 34452 C 462.277 3.62753 3.42653 0
M  V30 34453 H 465.017 7.45488 4.45578 0
M  V30 34454 H 465.287 5.86232 3.67314 0
M  V30 34455 H 464.42 7.84508 2.24507 0
M  V30 34456 H 461.765 5.73556 0.888715 0
M  V30 34457 H 461.485 5.9096 3.88638 0
M  V30 34458 H 460.494 6.66053 2.58894 0
M  V30 34459 H 462.328 8.16339 3.92049 0
M  V30 34460 H 462.4 4.33052 4.24913 0
M  V30 34461 H 462.298 1.9103 4.71577 0
M  V30 34462 H 461.91 -0.521221 1.95056 0
M  V30 34463 H 462.106 -0.286429 3.70695 0
M  V30 34464 P 460.457 8.7635 1.60911 0
M  V30 34465 O 460.237 10.1388 1.11561 0
M  V30 34466 O 459.667 8.36503 2.79617 0
M  V30 34467 O 460.207 7.71806 0.42951 0
M  V30 34468 C 461.147 7.67148 -0.673689 0
M  V30 34469 C 460.417 7.33374 -1.95559 0
M  V30 34470 O 460.207 5.88721 -2.00726 0
M  V30 34471 C 459.017 7.92526 -2.10483 0
M  V30 34472 O 458.627 8.02971 -3.47653 0
M  V30 34473 C 458.137 6.89602 -1.41652 0
M  V30 34474 C 458.847 5.59201 -1.75185 0
M  V30 34475 N 458.797 4.58301 -0.657969 0
M  V30 34476 C 458.877 4.79019 0.692603 0
M  V30 34477 N 458.807 3.69736 1.38998 0
M  V30 34478 C 458.657 2.70474 0.438135 0
M  V30 34479 C 458.527 1.30327 0.538142 0
M  V30 34480 N 458.517 0.64304 1.69192 0
M  V30 34481 N 458.407 0.611027 -0.605183 0
M  V30 34482 C 458.417 1.27002 -1.75953 0
M  V30 34483 N 458.537 2.56038 -1.98546 0
M  V30 34484 C 458.657 3.22681 -0.822541 0
M  V30 34485 H 461.636 8.65116 -0.777161 0
M  V30 34486 H 461.908 6.9022 -0.46725 0
M  V30 34487 H 461.04 7.66548 -2.79458 0
M  V30 34488 H 458.385 5.16165 -2.65183 0
M  V30 34489 H 458.105 7.06433 -0.329384 0
M  V30 34490 H 457.114 6.90926 -1.82021 0
M  V30 34491 H 458.948 8.90873 -1.62657 0
M  V30 34492 H 458.989 5.77785 1.13874 0
M  V30 34493 H 458.608 1.15585 2.57991 0
M  V30 34494 H 458.419 -0.382989 1.69835 0
M  V30 34495 H 458.311 0.653331 -2.64449 0
M  V30 34496 P 457.077 8.03563 -3.84925 0
M  V30 34497 O 456.857 8.85821 -5.0569 0
M  V30 34498 O 456.287 8.41101 -2.65469 0
M  V30 34499 O 456.827 6.4965 -4.18908 0
M  V30 34500 C 457.767 5.81037 -5.05421 0
M  V30 34501 C 457.037 4.78366 -5.89277 0
M  V30 34502 O 456.827 3.58302 -5.08433 0
M  V30 34503 C 455.637 5.17448 -6.36119 0
M  V30 34504 O 455.247 4.45271 -7.53232 0
M  V30 34505 C 454.757 4.74639 -5.19936 0
M  V30 34506 C 455.467 3.49432 -4.70418 0
M  V30 34507 N 455.417 3.32099 -3.22613 0
M  V30 34508 H 458.256 6.54213 -5.71376 0
M  V30 34509 H 458.528 5.30936 -4.43503 0
M  V30 34510 H 457.66 4.55889 -6.76652 0
M  V30 34511 H 455.005 2.61715 -5.17932 0
M  V30 34512 H 454.725 5.52155 -4.41878 0
M  V30 34513 H 453.734 4.51981 -5.53374 0
M  V30 34514 H 455.568 6.25124 -6.55234 0
M  V30 34515 P 453.697 4.23843 -7.83734 0
M  V30 34516 O 453.477 4.19407 -9.29784 0
M  V30 34517 O 452.907 5.24426 -7.09156 0
M  V30 34518 O 453.447 2.7935 -7.20758 0
M  V30 34519 C 454.387 1.7299 -7.50419 0
M  V30 34520 C 453.657 0.406376 -7.57911 0
M  V30 34521 O 453.447 -0.0897726 -6.21935 0
M  V30 34522 C 452.257 0.447224 -8.1878 0
M  V30 34523 O 451.867 -0.825065 -8.71101 0
M  V30 34524 C 451.377 0.783801 -6.99623 0
M  V30 34525 C 452.087 0.0619192 -5.85967 0
M  V30 34526 N 452.037 0.7859 -4.56281 0
M  V30 34527 H 454.876 1.93423 -8.4679 0
M  V30 34528 H 455.148 1.68181 -6.71046 0
M  V30 34529 H 454.28 -0.289041 -8.15388 0
M  V30 34530 P 450.317 -1.17771 -8.83182 0
M  V30 34531 O 450.097 -2.07206 -9.98732 0
M  V30 34532 O 449.527 0.0743816 -8.81969 0
M  V30 34533 O 450.067 -1.97652 -7.47304 0
M  V30 34534 C 451.007 -3.01133 -7.08783 0
M  V30 34535 C 450.277 -4.12613 -6.37049 0
M  V30 34536 O 450.067 -3.72827 -4.97879 0
M  V30 34537 C 448.877 -4.45085 -6.88694 0
M  V30 34538 O 448.487 -5.7877 -6.5624 0
M  V30 34539 C 447.997 -3.47817 -6.12078 0
M  V30 34540 C 448.707 -3.39414 -4.77697 0
M  V30 34541 N 448.657 -2.04615 -4.15333 0
M  V30 34542 H 451.496 -3.41248 -7.98759 0
M  V30 34543 H 451.768 -2.5837 -6.41742 0
M  V30 34544 H 450.9 -5.02657 -6.42673 0
M  V30 34545 P 446.937 -6.144 -6.45285 0
M  V30 34546 O 446.717 -7.54673 -6.86199 0
M  V30 34547 O 446.147 -5.12391 -7.179 0
M  V30 34548 O 446.687 -5.99158 -4.88404 0
M  V30 34549 C 447.627 -6.60234 -3.96415 0
M  V30 34550 C 446.897 -7.08259 -2.72856 0
M  V30 34551 O 446.687 -5.9427 -1.83651 0
M  V30 34552 C 445.497 -7.64886 -2.9555 0
M  V30 34553 O 445.107 -8.53963 -1.90717 0
M  V30 34554 C 444.617 -6.4116 -2.90739 0
M  V30 34555 C 445.327 -5.55375 -1.86963 0
M  V30 34556 N 445.277 -4.09664 -2.15742 0
M  V30 34557 H 448.116 -7.45574 -4.45629 0
M  V30 34558 H 448.388 -5.86232 -3.67314 0
M  V30 34559 H 447.52 -7.84412 -2.24479 0
M  V30 34560 P 443.557 -8.7635 -1.60911 0
M  V30 34561 O 443.337 -10.1388 -1.11561 0
M  V30 34562 O 442.767 -8.36503 -2.79617 0
M  V30 34563 O 443.307 -7.71806 -0.42951 0
M  V30 34564 C 444.247 -7.67148 0.673689 0
M  V30 34565 C 443.517 -7.33374 1.95559 0
M  V30 34566 O 443.307 -5.88721 2.00726 0
M  V30 34567 C 442.117 -7.92526 2.10483 0
M  V30 34568 O 441.727 -8.02971 3.47653 0
M  V30 34569 C 441.237 -6.89602 1.41652 0
M  V30 34570 C 441.947 -5.59201 1.75185 0
M  V30 34571 N 441.897 -4.58235 0.662552 0
M  V30 34572 H 444.736 -8.65116 0.777161 0
M  V30 34573 H 445.008 -6.90173 0.474152 0
M  V30 34574 H 444.14 -7.66548 2.79458 0
M  V30 34575 P 440.177 -8.03563 3.84925 0
M  V30 34576 O 439.957 -8.85821 5.0569 0
M  V30 34577 O 439.387 -8.41101 2.65469 0
M  V30 34578 O 439.927 -6.4965 4.18908 0
M  V30 34579 C 440.867 -5.80886 5.05289 0
M  V30 34580 C 440.137 -4.78366 5.89277 0
M  V30 34581 O 439.927 -3.58302 5.08433 0
M  V30 34582 C 438.737 -5.16748 6.36559 0
M  V30 34583 O 438.347 -4.45271 7.53232 0
M  V30 34584 C 437.857 -4.74572 5.19863 0
M  V30 34585 C 438.567 -3.49373 4.70338 0
M  V30 34586 N 438.517 -3.31704 3.22876 0
M  V30 34587 C 438.367 -2.03326 2.74871 0
M  V30 34588 O 438.277 -1.06486 3.48076 0
M  V30 34589 N 438.327 -1.91838 1.37456 0
M  V30 34590 C 438.417 -2.94295 0.462035 0
M  V30 34591 C 438.567 -4.25064 1.05249 0
M  V30 34592 C 438.617 -4.40214 2.39192 0
M  V30 34593 H 441.358 -6.54063 5.71245 0
M  V30 34594 H 441.627 -5.30339 4.43905 0
M  V30 34595 H 440.76 -4.55889 6.76652 0
M  V30 34596 H 438.105 -2.6167 5.17842 0
M  V30 34597 H 437.826 -5.52155 4.41878 0
M  V30 34598 H 436.834 -4.51918 5.53297 0
M  V30 34599 H 438.668 -6.25055 6.55162 0
M  V30 34600 H 438.739 -5.39798 2.81523 0
M  V30 34601 P 436.797 -4.23843 7.83734 0
M  V30 34602 O 436.577 -4.19407 9.29784 0
M  V30 34603 O 436.007 -5.24426 7.09156 0
M  V30 34604 O 436.547 -2.79386 7.20852 0
M  V30 34605 C 437.487 -1.7299 7.50419 0
M  V30 34606 C 436.757 -0.41401 7.5797 0
M  V30 34607 O 436.547 0.089787 6.22035 0
M  V30 34608 C 435.357 -0.447224 8.1878 0
M  V30 34609 O 434.967 0.825159 8.71201 0
M  V30 34610 C 434.477 -0.783801 6.99623 0
M  V30 34611 C 435.187 -0.0619192 5.85967 0
M  V30 34612 N 435.137 -0.7859 4.56281 0
M  V30 34613 C 434.987 -0.0359258 3.39981 0
M  V30 34614 O 434.897 1.19723 3.49038 0
M  V30 34615 N 434.937 -0.869151 2.14025 0
M  V30 34616 C 435.037 -2.01207 2.14363 0
M  V30 34617 N 434.987 -2.58978 0.954287 0
M  V30 34618 C 435.187 -2.80817 3.32215 0
M  V30 34619 C 435.237 -2.13785 4.50884 0
M  V30 34620 H 437.977 -1.93401 8.46693 0
M  V30 34621 H 438.247 -1.68181 6.71046 0
M  V30 34622 H 437.38 0.289076 8.15488 0
M  V30 34623 H 434.725 0.927166 5.72947 0
M  V30 34624 H 434.445 -1.87 6.82132 0
M  V30 34625 H 433.454 -0.404009 7.13457 0
M  V30 34626 H 435.288 -1.20599 8.97534 0
M  V30 34627 H 435.36 -2.70295 5.43162 0
M  V30 34628 H 435.258 -3.89465 3.27406 0
M  V30 34629 H 434.87 -2.01616 0.107046 0
M  V30 34630 H 435.066 -3.61403 0.873101 0
M  V30 34631 P 433.417 1.17771 8.83182 0
M  V30 34632 O 433.197 2.07206 9.98732 0
M  V30 34633 O 432.627 -0.0743816 8.81969 0
M  V30 34634 O 433.167 1.97652 7.47304 0
M  V30 34635 C 434.107 3.01055 7.08599 0
M  V30 34636 C 433.377 4.12613 6.37049 0
M  V30 34637 O 433.167 3.72827 4.97879 0
M  V30 34638 C 431.977 4.45719 6.88164 0
M  V30 34639 O 431.587 5.7877 6.5624 0
M  V30 34640 C 431.097 3.47768 6.11991 0
M  V30 34641 C 431.807 3.39356 4.77615 0
M  V30 34642 N 431.757 2.04571 4.15244 0
M  V30 34643 C 431.607 1.98587 2.78314 0
M  V30 34644 O 431.517 2.98134 2.08835 0
M  V30 34645 N 431.567 0.714467 2.24925 0
M  V30 34646 C 431.657 -0.470001 2.94169 0
M  V30 34647 O 431.607 -1.55587 2.35195 0
M  V30 34648 C 431.807 -0.312541 4.36783 0
M  V30 34649 C 431.917 -1.57711 5.16352 0
M  V30 34650 C 431.857 0.914512 4.92583 0
M  V30 34651 H 434.598 3.41169 7.98575 0
M  V30 34652 H 434.867 2.58295 6.41556 0
M  V30 34653 H 434 5.02657 6.42673 0
M  V30 34654 H 431.345 4.11637 4.08885 0
M  V30 34655 H 431.066 2.49626 6.61679 0
M  V30 34656 H 430.074 3.86566 6.00778 0
M  V30 34657 H 431.908 4.29943 7.96918 0
M  V30 34658 H 431.979 1.00937 6.00374 0
M  V30 34659 H 430.949 -1.80153 5.63503 0
M  V30 34660 H 432.686 -1.4566 5.94104 0
M  V30 34661 H 432.198 -2.40664 4.49645 0
M  V30 34662 H 431.462 0.647622 1.25697 0
M  V30 34663 P 430.037 6.144 6.45285 0
M  V30 34664 O 429.817 7.54673 6.86199 0
M  V30 34665 O 429.247 5.12391 7.179 0
M  V30 34666 O 429.787 5.99158 4.88404 0
M  V30 34667 C 430.727 6.60234 3.96415 0
M  V30 34668 C 429.997 7.08259 2.72856 0
M  V30 34669 O 429.787 5.9427 1.83651 0
M  V30 34670 C 428.597 7.64886 2.9555 0
M  V30 34671 O 428.207 8.53963 1.90717 0
M  V30 34672 C 427.717 6.4116 2.90739 0
M  V30 34673 C 428.427 5.55375 1.86963 0
M  V30 34674 N 428.377 4.09448 2.16152 0
M  V30 34675 H 431.216 7.45574 4.45629 0
M  V30 34676 H 431.488 5.85864 3.679 0
M  V30 34677 H 430.62 7.84412 2.24479 0
M  V30 34678 H 427.965 5.73457 0.888562 0
M  V30 34679 H 427.685 5.90877 3.88583 0
M  V30 34680 H 426.694 6.6596 2.58858 0
M  V30 34681 H 428.528 8.16339 3.92049 0
M  V30 34682 P 426.657 8.7635 1.60911 0
M  V30 34683 O 426.437 10.1388 1.11561 0
M  V30 34684 O 425.867 8.36503 2.79617 0
M  V30 34685 O 426.407 7.71806 0.42951 0
M  V30 34686 C 427.347 7.67148 -0.673689 0
M  V30 34687 C 426.617 7.33374 -1.95559 0
M  V30 34688 O 426.407 5.88721 -2.00726 0
M  V30 34689 C 425.217 7.92526 -2.10483 0
M  V30 34690 O 424.827 8.02971 -3.47653 0
M  V30 34691 C 424.337 6.89602 -1.41652 0
M  V30 34692 C 425.047 5.59201 -1.75185 0
M  V30 34693 N 424.997 4.58235 -0.662552 0
M  V30 34694 H 427.836 8.65116 -0.777161 0
M  V30 34695 H 428.108 6.90173 -0.474152 0
M  V30 34696 H 427.24 7.66548 -2.79458 0
M  V30 34697 P 423.278 8.03563 -3.84925 0
M  V30 34698 O 423.058 8.85821 -5.0569 0
M  V30 34699 O 422.488 8.41101 -2.65469 0
M  V30 34700 O 423.028 6.4965 -4.18908 0
M  V30 34701 C 423.968 5.80886 -5.05289 0
M  V30 34702 C 423.238 4.78366 -5.89277 0
M  V30 34703 O 423.028 3.58302 -5.08433 0
M  V30 34704 C 421.838 5.16748 -6.36559 0
M  V30 34705 O 421.448 4.45271 -7.53232 0
M  V30 34706 C 420.958 4.74572 -5.19863 0
M  V30 34707 C 421.668 3.49373 -4.70338 0
M  V30 34708 N 421.618 3.31704 -3.22876 0
M  V30 34709 C 421.468 2.03326 -2.74871 0
M  V30 34710 O 421.378 1.06486 -3.48076 0
M  V30 34711 N 421.428 1.91838 -1.37456 0
M  V30 34712 C 421.518 2.94295 -0.462035 0
M  V30 34713 O 421.468 2.71763 0.752928 0
M  V30 34714 C 421.668 4.25064 -1.05249 0
M  V30 34715 C 421.778 5.39815 -0.095697 0
M  V30 34716 C 421.718 4.40214 -2.39192 0
M  V30 34717 H 424.459 6.54063 -5.71245 0
M  V30 34718 H 424.728 5.30339 -4.43905 0
M  V30 34719 H 423.861 4.55889 -6.76652 0
M  V30 34720 H 421.206 2.6167 -5.17842 0
M  V30 34721 H 420.927 5.52155 -4.41878 0
M  V30 34722 H 419.935 4.51918 -5.53297 0
M  V30 34723 H 421.769 6.25055 -6.55162 0
M  V30 34724 H 421.84 5.39798 -2.81523 0
M  V30 34725 H 420.81 5.91593 -0.0279582 0
M  V30 34726 H 422.547 6.10038 -0.450573 0
M  V30 34727 H 422.059 5.02007 0.89937 0
M  V30 34728 H 421.323 0.995326 -1.00435 0
M  V30 34729 P 419.898 4.23843 -7.83734 0
M  V30 34730 O 419.678 4.19407 -9.29784 0
M  V30 34731 O 419.108 5.24426 -7.09156 0
M  V30 34732 O 419.648 2.7935 -7.20758 0
M  V30 34733 C 420.588 1.7299 -7.50419 0
M  V30 34734 C 419.858 0.406376 -7.57911 0
M  V30 34735 O 419.648 -0.0897726 -6.21935 0
M  V30 34736 C 418.458 0.447224 -8.1878 0
M  V30 34737 O 418.068 -0.825065 -8.71101 0
M  V30 34738 C 417.578 0.783801 -6.99623 0
M  V30 34739 C 418.288 0.0619192 -5.85967 0
M  V30 34740 N 418.238 0.7859 -4.56281 0
M  V30 34741 H 421.077 1.93423 -8.4679 0
M  V30 34742 H 421.349 1.68181 -6.71046 0
M  V30 34743 H 420.481 -0.289041 -8.15388 0
M  V30 34744 P 416.518 -1.17771 -8.83182 0
M  V30 34745 O 416.298 -2.07206 -9.98732 0
M  V30 34746 O 415.728 0.0743816 -8.81969 0
M  V30 34747 O 416.268 -1.97652 -7.47304 0
M  V30 34748 C 417.208 -3.01055 -7.08599 0
M  V30 34749 C 416.478 -4.12613 -6.37049 0
M  V30 34750 O 416.268 -3.72827 -4.97879 0
M  V30 34751 C 415.078 -4.45719 -6.88164 0
M  V30 34752 O 414.688 -5.7877 -6.5624 0
M  V30 34753 C 414.198 -3.47768 -6.11991 0
M  V30 34754 C 414.908 -3.39356 -4.77615 0
M  V30 34755 N 414.858 -2.04571 -4.15244 0
M  V30 34756 C 414.708 -1.98587 -2.78314 0
M  V30 34757 O 414.618 -2.98134 -2.08835 0
M  V30 34758 N 414.668 -0.714467 -2.24925 0
M  V30 34759 C 414.758 0.470001 -2.94169 0
M  V30 34760 C 414.908 0.312541 -4.36783 0
M  V30 34761 C 414.958 -0.914512 -4.92583 0
M  V30 34762 H 417.699 -3.41169 -7.98575 0
M  V30 34763 H 417.968 -2.58295 -6.41556 0
M  V30 34764 H 417.101 -5.02657 -6.42673 0
M  V30 34765 H 414.446 -4.11637 -4.08885 0
M  V30 34766 H 414.167 -2.49626 -6.61679 0
M  V30 34767 H 413.175 -3.86566 -6.00778 0
M  V30 34768 H 415.009 -4.29943 -7.96918 0
M  V30 34769 H 415.08 -1.00937 -6.00374 0
M  V30 34770 P 413.138 -6.144 -6.45285 0
M  V30 34771 O 412.918 -7.54673 -6.86199 0
M  V30 34772 O 412.348 -5.12391 -7.179 0
M  V30 34773 O 412.888 -5.99158 -4.88404 0
M  V30 34774 C 413.828 -6.60062 -3.96313 0
M  V30 34775 C 413.098 -7.08259 -2.72856 0
M  V30 34776 O 412.888 -5.9427 -1.83651 0
M  V30 34777 C 411.698 -7.65087 -2.94749 0
M  V30 34778 O 411.308 -8.53963 -1.90717 0
M  V30 34779 C 410.818 -6.41069 -2.90698 0
M  V30 34780 C 411.528 -5.5528 -1.86931 0
M  V30 34781 N 411.478 -4.09575 -2.15696 0
M  V30 34782 C 411.328 -3.24249 -1.08435 0
M  V30 34783 O 411.238 -3.63946 0.0628747 0
M  V30 34784 N 411.288 -1.90009 -1.39973 0
M  V30 34785 C 411.378 -1.34884 -2.65614 0
M  V30 34786 O 411.328 -0.123716 -2.81728 0
M  V30 34787 C 411.528 -2.3145 -3.71736 0
M  V30 34788 C 411.638 -1.75913 -5.10438 0
M  V30 34789 C 411.578 -3.63518 -3.44754 0
M  V30 34790 H 414.319 -7.45402 -4.45526 0
M  V30 34791 H 414.588 -5.86062 -3.67208 0
M  V30 34792 H 413.721 -7.84412 -2.24479 0
M  V30 34793 H 411.066 -5.73358 -0.888409 0
M  V30 34794 H 410.787 -5.90877 -3.88583 0
M  V30 34795 H 409.795 -6.65867 -2.58821 0
M  V30 34796 H 411.629 -8.16248 -3.92006 0
M  V30 34797 H 411.7 -4.34551 -4.26383 0
M  V30 34798 H 410.67 -1.85471 -5.61775 0
M  V30 34799 H 412.407 -2.31364 -5.66257 0
M  V30 34800 H 411.919 -0.695936 -5.05229 0
M  V30 34801 H 411.183 -1.26277 -0.63625 0
M  V30 34802 P 409.758 -8.7635 -1.60911 0
M  V30 34803 O 409.538 -10.1388 -1.11561 0
M  V30 34804 O 408.968 -8.36503 -2.79617 0
M  V30 34805 O 409.508 -7.71806 -0.42951 0
M  V30 34806 C 410.448 -7.67148 0.673689 0
M  V30 34807 C 409.718 -7.33374 1.95559 0
M  V30 34808 O 409.508 -5.88721 2.00726 0
M  V30 34809 C 408.318 -7.92526 2.10483 0
M  V30 34810 O 407.928 -8.02971 3.47653 0
M  V30 34811 C 407.438 -6.89602 1.41652 0
M  V30 34812 C 408.148 -5.59201 1.75185 0
M  V30 34813 N 408.098 -4.58235 0.662552 0
M  V30 34814 H 410.937 -8.65116 0.777161 0
M  V30 34815 H 411.209 -6.90173 0.474152 0
M  V30 34816 H 410.341 -7.66548 2.79458 0
M  V30 34817 P 406.378 -8.03563 3.84925 0
M  V30 34818 O 406.158 -8.85821 5.0569 0
M  V30 34819 O 405.588 -8.41101 2.65469 0
M  V30 34820 O 406.128 -6.4965 4.18908 0
M  V30 34821 C 407.068 -5.81037 5.05421 0
M  V30 34822 C 406.338 -4.78366 5.89277 0
M  V30 34823 O 406.128 -3.58302 5.08433 0
M  V30 34824 C 404.938 -5.17448 6.36119 0
M  V30 34825 O 404.548 -4.45271 7.53232 0
M  V30 34826 C 404.058 -4.74639 5.19936 0
M  V30 34827 C 404.768 -3.49432 4.70418 0
M  V30 34828 N 404.718 -3.32099 3.22613 0
M  V30 34829 C 404.798 -4.28245 2.25527 0
M  V30 34830 N 404.728 -3.80823 1.04874 0
M  V30 34831 C 404.578 -2.44571 1.23535 0
M  V30 34832 C 404.448 -1.37068 0.330675 0
M  V30 34833 N 404.438 -1.51472 -0.990824 0
M  V30 34834 N 404.328 -0.138614 0.848756 0
M  V30 34835 C 404.338 0.00675923 2.16999 0
M  V30 34836 N 404.458 -0.904372 3.11122 0
M  V30 34837 C 404.578 -2.12707 2.56212 0
M  V30 34838 H 407.557 -6.54213 5.71376 0
M  V30 34839 H 407.829 -5.30936 4.43503 0
M  V30 34840 H 406.961 -4.55889 6.76652 0
M  V30 34841 H 404.306 -2.61715 5.17932 0
M  V30 34842 H 404.026 -5.52155 4.41878 0
M  V30 34843 H 403.035 -4.51981 5.53374 0
M  V30 34844 H 404.869 -6.25124 6.55234 0
M  V30 34845 H 404.91 -5.34372 2.47488 0
M  V30 34846 H 404.529 -2.45153 -1.4078 0
M  V30 34847 H 404.34 -0.688422 -1.59911 0
M  V30 34848 H 404.232 1.02584 2.52346 0
M  V30 34849 P 402.998 -4.23843 7.83734 0
M  V30 34850 O 402.778 -4.19407 9.29784 0
M  V30 34851 O 402.208 -5.24426 7.09156 0
M  V30 34852 O 402.748 -2.79386 7.20852 0
M  V30 34853 C 403.688 -1.7299 7.50419 0
M  V30 34854 C 402.958 -0.41401 7.5797 0
M  V30 34855 O 402.748 0.089787 6.22035 0
M  V30 34856 C 401.558 -0.447224 8.1878 0
M  V30 34857 O 401.168 0.825159 8.71201 0
M  V30 34858 C 400.678 -0.783801 6.99623 0
M  V30 34859 C 401.388 -0.0619192 5.85967 0
M  V30 34860 N 401.338 -0.7859 4.56281 0
M  V30 34861 C 401.188 -0.0359258 3.39981 0
M  V30 34862 O 401.098 1.19723 3.49038 0
M  V30 34863 N 401.138 -0.869151 2.14025 0
M  V30 34864 C 401.238 -2.01207 2.14363 0
M  V30 34865 N 401.188 -2.58978 0.954287 0
M  V30 34866 C 401.388 -2.80817 3.32215 0
M  V30 34867 C 401.438 -2.13785 4.50884 0
M  V30 34868 H 404.178 -1.93401 8.46693 0
M  V30 34869 H 404.448 -1.68181 6.71046 0
M  V30 34870 H 403.581 0.289076 8.15488 0
M  V30 34871 H 400.926 0.927166 5.72947 0
M  V30 34872 H 400.646 -1.87 6.82132 0
M  V30 34873 H 399.655 -0.404009 7.13457 0
M  V30 34874 H 401.489 -1.20599 8.97534 0
M  V30 34875 H 401.561 -2.70295 5.43162 0
M  V30 34876 H 401.459 -3.89465 3.27406 0
M  V30 34877 H 401.071 -2.01616 0.107046 0
M  V30 34878 H 401.267 -3.61403 0.873101 0
M  V30 34879 P 399.618 1.17771 8.83182 0
M  V30 34880 O 399.398 2.07206 9.98732 0
M  V30 34881 O 398.828 -0.0743816 8.81969 0
M  V30 34882 O 399.368 1.97652 7.47304 0
M  V30 34883 C 400.308 3.01133 7.08783 0
M  V30 34884 C 399.578 4.12613 6.37049 0
M  V30 34885 O 399.368 3.72827 4.97879 0
M  V30 34886 C 398.178 4.45085 6.88694 0
M  V30 34887 O 397.788 5.7877 6.5624 0
M  V30 34888 C 397.298 3.47817 6.12078 0
M  V30 34889 C 398.008 3.39414 4.77697 0
M  V30 34890 N 397.958 2.04615 4.15333 0
M  V30 34891 H 400.797 3.41248 7.98759 0
M  V30 34892 H 401.069 2.5837 6.41742 0
M  V30 34893 H 400.201 5.02657 6.42673 0
M  V30 34894 P 396.238 6.144 6.45285 0
M  V30 34895 O 396.018 7.54673 6.86199 0
M  V30 34896 O 395.448 5.12391 7.179 0
M  V30 34897 O 395.988 5.99158 4.88404 0
M  V30 34898 C 396.928 6.60234 3.96415 0
M  V30 34899 C 396.198 7.08259 2.72856 0
M  V30 34900 O 395.988 5.9427 1.83651 0
M  V30 34901 C 394.798 7.64886 2.9555 0
M  V30 34902 O 394.408 8.53963 1.90717 0
M  V30 34903 C 393.918 6.4116 2.90739 0
M  V30 34904 C 394.628 5.55375 1.86963 0
M  V30 34905 N 394.578 4.09664 2.15742 0
M  V30 34906 H 397.417 7.45574 4.45629 0
M  V30 34907 H 397.689 5.86232 3.67314 0
M  V30 34908 H 396.821 7.84412 2.24479 0
M  V30 34909 P 392.858 8.7635 1.60911 0
M  V30 34910 O 392.638 10.1388 1.11561 0
M  V30 34911 O 392.068 8.36503 2.79617 0
M  V30 34912 O 392.608 7.71806 0.42951 0
M  V30 34913 C 393.548 7.67148 -0.673689 0
M  V30 34914 C 392.818 7.33374 -1.95559 0
M  V30 34915 O 392.608 5.88721 -2.00726 0
M  V30 34916 C 391.418 7.92526 -2.10483 0
M  V30 34917 O 391.028 8.02971 -3.47653 0
M  V30 34918 C 390.538 6.89602 -1.41652 0
M  V30 34919 C 391.248 5.59201 -1.75185 0
M  V30 34920 N 391.198 4.58301 -0.657969 0
M  V30 34921 H 394.037 8.65116 -0.777161 0
M  V30 34922 H 394.309 6.9022 -0.46725 0
M  V30 34923 H 393.441 7.66548 -2.79458 0
M  V30 34924 H 390.786 5.16165 -2.65183 0
M  V30 34925 H 390.506 7.06433 -0.329384 0
M  V30 34926 H 389.515 6.90926 -1.82021 0
M  V30 34927 H 391.349 8.90873 -1.62657 0
M  V30 34928 P 389.478 8.03563 -3.84925 0
M  V30 34929 O 389.258 8.85821 -5.0569 0
M  V30 34930 O 388.688 8.41101 -2.65469 0
M  V30 34931 O 389.228 6.4965 -4.18908 0
M  V30 34932 C 390.168 5.81037 -5.05421 0
M  V30 34933 C 389.438 4.78366 -5.89277 0
M  V30 34934 O 389.228 3.58302 -5.08433 0
M  V30 34935 C 388.038 5.17448 -6.36119 0
M  V30 34936 O 387.648 4.45271 -7.53232 0
M  V30 34937 C 387.158 4.74639 -5.19936 0
M  V30 34938 C 387.868 3.49432 -4.70418 0
M  V30 34939 N 387.818 3.32099 -3.22613 0
M  V30 34940 H 390.657 6.54213 -5.71376 0
M  V30 34941 H 390.929 5.30936 -4.43503 0
M  V30 34942 H 390.061 4.55889 -6.76652 0
M  V30 34943 H 387.406 2.61715 -5.17932 0
M  V30 34944 H 387.126 5.52155 -4.41878 0
M  V30 34945 H 386.135 4.51981 -5.53374 0
M  V30 34946 H 387.969 6.25124 -6.55234 0
M  V30 34947 P 386.098 4.23843 -7.83734 0
M  V30 34948 O 385.878 4.19407 -9.29784 0
M  V30 34949 O 385.308 5.24426 -7.09156 0
M  V30 34950 O 385.848 2.7935 -7.20758 0
M  V30 34951 C 386.788 1.72945 -7.50224 0
M  V30 34952 C 386.058 0.406376 -7.57911 0
M  V30 34953 O 385.848 -0.0897726 -6.21935 0
M  V30 34954 C 384.658 0.438983 -8.18724 0
M  V30 34955 O 384.268 -0.825065 -8.71101 0
M  V30 34956 C 383.778 0.783689 -6.99524 0
M  V30 34957 C 384.488 0.0619086 -5.85867 0
M  V30 34958 N 384.438 0.78573 -4.56183 0
M  V30 34959 C 384.288 0.0292889 -3.41887 0
M  V30 34960 O 384.198 -1.18445 -3.4419 0
M  V30 34961 N 384.248 0.744061 -2.23964 0
M  V30 34962 C 384.338 2.10932 -2.10362 0
M  V30 34963 O 384.288 2.64117 -0.98825 0
M  V30 34964 C 384.488 2.8202 -3.34994 0
M  V30 34965 C 384.598 4.31095 -3.25037 0
M  V30 34966 C 384.538 2.15547 -4.52261 0
M  V30 34967 H 387.279 1.93379 -8.46595 0
M  V30 34968 H 387.548 1.68132 -6.70852 0
M  V30 34969 H 386.681 -0.289041 -8.15388 0
M  V30 34970 H 384.026 -0.926847 -5.72749 0
M  V30 34971 H 383.747 1.86973 -6.82036 0
M  V30 34972 H 382.755 0.403896 -7.13257 0
M  V30 34973 H 384.589 1.20585 -8.97435 0
M  V30 34974 H 384.66 2.71231 -5.45042 0
M  V30 34975 H 383.63 4.76966 -3.49992 0
M  V30 34976 H 385.367 4.67047 -3.95024 0
M  V30 34977 H 384.879 4.58996 -2.22312 0
M  V30 34978 H 384.143 0.214893 -1.39758 0
M  V30 34979 P 382.718 -1.17771 -8.83182 0
M  V30 34980 O 382.498 -2.07206 -9.98732 0
M  V30 34981 O 381.928 0.0743816 -8.81969 0
M  V30 34982 O 382.468 -1.97652 -7.47304 0
M  V30 34983 C 383.408 -3.01133 -7.08783 0
M  V30 34984 C 382.678 -4.12613 -6.37049 0
M  V30 34985 O 382.468 -3.72827 -4.97879 0
M  V30 34986 C 381.278 -4.45085 -6.88694 0
M  V30 34987 O 380.888 -5.7877 -6.5624 0
M  V30 34988 C 380.398 -3.47817 -6.12078 0
M  V30 34989 C 381.108 -3.39414 -4.77697 0
M  V30 34990 N 381.058 -2.04615 -4.15333 0
M  V30 34991 H 383.897 -3.41248 -7.98759 0
M  V30 34992 H 384.169 -2.5837 -6.41742 0
M  V30 34993 H 383.301 -5.02657 -6.42673 0
M  V30 34994 P 379.338 -6.144 -6.45285 0
M  V30 34995 O 379.118 -7.54673 -6.86199 0
M  V30 34996 O 378.548 -5.12391 -7.179 0
M  V30 34997 O 379.088 -5.99158 -4.88404 0
M  V30 34998 C 380.028 -6.60234 -3.96415 0
M  V30 34999 C 379.298 -7.08259 -2.72856 0
M  V30 35000 O 379.088 -5.9427 -1.83651 0
M  V30 35001 C 377.898 -7.64886 -2.9555 0
M  V30 35002 O 377.508 -8.53963 -1.90717 0
M  V30 35003 C 377.018 -6.4116 -2.90739 0
M  V30 35004 C 377.728 -5.55375 -1.86963 0
M  V30 35005 N 377.678 -4.09664 -2.15742 0
M  V30 35006 H 380.517 -7.45574 -4.45629 0
M  V30 35007 H 380.789 -5.86232 -3.67314 0
M  V30 35008 H 379.921 -7.84412 -2.24479 0
M  V30 35009 P 375.958 -8.7635 -1.60911 0
M  V30 35010 O 375.738 -10.1388 -1.11561 0
M  V30 35011 O 375.168 -8.36503 -2.79617 0
M  V30 35012 O 375.708 -7.71906 -0.429565 0
M  V30 35013 C 376.648 -7.67148 0.673689 0
M  V30 35014 C 375.918 -7.33666 1.94851 0
M  V30 35015 O 375.708 -5.88816 2.00759 0
M  V30 35016 C 374.518 -7.92526 2.10483 0
M  V30 35017 O 374.128 -8.03063 3.47693 0
M  V30 35018 C 373.638 -6.89602 1.41652 0
M  V30 35019 C 374.348 -5.59201 1.75185 0
M  V30 35020 N 374.298 -4.58235 0.662552 0
M  V30 35021 C 374.148 -3.24451 1.01643 0
M  V30 35022 O 374.058 -2.94958 2.21722 0
M  V30 35023 N 374.098 -2.30408 -0.165238 0
M  V30 35024 C 374.198 -2.66048 -1.25118 0
M  V30 35025 N 374.148 -1.70787 -2.16813 0
M  V30 35026 C 374.348 -4.02732 -1.64413 0
M  V30 35027 C 374.398 -4.9488 -0.63991 0
M  V30 35028 H 377.138 -8.65017 0.777072 0
M  V30 35029 H 377.408 -6.90173 0.474152 0
M  V30 35030 H 376.541 -7.66642 2.79492 0
M  V30 35031 H 373.886 -5.16254 2.65229 0
M  V30 35032 H 373.606 -7.06532 0.329431 0
M  V30 35033 H 372.615 -6.91023 1.82047 0
M  V30 35034 H 374.449 -8.90873 1.62657 0
M  V30 35035 H 374.521 -6.00104 -0.892197 0
M  V30 35036 H 374.419 -4.31733 -2.69229 0
M  V30 35037 H 374.031 -0.724835 -1.8844 0
M  V30 35038 H 374.227 -1.94716 -3.16734 0
M  V30 35039 P 372.578 -8.03563 3.84925 0
M  V30 35040 O 372.358 -8.85821 5.0569 0
M  V30 35041 O 371.788 -8.41101 2.65469 0
M  V30 35042 O 372.328 -6.4965 4.18908 0
M  V30 35043 C 373.268 -5.81037 5.05421 0
M  V30 35044 C 372.538 -4.78366 5.89277 0
M  V30 35045 O 372.328 -3.58302 5.08433 0
M  V30 35046 C 371.138 -5.17448 6.36119 0
M  V30 35047 O 370.748 -4.45271 7.53232 0
M  V30 35048 C 370.258 -4.74639 5.19936 0
M  V30 35049 C 370.968 -3.49432 4.70418 0
M  V30 35050 N 370.918 -3.32099 3.22613 0
M  V30 35051 H 373.757 -6.54213 5.71376 0
M  V30 35052 H 374.029 -5.30936 4.43503 0
M  V30 35053 H 373.161 -4.55889 6.76652 0
M  V30 35054 H 370.506 -2.61715 5.17932 0
M  V30 35055 H 370.226 -5.52155 4.41878 0
M  V30 35056 H 369.235 -4.51981 5.53374 0
M  V30 35057 H 371.069 -6.25124 6.55234 0
M  V30 35058 P 369.198 -4.23843 7.83734 0
M  V30 35059 O 368.978 -4.19407 9.29784 0
M  V30 35060 O 368.408 -5.24426 7.09156 0
M  V30 35061 O 368.948 -2.7935 7.20758 0
M  V30 35062 C 369.888 -1.7299 7.50419 0
M  V30 35063 C 369.158 -0.406376 7.57911 0
M  V30 35064 O 368.948 0.0897726 6.21935 0
M  V30 35065 C 367.758 -0.447224 8.1878 0
M  V30 35066 O 367.368 0.825065 8.71101 0
M  V30 35067 C 366.878 -0.783801 6.99623 0
M  V30 35068 C 367.588 -0.0619192 5.85967 0
M  V30 35069 N 367.538 -0.7859 4.56281 0
M  V30 35070 H 370.377 -1.93423 8.4679 0
M  V30 35071 H 370.649 -1.68181 6.71046 0
M  V30 35072 H 369.781 0.289041 8.15388 0
M  V30 35073 P 365.818 1.17771 8.83182 0
M  V30 35074 O 365.598 2.07206 9.98732 0
M  V30 35075 O 365.028 -0.0743816 8.81969 0
M  V30 35076 O 365.568 1.97652 7.47304 0
M  V30 35077 C 366.508 3.01055 7.08599 0
M  V30 35078 C 365.778 4.12613 6.37049 0
M  V30 35079 O 365.568 3.72827 4.97879 0
M  V30 35080 C 364.378 4.45719 6.88164 0
M  V30 35081 O 363.988 5.7877 6.5624 0
M  V30 35082 C 363.498 3.47768 6.11991 0
M  V30 35083 C 364.208 3.39356 4.77615 0
M  V30 35084 N 364.158 2.04571 4.15244 0
M  V30 35085 C 364.008 1.98587 2.78314 0
M  V30 35086 O 363.918 2.98134 2.08835 0
M  V30 35087 N 363.968 0.714467 2.24925 0
M  V30 35088 C 364.058 -0.470001 2.94169 0
M  V30 35089 O 364.008 -1.55587 2.35195 0
M  V30 35090 C 364.208 -0.312541 4.36783 0
M  V30 35091 C 364.318 -1.57711 5.16352 0
M  V30 35092 C 364.258 0.914512 4.92583 0
M  V30 35093 H 366.999 3.41169 7.98575 0
M  V30 35094 H 367.268 2.58295 6.41556 0
M  V30 35095 H 366.401 5.02657 6.42673 0
M  V30 35096 H 363.746 4.11637 4.08885 0
M  V30 35097 H 363.467 2.49626 6.61679 0
M  V30 35098 H 362.475 3.86566 6.00778 0
M  V30 35099 H 364.309 4.29943 7.96918 0
M  V30 35100 H 364.38 1.00937 6.00374 0
M  V30 35101 H 363.35 -1.80153 5.63503 0
M  V30 35102 H 365.087 -1.4566 5.94104 0
M  V30 35103 H 364.599 -2.40664 4.49645 0
M  V30 35104 H 363.863 0.647622 1.25697 0
M  V30 35105 P 362.438 6.144 6.45285 0
M  V30 35106 O 362.218 7.54673 6.86199 0
M  V30 35107 O 361.648 5.12391 7.179 0
M  V30 35108 O 362.188 5.99158 4.88404 0
M  V30 35109 C 363.128 6.60234 3.96415 0
M  V30 35110 C 362.398 7.08259 2.72856 0
M  V30 35111 O 362.188 5.9427 1.83651 0
M  V30 35112 C 360.998 7.64886 2.9555 0
M  V30 35113 O 360.608 8.53963 1.90717 0
M  V30 35114 C 360.118 6.4116 2.90739 0
M  V30 35115 C 360.828 5.55375 1.86963 0
M  V30 35116 N 360.778 4.09664 2.15742 0
M  V30 35117 H 363.617 7.45574 4.45629 0
M  V30 35118 H 363.889 5.86232 3.67314 0
M  V30 35119 H 363.021 7.84412 2.24479 0
M  V30 35120 P 359.058 8.7635 1.60911 0
M  V30 35121 O 358.838 10.1388 1.11561 0
M  V30 35122 O 358.268 8.36503 2.79617 0
M  V30 35123 O 358.808 7.71806 0.42951 0
M  V30 35124 C 359.748 7.67148 -0.673689 0
M  V30 35125 C 359.018 7.33374 -1.95559 0
M  V30 35126 O 358.808 5.88721 -2.00726 0
M  V30 35127 C 357.618 7.92526 -2.10483 0
M  V30 35128 O 357.228 8.02971 -3.47653 0
M  V30 35129 C 356.738 6.89602 -1.41652 0
M  V30 35130 C 357.448 5.59201 -1.75185 0
M  V30 35131 N 357.398 4.58235 -0.662552 0
M  V30 35132 H 360.237 8.65116 -0.777161 0
M  V30 35133 H 360.509 6.90173 -0.474152 0
M  V30 35134 H 359.641 7.66548 -2.79458 0
M  V30 35135 P 355.678 8.03563 -3.84925 0
M  V30 35136 O 355.458 8.85821 -5.0569 0
M  V30 35137 O 354.888 8.41101 -2.65469 0
M  V30 35138 O 355.428 6.4965 -4.18908 0
M  V30 35139 C 356.368 5.81037 -5.05421 0
M  V30 35140 C 355.638 4.78366 -5.89277 0
M  V30 35141 O 355.428 3.58302 -5.08433 0
M  V30 35142 C 354.238 5.17448 -6.36119 0
M  V30 35143 O 353.848 4.45271 -7.53232 0
M  V30 35144 C 353.358 4.74639 -5.19936 0
M  V30 35145 C 354.068 3.49432 -4.70418 0
M  V30 35146 N 354.018 3.31776 -3.22945 0
M  V30 35147 H 356.857 6.54213 -5.71376 0
M  V30 35148 H 357.129 5.30492 -4.44033 0
M  V30 35149 H 356.261 4.55889 -6.76652 0
M  V30 35150 P 352.298 4.23843 -7.83734 0
M  V30 35151 O 352.078 4.19407 -9.29784 0
M  V30 35152 O 351.508 5.24426 -7.09156 0
M  V30 35153 O 352.048 2.7935 -7.20758 0
M  V30 35154 C 352.988 1.7299 -7.50419 0
M  V30 35155 C 352.258 0.406376 -7.57911 0
M  V30 35156 O 352.048 -0.0897726 -6.21935 0
M  V30 35157 C 350.858 0.447224 -8.1878 0
M  V30 35158 O 350.468 -0.825065 -8.71101 0
M  V30 35159 C 349.978 0.783801 -6.99623 0
M  V30 35160 C 350.688 0.0619192 -5.85967 0
M  V30 35161 N 350.638 0.7859 -4.56281 0
M  V30 35162 H 353.477 1.93423 -8.4679 0
M  V30 35163 H 353.749 1.68181 -6.71046 0
M  V30 35164 H 352.881 -0.289041 -8.15388 0
M  V30 35165 P 348.918 -1.17771 -8.83182 0
M  V30 35166 O 348.698 -2.07206 -9.98732 0
M  V30 35167 O 348.128 0.0743816 -8.81969 0
M  V30 35168 O 348.668 -1.97678 -7.474 0
M  V30 35169 C 349.608 -3.01133 -7.08783 0
M  V30 35170 C 348.878 -4.1203 -6.37546 0
M  V30 35171 O 348.668 -3.72887 -4.9796 0
M  V30 35172 C 347.478 -4.45085 -6.88694 0
M  V30 35173 O 347.088 -5.78836 -6.56315 0
M  V30 35174 C 346.598 -3.47817 -6.12078 0
M  V30 35175 C 347.308 -3.39414 -4.77697 0
M  V30 35176 N 347.258 -2.04615 -4.15333 0
M  V30 35177 C 347.108 -1.96929 -2.77162 0
M  V30 35178 O 347.018 -3.02017 -2.12006 0
M  V30 35179 N 347.058 -0.55485 -2.24237 0
M  V30 35180 C 347.158 0.367808 -2.9169 0
M  V30 35181 N 347.108 1.53426 -2.29427 0
M  V30 35182 C 347.308 0.319148 -4.33828 0
M  V30 35183 C 347.358 -0.920672 -4.90433 0
M  V30 35184 H 350.098 -3.41209 -7.98667 0
M  V30 35185 H 350.368 -2.5837 -6.41742 0
M  V30 35186 H 349.501 -5.02718 -6.42752 0
M  V30 35187 H 346.846 -4.11779 -4.09026 0
M  V30 35188 H 346.566 -2.49661 -6.61772 0
M  V30 35189 H 345.575 -3.86674 -6.00946 0
M  V30 35190 H 347.409 -4.29991 -7.97006 0
M  V30 35191 H 347.481 -1.00589 -5.98303 0
M  V30 35192 H 347.379 1.22639 -4.93799 0
M  V30 35193 H 346.991 1.56819 -1.27167 0
M  V30 35194 H 347.187 2.41062 -2.83063 0
M  V30 35195 P 345.538 -6.144 -6.45285 0
M  V30 35196 O 345.318 -7.54673 -6.86199 0
M  V30 35197 O 344.748 -5.12391 -7.179 0
M  V30 35198 O 345.288 -5.99158 -4.88404 0
M  V30 35199 C 346.228 -6.60234 -3.96415 0
M  V30 35200 C 345.498 -7.08259 -2.72856 0
M  V30 35201 O 345.288 -5.9427 -1.83651 0
M  V30 35202 C 344.098 -7.64886 -2.9555 0
M  V30 35203 O 343.708 -8.53963 -1.90717 0
M  V30 35204 C 343.218 -6.4116 -2.90739 0
M  V30 35205 C 343.928 -5.55375 -1.86963 0
M  V30 35206 N 343.878 -4.09664 -2.15742 0
M  V30 35207 H 346.717 -7.45574 -4.45629 0
M  V30 35208 H 346.989 -5.86232 -3.67314 0
M  V30 35209 H 346.121 -7.84412 -2.24479 0
M  V30 35210 P 342.158 -8.7635 -1.60911 0
M  V30 35211 O 341.938 -10.1388 -1.11561 0
M  V30 35212 O 341.368 -8.36503 -2.79617 0
M  V30 35213 O 341.908 -7.71806 -0.42951 0
M  V30 35214 C 342.848 -7.66948 0.673514 0
M  V30 35215 C 342.118 -7.33374 1.95559 0
M  V30 35216 O 341.908 -5.88721 2.00726 0
M  V30 35217 C 340.718 -7.92218 2.1125 0
M  V30 35218 O 340.328 -8.02971 3.47653 0
M  V30 35219 C 339.838 -6.89504 1.41631 0
M  V30 35220 C 340.548 -5.59106 1.75155 0
M  V30 35221 N 340.498 -4.58136 0.662409 0
M  V30 35222 C 340.348 -3.26059 1.02863 0
M  V30 35223 O 340.258 -2.90743 2.19009 0
M  V30 35224 N 340.308 -2.35995 -0.0155585 0
M  V30 35225 C 340.398 -2.65248 -1.35603 0
M  V30 35226 O 340.348 -1.75605 -2.20651 0
M  V30 35227 C 340.548 -4.05747 -1.64698 0
M  V30 35228 C 340.658 -4.42345 -3.09553 0
M  V30 35229 C 340.598 -4.96734 -0.652411 0
M  V30 35230 H 343.339 -8.64917 0.776982 0
M  V30 35231 H 343.608 -6.89974 0.474015 0
M  V30 35232 H 342.741 -7.66548 2.79458 0
M  V30 35233 H 340.086 -5.16076 2.65138 0
M  V30 35234 H 339.807 -7.06433 0.329384 0
M  V30 35235 H 338.815 -6.90829 1.81996 0
M  V30 35236 H 340.649 -8.90774 1.62639 0
M  V30 35237 H 340.72 -6.02181 -0.895285 0
M  V30 35238 H 339.69 -4.80252 -3.45468 0
M  V30 35239 H 341.427 -5.20015 -3.22119 0
M  V30 35240 H 340.939 -3.53269 -3.67833 0
M  V30 35241 H 340.203 -1.39558 0.227499 0
M  V30 35242 P 338.778 -8.03563 3.84925 0
M  V30 35243 O 338.558 -8.85821 5.0569 0
M  V30 35244 O 337.988 -8.41101 2.65469 0
M  V30 35245 O 338.528 -6.4965 4.18908 0
M  V30 35246 C 339.468 -5.81037 5.05421 0
M  V30 35247 C 338.738 -4.78366 5.89277 0
M  V30 35248 O 338.528 -3.58302 5.08433 0
M  V30 35249 C 337.338 -5.17448 6.36119 0
M  V30 35250 O 336.948 -4.45271 7.53232 0
M  V30 35251 C 336.458 -4.74639 5.19936 0
M  V30 35252 C 337.168 -3.49432 4.70418 0
M  V30 35253 N 337.118 -3.32099 3.22613 0
M  V30 35254 H 339.957 -6.54213 5.71376 0
M  V30 35255 H 340.229 -5.30936 4.43503 0
M  V30 35256 H 339.361 -4.55889 6.76652 0
M  V30 35257 H 336.706 -2.61715 5.17932 0
M  V30 35258 H 336.426 -5.52155 4.41878 0
M  V30 35259 H 335.435 -4.51981 5.53374 0
M  V30 35260 H 337.269 -6.25124 6.55234 0
M  V30 35261 P 335.398 -4.23843 7.83734 0
M  V30 35262 O 335.178 -4.19407 9.29784 0
M  V30 35263 O 334.608 -5.24426 7.09156 0
M  V30 35264 O 335.148 -2.7935 7.20758 0
M  V30 35265 C 336.088 -1.7299 7.50419 0
M  V30 35266 C 335.358 -0.406376 7.57911 0
M  V30 35267 O 335.148 0.0897726 6.21935 0
M  V30 35268 C 333.958 -0.447224 8.1878 0
M  V30 35269 O 333.568 0.825065 8.71101 0
M  V30 35270 C 333.078 -0.783801 6.99623 0
M  V30 35271 C 333.788 -0.0619192 5.85967 0
M  V30 35272 N 333.738 -0.7859 4.56281 0
M  V30 35273 H 336.577 -1.93423 8.4679 0
M  V30 35274 H 336.849 -1.68181 6.71046 0
M  V30 35275 H 335.981 0.289041 8.15388 0
M  V30 35276 P 332.018 1.17771 8.83182 0
M  V30 35277 O 331.798 2.07206 9.98732 0
M  V30 35278 O 331.228 -0.0743816 8.81969 0
M  V30 35279 O 331.768 1.97652 7.47304 0
M  V30 35280 C 332.708 3.01133 7.08783 0
M  V30 35281 C 331.978 4.12613 6.37049 0
M  V30 35282 O 331.768 3.72827 4.97879 0
M  V30 35283 C 330.578 4.45085 6.88694 0
M  V30 35284 O 330.188 5.7877 6.5624 0
M  V30 35285 C 329.698 3.47817 6.12078 0
M  V30 35286 C 330.408 3.39414 4.77697 0
M  V30 35287 N 330.358 2.04615 4.15333 0
M  V30 35288 H 333.197 3.41248 7.98759 0
M  V30 35289 H 333.469 2.5837 6.41742 0
M  V30 35290 H 332.601 5.02657 6.42673 0
M  V30 35291 P 328.638 6.144 6.45285 0
M  V30 35292 O 328.418 7.54673 6.86199 0
M  V30 35293 O 327.848 5.12391 7.179 0
M  V30 35294 O 328.388 5.99158 4.88404 0
M  V30 35295 C 329.328 6.60062 3.96313 0
M  V30 35296 C 328.598 7.08259 2.72856 0
M  V30 35297 O 328.388 5.9427 1.83651 0
M  V30 35298 C 327.198 7.65087 2.94749 0
M  V30 35299 O 326.808 8.53963 1.90717 0
M  V30 35300 C 326.318 6.41069 2.90698 0
M  V30 35301 C 327.028 5.5528 1.86931 0
M  V30 35302 N 326.978 4.09575 2.15696 0
M  V30 35303 C 326.828 3.24249 1.08435 0
M  V30 35304 O 326.738 3.63946 -0.0628747 0
M  V30 35305 N 326.788 1.90009 1.39973 0
M  V30 35306 C 326.878 1.34884 2.65614 0
M  V30 35307 O 326.828 0.123716 2.81728 0
M  V30 35308 C 327.028 2.3145 3.71736 0
M  V30 35309 C 327.138 1.75913 5.10438 0
M  V30 35310 C 327.078 3.63518 3.44754 0
M  V30 35311 H 329.819 7.45402 4.45526 0
M  V30 35312 H 330.088 5.86062 3.67208 0
M  V30 35313 H 329.221 7.84412 2.24479 0
M  V30 35314 H 326.566 5.73358 0.888409 0
M  V30 35315 H 326.287 5.90877 3.88583 0
M  V30 35316 H 325.295 6.65867 2.58821 0
M  V30 35317 H 327.129 8.16248 3.92006 0
M  V30 35318 H 327.2 4.34551 4.26383 0
M  V30 35319 H 326.17 1.85471 5.61775 0
M  V30 35320 H 327.907 2.31364 5.66257 0
M  V30 35321 H 327.419 0.695936 5.05229 0
M  V30 35322 H 326.683 1.26277 0.63625 0
M  V30 35323 P 325.258 8.7635 1.60911 0
M  V30 35324 O 325.038 10.1388 1.11561 0
M  V30 35325 O 324.468 8.36503 2.79617 0
M  V30 35326 O 325.008 7.71806 0.42951 0
M  V30 35327 C 325.948 7.67148 -0.673689 0
M  V30 35328 C 325.218 7.33374 -1.95559 0
M  V30 35329 O 325.008 5.88721 -2.00726 0
M  V30 35330 C 323.818 7.92526 -2.10483 0
M  V30 35331 O 323.428 8.02971 -3.47653 0
M  V30 35332 C 322.938 6.89602 -1.41652 0
M  V30 35333 C 323.648 5.59201 -1.75185 0
M  V30 35334 N 323.598 4.58235 -0.662552 0
M  V30 35335 H 326.437 8.65116 -0.777161 0
M  V30 35336 H 326.709 6.90173 -0.474152 0
M  V30 35337 H 325.841 7.66548 -2.79458 0
M  V30 35338 P 321.878 8.03563 -3.84925 0
M  V30 35339 O 321.658 8.85821 -5.0569 0
M  V30 35340 O 321.088 8.41101 -2.65469 0
M  V30 35341 O 321.628 6.4965 -4.18908 0
M  V30 35342 C 322.568 5.81037 -5.05421 0
M  V30 35343 C 321.838 4.78366 -5.89277 0
M  V30 35344 O 321.628 3.58302 -5.08433 0
M  V30 35345 C 320.438 5.17448 -6.36119 0
M  V30 35346 O 320.048 4.45271 -7.53232 0
M  V30 35347 C 319.558 4.74639 -5.19936 0
M  V30 35348 C 320.268 3.49432 -4.70418 0
M  V30 35349 N 320.218 3.31776 -3.22945 0
M  V30 35350 H 323.057 6.54213 -5.71376 0
M  V30 35351 H 323.329 5.30492 -4.44033 0
M  V30 35352 H 322.461 4.55889 -6.76652 0
M  V30 35353 P 318.498 4.23843 -7.83734 0
M  V30 35354 O 318.278 4.19407 -9.29784 0
M  V30 35355 O 317.708 5.24426 -7.09156 0
M  V30 35356 O 318.248 2.7935 -7.20758 0
M  V30 35357 C 319.188 1.7299 -7.50419 0
M  V30 35358 C 318.458 0.406376 -7.57911 0
M  V30 35359 O 318.248 -0.0897726 -6.21935 0
M  V30 35360 C 317.058 0.447224 -8.1878 0
M  V30 35361 O 316.668 -0.825065 -8.71101 0
M  V30 35362 C 316.178 0.783801 -6.99623 0
M  V30 35363 C 316.888 0.0619192 -5.85967 0
M  V30 35364 N 316.838 0.7859 -4.56281 0
M  V30 35365 H 319.677 1.93423 -8.4679 0
M  V30 35366 H 319.949 1.68181 -6.71046 0
M  V30 35367 H 319.081 -0.289041 -8.15388 0
M  V30 35368 P 315.118 -1.17771 -8.83182 0
M  V30 35369 O 314.898 -2.07206 -9.98732 0
M  V30 35370 O 314.328 0.0743816 -8.81969 0
M  V30 35371 O 314.868 -1.97652 -7.47304 0
M  V30 35372 C 315.808 -3.01133 -7.08783 0
M  V30 35373 C 315.078 -4.12613 -6.37049 0
M  V30 35374 O 314.868 -3.72827 -4.97879 0
M  V30 35375 C 313.678 -4.45085 -6.88694 0
M  V30 35376 O 313.288 -5.7877 -6.5624 0
M  V30 35377 C 312.798 -3.47817 -6.12078 0
M  V30 35378 C 313.508 -3.39414 -4.77697 0
M  V30 35379 N 313.458 -2.04615 -4.15333 0
M  V30 35380 H 316.297 -3.41248 -7.98759 0
M  V30 35381 H 316.569 -2.5837 -6.41742 0
M  V30 35382 H 315.701 -5.02657 -6.42673 0
M  V30 35383 P 311.738 -6.144 -6.45285 0
M  V30 35384 O 311.518 -7.54673 -6.86199 0
M  V30 35385 O 310.948 -5.12391 -7.179 0
M  V30 35386 O 311.488 -5.99158 -4.88404 0
M  V30 35387 C 312.428 -6.60234 -3.96415 0
M  V30 35388 C 311.698 -7.08259 -2.72856 0
M  V30 35389 O 311.488 -5.9427 -1.83651 0
M  V30 35390 C 310.298 -7.64886 -2.9555 0
M  V30 35391 O 309.908 -8.53963 -1.90717 0
M  V30 35392 C 309.418 -6.4116 -2.90739 0
M  V30 35393 C 310.128 -5.55375 -1.86963 0
M  V30 35394 N 310.078 -4.09664 -2.15742 0
M  V30 35395 H 312.917 -7.45574 -4.45629 0
M  V30 35396 H 313.189 -5.86232 -3.67314 0
M  V30 35397 H 312.321 -7.84412 -2.24479 0
M  V30 35398 P 308.358 -8.7635 -1.60911 0
M  V30 35399 O 308.138 -10.1388 -1.11561 0
M  V30 35400 O 307.568 -8.36503 -2.79617 0
M  V30 35401 O 308.108 -7.71806 -0.42951 0
M  V30 35402 C 309.048 -7.67148 0.673689 0
M  V30 35403 C 308.318 -7.33374 1.95559 0
M  V30 35404 O 308.108 -5.88721 2.00726 0
M  V30 35405 C 306.918 -7.92526 2.10483 0
M  V30 35406 O 306.528 -8.02971 3.47653 0
M  V30 35407 C 306.038 -6.89602 1.41652 0
M  V30 35408 C 306.748 -5.59201 1.75185 0
M  V30 35409 N 306.698 -4.58235 0.662552 0
M  V30 35410 H 309.537 -8.65116 0.777161 0
M  V30 35411 H 309.809 -6.90173 0.474152 0
M  V30 35412 H 308.941 -7.66548 2.79458 0
M  V30 35413 P 304.978 -8.03563 3.84925 0
M  V30 35414 O 304.758 -8.85821 5.0569 0
M  V30 35415 O 304.188 -8.41101 2.65469 0
M  V30 35416 O 304.728 -6.4965 4.18908 0
M  V30 35417 C 305.668 -5.80886 5.05289 0
M  V30 35418 C 304.938 -4.78366 5.89277 0
M  V30 35419 O 304.728 -3.58302 5.08433 0
M  V30 35420 C 303.538 -5.16748 6.36559 0
M  V30 35421 O 303.148 -4.45271 7.53232 0
M  V30 35422 C 302.658 -4.74572 5.19863 0
M  V30 35423 C 303.368 -3.49373 4.70338 0
M  V30 35424 N 303.318 -3.31704 3.22876 0
M  V30 35425 C 303.168 -2.03326 2.74871 0
M  V30 35426 O 303.078 -1.06486 3.48076 0
M  V30 35427 N 303.128 -1.91838 1.37456 0
M  V30 35428 C 303.218 -2.94295 0.462035 0
M  V30 35429 O 303.168 -2.71763 -0.752928 0
M  V30 35430 C 303.368 -4.25064 1.05249 0
M  V30 35431 C 303.478 -5.39815 0.095697 0
M  V30 35432 C 303.418 -4.40214 2.39192 0
M  V30 35433 H 306.159 -6.54063 5.71245 0
M  V30 35434 H 306.428 -5.30339 4.43905 0
M  V30 35435 H 305.561 -4.55889 6.76652 0
M  V30 35436 H 302.906 -2.6167 5.17842 0
M  V30 35437 H 302.627 -5.52155 4.41878 0
M  V30 35438 H 301.635 -4.51918 5.53297 0
M  V30 35439 H 303.469 -6.25055 6.55162 0
M  V30 35440 H 303.54 -5.39798 2.81523 0
M  V30 35441 H 302.51 -5.91593 0.0279582 0
M  V30 35442 H 304.247 -6.10038 0.450573 0
M  V30 35443 H 303.759 -5.02007 -0.89937 0
M  V30 35444 H 303.023 -0.995326 1.00435 0
M  V30 35445 P 301.598 -4.23843 7.83734 0
M  V30 35446 O 301.378 -4.19407 9.29784 0
M  V30 35447 O 300.808 -5.24426 7.09156 0
M  V30 35448 O 301.348 -2.7935 7.20758 0
M  V30 35449 C 302.288 -1.72945 7.50224 0
M  V30 35450 C 301.558 -0.406376 7.57911 0
M  V30 35451 O 301.348 0.0897726 6.21935 0
M  V30 35452 C 300.158 -0.438983 8.18724 0
M  V30 35453 O 299.768 0.825065 8.71101 0
M  V30 35454 C 299.278 -0.783689 6.99524 0
M  V30 35455 C 299.988 -0.0619086 5.85867 0
M  V30 35456 N 299.938 -0.78573 4.56183 0
M  V30 35457 C 299.788 -0.0292889 3.41887 0
M  V30 35458 O 299.698 1.18445 3.4419 0
M  V30 35459 N 299.748 -0.744061 2.23964 0
M  V30 35460 C 299.838 -2.10932 2.10362 0
M  V30 35461 C 299.988 -2.8202 3.34994 0
M  V30 35462 C 300.038 -2.15547 4.52261 0
M  V30 35463 H 302.779 -1.93379 8.46595 0
M  V30 35464 H 303.048 -1.68132 6.70852 0
M  V30 35465 H 302.181 0.289041 8.15388 0
M  V30 35466 H 299.526 0.926847 5.72749 0
M  V30 35467 H 299.247 -1.86973 6.82036 0
M  V30 35468 H 298.255 -0.403896 7.13257 0
M  V30 35469 H 300.089 -1.20585 8.97435 0
M  V30 35470 H 300.16 -2.71231 5.45042 0
M  V30 35471 P 298.218 1.17771 8.83182 0
M  V30 35472 O 297.998 2.07206 9.98732 0
M  V30 35473 O 297.428 -0.0743816 8.81969 0
M  V30 35474 O 297.968 1.97652 7.47304 0
M  V30 35475 C 298.908 3.01133 7.08783 0
M  V30 35476 C 298.178 4.12613 6.37049 0
M  V30 35477 O 297.968 3.72827 4.97879 0
M  V30 35478 C 296.778 4.45085 6.88694 0
M  V30 35479 O 296.388 5.7877 6.5624 0
M  V30 35480 C 295.898 3.47817 6.12078 0
M  V30 35481 C 296.608 3.39414 4.77697 0
M  V30 35482 N 296.558 2.04615 4.15333 0
M  V30 35483 H 299.397 3.41248 7.98759 0
M  V30 35484 H 299.669 2.5837 6.41742 0
M  V30 35485 H 298.801 5.02657 6.42673 0
M  V30 35486 P 294.838 6.144 6.45285 0
M  V30 35487 O 294.618 7.54673 6.86199 0
M  V30 35488 O 294.048 5.12391 7.179 0
M  V30 35489 O 294.588 5.99158 4.88404 0
M  V30 35490 C 295.528 6.60234 3.96415 0
M  V30 35491 C 294.798 7.08259 2.72856 0
M  V30 35492 O 294.588 5.9427 1.83651 0
M  V30 35493 C 293.398 7.64886 2.9555 0
M  V30 35494 O 293.008 8.53963 1.90717 0
M  V30 35495 C 292.518 6.4116 2.90739 0
M  V30 35496 C 293.228 5.55375 1.86963 0
M  V30 35497 N 293.178 4.09448 2.16152 0
M  V30 35498 H 296.017 7.45574 4.45629 0
M  V30 35499 H 296.289 5.85864 3.679 0
M  V30 35500 H 295.421 7.84412 2.24479 0
M  V30 35501 H 292.766 5.73457 0.888562 0
M  V30 35502 H 292.486 5.90877 3.88583 0
M  V30 35503 H 291.495 6.6596 2.58858 0
M  V30 35504 H 293.329 8.16339 3.92049 0
M  V30 35505 P 291.458 8.7635 1.60911 0
M  V30 35506 O 291.238 10.1388 1.11561 0
M  V30 35507 O 290.668 8.36503 2.79617 0
M  V30 35508 O 291.208 7.71806 0.42951 0
M  V30 35509 C 292.148 7.67148 -0.673689 0
M  V30 35510 C 291.418 7.33374 -1.95559 0
M  V30 35511 O 291.208 5.88721 -2.00726 0
M  V30 35512 C 290.018 7.92526 -2.10483 0
M  V30 35513 O 289.628 8.02971 -3.47653 0
M  V30 35514 C 289.138 6.89602 -1.41652 0
M  V30 35515 C 289.848 5.59201 -1.75185 0
M  V30 35516 N 289.798 4.58301 -0.657969 0
M  V30 35517 H 292.637 8.65116 -0.777161 0
M  V30 35518 H 292.909 6.9022 -0.46725 0
M  V30 35519 H 292.041 7.66548 -2.79458 0
M  V30 35520 H 289.386 5.16165 -2.65183 0
M  V30 35521 H 289.106 7.06433 -0.329384 0
M  V30 35522 H 288.115 6.90926 -1.82021 0
M  V30 35523 H 289.949 8.90873 -1.62657 0
M  V30 35524 P 288.078 8.03563 -3.84925 0
M  V30 35525 O 287.858 8.85821 -5.0569 0
M  V30 35526 O 287.288 8.41101 -2.65469 0
M  V30 35527 O 287.828 6.4965 -4.18908 0
M  V30 35528 C 288.768 5.81037 -5.05421 0
M  V30 35529 C 288.038 4.78366 -5.89277 0
M  V30 35530 O 287.828 3.58302 -5.08433 0
M  V30 35531 C 286.638 5.17448 -6.36119 0
M  V30 35532 O 286.248 4.45271 -7.53232 0
M  V30 35533 C 285.758 4.74639 -5.19936 0
M  V30 35534 C 286.468 3.49432 -4.70418 0
M  V30 35535 N 286.418 3.31776 -3.22945 0
M  V30 35536 H 289.257 6.54213 -5.71376 0
M  V30 35537 H 289.529 5.30492 -4.44033 0
M  V30 35538 H 288.661 4.55889 -6.76652 0
M  V30 35539 P 284.698 4.23843 -7.83734 0
M  V30 35540 O 284.478 4.19407 -9.29784 0
M  V30 35541 O 283.908 5.24426 -7.09156 0
M  V30 35542 O 284.448 2.7935 -7.20758 0
M  V30 35543 C 285.388 1.7299 -7.50419 0
M  V30 35544 C 284.658 0.406376 -7.57911 0
M  V30 35545 O 284.448 -0.0897726 -6.21935 0
M  V30 35546 C 283.258 0.447224 -8.1878 0
M  V30 35547 O 282.868 -0.825065 -8.71101 0
M  V30 35548 C 282.378 0.783801 -6.99623 0
M  V30 35549 C 283.088 0.0619192 -5.85967 0
M  V30 35550 N 283.038 0.7859 -4.56281 0
M  V30 35551 H 285.877 1.93423 -8.4679 0
M  V30 35552 H 286.149 1.68181 -6.71046 0
M  V30 35553 H 285.281 -0.289041 -8.15388 0
M  V30 35554 P 281.318 -1.17771 -8.83182 0
M  V30 35555 O 281.098 -2.07206 -9.98732 0
M  V30 35556 O 280.528 0.0743816 -8.81969 0
M  V30 35557 O 281.068 -1.97652 -7.47304 0
M  V30 35558 C 282.008 -3.01133 -7.08783 0
M  V30 35559 C 281.278 -4.12613 -6.37049 0
M  V30 35560 O 281.068 -3.72827 -4.97879 0
M  V30 35561 C 279.878 -4.45085 -6.88694 0
M  V30 35562 O 279.488 -5.7877 -6.5624 0
M  V30 35563 C 278.998 -3.47817 -6.12078 0
M  V30 35564 C 279.708 -3.39414 -4.77697 0
M  V30 35565 N 279.658 -2.04615 -4.15333 0
M  V30 35566 H 282.497 -3.41248 -7.98759 0
M  V30 35567 H 282.769 -2.5837 -6.41742 0
M  V30 35568 H 281.901 -5.02657 -6.42673 0
M  V30 35569 P 277.938 -6.144 -6.45285 0
M  V30 35570 O 277.718 -7.54673 -6.86199 0
M  V30 35571 O 277.148 -5.12391 -7.179 0
M  V30 35572 O 277.688 -5.99158 -4.88404 0
M  V30 35573 C 278.628 -6.60234 -3.96415 0
M  V30 35574 C 277.898 -7.08259 -2.72856 0
M  V30 35575 O 277.688 -5.9427 -1.83651 0
M  V30 35576 C 276.498 -7.64886 -2.9555 0
M  V30 35577 O 276.108 -8.53963 -1.90717 0
M  V30 35578 C 275.618 -6.4116 -2.90739 0
M  V30 35579 C 276.328 -5.55375 -1.86963 0
M  V30 35580 N 276.278 -4.09664 -2.15742 0
M  V30 35581 H 279.117 -7.45574 -4.45629 0
M  V30 35582 H 279.389 -5.86232 -3.67314 0
M  V30 35583 H 278.521 -7.84412 -2.24479 0
M  V30 35584 P 274.558 -8.7635 -1.60911 0
M  V30 35585 O 274.338 -10.1388 -1.11561 0
M  V30 35586 O 273.768 -8.36503 -2.79617 0
M  V30 35587 O 274.308 -7.71806 -0.42951 0
M  V30 35588 C 275.248 -7.66948 0.673514 0
M  V30 35589 C 274.518 -7.33374 1.95559 0
M  V30 35590 O 274.308 -5.88721 2.00726 0
M  V30 35591 C 273.118 -7.92218 2.1125 0
M  V30 35592 O 272.728 -8.02971 3.47653 0
M  V30 35593 C 272.238 -6.89504 1.41631 0
M  V30 35594 C 272.948 -5.59106 1.75155 0
M  V30 35595 N 272.898 -4.58136 0.662409 0
M  V30 35596 C 272.748 -3.26059 1.02863 0
M  V30 35597 O 272.658 -2.90743 2.19009 0
M  V30 35598 N 272.708 -2.35995 -0.0155585 0
M  V30 35599 C 272.798 -2.65248 -1.35603 0
M  V30 35600 C 272.948 -4.05747 -1.64698 0
M  V30 35601 C 272.998 -4.96734 -0.652411 0
M  V30 35602 H 275.739 -8.64917 0.776982 0
M  V30 35603 H 276.008 -6.89974 0.474015 0
M  V30 35604 H 275.141 -7.66548 2.79458 0
M  V30 35605 H 272.486 -5.16076 2.65138 0
M  V30 35606 H 272.207 -7.06433 0.329384 0
M  V30 35607 H 271.215 -6.90829 1.81996 0
M  V30 35608 H 273.049 -8.90774 1.62639 0
M  V30 35609 H 273.12 -6.02181 -0.895285 0
M  V30 35610 P 271.178 -8.03563 3.84925 0
M  V30 35611 O 270.958 -8.85821 5.0569 0
M  V30 35612 O 270.388 -8.41101 2.65469 0
M  V30 35613 O 270.928 -6.4965 4.18908 0
M  V30 35614 C 271.868 -5.81037 5.05421 0
M  V30 35615 C 271.138 -4.78366 5.89277 0
M  V30 35616 O 270.928 -3.58302 5.08433 0
M  V30 35617 C 269.738 -5.17448 6.36119 0
M  V30 35618 O 269.348 -4.45271 7.53232 0
M  V30 35619 C 268.858 -4.74639 5.19936 0
M  V30 35620 C 269.568 -3.49432 4.70418 0
M  V30 35621 N 269.518 -3.31776 3.22945 0
M  V30 35622 H 272.357 -6.54213 5.71376 0
M  V30 35623 H 272.629 -5.30492 4.44033 0
M  V30 35624 H 271.761 -4.55889 6.76652 0
M  V30 35625 P 267.798 -4.23843 7.83734 0
M  V30 35626 O 267.578 -4.19407 9.29784 0
M  V30 35627 O 267.008 -5.24426 7.09156 0
M  V30 35628 O 267.548 -2.7935 7.20758 0
M  V30 35629 C 268.488 -1.7299 7.50419 0
M  V30 35630 C 267.758 -0.406376 7.57911 0
M  V30 35631 O 267.548 0.0897726 6.21935 0
M  V30 35632 C 266.358 -0.447224 8.1878 0
M  V30 35633 O 265.968 0.825065 8.71101 0
M  V30 35634 C 265.478 -0.783801 6.99623 0
M  V30 35635 C 266.188 -0.0619192 5.85967 0
M  V30 35636 N 266.138 -0.790462 4.56202 0
M  V30 35637 H 268.977 -1.93423 8.4679 0
M  V30 35638 H 269.249 -1.68852 6.70877 0
M  V30 35639 H 268.381 0.289041 8.15388 0
M  V30 35640 H 265.726 0.927006 5.72848 0
M  V30 35641 H 265.446 -1.86973 6.82036 0
M  V30 35642 H 264.455 -0.403953 7.13357 0
M  V30 35643 H 266.289 -1.20599 8.97534 0
M  V30 35644 P 264.418 1.17771 8.83182 0
M  V30 35645 O 264.198 2.07206 9.98732 0
M  V30 35646 O 263.628 -0.0743816 8.81969 0
M  V30 35647 O 264.168 1.97652 7.47304 0
M  V30 35648 C 265.108 3.01133 7.08783 0
M  V30 35649 C 264.378 4.12613 6.37049 0
M  V30 35650 O 264.168 3.72827 4.97879 0
M  V30 35651 C 262.978 4.45085 6.88694 0
M  V30 35652 O 262.588 5.7877 6.5624 0
M  V30 35653 C 262.098 3.47817 6.12078 0
M  V30 35654 C 262.808 3.39414 4.77697 0
M  V30 35655 N 262.758 2.04199 4.15538 0
M  V30 35656 H 265.597 3.41248 7.98759 0
M  V30 35657 H 265.869 2.57728 6.42 0
M  V30 35658 H 265.001 5.02657 6.42673 0
M  V30 35659 H 262.346 4.11708 4.08956 0
M  V30 35660 H 262.066 2.49626 6.61679 0
M  V30 35661 H 261.075 3.8662 6.00862 0
M  V30 35662 H 262.909 4.29991 7.97006 0
M  V30 35663 P 261.038 6.144 6.45285 0
M  V30 35664 O 260.818 7.54673 6.86199 0
M  V30 35665 O 260.248 5.12391 7.179 0
M  V30 35666 O 260.788 5.99158 4.88404 0
M  V30 35667 C 261.728 6.60234 3.96415 0
M  V30 35668 C 260.998 7.08259 2.72856 0
M  V30 35669 O 260.788 5.9427 1.83651 0
M  V30 35670 C 259.598 7.64886 2.9555 0
M  V30 35671 O 259.208 8.53963 1.90717 0
M  V30 35672 C 258.718 6.4116 2.90739 0
M  V30 35673 C 259.428 5.55375 1.86963 0
M  V30 35674 N 259.378 4.09664 2.15742 0
M  V30 35675 C 259.458 3.44381 3.37233 0
M  V30 35676 N 259.378 2.14131 3.28347 0
M  V30 35677 C 259.238 1.90247 1.91588 0
M  V30 35678 C 259.108 0.683992 1.20892 0
M  V30 35679 N 258.988 0.903396 -0.173998 0
M  V30 35680 C 258.988 2.14171 -0.784879 0
M  V30 35681 N 258.858 2.1435 -2.11317 0
M  V30 35682 N 259.118 3.28784 -0.119316 0
M  V30 35683 C 259.238 3.0977 1.22194 0
M  V30 35684 H 262.217 7.45574 4.45629 0
M  V30 35685 H 262.489 5.86232 3.67314 0
M  V30 35686 H 261.621 7.84412 2.24479 0
M  V30 35687 P 257.658 8.7635 1.60911 0
M  V30 35688 O 257.438 10.1388 1.11561 0
M  V30 35689 O 256.868 8.36503 2.79617 0
M  V30 35690 O 257.408 7.71806 0.42951 0
M  V30 35691 C 258.348 7.67148 -0.673689 0
M  V30 35692 C 257.618 7.33374 -1.95559 0
M  V30 35693 O 257.408 5.88721 -2.00726 0
M  V30 35694 C 256.218 7.92526 -2.10483 0
M  V30 35695 O 255.828 8.02971 -3.47653 0
M  V30 35696 C 255.338 6.89602 -1.41652 0
M  V30 35697 C 256.048 5.59201 -1.75185 0
M  V30 35698 N 255.998 4.58235 -0.662552 0
M  V30 35699 H 258.837 8.65116 -0.777161 0
M  V30 35700 H 259.109 6.90173 -0.474152 0
M  V30 35701 H 258.241 7.66548 -2.79458 0
M  V30 35702 P 254.279 8.03563 -3.84925 0
M  V30 35703 O 254.059 8.85821 -5.0569 0
M  V30 35704 O 253.489 8.41101 -2.65469 0
M  V30 35705 O 254.029 6.4965 -4.18908 0
M  V30 35706 C 254.969 5.81037 -5.05421 0
M  V30 35707 C 254.239 4.78366 -5.89277 0
M  V30 35708 O 254.029 3.58302 -5.08433 0
M  V30 35709 C 252.839 5.17448 -6.36119 0
M  V30 35710 O 252.449 4.45271 -7.53232 0
M  V30 35711 C 251.959 4.74639 -5.19936 0
M  V30 35712 C 252.669 3.49432 -4.70418 0
M  V30 35713 N 252.619 3.31776 -3.22945 0
M  V30 35714 H 255.458 6.54213 -5.71376 0
M  V30 35715 H 255.73 5.30492 -4.44033 0
M  V30 35716 H 254.862 4.55889 -6.76652 0
M  V30 35717 P 250.899 4.23843 -7.83734 0
M  V30 35718 O 250.679 4.19407 -9.29784 0
M  V30 35719 O 250.109 5.24426 -7.09156 0
M  V30 35720 O 250.649 2.7935 -7.20758 0
M  V30 35721 C 251.589 1.7299 -7.50419 0
M  V30 35722 C 250.859 0.406376 -7.57911 0
M  V30 35723 O 250.649 -0.0897726 -6.21935 0
M  V30 35724 C 249.459 0.447224 -8.1878 0
M  V30 35725 O 249.069 -0.825065 -8.71101 0
M  V30 35726 C 248.579 0.783801 -6.99623 0
M  V30 35727 C 249.289 0.0619192 -5.85967 0
M  V30 35728 N 249.239 0.7859 -4.56281 0
M  V30 35729 H 252.078 1.93423 -8.4679 0
M  V30 35730 H 252.35 1.68181 -6.71046 0
M  V30 35731 H 251.482 -0.289041 -8.15388 0
M  V30 35732 P 247.519 -1.17771 -8.83182 0
M  V30 35733 O 247.299 -2.07206 -9.98732 0
M  V30 35734 O 246.729 0.0743816 -8.81969 0
M  V30 35735 O 247.269 -1.97652 -7.47304 0
M  V30 35736 C 248.209 -3.01133 -7.08783 0
M  V30 35737 C 247.479 -4.12613 -6.37049 0
M  V30 35738 O 247.269 -3.72827 -4.97879 0
M  V30 35739 C 246.079 -4.45085 -6.88694 0
M  V30 35740 O 245.689 -5.7877 -6.5624 0
M  V30 35741 C 245.199 -3.47817 -6.12078 0
M  V30 35742 C 245.909 -3.39414 -4.77697 0
M  V30 35743 N 245.859 -2.04615 -4.15333 0
M  V30 35744 H 248.698 -3.41248 -7.98759 0
M  V30 35745 H 248.97 -2.5837 -6.41742 0
M  V30 35746 H 248.102 -5.02657 -6.42673 0
M  V30 35747 P 244.139 -6.144 -6.45285 0
M  V30 35748 O 243.919 -7.54673 -6.86199 0
M  V30 35749 O 243.349 -5.12391 -7.179 0
M  V30 35750 O 243.889 -5.99158 -4.88404 0
M  V30 35751 C 244.829 -6.60234 -3.96415 0
M  V30 35752 C 244.099 -7.08259 -2.72856 0
M  V30 35753 O 243.889 -5.9427 -1.83651 0
M  V30 35754 C 242.699 -7.64886 -2.9555 0
M  V30 35755 O 242.309 -8.53963 -1.90717 0
M  V30 35756 C 241.819 -6.4116 -2.90739 0
M  V30 35757 C 242.529 -5.55375 -1.86963 0
M  V30 35758 N 242.479 -4.09664 -2.15742 0
M  V30 35759 H 245.318 -7.45574 -4.45629 0
M  V30 35760 H 245.59 -5.86232 -3.67314 0
M  V30 35761 H 244.722 -7.84412 -2.24479 0
M  V30 35762 P 240.759 -8.7635 -1.60911 0
M  V30 35763 O 240.539 -10.1388 -1.11561 0
M  V30 35764 O 239.969 -8.36503 -2.79617 0
M  V30 35765 O 240.509 -7.71806 -0.42951 0
M  V30 35766 C 241.449 -7.67148 0.673689 0
M  V30 35767 C 240.719 -7.33374 1.95559 0
M  V30 35768 O 240.509 -5.88721 2.00726 0
M  V30 35769 C 239.319 -7.92526 2.10483 0
M  V30 35770 O 238.929 -8.02971 3.47653 0
M  V30 35771 C 238.439 -6.89602 1.41652 0
M  V30 35772 C 239.149 -5.59201 1.75185 0
M  V30 35773 N 239.099 -4.58301 0.657969 0
M  V30 35774 H 241.938 -8.65116 0.777161 0
M  V30 35775 H 242.21 -6.9022 0.46725 0
M  V30 35776 H 241.342 -7.66548 2.79458 0
M  V30 35777 H 238.687 -5.16165 2.65183 0
M  V30 35778 H 238.407 -7.06433 0.329384 0
M  V30 35779 H 237.416 -6.90926 1.82021 0
M  V30 35780 H 239.25 -8.90873 1.62657 0
M  V30 35781 P 237.379 -8.03563 3.84925 0
M  V30 35782 O 237.159 -8.85821 5.0569 0
M  V30 35783 O 236.589 -8.41101 2.65469 0
M  V30 35784 O 237.129 -6.4965 4.18908 0
M  V30 35785 C 238.069 -5.80886 5.05289 0
M  V30 35786 C 237.339 -4.78366 5.89277 0
M  V30 35787 O 237.129 -3.58302 5.08433 0
M  V30 35788 C 235.939 -5.16748 6.36559 0
M  V30 35789 O 235.549 -4.45271 7.53232 0
M  V30 35790 C 235.059 -4.74572 5.19863 0
M  V30 35791 C 235.769 -3.49373 4.70338 0
M  V30 35792 N 235.719 -3.31704 3.22876 0
M  V30 35793 C 235.569 -2.03326 2.74871 0
M  V30 35794 O 235.479 -1.06486 3.48076 0
M  V30 35795 N 235.529 -1.91838 1.37456 0
M  V30 35796 C 235.619 -2.94295 0.462035 0
M  V30 35797 C 235.769 -4.25064 1.05249 0
M  V30 35798 C 235.819 -4.40214 2.39192 0
M  V30 35799 H 238.56 -6.54063 5.71245 0
M  V30 35800 H 238.829 -5.30339 4.43905 0
M  V30 35801 H 237.962 -4.55889 6.76652 0
M  V30 35802 H 235.307 -2.6167 5.17842 0
M  V30 35803 H 235.028 -5.52155 4.41878 0
M  V30 35804 H 234.036 -4.51918 5.53297 0
M  V30 35805 H 235.87 -6.25055 6.55162 0
M  V30 35806 H 235.941 -5.39798 2.81523 0
M  V30 35807 P 233.999 -4.23843 7.83734 0
M  V30 35808 O 233.779 -4.19407 9.29784 0
M  V30 35809 O 233.209 -5.24426 7.09156 0
M  V30 35810 O 233.749 -2.7935 7.20758 0
M  V30 35811 C 234.689 -1.7299 7.50419 0
M  V30 35812 C 233.959 -0.406376 7.57911 0
M  V30 35813 O 233.749 0.0897726 6.21935 0
M  V30 35814 C 232.559 -0.447224 8.1878 0
M  V30 35815 O 232.169 0.825065 8.71101 0
M  V30 35816 C 231.679 -0.783801 6.99623 0
M  V30 35817 C 232.389 -0.0619192 5.85967 0
M  V30 35818 N 232.339 -0.7859 4.56281 0
M  V30 35819 H 235.178 -1.93423 8.4679 0
M  V30 35820 H 235.45 -1.68181 6.71046 0
M  V30 35821 H 234.582 0.289041 8.15388 0
M  V30 35822 P 230.619 1.17771 8.83182 0
M  V30 35823 O 230.399 2.07206 9.98732 0
M  V30 35824 O 229.829 -0.0743816 8.81969 0
M  V30 35825 O 230.369 1.97652 7.47304 0
M  V30 35826 C 231.309 3.01133 7.08783 0
M  V30 35827 C 230.579 4.12613 6.37049 0
M  V30 35828 O 230.369 3.72827 4.97879 0
M  V30 35829 C 229.179 4.45085 6.88694 0
M  V30 35830 O 228.789 5.7877 6.5624 0
M  V30 35831 C 228.299 3.47817 6.12078 0
M  V30 35832 C 229.009 3.39414 4.77697 0
M  V30 35833 N 228.959 2.04199 4.15538 0
M  V30 35834 C 229.039 0.821545 4.76977 0
M  V30 35835 N 228.969 -0.1794 3.94592 0
M  V30 35836 C 228.819 0.419121 2.70776 0
M  V30 35837 C 228.689 -0.109072 1.40577 0
M  V30 35838 N 228.679 -1.4104 1.1344 0
M  V30 35839 N 228.569 0.764381 0.39411 0
M  V30 35840 C 228.579 2.06587 0.664135 0
M  V30 35841 N 228.699 2.67948 1.82153 0
M  V30 35842 C 228.819 1.77942 2.8147 0
M  V30 35843 H 231.798 3.41248 7.98759 0
M  V30 35844 H 232.07 2.57728 6.42 0
M  V30 35845 H 231.202 5.02657 6.42673 0
M  V30 35846 H 228.547 4.11708 4.08956 0
M  V30 35847 H 228.267 2.49626 6.61679 0
M  V30 35848 H 227.276 3.8662 6.00862 0
M  V30 35849 H 229.11 4.29991 7.97006 0
M  V30 35850 H 229.151 0.702451 5.84696 0
M  V30 35851 H 228.77 -2.09647 1.89651 0
M  V30 35852 H 228.581 -1.73358 0.160575 0
M  V30 35853 H 228.473 2.71695 -0.195838 0
M  V30 35854 P 227.239 6.144 6.45285 0
M  V30 35855 O 227.019 7.54673 6.86199 0
M  V30 35856 O 226.449 5.12391 7.179 0
M  V30 35857 O 226.989 5.99158 4.88404 0
M  V30 35858 C 227.929 6.60234 3.96415 0
M  V30 35859 C 227.199 7.08259 2.72856 0
M  V30 35860 O 226.989 5.9427 1.83651 0
M  V30 35861 C 225.799 7.64886 2.9555 0
M  V30 35862 O 225.409 8.53963 1.90717 0
M  V30 35863 C 224.919 6.4116 2.90739 0
M  V30 35864 C 225.629 5.55375 1.86963 0
M  V30 35865 N 225.579 4.09448 2.16152 0
M  V30 35866 H 228.418 7.45574 4.45629 0
M  V30 35867 H 228.69 5.85864 3.679 0
M  V30 35868 H 227.822 7.84412 2.24479 0
M  V30 35869 H 225.167 5.73457 0.888562 0
M  V30 35870 H 224.887 5.90877 3.88583 0
M  V30 35871 H 223.896 6.6596 2.58858 0
M  V30 35872 H 225.73 8.16339 3.92049 0
M  V30 35873 P 223.859 8.7635 1.60911 0
M  V30 35874 O 223.639 10.1388 1.11561 0
M  V30 35875 O 223.069 8.36503 2.79617 0
M  V30 35876 O 223.609 7.71906 0.429565 0
M  V30 35877 C 224.549 7.67148 -0.673689 0
M  V30 35878 C 223.819 7.33666 -1.94851 0
M  V30 35879 O 223.609 5.88816 -2.00759 0
M  V30 35880 C 222.419 7.92526 -2.10483 0
M  V30 35881 O 222.029 8.03063 -3.47693 0
M  V30 35882 C 221.539 6.89602 -1.41652 0
M  V30 35883 C 222.249 5.59201 -1.75185 0
M  V30 35884 N 222.199 4.58235 -0.662552 0
M  V30 35885 C 222.049 3.24451 -1.01643 0
M  V30 35886 O 221.959 2.94958 -2.21722 0
M  V30 35887 N 221.999 2.30408 0.165238 0
M  V30 35888 C 222.099 2.66048 1.25118 0
M  V30 35889 N 222.049 1.70787 2.16813 0
M  V30 35890 C 222.249 4.02732 1.64413 0
M  V30 35891 C 222.299 4.9488 0.63991 0
M  V30 35892 H 225.039 8.65017 -0.777072 0
M  V30 35893 H 225.309 6.90173 -0.474152 0
M  V30 35894 H 224.442 7.66642 -2.79492 0
M  V30 35895 H 221.787 5.16254 -2.65229 0
M  V30 35896 H 221.507 7.06532 -0.329431 0
M  V30 35897 H 220.516 6.91023 -1.82047 0
M  V30 35898 H 222.35 8.90873 -1.62657 0
M  V30 35899 H 222.422 6.00104 0.892197 0
M  V30 35900 H 222.32 4.31733 2.69229 0
M  V30 35901 H 221.932 0.724835 1.8844 0
M  V30 35902 H 222.128 1.94716 3.16734 0
M  V30 35903 P 220.479 8.03563 -3.84925 0
M  V30 35904 O 220.259 8.85821 -5.0569 0
M  V30 35905 O 219.689 8.41101 -2.65469 0
M  V30 35906 O 220.229 6.4965 -4.18908 0
M  V30 35907 C 221.169 5.81037 -5.05421 0
M  V30 35908 C 220.439 4.78366 -5.89277 0
M  V30 35909 O 220.229 3.58302 -5.08433 0
M  V30 35910 C 219.039 5.17448 -6.36119 0
M  V30 35911 O 218.649 4.45271 -7.53232 0
M  V30 35912 C 218.159 4.74639 -5.19936 0
M  V30 35913 C 218.869 3.49432 -4.70418 0
M  V30 35914 N 218.819 3.32099 -3.22613 0
M  V30 35915 H 221.658 6.54213 -5.71376 0
M  V30 35916 H 221.93 5.30936 -4.43503 0
M  V30 35917 H 221.062 4.55889 -6.76652 0
M  V30 35918 H 218.407 2.61715 -5.17932 0
M  V30 35919 H 218.127 5.52155 -4.41878 0
M  V30 35920 H 217.136 4.51981 -5.53374 0
M  V30 35921 H 218.97 6.25124 -6.55234 0
M  V30 35922 P 217.099 4.23843 -7.83734 0
M  V30 35923 O 216.879 4.19407 -9.29784 0
M  V30 35924 O 216.309 5.24426 -7.09156 0
M  V30 35925 O 216.849 2.7935 -7.20758 0
M  V30 35926 C 217.789 1.72945 -7.50224 0
M  V30 35927 C 217.059 0.406376 -7.57911 0
M  V30 35928 O 216.849 -0.0897726 -6.21935 0
M  V30 35929 C 215.659 0.438983 -8.18724 0
M  V30 35930 O 215.269 -0.825065 -8.71101 0
M  V30 35931 C 214.779 0.783689 -6.99524 0
M  V30 35932 C 215.489 0.0619086 -5.85867 0
M  V30 35933 N 215.439 0.78573 -4.56183 0
M  V30 35934 C 215.289 0.0292889 -3.41887 0
M  V30 35935 O 215.199 -1.18445 -3.4419 0
M  V30 35936 N 215.249 0.744061 -2.23964 0
M  V30 35937 C 215.339 2.10932 -2.10362 0
M  V30 35938 O 215.289 2.64117 -0.98825 0
M  V30 35939 C 215.489 2.8202 -3.34994 0
M  V30 35940 C 215.599 4.31095 -3.25037 0
M  V30 35941 C 215.539 2.15547 -4.52261 0
M  V30 35942 H 218.28 1.93379 -8.46595 0
M  V30 35943 H 218.549 1.68132 -6.70852 0
M  V30 35944 H 217.682 -0.289041 -8.15388 0
M  V30 35945 H 215.027 -0.926847 -5.72749 0
M  V30 35946 H 214.748 1.86973 -6.82036 0
M  V30 35947 H 213.756 0.403896 -7.13257 0
M  V30 35948 H 215.59 1.20585 -8.97435 0
M  V30 35949 H 215.661 2.71231 -5.45042 0
M  V30 35950 H 214.631 4.76966 -3.49992 0
M  V30 35951 H 216.368 4.67047 -3.95024 0
M  V30 35952 H 215.88 4.58996 -2.22312 0
M  V30 35953 H 215.144 0.214893 -1.39758 0
M  V30 35954 P 213.719 -1.17771 -8.83182 0
M  V30 35955 O 213.499 -2.07206 -9.98732 0
M  V30 35956 O 212.929 0.0743816 -8.81969 0
M  V30 35957 O 213.469 -1.97652 -7.47304 0
M  V30 35958 C 214.409 -3.01133 -7.08783 0
M  V30 35959 C 213.679 -4.12613 -6.37049 0
M  V30 35960 O 213.469 -3.72827 -4.97879 0
M  V30 35961 C 212.279 -4.45085 -6.88694 0
M  V30 35962 O 211.889 -5.7877 -6.5624 0
M  V30 35963 C 211.399 -3.47817 -6.12078 0
M  V30 35964 C 212.109 -3.39414 -4.77697 0
M  V30 35965 N 212.059 -2.04199 -4.15538 0
M  V30 35966 H 214.898 -3.41248 -7.98759 0
M  V30 35967 H 215.17 -2.57728 -6.42 0
M  V30 35968 H 214.302 -5.02657 -6.42673 0
M  V30 35969 H 211.647 -4.11708 -4.08956 0
M  V30 35970 H 211.367 -2.49626 -6.61679 0
M  V30 35971 H 210.376 -3.8662 -6.00862 0
M  V30 35972 H 212.21 -4.29991 -7.97006 0
M  V30 35973 P 210.339 -6.144 -6.45285 0
M  V30 35974 O 210.119 -7.54673 -6.86199 0
M  V30 35975 O 209.549 -5.12391 -7.179 0
M  V30 35976 O 210.089 -5.99158 -4.88404 0
M  V30 35977 C 211.029 -6.60234 -3.96415 0
M  V30 35978 C 210.299 -7.08259 -2.72856 0
M  V30 35979 O 210.089 -5.9427 -1.83651 0
M  V30 35980 C 208.899 -7.64886 -2.9555 0
M  V30 35981 O 208.509 -8.53963 -1.90717 0
M  V30 35982 C 208.019 -6.4116 -2.90739 0
M  V30 35983 C 208.729 -5.55375 -1.86963 0
M  V30 35984 N 208.679 -4.09664 -2.15742 0
M  V30 35985 H 211.518 -7.45574 -4.45629 0
M  V30 35986 H 211.79 -5.86232 -3.67314 0
M  V30 35987 H 210.922 -7.84412 -2.24479 0
M  V30 35988 P 206.959 -8.7635 -1.60911 0
M  V30 35989 O 206.739 -10.1388 -1.11561 0
M  V30 35990 O 206.169 -8.36503 -2.79617 0
M  V30 35991 O 206.709 -7.71806 -0.42951 0
M  V30 35992 C 207.649 -7.67148 0.673689 0
M  V30 35993 C 206.919 -7.33374 1.95559 0
M  V30 35994 O 206.709 -5.88721 2.00726 0
M  V30 35995 C 205.519 -7.92526 2.10483 0
M  V30 35996 O 205.129 -8.02971 3.47653 0
M  V30 35997 C 204.639 -6.89602 1.41652 0
M  V30 35998 C 205.349 -5.59201 1.75185 0
M  V30 35999 N 205.299 -4.58235 0.662552 0
M  V30 36000 H 208.138 -8.65116 0.777161 0
M  V30 36001 H 208.41 -6.90173 0.474152 0
M  V30 36002 H 207.542 -7.66548 2.79458 0
M  V30 36003 P 203.579 -8.03563 3.84925 0
M  V30 36004 O 203.359 -8.85821 5.0569 0
M  V30 36005 O 202.789 -8.41101 2.65469 0
M  V30 36006 O 203.329 -6.4965 4.18908 0
M  V30 36007 C 204.269 -5.81037 5.05421 0
M  V30 36008 C 203.539 -4.78366 5.89277 0
M  V30 36009 O 203.329 -3.58302 5.08433 0
M  V30 36010 C 202.139 -5.17448 6.36119 0
M  V30 36011 O 201.749 -4.45271 7.53232 0
M  V30 36012 C 201.259 -4.74639 5.19936 0
M  V30 36013 C 201.969 -3.49432 4.70418 0
M  V30 36014 N 201.919 -3.31776 3.22945 0
M  V30 36015 H 204.758 -6.54213 5.71376 0
M  V30 36016 H 205.03 -5.30492 4.44033 0
M  V30 36017 H 204.162 -4.55889 6.76652 0
M  V30 36018 P 200.199 -4.23843 7.83734 0
M  V30 36019 O 199.979 -4.19407 9.29784 0
M  V30 36020 O 199.409 -5.24426 7.09156 0
M  V30 36021 O 199.949 -2.7935 7.20758 0
M  V30 36022 C 200.889 -1.72945 7.50224 0
M  V30 36023 C 200.159 -0.406376 7.57911 0
M  V30 36024 O 199.949 0.0897726 6.21935 0
M  V30 36025 C 198.759 -0.438983 8.18724 0
M  V30 36026 O 198.369 0.825065 8.71101 0
M  V30 36027 C 197.879 -0.783689 6.99524 0
M  V30 36028 C 198.589 -0.0619086 5.85867 0
M  V30 36029 N 198.539 -0.78573 4.56183 0
M  V30 36030 C 198.389 -0.0292889 3.41887 0
M  V30 36031 O 198.299 1.18445 3.4419 0
M  V30 36032 N 198.349 -0.744061 2.23964 0
M  V30 36033 C 198.439 -2.10932 2.10362 0
M  V30 36034 O 198.389 -2.64117 0.98825 0
M  V30 36035 C 198.589 -2.8202 3.34994 0
M  V30 36036 C 198.699 -4.31095 3.25037 0
M  V30 36037 C 198.639 -2.15547 4.52261 0
M  V30 36038 H 201.38 -1.93379 8.46595 0
M  V30 36039 H 201.649 -1.68132 6.70852 0
M  V30 36040 H 200.782 0.289041 8.15388 0
M  V30 36041 H 198.127 0.926847 5.72749 0
M  V30 36042 H 197.848 -1.86973 6.82036 0
M  V30 36043 H 196.856 -0.403896 7.13257 0
M  V30 36044 H 198.69 -1.20585 8.97435 0
M  V30 36045 H 198.761 -2.71231 5.45042 0
M  V30 36046 H 197.731 -4.76966 3.49992 0
M  V30 36047 H 199.468 -4.67047 3.95024 0
M  V30 36048 H 198.98 -4.58996 2.22312 0
M  V30 36049 H 198.244 -0.214893 1.39758 0
M  V30 36050 P 196.819 1.17771 8.83182 0
M  V30 36051 O 196.599 2.07206 9.98732 0
M  V30 36052 O 196.029 -0.0743816 8.81969 0
M  V30 36053 O 196.569 1.97652 7.47304 0
M  V30 36054 C 197.509 3.01055 7.08599 0
M  V30 36055 C 196.779 4.12613 6.37049 0
M  V30 36056 O 196.569 3.72827 4.97879 0
M  V30 36057 C 195.379 4.45719 6.88164 0
M  V30 36058 O 194.989 5.7877 6.5624 0
M  V30 36059 C 194.499 3.47768 6.11991 0
M  V30 36060 C 195.209 3.39356 4.77615 0
M  V30 36061 N 195.159 2.04571 4.15244 0
M  V30 36062 C 195.009 1.98587 2.78314 0
M  V30 36063 O 194.919 2.98134 2.08835 0
M  V30 36064 N 194.969 0.714467 2.24925 0
M  V30 36065 C 195.059 -0.470001 2.94169 0
M  V30 36066 O 195.009 -1.55587 2.35195 0
M  V30 36067 C 195.209 -0.312541 4.36783 0
M  V30 36068 C 195.319 -1.57711 5.16352 0
M  V30 36069 C 195.259 0.914512 4.92583 0
M  V30 36070 H 198 3.41169 7.98575 0
M  V30 36071 H 198.269 2.58295 6.41556 0
M  V30 36072 H 197.402 5.02657 6.42673 0
M  V30 36073 H 194.747 4.11637 4.08885 0
M  V30 36074 H 194.468 2.49626 6.61679 0
M  V30 36075 H 193.476 3.86566 6.00778 0
M  V30 36076 H 195.31 4.29943 7.96918 0
M  V30 36077 H 195.381 1.00937 6.00374 0
M  V30 36078 H 194.351 -1.80153 5.63503 0
M  V30 36079 H 196.088 -1.4566 5.94104 0
M  V30 36080 H 195.6 -2.40664 4.49645 0
M  V30 36081 H 194.864 0.647622 1.25697 0
M  V30 36082 P 193.439 6.144 6.45285 0
M  V30 36083 O 193.219 7.54673 6.86199 0
M  V30 36084 O 192.649 5.12391 7.179 0
M  V30 36085 O 193.189 5.99158 4.88404 0
M  V30 36086 C 194.129 6.60234 3.96415 0
M  V30 36087 C 193.399 7.08259 2.72856 0
M  V30 36088 O 193.189 5.9427 1.83651 0
M  V30 36089 C 191.999 7.64886 2.9555 0
M  V30 36090 O 191.609 8.53963 1.90717 0
M  V30 36091 C 191.119 6.4116 2.90739 0
M  V30 36092 C 191.829 5.55375 1.86963 0
M  V30 36093 N 191.779 4.09664 2.15742 0
M  V30 36094 H 194.618 7.45574 4.45629 0
M  V30 36095 H 194.89 5.86232 3.67314 0
M  V30 36096 H 194.022 7.84412 2.24479 0
M  V30 36097 P 190.059 8.7635 1.60911 0
M  V30 36098 O 189.839 10.1388 1.11561 0
M  V30 36099 O 189.269 8.36503 2.79617 0
M  V30 36100 O 189.809 7.71806 0.42951 0
M  V30 36101 C 190.749 7.67148 -0.673689 0
M  V30 36102 C 190.019 7.33374 -1.95559 0
M  V30 36103 O 189.809 5.88721 -2.00726 0
M  V30 36104 C 188.619 7.92526 -2.10483 0
M  V30 36105 O 188.229 8.02971 -3.47653 0
M  V30 36106 C 187.739 6.89602 -1.41652 0
M  V30 36107 C 188.449 5.59201 -1.75185 0
M  V30 36108 N 188.399 4.58301 -0.657969 0
M  V30 36109 C 188.479 4.79019 0.692603 0
M  V30 36110 N 188.409 3.69736 1.38998 0
M  V30 36111 C 188.259 2.70474 0.438135 0
M  V30 36112 C 188.129 1.30327 0.538142 0
M  V30 36113 N 188.119 0.64304 1.69192 0
M  V30 36114 N 188.009 0.611027 -0.605183 0
M  V30 36115 C 188.019 1.27002 -1.75953 0
M  V30 36116 N 188.139 2.56038 -1.98546 0
M  V30 36117 C 188.259 3.22681 -0.822541 0
M  V30 36118 H 191.238 8.65116 -0.777161 0
M  V30 36119 H 191.51 6.9022 -0.46725 0
M  V30 36120 H 190.642 7.66548 -2.79458 0
M  V30 36121 H 187.987 5.16165 -2.65183 0
M  V30 36122 H 187.707 7.06433 -0.329384 0
M  V30 36123 H 186.716 6.90926 -1.82021 0
M  V30 36124 H 188.55 8.90873 -1.62657 0
M  V30 36125 H 188.591 5.77785 1.13874 0
M  V30 36126 H 188.21 1.15585 2.57991 0
M  V30 36127 H 188.021 -0.382989 1.69835 0
M  V30 36128 H 187.913 0.653331 -2.64449 0
M  V30 36129 P 186.679 8.03563 -3.84925 0
M  V30 36130 O 186.459 8.85821 -5.0569 0
M  V30 36131 O 185.889 8.41101 -2.65469 0
M  V30 36132 O 186.429 6.4965 -4.18908 0
M  V30 36133 C 187.369 5.81037 -5.05421 0
M  V30 36134 C 186.639 4.78366 -5.89277 0
M  V30 36135 O 186.429 3.58302 -5.08433 0
M  V30 36136 C 185.239 5.17448 -6.36119 0
M  V30 36137 O 184.849 4.45271 -7.53232 0
M  V30 36138 C 184.359 4.74639 -5.19936 0
M  V30 36139 C 185.069 3.49432 -4.70418 0
M  V30 36140 N 185.019 3.31776 -3.22945 0
M  V30 36141 H 187.858 6.54213 -5.71376 0
M  V30 36142 H 188.13 5.30492 -4.44033 0
M  V30 36143 H 187.262 4.55889 -6.76652 0
M  V30 36144 P 183.299 4.23843 -7.83734 0
M  V30 36145 O 183.079 4.19407 -9.29784 0
M  V30 36146 O 182.509 5.24426 -7.09156 0
M  V30 36147 O 183.049 2.7935 -7.20758 0
M  V30 36148 C 183.989 1.7299 -7.50419 0
M  V30 36149 C 183.259 0.406376 -7.57911 0
M  V30 36150 O 183.049 -0.0897726 -6.21935 0
M  V30 36151 C 181.859 0.447224 -8.1878 0
M  V30 36152 O 181.469 -0.825065 -8.71101 0
M  V30 36153 C 180.979 0.783801 -6.99623 0
M  V30 36154 C 181.689 0.0619192 -5.85967 0
M  V30 36155 N 181.639 0.790462 -4.56202 0
M  V30 36156 H 184.478 1.93423 -8.4679 0
M  V30 36157 H 184.75 1.68852 -6.70877 0
M  V30 36158 H 183.882 -0.289041 -8.15388 0
M  V30 36159 H 181.227 -0.927006 -5.72848 0
M  V30 36160 H 180.947 1.86973 -6.82036 0
M  V30 36161 H 179.956 0.403953 -7.13357 0
M  V30 36162 H 181.79 1.20599 -8.97534 0
M  V30 36163 P 179.919 -1.17771 -8.83182 0
M  V30 36164 O 179.699 -2.07206 -9.98732 0
M  V30 36165 O 179.129 0.0743816 -8.81969 0
M  V30 36166 O 179.669 -1.97652 -7.47304 0
M  V30 36167 C 180.609 -3.01133 -7.08783 0
M  V30 36168 C 179.879 -4.12613 -6.37049 0
M  V30 36169 O 179.669 -3.72827 -4.97879 0
M  V30 36170 C 178.479 -4.45085 -6.88694 0
M  V30 36171 O 178.089 -5.7877 -6.5624 0
M  V30 36172 C 177.599 -3.47817 -6.12078 0
M  V30 36173 C 178.309 -3.39414 -4.77697 0
M  V30 36174 N 178.259 -2.04615 -4.15333 0
M  V30 36175 C 178.339 -0.803897 -4.75249 0
M  V30 36176 N 178.259 0.197615 -3.91502 0
M  V30 36177 C 178.119 -0.413002 -2.66823 0
M  V30 36178 C 177.989 0.157221 -1.38007 0
M  V30 36179 N 177.869 -0.833136 -0.390236 0
M  V30 36180 C 177.869 -2.19402 -0.623885 0
M  V30 36181 N 177.739 -2.97622 0.449677 0
M  V30 36182 N 177.999 -2.73005 -1.83601 0
M  V30 36183 C 178.119 -1.78786 -2.80935 0
M  V30 36184 H 181.098 -3.41248 -7.98759 0
M  V30 36185 H 181.37 -2.5837 -6.41742 0
M  V30 36186 H 180.502 -5.02657 -6.42673 0
M  V30 36187 P 176.539 -6.144 -6.45285 0
M  V30 36188 O 176.319 -7.54673 -6.86199 0
M  V30 36189 O 175.749 -5.12391 -7.179 0
M  V30 36190 O 176.289 -5.99158 -4.88404 0
M  V30 36191 C 177.229 -6.60234 -3.96415 0
M  V30 36192 C 176.499 -7.08259 -2.72856 0
M  V30 36193 O 176.289 -5.9427 -1.83651 0
M  V30 36194 C 175.099 -7.64886 -2.9555 0
M  V30 36195 O 174.709 -8.53963 -1.90717 0
M  V30 36196 C 174.219 -6.4116 -2.90739 0
M  V30 36197 C 174.929 -5.55375 -1.86963 0
M  V30 36198 N 174.879 -4.09664 -2.15742 0
M  V30 36199 H 177.718 -7.45574 -4.45629 0
M  V30 36200 H 177.99 -5.86232 -3.67314 0
M  V30 36201 H 177.122 -7.84412 -2.24479 0
M  V30 36202 P 173.159 -8.7635 -1.60911 0
M  V30 36203 O 172.939 -10.1388 -1.11561 0
M  V30 36204 O 172.369 -8.36503 -2.79617 0
M  V30 36205 O 172.909 -7.71806 -0.42951 0
M  V30 36206 C 173.849 -7.67148 0.673689 0
M  V30 36207 C 173.119 -7.33374 1.95559 0
M  V30 36208 O 172.909 -5.88721 2.00726 0
M  V30 36209 C 171.719 -7.92526 2.10483 0
M  V30 36210 O 171.329 -8.02971 3.47653 0
M  V30 36211 C 170.839 -6.89602 1.41652 0
M  V30 36212 C 171.549 -5.59201 1.75185 0
M  V30 36213 N 171.499 -4.58235 0.662552 0
M  V30 36214 H 174.338 -8.65116 0.777161 0
M  V30 36215 H 174.61 -6.90173 0.474152 0
M  V30 36216 H 173.742 -7.66548 2.79458 0
M  V30 36217 P 169.779 -8.03563 3.84925 0
M  V30 36218 O 169.559 -8.85821 5.0569 0
M  V30 36219 O 168.989 -8.41101 2.65469 0
M  V30 36220 O 169.529 -6.4965 4.18908 0
M  V30 36221 C 170.469 -5.81037 5.05421 0
M  V30 36222 C 169.739 -4.78366 5.89277 0
M  V30 36223 O 169.529 -3.58302 5.08433 0
M  V30 36224 C 168.339 -5.17448 6.36119 0
M  V30 36225 O 167.949 -4.45271 7.53232 0
M  V30 36226 C 167.459 -4.74639 5.19936 0
M  V30 36227 C 168.169 -3.49432 4.70418 0
M  V30 36228 N 168.119 -3.31776 3.22945 0
M  V30 36229 H 170.958 -6.54213 5.71376 0
M  V30 36230 H 171.23 -5.30492 4.44033 0
M  V30 36231 H 170.362 -4.55889 6.76652 0
M  V30 36232 P 166.399 -4.23843 7.83734 0
M  V30 36233 O 166.179 -4.19407 9.29784 0
M  V30 36234 O 165.609 -5.24426 7.09156 0
M  V30 36235 O 166.149 -2.7935 7.20758 0
M  V30 36236 C 167.089 -1.7299 7.50419 0
M  V30 36237 C 166.359 -0.406376 7.57911 0
M  V30 36238 O 166.149 0.0897726 6.21935 0
M  V30 36239 C 164.959 -0.447224 8.1878 0
M  V30 36240 O 164.569 0.825065 8.71101 0
M  V30 36241 C 164.079 -0.783801 6.99623 0
M  V30 36242 C 164.789 -0.0619192 5.85967 0
M  V30 36243 N 164.739 -0.7859 4.56281 0
M  V30 36244 H 167.578 -1.93423 8.4679 0
M  V30 36245 H 167.85 -1.68181 6.71046 0
M  V30 36246 H 166.982 0.289041 8.15388 0
M  V30 36247 P 163.019 1.17771 8.83182 0
M  V30 36248 O 162.799 2.07206 9.98732 0
M  V30 36249 O 162.229 -0.0743816 8.81969 0
M  V30 36250 O 162.769 1.97652 7.47304 0
M  V30 36251 C 163.709 3.01133 7.08783 0
M  V30 36252 C 162.979 4.12613 6.37049 0
M  V30 36253 O 162.769 3.72827 4.97879 0
M  V30 36254 C 161.579 4.45085 6.88694 0
M  V30 36255 O 161.189 5.7877 6.5624 0
M  V30 36256 C 160.699 3.47817 6.12078 0
M  V30 36257 C 161.409 3.39414 4.77697 0
M  V30 36258 N 161.359 2.04199 4.15538 0
M  V30 36259 H 164.198 3.41248 7.98759 0
M  V30 36260 H 164.47 2.57728 6.42 0
M  V30 36261 H 163.602 5.02657 6.42673 0
M  V30 36262 H 160.947 4.11708 4.08956 0
M  V30 36263 H 160.667 2.49626 6.61679 0
M  V30 36264 H 159.676 3.8662 6.00862 0
M  V30 36265 H 161.51 4.29991 7.97006 0
M  V30 36266 P 159.639 6.144 6.45285 0
M  V30 36267 O 159.419 7.54673 6.86199 0
M  V30 36268 O 158.849 5.12391 7.179 0
M  V30 36269 O 159.389 5.99158 4.88404 0
M  V30 36270 C 160.329 6.60062 3.96313 0
M  V30 36271 C 159.599 7.08259 2.72856 0
M  V30 36272 O 159.389 5.9427 1.83651 0
M  V30 36273 C 158.199 7.65087 2.94749 0
M  V30 36274 O 157.809 8.53963 1.90717 0
M  V30 36275 C 157.319 6.41069 2.90698 0
M  V30 36276 C 158.029 5.5528 1.86931 0
M  V30 36277 N 157.979 4.09575 2.15696 0
M  V30 36278 C 157.829 3.24249 1.08435 0
M  V30 36279 O 157.739 3.63946 -0.0628747 0
M  V30 36280 N 157.789 1.90009 1.39973 0
M  V30 36281 C 157.879 1.34884 2.65614 0
M  V30 36282 C 158.029 2.3145 3.71736 0
M  V30 36283 C 158.079 3.63518 3.44754 0
M  V30 36284 H 160.82 7.45402 4.45526 0
M  V30 36285 H 161.089 5.86062 3.67208 0
M  V30 36286 H 160.222 7.84412 2.24479 0
M  V30 36287 H 157.567 5.73358 0.888409 0
M  V30 36288 H 157.288 5.90877 3.88583 0
M  V30 36289 H 156.296 6.65867 2.58821 0
M  V30 36290 H 158.13 8.16248 3.92006 0
M  V30 36291 H 158.201 4.34551 4.26383 0
M  V30 36292 P 156.259 8.7635 1.60911 0
M  V30 36293 O 156.039 10.1388 1.11561 0
M  V30 36294 O 155.469 8.36503 2.79617 0
M  V30 36295 O 156.009 7.71806 0.42951 0
M  V30 36296 C 156.949 7.67148 -0.673689 0
M  V30 36297 C 156.219 7.33374 -1.95559 0
M  V30 36298 O 156.009 5.88721 -2.00726 0
M  V30 36299 C 154.819 7.92526 -2.10483 0
M  V30 36300 O 154.429 8.02971 -3.47653 0
M  V30 36301 C 153.939 6.89602 -1.41652 0
M  V30 36302 C 154.649 5.59201 -1.75185 0
M  V30 36303 N 154.599 4.58235 -0.662552 0
M  V30 36304 H 157.438 8.65116 -0.777161 0
M  V30 36305 H 157.71 6.90173 -0.474152 0
M  V30 36306 H 156.842 7.66548 -2.79458 0
M  V30 36307 P 152.879 8.03563 -3.84925 0
M  V30 36308 O 152.659 8.85821 -5.0569 0
M  V30 36309 O 152.089 8.41101 -2.65469 0
M  V30 36310 O 152.629 6.4965 -4.18908 0
M  V30 36311 C 153.569 5.81037 -5.05421 0
M  V30 36312 C 152.839 4.78366 -5.89277 0
M  V30 36313 O 152.629 3.58302 -5.08433 0
M  V30 36314 C 151.439 5.17448 -6.36119 0
M  V30 36315 O 151.049 4.45271 -7.53232 0
M  V30 36316 C 150.559 4.74639 -5.19936 0
M  V30 36317 C 151.269 3.49432 -4.70418 0
M  V30 36318 N 151.219 3.31776 -3.22945 0
M  V30 36319 H 154.058 6.54213 -5.71376 0
M  V30 36320 H 154.33 5.30492 -4.44033 0
M  V30 36321 H 153.462 4.55889 -6.76652 0
M  V30 36322 P 149.499 4.23843 -7.83734 0
M  V30 36323 O 149.279 4.19407 -9.29784 0
M  V30 36324 O 148.709 5.24426 -7.09156 0
M  V30 36325 O 149.249 2.7935 -7.20758 0
M  V30 36326 C 150.189 1.7299 -7.50419 0
M  V30 36327 C 149.459 0.406376 -7.57911 0
M  V30 36328 O 149.249 -0.0897726 -6.21935 0
M  V30 36329 C 148.059 0.447224 -8.1878 0
M  V30 36330 O 147.669 -0.825065 -8.71101 0
M  V30 36331 C 147.179 0.783801 -6.99623 0
M  V30 36332 C 147.889 0.0619192 -5.85967 0
M  V30 36333 N 147.839 0.7859 -4.56281 0
M  V30 36334 H 150.678 1.93423 -8.4679 0
M  V30 36335 H 150.95 1.68181 -6.71046 0
M  V30 36336 H 150.082 -0.289041 -8.15388 0
M  V30 36337 P 146.119 -1.17771 -8.83182 0
M  V30 36338 O 145.899 -2.07206 -9.98732 0
M  V30 36339 O 145.329 0.0743816 -8.81969 0
M  V30 36340 O 145.869 -1.97652 -7.47304 0
M  V30 36341 C 146.809 -3.01133 -7.08783 0
M  V30 36342 C 146.079 -4.12613 -6.37049 0
M  V30 36343 O 145.869 -3.72827 -4.97879 0
M  V30 36344 C 144.679 -4.45085 -6.88694 0
M  V30 36345 O 144.289 -5.7877 -6.5624 0
M  V30 36346 C 143.799 -3.47817 -6.12078 0
M  V30 36347 C 144.509 -3.39414 -4.77697 0
M  V30 36348 N 144.459 -2.04615 -4.15333 0
M  V30 36349 H 147.298 -3.41248 -7.98759 0
M  V30 36350 H 147.57 -2.5837 -6.41742 0
M  V30 36351 H 146.702 -5.02657 -6.42673 0
M  V30 36352 P 142.739 -6.144 -6.45285 0
M  V30 36353 O 142.519 -7.54673 -6.86199 0
M  V30 36354 O 141.949 -5.12391 -7.179 0
M  V30 36355 O 142.489 -5.99158 -4.88404 0
M  V30 36356 C 143.429 -6.60234 -3.96415 0
M  V30 36357 C 142.699 -7.08259 -2.72856 0
M  V30 36358 O 142.489 -5.9427 -1.83651 0
M  V30 36359 C 141.299 -7.64886 -2.9555 0
M  V30 36360 O 140.909 -8.53963 -1.90717 0
M  V30 36361 C 140.419 -6.4116 -2.90739 0
M  V30 36362 C 141.129 -5.55375 -1.86963 0
M  V30 36363 N 141.079 -4.09664 -2.15742 0
M  V30 36364 H 143.918 -7.45574 -4.45629 0
M  V30 36365 H 144.19 -5.86232 -3.67314 0
M  V30 36366 H 143.322 -7.84412 -2.24479 0
M  V30 36367 P 139.359 -8.7635 -1.60911 0
M  V30 36368 O 139.139 -10.1388 -1.11561 0
M  V30 36369 O 138.569 -8.36503 -2.79617 0
M  V30 36370 O 139.109 -7.71906 -0.429565 0
M  V30 36371 C 140.049 -7.67148 0.673689 0
M  V30 36372 C 139.319 -7.33666 1.94851 0
M  V30 36373 O 139.109 -5.88816 2.00759 0
M  V30 36374 C 137.919 -7.92526 2.10483 0
M  V30 36375 O 137.529 -8.03063 3.47693 0
M  V30 36376 C 137.039 -6.89602 1.41652 0
M  V30 36377 C 137.749 -5.59201 1.75185 0
M  V30 36378 N 137.699 -4.58235 0.662552 0
M  V30 36379 C 137.549 -3.24451 1.01643 0
M  V30 36380 O 137.459 -2.94958 2.21722 0
M  V30 36381 N 137.499 -2.30408 -0.165238 0
M  V30 36382 C 137.599 -2.66048 -1.25118 0
M  V30 36383 N 137.549 -1.70787 -2.16813 0
M  V30 36384 C 137.749 -4.02732 -1.64413 0
M  V30 36385 C 137.799 -4.9488 -0.63991 0
M  V30 36386 H 140.539 -8.65017 0.777072 0
M  V30 36387 H 140.809 -6.90173 0.474152 0
M  V30 36388 H 139.942 -7.66642 2.79492 0
M  V30 36389 H 137.287 -5.16254 2.65229 0
M  V30 36390 H 137.007 -7.06532 0.329431 0
M  V30 36391 H 136.016 -6.91023 1.82047 0
M  V30 36392 H 137.85 -8.90873 1.62657 0
M  V30 36393 H 137.922 -6.00104 -0.892197 0
M  V30 36394 H 137.82 -4.31733 -2.69229 0
M  V30 36395 H 137.432 -0.724835 -1.8844 0
M  V30 36396 H 137.628 -1.94716 -3.16734 0
M  V30 36397 P 135.979 -8.03563 3.84925 0
M  V30 36398 O 135.759 -8.85821 5.0569 0
M  V30 36399 O 135.189 -8.41101 2.65469 0
M  V30 36400 O 135.729 -6.4965 4.18908 0
M  V30 36401 C 136.669 -5.81037 5.05421 0
M  V30 36402 C 135.939 -4.78366 5.89277 0
M  V30 36403 O 135.729 -3.58302 5.08433 0
M  V30 36404 C 134.539 -5.17448 6.36119 0
M  V30 36405 O 134.149 -4.45271 7.53232 0
M  V30 36406 C 133.659 -4.74639 5.19936 0
M  V30 36407 C 134.369 -3.49432 4.70418 0
M  V30 36408 N 134.319 -3.31776 3.22945 0
M  V30 36409 C 134.399 -4.27147 2.23315 0
M  V30 36410 N 134.319 -3.78447 1.02186 0
M  V30 36411 C 134.179 -2.41001 1.21732 0
M  V30 36412 C 134.049 -1.36111 0.27694 0
M  V30 36413 N 133.929 -0.113683 0.912949 0
M  V30 36414 C 133.929 0.0846396 2.27943 0
M  V30 36415 N 133.799 1.34737 2.6916 0
M  V30 36416 N 134.059 -0.902521 3.16379 0
M  V30 36417 C 134.179 -2.11937 2.56849 0
M  V30 36418 H 137.158 -6.54213 5.71376 0
M  V30 36419 H 137.43 -5.30492 4.44033 0
M  V30 36420 H 136.562 -4.55889 6.76652 0
M  V30 36421 P 132.599 -4.23843 7.83734 0
M  V30 36422 O 132.379 -4.19407 9.29784 0
M  V30 36423 O 131.809 -5.24426 7.09156 0
M  V30 36424 O 132.349 -2.7935 7.20758 0
M  V30 36425 C 133.289 -1.7299 7.50419 0
M  V30 36426 C 132.559 -0.406376 7.57911 0
M  V30 36427 O 132.349 0.0897726 6.21935 0
M  V30 36428 C 131.159 -0.447224 8.1878 0
M  V30 36429 O 130.769 0.825065 8.71101 0
M  V30 36430 C 130.279 -0.783801 6.99623 0
M  V30 36431 C 130.989 -0.0619192 5.85967 0
M  V30 36432 N 130.939 -0.7859 4.56281 0
M  V30 36433 H 133.778 -1.93423 8.4679 0
M  V30 36434 H 134.05 -1.68181 6.71046 0
M  V30 36435 H 133.182 0.289041 8.15388 0
M  V30 36436 P 129.219 1.17771 8.83182 0
M  V30 36437 O 128.999 2.07206 9.98732 0
M  V30 36438 O 128.429 -0.0743816 8.81969 0
M  V30 36439 O 128.969 1.97652 7.47304 0
M  V30 36440 C 129.909 3.01055 7.08599 0
M  V30 36441 C 129.179 4.12613 6.37049 0
M  V30 36442 O 128.969 3.72827 4.97879 0
M  V30 36443 C 127.779 4.45719 6.88164 0
M  V30 36444 O 127.389 5.7877 6.5624 0
M  V30 36445 C 126.899 3.47768 6.11991 0
M  V30 36446 C 127.609 3.39356 4.77615 0
M  V30 36447 N 127.559 2.04571 4.15244 0
M  V30 36448 C 127.409 1.98587 2.78314 0
M  V30 36449 O 127.319 2.98134 2.08835 0
M  V30 36450 N 127.369 0.714467 2.24925 0
M  V30 36451 C 127.459 -0.470001 2.94169 0
M  V30 36452 O 127.409 -1.55587 2.35195 0
M  V30 36453 C 127.609 -0.312541 4.36783 0
M  V30 36454 C 127.719 -1.57711 5.16352 0
M  V30 36455 C 127.659 0.914512 4.92583 0
M  V30 36456 H 130.4 3.41169 7.98575 0
M  V30 36457 H 130.669 2.58295 6.41556 0
M  V30 36458 H 129.802 5.02657 6.42673 0
M  V30 36459 H 127.147 4.11637 4.08885 0
M  V30 36460 H 126.868 2.49626 6.61679 0
M  V30 36461 H 125.876 3.86566 6.00778 0
M  V30 36462 H 127.71 4.29943 7.96918 0
M  V30 36463 H 127.781 1.00937 6.00374 0
M  V30 36464 H 126.751 -1.80153 5.63503 0
M  V30 36465 H 128.488 -1.4566 5.94104 0
M  V30 36466 H 128 -2.40664 4.49645 0
M  V30 36467 H 127.264 0.647622 1.25697 0
M  V30 36468 P 125.839 6.144 6.45285 0
M  V30 36469 O 125.619 7.54673 6.86199 0
M  V30 36470 O 125.049 5.12391 7.179 0
M  V30 36471 O 125.589 5.99236 4.88467 0
M  V30 36472 C 126.529 6.60234 3.96415 0
M  V30 36473 C 125.799 7.08079 2.736 0
M  V30 36474 O 125.589 5.94365 1.8368 0
M  V30 36475 C 124.399 7.64886 2.9555 0
M  V30 36476 O 124.009 8.5406 1.90739 0
M  V30 36477 C 123.519 6.4116 2.90739 0
M  V30 36478 C 124.229 5.55375 1.86963 0
M  V30 36479 N 124.179 4.09664 2.15742 0
M  V30 36480 C 124.029 3.22231 1.08477 0
M  V30 36481 O 123.939 3.68951 -0.0600489 0
M  V30 36482 N 123.979 1.76692 1.48799 0
M  V30 36483 C 124.079 1.41695 2.57602 0
M  V30 36484 N 124.029 0.107296 2.75791 0
M  V30 36485 C 124.229 2.29178 3.69733 0
M  V30 36486 C 124.279 3.62753 3.42653 0
M  V30 36487 H 127.019 7.45488 4.45578 0
M  V30 36488 H 127.289 5.86232 3.67314 0
M  V30 36489 H 126.422 7.84508 2.24507 0
M  V30 36490 H 123.767 5.73556 0.888715 0
M  V30 36491 H 123.487 5.9096 3.88638 0
M  V30 36492 H 122.496 6.66053 2.58894 0
M  V30 36493 H 124.33 8.16339 3.92049 0
M  V30 36494 H 124.402 4.33052 4.24913 0
M  V30 36495 H 124.3 1.9103 4.71577 0
M  V30 36496 H 123.912 -0.521221 1.95056 0
M  V30 36497 H 124.108 -0.286429 3.70695 0
M  V30 36498 P 122.459 8.7635 1.60911 0
M  V30 36499 O 122.239 10.1388 1.11561 0
M  V30 36500 O 121.669 8.36503 2.79617 0
M  V30 36501 O 122.209 7.71806 0.42951 0
M  V30 36502 C 123.149 7.67148 -0.673689 0
M  V30 36503 C 122.419 7.33374 -1.95559 0
M  V30 36504 O 122.209 5.88721 -2.00726 0
M  V30 36505 C 121.019 7.92526 -2.10483 0
M  V30 36506 O 120.629 8.02971 -3.47653 0
M  V30 36507 C 120.139 6.89602 -1.41652 0
M  V30 36508 C 120.849 5.59201 -1.75185 0
M  V30 36509 N 120.799 4.58301 -0.657969 0
M  V30 36510 C 120.879 4.79019 0.692603 0
M  V30 36511 N 120.809 3.69736 1.38998 0
M  V30 36512 C 120.659 2.70474 0.438135 0
M  V30 36513 C 120.529 1.30327 0.538142 0
M  V30 36514 N 120.519 0.64304 1.69192 0
M  V30 36515 N 120.409 0.611027 -0.605183 0
M  V30 36516 C 120.419 1.27002 -1.75953 0
M  V30 36517 N 120.539 2.56038 -1.98546 0
M  V30 36518 C 120.659 3.22681 -0.822541 0
M  V30 36519 H 123.638 8.65116 -0.777161 0
M  V30 36520 H 123.91 6.9022 -0.46725 0
M  V30 36521 H 123.042 7.66548 -2.79458 0
M  V30 36522 H 120.387 5.16165 -2.65183 0
M  V30 36523 H 120.107 7.06433 -0.329384 0
M  V30 36524 H 119.116 6.90926 -1.82021 0
M  V30 36525 H 120.95 8.90873 -1.62657 0
M  V30 36526 H 120.991 5.77785 1.13874 0
M  V30 36527 H 120.61 1.15585 2.57991 0
M  V30 36528 H 120.421 -0.382989 1.69835 0
M  V30 36529 H 120.313 0.653331 -2.64449 0
M  V30 36530 P 119.079 8.03563 -3.84925 0
M  V30 36531 O 118.859 8.85821 -5.0569 0
M  V30 36532 O 118.289 8.41101 -2.65469 0
M  V30 36533 O 118.829 6.4965 -4.18908 0
M  V30 36534 C 119.769 5.81037 -5.05421 0
M  V30 36535 C 119.039 4.78366 -5.89277 0
M  V30 36536 O 118.829 3.58302 -5.08433 0
M  V30 36537 C 117.639 5.17448 -6.36119 0
M  V30 36538 O 117.249 4.45271 -7.53232 0
M  V30 36539 C 116.759 4.74639 -5.19936 0
M  V30 36540 C 117.469 3.49432 -4.70418 0
M  V30 36541 N 117.419 3.31776 -3.22945 0
M  V30 36542 H 120.258 6.54213 -5.71376 0
M  V30 36543 H 120.53 5.30492 -4.44033 0
M  V30 36544 H 119.662 4.55889 -6.76652 0
M  V30 36545 P 115.699 4.23843 -7.83734 0
M  V30 36546 O 115.479 4.19407 -9.29784 0
M  V30 36547 O 114.909 5.24426 -7.09156 0
M  V30 36548 O 115.449 2.7935 -7.20758 0
M  V30 36549 C 116.389 1.7299 -7.50419 0
M  V30 36550 C 115.659 0.406376 -7.57911 0
M  V30 36551 O 115.449 -0.0897726 -6.21935 0
M  V30 36552 C 114.259 0.447224 -8.1878 0
M  V30 36553 O 113.869 -0.825065 -8.71101 0
M  V30 36554 C 113.379 0.783801 -6.99623 0
M  V30 36555 C 114.089 0.0619192 -5.85967 0
M  V30 36556 N 114.039 0.7859 -4.56281 0
M  V30 36557 H 116.878 1.93423 -8.4679 0
M  V30 36558 H 117.15 1.68181 -6.71046 0
M  V30 36559 H 116.282 -0.289041 -8.15388 0
M  V30 36560 P 112.319 -1.17771 -8.83182 0
M  V30 36561 O 112.099 -2.07206 -9.98732 0
M  V30 36562 O 111.529 0.0743816 -8.81969 0
M  V30 36563 O 112.069 -1.97678 -7.474 0
M  V30 36564 C 113.009 -3.01133 -7.08783 0
M  V30 36565 C 112.279 -4.1203 -6.37546 0
M  V30 36566 O 112.069 -3.72887 -4.9796 0
M  V30 36567 C 110.879 -4.45085 -6.88694 0
M  V30 36568 O 110.489 -5.78836 -6.56315 0
M  V30 36569 C 109.999 -3.47817 -6.12078 0
M  V30 36570 C 110.709 -3.39414 -4.77697 0
M  V30 36571 N 110.659 -2.04615 -4.15333 0
M  V30 36572 C 110.509 -1.96929 -2.77162 0
M  V30 36573 O 110.419 -3.02017 -2.12006 0
M  V30 36574 N 110.459 -0.55485 -2.24237 0
M  V30 36575 C 110.559 0.367808 -2.9169 0
M  V30 36576 N 110.509 1.53426 -2.29427 0
M  V30 36577 C 110.709 0.319148 -4.33828 0
M  V30 36578 C 110.759 -0.920672 -4.90433 0
M  V30 36579 H 113.499 -3.41209 -7.98667 0
M  V30 36580 H 113.769 -2.5837 -6.41742 0
M  V30 36581 H 112.902 -5.02718 -6.42752 0
M  V30 36582 H 110.247 -4.11779 -4.09026 0
M  V30 36583 H 109.967 -2.49661 -6.61772 0
M  V30 36584 H 108.976 -3.86674 -6.00946 0
M  V30 36585 H 110.81 -4.29991 -7.97006 0
M  V30 36586 H 110.882 -1.00589 -5.98303 0
M  V30 36587 H 110.78 1.22639 -4.93799 0
M  V30 36588 H 110.392 1.56819 -1.27167 0
M  V30 36589 H 110.588 2.41062 -2.83063 0
M  V30 36590 P 108.939 -6.144 -6.45285 0
M  V30 36591 O 108.719 -7.54673 -6.86199 0
M  V30 36592 O 108.149 -5.12391 -7.179 0
M  V30 36593 O 108.689 -5.99158 -4.88404 0
M  V30 36594 C 109.629 -6.60062 -3.96313 0
M  V30 36595 C 108.899 -7.08259 -2.72856 0
M  V30 36596 O 108.689 -5.9427 -1.83651 0
M  V30 36597 C 107.499 -7.65087 -2.94749 0
M  V30 36598 O 107.109 -8.53963 -1.90717 0
M  V30 36599 C 106.619 -6.41069 -2.90698 0
M  V30 36600 C 107.329 -5.5528 -1.86931 0
M  V30 36601 N 107.279 -4.09575 -2.15696 0
M  V30 36602 C 107.129 -3.24249 -1.08435 0
M  V30 36603 O 107.039 -3.63946 0.0628747 0
M  V30 36604 N 107.089 -1.90009 -1.39973 0
M  V30 36605 C 107.179 -1.34884 -2.65614 0
M  V30 36606 O 107.129 -0.123716 -2.81728 0
M  V30 36607 C 107.329 -2.3145 -3.71736 0
M  V30 36608 C 107.439 -1.75913 -5.10438 0
M  V30 36609 C 107.379 -3.63518 -3.44754 0
M  V30 36610 H 110.12 -7.45402 -4.45526 0
M  V30 36611 H 110.389 -5.86062 -3.67208 0
M  V30 36612 H 109.522 -7.84412 -2.24479 0
M  V30 36613 H 106.867 -5.73358 -0.888409 0
M  V30 36614 H 106.588 -5.90877 -3.88583 0
M  V30 36615 H 105.596 -6.65867 -2.58821 0
M  V30 36616 H 107.43 -8.16248 -3.92006 0
M  V30 36617 H 107.501 -4.34551 -4.26383 0
M  V30 36618 H 106.471 -1.85471 -5.61775 0
M  V30 36619 H 108.208 -2.31364 -5.66257 0
M  V30 36620 H 107.72 -0.695936 -5.05229 0
M  V30 36621 H 106.984 -1.26277 -0.63625 0
M  V30 36622 P 105.559 -8.7635 -1.60911 0
M  V30 36623 O 105.339 -10.1388 -1.11561 0
M  V30 36624 O 104.769 -8.36503 -2.79617 0
M  V30 36625 O 105.309 -7.71806 -0.42951 0
M  V30 36626 C 106.249 -7.67148 0.673689 0
M  V30 36627 C 105.519 -7.33374 1.95559 0
M  V30 36628 O 105.309 -5.88721 2.00726 0
M  V30 36629 C 104.119 -7.92526 2.10483 0
M  V30 36630 O 103.729 -8.02971 3.47653 0
M  V30 36631 C 103.239 -6.89602 1.41652 0
M  V30 36632 C 103.949 -5.59201 1.75185 0
M  V30 36633 N 103.899 -4.58301 0.657969 0
M  V30 36634 H 106.738 -8.65116 0.777161 0
M  V30 36635 H 107.01 -6.9022 0.46725 0
M  V30 36636 H 106.142 -7.66548 2.79458 0
M  V30 36637 H 103.487 -5.16165 2.65183 0
M  V30 36638 H 103.207 -7.06433 0.329384 0
M  V30 36639 H 102.216 -6.90926 1.82021 0
M  V30 36640 H 104.05 -8.90873 1.62657 0
M  V30 36641 P 102.179 -8.03563 3.84925 0
M  V30 36642 O 101.959 -8.85821 5.0569 0
M  V30 36643 O 101.389 -8.41101 2.65469 0
M  V30 36644 O 101.929 -6.4965 4.18908 0
M  V30 36645 C 102.869 -5.81037 5.05421 0
M  V30 36646 C 102.139 -4.78366 5.89277 0
M  V30 36647 O 101.929 -3.58302 5.08433 0
M  V30 36648 C 100.739 -5.17448 6.36119 0
M  V30 36649 O 100.349 -4.45271 7.53232 0
M  V30 36650 C 99.8594 -4.74639 5.19936 0
M  V30 36651 C 100.569 -3.49432 4.70418 0
M  V30 36652 N 100.519 -3.31776 3.22945 0
M  V30 36653 H 103.358 -6.54213 5.71376 0
M  V30 36654 H 103.63 -5.30492 4.44033 0
M  V30 36655 H 102.762 -4.55889 6.76652 0
M  V30 36656 P 98.7994 -4.23843 7.83734 0
M  V30 36657 O 98.5794 -4.19407 9.29784 0
M  V30 36658 O 98.0094 -5.24426 7.09156 0
M  V30 36659 O 98.5494 -2.7935 7.20758 0
M  V30 36660 C 99.4894 -1.7299 7.50419 0
M  V30 36661 C 98.7594 -0.406376 7.57911 0
M  V30 36662 O 98.5494 0.0897726 6.21935 0
M  V30 36663 C 97.3594 -0.447224 8.1878 0
M  V30 36664 O 96.9694 0.825065 8.71101 0
M  V30 36665 C 96.4794 -0.783801 6.99623 0
M  V30 36666 C 97.1894 -0.0619192 5.85967 0
M  V30 36667 N 97.1394 -0.790462 4.56202 0
M  V30 36668 C 97.2194 -2.13895 4.34171 0
M  V30 36669 N 97.1494 -2.46449 3.08687 0
M  V30 36670 C 96.9994 -1.2525 2.43697 0
M  V30 36671 C 96.8694 -0.914535 1.07318 0
M  V30 36672 N 96.8594 -1.80782 0.0887348 0
M  V30 36673 N 96.7494 0.386745 0.768133 0
M  V30 36674 C 96.7594 1.28096 1.75159 0
M  V30 36675 N 96.8794 1.09708 3.04861 0
M  V30 36676 C 96.9994 -0.214857 3.32306 0
M  V30 36677 H 99.9784 -1.93423 8.4679 0
M  V30 36678 H 100.25 -1.68852 6.70877 0
M  V30 36679 H 99.3824 0.289041 8.15388 0
M  V30 36680 H 96.7274 0.927006 5.72848 0
M  V30 36681 H 96.4474 -1.86973 6.82036 0
M  V30 36682 H 95.4564 -0.403953 7.13357 0
M  V30 36683 H 97.2904 -1.20599 8.97534 0
M  V30 36684 H 97.3314 -2.86846 5.14318 0
M  V30 36685 H 96.9504 -2.81082 0.302037 0
M  V30 36686 H 96.7614 -1.49688 -0.889064 0
M  V30 36687 H 96.6534 2.31317 1.43855 0
M  V30 36688 P 95.4195 1.17771 8.83182 0
M  V30 36689 O 95.1995 2.07206 9.98732 0
M  V30 36690 O 94.6295 -0.0743816 8.81969 0
M  V30 36691 O 95.1695 1.97652 7.47304 0
M  V30 36692 C 96.1095 3.01133 7.08783 0
M  V30 36693 C 95.3795 4.12613 6.37049 0
M  V30 36694 O 95.1695 3.72827 4.97879 0
M  V30 36695 C 93.9795 4.45085 6.88694 0
M  V30 36696 O 93.5895 5.7877 6.5624 0
M  V30 36697 C 93.0995 3.47817 6.12078 0
M  V30 36698 C 93.8095 3.39414 4.77697 0
M  V30 36699 N 93.7595 2.04615 4.15333 0
M  V30 36700 H 96.5985 3.41248 7.98759 0
M  V30 36701 H 96.8705 2.5837 6.41742 0
M  V30 36702 H 96.0025 5.02657 6.42673 0
M  V30 36703 P 92.0395 6.144 6.45285 0
M  V30 36704 O 91.8195 7.54673 6.86199 0
M  V30 36705 O 91.2495 5.12391 7.179 0
M  V30 36706 O 91.7895 5.99158 4.88404 0
M  V30 36707 C 92.7295 6.60234 3.96415 0
M  V30 36708 C 91.9995 7.08259 2.72856 0
M  V30 36709 O 91.7895 5.9427 1.83651 0
M  V30 36710 C 90.5995 7.64886 2.9555 0
M  V30 36711 O 90.2095 8.53963 1.90717 0
M  V30 36712 C 89.7195 6.4116 2.90739 0
M  V30 36713 C 90.4295 5.55375 1.86963 0
M  V30 36714 N 90.3795 4.09664 2.15742 0
M  V30 36715 H 93.2185 7.45574 4.45629 0
M  V30 36716 H 93.4905 5.86232 3.67314 0
M  V30 36717 H 92.6225 7.84412 2.24479 0
M  V30 36718 P 88.6595 8.7635 1.60911 0
M  V30 36719 O 88.4395 10.1388 1.11561 0
M  V30 36720 O 87.8695 8.36503 2.79617 0
M  V30 36721 O 88.4095 7.71806 0.42951 0
M  V30 36722 C 89.3495 7.67148 -0.673689 0
M  V30 36723 C 88.6195 7.33374 -1.95559 0
M  V30 36724 O 88.4095 5.88721 -2.00726 0
M  V30 36725 C 87.2195 7.92526 -2.10483 0
M  V30 36726 O 86.8295 8.02971 -3.47653 0
M  V30 36727 C 86.3395 6.89602 -1.41652 0
M  V30 36728 C 87.0495 5.59201 -1.75185 0
M  V30 36729 N 86.9995 4.58235 -0.662552 0
M  V30 36730 H 89.8385 8.65116 -0.777161 0
M  V30 36731 H 90.1105 6.90173 -0.474152 0
M  V30 36732 H 89.2425 7.66548 -2.79458 0
M  V30 36733 P 85.2795 8.03563 -3.84925 0
M  V30 36734 O 85.0595 8.85821 -5.0569 0
M  V30 36735 O 84.4895 8.41101 -2.65469 0
M  V30 36736 O 85.0295 6.4965 -4.18908 0
M  V30 36737 C 85.9695 5.81037 -5.05421 0
M  V30 36738 C 85.2395 4.78366 -5.89277 0
M  V30 36739 O 85.0295 3.58302 -5.08433 0
M  V30 36740 C 83.8395 5.17448 -6.36119 0
M  V30 36741 O 83.4495 4.45271 -7.53232 0
M  V30 36742 C 82.9595 4.74639 -5.19936 0
M  V30 36743 C 83.6695 3.49432 -4.70418 0
M  V30 36744 N 83.6195 3.31776 -3.22945 0
M  V30 36745 H 86.4585 6.54213 -5.71376 0
M  V30 36746 H 86.7305 5.30492 -4.44033 0
M  V30 36747 H 85.8625 4.55889 -6.76652 0
M  V30 36748 P 81.8995 4.23843 -7.83734 0
M  V30 36749 O 81.6795 4.19407 -9.29784 0
M  V30 36750 O 81.1095 5.24426 -7.09156 0
M  V30 36751 O 81.6495 2.7935 -7.20758 0
M  V30 36752 C 82.5895 1.72945 -7.50224 0
M  V30 36753 C 81.8595 0.406376 -7.57911 0
M  V30 36754 O 81.6495 -0.0897726 -6.21935 0
M  V30 36755 C 80.4595 0.438983 -8.18724 0
M  V30 36756 O 80.0695 -0.825065 -8.71101 0
M  V30 36757 C 79.5795 0.783689 -6.99524 0
M  V30 36758 C 80.2895 0.0619086 -5.85867 0
M  V30 36759 N 80.2395 0.78573 -4.56183 0
M  V30 36760 C 80.0895 0.0292889 -3.41887 0
M  V30 36761 O 79.9995 -1.18445 -3.4419 0
M  V30 36762 N 80.0495 0.744061 -2.23964 0
M  V30 36763 C 80.1395 2.10932 -2.10362 0
M  V30 36764 O 80.0895 2.64117 -0.98825 0
M  V30 36765 C 80.2895 2.8202 -3.34994 0
M  V30 36766 C 80.3995 4.31095 -3.25037 0
M  V30 36767 C 80.3395 2.15547 -4.52261 0
M  V30 36768 H 83.0805 1.93379 -8.46595 0
M  V30 36769 H 83.3495 1.68132 -6.70852 0
M  V30 36770 H 82.4825 -0.289041 -8.15388 0
M  V30 36771 H 79.8275 -0.926847 -5.72749 0
M  V30 36772 H 79.5485 1.86973 -6.82036 0
M  V30 36773 H 78.5565 0.403896 -7.13257 0
M  V30 36774 H 80.3905 1.20585 -8.97435 0
M  V30 36775 H 80.4615 2.71231 -5.45042 0
M  V30 36776 H 79.4315 4.76966 -3.49992 0
M  V30 36777 H 81.1685 4.67047 -3.95024 0
M  V30 36778 H 80.6805 4.58996 -2.22312 0
M  V30 36779 H 79.9445 0.214893 -1.39758 0
M  V30 36780 P 78.5196 -1.17771 -8.83182 0
M  V30 36781 O 78.2996 -2.07206 -9.98732 0
M  V30 36782 O 77.7296 0.0743816 -8.81969 0
M  V30 36783 O 78.2696 -1.97652 -7.47304 0
M  V30 36784 C 79.2096 -3.01133 -7.08783 0
M  V30 36785 C 78.4796 -4.12613 -6.37049 0
M  V30 36786 O 78.2696 -3.72827 -4.97879 0
M  V30 36787 C 77.0796 -4.45085 -6.88694 0
M  V30 36788 O 76.6896 -5.7877 -6.5624 0
M  V30 36789 C 76.1996 -3.47817 -6.12078 0
M  V30 36790 C 76.9096 -3.39414 -4.77697 0
M  V30 36791 N 76.8596 -2.04615 -4.15333 0
M  V30 36792 H 79.6986 -3.41248 -7.98759 0
M  V30 36793 H 79.9706 -2.5837 -6.41742 0
M  V30 36794 H 79.1026 -5.02657 -6.42673 0
M  V30 36795 P 75.1396 -6.144 -6.45285 0
M  V30 36796 O 74.9196 -7.54673 -6.86199 0
M  V30 36797 O 74.3496 -5.12391 -7.179 0
M  V30 36798 O 74.8896 -5.99158 -4.88404 0
M  V30 36799 C 75.8296 -6.60234 -3.96415 0
M  V30 36800 C 75.0996 -7.08259 -2.72856 0
M  V30 36801 O 74.8896 -5.9427 -1.83651 0
M  V30 36802 C 73.6996 -7.64886 -2.9555 0
M  V30 36803 O 73.3096 -8.53963 -1.90717 0
M  V30 36804 C 72.8196 -6.4116 -2.90739 0
M  V30 36805 C 73.5296 -5.55375 -1.86963 0
M  V30 36806 N 73.4796 -4.09664 -2.15742 0
M  V30 36807 C 73.5596 -3.44381 -3.37233 0
M  V30 36808 N 73.4796 -2.14131 -3.28347 0
M  V30 36809 C 73.3396 -1.90247 -1.91588 0
M  V30 36810 C 73.2096 -0.683992 -1.20892 0
M  V30 36811 N 73.0896 -0.903396 0.173998 0
M  V30 36812 C 73.0896 -2.14171 0.784879 0
M  V30 36813 N 72.9596 -2.1435 2.11317 0
M  V30 36814 N 73.2196 -3.28784 0.119316 0
M  V30 36815 C 73.3396 -3.0977 -1.22194 0
M  V30 36816 H 76.3186 -7.45574 -4.45629 0
M  V30 36817 H 76.5906 -5.86232 -3.67314 0
M  V30 36818 H 75.7226 -7.84412 -2.24479 0
M  V30 36819 P 71.7596 -8.7635 -1.60911 0
M  V30 36820 O 71.5396 -10.1388 -1.11561 0
M  V30 36821 O 70.9696 -8.36503 -2.79617 0
M  V30 36822 O 71.5096 -7.71806 -0.42951 0
M  V30 36823 C 72.4496 -7.66948 0.673514 0
M  V30 36824 C 71.7196 -7.33374 1.95559 0
M  V30 36825 O 71.5096 -5.88721 2.00726 0
M  V30 36826 C 70.3196 -7.92218 2.1125 0
M  V30 36827 O 69.9296 -8.02971 3.47653 0
M  V30 36828 C 69.4396 -6.89504 1.41631 0
M  V30 36829 C 70.1496 -5.59106 1.75155 0
M  V30 36830 N 70.0996 -4.58136 0.662409 0
M  V30 36831 C 69.9496 -3.26059 1.02863 0
M  V30 36832 O 69.8596 -2.90743 2.19009 0
M  V30 36833 N 69.9096 -2.35995 -0.0155585 0
M  V30 36834 C 69.9996 -2.65248 -1.35603 0
M  V30 36835 O 69.9496 -1.75605 -2.20651 0
M  V30 36836 C 70.1496 -4.05747 -1.64698 0
M  V30 36837 C 70.2596 -4.42345 -3.09553 0
M  V30 36838 C 70.1996 -4.96734 -0.652411 0
M  V30 36839 H 72.9406 -8.64917 0.776982 0
M  V30 36840 H 73.2096 -6.89974 0.474015 0
M  V30 36841 H 72.3426 -7.66548 2.79458 0
M  V30 36842 H 69.6876 -5.16076 2.65138 0
M  V30 36843 H 69.4086 -7.06433 0.329384 0
M  V30 36844 H 68.4166 -6.90829 1.81996 0
M  V30 36845 H 70.2506 -8.90774 1.62639 0
M  V30 36846 H 70.3216 -6.02181 -0.895285 0
M  V30 36847 H 69.2916 -4.80252 -3.45468 0
M  V30 36848 H 71.0286 -5.20015 -3.22119 0
M  V30 36849 H 70.5406 -3.53269 -3.67833 0
M  V30 36850 H 69.8046 -1.39558 0.227499 0
M  V30 36851 P 68.3796 -8.03563 3.84925 0
M  V30 36852 O 68.1596 -8.85821 5.0569 0
M  V30 36853 O 67.5896 -8.41101 2.65469 0
M  V30 36854 O 68.1296 -6.4965 4.18908 0
M  V30 36855 C 69.0696 -5.80886 5.05289 0
M  V30 36856 C 68.3396 -4.78366 5.89277 0
M  V30 36857 O 68.1296 -3.58302 5.08433 0
M  V30 36858 C 66.9396 -5.16748 6.36559 0
M  V30 36859 O 66.5496 -4.45271 7.53232 0
M  V30 36860 C 66.0596 -4.74572 5.19863 0
M  V30 36861 C 66.7696 -3.49373 4.70338 0
M  V30 36862 N 66.7196 -3.31704 3.22876 0
M  V30 36863 C 66.5696 -2.03326 2.74871 0
M  V30 36864 O 66.4796 -1.06486 3.48076 0
M  V30 36865 N 66.5296 -1.91838 1.37456 0
M  V30 36866 C 66.6196 -2.94295 0.462035 0
M  V30 36867 C 66.7696 -4.25064 1.05249 0
M  V30 36868 C 66.8196 -4.40214 2.39192 0
M  V30 36869 H 69.5606 -6.54063 5.71245 0
M  V30 36870 H 69.8296 -5.30339 4.43905 0
M  V30 36871 H 68.9626 -4.55889 6.76652 0
M  V30 36872 H 66.3076 -2.6167 5.17842 0
M  V30 36873 H 66.0286 -5.52155 4.41878 0
M  V30 36874 H 65.0366 -4.51918 5.53297 0
M  V30 36875 H 66.8706 -6.25055 6.55162 0
M  V30 36876 H 66.9416 -5.39798 2.81523 0
M  V30 36877 P 64.9996 -4.23843 7.83734 0
M  V30 36878 O 64.7796 -4.19407 9.29784 0
M  V30 36879 O 64.2096 -5.24426 7.09156 0
M  V30 36880 O 64.7496 -2.7935 7.20758 0
M  V30 36881 C 65.6896 -1.7299 7.50419 0
M  V30 36882 C 64.9596 -0.406376 7.57911 0
M  V30 36883 O 64.7496 0.0897726 6.21935 0
M  V30 36884 C 63.5596 -0.447224 8.1878 0
M  V30 36885 O 63.1696 0.825065 8.71101 0
M  V30 36886 C 62.6796 -0.783801 6.99623 0
M  V30 36887 C 63.3896 -0.0619192 5.85967 0
M  V30 36888 N 63.3396 -0.7859 4.56281 0
M  V30 36889 C 63.4196 -2.14308 4.31736 0
M  V30 36890 N 63.3396 -2.46106 3.05116 0
M  V30 36891 C 63.1996 -1.23422 2.4014 0
M  V30 36892 C 63.0696 -0.938381 1.02409 0
M  V30 36893 N 62.9496 0.444647 0.805413 0
M  V30 36894 C 62.9496 1.40829 1.79435 0
M  V30 36895 N 62.8196 2.67213 1.38558 0
M  V30 36896 N 63.0796 1.12947 3.09005 0
M  V30 36897 C 63.1996 -0.204887 3.32369 0
M  V30 36898 H 66.1786 -1.93423 8.4679 0
M  V30 36899 H 66.4506 -1.68181 6.71046 0
M  V30 36900 H 65.5826 0.289041 8.15388 0
M  V30 36901 P 61.6197 1.17771 8.83182 0
M  V30 36902 O 61.3997 2.07206 9.98732 0
M  V30 36903 O 60.8297 -0.0743816 8.81969 0
M  V30 36904 O 61.3697 1.97652 7.47304 0
M  V30 36905 C 62.3097 3.01133 7.08783 0
M  V30 36906 C 61.5797 4.12613 6.37049 0
M  V30 36907 O 61.3697 3.72827 4.97879 0
M  V30 36908 C 60.1797 4.45085 6.88694 0
M  V30 36909 O 59.7897 5.7877 6.5624 0
M  V30 36910 C 59.2997 3.47817 6.12078 0
M  V30 36911 C 60.0097 3.39414 4.77697 0
M  V30 36912 N 59.9597 2.04615 4.15333 0
M  V30 36913 H 62.7987 3.41248 7.98759 0
M  V30 36914 H 63.0707 2.5837 6.41742 0
M  V30 36915 H 62.2027 5.02657 6.42673 0
M  V30 36916 P 58.2397 6.144 6.45285 0
M  V30 36917 O 58.0197 7.54673 6.86199 0
M  V30 36918 O 57.4497 5.12391 7.179 0
M  V30 36919 O 57.9897 5.99158 4.88404 0
M  V30 36920 C 58.9297 6.60234 3.96415 0
M  V30 36921 C 58.1997 7.08259 2.72856 0
M  V30 36922 O 57.9897 5.9427 1.83651 0
M  V30 36923 C 56.7997 7.64886 2.9555 0
M  V30 36924 O 56.4097 8.53963 1.90717 0
M  V30 36925 C 55.9197 6.4116 2.90739 0
M  V30 36926 C 56.6297 5.55375 1.86963 0
M  V30 36927 N 56.5797 4.09664 2.15742 0
M  V30 36928 C 56.6597 3.44381 3.37233 0
M  V30 36929 N 56.5797 2.14131 3.28347 0
M  V30 36930 C 56.4397 1.90247 1.91588 0
M  V30 36931 C 56.3097 0.683992 1.20892 0
M  V30 36932 N 56.1897 0.903396 -0.173998 0
M  V30 36933 C 56.1897 2.14171 -0.784879 0
M  V30 36934 N 56.0597 2.1435 -2.11317 0
M  V30 36935 N 56.3197 3.28784 -0.119316 0
M  V30 36936 C 56.4397 3.0977 1.22194 0
M  V30 36937 H 59.4187 7.45574 4.45629 0
M  V30 36938 H 59.6907 5.86232 3.67314 0
M  V30 36939 H 58.8227 7.84412 2.24479 0
M  V30 36940 P 54.8597 8.7635 1.60911 0
M  V30 36941 O 54.6397 10.1388 1.11561 0
M  V30 36942 O 54.0697 8.36503 2.79617 0
M  V30 36943 O 54.6097 7.71806 0.42951 0
M  V30 36944 C 55.5497 7.67148 -0.673689 0
M  V30 36945 C 54.8197 7.33374 -1.95559 0
M  V30 36946 O 54.6097 5.88721 -2.00726 0
M  V30 36947 C 53.4197 7.92526 -2.10483 0
M  V30 36948 O 53.0297 8.02971 -3.47653 0
M  V30 36949 C 52.5397 6.89602 -1.41652 0
M  V30 36950 C 53.2497 5.59201 -1.75185 0
M  V30 36951 N 53.1997 4.58301 -0.657969 0
M  V30 36952 H 56.0387 8.65116 -0.777161 0
M  V30 36953 H 56.3107 6.9022 -0.46725 0
M  V30 36954 H 55.4427 7.66548 -2.79458 0
M  V30 36955 H 52.7877 5.16165 -2.65183 0
M  V30 36956 H 52.5077 7.06433 -0.329384 0
M  V30 36957 H 51.5167 6.90926 -1.82021 0
M  V30 36958 H 53.3507 8.90873 -1.62657 0
M  V30 36959 P 51.4797 8.03563 -3.84925 0
M  V30 36960 O 51.2597 8.85821 -5.0569 0
M  V30 36961 O 50.6897 8.41101 -2.65469 0
M  V30 36962 O 51.2297 6.4965 -4.18908 0
M  V30 36963 C 52.1697 5.81037 -5.05421 0
M  V30 36964 C 51.4397 4.78366 -5.89277 0
M  V30 36965 O 51.2297 3.58302 -5.08433 0
M  V30 36966 C 50.0397 5.17448 -6.36119 0
M  V30 36967 O 49.6497 4.45271 -7.53232 0
M  V30 36968 C 49.1597 4.74639 -5.19936 0
M  V30 36969 C 49.8697 3.49432 -4.70418 0
M  V30 36970 N 49.8197 3.32099 -3.22613 0
M  V30 36971 H 52.6587 6.54213 -5.71376 0
M  V30 36972 H 52.9307 5.30936 -4.43503 0
M  V30 36973 H 52.0627 4.55889 -6.76652 0
M  V30 36974 H 49.4077 2.61715 -5.17932 0
M  V30 36975 H 49.1277 5.52155 -4.41878 0
M  V30 36976 H 48.1367 4.51981 -5.53374 0
M  V30 36977 H 49.9707 6.25124 -6.55234 0
M  V30 36978 P 48.0997 4.23843 -7.83734 0
M  V30 36979 O 47.8797 4.19407 -9.29784 0
M  V30 36980 O 47.3097 5.24426 -7.09156 0
M  V30 36981 O 47.8497 2.79386 -7.20852 0
M  V30 36982 C 48.7897 1.7299 -7.50419 0
M  V30 36983 C 48.0597 0.41401 -7.5797 0
M  V30 36984 O 47.8497 -0.089787 -6.22035 0
M  V30 36985 C 46.6597 0.447224 -8.1878 0
M  V30 36986 O 46.2697 -0.825159 -8.71201 0
M  V30 36987 C 45.7797 0.783801 -6.99623 0
M  V30 36988 C 46.4897 0.0619192 -5.85967 0
M  V30 36989 N 46.4397 0.7859 -4.56281 0
M  V30 36990 C 46.2897 0.0359258 -3.39981 0
M  V30 36991 O 46.1997 -1.19723 -3.49038 0
M  V30 36992 N 46.2397 0.869151 -2.14025 0
M  V30 36993 C 46.3397 2.01207 -2.14363 0
M  V30 36994 N 46.2897 2.58978 -0.954287 0
M  V30 36995 C 46.4897 2.80817 -3.32215 0
M  V30 36996 C 46.5397 2.13785 -4.50884 0
M  V30 36997 H 49.2797 1.93401 -8.46693 0
M  V30 36998 H 49.5497 1.68181 -6.71046 0
M  V30 36999 H 48.6827 -0.289076 -8.15488 0
M  V30 37000 H 46.0277 -0.927166 -5.72947 0
M  V30 37001 H 45.7477 1.87 -6.82132 0
M  V30 37002 H 44.7567 0.404009 -7.13457 0
M  V30 37003 H 46.5907 1.20599 -8.97534 0
M  V30 37004 H 46.6627 2.70295 -5.43162 0
M  V30 37005 H 46.5607 3.89465 -3.27406 0
M  V30 37006 H 46.1727 2.01616 -0.107046 0
M  V30 37007 H 46.3687 3.61403 -0.873101 0
M  V30 37008 P 44.7198 -1.17771 -8.83182 0
M  V30 37009 O 44.4998 -2.07206 -9.98732 0
M  V30 37010 O 43.9298 0.0743816 -8.81969 0
M  V30 37011 O 44.4698 -1.97652 -7.47304 0
M  V30 37012 C 45.4098 -3.01133 -7.08783 0
M  V30 37013 C 44.6798 -4.12613 -6.37049 0
M  V30 37014 O 44.4698 -3.72827 -4.97879 0
M  V30 37015 C 43.2798 -4.45085 -6.88694 0
M  V30 37016 O 42.8898 -5.7877 -6.5624 0
M  V30 37017 C 42.3998 -3.47817 -6.12078 0
M  V30 37018 C 43.1098 -3.39414 -4.77697 0
M  V30 37019 N 43.0598 -2.04199 -4.15538 0
M  V30 37020 H 45.8988 -3.41248 -7.98759 0
M  V30 37021 H 46.1708 -2.57728 -6.42 0
M  V30 37022 H 45.3028 -5.02657 -6.42673 0
M  V30 37023 H 42.6478 -4.11708 -4.08956 0
M  V30 37024 H 42.3678 -2.49626 -6.61679 0
M  V30 37025 H 41.3768 -3.8662 -6.00862 0
M  V30 37026 H 43.2108 -4.29991 -7.97006 0
M  V30 37027 P 41.3398 -6.144 -6.45285 0
M  V30 37028 O 41.1198 -7.54673 -6.86199 0
M  V30 37029 O 40.5498 -5.12391 -7.179 0
M  V30 37030 O 41.0898 -5.99158 -4.88404 0
M  V30 37031 C 42.0298 -6.60234 -3.96415 0
M  V30 37032 C 41.2998 -7.08259 -2.72856 0
M  V30 37033 O 41.0898 -5.9427 -1.83651 0
M  V30 37034 C 39.8998 -7.64886 -2.9555 0
M  V30 37035 O 39.5098 -8.53963 -1.90717 0
M  V30 37036 C 39.0198 -6.4116 -2.90739 0
M  V30 37037 C 39.7298 -5.55375 -1.86963 0
M  V30 37038 N 39.6798 -4.09664 -2.15742 0
M  V30 37039 H 42.5188 -7.45574 -4.45629 0
M  V30 37040 H 42.7908 -5.86232 -3.67314 0
M  V30 37041 H 41.9228 -7.84412 -2.24479 0
M  V30 37042 P 37.9598 -8.7635 -1.60911 0
M  V30 37043 O 37.7398 -10.1388 -1.11561 0
M  V30 37044 O 37.1698 -8.36503 -2.79617 0
M  V30 37045 O 37.7098 -7.71806 -0.42951 0
M  V30 37046 C 38.6498 -7.67148 0.673689 0
M  V30 37047 C 37.9198 -7.33374 1.95559 0
M  V30 37048 O 37.7098 -5.88721 2.00726 0
M  V30 37049 C 36.5198 -7.92526 2.10483 0
M  V30 37050 O 36.1298 -8.02971 3.47653 0
M  V30 37051 C 35.6398 -6.89602 1.41652 0
M  V30 37052 C 36.3498 -5.59201 1.75185 0
M  V30 37053 N 36.2998 -4.58235 0.662552 0
M  V30 37054 H 39.1388 -8.65116 0.777161 0
M  V30 37055 H 39.4108 -6.90173 0.474152 0
M  V30 37056 H 38.5428 -7.66548 2.79458 0
M  V30 37057 P 34.5798 -8.03563 3.84925 0
M  V30 37058 O 34.3598 -8.85821 5.0569 0
M  V30 37059 O 33.7898 -8.41101 2.65469 0
M  V30 37060 O 34.3298 -6.4965 4.18908 0
M  V30 37061 C 35.2698 -5.81037 5.05421 0
M  V30 37062 C 34.5398 -4.78366 5.89277 0
M  V30 37063 O 34.3298 -3.58302 5.08433 0
M  V30 37064 C 33.1398 -5.17448 6.36119 0
M  V30 37065 O 32.7498 -4.45271 7.53232 0
M  V30 37066 C 32.2598 -4.74639 5.19936 0
M  V30 37067 C 32.9698 -3.49432 4.70418 0
M  V30 37068 N 32.9198 -3.31776 3.22945 0
M  V30 37069 H 35.7588 -6.54213 5.71376 0
M  V30 37070 H 36.0308 -5.30492 4.44033 0
M  V30 37071 H 35.1628 -4.55889 6.76652 0
M  V30 37072 P 31.1998 -4.23843 7.83734 0
M  V30 37073 O 30.9798 -4.19407 9.29784 0
M  V30 37074 O 30.4098 -5.24426 7.09156 0
M  V30 37075 O 30.9498 -2.7935 7.20758 0
M  V30 37076 C 31.8898 -1.7299 7.50419 0
M  V30 37077 C 31.1598 -0.406376 7.57911 0
M  V30 37078 O 30.9498 0.0897726 6.21935 0
M  V30 37079 C 29.7598 -0.447224 8.1878 0
M  V30 37080 O 29.3698 0.825065 8.71101 0
M  V30 37081 C 28.8798 -0.783801 6.99623 0
M  V30 37082 C 29.5898 -0.0619192 5.85967 0
M  V30 37083 N 29.5398 -0.7859 4.56281 0
M  V30 37084 H 32.3788 -1.93423 8.4679 0
M  V30 37085 H 32.6508 -1.68181 6.71046 0
M  V30 37086 H 31.7828 0.289041 8.15388 0
M  V30 37087 P 27.8199 1.17771 8.83182 0
M  V30 37088 O 27.5999 2.07206 9.98732 0
M  V30 37089 O 27.0299 -0.0743816 8.81969 0
M  V30 37090 O 27.5699 1.97652 7.47304 0
M  V30 37091 C 28.5099 3.01133 7.08783 0
M  V30 37092 C 27.7799 4.12613 6.37049 0
M  V30 37093 O 27.5699 3.72827 4.97879 0
M  V30 37094 C 26.3799 4.45085 6.88694 0
M  V30 37095 O 25.9899 5.7877 6.5624 0
M  V30 37096 C 25.4999 3.47817 6.12078 0
M  V30 37097 C 26.2099 3.39414 4.77697 0
M  V30 37098 N 26.1599 2.04615 4.15333 0
M  V30 37099 H 28.9989 3.41248 7.98759 0
M  V30 37100 H 29.2709 2.5837 6.41742 0
M  V30 37101 H 28.4029 5.02657 6.42673 0
M  V30 37102 P 24.4399 6.144 6.45285 0
M  V30 37103 O 24.2199 7.54673 6.86199 0
M  V30 37104 O 23.6499 5.12391 7.179 0
M  V30 37105 O 24.1899 5.99158 4.88404 0
M  V30 37106 C 25.1299 6.60234 3.96415 0
M  V30 37107 C 24.3999 7.08259 2.72856 0
M  V30 37108 O 24.1899 5.9427 1.83651 0
M  V30 37109 C 22.9999 7.64886 2.9555 0
M  V30 37110 O 22.6099 8.53963 1.90717 0
M  V30 37111 C 22.1199 6.4116 2.90739 0
M  V30 37112 C 22.8299 5.55375 1.86963 0
M  V30 37113 N 22.7799 4.09664 2.15742 0
M  V30 37114 H 25.6189 7.45574 4.45629 0
M  V30 37115 H 25.8909 5.86232 3.67314 0
M  V30 37116 H 25.0229 7.84412 2.24479 0
M  V30 37117 P 21.0599 8.7635 1.60911 0
M  V30 37118 O 20.8399 10.1388 1.11561 0
M  V30 37119 O 20.2699 8.36503 2.79617 0
M  V30 37120 O 20.8099 7.71806 0.42951 0
M  V30 37121 C 21.7499 7.67148 -0.673689 0
M  V30 37122 C 21.0199 7.33374 -1.95559 0
M  V30 37123 O 20.8099 5.88721 -2.00726 0
M  V30 37124 C 19.6199 7.92526 -2.10483 0
M  V30 37125 O 19.2299 8.02971 -3.47653 0
M  V30 37126 C 18.7399 6.89602 -1.41652 0
M  V30 37127 C 19.4499 5.59201 -1.75185 0
M  V30 37128 N 19.3999 4.58235 -0.662552 0
M  V30 37129 H 22.2389 8.65116 -0.777161 0
M  V30 37130 H 22.5109 6.90173 -0.474152 0
M  V30 37131 H 21.6429 7.66548 -2.79458 0
M  V30 37132 P 17.6799 8.03563 -3.84925 0
M  V30 37133 O 17.4599 8.85821 -5.0569 0
M  V30 37134 O 16.8899 8.41101 -2.65469 0
M  V30 37135 O 17.4299 6.4965 -4.18908 0
M  V30 37136 C 18.3699 5.81037 -5.05421 0
M  V30 37137 C 17.6399 4.78366 -5.89277 0
M  V30 37138 O 17.4299 3.58302 -5.08433 0
M  V30 37139 C 16.2399 5.17448 -6.36119 0
M  V30 37140 O 15.8499 4.45271 -7.53232 0
M  V30 37141 C 15.3599 4.74639 -5.19936 0
M  V30 37142 C 16.0699 3.49432 -4.70418 0
M  V30 37143 N 16.0199 3.31776 -3.22945 0
M  V30 37144 H 18.8589 6.54213 -5.71376 0
M  V30 37145 H 19.1309 5.30492 -4.44033 0
M  V30 37146 H 18.2629 4.55889 -6.76652 0
M  V30 37147 P 14.2999 4.23843 -7.83734 0
M  V30 37148 O 14.0799 4.19407 -9.29784 0
M  V30 37149 O 13.5099 5.24426 -7.09156 0
M  V30 37150 O 14.0499 2.7935 -7.20758 0
M  V30 37151 C 14.9899 1.7299 -7.50419 0
M  V30 37152 C 14.2599 0.406376 -7.57911 0
M  V30 37153 O 14.0499 -0.0897726 -6.21935 0
M  V30 37154 C 12.8599 0.447224 -8.1878 0
M  V30 37155 O 12.4699 -0.825065 -8.71101 0
M  V30 37156 C 11.9799 0.783801 -6.99623 0
M  V30 37157 C 12.6899 0.0619192 -5.85967 0
M  V30 37158 N 12.6399 0.7859 -4.56281 0
M  V30 37159 H 15.4789 1.93423 -8.4679 0
M  V30 37160 H 15.7509 1.68181 -6.71046 0
M  V30 37161 H 14.8829 -0.289041 -8.15388 0
M  V30 37162 P 10.92 -1.17771 -8.83182 0
M  V30 37163 O 10.7 -2.07206 -9.98732 0
M  V30 37164 O 10.13 0.0743816 -8.81969 0
M  V30 37165 O 10.67 -1.97652 -7.47304 0
M  V30 37166 C 11.61 -3.01133 -7.08783 0
M  V30 37167 C 10.88 -4.12613 -6.37049 0
M  V30 37168 O 10.67 -3.72827 -4.97879 0
M  V30 37169 C 9.47996 -4.45085 -6.88694 0
M  V30 37170 O 9.08996 -5.7877 -6.5624 0
M  V30 37171 C 8.59996 -3.47817 -6.12078 0
M  V30 37172 C 9.30996 -3.39414 -4.77697 0
M  V30 37173 N 9.25996 -2.04615 -4.15333 0
M  V30 37174 H 12.099 -3.41248 -7.98759 0
M  V30 37175 H 12.371 -2.5837 -6.41742 0
M  V30 37176 H 11.503 -5.02657 -6.42673 0
M  V30 37177 P 7.53998 -6.144 -6.45285 0
M  V30 37178 O 7.31998 -7.54673 -6.86199 0
M  V30 37179 O 6.74998 -5.12391 -7.179 0
M  V30 37180 O 7.28998 -5.99158 -4.88404 0
M  V30 37181 C 8.22998 -6.60234 -3.96415 0
M  V30 37182 C 7.49998 -7.08259 -2.72856 0
M  V30 37183 O 7.28998 -5.9427 -1.83651 0
M  V30 37184 C 6.09998 -7.64886 -2.9555 0
M  V30 37185 O 5.70998 -8.53963 -1.90717 0
M  V30 37186 C 5.21998 -6.4116 -2.90739 0
M  V30 37187 C 5.92998 -5.55375 -1.86963 0
M  V30 37188 N 5.87998 -4.09664 -2.15742 0
M  V30 37189 H 8.71898 -7.45574 -4.45629 0
M  V30 37190 H 8.99098 -5.86232 -3.67314 0
M  V30 37191 H 8.12298 -7.84412 -2.24479 0
M  V30 37192 P 4.16 -8.7635 -1.60911 0
M  V30 37193 O 3.94 -10.1388 -1.11561 0
M  V30 37194 O 3.37 -8.36503 -2.79617 0
M  V30 37195 O 3.91 -7.71806 -0.42951 0
M  V30 37196 C 4.85 -7.67148 0.673689 0
M  V30 37197 C 4.12 -7.33374 1.95559 0
M  V30 37198 O 3.91 -5.88721 2.00726 0
M  V30 37199 C 2.72 -7.92526 2.10483 0
M  V30 37200 O 2.33 -8.02971 3.47653 0
M  V30 37201 C 1.84 -6.89602 1.41652 0
M  V30 37202 C 2.55 -5.59201 1.75185 0
M  V30 37203 N 2.5 -4.58235 0.662552 0
M  V30 37204 H 5.339 -8.65116 0.777161 0
M  V30 37205 H 5.611 -6.90173 0.474152 0
M  V30 37206 H 4.743 -7.66548 2.79458 0
M  V30 37207 H 1.613 -8.66322 3.55694 0
M  V30 END ATOM
M  V30 BEGIN BOND
M  V30 END BOND
M  V30 END CTAB
M  END
$$$$
