drugbank_target|Q9RHZ6 Maltose binding protein (DB03277; DB03323)
 OpenBabel12092120273D

  0  0  0     0  0            999 V3000
M  V30 BEGIN CTAB
M  V30 COUNTS 6383 6465 0 0 0
M  V30 BEGIN ATOM
M  V30 1 H -0.908 1.98254 -0.117106 0
M  V30 2 N 0 1.576 0 0
M  V30 3 C 0.933 2.03868 1.02534 0
M  V30 4 C 1.911 0.928543 1.3348 0
M  V30 5 O 3.095 1.19667 1.45644 0
M  V30 6 C 0.222 2.43627 2.35294 0
M  V30 7 C -0.732 3.65373 2.2001 0
M  V30 8 S 0.101 5.13292 1.52614 0
M  V30 9 C 1.257 5.56322 2.86805 0
M  V30 10 H 1.49 2.90518 0.631377 0
M  V30 11 H -0.977 1.52953 0.210867 0
M  V30 12 H 0.981 2.67203 3.11629 0
M  V30 13 H -0.358 1.57376 2.7183 0
M  V30 14 H -1.165 3.90944 3.18086 0
M  V30 15 H -1.563 3.418 1.51819 0
M  V30 16 H 0.729 5.58782 3.83104 0
M  V30 17 H 1.672 6.56266 2.65933 0
M  V30 18 H 2.08 4.83886 2.90714 0
M  V30 19 N 1.4781 -0.272755 1.55222 0
M  V30 20 C 2.7031 -1.02683 1.80197 0
M  V30 21 C 3.1281 -1.79142 0.573551 0
M  V30 22 O 2.4861 -1.74917 -0.476849 0
M  V30 23 C 2.5341 -1.9609 3.02624 0
M  V30 24 O 1.6381 -3.04863 2.77727 0
M  V30 25 H 0.9791 -0.293557 0.595584 0
M  V30 26 H 3.5091 -0.30159 2.02365 0
M  V30 27 H 3.5191 -2.38039 3.31363 0
M  V30 28 H 2.1941 -1.39851 3.91682 0
M  V30 29 H 0.7711 -2.67228 2.60084 0
M  V30 30 N 2.9562 -1.48159 -0.537278 0
M  V30 31 C 4.2022 -1.56035 -1.29541 0
M  V30 32 C 4.5352 -0.230377 -1.92829 0
M  V30 33 O 3.8102 0.762952 -1.78911 0
M  V30 34 C 4.0932 -2.69323 -2.39034 0
M  V30 35 C 3.9462 -4.12002 -1.80485 0
M  V30 36 C 5.2652 -2.78408 -3.40847 0
M  V30 37 H 2.3842 -0.567992 -0.469632 0
M  V30 38 H 5.0262 -1.80302 -0.599277 0
M  V30 39 H 3.1762 -2.48763 -2.98412 0
M  V30 40 H 4.8482 -4.43981 -1.25215 0
M  V30 41 H 3.0912 -4.19344 -1.11055 0
M  V30 42 H 3.7622 -4.87077 -2.59731 0
M  V30 43 H 6.2382 -2.97012 -2.91416 0
M  V30 44 H 5.1142 -3.59416 -4.14863 0
M  V30 45 H 5.3752 -1.86269 -4.00944 0
M  V30 46 N 4.4343 0.785586 -1.36625 0
M  V30 47 C 5.8503 1.08419 -1.17122 0
M  V30 48 C 6.0503 2.015 0.00208491 0
M  V30 49 O 5.1063 2.43551 0.666278 0
M  V30 50 C 6.4193 1.69498 -2.48377 0
M  V30 51 C 7.9673 1.81821 -2.54775 0
M  V30 52 C 8.4423 2.46315 -3.86126 0
M  V30 53 N 9.9333 2.53779 -3.87492 0
M  V30 54 C 10.6683 3.045 -4.85868 0
M  V30 55 N 10.1643 3.55499 -5.94637 0
M  V30 56 N 11.9573 3.03247 -4.73284 0
M  V30 57 H 4.1083 0.167264 -2.1174 0
M  V30 58 H 6.3713 0.13682 -0.938075 0
M  V30 59 H 6.0773 1.08571 -3.34522 0
M  V30 60 H 5.9513 2.6896 -2.64462 0
M  V30 61 H 8.3383 2.41884 -1.69045 0
M  V30 62 H 8.4193 0.811532 -2.42586 0
M  V30 63 H 8.0633 1.86895 -4.72263 0
M  V30 64 H 7.9933 3.47561 -3.95612 0
M  V30 65 H 10.4843 2.17672 -3.08913 0
M  V30 66 H 10.7973 3.92562 -6.65669 0
M  V30 67 H 9.1423 3.5364 -5.98301 0
M  V30 68 H 12.3333 2.62696 -3.87438 0
M  V30 69 H 12.5063 3.42467 -5.50109 0
M  V30 70 N 5.9124 1.20967 1.01018 0
M  V30 71 C 7.3284 0.965905 1.27053 0
M  V30 72 C 7.5284 -0.350785 1.98423 0
M  V30 73 O 6.5844 -1.07773 2.28344 0
M  V30 74 C 7.8974 2.15294 2.09926 0
M  V30 75 C 9.4454 2.19463 2.23171 0
M  V30 76 C 9.9204 3.3767 3.09424 0
M  V30 77 N 11.4114 3.37724 3.17012 0
M  V30 78 C 12.1464 4.25837 3.83993 0
M  V30 79 N 11.6424 5.24138 4.53047 0
M  V30 80 N 13.4354 4.1366 3.80581 0
M  V30 81 H 5.5864 2.0565 0.531194 0
M  V30 82 H 7.8494 0.90024 0.297106 0
M  V30 83 H 7.5554 3.10684 1.64828 0
M  V30 84 H 7.4294 2.13923 3.10672 0
M  V30 85 H 9.8164 1.24632 2.6749 0
M  V30 86 H 9.8974 2.2488 1.21912 0
M  V30 87 H 9.5414 4.32791 2.65808 0
M  V30 88 H 9.4714 3.29491 4.10784 0
M  V30 89 H 11.9624 2.6658 2.6785 0
M  V30 90 H 12.2754 5.87684 5.01844 0
M  V30 91 H 10.6204 5.28068 4.5185 0
M  V30 92 H 13.8114 3.36127 3.25785 0
M  V30 93 H 13.9844 4.82538 4.32505 0
M  V30 94 N 7.3905 -1.2043 1.01659 0
M  V30 95 C 8.6365 -1.90356 0.716674 0
M  V30 96 C 8.9915 -1.77367 -0.745557 0
M  V30 97 O 8.2845 -1.1471 -1.53467 0
M  V30 98 C 8.4785 -3.40464 1.08714 0
M  V30 99 C 8.3075 -3.6806 2.58384 0
M  V30 100 C 7.0775 -3.86775 3.25167 0
M  V30 101 C 9.2755 -3.70623 3.56572 0
M  V30 102 N 7.2575 -4.01889 4.64067 0
M  V30 103 C 8.6285 -3.91161 4.81034 0
M  V30 104 C 10.6835 -3.53586 3.50544 0
M  V30 105 C 9.3865 -3.96428 6.00198 0
M  V30 106 C 11.4125 -3.60125 4.6911 0
M  V30 107 C 10.7745 -3.81135 5.92381 0
M  V30 108 H 6.8735 -0.716226 0.313918 0
M  V30 109 H 9.4575 -1.44815 1.30141 0
M  V30 110 H 7.6285 -3.84757 0.530745 0
M  V30 111 H 9.3605 -3.97863 0.740763 0
M  V30 112 H 6.1155 -3.85156 2.75594 0
M  V30 113 H 6.5395 -4.13323 5.36184 0
M  V30 114 H 11.1815 -3.36308 2.56235 0
M  V30 115 H 8.8995 -4.12502 6.94887 0
M  V30 116 H 12.4855 -3.4825 4.66062 0
M  V30 117 H 11.3655 -3.86054 6.82592 0
M  V30 118 N 8.8686 -0.792821 -1.36206 0
M  V30 119 C 10.1166 -0.366062 -1.98757 0
M  V30 120 C 10.4376 1.0668 -1.63231 0
M  V30 121 O 9.7076 1.73587 -0.907978 0
M  V30 122 H 8.2876 -0.132364 -0.735179 0
M  V30 123 H 10.9496 -1.01562 -1.66347 0
M  V30 124 H 10.0456 -0.460638 -3.08682 0
M  V30 125 N 10.3467 1.47872 -0.545128 0
M  V30 126 C 11.5957 2.01695 -0.0145033 0
M  V30 127 C 11.9087 1.42609 1.33873 0
M  V30 128 O 13.1147 1.88021 1.95858 0
M  V30 129 C 11.5707 3.59892 0.0245068 0
M  V30 130 C 11.1787 4.27966 -1.32475 0
M  V30 131 C 12.9227 4.21507 0.50316 0
M  V30 132 C 10.8297 5.78136 -1.2455 0
M  V30 133 H 9.7597 0.753998 -0.00165172 0
M  V30 134 H 12.4107 1.69985 -0.691175 0
M  V30 135 H 10.7927 3.88509 0.766575 0
M  V30 136 H 11.9667 4.11003 -2.08357 0
M  V30 137 H 10.2817 3.78286 -1.74036 0
M  V30 138 H 12.8787 5.31538 0.580656 0
M  V30 139 H 13.2217 3.87855 1.51243 0
M  V30 140 H 13.7547 3.97376 -0.183681 0
M  V30 141 H 10.4937 6.16388 -2.23039 0
M  V30 142 H 10.0137 5.97469 -0.528282 0
M  V30 143 H 11.6927 6.40099 -0.942488 0
M  V30 144 N 11.8248 0.280983 1.55075 0
M  V30 145 C 13.0708 -0.33461 2.00021 0
M  V30 146 C 13.4038 -1.55063 1.16915 0
M  V30 147 O 12.6788 -1.93006 0.240646 0
M  V30 148 C 12.9618 -0.711007 3.53011 0
M  V30 149 C 12.8148 0.512766 4.46868 0
M  V30 150 C 14.1338 -1.54522 4.12081 0
M  V30 151 H 11.2528 -0.120147 0.727141 0
M  V30 152 H 13.8948 0.389097 1.85973 0
M  V30 153 H 12.0448 -1.32761 3.65112 0
M  V30 154 H 13.7168 1.15131 4.46702 0
M  V30 155 H 11.9598 1.14975 4.18286 0
M  V30 156 H 12.6308 0.205556 5.51617 0
M  V30 157 H 15.1068 -1.02442 4.03293 0
M  V30 158 H 13.9828 -1.77739 5.19327 0
M  V30 159 H 14.2438 -2.52813 3.62682 0
M  V30 160 N 13.3029 -1.57598 0.00835791 0
M  V30 161 C 14.5279 -1.95617 -0.689103 0
M  V30 162 C 14.9529 -0.883753 -1.66046 0
M  V30 163 O 14.3109 0.157352 -1.80616 0
M  V30 164 C 14.3589 -3.32736 -1.38994 0
M  V30 165 O 13.4629 -3.27631 -2.50463 0
M  V30 166 H 12.8039 -0.638379 -0.182668 0
M  V30 167 H 15.3339 -2.045 0.064036 0
M  V30 168 H 15.3439 -3.68494 -1.75147 0
M  V30 169 H 14.0189 -4.1034 -0.677778 0
M  V30 170 H 12.5959 -3.03561 -2.16576 0
M  V30 171 N 14.781 0.264519 -1.55364 0
M  V30 172 C 16.009 1.013 -1.80405 0
M  V30 173 C 16.424 1.79618 -0.581622 0
M  V30 174 O 15.781 1.76879 0.449468 0
M  V30 175 C 15.832 1.96487 -3.03439 0
M  V30 176 O 15.553 1.21341 -4.20961 0
M  V30 177 C 17.054 2.83079 -3.41147 0
M  V30 178 H 14.274 0.298875 -0.600762 0
M  V30 179 H 16.818 0.292736 -2.02394 0
M  V30 180 H 14.973 2.63965 -2.83551 0
M  V30 181 H 15.387 1.85573 -4.90574 0
M  V30 182 H 16.861 3.4565 -4.30384 0
M  V30 183 H 17.338 3.53286 -2.60932 0
M  V30 184 H 17.944 2.2108 -3.63323 0
M  V30 185 N 16.2591 1.48442 0.529413 0
M  V30 186 C 17.5071 1.56179 1.28267 0
M  V30 187 C 17.8281 0.237721 1.93546 0
M  V30 188 O 17.0981 -0.740779 1.81354 0
M  V30 189 H 15.6781 0.575367 0.476405 0
M  V30 190 H 18.3401 1.84909 0.61602 0
M  V30 191 H 17.4361 2.34312 2.06165 0
M  V30 192 N 17.7372 -0.778329 1.37039 0
M  V30 193 C 18.9832 -1.53892 1.32079 0
M  V30 194 C 19.3162 -1.9396 -0.0965386 0
M  V30 195 O 18.5912 -1.63568 -1.05242 0
M  V30 196 C 18.8742 -2.80847 2.25382 0
M  V30 197 C 18.7272 -2.47076 3.75864 0
M  V30 198 C 20.0462 -3.82741 2.1725 0
M  V30 199 H 17.1652 -0.558303 0.48111 0
M  V30 200 H 19.8072 -0.893397 1.67685 0
M  V30 201 H 17.9572 -3.35931 1.95148 0
M  V30 202 H 19.6292 -1.97957 4.16666 0
M  V30 203 H 17.8722 -1.79863 3.94755 0
M  V30 204 H 18.5432 -3.37798 4.36574 0
M  V30 205 H 21.0192 -3.37133 2.43887 0
M  V30 206 H 19.8952 -4.69303 2.84686 0
M  V30 207 H 20.1562 -4.2652 1.16331 0
M  V30 208 N 19.2153 -1.21501 -1.00376 0
M  V30 209 C 20.1783 -0.976927 -2.07337 0
M  V30 210 C 21.1783 0.0525322 -1.60714 0
M  V30 211 O 22.3683 -0.184869 -1.73216 0
M  V30 212 C 19.5003 -0.473423 -3.37597 0
M  V30 213 H 20.6933 -1.92587 -2.29892 0
M  V30 214 H 18.2463 -1.03217 -1.17371 0
M  V30 215 H 18.9813 0.480379 -3.20722 0
M  V30 216 H 18.7663 -1.216 -3.72768 0
M  V30 217 H 20.2563 -0.32675 -4.1632 0
M  V30 218 N 20.6934 1.19889 -1.02296 0
M  V30 219 C 21.6564 2.21116 -0.603351 0
M  V30 220 C 22.6564 1.5738 0.329884 0
M  V30 221 O 23.8464 1.73802 0.117702 0
M  V30 222 C 20.9784 3.40696 0.117992 0
M  V30 223 H 22.1714 2.59754 -1.49893 0
M  V30 224 H 19.7244 1.33463 -0.813468 0
M  V30 225 H 20.4594 3.07569 1.0282 0
M  V30 226 H 20.2444 3.88188 -0.552511 0
M  V30 227 H 21.7344 4.15692 0.398696 0
M  V30 228 N 22.1715 0.800033 1.35784 0
M  V30 229 C 23.1015 0.220184 2.3246 0
M  V30 230 C 24.0825 -0.65073 1.57161 0
M  V30 231 O 25.2675 -0.582359 1.85263 0
M  V30 232 C 22.3975 -0.637353 3.41402 0
M  V30 233 C 21.3515 0.134531 4.27789 0
M  V30 234 C 20.6775 -0.844285 5.27992 0
M  V30 235 C 21.9775 1.32979 5.05088 0
M  V30 236 H 23.6715 1.02787 2.81203 0
M  V30 237 H 21.2175 0.495717 1.35199 0
M  V30 238 H 23.1705 -1.05302 4.08031 0
M  V30 239 H 21.8945 -1.47785 2.91251 0
M  V30 240 H 20.5535 0.531296 3.6273 0
M  V30 241 H 20.2015 -1.68011 4.74111 0
M  V30 242 H 19.9015 -0.332184 5.8666 0
M  V30 243 H 21.4255 -1.2583 5.97494 0
M  V30 244 H 22.8395 0.98934 5.64699 0
M  V30 245 H 21.2365 1.77593 5.7322 0
M  V30 246 H 22.3065 2.11978 4.36111 0
M  V30 247 N 23.6496 -1.47581 0.552962 0
M  V30 248 C 24.8956 -2.02782 0.0273648 0
M  V30 249 C 25.2286 -1.42687 -1.31734 0
M  V30 250 O 24.5036 -0.580897 -1.85623 0
M  V30 251 C 24.7866 -3.60031 -0.0702371 0
M  V30 252 C 24.6396 -4.30566 1.30126 0
M  V30 253 C 25.9586 -4.33028 -0.785771 0
M  V30 254 H 23.0776 -0.736912 0.0114185 0
M  V30 255 H 25.7196 -1.76056 0.714432 0
M  V30 256 H 23.8696 -3.82932 -0.655382 0
M  V30 257 H 25.5416 -4.19018 1.92929 0
M  V30 258 H 23.7846 -3.91086 1.87709 0
M  V30 259 H 24.4556 -5.39114 1.18573 0
M  V30 260 H 26.9316 -4.15095 -0.288982 0
M  V30 261 H 25.8076 -5.42695 -0.823013 0
M  V30 262 H 26.0686 -4.01945 -1.841 0
M  V30 263 N 25.1277 -0.289203 -1.54924 0
M  V30 264 C 26.0577 0.58549 -2.2604 0
M  V30 265 C 27.0387 1.14753 -1.25562 0
M  V30 266 O 28.2237 1.17906 -1.54311 0
M  V30 267 C 25.3537 1.76305 -2.99222 0
M  V30 268 C 24.3077 1.33191 -4.06748 0
M  V30 269 C 23.6337 2.5937 -4.6758 0
M  V30 270 C 24.9337 0.471775 -5.20165 0
M  V30 271 H 26.6277 -0.00763532 -2.99399 0
M  V30 272 H 24.1737 -0.00511229 -1.43999 0
M  V30 273 H 26.1267 2.38097 -3.47689 0
M  V30 274 H 24.8507 2.38223 -2.23422 0
M  V30 275 H 23.5097 0.737121 -3.59113 0
M  V30 276 H 23.1577 3.19576 -3.88433 0
M  V30 277 H 22.8577 2.31228 -5.40192 0
M  V30 278 H 24.3817 3.21985 -5.18804 0
M  V30 279 H 25.7957 0.995056 -5.64599 0
M  V30 280 H 24.1927 0.284639 -5.99425 0
M  V30 281 H 25.2627 -0.506041 -4.82252 0
M  V30 282 N 26.6058 1.57591 -0.0167156 0
M  V30 283 C 27.5688 2.08393 0.954204 0
M  V30 284 C 28.5688 0.996531 1.26198 0
M  V30 285 O 29.7588 1.25858 1.20438 0
M  V30 286 C 26.8908 2.5394 2.27436 0
M  V30 287 H 28.0838 2.95455 0.514451 0
M  V30 288 H 25.6368 1.54582 0.231089 0
M  V30 289 H 26.3718 1.70171 2.76066 0
M  V30 290 H 26.1568 3.33371 2.06412 0
M  V30 291 H 27.6468 2.93512 2.97053 0
M  V30 292 N 28.0839 -0.256276 1.55502 0
M  V30 293 C 29.3319 -0.983672 1.76545 0
M  V30 294 C 29.6529 -1.86206 0.578982 0
M  V30 295 O 28.9229 -1.91656 -0.405577 0
M  V30 296 H 27.5029 -0.366191 0.651086 0
M  V30 297 H 30.1649 -0.276479 1.92929 0
M  V30 298 H 29.2609 -1.61087 2.67315 0
M  V30 299 N 29.562 -1.4872 -0.521534 0
M  V30 300 C 30.81 -1.56857 -1.27437 0
M  V30 301 C 31.131 -0.247982 -1.93417 0
M  V30 302 O 30.401 0.731151 -1.81744 0
M  V30 303 H 28.981 -0.577885 -0.473347 0
M  V30 304 H 31.643 -1.85233 -0.606205 0
M  V30 305 H 30.739 -2.35402 -2.0492 0
M  V30 306 N 31.0401 0.771051 -1.3745 0
M  V30 307 C 32.0031 1.86598 -1.33093 0
M  V30 308 C 33.0031 1.59076 -0.234845 0
M  V30 309 O 34.1931 1.67145 -0.490732 0
M  V30 310 C 31.3251 3.23747 -1.06773 0
M  V30 311 H 32.5181 1.91873 -2.30488 0
M  V30 312 H 30.0711 0.970876 -1.2249 0
M  V30 313 H 30.8061 3.24148 -0.099129 0
M  V30 314 H 30.5911 3.45115 -1.86112 0
M  V30 315 H 32.0811 4.03824 -1.06377 0
M  V30 316 N 32.5182 1.22032 0.997298 0
M  V30 317 C 33.7672 1.03637 1.73038 0
M  V30 318 C 34.0802 -0.429475 1.90827 0
M  V30 319 O 35.2862 -0.732995 2.61418 0
M  V30 320 C 33.7422 1.80582 3.11317 0
M  V30 321 C 33.3502 3.31387 3.01474 0
M  V30 322 C 35.0942 1.70621 3.88701 0
M  V30 323 C 33.0012 4.00791 4.3488 0
M  V30 324 H 31.9312 0.384179 0.648785 0
M  V30 325 H 34.5822 1.4584 1.11368 0
M  V30 326 H 32.9642 1.31175 3.73643 0
M  V30 327 H 34.1382 3.88155 2.4834 0
M  V30 328 H 32.4532 3.41976 2.37575 0
M  V30 329 H 35.0502 2.19799 4.87434 0
M  V30 330 H 35.3932 0.665823 4.10941 0
M  V30 331 H 35.9262 2.17547 3.33044 0
M  V30 332 H 32.6652 5.05064 4.1784 0
M  V30 333 H 32.1852 3.48811 4.87945 0
M  V30 334 H 33.8642 4.06139 5.03647 0
M  V30 335 N 33.9963 -1.19345 1.0293 0
M  V30 336 C 34.9593 -2.20793 0.615069 0
M  V30 337 C 35.9593 -1.57553 -0.321533 0
M  V30 338 O 37.1493 -1.73862 -0.108483 0
M  V30 339 C 34.2813 -3.40754 -0.0999222 0
M  V30 340 H 35.4743 -2.58955 1.51269 0
M  V30 341 H 33.0273 -1.3303 0.820534 0
M  V30 342 H 33.7623 -3.0811 -1.01187 0
M  V30 343 H 33.5473 -3.87889 0.57309 0
M  V30 344 H 35.0373 -4.15898 -0.376645 0
M  V30 345 N 35.4744 -0.807222 -1.35358 0
M  V30 346 C 36.7224 -0.387122 -1.98358 0
M  V30 347 C 37.0434 1.04942 -1.64354 0
M  V30 348 O 36.3134 1.72615 -0.926339 0
M  V30 349 H 34.8934 -0.140154 -0.733734 0
M  V30 350 H 37.5554 -1.0332 -1.6526 0
M  V30 351 H 36.6514 -0.493352 -3.08176 0
M  V30 352 N 36.9525 1.47285 -0.560781 0
M  V30 353 C 38.1925 2.0436 -0.0404627 0
M  V30 354 C 38.5565 1.42534 1.28639 0
M  V30 355 O 39.7575 1.90677 1.89462 0
M  V30 356 C 38.0285 3.57369 0.0471856 0
M  V30 357 S 39.5875 4.3579 0.513109 0
M  V30 358 H 36.4055 0.710492 -0.0268674 0
M  V30 359 H 39.0075 1.80611 -0.748323 0
M  V30 360 H 37.7115 3.9989 -0.922817 0
M  V30 361 H 37.2425 3.8562 0.778491 0
M  V30 362 H 39.2575 4.63476 1.77212 0
M  V30 363 N 38.4306 0.297415 1.54768 0
M  V30 364 C 39.6786 -0.312295 1.99673 0
M  V30 365 C 39.9996 -1.54686 1.18732 0
M  V30 366 O 39.2696 -1.93854 0.282382 0
M  V30 367 H 37.8496 -0.118381 0.73756 0
M  V30 368 H 40.5116 0.407915 1.90583 0
M  V30 369 H 39.6076 -0.586813 3.06534 0
M  V30 370 N 39.9087 -1.5758 0.0250728 0
M  V30 371 C 41.1367 -1.9593 -0.664747 0
M  V30 372 C 41.5517 -0.901352 -1.65895 0
M  V30 373 O 40.9087 0.117255 -1.82123 0
M  V30 374 C 40.9597 -3.34342 -1.37468 0
M  V30 375 O 40.6807 -4.36079 -0.420324 0
M  V30 376 C 42.1817 -3.873 -2.1567 0
M  V30 377 H 39.4017 -0.645405 -0.183557 0
M  V30 378 H 41.9457 -2.04329 0.0836372 0
M  V30 379 H 40.1007 -3.27175 -2.0745 0
M  V30 380 H 40.5147 -5.16297 -0.923991 0
M  V30 381 H 41.9887 -4.86504 -2.60803 0
M  V30 382 H 42.4657 -3.21331 -2.99405 0
M  V30 383 H 43.0717 -3.97723 -1.50654 0
M  V30 384 N 41.3868 0.248026 -1.55636 0
M  V30 385 C 42.6118 0.998028 -1.81808 0
M  V30 386 C 43.0368 1.78207 -0.601979 0
M  V30 387 O 42.3948 1.75653 0.448961 0
M  V30 388 C 42.4428 1.9125 -3.05705 0
M  V30 389 O 41.5468 3.00406 -2.82542 0
M  V30 390 H 40.8878 0.284045 -0.600179 0
M  V30 391 H 43.4178 0.269357 -2.02819 0
M  V30 392 H 43.4278 2.32737 -3.35108 0
M  V30 393 H 42.1028 1.33602 -3.93857 0
M  V30 394 H 40.6798 2.63056 -2.64303 0
M  V30 395 N 42.8649 1.48995 0.513639 0
M  V30 396 C 43.8129 1.65199 1.63744 0
M  V30 397 C 44.8069 0.51809 1.61283 0
M  V30 398 O 46.0129 0.697335 1.65943 0
M  V30 399 H 42.3879 0.52069 0.542574 0
M  V30 400 H 44.3589 2.59552 1.47226 0
M  V30 401 C 43.1079 1.72409 3.01945 0
M  V30 402 H 42.4309 2.59029 3.04539 0
M  V30 403 H 43.8709 1.87785 3.80148 0
M  V30 404 C 42.3299 0.46618 3.33659 0
M  V30 405 O 42.8599 -0.413744 3.99564 0
M  V30 406 N 41.0659 0.332931 2.88687 0
M  V30 407 H 40.6129 1.04996 2.35231 0
M  V30 408 H 40.5709 -0.507665 3.10274 0
M  V30 409 N 44.343 -0.763751 1.37857 0
M  V30 410 C 45.591 -1.51957 1.33243 0
M  V30 411 C 45.912 -1.94835 -0.0801709 0
M  V30 412 O 45.182 -1.66894 -1.02582 0
M  V30 413 H 43.762 -0.563626 0.49024 0
M  V30 414 H 46.424 -0.908504 1.7243 0
M  V30 415 H 45.52 -2.41523 1.97669 0
M  V30 416 N 45.8211 -1.22559 -0.990812 0
M  V30 417 C 47.0691 -1.04933 -1.72724 0
M  V30 418 C 47.3901 0.416158 -1.90508 0
M  V30 419 O 46.6601 1.29918 -1.46622 0
M  V30 420 H 45.2401 -0.385296 -0.639965 0
M  V30 421 H 47.9021 -1.54105 -1.19322 0
M  V30 422 H 46.9981 -1.52886 -2.72089 0
M  V30 423 N 47.2992 1.18797 -1.03562 0
M  V30 424 C 48.2312 2.21731 -0.580337 0
M  V30 425 C 49.2442 1.59051 0.347349 0
M  V30 426 O 50.4332 1.77929 0.142669 0
M  V30 427 C 47.5332 3.38459 0.172805 0
M  V30 428 C 46.7062 4.3072 -0.761496 0
M  V30 429 C 45.7652 5.26174 -0.0525547 0
M  V30 430 O 44.7912 5.65108 -0.681333 0
M  V30 431 N 45.9932 5.67624 1.21586 0
M  V30 432 H 48.7582 2.61417 -1.46565 0
M  V30 433 H 46.3192 1.33531 -0.915476 0
M  V30 434 H 48.3112 3.99335 0.656793 0
M  V30 435 H 46.8812 2.97507 0.959602 0
M  V30 436 H 46.1012 3.67525 -1.42544 0
M  V30 437 H 47.3892 4.89267 -1.39626 0
M  V30 438 H 46.7872 5.38038 1.74732 0
M  V30 439 H 45.3442 6.30721 1.64421 0
M  V30 440 N 48.7773 0.814389 1.34928 0
M  V30 441 C 49.7253 0.218424 2.31572 0
M  V30 442 C 50.7193 -0.636128 1.57002 0
M  V30 443 O 51.9253 -0.52842 1.72069 0
M  V30 444 H 48.3003 0.0518799 0.750208 0
M  V30 445 H 50.2713 1.04852 2.79372 0
M  V30 446 C 49.0203 -0.61207 3.4227 0
M  V30 447 H 48.3433 0.0361578 3.99784 0
M  V30 448 H 49.7833 -0.995317 4.12152 0
M  V30 449 C 48.2423 -1.78087 2.85984 0
M  V30 450 O 48.7723 -2.8787 2.80168 0
M  V30 451 N 46.9783 -1.59488 2.42924 0
M  V30 452 H 46.5253 -0.701874 2.47854 0
M  V30 453 H 46.4833 -2.37846 2.05613 0
M  V30 454 N 50.2554 -1.46986 0.568584 0
M  V30 455 C 51.4834 -2.0683 0.0539956 0
M  V30 456 C 51.8984 -1.41953 -1.24478 0
M  V30 457 O 51.2554 -0.519933 -1.74937 0
M  V30 458 C 51.3064 -3.61254 -0.133362 0
M  V30 459 O 51.0274 -4.237 1.11399 0
M  V30 460 C 52.5284 -4.37992 -0.683927 0
M  V30 461 H 49.7484 -0.669058 0.0510141 0
M  V30 462 H 52.2924 -1.88824 0.785234 0
M  V30 463 H 50.4474 -3.78735 -0.81477 0
M  V30 464 H 50.8614 -5.16388 0.91888 0
M  V30 465 H 52.3354 -5.46684 -0.764263 0
M  V30 466 H 52.8124 -4.05058 -1.69778 0
M  V30 467 H 53.4184 -4.25283 -0.0378494 0
M  V30 468 N 51.7335 -0.305618 -1.54608 0
M  V30 469 C 52.9585 0.307562 -2.05107 0
M  V30 470 C 53.3835 1.46385 -1.18123 0
M  V30 471 O 52.7415 1.8034 -0.186324 0
M  V30 472 C 52.7895 0.73704 -3.52987 0
M  V30 473 O 51.8935 1.84134 -3.6901 0
M  V30 474 H 51.2345 0.0589143 -0.661381 0
M  V30 475 H 53.7645 -0.448807 -1.99617 0
M  V30 476 H 53.7745 1.02459 -3.94925 0
M  V30 477 H 52.4495 -0.108773 -4.15758 0
M  V30 478 H 51.0265 1.55398 -3.38978 0
M  V30 479 N 53.2116 1.57565 -0.0334293 0
M  V30 480 C 54.6226 1.79746 0.504798 0
M  V30 481 C 54.9736 0.944091 1.71992 0
M  V30 482 O 54.0986 0.155694 2.15839 0
M  V30 483 C 54.6936 3.25997 0.922567 0
M  V30 484 C 53.2526 3.49159 1.40588 0
M  V30 485 C 52.3996 2.74785 0.372633 0
M  V30 486 H 55.3506 1.56565 -0.259436 0
M  V30 487 H 55.3716 3.35945 1.78666 0
M  V30 488 H 54.8836 3.88081 0.0379825 0
M  V30 489 H 52.9846 2.92332 2.31025 0
M  V30 490 H 53.0976 4.57873 1.41028 0
M  V30 491 H 51.4616 2.40391 0.841672 0
M  V30 492 H 52.2446 3.39587 -0.503559 0
M  V30 493 N 54.6897 -0.239769 1.55765 0
M  V30 494 C 55.9147 -0.988373 1.82335 0
M  V30 495 C 56.3397 -1.77886 0.611421 0
M  V30 496 O 55.6977 -1.75889 -0.439639 0
M  V30 497 C 55.7457 -1.89627 3.06715 0
M  V30 498 O 54.8497 -2.98904 2.84131 0
M  V30 499 H 54.1907 -0.280858 0.601677 0
M  V30 500 H 56.7207 -0.258597 2.02959 0
M  V30 501 H 56.7307 -2.30957 3.36338 0
M  V30 502 H 55.4057 -1.31511 3.9456 0
M  V30 503 H 53.9827 -2.61651 2.65694 0
M  V30 504 N 56.1678 -1.49265 -0.50573 0
M  V30 505 C 57.3958 -1.62215 -1.28429 0
M  V30 506 C 57.8108 -0.291697 -1.86533 0
M  V30 507 O 57.1678 0.722233 -1.67601 0
M  V30 508 C 57.2188 -2.68735 -2.41793 0
M  V30 509 O 56.9398 -3.96619 -1.86078 0
M  V30 510 C 58.4408 -2.92346 -3.3324 0
M  V30 511 H 55.6608 -0.546239 -0.389697 0
M  V30 512 H 58.2048 -1.95265 -0.607609 0
M  V30 513 H 56.3598 -2.38476 -3.053 0
M  V30 514 H 56.7738 -4.55256 -2.60465 0
M  V30 515 H 58.2478 -3.70623 -4.09075 0
M  V30 516 H 58.7248 -2.02081 -3.89948 0
M  V30 517 H 59.3308 -3.24003 -2.75503 0
M  V30 518 N 57.6459 0.756429 -1.3826 0
M  V30 519 C 58.8709 1.55077 -1.37717 0
M  V30 520 C 59.2959 1.88073 0.03164 0
M  V30 521 O 58.6539 1.50364 1.01293 0
M  V30 522 C 58.7019 2.8283 -2.23695 0
M  V30 523 O 57.8059 3.77862 -1.6521 0
M  V30 524 H 57.1469 0.469152 -0.469885 0
M  V30 525 H 59.6769 0.935019 -1.81985 0
M  V30 526 H 59.6869 3.31783 -2.37453 0
M  V30 527 H 58.3619 2.58144 -3.2609 0
M  V30 528 H 56.9389 3.36555 -1.60578 0
M  V30 529 N 59.124 1.23083 0.984299 0
M  V30 530 C 60.349 1.088 1.76571 0
M  V30 531 C 60.774 -0.356657 1.84688 0
M  V30 532 O 60.132 -1.25788 1.30565 0
M  V30 533 C 60.18 1.71371 3.17277 0
M  V30 534 O 59.284 0.973213 4.00752 0
M  V30 535 H 58.625 0.381599 0.543395 0
M  V30 536 H 61.155 1.63057 1.23587 0
M  V30 537 H 61.165 1.76449 3.67872 0
M  V30 538 H 59.84 2.76493 3.10684 0
M  V30 539 H 58.417 0.999078 3.59267 0
M  V30 540 N 60.6021 -1.18246 1.0419 0
M  V30 541 C 61.8271 -1.92736 0.765996 0
M  V30 542 C 62.2521 -1.75728 -0.67091 0
M  V30 543 O 61.6101 -1.06825 -1.46486 0
M  V30 544 C 61.6581 -3.42148 1.13875 0
M  V30 545 O 60.7621 -4.11548 0.264954 0
M  V30 546 H 60.1031 -0.601238 0.281797 0
M  V30 547 H 62.6331 -1.49942 1.39207 0
M  V30 548 H 62.6431 -3.92858 1.1012 0
M  V30 549 H 61.3181 -3.53848 2.18551 0
M  V30 550 H 59.8951 -3.71137 0.362226 0
M  V30 551 N 62.0802 -0.821533 -1.34494 0
M  V30 552 C 63.3052 -0.420873 -2.03085 0
M  V30 553 C 63.7302 0.964915 -1.61465 0
M  V30 554 O 63.0882 1.62763 -0.798607 0
M  V30 555 C 63.1362 -0.529414 -3.56693 0
M  V30 556 O 62.2402 0.451302 -4.09923 0
M  V30 557 H 61.5812 -0.173489 -0.640935 0
M  V30 558 H 64.1112 -1.11157 -1.71771 0
M  V30 559 H 64.1212 -0.404671 -4.05988 0
M  V30 560 H 62.7962 -1.54014 -3.86332 0
M  V30 561 H 61.3732 0.285558 -3.71805 0
M  V30 562 N 63.5583 1.46682 -0.576371 0
M  V30 563 C 64.5213 2.28707 0.150239 0
M  V30 564 C 65.5213 1.38035 0.824794 0
M  V30 565 O 66.7113 1.60476 0.677719 0
M  V30 566 C 63.8433 3.18248 1.22192 0
M  V30 567 H 65.0363 2.94423 -0.570521 0
M  V30 568 H 62.5893 1.52688 -0.334078 0
M  V30 569 H 63.3243 2.57265 1.97447 0
M  V30 570 H 63.1093 3.85 0.742812 0
M  V30 571 H 64.5993 3.80001 1.73172 0
M  V30 572 N 65.0364 0.313813 1.54444 0
M  V30 573 C 65.9834 -0.55655 2.23989 0
M  V30 574 C 66.9534 -1.11943 1.22711 0
M  V30 575 O 68.1384 -1.16158 1.51367 0
M  V30 576 C 65.2784 -1.71635 2.99392 0
M  V30 577 C 64.3914 -1.18364 4.15468 0
M  V30 578 C 63.5264 -2.30834 4.78424 0
M  V30 579 C 62.5654 -1.74762 5.86622 0
M  V30 580 N 61.7024 -2.80855 6.43479 0
M  V30 581 H 66.5424 0.0430893 2.97969 0
M  V30 582 H 64.0794 0.0330359 1.47063 0
M  V30 583 H 66.0374 -2.39868 3.41349 0
M  V30 584 H 64.6674 -2.28742 2.27765 0
M  V30 585 H 63.7194 -0.393163 3.78363 0
M  V30 586 H 65.0314 -0.733262 4.93381 0
M  V30 587 H 64.1854 -3.0699 5.23299 0
M  V30 588 H 62.9244 -2.79204 3.99871 0
M  V30 589 H 61.9294 -0.970995 5.41158 0
M  V30 590 H 63.1544 -1.2728 6.67066 0
M  V30 591 H 61.1004 -3.28535 5.67804 0
M  V30 592 H 61.0174 -2.40351 7.16776 0
M  V30 593 H 62.2854 -3.5687 6.93011 0
M  V30 594 N 66.5145 -1.57545 0.0417849 0
M  V30 595 C 67.7625 -1.91937 -0.632829 0
M  V30 596 C 68.0835 -0.919978 -1.71934 0
M  V30 597 O 67.3535 0.0366064 -1.95866 0
M  V30 598 H 65.9335 -0.708493 -0.236742 0
M  V30 599 H 68.5955 -1.9468 0.0925745 0
M  V30 600 H 67.6915 -2.92912 -1.07746 0
M  V30 601 N 67.9926 0.231505 -1.5589 0
M  V30 602 C 68.9026 1.308 -1.94752 0
M  V30 603 C 69.9186 1.51826 -0.849989 0
M  V30 604 O 71.0946 1.6515 -1.15271 0
M  V30 605 C 68.1596 2.63968 -2.24771 0
M  V30 606 C 67.2206 2.51331 -3.48039 0
M  V30 607 C 66.4536 3.78148 -3.76616 0
M  V30 608 O 66.6766 4.80722 -3.07022 0
M  V30 609 O 65.6106 3.75857 -4.70123 0
M  V30 610 H 69.4366 1.0083 -2.86474 0
M  V30 611 H 67.0216 0.433547 -1.42971 0
M  V30 612 H 68.9036 3.42633 -2.45318 0
M  V30 613 H 67.5786 2.9364 -1.36225 0
M  V30 614 H 66.4856 1.709 -3.32782 0
M  V30 615 H 67.8186 2.26601 -4.36936 0
M  V30 616 N 69.4707 1.49531 0.497807 0
M  V30 617 C 70.4337 1.65916 1.58128 0
M  V30 618 C 71.4337 0.530825 1.51786 0
M  V30 619 O 72.6237 0.797342 1.54881 0
M  V30 620 C 69.7557 1.65951 2.9778 0
M  V30 621 H 70.9487 2.62556 1.44929 0
M  V30 622 H 68.5017 1.38611 0.722275 0
M  V30 623 H 69.2367 0.709065 3.16453 0
M  V30 624 H 69.0217 2.47897 3.03792 0
M  V30 625 H 70.5117 1.80673 3.76493 0
M  V30 626 N 70.9488 -0.749086 1.3866 0
M  V30 627 C 72.1738 -1.54344 1.38538 0
M  V30 628 C 72.5988 -1.88088 -0.0216655 0
M  V30 629 O 71.9568 -1.50899 -1.00494 0
M  V30 630 C 72.0048 -2.8164 2.25192 0
M  V30 631 O 71.1088 -3.7698 1.67212 0
M  V30 632 H 70.4498 -0.466654 0.472367 0
M  V30 633 H 72.9798 -0.925355 1.82478 0
M  V30 634 H 72.9898 -3.30519 2.3921 0
M  V30 635 H 71.6648 -2.56411 3.27454 0
M  V30 636 H 70.2418 -3.35699 1.6236 0
M  V30 637 N 72.4269 -1.23603 -0.977757 0
M  V30 638 C 73.3899 -1.02069 -2.05218 0
M  V30 639 C 74.3899 0.0184305 -1.60789 0
M  V30 640 O 75.5799 -0.221569 -1.72785 0
M  V30 641 C 72.7119 -0.544926 -3.36517 0
M  V30 642 H 73.9049 -1.9742 -2.25755 0
M  V30 643 H 71.4579 -1.05684 -1.15155 0
M  V30 644 H 72.1929 0.412241 -3.21669 0
M  V30 645 H 71.9779 -1.2948 -3.70105 0
M  V30 646 H 73.4679 -0.414985 -4.15533 0
M  V30 647 N 73.905 1.17692 -1.04816 0
M  V30 648 C 74.835 2.23777 -0.666791 0
M  V30 649 C 75.816 1.66796 0.33361 0
M  V30 650 O 77.001 1.93039 0.212042 0
M  V30 651 C 74.131 3.47281 -0.0367933 0
M  V30 652 C 73.085 4.17059 -0.961546 0
M  V30 653 C 72.411 5.34342 -0.195626 0
M  V30 654 C 73.711 4.69713 -2.28402 0
M  V30 655 H 75.405 2.55933 -1.55367 0
M  V30 656 H 72.951 1.23019 -0.748484 0
M  V30 657 H 74.904 4.20706 0.241775 0
M  V30 658 H 73.628 3.14381 0.885004 0
M  V30 659 H 72.287 3.45541 -1.22462 0
M  V30 660 H 71.935 4.97692 0.728816 0
M  V30 661 H 71.635 5.81966 -0.811775 0
M  V30 662 H 73.159 6.10553 0.0757473 0
M  V30 663 H 74.573 5.34794 -2.06563 0
M  V30 664 H 72.97 5.279 -2.8538 0
M  V30 665 H 74.04 3.86726 -2.92525 0
M  V30 666 N 75.3831 0.828654 1.34056 0
M  V30 667 C 76.7941 0.477534 1.8049 0
M  V30 668 C 77.1451 -1.00258 1.6865 0
M  V30 669 O 76.2701 -1.78057 1.22982 0
M  V30 670 C 76.8651 0.860018 3.27703 0
M  V30 671 C 75.4241 0.561185 3.72193 0
M  V30 672 C 74.5711 1.07385 2.55663 0
M  V30 673 H 77.5221 1.0183 1.21722 0
M  V30 674 H 77.5431 0.166038 3.80138 0
M  V30 675 H 77.0551 1.93731 3.36288 0
M  V30 676 H 75.1561 -0.506465 3.69142 0
M  V30 677 H 75.2691 1.10926 4.66082 0
M  V30 678 H 73.6331 0.495149 2.49841 0
M  V30 679 H 74.4161 2.15771 2.67016 0
M  V30 680 N 76.8612 -1.46375 0.584142 0
M  V30 681 C 77.8082 -2.30323 -0.148286 0
M  V30 682 C 78.7782 -1.40703 -0.882713 0
M  V30 683 O 79.9632 -1.69651 -0.873099 0
M  V30 684 C 77.1032 -3.25196 -1.15507 0
M  V30 685 C 76.2162 -4.29915 -0.423943 0
M  V30 686 C 75.3512 -5.11914 -1.41838 0
M  V30 687 C 74.3902 -6.08381 -0.673736 0
M  V30 688 N 73.5272 -6.83242 -1.6163 0
M  V30 689 H 78.3672 -2.92427 0.573644 0
M  V30 690 H 75.9042 -1.44118 0.294703 0
M  V30 691 H 77.8622 -3.78646 -1.75166 0
M  V30 692 H 76.4922 -2.64898 -1.8447 0
M  V30 693 H 75.5442 -3.7931 0.287714 0
M  V30 694 H 76.8562 -4.98549 0.158128 0
M  V30 695 H 76.0102 -5.69648 -2.08773 0
M  V30 696 H 74.7492 -4.43243 -2.03438 0
M  V30 697 H 73.7542 -5.49799 0.00938483 0
M  V30 698 H 74.9792 -6.79071 -0.0631082 0
M  V30 699 H 72.9252 -6.1728 -2.22038 0
M  V30 700 H 72.8422 -7.48144 -1.08707 0
M  V30 701 H 74.1102 -7.45534 -2.27596 0
M  V30 702 N 78.3393 -0.321999 -1.54275 0
M  V30 703 C 79.5873 0.280489 -2.00144 0
M  V30 704 C 79.9083 1.52777 -1.21178 0
M  V30 705 O 79.1783 1.9338 -0.313187 0
M  V30 706 H 77.7583 0.106632 -0.73935 0
M  V30 707 H 80.4203 -0.438184 -1.8991 0
M  V30 708 H 79.5163 0.537972 -3.07428 0
M  V30 709 N 79.8174 1.5752 -0.0501392 0
M  V30 710 C 80.7494 2.08413 0.95376 0
M  V30 711 C 81.7624 1.01175 1.27544 0
M  V30 712 O 82.9514 1.28744 1.23641 0
M  V30 713 C 80.0514 2.51138 2.27559 0
M  V30 714 C 79.2244 3.817 2.13598 0
M  V30 715 C 78.2834 4.10749 3.28895 0
M  V30 716 O 77.3094 4.80685 3.04845 0
M  V30 717 N 78.5114 3.62579 4.5334 0
M  V30 718 H 81.2764 2.95165 0.519383 0
M  V30 719 H 78.8374 1.61327 0.136127 0
M  V30 720 H 80.8294 2.67648 3.03557 0
M  V30 721 H 79.3994 1.6964 2.62567 0
M  V30 722 H 78.6194 3.74782 1.22197 0
M  V30 723 H 79.9074 4.67201 2.01496 0
M  V30 724 H 79.3054 3.06039 4.75769 0
M  V30 725 H 77.8624 3.84329 5.26436 0
M  V30 726 N 81.2955 -0.223234 1.56011 0
M  V30 727 C 82.5235 -0.964812 1.83027 0
M  V30 728 C 82.9385 -1.78013 0.62904 0
M  V30 729 O 82.2955 -1.78008 -0.402414 0
M  V30 730 C 82.3465 -1.88373 3.08542 0
M  V30 731 O 82.0675 -1.10137 4.2403 0
M  V30 732 C 83.5685 -2.73934 3.48533 0
M  V30 733 H 80.7885 -0.282842 0.608475 0
M  V30 734 H 83.3325 -0.238971 2.03099 0
M  V30 735 H 81.4875 -2.56354 2.9045 0
M  V30 736 H 81.9015 -1.72501 4.95322 0
M  V30 737 H 83.3755 -3.34117 4.39397 0
M  V30 738 H 83.8525 -3.46244 2.70207 0
M  V30 739 H 84.4585 -2.11369 3.69057 0
M  V30 740 N 82.7736 -1.49793 -0.48987 0
M  V30 741 C 84.0226 -1.59085 -1.23995 0
M  V30 742 C 84.3356 -0.287907 -1.9347 0
M  V30 743 O 85.5416 -0.259506 -2.70257 0
M  V30 744 C 83.9976 -2.80736 -2.252 0
M  V30 745 C 83.6056 -4.17833 -1.61614 0
M  V30 746 C 85.3496 -2.99364 -3.00967 0
M  V30 747 C 83.2566 -5.30693 -2.60996 0
M  V30 748 H 82.1866 -0.592372 -0.466488 0
M  V30 749 H 84.8376 -1.76197 -0.51252 0
M  V30 750 H 83.2196 -2.57142 -3.01154 0
M  V30 751 H 84.3936 -4.51608 -0.915774 0
M  V30 752 H 82.7086 -4.04656 -0.981977 0
M  V30 753 H 85.3056 -3.80851 -3.75308 0
M  V30 754 H 85.6486 -2.10356 -3.59244 0
M  V30 755 H 86.1816 -3.2305 -2.32128 0
M  V30 756 H 82.9206 -6.21796 -2.07485 0
M  V30 757 H 82.4406 -5.01359 -3.2924 0
M  V30 758 H 84.1196 -5.6049 -3.23202 0
M  V30 759 N 84.2517 0.741722 -1.39055 0
M  V30 760 C 85.4797 1.53098 -1.39171 0
M  V30 761 C 85.8947 1.88794 0.0155099 0
M  V30 762 O 85.2517 1.53626 0.985159 0
M  V30 763 C 85.3027 2.82274 -2.2584 0
M  V30 764 O 85.0237 2.48097 -3.61081 0
M  V30 765 C 86.5247 3.76343 -2.34266 0
M  V30 766 H 83.7447 0.473335 -0.4756 0
M  V30 767 H 86.2887 0.917045 -1.82785 0
M  V30 768 H 84.4437 3.40015 -1.85656 0
M  V30 769 H 84.8577 3.31029 -4.06842 0
M  V30 770 H 86.3317 4.63898 -2.9917 0
M  V30 771 H 86.8087 4.17619 -1.35982 0
M  V30 772 H 87.4147 3.24523 -2.74891 0
M  V30 773 N 85.7298 1.2412 0.971189 0
M  V30 774 C 86.9758 1.08041 1.71625 0
M  V30 775 C 87.3088 -0.380407 1.90438 0
M  V30 776 O 86.5838 -1.28127 1.46334 0
M  V30 777 C 86.8668 1.81682 3.10908 0
M  V30 778 C 86.7198 3.35493 2.99608 0
M  V30 779 C 88.0388 1.58671 4.10501 0
M  V30 780 H 85.1578 0.39388 0.622919 0
M  V30 781 H 87.7998 1.52743 1.13003 0
M  V30 782 H 85.9498 1.43684 3.60953 0
M  V30 783 H 87.6218 3.83068 2.57015 0
M  V30 784 H 85.8648 3.64052 2.35899 0
M  V30 785 H 86.5358 3.82217 3.98264 0
M  V30 786 H 89.0118 1.91719 3.69301 0
M  V30 787 H 87.8878 2.1266 5.06031 0
M  V30 788 H 88.1488 0.524161 4.38982 0
M  V30 789 N 87.2079 -1.17134 1.05439 0
M  V30 790 C 88.4539 -1.87979 0.776872 0
M  V30 791 C 88.8089 -1.7965 -0.688751 0
M  V30 792 O 88.1019 -1.19535 -1.4974 0
M  V30 793 C 88.2959 -3.36833 1.19491 0
M  V30 794 C 88.1249 -3.59653 2.69963 0
M  V30 795 C 86.8949 -3.76234 3.37307 0
M  V30 796 C 89.0929 -3.59091 3.68182 0
M  V30 797 N 87.0749 -3.86922 4.76618 0
M  V30 798 C 88.4459 -3.75659 4.93235 0
M  V30 799 C 90.5009 -3.42255 3.61616 0
M  V30 800 C 89.2039 -3.77133 6.12506 0
M  V30 801 C 91.2299 -3.45018 4.8033 0
M  V30 802 C 90.5919 -3.62096 6.04207 0
M  V30 803 H 86.6909 -0.705876 0.336546 0
M  V30 804 H 89.2749 -1.40602 1.34682 0
M  V30 805 H 87.4459 -3.82873 0.652884 0
M  V30 806 H 89.1779 -3.95305 0.866966 0
M  V30 807 H 85.9329 -3.76193 2.87708 0
M  V30 808 H 86.3569 -3.96055 5.49062 0
M  V30 809 H 90.9989 -3.27986 2.66805 0
M  V30 810 H 88.7169 -3.90186 7.07659 0
M  V30 811 H 92.3029 -3.33246 4.76905 0
M  V30 812 H 91.1829 -3.64142 6.94529 0
M  V30 813 N 88.686 -0.835752 -1.33615 0
M  V30 814 C 89.911 -0.442389 -2.02627 0
M  V30 815 C 90.336 0.947735 -1.62479 0
M  V30 816 O 89.694 1.61907 -0.815826 0
M  V30 817 C 89.742 -0.567216 -3.56111 0
M  V30 818 O 88.846 0.407799 -4.10379 0
M  V30 819 H 88.187 -0.180278 -0.639059 0
M  V30 820 H 90.717 -1.12972 -1.70583 0
M  V30 821 H 90.727 -0.447708 -4.05536 0
M  V30 822 H 89.402 -1.58103 -3.84677 0
M  V30 823 H 87.979 0.246107 -3.72087 0
M  V30 824 N 90.1641 1.46063 -0.591896 0
M  V30 825 C 91.4101 2.03203 -0.0894879 0
M  V30 826 C 91.7651 1.45407 1.25994 0
M  V30 827 O 91.0581 0.61326 1.8152 0
M  V30 828 C 91.2521 3.57391 0.0249813 0
M  V30 829 C 91.0811 4.30142 -1.3118 0
M  V30 830 C 89.8511 4.68688 -1.88838 0
M  V30 831 C 92.0491 4.63098 -2.23708 0
M  V30 832 N 90.0311 5.26228 -3.1616 0
M  V30 833 C 91.4021 5.21305 -3.3562 0
M  V30 834 C 93.4571 4.45031 -2.23274 0
M  V30 835 C 92.1601 5.63351 -4.47245 0
M  V30 836 C 94.1861 4.881 -3.33935 0
M  V30 837 C 93.5481 5.46386 -4.44569 0
M  V30 838 H 89.6471 0.778323 -0.0757431 0
M  V30 839 H 92.2311 1.78094 -0.78681 0
M  V30 840 H 90.4021 3.82195 0.69149 0
M  V30 841 H 92.1341 4.0118 0.532613 0
M  V30 842 H 88.8891 4.5174 -1.42223 0
M  V30 843 H 89.3131 5.59512 -3.8115 0
M  V30 844 H 93.9551 3.99295 -1.39008 0
M  V30 845 H 91.6731 6.08061 -5.32247 0
M  V30 846 H 95.2591 4.75866 -3.34728 0
M  V30 847 H 94.1391 5.79102 -5.28782 0
M  V30 848 N 91.6422 0.330177 1.54103 0
M  V30 849 C 92.5742 -0.566902 2.22079 0
M  V30 850 C 93.5872 -1.07462 1.22294 0
M  V30 851 O 94.7762 -0.987065 1.48726 0
M  V30 852 C 91.8762 -1.79138 2.87685 0
M  V30 853 C 91.0492 -1.42123 4.13666 0
M  V30 854 C 90.1082 -2.50394 4.62806 0
M  V30 855 O 89.1342 -2.14261 5.27334 0
M  V30 856 N 90.3362 -3.81433 4.37595 0
M  V30 857 H 93.1012 0.0151844 2.99696 0
M  V30 858 H 90.6622 0.153681 1.61169 0
M  V30 859 H 92.6542 -2.50975 3.1748 0
M  V30 860 H 91.2242 -2.28115 2.13734 0
M  V30 861 H 90.4442 -0.534201 3.90564 0
M  V30 862 H 91.7322 -1.14971 4.9564 0
M  V30 863 H 91.1302 -4.13584 3.8596 0
M  V30 864 H 89.6872 -4.4948 4.72029 0
M  V30 865 N 93.1203 -1.57491 0.0584922 0
M  V30 866 C 94.3483 -1.97296 -0.623037 0
M  V30 867 C 94.7633 -0.936338 -1.63946 0
M  V30 868 O 94.1203 0.0785981 -1.82331 0
M  V30 869 C 94.1713 -3.37183 -1.30345 0
M  V30 870 O 93.8923 -4.36872 -0.32773 0
M  V30 871 C 95.3933 -3.91788 -2.07406 0
M  V30 872 H 92.6133 -0.649153 -0.169826 0
M  V30 873 H 95.1573 -2.04106 0.12696 0
M  V30 874 H 93.3123 -3.31502 -2.00463 0
M  V30 875 H 93.7263 -5.18141 -0.814269 0
M  V30 876 H 95.2003 -4.91926 -2.50425 0
M  V30 877 H 95.6773 -3.27609 -2.92521 0
M  V30 878 H 96.2833 -4.00829 -1.42184 0
M  V30 879 N 94.5984 0.214957 -1.56127 0
M  V30 880 C 95.8464 0.936518 -1.79091 0
M  V30 881 C 96.1674 1.84606 -0.628148 0
M  V30 882 O 95.4374 1.92664 0.35462 0
M  V30 883 H 94.0174 0.3488 -0.660566 0
M  V30 884 H 96.6794 0.22523 -1.93594 0
M  V30 885 H 95.7754 1.53943 -2.71492 0
M  V30 886 N 96.0765 1.50051 0.48192 0
M  V30 887 C 97.4875 1.5348 1.06305 0
M  V30 888 C 97.8385 0.331997 1.93371 0
M  V30 889 O 96.9635 -0.556256 2.09129 0
M  V30 890 C 97.5585 2.7813 1.93466 0
M  V30 891 C 96.1175 2.84275 2.46707 0
M  V30 892 C 95.2645 2.47637 1.24785 0
M  V30 893 H 98.2155 1.56472 0.264995 0
M  V30 894 H 98.2365 2.59372 2.78399 0
M  V30 895 H 97.7485 3.65654 1.30072 0
M  V30 896 H 95.8495 2.01077 3.13686 0
M  V30 897 H 95.9625 3.8691 2.82555 0
M  V30 898 H 94.3265 1.99835 1.57918 0
M  V30 899 H 95.1095 3.37457 0.630694 0
M  V30 900 N 97.5546 -0.734337 1.39446 0
M  V30 901 C 98.4646 -1.87879 1.40495 0
M  V30 902 C 99.4806 -1.714 0.299672 0
M  V30 903 O 100.657 -1.93991 0.541249 0
M  V30 904 C 97.7216 -3.23477 1.24754 0
M  V30 905 C 96.7826 -3.52344 2.45259 0
M  V30 906 C 96.0156 -4.81473 2.30259 0
M  V30 907 O 96.2386 -5.55237 1.30643 0
M  V30 908 O 95.1726 -5.10254 3.19256 0
M  V30 909 H 98.9986 -1.89949 2.36966 0
M  V30 910 H 96.5836 -0.882243 1.20569 0
M  V30 911 H 98.4656 -4.04509 1.18111 0
M  V30 912 H 97.1406 -3.22176 0.313781 0
M  V30 913 H 96.0476 -2.71396 2.57478 0
M  V30 914 H 97.3806 -3.58426 3.37331 0
M  V30 915 N 99.0327 -1.24633 -0.964593 0
M  V30 916 C 99.9627 -1.06611 -2.07741 0
M  V30 917 C 100.944 0.0218666 -1.70086 0
M  V30 918 O 102.129 -0.145793 -1.93652 0
M  V30 919 C 99.2587 -0.673444 -3.40708 0
M  V30 920 C 98.2127 -1.71054 -3.92332 0
M  V30 921 C 97.5387 -1.17285 -5.21678 0
M  V30 922 C 98.8387 -3.10718 -4.19824 0
M  V30 923 H 100.533 -1.99693 -2.23076 0
M  V30 924 H 98.0787 -0.96152 -1.07195 0
M  V30 925 H 100.032 -0.534345 -4.17998 0
M  V30 926 H 98.7557 0.293073 -3.25282 0
M  V30 927 H 97.4147 -1.83791 -3.17201 0
M  V30 928 H 97.0627 -0.196847 -5.02615 0
M  V30 929 H 96.7627 -1.86592 -5.57187 0
M  V30 930 H 98.2867 -1.04593 -6.01575 0
M  V30 931 H 99.7007 -3.01192 -4.87808 0
M  V30 932 H 98.0977 -3.77406 -4.66567 0
M  V30 933 H 99.1677 -3.58524 -3.26479 0
M  V30 934 N 100.511 1.16574 -1.06058 0
M  V30 935 C 101.443 2.2045 -0.627239 0
M  V30 936 C 102.456 1.59752 0.313534 0
M  V30 937 O 103.645 1.78192 0.104896 0
M  V30 938 C 100.745 3.3875 0.100974 0
M  V30 939 C 99.9178 4.29008 -0.852687 0
M  V30 940 C 98.9768 5.25944 -0.164152 0
M  V30 941 O 98.0028 5.63535 -0.801047 0
M  V30 942 N 99.2048 5.70075 1.09518 0
M  V30 943 H 101.97 2.58249 -1.52077 0
M  V30 944 H 99.5308 1.3156 -0.943594 0
M  V30 945 H 101.523 4.00638 0.57194 0
M  V30 946 H 100.093 2.99476 0.89628 0
M  V30 947 H 99.3128 3.64419 -1.50308 0
M  V30 948 H 100.601 4.86195 -1.49972 0
M  V30 949 H 99.9988 5.41624 1.6328 0
M  V30 950 H 98.5558 6.34067 1.51006 0
M  V30 951 N 101.989 0.842826 1.3317 0
M  V30 952 C 103.266 0.362216 1.92217 0
M  V30 953 C 103.646 -1.15289 1.76838 0
M  V30 954 O 102.994 -1.96914 1.15919 0
M  V30 955 C 103.204 0.813495 3.39387 0
M  V30 956 C 104.552 0.823804 4.16532 0
M  V30 957 O 105.576 0.757358 3.48055 0
M  V30 958 O 104.435 0.915193 5.38782 0
M  V30 959 H 101.529 0.103317 0.820521 0
M  V30 960 H 104.075 0.928942 1.42017 0
M  V30 961 H 102.847 1.85624 3.4447 0
M  V30 962 H 102.47 0.223561 3.96971 0
M  V30 963 N 103.467 -1.45747 0.599634 0
M  V30 964 C 104.713 -2.02592 0.0918643 0
M  V30 965 C 105.046 -1.46806 -1.27128 0
M  V30 966 O 104.321 -0.639658 -1.83681 0
M  V30 967 C 104.604 -3.60073 0.0443398 0
M  V30 968 C 104.457 -4.26208 1.43759 0
M  V30 969 C 105.776 -4.35309 -0.647608 0
M  V30 970 H 102.895 -0.736175 0.034857 0
M  V30 971 H 105.537 -1.73694 0.770081 0
M  V30 972 H 103.687 -3.84823 -0.533224 0
M  V30 973 H 105.359 -4.12668 2.06162 0
M  V30 974 H 103.602 -3.84916 2.00056 0
M  V30 975 H 104.273 -5.35069 1.35665 0
M  V30 976 H 106.749 -4.15805 -0.156776 0
M  V30 977 H 105.625 -5.45038 -0.649942 0
M  V30 978 H 105.886 -4.07598 -1.71219 0
M  V30 979 N 104.945 -0.338344 -1.53925 0
M  V30 980 C 105.892 0.520845 -2.24846 0
M  V30 981 C 106.862 1.09976 -1.24477 0
M  V30 982 O 108.047 1.13735 -1.53196 0
M  V30 983 C 105.187 1.6685 -3.02084 0
M  V30 984 C 104.3 1.11739 -4.17299 0
M  V30 985 C 103.435 2.23193 -4.82036 0
M  V30 986 C 102.474 1.65407 -5.89328 0
M  V30 987 N 101.611 2.70582 -6.47866 0
M  V30 988 H 106.451 -0.0904881 -2.97863 0
M  V30 989 H 103.988 -0.0564282 -1.46992 0
M  V30 990 H 105.946 2.34407 -3.45122 0
M  V30 991 H 104.576 2.2509 -2.31375 0
M  V30 992 H 103.628 0.332919 -3.7894 0
M  V30 993 H 104.94 0.654677 -4.94485 0
M  V30 994 H 104.094 2.98626 -5.28117 0
M  V30 995 H 102.833 2.72807 -4.04262 0
M  V30 996 H 101.838 0.884779 -5.42634 0
M  V30 997 H 103.063 1.16652 -6.69006 0
M  V30 998 H 101.009 3.1946 -5.72959 0
M  V30 999 H 100.926 2.28917 -7.20509 0
M  V30 1000 H 102.194 3.45799 -6.98601 0
M  V30 1001 N 106.423 1.57458 -0.0668435 0
M  V30 1002 C 107.355 2.09413 0.931601 0
M  V30 1003 C 108.368 1.02522 1.26464 0
M  V30 1004 O 109.557 1.30049 1.22269 0
M  V30 1005 C 106.657 2.53537 2.24882 0
M  V30 1006 C 105.83 3.83944 2.09537 0
M  V30 1007 C 104.889 4.14214 3.2452 0
M  V30 1008 O 103.915 4.83891 2.9973 0
M  V30 1009 N 105.117 3.67367 4.49469 0
M  V30 1010 H 107.882 2.95699 0.488048 0
M  V30 1011 H 105.443 1.61462 0.119009 0
M  V30 1012 H 107.435 2.70853 3.00701 0
M  V30 1013 H 106.005 1.72415 2.60753 0
M  V30 1014 H 105.225 3.76057 1.18215 0
M  V30 1015 H 106.513 4.69312 1.96529 0
M  V30 1016 H 105.911 3.11068 4.72497 0
M  V30 1017 H 104.468 3.89891 5.2233 0
M  V30 1018 N 107.901 -0.206675 1.56239 0
M  V30 1019 C 109.15 -0.926964 1.79138 0
M  V30 1020 C 109.463 -1.84901 0.638043 0
M  V30 1021 O 110.669 -2.60906 0.751033 0
M  V30 1022 C 109.125 -1.6986 3.17294 0
M  V30 1023 C 108.733 -0.821956 4.40395 0
M  V30 1024 C 110.477 -2.40922 3.4951 0
M  V30 1025 C 108.384 -1.59179 5.69575 0
M  V30 1026 H 107.314 -0.349864 0.667915 0
M  V30 1027 H 109.965 -0.180487 1.8261 0
M  V30 1028 H 108.347 -2.48853 3.08039 0
M  V30 1029 H 109.521 -0.0715019 4.60745 0
M  V30 1030 H 107.836 -0.222741 4.15804 0
M  V30 1031 H 110.433 -2.99047 4.43255 0
M  V30 1032 H 110.776 -3.14542 2.72707 0
M  V30 1033 H 111.309 -1.68905 3.60161 0
M  V30 1034 H 108.048 -0.898589 6.49312 0
M  V30 1035 H 107.568 -2.31648 5.53262 0
M  V30 1036 H 109.247 -2.14862 6.10281 0
M  V30 1037 N 109.379 -1.50304 -0.473955 0
M  V30 1038 C 110.342 -1.6841 -1.55469 0
M  V30 1039 C 111.342 -0.554905 -1.50922 0
M  V30 1040 O 112.532 -0.821882 -1.53593 0
M  V30 1041 C 109.664 -1.70667 -2.95102 0
M  V30 1042 H 110.857 -2.64828 -1.40733 0
M  V30 1043 H 108.41 -1.39742 -0.700132 0
M  V30 1044 H 109.145 -0.75932 -3.15285 0
M  V30 1045 H 108.93 -2.52698 -2.9981 0
M  V30 1046 H 110.42 -1.8664 -3.73571 0
M  V30 1047 N 110.857 0.726932 -1.39834 0
M  V30 1048 C 111.82 1.82269 -1.38962 0
M  V30 1049 C 112.82 1.58248 -0.285334 0
M  V30 1050 O 114.01 1.65499 -0.54366 0
M  V30 1051 C 111.142 3.20186 -1.17019 0
M  V30 1052 H 112.335 1.84443 -2.36476 0
M  V30 1053 H 109.888 0.931416 -1.25516 0
M  V30 1054 H 110.623 3.23669 -0.202204 0
M  V30 1055 H 110.408 3.3902 -1.96998 0
M  V30 1056 H 111.898 4.00235 -1.1917 0
M  V30 1057 N 112.336 1.25143 0.95797 0
M  V30 1058 C 113.268 1.01023 2.05735 0
M  V30 1059 C 114.281 -0.0236902 1.62783 0
M  V30 1060 O 115.47 0.21448 1.77207 0
M  V30 1061 C 112.57 0.504595 3.35122 0
M  V30 1062 C 111.743 1.6039 4.06932 0
M  V30 1063 C 110.802 1.09922 5.14591 0
M  V30 1064 O 109.828 1.79293 5.40225 0
M  V30 1065 N 111.03 -0.0612545 5.80468 0
M  V30 1066 H 113.795 1.95683 2.26998 0
M  V30 1067 H 111.356 1.16303 1.12629 0
M  V30 1068 H 113.348 0.151516 4.04416 0
M  V30 1069 H 111.918 -0.347989 3.10657 0
M  V30 1070 H 111.138 2.12872 3.31782 0
M  V30 1071 H 112.426 2.34252 4.51667 0
M  V30 1072 H 111.824 -0.640985 5.62057 0
M  V30 1073 H 110.381 -0.355395 6.5083 0
M  V30 1074 N 113.814 -1.1601 1.06675 0
M  V30 1075 C 115.06 -1.87145 0.796766 0
M  V30 1076 C 115.415 -1.8037 -0.669658 0
M  V30 1077 O 114.708 -1.21116 -1.48463 0
M  V30 1078 C 114.902 -3.35547 1.23057 0
M  V30 1079 C 114.731 -3.56769 2.73762 0
M  V30 1080 C 113.501 -3.72635 3.41279 0
M  V30 1081 C 115.699 -3.55166 3.7197 0
M  V30 1082 N 113.681 -3.81845 4.80695 0
M  V30 1083 C 115.052 -3.70406 4.97191 0
M  V30 1084 C 117.107 -3.384 3.65226 0
M  V30 1085 C 115.81 -3.70615 6.16471 0
M  V30 1086 C 117.836 -3.39904 4.83962 0
M  V30 1087 C 117.198 -3.55667 6.08013 0
M  V30 1088 H 113.297 -0.702267 0.344014 0
M  V30 1089 H 115.881 -1.39165 1.36166 0
M  V30 1090 H 114.052 -3.82159 0.693456 0
M  V30 1091 H 115.784 -3.94363 0.908844 0
M  V30 1092 H 112.539 -3.73121 2.91681 0
M  V30 1093 H 112.963 -3.90209 5.53232 0
M  V30 1094 H 117.605 -3.25138 2.70269 0
M  V30 1095 H 115.323 -3.82658 7.11757 0
M  V30 1096 H 118.909 -3.28169 4.80413 0
M  V30 1097 H 117.789 -3.56755 6.98352 0
M  V30 1098 N 115.292 -0.849877 -1.32721 0
M  V30 1099 C 116.255 -0.296122 -2.27279 0
M  V30 1100 C 117.255 0.541458 -1.5141 0
M  V30 1101 O 118.445 0.353658 -1.70572 0
M  V30 1102 C 115.577 0.581579 -3.35902 0
M  V30 1103 H 116.77 -1.13064 -2.77771 0
M  V30 1104 H 114.323 -0.62383 -1.43311 0
M  V30 1105 H 115.058 1.43809 -2.9067 0
M  V30 1106 H 114.843 -0.0178814 -3.92096 0
M  V30 1107 H 116.333 0.961951 -4.0637 0
M  V30 1108 N 116.77 1.45427 -0.607355 0
M  V30 1109 C 117.717 2.3053 0.111625 0
M  V30 1110 C 118.687 1.4209 0.860216 0
M  V30 1111 O 119.872 1.71019 0.845998 0
M  V30 1112 C 117.012 3.26992 1.10319 0
M  V30 1113 C 116.125 4.30535 0.355493 0
M  V30 1114 C 115.26 5.14105 1.33676 0
M  V30 1115 C 114.299 6.09376 0.576862 0
M  V30 1116 N 113.436 6.85727 1.5074 0
M  V30 1117 H 118.276 2.91477 -0.620093 0
M  V30 1118 H 115.813 1.43631 -0.317594 0
M  V30 1119 H 117.771 3.81385 1.6912 0
M  V30 1120 H 116.401 2.67799 1.80232 0
M  V30 1121 H 115.453 3.78805 -0.348023 0
M  V30 1122 H 116.765 4.98235 -0.237423 0
M  V30 1123 H 115.919 5.72897 1.99684 0
M  V30 1124 H 114.658 4.46423 1.9636 0
M  V30 1125 H 113.663 5.49715 -0.0968519 0
M  V30 1126 H 114.888 6.79085 -0.0449341 0
M  V30 1127 H 112.834 6.20735 2.12189 0
M  V30 1128 H 112.751 7.49778 0.967913 0
M  V30 1129 H 114.019 7.4906 2.15706 0
M  V30 1130 N 118.248 0.346503 1.53744 0
M  V30 1131 C 119.211 -0.496439 2.23759 0
M  V30 1132 C 120.211 -1.0252 1.2388 0
M  V30 1133 O 121.401 -0.913974 1.48297 0
M  V30 1134 C 118.533 -1.69187 2.95954 0
M  V30 1135 H 119.726 0.115952 2.99676 0
M  V30 1136 H 117.279 0.0978939 1.55993 0
M  V30 1137 H 118.014 -2.34288 2.24231 0
M  V30 1138 H 117.799 -1.31989 3.69217 0
M  V30 1139 H 119.289 -2.28969 3.49232 0
M  V30 1140 N 119.726 -1.57421 0.075193 0
M  V30 1141 C 120.676 -2.09441 -0.901025 0
M  V30 1142 C 121.66 -1.00486 -1.25663 0
M  V30 1143 O 122.852 -1.2679 -1.23504 0
M  V30 1144 C 119.981 -2.66233 -2.16737 0
M  V30 1145 C 119.067 -3.82198 -1.83808 0
M  V30 1146 N 119.458 -4.91028 -1.21345 0
M  V30 1147 C 117.756 -3.91558 -2.13538 0
M  V30 1148 C 118.457 -5.71852 -1.06585 0
M  V30 1149 N 117.433 -5.20233 -1.57667 0
M  V30 1150 H 121.235 -2.90972 -0.413815 0
M  V30 1151 H 118.749 -1.6189 -0.128601 0
M  V30 1152 H 120.746 -3.01819 -2.87595 0
M  V30 1153 H 119.406 -1.8615 -2.66042 0
M  V30 1154 H 120.417 -5.10323 -0.88268 0
M  V30 1155 H 117.094 -3.22454 -2.65197 0
M  V30 1156 H 118.484 -6.69401 -0.578933 0
M  V30 1157 N 121.204 0.198386 -1.56346 0
M  V30 1158 C 122.452 0.91747 -1.80075 0
M  V30 1159 C 122.773 1.83929 -0.647692 0
M  V30 1160 O 122.043 1.93029 0.334166 0
M  V30 1161 H 120.623 0.341774 -0.664228 0
M  V30 1162 H 123.285 0.204684 -1.93822 0
M  V30 1163 H 122.381 1.51055 -2.7311 0
M  V30 1164 N 122.682 1.50554 0.465978 0
M  V30 1165 C 123.959 1.5232 1.22712 0
M  V30 1166 C 124.339 0.270807 2.09356 0
M  V30 1167 O 123.687 -0.745541 2.15995 0
M  V30 1168 C 123.897 2.82175 2.05374 0
M  V30 1169 C 125.245 3.33033 2.6339 0
M  V30 1170 O 126.269 2.83531 2.15612 0
M  V30 1171 O 125.128 4.19336 3.50456 0
M  V30 1172 H 122.222 0.611183 0.557122 0
M  V30 1173 H 124.768 1.62847 0.477381 0
M  V30 1174 H 123.54 3.64797 1.41558 0
M  V30 1175 H 123.163 2.74675 2.87471 0
M  V30 1176 N 124.16 -0.719506 1.40217 0
M  V30 1177 C 125.107 -1.83359 1.40172 0
M  V30 1178 C 126.077 -1.64065 0.259206 0
M  V30 1179 O 127.262 -1.85254 0.456677 0
M  V30 1180 C 124.402 -3.2103 1.26624 0
M  V30 1181 C 123.515 -3.51923 2.50548 0
M  V30 1182 C 122.65 -4.79079 2.29471 0
M  V30 1183 C 121.689 -5.02863 3.48992 0
M  V30 1184 N 120.826 -6.2123 3.27135 0
M  V30 1185 H 125.666 -1.82733 2.35399 0
M  V30 1186 H 123.203 -0.892688 1.16917 0
M  V30 1187 H 125.161 -4.00524 1.16776 0
M  V30 1188 H 123.791 -3.20895 0.350176 0
M  V30 1189 H 122.843 -2.67014 2.70939 0
M  V30 1190 H 124.155 -3.6541 3.39525 0
M  V30 1191 H 123.309 -5.66582 2.16955 0
M  V30 1192 H 122.048 -4.67794 1.37913 0
M  V30 1193 H 121.053 -4.13816 3.6199 0
M  V30 1194 H 122.278 -5.16023 4.41472 0
M  V30 1195 H 120.224 -6.11204 2.38256 0
M  V30 1196 H 120.141 -6.35375 4.09675 0
M  V30 1197 H 121.409 -7.11532 3.18344 0
M  V30 1198 N 125.638 -1.25649 -0.95132 0
M  V30 1199 C 126.884 -1.10757 -1.69884 0
M  V30 1200 C 127.217 0.350061 -1.91019 0
M  V30 1201 O 126.492 1.25783 -1.48354 0
M  V30 1202 C 126.775 -1.86606 -3.07978 0
M  V30 1203 C 126.628 -3.40217 -2.94232 0
M  V30 1204 C 127.947 -1.65182 -4.07925 0
M  V30 1205 H 125.066 -0.40374 -0.616574 0
M  V30 1206 H 127.708 -1.54521 -1.10558 0
M  V30 1207 H 125.858 -1.49409 -3.58621 0
M  V30 1208 H 127.53 -3.87108 -2.50889 0
M  V30 1209 H 125.773 -3.67759 -2.30078 0
M  V30 1210 H 126.444 -3.88505 -3.92133 0
M  V30 1211 H 128.92 -1.9757 -3.66204 0
M  V30 1212 H 127.796 -2.20683 -5.02583 0
M  V30 1213 H 128.057 -0.593933 -4.38092 0
M  V30 1214 N 127.117 1.15442 -1.07289 0
M  V30 1215 C 128.366 1.85557 -0.790669 0
M  V30 1216 C 128.679 1.83186 0.685739 0
M  V30 1217 O 129.885 2.48977 1.0827 0
M  V30 1218 C 128.341 3.33038 -1.36433 0
M  V30 1219 C 127.949 3.43856 -2.8717 0
M  V30 1220 C 129.693 4.0834 -1.1601 0
M  V30 1221 C 127.6 4.85482 -3.3773 0
M  V30 1222 H 126.53 0.695122 -0.292098 0
M  V30 1223 H 129.181 1.30219 -1.29287 0
M  V30 1224 H 127.563 3.88043 -0.789864 0
M  V30 1225 H 128.737 2.98961 -3.50655 0
M  V30 1226 H 127.052 2.81998 -3.06376 0
M  V30 1227 H 129.649 5.12859 -1.51262 0
M  V30 1228 H 129.992 4.16182 -0.0991007 0
M  V30 1229 H 130.525 3.59603 -1.70089 0
M  V30 1230 H 127.264 4.82823 -4.43353 0
M  V30 1231 H 126.784 5.30961 -2.78999 0
M  V30 1232 H 128.463 5.54335 -3.33648 0
M  V30 1233 N 128.595 0.856903 1.32268 0
M  V30 1234 C 129.841 0.462069 1.97466 0
M  V30 1235 C 130.174 -0.980298 1.67642 0
M  V30 1236 O 129.449 -1.68824 0.965858 0
M  V30 1237 C 129.732 0.704336 3.53145 0
M  V30 1238 C 129.585 2.19529 3.9259 0
M  V30 1239 C 130.904 0.1622 4.39801 0
M  V30 1240 H 128.023 0.169357 0.717278 0
M  V30 1241 H 130.665 1.07574 1.56614 0
M  V30 1242 H 128.815 0.181999 3.88073 0
M  V30 1243 H 130.487 2.78387 3.67829 0
M  V30 1244 H 128.73 2.67292 3.41668 0
M  V30 1245 H 129.401 2.31549 5.01088 0
M  V30 1246 H 131.877 0.608905 4.11621 0
M  V30 1247 H 130.753 0.361265 5.4771 0
M  V30 1248 H 131.014 -0.935158 4.32096 0
M  V30 1249 N 130.073 -1.45103 0.615059 0
M  V30 1250 C 131.319 -2.02483 0.113347 0
M  V30 1251 C 131.652 -1.48146 -1.25564 0
M  V30 1252 O 130.927 -0.659104 -1.82992 0
M  V30 1253 C 131.21 -3.60005 0.0825278 0
M  V30 1254 C 131.063 -4.2466 1.48271 0
M  V30 1255 C 132.382 -4.35972 -0.601401 0
M  V30 1256 H 129.501 -0.735764 0.0426632 0
M  V30 1257 H 132.143 -1.72868 0.788461 0
M  V30 1258 H 130.293 -3.85367 -0.492378 0
M  V30 1259 H 131.965 -4.10458 2.10527 0
M  V30 1260 H 130.208 -3.82772 2.04127 0
M  V30 1261 H 130.879 -5.336 1.41332 0
M  V30 1262 H 133.355 -4.15947 -0.112666 0
M  V30 1263 H 132.231 -5.45697 -0.592097 0
M  V30 1264 H 132.492 -4.09391 -1.66887 0
M  V30 1265 N 131.551 -0.354651 -1.53558 0
M  V30 1266 C 132.828 0.294281 -1.93374 0
M  V30 1267 C 133.208 1.67313 -1.28723 0
M  V30 1268 O 132.556 2.24179 -0.442247 0
M  V30 1269 C 132.766 0.355445 -3.47185 0
M  V30 1270 C 134.114 0.601007 -4.20325 0
M  V30 1271 O 135.138 0.437106 -3.53508 0
M  V30 1272 O 133.997 0.919322 -5.38712 0
M  V30 1273 H 131.091 0.174033 -0.808481 0
M  V30 1274 H 133.637 -0.406638 -1.64756 0
M  V30 1275 H 132.409 -0.611729 -3.86489 0
M  V30 1276 H 132.032 1.1027 -3.82003 0
M  V30 1277 N 133.029 1.57378 -0.0835403 0
M  V30 1278 C 133.961 2.10389 0.909338 0
M  V30 1279 C 134.974 1.03858 1.25369 0
M  V30 1280 O 136.163 1.31338 1.20882 0
M  V30 1281 C 133.263 2.55908 2.2218 0
M  V30 1282 C 132.436 3.86145 2.05453 0
M  V30 1283 C 131.495 4.17633 3.20108 0
M  V30 1284 O 130.521 4.87043 2.94581 0
M  V30 1285 N 131.723 3.72113 4.45547 0
M  V30 1286 H 134.488 2.962 0.456657 0
M  V30 1287 H 132.049 1.61579 0.101877 0
M  V30 1288 H 134.041 2.74027 2.97811 0
M  V30 1289 H 132.611 1.75171 2.58909 0
M  V30 1290 H 131.831 3.7729 1.1422 0
M  V30 1291 H 133.119 4.7137 1.91541 0
M  V30 1292 H 132.517 3.16062 4.69171 0
M  V30 1293 H 131.074 3.95409 5.18165 0
M  V30 1294 N 134.507 -0.190092 1.56449 0
M  V30 1295 C 135.732 -0.929864 1.85387 0
M  V30 1296 C 136.157 -1.7585 0.667704 0
M  V30 1297 O 135.515 -1.77198 -0.383459 0
M  V30 1298 C 135.563 -1.79773 3.12593 0
M  V30 1299 O 134.667 -2.89713 2.93496 0
M  V30 1300 H 134.008 -0.261574 0.610307 0
M  V30 1301 H 136.538 -0.193896 2.03679 0
M  V30 1302 H 136.548 -2.20139 3.43515 0
M  V30 1303 H 135.223 -1.18892 3.98544 0
M  V30 1304 H 133.8 -2.53065 2.73884 0
M  V30 1305 N 135.985 -1.50799 -0.457987 0
M  V30 1306 C 137.21 -1.66496 -1.23668 0
M  V30 1307 C 137.635 -0.353288 -1.84752 0
M  V30 1308 O 136.993 0.684346 -1.67888 0
M  V30 1309 C 137.041 -2.76763 -2.3116 0
M  V30 1310 O 136.145 -2.38928 -3.36136 0
M  V30 1311 H 135.486 -0.555828 -0.363252 0
M  V30 1312 H 138.016 -1.9725 -0.543474 0
M  V30 1313 H 138.026 -3.00232 -2.76269 0
M  V30 1314 H 136.701 -3.71954 -1.86073 0
M  V30 1315 H 135.278 -2.25953 -2.96647 0
M  V30 1316 N 137.463 0.71206 -1.40597 0
M  V30 1317 C 138.411 1.84746 -1.41321 0
M  V30 1318 C 139.405 1.66842 -0.293268 0
M  V30 1319 O 140.611 1.73904 -0.464481 0
M  V30 1320 H 136.986 0.608522 -0.441819 0
M  V30 1321 H 138.957 1.81252 -2.37045 0
M  V30 1322 C 137.706 3.22638 -1.29614 0
M  V30 1323 H 137.029 3.37023 -2.15071 0
M  V30 1324 H 138.469 4.02209 -1.3418 0
M  V30 1325 C 136.928 3.36899 -0.00673121 0
M  V30 1326 O 137.458 3.90186 0.954859 0
M  V30 1327 N 135.664 2.9053 0.0639327 0
M  V30 1328 H 135.211 2.47353 -0.719311 0
M  V30 1329 H 135.169 3.0045 0.926118 0
M  V30 1330 N 138.941 1.26152 0.944643 0
M  V30 1331 C 140.352 1.10454 1.50522 0
M  V30 1332 C 140.703 -0.31635 1.93633 0
M  V30 1333 O 139.828 -1.20746 1.79581 0
M  V30 1334 C 140.423 1.99891 2.73549 0
M  V30 1335 C 138.982 1.88348 3.25886 0
M  V30 1336 C 138.129 1.93447 1.9868 0
M  V30 1337 H 141.08 1.39292 0.760489 0
M  V30 1338 H 141.101 1.54477 3.47732 0
M  V30 1339 H 140.613 3.03297 2.42141 0
M  V30 1340 H 138.714 0.878636 3.62092 0
M  V30 1341 H 138.827 2.73696 3.93227 0
M  V30 1342 H 137.191 1.37456 2.14425 0
M  V30 1343 H 137.974 2.98476 1.69607 0
M  V30 1344 N 140.419 -1.14872 1.07899 0
M  V30 1345 C 141.366 -2.19791 0.704319 0
M  V30 1346 C 142.336 -1.63238 -0.306987 0
M  V30 1347 O 143.521 -1.8983 -0.192171 0
M  V30 1348 C 140.661 -3.44911 0.114244 0
M  V30 1349 C 139.774 -4.15637 1.1777 0
M  V30 1350 C 138.909 -5.28324 0.552037 0
M  V30 1351 C 137.948 -5.90875 1.59789 0
M  V30 1352 N 137.085 -6.95022 0.994404 0
M  V30 1353 H 141.925 -2.5119 1.60336 0
M  V30 1354 H 139.462 -1.23356 0.801352 0
M  V30 1355 H 141.42 -4.16477 -0.245544 0
M  V30 1356 H 140.05 -3.14011 -0.74813 0
M  V30 1357 H 139.102 -3.42512 1.65499 0
M  V30 1358 H 140.414 -4.5823 1.97046 0
M  V30 1359 H 139.568 -6.06538 0.1402 0
M  V30 1360 H 138.307 -4.86939 -0.272431 0
M  V30 1361 H 137.312 -5.11369 2.01945 0
M  V30 1362 H 138.537 -6.34337 2.42474 0
M  V30 1363 H 136.483 -6.55722 0.190939 0
M  V30 1364 H 136.4 -7.36073 1.72432 0
M  V30 1365 H 137.668 -7.77123 0.608253 0
M  V30 1366 N 141.898 -0.863906 -1.31812 0
M  V30 1367 C 143.146 -0.470904 -1.96537 0
M  V30 1368 C 143.467 0.978771 -1.68657 0
M  V30 1369 O 142.737 1.6853 -0.998717 0
M  V30 1370 H 141.317 -0.171148 -0.72713 0
M  V30 1371 H 143.979 -1.10236 -1.60729 0
M  V30 1372 H 143.075 -0.623616 -3.05806 0
M  V30 1373 N 143.376 1.44774 -0.622745 0
M  V30 1374 C 144.623 2.02121 -0.1239 0
M  V30 1375 C 144.951 1.48915 1.25118 0
M  V30 1376 O 144.206 0.660045 1.84233 0
M  V30 1377 C 144.505 3.57364 -0.0508323 0
M  V30 1378 C 144.171 4.29787 -1.36358 0
M  V30 1379 C 142.833 4.4929 -1.72314 0
M  V30 1380 C 145.185 4.71062 -2.23048 0
M  V30 1381 C 142.513 5.07325 -2.94682 0
M  V30 1382 C 144.865 5.30452 -3.44679 0
M  V30 1383 C 143.529 5.48175 -3.80868 0
M  V30 1384 H 142.799 0.739612 -0.0453381 0
M  V30 1385 H 145.446 1.73648 -0.807389 0
M  V30 1386 H 143.751 3.85202 0.715991 0
M  V30 1387 H 145.448 3.99456 0.351533 0
M  V30 1388 H 142.038 4.14932 -1.07375 0
M  V30 1389 H 146.222 4.55715 -1.96565 0
M  V30 1390 H 141.478 5.19235 -3.22809 0
M  V30 1391 H 145.652 5.61385 -4.12092 0
M  V30 1392 H 143.279 5.92912 -4.75773 0
M  V30 1393 N 144.854 0.36279 1.53368 0
M  V30 1394 C 145.786 -0.519668 2.23231 0
M  V30 1395 C 146.799 -1.04844 1.24546 0
M  V30 1396 O 147.988 -0.955296 1.50786 0
M  V30 1397 C 145.088 -1.72995 2.9142 0
M  V30 1398 C 144.261 -1.33316 4.16588 0
M  V30 1399 C 143.32 -2.40521 4.68013 0
M  V30 1400 O 142.346 -2.03027 5.3176 0
M  V30 1401 N 143.548 -3.72065 4.45587 0
M  V30 1402 H 146.313 0.078751 2.99597 0
M  V30 1403 H 143.874 0.187833 1.60807 0
M  V30 1404 H 145.866 -2.44184 3.22733 0
M  V30 1405 H 144.436 -2.2353 2.18525 0
M  V30 1406 H 143.656 -0.451236 3.91609 0
M  V30 1407 H 144.944 -1.04432 4.97967 0
M  V30 1408 H 144.342 -4.05304 3.94646 0
M  V30 1409 H 142.899 -4.39366 4.81457 0
M  V30 1410 N 146.332 -1.57332 0.0918853 0
M  V30 1411 C 147.579 -1.94236 -0.572577 0
M  V30 1412 C 147.907 -0.973398 -1.6839 0
M  V30 1413 O 147.162 0.00756912 -1.95699 0
M  V30 1414 C 147.461 -3.37689 -1.17051 0
M  V30 1415 C 147.127 -4.50527 -0.183304 0
M  V30 1416 C 145.789 -4.81119 0.0882276 0
M  V30 1417 C 148.141 -5.18883 0.49095 0
M  V30 1418 C 145.469 -5.77395 1.04076 0
M  V30 1419 C 147.821 -6.1618 1.43193 0
M  V30 1420 C 146.485 -6.45179 1.71173 0
M  V30 1421 H 145.755 -0.710762 -0.209521 0
M  V30 1422 H 148.402 -1.9077 0.167036 0
M  V30 1423 H 146.707 -3.37718 -1.9863 0
M  V30 1424 H 148.404 -3.63543 -1.69227 0
M  V30 1425 H 144.994 -4.26681 -0.405124 0
M  V30 1426 H 149.178 -4.95427 0.294312 0
M  V30 1427 H 144.434 -5.98179 1.26457 0
M  V30 1428 H 148.608 -6.68243 1.96023 0
M  V30 1429 H 146.235 -7.1959 2.4514 0
M  V30 1430 N 147.81 0.181792 -1.56548 0
M  V30 1431 C 149.04 0.914618 -1.85252 0
M  V30 1432 C 149.448 1.76791 -0.673914 0
M  V30 1433 O 148.791 1.80009 0.366416 0
M  V30 1434 C 148.853 1.85019 -3.08234 0
M  V30 1435 C 148.517 1.17754 -4.41569 0
M  V30 1436 C 149.514 0.548035 -5.17003 0
M  V30 1437 C 147.199 1.17742 -4.88305 0
M  V30 1438 C 149.193 -0.0726128 -6.37359 0
M  V30 1439 C 146.88 0.552946 -6.08593 0
M  V30 1440 C 147.878 -0.070978 -6.82963 0
M  V30 1441 O 147.566 -0.685635 -8.00971 0
M  V30 1442 H 147.298 0.271695 -0.618998 0
M  V30 1443 H 149.852 0.189944 -2.0452 0
M  V30 1444 H 148.082 2.61491 -2.84885 0
M  V30 1445 H 149.771 2.45195 -3.23472 0
M  V30 1446 H 150.537 0.540174 -4.81982 0
M  V30 1447 H 146.416 1.65246 -4.30366 0
M  V30 1448 H 149.96 -0.560213 -6.95347 0
M  V30 1449 H 145.857 0.558354 -6.43081 0
M  V30 1450 H 146.625 -0.58385 -8.16415 0
M  V30 1451 N 149.288 1.51039 0.449983 0
M  V30 1452 C 150.251 1.70863 1.5277 0
M  V30 1453 C 151.251 0.578846 1.5002 0
M  V30 1454 O 152.441 0.846213 1.52266 0
M  V30 1455 C 149.573 1.75341 2.9235 0
M  V30 1456 H 150.766 2.67034 1.36502 0
M  V30 1457 H 148.319 1.40838 0.677812 0
M  V30 1458 H 149.054 0.809383 3.14037 0
M  V30 1459 H 148.839 2.57436 2.95752 0
M  V30 1460 H 150.329 1.92559 3.70555 0
M  V30 1461 N 150.766 -0.704594 1.40972 0
M  V30 1462 C 151.994 -1.49354 1.43182 0
M  V30 1463 C 152.409 -1.88768 0.0345508 0
M  V30 1464 O 151.766 -1.56184 -0.944081 0
M  V30 1465 C 151.817 -2.76187 2.33244 0
M  V30 1466 O 151.538 -2.38436 3.67532 0
M  V30 1467 C 153.039 -3.7 2.44162 0
M  V30 1468 H 150.259 -0.460559 0.487982 0
M  V30 1469 H 152.803 -0.868261 1.85153 0
M  V30 1470 H 150.958 -3.34974 1.94606 0
M  V30 1471 H 151.372 -3.20126 4.15475 0
M  V30 1472 H 152.846 -4.55803 3.11364 0
M  V30 1473 H 153.323 -4.13867 1.47006 0
M  V30 1474 H 153.929 -3.17121 2.83398 0
M  V30 1475 N 152.244 -1.26651 -0.937939 0
M  V30 1476 C 153.207 -1.08546 -2.01867 0
M  V30 1477 C 154.207 -0.0327327 -1.60767 0
M  V30 1478 O 155.397 -0.276427 -1.71993 0
M  V30 1479 C 152.529 -0.651711 -3.34613 0
M  V30 1480 H 153.722 -2.04502 -2.1936 0
M  V30 1481 H 151.275 -1.09294 -1.11734 0
M  V30 1482 H 152.01 0.309696 -3.22818 0
M  V30 1483 H 151.795 -1.41189 -3.65798 0
M  V30 1484 H 153.285 -0.546973 -4.14002 0
M  V30 1485 N 153.722 1.14298 -1.08507 0
M  V30 1486 C 154.685 2.17607 -0.719711 0
M  V30 1487 C 155.685 1.58907 0.245997 0
M  V30 1488 O 156.875 1.74181 0.0254081 0
M  V30 1489 C 154.007 3.40842 -0.0627695 0
M  V30 1490 H 155.2 2.51443 -1.63452 0
M  V30 1491 H 152.753 1.28963 -0.88307 0
M  V30 1492 H 153.488 3.12587 0.863716 0
M  V30 1493 H 153.273 3.84713 -0.757504 0
M  V30 1494 H 154.763 4.17221 0.177786 0
M  V30 1495 N 155.201 0.870884 1.31352 0
M  V30 1496 C 156.617 0.562932 1.49343 0
M  V30 1497 C 156.817 -0.902725 1.80148 0
M  V30 1498 O 155.873 -1.68484 1.88067 0
M  V30 1499 C 157.186 1.46393 2.62659 0
M  V30 1500 C 158.734 1.46607 2.76542 0
M  V30 1501 C 159.209 2.35266 3.92955 0
M  V30 1502 N 160.7 2.33151 4.00243 0
M  V30 1503 C 161.435 2.98471 4.89594 0
M  V30 1504 N 160.931 3.72964 5.8384 0
M  V30 1505 N 162.724 2.87775 4.82848 0
M  V30 1506 H 154.875 1.81923 1.09626 0
M  V30 1507 H 157.138 0.777934 0.541777 0
M  V30 1508 H 156.844 2.50689 2.46674 0
M  V30 1509 H 156.718 1.16314 3.58819 0
M  V30 1510 H 159.105 0.43069 2.9194 0
M  V30 1511 H 159.186 1.8071 1.81046 0
M  V30 1512 H 158.83 3.38881 3.78315 0
M  V30 1513 H 158.76 1.98487 4.87761 0
M  V30 1514 H 161.251 1.79006 3.32814 0
M  V30 1515 H 161.564 4.19932 6.4875 0
M  V30 1516 H 159.909 3.77073 5.83816 0
M  V30 1517 H 163.1 2.29116 4.08195 0
M  V30 1518 H 163.273 3.38961 5.52277 0
M  V30 1519 N 156.679 -1.44442 0.630414 0
M  V30 1520 C 157.907 -2.06414 0.141671 0
M  V30 1521 C 158.322 -1.47105 -1.18345 0
M  V30 1522 O 157.679 -0.593662 -1.72574 0
M  V30 1523 C 157.73 -3.61494 0.0199784 0
M  V30 1524 O 157.451 -4.18594 1.29269 0
M  V30 1525 C 158.952 -4.40499 -0.497544 0
M  V30 1526 H 156.172 -0.666292 0.0793452 0
M  V30 1527 H 158.716 -1.85323 0.864614 0
M  V30 1528 H 156.871 -3.8185 -0.653402 0
M  V30 1529 H 157.285 -5.12026 1.13707 0
M  V30 1530 H 158.759 -5.49433 -0.531708 0
M  V30 1531 H 159.236 -4.11895 -1.52445 0
M  V30 1532 H 159.842 -4.25061 0.142562 0
M  V30 1533 N 158.157 -0.370918 -1.53173 0
M  V30 1534 C 159.405 0.216673 -2.00935 0
M  V30 1535 C 159.726 1.48845 -1.25977 0
M  V30 1536 O 158.996 1.92286 -0.374551 0
M  V30 1537 H 157.576 0.0830565 -0.742368 0
M  V30 1538 H 160.238 -0.49838 -1.8842 0
M  V30 1539 H 159.334 0.439893 -3.08984 0
M  V30 1540 N 159.635 1.57281 -0.100228 0
M  V30 1541 C 160.582 2.14305 0.856858 0
M  V30 1542 C 161.552 1.06296 1.27634 0
M  V30 1543 O 162.737 1.34109 1.35718 0
M  V30 1544 C 159.877 2.73184 2.10866 0
M  V30 1545 C 158.99 3.95442 1.73925 0
M  V30 1546 C 158.125 4.42468 2.93931 0
M  V30 1547 C 157.164 5.57303 2.5314 0
M  V30 1548 N 156.301 5.99158 3.65997 0
M  V30 1549 H 161.141 2.95772 0.363726 0
M  V30 1550 H 158.678 1.46139 0.167858 0
M  V30 1551 H 160.636 3.05442 2.84185 0
M  V30 1552 H 159.266 1.94437 2.57671 0
M  V30 1553 H 158.318 3.69464 0.905554 0
M  V30 1554 H 159.63 4.78769 1.39935 0
M  V30 1555 H 158.784 4.76537 3.75496 0
M  V30 1556 H 157.523 3.58052 3.31134 0
M  V30 1557 H 156.528 5.22857 1.70003 0
M  V30 1558 H 157.753 6.43471 2.17075 0
M  V30 1559 H 155.699 5.17687 4.02909 0
M  V30 1560 H 155.616 6.77295 3.35869 0
M  V30 1561 H 156.884 6.3786 4.48057 0
M  V30 1562 N 161.113 -0.173488 1.56642 0
M  V30 1563 C 162.361 -0.888706 1.81512 0
M  V30 1564 C 162.682 -1.82875 0.676872 0
M  V30 1565 O 161.952 -1.93536 -0.303414 0
M  V30 1566 H 160.532 -0.331164 0.669582 0
M  V30 1567 H 163.194 -0.173823 1.94123 0
M  V30 1568 H 162.29 -1.46691 2.75478 0
M  V30 1569 N 162.591 -1.51276 -0.441967 0
M  V30 1570 C 164.002 -1.56244 -1.02199 0
M  V30 1571 C 164.353 -0.383149 -1.92422 0
M  V30 1572 O 163.478 0.500613 -2.1053 0
M  V30 1573 C 164.073 -2.83162 -1.86024 0
M  V30 1574 C 162.632 -2.90716 -2.39084 0
M  V30 1575 C 161.779 -2.50858 -1.18175 0
M  V30 1576 H 164.73 -1.5712 -0.223416 0
M  V30 1577 H 164.751 -2.66663 -2.71425 0
M  V30 1578 H 164.263 -3.68974 -1.20331 0
M  V30 1579 H 162.364 -2.09323 -3.08244 0
M  V30 1580 H 162.477 -3.94266 -2.72198 0
M  V30 1581 H 160.841 -2.03951 -1.52565 0
M  V30 1582 H 161.624 -3.3901 -0.541001 0
M  V30 1583 N 164.069 0.697108 -1.41344 0
M  V30 1584 C 165.346 1.45154 -1.31109 0
M  V30 1585 C 165.726 2.11009 0.0620449 0
M  V30 1586 O 165.074 2.01571 1.07618 0
M  V30 1587 C 165.284 2.47223 -2.46337 0
M  V30 1588 C 166.632 3.1252 -2.87431 0
M  V30 1589 O 167.656 2.57547 -2.46065 0
M  V30 1590 O 166.515 4.12083 -3.58957 0
M  V30 1591 H 163.609 0.646365 -0.515889 0
M  V30 1592 H 166.155 0.727716 -1.53305 0
M  V30 1593 H 164.927 1.97204 -3.37974 0
M  V30 1594 H 164.55 3.27116 -2.2601 0
M  V30 1595 N 165.547 1.27147 0.931209 0
M  V30 1596 C 166.793 1.13446 1.68101 0
M  V30 1597 C 167.126 -0.319628 1.91552 0
M  V30 1598 O 166.401 -1.23407 1.50336 0
M  V30 1599 C 166.684 1.91482 3.0497 0
M  V30 1600 C 166.537 3.44855 2.88782 0
M  V30 1601 C 167.856 1.71651 4.05246 0
M  V30 1602 H 164.975 0.413498 0.610072 0
M  V30 1603 H 167.617 1.56261 1.08086 0
M  V30 1604 H 165.767 1.55095 3.56199 0
M  V30 1605 H 167.439 3.9105 2.44698 0
M  V30 1606 H 165.682 3.71373 2.24198 0
M  V30 1607 H 166.353 3.94694 3.85902 0
M  V30 1608 H 168.829 2.0337 3.63015 0
M  V30 1609 H 167.705 2.28651 4.99009 0
M  V30 1610 H 167.966 0.663555 4.37092 0
M  V30 1611 N 167.025 -1.13721 1.09112 0
M  V30 1612 C 168.271 -1.85198 0.826414 0
M  V30 1613 C 168.604 -1.83129 -0.646319 0
M  V30 1614 O 167.879 -1.2671 -1.47563 0
M  V30 1615 C 168.162 -3.33507 1.35812 0
M  V30 1616 C 168.015 -3.44108 2.89672 0
M  V30 1617 C 169.334 -4.28838 0.989256 0
M  V30 1618 H 166.453 -0.67243 0.301675 0
M  V30 1619 H 169.095 -1.33499 1.35197 0
M  V30 1620 H 167.245 -3.77666 0.911082 0
M  V30 1621 H 168.917 -3.08684 3.428 0
M  V30 1622 H 167.16 -2.85087 3.26967 0
M  V30 1623 H 167.831 -4.48388 3.21951 0
M  V30 1624 H 170.307 -3.92734 1.37475 0
M  V30 1625 H 169.183 -5.31051 1.38838 0
M  V30 1626 H 169.444 -4.4198 -0.102924 0
M  V30 1627 N 168.503 -0.877838 -1.30888 0
M  V30 1628 C 169.75 -0.492696 -1.96415 0
M  V30 1629 C 170.078 0.956671 -1.69346 0
M  V30 1630 O 169.333 1.68993 -0.986913 0
M  V30 1631 C 169.632 -0.705748 -3.50363 0
M  V30 1632 C 169.298 -2.1291 -3.97467 0
M  V30 1633 C 167.96 -2.51834 -4.1004 0
M  V30 1634 C 170.312 -3.05702 -4.22132 0
M  V30 1635 C 167.64 -3.82775 -4.44635 0
M  V30 1636 C 169.992 -4.36166 -4.58194 0
M  V30 1637 C 168.656 -4.74993 -4.68975 0
M  V30 1638 H 167.926 -0.18029 -0.718733 0
M  V30 1639 H 170.573 -1.11233 -1.55883 0
M  V30 1640 H 168.878 -0.00303058 -3.918 0
M  V30 1641 H 170.575 -0.387456 -3.99124 0
M  V30 1642 H 167.165 -1.81694 -3.88182 0
M  V30 1643 H 171.349 -2.76853 -4.11906 0
M  V30 1644 H 166.605 -4.12609 -4.51181 0
M  V30 1645 H 170.779 -5.08111 -4.76231 0
M  V30 1646 H 168.406 -5.76495 -4.95537 0
M  V30 1647 N 169.982 1.44106 -0.638065 0
M  V30 1648 C 171.23 2.01579 -0.145043 0
M  V30 1649 C 171.551 1.50496 1.24 0
M  V30 1650 O 170.821 0.711374 1.82527 0
M  V30 1651 H 169.401 0.745282 -0.05063 0
M  V30 1652 H 172.063 1.76516 -0.826327 0
M  V30 1653 H 171.159 3.11877 -0.118039 0
M  V30 1654 N 171.46 0.379036 1.52974 0
M  V30 1655 C 172.393 -0.504932 2.22544 0
M  V30 1656 C 173.371 -1.0723 1.22231 0
M  V30 1657 O 174.555 -1.12589 1.51182 0
M  V30 1658 C 171.682 -1.69794 2.93066 0
M  V30 1659 C 170.728 -1.25678 4.07563 0
M  V30 1660 S 171.561 -0.246852 5.34931 0
M  V30 1661 C 172.717 -1.44588 6.08971 0
M  V30 1662 H 172.95 0.0858666 2.97176 0
M  V30 1663 H 170.483 0.163183 1.53535 0
M  V30 1664 H 172.441 -2.38219 3.34308 0
M  V30 1665 H 171.102 -2.26002 2.18133 0
M  V30 1666 H 170.295 -2.14725 4.5597 0
M  V30 1667 H 169.897 -0.651584 3.6828 0
M  V30 1668 H 172.189 -2.37469 6.34519 0
M  V30 1669 H 173.132 -1.00292 7.00962 0
M  V30 1670 H 173.54 -1.65804 5.39601 0
M  V30 1671 N 172.938 -1.57226 0.108567 0
M  V30 1672 C 174.349 -1.8195 -0.418464 0
M  V30 1673 C 174.7 -1.02508 -1.67292 0
M  V30 1674 O 173.825 -0.258496 -2.14851 0
M  V30 1675 C 174.42 -3.30028 -0.765979 0
M  V30 1676 C 172.979 -3.55469 -1.23769 0
M  V30 1677 C 172.126 -2.7625 -0.241106 0
M  V30 1678 H 175.077 -1.55149 0.33384 0
M  V30 1679 H 175.098 -3.44086 -1.62434 0
M  V30 1680 H 174.61 -3.87821 0.147219 0
M  V30 1681 H 172.711 -3.03022 -2.16814 0
M  V30 1682 H 172.824 -4.6408 -1.19022 0
M  V30 1683 H 171.188 -2.44133 -0.72602 0
M  V30 1684 H 171.971 -3.36797 0.665007 0
M  V30 1685 N 174.416 0.165178 -1.56732 0
M  V30 1686 C 175.366 1.20917 -1.93295 0
M  V30 1687 C 176.35 1.39488 -0.801985 0
M  V30 1688 O 177.542 1.41356 -1.06525 0
M  V30 1689 C 174.671 2.54718 -2.3016 0
M  V30 1690 C 173.757 2.39815 -3.49785 0
M  V30 1691 N 174.148 1.94637 -4.66851 0
M  V30 1692 C 172.446 2.70623 -3.54513 0
M  V30 1693 C 173.147 1.92344 -5.4898 0
M  V30 1694 N 172.123 2.34978 -4.9019 0
M  V30 1695 H 175.925 0.851675 -2.81289 0
M  V30 1696 H 173.439 0.373399 -1.58049 0
M  V30 1697 H 175.436 3.30165 -2.54552 0
M  V30 1698 H 174.096 2.91265 -1.43508 0
M  V30 1699 H 175.107 1.6488 -4.90953 0
M  V30 1700 H 171.784 3.11167 -2.78354 0
M  V30 1701 H 173.174 1.5906 -6.52801 0
M  V30 1702 N 175.894 1.51508 0.433938 0
M  V30 1703 C 177.171 1.54888 1.19453 0
M  V30 1704 C 177.551 0.315154 2.08734 0
M  V30 1705 O 176.899 -0.699558 2.17528 0
M  V30 1706 C 177.109 2.86467 1.99342 0
M  V30 1707 C 178.457 3.38545 2.56267 0
M  V30 1708 O 179.481 2.88041 2.0955 0
M  V30 1709 O 178.34 4.26675 3.41483 0
M  V30 1710 H 175.434 0.622863 0.544032 0
M  V30 1711 H 177.98 1.63823 0.442732 0
M  V30 1712 H 176.752 3.67718 1.33788 0
M  V30 1713 H 176.375 2.8071 2.8158 0
M  V30 1714 N 177.372 -0.689602 1.41712 0
M  V30 1715 C 178.32 -1.82475 1.44242 0
M  V30 1716 C 179.314 -1.66354 0.319774 0
M  V30 1717 O 180.52 -1.73143 0.492089 0
M  V30 1718 H 176.895 -0.601416 0.451445 0
M  V30 1719 H 178.866 -1.77458 2.39899 0
M  V30 1720 C 177.615 -3.20535 1.3473 0
M  V30 1721 H 176.938 -3.33559 2.20405 0
M  V30 1722 H 178.378 -4.00023 1.40562 0
M  V30 1723 C 176.837 -3.36846 0.0603281 0
M  V30 1724 O 177.367 -3.91656 -0.892663 0
M  V30 1725 N 175.573 -2.90595 -0.0177039 0
M  V30 1726 H 175.12 -2.46178 0.758572 0
M  V30 1727 H 175.078 -3.01886 -0.878201 0
M  V30 1728 N 178.85 -1.27639 -0.924453 0
M  V30 1729 C 179.798 -1.10485 -2.04685 0
M  V30 1730 C 180.792 -0.0270421 -1.69378 0
M  V30 1731 O 181.998 -0.185008 -1.79047 0
M  V30 1732 H 178.373 -0.340546 -0.670472 0
M  V30 1733 H 180.344 -2.05566 -2.16298 0
M  V30 1734 C 179.093 -0.772229 -3.39016 0
M  V30 1735 H 178.416 -1.59351 -3.66671 0
M  V30 1736 H 179.856 -0.692097 -4.18313 0
M  V30 1737 C 178.315 0.523554 -3.32807 0
M  V30 1738 O 178.845 1.55702 -3.70297 0
M  V30 1739 N 177.051 0.520363 -2.85903 0
M  V30 1740 H 176.598 -0.32107 -2.55591 0
M  V30 1741 H 176.556 1.38742 -2.82131 0
M  V30 1742 N 180.328 1.1314 -1.09713 0
M  V30 1743 C 181.576 1.84119 -0.833338 0
M  V30 1744 C 181.897 1.84097 0.642904 0
M  V30 1745 O 181.167 1.29881 1.46655 0
M  V30 1746 H 179.747 0.681766 -0.305293 0
M  V30 1747 H 182.409 1.37038 -1.38588 0
M  V30 1748 H 181.505 2.88543 -1.18951 0
M  V30 1749 N 181.806 0.884767 1.30421 0
M  V30 1750 C 183.052 0.503851 1.96441 0
M  V30 1751 C 183.385 -0.944518 1.69684 0
M  V30 1752 O 182.66 -1.66737 1.00145 0
M  V30 1753 C 182.943 0.779085 3.51571 0
M  V30 1754 C 182.796 2.27807 3.87846 0
M  V30 1755 C 184.115 0.255452 4.39358 0
M  V30 1756 H 181.234 0.184533 0.713524 0
M  V30 1757 H 183.876 1.10872 1.54297 0
M  V30 1758 H 182.026 0.264274 3.876 0
M  V30 1759 H 183.698 2.86127 3.61841 0
M  V30 1760 H 181.941 2.74479 3.35922 0
M  V30 1761 H 182.612 2.42125 4.96064 0
M  V30 1762 H 185.088 0.696079 4.10236 0
M  V30 1763 H 183.964 0.477361 5.4682 0
M  V30 1764 H 184.225 -0.843293 4.33983 0
M  V30 1765 N 183.284 -1.43765 0.645699 0
M  V30 1766 C 184.531 -2.01898 0.15604 0
M  V30 1767 C 184.859 -1.50887 -1.22733 0
M  V30 1768 O 184.114 -0.689271 -1.8316 0
M  V30 1769 C 184.413 -3.57238 0.107679 0
M  V30 1770 C 184.079 -4.27564 1.43178 0
M  V30 1771 C 182.741 -4.46492 1.7944 0
M  V30 1772 C 185.093 -4.67454 2.30513 0
M  V30 1773 C 182.421 -5.02573 3.02716 0
M  V30 1774 C 184.773 -5.24901 3.53074 0
M  V30 1775 C 183.437 -5.42046 3.89541 0
M  V30 1776 H 182.707 -0.738797 0.057099 0
M  V30 1777 H 185.354 -1.72341 0.834912 0
M  V30 1778 H 183.659 -3.86293 -0.654618 0
M  V30 1779 H 185.356 -3.99965 -0.287938 0
M  V30 1780 H 181.946 -4.13171 1.13963 0
M  V30 1781 H 186.13 -4.5253 2.0379 0
M  V30 1782 H 181.386 -5.14033 3.31028 0
M  V30 1783 H 185.56 -5.54758 4.20971 0
M  V30 1784 H 183.187 -5.85268 4.85145 0
M  V30 1785 N 184.763 -0.387143 -1.52771 0
M  V30 1786 C 185.726 0.436939 -2.24997 0
M  V30 1787 C 186.726 0.991991 -1.26555 0
M  V30 1788 O 187.916 0.874335 -1.50669 0
M  V30 1789 C 185.048 1.61281 -3.00335 0
M  V30 1790 H 186.241 -0.195365 -2.99263 0
M  V30 1791 H 183.794 -0.139218 -1.55679 0
M  V30 1792 H 184.529 2.2826 -2.30364 0
M  V30 1793 H 184.314 1.22154 -3.72587 0
M  V30 1794 H 185.804 2.19629 -3.5518 0
M  V30 1795 N 186.241 1.57166 -0.116904 0
M  V30 1796 C 187.151 2.18745 0.847812 0
M  V30 1797 C 188.167 1.163 1.29423 0
M  V30 1798 O 189.343 1.48761 1.35765 0
M  V30 1799 C 186.408 2.77307 2.0809 0
M  V30 1800 C 185.469 3.94781 1.68661 0
M  V30 1801 C 184.702 4.50541 2.86091 0
M  V30 1802 O 184.925 4.05202 4.01456 0
M  V30 1803 O 183.859 5.41256 2.63298 0
M  V30 1804 H 187.685 3.01632 0.353778 0
M  V30 1805 H 185.27 1.49005 0.108599 0
M  V30 1806 H 187.152 3.14647 2.80313 0
M  V30 1807 H 185.827 1.97452 2.56504 0
M  V30 1808 H 184.734 3.62214 0.935518 0
M  V30 1809 H 186.067 4.76065 1.24991 0
M  V30 1810 N 187.719 -0.156864 1.56817 0
M  V30 1811 C 188.629 -1.2136 2.00771 0
M  V30 1812 C 189.645 -1.47598 0.921459 0
M  V30 1813 O 190.821 -1.59462 1.2302 0
M  V30 1814 C 187.886 -2.52943 2.37109 0
M  V30 1815 C 186.947 -2.34439 3.59634 0
M  V30 1816 C 186.18 -3.59748 3.94229 0
M  V30 1817 O 186.403 -4.65526 3.29609 0
M  V30 1818 O 185.337 -3.52998 4.8752 0
M  V30 1819 H 189.163 -0.870468 2.90958 0
M  V30 1820 H 186.748 -0.36484 1.44877 0
M  V30 1821 H 188.63 -3.30538 2.61386 0
M  V30 1822 H 187.305 -2.86806 1.5008 0
M  V30 1823 H 186.212 -1.54828 3.40557 0
M  V30 1824 H 187.545 -2.05496 4.4725 0
M  V30 1825 N 189.197 -1.51736 -0.425897 0
M  V30 1826 C 190.445 -1.64644 -1.17204 0
M  V30 1827 C 190.766 -0.370486 -1.91448 0
M  V30 1828 O 190.036 0.614088 -1.86026 0
M  V30 1829 H 188.616 -0.606819 -0.435638 0
M  V30 1830 H 191.278 -1.88713 -0.487177 0
M  V30 1831 H 190.374 -2.47958 -1.89534 0
M  V30 1832 N 190.675 0.682077 -1.42076 0
M  V30 1833 C 191.605 1.80796 -1.47767 0
M  V30 1834 C 192.586 1.6677 -0.334954 0
M  V30 1835 O 193.771 1.863 -0.548264 0
M  V30 1836 C 190.901 3.19038 -1.37229 0
M  V30 1837 C 189.855 3.47789 -2.49453 0
M  V30 1838 C 189.181 4.8553 -2.23975 0
M  V30 1839 C 190.481 3.45411 -3.91776 0
M  V30 1840 H 192.175 1.7629 -2.41997 0
M  V30 1841 H 189.721 0.846721 -1.16476 0
M  V30 1842 H 191.674 3.97528 -1.39821 0
M  V30 1843 H 190.398 3.24204 -0.394907 0
M  V30 1844 H 189.057 2.71657 -2.46166 0
M  V30 1845 H 188.705 4.87337 -1.24547 0
M  V30 1846 H 188.405 5.0573 -2.99184 0
M  V30 1847 H 189.929 5.66312 -2.28304 0
M  V30 1848 H 191.343 4.13882 -3.96705 0
M  V30 1849 H 189.74 3.77145 -4.66778 0
M  V30 1850 H 190.81 2.44122 -4.18966 0
M  V30 1851 N 192.153 1.28127 0.917671 0
M  V30 1852 C 193.086 1.06039 2.02067 0
M  V30 1853 C 194.064 -0.0223285 1.62585 0
M  V30 1854 O 195.248 0.124823 1.88086 0
M  V30 1855 C 192.375 0.610596 3.33151 0
M  V30 1856 C 191.421 1.68937 3.91615 0
M  V30 1857 S 192.254 3.28437 4.22953 0
M  V30 1858 C 193.41 2.85283 5.57103 0
M  V30 1859 H 193.643 1.99425 2.20493 0
M  V30 1860 H 191.176 1.12071 1.06205 0
M  V30 1861 H 193.134 0.357778 4.08938 0
M  V30 1862 H 191.795 -0.303364 3.12632 0
M  V30 1863 H 190.988 1.32619 4.86239 0
M  V30 1864 H 190.59 1.89478 3.2245 0
M  V30 1865 H 192.882 2.3121 6.36827 0
M  V30 1866 H 193.825 3.7869 5.98331 0
M  V30 1867 H 194.233 2.24118 5.18104 0
M  V30 1868 N 193.631 -1.12557 1.10312 0
M  V30 1869 C 194.594 -2.16434 0.75424 0
M  V30 1870 C 195.594 -1.59278 -0.220685 0
M  V30 1871 O 196.784 -1.742 0.00230591 0
M  V30 1872 C 193.916 -3.40699 0.116987 0
M  V30 1873 H 195.109 -2.48811 1.67431 0
M  V30 1874 H 192.662 -1.27542 0.903475 0
M  V30 1875 H 193.397 -3.13921 -0.813877 0
M  V30 1876 H 193.182 -3.83459 0.818613 0
M  V30 1877 H 194.672 -4.17451 -0.111387 0
M  V30 1878 N 195.109 -0.891671 -1.2995 0
M  V30 1879 C 196.52 -0.563104 -1.78006 0
M  V30 1880 C 196.871 0.920978 -1.73241 0
M  V30 1881 O 195.996 1.71987 -1.31337 0
M  V30 1882 C 196.591 -1.01539 -3.23226 0
M  V30 1883 C 195.15 -0.738124 -3.69092 0
M  V30 1884 C 194.297 -1.19461 -2.50249 0
M  V30 1885 H 197.248 -1.07522 -1.16725 0
M  V30 1886 H 197.269 -0.347217 -3.78912 0
M  V30 1887 H 196.781 -2.09555 -3.26662 0
M  V30 1888 H 194.882 0.329766 -3.71138 0
M  V30 1889 H 194.995 -1.33037 -4.60259 0
M  V30 1890 H 193.359 -0.613787 -2.47194 0
M  V30 1891 H 194.142 -2.28265 -2.56417 0
M  V30 1892 N 196.587 1.43421 -0.653314 0
M  V30 1893 C 197.833 2.02111 -0.166992 0
M  V30 1894 C 198.166 1.51423 1.21592 0
M  V30 1895 O 197.441 0.707389 1.8118 0
M  V30 1896 C 197.724 3.5966 -0.177948 0
M  V30 1897 C 197.577 4.20579 -1.59478 0
M  V30 1898 C 198.896 4.37413 0.4856 0
M  V30 1899 H 196.015 0.734374 -0.0621557 0
M  V30 1900 H 198.657 1.70717 -0.834016 0
M  V30 1901 H 196.807 3.86537 0.390032 0
M  V30 1902 H 198.479 4.04732 -2.21336 0
M  V30 1903 H 196.722 3.77226 -2.14204 0
M  V30 1904 H 197.393 5.29665 -1.5543 0
M  V30 1905 H 199.869 4.161 0.00234528 0
M  V30 1906 H 198.745 5.47075 0.447207 0
M  V30 1907 H 199.006 4.13672 1.55974 0
M  V30 1908 N 198.065 0.39524 1.52563 0
M  V30 1909 C 199.476 -0.0774719 1.86539 0
M  V30 1910 C 199.827 -1.45641 1.31466 0
M  V30 1911 O 198.952 -2.06459 0.648367 0
M  V30 1912 C 199.547 -0.147356 3.38479 0
M  V30 1913 C 198.106 -0.564373 3.72145 0
M  V30 1914 C 197.253 0.269919 2.75983 0
M  V30 1915 H 200.204 0.612876 1.46388 0
M  V30 1916 H 200.225 -0.965343 3.68051 0
M  V30 1917 H 199.737 0.856387 3.78534 0
M  V30 1918 H 197.838 -1.57527 3.37663 0
M  V30 1919 H 197.951 -0.318402 4.78041 0
M  V30 1920 H 196.315 -0.265696 2.5331 0
M  V30 1921 H 197.098 1.27175 3.18875 0
M  V30 1922 N 199.544 -1.57102 0.125237 0
M  V30 1923 C 200.769 -2.0019 -0.542101 0
M  V30 1924 C 201.194 -1.00449 -1.59034 0
M  V30 1925 O 200.552 0.0229423 -1.81285 0
M  V30 1926 C 200.6 -3.42129 -1.13929 0
M  V30 1927 O 199.704 -3.45307 -2.2547 0
M  V30 1928 H 199.045 -0.650171 -0.134812 0
M  V30 1929 H 201.575 -2.03461 0.215553 0
M  V30 1930 H 201.585 -3.80471 -1.4733 0
M  V30 1931 H 200.26 -4.14237 -0.371531 0
M  V30 1932 H 198.837 -3.1879 -1.93462 0
M  V30 1933 N 201.022 0.148545 -1.56898 0
M  V30 1934 C 202.27 0.859717 -1.82902 0
M  V30 1935 C 202.591 1.81775 -0.70588 0
M  V30 1936 O 201.861 1.93994 0.272586 0
M  V30 1937 H 200.441 0.320469 -0.674766 0
M  V30 1938 H 203.103 0.142918 -1.94375 0
M  V30 1939 H 202.199 1.4229 -2.77777 0
M  V30 1940 N 202.5 1.5196 0.417844 0
M  V30 1941 C 203.746 1.65836 1.16732 0
M  V30 1942 C 204.079 0.382881 1.90388 0
M  V30 1943 O 203.354 -0.618368 1.84408 0
M  V30 1944 C 203.637 2.87466 2.16876 0
M  V30 1945 C 203.49 4.25041 1.47174 0
M  V30 1946 C 204.809 3.04613 3.17646 0
M  V30 1947 H 201.928 0.603515 0.423011 0
M  V30 1948 H 204.57 1.84494 0.454105 0
M  V30 1949 H 202.72 2.71689 2.777 0
M  V30 1950 H 204.392 4.52527 0.895376 0
M  V30 1951 H 202.635 4.26843 0.773806 0
M  V30 1952 H 203.306 5.06176 2.20204 0
M  V30 1953 H 205.782 3.1923 2.66892 0
M  V30 1954 H 204.658 3.91247 3.8499 0
M  V30 1955 H 204.919 2.17541 3.84874 0
M  V30 1956 N 203.978 -0.674533 1.42435 0
M  V30 1957 C 204.908 -1.80009 1.48724 0
M  V30 1958 C 205.889 -1.6659 0.343793 0
M  V30 1959 O 207.074 -1.86007 0.558137 0
M  V30 1960 C 204.204 -3.18306 1.38919 0
M  V30 1961 C 203.158 -3.46461 2.51294 0
M  V30 1962 C 202.484 -4.84335 2.26547 0
M  V30 1963 C 203.784 -3.43328 3.93603 0
M  V30 1964 H 205.478 -1.75004 2.42928 0
M  V30 1965 H 203.024 -0.840533 1.16923 0
M  V30 1966 H 204.977 -3.9678 1.41927 0
M  V30 1967 H 203.701 -3.2399 0.412094 0
M  V30 1968 H 202.36 -2.70348 2.47604 0
M  V30 1969 H 202.008 -4.86669 1.2713 0
M  V30 1970 H 201.708 -5.04136 3.01861 0
M  V30 1971 H 203.232 -5.65094 2.31304 0
M  V30 1972 H 204.646 -4.11772 3.98894 0
M  V30 1973 H 203.043 -3.74664 4.68771 0
M  V30 1974 H 204.113 -2.41897 4.20255 0
M  V30 1975 N 205.456 -1.28612 -0.910864 0
M  V30 1976 C 206.404 -1.1265 -2.03501 0
M  V30 1977 C 207.398 -0.0450054 -1.6934 0
M  V30 1978 O 208.604 -0.203988 -1.7884 0
M  V30 1979 H 204.979 -0.347639 -0.666822 0
M  V30 1980 H 206.95 -2.07849 -2.14106 0
M  V30 1981 C 205.699 -0.808143 -3.38178 0
M  V30 1982 H 205.022 -1.63231 -3.6496 0
M  V30 1983 H 206.462 -0.736426 -4.17556 0
M  V30 1984 C 204.921 0.488226 -3.33344 0
M  V30 1985 O 205.451 1.51766 -3.71927 0
M  V30 1986 N 203.657 0.490009 -2.86439 0
M  V30 1987 H 203.204 -0.348161 -2.55236 0
M  V30 1988 H 203.162 1.35741 -2.83587 0
M  V30 1989 N 206.934 1.1197 -1.10907 0
M  V30 1990 C 208.162 1.87402 -0.876824 0
M  V30 1991 C 208.577 1.79894 0.573025 0
M  V30 1992 O 207.934 1.17629 1.39534 0
M  V30 1993 C 207.985 3.36428 -1.32282 0
M  V30 1994 O 207.706 3.43765 -2.71582 0
M  V30 1995 C 209.207 4.28783 -1.12518 0
M  V30 1996 H 206.427 0.592793 -0.314384 0
M  V30 1997 H 208.971 1.41649 -1.47499 0
M  V30 1998 H 207.126 3.79706 -0.768229 0
M  V30 1999 H 207.54 4.3652 -2.90776 0
M  V30 2000 H 209.014 5.31613 -1.48633 0
M  V30 2001 H 209.491 4.39153 -0.0642394 0
M  V30 2002 H 210.097 3.91291 -1.66648 0
M  V30 2003 N 208.412 0.89855 1.29475 0
M  V30 2004 C 209.66 0.522847 1.9522 0
M  V30 2005 C 209.981 -0.93371 1.71192 0
M  V30 2006 O 209.251 -1.65823 1.04305 0
M  V30 2007 H 207.831 0.190366 0.722336 0
M  V30 2008 H 210.493 1.14459 1.5775 0
M  V30 2009 H 209.589 0.704476 3.04045 0
M  V30 2010 N 209.89 -1.43072 0.660911 0
M  V30 2011 C 210.82 -2.33497 -0.0122829 0
M  V30 2012 C 211.801 -1.49903 -0.803925 0
M  V30 2013 O 212.986 -1.78546 -0.763864 0
M  V30 2014 C 210.116 -3.33363 -0.973994 0
M  V30 2015 C 209.07 -4.27003 -0.291928 0
M  V30 2016 C 208.396 -5.16967 -1.36562 0
M  V30 2017 C 209.696 -5.15816 0.820462 0
M  V30 2018 H 211.39 -2.90038 0.742873 0
M  V30 2019 H 208.936 -1.39461 0.358688 0
M  V30 2020 H 210.889 -3.95524 -1.45392 0
M  V30 2021 H 209.613 -2.75095 -1.7604 0
M  V30 2022 H 208.272 -3.66217 0.167623 0
M  V30 2023 H 207.92 -4.55034 -2.14366 0
M  V30 2024 H 207.62 -5.80441 -0.914454 0
M  V30 2025 H 209.144 -5.82003 -1.84675 0
M  V30 2026 H 210.558 -5.71742 0.422366 0
M  V30 2027 H 208.955 -5.8805 1.19656 0
M  V30 2028 H 210.025 -4.55045 1.67518 0
M  V30 2029 N 211.368 -0.403325 -1.52352 0
M  V30 2030 C 212.598 0.17376 -2.05868 0
M  V30 2031 C 213.006 1.39898 -1.27378 0
M  V30 2032 O 212.349 1.80939 -0.31729 0
M  V30 2033 C 212.411 0.594756 -3.54546 0
M  V30 2034 C 212.075 -0.518926 -4.54044 0
M  V30 2035 C 213.072 -1.3807 -5.01231 0
M  V30 2036 C 210.757 -0.689961 -4.97539 0
M  V30 2037 C 212.751 -2.39852 -5.90551 0
M  V30 2038 C 210.438 -1.71109 -5.86656 0
M  V30 2039 C 211.436 -2.56378 -6.33056 0
M  V30 2040 O 211.124 -3.56743 -7.20409 0
M  V30 2041 H 210.856 0.0264951 -0.675481 0
M  V30 2042 H 213.41 -0.571179 -1.97299 0
M  V30 2043 H 211.64 1.39189 -3.60782 0
M  V30 2044 H 213.329 1.0991 -3.90736 0
M  V30 2045 H 214.095 -1.25994 -4.68349 0
M  V30 2046 H 209.974 -0.035939 -4.60986 0
M  V30 2047 H 213.518 -3.06441 -6.26689 0
M  V30 2048 H 209.415 -1.83218 -6.18952 0
M  V30 2049 H 210.183 -3.52918 -7.38506 0
M  V30 2050 N 212.846 1.57033 -0.133567 0
M  V30 2051 C 213.809 2.14897 0.796995 0
M  V30 2052 C 214.809 1.0874 1.18458 0
M  V30 2053 O 215.999 1.34446 1.1077 0
M  V30 2054 C 213.131 2.70112 2.07973 0
M  V30 2055 H 214.324 2.98457 0.293873 0
M  V30 2056 H 211.877 1.55871 0.115787 0
M  V30 2057 H 212.612 1.9018 2.62682 0
M  V30 2058 H 212.397 3.47764 1.81115 0
M  V30 2059 H 213.887 3.14738 2.74462 0
M  V30 2060 N 214.325 -0.140222 1.56975 0
M  V30 2061 C 215.736 -0.699596 1.73097 0
M  V30 2062 C 216.087 -1.8134 0.749022 0
M  V30 2063 O 215.212 -2.16241 -0.0828503 0
M  V30 2064 C 215.807 -1.27582 3.1386 0
M  V30 2065 C 214.366 -1.78169 3.31561 0
M  V30 2066 C 213.513 -0.672855 2.69013 0
M  V30 2067 H 216.464 0.0855115 1.58469 0
M  V30 2068 H 216.485 -2.14561 3.14235 0
M  V30 2069 H 215.997 -0.464955 3.85305 0
M  V30 2070 H 214.098 -2.61801 2.65124 0
M  V30 2071 H 214.211 -1.90574 4.39566 0
M  V30 2072 H 212.575 -1.10118 2.29665 0
M  V30 2073 H 213.358 0.126679 3.43066 0
M  V30 2074 N 215.803 -1.52179 -0.40978 0
M  V30 2075 C 216.751 -1.76086 -1.51975 0
M  V30 2076 C 217.745 -0.627964 -1.57331 0
M  V30 2077 O 218.951 -0.809993 -1.60745 0
M  V30 2078 H 215.326 -0.556829 -0.505416 0
M  V30 2079 H 217.297 -2.69077 -1.28996 0
M  V30 2080 C 216.046 -1.92799 -2.8935 0
M  V30 2081 H 215.369 -2.79392 -2.85972 0
M  V30 2082 H 216.809 -2.13527 -3.66309 0
M  V30 2083 C 215.268 -0.694923 -3.29655 0
M  V30 2084 O 215.798 0.13751 -4.01465 0
M  V30 2085 N 214.004 -0.53101 -2.85707 0
M  V30 2086 H 213.551 -1.20952 -2.27439 0
M  V30 2087 H 213.509 0.292718 -3.13034 0
M  V30 2088 N 217.281 0.66697 -1.42791 0
M  V30 2089 C 218.509 1.45505 -1.47091 0
M  V30 2090 C 218.924 1.8861 -0.0845873 0
M  V30 2091 O 218.281 1.58632 0.90234 0
M  V30 2092 C 218.332 2.69906 -2.40485 0
M  V30 2093 O 218.053 2.28608 -3.73725 0
M  V30 2094 C 219.554 3.63396 -2.53886 0
M  V30 2095 H 216.774 0.447459 -0.500022 0
M  V30 2096 H 219.318 0.818866 -1.8739 0
M  V30 2097 H 217.473 3.29696 -2.03419 0
M  V30 2098 H 217.887 3.08997 -4.23817 0
M  V30 2099 H 219.361 4.47387 -3.2334 0
M  V30 2100 H 219.838 4.09824 -1.57927 0
M  V30 2101 H 220.444 3.09495 -2.91706 0
M  V30 2102 N 218.759 1.29093 0.90403 0
M  V30 2103 C 220.008 1.16187 1.64874 0
M  V30 2104 C 220.321 -0.286742 1.93487 0
M  V30 2105 O 221.527 -0.537062 2.66135 0
M  V30 2106 C 219.983 2.03177 2.97064 0
M  V30 2107 C 219.591 3.52836 2.76062 0
M  V30 2108 C 221.335 1.98984 3.74974 0
M  V30 2109 C 219.242 4.31945 4.03952 0
M  V30 2110 H 218.172 0.431246 0.618501 0
M  V30 2111 H 220.823 1.53699 1.00243 0
M  V30 2112 H 219.205 1.5853 3.62883 0
M  V30 2113 H 220.379 4.05507 2.18863 0
M  V30 2114 H 218.694 3.58656 2.11553 0
M  V30 2115 H 221.291 2.55351 4.69787 0
M  V30 2116 H 221.634 0.968815 4.0487 0
M  V30 2117 H 222.167 2.41652 3.15989 0
M  V30 2118 H 218.906 5.34667 3.79225 0
M  V30 2119 H 218.426 3.84045 4.60727 0
M  V30 2120 H 220.105 4.42379 4.72133 0
M  V30 2121 N 220.237 -1.11381 1.11499 0
M  V30 2122 C 221.514 -1.7955 0.775965 0
M  V30 2123 C 221.894 -1.97859 -0.73588 0
M  V30 2124 O 221.242 -1.56376 -1.66609 0
M  V30 2125 C 221.452 -3.13196 1.53977 0
M  V30 2126 C 222.8 -3.88227 1.71944 0
M  V30 2127 O 223.824 -3.22887 1.50407 0
M  V30 2128 O 222.683 -5.05477 2.07738 0
M  V30 2129 H 219.777 -0.777728 0.28119 0
M  V30 2130 H 222.323 -1.18118 1.21845 0
M  V30 2131 H 221.095 -2.95229 2.56818 0
M  V30 2132 H 220.718 -3.82342 1.09088 0
M  V30 2133 N 221.715 -0.905404 -1.28997 0
M  V30 2134 C 222.678 -0.392253 -2.25819 0
M  V30 2135 C 223.678 0.476753 -1.5357 0
M  V30 2136 O 224.868 0.280994 -1.71919 0
M  V30 2137 C 222 0.438588 -3.38067 0
M  V30 2138 H 223.193 -1.24743 -2.72725 0
M  V30 2139 H 220.746 -0.684051 -1.40536 0
M  V30 2140 H 221.481 1.31352 -2.96508 0
M  V30 2141 H 221.266 -0.184167 -3.91667 0
M  V30 2142 H 222.756 0.78873 -4.10084 0
M  V30 2143 N 223.193 1.4272 -0.668489 0
M  V30 2144 C 224.442 2.00846 -0.185389 0
M  V30 2145 C 224.755 1.53442 1.21305 0
M  V30 2146 O 225.961 2.03944 1.79218 0
M  V30 2147 C 224.417 3.58805 -0.280591 0
M  V30 2148 C 224.025 4.15198 -1.68268 0
M  V30 2149 C 225.769 4.24255 0.14412 0
M  V30 2150 C 223.676 5.655 -1.73099 0
M  V30 2151 H 222.606 0.751145 -0.0655475 0
M  V30 2152 H 225.257 1.63516 -0.832752 0
M  V30 2153 H 223.639 3.93608 0.434553 0
M  V30 2154 H 224.813 3.91866 -2.42441 0
M  V30 2155 H 223.128 3.62176 -2.05469 0
M  V30 2156 H 225.725 5.34547 0.128086 0
M  V30 2157 H 226.068 3.99277 1.17827 0
M  V30 2158 H 226.601 3.94389 -0.519798 0
M  V30 2159 H 223.34 5.95268 -2.74475 0
M  V30 2160 H 222.86 5.90842 -1.03274 0
M  V30 2161 H 224.539 6.29808 -1.48158 0
M  V30 2162 N 224.671 0.411399 1.52136 0
M  V30 2163 C 225.618 -0.412975 2.27075 0
M  V30 2164 C 226.588 -1.03912 1.29582 0
M  V30 2165 O 227.773 -1.06296 1.58448 0
M  V30 2166 C 224.913 -1.52247 3.09701 0
M  V30 2167 C 224.026 -0.917021 4.22155 0
M  V30 2168 C 223.161 -1.9994 4.92135 0
M  V30 2169 C 222.2 -1.37101 5.96548 0
M  V30 2170 N 221.337 -2.39364 6.60038 0
M  V30 2171 H 226.177 0.232499 2.97092 0
M  V30 2172 H 223.714 0.126496 1.46555 0
M  V30 2173 H 225.672 -2.17674 3.55913 0
M  V30 2174 H 224.302 -2.13794 2.41851 0
M  V30 2175 H 223.354 -0.151742 3.80097 0
M  V30 2176 H 224.666 -0.418006 4.97045 0
M  V30 2177 H 223.82 -2.73088 5.41763 0
M  V30 2178 H 222.559 -2.53208 4.16818 0
M  V30 2179 H 221.564 -0.624873 5.46237 0
M  V30 2180 H 222.789 -0.845998 6.7381 0
M  V30 2181 H 220.735 -2.91759 5.87548 0
M  V30 2182 H 220.652 -1.9428 7.3061 0
M  V30 2183 H 221.92 -3.12074 7.14304 0
M  V30 2184 N 226.149 -1.5696 0.141893 0
M  V30 2185 C 227.395 -1.9625 -0.511248 0
M  V30 2186 C 227.728 -1.02654 -1.64851 0
M  V30 2187 O 227.003 -0.0679676 -1.94381 0
M  V30 2188 C 227.286 -3.45285 -1.02227 0
M  V30 2189 C 227.139 -4.49658 0.113138 0
M  V30 2190 C 228.458 -3.96698 -1.90574 0
M  V30 2191 H 225.577 -0.713567 -0.184367 0
M  V30 2192 H 228.219 -1.88698 0.222087 0
M  V30 2193 H 226.369 -3.51852 -1.64719 0
M  V30 2194 H 228.041 -4.55174 0.749302 0
M  V30 2195 H 226.284 -4.26857 0.773026 0
M  V30 2196 H 226.955 -5.51258 -0.286053 0
M  V30 2197 H 229.431 -3.92578 -1.37918 0
M  V30 2198 H 228.307 -5.01453 -2.2324 0
M  V30 2199 H 228.568 -3.3875 -2.84079 0
M  V30 2200 N 227.627 0.131896 -1.57047 0
M  V30 2201 C 228.575 1.18146 -2.0036 0
M  V30 2202 C 229.569 1.43614 -0.898406 0
M  V30 2203 O 230.775 1.43729 -1.08361 0
M  V30 2204 H 227.15 0.398042 -0.638018 0
M  V30 2205 H 229.121 0.789564 -2.87765 0
M  V30 2206 C 227.87 2.50341 -2.41298 0
M  V30 2207 H 227.193 2.31578 -3.25902 0
M  V30 2208 H 228.633 3.22371 -2.75414 0
M  V30 2209 C 227.092 3.11984 -1.27153 0
M  V30 2210 O 227.622 3.97484 -0.580459 0
M  V30 2211 N 225.828 2.71662 -1.03189 0
M  V30 2212 H 225.375 2.02231 -1.59564 0
M  V30 2213 H 225.333 3.13238 -0.270077 0
M  V30 2214 N 229.106 1.52395 0.401703 0
M  V30 2215 C 230.354 1.66488 1.14569 0
M  V30 2216 C 230.675 0.400897 1.90835 0
M  V30 2217 O 229.945 -0.584415 1.8698 0
M  V30 2218 H 228.525 0.613672 0.425929 0
M  V30 2219 H 231.187 1.89464 0.457093 0
M  V30 2220 H 230.283 2.50942 1.85566 0
M  V30 2221 N 230.584 -0.659388 1.43143 0
M  V30 2222 C 231.812 -1.44723 1.47861 0
M  V30 2223 C 232.227 -1.88563 0.0945886 0
M  V30 2224 O 231.584 -1.59108 -0.893915 0
M  V30 2225 C 231.635 -2.68627 2.41913 0
M  V30 2226 O 231.356 -2.26623 3.74932 0
M  V30 2227 C 232.857 -3.62045 2.55809 0
M  V30 2228 H 230.077 -0.444801 0.502387 0
M  V30 2229 H 232.621 -0.808916 1.87821 0
M  V30 2230 H 230.776 -3.28613 2.05164 0
M  V30 2231 H 231.19 -3.06745 4.2545 0
M  V30 2232 H 232.664 -4.45666 3.25708 0
M  V30 2233 H 233.141 -4.08981 1.60099 0
M  V30 2234 H 233.747 -3.07944 2.93344 0
M  V30 2235 N 232.062 -1.29571 -0.897171 0
M  V30 2236 C 232.995 -1.0924 -2.00354 0
M  V30 2237 C 233.973 -0.00354011 -1.626 0
M  V30 2238 O 235.157 -0.15473 -1.87864 0
M  V30 2239 C 232.284 -0.66352 -3.32137 0
M  V30 2240 C 231.33 -1.75146 -3.88878 0
M  V30 2241 S 232.163 -3.35124 -4.17674 0
M  V30 2242 C 233.319 -2.9411 -5.52494 0
M  V30 2243 H 233.552 -2.02907 -2.17292 0
M  V30 2244 H 231.085 -1.13746 -1.04408 0
M  V30 2245 H 233.043 -0.422791 -4.08317 0
M  V30 2246 H 231.704 0.253588 -3.13075 0
M  V30 2247 H 230.897 -1.40337 -4.84068 0
M  V30 2248 H 230.499 -1.94584 -3.19395 0
M  V30 2249 H 232.791 -2.41312 -6.33068 0
M  V30 2250 H 233.734 -3.88161 -5.9223 0
M  V30 2251 H 234.142 -2.32332 -5.14473 0
M  V30 2252 N 233.54 1.10788 -1.12088 0
M  V30 2253 C 234.77 1.86191 -0.895351 0
M  V30 2254 C 235.178 1.80763 0.558702 0
M  V30 2255 O 234.521 1.19188 1.39785 0
M  V30 2256 C 234.583 3.35659 -1.28737 0
M  V30 2257 C 234.247 3.64849 -2.75198 0
M  V30 2258 C 235.244 3.61757 -3.734 0
M  V30 2259 C 232.929 3.93641 -3.12013 0
M  V30 2260 C 234.923 3.87045 -5.06434 0
M  V30 2261 C 232.61 4.18585 -4.4523 0
M  V30 2262 C 233.608 4.15277 -5.42249 0
M  V30 2263 O 233.296 4.3959 -6.73065 0
M  V30 2264 H 233.028 0.595425 -0.32007 0
M  V30 2265 H 235.582 1.40992 -1.49367 0
M  V30 2266 H 233.812 3.81497 -0.63224 0
M  V30 2267 H 235.501 3.92441 -1.03656 0
M  V30 2268 H 236.267 3.39557 -3.46303 0
M  V30 2269 H 232.146 3.95348 -2.37109 0
M  V30 2270 H 235.69 3.84378 -5.82151 0
M  V30 2271 H 231.587 4.40264 -4.72057 0
M  V30 2272 H 232.355 4.57123 -6.78956 0
M  V30 2273 N 235.018 0.912232 1.28515 0
M  V30 2274 C 236.243 0.559774 1.99703 0
M  V30 2275 C 236.668 -0.851393 1.67729 0
M  V30 2276 O 236.026 -1.56875 0.908834 0
M  V30 2277 C 236.074 0.773874 3.52198 0
M  V30 2278 O 235.178 -0.167842 4.12058 0
M  V30 2279 H 234.519 0.21723 0.627461 0
M  V30 2280 H 237.049 1.22725 1.63706 0
M  V30 2281 H 237.059 0.683386 4.02236 0
M  V30 2282 H 235.734 1.80261 3.74805 0
M  V30 2283 H 234.311 -0.0287509 3.72889 0
M  V30 2284 N 236.496 -1.42363 0.676048 0
M  V30 2285 C 237.742 -2.0182 0.199125 0
M  V30 2286 C 238.075 -1.53339 -1.19168 0
M  V30 2287 O 237.35 -0.736124 -1.80032 0
M  V30 2288 C 237.633 -3.59331 0.235144 0
M  V30 2289 C 237.486 -4.17989 1.66149 0
M  V30 2290 C 238.805 -4.3813 -0.41595 0
M  V30 2291 H 235.924 -0.733293 0.0738311 0
M  V30 2292 H 238.566 -1.69368 0.86107 0
M  V30 2293 H 236.716 -3.87109 -0.328487 0
M  V30 2294 H 238.388 -4.0116 2.27747 0
M  V30 2295 H 236.631 -3.7377 2.20178 0
M  V30 2296 H 237.302 -5.27126 1.63837 0
M  V30 2297 H 239.778 -4.16051 0.0638529 0
M  V30 2298 H 238.654 -5.47717 -0.360115 0
M  V30 2299 H 238.915 -4.16101 -1.49373 0
M  V30 2300 N 237.974 -0.419461 -1.51915 0
M  V30 2301 C 239.385 0.0477853 -1.86639 0
M  V30 2302 C 239.736 1.43531 -1.33766 0
M  V30 2303 O 238.861 2.05401 -0.68113 0
M  V30 2304 C 239.456 0.0934885 -3.38671 0
M  V30 2305 C 238.015 0.505097 -3.72996 0
M  V30 2306 C 237.162 -0.313792 -2.75519 0
M  V30 2307 H 240.113 -0.636088 -1.45395 0
M  V30 2308 H 240.134 0.906667 -3.6954 0
M  V30 2309 H 239.646 -0.916501 -3.77123 0
M  V30 2310 H 237.747 1.52135 -3.40126 0
M  V30 2311 H 237.86 0.242309 -4.78487 0
M  V30 2312 H 236.224 0.225363 -2.53701 0
M  V30 2313 H 237.007 -1.32232 -3.16812 0
M  V30 2314 N 239.452 1.56882 -0.150215 0
M  V30 2315 C 240.698 1.96518 0.500834 0
M  V30 2316 C 241.031 1.03527 1.64304 0
M  V30 2317 O 240.306 0.0782751 1.94342 0
M  V30 2318 C 240.589 3.45822 1.00395 0
M  V30 2319 C 240.442 4.49591 -0.136983 0
M  V30 2320 C 241.761 3.97704 1.88467 0
M  V30 2321 H 238.88 0.714535 0.18058 0
M  V30 2322 H 241.522 1.88577 -0.232091 0
M  V30 2323 H 239.672 3.5272 1.62851 0
M  V30 2324 H 241.344 4.5477 -0.77343 0
M  V30 2325 H 239.587 4.26441 -0.795652 0
M  V30 2326 H 240.258 5.51402 0.256815 0
M  V30 2327 H 242.734 3.93304 1.35834 0
M  V30 2328 H 241.61 5.0263 2.20578 0
M  V30 2329 H 241.871 3.40252 2.82279 0
M  V30 2330 N 240.93 -0.123565 1.57115 0
M  V30 2331 C 242.155 -0.850398 1.89164 0
M  V30 2332 C 242.58 -1.7286 0.741688 0
M  V30 2333 O 241.938 -1.78665 -0.307958 0
M  V30 2334 C 241.986 -1.66353 3.19936 0
M  V30 2335 O 241.09 -2.77004 3.0552 0
M  V30 2336 H 240.431 -0.235454 0.620852 0
M  V30 2337 H 242.961 -0.107335 2.04318 0
M  V30 2338 H 242.971 -2.05372 3.52543 0
M  V30 2339 H 241.646 -1.01881 4.03228 0
M  V30 2340 H 240.223 -2.41221 2.84371 0
M  V30 2341 N 242.408 -1.52605 -0.393616 0
M  V30 2342 C 243.654 -1.67672 -1.14079 0
M  V30 2343 C 243.987 -0.413121 -1.89755 0
M  V30 2344 O 243.262 0.588952 -1.85369 0
M  V30 2345 C 243.545 -2.9088 -2.12276 0
M  V30 2346 C 243.398 -4.27329 -1.40394 0
M  V30 2347 C 244.717 -3.09628 -3.12759 0
M  V30 2348 H 241.836 -0.610168 -0.413356 0
M  V30 2349 H 244.478 -1.85193 -0.424696 0
M  V30 2350 H 242.628 -2.76073 -2.73342 0
M  V30 2351 H 244.3 -4.53894 -0.82327 0
M  V30 2352 H 242.543 -4.2802 -0.705801 0
M  V30 2353 H 243.214 -5.09615 -2.12123 0
M  V30 2354 H 245.69 -3.23436 -2.61779 0
M  V30 2355 H 244.566 -3.97322 -3.78717 0
M  V30 2356 H 244.827 -2.23637 -3.81365 0
M  V30 2357 N 243.887 0.651787 -1.4349 0
M  V30 2358 C 244.819 1.77725 -1.44729 0
M  V30 2359 C 245.832 1.59141 -0.343231 0
M  V30 2360 O 247.021 1.67835 -0.607751 0
M  V30 2361 C 244.121 3.15172 -1.24579 0
M  V30 2362 C 243.294 3.60402 -2.47849 0
M  V30 2363 C 242.353 4.76656 -2.22902 0
M  V30 2364 O 241.379 4.86022 -2.96263 0
M  V30 2365 N 242.581 5.66958 -1.24656 0
M  V30 2366 H 245.346 1.77141 -2.41746 0
M  V30 2367 H 242.907 0.835678 -1.38665 0
M  V30 2368 H 244.899 3.90634 -1.0577 0
M  V30 2369 H 243.469 3.1052 -0.360015 0
M  V30 2370 H 242.689 2.75369 -2.82073 0
M  V30 2371 H 243.977 3.87368 -3.29884 0
M  V30 2372 H 243.375 5.62065 -0.640265 0
M  V30 2373 H 241.932 6.42135 -1.1183 0
M  V30 2374 N 245.365 1.30045 0.890287 0
M  V30 2375 C 246.611 1.18737 1.64406 0
M  V30 2376 C 246.944 -0.258525 1.92472 0
M  V30 2377 O 246.219 -1.18562 1.54186 0
M  V30 2378 C 246.502 2.01087 2.98724 0
M  V30 2379 C 246.355 3.53867 2.77665 0
M  V30 2380 C 247.674 1.84457 3.9958 0
M  V30 2381 H 244.793 0.432698 0.596608 0
M  V30 2382 H 247.435 1.5962 1.0306 0
M  V30 2383 H 245.585 1.66349 3.51084 0
M  V30 2384 H 247.257 3.98637 2.32133 0
M  V30 2385 H 245.5 3.78318 2.12269 0
M  V30 2386 H 246.171 4.06772 3.7315 0
M  V30 2387 H 248.647 2.14817 3.56361 0
M  V30 2388 H 247.523 2.44411 4.91482 0
M  V30 2389 H 247.784 0.802276 4.3476 0
M  V30 2390 N 246.843 -1.10192 1.12674 0
M  V30 2391 C 247.806 -2.14786 0.799979 0
M  V30 2392 C 248.806 -1.59711 -0.18685 0
M  V30 2393 O 249.996 -1.74156 0.0392558 0
M  V30 2394 C 247.128 -3.40374 0.189228 0
M  V30 2395 H 248.321 -2.45203 1.72671 0
M  V30 2396 H 245.874 -1.25597 0.930326 0
M  V30 2397 H 246.609 -3.15577 -0.747107 0
M  V30 2398 H 246.394 -3.81637 0.899766 0
M  V30 2399 H 247.884 -4.17594 -0.0228143 0
M  V30 2400 N 248.321 -0.919034 -1.28029 0
M  V30 2401 C 249.284 -0.416182 -2.2539 0
M  V30 2402 C 250.284 0.460438 -1.54067 0
M  V30 2403 O 251.474 0.262744 -1.72207 0
M  V30 2404 C 248.606 0.402707 -3.38513 0
M  V30 2405 H 249.799 -1.27629 -2.71387 0
M  V30 2406 H 247.352 -0.698919 -1.39803 0
M  V30 2407 H 248.087 1.282 -2.97885 0
M  V30 2408 H 247.872 -0.225698 -3.9145 0
M  V30 2409 H 249.362 0.745191 -4.10897 0
M  V30 2410 N 249.799 1.42003 -0.683588 0
M  V30 2411 C 251.048 2.00638 -0.206681 0
M  V30 2412 C 251.361 1.5472 1.19671 0
M  V30 2413 O 252.567 2.05833 1.77045 0
M  V30 2414 C 251.023 3.58487 -0.318632 0
M  V30 2415 C 250.631 4.1339 -1.72663 0
M  V30 2416 C 252.375 4.24384 0.0991141 0
M  V30 2417 C 250.282 5.63633 -1.79087 0
M  V30 2418 H 249.212 0.750408 -0.0735107 0
M  V30 2419 H 251.863 1.62624 -0.850048 0
M  V30 2420 H 250.245 3.94047 0.392781 0
M  V30 2421 H 251.419 3.89273 -2.46583 0
M  V30 2422 H 249.734 3.59976 -2.09299 0
M  V30 2423 H 252.331 5.34652 0.0713833 0
M  V30 2424 H 252.674 4.00505 1.13586 0
M  V30 2425 H 253.207 3.93816 -0.561599 0
M  V30 2426 H 249.946 5.92323 -2.80774 0
M  V30 2427 H 249.466 5.89714 -1.09535 0
M  V30 2428 H 251.145 6.28201 -1.5483 0
M  V30 2429 N 251.277 0.427512 1.51691 0
M  V30 2430 C 252.507 -0.140986 2.06118 0
M  V30 2431 C 252.915 -1.37854 1.29588 0
M  V30 2432 O 252.258 -1.80411 0.346036 0
M  V30 2433 C 252.32 -0.538276 3.55447 0
M  V30 2434 C 251.984 0.591095 4.53161 0
M  V30 2435 C 252.981 1.46027 4.98971 0
M  V30 2436 C 250.666 0.769028 4.96378 0
M  V30 2437 C 252.66 2.49216 5.8666 0
M  V30 2438 C 250.347 1.80421 5.83859 0
M  V30 2439 C 251.345 2.66417 6.28897 0
M  V30 2440 O 251.033 3.68159 7.14643 0
M  V30 2441 H 250.765 -0.0157455 0.675817 0
M  V30 2442 H 253.319 0.602495 1.96365 0
M  V30 2443 H 251.549 -1.33432 3.6295 0
M  V30 2444 H 253.238 -1.0368 3.92435 0
M  V30 2445 H 254.004 1.33429 4.66285 0
M  V30 2446 H 249.883 0.109273 4.6087 0
M  V30 2447 H 253.427 3.16372 6.21735 0
M  V30 2448 H 249.324 1.93042 6.15959 0
M  V30 2449 H 250.092 3.64622 7.32798 0
M  V30 2450 N 252.755 -1.56801 0.158532 0
M  V30 2451 C 253.985 -2.00568 -0.495583 0
M  V30 2452 C 254.393 -1.03774 -1.58201 0
M  V30 2453 O 253.736 -0.0285797 -1.83678 0
M  V30 2454 C 253.798 -3.40768 -1.14532 0
M  V30 2455 C 253.462 -4.56553 -0.202101 0
M  V30 2456 C 254.459 -5.16714 0.574675 0
M  V30 2457 C 252.144 -5.02197 -0.101648 0
M  V30 2458 C 254.138 -6.20939 1.43924 0
M  V30 2459 C 251.825 -6.06274 0.766508 0
M  V30 2460 C 252.823 -6.65515 1.53555 0
M  V30 2461 O 252.511 -7.67575 2.38922 0
M  V30 2462 H 252.243 -0.662893 -0.13247 0
M  V30 2463 H 254.797 -2.03829 0.253559 0
M  V30 2464 H 253.027 -3.34381 -1.94233 0
M  V30 2465 H 254.716 -3.6857 -1.70033 0
M  V30 2466 H 255.482 -4.82341 0.507167 0
M  V30 2467 H 251.361 -4.55807 -0.689994 0
M  V30 2468 H 254.905 -6.67107 2.03996 0
M  V30 2469 H 250.802 -6.40073 0.835266 0
M  V30 2470 H 251.57 -7.84844 2.32296 0
M  V30 2471 N 254.233 0.115231 -1.57178 0
M  V30 2472 C 255.181 1.16014 -2.01602 0
M  V30 2473 C 256.175 1.42653 -0.913587 0
M  V30 2474 O 257.381 1.42571 -1.09879 0
M  V30 2475 H 253.756 0.391252 -0.642204 0
M  V30 2476 H 255.727 0.758998 -2.88586 0
M  V30 2477 C 254.476 2.47767 -2.4394 0
M  V30 2478 H 253.799 2.28108 -3.28339 0
M  V30 2479 H 255.239 3.19432 -2.78818 0
M  V30 2480 C 253.698 3.10617 -1.30455 0
M  V30 2481 O 254.228 3.96846 -0.622585 0
M  V30 2482 N 252.434 2.70553 -1.06064 0
M  V30 2483 H 251.981 2.00527 -1.61699 0
M  V30 2484 H 251.939 3.12934 -0.303284 0
M  V30 2485 N 255.711 1.52812 0.385517 0
M  V30 2486 C 256.658 1.77838 1.47113 0
M  V30 2487 C 257.628 0.621757 1.54024 0
M  V30 2488 O 258.813 0.861846 1.70226 0
M  V30 2489 C 255.953 1.95618 2.84302 0
M  V30 2490 C 255.066 3.23316 2.86515 0
M  V30 2491 C 254.201 3.31394 4.15152 0
M  V30 2492 C 253.24 4.53201 4.1143 0
M  V30 2493 N 252.377 4.58542 5.3168 0
M  V30 2494 H 257.217 2.70482 1.25073 0
M  V30 2495 H 254.754 1.34006 0.606692 0
M  V30 2496 H 256.712 2.03912 3.63972 0
M  V30 2497 H 255.342 1.06331 3.04784 0
M  V30 2498 H 254.394 3.24076 1.99195 0
M  V30 2499 H 255.706 4.13045 2.79634 0
M  V30 2500 H 254.86 3.3889 5.03228 0
M  V30 2501 H 253.599 2.39645 4.24761 0
M  V30 2502 H 252.604 4.45827 3.21742 0
M  V30 2503 H 253.829 5.46271 4.03442 0
M  V30 2504 H 251.775 3.69686 5.41912 0
M  V30 2505 H 251.692 5.42148 5.26889 0
M  V30 2506 H 252.96 4.70296 6.21644 0
M  V30 2507 N 257.189 -0.644168 1.43834 0
M  V30 2508 C 258.136 -1.75671 1.49694 0
M  V30 2509 C 259.106 -1.6246 0.345809 0
M  V30 2510 O 260.291 -1.82573 0.554234 0
M  V30 2511 C 257.431 -3.13867 1.43463 0
M  V30 2512 C 256.544 -3.38147 2.6885 0
M  V30 2513 C 255.679 -4.66241 2.54544 0
M  V30 2514 C 254.718 -4.83657 3.75157 0
M  V30 2515 N 253.855 -6.03016 3.59605 0
M  V30 2516 H 258.695 -1.69998 2.44754 0
M  V30 2517 H 256.232 -0.829458 1.21484 0
M  V30 2518 H 258.19 -3.9377 1.37843 0
M  V30 2519 H 256.82 -3.18588 0.519783 0
M  V30 2520 H 255.872 -2.52276 2.84712 0
M  V30 2521 H 257.184 -3.46899 3.58417 0
M  V30 2522 H 256.338 -5.54285 2.46683 0
M  V30 2523 H 255.077 -4.59826 1.62516 0
M  V30 2524 H 254.082 -3.94046 3.83416 0
M  V30 2525 H 255.307 -4.91896 4.68204 0
M  V30 2526 H 253.253 -5.97715 2.7032 0
M  V30 2527 H 253.17 -6.12766 4.42779 0
M  V30 2528 H 254.438 -6.93657 3.55613 0
M  V30 2529 N 258.668 -1.30515 -0.883378 0
M  V30 2530 C 259.598 -1.19607 -2.00541 0
M  V30 2531 C 260.579 -0.086346 -1.69881 0
M  V30 2532 O 261.764 -0.268654 -1.92333 0
M  V30 2533 C 258.894 -0.888758 -3.35736 0
M  V30 2534 C 257.848 -1.95659 -3.8066 0
M  V30 2535 C 257.174 -1.50224 -5.13164 0
M  V30 2536 C 258.474 -3.36788 -3.99213 0
M  V30 2537 H 260.168 -2.13476 -2.09925 0
M  V30 2538 H 257.714 -1.02775 -1.00863 0
M  V30 2539 H 259.667 -0.799094 -4.13754 0
M  V30 2540 H 258.391 0.0856125 -3.26488 0
M  V30 2541 H 257.05 -2.03591 -3.04871 0
M  V30 2542 H 256.698 -0.516092 -5.00345 0
M  V30 2543 H 256.398 -2.2165 -5.44192 0
M  V30 2544 H 257.922 -1.42639 -5.93706 0
M  V30 2545 H 259.336 -3.31605 -4.67665 0
M  V30 2546 H 257.733 -4.06314 -4.41621 0
M  V30 2547 H 258.803 -3.78561 -3.03017 0
M  V30 2548 N 260.146 1.09593 -1.13257 0
M  V30 2549 C 261.392 1.82003 -0.89458 0
M  V30 2550 C 261.725 1.85402 0.577906 0
M  V30 2551 O 261 1.32099 1.42759 0
M  V30 2552 C 261.283 3.28237 -1.48096 0
M  V30 2553 C 261.136 3.3312 -3.02244 0
M  V30 2554 C 262.455 4.24871 -1.14774 0
M  V30 2555 H 259.574 0.66077 -0.326424 0
M  V30 2556 H 262.216 1.28389 -1.40058 0
M  V30 2557 H 260.366 3.74024 -1.05062 0
M  V30 2558 H 262.038 2.95748 -3.54021 0
M  V30 2559 H 260.281 2.72756 -3.37323 0
M  V30 2560 H 260.952 4.3613 -3.38371 0
M  V30 2561 H 263.428 3.87361 -1.51957 0
M  V30 2562 H 262.304 5.25532 -1.58452 0
M  V30 2563 H 262.565 4.42058 -0.0611849 0
M  V30 2564 N 261.624 0.925811 1.2754 0
M  V30 2565 C 263.035 0.610102 1.7645 0
M  V30 2566 C 263.386 -0.874723 1.75622 0
M  V30 2567 O 262.511 -1.68444 1.35851 0
M  V30 2568 C 263.106 1.10073 3.20421 0
M  V30 2569 C 261.665 0.835723 3.67005 0
M  V30 2570 C 260.812 1.26054 2.46993 0
M  V30 2571 H 263.763 1.10579 1.13833 0
M  V30 2572 H 263.784 0.447557 3.77859 0
M  V30 2573 H 263.296 2.18143 3.20991 0
M  V30 2574 H 261.397 -0.231249 3.71882 0
M  V30 2575 H 261.51 1.45193 4.56569 0
M  V30 2576 H 259.874 0.679111 2.45479 0
M  V30 2577 H 260.657 2.34984 2.50275 0
M  V30 2578 N 263.102 -1.41638 0.69111 0
M  V30 2579 C 264.034 -2.29194 -0.0161523 0
M  V30 2580 C 265.047 -1.44549 -0.748955 0
M  V30 2581 O 266.236 -1.681 -0.6004 0
M  V30 2582 C 263.336 -3.22325 -1.0469 0
M  V30 2583 C 262.509 -4.35706 -0.384621 0
M  V30 2584 C 261.568 -5.09443 -1.31737 0
M  V30 2585 O 260.594 -5.63386 -0.811451 0
M  V30 2586 N 261.796 -5.16487 -2.64993 0
M  V30 2587 H 264.561 -2.90534 0.735523 0
M  V30 2588 H 262.122 -1.52742 0.53679 0
M  V30 2589 H 264.114 -3.68522 -1.67252 0
M  V30 2590 H 262.684 -2.62323 -1.70015 0
M  V30 2591 H 261.904 -3.91948 0.420804 0
M  V30 2592 H 263.192 -5.08743 0.0760765 0
M  V30 2593 H 262.59 -4.741 -3.08619 0
M  V30 2594 H 261.147 -5.66276 -3.22761 0
M  V30 2595 N 264.58 -0.43555 -1.51462 0
M  V30 2596 C 265.991 0.0279871 -1.86679 0
M  V30 2597 C 266.342 1.42104 -1.35281 0
M  V30 2598 O 265.467 2.04667 -0.702878 0
M  V30 2599 C 266.062 0.0575626 -3.38751 0
M  V30 2600 C 264.621 0.465507 -3.7351 0
M  V30 2601 C 263.768 -0.342996 -2.75171 0
M  V30 2602 H 266.719 -0.651473 -1.44712 0
M  V30 2603 H 266.74 0.867421 -3.70481 0
M  V30 2604 H 266.252 -0.956448 -3.7613 0
M  V30 2605 H 264.353 1.48519 -3.41721 0
M  V30 2606 H 264.466 0.191546 -4.78717 0
M  V30 2607 H 262.83 0.198442 -2.53926 0
M  V30 2608 H 263.613 -1.35585 -3.15391 0
M  V30 2609 N 266.058 1.56714 -0.166846 0
M  V30 2610 C 267.469 1.83378 0.350646 0
M  V30 2611 C 267.82 1.08646 1.63372 0
M  V30 2612 O 266.945 0.338058 2.13743 0
M  V30 2613 C 267.54 3.32643 0.642963 0
M  V30 2614 C 266.099 3.59818 1.10491 0
M  V30 2615 C 265.246 2.76954 0.138411 0
M  V30 2616 H 268.197 1.53803 -0.391193 0
M  V30 2617 H 268.218 3.49878 1.49551 0
M  V30 2618 H 267.73 3.87007 -0.291055 0
M  V30 2619 H 265.831 3.1086 2.05418 0
M  V30 2620 H 265.944 4.68178 1.01716 0
M  V30 2621 H 264.308 2.4666 0.634911 0
M  V30 2622 H 265.091 3.34097 -0.789549 0
M  V30 2623 N 267.536 -0.106894 1.57237 0
M  V30 2624 C 268.468 -1.15646 1.97885 0
M  V30 2625 C 269.481 -1.36981 0.879779 0
M  V30 2626 O 270.67 -1.35841 1.15799 0
M  V30 2627 C 267.77 -2.51425 2.27241 0
M  V30 2628 C 266.943 -2.50529 3.58545 0
M  V30 2629 C 266.002 -3.68145 3.75973 0
M  V30 2630 O 265.028 -3.51176 4.47956 0
M  V30 2631 N 266.23 -4.87177 3.15656 0
M  V30 2632 H 268.995 -0.81059 2.8853 0
M  V30 2633 H 266.556 -0.296024 1.59171 0
M  V30 2634 H 268.548 -3.28689 2.36105 0
M  V30 2635 H 267.118 -2.78147 1.42663 0
M  V30 2636 H 266.338 -1.58894 3.60758 0
M  V30 2637 H 267.626 -2.46997 4.44826 0
M  V30 2638 H 267.024 -5.03868 2.57165 0
M  V30 2639 H 265.581 -5.62075 3.30023 0
M  V30 2640 N 269.014 -1.53014 -0.377408 0
M  V30 2641 C 270.242 -1.72515 -1.14219 0
M  V30 2642 C 270.657 -0.448735 -1.8339 0
M  V30 2643 O 270.014 0.577592 -1.73119 0
M  V30 2644 C 270.065 -2.8826 -2.18148 0
M  V30 2645 O 269.786 -4.10962 -1.51795 0
M  V30 2646 C 271.287 -3.19536 -3.07264 0
M  V30 2647 H 268.507 -0.577301 -0.342001 0
M  V30 2648 H 271.051 -1.99712 -0.439935 0
M  V30 2649 H 269.206 -2.63492 -2.83991 0
M  V30 2650 H 269.62 -4.75693 -2.20945 0
M  V30 2651 H 271.094 -4.03959 -3.76193 0
M  V30 2652 H 271.571 -2.34403 -3.71419 0
M  V30 2653 H 272.177 -3.46186 -2.47053 0
M  V30 2654 N 270.492 0.636531 -1.44174 0
M  V30 2655 C 271.738 1.39649 -1.47884 0
M  V30 2656 C 272.093 1.92098 -0.107747 0
M  V30 2657 O 271.386 1.70391 0.876208 0
M  V30 2658 C 271.58 2.58309 -2.47005 0
M  V30 2659 C 271.409 2.17476 -3.93617 0
M  V30 2660 C 270.179 2.0501 -4.61843 0
M  V30 2661 C 272.377 1.76722 -4.82984 0
M  V30 2662 N 270.359 1.57683 -5.93304 0
M  V30 2663 C 271.73 1.40601 -6.03847 0
M  V30 2664 C 273.785 1.64054 -4.70096 0
M  V30 2665 C 272.488 0.930787 -7.13252 0
M  V30 2666 C 274.514 1.17937 -5.79521 0
M  V30 2667 C 273.876 0.827625 -6.99521 0
M  V30 2668 H 269.975 0.506027 -0.596205 0
M  V30 2669 H 272.559 0.730791 -1.80465 0
M  V30 2670 H 270.73 3.22514 -2.16423 0
M  V30 2671 H 272.462 3.25083 -2.41045 0
M  V30 2672 H 269.217 2.25294 -4.16581 0
M  V30 2673 H 269.641 1.36334 -6.63131 0
M  V30 2674 H 274.283 1.89882 -3.77762 0
M  V30 2675 H 272.001 0.660012 -8.054 0
M  V30 2676 H 275.587 1.08601 -5.71574 0
M  V30 2677 H 274.467 0.476231 -7.82753 0
M  V30 2678 N 271.97 1.30982 0.876444 0
M  V30 2679 C 272.933 1.18054 1.96459 0
M  V30 2680 C 273.933 0.109399 1.60427 0
M  V30 2681 O 275.123 0.358173 1.70478 0
M  V30 2682 C 272.255 0.810616 3.31122 0
M  V30 2683 H 273.448 2.14735 2.09354 0
M  V30 2684 H 271.001 1.145 1.06392 0
M  V30 2685 H 271.736 -0.155322 3.23928 0
M  V30 2686 H 271.521 1.58481 3.58645 0
M  V30 2687 H 273.011 0.743876 4.10921 0
M  V30 2688 N 273.449 -1.08991 1.13837 0
M  V30 2689 C 274.359 -2.19301 0.833333 0
M  V30 2690 C 275.375 -1.73026 -0.183847 0
M  V30 2691 O 276.551 -2.01395 -0.0138092 0
M  V30 2692 C 273.616 -3.45323 0.308651 0
M  V30 2693 C 272.677 -4.06255 1.38764 0
M  V30 2694 C 271.91 -5.26262 0.887896 0
M  V30 2695 O 272.133 -5.69747 -0.27287 0
M  V30 2696 O 271.067 -5.78435 1.66421 0
M  V30 2697 H 274.893 -2.47854 1.75506 0
M  V30 2698 H 272.478 -1.18012 0.916166 0
M  V30 2699 H 274.36 -4.21394 0.0216739 0
M  V30 2700 H 273.035 -3.18362 -0.585431 0
M  V30 2701 H 271.942 -3.318 1.72799 0
M  V30 2702 H 273.275 -4.37452 2.25602 0
M  V30 2703 N 274.927 -0.932562 -1.27047 0
M  V30 2704 C 276.174 -0.575559 -1.94148 0
M  V30 2705 C 276.502 0.883984 -1.73251 0
M  V30 2706 O 275.757 1.64655 -1.0577 0
M  V30 2707 C 276.056 -0.853713 -3.47054 0
M  V30 2708 C 275.722 -2.29577 -3.88079 0
M  V30 2709 C 274.384 -2.68999 -3.9899 0
M  V30 2710 C 276.736 -3.23331 -4.08787 0
M  V30 2711 C 274.064 -4.01289 -4.28 0
M  V30 2712 C 276.416 -4.55207 -4.39282 0
M  V30 2713 C 275.08 -4.94457 -4.48407 0
M  V30 2714 H 274.35 -0.210612 -0.710439 0
M  V30 2715 H 276.997 -1.17744 -1.51025 0
M  V30 2716 H 275.302 -0.169204 -3.91434 0
M  V30 2717 H 276.999 -0.55639 -3.97121 0
M  V30 2718 H 273.589 -1.97994 -3.80127 0
M  V30 2719 H 277.773 -2.94074 -3.99793 0
M  V30 2720 H 273.029 -4.31374 -4.33275 0
M  V30 2721 H 277.203 -5.27852 -4.54252 0
M  V30 2722 H 274.83 -5.96994 -4.7064 0
M  V30 2723 N 276.405 1.4127 -0.698611 0
M  V30 2724 C 277.651 2.01478 -0.231207 0
M  V30 2725 C 277.984 1.55215 1.16713 0
M  V30 2726 O 277.259 0.764672 1.78838 0
M  V30 2727 C 277.542 3.58912 -0.292281 0
M  V30 2728 C 277.395 4.15293 -1.72778 0
M  V30 2729 C 278.714 4.38736 0.346194 0
M  V30 2730 H 275.833 0.732025 -0.0854878 0
M  V30 2731 H 278.475 1.67977 -0.887906 0
M  V30 2732 H 276.625 3.87582 0.26686 0
M  V30 2733 H 278.297 3.97486 -2.341 0
M  V30 2734 H 276.54 3.7022 -2.26096 0
M  V30 2735 H 277.211 5.24452 -1.72202 0
M  V30 2736 H 279.687 4.15897 -0.130035 0
M  V30 2737 H 278.563 5.48221 0.272932 0
M  V30 2738 H 278.824 4.18425 1.42734 0
M  V30 2739 N 277.883 0.443576 1.51229 0
M  V30 2740 C 278.83 -0.364716 2.279 0
M  V30 2741 C 279.8 -1.0114 1.31757 0
M  V30 2742 O 280.985 -1.02912 1.60667 0
M  V30 2743 C 278.125 -1.45644 3.12861 0
M  V30 2744 C 277.238 -0.827269 4.24005 0
M  V30 2745 C 276.373 -1.89456 4.96266 0
M  V30 2746 C 275.412 -1.24416 5.99322 0
M  V30 2747 N 274.549 -2.25309 6.64966 0
M  V30 2748 H 279.389 0.295464 2.96532 0
M  V30 2749 H 276.926 0.157554 1.46254 0
M  V30 2750 H 278.884 -2.10076 3.6045 0
M  V30 2751 H 277.514 -2.08616 2.46331 0
M  V30 2752 H 276.566 -0.0710839 3.80334 0
M  V30 2753 H 277.878 -0.312481 4.9782 0
M  V30 2754 H 277.032 -2.61535 5.47434 0
M  V30 2755 H 275.771 -2.4431 4.22095 0
M  V30 2756 H 274.776 -0.508868 5.4744 0
M  V30 2757 H 276.001 -0.702882 6.75453 0
M  V30 2758 H 273.947 -2.79231 5.93604 0
M  V30 2759 H 273.864 -1.78739 7.34567 0
M  V30 2760 H 275.132 -2.96853 7.20763 0
M  V30 2761 N 279.361 -1.56624 0.175154 0
M  V30 2762 C 280.638 -1.88688 -0.515373 0
M  V30 2763 C 281.018 -1.08564 -1.81044 0
M  V30 2764 O 280.366 -0.180703 -2.27784 0
M  V30 2765 C 280.576 -3.40768 -0.753552 0
M  V30 2766 C 281.924 -4.10587 -1.08184 0
M  V30 2767 O 282.948 -3.46106 -0.841961 0
M  V30 2768 O 281.807 -5.24512 -1.53459 0
M  V30 2769 H 278.901 -0.78301 -0.26613 0
M  V30 2770 H 281.447 -1.68347 0.213877 0
M  V30 2771 H 280.219 -3.90965 0.161829 0
M  V30 2772 H 279.842 -3.66733 -1.53598 0
M  V30 2773 N 280.839 0.0985539 -1.57292 0
M  V30 2774 C 281.802 1.10402 -2.00858 0
M  V30 2775 C 282.802 1.33146 -0.901593 0
M  V30 2776 O 283.992 1.29318 -1.16716 0
M  V30 2777 C 281.124 2.45394 -2.36632 0
M  V30 2778 H 282.317 0.729099 -2.90902 0
M  V30 2779 H 279.87 0.343495 -1.52479 0
M  V30 2780 H 280.605 2.87769 -1.49531 0
M  V30 2781 H 280.39 2.30235 -3.17387 0
M  V30 2782 H 281.88 3.17718 -2.71007 0
M  V30 2783 N 282.317 1.53212 0.369288 0
M  V30 2784 C 283.265 1.80054 1.47253 0
M  V30 2785 C 284.259 0.669456 1.55611 0
M  V30 2786 O 285.465 0.852328 1.58541 0
M  V30 2787 H 281.84 0.570034 0.490475 0
M  V30 2788 H 283.811 2.72403 1.21817 0
M  V30 2789 C 282.56 2.00403 2.84137 0
M  V30 2790 H 281.883 2.86876 2.78464 0
M  V30 2791 H 283.323 2.23164 3.60519 0
M  V30 2792 C 281.782 0.782081 3.27697 0
M  V30 2793 O 282.312 -0.0310205 4.01688 0
M  V30 2794 N 280.518 0.606573 2.84199 0
M  V30 2795 H 280.065 1.26939 2.24152 0
M  V30 2796 H 280.023 -0.20962 3.137 0
M  V30 2797 N 283.795 -0.628877 1.44509 0
M  V30 2798 C 284.758 -1.72263 1.51188 0
M  V30 2799 C 285.758 -1.55907 0.39367 0
M  V30 2800 O 286.948 -1.61361 0.656377 0
M  V30 2801 C 284.08 -3.11365 1.38798 0
M  V30 2802 H 285.273 -1.67714 2.4862 0
M  V30 2803 H 282.826 -0.842737 1.31634 0
M  V30 2804 H 283.561 -3.21507 0.424693 0
M  V30 2805 H 283.346 -3.24644 2.19884 0
M  V30 2806 H 284.836 -3.91075 1.46458 0
M  V30 2807 N 285.273 -1.31445 -0.869486 0
M  V30 2808 C 286.223 -1.15731 -1.96444 0
M  V30 2809 C 287.207 -0.0681855 -1.60755 0
M  V30 2810 O 288.399 -0.293154 -1.74555 0
M  V30 2811 C 285.528 -0.867255 -3.32165 0
M  V30 2812 C 284.614 -1.99738 -3.74119 0
M  V30 2813 N 285.005 -3.24447 -3.88031 0
M  V30 2814 C 283.303 -1.89723 -4.03635 0
M  V30 2815 C 284.004 -3.98374 -4.23879 0
M  V30 2816 N 282.98 -3.26547 -4.3459 0
M  V30 2817 H 286.782 -2.10296 -2.05312 0
M  V30 2818 H 284.296 -1.23009 -1.06031 0
M  V30 2819 H 286.293 -0.735668 -4.10358 0
M  V30 2820 H 284.953 0.0701614 -3.24624 0
M  V30 2821 H 285.964 -3.59557 -3.72746 0
M  V30 2822 H 282.641 -1.03449 -4.04481 0
M  V30 2823 H 284.031 -5.05844 -4.42235 0
M  V30 2824 N 286.751 1.08385 -1.14413 0
M  V30 2825 C 287.999 1.80419 -0.910679 0
M  V30 2826 C 288.32 1.86658 0.564243 0
M  V30 2827 O 287.59 1.35985 1.41014 0
M  V30 2828 H 286.17 0.668204 -0.333934 0
M  V30 2829 H 288.832 1.31037 -1.44275 0
M  V30 2830 H 287.928 2.83238 -1.31082 0
M  V30 2831 N 288.23 0.939286 1.26551 0
M  V30 2832 C 289.477 0.585847 1.9384 0
M  V30 2833 C 289.805 -0.874784 1.73718 0
M  V30 2834 O 289.06 -1.64092 1.06642 0
M  V30 2835 C 289.359 0.872106 3.46596 0
M  V30 2836 C 289.025 2.31632 3.86856 0
M  V30 2837 C 287.687 2.71111 3.97558 0
M  V30 2838 C 290.039 3.25494 4.07066 0
M  V30 2839 C 287.367 4.03553 4.25866 0
M  V30 2840 C 289.719 4.57531 4.36862 0
M  V30 2841 C 288.383 4.96828 4.45778 0
M  V30 2842 H 287.653 0.214377 0.709312 0
M  V30 2843 H 290.3 1.18544 1.50398 0
M  V30 2844 H 288.605 0.18996 3.91339 0
M  V30 2845 H 290.302 0.577442 3.96821 0
M  V30 2846 H 286.892 2.00008 3.79071 0
M  V30 2847 H 291.076 2.9619 3.98227 0
M  V30 2848 H 286.332 4.33665 4.30981 0
M  V30 2849 H 290.506 5.30254 4.51446 0
M  V30 2850 H 288.133 5.99482 4.67468 0
M  V30 2851 N 289.708 -1.40897 0.706093 0
M  V30 2852 C 290.641 -2.282 -0.00328781 0
M  V30 2853 C 291.619 -1.42816 -0.77732 0
M  V30 2854 O 292.803 -1.72237 -0.765944 0
M  V30 2855 C 289.93 -3.23226 -1.01205 0
M  V30 2856 C 288.976 -4.25222 -0.329955 0
M  V30 2857 S 289.809 -5.27269 0.935298 0
M  V30 2858 C 290.965 -6.25859 -0.0716061 0
M  V30 2859 H 291.198 -2.88016 0.737143 0
M  V30 2860 H 288.731 -1.46191 0.496756 0
M  V30 2861 H 290.689 -3.78503 -1.58888 0
M  V30 2862 H 289.35 -2.62485 -1.72513 0
M  V30 2863 H 288.543 -4.92023 -1.09221 0
M  V30 2864 H 288.145 -3.73595 0.174069 0
M  V30 2865 H 290.437 -6.71204 -0.921521 0
M  V30 2866 H 291.38 -7.0586 0.562765 0
M  V30 2867 H 291.788 -5.62852 -0.431088 0
M  V30 2868 N 291.186 -0.45159 -1.50991 0
M  V30 2869 C 292.416 0.108177 -2.06317 0
M  V30 2870 C 292.824 1.35774 -1.31765 0
M  V30 2871 O 292.167 1.79838 -0.374694 0
M  V30 2872 C 292.229 0.481659 -3.56259 0
M  V30 2873 C 291.893 -0.663114 -4.52163 0
M  V30 2874 C 292.89 -1.53947 -4.96585 0
M  V30 2875 C 290.575 -0.8479 -4.95092 0
M  V30 2876 C 292.569 -2.58518 -5.82621 0
M  V30 2877 C 290.256 -1.89686 -5.80915 0
M  V30 2878 C 291.254 -2.76388 -6.24579 0
M  V30 2879 O 290.942 -3.79482 -7.08695 0
M  V30 2880 H 290.674 0.00499183 -0.675982 0
M  V30 2881 H 293.228 -0.633659 -1.95381 0
M  V30 2882 H 291.458 1.27641 -3.65027 0
M  V30 2883 H 293.147 0.974233 -3.94035 0
M  V30 2884 H 293.913 -1.4083 -4.64103 0
M  V30 2885 H 289.792 -0.18258 -4.60638 0
M  V30 2886 H 293.336 -3.26224 -6.16623 0
M  V30 2887 H 289.233 -2.02817 -6.12809 0
M  V30 2888 H 290.001 -3.76234 -7.26905 0
M  V30 2889 N 292.664 1.56529 -0.183458 0
M  V30 2890 C 293.941 1.88959 0.50536 0
M  V30 2891 C 294.321 1.09523 1.80466 0
M  V30 2892 O 293.669 0.19278 2.27685 0
M  V30 2893 C 293.879 3.41162 0.73547 0
M  V30 2894 C 295.227 4.11155 1.06005 0
M  V30 2895 O 296.251 3.46548 0.823594 0
M  V30 2896 O 295.11 5.25318 1.50675 0
M  V30 2897 H 292.204 0.78441 0.261973 0
M  V30 2898 H 294.75 1.68231 -0.222802 0
M  V30 2899 H 293.522 3.90874 -0.182561 0
M  V30 2900 H 293.145 3.67543 1.51651 0
M  V30 2901 N 294.142 -0.090211 1.57342 0
M  V30 2902 C 295.074 -1.13541 1.99101 0
M  V30 2903 C 296.087 -1.3604 0.894258 0
M  V30 2904 O 297.276 -1.34606 1.17233 0
M  V30 2905 C 294.376 -2.49001 2.29895 0
M  V30 2906 C 293.549 -2.46712 3.61182 0
M  V30 2907 C 292.608 -3.64136 3.79857 0
M  V30 2908 O 291.634 -3.46405 4.51655 0
M  V30 2909 N 292.836 -4.83802 3.20806 0
M  V30 2910 H 295.601 -0.779942 2.89373 0
M  V30 2911 H 293.162 -0.279125 1.59476 0
M  V30 2912 H 295.154 -3.26166 2.39578 0
M  V30 2913 H 293.724 -2.76619 1.45605 0
M  V30 2914 H 292.944 -1.55058 3.62423 0
M  V30 2915 H 294.232 -2.42265 4.4742 0
M  V30 2916 H 293.63 -5.01112 2.62494 0
M  V30 2917 H 292.187 -5.58543 3.35966 0
M  V30 2918 N 295.62 -1.53406 -0.361157 0
M  V30 2919 C 296.583 -1.79479 -1.42548 0
M  V30 2920 C 297.583 -0.665327 -1.4639 0
M  V30 2921 O 298.773 -0.933549 -1.47073 0
M  V30 2922 C 295.905 -1.92087 -2.8163 0
M  V30 2923 H 297.098 -2.74538 -1.20701 0
M  V30 2924 H 294.651 -1.4455 -0.594546 0
M  V30 2925 H 295.386 -0.991099 -3.08784 0
M  V30 2926 H 295.171 -2.74241 -2.80239 0
M  V30 2927 H 296.661 -2.13836 -3.58697 0
M  V30 2928 N 297.098 0.621204 -1.44841 0
M  V30 2929 C 298.046 1.75385 -1.52784 0
M  V30 2930 C 299.04 1.64639 -0.398779 0
M  V30 2931 O 300.246 1.70598 -0.574137 0
M  V30 2932 H 296.621 0.579193 -0.479625 0
M  V30 2933 H 298.592 1.6581 -2.48092 0
M  V30 2934 C 297.341 3.13742 -1.4987 0
M  V30 2935 H 296.664 3.22663 -2.36069 0
M  V30 2936 H 298.104 3.92861 -1.59487 0
M  V30 2937 C 296.563 3.36175 -0.220973 0
M  V30 2938 O 297.093 3.95469 0.704782 0
M  V30 2939 N 295.299 2.90348 -0.120963 0
M  V30 2940 H 294.846 2.42278 -0.875162 0
M  V30 2941 H 294.804 3.05732 0.733168 0
M  V30 2942 N 298.576 1.31904 0.862503 0
M  V30 2943 C 299.506 1.22782 1.98612 0
M  V30 2944 C 300.487 0.113362 1.69722 0
M  V30 2945 O 301.672 0.299218 1.91881 0
M  V30 2946 C 298.802 0.942058 3.34279 0
M  V30 2947 C 297.756 2.0169 3.77499 0
M  V30 2948 C 297.082 1.58369 5.10709 0
M  V30 2949 C 298.382 3.43096 3.93805 0
M  V30 2950 H 300.076 2.16788 2.06502 0
M  V30 2951 H 297.622 1.04366 0.992154 0
M  V30 2952 H 299.575 0.864818 4.1243 0
M  V30 2953 H 298.299 -0.0336603 3.26583 0
M  V30 2954 H 296.958 2.08416 3.01593 0
M  V30 2955 H 296.606 0.595628 4.99461 0
M  V30 2956 H 296.306 2.30279 5.40597 0
M  V30 2957 H 297.83 1.52067 5.91361 0
M  V30 2958 H 299.244 3.39003 4.62331 0
M  V30 2959 H 297.641 4.13288 4.35101 0
M  V30 2960 H 298.711 3.83334 2.96957 0
M  V30 2961 N 300.054 -1.07777 1.14986 0
M  V30 2962 C 301.284 -1.83752 0.944402 0
M  V30 2963 C 301.692 -1.8218 -0.51058 0
M  V30 2964 O 301.035 -1.22852 -1.36576 0
M  V30 2965 C 301.097 -3.32128 1.37592 0
M  V30 2966 C 300.761 -3.57425 2.84775 0
M  V30 2967 C 301.758 -3.5173 3.8286 0
M  V30 2968 C 299.443 -3.8523 3.2234 0
M  V30 2969 C 301.437 -3.73482 5.16517 0
M  V30 2970 C 299.124 -4.06634 4.56171 0
M  V30 2971 C 300.122 -4.00754 5.53069 0
M  V30 2972 O 299.81 -4.2159 6.84483 0
M  V30 2973 H 299.542 -0.58673 0.335744 0
M  V30 2974 H 302.096 -1.36982 1.53052 0
M  V30 2975 H 300.326 -3.79686 0.733165 0
M  V30 2976 H 302.015 -3.89555 1.14024 0
M  V30 2977 H 302.781 -3.30256 3.55184 0
M  V30 2978 H 298.66 -3.88923 2.47508 0
M  V30 2979 H 302.204 -3.68808 5.92137 0
M  V30 2980 H 298.101 -4.27593 4.83564 0
M  V30 2981 H 298.869 -4.38961 6.90837 0
M  V30 2982 N 301.532 -0.945985 -1.26051 0
M  V30 2983 C 302.779 -0.596118 -1.93527 0
M  V30 2984 C 303.107 0.865559 -1.74179 0
M  V30 2985 O 302.362 1.63524 -1.0751 0
M  V30 2986 C 302.661 -0.890475 -3.46129 0
M  V30 2987 C 302.327 -2.3368 -3.85622 0
M  V30 2988 C 300.989 -2.73216 -3.96114 0
M  V30 2989 C 303.341 -3.27648 -4.05334 0
M  V30 2990 C 300.669 -4.05806 -4.2372 0
M  V30 2991 C 303.021 -4.59841 -4.3443 0
M  V30 2992 C 301.685 -4.99185 -4.43137 0
M  V30 2993 H 300.955 -0.218135 -0.708165 0
M  V30 2994 H 303.602 -1.1934 -1.49768 0
M  V30 2995 H 301.907 -0.210711 -3.91233 0
M  V30 2996 H 303.604 -0.598478 -3.96509 0
M  V30 2997 H 300.194 -2.02015 -3.78005 0
M  V30 2998 H 304.378 -2.98298 -3.96651 0
M  V30 2999 H 299.634 -4.35945 -4.28675 0
M  V30 3000 H 303.808 -5.32641 -4.48628 0
M  V30 3001 H 301.435 -6.01952 -4.64282 0
M  V30 3002 N 303.011 1.40521 -0.713556 0
M  V30 3003 C 304.288 1.94775 -0.17943 0
M  V30 3004 C 304.668 1.65184 1.31444 0
M  V30 3005 O 304.016 0.968429 2.06963 0
M  V30 3006 C 304.226 3.45543 -0.489986 0
M  V30 3007 C 305.574 4.22442 -0.427536 0
M  V30 3008 O 306.598 3.53644 -0.425929 0
M  V30 3009 O 305.457 5.4501 -0.403292 0
M  V30 3010 H 302.551 0.826606 -0.0255192 0
M  V30 3011 H 305.097 1.5014 -0.790949 0
M  V30 3012 H 303.869 3.60432 -1.5233 0
M  V30 3013 H 303.492 3.97311 0.151598 0
M  V30 3014 N 304.489 0.459591 1.5075 0
M  V30 3015 C 305.719 -0.0972338 2.06371 0
M  V30 3016 C 306.127 -1.35074 1.32483 0
M  V30 3017 O 305.47 -1.79637 0.384226 0
M  V30 3018 C 305.532 -0.462759 3.56509 0
M  V30 3019 C 305.196 0.687084 4.51805 0
M  V30 3020 C 306.193 1.56578 4.95761 0
M  V30 3021 C 303.878 0.874144 4.94635 0
M  V30 3022 C 305.872 2.61604 5.81242 0
M  V30 3023 C 303.559 1.92765 5.79901 0
M  V30 3024 C 304.557 2.79697 6.23104 0
M  V30 3025 O 304.245 3.83235 7.06673 0
M  V30 3026 H 303.977 -0.00140687 0.675999 0
M  V30 3027 H 306.531 0.644011 1.95043 0
M  V30 3028 H 304.761 -1.25703 3.65699 0
M  V30 3029 H 306.45 -0.953323 3.94546 0
M  V30 3030 H 307.216 1.4329 4.6335 0
M  V30 3031 H 303.095 0.207006 4.60535 0
M  V30 3032 H 306.639 3.29489 6.14884 0
M  V30 3033 H 302.536 2.06064 6.11725 0
M  V30 3034 H 303.304 3.80084 7.24899 0
M  V30 3035 N 305.967 -1.56429 0.191757 0
M  V30 3036 C 306.93 -2.17707 -0.716688 0
M  V30 3037 C 307.93 -1.13061 -1.14341 0
M  V30 3038 O 309.12 -1.38464 -1.05704 0
M  V30 3039 C 306.252 -2.77644 -1.97804 0
M  V30 3040 H 307.445 -2.99342 -0.1829 0
M  V30 3041 H 304.998 -1.56193 -0.0578566 0
M  V30 3042 H 305.733 -1.99799 -2.55443 0
M  V30 3043 H 305.518 -3.54246 -1.68083 0
M  V30 3044 H 307.008 -3.24708 -2.62592 0
M  V30 3045 N 307.445 0.0818655 -1.57387 0
M  V30 3046 C 308.694 0.781681 -1.85937 0
M  V30 3047 C 309.007 1.79246 -0.782957 0
M  V30 3048 O 310.213 2.54112 -0.955987 0
M  V30 3049 C 308.669 1.44109 -3.29789 0
M  V30 3050 C 308.277 0.469396 -4.45534 0
M  V30 3051 C 310.021 2.12386 -3.67549 0
M  V30 3052 C 307.928 1.13415 -5.80423 0
M  V30 3053 H 306.858 0.295682 -0.693605 0
M  V30 3054 H 309.509 0.0348051 -1.83467 0
M  V30 3055 H 307.891 2.23588 -3.2684 0
M  V30 3056 H 309.065 -0.294856 -4.59856 0
M  V30 3057 H 307.38 -0.108383 -4.16259 0
M  V30 3058 H 309.977 2.62878 -4.65617 0
M  V30 3059 H 310.32 2.91877 -2.96839 0
M  V30 3060 H 310.853 1.39751 -3.72444 0
M  V30 3061 H 307.592 0.379771 -6.54399 0
M  V30 3062 H 307.112 1.8695 -5.69921 0
M  V30 3063 H 308.791 1.65686 -6.25426 0
M  V30 3064 N 308.923 1.53595 0.353017 0
M  V30 3065 C 310.172 1.69603 1.09168 0
M  V30 3066 C 310.485 0.460925 1.90092 0
M  V30 3067 O 311.691 0.501774 2.66823 0
M  V30 3068 C 310.147 2.99872 1.9901 0
M  V30 3069 C 309.755 4.30687 1.23339 0
M  V30 3070 C 311.499 3.25246 2.72792 0
M  V30 3071 C 309.406 5.52036 2.12156 0
M  V30 3072 H 308.336 0.631966 0.411261 0
M  V30 3073 H 310.987 1.80096 0.351802 0
M  V30 3074 H 309.369 2.83212 2.7678 0
M  V30 3075 H 310.543 4.58019 0.505456 0
M  V30 3076 H 308.858 4.11853 0.613663 0
M  V30 3077 H 311.455 4.13095 3.39495 0
M  V30 3078 H 311.798 2.41846 3.38846 0
M  V30 3079 H 312.331 3.42638 2.021 0
M  V30 3080 H 309.07 6.37951 1.50659 0
M  V30 3081 H 308.59 5.28966 2.82764 0
M  V30 3082 H 310.269 5.87313 2.71427 0
M  V30 3083 N 310.401 -0.613514 1.45168 0
M  V30 3084 C 311.649 -1.36997 1.48581 0
M  V30 3085 C 311.97 -1.94589 0.126545 0
M  V30 3086 O 311.24 -1.76816 -0.843372 0
M  V30 3087 H 309.82 -0.508558 0.547154 0
M  V30 3088 H 312.482 -0.720853 1.81079 0
M  V30 3089 H 311.578 -2.1924 2.22127 0
M  V30 3090 N 311.879 -1.3236 -0.855495 0
M  V30 3091 C 313.127 -1.22629 -1.60644 0
M  V30 3092 C 313.448 0.212136 -1.93843 0
M  V30 3093 O 312.718 1.13666 -1.59552 0
M  V30 3094 H 311.298 -0.450882 -0.595579 0
M  V30 3095 H 313.96 -1.65871 -1.02337 0
M  V30 3096 H 313.056 -1.80832 -2.54374 0
M  V30 3097 N 313.357 1.07166 -1.15556 0
M  V30 3098 C 314.587 1.83248 -0.954133 0
M  V30 3099 C 314.995 1.82449 0.500911 0
M  V30 3100 O 314.338 1.23575 1.35923 0
M  V30 3101 C 314.4 3.31393 -1.39351 0
M  V30 3102 C 314.064 3.5591 -2.86666 0
M  V30 3103 C 315.061 3.49695 -3.8472 0
M  V30 3104 C 312.746 3.83515 -3.24379 0
M  V30 3105 C 314.74 3.70737 -5.18491 0
M  V30 3106 C 312.427 4.04209 -4.58321 0
M  V30 3107 C 313.425 3.97815 -5.55186 0
M  V30 3108 O 313.113 4.17954 -6.86709 0
M  V30 3109 H 312.845 0.584941 -0.338851 0
M  V30 3110 H 315.399 1.36169 -1.53777 0
M  V30 3111 H 313.629 3.79292 -0.75329 0
M  V30 3112 H 315.318 3.88945 -1.16089 0
M  V30 3113 H 316.084 3.28368 -3.56931 0
M  V30 3114 H 311.963 3.87605 -2.49567 0
M  V30 3115 H 315.507 3.65663 -5.94085 0
M  V30 3116 H 311.404 4.25023 -4.85825 0
M  V30 3117 H 312.172 4.35291 -6.93155 0
M  V30 3118 N 314.835 0.952656 1.25548 0
M  V30 3119 C 316.083 0.605176 1.92826 0
M  V30 3120 C 316.404 -0.860261 1.74999 0
M  V30 3121 O 315.674 -1.6125 1.11244 0
M  V30 3122 H 314.254 0.220832 0.713612 0
M  V30 3123 H 316.916 1.21047 1.52754 0
M  V30 3124 H 316.012 0.832798 3.00784 0
M  V30 3125 N 316.313 -1.40141 0.720998 0
M  V30 3126 C 317.561 -2.0039 0.262323 0
M  V30 3127 C 317.882 -1.57469 -1.15015 0
M  V30 3128 O 317.152 -0.816582 -1.78069 0
M  V30 3129 H 315.732 -0.741063 0.093996 0
M  V30 3130 H 318.394 -1.71398 0.927835 0
M  V30 3131 H 317.49 -3.10658 0.299671 0
M  V30 3132 N 317.792 -0.46758 -1.50504 0
M  V30 3133 C 319.022 0.086288 -2.0642 0
M  V30 3134 C 319.43 1.34369 -1.33197 0
M  V30 3135 O 318.773 1.79431 -0.393747 0
M  V30 3136 C 318.835 0.443846 -3.5675 0
M  V30 3137 C 318.499 -0.711035 -4.51435 0
M  V30 3138 C 319.496 -1.59205 -4.94924 0
M  V30 3139 C 317.181 -0.900363 -4.94165 0
M  V30 3140 C 319.175 -2.64683 -5.79846 0
M  V30 3141 C 316.862 -1.95837 -5.7887 0
M  V30 3142 C 317.86 -2.82997 -6.21612 0
M  V30 3143 O 317.548 -3.86977 -7.0463 0
M  V30 3144 H 317.28 -0.00217814 -0.675996 0
M  V30 3145 H 319.834 -0.654346 -1.94698 0
M  V30 3146 H 318.064 1.23762 -3.6636 0
M  V30 3147 H 319.753 0.932386 -3.95046 0
M  V30 3148 H 320.519 -1.45745 -4.62583 0
M  V30 3149 H 316.398 -0.231427 -4.60419 0
M  V30 3150 H 319.942 -3.32745 -6.13128 0
M  V30 3151 H 315.839 -2.09305 -6.10624 0
M  V30 3152 H 316.607 -3.83923 -7.22873 0
M  V30 3153 N 319.27 1.56325 -0.20005 0
M  V30 3154 C 320.516 1.98012 0.438059 0
M  V30 3155 C 320.849 1.08702 1.60927 0
M  V30 3156 O 320.124 0.140064 1.93995 0
M  V30 3157 C 320.407 3.48841 0.893419 0
M  V30 3158 C 320.26 4.48928 -0.279947 0
M  V30 3159 C 321.579 4.03498 1.75719 0
M  V30 3160 H 318.698 0.719918 0.157757 0
M  V30 3161 H 321.34 1.87743 -0.291968 0
M  V30 3162 H 319.49 3.57723 1.51547 0
M  V30 3163 H 321.162 4.52079 -0.91772 0
M  V30 3164 H 319.405 4.23694 -0.930919 0
M  V30 3165 H 320.076 5.5194 0.0812601 0
M  V30 3166 H 322.552 3.97427 1.23253 0
M  V30 3167 H 321.428 5.09393 2.04476 0
M  V30 3168 H 321.689 3.4906 2.71311 0
M  V30 3169 N 320.748 -0.0735177 1.57428 0
M  V30 3170 C 321.995 -0.772999 1.87166 0
M  V30 3171 C 322.323 -1.77665 0.791551 0
M  V30 3172 O 321.578 -1.94541 -0.212636 0
M  V30 3173 C 321.877 -1.51799 3.23561 0
M  V30 3174 C 321.543 -0.654484 4.46125 0
M  V30 3175 C 320.205 -0.416511 4.79394 0
M  V30 3176 C 322.557 -0.0555862 5.2117 0
M  V30 3177 C 319.885 0.429869 5.85123 0
M  V30 3178 C 322.237 0.778239 6.27795 0
M  V30 3179 C 320.901 1.0261 6.59566 0
M  V30 3180 H 320.171 -0.282861 0.684888 0
M  V30 3181 H 322.818 -0.0338272 1.9147 0
M  V30 3182 H 321.123 -2.32932 3.1504 0
M  V30 3183 H 322.82 -2.06397 3.43804 0
M  V30 3184 H 319.41 -0.850091 4.20085 0
M  V30 3185 H 323.594 -0.226558 4.95783 0
M  V30 3186 H 318.85 0.630665 6.08139 0
M  V30 3187 H 323.024 1.24906 6.85107 0
M  V30 3188 H 320.651 1.68371 7.4132 0
M  V30 3189 N 322.226 -1.5378 -0.344866 0
M  V30 3190 C 323.173 -1.81676 -1.42346 0
M  V30 3191 C 324.143 -0.662376 -1.52321 0
M  V30 3192 O 325.328 -0.906675 -1.67881 0
M  V30 3193 C 322.468 -2.03087 -2.79015 0
M  V30 3194 C 321.581 -3.30799 -2.77842 0
M  V30 3195 C 320.716 -3.42285 -4.0622 0
M  V30 3196 C 319.755 -4.6395 -3.9927 0
M  V30 3197 N 318.892 -4.72477 -5.19336 0
M  V30 3198 H 323.732 -2.73703 -1.17858 0
M  V30 3199 H 321.269 -1.35568 -0.570949 0
M  V30 3200 H 323.227 -2.1349 -3.58438 0
M  V30 3201 H 321.857 -1.14375 -3.01858 0
M  V30 3202 H 320.909 -3.29244 -1.90533 0
M  V30 3203 H 322.221 -4.20314 -2.68584 0
M  V30 3204 H 321.375 -3.52113 -4.94066 0
M  V30 3205 H 320.114 -2.50823 -4.18258 0
M  V30 3206 H 319.119 -4.54201 -3.09809 0
M  V30 3207 H 320.344 -5.56775 -3.88817 0
M  V30 3208 H 318.29 -3.83924 -5.3192 0
M  V30 3209 H 318.207 -5.55927 -5.12329 0
M  V30 3210 H 319.475 -4.86613 -6.08957 0
M  V30 3211 N 323.704 0.605807 -1.45491 0
M  V30 3212 C 324.981 1.36522 -1.40075 0
M  V30 3213 C 325.361 2.10976 -0.0722744 0
M  V30 3214 O 324.709 2.08007 0.945808 0
M  V30 3215 C 324.919 2.31056 -2.61561 0
M  V30 3216 C 326.267 2.93608 -3.06724 0
M  V30 3217 O 327.291 2.41376 -2.61946 0
M  V30 3218 O 326.15 3.88421 -3.84437 0
M  V30 3219 H 323.244 0.612248 -0.555951 0
M  V30 3220 H 325.79 0.628747 -1.57623 0
M  V30 3221 H 324.562 1.75311 -3.49831 0
M  V30 3222 H 324.185 3.12081 -2.46356 0
M  V30 3223 N 325.182 1.32811 0.848464 0
M  V30 3224 C 326.13 1.22231 1.97895 0
M  V30 3225 C 327.124 0.125749 1.68933 0
M  V30 3226 O 328.33 0.289083 1.77663 0
M  V30 3227 H 324.705 0.379058 0.649476 0
M  V30 3228 H 326.676 2.17828 2.03945 0
M  V30 3229 C 325.425 0.968572 3.33937 0
M  V30 3230 H 324.748 1.80458 3.56756 0
M  V30 3231 H 326.188 0.934808 4.13567 0
M  V30 3232 C 324.647 -0.328628 3.35293 0
M  V30 3233 O 325.177 -1.33848 3.78745 0
M  V30 3234 N 323.383 -0.352788 2.88451 0
M  V30 3235 H 322.93 0.469541 2.53285 0
M  V30 3236 H 322.888 -1.22057 2.89741 0
M  V30 3237 N 326.66 -1.06551 1.16123 0
M  V30 3238 C 327.608 -2.16063 0.861371 0
M  V30 3239 C 328.602 -1.6856 -0.168517 0
M  V30 3240 O 329.808 -1.79986 -0.0227579 0
M  V30 3241 H 326.183 -0.705278 0.260934 0
M  V30 3242 H 328.154 -2.38567 1.79244 0
M  V30 3243 C 326.903 -3.45661 0.376018 0
M  V30 3244 H 326.226 -3.82604 1.15992 0
M  V30 3245 H 327.666 -4.23504 0.204951 0
M  V30 3246 C 326.125 -3.24546 -0.903954 0
M  V30 3247 O 326.655 -3.49865 -1.97377 0
M  V30 3248 N 324.861 -2.77992 -0.846679 0
M  V30 3249 H 324.408 -2.57589 0.0241017 0
M  V30 3250 H 324.366 -2.64244 -1.70359 0
M  V30 3251 N 328.138 -0.959301 -1.25041 0
M  V30 3252 C 329.386 -0.615393 -1.92503 0
M  V30 3253 C 329.707 0.850969 -1.75452 0
M  V30 3254 O 328.977 1.60658 -1.12098 0
M  V30 3255 H 327.557 -0.224613 -0.712431 0
M  V30 3256 H 330.219 -1.21855 -1.5211 0
M  V30 3257 H 329.315 -0.848738 -3.00338 0
M  V30 3258 N 329.616 1.39756 -0.72842 0
M  V30 3259 C 330.844 2.04948 -0.283528 0
M  V30 3260 C 331.259 1.54908 1.0793 0
M  V30 3261 O 330.616 0.711135 1.68075 0
M  V30 3262 C 330.667 3.60498 -0.268957 0
M  V30 3263 O 330.388 4.08695 -1.57798 0
M  V30 3264 C 331.889 4.4288 0.192912 0
M  V30 3265 H 329.109 0.659243 -0.125056 0
M  V30 3266 H 331.653 1.78927 -0.990226 0
M  V30 3267 H 329.808 3.85444 0.388801 0
M  V30 3268 H 330.222 5.02977 -1.48709 0
M  V30 3269 H 331.696 5.51791 0.151952 0
M  V30 3270 H 332.173 4.21418 1.23708 0
M  V30 3271 H 332.779 4.23069 -0.435039 0
M  V30 3272 N 331.094 0.475555 1.50254 0
M  V30 3273 C 332.024 -0.30611 2.31485 0
M  V30 3274 C 333.005 -0.986228 1.38591 0
M  V30 3275 O 334.19 -0.982541 1.67511 0
M  V30 3276 C 331.32 -1.38588 3.1845 0
M  V30 3277 C 330.274 -0.827115 4.19932 0
M  V30 3278 C 329.6 -2.00551 4.95665 0
M  V30 3279 C 330.9 0.16463 5.2204 0
M  V30 3280 H 332.594 0.371866 2.97082 0
M  V30 3281 H 330.14 0.180282 1.42867 0
M  V30 3282 H 332.093 -1.94023 3.74076 0
M  V30 3283 H 330.817 -2.09269 2.50747 0
M  V30 3284 H 329.476 -0.294702 3.65414 0
M  V30 3285 H 329.124 -2.6994 4.2443 0
M  V30 3286 H 328.824 -1.63784 5.64313 0
M  V30 3287 H 330.348 -2.56468 5.54127 0
M  V30 3288 H 331.762 -0.300699 5.72511 0
M  V30 3289 H 330.159 0.446813 5.98434 0
M  V30 3290 H 331.229 1.08905 4.72512 0
M  V30 3291 N 332.573 -1.56217 0.208337 0
M  V30 3292 C 333.85 -1.89739 -0.475234 0
M  V30 3293 C 334.23 -1.1238 -1.78701 0
M  V30 3294 O 333.578 -0.228979 -2.2735 0
M  V30 3295 C 333.788 -3.42289 -0.681101 0
M  V30 3296 C 335.136 -4.12789 -0.994507 0
M  V30 3297 O 336.16 -3.47814 -0.768357 0
M  V30 3298 O 335.019 -5.27649 -1.42299 0
M  V30 3299 H 332.113 -0.788478 -0.249461 0
M  V30 3300 H 334.659 -1.67855 0.249538 0
M  V30 3301 H 333.431 -3.90534 0.244722 0
M  V30 3302 H 333.054 -3.69909 -1.45785 0
M  V30 3303 N 334.051 0.0651679 -1.57465 0
M  V30 3304 C 335.462 0.616213 -1.76238 0
M  V30 3305 C 335.813 1.7756 -0.834689 0
M  V30 3306 O 334.938 2.1639 -0.0204156 0
M  V30 3307 C 335.533 1.12462 -3.1959 0
M  V30 3308 C 334.092 1.62147 -3.39684 0
M  V30 3309 C 333.239 0.543739 -2.71917 0
M  V30 3310 H 336.19 -0.161022 -1.57881 0
M  V30 3311 H 336.211 1.99324 -3.24114 0
M  V30 3312 H 335.723 0.280592 -3.87084 0
M  V30 3313 H 333.824 2.48854 -2.77313 0
M  V30 3314 H 333.937 1.69385 -4.48158 0
M  V30 3315 H 332.301 0.990352 -2.34657 0
M  V30 3316 H 333.084 -0.290216 -3.42071 0
M  V30 3317 N 335.529 1.53961 0.336706 0
M  V30 3318 C 336.477 1.83136 1.43401 0
M  V30 3319 C 337.471 0.702313 1.54156 0
M  V30 3320 O 338.677 0.885765 1.56698 0
M  V30 3321 H 335.052 0.580309 0.478273 0
M  V30 3322 H 337.023 2.74925 1.16012 0
M  V30 3323 C 335.772 2.06385 2.79822 0
M  V30 3324 H 335.095 2.92718 2.72316 0
M  V30 3325 H 336.535 2.30761 3.55704 0
M  V30 3326 C 334.994 0.851414 3.25964 0
M  V30 3327 O 335.524 0.0541904 4.01663 0
M  V30 3328 N 333.73 0.66672 2.82848 0
M  V30 3329 H 333.277 1.31665 2.21409 0
M  V30 3330 H 333.235 -0.143032 3.14074 0
M  V30 3331 N 337.007 -0.598083 1.45811 0
M  V30 3332 C 337.955 -1.72932 1.55555 0
M  V30 3333 C 338.949 -1.63984 0.424921 0
M  V30 3334 O 340.155 -1.69663 0.601205 0
M  V30 3335 H 336.53 -0.571489 0.488779 0
M  V30 3336 H 338.501 -1.61842 2.50699 0
M  V30 3337 C 337.25 -3.11318 1.54843 0
M  V30 3338 H 336.573 -3.18867 2.41172 0
M  V30 3339 H 338.013 -3.90274 1.65717 0
M  V30 3340 C 336.472 -3.3578 0.274427 0
M  V30 3341 O 337.002 -3.9654 -0.641778 0
M  V30 3342 N 335.208 -2.90119 0.167139 0
M  V30 3343 H 334.755 -2.40855 0.913596 0
M  V30 3344 H 334.713 -3.0686 -0.684435 0
M  V30 3345 N 338.485 -1.33259 -0.841409 0
M  V30 3346 C 339.734 -1.23921 -1.59143 0
M  V30 3347 C 340.047 0.1941 -1.94635 0
M  V30 3348 O 341.253 0.409474 -2.68394 0
M  V30 3349 C 339.709 -2.17119 -2.87032 0
M  V30 3350 C 339.317 -3.65606 -2.58914 0
M  V30 3351 C 341.061 -2.16648 -3.65053 0
M  V30 3352 C 338.968 -4.50726 -3.82884 0
M  V30 3353 H 337.898 -0.460264 -0.597221 0
M  V30 3354 H 340.549 -1.58307 -0.927959 0
M  V30 3355 H 338.931 -1.75663 -3.54906 0
M  V30 3356 H 340.105 -4.15487 -1.99267 0
M  V30 3357 H 338.42 -3.68341 -1.942 0
M  V30 3358 H 341.017 -2.77474 -4.57069 0
M  V30 3359 H 341.36 -1.16088 -3.99787 0
M  V30 3360 H 341.893 -2.56453 -3.041 0
M  V30 3361 H 338.632 -5.52151 -3.53283 0
M  V30 3362 H 338.152 -4.0559 -4.41879 0
M  V30 3363 H 339.831 -4.64401 -4.50489 0
M  V30 3364 N 339.963 1.05934 -1.16686 0
M  V30 3365 C 341.211 1.78447 -0.948744 0
M  V30 3366 C 341.532 1.87813 0.524523 0
M  V30 3367 O 340.802 1.38945 1.38098 0
M  V30 3368 H 339.382 0.660971 -0.348033 0
M  V30 3369 H 342.044 1.27947 -1.47022 0
M  V30 3370 H 341.14 2.80394 -1.37061 0
M  V30 3371 N 341.441 0.965919 1.2453 0
M  V30 3372 C 342.371 0.513476 2.27784 0
M  V30 3373 C 343.352 -0.445974 1.6415 0
M  V30 3374 O 344.537 -0.342485 1.91156 0
M  V30 3375 C 341.667 -0.198839 3.4673 0
M  V30 3376 C 340.621 0.676456 4.2262 0
M  V30 3377 C 339.947 -0.167248 5.34438 0
M  V30 3378 C 341.247 1.96017 4.84123 0
M  V30 3379 H 342.941 1.3765 2.65881 0
M  V30 3380 H 340.487 0.663321 1.27813 0
M  V30 3381 H 342.44 -0.526567 4.18097 0
M  V30 3382 H 341.164 -1.0962 3.07654 0
M  V30 3383 H 339.823 0.98743 3.53052 0
M  V30 3384 H 339.471 -1.0647 4.91603 0
M  V30 3385 H 339.171 0.415181 5.86131 0
M  V30 3386 H 340.695 -0.489688 6.08633 0
M  V30 3387 H 342.109 1.69814 5.47573 0
M  V30 3388 H 340.506 2.48918 5.4604 0
M  V30 3389 H 341.576 2.65622 4.05676 0
M  V30 3390 N 342.919 -1.39368 0.735821 0
M  V30 3391 C 344.196 -1.94465 0.210395 0
M  V30 3392 C 344.576 -1.67254 -1.28799 0
M  V30 3393 O 343.924 -1.00123 -2.05396 0
M  V30 3394 C 344.134 -3.4472 0.544897 0
M  V30 3395 C 345.482 -4.21708 0.494689 0
M  V30 3396 O 346.506 -3.52922 0.482136 0
M  V30 3397 O 345.365 -5.44299 0.489947 0
M  V30 3398 H 342.459 -0.826096 0.0386666 0
M  V30 3399 H 345.005 -1.48863 0.814735 0
M  V30 3400 H 343.777 -3.57963 1.58045 0
M  V30 3401 H 343.4 -3.97502 -0.08837 0
M  V30 3402 N 344.397 -0.483516 -1.5 0
M  V30 3403 C 345.625 0.0644831 -2.06799 0
M  V30 3404 C 346.04 1.32399 -1.34596 0
M  V30 3405 O 345.397 1.77626 -0.418946 0
M  V30 3406 C 345.448 0.339927 -3.59898 0
M  V30 3407 O 345.169 -0.869635 -4.29382 0
M  V30 3408 C 346.67 0.933515 -4.33359 0
M  V30 3409 H 343.89 -0.0126333 -0.670881 0
M  V30 3410 H 346.434 -0.675864 -1.93009 0
M  V30 3411 H 344.589 1.03022 -3.7345 0
M  V30 3412 H 345.003 -0.62179 -5.20801 0
M  V30 3413 H 346.477 1.07593 -5.41413 0
M  V30 3414 H 346.954 1.92685 -3.94676 0
M  V30 3415 H 347.56 0.281221 -4.24369 0
M  V30 3416 N 345.875 1.56104 -0.216619 0
M  V30 3417 C 347.286 1.844 0.292128 0
M  V30 3418 C 347.637 1.13788 1.59833 0
M  V30 3419 O 346.762 0.405888 2.12559 0
M  V30 3420 C 347.357 3.3452 0.53681 0
M  V30 3421 C 345.916 3.63151 0.989876 0
M  V30 3422 C 345.063 2.77255 0.0502302 0
M  V30 3423 H 348.014 1.52481 -0.439926 0
M  V30 3424 H 348.035 3.54459 1.38345 0
M  V30 3425 H 347.547 3.85885 -0.414031 0
M  V30 3426 H 345.648 3.17238 1.95425 0
M  V30 3427 H 345.761 4.71177 0.867698 0
M  V30 3428 H 344.125 2.48555 0.556117 0
M  V30 3429 H 344.908 3.31416 -0.89544 0
M  V30 3430 N 347.353 -0.0568162 1.57498 0
M  V30 3431 C 348.601 -0.751617 1.87604 0
M  V30 3432 C 348.922 -1.77351 0.81066 0
M  V30 3433 O 348.192 -1.95254 -0.159018 0
M  V30 3434 H 346.772 -0.280583 0.692302 0
M  V30 3435 H 349.434 -0.0293483 1.94878 0
M  V30 3436 H 348.53 -1.25852 2.856 0
M  V30 3437 N 348.832 -1.54138 -0.328536 0
M  V30 3438 C 349.795 -1.82462 -1.38709 0
M  V30 3439 C 350.795 -0.696229 -1.44946 0
M  V30 3440 O 351.985 -0.964535 -1.4506 0
M  V30 3441 C 349.117 -1.98018 -2.77492 0
M  V30 3442 H 350.31 -2.77037 -1.14851 0
M  V30 3443 H 347.863 -1.45779 -0.563751 0
M  V30 3444 H 348.598 -1.05637 -3.06613 0
M  V30 3445 H 348.383 -2.80124 -2.74359 0
M  V30 3446 H 349.873 -2.21396 -3.54081 0
M  V30 3447 N 350.31 0.590341 -1.46126 0
M  V30 3448 C 351.556 1.35082 -1.51264 0
M  V30 3449 C 351.889 1.93534 -0.160711 0
M  V30 3450 O 351.164 1.76045 0.826956 0
M  V30 3451 C 351.447 2.48588 -2.6053 0
M  V30 3452 C 351.3 1.95221 -4.05227 0
M  V30 3453 C 352.619 3.50662 -2.6594 0
M  V30 3454 H 349.738 0.489803 -0.550692 0
M  V30 3455 H 352.38 0.663887 -1.78024 0
M  V30 3456 H 350.53 3.07186 -2.37843 0
M  V30 3457 H 352.202 1.41139 -4.39178 0
M  V30 3458 H 350.445 1.26101 -4.15068 0
M  V30 3459 H 351.116 2.77121 -4.77397 0
M  V30 3460 H 353.592 3.01934 -2.86313 0
M  V30 3461 H 352.468 4.27551 -3.44226 0
M  V30 3462 H 352.729 4.07399 -1.71694 0
M  V30 3463 N 351.788 1.33704 0.83433 0
M  V30 3464 C 352.72 1.20172 1.9517 0
M  V30 3465 C 353.733 0.131572 1.62267 0
M  V30 3466 O 354.922 0.382406 1.74356 0
M  V30 3467 C 352.022 0.821716 3.28787 0
M  V30 3468 C 351.195 1.98446 3.89792 0
M  V30 3469 C 350.254 1.58469 5.01771 0
M  V30 3470 O 349.28 2.29968 5.20676 0
M  V30 3471 N 350.482 0.492291 5.78409 0
M  V30 3472 H 353.247 2.16429 2.07313 0
M  V30 3473 H 350.808 1.26509 1.0103 0
M  V30 3474 H 352.8 0.536291 4.01131 0
M  V30 3475 H 351.37 -0.0503058 3.1256 0
M  V30 3476 H 350.59 2.43526 3.09982 0
M  V30 3477 H 351.878 2.76236 4.27283 0
M  V30 3478 H 351.276 -0.102349 5.65607 0
M  V30 3479 H 349.833 0.266555 6.51255 0
M  V30 3480 N 353.266 -1.05314 1.17247 0
M  V30 3481 C 354.229 -2.112 0.890357 0
M  V30 3482 C 355.229 -1.60359 -0.118943 0
M  V30 3483 O 356.419 -1.73833 0.113086 0
M  V30 3484 C 353.551 -3.39266 0.333422 0
M  V30 3485 H 354.744 -2.37659 1.82916 0
M  V30 3486 H 352.297 -1.21538 0.982758 0
M  V30 3487 H 353.032 -3.18462 -0.612587 0
M  V30 3488 H 352.817 -3.77477 1.06082 0
M  V30 3489 H 354.307 -4.17315 0.154322 0
M  V30 3490 N 354.744 -0.972509 -1.24016 0
M  V30 3491 C 355.974 -0.653853 -1.9598 0
M  V30 3492 C 356.382 0.781801 -1.72292 0
M  V30 3493 O 355.725 1.53677 -1.00644 0
M  V30 3494 C 355.787 -0.854608 -3.49194 0
M  V30 3495 C 355.451 -2.27082 -3.96589 0
M  V30 3496 C 356.448 -3.24892 -4.05883 0
M  V30 3497 C 354.133 -2.5998 -4.29786 0
M  V30 3498 C 356.127 -4.53684 -4.47716 0
M  V30 3499 C 353.814 -3.88997 -4.71301 0
M  V30 3500 C 354.812 -4.85661 -4.80232 0
M  V30 3501 O 354.5 -6.12376 -5.20818 0
M  V30 3502 H 354.232 -0.242572 -0.630979 0
M  V30 3503 H 356.786 -1.30431 -1.58673 0
M  V30 3504 H 355.016 -0.146985 -3.86421 0
M  V30 3505 H 356.705 -0.534311 -4.02368 0
M  V30 3506 H 357.471 -3.00805 -3.80449 0
M  V30 3507 H 353.35 -1.85457 -4.22051 0
M  V30 3508 H 356.894 -5.29135 -4.54601 0
M  V30 3509 H 352.791 -4.12882 -4.96184 0
M  V30 3510 H 353.559 -6.16013 -5.38953 0
M  V30 3511 N 356.222 1.38976 -0.743202 0
M  V30 3512 C 357.45 2.04636 -0.30525 0
M  V30 3513 C 357.865 1.56044 1.06281 0
M  V30 3514 O 357.222 0.728921 1.67311 0
M  V30 3515 C 357.273 3.60193 -0.307177 0
M  V30 3516 O 356.994 4.06998 -1.62124 0
M  V30 3517 C 358.495 4.4306 0.145928 0
M  V30 3518 H 355.715 0.65788 -0.132041 0
M  V30 3519 H 358.259 1.77866 -1.00915 0
M  V30 3520 H 356.414 3.85835 0.347898 0
M  V30 3521 H 356.828 5.01371 -1.54036 0
M  V30 3522 H 358.302 5.51921 0.0934183 0
M  V30 3523 H 358.779 4.22706 1.19231 0
M  V30 3524 H 359.385 4.22584 -0.479886 0
M  V30 3525 N 357.7 0.491464 1.49741 0
M  V30 3526 C 358.63 -0.28154 2.31796 0
M  V30 3527 C 359.611 -0.971473 1.3963 0
M  V30 3528 O 360.796 -0.964719 1.68543 0
M  V30 3529 C 357.926 -1.35203 3.19902 0
M  V30 3530 C 356.88 -0.782529 4.20786 0
M  V30 3531 C 356.206 -1.95283 4.97764 0
M  V30 3532 C 357.506 0.21999 5.21837 0
M  V30 3533 H 359.2 0.403355 2.96671 0
M  V30 3534 H 356.746 0.195425 1.42668 0
M  V30 3535 H 358.699 -1.90045 3.76113 0
M  V30 3536 H 357.423 -2.06598 2.52953 0
M  V30 3537 H 356.082 -0.255928 3.65706 0
M  V30 3538 H 355.73 -2.65423 4.2727 0
M  V30 3539 H 355.43 -1.57789 5.66018 0
M  V30 3540 H 356.954 -2.50577 5.56816 0
M  V30 3541 H 358.368 -0.23996 5.72798 0
M  V30 3542 H 356.765 0.51026 5.97927 0
M  V30 3543 H 357.835 1.13911 4.7133 0
M  V30 3544 N 359.178 -1.55987 0.224894 0
M  V30 3545 C 360.111 -2.16413 -0.723929 0
M  V30 3546 C 361.089 -1.10952 -1.18863 0
M  V30 3547 O 362.273 -1.39225 -1.27077 0
M  V30 3548 C 359.4 -2.74711 -1.98121 0
M  V30 3549 C 358.446 -3.9303 -1.6562 0
M  V30 3550 S 359.279 -5.29817 -0.778058 0
M  V30 3551 C 360.435 -5.91555 -2.04483 0
M  V30 3552 H 360.668 -2.96555 -0.210347 0
M  V30 3553 H 358.201 -1.54397 0.00955457 0
M  V30 3554 H 360.159 -3.08938 -2.70311 0
M  V30 3555 H 358.82 -1.94555 -2.46591 0
M  V30 3556 H 358.013 -4.32334 -2.59043 0
M  V30 3557 H 357.615 -3.59966 -1.01491 0
M  V30 3558 H 359.907 -6.07732 -2.99446 0
M  V30 3559 H 360.85 -6.87498 -1.69563 0
M  V30 3560 H 361.258 -5.20419 -2.18688 0
M  V30 3561 N 360.656 0.0484629 -1.57525 0
M  V30 3562 C 362.072 0.40375 -1.54409 0
M  V30 3563 C 362.272 1.77786 -0.948384 0
M  V30 3564 O 361.328 2.46189 -0.560983 0
M  V30 3565 C 362.641 0.323394 -2.98956 0
M  V30 3566 C 364.189 0.401892 -3.10409 0
M  V30 3567 C 364.664 0.351195 -4.56652 0
M  V30 3568 N 366.155 0.410576 -4.61377 0
M  V30 3569 C 366.89 0.393933 -5.72045 0
M  V30 3570 N 366.386 0.330724 -6.9201 0
M  V30 3571 N 368.179 0.442227 -5.60358 0
M  V30 3572 H 360.33 -0.851016 -1.94606 0
M  V30 3573 H 362.593 -0.321721 -0.89174 0
M  V30 3574 H 362.299 -0.62011 -3.4619 0
M  V30 3575 H 362.173 1.12463 -3.60044 0
M  V30 3576 H 364.56 1.33582 -2.63134 0
M  V30 3577 H 364.641 -0.428342 -2.52188 0
M  V30 3578 H 364.285 -0.578987 -5.04589 0
M  V30 3579 H 364.215 1.19928 -5.12762 0
M  V30 3580 H 366.706 0.462729 -3.75056 0
M  V30 3581 H 367.019 0.322592 -7.72126 0
M  V30 3582 H 365.364 0.29706 -6.94365 0
M  V30 3583 H 368.555 0.489464 -4.65534 0
M  V30 3584 H 368.728 0.425788 -6.466 0
M  V30 3585 N 362.134 1.5431 0.320358 0
M  V30 3586 C 363.411 1.63322 1.07635 0
M  V30 3587 C 363.791 0.46912 2.05821 0
M  V30 3588 O 363.139 -0.536274 2.22118 0
M  V30 3589 C 363.349 3.00465 1.77544 0
M  V30 3590 C 364.697 3.56621 2.30449 0
M  V30 3591 O 365.721 3.02791 1.87606 0
M  V30 3592 O 364.58 4.5083 3.08892 0
M  V30 3593 H 361.674 0.661502 0.496331 0
M  V30 3594 H 364.22 1.66656 0.319992 0
M  V30 3595 H 362.992 3.76629 1.06143 0
M  V30 3596 H 362.615 3.00824 2.59982 0
M  V30 3597 N 363.613 -0.582584 1.46437 0
M  V30 3598 C 364.546 -1.70633 1.51524 0
M  V30 3599 C 365.524 -1.58349 0.369351 0
M  V30 3600 O 366.708 -1.79563 0.573516 0
M  V30 3601 C 363.835 -3.08687 1.39392 0
M  V30 3602 C 362.881 -3.3949 2.58164 0
M  V30 3603 S 363.714 -3.31548 4.20519 0
M  V30 3604 C 364.87 -4.72139 4.10896 0
M  V30 3605 H 365.103 -1.66058 2.46601 0
M  V30 3606 H 362.636 -0.761337 1.34324 0
M  V30 3607 H 364.594 -3.8833 1.33079 0
M  V30 3608 H 363.255 -3.10751 0.457436 0
M  V30 3609 H 362.448 -4.40071 2.45669 0
M  V30 3610 H 362.05 -2.67415 2.61468 0
M  V30 3611 H 364.342 -5.62527 3.77584 0
M  V30 3612 H 365.285 -4.89692 5.11476 0
M  V30 3613 H 365.693 -4.48995 3.42146 0
M  V30 3614 N 365.091 -1.34144 -0.827227 0
M  V30 3615 C 366.337 -1.26446 -1.58554 0
M  V30 3616 C 366.67 0.1664 -1.93486 0
M  V30 3617 O 365.945 1.1107 -1.59667 0
M  V30 3618 C 366.228 -2.15111 -2.8879 0
M  V30 3619 C 366.081 -3.66712 -2.60465 0
M  V30 3620 C 367.4 -2.03311 -3.90324 0
M  V30 3621 H 364.519 -0.46067 -0.575284 0
M  V30 3622 H 367.161 -1.64356 -0.953269 0
M  V30 3623 H 365.311 -1.8291 -3.42748 0
M  V30 3624 H 366.983 -4.09259 -2.1285 0
M  V30 3625 H 365.226 -3.88014 -1.93978 0
M  V30 3626 H 365.897 -4.24112 -3.53317 0
M  V30 3627 H 368.373 -2.31574 -3.45706 0
M  V30 3628 H 367.249 -2.67582 -4.79261 0
M  V30 3629 H 367.51 -1.00879 -4.30437 0
M  V30 3630 N 366.569 1.04691 -1.17803 0
M  V30 3631 C 367.794 1.81984 -0.994813 0
M  V30 3632 C 368.219 1.82586 0.452112 0
M  V30 3633 O 367.577 1.23854 1.324 0
M  V30 3634 C 367.625 3.2575 -1.54659 0
M  V30 3635 O 366.729 4.05267 -0.763728 0
M  V30 3636 H 366.07 0.562483 -0.352857 0
M  V30 3637 H 368.6 1.3189 -1.56417 0
M  V30 3638 H 368.61 3.76541 -1.57102 0
M  V30 3639 H 367.285 3.24627 -2.59981 0
M  V30 3640 H 365.862 3.63972 -0.811108 0
M  V30 3641 N 368.047 0.979072 1.23499 0
M  V30 3642 C 368.994 0.517904 2.24914 0
M  V30 3643 C 369.964 -0.442525 1.60097 0
M  V30 3644 O 371.149 -0.350365 1.87556 0
M  V30 3645 C 368.289 -0.174813 3.44657 0
M  V30 3646 C 367.402 0.825721 4.24035 0
M  V30 3647 C 366.537 0.107946 5.3109 0
M  V30 3648 C 365.576 1.09778 6.02175 0
M  V30 3649 N 364.713 0.40925 7.00906 0
M  V30 3650 H 369.553 1.38751 2.63727 0
M  V30 3651 H 367.09 0.695303 1.2963 0
M  V30 3652 H 369.048 -0.593233 4.12961 0
M  V30 3653 H 367.678 -1.0083 3.06648 0
M  V30 3654 H 366.73 1.36253 3.55161 0
M  V30 3655 H 368.042 1.58005 4.73113 0
M  V30 3656 H 367.196 -0.367904 6.05583 0
M  V30 3657 H 365.935 -0.678994 4.8295 0
M  V30 3658 H 364.94 1.5844 5.26476 0
M  V30 3659 H 366.165 1.88536 6.52404 0
M  V30 3660 H 364.111 -0.358506 6.5502 0
M  V30 3661 H 364.028 1.10226 7.47921 0
M  V30 3662 H 365.296 -0.0442557 7.79487 0
M  V30 3663 N 369.525 -1.3858 0.750561 0
M  V30 3664 C 370.755 -2.04175 0.31564 0
M  V30 3665 C 371.163 -1.56726 -1.05989 0
M  V30 3666 O 370.506 -0.734225 -1.68389 0
M  V30 3667 C 370.568 -3.58585 0.256389 0
M  V30 3668 C 370.232 -4.29077 1.57296 0
M  V30 3669 C 371.229 -4.54656 2.52159 0
M  V30 3670 C 368.914 -4.67324 1.84156 0
M  V30 3671 C 370.908 -5.17512 3.72103 0
M  V30 3672 C 368.595 -5.29905 3.04374 0
M  V30 3673 C 369.593 -5.54933 3.98168 0
M  V30 3674 O 369.281 -6.16212 5.16273 0
M  V30 3675 H 369.013 -0.662742 0.133226 0
M  V30 3676 H 371.567 -1.78313 1.01948 0
M  V30 3677 H 369.797 -3.83406 -0.503677 0
M  V30 3678 H 371.486 -4.05628 -0.148612 0
M  V30 3679 H 372.252 -4.25539 2.32683 0
M  V30 3680 H 368.131 -4.47191 1.11988 0
M  V30 3681 H 371.675 -5.36963 4.45327 0
M  V30 3682 H 367.572 -5.58444 3.23745 0
M  V30 3683 H 368.34 -6.34701 5.16815 0
M  V30 3684 N 371.003 -0.499398 -1.49478 0
M  V30 3685 C 371.953 0.299103 -2.2603 0
M  V30 3686 C 372.937 0.936934 -1.30807 0
M  V30 3687 O 374.129 0.844798 -1.55538 0
M  V30 3688 C 371.258 1.36391 -3.15044 0
M  V30 3689 C 370.344 0.732398 -4.17728 0
M  V30 3690 N 370.735 -0.164028 -5.05534 0
M  V30 3691 C 369.033 0.993162 -4.34801 0
M  V30 3692 C 369.734 -0.525345 -5.79323 0
M  V30 3693 N 368.71 0.106348 -5.43496 0
M  V30 3694 H 372.512 -0.391003 -2.91287 0
M  V30 3695 H 370.026 -0.31537 -1.59308 0
M  V30 3696 H 372.023 1.94939 -3.68516 0
M  V30 3697 H 370.683 2.05571 -2.51338 0
M  V30 3698 H 371.694 -0.534736 -5.15132 0
M  V30 3699 H 368.371 1.67783 -3.82302 0
M  V30 3700 H 369.761 -1.25862 -6.60006 0
M  V30 3701 N 372.481 1.55866 -0.233164 0
M  V30 3702 C 373.727 1.99643 0.389148 0
M  V30 3703 C 374.082 1.11836 1.56558 0
M  V30 3704 O 373.375 0.170848 1.90837 0
M  V30 3705 C 373.569 3.46856 0.861724 0
M  V30 3706 C 373.398 4.48904 -0.267376 0
M  V30 3707 C 372.168 4.99888 -0.737577 0
M  V30 3708 C 374.366 5.02624 -1.08966 0
M  V30 3709 N 372.348 5.8566 -1.84052 0
M  V30 3710 C 373.719 5.85434 -2.04125 0
M  V30 3711 C 375.774 4.84959 -1.12779 0
M  V30 3712 C 374.477 6.52466 -3.02789 0
M  V30 3713 C 376.503 5.52759 -2.10266 0
M  V30 3714 C 375.865 6.35346 -3.04162 0
M  V30 3715 H 371.964 0.774402 0.108742 0
M  V30 3716 H 374.548 1.91572 -0.347596 0
M  V30 3717 H 372.719 3.55352 1.5678 0
M  V30 3718 H 374.451 3.77531 1.45783 0
M  V30 3719 H 371.206 4.7249 -0.324122 0
M  V30 3720 H 371.63 6.33246 -2.39434 0
M  V30 3721 H 376.272 4.20751 -0.415749 0
M  V30 3722 H 373.99 7.15849 -3.74948 0
M  V30 3723 H 377.576 5.41051 -2.13905 0
M  V30 3724 H 376.456 6.86883 -3.78366 0
M  V30 3725 N 373.959 -0.0401083 1.57549 0
M  V30 3726 C 374.892 -1.07689 2.01192 0
M  V30 3727 C 375.87 -1.358 0.894273 0
M  V30 3728 O 377.054 -1.48642 1.15921 0
M  V30 3729 C 374.181 -2.41418 2.3756 0
M  V30 3730 C 373.227 -2.29237 3.59656 0
M  V30 3731 S 374.06 -1.65628 5.09242 0
M  V30 3732 C 375.216 -3.0087 5.48843 0
M  V30 3733 H 375.449 -0.705108 2.88817 0
M  V30 3734 H 372.982 -0.249724 1.52367 0
M  V30 3735 H 374.94 -3.18329 2.59186 0
M  V30 3736 H 373.601 -2.75747 1.50407 0
M  V30 3737 H 372.794 -3.27932 3.82722 0
M  V30 3738 H 372.396 -1.60469 3.37825 0
M  V30 3739 H 374.688 -3.97201 5.48851 0
M  V30 3740 H 375.631 -2.82549 6.49286 0
M  V30 3741 H 376.039 -3.02934 4.76331 0
M  V30 3742 N 375.437 -1.54477 -0.31217 0
M  V30 3743 C 376.665 -1.77205 -1.068 0
M  V30 3744 C 377.08 -0.526114 -1.81321 0
M  V30 3745 O 376.437 0.503647 -1.75413 0
M  V30 3746 C 376.488 -2.97253 -2.05725 0
M  V30 3747 O 376.209 -4.1703 -1.34228 0
M  V30 3748 C 377.71 -3.32281 -2.93435 0
M  V30 3749 H 374.93 -0.591287 -0.317208 0
M  V30 3750 H 377.474 -2.01398 -0.354834 0
M  V30 3751 H 375.629 -2.753 -2.72559 0
M  V30 3752 H 376.043 -4.84636 -2.00571 0
M  V30 3753 H 377.517 -4.19551 -3.58721 0
M  V30 3754 H 377.994 -2.49945 -3.61143 0
M  V30 3755 H 378.6 -3.56353 -2.32147 0
M  V30 3756 N 376.915 0.57481 -1.46744 0
M  V30 3757 C 378.326 1.15695 -1.46532 0
M  V30 3758 C 378.677 1.95068 -0.210425 0
M  V30 3759 O 377.802 2.05241 0.685944 0
M  V30 3760 C 378.397 2.1048 -2.65487 0
M  V30 3761 C 376.956 2.64002 -2.68291 0
M  V30 3762 C 376.103 1.40026 -2.39349 0
M  V30 3763 H 379.054 0.362325 -1.54509 0
M  V30 3764 H 379.075 2.94074 -2.41455 0
M  V30 3765 H 378.587 1.52683 -3.56805 0
M  V30 3766 H 376.688 3.25646 -1.81067 0
M  V30 3767 H 376.801 3.06197 -3.68483 0
M  V30 3768 H 375.165 1.70106 -1.89568 0
M  V30 3769 H 375.948 0.840485 -3.32852 0
M  V30 3770 N 378.394 1.34581 0.820102 0
M  V30 3771 C 379.619 1.30333 1.61332 0
M  V30 3772 C 380.044 -0.119339 1.87721 0
M  V30 3773 O 379.402 -1.08197 1.45475 0
M  V30 3774 C 379.45 2.10258 2.92957 0
M  V30 3775 O 378.554 1.47404 3.85157 0
M  V30 3776 H 377.895 0.447488 0.490561 0
M  V30 3777 H 380.425 1.77425 1.01889 0
M  V30 3778 H 380.435 2.21718 3.42498 0
M  V30 3779 H 379.11 3.13693 2.73074 0
M  V30 3780 H 377.687 1.44703 3.43679 0
M  V30 3781 N 379.872 -1.04064 1.18357 0
M  V30 3782 C 381.1 -1.80916 1.00384 0
M  V30 3783 C 381.515 -1.83414 -0.447738 0
M  V30 3784 O 380.872 -1.26962 -1.31099 0
M  V30 3785 C 380.923 -3.26516 1.55144 0
M  V30 3786 O 380.644 -3.2424 2.94618 0
M  V30 3787 C 382.145 -4.20013 1.41789 0
M  V30 3788 H 379.365 -0.569728 0.354474 0
M  V30 3789 H 381.909 -1.31151 1.56906 0
M  V30 3790 H 380.064 -3.73512 1.02798 0
M  V30 3791 H 380.478 -4.15452 3.20156 0
M  V30 3792 H 381.952 -5.20111 1.84901 0
M  V30 3793 H 382.429 -4.37667 0.36661 0
M  V30 3794 H 383.035 -3.78881 1.93207 0
M  V30 3795 N 381.35 -0.985608 -1.22978 0
M  V30 3796 C 382.298 -0.522631 -2.26652 0
M  V30 3797 C 383.292 0.422998 -1.64034 0
M  V30 3798 O 384.498 0.296319 -1.77544 0
M  V30 3799 H 380.873 -0.150597 -0.736766 0
M  V30 3800 H 382.844 -1.40863 -2.63059 0
M  V30 3801 C 381.593 0.154238 -3.47358 0
M  V30 3802 H 380.916 -0.564329 -3.95797 0
M  V30 3803 H 382.356 0.441744 -4.21693 0
M  V30 3804 C 380.815 1.38719 -3.07016 0
M  V30 3805 O 381.345 2.48307 -3.15764 0
M  V30 3806 N 379.551 1.25975 -2.61875 0
M  V30 3807 H 379.098 0.368068 -2.54957 0
M  V30 3808 H 379.056 2.08578 -2.3525 0
M  V30 3809 N 382.828 1.3818 -0.7579 0
M  V30 3810 C 384.076 1.99624 -0.315361 0
M  V30 3811 C 384.397 1.60464 1.10799 0
M  V30 3812 O 383.667 0.863507 1.75842 0
M  V30 3813 H 382.247 0.73831 -0.113611 0
M  V30 3814 H 384.909 1.68878 -0.972952 0
M  V30 3815 H 384.005 3.09754 -0.381931 0
M  V30 3816 N 384.306 0.507319 1.49211 0
M  V30 3817 C 385.531 -0.033725 2.07373 0
M  V30 3818 C 385.956 -1.29485 1.36437 0
M  V30 3819 O 385.314 -1.76294 0.423087 0
M  V30 3820 C 385.362 -0.263945 3.59633 0
M  V30 3821 O 384.466 -1.33737 3.90113 0
M  V30 3822 H 383.807 0.0290331 0.663365 0
M  V30 3823 H 386.337 0.708749 1.91932 0
M  V30 3824 H 386.347 -0.493536 4.05004 0
M  V30 3825 H 385.022 0.657424 4.10671 0
M  V30 3826 H 383.599 -1.09224 3.56545 0
M  V30 3827 N 385.784 -1.5574 0.241426 0
M  V30 3828 C 387.033 -1.97986 -0.385295 0
M  V30 3829 C 387.346 -1.13267 -1.59468 0
M  V30 3830 O 388.552 -1.45501 -2.2922 0
M  V30 3831 C 387.008 -3.52275 -0.736884 0
M  V30 3832 C 386.616 -4.45726 0.450796 0
M  V30 3833 C 388.36 -4.03189 -1.3281 0
M  V30 3834 C 386.267 -5.91352 0.0756662 0
M  V30 3835 H 385.197 -0.739386 -0.147731 0
M  V30 3836 H 387.848 -1.80308 0.340779 0
M  V30 3837 H 386.23 -3.65628 -1.52094 0
M  V30 3838 H 387.404 -4.44131 1.22819 0
M  V30 3839 H 385.719 -4.05264 0.956573 0
M  V30 3840 H 388.316 -5.09505 -1.62201 0
M  V30 3841 H 388.659 -3.50212 -2.25071 0
M  V30 3842 H 389.192 -3.93141 -0.607069 0
M  V30 3843 H 385.931 -6.48354 0.965272 0
M  V30 3844 H 385.451 -5.96095 -0.665635 0
M  V30 3845 H 387.13 -6.46084 -0.344075 0
M  V30 3846 N 387.262 0.0317525 -1.57568 0
M  V30 3847 C 388.225 1.01783 -2.0536 0
M  V30 3848 C 389.225 1.29203 -0.957253 0
M  V30 3849 O 390.415 1.24251 -1.22095 0
M  V30 3850 C 387.547 2.35137 -2.46827 0
M  V30 3851 H 388.74 0.605062 -2.93733 0
M  V30 3852 H 386.293 0.278514 -1.53799 0
M  V30 3853 H 387.028 2.81168 -1.61602 0
M  V30 3854 H 386.813 2.16566 -3.26866 0
M  V30 3855 H 388.303 3.05938 -2.84239 0
M  V30 3856 N 388.74 1.54641 0.303973 0
M  V30 3857 C 389.687 1.85386 1.37479 0
M  V30 3858 C 390.657 0.702528 1.50512 0
M  V30 3859 O 391.842 0.950867 1.65418 0
M  V30 3860 C 388.982 2.10413 2.73533 0
M  V30 3861 C 388.095 3.38049 2.68974 0
M  V30 3862 C 387.23 3.52934 3.97002 0
M  V30 3863 C 386.269 4.74373 3.86829 0
M  V30 3864 N 385.406 4.8608 5.06627 0
M  V30 3865 H 390.246 2.76732 1.1056 0
M  V30 3866 H 387.783 1.37034 0.534805 0
M  V30 3867 H 389.741 2.22919 3.52652 0
M  V30 3868 H 388.371 1.22338 2.98719 0
M  V30 3869 H 387.423 3.3418 1.81736 0
M  V30 3870 H 388.735 4.27288 2.57346 0
M  V30 3871 H 387.889 3.65088 4.84557 0
M  V30 3872 H 386.628 2.61824 4.1146 0
M  V30 3873 H 385.633 4.62255 2.97658 0
M  V30 3874 H 386.858 5.66888 3.73918 0
M  V30 3875 H 384.804 3.97891 5.21554 0
M  V30 3876 H 384.721 5.69315 4.9741 0
M  V30 3877 H 385.989 5.02587 5.95841 0
M  V30 3878 N 390.218 -0.567019 1.47046 0
M  V30 3879 C 391.181 -1.65696 1.58359 0
M  V30 3880 C 392.181 -1.54097 0.459441 0
M  V30 3881 O 393.371 -1.58432 0.724225 0
M  V30 3882 C 390.503 -3.05197 1.51879 0
M  V30 3883 H 391.696 -1.57019 2.5551 0
M  V30 3884 H 389.249 -0.786148 1.3509 0
M  V30 3885 H 389.984 -3.19417 0.560673 0
M  V30 3886 H 389.769 -3.15025 2.33455 0
M  V30 3887 H 391.259 -3.84511 1.62913 0
M  V30 3888 N 391.696 -1.35014 -0.812953 0
M  V30 3889 C 392.606 -1.2951 -1.95613 0
M  V30 3890 C 393.622 -0.20107 -1.72834 0
M  V30 3891 O 394.798 -0.42932 -1.96771 0
M  V30 3892 C 391.863 -1.06033 -3.30088 0
M  V30 3893 C 390.924 -2.24688 -3.65805 0
M  V30 3894 C 390.157 -2.02322 -4.93864 0
M  V30 3895 O 390.38 -0.986464 -5.61805 0
M  V30 3896 O 389.314 -2.89525 -5.27692 0
M  V30 3897 H 393.14 -2.25705 -2.03202 0
M  V30 3898 H 390.725 -1.15321 -0.949811 0
M  V30 3899 H 392.607 -0.94763 -4.10607 0
M  V30 3900 H 391.282 -0.128852 -3.23443 0
M  V30 3901 H 390.189 -2.41521 -2.85689 0
M  V30 3902 H 391.522 -3.16261 -3.77147 0
M  V30 3903 N 393.175 1.03435 -1.18907 0
M  V30 3904 C 394.422 1.76743 -0.988334 0
M  V30 3905 C 394.75 1.88447 0.481441 0
M  V30 3906 O 394.005 1.39383 1.37371 0
M  V30 3907 C 394.304 3.19792 -1.59586 0
M  V30 3908 C 393.97 3.28108 -3.09283 0
M  V30 3909 C 392.632 3.30084 -3.5014 0
M  V30 3910 C 394.984 3.27696 -4.05296 0
M  V30 3911 C 392.312 3.29299 -4.85571 0
M  V30 3912 C 394.664 3.28451 -5.4065 0
M  V30 3913 C 393.328 3.28723 -5.80946 0
M  V30 3914 H 392.598 0.64675 -0.361657 0
M  V30 3915 H 395.245 1.21442 -1.48068 0
M  V30 3916 H 393.55 3.78136 -1.02568 0
M  V30 3917 H 395.247 3.75171 -1.41589 0
M  V30 3918 H 391.837 3.27294 -2.76725 0
M  V30 3919 H 396.021 3.25354 -3.74778 0
M  V30 3920 H 391.277 3.2783 -5.16079 0
M  V30 3921 H 395.451 3.27082 -6.14809 0
M  V30 3922 H 393.078 3.27868 -6.85862 0
M  V30 3923 N 394.653 0.992116 1.22453 0
M  V30 3924 C 395.583 0.561677 2.26644 0
M  V30 3925 C 396.564 -0.411055 1.65059 0
M  V30 3926 O 397.749 -0.301861 1.9184 0
M  V30 3927 C 394.879 -0.125247 3.47074 0
M  V30 3928 C 393.833 0.765948 4.21091 0
M  V30 3929 C 393.159 -0.0538484 5.34673 0
M  V30 3930 C 394.459 2.06242 4.79856 0
M  V30 3931 H 396.153 1.43259 2.62902 0
M  V30 3932 H 393.699 0.690283 1.26377 0
M  V30 3933 H 395.652 -0.437764 4.1912 0
M  V30 3934 H 394.376 -1.03069 3.0991 0
M  V30 3935 H 393.035 1.0621 3.50878 0
M  V30 3936 H 392.683 -0.960188 4.9375 0
M  V30 3937 H 392.383 0.539415 5.85119 0
M  V30 3938 H 393.907 -0.360477 6.09535 0
M  V30 3939 H 395.321 1.8139 5.43848 0
M  V30 3940 H 393.718 2.60444 5.40638 0
M  V30 3941 H 394.788 2.74167 3.99951 0
M  V30 3942 N 396.131 -1.37776 0.765217 0
M  V30 3943 C 397.094 -2.28686 0.153416 0
M  V30 3944 C 398.094 -1.47727 -0.635081 0
M  V30 3945 O 399.284 -1.68027 -0.459632 0
M  V30 3946 C 396.416 -3.31608 -0.790495 0
M  V30 3947 H 397.609 -2.84297 0.954723 0
M  V30 3948 H 395.162 -1.46932 0.53299 0
M  V30 3949 H 395.897 -2.81109 -1.61705 0
M  V30 3950 H 395.682 -3.9144 -0.227348 0
M  V30 3951 H 397.172 -3.99559 -1.21419 0
M  V30 3952 N 397.609 -0.515225 -1.4894 0
M  V30 3953 C 398.857 0.0241671 -2.02086 0
M  V30 3954 C 399.178 1.3616 -1.3959 0
M  V30 3955 O 398.448 1.87841 -0.556121 0
M  V30 3956 H 397.028 0.0119203 -0.746905 0
M  V30 3957 H 399.69 -0.675702 -1.82812 0
M  V30 3958 H 398.786 0.143385 -3.1177 0
M  V30 3959 N 399.087 1.5561 -0.249682 0
M  V30 3960 C 400.034 2.21496 0.648694 0
M  V30 3961 C 401.004 1.17977 1.16921 0
M  V30 3962 O 402.189 1.46434 1.22318 0
M  V30 3963 C 399.329 2.92039 1.83868 0
M  V30 3964 C 398.442 4.10219 1.35442 0
M  V30 3965 C 397.577 4.6847 2.50419 0
M  V30 3966 C 396.616 5.78893 1.98869 0
M  V30 3967 N 395.753 6.31315 3.07223 0
M  V30 3968 H 400.593 2.97892 0.0801582 0
M  V30 3969 H 398.13 1.47074 0.0278031 0
M  V30 3970 H 400.088 3.31138 2.53778 0
M  V30 3971 H 398.718 2.18111 2.37965 0
M  V30 3972 H 397.77 3.76413 0.54928 0
M  V30 3973 H 399.082 4.89927 0.936649 0
M  V30 3974 H 398.236 5.10158 3.28366 0
M  V30 3975 H 396.975 3.87984 2.95499 0
M  V30 3976 H 395.98 5.3668 1.19393 0
M  V30 3977 H 397.205 6.61232 1.54755 0
M  V30 3978 H 395.151 5.53733 3.51732 0
M  V30 3979 H 395.068 7.06224 2.69784 0
M  V30 3980 H 396.336 6.77662 3.8522 0
M  V30 3981 N 400.565 -0.0233959 1.57583 0
M  V30 3982 C 401.814 -0.712133 1.8871 0
M  V30 3983 C 402.127 -1.76217 0.848944 0
M  V30 3984 O 403.333 -2.50389 1.04964 0
M  V30 3985 C 401.789 -1.3177 3.3491 0
M  V30 3986 C 401.397 -0.303715 4.46969 0
M  V30 3987 C 403.141 -1.98598 3.75179 0
M  V30 3988 C 401.048 -0.917945 5.84233 0
M  V30 3989 H 399.978 -0.269735 0.704101 0
M  V30 3990 H 402.629 0.0333114 1.8347 0
M  V30 3991 H 401.011 -2.11304 3.34913 0
M  V30 3992 H 402.185 0.465325 4.58445 0
M  V30 3993 H 400.5 0.2628 4.1557 0
M  V30 3994 H 403.097 -2.45416 4.75053 0
M  V30 3995 H 403.44 -2.80659 3.07468 0
M  V30 3996 H 403.973 -1.25831 3.77374 0
M  V30 3997 H 400.712 -0.136633 6.55358 0
M  V30 3998 H 400.232 -1.65669 5.76467 0
M  V30 3999 H 401.911 -1.4236 6.31144 0
M  V30 4000 N 402.043 -1.548 -0.295768 0
M  V30 4001 C 403.291 -1.73985 -1.02828 0
M  V30 4002 C 403.612 -0.531406 -1.87619 0
M  V30 4003 O 402.882 0.454221 -1.90561 0
M  V30 4004 H 401.462 -0.641556 -0.382642 0
M  V30 4005 H 404.124 -1.92163 -0.325489 0
M  V30 4006 H 403.22 -2.63129 -1.67838 0
M  V30 4007 N 403.521 0.559213 -1.47345 0
M  V30 4008 C 404.454 1.68201 -1.5422 0
M  V30 4009 C 405.432 1.57742 -0.394497 0
M  V30 4010 O 406.616 1.78628 -0.60201 0
M  V30 4011 C 403.743 3.0643 -1.44285 0
M  V30 4012 C 402.789 3.3534 -2.63532 0
M  V30 4013 S 403.622 3.24816 -4.25741 0
M  V30 4014 C 404.778 4.65542 -4.18355 0
M  V30 4015 H 405.011 1.62114 -2.49211 0
M  V30 4016 H 402.544 0.739871 -1.35519 0
M  V30 4017 H 404.502 3.86164 -1.3924 0
M  V30 4018 H 403.163 3.09984 -0.506816 0
M  V30 4019 H 402.356 4.36107 -2.52639 0
M  V30 4020 H 401.958 2.63221 -2.65689 0
M  V30 4021 H 404.25 5.56449 -3.86485 0
M  V30 4022 H 405.193 4.81493 -5.19202 0
M  V30 4023 H 405.601 4.43495 -3.49246 0
M  V30 4024 N 404.999 1.35443 0.805782 0
M  V30 4025 C 406.229 1.31687 1.59192 0
M  V30 4026 C 406.637 -0.10756 1.88894 0
M  V30 4027 O 405.98 -1.07017 1.49309 0
M  V30 4028 C 406.042 2.05686 2.94845 0
M  V30 4029 C 405.706 3.54868 2.87954 0
M  V30 4030 C 406.703 4.49444 2.61335 0
M  V30 4031 C 404.388 3.97528 3.07046 0
M  V30 4032 C 406.382 5.84655 2.53885 0
M  V30 4033 C 404.069 5.32833 2.99219 0
M  V30 4034 C 405.067 6.26209 2.72674 0
M  V30 4035 O 404.755 7.59032 2.64811 0
M  V30 4036 H 404.487 0.453878 0.50097 0
M  V30 4037 H 407.041 1.78892 1.0093 0
M  V30 4038 H 405.271 1.5312 3.55093 0
M  V30 4039 H 406.96 1.94998 3.55993 0
M  V30 4040 H 407.726 4.17804 2.46303 0
M  V30 4041 H 403.605 3.25233 3.26718 0
M  V30 4042 H 407.149 6.57508 2.33086 0
M  V30 4043 H 403.046 5.64087 3.13809 0
M  V30 4044 H 403.814 7.68967 2.80413 0
M  V30 4045 N 406.477 -1.02803 1.19454 0
M  V30 4046 C 407.723 -1.76478 0.999171 0
M  V30 4047 C 408.056 -1.88456 -0.468828 0
M  V30 4048 O 407.331 -1.40198 -1.34814 0
M  V30 4049 C 407.614 -3.19044 1.66981 0
M  V30 4050 C 407.467 -3.14932 3.21151 0
M  V30 4051 C 408.786 -4.17456 1.39349 0
M  V30 4052 H 405.905 -0.640614 0.364393 0
M  V30 4053 H 408.547 -1.20005 1.47305 0
M  V30 4054 H 406.697 -3.67263 1.2669 0
M  V30 4055 H 408.369 -2.74605 3.70661 0
M  V30 4056 H 406.612 -2.52625 3.52652 0
M  V30 4057 H 407.283 -4.1566 3.63223 0
M  V30 4058 H 409.759 -3.77842 1.74283 0
M  V30 4059 H 408.635 -5.154 1.88823 0
M  V30 4060 H 408.896 -4.40949 0.318813 0
M  V30 4061 N 407.956 -0.998596 -1.21925 0
M  V30 4062 C 409.181 -0.696015 -1.95372 0
M  V30 4063 C 409.606 0.733826 -1.73195 0
M  V30 4064 O 408.964 1.50242 -1.01474 0
M  V30 4065 C 409.012 -1.01466 -3.4603 0
M  V30 4066 O 408.116 -0.116415 -4.12236 0
M  V30 4067 H 407.457 -0.259938 -0.611006 0
M  V30 4068 H 409.987 -1.33711 -1.54863 0
M  V30 4069 H 409.997 -0.958855 -3.96573 0
M  V30 4070 H 408.672 -2.05653 -3.61497 0
M  V30 4071 H 407.249 -0.228193 -3.72201 0
M  V30 4072 N 409.434 1.37368 -0.772513 0
M  V30 4073 C 410.682 1.99279 -0.336516 0
M  V30 4074 C 411.003 1.6163 1.09091 0
M  V30 4075 O 410.273 0.882109 1.74916 0
M  V30 4076 H 408.853 0.737063 -0.121435 0
M  V30 4077 H 411.515 1.67836 -0.990809 0
M  V30 4078 H 410.611 3.09332 -0.414763 0
M  V30 4079 N 410.912 0.523116 1.48665 0
M  V30 4080 C 412.323 0.0808997 1.86525 0
M  V30 4081 C 412.674 -1.33975 1.43336 0
M  V30 4082 O 411.799 -2.00221 0.821009 0
M  V30 4083 C 412.394 0.140037 3.3851 0
M  V30 4084 C 410.953 -0.246948 3.75589 0
M  V30 4085 C 410.1 0.502845 2.72703 0
M  V30 4086 H 413.051 0.734736 1.40667 0
M  V30 4087 H 413.072 -0.649945 3.74908 0
M  V30 4088 H 412.584 1.17412 3.69914 0
M  V30 4089 H 410.685 -1.28343 3.49798 0
M  V30 4090 H 410.798 0.0878859 4.79019 0
M  V30 4091 H 409.162 -0.0500581 2.54651 0
M  V30 4092 H 409.945 1.53743 3.0695 0
M  V30 4093 N 412.39 -1.55475 0.257931 0
M  V30 4094 C 413.636 -2.00237 -0.357338 0
M  V30 4095 C 413.991 -1.14313 -1.54759 0
M  V30 4096 O 413.284 -0.201187 -1.90541 0
M  V30 4097 C 413.478 -3.48183 -0.806433 0
M  V30 4098 C 413.307 -4.48422 0.338758 0
M  V30 4099 C 412.077 -4.98651 0.817011 0
M  V30 4100 C 414.275 -5.00827 1.16949 0
M  V30 4101 N 412.257 -5.82658 1.93346 0
M  V30 4102 C 413.628 -5.82113 2.13413 0
M  V30 4103 C 415.683 -4.83104 1.2048 0
M  V30 4104 C 414.386 -6.47566 3.13131 0
M  V30 4105 C 416.412 -5.49343 2.19034 0
M  V30 4106 C 415.774 -6.30427 3.14232 0
M  V30 4107 H 411.873 -0.776034 -0.0964083 0
M  V30 4108 H 414.457 -1.90995 0.37803 0
M  V30 4109 H 412.628 -3.57801 -1.51107 0
M  V30 4110 H 414.36 -3.79802 -1.39758 0
M  V30 4111 H 411.115 -4.71914 0.39925 0
M  V30 4112 H 411.539 -6.29356 2.49478 0
M  V30 4113 H 416.181 -4.20036 0.482634 0
M  V30 4114 H 413.899 -7.09793 3.8629 0
M  V30 4115 H 417.485 -5.37579 2.22485 0
M  V30 4116 H 416.365 -6.80777 3.89246 0
M  V30 4117 N 413.868 0.0150385 -1.57593 0
M  V30 4118 C 415.145 0.7392 -1.81094 0
M  V30 4119 C 415.525 1.92817 -0.859344 0
M  V30 4120 O 414.873 2.28301 0.095362 0
M  V30 4121 C 415.083 1.15907 -3.29191 0
M  V30 4122 C 416.431 1.56918 -3.9454 0
M  V30 4123 O 417.455 1.25328 -3.33424 0
M  V30 4124 O 416.314 2.15604 -5.02173 0
M  V30 4125 H 413.408 0.358631 -0.745193 0
M  V30 4126 H 415.954 -0.00926156 -1.69697 0
M  V30 4127 H 414.726 0.310921 -3.90063 0
M  V30 4128 H 414.349 1.96711 -3.45529 0
M  V30 4129 N 415.346 1.54954 0.287554 0
M  V30 4130 C 416.574 1.78881 1.03967 0
M  V30 4131 C 416.989 0.554894 1.80462 0
M  V30 4132 O 416.346 -0.475676 1.76192 0
M  V30 4133 C 416.397 3.00488 2.0097 0
M  V30 4134 O 416.118 4.19113 1.27577 0
M  V30 4135 C 417.619 3.36907 2.88112 0
M  V30 4136 H 414.839 0.596259 0.307761 0
M  V30 4137 H 417.383 2.01937 0.322749 0
M  V30 4138 H 415.538 2.79601 2.68145 0
M  V30 4139 H 415.952 4.87765 1.92835 0
M  V30 4140 H 417.426 4.25205 3.52001 0
M  V30 4141 H 417.903 2.55659 3.57121 0
M  V30 4142 H 418.509 3.60001 2.26449 0
M  V30 4143 N 416.824 -0.551391 1.4764 0
M  V30 4144 C 417.787 -1.64007 1.60107 0
M  V30 4145 C 418.787 -1.53601 0.47576 0
M  V30 4146 O 419.977 -1.57655 0.740988 0
M  V30 4147 C 417.109 -3.03569 1.55108 0
M  V30 4148 H 418.302 -1.543 2.57161 0
M  V30 4149 H 415.855 -0.771776 1.35917 0
M  V30 4150 H 416.59 -3.18804 0.594519 0
M  V30 4151 H 416.375 -3.12532 2.36783 0
M  V30 4152 H 417.865 -3.82762 1.66982 0
M  V30 4153 N 418.302 -1.35869 -0.798587 0
M  V30 4154 C 419.579 -1.20145 -1.54352 0
M  V30 4155 C 419.959 0.216161 -2.0999 0
M  V30 4156 O 419.307 1.22068 -1.93162 0
M  V30 4157 C 419.517 -2.27602 -2.64572 0
M  V30 4158 C 420.865 -2.63811 -3.32699 0
M  V30 4159 O 421.889 -2.26576 -2.74849 0
M  V30 4160 O 420.748 -3.27866 -4.37226 0
M  V30 4161 H 417.842 -0.467248 -0.682355 0
M  V30 4162 H 420.388 -1.47574 -0.837859 0
M  V30 4163 H 419.16 -3.2265 -2.21388 0
M  V30 4164 H 418.783 -2.01488 -3.42766 0
M  V30 4165 N 419.78 1.02168 -1.19998 0
M  V30 4166 C 421.029 1.75091 -1.0013 0
M  V30 4167 C 421.342 1.89923 0.467835 0
M  V30 4168 O 422.548 2.59888 0.785515 0
M  V30 4169 C 421.004 3.14892 -1.74273 0
M  V30 4170 C 420.612 3.0809 -3.25245 0
M  V30 4171 C 422.356 3.9206 -1.62755 0
M  V30 4172 C 420.263 4.42867 -3.91948 0
M  V30 4173 H 419.193 0.656394 -0.37103 0
M  V30 4174 H 421.844 1.14284 -1.43567 0
M  V30 4175 H 420.226 3.7621 -1.2362 0
M  V30 4176 H 421.4 2.5611 -3.83072 0
M  V30 4177 H 419.715 2.44416 -3.3712 0
M  V30 4178 H 422.312 4.91764 -2.09934 0
M  V30 4179 H 422.655 4.12199 -0.582894 0
M  V30 4180 H 423.188 3.37359 -2.10793 0
M  V30 4181 H 419.927 4.27931 -4.96543 0
M  V30 4182 H 419.447 4.94874 -3.3891 0
M  V30 4183 H 421.126 5.11728 -3.95909 0
M  V30 4184 N 421.258 1.00505 1.21394 0
M  V30 4185 C 422.168 0.574806 2.27449 0
M  V30 4186 C 423.184 -0.382206 1.6975 0
M  V30 4187 O 424.36 -0.246027 1.99892 0
M  V30 4188 C 421.425 -0.0917414 3.46579 0
M  V30 4189 C 420.486 0.909758 4.1955 0
M  V30 4190 C 419.719 0.274924 5.32991 0
M  V30 4191 O 419.942 -0.928254 5.62796 0
M  V30 4192 O 418.876 0.985877 5.93771 0
M  V30 4193 H 422.702 1.45744 2.66444 0
M  V30 4194 H 420.287 0.773923 1.27792 0
M  V30 4195 H 422.169 -0.464551 4.18832 0
M  V30 4196 H 420.844 -0.948755 3.09484 0
M  V30 4197 H 419.751 1.33372 3.49518 0
M  V30 4198 H 421.084 1.73636 4.60555 0
M  V30 4199 N 422.737 -1.36956 0.779787 0
M  V30 4200 C 423.684 -2.30175 0.169697 0
M  V30 4201 C 424.654 -1.51501 -0.68094 0
M  V30 4202 O 425.839 -1.80042 -0.631629 0
M  V30 4203 C 422.979 -3.37985 -0.697131 0
M  V30 4204 C 422.092 -4.31661 0.170992 0
M  V30 4205 C 421.227 -5.2655 -0.701298 0
M  V30 4206 C 420.266 -6.11867 0.168869 0
M  V30 4207 N 419.403 -6.98973 -0.661855 0
M  V30 4208 H 424.243 -2.81767 0.970135 0
M  V30 4209 H 421.78 -1.38699 0.489994 0
M  V30 4210 H 423.738 -3.99128 -1.2146 0
M  V30 4211 H 422.368 -2.87739 -1.46309 0
M  V30 4212 H 421.42 -3.71756 0.80634 0
M  V30 4213 H 422.732 -4.91644 0.841875 0
M  V30 4214 H 421.886 -5.92937 -1.28494 0
M  V30 4215 H 420.625 -4.66998 -1.40584 0
M  V30 4216 H 419.63 -5.44452 0.764986 0
M  V30 4217 H 420.855 -6.73493 0.870863 0
M  V30 4218 H 418.801 -6.41941 -1.35086 0
M  V30 4219 H 418.718 -7.55984 -0.0484447 0
M  V30 4220 H 419.986 -7.6974 -1.22963 0
M  V30 4221 N 424.215 -0.530993 -1.48385 0
M  V30 4222 C 425.178 0.220497 -2.28137 0
M  V30 4223 C 426.178 0.866851 -1.35434 0
M  V30 4224 O 427.368 0.726746 -1.58316 0
M  V30 4225 C 424.5 1.31921 -3.1434 0
M  V30 4226 H 425.693 -0.479714 -2.96038 0
M  V30 4227 H 423.246 -0.286968 -1.53643 0
M  V30 4228 H 423.981 2.05264 -2.51072 0
M  V30 4229 H 423.766 0.86085 -3.82533 0
M  V30 4230 H 425.256 1.84776 -3.74497 0
M  V30 4231 N 425.693 1.55336 -0.266172 0
M  V30 4232 C 426.64 2.22172 0.625165 0
M  V30 4233 C 427.61 1.19211 1.15663 0
M  V30 4234 O 428.795 1.47723 1.20758 0
M  V30 4235 C 425.935 2.93972 1.8076 0
M  V30 4236 C 425.048 4.11632 1.31084 0
M  V30 4237 C 424.183 4.71099 2.45436 0
M  V30 4238 C 423.222 5.8097 1.92718 0
M  V30 4239 N 422.359 6.34538 3.00509 0
M  V30 4240 H 427.199 2.9796 0.0485582 0
M  V30 4241 H 424.736 1.47095 0.0122024 0
M  V30 4242 H 426.694 3.33811 2.50251 0
M  V30 4243 H 425.324 2.20623 2.35638 0
M  V30 4244 H 424.376 3.76975 0.509326 0
M  V30 4245 H 425.688 4.90893 0.884633 0
M  V30 4246 H 424.842 5.13612 3.22936 0
M  V30 4247 H 423.581 3.91096 2.91368 0
M  V30 4248 H 422.586 5.37916 1.13695 0
M  V30 4249 H 423.811 6.62836 1.47733 0
M  V30 4250 H 421.757 5.57433 3.45839 0
M  V30 4251 H 421.674 7.09046 2.62279 0
M  V30 4252 H 422.942 6.81709 3.78011 0
M  V30 4253 N 427.171 -0.0066808 1.57599 0
M  V30 4254 C 428.42 -0.692078 1.89455 0
M  V30 4255 C 428.733 -1.75306 0.867586 0
M  V30 4256 O 429.939 -2.49262 1.07614 0
M  V30 4257 C 428.395 -1.2821 3.36289 0
M  V30 4258 C 428.003 -0.256291 4.47266 0
M  V30 4259 C 429.747 -1.94608 3.77264 0
M  V30 4260 C 427.654 -0.855927 5.85173 0
M  V30 4261 H 426.584 -0.262252 0.706923 0
M  V30 4262 H 429.235 0.052769 1.83424 0
M  V30 4263 H 427.617 -2.0774 3.37135 0
M  V30 4264 H 428.791 0.513923 4.57925 0
M  V30 4265 H 427.106 0.306862 4.15268 0
M  V30 4266 H 429.703 -2.40364 4.77629 0
M  V30 4267 H 430.046 -2.77382 3.10427 0
M  V30 4268 H 430.579 -1.21822 3.78688 0
M  V30 4269 H 427.318 -0.0671161 6.55466 0
M  V30 4270 H 426.838 -1.59546 5.78191 0
M  V30 4271 H 428.517 -1.35658 6.32618 0
M  V30 4272 N 428.649 -1.55105 -0.279332 0
M  V30 4273 C 429.926 -1.66119 -1.03267 0
M  V30 4274 C 430.306 -0.523525 -2.04505 0
M  V30 4275 O 429.654 0.477194 -2.23462 0
M  V30 4276 C 429.864 -3.05067 -1.69515 0
M  V30 4277 C 431.212 -3.62606 -2.20912 0
M  V30 4278 O 432.236 -3.07659 -1.79512 0
M  V30 4279 O 431.095 -4.58861 -2.96831 0
M  V30 4280 H 428.189 -0.674429 -0.478618 0
M  V30 4281 H 430.735 -1.67446 -0.275694 0
M  V30 4282 H 429.507 -3.79311 -0.9612 0
M  V30 4283 H 429.13 -3.07611 -2.51915 0
M  V30 4284 N 430.127 0.543554 -1.4793 0
M  V30 4285 C 431.374 1.30008 -1.55255 0
M  V30 4286 C 431.702 1.93245 -0.220612 0
M  V30 4287 O 430.957 1.79141 0.787843 0
M  V30 4288 C 431.256 2.42078 -2.62932 0
M  V30 4289 C 430.922 1.96583 -4.0579 0
M  V30 4290 C 429.584 1.83893 -4.44676 0
M  V30 4291 C 431.936 1.62034 -4.95373 0
M  V30 4292 C 429.264 1.34969 -5.70964 0
M  V30 4293 C 431.616 1.14577 -6.22137 0
M  V30 4294 C 430.28 1.00493 -6.59892 0
M  V30 4295 H 429.55 0.475735 -0.568117 0
M  V30 4296 H 432.197 0.608075 -1.81589 0
M  V30 4297 H 430.502 3.16892 -2.30406 0
M  V30 4298 H 432.199 3.00236 -2.65818 0
M  V30 4299 H 428.789 2.07407 -3.75074 0
M  V30 4300 H 432.973 1.70705 -4.66019 0
M  V30 4301 H 428.229 1.2274 -5.98953 0
M  V30 4302 H 432.403 0.869109 -6.90955 0
M  V30 4303 H 430.03 0.623624 -7.57638 0
M  V30 4304 N 431.605 1.3629 0.791371 0
M  V30 4305 C 432.853 1.30154 1.5461 0
M  V30 4306 C 433.174 -0.119409 1.94634 0
M  V30 4307 O 432.444 -1.05924 1.64794 0
M  V30 4308 H 431.024 0.478784 0.573389 0
M  V30 4309 H 433.686 1.70565 0.94306 0
M  V30 4310 H 432.782 1.92762 2.45457 0
M  V30 4311 N 433.083 -1.0153 1.20538 0
M  V30 4312 C 434.329 -1.75408 1.01783 0
M  V30 4313 C 434.662 -1.88943 -0.448814 0
M  V30 4314 O 433.937 -1.4162 -1.33319 0
M  V30 4315 C 434.22 -3.17255 1.70356 0
M  V30 4316 C 434.073 -3.11508 3.24473 0
M  V30 4317 C 435.392 -4.15955 1.43769 0
M  V30 4318 H 432.511 -0.636713 0.371167 0
M  V30 4319 H 435.153 -1.18436 1.4857 0
M  V30 4320 H 433.303 -3.65898 1.30578 0
M  V30 4321 H 434.975 -2.70658 3.73553 0
M  V30 4322 H 433.218 -2.4887 3.55311 0
M  V30 4323 H 433.889 -4.11784 3.67611 0
M  V30 4324 H 436.365 -3.75973 1.7828 0
M  V30 4325 H 435.241 -5.13368 1.94279 0
M  V30 4326 H 435.502 -4.40586 0.365564 0
M  V30 4327 N 434.561 -1.01147 -1.20859 0
M  V30 4328 C 435.789 -0.716911 -1.94082 0
M  V30 4329 C 436.204 0.721568 -1.74467 0
M  V30 4330 O 435.561 1.48889 -1.05539 0
M  V30 4331 C 435.612 -1.03662 -3.46318 0
M  V30 4332 O 435.333 -2.4186 -3.65288 0
M  V30 4333 C 436.834 -0.762386 -4.36695 0
M  V30 4334 H 434.054 -0.26367 -0.617024 0
M  V30 4335 H 436.598 -1.35127 -1.53496 0
M  V30 4336 H 434.753 -0.447757 -3.84804 0
M  V30 4337 H 435.167 -2.53224 -4.59323 0
M  V30 4338 H 436.641 -1.03621 -5.42187 0
M  V30 4339 H 437.118 0.303514 -4.3815 0
M  V30 4340 H 437.724 -1.33316 -4.03865 0
M  V30 4341 N 436.039 1.36541 -0.78704 0
M  V30 4342 C 437.45 1.81873 -0.421807 0
M  V30 4343 C 437.801 1.65487 1.05397 0
M  V30 4344 O 436.926 1.17448 1.81755 0
M  V30 4345 C 437.521 3.30192 -0.758841 0
M  V30 4346 C 436.08 3.73743 -0.446468 0
M  V30 4347 C 435.227 2.58844 -0.994728 0
M  V30 4348 H 438.178 1.24796 -0.98039 0
M  V30 4349 H 438.199 3.80468 -0.0490648 0
M  V30 4350 H 437.711 3.42087 -1.83299 0
M  V30 4351 H 435.812 3.6741 0.619739 0
M  V30 4352 H 435.925 4.69272 -0.965415 0
M  V30 4353 H 434.289 2.51245 -0.418087 0
M  V30 4354 H 435.072 2.73525 -2.07458 0
M  V30 4355 N 437.518 0.538854 1.48102 0
M  V30 4356 C 438.764 0.0161732 2.03394 0
M  V30 4357 C 439.119 -1.31154 1.40771 0
M  V30 4358 O 438.412 -1.83613 0.547421 0
M  V30 4359 C 438.606 -0.153808 3.57069 0
M  V30 4360 C 438.435 1.15588 4.34591 0
M  V30 4361 C 437.205 1.71818 4.75191 0
M  V30 4362 C 439.403 2.06867 4.70861 0
M  V30 4363 N 437.385 2.96983 5.37284 0
M  V30 4364 C 438.756 3.16609 5.33066 0
M  V30 4365 C 440.811 2.07085 4.52791 0
M  V30 4366 C 439.514 4.26645 5.79109 0
M  V30 4367 C 441.54 3.16121 4.99821 0
M  V30 4368 C 440.902 4.24582 5.62058 0
M  V30 4369 H 437.001 0.0476346 0.780548 0
M  V30 4370 H 439.585 0.722094 1.80815 0
M  V30 4371 H 437.756 -0.828825 3.79454 0
M  V30 4372 H 439.488 -0.676896 3.98999 0
M  V30 4373 H 436.243 1.25845 4.56574 0
M  V30 4374 H 436.667 3.60732 5.72889 0
M  V30 4375 H 441.309 1.24522 4.04047 0
M  V30 4376 H 439.027 5.0998 6.26854 0
M  V30 4377 H 442.613 3.17355 4.87624 0
M  V30 4378 H 441.493 5.07562 5.97788 0
M  V30 4379 N 438.996 -1.55193 0.274407 0
M  V30 4380 C 440.407 -1.85358 -0.223488 0
M  V30 4381 C 440.758 -1.19642 -1.555 0
M  V30 4382 O 439.883 -0.484498 -2.10907 0
M  V30 4383 C 440.478 -3.36282 -0.412285 0
M  V30 4384 C 439.037 -3.66574 -0.854413 0
M  V30 4385 C 438.184 -2.7725 0.0527056 0
M  V30 4386 H 441.135 -1.50743 0.496215 0
M  V30 4387 H 441.156 -3.59349 -1.25094 0
M  V30 4388 H 440.668 -3.84083 0.556965 0
M  V30 4389 H 438.769 -3.24273 -1.83516 0
M  V30 4390 H 438.882 -4.74073 -0.692226 0
M  V30 4391 H 437.246 -2.50447 -0.463484 0
M  V30 4392 H 438.029 -3.27865 1.01783 0
M  V30 4393 N 440.474 -0.00167713 -1.576 0
M  V30 4394 C 441.702 0.693759 -1.94922 0
M  V30 4395 C 442.117 1.67215 -0.876626 0
M  V30 4396 O 441.474 1.81929 0.144279 0
M  V30 4397 C 441.525 1.42416 -3.32265 0
M  V30 4398 O 441.246 0.485014 -4.35407 0
M  V30 4399 C 442.747 2.21395 -3.84056 0
M  V30 4400 H 439.967 0.193118 -0.642609 0
M  V30 4401 H 442.511 -0.0532952 -2.04431 0
M  V30 4402 H 440.666 2.12284 -3.24059 0
M  V30 4403 H 441.08 1.00053 -5.14868 0
M  V30 4404 H 442.554 2.67996 -4.82578 0
M  V30 4405 H 443.031 3.04142 -3.16851 0
M  V30 4406 H 443.637 1.56542 -3.95443 0
M  V30 4407 N 441.952 1.55251 0.271103 0
M  V30 4408 C 442.882 1.9127 1.33933 0
M  V30 4409 C 443.863 0.77478 1.5143 0
M  V30 4410 O 445.048 1.03307 1.64442 0
M  V30 4411 C 442.178 2.18627 2.69851 0
M  V30 4412 C 441.132 3.34442 2.67081 0
M  V30 4413 C 440.458 3.47284 4.06569 0
M  V30 4414 C 441.758 4.70784 2.26185 0
M  V30 4415 H 443.452 2.80744 1.04035 0
M  V30 4416 H 440.998 1.35077 0.499017 0
M  V30 4417 H 442.951 2.42413 3.44694 0
M  V30 4418 H 441.675 1.25955 3.01335 0
M  V30 4419 H 440.334 3.10627 1.94695 0
M  V30 4420 H 439.982 2.52074 4.35279 0
M  V30 4421 H 439.682 4.25152 4.0561 0
M  V30 4422 H 441.206 3.73363 4.83148 0
M  V30 4423 H 442.62 4.94102 2.90751 0
M  V30 4424 H 441.017 5.51582 2.36384 0
M  V30 4425 H 442.087 4.69478 1.21319 0
M  V30 4426 N 443.43 -0.535701 1.48216 0
M  V30 4427 C 444.841 -1.11769 1.49548 0
M  V30 4428 C 445.192 -1.94442 0.26207 0
M  V30 4429 O 444.317 -2.06987 -0.631287 0
M  V30 4430 C 444.912 -2.03367 2.70975 0
M  V30 4431 C 443.471 -2.56795 2.75196 0
M  V30 4432 C 442.618 -1.33631 2.42977 0
M  V30 4433 H 445.569 -0.321232 1.55415 0
M  V30 4434 H 445.59 -2.87569 2.49167 0
M  V30 4435 H 445.102 -1.43169 3.60727 0
M  V30 4436 H 443.203 -3.20731 1.89638 0
M  V30 4437 H 443.316 -2.9632 3.76472 0
M  V30 4438 H 441.68 -1.6502 1.94012 0
M  V30 4439 H 442.463 -0.75194 3.34964 0
M  V30 4440 N 444.908 -1.36708 -0.784132 0
M  V30 4441 C 445.856 -1.31533 -1.91838 0
M  V30 4442 C 446.85 -0.206205 -1.6814 0
M  V30 4443 O 448.056 -0.373519 -1.76082 0
M  V30 4444 H 444.431 -0.409613 -0.630651 0
M  V30 4445 H 446.402 -2.2731 -1.9332 0
M  V30 4446 C 445.151 -1.12679 -3.28936 0
M  V30 4447 H 444.474 -1.97274 -3.4774 0
M  V30 4448 H 445.914 -1.13106 -4.08636 0
M  V30 4449 C 444.373 0.168281 -3.36479 0
M  V30 4450 O 444.903 1.15625 -3.84699 0
M  V30 4451 N 443.109 0.214762 -2.89805 0
M  V30 4452 H 442.656 -0.589852 -2.50756 0
M  V30 4453 H 442.614 1.08094 -2.95234 0
M  V30 4454 N 446.386 1.0089 -1.21074 0
M  V30 4455 C 447.634 1.74262 -1.02358 0
M  V30 4456 C 447.955 1.89869 0.444393 0
M  V30 4457 O 447.225 1.44677 1.32081 0
M  V30 4458 H 445.805 0.645615 -0.375754 0
M  V30 4459 H 448.467 1.21596 -1.52317 0
M  V30 4460 H 447.563 2.74328 -1.4883 0
M  V30 4461 N 447.864 1.01787 1.20321 0
M  V30 4462 C 448.811 0.589197 2.23153 0
M  V30 4463 C 449.781 -0.391367 1.61423 0
M  V30 4464 O 450.966 -0.290518 1.88575 0
M  V30 4465 C 448.106 -0.0650747 3.45039 0
M  V30 4466 C 447.219 0.960207 4.21194 0
M  V30 4467 C 446.354 0.276854 5.30478 0
M  V30 4468 C 445.393 1.2888 5.98378 0
M  V30 4469 N 444.53 0.632031 6.99249 0
M  V30 4470 H 449.37 1.47071 2.59179 0
M  V30 4471 H 446.907 0.736192 1.27352 0
M  V30 4472 H 448.865 -0.461552 4.14639 0
M  V30 4473 H 447.495 -0.910233 3.09701 0
M  V30 4474 H 446.547 1.47484 3.50646 0
M  V30 4475 H 447.859 1.72977 4.67847 0
M  V30 4476 H 447.013 -0.175056 6.06447 0
M  V30 4477 H 445.752 -0.525004 4.84866 0
M  V30 4478 H 444.757 1.75109 5.21169 0
M  V30 4479 H 445.982 2.09196 6.46076 0
M  V30 4480 H 443.928 -0.149935 6.55829 0
M  V30 4481 H 443.845 1.33964 7.44036 0
M  V30 4482 H 445.113 0.203755 7.79234 0
M  V30 4483 N 449.342 -1.36122 0.79427 0
M  V30 4484 C 450.292 -2.27373 0.169017 0
M  V30 4485 C 451.276 -1.4719 -0.649913 0
M  V30 4486 O 452.468 -1.69518 -0.50919 0
M  V30 4487 C 449.597 -3.36264 -0.691455 0
M  V30 4488 C 448.683 -4.2388 0.13653 0
M  V30 4489 N 449.074 -4.91519 1.19345 0
M  V30 4490 C 447.372 -4.45921 -0.0838499 0
M  V30 4491 C 448.073 -5.56369 1.6979 0
M  V30 4492 N 447.049 -5.34204 1.00634 0
M  V30 4493 H 450.851 -2.77154 0.977897 0
M  V30 4494 H 448.365 -1.49504 0.634208 0
M  V30 4495 H 450.362 -4.00572 -1.15534 0
M  V30 4496 H 449.022 -2.88037 -1.49883 0
M  V30 4497 H 450.033 -4.9334 1.57594 0
M  V30 4498 H 446.71 -4.08518 -0.861341 0
M  V30 4499 H 448.1 -6.20368 2.58055 0
M  V30 4500 N 450.82 -0.546701 -1.47814 0
M  V30 4501 C 451.783 0.196287 -2.28358 0
M  V30 4502 C 452.783 0.852437 -1.36346 0
M  V30 4503 O 453.973 0.709913 -1.59078 0
M  V30 4504 C 451.105 1.28579 -3.15722 0
M  V30 4505 H 452.298 -0.511086 -2.95513 0
M  V30 4506 H 449.851 -0.303248 -1.5333 0
M  V30 4507 H 450.586 2.0259 -2.53235 0
M  V30 4508 H 450.371 0.820229 -3.83425 0
M  V30 4509 H 451.861 1.80793 -3.76435 0
M  V30 4510 N 452.299 1.55045 -0.282633 0
M  V30 4511 C 453.527 2.04168 0.33512 0
M  V30 4512 C 453.942 1.16071 1.48906 0
M  V30 4513 O 453.299 0.182391 1.81586 0
M  V30 4514 C 453.35 3.52332 0.808957 0
M  V30 4515 O 453.071 4.37078 -0.299038 0
M  V30 4516 C 454.572 4.17375 1.49375 0
M  V30 4517 H 451.792 0.666744 0.0754543 0
M  V30 4518 H 454.336 2.00205 -0.416918 0
M  V30 4519 H 452.491 3.56715 1.51106 0
M  V30 4520 H 452.905 5.24458 0.0665514 0
M  V30 4521 H 454.379 5.22627 1.77664 0
M  V30 4522 H 454.856 3.65999 2.42778 0
M  V30 4523 H 455.462 4.17016 0.835305 0
M  V30 4524 N 453.777 0.010035 1.57597 0
M  V30 4525 C 455.188 -0.531426 1.78977 0
M  V30 4526 C 455.539 -1.73375 0.918454 0
M  V30 4527 O 454.664 -2.16047 0.123635 0
M  V30 4528 C 455.259 -0.97086 3.24592 0
M  V30 4529 C 453.818 -1.45756 3.47033 0
M  V30 4530 C 452.965 -0.413384 2.74201 0
M  V30 4531 H 455.916 0.236166 1.56933 0
M  V30 4532 H 455.937 -1.83633 3.33255 0
M  V30 4533 H 455.449 -0.0955893 3.87982 0
M  V30 4534 H 453.55 -2.35339 2.88871 0
M  V30 4535 H 453.663 -1.4781 4.55729 0
M  V30 4536 H 452.027 -0.877266 2.39115 0
M  V30 4537 H 452.81 0.453092 3.40297 0
M  V30 4538 N 455.255 -1.55392 -0.262866 0
M  V30 4539 C 456.502 -1.76476 -0.993109 0
M  V30 4540 C 456.83 -0.571479 -1.85915 0
M  V30 4541 O 456.085 0.445733 -1.90556 0
M  V30 4542 C 456.384 -3.02889 -1.89718 0
M  V30 4543 C 456.05 -4.34974 -1.18781 0
M  V30 4544 C 454.712 -4.7087 -0.991699 0
M  V30 4545 C 457.064 -5.16695 -0.683798 0
M  V30 4546 C 454.392 -5.86036 -0.279024 0
M  V30 4547 C 456.744 -6.32598 0.0153327 0
M  V30 4548 C 455.408 -6.67127 0.223062 0
M  V30 4549 H 454.678 -0.64577 -0.363404 0
M  V30 4550 H 457.325 -1.89664 -0.264525 0
M  V30 4551 H 455.63 -2.84644 -2.6923 0
M  V30 4552 H 457.327 -3.16399 -2.46359 0
M  V30 4553 H 453.917 -4.06765 -1.35058 0
M  V30 4554 H 458.101 -4.8943 -0.8229 0
M  V30 4555 H 453.357 -6.11306 -0.107456 0
M  V30 4556 H 457.531 -6.95171 0.413584 0
M  V30 4557 H 455.158 -7.56216 0.777265 0
M  V30 4558 N 456.733 0.527833 -1.48498 0
M  V30 4559 C 457.663 1.64136 -1.66077 0
M  V30 4560 C 458.644 1.62286 -0.509625 0
M  V30 4561 O 459.829 1.79449 -0.742413 0
M  V30 4562 C 456.959 3.02717 -1.70234 0
M  V30 4563 C 455.913 3.19426 -2.8487 0
M  V30 4564 C 455.239 4.5909 -2.74118 0
M  V30 4565 C 456.539 3.01993 -4.26142 0
M  V30 4566 H 458.233 1.4968 -2.593 0
M  V30 4567 H 455.779 0.718654 -1.24785 0
M  V30 4568 H 457.732 3.80491 -1.8112 0
M  V30 4569 H 456.456 3.18201 -0.735911 0
M  V30 4570 H 455.115 2.4407 -2.73542 0
M  V30 4571 H 454.763 4.71413 -1.7544 0
M  V30 4572 H 454.463 4.71214 -3.51042 0
M  V30 4573 H 455.987 5.3896 -2.86974 0
M  V30 4574 H 457.401 3.69558 -4.38292 0
M  V30 4575 H 455.798 3.2561 -5.04082 0
M  V30 4576 H 456.868 1.98396 -4.42456 0
M  V30 4577 N 458.211 1.37122 0.776871 0
M  V30 4578 C 459.459 1.31787 1.53221 0
M  V30 4579 C 459.78 -0.0987589 1.9475 0
M  V30 4580 O 459.05 -1.0417 1.65908 0
M  V30 4581 H 457.63 0.484839 0.568278 0
M  V30 4582 H 460.292 1.71556 0.924917 0
M  V30 4583 H 459.388 1.95355 2.43398 0
M  V30 4584 N 459.689 -1.00246 1.21608 0
M  V30 4585 C 460.935 -1.74319 1.03638 0
M  V30 4586 C 461.268 -1.89408 -0.428749 0
M  V30 4587 O 460.543 -1.43026 -1.3181 0
M  V30 4588 C 460.826 -3.15431 1.73711 0
M  V30 4589 C 460.679 -3.08049 3.27759 0
M  V30 4590 C 461.998 -4.14407 1.48173 0
M  V30 4591 H 459.117 -0.632741 0.377899 0
M  V30 4592 H 461.759 -1.16853 1.49818 0
M  V30 4593 H 459.909 -3.64493 1.34452 0
M  V30 4594 H 461.581 -2.66681 3.76403 0
M  V30 4595 H 459.824 -2.45088 3.57931 0
M  V30 4596 H 460.495 -4.07862 3.71958 0
M  V30 4597 H 462.971 -3.74061 1.82258 0
M  V30 4598 H 461.847 -5.11279 1.99713 0
M  V30 4599 H 462.108 -4.40174 0.412273 0
M  V30 4600 N 461.167 -1.02423 -1.1978 0
M  V30 4601 C 462.416 -0.713265 -1.88667 0
M  V30 4602 C 462.729 0.7609 -1.80193 0
M  V30 4603 O 463.935 1.18473 -2.44288 0
M  V30 4604 C 462.391 -1.22545 -3.38394 0
M  V30 4605 C 461.999 -2.72706 -3.55437 0
M  V30 4606 C 463.743 -0.990257 -4.12788 0
M  V30 4607 C 461.65 -3.17367 -4.99031 0
M  V30 4608 H 460.58 -0.263105 -0.706606 0
M  V30 4609 H 463.231 -1.23792 -1.35454 0
M  V30 4610 H 461.613 -0.628732 -3.90977 0
M  V30 4611 H 462.787 -3.37993 -3.13205 0
M  V30 4612 H 461.102 -2.94453 -2.94425 0
M  V30 4613 H 463.699 -1.29926 -5.18675 0
M  V30 4614 H 464.042 0.0730761 -4.16236 0
M  V30 4615 H 464.575 -1.55074 -3.66329 0
M  V30 4616 H 461.314 -4.23009 -5.00743 0
M  V30 4617 H 460.834 -2.56805 -5.42044 0
M  V30 4618 H 462.513 -3.10441 -5.67658 0
M  V30 4619 N 462.645 1.35699 -0.801477 0
M  V30 4620 C 463.873 2.03157 -0.391768 0
M  V30 4621 C 464.288 1.60412 0.995668 0
M  V30 4622 O 463.645 0.799228 1.64069 0
M  V30 4623 C 463.696 3.58566 -0.459671 0
M  V30 4624 O 463.417 3.99756 -1.7924 0
M  V30 4625 C 464.918 4.4328 -0.0421205 0
M  V30 4626 H 462.138 0.651688 -0.159825 0
M  V30 4627 H 464.682 1.73426 -1.08368 0
M  V30 4628 H 462.837 3.86963 0.183939 0
M  V30 4629 H 463.251 4.94387 -1.75162 0
M  V30 4630 H 464.725 5.51821 -0.140754 0
M  V30 4631 H 465.202 4.27383 1.01196 0
M  V30 4632 H 465.808 4.20168 -0.658687 0
M  V30 4633 N 464.123 0.554532 1.47522 0
M  V30 4634 C 465.086 -0.184174 2.28459 0
M  V30 4635 C 466.086 -0.845195 1.36796 0
M  V30 4636 O 467.276 -0.701467 1.59452 0
M  V30 4637 C 464.408 -1.26903 3.16399 0
M  V30 4638 H 465.601 0.526751 2.95238 0
M  V30 4639 H 463.154 0.311375 1.53167 0
M  V30 4640 H 463.889 -2.01244 2.54306 0
M  V30 4641 H 463.674 -0.799883 3.83854 0
M  V30 4642 H 465.164 -1.78794 3.77389 0
M  V30 4643 N 465.601 -1.54893 0.290851 0
M  V30 4644 C 466.848 -1.99933 -0.321391 0
M  V30 4645 C 467.176 -1.17927 -1.54672 0
M  V30 4646 O 466.431 -0.240902 -1.94212 0
M  V30 4647 C 466.73 -3.49815 -0.732397 0
M  V30 4648 C 466.396 -4.4921 0.390056 0
M  V30 4649 C 465.058 -4.76107 0.698223 0
M  V30 4650 C 467.41 -5.08453 1.14562 0
M  V30 4651 C 464.738 -5.59514 1.76526 0
M  V30 4652 C 467.09 -5.9302 2.2025 0
M  V30 4653 C 465.754 -6.18232 2.51684 0
M  V30 4654 H 465.024 -0.731608 -0.117605 0
M  V30 4655 H 467.671 -1.87107 0.407839 0
M  V30 4656 H 465.976 -3.60199 -1.54155 0
M  V30 4657 H 467.673 -3.82083 -1.21712 0
M  V30 4658 H 464.263 -4.28372 0.13976 0
M  V30 4659 H 468.447 -4.87683 0.920801 0
M  V30 4660 H 463.703 -5.77289 2.01364 0
M  V30 4661 H 467.877 -6.37955 2.7926 0
M  V30 4662 H 465.504 -6.82653 3.34499 0
M  V30 4663 N 467.08 -0.0183926 -1.57589 0
M  V30 4664 C 468.326 0.663543 -1.91638 0
M  V30 4665 C 468.659 1.72392 -0.894134 0
M  V30 4666 O 467.934 1.94316 0.0846449 0
M  V30 4667 C 468.217 1.28984 -3.36207 0
M  V30 4668 C 468.07 0.239761 -4.49161 0
M  V30 4669 C 469.389 2.2109 -3.80536 0
M  V30 4670 H 466.508 0.239746 -0.696915 0
M  V30 4671 H 469.15 -0.073456 -1.89858 0
M  V30 4672 H 467.3 1.91799 -3.37854 0
M  V30 4673 H 468.972 -0.390119 -4.59647 0
M  V30 4674 H 467.215 -0.435972 -4.31604 0
M  V30 4675 H 467.886 0.717383 -5.47319 0
M  V30 4676 H 470.362 1.68273 -3.80557 0
M  V30 4677 H 469.238 2.61869 -4.82406 0
M  V30 4678 H 469.499 3.09764 -3.15434 0
M  V30 4679 N 468.558 1.5553 0.254621 0
M  V30 4680 C 469.506 1.9048 1.33492 0
M  V30 4681 C 470.5 0.78304 1.50216 0
M  V30 4682 O 471.706 0.967582 1.51782 0
M  V30 4683 H 468.081 0.604846 0.44684 0
M  V30 4684 H 470.052 2.80688 1.01275 0
M  V30 4685 C 468.801 2.20928 2.68489 0
M  V30 4686 H 468.124 3.06742 2.56417 0
M  V30 4687 H 469.564 2.49291 3.42972 0
M  V30 4688 C 468.023 1.023 3.20993 0
M  V30 4689 O 468.553 0.267027 4.00811 0
M  V30 4690 N 466.759 0.815714 2.78917 0
M  V30 4691 H 466.306 1.43217 2.14119 0
M  V30 4692 H 466.264 0.0236532 3.14391 0
M  V30 4693 N 470.036 -0.519951 1.48776 0
M  V30 4694 C 470.983 -1.62352 1.64044 0
M  V30 4695 C 471.953 -1.58945 0.482251 0
M  V30 4696 O 473.138 -1.77219 0.706971 0
M  V30 4697 C 470.278 -3.00579 1.69547 0
M  V30 4698 C 469.391 -3.14145 2.96541 0
M  V30 4699 C 468.526 -4.42991 2.93142 0
M  V30 4700 C 467.565 -4.50122 4.14797 0
M  V30 4701 N 466.702 -5.7037 4.09418 0
M  V30 4702 H 471.542 -1.48643 2.58281 0
M  V30 4703 H 469.079 -0.723516 1.28077 0
M  V30 4704 H 471.037 -3.80671 1.70719 0
M  V30 4705 H 469.667 -3.13036 0.787918 0
M  V30 4706 H 468.719 -2.27239 3.05068 0
M  V30 4707 H 470.031 -3.15275 3.86527 0
M  V30 4708 H 469.185 -5.31385 2.92772 0
M  V30 4709 H 467.924 -4.44398 2.00902 0
M  V30 4710 H 466.929 -3.60133 4.15433 0
M  V30 4711 H 468.154 -4.50445 5.08208 0
M  V30 4712 H 466.1 -5.72655 3.20004 0
M  V30 4713 H 466.017 -5.73036 4.93119 0
M  V30 4714 H 467.285 -6.61023 4.13121 0
M  V30 4715 N 471.514 -1.37532 -0.769588 0
M  V30 4716 C 472.424 -1.35668 -1.91393 0
M  V30 4717 C 473.44 -0.255954 -1.72107 0
M  V30 4718 O 474.616 -0.491704 -1.95305 0
M  V30 4719 C 471.681 -1.16481 -3.26547 0
M  V30 4720 C 470.742 -2.36212 -3.58472 0
M  V30 4721 C 469.975 -2.17932 -4.87177 0
M  V30 4722 O 470.198 -1.1647 -5.58382 0
M  V30 4723 O 469.132 -3.06167 -5.18214 0
M  V30 4724 H 472.958 -2.32055 -1.95918 0
M  V30 4725 H 470.543 -1.18284 -0.912641 0
M  V30 4726 H 472.425 -1.07778 -4.07384 0
M  V30 4727 H 471.1 -0.231687 -3.2287 0
M  V30 4728 H 470.007 -2.50488 -2.77861 0
M  V30 4729 H 471.34 -3.281 -3.66894 0
M  V30 4730 N 472.992 0.995999 -1.22138 0
M  V30 4731 C 474.217 1.77601 -1.0711 0
M  V30 4732 C 474.642 1.84339 0.374264 0
M  V30 4733 O 474 1.29359 1.27028 0
M  V30 4734 C 474.048 3.18897 -1.68336 0
M  V30 4735 O 473.152 4.01663 -0.934928 0
M  V30 4736 H 472.493 0.547011 -0.376397 0
M  V30 4737 H 475.023 1.25137 -1.6187 0
M  V30 4738 H 475.033 3.69539 -1.72931 0
M  V30 4739 H 473.708 3.13308 -2.73516 0
M  V30 4740 H 472.285 3.60204 -0.964751 0
M  V30 4741 N 474.47 1.03057 1.19235 0
M  V30 4742 C 475.417 0.612832 2.22515 0
M  V30 4743 C 476.387 -0.374224 1.61829 0
M  V30 4744 O 477.572 -0.270501 1.88873 0
M  V30 4745 C 474.712 -0.028475 3.45088 0
M  V30 4746 C 473.825 1.00483 4.20151 0
M  V30 4747 C 472.96 0.333102 5.30155 0
M  V30 4748 C 471.999 1.3522 5.96977 0
M  V30 4749 N 471.136 0.70616 6.9854 0
M  V30 4750 H 475.976 1.49812 2.57605 0
M  V30 4751 H 473.513 0.749658 1.26564 0
M  V30 4752 H 475.471 -0.417548 4.15105 0
M  V30 4753 H 474.101 -0.877334 3.10649 0
M  V30 4754 H 473.153 1.51194 3.49062 0
M  V30 4755 H 474.465 1.77929 4.65986 0
M  V30 4756 H 473.619 -0.110725 6.06599 0
M  V30 4757 H 472.358 -0.473547 4.85396 0
M  V30 4758 H 471.363 1.80627 5.19282 0
M  V30 4759 H 472.588 2.16037 6.4382 0
M  V30 4760 H 470.534 -0.0803667 6.55951 0
M  V30 4761 H 470.451 1.41848 7.42573 0
M  V30 4762 H 471.719 0.286391 7.78974 0
M  V30 4763 N 475.948 -1.35272 0.808662 0
M  V30 4764 C 477.176 -2.02946 0.402537 0
M  V30 4765 C 477.591 -1.60937 -0.987147 0
M  V30 4766 O 476.948 -0.807917 -1.63643 0
M  V30 4767 C 476.999 -3.58317 0.47868 0
M  V30 4768 O 476.72 -3.98799 1.81358 0
M  V30 4769 C 478.221 -4.43251 0.0656281 0
M  V30 4770 H 475.441 -0.650831 0.163279 0
M  V30 4771 H 477.985 -1.72849 1.09286 0
M  V30 4772 H 476.14 -3.87055 -0.163415 0
M  V30 4773 H 476.554 -4.93451 1.77781 0
M  V30 4774 H 478.028 -5.51738 0.170017 0
M  V30 4775 H 478.505 -4.27913 -0.989278 0
M  V30 4776 H 479.111 -4.19813 0.68096 0
M  V30 4777 N 477.426 -0.562348 -1.47226 0
M  V30 4778 C 478.358 0.220011 -2.28142 0
M  V30 4779 C 479.371 0.874596 -1.37312 0
M  V30 4780 O 480.56 0.747583 -1.62091 0
M  V30 4781 C 477.66 1.32953 -3.11732 0
M  V30 4782 C 476.833 0.770759 -4.30556 0
M  V30 4783 C 475.892 1.76541 -4.95701 0
M  V30 4784 O 474.918 1.3095 -5.53932 0
M  V30 4785 N 476.12 3.09896 -4.90861 0
M  V30 4786 H 478.885 -0.474107 -2.95926 0
M  V30 4787 H 476.446 -0.398761 -1.56912 0
M  V30 4788 H 478.438 1.99378 -3.5218 0
M  V30 4789 H 477.008 1.92681 -2.46156 0
M  V30 4790 H 476.228 -0.0704056 -3.94137 0
M  V30 4791 H 477.516 0.376872 -5.07402 0
M  V30 4792 H 476.914 3.49577 -4.44761 0
M  V30 4793 H 475.471 3.71865 -5.35313 0
M  V30 4794 N 478.904 1.54736 -0.299062 0
M  V30 4795 C 479.867 2.22127 0.565012 0
M  V30 4796 C 480.867 1.20669 1.06281 0
M  V30 4797 O 482.057 1.45417 0.959145 0
M  V30 4798 C 479.189 2.90611 1.78208 0
M  V30 4799 H 480.382 2.99891 -0.0237448 0
M  V30 4800 H 477.935 1.5622 -0.0498788 0
M  V30 4801 H 478.67 2.16921 2.41072 0
M  V30 4802 H 478.455 3.64984 1.43281 0
M  V30 4803 H 479.945 3.42026 2.396 0
M  V30 4804 N 480.382 0.0267497 1.57577 0
M  V30 4805 C 481.345 -0.940916 2.08996 0
M  V30 4806 C 482.345 -1.25561 1.00455 0
M  V30 4807 O 483.535 -1.19634 1.26623 0
M  V30 4808 C 480.667 -2.25814 2.55384 0
M  V30 4809 H 481.86 -0.495628 2.95776 0
M  V30 4810 H 479.413 -0.221241 1.54726 0
M  V30 4811 H 480.148 -2.74976 1.71926 0
M  V30 4812 H 479.933 -2.04285 3.34679 0
M  V30 4813 H 481.423 -2.95178 2.95398 0
M  V30 4814 N 481.861 -1.55662 -0.24637 0
M  V30 4815 C 483.138 -1.68272 -0.997198 0
M  V30 4816 C 483.518 -0.566785 -2.03349 0
M  V30 4817 O 482.866 0.429688 -2.24424 0
M  V30 4818 C 483.076 -3.08594 -1.63006 0
M  V30 4819 C 484.424 -3.6721 -2.13171 0
M  V30 4820 O 485.448 -3.11397 -1.72946 0
M  V30 4821 O 484.307 -4.65054 -2.87031 0
M  V30 4822 H 481.401 -0.684429 -0.464205 0
M  V30 4823 H 483.947 -1.67993 -0.240114 0
M  V30 4824 H 482.719 -3.81264 -0.880527 0
M  V30 4825 H 482.342 -3.12886 -2.45333 0
M  V30 4826 N 483.339 0.512053 -1.4905 0
M  V30 4827 C 484.585 1.26613 -1.59187 0
M  V30 4828 C 484.94 1.90494 -0.270163 0
M  V30 4829 O 484.233 1.77204 0.728648 0
M  V30 4830 C 484.427 2.36446 -2.68008 0
M  V30 4831 C 484.256 1.83334 -4.10632 0
M  V30 4832 C 483.026 1.65131 -4.77556 0
M  V30 4833 C 485.224 1.35153 -4.96224 0
M  V30 4834 N 483.206 1.06833 -6.04533 0
M  V30 4835 C 484.577 0.889186 -6.13591 0
M  V30 4836 C 486.632 1.23623 -4.82309 0
M  V30 4837 C 485.335 0.322953 -7.18575 0
M  V30 4838 C 487.361 0.683978 -5.87431 0
M  V30 4839 C 486.723 0.2318 -7.04018 0
M  V30 4840 H 482.822 0.453678 -0.636946 0
M  V30 4841 H 485.406 0.575217 -1.86009 0
M  V30 4842 H 483.577 3.03012 -2.42978 0
M  V30 4843 H 485.309 3.03485 -2.67729 0
M  V30 4844 H 482.064 1.89178 -4.34176 0
M  V30 4845 H 482.488 0.796425 -6.72299 0
M  V30 4846 H 487.13 1.57184 -3.92496 0
M  V30 4847 H 484.848 -0.024943 -8.08096 0
M  V30 4848 H 488.434 0.597694 -5.78722 0
M  V30 4849 H 487.314 -0.188869 -7.83973 0
M  V30 4850 N 484.817 1.37938 0.762283 0
M  V30 4851 C 486.042 1.37059 1.55659 0
M  V30 4852 C 486.467 -0.0396123 1.88058 0
M  V30 4853 O 485.825 -1.01929 1.49934 0
M  V30 4854 C 485.873 2.22494 2.83776 0
M  V30 4855 O 484.977 1.63607 3.78559 0
M  V30 4856 H 484.318 0.467892 0.47114 0
M  V30 4857 H 486.848 1.81587 0.942725 0
M  V30 4858 H 486.858 2.36045 3.32786 0
M  V30 4859 H 485.533 3.24993 2.59524 0
M  V30 4860 H 484.11 1.5915 3.37233 0
M  V30 4861 N 486.295 -0.989507 1.22664 0
M  V30 4862 C 487.225 -2.09847 1.02404 0
M  V30 4863 C 488.206 -1.70007 -0.0561303 0
M  V30 4864 O 489.391 -1.93906 0.106748 0
M  V30 4865 C 486.521 -3.41996 0.604663 0
M  V30 4866 C 485.475 -3.95699 1.63115 0
M  V30 4867 C 484.801 -5.23936 1.0675 0
M  V30 4868 C 486.101 -4.25999 3.02196 0
M  V30 4869 H 487.795 -2.27054 1.95158 0
M  V30 4870 H 485.341 -1.09111 0.939727 0
M  V30 4871 H 487.294 -4.1899 0.45002 0
M  V30 4872 H 486.018 -3.24626 -0.35855 0
M  V30 4873 H 484.677 -3.2084 1.77362 0
M  V30 4874 H 484.325 -5.02909 0.0955422 0
M  V30 4875 H 484.025 -5.60833 1.75328 0
M  V30 4876 H 485.549 -6.0356 0.924516 0
M  V30 4877 H 486.963 -4.93777 2.91303 0
M  V30 4878 H 485.36 -4.74076 3.67929 0
M  V30 4879 H 486.43 -3.33636 3.51873 0
M  V30 4880 N 487.773 -1.03688 -1.18687 0
M  V30 4881 C 489.019 -0.739123 -1.88851 0
M  V30 4882 C 489.352 0.731042 -1.79915 0
M  V30 4883 O 488.627 1.53313 -1.19688 0
M  V30 4884 C 488.91 -1.20106 -3.3948 0
M  V30 4885 C 488.763 -2.73304 -3.57246 0
M  V30 4886 C 490.082 -0.788134 -4.32986 0
M  V30 4887 H 487.201 -0.269978 -0.68577 0
M  V30 4888 H 489.843 -1.28822 -1.3966 0
M  V30 4889 H 487.993 -0.733915 -3.81505 0
M  V30 4890 H 489.665 -3.28027 -3.24339 0
M  V30 4891 H 487.908 -3.13313 -3.00029 0
M  V30 4892 H 488.579 -3.00684 -4.62918 0
M  V30 4893 H 491.055 -1.19005 -3.98719 0
M  V30 4894 H 489.931 -1.13915 -5.36949 0
M  V30 4895 H 490.192 0.308988 -4.41019 0
M  V30 4896 N 489.251 1.34841 -0.815825 0
M  V30 4897 C 490.183 2.28409 -0.190265 0
M  V30 4898 C 491.196 1.50705 0.615771 0
M  V30 4899 O 492.385 1.72822 0.446616 0
M  V30 4900 C 489.485 3.30441 0.752446 0
M  V30 4901 C 488.658 4.37399 -0.00922152 0
M  V30 4902 C 487.717 5.19234 0.853351 0
M  V30 4903 O 486.743 5.68404 0.300919 0
M  V30 4904 N 487.945 5.38248 2.17416 0
M  V30 4905 H 490.71 2.82732 -0.994114 0
M  V30 4906 H 488.271 1.47289 -0.672129 0
M  V30 4907 H 490.263 3.82084 1.33394 0
M  V30 4908 H 488.833 2.76565 1.45707 0
M  V30 4909 H 488.053 3.86567 -0.771979 0
M  V30 4910 H 489.341 5.05992 -0.533807 0
M  V30 4911 H 488.739 4.99961 2.6468 0
M  V30 4912 H 487.296 5.93035 2.70467 0
M  V30 4913 N 490.729 0.570148 1.46925 0
M  V30 4914 C 491.692 -0.159933 2.28641 0
M  V30 4915 C 492.692 -0.830638 1.37685 0
M  V30 4916 O 493.882 -0.684516 1.60187 0
M  V30 4917 C 491.014 -1.2354 3.17727 0
M  V30 4918 H 492.207 0.558035 2.94662 0
M  V30 4919 H 489.76 0.327603 1.52828 0
M  V30 4920 H 490.495 -1.98535 2.56426 0
M  V30 4921 H 490.28 -0.759125 3.84681 0
M  V30 4922 H 491.77 -1.74782 3.79264 0
M  V30 4923 N 492.207 -1.54576 0.307264 0
M  V30 4924 C 493.137 -2.26708 -0.55907 0
M  V30 4925 C 494.118 -1.26893 -1.1328 0
M  V30 4926 O 495.303 -1.55677 -1.16097 0
M  V30 4927 C 492.433 -3.01259 -1.72801 0
M  V30 4928 C 491.387 -4.08275 -1.28435 0
M  V30 4929 C 490.713 -4.70575 -2.53895 0
M  V30 4930 C 492.013 -5.2068 -0.411038 0
M  V30 4931 H 493.707 -2.9937 0.042576 0
M  V30 4932 H 491.253 -1.43983 0.0219173 0
M  V30 4933 H 493.206 -3.50444 -2.34023 0
M  V30 4934 H 491.93 -2.26187 -2.356 0
M  V30 4935 H 490.589 -3.59949 -0.695161 0
M  V30 4936 H 490.237 -3.92136 -3.15021 0
M  V30 4937 H 489.937 -5.42854 -2.24908 0
M  V30 4938 H 491.461 -5.22527 -3.15908 0
M  V30 4939 H 492.875 -5.65721 -0.929097 0
M  V30 4940 H 491.272 -5.99716 -0.214664 0
M  V30 4941 H 492.342 -4.81629 0.562287 0
M  V30 4942 N 493.685 -0.035106 -1.57561 0
M  V30 4943 C 494.913 0.652258 -1.9635 0
M  V30 4944 C 495.328 1.65317 -0.911897 0
M  V30 4945 O 494.685 1.82194 0.105657 0
M  V30 4946 C 494.736 1.35337 -3.35211 0
M  V30 4947 O 494.457 0.392548 -4.36338 0
M  V30 4948 C 495.958 2.13199 -3.88666 0
M  V30 4949 H 493.178 0.179444 -0.646561 0
M  V30 4950 H 495.722 -0.0966459 -2.04271 0
M  V30 4951 H 493.877 2.05362 -3.28489 0
M  V30 4952 H 494.291 0.891097 -5.16875 0
M  V30 4953 H 495.765 2.577 -4.88154 0
M  V30 4954 H 496.242 2.97353 -3.23231 0
M  V30 4955 H 496.848 1.48118 -3.98674 0
M  V30 4956 N 495.163 1.55791 0.238111 0
M  V30 4957 C 496.388 1.8244 0.986432 0
M  V30 4958 C 496.813 0.613314 1.7782 0
M  V30 4959 O 496.171 -0.437767 1.75935 0
M  V30 4960 C 496.219 3.06917 1.893 0
M  V30 4961 O 495.323 2.84449 2.98601 0
M  V30 4962 H 494.664 0.601975 0.280218 0
M  V30 4963 H 497.194 2.02987 0.256437 0
M  V30 4964 H 497.204 3.36583 2.30598 0
M  V30 4965 H 495.879 3.947 1.31091 0
M  V30 4966 H 494.456 2.65972 2.61368 0
M  V30 4967 N 496.642 -0.504142 1.49319 0
M  V30 4968 C 497.605 -1.5883 1.65244 0
M  V30 4969 C 498.605 -1.52009 0.524386 0
M  V30 4970 O 499.795 -1.55218 0.79077 0
M  V30 4971 C 496.927 -2.98481 1.64687 0
M  V30 4972 H 498.12 -1.4604 2.61939 0
M  V30 4973 H 495.673 -0.728144 1.38303 0
M  V30 4974 H 496.408 -3.16751 0.695644 0
M  V30 4975 H 496.193 -3.0484 2.46607 0
M  V30 4976 H 497.683 -3.77256 1.79075 0
M  V30 4977 N 498.12 -1.38341 -0.754957 0
M  V30 4978 C 499.052 -1.31347 -1.87831 0
M  V30 4979 C 500.065 -0.225955 -1.61224 0
M  V30 4980 O 501.254 -0.48341 -1.7183 0
M  V30 4981 C 498.354 -1.01201 -3.23437 0
M  V30 4982 C 497.527 -2.20834 -3.77559 0
M  V30 4983 C 496.586 -1.87454 -4.91678 0
M  V30 4984 O 495.612 -2.59934 -5.06382 0
M  V30 4985 N 496.814 -0.828682 -5.74555 0
M  V30 4986 H 499.579 -2.28147 -1.94342 0
M  V30 4987 H 497.14 -1.32184 -0.934828 0
M  V30 4988 H 499.132 -0.769249 -3.97322 0
M  V30 4989 H 497.702 -0.132011 -3.12321 0
M  V30 4990 H 496.922 -2.61184 -2.95256 0
M  V30 4991 H 498.21 -3.00678 -4.10451 0
M  V30 4992 H 497.608 -0.227591 -5.65242 0
M  V30 4993 H 496.165 -0.645802 -6.48593 0
M  V30 4994 N 499.598 0.982988 -1.23187 0
M  V30 4995 C 500.561 2.05649 -1.01198 0
M  V30 4996 C 501.561 1.6078 0.0252464 0
M  V30 4997 O 502.751 1.72878 -0.214243 0
M  V30 4998 C 499.883 3.36744 -0.530656 0
M  V30 4999 H 501.076 2.2659 -1.96461 0
M  V30 5000 H 498.629 1.15602 -1.05195 0
M  V30 5001 H 499.364 3.21492 0.425873 0
M  V30 5002 H 499.149 3.7065 -1.2791 0
M  V30 5003 H 500.639 4.15705 -0.397366 0
M  V30 5004 N 501.076 1.04316 1.18135 0
M  V30 5005 C 502.008 0.594444 2.21357 0
M  V30 5006 C 503.021 -0.337215 1.59269 0
M  V30 5007 O 504.21 -0.131337 1.78016 0
M  V30 5008 C 501.31 -0.151251 3.38562 0
M  V30 5009 C 500.483 0.788907 4.30227 0
M  V30 5010 C 499.542 0.0860572 5.2613 0
M  V30 5011 O 498.568 0.717302 5.64662 0
M  V30 5012 N 499.77 -1.17969 5.68387 0
M  V30 5013 H 502.535 1.48227 2.60478 0
M  V30 5014 H 500.096 0.92396 1.32946 0
M  V30 5015 H 502.088 -0.631352 3.99745 0
M  V30 5016 H 500.658 -0.940639 2.98112 0
M  V30 5017 H 499.878 1.44882 3.6661 0
M  V30 5018 H 501.166 1.42738 4.88368 0
M  V30 5019 H 500.564 -1.71302 5.3914 0
M  V30 5020 H 499.121 -1.60402 6.31755 0
M  V30 5021 N 502.554 -1.34406 0.822964 0
M  V30 5022 C 503.486 -2.28305 0.202375 0
M  V30 5023 C 504.499 -1.5103 -0.60777 0
M  V30 5024 O 505.688 -1.73057 -0.437444 0
M  V30 5025 C 502.788 -3.30836 -0.734911 0
M  V30 5026 C 501.961 -4.37388 0.0324177 0
M  V30 5027 C 501.02 -5.1968 -0.825803 0
M  V30 5028 O 500.046 -5.68556 -0.270771 0
M  V30 5029 N 501.248 -5.39393 -2.14558 0
M  V30 5030 H 504.013 -2.82201 1.00909 0
M  V30 5031 H 501.574 -1.4693 0.67993 0
M  V30 5032 H 503.566 -3.82786 -1.31365 0
M  V30 5033 H 502.136 -2.77334 -1.44238 0
M  V30 5034 H 501.356 -3.86152 0.792469 0
M  V30 5035 H 502.644 -5.05702 0.560633 0
M  V30 5036 H 502.042 -5.01357 -2.62025 0
M  V30 5037 H 500.599 -5.94461 -2.67318 0
M  V30 5038 N 504.032 -0.577932 -1.46621 0
M  V30 5039 C 504.965 0.206312 -2.27265 0
M  V30 5040 C 505.943 0.901306 -1.35334 0
M  V30 5041 O 507.127 0.916151 -1.64739 0
M  V30 5042 C 504.254 1.29563 -3.1294 0
M  V30 5043 C 503.3 0.706981 -4.206 0
M  V30 5044 S 504.133 -0.462459 -5.33499 0
M  V30 5045 C 505.289 0.628171 -6.2274 0
M  V30 5046 H 505.522 -0.477961 -2.93433 0
M  V30 5047 H 503.055 -0.364715 -1.50031 0
M  V30 5048 H 505.013 1.91935 -3.62865 0
M  V30 5049 H 503.674 1.95183 -2.46095 0
M  V30 5050 H 502.867 1.52565 -4.80354 0
M  V30 5051 H 502.469 0.159022 -3.73662 0
M  V30 5052 H 504.761 1.51506 -6.60342 0
M  V30 5053 H 505.704 0.0674961 -7.08068 0
M  V30 5054 H 506.112 0.930167 -5.56784 0
M  V30 5055 N 505.51 1.54411 -0.315457 0
M  V30 5056 C 506.74 2.04536 0.291315 0
M  V30 5057 C 507.148 1.19162 1.4696 0
M  V30 5058 O 506.491 0.213199 1.82459 0
M  V30 5059 C 506.553 3.5056 0.796725 0
M  V30 5060 C 506.217 4.5627 -0.258178 0
M  V30 5061 C 507.214 5.08312 -1.09153 0
M  V30 5062 C 504.899 5.00672 -0.404036 0
M  V30 5063 C 506.893 6.03312 -2.05655 0
M  V30 5064 C 504.58 5.95488 -1.37248 0
M  V30 5065 C 505.578 6.46693 -2.19721 0
M  V30 5066 O 505.266 7.39648 -3.14921 0
M  V30 5067 H 504.998 0.672856 0.0651165 0
M  V30 5068 H 507.552 2.00244 -0.457308 0
M  V30 5069 H 505.782 3.52223 1.59612 0
M  V30 5070 H 507.471 3.83804 1.32096 0
M  V30 5071 H 508.237 4.74793 -0.98979 0
M  V30 5072 H 504.116 4.60436 0.22799 0
M  V30 5073 H 507.66 6.43203 -2.70067 0
M  V30 5074 H 503.557 6.28424 -1.47489 0
M  V30 5075 H 504.325 7.57496 -3.10067 0
M  V30 5076 N 506.988 0.0434614 1.5754 0
M  V30 5077 C 508.235 -0.632035 1.92384 0
M  V30 5078 C 508.563 -1.71304 0.921157 0
M  V30 5079 O 507.818 -1.95583 -0.067744 0
M  V30 5080 C 508.117 -1.2738 3.3393 0
M  V30 5081 C 507.783 -0.321757 4.49751 0
M  V30 5082 C 506.445 -0.0597611 4.81163 0
M  V30 5083 C 508.797 0.331158 5.20147 0
M  V30 5084 C 506.125 0.862715 5.80322 0
M  V30 5085 C 508.477 1.24178 6.20292 0
M  V30 5086 C 507.141 1.51252 6.50138 0
M  V30 5087 H 506.411 -0.231278 0.703983 0
M  V30 5088 H 509.058 0.108294 1.91194 0
M  V30 5089 H 507.363 -2.08921 3.3145 0
M  V30 5090 H 509.06 -1.80326 3.58167 0
M  V30 5091 H 505.65 -0.53614 4.25233 0
M  V30 5092 H 509.834 0.141826 4.96097 0
M  V30 5093 H 505.09 1.08003 6.01785 0
M  V30 5094 H 509.264 1.75381 6.73954 0
M  V30 5095 H 506.891 2.22897 7.26788 0
M  V30 5096 N 508.466 -1.55915 -0.229846 0
M  V30 5097 C 509.882 -1.48721 -0.579166 0
M  V30 5098 C 510.082 -0.736976 -1.87539 0
M  V30 5099 O 509.138 -0.273258 -2.51017 0
M  V30 5100 C 510.451 -2.9323 -0.666082 0
M  V30 5101 C 511.999 -3.03701 -0.757267 0
M  V30 5102 C 512.474 -4.49552 -0.8756 0
M  V30 5103 N 513.965 -4.53561 -0.940035 0
M  V30 5104 C 514.7 -5.63683 -1.05116 0
M  V30 5105 N 514.196 -6.83576 -1.12675 0
M  V30 5106 N 515.989 -5.51516 -1.08565 0
M  V30 5107 H 508.14 -2.03123 0.620857 0
M  V30 5108 H 510.403 -0.922898 0.21671 0
M  V30 5109 H 510.109 -3.51032 0.21664 0
M  V30 5110 H 509.983 -3.44668 -1.53243 0
M  V30 5111 H 512.37 -2.45969 -1.63043 0
M  V30 5112 H 512.451 -2.55446 0.134583 0
M  V30 5113 H 512.095 -5.079 -0.00692351 0
M  V30 5114 H 512.025 -4.95506 -1.78274 0
M  V30 5115 H 514.516 -3.67215 -0.892269 0
M  V30 5116 H 514.829 -7.63251 -1.21109 0
M  V30 5117 H 513.174 -6.86303 -1.09603 0
M  V30 5118 H 516.365 -4.5678 -1.02319 0
M  V30 5119 H 516.538 -6.37372 -1.1688 0
M  V30 5120 N 509.944 0.496216 -1.49584 0
M  V30 5121 C 511.221 1.25755 -1.49816 0
M  V30 5122 C 511.601 2.09859 -0.228572 0
M  V30 5123 O 510.949 2.14449 0.788908 0
M  V30 5124 C 511.159 2.11017 -2.7798 0
M  V30 5125 C 512.507 2.70047 -3.27658 0
M  V30 5126 O 513.531 2.21281 -2.79129 0
M  V30 5127 O 512.39 3.58834 -4.1219 0
M  V30 5128 H 509.484 0.569322 -0.599834 0
M  V30 5129 H 512.03 0.510094 -1.61852 0
M  V30 5130 H 510.802 1.48879 -3.61871 0
M  V30 5131 H 510.425 2.92947 -2.68827 0
M  V30 5132 N 511.423 1.38739 0.74761 0
M  V30 5133 C 512.648 1.38702 1.54197 0
M  V30 5134 C 513.073 -0.019664 1.8809 0
M  V30 5135 O 512.431 -1.00333 1.51006 0
M  V30 5136 C 512.479 2.25492 2.814 0
M  V30 5137 O 511.583 1.67613 3.76802 0
M  V30 5138 H 510.924 0.472863 0.466151 0
M  V30 5139 H 513.454 1.82577 0.923413 0
M  V30 5140 H 513.464 2.39561 3.30264 0
M  V30 5141 H 512.139 3.27727 2.56062 0
M  V30 5142 H 510.716 1.62718 3.35526 0
M  V30 5143 N 512.901 -0.976442 1.23707 0
M  V30 5144 C 513.833 -2.07212 0.979574 0
M  V30 5145 C 514.846 -1.6273 -0.0478528 0
M  V30 5146 O 516.035 -1.77506 0.18815 0
M  V30 5147 C 513.135 -3.35835 0.45479 0
M  V30 5148 C 512.308 -4.09268 1.54331 0
M  V30 5149 C 511.367 -5.16166 1.02271 0
M  V30 5150 O 510.393 -5.42827 1.71254 0
M  V30 5151 N 511.595 -5.80313 -0.147419 0
M  V30 5152 H 514.36 -2.29878 1.92292 0
M  V30 5153 H 511.921 -1.14343 1.14618 0
M  V30 5154 H 513.913 -4.04597 0.0914631 0
M  V30 5155 H 512.483 -3.10106 -0.394068 0
M  V30 5156 H 511.703 -3.34906 2.07923 0
M  V30 5157 H 512.991 -4.55095 2.27522 0
M  V30 5158 H 512.389 -5.61043 -0.724353 0
M  V30 5159 H 510.946 -6.50231 -0.451972 0
M  V30 5160 N 514.379 -1.04941 -1.1758 0
M  V30 5161 C 515.311 -0.606174 -2.21039 0
M  V30 5162 C 516.324 0.328763 -1.59446 0
M  V30 5163 O 517.513 0.121895 -1.78083 0
M  V30 5164 C 514.613 0.133294 -3.38638 0
M  V30 5165 C 513.786 -0.811711 -4.29802 0
M  V30 5166 C 512.845 -0.113958 -5.26077 0
M  V30 5167 O 511.871 -0.747237 -5.64274 0
M  V30 5168 N 513.073 1.14953 -5.69004 0
M  V30 5169 H 515.838 -1.49606 -2.59689 0
M  V30 5170 H 513.399 -0.930997 -1.32454 0
M  V30 5171 H 515.391 0.610144 -4.00074 0
M  V30 5172 H 513.961 0.924816 -2.98607 0
M  V30 5173 H 513.181 -1.46824 -3.65837 0
M  V30 5174 H 514.469 -1.45326 -4.87604 0
M  V30 5175 H 513.867 1.68441 -5.40041 0
M  V30 5176 H 512.424 1.57049 -6.32597 0
M  V30 5177 N 515.857 1.33968 -0.830081 0
M  V30 5178 C 517.106 1.97323 -0.417928 0
M  V30 5179 C 517.419 1.6652 1.02618 0
M  V30 5180 O 518.625 2.2342 1.54259 0
M  V30 5181 C 517.081 3.53099 -0.696359 0
M  V30 5182 C 516.689 3.92788 -2.15457 0
M  V30 5183 C 518.433 4.23049 -0.350724 0
M  V30 5184 C 516.34 5.41506 -2.37751 0
M  V30 5185 H 515.27 0.738409 -0.152541 0
M  V30 5186 H 517.921 1.52711 -1.01744 0
M  V30 5187 H 516.303 3.95991 -0.0265904 0
M  V30 5188 H 517.477 3.6098 -2.86408 0
M  V30 5189 H 515.792 3.35795 -2.46232 0
M  V30 5190 H 518.389 5.32403 -0.495036 0
M  V30 5191 H 518.732 4.10279 0.705476 0
M  V30 5192 H 519.265 3.85657 -0.975362 0
M  V30 5193 H 516.004 5.5927 -3.41903 0
M  V30 5194 H 515.524 5.74804 -1.7135 0
M  V30 5195 H 517.203 6.0828 -2.20465 0
M  V30 5196 N 517.335 0.585699 1.46312 0
M  V30 5197 C 518.746 0.159938 1.86014 0
M  V30 5198 C 519.097 -1.27775 1.48889 0
M  V30 5199 O 518.222 -1.96559 0.90519 0
M  V30 5200 C 518.817 0.283485 3.37612 0
M  V30 5201 C 517.376 -0.0874256 3.76298 0
M  V30 5202 C 516.523 0.618055 2.70325 0
M  V30 5203 H 519.474 0.793737 1.37425 0
M  V30 5204 H 519.495 -0.490348 3.77327 0
M  V30 5205 H 519.007 1.32995 3.64601 0
M  V30 5206 H 517.108 -1.13391 3.54927 0
M  V30 5207 H 517.221 0.290975 4.78216 0
M  V30 5208 H 515.585 0.057993 2.54634 0
M  V30 5209 H 516.368 1.66623 3.00153 0
M  V30 5210 N 518.813 -1.54241 0.323641 0
M  V30 5211 C 519.776 -2.22997 -0.529602 0
M  V30 5212 C 520.776 -1.22345 -1.04347 0
M  V30 5213 O 521.966 -1.46924 -0.935889 0
M  V30 5214 C 519.098 -2.93409 -1.73562 0
M  V30 5215 H 520.291 -2.99815 0.0714518 0
M  V30 5216 H 517.844 -1.56121 0.0747258 0
M  V30 5217 H 518.579 -2.20729 -2.37591 0
M  V30 5218 H 518.364 -3.67217 -1.37456 0
M  V30 5219 H 519.854 -3.45794 -2.34128 0
M  V30 5220 N 520.291 -0.0518155 -1.57515 0
M  V30 5221 C 521.221 0.920283 -2.146 0
M  V30 5222 C 522.202 1.32406 -1.06783 0
M  V30 5223 O 523.387 1.39866 -1.34726 0
M  V30 5224 C 520.517 2.1949 -2.6915 0
M  V30 5225 C 519.471 1.93116 -3.81956 0
M  V30 5226 C 518.797 3.27037 -4.23026 0
M  V30 5227 C 520.097 1.25225 -5.07066 0
M  V30 5228 H 521.791 0.444801 -2.96077 0
M  V30 5229 H 519.337 0.212508 -1.42423 0
M  V30 5230 H 521.29 2.87894 -3.07725 0
M  V30 5231 H 520.014 2.69244 -1.84865 0
M  V30 5232 H 518.673 1.27123 -3.43854 0
M  V30 5233 H 518.321 3.74595 -3.3569 0
M  V30 5234 H 518.021 3.10189 -4.99056 0
M  V30 5235 H 519.545 3.96673 -4.64202 0
M  V30 5236 H 520.959 1.83666 -5.43083 0
M  V30 5237 H 519.356 1.18702 -5.88243 0
M  V30 5238 H 520.426 0.228382 -4.84362 0
M  V30 5239 N 521.769 1.56035 0.221574 0
M  V30 5240 C 522.699 1.95434 1.2778 0
M  V30 5241 C 523.68 0.822564 1.48889 0
M  V30 5242 O 524.865 1.08486 1.61072 0
M  V30 5243 C 521.995 2.27102 2.62759 0
M  V30 5244 C 520.949 3.4277 2.56306 0
M  V30 5245 C 520.275 3.60043 3.95314 0
M  V30 5246 C 521.575 4.77742 2.11093 0
M  V30 5247 H 523.269 2.83912 0.950504 0
M  V30 5248 H 520.815 1.36596 0.455791 0
M  V30 5249 H 522.768 2.53256 3.36807 0
M  V30 5250 H 521.492 1.35478 2.97176 0
M  V30 5251 H 520.151 3.16664 1.84715 0
M  V30 5252 H 519.799 2.65794 4.27039 0
M  V30 5253 H 519.499 4.37841 3.91879 0
M  V30 5254 H 521.023 3.88545 4.71025 0
M  V30 5255 H 522.437 5.03102 2.74885 0
M  V30 5256 H 520.834 5.58823 2.18716 0
M  V30 5257 H 521.904 4.731 1.06321 0
M  V30 5258 N 523.247 -0.488276 1.49845 0
M  V30 5259 C 524.472 -1.26997 1.63971 0
M  V30 5260 C 524.897 -1.85427 0.315994 0
M  V30 5261 O 524.255 -1.66475 -0.718032 0
M  V30 5262 C 524.303 -2.36689 2.72049 0
M  V30 5263 O 523.407 -3.40882 2.32107 0
M  V30 5264 H 522.748 -0.374376 0.548396 0
M  V30 5265 H 525.278 -0.583104 1.96115 0
M  V30 5266 H 525.288 -2.82262 2.94605 0
M  V30 5267 H 523.963 -1.93529 3.68129 0
M  V30 5268 H 522.54 -3.01139 2.19931 0
M  V30 5269 N 524.725 -1.39134 -0.740242 0
M  V30 5270 C 525.971 -1.36273 -1.50192 0
M  V30 5271 C 526.304 0.0430136 -1.94152 0
M  V30 5272 O 525.579 1.00691 -1.66408 0
M  V30 5273 C 525.862 -2.33041 -2.74525 0
M  V30 5274 C 525.715 -3.82535 -2.36617 0
M  V30 5275 C 527.034 -2.27723 -3.76604 0
M  V30 5276 H 524.153 -0.496323 -0.544823 0
M  V30 5277 H 526.795 -1.70085 -0.846815 0
M  V30 5278 H 524.945 -2.04337 -3.30422 0
M  V30 5279 H 526.617 -4.21967 -1.86391 0
M  V30 5280 H 524.86 -3.99565 -1.68909 0
M  V30 5281 H 525.531 -4.45723 -3.2563 0
M  V30 5282 H 528.007 -2.53091 -3.30279 0
M  V30 5283 H 526.883 -2.97519 -4.61274 0
M  V30 5284 H 527.144 -1.28049 -4.2315 0
M  V30 5285 N 526.204 0.969867 -1.24223 0
M  V30 5286 C 527.136 2.0669 -0.99055 0
M  V30 5287 C 528.149 1.62753 0.0392222 0
M  V30 5288 O 529.338 1.77403 -0.197561 0
M  V30 5289 C 526.438 3.35589 -0.472594 0
M  V30 5290 C 525.611 4.08444 -1.56499 0
M  V30 5291 C 524.67 5.15616 -1.05007 0
M  V30 5292 O 523.696 5.41911 -1.7413 0
M  V30 5293 N 524.898 5.80383 0.116641 0
M  V30 5294 H 527.663 2.28855 -1.93508 0
M  V30 5295 H 525.224 1.13733 -1.15223 0
M  V30 5296 H 527.216 4.04542 -0.112919 0
M  V30 5297 H 525.786 3.10311 0.377617 0
M  V30 5298 H 525.006 3.33798 -2.09696 0
M  V30 5299 H 526.294 4.53882 -2.29932 0
M  V30 5300 H 525.692 5.6142 0.694589 0
M  V30 5301 H 524.249 6.50462 0.417483 0
M  V30 5302 N 527.682 1.05563 1.17022 0
M  V30 5303 C 529.098 0.777684 1.39371 0
M  V30 5304 C 529.298 -0.626269 1.91521 0
M  V30 5305 O 528.354 -1.38806 2.10924 0
M  V30 5306 C 529.667 1.83642 2.3811 0
M  V30 5307 C 531.215 1.85907 2.51809 0
M  V30 5308 C 531.69 2.90813 3.53824 0
M  V30 5309 N 533.181 2.898 3.61345 0
M  V30 5310 C 533.916 3.6762 4.40049 0
M  V30 5311 N 533.412 4.55237 5.22237 0
M  V30 5312 N 535.205 3.56044 4.34959 0
M  V30 5313 H 527.356 1.9614 0.815047 0
M  V30 5314 H 529.619 0.849527 0.420722 0
M  V30 5315 H 529.325 2.84425 2.06871 0
M  V30 5316 H 529.199 1.6812 3.37662 0
M  V30 5317 H 531.586 0.857865 2.82356 0
M  V30 5318 H 531.667 2.05506 1.52318 0
M  V30 5319 H 531.311 3.91122 3.24015 0
M  V30 5320 H 531.241 2.68465 4.53028 0
M  V30 5321 H 533.732 2.26274 3.02669 0
M  V30 5322 H 534.045 5.11291 5.79484 0
M  V30 5323 H 532.39 4.59296 5.21605 0
M  V30 5324 H 535.581 2.86986 3.69806 0
M  V30 5325 H 535.754 4.16938 4.96051 0
M  V30 5326 N 529.16 -1.33526 0.837174 0
M  V30 5327 C 530.385 -2.0258 0.444545 0
M  V30 5328 C 530.81 -1.6258 -0.946006 0
M  V30 5329 O 530.168 -0.817548 -1.6182 0
M  V30 5330 C 530.216 -3.5605 0.571006 0
M  V30 5331 O 529.32 -4.10422 -0.403431 0
M  V30 5332 H 528.661 -0.638866 0.180958 0
M  V30 5333 H 531.191 -1.70462 1.13154 0
M  V30 5334 H 531.201 -4.05488 0.452024 0
M  V30 5335 H 529.876 -3.84509 1.58512 0
M  V30 5336 H 528.453 -3.72113 -0.242147 0
M  V30 5337 N 530.638 -0.59345 -1.46 0
M  V30 5338 C 531.863 -0.0872365 -2.07216 0
M  V30 5339 C 532.288 1.2131 -1.43755 0
M  V30 5340 O 531.646 1.73528 -0.525152 0
M  V30 5341 C 531.694 0.0538197 -3.6056 0
M  V30 5342 O 530.798 1.10765 -3.97247 0
M  V30 5343 H 530.139 -0.0676598 -0.660544 0
M  V30 5344 H 532.669 -0.819445 -1.87473 0
M  V30 5345 H 532.679 0.256567 -4.07193 0
M  V30 5346 H 531.354 -0.895739 -4.0614 0
M  V30 5347 H 529.931 0.882501 -3.62307 0
M  V30 5348 N 532.116 1.54067 -0.331816 0
M  V30 5349 C 533.079 2.23275 0.517768 0
M  V30 5350 C 534.079 1.22897 1.03697 0
M  V30 5351 O 535.269 1.47419 0.928084 0
M  V30 5352 C 532.401 2.94326 1.72004 0
M  V30 5353 H 533.594 2.99773 -0.0873507 0
M  V30 5354 H 531.147 1.56079 -0.0830042 0
M  V30 5355 H 531.882 2.21986 2.36417 0
M  V30 5356 H 531.667 3.67941 1.35507 0
M  V30 5357 H 533.157 3.47031 2.32291 0
M  V30 5358 N 533.594 0.0601682 1.57485 0
M  V30 5359 C 534.84 -0.612501 1.93329 0
M  V30 5360 C 535.173 -1.6996 0.939526 0
M  V30 5361 O 534.448 -1.94472 -0.0330957 0
M  V30 5362 C 534.731 -1.20025 3.39508 0
M  V30 5363 C 534.584 -0.12059 4.49638 0
M  V30 5364 C 535.903 -2.10923 3.86264 0
M  V30 5365 H 533.022 -0.221185 0.703027 0
M  V30 5366 H 535.664 0.123768 1.89596 0
M  V30 5367 H 533.814 -1.82774 3.42821 0
M  V30 5368 H 535.486 0.51185 4.58452 0
M  V30 5369 H 533.729 0.550251 4.30296 0
M  V30 5370 H 534.4 -0.572019 5.49028 0
M  V30 5371 H 536.876 -1.58124 3.84884 0
M  V30 5372 H 535.752 -2.48987 4.8918 0
M  V30 5373 H 536.013 -3.01292 3.23536 0
M  V30 5374 N 535.072 -1.5615 -0.213296 0
M  V30 5375 C 536.004 -1.89586 -1.28802 0
M  V30 5376 C 537.017 -0.784844 -1.42633 0
M  V30 5377 O 538.206 -1.06319 -1.43383 0
M  V30 5378 C 535.306 -2.09665 -2.66259 0
M  V30 5379 C 534.479 -3.40726 -2.7427 0
M  V30 5380 C 533.538 -3.50137 -3.92798 0
M  V30 5381 O 532.564 -4.23105 -3.8075 0
M  V30 5382 N 533.766 -2.81886 -5.07465 0
M  V30 5383 H 536.531 -2.82368 -1.00442 0
M  V30 5384 H 534.092 -1.56796 -0.403302 0
M  V30 5385 H 536.084 -2.13268 -3.43946 0
M  V30 5386 H 534.654 -1.23469 -2.87183 0
M  V30 5387 H 533.874 -3.4915 -1.82997 0
M  V30 5388 H 535.162 -4.27048 -2.76599 0
M  V30 5389 H 534.56 -2.22397 -5.2015 0
M  V30 5390 H 533.117 -2.91139 -5.83165 0
M  V30 5391 N 536.55 0.480323 -1.50102 0
M  V30 5392 C 537.775 1.26126 -1.64642 0
M  V30 5393 C 538.2 1.85257 -0.325823 0
M  V30 5394 O 537.558 1.66854 0.709194 0
M  V30 5395 C 537.606 2.35243 -2.73301 0
M  V30 5396 O 536.71 3.39646 -2.33911 0
M  V30 5397 H 536.051 0.371463 -0.550374 0
M  V30 5398 H 538.581 0.572696 -1.96421 0
M  V30 5399 H 538.591 2.80695 -2.96098 0
M  V30 5400 H 537.266 1.91574 -3.6915 0
M  V30 5401 H 535.843 2.99969 -2.21525 0
M  V30 5402 N 538.028 1.39524 0.732853 0
M  V30 5403 C 539.253 1.40329 1.52717 0
M  V30 5404 C 539.678 0.000286574 1.881 0
M  V30 5405 O 539.036 -0.987262 1.52062 0
M  V30 5406 C 539.084 2.28464 2.78992 0
M  V30 5407 O 538.188 1.716 3.75003 0
M  V30 5408 H 537.529 0.47778 0.461109 0
M  V30 5409 H 540.059 1.83546 0.903996 0
M  V30 5410 H 540.069 2.43051 3.27705 0
M  V30 5411 H 538.744 3.30425 2.52572 0
M  V30 5412 H 537.321 1.66267 3.33781 0
M  V30 5413 N 539.506 -0.963266 1.24736 0
M  V30 5414 C 540.917 -1.52145 1.08207 0
M  V30 5415 C 541.268 -1.93142 -0.345061 0
M  V30 5416 O 540.393 -1.77769 -1.23399 0
M  V30 5417 C 540.988 -2.76486 1.95808 0
M  V30 5418 C 539.547 -3.28646 1.8349 0
M  V30 5419 C 538.694 -2.01529 1.90476 0
M  V30 5420 H 541.645 -0.781083 1.38148 0
M  V30 5421 H 541.666 -3.49986 1.49297 0
M  V30 5422 H 541.178 -2.46617 2.99669 0
M  V30 5423 H 539.279 -3.63357 0.824787 0
M  V30 5424 H 539.392 -3.97246 2.67829 0
M  V30 5425 H 537.756 -2.16442 1.34258 0
M  V30 5426 H 538.539 -1.7402 2.95926 0
M  V30 5427 N 540.985 -1.06182 -1.16461 0
M  V30 5428 C 542.213 -0.798583 -1.90867 0
M  V30 5429 C 542.628 0.646921 -1.77371 0
M  V30 5430 O 541.985 1.44279 -1.11758 0
M  V30 5431 C 542.036 -1.18258 -3.4161 0
M  V30 5432 O 541.757 -2.57135 -3.54701 0
M  V30 5433 C 543.258 -0.946917 -4.33069 0
M  V30 5434 H 540.478 -0.289603 -0.605286 0
M  V30 5435 H 543.022 -1.41515 -1.47627 0
M  V30 5436 H 541.177 -0.610562 -3.82558 0
M  V30 5437 H 541.591 -2.72477 -4.4817 0
M  V30 5438 H 543.065 -1.26523 -5.37304 0
M  V30 5439 H 543.542 0.117406 -4.39043 0
M  V30 5440 H 544.148 -1.50326 -3.97847 0
M  V30 5441 N 542.463 1.3308 -0.844243 0
M  V30 5442 C 543.71 1.97605 -0.44255 0
M  V30 5443 C 544.038 1.66856 0.999458 0
M  V30 5444 O 543.293 0.943586 1.7145 0
M  V30 5445 C 543.592 3.52045 -0.616354 0
M  V30 5446 C 543.258 4.02757 -2.02726 0
M  V30 5447 C 541.92 4.16316 -2.41317 0
M  V30 5448 C 544.272 4.29776 -2.9486 0
M  V30 5449 C 541.6 4.54232 -3.71335 0
M  V30 5450 C 543.952 4.69146 -4.24364 0
M  V30 5451 C 542.616 4.80911 -4.62904 0
M  V30 5452 H 541.886 0.723088 -0.161941 0
M  V30 5453 H 544.533 1.58663 -1.0723 0
M  V30 5454 H 542.838 3.91681 0.0966812 0
M  V30 5455 H 544.535 3.99981 -0.285756 0
M  V30 5456 H 541.125 3.9268 -1.71756 0
M  V30 5457 H 545.309 4.18818 -2.6628 0
M  V30 5458 H 540.565 4.61535 -4.00993 0
M  V30 5459 H 544.739 4.89008 -4.95827 0
M  V30 5460 H 542.366 5.10048 -5.63698 0
M  V30 5461 N 543.941 0.601185 1.45683 0
M  V30 5462 C 544.888 -0.121396 2.30481 0
M  V30 5463 C 545.858 -0.866232 1.41724 0
M  V30 5464 O 547.043 -0.85324 1.70659 0
M  V30 5465 C 544.183 -1.11704 3.26521 0
M  V30 5466 C 543.296 -0.373741 4.3038 0
M  V30 5467 C 542.431 -1.35854 5.13534 0
M  V30 5468 C 541.47 -0.602689 6.09126 0
M  V30 5469 N 540.607 -1.53645 6.85082 0
M  V30 5470 H 545.447 0.607732 2.91737 0
M  V30 5471 H 542.984 0.311502 1.43764 0
M  V30 5472 H 544.942 -1.70735 3.80664 0
M  V30 5473 H 543.572 -1.81366 2.67032 0
M  V30 5474 H 542.624 0.331962 3.78949 0
M  V30 5475 H 543.936 0.2163 4.98331 0
M  V30 5476 H 543.09 -2.02111 5.72046 0
M  V30 5477 H 541.829 -1.98251 4.45587 0
M  V30 5478 H 540.834 0.0735482 5.49751 0
M  V30 5479 H 542.059 0.0161467 6.79098 0
M  V30 5480 H 540.005 -2.14819 6.1983 0
M  V30 5481 H 539.922 -0.999688 7.49361 0
M  V30 5482 H 541.19 -2.1888 7.48139 0
M  V30 5483 N 545.419 -1.53889 0.339982 0
M  V30 5484 C 546.382 -2.23547 -0.50592 0
M  V30 5485 C 547.382 -1.23445 -1.03044 0
M  V30 5486 O 548.572 -1.47909 -0.920253 0
M  V30 5487 C 545.704 -2.95234 -1.7044 0
M  V30 5488 H 546.897 -2.99722 0.103247 0
M  V30 5489 H 544.45 -1.56033 0.0912804 0
M  V30 5490 H 545.185 -2.23236 -2.35236 0
M  V30 5491 H 544.97 -3.68654 -1.33553 0
M  V30 5492 H 546.46 -3.48258 -2.30447 0
M  V30 5493 N 546.897 -0.0685191 -1.57451 0
M  V30 5494 C 548.144 0.601348 -1.93365 0
M  V30 5495 C 548.472 1.69816 -0.948294 0
M  V30 5496 O 547.727 1.95666 0.0366199 0
M  V30 5497 C 548.026 1.22051 -3.35914 0
M  V30 5498 C 547.692 0.250165 -4.50205 0
M  V30 5499 C 546.354 -0.0167954 -4.81197 0
M  V30 5500 C 548.706 -0.413867 -5.19554 0
M  V30 5501 C 546.034 -0.95493 -5.78876 0
M  V30 5502 C 548.386 -1.3403 -6.18238 0
M  V30 5503 C 547.05 -1.61576 -6.47649 0
M  V30 5504 H 546.32 0.220049 -0.707573 0
M  V30 5505 H 548.967 -0.138697 -1.90997 0
M  V30 5506 H 547.272 2.03622 -3.34732 0
M  V30 5507 H 548.969 1.74605 -3.6099 0
M  V30 5508 H 545.559 0.468421 -4.26033 0
M  V30 5509 H 549.743 -0.220733 -4.95809 0
M  V30 5510 H 544.999 -1.17563 -5.99991 0
M  V30 5511 H 549.173 -1.86081 -6.71079 0
M  V30 5512 H 546.8 -2.34431 -7.2315 0
M  V30 5513 N 548.375 1.56261 0.205012 0
M  V30 5514 C 549.621 1.80306 0.9283 0
M  V30 5515 C 549.954 0.640932 1.83319 0
M  V30 5516 O 549.229 -0.359032 1.91158 0
M  V30 5517 C 549.512 3.14547 1.75306 0
M  V30 5518 C 549.365 4.41236 0.873562 0
M  V30 5519 C 550.684 3.45382 2.72762 0
M  V30 5520 H 547.803 0.655929 0.336044 0
M  V30 5521 H 550.445 1.88984 0.196211 0
M  V30 5522 H 548.595 3.0728 2.37721 0
M  V30 5523 H 550.267 4.60539 0.264887 0
M  V30 5524 H 548.51 4.33427 0.179773 0
M  V30 5525 H 549.181 5.31639 1.48541 0
M  V30 5526 H 551.657 3.52884 2.20481 0
M  V30 5527 H 550.533 4.40449 3.2756 0
M  V30 5528 H 550.794 2.68377 3.51321 0
M  V30 5529 N 549.853 -0.472356 1.50355 0
M  V30 5530 C 550.763 -1.59637 1.7191 0
M  V30 5531 C 551.779 -1.63247 0.602195 0
M  V30 5532 O 552.955 -1.81139 0.880369 0
M  V30 5533 C 550.02 -2.9586 1.80742 0
M  V30 5534 C 549.081 -3.02649 3.04471 0
M  V30 5535 C 548.314 -4.32374 3.12872 0
M  V30 5536 O 548.537 -5.22807 2.28099 0
M  V30 5537 O 547.471 -4.44728 4.05587 0
M  V30 5538 H 551.297 -1.44373 2.67189 0
M  V30 5539 H 548.882 -0.651717 1.34436 0
M  V30 5540 H 550.764 -3.7677 1.88739 0
M  V30 5541 H 549.439 -3.11325 0.88647 0
M  V30 5542 H 548.346 -2.20821 3.01975 0
M  V30 5543 H 549.679 -2.92119 3.9614 0
M  V30 5544 N 551.331 -1.39911 -0.725443 0
M  V30 5545 C 552.263 -1.35301 -1.85003 0
M  V30 5546 C 553.276 -0.260102 -1.60709 0
M  V30 5547 O 554.465 -0.519749 -1.70766 0
M  V30 5548 C 551.565 -1.08039 -3.21218 0
M  V30 5549 C 550.738 -2.28793 -3.7279 0
M  V30 5550 C 549.797 -1.97841 -4.87591 0
M  V30 5551 O 548.823 -2.70616 -5.00755 0
M  V30 5552 N 550.025 -0.950367 -5.72668 0
M  V30 5553 H 552.79 -2.32218 -1.89459 0
M  V30 5554 H 550.351 -1.34137 -0.90658 0
M  V30 5555 H 552.343 -0.853354 -3.95601 0
M  V30 5556 H 550.913 -0.198229 -3.11971 0
M  V30 5557 H 550.133 -2.67388 -2.8965 0
M  V30 5558 H 551.421 -3.09317 -4.03981 0
M  V30 5559 H 550.819 -0.347436 -5.64632 0
M  V30 5560 H 549.376 -0.783232 -6.47077 0
M  V30 5561 N 552.809 0.956637 -1.25245 0
M  V30 5562 C 553.739 2.07058 -1.07931 0
M  V30 5563 C 554.72 1.70096 0.0110361 0
M  V30 5564 O 555.905 1.93555 -0.158121 0
M  V30 5565 C 553.035 3.40272 -0.695124 0
M  V30 5566 C 551.989 3.91235 -1.73549 0
M  V30 5567 C 551.315 5.20921 -1.20604 0
M  V30 5568 C 552.615 4.17837 -3.13385 0
M  V30 5569 H 554.309 2.218 -2.01109 0
M  V30 5570 H 551.855 1.06581 -0.968326 0
M  V30 5571 H 553.808 4.1765 -0.560949 0
M  V30 5572 H 552.532 3.25462 0.272355 0
M  V30 5573 H 551.191 3.16025 -1.85807 0
M  V30 5574 H 550.839 5.02479 -0.228846 0
M  V30 5575 H 550.539 5.55987 -1.90136 0
M  V30 5576 H 552.063 6.00897 -1.08421 0
M  V30 5577 H 553.477 4.8588 -3.04292 0
M  V30 5578 H 551.874 4.64154 -3.80369 0
M  V30 5579 H 552.944 3.2419 -3.60595 0
M  V30 5580 N 554.287 1.06798 1.15896 0
M  V30 5581 C 555.703 0.792423 1.38538 0
M  V30 5582 C 555.903 -0.60592 1.92174 0
M  V30 5583 O 554.959 -1.36561 2.12385 0
M  V30 5584 C 556.272 1.86157 2.36149 0
M  V30 5585 C 557.82 1.88567 2.49823 0
M  V30 5586 C 558.295 2.9455 3.5072 0
M  V30 5587 N 559.786 2.93616 3.58251 0
M  V30 5588 C 560.521 3.72267 4.36125 0
M  V30 5589 N 560.017 4.60751 5.17379 0
M  V30 5590 N 561.81 3.60637 4.31158 0
M  V30 5591 H 553.961 1.96993 0.794198 0
M  V30 5592 H 556.224 0.853942 0.411688 0
M  V30 5593 H 555.93 2.86603 2.03843 0
M  V30 5594 H 555.804 1.71692 3.3586 0
M  V30 5595 H 558.191 0.887765 2.8143 0
M  V30 5596 H 558.272 2.0711 1.5013 0
M  V30 5597 H 557.916 3.94537 3.19849 0
M  V30 5598 H 557.846 2.73255 4.50155 0
M  V30 5599 H 560.337 2.29472 3.00252 0
M  V30 5600 H 560.65 5.17408 5.74028 0
M  V30 5601 H 558.995 4.64803 5.16704 0
M  V30 5602 H 562.186 2.90892 3.66742 0
M  V30 5603 H 562.359 4.22176 4.91601 0
M  V30 5604 N 555.766 -1.3263 0.851289 0
M  V30 5605 C 556.996 -2.01271 0.466222 0
M  V30 5606 C 557.404 -1.64156 -0.940714 0
M  V30 5607 O 556.747 -0.857109 -1.62479 0
M  V30 5608 C 556.809 -3.55695 0.521672 0
M  V30 5609 C 556.473 -4.16227 1.88691 0
M  V30 5610 C 557.47 -4.34699 2.85189 0
M  V30 5611 C 555.155 -4.52377 2.18313 0
M  V30 5612 C 557.149 -4.88484 4.09465 0
M  V30 5613 C 554.836 -5.05868 3.42843 0
M  V30 5614 C 555.834 -5.23869 4.38235 0
M  V30 5615 O 555.522 -5.76218 5.6056 0
M  V30 5616 H 555.254 -0.651034 0.18202 0
M  V30 5617 H 557.808 -1.7026 1.14894 0
M  V30 5618 H 556.038 -3.86086 -0.217888 0
M  V30 5619 H 557.727 -4.05613 0.152682 0
M  V30 5620 H 558.493 -4.07107 2.63607 0
M  V30 5621 H 554.372 -4.37652 1.44851 0
M  V30 5622 H 557.916 -5.02451 4.83931 0
M  V30 5623 H 553.813 -5.32891 3.64277 0
M  V30 5624 H 554.581 -5.94616 5.62471 0
M  V30 5625 N 557.244 -0.608902 -1.45362 0
M  V30 5626 C 558.207 0.0992563 -2.28985 0
M  V30 5627 C 559.207 0.793841 -1.39838 0
M  V30 5628 O 560.397 0.641804 -1.61946 0
M  V30 5629 C 557.529 1.15073 -3.20891 0
M  V30 5630 H 558.722 -0.635964 -2.93079 0
M  V30 5631 H 556.275 -0.368007 -1.51906 0
M  V30 5632 H 557.01 1.91667 -2.616 0
M  V30 5633 H 556.795 0.656867 -3.86559 0
M  V30 5634 H 558.285 1.64665 -3.83765 0
M  V30 5635 N 558.722 1.53707 -0.348139 0
M  V30 5636 C 559.968 2.01286 0.247332 0
M  V30 5637 C 560.301 1.23546 1.49834 0
M  V30 5638 O 559.576 0.324331 1.91777 0
M  V30 5639 C 559.859 3.55768 0.556858 0
M  V30 5640 C 559.712 4.44216 -0.706564 0
M  V30 5641 C 561.031 4.1841 1.3646 0
M  V30 5642 H 558.15 0.731677 0.0884201 0
M  V30 5643 H 560.792 1.84106 -0.469584 0
M  V30 5644 H 558.942 3.70539 1.16761 0
M  V30 5645 H 560.614 4.41274 -1.34444 0
M  V30 5646 H 558.857 4.12892 -1.33052 0
M  V30 5647 H 559.528 5.50202 -0.445186 0
M  V30 5648 H 562.004 4.07365 0.848113 0
M  V30 5649 H 560.88 5.26563 1.54992 0
M  V30 5650 H 561.141 3.7333 2.36805 0
M  V30 5651 N 560.2 0.0768682 1.57412 0
M  V30 5652 C 561.611 -0.455037 1.8107 0
M  V30 5653 C 561.962 -1.69323 0.991162 0
M  V30 5654 O 561.087 -2.15328 0.215156 0
M  V30 5655 C 561.682 -0.832316 3.28417 0
M  V30 5656 C 560.241 -1.30906 3.52903 0
M  V30 5657 C 559.388 -0.296714 2.75708 0
M  V30 5658 H 562.339 0.302514 1.5579 0
M  V30 5659 H 562.36 -1.69333 3.40744 0
M  V30 5660 H 561.872 0.0690532 3.88039 0
M  V30 5661 H 559.973 -2.22875 2.98592 0
M  V30 5662 H 560.086 -1.28348 4.61588 0
M  V30 5663 H 558.45 -0.775059 2.42621 0
M  V30 5664 H 559.233 0.597015 3.38069 0
M  V30 5665 N 561.678 -1.56367 -0.196722 0
M  V30 5666 C 562.611 -1.89475 -1.2718 0
M  V30 5667 C 563.589 -0.754667 -1.44026 0
M  V30 5668 O 564.773 -1.00551 -1.59442 0
M  V30 5669 C 561.9 -2.12352 -2.63864 0
M  V30 5670 C 560.946 -3.35053 -2.63897 0
M  V30 5671 S 561.779 -4.90228 -2.15492 0
M  V30 5672 C 562.935 -5.16171 -3.54004 0
M  V30 5673 H 563.168 -2.80365 -0.989075 0
M  V30 5674 H 560.701 -1.49125 -0.40014 0
M  V30 5675 H 562.659 -2.26214 -3.42545 0
M  V30 5676 H 561.32 -1.22214 -2.89349 0
M  V30 5677 H 560.513 -3.48182 -3.64397 0
M  V30 5678 H 560.115 -3.20176 -1.93296 0
M  V30 5679 H 562.407 -5.06591 -4.49857 0
M  V30 5680 H 563.35 -6.17938 -3.45771 0
M  V30 5681 H 563.758 -4.43814 -3.48841 0
M  V30 5682 N 563.156 0.464375 -1.50603 0
M  V30 5683 C 564.567 1.04507 -1.5471 0
M  V30 5684 C 564.918 1.9297 -0.354542 0
M  V30 5685 O 564.043 2.09763 0.531812 0
M  V30 5686 C 564.638 1.90207 -2.80369 0
M  V30 5687 C 563.197 2.43373 -2.87135 0
M  V30 5688 C 562.344 1.21886 -2.49076 0
M  V30 5689 H 565.295 0.246716 -1.56771 0
M  V30 5690 H 565.316 2.75353 -2.62604 0
M  V30 5691 H 564.828 1.25796 -3.67147 0
M  V30 5692 H 562.929 3.11318 -2.04724 0
M  V30 5693 H 563.042 2.7802 -3.90181 0
M  V30 5694 H 561.406 1.55575 -2.01664 0
M  V30 5695 H 562.189 0.591268 -3.3817 0
M  V30 5696 N 564.634 1.40294 0.718013 0
M  V30 5697 C 565.582 1.40536 1.85344 0
M  V30 5698 C 566.576 0.286192 1.66965 0
M  V30 5699 O 567.782 0.457105 1.74099 0
M  V30 5700 H 564.157 0.439236 0.61039 0
M  V30 5701 H 566.128 2.36275 1.82255 0
M  V30 5702 C 564.877 1.28245 3.23185 0
M  V30 5703 H 564.2 2.1364 3.37932 0
M  V30 5704 H 565.64 1.32474 4.02774 0
M  V30 5705 C 564.099 -0.0075503 3.36899 0
M  V30 5706 O 564.629 -0.971391 3.89778 0
M  V30 5707 N 562.835 -0.0762479 2.905 0
M  V30 5708 H 562.382 0.708819 2.47656 0
M  V30 5709 H 562.34 -0.938846 3.00055 0
M  V30 5710 N 566.112 -0.949982 1.2575 0
M  V30 5711 C 567.361 -1.68956 1.10168 0
M  V30 5712 C 567.674 -1.92327 -0.356309 0
M  V30 5713 O 568.88 -2.64026 -0.632657 0
M  V30 5714 C 567.336 -3.04196 1.92336 0
M  V30 5715 C 566.944 -2.88603 3.42655 0
M  V30 5716 C 568.688 -3.81904 1.85336 0
M  V30 5717 C 566.595 -4.19262 4.17101 0
M  V30 5718 H 565.525 -0.633645 0.408668 0
M  V30 5719 H 568.176 -1.05719 1.49986 0
M  V30 5720 H 566.558 -3.68363 1.45344 0
M  V30 5721 H 567.732 -2.3334 3.97353 0
M  V30 5722 H 566.047 -2.24345 3.50796 0
M  V30 5723 H 568.644 -4.78688 2.38248 0
M  V30 5724 H 568.987 -4.08099 0.822226 0
M  V30 5725 H 569.52 -3.24495 2.30104 0
M  V30 5726 H 566.259 -3.98254 5.20648 0
M  V30 5727 H 565.779 -4.74273 3.67186 0
M  V30 5728 H 567.458 -4.87775 4.25071 0
M  V30 5729 N 567.59 -1.07411 -1.15328 0
M  V30 5730 C 569.001 -0.820261 -1.67716 0
M  V30 5731 C 569.352 0.654539 -1.8496 0
M  V30 5732 O 568.477 1.50664 -1.55337 0
M  V30 5733 C 569.072 -1.48242 -3.04647 0
M  V30 5734 C 567.631 -1.27606 -3.5411 0
M  V30 5735 C 566.778 -1.5517 -2.29821 0
M  V30 5736 H 569.729 -1.23608 -0.995332 0
M  V30 5737 H 569.75 -0.903984 -3.69606 0
M  V30 5738 H 569.262 -2.55578 -2.92064 0
M  V30 5739 H 567.363 -0.222948 -3.71932 0
M  V30 5740 H 567.476 -1.99667 -4.35511 0
M  V30 5741 H 565.84 -0.972747 -2.35393 0
M  V30 5742 H 566.623 -2.63689 -2.19824 0
M  V30 5743 N 569.068 1.32177 -0.85831 0
M  V30 5744 C 570 2.27688 -0.262835 0
M  V30 5745 C 571.013 1.52588 0.567513 0
M  V30 5746 O 572.202 1.74156 0.391407 0
M  V30 5747 C 569.302 3.32668 0.646937 0
M  V30 5748 C 568.475 4.37148 -0.148372 0
M  V30 5749 C 567.534 5.21686 0.687728 0
M  V30 5750 O 566.56 5.69074 0.119934 0
M  V30 5751 N 567.762 5.44892 2.00182 0
M  V30 5752 H 570.527 2.79426 -1.08356 0
M  V30 5753 H 568.088 1.45076 -0.718647 0
M  V30 5754 H 570.08 3.86134 1.2117 0
M  V30 5755 H 568.65 2.81061 1.36834 0
M  V30 5756 H 567.87 3.83915 -0.894572 0
M  V30 5757 H 569.158 5.04038 -0.694514 0
M  V30 5758 H 568.556 5.08128 2.4864 0
M  V30 5759 H 567.113 6.0134 2.51463 0
M  V30 5760 N 570.547 0.616602 1.45037 0
M  V30 5761 C 571.48 -0.145984 2.27733 0
M  V30 5762 C 572.458 -0.865108 1.37676 0
M  V30 5763 O 573.642 -0.872152 1.6711 0
M  V30 5764 C 570.769 -1.2122 3.16265 0
M  V30 5765 C 569.815 -0.595218 4.22326 0
M  V30 5766 S 570.648 0.603744 5.32086 0
M  V30 5767 C 571.804 -0.462842 6.24186 0
M  V30 5768 H 572.037 0.555591 2.92062 0
M  V30 5769 H 569.57 0.404364 1.49011 0
M  V30 5770 H 571.528 -1.82247 3.67827 0
M  V30 5771 H 570.189 -1.88589 2.51183 0
M  V30 5772 H 569.382 -1.39775 4.8423 0
M  V30 5773 H 568.984 -0.0598965 3.73952 0
M  V30 5774 H 571.276 -1.33945 6.64127 0
M  V30 5775 H 572.219 0.120259 7.07998 0
M  V30 5776 H 572.627 -0.782219 5.59054 0
M  V30 5777 N 572.025 -1.5352 0.356285 0
M  V30 5778 C 572.957 -2.23009 -0.529127 0
M  V30 5779 C 573.97 -1.241 -1.05371 0
M  V30 5780 O 575.159 -1.50379 -0.961679 0
M  V30 5781 C 572.259 -2.90685 -1.74229 0
M  V30 5782 C 571.432 -4.16019 -1.35081 0
M  V30 5783 C 570.491 -4.66989 -2.42502 0
M  V30 5784 O 569.517 -5.30895 -2.05279 0
M  V30 5785 N 570.719 -4.44006 -3.7395 0
M  V30 5786 H 573.484 -2.99627 0.0660501 0
M  V30 5787 H 571.045 -1.60885 0.181014 0
M  V30 5788 H 573.037 -3.21695 -2.4555 0
M  V30 5789 H 571.607 -2.17575 -2.24454 0
M  V30 5790 H 570.827 -3.91414 -0.467833 0
M  V30 5791 H 572.115 -4.9752 -1.06542 0
M  V30 5792 H 571.513 -3.92924 -4.06973 0
M  V30 5793 H 570.07 -4.7959 -4.41403 0
M  V30 5794 N 573.503 -0.0852151 -1.57369 0
M  V30 5795 C 574.466 0.8627 -2.12344 0
M  V30 5796 C 575.466 1.21746 -1.05046 0
M  V30 5797 O 576.656 1.14852 -1.30976 0
M  V30 5798 C 573.788 2.1618 -2.63589 0
M  V30 5799 H 574.981 0.385511 -2.97412 0
M  V30 5800 H 572.534 0.163663 -1.55441 0
M  V30 5801 H 573.269 2.68406 -1.82013 0
M  V30 5802 H 573.054 1.91723 -3.4203 0
M  V30 5803 H 574.544 2.84011 -3.06149 0
M  V30 5804 N 574.981 1.5647 0.188427 0
M  V30 5805 C 576.227 1.81281 0.909124 0
M  V30 5806 C 576.56 0.66034 1.82628 0
M  V30 5807 O 575.835 -0.338737 1.91528 0
M  V30 5808 C 576.118 3.16388 1.7196 0
M  V30 5809 C 575.971 4.42137 0.826714 0
M  V30 5810 C 577.29 3.48256 2.69083 0
M  V30 5811 H 574.409 0.659457 0.329068 0
M  V30 5812 H 577.051 1.89182 0.176156 0
M  V30 5813 H 575.201 3.09784 2.34448 0
M  V30 5814 H 576.873 4.60794 0.216025 0
M  V30 5815 H 575.116 4.33594 0.133792 0
M  V30 5816 H 575.787 5.33184 1.42893 0
M  V30 5817 H 578.263 3.55203 2.16726 0
M  V30 5818 H 577.139 4.43899 3.2287 0
M  V30 5819 H 577.4 2.72088 3.48455 0
M  V30 5820 N 576.459 -0.456382 1.50847 0
M  V30 5821 C 577.705 -1.20618 1.63777 0
M  V30 5822 C 578.06 -1.8936 0.340677 0
M  V30 5823 O 577.353 -1.79786 -0.662378 0
M  V30 5824 C 577.547 -2.26336 2.76599 0
M  V30 5825 C 577.376 -1.67968 4.17153 0
M  V30 5826 C 576.146 -1.47293 4.83356 0
M  V30 5827 C 578.344 -1.16643 5.00898 0
M  V30 5828 N 576.326 -0.843222 6.08081 0
M  V30 5829 C 577.697 -0.660843 6.16468 0
M  V30 5830 C 579.752 -1.05637 4.86565 0
M  V30 5831 C 578.455 -0.0560365 7.19278 0
M  V30 5832 C 580.481 -0.465485 5.89565 0
M  V30 5833 C 579.843 0.0296516 7.04394 0
M  V30 5834 H 575.942 -0.429725 0.653345 0
M  V30 5835 H 578.526 -0.505784 1.88016 0
M  V30 5836 H 576.697 -2.93785 2.54056 0
M  V30 5837 H 578.429 -2.9334 2.78808 0
M  V30 5838 H 575.184 -1.72934 4.40898 0
M  V30 5839 H 575.608 -0.546357 6.74792 0
M  V30 5840 H 580.25 -1.42508 3.98059 0
M  V30 5841 H 577.968 0.324845 8.07447 0
M  V30 5842 H 581.554 -0.382493 5.80541 0
M  V30 5843 H 580.434 0.479705 7.82731 0
M  V30 5844 N 577.937 -1.40673 -0.710563 0
M  V30 5845 C 578.869 -1.37256 -1.83558 0
M  V30 5846 C 579.882 -0.277133 -1.60424 0
M  V30 5847 O 581.071 -0.537831 -1.70205 0
M  V30 5848 C 578.171 -1.1144 -3.20054 0
M  V30 5849 C 577.344 -2.32734 -3.70342 0
M  V30 5850 C 576.403 -2.03002 -4.85465 0
M  V30 5851 O 575.429 -2.75912 -4.97857 0
M  V30 5852 N 576.631 -1.01105 -5.71627 0
M  V30 5853 H 579.396 -2.34215 -1.86985 0
M  V30 5854 H 576.957 -1.35091 -0.892301 0
M  V30 5855 H 578.949 -0.895265 -3.94673 0
M  V30 5856 H 577.519 -0.231307 -3.11743 0
M  V30 5857 H 576.739 -2.70446 -2.86798 0
M  V30 5858 H 578.027 -3.13584 -4.00678 0
M  V30 5859 H 577.425 -0.407303 -5.64232 0
M  V30 5860 H 575.982 -0.85182 -6.4621 0
M  V30 5861 N 579.415 0.9433 -1.26252 0
M  V30 5862 C 580.378 2.02326 -1.07689 0
M  V30 5863 C 581.378 1.60779 -0.0259174 0
M  V30 5864 O 582.568 1.72108 -0.269134 0
M  V30 5865 C 579.7 3.34886 -0.63752 0
M  V30 5866 H 580.893 2.20225 -2.0357 0
M  V30 5867 H 578.446 1.12197 -1.08819 0
M  V30 5868 H 579.181 3.22684 0.323377 0
M  V30 5869 H 578.966 3.66393 -1.39637 0
M  V30 5870 H 580.456 4.14231 -0.529418 0
M  V30 5871 N 580.893 1.08022 1.14757 0
M  V30 5872 C 581.826 0.650738 2.18725 0
M  V30 5873 C 582.804 -0.335496 1.59101 0
M  V30 5874 O 583.988 -0.240295 1.86962 0
M  V30 5875 C 581.115 -0.0434377 3.38672 0
M  V30 5876 C 580.161 0.90232 4.16846 0
M  V30 5877 S 580.994 2.40693 4.78359 0
M  V30 5878 C 582.15 1.72475 6.01667 0
M  V30 5879 H 582.383 1.53152 2.54817 0
M  V30 5880 H 579.916 0.894823 1.25826 0
M  V30 5881 H 581.874 -0.437684 4.0816 0
M  V30 5882 H 580.535 -0.900659 3.0091 0
M  V30 5883 H 579.728 0.363445 5.02688 0
M  V30 5884 H 579.33 1.23728 3.52941 0
M  V30 5885 H 581.622 1.0404 6.69464 0
M  V30 5886 H 582.565 2.56175 6.60136 0
M  V30 5887 H 582.973 1.19979 5.51602 0
M  V30 5888 N 582.371 -1.3172 0.865308 0
M  V30 5889 C 583.596 -2.01591 0.487415 0
M  V30 5890 C 584.021 -1.6455 -0.911307 0
M  V30 5891 O 583.379 -0.851689 -1.6005 0
M  V30 5892 C 583.427 -3.54759 0.646401 0
M  V30 5893 O 582.531 -4.11185 -0.316284 0
M  V30 5894 H 581.872 -0.634884 0.194468 0
M  V30 5895 H 584.402 -1.68024 1.16744 0
M  V30 5896 H 584.412 -4.04438 0.537932 0
M  V30 5897 H 583.087 -3.8106 1.66632 0
M  V30 5898 H 581.664 -3.72543 -0.163162 0
M  V30 5899 N 583.85 -0.624285 -1.44708 0
M  V30 5900 C 585.099 -0.123539 -2.01321 0
M  V30 5901 C 585.412 1.25966 -1.49639 0
M  V30 5902 O 586.618 1.85405 -1.98336 0
M  V30 5903 C 585.074 -0.170124 -3.59498 0
M  V30 5904 C 584.682 -1.55421 -4.20176 0
M  V30 5905 C 586.426 0.274513 -4.23611 0
M  V30 5906 C 584.332 -1.55628 -5.70556 0
M  V30 5907 H 583.263 -0.0424183 -0.752806 0
M  V30 5908 H 585.913 -0.782076 -1.65999 0
M  V30 5909 H 584.296 0.555385 -3.92086 0
M  V30 5910 H 585.47 -2.30276 -3.99136 0
M  V30 5911 H 583.784 -1.94235 -3.68323 0
M  V30 5912 H 586.382 0.292402 -5.339 0
M  V30 5913 H 586.725 1.3005 -3.95465 0
M  V30 5914 H 587.258 -0.398275 -3.95801 0
M  V30 5915 H 583.997 -2.56041 -6.03426 0
M  V30 5916 H 583.517 -0.850563 -5.93739 0
M  V30 5917 H 585.196 -1.28721 -6.34066 0
M  V30 5918 N 585.328 1.53329 -0.364422 0
M  V30 5919 C 586.258 2.28627 0.474543 0
M  V30 5920 C 587.239 1.31009 1.08492 0
M  V30 5921 O 588.424 1.59878 1.10239 0
M  V30 5922 C 585.554 3.07465 1.61501 0
M  V30 5923 C 584.508 4.1276 1.13194 0
M  V30 5924 C 583.834 4.79674 2.36255 0
M  V30 5925 C 585.134 5.21847 0.217507 0
M  V30 5926 H 586.828 2.99005 -0.153656 0
M  V30 5927 H 584.374 1.43803 -0.0753406 0
M  V30 5928 H 586.327 3.58889 2.20855 0
M  V30 5929 H 585.051 2.34775 2.27042 0
M  V30 5930 H 583.71 3.62281 0.56109 0
M  V30 5931 H 583.358 4.03557 3.00251 0
M  V30 5932 H 583.058 5.50827 2.04606 0
M  V30 5933 H 584.582 5.33892 2.96297 0
M  V30 5934 H 585.996 5.6878 0.718493 0
M  V30 5935 H 584.393 6.00099 -0.00806408 0
M  V30 5936 H 585.463 4.7921 -0.740653 0
M  V30 5937 N 586.806 0.0935595 1.57322 0
M  V30 5938 C 587.738 -0.895923 2.10964 0
M  V30 5939 C 588.751 -1.24705 1.04654 0
M  V30 5940 O 589.94 -1.20044 1.32105 0
M  V30 5941 C 587.04 -2.20546 2.57318 0
M  V30 5942 C 586.213 -2.0299 3.87445 0
M  V30 5943 C 585.272 -3.17443 4.19662 0
M  V30 5944 O 584.298 -2.91474 4.88909 0
M  V30 5945 N 585.5 -4.43168 3.74943 0
M  V30 5946 H 588.265 -0.437788 2.96485 0
M  V30 5947 H 585.826 -0.0915863 1.61641 0
M  V30 5948 H 587.818 -2.9606 2.75917 0
M  V30 5949 H 586.388 -2.57789 1.76816 0
M  V30 5950 H 585.608 -1.11815 3.78009 0
M  V30 5951 H 586.896 -1.88535 4.7258 0
M  V30 5952 H 586.294 -4.67149 3.19043 0
M  V30 5953 H 584.851 -5.15637 3.987 0
M  V30 5954 N 588.284 -1.56567 -0.180126 0
M  V30 5955 C 589.232 -1.96632 -1.24251 0
M  V30 5956 C 590.226 -0.853818 -1.46309 0
M  V30 5957 O 591.432 -1.0389 -1.46993 0
M  V30 5958 H 587.807 -0.625476 -0.417473 0
M  V30 5959 H 589.778 -2.85201 -0.877679 0
M  V30 5960 C 588.527 -2.33486 -2.57642 0
M  V30 5961 H 587.85 -3.18626 -2.4149 0
M  V30 5962 H 589.29 -2.65371 -3.30688 0
M  V30 5963 C 587.749 -1.17499 -3.15746 0
M  V30 5964 O 588.279 -0.457956 -3.99081 0
M  V30 5965 N 586.485 -0.94786 -2.74707 0
M  V30 5966 H 586.032 -1.53269 -2.07042 0
M  V30 5967 H 585.99 -0.173626 -3.1392 0
M  V30 5968 N 589.762 0.448376 -1.51087 0
M  V30 5969 C 591.011 1.19561 -1.62444 0
M  V30 5970 C 591.324 1.92602 -0.341151 0
M  V30 5971 O 592.53 2.69439 -0.333936 0
M  V30 5972 C 590.986 2.17373 -2.8684 0
M  V30 5973 C 590.594 1.5003 -4.22131 0
M  V30 5974 C 592.338 2.92597 -3.0755 0
M  V30 5975 C 590.245 2.46262 -5.37689 0
M  V30 5976 H 589.175 0.449975 -0.605011 0
M  V30 5977 H 591.826 0.463735 -1.77544 0
M  V30 5978 H 590.208 2.93948 -2.65349 0
M  V30 5979 H 591.382 0.790886 -4.53962 0
M  V30 5980 H 589.697 0.870011 -4.0721 0
M  V30 5981 H 592.294 3.64663 -3.91056 0
M  V30 5982 H 592.637 3.53306 -2.20183 0
M  V30 5983 H 593.17 2.23131 -3.29329 0
M  V30 5984 H 589.909 1.90258 -6.27281 0
M  V30 5985 H 589.429 3.15289 -5.10248 0
M  V30 5986 H 591.108 3.07623 -5.6919 0
M  V30 5987 N 591.24 1.41047 0.703093 0
M  V30 5988 C 592.489 1.39301 1.4587 0
M  V30 5989 C 592.802 0.00267077 1.956 0
M  V30 5990 O 594.008 -0.137414 2.71152 0
M  V30 5991 C 592.464 2.44891 2.63735 0
M  V30 5992 C 592.072 3.89796 2.20824 0
M  V30 5993 C 593.816 2.5227 3.41409 0
M  V30 5994 C 591.723 4.86955 3.35602 0
M  V30 5995 H 590.653 0.518005 0.547893 0
M  V30 5996 H 593.304 1.66839 0.764009 0
M  V30 5997 H 591.686 2.10472 3.35436 0
M  V30 5998 H 592.86 4.33424 1.56461 0
M  V30 5999 H 591.175 3.86008 1.56163 0
M  V30 6000 H 593.772 3.22044 4.26839 0
M  V30 6001 H 594.115 1.55714 3.86081 0
M  V30 6002 H 594.648 2.85742 2.7676 0
M  V30 6003 H 591.387 5.84888 2.9595 0
M  V30 6004 H 590.907 4.47982 3.98839 0
M  V30 6005 H 592.586 5.07361 4.01489 0
M  V30 6006 N 592.718 -0.936591 1.26751 0
M  V30 6007 C 593.681 -2.01752 1.08761 0
M  V30 6008 C 594.681 -1.60763 0.0344435 0
M  V30 6009 O 595.871 -1.71963 0.278258 0
M  V30 6010 C 593.003 -3.34543 0.655271 0
M  V30 6011 H 594.196 -2.19143 2.04735 0
M  V30 6012 H 591.749 -1.11618 1.09413 0
M  V30 6013 H 592.484 -3.22851 -0.30626 0
M  V30 6014 H 592.269 -3.65647 1.41578 0
M  V30 6015 H 593.759 -4.13944 0.551378 0
M  V30 6016 N 594.196 -1.08629 -1.14182 0
M  V30 6017 C 595.444 -0.815731 -1.84906 0
M  V30 6018 C 595.765 0.660441 -1.83475 0
M  V30 6019 O 595.035 1.47888 -1.28476 0
M  V30 6020 H 593.615 -0.298773 -0.684648 0
M  V30 6021 H 596.277 -1.37274 -1.38354 0
M  V30 6022 H 595.373 -1.16193 -2.89665 0
M  V30 6023 N 595.674 1.31259 -0.872281 0
M  V30 6024 C 596.621 2.28459 -0.327857 0
M  V30 6025 C 597.591 1.55831 0.574957 0
M  V30 6026 O 598.776 1.83965 0.506101 0
M  V30 6027 C 595.916 3.41985 0.462644 0
M  V30 6028 C 595.029 4.29458 -0.467949 0
M  V30 6029 C 594.164 5.30131 0.336903 0
M  V30 6030 C 593.203 6.0925 -0.58997 0
M  V30 6031 N 592.34 7.01872 0.178775 0
M  V30 6032 H 597.18 2.74414 -1.16193 0
M  V30 6033 H 594.717 1.34994 -0.584376 0
M  V30 6034 H 596.675 4.06547 0.936759 0
M  V30 6035 H 595.305 2.97134 1.2614 0
M  V30 6036 H 594.357 3.65318 -1.06052 0
M  V30 6037 H 595.669 4.84677 -1.17856 0
M  V30 6038 H 594.823 6.0038 0.873427 0
M  V30 6039 H 593.562 4.75573 1.08079 0
M  V30 6040 H 592.567 5.37889 -1.13823 0
M  V30 6041 H 593.792 6.65894 -1.33275 0
M  V30 6042 H 591.738 6.49721 0.905435 0
M  V30 6043 H 591.655 7.54522 -0.472452 0
M  V30 6044 H 592.923 7.76382 0.696454 0
M  V30 6045 N 597.152 0.631951 1.44375 0
M  V30 6046 C 598.398 0.13697 2.02337 0
M  V30 6047 C 598.731 -1.23826 1.49602 0
M  V30 6048 O 598.006 -1.8221 0.680415 0
M  V30 6049 C 598.289 0.124536 3.59885 0
M  V30 6050 C 598.142 1.53217 4.229 0
M  V30 6051 C 599.461 -0.550481 4.36644 0
M  V30 6052 H 596.58 0.051247 0.735216 0
M  V30 6053 H 599.222 0.808581 1.71936 0
M  V30 6054 H 597.372 -0.44737 3.85916 0
M  V30 6055 H 599.044 2.15303 4.07973 0
M  V30 6056 H 597.287 2.0858 3.80364 0
M  V30 6057 H 597.958 1.4755 5.31914 0
M  V30 6058 H 600.434 -0.0641154 4.16051 0
M  V30 6059 H 599.31 -0.528371 5.46351 0
M  V30 6060 H 599.571 -1.62097 4.11311 0
M  V30 6061 N 598.631 -1.53133 0.372548 0
M  V30 6062 C 599.856 -2.0625 -0.218098 0
M  V30 6063 C 600.281 -1.24375 -1.41111 0
M  V30 6064 O 599.639 -0.264554 -1.79359 0
M  V30 6065 C 599.687 -3.55858 -0.582876 0
M  V30 6066 O 598.791 -3.76667 -1.67917 0
M  V30 6067 H 598.132 -0.663317 -0.030104 0
M  V30 6068 H 600.662 -1.97477 0.535169 0
M  V30 6069 H 600.672 -3.99007 -0.851925 0
M  V30 6070 H 599.347 -4.14892 0.289428 0
M  V30 6071 H 597.924 -3.45413 -1.40513 0
M  V30 6072 N 600.109 -0.101901 -1.5727 0
M  V30 6073 C 601.52 0.426173 -1.81771 0
M  V30 6074 C 601.871 1.67725 -1.01797 0
M  V30 6075 O 600.996 2.14958 -0.249386 0
M  V30 6076 C 601.591 0.779962 -3.297 0
M  V30 6077 C 600.15 1.25275 -3.54941 0
M  V30 6078 C 599.297 0.252814 -2.76145 0
M  V30 6079 H 602.248 -0.32726 -1.55289 0
M  V30 6080 H 602.269 1.63891 -3.43395 0
M  V30 6081 H 601.781 -0.130778 -3.8788 0
M  V30 6082 H 599.882 2.18097 -3.021 0
M  V30 6083 H 599.995 1.20988 -4.63572 0
M  V30 6084 H 598.359 0.736362 -2.43823 0
M  V30 6085 H 599.142 -0.650724 -3.37076 0
M  V30 6086 N 601.587 1.56661 0.17182 0
M  V30 6087 C 602.497 1.99604 1.2327 0
M  V30 6088 C 603.513 0.907333 1.4847 0
M  V30 6089 O 604.689 1.21492 1.60629 0
M  V30 6090 C 601.754 2.34685 2.55194 0
M  V30 6091 C 600.815 3.57381 2.3786 0
M  V30 6092 C 600.048 3.90779 3.63494 0
M  V30 6093 O 600.271 3.25152 4.6865 0
M  V30 6094 O 599.205 4.84129 3.57634 0
M  V30 6095 H 603.031 2.90114 0.898192 0
M  V30 6096 H 600.616 1.44522 0.378647 0
M  V30 6097 H 602.498 2.5822 3.33017 0
M  V30 6098 H 601.173 1.47336 2.88225 0
M  V30 6099 H 600.08 3.39064 1.5807 0
M  V30 6100 H 601.413 4.45268 2.09754 0
M  V30 6101 N 603.065 -0.440357 1.51323 0
M  V30 6102 C 603.997 -1.55254 1.68609 0
M  V30 6103 C 605.01 -1.52614 0.566812 0
M  V30 6104 O 606.199 -1.57445 0.841032 0
M  V30 6105 C 603.299 -2.94169 1.68279 0
M  V30 6106 C 602.472 -3.21346 2.96742 0
M  V30 6107 C 601.531 -4.3997 2.8864 0
M  V30 6108 O 600.557 -4.38771 3.62586 0
M  V30 6109 N 601.759 -5.43367 2.04285 0
M  V30 6110 H 604.524 -1.40831 2.6455 0
M  V30 6111 H 602.085 -0.629251 1.49171 0
M  V30 6112 H 604.077 -3.71543 1.60431 0
M  V30 6113 H 602.647 -3.02205 0.799441 0
M  V30 6114 H 601.867 -2.32299 3.18482 0
M  V30 6115 H 603.155 -3.3633 3.81785 0
M  V30 6116 H 602.553 -5.47176 1.43578 0
M  V30 6117 H 601.11 -6.19605 2.02318 0
M  V30 6118 N 604.543 -1.41418 -0.695603 0
M  V30 6119 C 605.791 -1.40496 -1.45277 0
M  V30 6120 C 606.112 -0.0149538 -1.94994 0
M  V30 6121 O 605.382 0.9432 -1.71699 0
M  V30 6122 H 603.962 -0.517147 -0.539044 0
M  V30 6123 H 606.624 -1.76656 -0.823321 0
M  V30 6124 H 605.72 -2.09214 -2.31595 0
M  V30 6125 N 606.021 0.929856 -1.27246 0
M  V30 6126 C 606.984 2.01172 -1.09829 0
M  V30 6127 C 607.984 1.60743 -0.0429687 0
M  V30 6128 O 609.174 1.71813 -0.287373 0
M  V30 6129 C 606.306 3.34191 -0.673003 0
M  V30 6130 H 607.499 2.18054 -2.05895 0
M  V30 6131 H 605.052 1.11036 -1.10003 0
M  V30 6132 H 605.787 3.23009 0.289134 0
M  V30 6133 H 605.572 3.64892 -1.43515 0
M  V30 6134 H 607.062 4.13646 -0.573323 0
M  V30 6135 N 607.499 1.09233 1.13605 0
M  V30 6136 C 608.446 0.729921 2.18954 0
M  V30 6137 C 609.416 -0.287916 1.63586 0
M  V30 6138 O 610.601 -0.170003 1.90041 0
M  V30 6139 C 607.741 0.154489 3.44754 0
M  V30 6140 C 606.854 1.22613 4.14234 0
M  V30 6141 C 605.989 0.613657 5.27644 0
M  V30 6142 C 605.028 1.66674 5.8897 0
M  V30 6143 N 604.165 1.07545 6.93814 0
M  V30 6144 H 609.005 1.63257 2.49302 0
M  V30 6145 H 606.542 0.815693 1.22413 0
M  V30 6146 H 608.5 -0.196923 4.16735 0
M  V30 6147 H 607.13 -0.711433 3.14863 0
M  V30 6148 H 606.182 1.69485 3.40557 0
M  V30 6149 H 607.494 2.0238 4.55899 0
M  V30 6150 H 606.648 0.210976 6.06333 0
M  V30 6151 H 605.387 -0.215584 4.87223 0
M  V30 6152 H 604.392 2.07899 5.08978 0
M  V30 6153 H 605.617 2.49861 6.31464 0
M  V30 6154 H 603.563 0.267451 6.55455 0
M  V30 6155 H 603.48 1.81011 7.3401 0
M  V30 6156 H 604.748 0.698906 7.7636 0
M  V30 6157 N 608.977 -1.30795 0.87923 0
M  V30 6158 C 610.254 -1.91145 0.415086 0
M  V30 6159 C 610.634 -1.7995 -1.10368 0
M  V30 6160 O 609.982 -1.21305 -1.93642 0
M  V30 6161 C 610.192 -3.37014 0.906778 0
M  V30 6162 C 611.54 -4.14101 0.938358 0
M  V30 6163 O 612.564 -3.45834 0.853053 0
M  V30 6164 O 611.423 -5.36054 1.06342 0
M  V30 6165 H 608.517 -0.81736 0.125905 0
M  V30 6166 H 611.063 -1.39401 0.967753 0
M  V30 6167 H 609.835 -3.3922 1.95053 0
M  V30 6168 H 609.458 -3.96204 0.332948 0
M  V30 6169 N 610.455 -0.639598 -1.44038 0
M  V30 6170 C 611.702 -0.14748 -2.01962 0
M  V30 6171 C 612.03 1.23372 -1.50365 0
M  V30 6172 O 611.285 1.8345 -0.681501 0
M  V30 6173 C 611.584 -0.0925348 -3.5728 0
M  V30 6174 C 611.25 -1.41365 -4.28167 0
M  V30 6175 C 609.912 -1.77545 -4.47248 0
M  V30 6176 C 612.264 -2.2853 -4.68427 0
M  V30 6177 C 609.592 -3.00583 -5.03852 0
M  V30 6178 C 611.944 -3.50846 -5.26393 0
M  V30 6179 C 610.608 -3.8724 -5.43692 0
M  V30 6180 H 609.878 -0.0539666 -0.739032 0
M  V30 6181 H 612.525 -0.827599 -1.72694 0
M  V30 6182 H 610.83 0.670987 -3.86012 0
M  V30 6183 H 612.527 0.304891 -3.99839 0
M  V30 6184 H 609.117 -1.1221 -4.13651 0
M  V30 6185 H 613.301 -2.0187 -4.5339 0
M  V30 6186 H 608.557 -3.28846 -5.15432 0
M  V30 6187 H 612.731 -4.18616 -5.56537 0
M  V30 6188 H 610.358 -4.8266 -5.87319 0
M  V30 6189 N 611.933 1.52934 -0.380664 0
M  V30 6190 C 613.179 2.01765 0.20458 0
M  V30 6191 C 613.512 1.26696 1.47179 0
M  V30 6192 O 612.787 0.364936 1.91046 0
M  V30 6193 C 613.07 3.56869 0.481269 0
M  V30 6194 C 612.923 4.42617 -0.800629 0
M  V30 6195 C 614.242 4.2121 1.27554 0
M  V30 6196 H 611.361 0.733388 0.0728803 0
M  V30 6197 H 614.003 1.83068 -0.50853 0
M  V30 6198 H 612.153 3.72932 1.08875 0
M  V30 6199 H 613.825 4.38323 -1.43773 0
M  V30 6200 H 612.068 4.09977 -1.4178 0
M  V30 6201 H 612.739 5.49134 -0.561791 0
M  V30 6202 H 615.215 4.09072 0.761514 0
M  V30 6203 H 614.091 5.29732 1.43788 0
M  V30 6204 H 614.352 3.78269 2.28833 0
M  V30 6205 N 613.412 0.11024 1.57214 0
M  V30 6206 C 614.344 -0.873497 2.11902 0
M  V30 6207 C 615.357 -1.23588 1.05971 0
M  V30 6208 O 616.546 -1.18636 1.33371 0
M  V30 6209 C 613.646 -2.17805 2.59643 0
M  V30 6210 C 612.819 -1.98869 3.89576 0
M  V30 6211 C 611.878 -3.12974 4.23006 0
M  V30 6212 O 610.904 -2.86272 4.91973 0
M  V30 6213 N 612.106 -4.39167 3.79622 0
M  V30 6214 H 614.871 -0.406317 2.96933 0
M  V30 6215 H 612.432 -0.074437 1.61729 0
M  V30 6216 H 614.424 -2.93117 2.79042 0
M  V30 6217 H 612.994 -2.55899 1.7954 0
M  V30 6218 H 612.214 -1.078 3.79174 0
M  V30 6219 H 613.502 -1.83512 4.74553 0
M  V30 6220 H 612.9 -4.63739 3.2398 0
M  V30 6221 H 611.457 -5.11379 4.04147 0
M  V30 6222 N 614.89 -1.56749 -0.16351 0
M  V30 6223 C 615.838 -1.97939 -1.22159 0
M  V30 6224 C 616.832 -0.869288 -1.45395 0
M  V30 6225 O 618.038 -1.05443 -1.45883 0
M  V30 6226 H 614.413 -0.629869 -0.410815 0
M  V30 6227 H 616.384 -2.86115 -0.847381 0
M  V30 6228 C 615.133 -2.36206 -2.55151 0
M  V30 6229 H 614.456 -3.2117 -2.38097 0
M  V30 6230 H 615.896 -2.68863 -3.27854 0
M  V30 6231 C 614.355 -1.20841 -3.14482 0
M  V30 6232 O 614.885 -0.500258 -3.98573 0
M  V30 6233 N 613.091 -0.976943 -2.73686 0
M  V30 6234 H 612.638 -1.55457 -2.05404 0
M  V30 6235 H 612.596 -0.206912 -3.13718 0
M  V30 6236 N 616.368 0.432326 -1.51554 0
M  V30 6237 C 617.617 1.17831 -1.63703 0
M  V30 6238 C 617.93 1.92229 -0.36156 0
M  V30 6239 O 619.136 2.69069 -0.362495 0
M  V30 6240 C 617.592 2.14318 -2.89129 0
M  V30 6241 C 617.2 1.45544 -4.23699 0
M  V30 6242 C 618.944 2.89319 -3.10636 0
M  V30 6243 C 616.851 2.40545 -5.4027 0
M  V30 6244 H 615.781 0.443533 -0.60975 0
M  V30 6245 H 618.432 0.444878 -1.78026 0
M  V30 6246 H 616.814 2.91117 -2.68452 0
M  V30 6247 H 617.988 0.742693 -4.54775 0
M  V30 6248 H 616.303 0.826772 -4.0811 0
M  V30 6249 H 618.9 3.60495 -3.94902 0
M  V30 6250 H 619.243 3.50951 -2.23918 0
M  V30 6251 H 619.776 2.19625 -3.31677 0
M  V30 6252 H 616.515 1.83594 -6.29264 0
M  V30 6253 H 616.035 3.09859 -5.13563 0
M  V30 6254 H 617.714 3.01569 -5.72421 0
M  V30 6255 N 617.846 1.41785 0.688094 0
M  V30 6256 C 618.778 1.40159 1.81351 0
M  V30 6257 C 619.791 0.30262 1.59963 0
M  V30 6258 O 620.98 0.564841 1.69327 0
M  V30 6259 C 618.08 1.16517 3.1824 0
M  V30 6260 C 617.253 2.38597 3.66593 0
M  V30 6261 C 616.312 2.10699 4.82174 0
M  V30 6262 O 615.338 2.83798 4.93404 0
M  V30 6263 N 616.54 1.10187 5.69947 0
M  V30 6264 H 619.305 2.3716 1.83236 0
M  V30 6265 H 616.866 1.36494 0.870697 0
M  V30 6266 H 618.858 0.957941 3.93199 0
M  V30 6267 H 617.428 0.280873 3.11336 0
M  V30 6268 H 616.648 2.74974 2.82459 0
M  V30 6269 H 617.936 3.19919 3.95638 0
M  V30 6270 H 617.334 0.497016 5.63512 0
M  V30 6271 H 615.891 0.954518 6.44773 0
M  V30 6272 N 619.324 -0.923095 1.27737 0
M  V30 6273 C 620.271 -2.02432 1.1086 0
M  V30 6274 C 621.241 -1.66098 0.00835195 0
M  V30 6275 O 622.426 -1.90027 0.171542 0
M  V30 6276 C 619.566 -3.36476 0.766671 0
M  V30 6277 C 618.679 -3.85737 1.94501 0
M  V30 6278 C 617.814 -5.08249 1.54455 0
M  V30 6279 C 616.853 -5.49818 2.6901 0
M  V30 6280 N 615.99 -6.63524 2.29521 0
M  V30 6281 H 620.83 -2.16201 2.05089 0
M  V30 6282 H 618.367 -1.05909 1.02087 0
M  V30 6283 H 620.325 -4.13569 0.549223 0
M  V30 6284 H 618.955 -3.22502 -0.13867 0
M  V30 6285 H 618.007 -3.04883 2.27487 0
M  V30 6286 H 619.319 -4.12513 2.80419 0
M  V30 6287 H 618.473 -5.92857 1.28862 0
M  V30 6288 H 617.212 -4.83261 0.656534 0
M  V30 6289 H 616.217 -4.63757 2.95313 0
M  V30 6290 H 617.442 -5.76799 3.5844 0
M  V30 6291 H 615.388 -6.40185 1.43177 0
M  V30 6292 H 615.305 -6.89978 3.08977 0
M  V30 6293 H 616.573 -7.51461 2.07187 0
M  V30 6294 N 620.802 -1.09834 -1.13024 0
M  V30 6295 C 622.05 -0.835297 -1.8403 0
M  V30 6296 C 622.371 0.640944 -1.84165 0
M  V30 6297 O 621.641 1.46517 -1.30037 0
M  V30 6298 H 620.221 -0.306018 -0.681441 0
M  V30 6299 H 622.883 -1.38734 -1.36891 0
M  V30 6300 H 621.979 -1.19258 -2.88416 0
M  V30 6301 N 622.28 1.30327 -0.886154 0
M  V30 6302 C 623.529 1.95373 -0.501243 0
M  V30 6303 C 623.842 1.70722 0.954634 0
M  V30 6304 O 625.048 2.29761 1.44644 0
M  V30 6305 C 623.504 3.49828 -0.845493 0
M  V30 6306 C 623.112 3.83296 -2.31922 0
M  V30 6307 C 624.856 4.2118 -0.529838 0
M  V30 6308 C 622.763 5.30935 -2.60504 0
M  V30 6309 H 621.693 0.731274 -0.183722 0
M  V30 6310 H 624.344 1.48258 -1.08129 0
M  V30 6311 H 622.726 3.95522 -0.19452 0
M  V30 6312 H 623.9 3.48508 -3.01461 0
M  V30 6313 H 622.215 3.2505 -2.60253 0
M  V30 6314 H 624.812 5.29825 -0.720401 0
M  V30 6315 H 625.155 4.12902 0.530828 0
M  V30 6316 H 625.688 3.81173 -1.13806 0
M  V30 6317 H 622.427 5.44265 -3.65316 0
M  V30 6318 H 621.947 5.67019 -1.95575 0
M  V30 6319 H 623.626 5.98381 -2.46066 0
M  V30 6320 N 623.758 0.647228 1.43697 0
M  V30 6321 C 624.691 -0.097646 2.27991 0
M  V30 6322 C 625.669 -0.83571 1.3948 0
M  V30 6323 O 626.853 -0.836509 1.68922 0
M  V30 6324 C 623.98 -1.14484 3.18765 0
M  V30 6325 C 623.026 -0.505503 4.23494 0
M  V30 6326 S 623.859 0.716471 5.30685 0
M  V30 6327 C 625.015 -0.330339 6.25028 0
M  V30 6328 H 625.248 0.617417 2.90818 0
M  V30 6329 H 622.781 0.435881 1.4812 0
M  V30 6330 H 624.739 -1.74403 3.7161 0
M  V30 6331 H 623.4 -1.83219 2.55127 0
M  V30 6332 H 622.593 -1.29473 4.87086 0
M  V30 6333 H 622.195 0.0194377 3.73995 0
M  V30 6334 H 624.487 -1.19828 6.66819 0
M  V30 6335 H 625.43 0.270409 7.07583 0
M  V30 6336 H 625.838 -0.663459 5.60588 0
M  V30 6337 N 625.236 -1.5273 0.388769 0
M  V30 6338 C 626.199 -2.25043 -0.434544 0
M  V30 6339 C 627.199 -1.26661 -0.990644 0
M  V30 6340 O 628.389 -1.50762 -0.872731 0
M  V30 6341 C 625.521 -3.00507 -1.60961 0
M  V30 6342 H 626.714 -2.99242 0.198549 0
M  V30 6343 H 624.267 -1.55664 0.140875 0
M  V30 6344 H 625.002 -2.30607 -2.28015 0
M  V30 6345 H 624.787 -3.72716 -1.21757 0
M  V30 6346 H 626.277 -3.55413 -2.19251 0
M  V30 6347 N 626.714 -0.118576 -1.57153 0
M  V30 6348 C 627.646 0.862247 -2.12363 0
M  V30 6349 C 628.659 1.23025 -1.06625 0
M  V30 6350 O 629.848 1.17927 -1.33998 0
M  V30 6351 C 626.948 2.16425 -2.60794 0
M  V30 6352 C 626.121 1.96801 -3.90626 0
M  V30 6353 C 625.18 3.10726 -4.2466 0
M  V30 6354 O 624.206 2.83659 -4.93484 0
M  V30 6355 N 625.408 4.37147 -3.81946 0
M  V30 6356 H 628.173 0.390564 -2.97144 0
M  V30 6357 H 625.734 0.0658591 -1.61766 0
M  V30 6358 H 627.726 2.91633 -2.80593 0
M  V30 6359 H 626.296 2.54943 -1.80895 0
M  V30 6360 H 625.516 1.05787 -3.7974 0
M  V30 6361 H 626.804 1.80993 -4.7552 0
M  V30 6362 H 626.202 4.62014 -3.26435 0
M  V30 6363 H 624.759 5.09229 -4.06853 0
M  V30 6364 N 628.193 1.56834 0.155195 0
M  V30 6365 C 629.441 1.82536 0.867462 0
M  V30 6366 C 629.762 0.698168 1.82073 0
M  V30 6367 O 629.032 -0.280807 1.93877 0
M  V30 6368 H 627.612 0.673401 0.323327 0
M  V30 6369 H 630.274 1.94313 0.151156 0
M  V30 6370 H 629.37 2.77171 1.43466 0
M  V30 6371 N 629.671 -0.424282 1.51781 0
M  V30 6372 C 630.896 -1.19928 1.6921 0
M  V30 6373 C 631.321 -1.8392 0.394355 0
M  V30 6374 O 630.679 -1.69371 -0.646778 0
M  V30 6375 C 630.727 -2.24937 2.81843 0
M  V30 6376 O 629.831 -3.3073 2.46356 0
M  V30 6377 H 629.172 -0.35078 0.563781 0
M  V30 6378 H 631.702 -0.499401 1.98412 0
M  V30 6379 H 631.712 -2.69512 3.06312 0
M  V30 6380 H 630.387 -1.77742 3.76006 0
M  V30 6381 H 628.964 -2.9154 2.32505 0
M  V30 6382 O 631.188 -1.51103 -0.570103 0
M  V30 6383 H 631.879 -1.50032 -1.22516 0
M  V30 END ATOM
M  V30 BEGIN BOND
M  V30 END BOND
M  V30 END CTAB
M  END
$$$$
