drugbank_target|P24385 G1/S-specific cyclin-D1 (DB00945; DB01169; DB11718; DB11752)
 OpenBabel12092119453D

  0  0  0     0  0            999 V3000
M  V30 BEGIN CTAB
M  V30 COUNTS 4724 4762 0 0 0
M  V30 BEGIN ATOM
M  V30 1 H -0.908 1.98254 -0.117106 0
M  V30 2 N 0 1.576 0 0
M  V30 3 C 0.933 2.03868 1.02534 0
M  V30 4 C 1.911 0.928543 1.3348 0
M  V30 5 O 3.095 1.19667 1.45644 0
M  V30 6 C 0.222 2.43627 2.35294 0
M  V30 7 C -0.732 3.65373 2.2001 0
M  V30 8 S 0.101 5.13292 1.52614 0
M  V30 9 C 1.257 5.56322 2.86805 0
M  V30 10 H 1.49 2.90518 0.631377 0
M  V30 11 H -0.977 1.52953 0.210867 0
M  V30 12 H 0.981 2.67203 3.11629 0
M  V30 13 H -0.358 1.57376 2.7183 0
M  V30 14 H -1.165 3.90944 3.18086 0
M  V30 15 H -1.563 3.418 1.51819 0
M  V30 16 H 0.729 5.58782 3.83104 0
M  V30 17 H 1.672 6.56266 2.65933 0
M  V30 18 H 2.08 4.83886 2.90714 0
M  V30 19 N 1.4781 -0.272755 1.55222 0
M  V30 20 C 2.3881 -1.35918 1.91216 0
M  V30 21 C 3.4041 -1.54026 0.809436 0
M  V30 22 O 4.5801 -1.68148 1.10852 0
M  V30 23 C 1.6451 -2.69834 2.17693 0
M  V30 24 C 0.7061 -2.6047 3.41253 0
M  V30 25 C -0.0609 -3.88 3.66458 0
M  V30 26 O 0.1621 -4.88693 2.94169 0
M  V30 27 O -0.9039 -3.88189 4.59992 0
M  V30 28 H 2.9221 -1.0839 2.83699 0
M  V30 29 H 0.5071 -0.471301 1.41771 0
M  V30 30 H 2.3891 -3.49017 2.36147 0
M  V30 31 H 1.0641 -2.97148 1.28392 0
M  V30 32 H -0.0289 -1.79663 3.28134 0
M  V30 33 H 1.3041 -2.38106 4.30774 0
M  V30 34 N 2.9562 -1.48159 -0.537278 0
M  V30 35 C 3.9062 -1.5854 -1.63857 0
M  V30 36 C 4.8902 -0.442969 -1.54682 0
M  V30 37 O 6.0822 -0.69401 -1.62827 0
M  V30 38 C 3.2112 -1.62144 -3.02596 0
M  V30 39 C 2.2972 -2.81841 -3.16901 0
M  V30 40 N 2.6882 -4.06337 -3.01204 0
M  V30 41 C 0.9862 -2.79021 -3.47942 0
M  V30 42 C 1.6872 -4.86606 -3.18731 0
M  V30 43 N 0.6632 -4.19288 -3.45974 0
M  V30 44 H 4.4652 -2.5255 -1.50319 0
M  V30 45 H 1.9792 -1.4443 -0.742555 0
M  V30 46 H 3.9762 -1.67674 -3.81695 0
M  V30 47 H 2.6362 -0.69245 -3.17231 0
M  V30 48 H 3.6472 -4.36888 -2.78117 0
M  V30 49 H 0.3242 -1.95347 -3.6898 0
M  V30 50 H 1.7142 -5.95385 -3.11394 0
M  V30 51 N 4.4343 0.785586 -1.36625 0
M  V30 52 C 5.3663 1.90711 -1.2713 0
M  V30 53 C 6.3793 1.61688 -0.189986 0
M  V30 54 O 7.5683 1.72864 -0.445014 0
M  V30 55 C 4.6683 3.25611 -0.939713 0
M  V30 56 C 3.8413 3.82385 -2.12369 0
M  V30 57 C 2.9003 4.95732 -1.76456 0
M  V30 58 O 1.9263 5.12047 -2.48589 0
M  V30 59 N 3.1283 5.76258 -0.700492 0
M  V30 60 H 5.8933 1.99376 -2.23762 0
M  V30 61 H 3.4543 0.964041 -1.30069 0
M  V30 62 H 5.4463 3.98937 -0.680554 0
M  V30 63 H 4.0163 3.12538 -0.0624074 0
M  V30 64 H 3.2363 3.01001 -2.54543 0
M  V30 65 H 4.5243 4.17047 -2.9146 0
M  V30 66 H 3.9223 5.65609 -0.101624 0
M  V30 67 H 2.4793 6.4987 -0.501165 0
M  V30 68 N 5.9124 1.20967 1.01018 0
M  V30 69 C 6.8424 0.988272 2.11555 0
M  V30 70 C 7.8234 -0.0849778 1.69888 0
M  V30 71 O 9.0084 0.0738202 1.9406 0
M  V30 72 C 6.1384 0.546528 3.42973 0
M  V30 73 C 5.0924 1.56375 3.9841 0
M  V30 74 C 4.4184 0.97842 5.25672 0
M  V30 75 C 5.7184 2.94922 4.31066 0
M  V30 76 H 7.4124 1.91276 2.30334 0
M  V30 77 H 4.9584 0.921073 1.1069 0
M  V30 78 H 6.9114 0.378839 4.19694 0
M  V30 79 H 5.6354 -0.413598 3.23971 0
M  V30 80 H 4.2944 1.71891 3.23804 0
M  V30 81 H 3.9424 0.0101688 5.02999 0
M  V30 82 H 3.6424 1.65784 5.63728 0
M  V30 83 H 5.1664 0.821939 6.05043 0
M  V30 84 H 6.5804 2.8288 4.9865 0
M  V30 85 H 4.9774 3.5983 4.80253 0
M  V30 86 H 6.0474 3.4616 3.39561 0
M  V30 87 N 7.3905 -1.2043 1.01659 0
M  V30 88 C 8.3205 -2.25466 0.607226 0
M  V30 89 C 9.3015 -1.65853 -0.377716 0
M  V30 90 O 10.4865 -1.92409 -0.263149 0
M  V30 91 C 7.6165 -3.47256 -0.0552949 0
M  V30 92 C 6.5705 -4.19462 0.850632 0
M  V30 93 C 5.8965 -5.34673 0.0538859 0
M  V30 94 C 7.1965 -4.75603 2.15868 0
M  V30 95 H 8.8905 -2.59962 1.48526 0
M  V30 96 H 6.4365 -1.2496 0.715605 0
M  V30 97 H 8.3895 -4.19917 -0.353233 0
M  V30 98 H 7.1135 -3.11924 -0.968045 0
M  V30 99 H 5.7725 -3.48667 1.13257 0
M  V30 100 H 5.4205 -4.95585 -0.860514 0
M  V30 101 H 5.1205 -5.83913 0.657192 0
M  V30 102 H 6.6445 -6.10138 -0.237598 0
M  V30 103 H 8.0585 -5.40083 1.92311 0
M  V30 104 H 6.4555 -5.3528 2.71284 0
M  V30 105 H 7.5255 -3.94346 2.82169 0
M  V30 106 N 8.8686 -0.792821 -1.36206 0
M  V30 107 C 10.1086 -0.372238 -2.00982 0
M  V30 108 C 10.4726 1.03749 -1.61555 0
M  V30 109 O 11.6736 1.55934 -2.18948 0
M  V30 110 C 9.9446 -0.534566 -3.5338 0
M  V30 111 S 11.5036 -0.202365 -4.38333 0
M  V30 112 H 8.3216 -0.142044 -0.696667 0
M  V30 113 H 10.9236 -1.03206 -1.66039 0
M  V30 114 H 9.6276 -1.5608 -3.79562 0
M  V30 115 H 9.1586 0.141065 -3.93147 0
M  V30 116 H 11.1736 0.994869 -4.86124 0
M  V30 117 N 10.3467 1.47872 -0.545128 0
M  V30 118 C 11.5867 2.04391 -0.0187854 0
M  V30 119 C 11.9507 1.41162 1.30144 0
M  V30 120 O 13.1517 1.88656 1.91474 0
M  V30 121 C 11.4227 3.57299 0.0850867 0
M  V30 122 S 12.9817 4.35221 0.559302 0
M  V30 123 H 9.7997 0.710737 -0.0193301 0
M  V30 124 H 12.4017 1.81395 -0.729125 0
M  V30 125 H 11.1057 4.00847 -0.880351 0
M  V30 126 H 10.6367 3.84773 0.819348 0
M  V30 127 H 12.6517 4.61571 1.82118 0
M  V30 128 N 11.8248 0.280983 1.55075 0
M  V30 129 C 12.7348 -0.61388 2.26426 0
M  V30 130 C 13.7508 -1.16521 1.29224 0
M  V30 131 O 14.9268 -1.19426 1.62171 0
M  V30 132 C 11.9918 -1.7788 2.9759 0
M  V30 133 C 11.0528 -1.26355 4.10284 0
M  V30 134 C 10.2858 -2.37295 4.78045 0
M  V30 135 O 10.5088 -3.56777 4.45047 0
M  V30 136 O 9.4428 -2.05119 5.65871 0
M  V30 137 H 13.2688 -0.0356932 3.03679 0
M  V30 138 H 10.8538 0.0481686 1.49322 0
M  V30 139 H 12.7358 -2.45791 3.42293 0
M  V30 140 H 11.4108 -2.34397 2.23249 0
M  V30 141 H 10.3178 -0.550735 3.70024 0
M  V30 142 H 11.6508 -0.744065 4.86543 0
M  V30 143 N 13.3029 -1.57598 0.00835791 0
M  V30 144 C 14.5489 -1.91211 -0.675732 0
M  V30 145 C 14.8819 -0.883139 -1.72958 0
M  V30 146 O 14.1569 0.097016 -1.94258 0
M  V30 147 C 14.4399 -3.35379 -1.31123 0
M  V30 148 C 14.2929 -4.48999 -0.268356 0
M  V30 149 C 15.6119 -3.7912 -2.23508 0
M  V30 150 H 12.7309 -0.695374 -0.244179 0
M  V30 151 H 15.3729 -1.89901 0.0613655 0
M  V30 152 H 13.5229 -3.36626 -1.93946 0
M  V30 153 H 15.1949 -4.59887 0.360844 0
M  V30 154 H 13.4379 -4.31873 0.408482 0
M  V30 155 H 14.1089 -5.46851 -0.752218 0
M  V30 156 H 16.5849 -3.79477 -1.70693 0
M  V30 157 H 15.4609 -4.80729 -2.64936 0
M  V30 158 H 15.7219 -3.13455 -3.11766 0
M  V30 159 N 14.781 0.264519 -1.55364 0
M  V30 160 C 15.691 1.34902 -1.91934 0
M  V30 161 C 16.707 1.53595 -0.817593 0
M  V30 162 O 17.883 1.67558 -1.11742 0
M  V30 163 C 14.948 2.68676 -2.19121 0
M  V30 164 C 14.009 2.58657 -3.4263 0
M  V30 165 C 13.242 3.86051 -3.68511 0
M  V30 166 O 13.465 4.87126 -2.96757 0
M  V30 167 O 12.399 3.85744 -4.62045 0
M  V30 168 H 16.225 1.06883 -2.8427 0
M  V30 169 H 13.81 0.463775 -1.42019 0
M  V30 170 H 15.692 3.47759 -2.37995 0
M  V30 171 H 14.367 2.96463 -1.29966 0
M  V30 172 H 13.274 1.7792 -3.29082 0
M  V30 173 H 14.607 2.35818 -4.32031 0
M  V30 174 N 16.2591 1.48442 0.529413 0
M  V30 175 C 17.4871 1.60151 1.30994 0
M  V30 176 C 17.9021 0.261985 1.86973 0
M  V30 177 O 17.2591 -0.748805 1.66431 0
M  V30 178 C 17.3101 2.64854 2.46038 0
M  V30 179 O 17.0311 3.93608 1.92365 0
M  V30 180 C 18.5321 2.87007 3.37849 0
M  V30 181 H 15.7521 0.539971 0.398338 0
M  V30 182 H 18.2961 1.94273 0.638597 0
M  V30 183 H 16.4511 2.33589 3.09055 0
M  V30 184 H 16.8651 4.51055 2.67675 0
M  V30 185 H 18.3391 3.64068 4.14919 0
M  V30 186 H 18.8161 1.95852 3.93114 0
M  V30 187 H 19.4221 3.19579 2.80623 0
M  V30 188 N 17.7372 -0.778329 1.37039 0
M  V30 189 C 18.9862 -1.53189 1.3121 0
M  V30 190 C 19.2992 -1.95328 -0.103095 0
M  V30 191 O 20.5052 -2.70012 -0.283826 0
M  V30 192 C 18.9612 -2.76591 2.30272 0
M  V30 193 C 18.5692 -2.41577 3.77286 0
M  V30 194 C 20.3132 -3.5455 2.33441 0
M  V30 195 C 18.2202 -3.61441 4.68096 0
M  V30 196 H 17.1502 -0.5751 0.487622 0
M  V30 197 H 19.8012 -0.853101 1.62464 0
M  V30 198 H 18.1832 -3.46326 1.92027 0
M  V30 199 H 19.3572 -1.79668 4.2433 0
M  V30 200 H 17.6722 -1.76806 3.76999 0
M  V30 201 H 20.2692 -4.43628 2.98493 0
M  V30 202 H 20.6122 -3.93936 1.34611 0
M  V30 203 H 21.1452 -2.91805 2.7036 0
M  V30 204 H 17.8842 -3.27142 5.6803 0
M  V30 205 H 17.4042 -4.22478 4.25761 0
M  V30 206 H 19.0832 -4.28335 4.8491 0
M  V30 207 N 19.2153 -1.21501 -1.00376 0
M  V30 208 C 20.6313 -0.972629 -1.26539 0
M  V30 209 C 20.8313 0.340257 -1.98606 0
M  V30 210 O 19.8873 1.06561 -2.28913 0
M  V30 211 C 21.2003 -2.16404 -2.08781 0
M  V30 212 C 22.7483 -2.20643 -2.22004 0
M  V30 213 C 23.2233 -3.39306 -3.07629 0
M  V30 214 N 24.7143 -3.39401 -3.15217 0
M  V30 215 C 25.4493 -4.27867 -3.81729 0
M  V30 216 N 24.9453 -5.26533 -4.5026 0
M  V30 217 N 26.7383 -4.15672 -3.78382 0
M  V30 218 H 18.8893 -2.05929 -0.520281 0
M  V30 219 H 21.1523 -0.901803 -0.292328 0
M  V30 220 H 20.8583 -3.11554 -1.63178 0
M  V30 221 H 20.7323 -2.15567 -3.09533 0
M  V30 222 H 23.1193 -1.26048 -2.66825 0
M  V30 223 H 23.2003 -2.25523 -1.20718 0
M  V30 224 H 22.8443 -4.34195 -2.63509 0
M  V30 225 H 22.7743 -3.31665 -4.09031 0
M  V30 226 H 25.2653 -2.67997 -2.66432 0
M  V30 227 H 25.5783 -5.90337 -4.98721 0
M  V30 228 H 23.9233 -5.30457 -4.49044 0
M  V30 229 H 27.1143 -3.3785 -3.23998 0
M  V30 230 H 27.2873 -4.84825 -4.2994 0
M  V30 231 N 20.6934 1.19889 -1.02296 0
M  V30 232 C 22.1094 1.41462 -0.738954 0
M  V30 233 C 22.3094 1.89721 0.678846 0
M  V30 234 O 21.3654 2.07016 1.4457 0
M  V30 235 C 22.6784 2.43083 -1.77005 0
M  V30 236 C 24.2264 2.5684 -1.78892 0
M  V30 237 C 24.7014 3.61709 -2.80945 0
M  V30 238 N 26.1924 3.69199 -2.79725 0
M  V30 239 C 26.9274 4.50019 -3.55345 0
M  V30 240 N 26.4234 5.34592 -4.40662 0
M  V30 241 N 28.2164 4.44612 -3.43914 0
M  V30 242 H 20.3674 0.868827 -1.93817 0
M  V30 243 H 22.6304 0.44399 -0.837602 0
M  V30 244 H 22.3364 2.14636 -2.78612 0
M  V30 245 H 22.2104 3.4217 -1.58744 0
M  V30 246 H 24.5974 2.84614 -0.779674 0
M  V30 247 H 24.6784 1.57927 -2.01228 0
M  V30 248 H 24.3224 3.34678 -3.82038 0
M  V30 249 H 24.2524 4.60259 -2.5587 0
M  V30 250 H 26.7434 3.08794 -2.17842 0
M  V30 251 H 27.0564 5.93363 -4.95116 0
M  V30 252 H 25.4014 5.34073 -4.44737 0
M  V30 253 H 28.5924 3.7758 -2.76679 0
M  V30 254 H 28.7654 5.0736 -4.031 0
M  V30 255 N 22.1715 0.800033 1.35784 0
M  V30 256 C 23.1345 0.211565 2.28221 0
M  V30 257 C 24.1345 -0.59728 1.49296 0
M  V30 258 O 25.3245 -0.416721 1.69142 0
M  V30 259 C 22.4565 -0.705846 3.33513 0
M  V30 260 H 23.6495 1.02677 2.81776 0
M  V30 261 H 21.2025 0.570211 1.45528 0
M  V30 262 H 21.9375 -1.54498 2.85133 0
M  V30 263 H 21.7225 -0.127655 3.91892 0
M  V30 264 H 23.2125 -1.11211 4.02519 0
M  V30 265 N 23.6496 -1.47581 0.552962 0
M  V30 266 C 24.8796 -2.06575 0.0320091 0
M  V30 267 C 25.2876 -1.4067 -1.26525 0
M  V30 268 O 24.6306 -0.495808 -1.76883 0
M  V30 269 C 24.6926 -3.58705 -0.238913 0
M  V30 270 C 24.3566 -4.46625 0.968272 0
M  V30 271 C 25.3536 -4.85 1.87274 0
M  V30 272 C 23.0386 -4.88201 1.18175 0
M  V30 273 C 25.0326 -5.63745 2.9744 0
M  V30 274 C 22.7196 -5.66712 2.28651 0
M  V30 275 C 23.7176 -6.04394 3.18114 0
M  V30 276 O 23.4056 -6.81324 4.26676 0
M  V30 277 H 23.1376 -0.674763 0.0408689 0
M  V30 278 H 25.6916 -1.90634 0.764719 0
M  V30 279 H 23.9216 -3.72844 -1.02588 0
M  V30 280 H 25.6106 -3.99735 -0.704731 0
M  V30 281 H 26.3766 -4.53482 1.71984 0
M  V30 282 H 22.2556 -4.58339 0.494593 0
M  V30 283 H 25.7996 -5.93077 3.67296 0
M  V30 284 H 21.6966 -5.97642 2.43915 0
M  V30 285 H 22.4646 -6.99712 4.24671 0
M  V30 286 N 25.1277 -0.289203 -1.54924 0
M  V30 287 C 26.5387 0.205791 -1.85562 0
M  V30 288 C 26.8897 1.54351 -1.2112 0
M  V30 289 O 26.0147 2.10435 -0.504601 0
M  V30 290 C 26.6097 0.380177 -3.3666 0
M  V30 291 C 25.1687 0.819395 -3.67373 0
M  V30 292 C 24.3157 -0.079159 -2.77187 0
M  V30 293 H 27.2667 -0.510577 -1.50262 0
M  V30 294 H 27.2877 1.21659 -3.60526 0
M  V30 295 H 26.7997 -0.593589 -3.83534 0
M  V30 296 H 24.9007 1.80413 -3.26009 0
M  V30 297 H 25.0137 0.646957 -4.74712 0
M  V30 298 H 23.3777 0.439565 -2.50878 0
M  V30 299 H 24.1607 -1.04906 -3.26878 0
M  V30 300 N 26.6058 1.57591 -0.0167156 0
M  V30 301 C 27.8828 1.82547 0.702564 0
M  V30 302 C 28.2628 0.898018 1.91047 0
M  V30 303 O 27.6108 -0.0493456 2.28447 0
M  V30 304 C 27.8208 3.31459 1.09251 0
M  V30 305 C 29.1688 3.97622 1.48937 0
M  V30 306 O 30.1928 3.35881 1.18584 0
M  V30 307 O 29.0518 5.06415 2.05442 0
M  V30 308 H 26.1458 0.752268 0.343544 0
M  V30 309 H 28.6918 1.69644 -0.0434495 0
M  V30 310 H 27.4638 3.9061 0.23227 0
M  V30 311 H 27.0868 3.49422 1.89709 0
M  V30 312 N 28.0839 -0.256276 1.55502 0
M  V30 313 C 29.0469 -1.30047 1.88734 0
M  V30 314 C 30.0469 -1.4154 0.763086 0
M  V30 315 O 31.2369 -1.40403 1.03115 0
M  V30 316 C 28.3689 -2.67953 2.10747 0
M  V30 317 H 29.5619 -1.01802 2.82093 0
M  V30 318 H 27.1149 -0.495134 1.4825 0
M  V30 319 H 27.8499 -3.01351 1.19825 0
M  V30 320 H 27.6349 -2.60993 2.92617 0
M  V30 321 H 29.1249 -3.43368 2.37673 0
M  V30 322 N 29.562 -1.4872 -0.521534 0
M  V30 323 C 30.51 -1.64328 -1.64618 0
M  V30 324 C 31.504 -0.50953 -1.61555 0
M  V30 325 O 32.71 -0.688525 -1.66311 0
M  V30 326 H 29.085 -0.517805 -0.545328 0
M  V30 327 H 31.056 -2.58767 -1.48601 0
M  V30 328 C 29.805 -1.70805 -3.02855 0
M  V30 329 H 29.128 -2.5741 -3.05909 0
M  V30 330 H 30.568 -1.85766 -3.81139 0
M  V30 331 C 29.027 -0.448479 -3.33902 0
M  V30 332 O 29.557 0.434928 -3.99339 0
M  V30 333 N 27.763 -0.317616 -2.88859 0
M  V30 334 H 27.31 -1.03748 -2.35784 0
M  V30 335 H 27.268 0.524113 -3.10001 0
M  V30 336 N 31.0401 0.771051 -1.3745 0
M  V30 337 C 31.9701 1.89827 -1.3597 0
M  V30 338 C 32.9511 1.68562 -0.228216 0
M  V30 339 O 34.1361 1.8941 -0.428675 0
M  V30 340 C 31.2661 3.2712 -1.16662 0
M  V30 341 C 30.2201 3.6295 -2.2683 0
M  V30 342 C 29.5461 4.98791 -1.92644 0
M  V30 343 C 30.8461 3.69627 -3.69017 0
M  V30 344 H 32.5401 1.91323 -2.30295 0
M  V30 345 H 30.0861 0.919082 -1.10855 0
M  V30 346 H 32.0391 4.05615 -1.14256 0
M  V30 347 H 30.7631 3.26059 -0.187926 0
M  V30 348 H 29.4221 2.86763 -2.28392 0
M  V30 349 H 29.0701 4.94271 -0.933021 0
M  V30 350 H 28.7701 5.23733 -2.66416 0
M  V30 351 H 30.2941 5.79685 -1.91826 0
M  V30 352 H 31.7081 4.38273 -3.69581 0
M  V30 353 H 30.1051 4.06067 -4.41848 0
M  V30 354 H 31.1751 2.70273 -4.02592 0
M  V30 355 N 32.5182 1.22032 0.997298 0
M  V30 356 C 33.4482 1.01065 2.10495 0
M  V30 357 C 34.4292 -0.0669542 1.69968 0
M  V30 358 O 35.6142 0.0943987 1.9397 0
M  V30 359 C 32.7442 0.582874 3.42374 0
M  V30 360 C 31.6982 1.60592 3.96729 0
M  V30 361 C 31.0242 1.03412 5.24605 0
M  V30 362 C 32.3242 2.99478 4.27914 0
M  V30 363 H 34.0182 1.93708 2.28292 0
M  V30 364 H 31.5642 0.932761 1.09707 0
M  V30 365 H 33.5172 0.423332 4.19268 0
M  V30 366 H 32.2412 -0.379213 3.24391 0
M  V30 367 H 30.9002 1.75316 3.21963 0
M  V30 368 H 30.5482 0.063518 5.0296 0
M  V30 369 H 30.2482 1.71754 5.61938 0
M  V30 370 H 31.7722 0.886066 6.04137 0
M  V30 371 H 33.1862 2.88153 4.95622 0
M  V30 372 H 31.5832 3.64903 4.76409 0
M  V30 373 H 32.6532 3.49742 3.3587 0
M  V30 374 N 33.9963 -1.19345 1.0293 0
M  V30 375 C 34.9443 -2.24621 0.604001 0
M  V30 376 C 35.9383 -1.65452 -0.363587 0
M  V30 377 O 37.1443 -1.78497 -0.23212 0
M  V30 378 H 33.5193 -0.730858 0.177061 0
M  V30 379 H 35.4903 -2.5781 1.50255 0
M  V30 380 C 34.2393 -3.47688 -0.0289127 0
M  V30 381 H 33.5623 -3.93505 0.706651 0
M  V30 382 H 35.0023 -4.23011 -0.289432 0
M  V30 383 C 33.4613 -3.11817 -1.2756 0
M  V30 384 O 33.9913 -3.2451 -2.36762 0
M  V30 385 N 32.1973 -2.66246 -1.16453 0
M  V30 386 H 31.7443 -2.56118 -0.275914 0
M  V30 387 H 31.7023 -2.42617 -1.99961 0
M  V30 388 N 35.4744 -0.807222 -1.35358 0
M  V30 389 C 36.7514 -0.311126 -1.9311 0
M  V30 390 C 37.1314 1.19937 -1.73719 0
M  V30 391 O 36.4794 1.99918 -1.10657 0
M  V30 392 C 36.6894 -0.723226 -3.41424 0
M  V30 393 C 38.0374 -0.713078 -4.18569 0
M  V30 394 O 39.0614 -0.664811 -3.49941 0
M  V30 395 O 37.9204 -0.772022 -5.41019 0
M  V30 396 H 35.0144 -0.081526 -0.822972 0
M  V30 397 H 37.5604 -0.890962 -1.4443 0
M  V30 398 H 36.3324 -1.76426 -3.4927 0
M  V30 399 H 35.9554 -0.118232 -3.97424 0
M  V30 400 N 36.9525 1.47285 -0.560781 0
M  V30 401 C 38.3685 1.58065 -0.22081 0
M  V30 402 C 38.5685 1.55892 1.27671 0
M  V30 403 O 37.6245 1.46422 2.0571 0
M  V30 404 C 38.9375 2.88418 -0.850625 0
M  V30 405 C 40.4855 3.02009 -0.822184 0
M  V30 406 C 40.9605 4.35066 -1.43113 0
M  V30 407 N 42.4515 4.41711 -1.39448 0
M  V30 408 C 43.1865 5.43237 -1.83525 0
M  V30 409 N 42.6825 6.51555 -2.35474 0
M  V30 410 N 44.4755 5.34304 -1.74574 0
M  V30 411 H 36.6265 1.46941 -1.53369 0
M  V30 412 H 38.8895 0.699558 -0.639783 0
M  V30 413 H 38.5955 2.95755 -1.9032 0
M  V30 414 H 38.4695 3.75612 -0.345773 0
M  V30 415 H 40.8565 2.94266 0.221714 0
M  V30 416 H 40.9375 2.16347 -1.36483 0
M  V30 417 H 40.5815 4.43565 -2.47412 0
M  V30 418 H 40.5115 5.19465 -0.863899 0
M  V30 419 H 43.0025 3.64027 -1.01452 0
M  V30 420 H 43.3155 7.25203 -2.67021 0
M  V30 421 H 41.6605 6.52435 -2.39487 0
M  V30 422 H 44.8515 4.48581 -1.33763 0
M  V30 423 H 45.0245 6.13288 -2.09242 0
M  V30 424 N 38.4306 0.297415 1.54768 0
M  V30 425 C 39.6766 -0.313376 2.00364 0
M  V30 426 C 40.0096 -1.53815 1.18553 0
M  V30 427 O 39.2846 -1.92739 0.261103 0
M  V30 428 C 39.5676 -0.673525 3.53745 0
M  V30 429 C 39.4206 0.560133 4.46299 0
M  V30 430 C 40.7396 -1.50143 4.13697 0
M  V30 431 H 37.8586 -0.112428 0.728374 0
M  V30 432 H 40.5006 0.4088 1.8555 0
M  V30 433 H 38.6506 -1.28881 3.665 0
M  V30 434 H 40.3226 1.19863 4.45455 0
M  V30 435 H 38.5656 1.19405 4.17043 0
M  V30 436 H 39.2366 0.26405 5.51368 0
M  V30 437 H 41.7126 -0.981588 4.04356 0
M  V30 438 H 40.5886 -1.72221 5.21182 0
M  V30 439 H 40.8496 -2.48952 3.65343 0
M  V30 440 N 39.9087 -1.5758 0.0250728 0
M  V30 441 C 40.8387 -2.13007 -0.956575 0
M  V30 442 C 41.8197 -1.0452 -1.342 0
M  V30 443 O 43.0047 -1.32332 -1.42133 0
M  V30 444 C 40.1347 -2.65386 -2.24026 0
M  V30 445 C 39.0887 -3.78623 -1.99571 0
M  V30 446 C 38.4147 -4.17414 -3.3417 0
M  V30 447 C 39.7147 -5.04867 -1.33814 0
M  V30 448 H 41.4087 -2.9528 -0.494991 0
M  V30 449 H 38.9547 -1.42042 -0.236651 0
M  V30 450 H 40.9077 -3.02794 -2.93076 0
M  V30 451 H 39.6317 -1.80268 -2.72343 0
M  V30 452 H 38.2907 -3.41646 -1.32941 0
M  V30 453 H 37.9387 -3.29284 -3.80238 0
M  V30 454 H 37.6387 -4.93719 -3.18615 0
M  V30 455 H 39.1627 -4.57402 -4.04495 0
M  V30 456 H 40.5767 -5.39888 -1.92857 0
M  V30 457 H 38.9737 -5.86144 -1.28669 0
M  V30 458 H 40.0437 -4.83904 -0.310561 0
M  V30 459 N 41.3868 0.248026 -1.55636 0
M  V30 460 C 42.8028 0.596483 -1.48035 0
M  V30 461 C 43.0028 1.88386 -0.715039 0
M  V30 462 O 42.0588 2.51319 -0.243944 0
M  V30 463 C 43.3718 0.700258 -2.92433 0
M  V30 464 C 44.9198 0.792659 -3.02797 0
M  V30 465 C 45.3948 0.928005 -4.485 0
M  V30 466 N 46.8858 0.992903 -4.52433 0
M  V30 467 C 47.6208 1.11687 -5.62418 0
M  V30 468 N 47.1168 1.20645 -6.82214 0
M  V30 469 N 48.9098 1.14994 -5.50212 0
M  V30 470 H 41.0608 -0.597109 -2.03834 0
M  V30 471 H 43.3238 -0.205925 -0.925364 0
M  V30 472 H 43.0298 -0.175658 -3.51261 0
M  V30 473 H 42.9038 1.57255 -3.42857 0
M  V30 474 H 45.2908 1.65903 -2.4405 0
M  V30 475 H 45.3718 -0.104762 -2.55585 0
M  V30 476 H 45.0158 0.0661971 -5.07857 0
M  V30 477 H 44.9458 1.84045 -4.93391 0
M  V30 478 H 47.4368 0.935064 -3.66149 0
M  V30 479 H 47.7498 1.30008 -7.61786 0
M  V30 480 H 46.0948 1.17605 -6.84977 0
M  V30 481 H 49.2858 1.07643 -4.55555 0
M  V30 482 H 49.4588 1.24311 -6.35965 0
M  V30 483 N 42.8649 1.48995 0.513639 0
M  V30 484 C 43.8279 1.64229 1.59879 0
M  V30 485 C 44.8279 0.514696 1.5234 0
M  V30 486 O 46.0179 0.78087 1.55718 0
M  V30 487 C 43.1499 1.62783 2.99524 0
M  V30 488 H 44.3429 2.61004 1.47705 0
M  V30 489 H 41.8959 1.37837 0.736936 0
M  V30 490 H 42.6309 0.675461 3.17188 0
M  V30 491 H 42.4159 2.4466 3.06404 0
M  V30 492 H 43.9059 1.76669 3.78388 0
M  V30 493 N 44.343 -0.763751 1.37857 0
M  V30 494 C 45.276 -1.88486 1.28639 0
M  V30 495 C 46.254 -1.61757 0.165363 0
M  V30 496 O 47.438 -1.85391 0.340948 0
M  V30 497 C 44.565 -3.23884 0.990811 0
M  V30 498 C 43.611 -3.69514 2.12983 0
M  V30 499 S 44.444 -3.82244 3.75033 0
M  V30 500 C 45.6 -5.20477 3.47641 0
M  V30 501 H 45.833 -1.96017 2.23527 0
M  V30 502 H 43.366 -0.925684 1.23574 0
M  V30 503 H 45.324 -4.02081 0.827101 0
M  V30 504 H 43.985 -3.14044 0.0592832 0
M  V30 505 H 43.178 -4.67696 1.87821 0
M  V30 506 H 42.78 -2.98441 2.25408 0
M  V30 507 H 45.072 -6.05905 3.03125 0
M  V30 508 H 46.015 -5.50655 4.4518 0
M  V30 509 H 46.423 -4.88793 2.82385 0
M  V30 510 N 45.8211 -1.22559 -0.990812 0
M  V30 511 C 46.7511 -1.0218 -2.09956 0
M  V30 512 C 47.7321 0.0579394 -1.70001 0
M  V30 513 O 48.9171 -0.104684 -1.93918 0
M  V30 514 C 46.0471 -0.601023 -3.4206 0
M  V30 515 C 45.0011 -1.62694 -3.95872 0
M  V30 516 C 44.3271 -1.06193 -5.24049 0
M  V30 517 C 45.6271 -3.01743 -4.2632 0
M  V30 518 H 47.3211 -1.94916 -2.27262 0
M  V30 519 H 44.8671 -0.938566 -1.09211 0
M  V30 520 H 46.8201 -0.445561 -4.19038 0
M  V30 521 H 45.5441 0.362005 -3.24588 0
M  V30 522 H 44.2031 -1.77021 -3.21028 0
M  V30 523 H 43.8511 -0.0901903 -5.02919 0
M  V30 524 H 43.5511 -1.74732 -5.61019 0
M  V30 525 H 45.0751 -0.918092 -6.03658 0
M  V30 526 H 46.4891 -2.90777 -4.94087 0
M  V30 527 H 44.8861 -3.67425 -4.74467 0
M  V30 528 H 45.9561 -3.51518 -3.34011 0
M  V30 529 N 47.2992 1.18797 -1.03562 0
M  V30 530 C 48.2462 2.22253 -0.622259 0
M  V30 531 C 49.2162 1.61987 0.36736 0
M  V30 532 O 50.4012 1.88986 0.262492 0
M  V30 533 C 47.5412 3.45097 0.0138462 0
M  V30 534 C 46.6542 4.19722 -1.02263 0
M  V30 535 C 45.7892 5.30009 -0.355573 0
M  V30 536 C 44.8282 5.96399 -1.37749 0
M  V30 537 N 43.9652 6.98234 -0.735766 0
M  V30 538 H 48.8052 2.56968 -1.50903 0
M  V30 539 H 46.3422 1.26245 -0.755017 0
M  V30 540 H 48.3002 4.15279 0.399948 0
M  V30 541 H 46.9302 3.11018 0.864158 0
M  V30 542 H 45.9822 3.48418 -1.52673 0
M  V30 543 H 47.2942 4.65227 -1.79903 0
M  V30 544 H 46.4482 6.0664 0.0850095 0
M  V30 545 H 45.1872 4.85592 0.452967 0
M  V30 546 H 44.1922 5.18512 -1.82826 0
M  V30 547 H 45.4172 6.42899 -2.18764 0
M  V30 548 H 43.3632 6.55979 0.0525597 0
M  V30 549 H 43.2802 7.41965 -1.44995 0
M  V30 550 H 44.5482 7.78845 -0.31941 0
M  V30 551 N 48.7773 0.814389 1.34928 0
M  V30 552 C 49.7403 0.235759 2.27984 0
M  V30 553 C 50.7403 -0.581412 1.49921 0
M  V30 554 O 51.9303 -0.398758 1.69575 0
M  V30 555 C 49.0623 -0.670433 3.34242 0
M  V30 556 H 50.2553 1.05659 2.80671 0
M  V30 557 H 47.8083 0.585614 1.44915 0
M  V30 558 H 48.5433 -1.51466 2.86755 0
M  V30 559 H 48.3283 -0.0860822 3.92005 0
M  V30 560 H 49.8183 -1.06935 4.03676 0
M  V30 561 N 50.2554 -1.46986 0.568584 0
M  V30 562 C 51.1654 -2.33942 -0.17555 0
M  V30 563 C 52.1814 -1.48891 -0.90041 0
M  V30 564 O 53.3574 -1.81794 -0.86676 0
M  V30 565 C 50.4224 -3.25811 -1.18524 0
M  V30 566 C 49.4834 -4.26757 -0.466582 0
M  V30 567 C 48.7164 -5.14236 -1.42817 0
M  V30 568 O 48.9394 -5.04379 -2.66379 0
M  V30 569 O 47.8734 -5.94412 -0.946453 0
M  V30 570 H 51.6994 -2.98896 0.538036 0
M  V30 571 H 49.2844 -1.4573 0.329097 0
M  V30 572 H 51.1664 -3.82527 -1.76779 0
M  V30 573 H 49.8414 -2.63471 -1.88055 0
M  V30 574 H 48.7484 -3.73769 0.157451 0
M  V30 575 H 50.0814 -4.91843 0.187485 0
M  V30 576 N 51.7335 -0.305618 -1.54608 0
M  V30 577 C 52.6435 0.57778 -2.27374 0
M  V30 578 C 53.6595 1.14451 -1.31061 0
M  V30 579 O 54.8355 1.16831 -1.6405 0
M  V30 580 C 51.9005 1.73123 -3.00382 0
M  V30 581 C 50.9615 1.19812 -4.12242 0
M  V30 582 C 50.1945 2.2966 -4.81759 0
M  V30 583 O 50.4175 3.49651 -4.50666 0
M  V30 584 O 49.3515 1.96091 -5.69062 0
M  V30 585 H 53.1775 -0.012624 -3.03697 0
M  V30 586 H 50.7625 -0.0719184 -1.49227 0
M  V30 587 H 52.6445 2.40315 -3.4616 0
M  V30 588 H 51.3195 2.30815 -2.26949 0
M  V30 589 H 50.2265 0.491798 -3.70853 0
M  V30 590 H 51.5595 0.666566 -4.87666 0
M  V30 591 N 53.2116 1.57565 -0.0334293 0
M  V30 592 C 54.4396 1.9628 0.654347 0
M  V30 593 C 54.8546 0.910138 1.65414 0
M  V30 594 O 54.2116 -0.107595 1.82183 0
M  V30 595 C 54.2626 3.35067 1.35693 0
M  V30 596 O 53.9836 4.36296 0.397191 0
M  V30 597 C 55.4846 3.88439 2.13613 0
M  V30 598 H 52.7046 0.646369 0.180132 0
M  V30 599 H 55.2486 2.04282 -0.0944721 0
M  V30 600 H 53.4036 3.2827 2.05712 0
M  V30 601 H 53.8176 5.1678 0.896597 0
M  V30 602 H 55.2916 4.8788 2.58219 0
M  V30 603 H 55.7686 3.22914 2.97696 0
M  V30 604 H 56.3746 3.98516 1.48543 0
M  V30 605 N 54.6897 -0.239769 1.55765 0
M  V30 606 C 55.9297 -0.974076 1.79697 0
M  V30 607 C 56.2937 -1.82249 0.604088 0
M  V30 608 O 57.4947 -2.58913 0.722324 0
M  V30 609 C 55.7657 -1.80595 3.08416 0
M  V30 610 S 57.3247 -2.59838 3.53596 0
M  V30 611 H 54.1427 -0.327524 0.63107 0
M  V30 612 H 56.7447 -0.241277 1.94005 0
M  V30 613 H 55.4487 -1.17249 3.93295 0
M  V30 614 H 54.9797 -2.58137 2.96865 0
M  V30 615 H 56.9947 -3.82987 3.15492 0
M  V30 616 N 56.1678 -1.49265 -0.50573 0
M  V30 617 C 57.1308 -1.65075 -1.59006 0
M  V30 618 C 58.1308 -0.522768 -1.52065 0
M  V30 619 O 59.3208 -0.789117 -1.55302 0
M  V30 620 C 56.4528 -1.64369 -2.98656 0
M  V30 621 H 57.6458 -2.61784 -1.46319 0
M  V30 622 H 55.1988 -1.38226 -0.729616 0
M  V30 623 H 55.9338 -0.692272 -3.16825 0
M  V30 624 H 55.7188 -2.46282 -3.05103 0
M  V30 625 H 57.2088 -1.78674 -3.77446 0
M  V30 626 N 57.6459 0.756429 -1.3826 0
M  V30 627 C 59.0569 1.33359 -1.30661 0
M  V30 628 C 59.4079 1.96161 0.0388875 0
M  V30 629 O 58.5329 1.94874 0.940918 0
M  V30 630 C 59.1279 2.42477 -2.36622 0
M  V30 631 C 57.6869 2.95922 -2.3261 0
M  V30 632 C 56.8339 1.69275 -2.19639 0
M  V30 633 H 59.7849 0.55552 -1.4866 0
M  V30 634 H 59.8059 3.22345 -2.02174 0
M  V30 635 H 59.3179 1.96739 -3.34538 0
M  V30 636 H 57.4189 3.45996 -1.38267 0
M  V30 637 H 57.5319 3.50494 -3.26636 0
M  V30 638 H 55.8959 1.92793 -1.66442 0
M  V30 639 H 56.6789 1.25619 -3.19491 0
M  V30 640 N 59.124 1.23083 0.984299 0
M  V30 641 C 60.349 1.088 1.76571 0
M  V30 642 C 60.774 -0.356657 1.84688 0
M  V30 643 O 60.132 -1.25788 1.30565 0
M  V30 644 C 60.18 1.71371 3.17277 0
M  V30 645 O 59.284 0.973213 4.00752 0
M  V30 646 H 58.625 0.381599 0.543395 0
M  V30 647 H 61.155 1.63057 1.23587 0
M  V30 648 H 61.165 1.76449 3.67872 0
M  V30 649 H 59.84 2.76493 3.10684 0
M  V30 650 H 58.417 0.999078 3.59267 0
M  V30 651 N 60.6021 -1.18246 1.0419 0
M  V30 652 C 61.8481 -1.88536 0.747122 0
M  V30 653 C 62.1811 -1.80223 -0.723409 0
M  V30 654 O 61.4561 -1.20337 -1.52804 0
M  V30 655 C 61.7391 -3.38968 1.21544 0
M  V30 656 C 61.5921 -3.56084 2.74816 0
M  V30 657 C 62.9111 -4.32648 0.806482 0
M  V30 658 H 60.0301 -0.684619 0.272883 0
M  V30 659 H 62.6721 -1.39113 1.29413 0
M  V30 660 H 60.8221 -3.8119 0.750081 0
M  V30 661 H 62.4941 -3.22946 3.29399 0
M  V30 662 H 60.7371 -2.98699 3.14582 0
M  V30 663 H 61.4081 -4.61639 3.02644 0
M  V30 664 H 63.8841 -3.98211 1.20695 0
M  V30 665 H 62.7601 -5.36462 1.1619 0
M  V30 666 H 63.0211 -4.41146 -0.29029 0
M  V30 667 N 62.0802 -0.821533 -1.34494 0
M  V30 668 C 63.3052 -0.420873 -2.03085 0
M  V30 669 C 63.7302 0.964915 -1.61465 0
M  V30 670 O 63.0882 1.62763 -0.798607 0
M  V30 671 C 63.1362 -0.529414 -3.56693 0
M  V30 672 O 62.2402 0.451302 -4.09923 0
M  V30 673 H 61.5812 -0.173489 -0.640935 0
M  V30 674 H 64.1112 -1.11157 -1.71771 0
M  V30 675 H 64.1212 -0.404671 -4.05988 0
M  V30 676 H 62.7962 -1.54014 -3.86332 0
M  V30 677 H 61.3732 0.285558 -3.71805 0
M  V30 678 N 63.5583 1.46682 -0.576371 0
M  V30 679 C 64.7883 2.06498 -0.0648694 0
M  V30 680 C 65.1963 1.42665 1.24271 0
M  V30 681 O 64.5393 0.523886 1.76071 0
M  V30 682 C 64.6013 3.5904 0.181816 0
M  V30 683 C 64.2653 4.45028 -1.0392 0
M  V30 684 C 65.2623 4.81959 -1.94966 0
M  V30 685 C 62.9473 4.86259 -1.25927 0
M  V30 686 C 64.9413 5.58942 -3.06371 0
M  V30 687 C 62.6283 5.63002 -2.37638 0
M  V30 688 C 63.6263 5.99257 -3.2769 0
M  V30 689 O 63.3143 6.7445 -4.37461 0
M  V30 690 H 63.0463 0.674028 -0.0515987 0
M  V30 691 H 65.6003 1.89393 -0.794951 0
M  V30 692 H 63.8303 3.74429 0.966436 0
M  V30 693 H 65.5193 4.00806 0.641047 0
M  V30 694 H 66.2853 4.50689 -1.79177 0
M  V30 695 H 62.1643 4.57494 -0.567448 0
M  V30 696 H 65.7083 5.87158 -3.76684 0
M  V30 697 H 61.6053 5.93686 -2.53392 0
M  V30 698 H 62.3733 6.92867 -4.35749 0
M  V30 699 N 65.0364 0.313813 1.54444 0
M  V30 700 C 66.2834 -0.291675 2.00388 0
M  V30 701 C 66.6114 -1.52904 1.2021 0
M  V30 702 O 65.8664 -1.93833 0.269707 0
M  V30 703 C 66.1654 -0.680386 3.50864 0
M  V30 704 C 65.8314 0.456699 4.48581 0
M  V30 705 C 64.4934 0.768824 4.75018 0
M  V30 706 C 66.8454 1.22098 5.06697 0
M  V30 707 C 64.1734 1.84812 5.56831 0
M  V30 708 C 66.5254 2.29029 5.89685 0
M  V30 709 C 65.1894 2.60834 6.14428 0
M  V30 710 H 64.4594 -0.106732 0.733273 0
M  V30 711 H 67.1064 0.43557 1.86481 0
M  V30 712 H 65.4114 -1.48791 3.62448 0
M  V30 713 H 67.1084 -1.16026 3.83847 0
M  V30 714 H 63.6984 0.203337 4.28117 0
M  V30 715 H 67.8824 0.993096 4.86263 0
M  V30 716 H 63.1384 2.09912 5.74236 0
M  V30 717 H 67.3124 2.887 6.33739 0
M  V30 718 H 64.9394 3.44596 6.77612 0
M  V30 719 N 66.5145 -1.57545 0.0417849 0
M  V30 720 C 67.4615 -2.10977 -0.935805 0
M  V30 721 C 68.4315 -1.01486 -1.31491 0
M  V30 722 O 69.6165 -1.2898 -1.40602 0
M  V30 723 C 66.7565 -2.65169 -2.2086 0
M  V30 724 C 65.8695 -3.88714 -1.88482 0
M  V30 725 C 65.0045 -4.31254 -3.1015 0
M  V30 726 C 64.0435 -5.47524 -2.7365 0
M  V30 727 N 63.1805 -5.85162 -3.87982 0
M  V30 728 H 68.0205 -2.94218 -0.473249 0
M  V30 729 H 65.5575 -1.45415 -0.221981 0
M  V30 730 H 67.5155 -2.94685 -2.95325 0
M  V30 731 H 66.1455 -1.8474 -2.64709 0
M  V30 732 H 65.1975 -3.65849 -1.04205 0
M  V30 733 H 66.5095 -4.73245 -1.57608 0
M  V30 734 H 65.6635 -4.62273 -3.92923 0
M  V30 735 H 64.4025 -3.45516 -3.44195 0
M  V30 736 H 63.4075 -5.16187 -1.89291 0
M  V30 737 H 64.6325 -6.34971 -2.40807 0
M  V30 738 H 62.5785 -5.02377 -4.21846 0
M  V30 739 H 62.4955 -6.64362 -3.60775 0
M  V30 740 H 63.7635 -6.20791 -4.71422 0
M  V30 741 N 67.9926 0.231505 -1.5589 0
M  V30 742 C 69.2326 0.964533 -1.80211 0
M  V30 743 C 69.5966 1.81926 -0.613744 0
M  V30 744 O 70.7976 2.58526 -0.736045 0
M  V30 745 C 69.0686 1.78956 -3.09369 0
M  V30 746 S 70.6276 2.57959 -3.54969 0
M  V30 747 H 67.4456 0.324173 -0.632798 0
M  V30 748 H 70.0476 0.230985 -1.94131 0
M  V30 749 H 68.7516 1.15161 -3.93911 0
M  V30 750 H 68.2826 2.56559 -2.9823 0
M  V30 751 H 70.2976 3.81309 -3.17519 0
M  V30 752 N 69.4707 1.49531 0.497807 0
M  V30 753 C 70.7167 1.59415 1.25358 0
M  V30 754 C 71.0497 0.281422 1.9215 0
M  V30 755 O 70.3247 -0.715249 1.80871 0
M  V30 756 C 70.6077 2.75566 2.3181 0
M  V30 757 C 70.4607 4.16642 1.69498 0
M  V30 758 C 71.7797 2.87347 3.33346 0
M  V30 759 H 68.8987 0.580244 0.454408 0
M  V30 760 H 71.5407 1.81827 0.551262 0
M  V30 761 H 69.6907 2.56587 2.91711 0
M  V30 762 H 71.3627 4.47145 1.13399 0
M  V30 763 H 69.6057 4.22141 0.998978 0
M  V30 764 H 70.2767 4.93792 2.46725 0
M  V30 765 H 72.7527 3.04634 2.83438 0
M  V30 766 H 71.6287 3.70289 4.05188 0
M  V30 767 H 71.8897 1.96834 3.95865 0
M  V30 768 N 70.9488 -0.749086 1.3866 0
M  V30 769 C 71.8808 -1.87273 1.32142 0
M  V30 770 C 72.8938 -1.61127 0.232787 0
M  V30 771 O 74.0828 -1.71623 0.49069 0
M  V30 772 C 71.1828 -3.23005 1.02571 0
M  V30 773 C 70.3558 -3.7662 2.22433 0
M  V30 774 C 69.4148 -4.90879 1.89537 0
M  V30 775 O 68.4408 -5.05276 2.62078 0
M  V30 776 N 69.6428 -5.74198 0.853031 0
M  V30 777 H 72.4078 -1.93373 2.28969 0
M  V30 778 H 69.9688 -0.929216 1.32579 0
M  V30 779 H 71.9608 -3.96992 0.786085 0
M  V30 780 H 70.5308 -3.12262 0.145249 0
M  V30 781 H 69.7508 -2.94147 2.62434 0
M  V30 782 H 71.0388 -4.09173 3.02415 0
M  V30 783 H 70.4368 -5.6514 0.25155 0
M  V30 784 H 68.9938 -6.48313 0.67329 0
M  V30 785 N 72.4269 -1.23603 -0.977757 0
M  V30 786 C 73.3739 -1.01954 -2.07061 0
M  V30 787 C 74.3439 0.0638697 -1.65977 0
M  V30 788 O 75.5289 -0.0887624 -1.90593 0
M  V30 789 C 72.6689 -0.619658 -3.39491 0
M  V30 790 C 71.7819 -1.77547 -3.93829 0
M  V30 791 C 70.9169 -1.32212 -5.14484 0
M  V30 792 C 69.9559 -2.44852 -5.60994 0
M  V30 793 N 69.0929 -2.00456 -6.72876 0
M  V30 794 H 73.9329 -1.95495 -2.24913 0
M  V30 795 H 71.4699 -0.973861 -1.10247 0
M  V30 796 H 73.4279 -0.368898 -4.15566 0
M  V30 797 H 72.0579 0.278752 -3.21594 0
M  V30 798 H 71.1099 -2.14016 -3.14486 0
M  V30 799 H 72.4219 -2.62219 -4.24314 0
M  V30 800 H 71.5759 -1.02965 -5.97899 0
M  V30 801 H 70.3149 -0.445808 -4.85658 0
M  V30 802 H 69.3199 -2.74871 -4.76157 0
M  V30 803 H 70.5449 -3.33024 -5.91837 0
M  V30 804 H 68.4909 -1.15208 -6.45804 0
M  V30 805 H 68.4079 -2.78687 -7.02759 0
M  V30 806 H 69.6759 -1.7432 -7.59758 0
M  V30 807 N 73.905 1.17692 -1.04816 0
M  V30 808 C 74.815 2.25229 -0.65643 0
M  V30 809 C 75.831 1.71018 0.320761 0
M  V30 810 O 77.007 2.00649 0.173805 0
M  V30 811 C 74.072 3.46684 -0.0332629 0
M  V30 812 C 73.133 4.15997 -1.06042 0
M  V30 813 C 72.366 5.31654 -0.466893 0
M  V30 814 O 72.589 5.65777 0.724758 0
M  V30 815 O 71.523 5.89831 -1.1993 0
M  V30 816 H 75.349 2.61016 -1.55255 0
M  V30 817 H 72.934 1.24919 -0.81949 0
M  V30 818 H 74.816 4.20234 0.313256 0
M  V30 819 H 73.491 3.12703 0.836566 0
M  V30 820 H 72.398 3.44482 -1.45886 0
M  V30 821 H 73.731 4.53996 -1.90127 0
M  V30 822 N 75.3831 0.828654 1.34056 0
M  V30 823 C 76.6291 0.42008 1.98402 0
M  V30 824 C 76.9621 -1.01564 1.65525 0
M  V30 825 O 76.2371 -1.70834 0.929831 0
M  V30 826 C 76.5201 0.62927 3.54559 0
M  V30 827 C 76.3731 2.11152 3.97159 0
M  V30 828 C 77.6921 0.0688756 4.40046 0
M  V30 829 H 74.8111 0.154104 0.720709 0
M  V30 830 H 77.4531 1.04228 1.5886 0
M  V30 831 H 75.6031 0.0996418 3.88372 0
M  V30 832 H 77.2751 2.70522 3.73651 0
M  V30 833 H 75.5181 2.59985 3.47261 0
M  V30 834 H 76.1891 2.20868 5.05887 0
M  V30 835 H 78.6651 0.521458 4.1282 0
M  V30 836 H 77.5411 0.245006 5.48353 0
M  V30 837 H 77.8021 -1.0266 4.30015 0
M  V30 838 N 76.8612 -1.46375 0.584142 0
M  V30 839 C 77.7912 -2.33103 -0.136037 0
M  V30 840 C 78.7722 -1.45431 -0.882255 0
M  V30 841 O 79.9572 -1.74246 -0.857434 0
M  V30 842 C 77.0872 -3.27731 -1.14933 0
M  V30 843 C 76.0412 -4.24855 -0.517862 0
M  V30 844 C 75.3672 -5.09001 -1.63773 0
M  V30 845 C 76.6672 -5.19439 0.545886 0
M  V30 846 H 78.3612 -2.93568 0.588086 0
M  V30 847 H 75.9072 -1.41166 0.284259 0
M  V30 848 H 77.8602 -3.87261 -1.66153 0
M  V30 849 H 76.5842 -2.65377 -1.90375 0
M  V30 850 H 75.2432 -3.6659 -0.0267361 0
M  V30 851 H 74.8912 -4.43031 -2.38185 0
M  V30 852 H 74.5912 -5.74777 -1.22085 0
M  V30 853 H 76.1152 -5.71396 -2.15266 0
M  V30 854 H 77.5292 -5.73177 0.118704 0
M  V30 855 H 75.9262 -5.93566 0.88317 0
M  V30 856 H 76.9962 -4.63285 1.43162 0
M  V30 857 N 78.3393 -0.321999 -1.54275 0
M  V30 858 C 79.7503 0.166384 -1.85957 0
M  V30 859 C 80.1013 1.51747 -1.24367 0
M  V30 860 O 79.2263 2.09317 -0.549124 0
M  V30 861 C 79.8213 0.308681 -3.37391 0
M  V30 862 C 78.3803 0.741286 -3.69028 0
M  V30 863 C 77.5273 -0.137937 -2.76957 0
M  V30 864 H 80.4783 -0.542335 -1.49146 0
M  V30 865 H 80.4993 1.13984 -3.63026 0
M  V30 866 H 80.0113 -0.674809 -3.82188 0
M  V30 867 H 78.1123 1.73458 -3.29762 0
M  V30 868 H 78.2253 0.546118 -4.75977 0
M  V30 869 H 76.5893 0.386251 -2.51754 0
M  V30 870 H 77.3723 -1.11816 -3.2458 0
M  V30 871 N 79.8174 1.5752 -0.0501392 0
M  V30 872 C 81.0424 1.97376 0.636997 0
M  V30 873 C 81.4674 0.927466 1.63645 0
M  V30 874 O 80.8254 -0.10941 1.8097 0
M  V30 875 C 80.8734 3.36304 1.30123 0
M  V30 876 O 79.9774 3.34156 2.41689 0
M  V30 877 H 79.3184 0.642998 0.165679 0
M  V30 878 H 81.8484 2.04258 -0.118233 0
M  V30 879 H 81.8584 3.73008 1.65315 0
M  V30 880 H 80.5334 4.11993 0.568746 0
M  V30 881 H 79.1104 3.09196 2.08451 0
M  V30 882 N 81.2955 -0.223234 1.56011 0
M  V30 883 C 82.2285 -1.30377 1.87289 0
M  V30 884 C 83.2065 -1.45286 0.730112 0
M  V30 885 O 84.3905 -1.61126 0.978302 0
M  V30 886 C 81.5175 -2.67431 2.07843 0
M  V30 887 C 80.5635 -2.69546 3.30526 0
M  V30 888 S 81.3965 -2.23781 4.865 0
M  V30 889 C 82.5525 -3.62714 5.10088 0
M  V30 890 H 82.7855 -1.03652 2.78646 0
M  V30 891 H 80.3185 -0.425393 1.48424 0
M  V30 892 H 82.2765 -3.46336 2.20368 0
M  V30 893 H 80.9375 -2.91381 1.17285 0
M  V30 894 H 80.1305 -3.70255 3.41947 0
M  V30 895 H 79.7325 -1.98703 3.16849 0
M  V30 896 H 82.0245 -4.58391 4.98883 0
M  V30 897 H 82.9675 -3.5621 6.11981 0
M  V30 898 H 83.3755 -3.56323 4.37829 0
M  V30 899 N 82.7736 -1.49793 -0.48987 0
M  V30 900 C 84.1896 -1.36803 -0.822022 0
M  V30 901 C 84.3896 -0.409652 -1.97292 0
M  V30 902 O 83.4456 0.154614 -2.52026 0
M  V30 903 C 84.7586 -2.77768 -1.15175 0
M  V30 904 C 86.3066 -2.86549 -1.25931 0
M  V30 905 C 86.7816 -4.28306 -1.62228 0
M  V30 906 N 88.2726 -4.31169 -1.69256 0
M  V30 907 C 89.0076 -5.37832 -1.98807 0
M  V30 908 N 88.5036 -6.54726 -2.26507 0
M  V30 909 N 90.2966 -5.25258 -2.00152 0
M  V30 910 H 82.4476 -2.10691 0.268881 0
M  V30 911 H 84.7106 -0.946241 0.057728 0
M  V30 912 H 84.4166 -3.49648 -0.379335 0
M  V30 913 H 84.2906 -3.13836 -2.09253 0
M  V30 914 H 86.6776 -2.14899 -2.02243 0
M  V30 915 H 86.7586 -2.54049 -0.298776 0
M  V30 916 H 86.4026 -5.00486 -0.864622 0
M  V30 917 H 86.3326 -4.58279 -2.594 0
M  V30 918 H 88.8236 -3.4687 -1.49965 0
M  V30 919 H 89.1366 -7.31833 -2.48276 0
M  V30 920 H 87.4816 -6.57933 -2.23939 0
M  V30 921 H 90.6726 -4.32938 -1.77996 0
M  V30 922 H 90.8456 -6.08476 -2.22848 0
M  V30 923 N 84.2517 0.741722 -1.39055 0
M  V30 924 C 85.1987 1.85566 -1.37237 0
M  V30 925 C 86.1687 1.64457 -0.233072 0
M  V30 926 O 87.3537 1.85957 -0.427147 0
M  V30 927 C 84.4937 3.23004 -1.215 0
M  V30 928 C 83.6067 3.55864 -2.44918 0
M  V30 929 C 82.7417 4.82669 -2.21821 0
M  V30 930 C 81.7807 5.08351 -3.40948 0
M  V30 931 N 80.9177 6.26356 -3.17211 0
M  V30 932 H 85.7577 1.86455 -2.32462 0
M  V30 933 H 83.2947 0.911176 -1.15482 0
M  V30 934 H 85.2527 4.02331 -1.10389 0
M  V30 935 H 83.8827 3.21411 -0.29908 0
M  V30 936 H 82.9347 2.7129 -2.66657 0
M  V30 937 H 84.2467 3.70765 -3.33668 0
M  V30 938 H 83.4007 5.69962 -2.07914 0
M  V30 939 H 82.1397 4.69929 -1.30454 0
M  V30 940 H 81.1447 4.19522 -3.55361 0
M  V30 941 H 82.3697 5.22981 -4.33207 0
M  V30 942 H 80.3157 6.14917 -2.28502 0
M  V30 943 H 80.2327 6.41813 -3.99515 0
M  V30 944 H 81.5007 7.16506 -3.06984 0
M  V30 945 N 85.7298 1.2412 0.971189 0
M  V30 946 C 86.9788 1.07284 1.70801 0
M  V30 947 C 87.2918 -0.388902 1.91695 0
M  V30 948 O 88.4978 -0.677379 2.62914 0
M  V30 949 C 86.9538 1.87145 3.07416 0
M  V30 950 C 86.5618 3.37707 2.94377 0
M  V30 951 C 88.3058 1.78828 3.84995 0
M  V30 952 C 86.2128 4.09925 4.26281 0
M  V30 953 H 85.1428 0.397854 0.64049 0
M  V30 954 H 87.7938 1.4817 1.0825 0
M  V30 955 H 86.1758 1.39071 3.70777 0
M  V30 956 H 87.3498 3.93335 2.4005 0
M  V30 957 H 85.6648 3.46938 2.30267 0
M  V30 958 H 88.2618 2.30089 4.82662 0
M  V30 959 H 88.6048 0.75284 4.09436 0
M  V30 960 H 89.1378 2.24563 3.28354 0
M  V30 961 H 85.8768 5.13813 4.07033 0
M  V30 962 H 85.3968 3.59083 4.80437 0
M  V30 963 H 87.0758 4.1673 4.94919 0
M  V30 964 N 87.2079 -1.17134 1.05439 0
M  V30 965 C 88.4539 -1.87733 0.767077 0
M  V30 966 C 88.7869 -1.8098 -0.704253 0
M  V30 967 O 88.0619 -1.21951 -1.5152 0
M  V30 968 C 88.3449 -3.37659 1.25133 0
M  V30 969 C 88.1979 -3.53149 2.78578 0
M  V30 970 C 89.5169 -4.31768 0.852324 0
M  V30 971 H 86.6359 -0.681687 0.280129 0
M  V30 972 H 89.2779 -1.37732 1.30881 0
M  V30 973 H 87.4279 -3.80373 0.790469 0
M  V30 974 H 89.0999 -3.19434 3.32806 0
M  V30 975 H 87.3429 -2.95345 3.17732 0
M  V30 976 H 88.0139 -4.58403 3.07523 0
M  V30 977 H 90.4899 -3.96909 1.24911 0
M  V30 978 H 89.3659 -5.35199 1.21873 0
M  V30 979 H 89.6269 -4.41429 -0.243485 0
M  V30 980 N 88.686 -0.835752 -1.33615 0
M  V30 981 C 89.649 -0.272 -2.2758 0
M  V30 982 C 90.649 0.557487 -1.50827 0
M  V30 983 O 91.839 0.37173 -1.70188 0
M  V30 984 C 88.971 0.617173 -3.35267 0
M  V30 985 H 90.164 -1.10111 -2.78954 0
M  V30 986 H 87.717 -0.608594 -1.43965 0
M  V30 987 H 88.452 1.46884 -2.89129 0
M  V30 988 H 88.237 0.0237066 -3.92093 0
M  V30 989 H 89.727 1.005 -4.05326 0
M  V30 990 N 90.1641 1.46063 -0.591896 0
M  V30 991 C 91.3921 2.06717 -0.0868936 0
M  V30 992 C 91.8071 1.43916 1.22203 0
M  V30 993 O 91.1641 0.547698 1.74088 0
M  V30 994 C 91.2151 3.6142 0.0758725 0
M  V30 995 O 90.9361 4.21874 -1.18126 0
M  V30 996 C 92.4371 4.39025 0.61416 0
M  V30 997 H 89.6571 0.668162 -0.0616518 0
M  V30 998 H 92.2011 1.8755 -0.815175 0
M  V30 999 H 90.3561 3.79983 0.754413 0
M  V30 1000 H 90.7701 5.14861 -1.00092 0
M  V30 1001 H 92.2441 5.4783 0.677193 0
M  V30 1002 H 92.7211 4.07708 1.63312 0
M  V30 1003 H 93.3271 4.2529 -0.0298142 0
M  V30 1004 N 91.6422 0.330177 1.54103 0
M  V30 1005 C 92.8882 -0.263542 2.01685 0
M  V30 1006 C 93.2432 -1.49258 1.21408 0
M  V30 1007 O 92.5362 -1.89395 0.289852 0
M  V30 1008 C 92.7302 -0.643134 3.51566 0
M  V30 1009 C 92.5592 0.547571 4.46354 0
M  V30 1010 C 91.3292 1.04873 4.94297 0
M  V30 1011 C 93.5272 1.40184 4.94826 0
M  V30 1012 N 91.5092 2.20316 5.73005 0
M  V30 1013 C 92.8802 2.40335 5.71524 0
M  V30 1014 C 94.9352 1.42884 4.76958 0
M  V30 1015 C 93.6382 3.42998 6.32254 0
M  V30 1016 C 95.6642 2.44421 5.38528 0
M  V30 1017 C 95.0262 3.43298 6.15082 0
M  V30 1018 H 91.1252 -0.0601026 0.779687 0
M  V30 1019 H 93.7092 0.466714 1.89023 0
M  V30 1020 H 91.8802 -1.34251 3.6446 0
M  V30 1021 H 93.6122 -1.21889 3.85908 0
M  V30 1022 H 90.3672 0.618956 4.69538 0
M  V30 1023 H 90.7912 2.78565 6.17034 0
M  V30 1024 H 95.4332 0.678049 4.17328 0
M  V30 1025 H 93.1512 4.1898 6.91 0
M  V30 1026 H 96.7372 2.4732 5.26616 0
M  V30 1027 H 95.6172 4.20579 6.61878 0
M  V30 1028 N 93.1203 -1.57491 0.0584922 0
M  V30 1029 C 94.0533 -2.07533 -0.948969 0
M  V30 1030 C 95.0313 -0.977444 -1.29942 0
M  V30 1031 O 96.2153 -1.2499 -1.41102 0
M  V30 1032 C 93.3423 -2.52192 -2.2609 0
M  V30 1033 C 92.3883 -3.73287 -2.06298 0
M  V30 1034 S 93.2213 -5.18603 -1.33459 0
M  V30 1035 C 94.3773 -5.66583 -2.65959 0
M  V30 1036 H 94.6103 -2.92662 -0.523118 0
M  V30 1037 H 92.1433 -1.53631 -0.153954 0
M  V30 1038 H 94.1013 -2.78585 -3.01498 0
M  V30 1039 H 92.7623 -1.67356 -2.65802 0
M  V30 1040 H 91.9553 -4.0248 -3.03357 0
M  V30 1041 H 91.5573 -3.47199 -1.39029 0
M  V30 1042 H 93.8493 -5.72616 -3.62101 0
M  V30 1043 H 94.7923 -6.65684 -2.41393 0
M  V30 1044 H 95.2003 -4.94342 -2.72554 0
M  V30 1045 N 94.5984 0.214957 -1.56127 0
M  V30 1046 C 95.5284 1.2695 -1.95974 0
M  V30 1047 C 96.5094 1.48539 -0.828868 0
M  V30 1048 O 97.6944 1.60611 -1.09168 0
M  V30 1049 C 94.8244 2.61794 -2.28214 0
M  V30 1050 C 93.7784 2.54851 -3.43853 0
M  V30 1051 C 93.1044 3.93785 -3.61715 0
M  V30 1052 C 94.4044 2.09065 -4.78632 0
M  V30 1053 H 96.0984 0.93846 -2.84312 0
M  V30 1054 H 93.6444 0.449996 -1.36788 0
M  V30 1055 H 95.5974 3.35731 -2.54682 0
M  V30 1056 H 94.3214 2.96599 -1.36736 0
M  V30 1057 H 92.9804 1.8337 -3.17444 0
M  V30 1058 H 92.6284 4.25908 -2.67602 0
M  V30 1059 H 92.3284 3.90019 -4.39498 0
M  V30 1060 H 93.8524 4.69374 -3.90539 0
M  V30 1061 H 95.2664 2.7275 -5.04262 0
M  V30 1062 H 93.6634 2.16346 -5.59745 0
M  V30 1063 H 94.7334 1.04315 -4.73547 0
M  V30 1064 N 96.0765 1.50051 0.48192 0
M  V30 1065 C 96.9865 1.7089 1.60728 0
M  V30 1066 C 98.0025 0.591788 1.63627 0
M  V30 1067 O 99.1785 0.868817 1.81696 0
M  V30 1068 C 96.2435 1.78855 2.97005 0
M  V30 1069 C 95.3045 3.02537 3.04581 0
M  V30 1070 C 94.5375 3.10112 4.34357 0
M  V30 1071 O 94.7605 2.24765 5.24249 0
M  V30 1072 O 93.6945 4.02747 4.47301 0
M  V30 1073 H 97.5205 2.66264 1.46072 0
M  V30 1074 H 95.1055 1.34018 0.660264 0
M  V30 1075 H 96.9875 1.86336 3.77964 0
M  V30 1076 H 95.6625 0.866628 3.11883 0
M  V30 1077 H 94.5695 3.00563 2.22739 0
M  V30 1078 H 95.9025 3.94272 2.94636 0
M  V30 1079 N 97.5546 -0.734337 1.39446 0
M  V30 1080 C 98.8006 -1.49613 1.36908 0
M  V30 1081 C 99.1336 -1.94169 -0.0347829 0
M  V30 1082 O 98.4086 -1.66833 -0.999847 0
M  V30 1083 C 98.6916 -2.73534 2.34203 0
M  V30 1084 C 98.5446 -2.34993 3.83534 0
M  V30 1085 C 99.8636 -3.75635 2.29317 0
M  V30 1086 H 96.9826 -0.542714 0.498629 0
M  V30 1087 H 99.6246 -0.839597 1.70443 0
M  V30 1088 H 97.7746 -3.29553 2.05736 0
M  V30 1089 H 99.4466 -1.84601 4.22753 0
M  V30 1090 H 97.6896 -1.67213 4.00278 0
M  V30 1091 H 98.3606 -3.23738 4.47099 0
M  V30 1092 H 100.837 -3.29203 2.54489 0
M  V30 1093 H 99.7126 -4.60008 2.99472 0
M  V30 1094 H 99.9736 -4.22603 1.29842 0
M  V30 1095 N 99.0327 -1.24633 -0.964593 0
M  V30 1096 C 100.273 -1.09981 -1.72289 0
M  V30 1097 C 100.637 0.354792 -1.88693 0
M  V30 1098 O 101.838 0.62289 -2.61483 0
M  V30 1099 C 100.109 -1.82262 -3.07434 0
M  V30 1100 S 101.668 -1.83379 -3.98645 0
M  V30 1101 H 98.4857 -0.393292 -0.59232 0
M  V30 1102 H 101.088 -1.58009 -1.15123 0
M  V30 1103 H 99.7917 -2.87206 -2.93157 0
M  V30 1104 H 99.3227 -1.3458 -3.69664 0
M  V30 1105 H 101.338 -0.903691 -4.87901 0
M  V30 1106 N 100.511 1.16574 -1.06058 0
M  V30 1107 C 101.421 2.2452 -0.680282 0
M  V30 1108 C 102.437 1.71348 0.302604 0
M  V30 1109 O 103.613 2.00822 0.152513 0
M  V30 1110 C 100.678 3.46629 -0.0700315 0
M  V30 1111 C 99.7388 4.14849 -1.10448 0
M  V30 1112 C 98.9718 5.31129 -0.523256 0
M  V30 1113 O 99.1948 5.66514 0.664709 0
M  V30 1114 O 98.1288 5.88526 -1.26179 0
M  V30 1115 H 101.955 2.59355 -1.58015 0
M  V30 1116 H 99.5398 1.24043 -0.832694 0
M  V30 1117 H 101.422 4.20543 0.268667 0
M  V30 1118 H 100.097 3.13573 0.803353 0
M  V30 1119 H 99.0038 3.42916 -1.49532 0
M  V30 1120 H 100.337 4.51954 -1.94931 0
M  V30 1121 N 101.989 0.842826 1.3317 0
M  V30 1122 C 102.899 0.281444 2.32906 0
M  V30 1123 C 103.915 -0.594587 1.63526 0
M  V30 1124 O 105.091 -0.49777 1.95152 0
M  V30 1125 C 102.156 -0.530929 3.42611 0
M  V30 1126 C 101.217 0.369843 4.27704 0
M  V30 1127 C 100.45 -0.403853 5.3217 0
M  V30 1128 O 100.673 -1.63513 5.46461 0
M  V30 1129 O 99.6069 0.224199 6.01482 0
M  V30 1130 H 103.433 1.10744 2.82789 0
M  V30 1131 H 101.018 0.60545 1.36582 0
M  V30 1132 H 102.9 -0.992437 4.09547 0
M  V30 1133 H 101.575 -1.33392 2.94938 0
M  V30 1134 H 100.482 0.879275 3.6362 0
M  V30 1135 H 101.815 1.13771 4.78871 0
M  V30 1136 N 103.467 -1.45747 0.599634 0
M  V30 1137 C 104.399 -2.28628 -0.161879 0
M  V30 1138 C 105.412 -1.39494 -0.839367 0
M  V30 1139 O 106.601 -1.63941 -0.706089 0
M  V30 1140 C 103.701 -3.15014 -1.24976 0
M  V30 1141 C 102.874 -4.32378 -0.660935 0
M  V30 1142 C 101.933 -5.00033 -1.63869 0
M  V30 1143 O 100.959 -5.57085 -1.1681 0
M  V30 1144 N 102.161 -4.98589 -2.97303 0
M  V30 1145 H 104.926 -2.94624 0.549265 0
M  V30 1146 H 102.487 -1.55847 0.438565 0
M  V30 1147 H 104.479 -3.5714 -1.9035 0
M  V30 1148 H 103.049 -2.5098 -1.86354 0
M  V30 1149 H 102.269 -3.9383 0.170688 0
M  V30 1150 H 103.557 -5.08197 -0.247619 0
M  V30 1151 H 102.955 -4.53514 -3.38145 0
M  V30 1152 H 101.512 -5.44603 -3.58121 0
M  V30 1153 N 104.945 -0.338344 -1.53925 0
M  V30 1154 C 105.892 0.520845 -2.24846 0
M  V30 1155 C 106.862 1.09976 -1.24477 0
M  V30 1156 O 108.047 1.13735 -1.53196 0
M  V30 1157 C 105.187 1.6685 -3.02084 0
M  V30 1158 C 104.3 1.11739 -4.17299 0
M  V30 1159 C 103.435 2.23193 -4.82036 0
M  V30 1160 C 102.474 1.65407 -5.89328 0
M  V30 1161 N 101.611 2.70582 -6.47866 0
M  V30 1162 H 106.451 -0.0904881 -2.97863 0
M  V30 1163 H 103.988 -0.0564282 -1.46992 0
M  V30 1164 H 105.946 2.34407 -3.45122 0
M  V30 1165 H 104.576 2.2509 -2.31375 0
M  V30 1166 H 103.628 0.332919 -3.7894 0
M  V30 1167 H 104.94 0.654677 -4.94485 0
M  V30 1168 H 104.094 2.98626 -5.28117 0
M  V30 1169 H 102.833 2.72807 -4.04262 0
M  V30 1170 H 101.838 0.884779 -5.42634 0
M  V30 1171 H 103.063 1.16652 -6.69006 0
M  V30 1172 H 101.009 3.1946 -5.72959 0
M  V30 1173 H 100.926 2.28917 -7.20509 0
M  V30 1174 H 102.194 3.45799 -6.98601 0
M  V30 1175 N 106.423 1.57458 -0.0668435 0
M  V30 1176 C 107.663 1.95175 0.607116 0
M  V30 1177 C 108.027 0.946039 1.67075 0
M  V30 1178 O 109.228 1.2107 2.39991 0
M  V30 1179 C 107.499 3.37582 1.17358 0
M  V30 1180 S 109.058 3.97271 1.86336 0
M  V30 1181 H 105.876 0.682604 0.19893 0
M  V30 1182 H 108.478 1.95002 -0.139519 0
M  V30 1183 H 107.182 4.08566 0.387553 0
M  V30 1184 H 106.713 3.41288 1.95669 0
M  V30 1185 H 108.728 3.83772 3.14537 0
M  V30 1186 N 107.901 -0.206675 1.56239 0
M  V30 1187 C 108.811 -1.27686 1.96808 0
M  V30 1188 C 109.827 -1.50455 0.874035 0
M  V30 1189 O 111.003 -1.63295 1.17884 0
M  V30 1190 C 108.068 -2.60358 2.28942 0
M  V30 1191 C 107.129 -2.45762 3.51994 0
M  V30 1192 C 106.362 -3.72108 3.82585 0
M  V30 1193 O 106.585 -4.75776 3.14631 0
M  V30 1194 O 105.519 -3.6833 4.76043 0
M  V30 1195 H 109.345 -0.962593 2.88041 0
M  V30 1196 H 106.93 -0.410746 1.43643 0
M  V30 1197 H 108.812 -3.38687 2.50737 0
M  V30 1198 H 107.487 -2.91435 1.4088 0
M  V30 1199 H 106.394 -1.65584 3.35459 0
M  V30 1200 H 107.727 -2.19621 4.40486 0
M  V30 1201 N 109.379 -1.50304 -0.473955 0
M  V30 1202 C 110.289 -1.7174 -1.5982 0
M  V30 1203 C 111.305 -0.600457 -1.63311 0
M  V30 1204 O 112.481 -0.878441 -1.81233 0
M  V30 1205 C 109.546 -1.80427 -2.96052 0
M  V30 1206 C 108.607 -3.04148 -3.02972 0
M  V30 1207 C 107.84 -3.12411 -4.32706 0
M  V30 1208 O 108.063 -2.27542 -5.23049 0
M  V30 1209 O 106.997 -4.05113 -4.45159 0
M  V30 1210 H 110.823 -2.67035 -1.44657 0
M  V30 1211 H 108.408 -1.34366 -0.653148 0
M  V30 1212 H 110.29 -1.88338 -3.7697 0
M  V30 1213 H 108.965 -0.883156 -3.11419 0
M  V30 1214 H 107.872 -3.0174 -2.21142 0
M  V30 1215 H 109.205 -3.95829 -2.92541 0
M  V30 1216 N 110.857 0.726932 -1.39834 0
M  V30 1217 C 111.767 1.87131 -1.41489 0
M  V30 1218 C 112.783 1.71239 -0.308757 0
M  V30 1219 O 113.959 1.93701 -0.551529 0
M  V30 1220 C 111.024 3.22811 -1.26468 0
M  V30 1221 C 110.085 3.51039 -2.47124 0
M  V30 1222 C 109.318 4.80245 -2.3281 0
M  V30 1223 O 109.541 5.54537 -1.33585 0
M  V30 1224 O 108.475 5.08554 -3.21957 0
M  V30 1225 H 112.301 1.8869 -2.3797 0
M  V30 1226 H 109.886 0.875837 -1.21035 0
M  V30 1227 H 111.768 4.03877 -1.20255 0
M  V30 1228 H 110.443 3.22005 -0.330862 0
M  V30 1229 H 109.35 2.70027 -2.58914 0
M  V30 1230 H 110.683 3.56632 -3.39227 0
M  V30 1231 N 112.336 1.25143 0.95797 0
M  V30 1232 C 113.582 1.09855 1.70469 0
M  V30 1233 C 113.915 -0.360187 1.90831 0
M  V30 1234 O 113.19 -1.26568 1.47685 0
M  V30 1235 C 113.473 1.8497 3.08963 0
M  V30 1236 C 113.326 3.38652 2.96032 0
M  V30 1237 C 114.645 1.63016 4.08795 0
M  V30 1238 H 111.764 0.400465 0.618706 0
M  V30 1239 H 114.406 1.53933 1.11376 0
M  V30 1240 H 112.556 1.47505 3.59409 0
M  V30 1241 H 114.228 3.85772 2.52938 0
M  V30 1242 H 112.471 3.66534 2.32025 0
M  V30 1243 H 113.142 3.8642 3.94187 0
M  V30 1244 H 115.618 1.95625 3.67247 0
M  V30 1245 H 114.494 2.18015 5.03747 0
M  V30 1246 H 114.755 0.570692 4.38401 0
M  V30 1247 N 113.814 -1.1601 1.06675 0
M  V30 1248 C 115.061 -1.86633 0.785781 0
M  V30 1249 C 115.389 -1.81929 -0.687896 0
M  V30 1250 O 114.644 -1.23253 -1.52011 0
M  V30 1251 C 114.943 -3.35547 1.23057 0
M  V30 1252 C 114.609 -3.60448 2.70902 0
M  V30 1253 C 113.271 -3.66954 3.11285 0
M  V30 1254 C 115.623 -3.7071 3.66365 0
M  V30 1255 C 112.951 -3.81225 4.45965 0
M  V30 1256 C 115.303 -3.86503 5.00797 0
M  V30 1257 C 113.967 -3.91252 5.40813 0
M  V30 1258 H 113.237 -0.682937 0.287538 0
M  V30 1259 H 115.884 -1.37146 1.33654 0
M  V30 1260 H 114.189 -3.87193 0.59907 0
M  V30 1261 H 115.886 -3.88583 0.990163 0
M  V30 1262 H 112.476 -3.56021 2.38636 0
M  V30 1263 H 116.66 -3.64991 3.36296 0
M  V30 1264 H 111.916 -3.83155 4.76447 0
M  V30 1265 H 116.09 -3.93385 5.74649 0
M  V30 1266 H 113.717 -4.02062 6.45174 0
M  V30 1267 N 115.292 -0.849877 -1.32721 0
M  V30 1268 C 116.703 -0.506188 -1.79707 0
M  V30 1269 C 117.054 0.975627 -1.70223 0
M  V30 1270 O 116.179 1.76078 -1.25799 0
M  V30 1271 C 116.774 -0.912044 -3.26293 0
M  V30 1272 C 115.333 -0.620326 -3.71253 0
M  V30 1273 C 114.48 -1.11439 -2.53922 0
M  V30 1274 H 117.431 -1.03754 -1.20087 0
M  V30 1275 H 117.452 -0.226493 -3.79825 0
M  V30 1276 H 116.964 -1.99057 -3.33164 0
M  V30 1277 H 115.065 0.447674 -3.69901 0
M  V30 1278 H 115.178 -1.18327 -4.64258 0
M  V30 1279 H 113.542 -0.534834 -2.49021 0
M  V30 1280 H 114.325 -2.19992 -2.6355 0
M  V30 1281 N 116.77 1.45427 -0.607355 0
M  V30 1282 C 117.7 2.3329 0.0989352 0
M  V30 1283 C 118.681 1.46816 0.859007 0
M  V30 1284 O 119.866 1.75588 0.829604 0
M  V30 1285 C 116.996 3.29518 1.09705 0
M  V30 1286 C 115.95 4.25626 0.450206 0
M  V30 1287 C 115.276 5.11542 1.55655 0
M  V30 1288 C 116.576 5.18505 -0.628455 0
M  V30 1289 H 118.27 2.92595 -0.634716 0
M  V30 1290 H 115.816 1.40696 -0.306681 0
M  V30 1291 H 117.769 3.89855 1.59971 0
M  V30 1292 H 116.493 2.68372 1.86129 0
M  V30 1293 H 115.152 3.66586 -0.0315886 0
M  V30 1294 H 114.8 4.46765 2.31107 0
M  V30 1295 H 114.5 5.76647 1.12925 0
M  V30 1296 H 116.024 5.74748 2.06148 0
M  V30 1297 H 117.438 5.72916 -0.209877 0
M  V30 1298 H 115.835 5.92085 -0.977489 0
M  V30 1299 H 116.905 4.60948 -1.50514 0
M  V30 1300 N 118.248 0.346503 1.53744 0
M  V30 1301 C 119.211 -0.496439 2.23759 0
M  V30 1302 C 120.211 -1.0252 1.2388 0
M  V30 1303 O 121.401 -0.913974 1.48297 0
M  V30 1304 C 118.533 -1.69187 2.95954 0
M  V30 1305 H 119.726 0.115952 2.99676 0
M  V30 1306 H 117.279 0.0978939 1.55993 0
M  V30 1307 H 118.014 -2.34288 2.24231 0
M  V30 1308 H 117.799 -1.31989 3.69217 0
M  V30 1309 H 119.289 -2.28969 3.49232 0
M  V30 1310 N 119.726 -1.57421 0.075193 0
M  V30 1311 C 120.659 -2.08528 -0.926904 0
M  V30 1312 C 121.637 -0.991171 -1.28898 0
M  V30 1313 O 122.821 -1.26479 -1.39769 0
M  V30 1314 C 119.948 -2.54576 -2.23402 0
M  V30 1315 C 118.994 -3.75454 -2.02327 0
M  V30 1316 S 119.827 -5.19989 -1.27951 0
M  V30 1317 C 120.983 -5.69372 -2.59935 0
M  V30 1318 H 121.216 -2.932 -0.492048 0
M  V30 1319 H 118.749 -1.53785 -0.137651 0
M  V30 1320 H 120.707 -2.81767 -2.98526 0
M  V30 1321 H 119.368 -1.70166 -2.64012 0
M  V30 1322 H 118.561 -4.05675 -2.99071 0
M  V30 1323 H 118.163 -3.48654 -1.35339 0
M  V30 1324 H 120.455 -5.76424 -3.56008 0
M  V30 1325 H 121.398 -6.68207 -2.34319 0
M  V30 1326 H 121.806 -4.97205 -2.67296 0
M  V30 1327 N 121.204 0.198386 -1.56346 0
M  V30 1328 C 122.152 1.26538 -1.95169 0
M  V30 1329 C 123.146 1.47295 -0.836685 0
M  V30 1330 O 124.352 1.48195 -1.02167 0
M  V30 1331 H 120.727 0.424744 -0.620561 0
M  V30 1332 H 122.698 0.910904 -2.84157 0
M  V30 1333 C 121.447 2.6035 -2.30463 0
M  V30 1334 H 120.77 2.45192 -3.15786 0
M  V30 1335 H 122.21 3.33762 -2.61494 0
M  V30 1336 C 120.669 3.17096 -1.13806 0
M  V30 1337 O 121.199 3.99588 -0.41135 0
M  V30 1338 N 119.405 2.75795 -0.915736 0
M  V30 1339 H 118.952 2.08816 -1.50843 0
M  V30 1340 H 118.91 3.14101 -0.136979 0
M  V30 1341 N 122.682 1.50554 0.465978 0
M  V30 1342 C 123.912 1.65323 1.23903 0
M  V30 1343 C 124.32 0.338051 1.86155 0
M  V30 1344 O 123.663 -0.690518 1.70228 0
M  V30 1345 C 123.725 2.69048 2.3844 0
M  V30 1346 C 123.389 4.12462 1.96784 0
M  V30 1347 C 124.386 4.98168 1.48745 0
M  V30 1348 C 122.071 4.58407 2.05349 0
M  V30 1349 C 124.065 6.27868 1.0982 0
M  V30 1350 C 121.752 5.88112 1.66035 0
M  V30 1351 C 122.75 6.72668 1.18349 0
M  V30 1352 O 122.438 7.99951 0.795825 0
M  V30 1353 H 122.17 0.558629 0.38067 0
M  V30 1354 H 124.724 1.97561 0.562022 0
M  V30 1355 H 122.954 2.32062 3.09328 0
M  V30 1356 H 124.643 2.72985 3.0039 0
M  V30 1357 H 125.409 4.63885 1.41546 0
M  V30 1358 H 121.288 3.92735 2.41414 0
M  V30 1359 H 124.832 6.93819 0.725293 0
M  V30 1360 H 120.729 6.21914 1.72895 0
M  V30 1361 H 121.497 8.13265 0.924222 0
M  V30 1362 N 124.16 -0.719506 1.40217 0
M  V30 1363 C 125.09 -1.8465 1.42922 0
M  V30 1364 C 126.071 -1.67599 0.29062 0
M  V30 1365 O 127.256 -1.87688 0.498677 0
M  V30 1366 C 124.386 -3.22565 1.28722 0
M  V30 1367 C 123.34 -3.54281 2.40144 0
M  V30 1368 C 122.666 -4.91298 2.11023 0
M  V30 1369 C 123.966 -3.55676 3.82481 0
M  V30 1370 H 125.66 -1.82644 2.37237 0
M  V30 1371 H 123.206 -0.877305 1.1419 0
M  V30 1372 H 125.159 -4.01095 1.29232 0
M  V30 1373 H 123.883 -3.25137 0.308811 0
M  V30 1374 H 122.542 -2.78088 2.38877 0
M  V30 1375 H 122.19 -4.90468 1.11582 0
M  V30 1376 H 121.89 -5.13485 2.8567 0
M  V30 1377 H 123.414 -5.72166 2.13209 0
M  V30 1378 H 124.828 -4.24254 3.85592 0
M  V30 1379 H 123.225 -3.89388 4.56614 0
M  V30 1380 H 124.295 -2.55144 4.12346 0
M  V30 1381 N 125.638 -1.25649 -0.95132 0
M  V30 1382 C 126.915 -1.01361 -1.67288 0
M  V30 1383 C 127.295 0.459135 -2.06046 0
M  V30 1384 O 126.643 1.43723 -1.7764 0
M  V30 1385 C 126.853 -1.95256 -2.89268 0
M  V30 1386 C 128.201 -2.23289 -3.61147 0
M  V30 1387 O 129.225 -1.93041 -2.99355 0
M  V30 1388 O 128.084 -2.74741 -4.72419 0
M  V30 1389 H 125.178 -0.38464 -0.732107 0
M  V30 1390 H 127.724 -1.36817 -1.00395 0
M  V30 1391 H 126.496 -2.94685 -2.57442 0
M  V30 1392 H 126.119 -1.60218 -3.6389 0
M  V30 1393 N 127.117 1.15442 -1.07289 0
M  V30 1394 C 128.533 1.38201 -0.798288 0
M  V30 1395 C 128.733 1.92429 0.597769 0
M  V30 1396 O 127.789 2.12962 1.3566 0
M  V30 1397 C 129.102 2.35357 -1.87156 0
M  V30 1398 C 130.65 2.49021 -1.89624 0
M  V30 1399 C 131.125 3.49468 -2.96034 0
M  V30 1400 N 132.616 3.57003 -2.95132 0
M  V30 1401 C 133.351 4.34543 -3.74112 0
M  V30 1402 N 132.847 5.15421 -4.6294 0
M  V30 1403 N 134.64 4.29625 -3.62462 0
M  V30 1404 H 126.791 0.78584 -1.97328 0
M  V30 1405 H 129.054 0.408065 -0.855679 0
M  V30 1406 H 128.76 2.02626 -2.87464 0
M  V30 1407 H 128.634 3.35129 -1.73114 0
M  V30 1408 H 131.021 2.81051 -0.899687 0
M  V30 1409 H 131.102 1.4925 -2.07745 0
M  V30 1410 H 130.746 3.18173 -3.95889 0
M  V30 1411 H 130.676 4.48992 -2.75161 0
M  V30 1412 H 133.167 2.99276 -2.30743 0
M  V30 1413 H 133.48 5.7183 -5.19837 0
M  V30 1414 H 131.825 5.14729 -4.66989 0
M  V30 1415 H 135.016 3.65505 -2.92444 0
M  V30 1416 H 135.189 4.89807 -4.24256 0
M  V30 1417 N 128.595 0.856903 1.32268 0
M  V30 1418 C 129.842 0.461386 1.97174 0
M  V30 1419 C 130.17 -0.983491 1.67803 0
M  V30 1420 O 129.425 -1.70541 0.959903 0
M  V30 1421 C 129.724 0.649919 3.51441 0
M  V30 1422 C 129.39 2.0656 4.00804 0
M  V30 1423 C 128.052 2.45279 4.13995 0
M  V30 1424 C 130.404 2.98947 4.26943 0
M  V30 1425 C 127.732 3.75653 4.50668 0
M  V30 1426 C 130.084 4.28822 4.65075 0
M  V30 1427 C 128.748 4.67472 4.76472 0
M  V30 1428 H 128.018 0.168833 0.72151 0
M  V30 1429 H 130.665 1.08739 1.57633 0
M  V30 1430 H 128.97 -0.0593018 3.91755 0
M  V30 1431 H 130.667 0.32391 3.9969 0
M  V30 1432 H 127.257 1.75495 3.91024 0
M  V30 1433 H 131.441 2.70265 4.16258 0
M  V30 1434 H 126.697 4.05379 4.57688 0
M  V30 1435 H 130.871 5.0047 4.84255 0
M  V30 1436 H 128.498 5.68539 5.04646 0
M  V30 1437 N 130.073 -1.45103 0.615059 0
M  V30 1438 C 131.003 -2.33339 -0.0865619 0
M  V30 1439 C 131.984 -1.4727 -0.851209 0
M  V30 1440 O 133.169 -1.76026 -0.820281 0
M  V30 1441 C 130.299 -3.30095 -1.07956 0
M  V30 1442 C 129.253 -4.25858 -0.427628 0
M  V30 1443 C 128.579 -5.12361 -1.5294 0
M  V30 1444 C 129.879 -5.18165 0.655944 0
M  V30 1445 H 131.573 -2.92254 0.650224 0
M  V30 1446 H 129.119 -1.40532 0.314138 0
M  V30 1447 H 131.072 -3.90698 -1.57901 0
M  V30 1448 H 129.796 -2.69355 -1.84703 0
M  V30 1449 H 128.455 -3.66564 0.0510292 0
M  V30 1450 H 128.103 -4.47984 -2.28734 0
M  V30 1451 H 127.803 -5.77238 -1.09865 0
M  V30 1452 H 129.327 -5.75833 -2.03098 0
M  V30 1453 H 130.741 -5.72796 0.240257 0
M  V30 1454 H 129.138 -5.91559 1.00888 0
M  V30 1455 H 130.208 -4.60144 1.52957 0
M  V30 1456 N 131.551 -0.354651 -1.53558 0
M  V30 1457 C 132.776 0.242153 -2.05981 0
M  V30 1458 C 133.201 1.42553 -1.2272 0
M  V30 1459 O 132.559 1.79656 -0.243604 0
M  V30 1460 C 132.607 0.624367 -3.55154 0
M  V30 1461 O 131.711 1.72301 -3.74681 0
M  V30 1462 H 131.052 0.0378432 -0.662921 0
M  V30 1463 H 133.582 -0.512087 -1.98088 0
M  V30 1464 H 133.592 0.898433 -3.97985 0
M  V30 1465 H 132.267 -0.240989 -4.15201 0
M  V30 1466 H 130.844 1.44535 -3.4375 0
M  V30 1467 N 133.029 1.57378 -0.0835403 0
M  V30 1468 C 133.959 2.1641 0.87686 0
M  V30 1469 C 134.94 1.09429 1.30228 0
M  V30 1470 O 136.125 1.37516 1.37124 0
M  V30 1471 C 133.255 2.73517 2.14022 0
M  V30 1472 C 132.209 3.85769 1.85381 0
M  V30 1473 C 131.535 4.29529 3.18448 0
M  V30 1474 C 132.835 5.09486 1.14984 0
M  V30 1475 H 134.529 2.96914 0.385059 0
M  V30 1476 H 132.075 1.42823 0.18377 0
M  V30 1477 H 134.028 3.13463 2.81636 0
M  V30 1478 H 132.752 1.90252 2.65465 0
M  V30 1479 H 131.411 3.46345 1.20169 0
M  V30 1480 H 131.059 3.43169 3.67755 0
M  V30 1481 H 130.759 5.05204 3.00071 0
M  V30 1482 H 132.283 4.72099 3.8724 0
M  V30 1483 H 133.697 5.46674 1.72687 0
M  V30 1484 H 132.094 5.90515 1.06826 0
M  V30 1485 H 133.164 4.84724 0.130749 0
M  V30 1486 N 134.507 -0.190092 1.56449 0
M  V30 1487 C 135.417 -1.25591 1.98152 0
M  V30 1488 C 136.433 -1.49519 0.889944 0
M  V30 1489 O 137.609 -1.62036 1.19609 0
M  V30 1490 C 134.674 -2.57916 2.3169 0
M  V30 1491 C 133.735 -2.42015 3.5458 0
M  V30 1492 C 132.968 -3.6803 3.8651 0
M  V30 1493 O 133.191 -4.72413 3.1966 0
M  V30 1494 O 132.125 -3.6326 4.79923 0
M  V30 1495 H 135.951 -0.931988 2.89046 0
M  V30 1496 H 133.536 -0.395488 1.4407 0
M  V30 1497 H 135.418 -3.36008 2.54316 0
M  V30 1498 H 134.093 -2.89925 1.43963 0
M  V30 1499 H 133 -1.62017 3.37196 0
M  V30 1500 H 134.333 -2.14937 4.4279 0
M  V30 1501 N 135.985 -1.50799 -0.457987 0
M  V30 1502 C 137.396 -1.55152 -1.0385 0
M  V30 1503 C 137.747 -0.362719 -1.92818 0
M  V30 1504 O 136.872 0.522915 -2.09987 0
M  V30 1505 C 137.467 -2.81173 -1.89017 0
M  V30 1506 C 136.026 -2.88164 -2.42154 0
M  V30 1507 C 135.173 -2.49591 -1.20829 0
M  V30 1508 H 138.124 -1.56874 -0.240068 0
M  V30 1509 H 138.145 -2.63769 -2.74238 0
M  V30 1510 H 137.657 -3.67677 -1.24238 0
M  V30 1511 H 135.758 -2.06042 -3.10447 0
M  V30 1512 H 135.871 -3.91356 -2.76364 0
M  V30 1513 H 134.235 -2.02322 -1.54719 0
M  V30 1514 H 135.018 -3.38418 -0.576927 0
M  V30 1515 N 137.463 0.71206 -1.40597 0
M  V30 1516 C 138.709 1.47416 -1.39271 0
M  V30 1517 C 139.042 1.942 0.00388791 0
M  V30 1518 O 138.317 1.68403 0.973179 0
M  V30 1519 C 138.6 2.69774 -2.38525 0
M  V30 1520 C 138.453 2.28861 -3.87224 0
M  V30 1521 C 139.772 3.71939 -2.35264 0
M  V30 1522 H 136.891 0.534713 -0.5072 0
M  V30 1523 H 139.533 0.812375 -1.71757 0
M  V30 1524 H 137.683 3.26238 -2.10953 0
M  V30 1525 H 139.355 1.77852 -4.25636 0
M  V30 1526 H 137.598 1.60824 -4.02887 0
M  V30 1527 H 138.269 3.16584 -4.52193 0
M  V30 1528 H 140.745 3.25113 -2.59694 0
M  V30 1529 H 139.621 4.55186 -3.06753 0
M  V30 1530 H 139.882 4.20484 -1.36549 0
M  V30 1531 N 138.941 1.26152 0.944643 0
M  V30 1532 C 139.888 1.07408 2.04285 0
M  V30 1533 C 140.858 -0.0198413 1.66088 0
M  V30 1534 O 142.043 0.139264 1.90291 0
M  V30 1535 C 139.183 0.70945 3.37729 0
M  V30 1536 C 138.296 1.87926 3.88983 0
M  V30 1537 C 137.431 1.45807 5.10797 0
M  V30 1538 C 136.47 2.5964 5.54305 0
M  V30 1539 N 135.607 2.18226 6.67324 0
M  V30 1540 H 140.447 2.01389 2.1965 0
M  V30 1541 H 137.984 1.00275 1.07626 0
M  V30 1542 H 139.942 0.478948 4.14442 0
M  V30 1543 H 138.572 -0.193389 3.2222 0
M  V30 1544 H 137.624 2.22279 3.08701 0
M  V30 1545 H 138.936 2.73377 4.17213 0
M  V30 1546 H 138.09 1.18781 5.94959 0
M  V30 1547 H 136.829 0.574414 4.84305 0
M  V30 1548 H 135.834 2.87399 4.68702 0
M  V30 1549 H 137.059 3.48599 5.828 0
M  V30 1550 H 135.005 1.3229 6.42523 0
M  V30 1551 H 134.922 2.97221 6.95123 0
M  V30 1552 H 136.19 1.94403 7.54869 0
M  V30 1553 N 140.419 -1.14872 1.07899 0
M  V30 1554 C 141.366 -2.19791 0.704319 0
M  V30 1555 C 142.336 -1.63238 -0.306987 0
M  V30 1556 O 143.521 -1.8983 -0.192171 0
M  V30 1557 C 140.661 -3.44911 0.114244 0
M  V30 1558 C 139.774 -4.15637 1.1777 0
M  V30 1559 C 138.909 -5.28324 0.552037 0
M  V30 1560 C 137.948 -5.90875 1.59789 0
M  V30 1561 N 137.085 -6.95022 0.994404 0
M  V30 1562 H 141.925 -2.5119 1.60336 0
M  V30 1563 H 139.462 -1.23356 0.801352 0
M  V30 1564 H 141.42 -4.16477 -0.245544 0
M  V30 1565 H 140.05 -3.14011 -0.74813 0
M  V30 1566 H 139.102 -3.42512 1.65499 0
M  V30 1567 H 140.414 -4.5823 1.97046 0
M  V30 1568 H 139.568 -6.06538 0.1402 0
M  V30 1569 H 138.307 -4.86939 -0.272431 0
M  V30 1570 H 137.312 -5.11369 2.01945 0
M  V30 1571 H 138.537 -6.34337 2.42474 0
M  V30 1572 H 136.483 -6.55722 0.190939 0
M  V30 1573 H 136.4 -7.36073 1.72432 0
M  V30 1574 H 137.668 -7.77123 0.608253 0
M  V30 1575 N 141.898 -0.863906 -1.31812 0
M  V30 1576 C 143.123 -0.48527 -2.01643 0
M  V30 1577 C 143.548 0.913058 -1.64453 0
M  V30 1578 O 142.906 1.6014 -0.849985 0
M  V30 1579 C 142.954 -0.642625 -3.54828 0
M  V30 1580 O 142.058 0.320659 -4.11151 0
M  V30 1581 H 141.399 -0.193793 -0.635091 0
M  V30 1582 H 143.929 -1.16565 -1.68148 0
M  V30 1583 H 143.939 -0.533628 -4.04495 0
M  V30 1584 H 142.614 -1.66227 -3.81237 0
M  V30 1585 H 141.191 0.167126 -3.72525 0
M  V30 1586 N 143.376 1.44774 -0.622745 0
M  V30 1587 C 144.792 1.56986 -0.287652 0
M  V30 1588 C 144.992 1.61167 1.20944 0
M  V30 1589 O 144.048 1.55015 1.99315 0
M  V30 1590 C 145.361 2.84551 -0.972188 0
M  V30 1591 C 146.909 2.9825 -0.949536 0
M  V30 1592 C 147.384 4.28605 -1.61437 0
M  V30 1593 N 148.875 4.35399 -1.58057 0
M  V30 1594 C 149.61 5.34964 -2.064 0
M  V30 1595 N 149.106 6.40981 -2.62897 0
M  V30 1596 N 150.899 5.26419 -1.97078 0
M  V30 1597 H 143.05 1.40304 -1.59463 0
M  V30 1598 H 145.313 0.671794 -0.668878 0
M  V30 1599 H 145.019 2.87417 -2.02693 0
M  V30 1600 H 144.893 3.73807 -0.504771 0
M  V30 1601 H 147.28 2.94941 0.0967067 0
M  V30 1602 H 147.361 2.10364 -1.45536 0
M  V30 1603 H 147.005 4.32672 -2.66002 0
M  V30 1604 H 146.935 5.15334 -1.08344 0
M  V30 1605 H 149.426 3.59397 -1.16801 0
M  V30 1606 H 149.739 7.13225 -2.97539 0
M  V30 1607 H 148.084 6.4169 -2.66943 0
M  V30 1608 H 151.275 4.42504 -1.52669 0
M  V30 1609 H 151.448 6.03861 -2.35066 0
M  V30 1610 N 144.854 0.36279 1.53368 0
M  V30 1611 C 145.784 -0.476976 2.28576 0
M  V30 1612 C 146.765 -1.08631 1.30894 0
M  V30 1613 O 147.95 -1.10409 1.59761 0
M  V30 1614 C 145.08 -1.61828 3.07293 0
M  V30 1615 C 144.034 -1.13633 4.1264 0
M  V30 1616 C 143.36 -2.36766 4.79423 0
M  V30 1617 C 144.66 -0.223061 5.21823 0
M  V30 1618 H 146.354 0.150474 2.99022 0
M  V30 1619 H 143.9 0.0738103 1.43811 0
M  V30 1620 H 145.853 -2.21237 3.58653 0
M  V30 1621 H 144.577 -2.27292 2.34533 0
M  V30 1622 H 143.236 -0.564945 3.62221 0
M  V30 1623 H 142.884 -3.0068 4.03238 0
M  V30 1624 H 142.584 -2.05192 5.50609 0
M  V30 1625 H 144.108 -2.96865 5.33576 0
M  V30 1626 H 145.522 -0.724545 5.68703 0
M  V30 1627 H 143.919 0.001678 6.001 0
M  V30 1628 H 144.989 0.735553 4.79289 0
M  V30 1629 N 146.332 -1.57332 0.0918853 0
M  V30 1630 C 147.264 -2.10869 -0.898168 0
M  V30 1631 C 148.277 -1.04521 -1.24817 0
M  V30 1632 O 149.466 -1.31977 -1.20184 0
M  V30 1633 C 146.566 -2.57083 -2.2082 0
M  V30 1634 C 145.739 -3.87229 -2.03402 0
M  V30 1635 C 144.798 -4.19324 -3.17889 0
M  V30 1636 O 143.824 -4.88598 -2.91994 0
M  V30 1637 N 145.026 -3.74471 -4.43567 0
M  V30 1638 H 147.791 -2.96439 -0.440943 0
M  V30 1639 H 145.352 -1.61631 -0.0933064 0
M  V30 1640 H 147.344 -2.75602 -2.96354 0
M  V30 1641 H 145.914 -1.76541 -2.57977 0
M  V30 1642 H 145.134 -3.7789 -1.12218 0
M  V30 1643 H 146.422 -4.72379 -1.89038 0
M  V30 1644 H 145.82 -3.18546 -4.67488 0
M  V30 1645 H 144.377 -3.98151 -5.16061 0
M  V30 1646 N 147.81 0.181792 -1.56548 0
M  V30 1647 C 148.74 1.22765 -1.98623 0
M  V30 1648 C 149.721 1.46747 -0.860189 0
M  V30 1649 O 150.906 1.58259 -1.12551 0
M  V30 1650 C 148.036 2.56894 -2.33715 0
M  V30 1651 C 146.99 2.475 -3.49182 0
M  V30 1652 C 146.316 3.86023 -3.69986 0
M  V30 1653 C 147.616 1.98866 -4.82959 0
M  V30 1654 H 149.31 0.877942 -2.86239 0
M  V30 1655 H 146.856 0.42088 -1.37712 0
M  V30 1656 H 148.809 3.30253 -2.61746 0
M  V30 1657 H 147.533 2.93632 -1.42997 0
M  V30 1658 H 146.192 1.76596 -3.21262 0
M  V30 1659 H 145.84 4.20136 -2.76576 0
M  V30 1660 H 145.54 3.80609 -4.47672 0
M  V30 1661 H 147.064 4.60984 -4.00407 0
M  V30 1662 H 148.478 2.61992 -5.09934 0
M  V30 1663 H 146.875 2.04424 -5.64208 0
M  V30 1664 H 147.945 0.942465 -4.75653 0
M  V30 1665 N 149.288 1.51039 0.449983 0
M  V30 1666 C 150.218 1.74379 1.55288 0
M  V30 1667 C 151.199 0.593236 1.5942 0
M  V30 1668 O 152.384 0.834625 1.7535 0
M  V30 1669 C 149.514 1.85728 2.93466 0
M  V30 1670 C 148.468 3.01078 3.04197 0
M  V30 1671 C 147.794 2.97595 4.44231 0
M  V30 1672 C 149.094 4.41254 2.7945 0
M  V30 1673 H 150.788 2.66725 1.36008 0
M  V30 1674 H 148.334 1.2835 0.652864 0
M  V30 1675 H 150.287 2.0064 3.70569 0
M  V30 1676 H 149.011 0.900207 3.13949 0
M  V30 1677 H 147.67 2.85851 2.29531 0
M  V30 1678 H 147.318 1.99691 4.61663 0
M  V30 1679 H 147.018 3.75046 4.52343 0
M  V30 1680 H 148.542 3.14583 5.23326 0
M  V30 1681 H 149.956 4.56897 3.46292 0
M  V30 1682 H 148.353 5.20315 2.98985 0
M  V30 1683 H 149.423 4.52164 1.75144 0
M  V30 1684 N 150.766 -0.704594 1.40972 0
M  V30 1685 C 152.014 -1.46169 1.39568 0
M  V30 1686 C 152.335 -1.95 0.00253745 0
M  V30 1687 O 151.605 -1.71095 -0.954114 0
M  V30 1688 H 150.185 -0.542326 0.513704 0
M  V30 1689 H 152.847 -0.834553 1.76128 0
M  V30 1690 H 151.943 -2.32922 2.07735 0
M  V30 1691 N 152.244 -1.26651 -0.937939 0
M  V30 1692 C 153.207 -1.08546 -2.01867 0
M  V30 1693 C 154.207 -0.0327327 -1.60767 0
M  V30 1694 O 155.397 -0.276427 -1.71993 0
M  V30 1695 C 152.529 -0.651711 -3.34613 0
M  V30 1696 H 153.722 -2.04502 -2.1936 0
M  V30 1697 H 151.275 -1.09294 -1.11734 0
M  V30 1698 H 152.01 0.309696 -3.22818 0
M  V30 1699 H 151.795 -1.41189 -3.65798 0
M  V30 1700 H 153.285 -0.546973 -4.14002 0
M  V30 1701 N 153.722 1.14298 -1.08507 0
M  V30 1702 C 154.95 1.89219 -0.836876 0
M  V30 1703 C 155.365 1.78638 0.611054 0
M  V30 1704 O 154.722 1.14643 1.41998 0
M  V30 1705 C 154.773 3.39158 -1.25116 0
M  V30 1706 O 154.494 3.49449 -2.64229 0
M  V30 1707 C 155.995 4.31073 -1.03398 0
M  V30 1708 H 153.215 0.599328 -0.301739 0
M  V30 1709 H 155.759 1.44746 -1.44461 0
M  V30 1710 H 153.914 3.81251 -0.687514 0
M  V30 1711 H 154.328 4.42589 -2.81452 0
M  V30 1712 H 155.802 5.34646 -1.37323 0
M  V30 1713 H 156.279 4.3919 0.0289259 0
M  V30 1714 H 156.885 3.94738 -1.58311 0
M  V30 1715 N 155.201 0.870884 1.31352 0
M  V30 1716 C 156.441 0.488783 1.9847 0
M  V30 1717 C 156.805 -0.941536 1.67329 0
M  V30 1718 O 158.006 -1.42903 2.27667 0
M  V30 1719 C 156.277 0.739688 3.49662 0
M  V30 1720 S 157.836 0.457582 4.36408 0
M  V30 1721 H 154.654 0.18242 0.6872 0
M  V30 1722 H 157.256 1.12711 1.59739 0
M  V30 1723 H 155.96 1.77944 3.69816 0
M  V30 1724 H 155.491 0.0883905 3.93301 0
M  V30 1725 H 157.506 -0.709752 4.91098 0
M  V30 1726 N 156.679 -1.44442 0.630414 0
M  V30 1727 C 157.612 -2.27862 -0.124247 0
M  V30 1728 C 158.59 -1.38495 -0.851931 0
M  V30 1729 O 159.774 -1.67935 -0.856166 0
M  V30 1730 C 156.901 -3.17407 -1.18197 0
M  V30 1731 C 155.947 -4.22875 -0.554892 0
M  V30 1732 S 156.78 -5.31485 0.654489 0
M  V30 1733 C 157.936 -6.246 -0.40326 0
M  V30 1734 H 158.169 -2.91519 0.583435 0
M  V30 1735 H 155.702 -1.48618 0.418565 0
M  V30 1736 H 157.66 -3.69549 -1.78728 0
M  V30 1737 H 156.321 -2.52971 -1.86184 0
M  V30 1738 H 155.514 -4.85542 -1.35148 0
M  V30 1739 H 155.116 -3.73992 -0.0242105 0
M  V30 1740 H 157.408 -6.65375 -1.27602 0
M  V30 1741 H 158.351 -7.07851 0.187813 0
M  V30 1742 H 158.759 -5.59775 -0.728837 0
M  V30 1743 N 158.157 -0.370918 -1.53173 0
M  V30 1744 C 159.404 0.217102 -2.01333 0
M  V30 1745 C 159.732 1.48338 -1.25802 0
M  V30 1746 O 158.987 1.92698 -0.34146 0
M  V30 1747 C 159.286 0.549696 -3.53147 0
M  V30 1748 C 158.952 -0.622872 -4.46577 0
M  V30 1749 C 157.614 -0.944595 -4.71838 0
M  V30 1750 C 159.966 -1.40819 -5.01816 0
M  V30 1751 C 157.294 -2.05351 -5.49589 0
M  V30 1752 C 159.646 -2.50757 -5.80778 0
M  V30 1753 C 158.31 -2.83458 -6.04324 0
M  V30 1754 H 157.58 0.0794431 -0.736729 0
M  V30 1755 H 160.227 -0.504481 -1.84736 0
M  V30 1756 H 158.532 1.35237 -3.6772 0
M  V30 1757 H 160.229 1.017 -3.87889 0
M  V30 1758 H 156.819 -0.36209 -4.27068 0
M  V30 1759 H 161.003 -1.17289 -4.82242 0
M  V30 1760 H 156.259 -2.3108 -5.6605 0
M  V30 1761 H 160.433 -3.12022 -6.22588 0
M  V30 1762 H 158.06 -3.69508 -6.64355 0
M  V30 1763 N 159.635 1.57281 -0.100228 0
M  V30 1764 C 160.881 1.94826 0.563101 0
M  V30 1765 C 161.214 0.982475 1.67514 0
M  V30 1766 O 160.489 0.0164069 1.94493 0
M  V30 1767 C 160.772 3.42453 1.11346 0
M  V30 1768 C 160.625 4.498 0.00612081 0
M  V30 1769 C 161.944 3.91506 2.01024 0
M  V30 1770 H 159.063 0.708428 0.203221 0
M  V30 1771 H 161.705 1.8922 -0.171979 0
M  V30 1772 H 159.855 3.47361 1.7399 0
M  V30 1773 H 161.527 4.57 -0.628357 0
M  V30 1774 H 159.77 4.28756 -0.659581 0
M  V30 1775 H 160.441 5.50306 0.432109 0
M  V30 1776 H 162.917 3.88784 1.48278 0
M  V30 1777 H 161.793 4.95358 2.36457 0
M  V30 1778 H 162.054 3.31099 2.92961 0
M  V30 1779 N 161.113 -0.173488 1.56642 0
M  V30 1780 C 162.076 -1.19859 1.95362 0
M  V30 1781 C 163.076 -1.37296 0.83704 0
M  V30 1782 O 164.266 -1.34739 1.10413 0
M  V30 1783 C 161.398 -2.56405 2.24654 0
M  V30 1784 H 162.591 -0.867062 2.87092 0
M  V30 1785 H 160.144 -0.415853 1.50666 0
M  V30 1786 H 160.879 -2.94576 1.35631 0
M  V30 1787 H 160.664 -2.45115 3.06041 0
M  V30 1788 H 162.154 -3.30287 2.5554 0
M  V30 1789 N 162.591 -1.51276 -0.441967 0
M  V30 1790 C 163.816 -1.67799 -1.21895 0
M  V30 1791 C 164.241 -0.372864 -1.84367 0
M  V30 1792 O 163.599 0.666501 -1.68604 0
M  V30 1793 C 163.647 -2.79199 -2.28211 0
M  V30 1794 O 162.751 -2.42479 -3.33583 0
M  V30 1795 H 162.092 -0.559649 -0.357336 0
M  V30 1796 H 164.622 -1.97815 -0.522522 0
M  V30 1797 H 164.632 -3.03146 -2.73069 0
M  V30 1798 H 163.307 -3.73906 -1.82118 0
M  V30 1799 H 161.884 -2.29087 -2.94234 0
M  V30 1800 N 164.069 0.697108 -1.41344 0
M  V30 1801 C 165.016 1.81106 -1.43071 0
M  V30 1802 C 165.986 1.63632 -0.285275 0
M  V30 1803 O 167.171 1.84504 -0.486091 0
M  V30 1804 C 164.311 3.18975 -1.31715 0
M  V30 1805 C 163.424 3.47892 -2.56115 0
M  V30 1806 C 162.559 4.75367 -2.37064 0
M  V30 1807 C 161.598 4.97247 -3.56948 0
M  V30 1808 N 160.735 6.15947 -3.36977 0
M  V30 1809 H 165.575 1.78965 -2.38276 0
M  V30 1810 H 163.112 0.873975 -1.18322 0
M  V30 1811 H 165.07 3.98615 -1.23133 0
M  V30 1812 H 163.7 3.20297 -0.401183 0
M  V30 1813 H 162.752 2.62669 -2.75153 0
M  V30 1814 H 164.064 3.59962 -3.45295 0
M  V30 1815 H 163.218 5.63059 -2.25941 0
M  V30 1816 H 161.957 4.65541 -1.45338 0
M  V30 1817 H 160.962 4.08004 -3.68527 0
M  V30 1818 H 162.187 5.08934 -4.49626 0
M  V30 1819 H 160.133 6.07336 -2.47949 0
M  V30 1820 H 160.05 6.28777 -4.19732 0
M  V30 1821 H 161.318 7.06377 -3.29623 0
M  V30 1822 N 165.547 1.27147 0.931209 0
M  V30 1823 C 166.48 1.0389 2.0318 0
M  V30 1824 C 167.458 -0.0395716 1.62552 0
M  V30 1825 O 168.642 0.104867 1.88208 0
M  V30 1826 C 165.769 0.575227 3.3378 0
M  V30 1827 C 164.815 1.64774 3.93385 0
M  V30 1828 S 165.648 3.23933 4.26413 0
M  V30 1829 C 166.804 2.79358 5.60098 0
M  V30 1830 H 167.037 1.97075 2.22596 0
M  V30 1831 H 164.57 1.10938 1.07387 0
M  V30 1832 H 166.528 0.314385 4.09294 0
M  V30 1833 H 165.189 -0.336505 3.12292 0
M  V30 1834 H 164.382 1.27454 4.87618 0
M  V30 1835 H 163.984 1.86048 3.24441 0
M  V30 1836 H 166.276 2.24443 6.39243 0
M  V30 1837 H 167.219 3.72322 6.02314 0
M  V30 1838 H 167.627 2.1861 5.20452 0
M  V30 1839 N 167.025 -1.13721 1.09112 0
M  V30 1840 C 167.972 -2.19031 0.727591 0
M  V30 1841 C 168.942 -1.63555 -0.289656 0
M  V30 1842 O 170.127 -1.90023 -0.172026 0
M  V30 1843 C 167.267 -3.4477 0.15082 0
M  V30 1844 C 166.38 -4.14365 1.22172 0
M  V30 1845 C 165.515 -5.27709 0.608042 0
M  V30 1846 C 164.554 -5.89147 1.66047 0
M  V30 1847 N 163.691 -6.93929 1.06806 0
M  V30 1848 H 168.531 -2.49475 1.62991 0
M  V30 1849 H 166.068 -1.22499 0.81439 0
M  V30 1850 H 168.026 -4.16714 -0.201358 0
M  V30 1851 H 166.656 -3.14787 -0.714783 0
M  V30 1852 H 165.708 -3.40737 1.69122 0
M  V30 1853 H 167.02 -4.56114 2.01895 0
M  V30 1854 H 166.174 -6.06355 0.204523 0
M  V30 1855 H 164.913 -4.872 -0.220769 0
M  V30 1856 H 163.918 -5.09198 2.07357 0
M  V30 1857 H 165.143 -6.31729 2.49189 0
M  V30 1858 H 163.089 -6.55483 0.260476 0
M  V30 1859 H 163.006 -7.34202 1.8023 0
M  V30 1860 H 164.274 -7.76434 0.690644 0
M  V30 1861 N 168.503 -0.877838 -1.30888 0
M  V30 1862 C 169.413 -0.343096 -2.32078 0
M  V30 1863 C 170.429 0.551022 -1.65045 0
M  V30 1864 O 171.605 0.445854 -1.96403 0
M  V30 1865 C 168.67 0.439905 -3.43898 0
M  V30 1866 C 167.731 -0.483111 -4.26573 0
M  V30 1867 C 166.964 0.262616 -5.33053 0
M  V30 1868 O 167.187 1.48967 -5.50604 0
M  V30 1869 O 166.121 -0.383593 -6.00676 0
M  V30 1870 H 169.947 -1.18203 -2.79753 0
M  V30 1871 H 167.532 -0.64145 -1.34929 0
M  V30 1872 H 169.414 0.883504 -4.12034 0
M  V30 1873 H 168.089 1.25526 -2.98371 0
M  V30 1874 H 166.996 -0.975374 -3.61161 0
M  V30 1875 H 168.329 -1.26427 -4.75686 0
M  V30 1876 N 169.982 1.44106 -0.638065 0
M  V30 1877 C 171.21 2.06336 -0.152615 0
M  V30 1878 C 171.625 1.47731 1.17563 0
M  V30 1879 O 170.982 0.602806 1.72257 0
M  V30 1880 C 171.033 3.61479 -0.0391491 0
M  V30 1881 O 170.754 4.17903 -1.31487 0
M  V30 1882 C 172.255 4.40757 0.474176 0
M  V30 1883 H 169.475 0.665862 -0.0828776 0
M  V30 1884 H 172.019 1.84862 -0.87443 0
M  V30 1885 H 170.174 3.82191 0.633142 0
M  V30 1886 H 170.588 5.11416 -1.16421 0
M  V30 1887 H 172.062 5.49707 0.502562 0
M  V30 1888 H 172.539 4.12697 1.50258 0
M  V30 1889 H 173.145 4.24979 -0.165102 0
M  V30 1890 N 171.46 0.379036 1.52974 0
M  V30 1891 C 172.709 -0.207612 2.00629 0
M  V30 1892 C 173.022 -1.48758 1.27006 0
M  V30 1893 O 174.228 -2.15365 1.65318 0
M  V30 1894 C 172.684 -0.42053 3.57435 0
M  V30 1895 C 172.292 0.845587 4.39948 0
M  V30 1896 C 174.036 -0.964102 4.13407 0
M  V30 1897 C 171.943 0.601513 5.88333 0
M  V30 1898 H 170.873 -0.0813591 0.749598 0
M  V30 1899 H 173.524 0.499853 1.76561 0
M  V30 1900 H 171.906 -1.18959 3.7771 0
M  V30 1901 H 173.08 1.61848 4.31442 0
M  V30 1902 H 171.395 1.31336 3.95145 0
M  V30 1903 H 173.992 -1.16225 5.21916 0
M  V30 1904 H 174.335 -1.93019 3.68849 0
M  V30 1905 H 174.868 -0.25487 3.96983 0
M  V30 1906 H 171.607 1.53831 6.37194 0
M  V30 1907 H 171.127 -0.132628 5.99653 0
M  V30 1908 H 172.806 0.232134 6.46583 0
M  V30 1909 N 172.938 -1.57226 0.108567 0
M  V30 1910 C 174.349 -1.8195 -0.418464 0
M  V30 1911 C 174.7 -1.02508 -1.67292 0
M  V30 1912 O 173.825 -0.258496 -2.14851 0
M  V30 1913 C 174.42 -3.30028 -0.765979 0
M  V30 1914 C 172.979 -3.55469 -1.23769 0
M  V30 1915 C 172.126 -2.7625 -0.241106 0
M  V30 1916 H 175.077 -1.55149 0.33384 0
M  V30 1917 H 175.098 -3.44086 -1.62434 0
M  V30 1918 H 174.61 -3.87821 0.147219 0
M  V30 1919 H 172.711 -3.03022 -2.16814 0
M  V30 1920 H 172.824 -4.6408 -1.19022 0
M  V30 1921 H 171.188 -2.44133 -0.72602 0
M  V30 1922 H 171.971 -3.36797 0.665007 0
M  V30 1923 N 174.416 0.165178 -1.56732 0
M  V30 1924 C 175.346 1.20651 -1.99914 0
M  V30 1925 C 176.327 1.45827 -0.875705 0
M  V30 1926 O 177.512 1.57057 -1.14223 0
M  V30 1927 C 174.642 2.54401 -2.36427 0
M  V30 1928 C 173.596 2.43782 -3.51787 0
M  V30 1929 C 172.922 3.82078 -3.7406 0
M  V30 1930 C 174.222 1.93732 -4.85041 0
M  V30 1931 H 175.916 0.847534 -2.87154 0
M  V30 1932 H 173.462 0.40625 -1.38151 0
M  V30 1933 H 175.415 3.27458 -2.65234 0
M  V30 1934 H 174.139 2.92098 -1.46103 0
M  V30 1935 H 172.798 1.73178 -3.23117 0
M  V30 1936 H 172.446 4.17179 -2.81017 0
M  V30 1937 H 172.146 3.7584 -4.51684 0
M  V30 1938 H 173.67 4.56712 -4.05274 0
M  V30 1939 H 175.084 2.56569 -5.12684 0
M  V30 1940 H 173.481 1.98428 -5.66345 0
M  V30 1941 H 174.551 0.891962 -4.76626 0
M  V30 1942 N 175.894 1.51508 0.433938 0
M  V30 1943 C 177.122 1.68157 1.20543 0
M  V30 1944 C 177.537 0.380362 1.84929 0
M  V30 1945 O 176.894 -0.641446 1.70856 0
M  V30 1946 C 176.945 2.79965 2.28696 0
M  V30 1947 O 176.666 4.05045 1.66943 0
M  V30 1948 C 178.167 3.07912 3.18912 0
M  V30 1949 H 175.387 0.56421 0.363191 0
M  V30 1950 H 177.931 1.97941 0.513754 0
M  V30 1951 H 176.086 2.5277 2.93574 0
M  V30 1952 H 176.5 4.67165 2.38448 0
M  V30 1953 H 177.974 3.89719 3.90926 0
M  V30 1954 H 178.451 2.20456 3.79863 0
M  V30 1955 H 179.057 3.36779 2.59731 0
M  V30 1956 N 177.372 -0.689602 1.41712 0
M  V30 1957 C 178.335 -1.78521 1.43746 0
M  V30 1958 C 179.335 -1.57436 0.327191 0
M  V30 1959 O 180.525 -1.64 0.587348 0
M  V30 1960 C 177.657 -3.16971 1.25467 0
M  V30 1961 H 178.85 -1.78108 2.41283 0
M  V30 1962 H 176.403 -0.89781 1.27942 0
M  V30 1963 H 177.138 -3.23019 0.287948 0
M  V30 1964 H 176.923 -3.33678 2.05917 0
M  V30 1965 H 178.413 -3.96935 1.2974 0
M  V30 1966 N 178.85 -1.27639 -0.924453 0
M  V30 1967 C 179.76 -1.12466 -2.05885 0
M  V30 1968 C 180.776 -0.053869 -1.73917 0
M  V30 1969 O 181.952 -0.261012 -1.99702 0
M  V30 1970 C 179.017 -0.776768 -3.37886 0
M  V30 1971 C 178.078 -1.92878 -3.83532 0
M  V30 1972 C 177.311 -1.59739 -5.09234 0
M  V30 1973 O 177.534 -0.506782 -5.68144 0
M  V30 1974 O 176.468 -2.43761 -5.50331 0
M  V30 1975 H 180.294 -2.07671 -2.21599 0
M  V30 1976 H 177.879 -1.06857 -1.04413 0
M  V30 1977 H 179.761 -0.596229 -4.17161 0
M  V30 1978 H 178.436 0.145732 -3.23372 0
M  V30 1979 H 177.343 -2.1644 -3.0513 0
M  V30 1980 H 178.676 -2.8316 -4.02593 0
M  V30 1981 N 180.328 1.1314 -1.09713 0
M  V30 1982 C 181.275 2.18642 -0.739196 0
M  V30 1983 C 182.245 1.63706 0.280978 0
M  V30 1984 O 183.43 1.90111 0.161946 0
M  V30 1985 C 180.57 3.44685 -0.169102 0
M  V30 1986 C 179.683 4.13711 -1.24367 0
M  V30 1987 C 178.818 5.27379 -0.636019 0
M  V30 1988 C 177.857 5.88259 -1.69169 0
M  V30 1989 N 176.994 6.93352 -1.10485 0
M  V30 1990 H 181.834 2.48607 -1.64312 0
M  V30 1991 H 179.371 1.22066 -0.820875 0
M  V30 1992 H 181.329 4.16815 0.179256 0
M  V30 1993 H 179.959 3.15161 0.698079 0
M  V30 1994 H 179.011 3.39835 -1.70927 0
M  V30 1995 H 180.323 4.55037 -2.04311 0
M  V30 1996 H 179.477 6.06238 -0.236677 0
M  V30 1997 H 178.216 4.8731 0.194928 0
M  V30 1998 H 177.221 5.08092 -2.10055 0
M  V30 1999 H 178.446 6.30399 -2.52536 0
M  V30 2000 H 176.392 6.55335 -0.295234 0
M  V30 2001 H 176.309 7.33236 -1.84121 0
M  V30 2002 H 177.577 7.76057 -0.73181 0
M  V30 2003 N 181.806 0.884767 1.30421 0
M  V30 2004 C 182.736 0.367574 2.30589 0
M  V30 2005 C 183.717 -0.549464 1.60981 0
M  V30 2006 O 184.902 -0.46336 1.88591 0
M  V30 2007 C 182.032 -0.418944 3.44764 0
M  V30 2008 C 180.986 0.406316 4.26067 0
M  V30 2009 C 180.312 -0.506793 5.32293 0
M  V30 2010 C 181.612 1.64832 4.95608 0
M  V30 2011 H 183.306 1.20462 2.74097 0
M  V30 2012 H 180.852 0.580695 1.31772 0
M  V30 2013 H 182.805 -0.791395 4.13902 0
M  V30 2014 H 181.529 -1.28964 3.0006 0
M  V30 2015 H 180.188 0.760903 3.58617 0
M  V30 2016 H 179.836 -1.37519 4.83836 0
M  V30 2017 H 179.536 0.0415828 5.87585 0
M  V30 2018 H 181.06 -0.875764 6.04287 0
M  V30 2019 H 182.474 1.34646 5.57264 0
M  V30 2020 H 180.871 2.13688 5.60765 0
M  V30 2021 H 181.941 2.39284 4.21748 0
M  V30 2022 N 183.284 -1.43765 0.645699 0
M  V30 2023 C 184.524 -2.03776 0.159542 0
M  V30 2024 C 184.888 -1.49792 -1.2011 0
M  V30 2025 O 186.089 -2.01398 -1.78023 0
M  V30 2026 C 184.36 -3.57036 0.161251 0
M  V30 2027 S 185.919 -4.3804 -0.258159 0
M  V30 2028 H 182.737 -0.707717 0.0682454 0
M  V30 2029 H 185.339 -1.75941 0.852352 0
M  V30 2030 H 184.043 -3.9383 1.15439 0
M  V30 2031 H 183.574 -3.89503 -0.552339 0
M  V30 2032 H 185.589 -4.7302 -1.49889 0
M  V30 2033 N 184.763 -0.387143 -1.52771 0
M  V30 2034 C 186.012 0.19697 -2.00736 0
M  V30 2035 C 186.325 1.48082 -1.27793 0
M  V30 2036 O 187.531 2.14485 -1.66458 0
M  V30 2037 C 185.987 0.401568 -3.57653 0
M  V30 2038 C 185.595 -0.868907 -4.39493 0
M  V30 2039 C 187.339 0.942164 -4.13912 0
M  V30 2040 C 185.246 -0.632705 -5.88006 0
M  V30 2041 H 184.176 0.0773827 -0.750019 0
M  V30 2042 H 186.827 -0.50921 -1.76293 0
M  V30 2043 H 185.209 1.16954 -3.78335 0
M  V30 2044 H 186.383 -1.64133 -4.30577 0
M  V30 2045 H 184.698 -1.33429 -3.94443 0
M  V30 2046 H 187.295 1.13455 -5.22525 0
M  V30 2047 H 187.638 1.9106 -3.69867 0
M  V30 2048 H 188.171 0.233814 -3.97112 0
M  V30 2049 H 184.91 -1.57208 -6.36369 0
M  V30 2050 H 184.43 0.100825 -5.99715 0
M  V30 2051 H 186.109 -0.26642 -6.46451 0
M  V30 2052 N 186.241 1.57166 -0.116904 0
M  V30 2053 C 187.471 1.99184 0.548586 0
M  V30 2054 C 187.879 0.995436 1.60897 0
M  V30 2055 O 187.222 -0.0201293 1.83689 0
M  V30 2056 C 187.284 3.37611 1.23526 0
M  V30 2057 C 186.948 4.55857 0.323077 0
M  V30 2058 C 187.945 5.18056 -0.437476 0
M  V30 2059 C 185.63 5.01751 0.234761 0
M  V30 2060 C 187.624 6.24536 -1.2741 0
M  V30 2061 C 185.311 6.08093 -0.605496 0
M  V30 2062 C 186.309 6.69352 -1.35856 0
M  V30 2063 O 185.997 7.7364 -2.18487 0
M  V30 2064 H 185.729 0.659148 0.149999 0
M  V30 2065 H 188.283 2.0443 -0.199428 0
M  V30 2066 H 186.513 3.29113 2.0303 0
M  V30 2067 H 188.202 3.63932 1.79745 0
M  V30 2068 H 188.968 4.83516 -0.379105 0
M  V30 2069 H 184.847 4.53817 0.810601 0
M  V30 2070 H 188.391 6.72281 -1.86237 0
M  V30 2071 H 184.288 6.42063 -0.665268 0
M  V30 2072 H 185.056 7.90727 -2.11406 0
M  V30 2073 N 187.719 -0.156864 1.56817 0
M  V30 2074 C 188.947 -0.886316 1.86955 0
M  V30 2075 C 189.362 -1.75185 0.703975 0
M  V30 2076 O 188.719 -1.79555 -0.326552 0
M  V30 2077 C 188.77 -1.75117 3.16253 0
M  V30 2078 O 188.491 -0.920537 4.2832 0
M  V30 2079 C 189.992 -2.58905 3.59837 0
M  V30 2080 H 187.212 -0.25678 0.619923 0
M  V30 2081 H 189.756 -0.152615 2.0393 0
M  V30 2082 H 187.911 -2.43805 3.01062 0
M  V30 2083 H 188.325 -1.51337 5.02192 0
M  V30 2084 H 189.799 -3.1518 4.53172 0
M  V30 2085 H 190.276 -3.34472 2.84649 0
M  V30 2086 H 190.882 -1.95526 3.7769 0
M  V30 2087 N 189.197 -1.51736 -0.425897 0
M  V30 2088 C 190.474 -1.55519 -1.1863 0
M  V30 2089 C 190.854 -0.326219 -2.08564 0
M  V30 2090 O 190.202 0.688012 -2.17896 0
M  V30 2091 C 190.412 -2.87521 -1.9782 0
M  V30 2092 C 191.76 -3.39899 -2.54468 0
M  V30 2093 O 192.784 -2.89148 -2.08019 0
M  V30 2094 O 191.643 -4.2848 -3.39215 0
M  V30 2095 H 188.737 -0.625739 -0.540721 0
M  V30 2096 H 191.283 -1.64055 -0.434038 0
M  V30 2097 H 190.055 -3.68422 -1.31836 0
M  V30 2098 H 189.678 -2.822 -2.80088 0
M  V30 2099 N 190.675 0.682077 -1.42076 0
M  V30 2100 C 191.623 1.81707 -1.45208 0
M  V30 2101 C 192.617 1.66183 -0.328591 0
M  V30 2102 O 193.823 1.7288 -0.501264 0
M  V30 2103 H 190.198 0.599014 -0.454628 0
M  V30 2104 H 192.169 1.76183 -2.40836 0
M  V30 2105 C 190.918 3.19816 -1.36428 0
M  V30 2106 H 190.241 3.32385 -2.22171 0
M  V30 2107 H 191.681 3.99272 -1.42681 0
M  V30 2108 C 190.14 3.36809 -0.078191 0
M  V30 2109 O 190.67 3.92124 0.87188 0
M  V30 2110 N 188.876 2.906 0.00229266 0
M  V30 2111 H 188.423 2.45772 -0.771616 0
M  V30 2112 H 188.381 3.02347 0.862179 0
M  V30 2113 N 192.153 1.28127 0.917671 0
M  V30 2114 C 193.378 1.18007 1.70555 0
M  V30 2115 C 193.803 -0.258257 1.86319 0
M  V30 2116 O 193.161 -1.1869 1.37049 0
M  V30 2117 C 193.209 1.87948 3.07746 0
M  V30 2118 O 192.313 1.18427 3.9503 0
M  V30 2119 H 191.654 0.409867 0.522403 0
M  V30 2120 H 194.184 1.69379 1.1477 0
M  V30 2121 H 194.194 1.95701 3.58001 0
M  V30 2122 H 192.869 2.92573 2.95591 0
M  V30 2123 H 191.446 1.18811 3.53466 0
M  V30 2124 N 193.631 -1.12557 1.10312 0
M  V30 2125 C 194.88 -1.83395 0.839588 0
M  V30 2126 C 195.193 -1.84939 -0.636929 0
M  V30 2127 O 196.399 -2.51761 -1.01631 0
M  V30 2128 C 194.855 -3.29303 1.45215 0
M  V30 2129 C 194.463 -3.36122 2.96186 0
M  V30 2130 C 196.207 -4.05121 1.26796 0
M  V30 2131 C 194.114 -4.76357 3.50483 0
M  V30 2132 H 193.044 -0.687133 0.310425 0
M  V30 2133 H 195.695 -1.26746 1.32694 0
M  V30 2134 H 194.077 -3.85812 0.892469 0
M  V30 2135 H 195.251 -2.89559 3.58458 0
M  V30 2136 H 193.566 -2.73776 3.13745 0
M  V30 2137 H 196.163 -5.08668 1.64806 0
M  V30 2138 H 196.506 -4.15773 0.209409 0
M  V30 2139 H 197.039 -3.54967 1.79563 0
M  V30 2140 H 193.778 -4.70899 4.55998 0
M  V30 2141 H 193.298 -5.23377 2.92978 0
M  V30 2142 H 194.977 -5.45294 3.48228 0
M  V30 2143 N 195.109 -0.891671 -1.2995 0
M  V30 2144 C 196.525 -0.58662 -1.48428 0
M  V30 2145 C 196.725 0.873951 -1.81561 0
M  V30 2146 O 195.781 1.65471 -1.90724 0
M  V30 2147 C 197.094 -1.50553 -2.60296 0
M  V30 2148 C 198.642 -1.50988 -2.74175 0
M  V30 2149 C 199.117 -2.41488 -3.89163 0
M  V30 2150 N 200.608 -2.39489 -3.96483 0
M  V30 2151 C 201.343 -3.06223 -4.84784 0
M  V30 2152 N 200.839 -3.82206 -5.77833 0
M  V30 2153 N 202.632 -2.95421 -4.78208 0
M  V30 2154 H 194.783 -1.83644 -1.06718 0
M  V30 2155 H 197.046 -0.786455 -0.529332 0
M  V30 2156 H 196.752 -2.54581 -2.42654 0
M  V30 2157 H 196.626 -1.22008 -3.56923 0
M  V30 2158 H 199.013 -0.47708 -2.91218 0
M  V30 2159 H 199.094 -1.83567 -1.78148 0
M  V30 2160 H 198.738 -3.44857 -3.72876 0
M  V30 2161 H 198.668 -2.06222 -4.84541 0
M  V30 2162 H 201.159 -1.84278 -3.29924 0
M  V30 2163 H 201.472 -4.302 -6.41988 0
M  V30 2164 H 199.817 -3.86313 -5.77743 0
M  V30 2165 H 203.008 -2.35581 -4.04499 0
M  V30 2166 H 203.181 -3.47704 -5.46814 0
M  V30 2167 N 196.587 1.43421 -0.653314 0
M  V30 2168 C 197.998 1.85065 -0.246537 0
M  V30 2169 C 198.349 1.54688 1.2069 0
M  V30 2170 O 197.474 0.995896 1.92122 0
M  V30 2171 C 198.069 3.35922 -0.440666 0
M  V30 2172 C 196.628 3.76297 -0.0882064 0
M  V30 2173 C 195.775 2.67147 -0.743484 0
M  V30 2174 H 198.726 1.33572 -0.856979 0
M  V30 2175 H 198.747 3.79204 0.313798 0
M  V30 2176 H 198.259 3.58 -1.49858 0
M  V30 2177 H 196.36 3.5983 0.96711 0
M  V30 2178 H 196.473 4.76338 -0.513738 0
M  V30 2179 H 194.837 2.54086 -0.176712 0
M  V30 2180 H 195.62 2.92053 -1.80443 0
M  V30 2181 N 198.065 0.39524 1.52563 0
M  V30 2182 C 198.975 -0.444232 2.30356 0
M  V30 2183 C 199.991 -1.06615 1.37511 0
M  V30 2184 O 201.167 -1.07067 1.70583 0
M  V30 2185 C 198.232 -1.55315 3.09964 0
M  V30 2186 C 197.293 -0.955734 4.18526 0
M  V30 2187 C 196.526 -2.01181 4.9433 0
M  V30 2188 O 196.749 -3.22781 4.70285 0
M  V30 2189 O 195.683 -1.62579 5.79527 0
M  V30 2190 H 199.509 0.189667 3.03107 0
M  V30 2191 H 197.094 0.1588 1.48554 0
M  V30 2192 H 198.976 -2.19724 3.59582 0
M  V30 2193 H 197.651 -2.17191 2.4002 0
M  V30 2194 H 196.558 -0.274743 3.7309 0
M  V30 2195 H 197.891 -0.381109 4.90722 0
M  V30 2196 N 199.544 -1.57102 0.125237 0
M  V30 2197 C 200.454 -2.19191 -0.8362 0
M  V30 2198 C 201.47 -1.16985 -1.28805 0
M  V30 2199 O 202.646 -1.49479 -1.34974 0
M  V30 2200 C 199.711 -2.78407 -2.06617 0
M  V30 2201 C 198.772 -3.9567 -1.66565 0
M  V30 2202 C 198.005 -4.52052 -2.83698 0
M  V30 2203 O 198.228 -4.07326 -3.99302 0
M  V30 2204 O 197.162 -5.42645 -2.60423 0
M  V30 2205 H 200.988 -3.01816 -0.337776 0
M  V30 2206 H 198.573 -1.4906 -0.100695 0
M  V30 2207 H 200.455 -3.16129 -2.7864 0
M  V30 2208 H 199.13 -1.9881 -2.55453 0
M  V30 2209 H 198.037 -3.62705 -0.916296 0
M  V30 2210 H 199.37 -4.76722 -1.22464 0
M  V30 2211 N 201.022 0.148545 -1.56898 0
M  V30 2212 C 201.952 1.18524 -2.01182 0
M  V30 2213 C 202.933 1.4489 -0.891123 0
M  V30 2214 O 204.118 1.55836 -1.15882 0
M  V30 2215 C 201.248 2.51879 -2.39112 0
M  V30 2216 C 200.202 2.40038 -3.54353 0
M  V30 2217 C 199.528 3.78089 -3.78091 0
M  V30 2218 C 200.828 1.88577 -4.87069 0
M  V30 2219 H 202.522 0.817029 -2.88036 0
M  V30 2220 H 200.068 0.391575 -1.38574 0
M  V30 2221 H 202.021 3.24627 -2.68692 0
M  V30 2222 H 200.745 2.90532 -1.49193 0
M  V30 2223 H 199.404 1.69742 -3.24936 0
M  V30 2224 H 199.052 4.14175 -2.85426 0
M  V30 2225 H 198.752 3.71028 -4.55645 0
M  V30 2226 H 200.276 4.52387 -4.10095 0
M  V30 2227 H 201.69 2.51117 -5.15377 0
M  V30 2228 H 200.087 1.9241 -5.68417 0
M  V30 2229 H 201.157 0.84136 -4.77545 0
M  V30 2230 N 202.5 1.5196 0.417844 0
M  V30 2231 C 203.43 1.77634 1.51554 0
M  V30 2232 C 204.411 0.626918 1.58126 0
M  V30 2233 O 205.596 0.871632 1.7354 0
M  V30 2234 C 202.726 1.91911 2.8946 0
M  V30 2235 C 201.68 3.07463 2.97743 0
M  V30 2236 C 201.006 3.06951 4.37819 0
M  V30 2237 C 202.306 4.47082 2.70027 0
M  V30 2238 H 204 2.6955 1.3032 0
M  V30 2239 H 201.546 1.29706 0.625492 0
M  V30 2240 H 203.499 2.08455 3.6623 0
M  V30 2241 H 202.223 0.966598 3.11969 0
M  V30 2242 H 200.882 2.90656 2.23416 0
M  V30 2243 H 200.53 2.09438 4.57323 0
M  V30 2244 H 200.23 3.84556 4.44286 0
M  V30 2245 H 201.754 3.25613 5.16535 0
M  V30 2246 H 203.168 4.6414 3.36522 0
M  V30 2247 H 201.565 5.2654 2.87881 0
M  V30 2248 H 202.635 4.55777 1.65514 0
M  V30 2249 N 203.978 -0.674533 1.42435 0
M  V30 2250 C 204.91 -1.80005 1.41883 0
M  V30 2251 C 205.923 -1.59667 0.31787 0
M  V30 2252 O 207.112 -1.68781 0.580973 0
M  V30 2253 C 204.212 -3.17114 1.19549 0
M  V30 2254 C 203.385 -3.64299 2.42084 0
M  V30 2255 C 202.444 -4.80142 2.15291 0
M  V30 2256 O 201.47 -4.90673 2.88493 0
M  V30 2257 N 202.672 -5.68869 1.1562 0
M  V30 2258 H 205.437 -1.80964 2.38898 0
M  V30 2259 H 202.998 -0.857633 1.37318 0
M  V30 2260 H 204.99 -3.92267 0.995417 0
M  V30 2261 H 203.56 -3.11053 0.310569 0
M  V30 2262 H 202.78 -2.79822 2.77657 0
M  V30 2263 H 204.068 -3.92567 3.23679 0
M  V30 2264 H 203.466 -5.63012 0.550765 0
M  V30 2265 H 202.023 -6.43833 1.016 0
M  V30 2266 N 205.456 -1.28612 -0.910864 0
M  V30 2267 C 206.389 -1.07109 -2.01502 0
M  V30 2268 C 207.367 0.013706 -1.62594 0
M  V30 2269 O 208.551 -0.134796 -1.88017 0
M  V30 2270 C 205.678 -0.628255 -3.32822 0
M  V30 2271 C 204.724 -1.71012 -3.90714 0
M  V30 2272 S 205.557 -3.30676 -4.21205 0
M  V30 2273 C 206.713 -2.88234 -5.55583 0
M  V30 2274 H 206.946 -2.00591 -2.19432 0
M  V30 2275 H 204.479 -1.12633 -1.05609 0
M  V30 2276 H 206.437 -0.37946 -4.08742 0
M  V30 2277 H 205.098 0.28678 -3.12788 0
M  V30 2278 H 204.291 -1.35195 -4.85529 0
M  V30 2279 H 203.893 -1.91186 -3.21441 0
M  V30 2280 H 206.185 -2.34584 -6.35591 0
M  V30 2281 H 207.128 -3.81857 -5.96314 0
M  V30 2282 H 207.536 -2.26862 -5.16908 0
M  V30 2283 N 206.934 1.1197 -1.10907 0
M  V30 2284 C 207.844 2.21433 -0.774896 0
M  V30 2285 C 208.86 1.72478 0.229657 0
M  V30 2286 O 210.036 2.01288 0.0672008 0
M  V30 2287 C 207.101 3.4602 -0.216986 0
M  V30 2288 C 206.162 4.09791 -1.27944 0
M  V30 2289 C 205.395 5.28431 -0.748055 0
M  V30 2290 O 205.618 5.68823 0.423833 0
M  V30 2291 O 204.552 5.82644 -1.51027 0
M  V30 2292 H 208.378 2.5242 -1.68873 0
M  V30 2293 H 205.963 1.20399 -0.884555 0
M  V30 2294 H 207.845 4.21304 0.090059 0
M  V30 2295 H 206.52 3.16698 0.669633 0
M  V30 2296 H 205.427 3.36265 -1.63941 0
M  V30 2297 H 206.76 4.4328 -2.13925 0
M  V30 2298 N 208.412 0.89855 1.29475 0
M  V30 2299 C 209.342 0.39201 2.30186 0
M  V30 2300 C 210.323 -0.532359 1.61555 0
M  V30 2301 O 211.508 -0.443331 1.89072 0
M  V30 2302 C 208.638 -0.382353 3.45189 0
M  V30 2303 C 207.592 0.451483 4.25612 0
M  V30 2304 C 206.918 -0.450307 5.328 0
M  V30 2305 C 208.218 1.70079 4.93832 0
M  V30 2306 H 209.912 1.23362 2.72804 0
M  V30 2307 H 207.458 0.594638 1.31149 0
M  V30 2308 H 209.411 -0.747451 4.14718 0
M  V30 2309 H 208.135 -1.25774 3.01411 0
M  V30 2310 H 206.794 0.798897 3.57789 0
M  V30 2311 H 206.442 -1.32379 4.85268 0
M  V30 2312 H 206.142 0.103902 5.87508 0
M  V30 2313 H 207.666 -0.811623 6.05182 0
M  V30 2314 H 209.08 1.40549 5.55805 0
M  V30 2315 H 207.477 2.19623 5.58467 0
M  V30 2316 H 208.547 2.43744 4.19186 0
M  V30 2317 N 209.89 -1.43072 0.660911 0
M  V30 2318 C 210.82 -2.33497 -0.0122829 0
M  V30 2319 C 211.801 -1.49903 -0.803925 0
M  V30 2320 O 212.986 -1.78546 -0.763864 0
M  V30 2321 C 210.116 -3.33363 -0.973994 0
M  V30 2322 C 209.07 -4.27003 -0.291928 0
M  V30 2323 C 208.396 -5.16967 -1.36562 0
M  V30 2324 C 209.696 -5.15816 0.820462 0
M  V30 2325 H 211.39 -2.90038 0.742873 0
M  V30 2326 H 208.936 -1.39461 0.358688 0
M  V30 2327 H 210.889 -3.95524 -1.45392 0
M  V30 2328 H 209.613 -2.75095 -1.7604 0
M  V30 2329 H 208.272 -3.66217 0.167623 0
M  V30 2330 H 207.92 -4.55034 -2.14366 0
M  V30 2331 H 207.62 -5.80441 -0.914454 0
M  V30 2332 H 209.144 -5.82003 -1.84675 0
M  V30 2333 H 210.558 -5.71742 0.422366 0
M  V30 2334 H 208.955 -5.8805 1.19656 0
M  V30 2335 H 210.025 -4.55045 1.67518 0
M  V30 2336 N 211.368 -0.403325 -1.52352 0
M  V30 2337 C 212.298 0.416205 -2.29761 0
M  V30 2338 C 213.279 1.05123 -1.33728 0
M  V30 2339 O 214.464 1.06134 -1.62632 0
M  V30 2340 C 211.594 1.53624 -3.11475 0
M  V30 2341 C 210.548 1.02653 -4.15507 0
M  V30 2342 C 209.874 2.23971 -4.85532 0
M  V30 2343 C 211.174 0.08463 -5.22231 0
M  V30 2344 H 212.868 -0.229701 -2.98518 0
M  V30 2345 H 210.414 -0.111913 -1.43564 0
M  V30 2346 H 212.367 2.1165 -3.64393 0
M  V30 2347 H 211.091 2.20994 -2.40477 0
M  V30 2348 H 209.75 0.46871 -3.63591 0
M  V30 2349 H 209.398 2.89883 -4.11068 0
M  V30 2350 H 209.098 1.90521 -5.55856 0
M  V30 2351 H 210.622 2.82614 -5.41259 0
M  V30 2352 H 212.036 0.573509 -5.70424 0
M  V30 2353 H 210.433 -0.160783 -5.99885 0
M  V30 2354 H 211.503 -0.86237 -4.7717 0
M  V30 2355 N 212.846 1.57033 -0.133567 0
M  V30 2356 C 214.092 1.95976 0.521649 0
M  V30 2357 C 214.425 1.01779 1.65393 0
M  V30 2358 O 213.7 0.0576581 1.94415 0
M  V30 2359 C 213.983 3.44738 1.04057 0
M  V30 2360 C 213.836 4.49711 -0.0892897 0
M  V30 2361 C 215.155 3.95682 1.92675 0
M  V30 2362 H 212.274 0.712579 0.188149 0
M  V30 2363 H 214.916 1.88813 -0.212076 0
M  V30 2364 H 213.066 3.50973 1.66583 0
M  V30 2365 H 214.738 4.55565 -0.725152 0
M  V30 2366 H 212.981 4.27261 -0.750378 0
M  V30 2367 H 213.652 5.51099 0.315284 0
M  V30 2368 H 216.128 3.91841 1.39998 0
M  V30 2369 H 215.004 5.00262 2.25897 0
M  V30 2370 H 215.265 3.37239 2.85872 0
M  V30 2371 N 214.325 -0.140222 1.56975 0
M  V30 2372 C 215.273 -1.19207 1.99731 0
M  V30 2373 C 216.267 -1.44089 0.890777 0
M  V30 2374 O 217.473 -1.44301 1.07597 0
M  V30 2375 H 213.848 -0.40142 0.635898 0
M  V30 2376 H 215.819 -0.804813 2.87342 0
M  V30 2377 C 214.568 -2.51617 2.39967 0
M  V30 2378 H 213.891 -2.33303 3.24669 0
M  V30 2379 H 215.331 -3.23827 2.73701 0
M  V30 2380 C 213.79 -3.12654 1.25496 0
M  V30 2381 O 214.32 -3.97786 0.559371 0
M  V30 2382 N 212.526 -2.72206 1.01746 0
M  V30 2383 H 212.073 -2.03074 1.58489 0
M  V30 2384 H 212.031 -3.13377 0.253461 0
M  V30 2385 N 215.803 -1.52179 -0.40978 0
M  V30 2386 C 216.75 -1.75475 -1.49924 0
M  V30 2387 C 217.72 -0.597175 -1.54994 0
M  V30 2388 O 218.905 -0.834655 -1.71575 0
M  V30 2389 C 216.045 -1.9107 -2.87378 0
M  V30 2390 C 215.158 -3.18717 -2.91622 0
M  V30 2391 C 214.293 -3.24747 -4.20372 0
M  V30 2392 C 213.332 -4.46598 -4.18588 0
M  V30 2393 N 212.469 -4.50025 -5.38908 0
M  V30 2394 H 217.309 -2.68458 -1.29361 0
M  V30 2395 H 214.846 -1.33024 -0.627934 0
M  V30 2396 H 216.804 -1.98096 -3.6717 0
M  V30 2397 H 215.434 -1.01469 -3.06437 0
M  V30 2398 H 214.486 -3.20866 -2.04326 0
M  V30 2399 H 215.798 -4.08544 -2.86169 0
M  V30 2400 H 214.952 -3.30841 -5.08556 0
M  V30 2401 H 213.691 -2.32857 -4.28519 0
M  V30 2402 H 212.696 -4.40652 -3.28794 0
M  V30 2403 H 213.921 -5.39783 -4.12081 0
M  V30 2404 H 211.867 -3.61017 -5.47725 0
M  V30 2405 H 211.784 -5.33697 -5.35447 0
M  V30 2406 H 213.052 -4.60347 -6.29048 0
M  V30 2407 N 217.281 0.66697 -1.42791 0
M  V30 2408 C 218.211 1.79218 -1.49677 0
M  V30 2409 C 219.192 1.66405 -0.352623 0
M  V30 2410 O 220.377 1.85708 -0.567993 0
M  V30 2411 C 217.507 3.17565 -1.40605 0
M  V30 2412 C 216.461 3.45124 -2.53127 0
M  V30 2413 C 215.787 4.83127 -2.29112 0
M  V30 2414 C 217.087 3.41236 -3.95418 0
M  V30 2415 H 218.781 1.73713 -2.43853 0
M  V30 2416 H 216.327 0.83432 -1.17367 0
M  V30 2417 H 218.28 3.96022 -1.44029 0
M  V30 2418 H 217.004 3.23767 -0.429271 0
M  V30 2419 H 215.663 2.69031 -2.49034 0
M  V30 2420 H 215.311 4.85988 -1.29709 0
M  V30 2421 H 215.011 5.02528 -3.04531 0
M  V30 2422 H 216.535 5.63859 -2.34297 0
M  V30 2423 H 217.949 4.09651 -4.01073 0
M  V30 2424 H 216.346 3.72173 -4.70752 0
M  V30 2425 H 217.416 2.39665 -4.21532 0
M  V30 2426 N 218.759 1.29093 0.90403 0
M  V30 2427 C 219.706 1.13853 2.00764 0
M  V30 2428 C 220.676 0.0330084 1.66067 0
M  V30 2429 O 221.861 0.199733 1.89752 0
M  V30 2430 C 219.001 0.816537 3.35301 0
M  V30 2431 C 218.114 2.00206 3.82807 0
M  V30 2432 C 217.249 1.61983 5.059 0
M  V30 2433 C 216.288 2.77143 5.45764 0
M  V30 2434 N 215.425 2.39346 6.60044 0
M  V30 2435 H 220.265 2.08276 2.13132 0
M  V30 2436 H 217.802 1.03648 1.04381 0
M  V30 2437 H 219.76 0.610557 4.12708 0
M  V30 2438 H 218.39 -0.090779 3.22672 0
M  V30 2439 H 217.442 2.31988 3.01473 0
M  V30 2440 H 218.754 2.86512 4.08304 0
M  V30 2441 H 217.908 1.37649 5.90879 0
M  V30 2442 H 216.647 0.728202 4.82233 0
M  V30 2443 H 215.652 3.02165 4.59322 0
M  V30 2444 H 216.877 3.66964 5.71414 0
M  V30 2445 H 214.823 1.52665 6.37989 0
M  V30 2446 H 214.74 3.19185 6.85315 0
M  V30 2447 H 216.008 2.1832 7.48303 0
M  V30 2448 N 220.237 -1.11381 1.11499 0
M  V30 2449 C 221.483 -1.83597 0.875423 0
M  V30 2450 C 221.838 -1.83048 -0.592555 0
M  V30 2451 O 221.131 -1.27304 -1.43193 0
M  V30 2452 C 221.325 -3.30026 1.37177 0
M  V30 2453 C 221.154 -3.44837 2.88647 0
M  V30 2454 C 219.924 -3.57825 3.56776 0
M  V30 2455 C 222.122 -3.3907 3.86699 0
M  V30 2456 N 220.104 -3.61113 4.96458 0
M  V30 2457 C 221.475 -3.48986 5.12454 0
M  V30 2458 C 223.53 -3.22605 3.7925 0
M  V30 2459 C 222.233 -3.44135 6.31636 0
M  V30 2460 C 224.259 -3.19072 4.97943 0
M  V30 2461 C 223.621 -3.29559 6.22551 0
M  V30 2462 H 219.72 -0.687044 0.37349 0
M  V30 2463 H 222.304 -1.33265 1.41946 0
M  V30 2464 H 220.475 -3.78874 0.854919 0
M  V30 2465 H 222.207 -3.90153 1.07529 0
M  V30 2466 H 218.962 -3.60414 3.07244 0
M  V30 2467 H 219.386 -3.66394 5.69284 0
M  V30 2468 H 224.028 -3.13382 2.83816 0
M  V30 2469 H 221.746 -3.52126 7.27347 0
M  V30 2470 H 225.332 -3.07498 4.93899 0
M  V30 2471 H 224.212 -3.26815 7.12855 0
M  V30 2472 N 221.715 -0.905404 -1.28997 0
M  V30 2473 C 222.663 -0.377431 -2.29517 0
M  V30 2474 C 223.657 0.526461 -1.61012 0
M  V30 2475 O 224.863 0.40863 -1.753 0
M  V30 2476 H 221.238 -0.103437 -0.744852 0
M  V30 2477 H 223.209 -1.23848 -2.71485 0
M  V30 2478 C 221.958 0.374833 -3.45674 0
M  V30 2479 H 221.281 -0.311474 -3.98585 0
M  V30 2480 H 222.721 0.70903 -4.1803 0
M  V30 2481 C 221.18 1.57963 -2.97572 0
M  V30 2482 O 221.71 2.67886 -2.99333 0
M  V30 2483 N 219.916 1.42375 -2.53333 0
M  V30 2484 H 219.463 0.529466 -2.521 0
M  V30 2485 H 219.421 2.23117 -2.21509 0
M  V30 2486 N 223.193 1.4272 -0.668489 0
M  V30 2487 C 224.123 2.335 -0.000100175 0
M  V30 2488 C 225.104 1.50328 0.795964 0
M  V30 2489 O 226.289 1.78949 0.754385 0
M  V30 2490 C 223.419 3.33874 0.956302 0
M  V30 2491 C 222.373 4.27152 0.269278 0
M  V30 2492 C 221.699 5.17684 1.33818 0
M  V30 2493 C 222.999 5.15373 -0.847805 0
M  V30 2494 H 224.693 2.89639 -0.758244 0
M  V30 2495 H 222.239 1.39269 -0.366079 0
M  V30 2496 H 224.192 3.9629 1.43292 0
M  V30 2497 H 222.916 2.76025 1.74579 0
M  V30 2498 H 221.575 3.66123 -0.187042 0
M  V30 2499 H 221.223 4.56165 2.1195 0
M  V30 2500 H 220.923 5.80918 0.883659 0
M  V30 2501 H 222.447 5.82974 1.81586 0
M  V30 2502 H 223.861 5.7151 -0.452681 0
M  V30 2503 H 222.258 5.87407 -1.22773 0
M  V30 2504 H 223.328 4.5415 -1.69929 0
M  V30 2505 N 224.671 0.411399 1.52136 0
M  V30 2506 C 225.634 -0.401089 2.25663 0
M  V30 2507 C 226.634 -0.971732 1.28117 0
M  V30 2508 O 227.824 -0.850254 1.52041 0
M  V30 2509 C 224.956 -1.56483 3.02863 0
M  V30 2510 H 226.149 0.24295 2.98914 0
M  V30 2511 H 223.702 0.163968 1.55438 0
M  V30 2512 H 224.437 -2.24567 2.33967 0
M  V30 2513 H 224.222 -1.16211 3.74483 0
M  V30 2514 H 225.712 -2.13951 3.58629 0
M  V30 2515 N 226.149 -1.5696 0.141893 0
M  V30 2516 C 227.112 -2.15316 -0.785587 0
M  V30 2517 C 228.112 -1.09366 -1.1788 0
M  V30 2518 O 229.302 -1.35031 -1.10056 0
M  V30 2519 C 226.434 -2.71211 -2.06537 0
M  V30 2520 H 227.627 -2.98608 -0.278041 0
M  V30 2521 H 225.18 -1.5593 -0.107519 0
M  V30 2522 H 225.915 -1.91571 -2.6167 0
M  V30 2523 H 225.7 -3.4872 -1.79268 0
M  V30 2524 H 227.19 -3.16189 -2.72789 0
M  V30 2525 N 227.627 0.131896 -1.57047 0
M  V30 2526 C 228.56 1.19236 -1.94571 0
M  V30 2527 C 229.538 1.40782 -0.813576 0
M  V30 2528 O 230.722 1.55148 -1.07058 0
M  V30 2529 C 227.849 2.54858 -2.23081 0
M  V30 2530 C 226.895 2.49817 -3.45679 0
M  V30 2531 S 227.728 1.95036 -4.98719 0
M  V30 2532 C 228.884 3.32357 -5.30367 0
M  V30 2533 H 229.117 0.872297 -2.84215 0
M  V30 2534 H 226.65 0.338134 -1.50652 0
M  V30 2535 H 228.608 3.32898 -2.40185 0
M  V30 2536 H 227.269 2.84047 -1.34074 0
M  V30 2537 H 226.462 3.49688 -3.62952 0
M  V30 2538 H 226.064 1.79892 -3.27895 0
M  V30 2539 H 228.356 4.28525 -5.2476 0
M  V30 2540 H 229.299 3.19923 -6.31708 0
M  V30 2541 H 229.707 3.3019 -4.57859 0
M  V30 2542 N 229.106 1.52395 0.401703 0
M  V30 2543 C 230.334 1.70676 1.16949 0
M  V30 2544 C 230.749 0.419503 1.8408 0
M  V30 2545 O 230.106 -0.605061 1.72178 0
M  V30 2546 C 230.157 2.84753 2.22706 0
M  V30 2547 O 229.878 4.08495 1.58314 0
M  V30 2548 C 231.379 3.14608 3.12309 0
M  V30 2549 H 228.599 0.571787 0.351142 0
M  V30 2550 H 231.143 1.98987 0.471652 0
M  V30 2551 H 229.298 2.58941 2.88147 0
M  V30 2552 H 229.712 4.72117 2.28485 0
M  V30 2553 H 231.186 3.97923 3.82572 0
M  V30 2554 H 231.663 2.28464 3.75101 0
M  V30 2555 H 232.269 3.42212 2.52529 0
M  V30 2556 N 230.584 -0.659388 1.43143 0
M  V30 2557 C 231.995 -1.24041 1.39537 0
M  V30 2558 C 232.346 -1.95963 0.0963364 0
M  V30 2559 O 231.471 -2.00892 -0.804438 0
M  V30 2560 C 232.066 -2.25601 2.52764 0
M  V30 2561 C 230.625 -2.79195 2.52443 0
M  V30 2562 C 229.772 -1.53743 2.30778 0
M  V30 2563 H 232.723 -0.451792 1.52133 0
M  V30 2564 H 232.744 -3.07651 2.23899 0
M  V30 2565 H 232.256 -1.73226 3.47296 0
M  V30 2566 H 230.357 -3.35649 1.61773 0
M  V30 2567 H 230.47 -3.2716 3.50004 0
M  V30 2568 H 228.834 -1.80869 1.79328 0
M  V30 2569 H 229.617 -1.03312 3.27386 0
M  V30 2570 N 232.062 -1.29571 -0.897171 0
M  V30 2571 C 233.012 -1.11539 -1.98855 0
M  V30 2572 C 233.996 -0.0340716 -1.60864 0
M  V30 2573 O 235.188 -0.256062 -1.75138 0
M  V30 2574 C 232.317 -0.796603 -3.3393 0
M  V30 2575 C 231.403 -1.91758 -3.78272 0
M  V30 2576 N 231.794 -3.16143 -3.94826 0
M  V30 2577 C 230.092 -1.81119 -4.07568 0
M  V30 2578 C 230.793 -3.89293 -4.32233 0
M  V30 2579 N 229.769 -3.17255 -4.41419 0
M  V30 2580 H 233.571 -2.05894 -2.09726 0
M  V30 2581 H 231.085 -1.20732 -1.08616 0
M  V30 2582 H 233.082 -0.648459 -4.11826 0
M  V30 2583 H 231.742 0.139003 -3.24402 0
M  V30 2584 H 232.753 -3.5157 -3.80288 0
M  V30 2585 H 229.43 -0.948461 -4.06584 0
M  V30 2586 H 230.82 -4.9635 -4.52865 0
M  V30 2587 N 233.54 1.10788 -1.12088 0
M  V30 2588 C 234.817 1.79136 -0.785476 0
M  V30 2589 C 235.197 1.98246 0.725377 0
M  V30 2590 O 234.545 1.57258 1.65778 0
M  V30 2591 C 234.755 3.12375 -1.55636 0
M  V30 2592 C 236.103 3.8731 -1.74001 0
M  V30 2593 O 237.127 3.22085 -1.52117 0
M  V30 2594 O 235.986 5.04369 -2.10415 0
M  V30 2595 H 233.08 0.776226 -0.285311 0
M  V30 2596 H 235.626 1.1747 -1.2247 0
M  V30 2597 H 234.398 2.93863 -2.5838 0
M  V30 2598 H 234.021 3.81758 -1.11114 0
M  V30 2599 N 235.018 0.912232 1.28515 0
M  V30 2600 C 236.265 0.544599 1.95039 0
M  V30 2601 C 236.593 -0.911435 1.71823 0
M  V30 2602 O 235.848 -1.66317 1.03137 0
M  V30 2603 C 236.147 0.798392 3.48368 0
M  V30 2604 C 235.813 2.23374 3.91682 0
M  V30 2605 C 234.475 2.62617 4.03219 0
M  V30 2606 C 236.827 3.16786 4.13879 0
M  V30 2607 C 234.155 3.94429 4.3433 0
M  V30 2608 C 236.507 4.48161 4.46469 0
M  V30 2609 C 235.171 4.8726 4.56217 0
M  V30 2610 H 234.441 0.199283 0.7137 0
M  V30 2611 H 237.088 1.15327 1.52879 0
M  V30 2612 H 235.393 0.106908 3.91654 0
M  V30 2613 H 237.09 0.493141 3.97956 0
M  V30 2614 H 233.68 1.91922 3.83228 0
M  V30 2615 H 237.864 2.87677 4.0442 0
M  V30 2616 H 233.12 4.24426 4.40082 0
M  V30 2617 H 237.294 5.20559 4.62592 0
M  V30 2618 H 234.921 5.89431 4.80078 0
M  V30 2619 N 236.496 -1.42363 0.676048 0
M  V30 2620 C 237.745 -2.00745 0.196037 0
M  V30 2621 C 238.058 -1.54083 -1.20489 0
M  V30 2622 O 239.264 -2.04891 -1.78134 0
M  V30 2623 C 237.72 -3.58651 0.299616 0
M  V30 2624 C 237.328 -4.143 1.70468 0
M  V30 2625 C 239.072 -4.24326 -0.121619 0
M  V30 2626 C 236.979 -5.64574 1.76096 0
M  V30 2627 H 235.909 -0.750787 0.0695301 0
M  V30 2628 H 238.56 -1.63072 0.841412 0
M  V30 2629 H 236.942 -3.93833 -0.413673 0
M  V30 2630 H 238.116 -3.90575 2.44515 0
M  V30 2631 H 236.431 -3.61081 2.07387 0
M  V30 2632 H 239.028 -5.34607 -0.0997362 0
M  V30 2633 H 239.371 -3.99897 -1.15708 0
M  V30 2634 H 239.904 -3.94108 0.540706 0
M  V30 2635 H 236.643 -5.93804 2.77628 0
M  V30 2636 H 236.163 -5.90286 1.06406 0
M  V30 2637 H 237.842 -6.29013 1.51496 0
M  V30 2638 N 237.974 -0.419461 -1.51915 0
M  V30 2639 C 238.884 0.407528 -2.31033 0
M  V30 2640 C 239.9 1.04413 -1.3919 0
M  V30 2641 O 241.076 1.0434 -1.72265 0
M  V30 2642 C 238.141 1.50365 -3.12396 0
M  V30 2643 C 237.202 0.889029 -4.19994 0
M  V30 2644 C 236.435 1.93291 -4.97468 0
M  V30 2645 O 236.658 3.15259 -4.75361 0
M  V30 2646 O 235.592 1.53339 -5.8204 0
M  V30 2647 H 239.418 -0.237865 -3.02767 0
M  V30 2648 H 237.003 -0.182413 -1.48282 0
M  V30 2649 H 238.885 2.13975 -3.63032 0
M  V30 2650 H 237.56 2.13345 -2.43445 0
M  V30 2651 H 236.467 0.215353 -3.7348 0
M  V30 2652 H 237.8 0.302991 -4.91267 0
M  V30 2653 N 239.452 1.56882 -0.150215 0
M  V30 2654 C 240.402 2.13501 0.800071 0
M  V30 2655 C 241.386 1.06368 1.20726 0
M  V30 2656 O 242.578 1.32538 1.17314 0
M  V30 2657 C 239.707 2.76271 2.03787 0
M  V30 2658 C 238.793 3.90533 1.65364 0
M  V30 2659 N 239.184 4.96259 0.977794 0
M  V30 2660 C 237.482 4.013 1.94613 0
M  V30 2661 C 238.183 5.76286 0.791794 0
M  V30 2662 N 237.159 5.27163 1.32666 0
M  V30 2663 H 240.961 2.92615 0.274517 0
M  V30 2664 H 238.475 1.62319 0.0512144 0
M  V30 2665 H 240.472 3.15197 2.72867 0
M  V30 2666 H 239.132 1.98631 2.56857 0
M  V30 2667 H 240.143 5.13953 0.638193 0
M  V30 2668 H 236.82 3.3474 2.4951 0
M  V30 2669 H 238.21 6.71401 0.258894 0
M  V30 2670 N 240.93 -0.123565 1.57115 0
M  V30 2671 C 242.177 -0.832153 1.84612 0
M  V30 2672 C 242.505 -1.80093 0.734627 0
M  V30 2673 O 241.76 -1.93766 -0.27442 0
M  V30 2674 C 242.059 -1.62016 3.18568 0
M  V30 2675 C 241.725 -0.796084 4.43817 0
M  V30 2676 C 240.387 -0.568816 4.77826 0
M  V30 2677 C 242.739 -0.221364 5.2073 0
M  V30 2678 C 240.067 0.243499 5.86194 0
M  V30 2679 C 242.419 0.578117 6.29953 0
M  V30 2680 C 241.083 0.815744 6.62497 0
M  V30 2681 H 240.353 -0.304507 0.675542 0
M  V30 2682 H 243 -0.0947248 1.91266 0
M  V30 2683 H 241.305 -2.42837 3.0747 0
M  V30 2684 H 243.002 -2.17231 3.37064 0
M  V30 2685 H 239.592 -0.983307 4.17168 0
M  V30 2686 H 243.776 -0.384173 4.94811 0
M  V30 2687 H 239.032 0.436871 6.09837 0
M  V30 2688 H 243.206 1.03046 6.88734 0
M  V30 2689 H 240.833 1.44701 7.46301 0
M  V30 2690 N 242.408 -1.52605 -0.393616 0
M  V30 2691 C 243.338 -1.80022 -1.48709 0
M  V30 2692 C 244.319 -0.651995 -1.57108 0
M  V30 2693 O 245.504 -0.89913 -1.72132 0
M  V30 2694 C 242.634 -1.96492 -2.86371 0
M  V30 2695 C 241.588 -3.12161 -2.92813 0
M  V30 2696 C 240.914 -3.13877 -4.3288 0
M  V30 2697 C 242.214 -4.51322 -2.6288 0
M  V30 2698 H 243.908 -2.71589 -1.26015 0
M  V30 2699 H 241.454 -1.30684 -0.604778 0
M  V30 2700 H 243.407 -2.14255 -3.62867 0
M  V30 2701 H 242.131 -1.01611 -3.10391 0
M  V30 2702 H 240.79 -2.94173 -2.18764 0
M  V30 2703 H 240.438 -2.16687 -4.53933 0
M  V30 2704 H 240.138 -3.91576 -4.38112 0
M  V30 2705 H 241.662 -3.33789 -5.1129 0
M  V30 2706 H 243.076 -4.69435 -3.29096 0
M  V30 2707 H 241.473 -5.31053 -2.79468 0
M  V30 2708 H 242.543 -4.58353 -1.58242 0
M  V30 2709 N 243.887 0.651787 -1.4349 0
M  V30 2710 C 245.112 1.44434 -1.48841 0
M  V30 2711 C 245.537 1.8779 -0.107955 0
M  V30 2712 O 244.895 1.57464 0.898602 0
M  V30 2713 C 244.943 2.65458 -2.44059 0
M  V30 2714 O 244.047 3.64566 -1.92784 0
M  V30 2715 H 243.388 0.433005 -0.503391 0
M  V30 2716 H 245.918 0.797451 -1.88419 0
M  V30 2717 H 245.928 3.13255 -2.6141 0
M  V30 2718 H 244.603 2.33244 -3.4434 0
M  V30 2719 H 243.18 3.23716 -1.851 0
M  V30 2720 N 245.365 1.30045 0.890287 0
M  V30 2721 C 246.312 1.15976 1.99545 0
M  V30 2722 C 247.282 0.0506202 1.66023 0
M  V30 2723 O 248.467 0.219847 1.89529 0
M  V30 2724 C 245.607 0.852054 3.34416 0
M  V30 2725 C 244.72 2.04255 3.80662 0
M  V30 2726 C 243.855 1.6734 5.04154 0
M  V30 2727 C 242.894 2.82916 5.42794 0
M  V30 2728 N 242.031 2.46333 6.57468 0
M  V30 2729 H 246.871 2.10524 2.10911 0
M  V30 2730 H 244.408 1.04749 1.03276 0
M  V30 2731 H 246.366 0.654296 4.12037 0
M  V30 2732 H 244.996 -0.0565502 3.2275 0
M  V30 2733 H 244.048 2.35172 2.98995 0
M  V30 2734 H 245.36 2.90826 4.05242 0
M  V30 2735 H 244.514 1.43908 5.89386 0
M  V30 2736 H 243.253 0.779308 4.81433 0
M  V30 2737 H 242.258 3.0702 4.56091 0
M  V30 2738 H 243.483 3.73004 5.6749 0
M  V30 2739 H 241.429 1.59423 6.36334 0
M  V30 2740 H 241.346 3.26436 6.81891 0
M  V30 2741 H 242.614 2.26244 7.45945 0
M  V30 2742 N 246.843 -1.10192 1.12674 0
M  V30 2743 C 247.776 -2.15847 0.740625 0
M  V30 2744 C 248.754 -1.60352 -0.269421 0
M  V30 2745 O 249.938 -1.87796 -0.16278 0
M  V30 2746 C 247.065 -3.38562 0.096641 0
M  V30 2747 C 246.111 -4.12758 1.07391 0
M  V30 2748 S 246.944 -4.67997 2.60267 0
M  V30 2749 C 248.1 -5.94021 1.97206 0
M  V30 2750 H 248.333 -2.48266 1.63558 0
M  V30 2751 H 245.866 -1.22019 0.946087 0
M  V30 2752 H 247.824 -4.09621 -0.268535 0
M  V30 2753 H 246.485 -3.04377 -0.775462 0
M  V30 2754 H 245.678 -5.00755 0.570997 0
M  V30 2755 H 245.28 -3.47523 1.38216 0
M  V30 2756 H 247.572 -6.64589 1.31634 0
M  V30 2757 H 248.515 -6.48979 2.83253 0
M  V30 2758 H 248.923 -5.46169 1.42686 0
M  V30 2759 N 248.321 -0.919034 -1.28029 0
M  V30 2760 C 249.732 -0.600735 -1.76771 0
M  V30 2761 C 250.083 0.884024 -1.75156 0
M  V30 2762 O 249.208 1.69163 -1.34956 0
M  V30 2763 C 249.803 -1.08372 -3.21 0
M  V30 2764 C 248.362 -0.816248 -3.67443 0
M  V30 2765 C 247.509 -1.24742 -2.47658 0
M  V30 2766 H 250.46 -1.09974 -1.14418 0
M  V30 2767 H 250.481 -0.427512 -3.78091 0
M  V30 2768 H 249.993 -2.16437 -3.22144 0
M  V30 2769 H 248.094 0.250968 -3.71754 0
M  V30 2770 H 248.207 -1.4277 -4.57333 0
M  V30 2771 H 246.571 -0.666083 -2.45836 0
M  V30 2772 H 247.354 -2.33653 -2.51518 0
M  V30 2773 N 249.799 1.42003 -0.683588 0
M  V30 2774 C 250.709 2.34597 -0.0109075 0
M  V30 2775 C 251.725 1.55576 0.779245 0
M  V30 2776 O 252.901 1.88107 0.719555 0
M  V30 2777 C 249.966 3.34199 0.922588 0
M  V30 2778 C 249.027 4.29115 0.125984 0
M  V30 2779 C 248.26 5.23959 1.01502 0
M  V30 2780 O 248.483 5.23952 2.25456 0
M  V30 2781 O 247.417 6.00053 0.47111 0
M  V30 2782 H 251.243 2.93675 -0.773853 0
M  V30 2783 H 248.828 1.42654 -0.443861 0
M  V30 2784 H 250.71 3.95365 1.45823 0
M  V30 2785 H 249.385 2.77582 1.66523 0
M  V30 2786 H 248.292 3.71335 -0.453969 0
M  V30 2787 H 249.625 4.88798 -0.577736 0
M  V30 2788 N 251.277 0.427512 1.51691 0
M  V30 2789 C 252.24 -0.377132 2.26076 0
M  V30 2790 C 253.24 -0.958089 1.29141 0
M  V30 2791 O 254.43 -0.83408 1.52934 0
M  V30 2792 C 251.562 -1.53262 3.04506 0
M  V30 2793 H 252.755 0.27464 2.9864 0
M  V30 2794 H 250.308 0.180445 1.55255 0
M  V30 2795 H 251.043 -2.22072 2.36335 0
M  V30 2796 H 250.828 -1.12232 3.75694 0
M  V30 2797 H 252.318 -2.10135 3.60878 0
M  V30 2798 N 252.755 -1.56801 0.158532 0
M  V30 2799 C 253.665 -2.20916 -0.789518 0
M  V30 2800 C 254.681 -1.1969 -1.26294 0
M  V30 2801 O 255.857 -1.52308 -1.31773 0
M  V30 2802 C 252.922 -2.82727 -2.00665 0
M  V30 2803 C 251.983 -3.99114 -1.58134 0
M  V30 2804 C 251.216 -4.57968 -2.74045 0
M  V30 2805 O 251.439 -4.15704 -3.90572 0
M  V30 2806 O 250.373 -5.48047 -2.48855 0
M  V30 2807 H 254.199 -3.02464 -0.273681 0
M  V30 2808 H 251.784 -1.4924 -0.0690548 0
M  V30 2809 H 253.666 -3.21968 -2.71872 0
M  V30 2810 H 252.341 -2.04184 -2.51179 0
M  V30 2811 H 251.248 -3.64567 -0.839155 0
M  V30 2812 H 252.581 -4.79212 -1.12325 0
M  V30 2813 N 254.233 0.115231 -1.57178 0
M  V30 2814 C 255.143 1.15994 -2.03918 0
M  V30 2815 C 256.159 1.45103 -0.960268 0
M  V30 2816 O 257.335 1.56144 -1.27204 0
M  V30 2817 C 254.4 2.46568 -2.43732 0
M  V30 2818 C 253.461 2.24822 -3.65723 0
M  V30 2819 C 252.694 3.4917 -4.03629 0
M  V30 2820 O 252.917 4.56623 -3.41835 0
M  V30 2821 O 251.851 3.39949 -4.96708 0
M  V30 2822 H 255.677 0.793019 -2.93164 0
M  V30 2823 H 253.262 0.3263 -1.45793 0
M  V30 2824 H 255.144 3.23492 -2.70057 0
M  V30 2825 H 253.819 2.82726 -1.57631 0
M  V30 2826 H 252.726 1.45744 -3.44542 0
M  V30 2827 H 254.059 1.93566 -4.52541 0
M  V30 2828 N 255.711 1.52812 0.385517 0
M  V30 2829 C 256.659 1.78482 1.49155 0
M  V30 2830 C 257.653 0.652914 1.56312 0
M  V30 2831 O 258.859 0.835464 1.59436 0
M  V30 2832 H 255.234 0.5648 0.496493 0
M  V30 2833 H 257.205 2.71095 1.24699 0
M  V30 2834 C 255.954 1.97378 2.86247 0
M  V30 2835 H 255.277 2.83907 2.81491 0
M  V30 2836 H 256.717 2.19327 3.62866 0
M  V30 2837 C 255.176 0.74728 3.28508 0
M  V30 2838 O 255.706 -0.0736232 4.01633 0
M  V30 2839 N 253.912 0.576396 2.84826 0
M  V30 2840 H 253.459 1.24555 2.25486 0
M  V30 2841 H 253.417 -0.24288 3.1346 0
M  V30 2842 N 257.189 -0.644168 1.43834 0
M  V30 2843 C 258.136 -1.75671 1.49694 0
M  V30 2844 C 259.106 -1.6246 0.345809 0
M  V30 2845 O 260.291 -1.82573 0.554234 0
M  V30 2846 C 257.431 -3.13867 1.43463 0
M  V30 2847 C 256.544 -3.38147 2.6885 0
M  V30 2848 C 255.679 -4.66241 2.54544 0
M  V30 2849 C 254.718 -4.83657 3.75157 0
M  V30 2850 N 253.855 -6.03016 3.59605 0
M  V30 2851 H 258.695 -1.69998 2.44754 0
M  V30 2852 H 256.232 -0.829458 1.21484 0
M  V30 2853 H 258.19 -3.9377 1.37843 0
M  V30 2854 H 256.82 -3.18588 0.519783 0
M  V30 2855 H 255.872 -2.52276 2.84712 0
M  V30 2856 H 257.184 -3.46899 3.58417 0
M  V30 2857 H 256.338 -5.54285 2.46683 0
M  V30 2858 H 255.077 -4.59826 1.62516 0
M  V30 2859 H 254.082 -3.94046 3.83416 0
M  V30 2860 H 255.307 -4.91896 4.68204 0
M  V30 2861 H 253.253 -5.97715 2.7032 0
M  V30 2862 H 253.17 -6.12766 4.42779 0
M  V30 2863 H 254.438 -6.93657 3.55613 0
M  V30 2864 N 258.668 -1.30515 -0.883378 0
M  V30 2865 C 259.6 -1.12846 -1.99496 0
M  V30 2866 C 260.613 -0.0712571 -1.62644 0
M  V30 2867 O 261.802 -0.317432 -1.75655 0
M  V30 2868 C 258.902 -0.699123 -3.3161 0
M  V30 2869 C 258.075 -1.83842 -3.96889 0
M  V30 2870 C 257.134 -1.39737 -5.07307 0
M  V30 2871 O 256.16 -2.10485 -5.28852 0
M  V30 2872 N 257.362 -0.277279 -5.79837 0
M  V30 2873 H 260.127 -2.08585 -2.15203 0
M  V30 2874 H 257.688 -1.22672 -1.05656 0
M  V30 2875 H 259.68 -0.387044 -4.02845 0
M  V30 2876 H 258.25 0.166276 -3.12157 0
M  V30 2877 H 257.47 -2.31853 -3.18807 0
M  V30 2878 H 258.758 -2.60187 -4.37241 0
M  V30 2879 H 258.156 0.3122 -5.64838 0
M  V30 2880 H 256.713 -0.0246623 -6.51795 0
M  V30 2881 N 260.146 1.09593 -1.13257 0
M  V30 2882 C 261.395 1.81105 -0.887917 0
M  V30 2883 C 261.708 1.86563 0.587672 0
M  V30 2884 O 262.914 2.54367 0.949204 0
M  V30 2885 C 261.37 3.25338 -1.53895 0
M  V30 2886 C 260.978 3.28151 -3.04994 0
M  V30 2887 C 262.722 4.01617 -1.37492 0
M  V30 2888 C 260.629 4.66897 -3.6299 0
M  V30 2889 H 259.559 0.678661 -0.328534 0
M  V30 2890 H 262.21 1.23183 -1.36008 0
M  V30 2891 H 260.592 3.8331 -0.994446 0
M  V30 2892 H 261.766 2.79953 -3.66009 0
M  V30 2893 H 260.081 2.65361 -3.20893 0
M  V30 2894 H 262.678 5.04119 -1.78235 0
M  V30 2895 H 263.021 4.15072 -0.31957 0
M  V30 2896 H 263.554 3.50082 -1.88912 0
M  V30 2897 H 260.293 4.58643 -4.68323 0
M  V30 2898 H 259.813 5.15426 -3.06752 0
M  V30 2899 H 261.492 5.3587 -3.62563 0
M  V30 2900 N 261.624 0.925811 1.2754 0
M  V30 2901 C 262.873 0.561084 1.93739 0
M  V30 2902 C 263.186 -0.901685 1.73577 0
M  V30 2903 O 264.392 -1.37511 2.34101 0
M  V30 2904 C 262.848 0.952668 3.47062 0
M  V30 2905 C 262.456 2.43599 3.75983 0
M  V30 2906 C 264.2 0.659103 4.19352 0
M  V30 2907 C 262.107 2.76707 5.22673 0
M  V30 2908 H 261.037 0.206122 0.725279 0
M  V30 2909 H 263.688 1.12637 1.44863 0
M  V30 2910 H 262.07 0.316053 3.94737 0
M  V30 2911 H 263.244 3.12035 3.39073 0
M  V30 2912 H 261.559 2.70125 3.16893 0
M  V30 2913 H 264.156 0.882985 5.27359 0
M  V30 2914 H 264.499 -0.403607 4.14339 0
M  V30 2915 H 265.032 1.25473 3.77494 0
M  V30 2916 H 261.771 3.8188 5.32774 0
M  V30 2917 H 261.291 2.12919 5.60737 0
M  V30 2918 H 262.97 2.6435 5.90532 0
M  V30 2919 N 263.102 -1.41638 0.69111 0
M  V30 2920 C 264.518 -1.55435 0.362224 0
M  V30 2921 C 264.718 -1.66754 -1.13117 0
M  V30 2922 O 263.774 -1.64348 -1.91692 0
M  V30 2923 C 265.087 -2.79588 1.10684 0
M  V30 2924 C 266.635 -2.9338 1.09075 0
M  V30 2925 C 267.11 -4.20414 1.81703 0
M  V30 2926 N 268.601 -4.27362 1.7865 0
M  V30 2927 C 269.336 -5.24507 2.31689 0
M  V30 2928 N 268.832 -6.27708 2.93179 0
M  V30 2929 N 270.625 -5.16416 2.2197 0
M  V30 2930 H 262.776 -1.32536 1.65976 0
M  V30 2931 H 265.039 -0.639115 0.700168 0
M  V30 2932 H 264.745 -2.77419 2.16175 0
M  V30 2933 H 264.619 -3.70973 0.682545 0
M  V30 2934 H 267.006 -2.95067 0.0441238 0
M  V30 2935 H 267.087 -2.0318 1.55407 0
M  V30 2936 H 266.731 -4.19488 2.86343 0
M  V30 2937 H 266.661 -5.09578 1.32808 0
M  V30 2938 H 269.152 -3.53415 1.33815 0
M  V30 2939 H 269.465 -6.98217 3.31229 0
M  V30 2940 H 267.81 -6.28223 2.97255 0
M  V30 2941 H 271.001 -4.34716 1.73607 0
M  V30 2942 H 271.174 -5.91958 2.63609 0
M  V30 2943 N 264.58 -0.43555 -1.51462 0
M  V30 2944 C 265.527 0.376797 -2.27703 0
M  V30 2945 C 266.497 1.01838 -1.31219 0
M  V30 2946 O 267.682 1.03762 -1.60119 0
M  V30 2947 C 264.822 1.47301 -3.12084 0
M  V30 2948 C 263.935 0.849744 -4.2356 0
M  V30 2949 C 263.07 1.92086 -4.95254 0
M  V30 2950 C 262.109 1.27593 -5.98654 0
M  V30 2951 N 261.246 2.28833 -6.63762 0
M  V30 2952 H 266.086 -0.279734 -2.96684 0
M  V30 2953 H 263.623 -0.149795 -1.46335 0
M  V30 2954 H 265.581 2.11984 -3.59331 0
M  V30 2955 H 264.211 2.0992 -2.45221 0
M  V30 2956 H 263.263 0.0912529 -3.80291 0
M  V30 2957 H 264.575 0.338878 -4.97648 0
M  V30 2958 H 263.729 2.64435 -5.46039 0
M  V30 2959 H 262.468 2.46545 -4.20793 0
M  V30 2960 H 261.473 0.537893 -5.47162 0
M  V30 2961 H 262.698 0.738693 -6.7507 0
M  V30 2962 H 260.644 2.82375 -5.92115 0
M  V30 2963 H 260.561 1.82632 -7.33608 0
M  V30 2964 H 261.829 3.00671 -7.19178 0
M  V30 2965 N 266.058 1.56714 -0.166846 0
M  V30 2966 C 267.008 2.14338 0.777382 0
M  V30 2967 C 267.992 1.07642 1.19591 0
M  V30 2968 O 269.184 1.33775 1.15902 0
M  V30 2969 C 266.313 2.78417 2.00846 0
M  V30 2970 C 265.399 3.92264 1.61212 0
M  V30 2971 N 265.79 4.97268 0.925104 0
M  V30 2972 C 264.088 4.03342 1.90346 0
M  V30 2973 C 264.789 5.77093 0.730627 0
M  V30 2974 N 263.765 5.2854 1.27067 0
M  V30 2975 H 267.567 2.9289 0.243466 0
M  V30 2976 H 265.081 1.62364 0.0339954 0
M  V30 2977 H 267.078 3.18073 2.69509 0
M  V30 2978 H 265.738 2.01344 2.54736 0
M  V30 2979 H 266.749 5.14601 0.583646 0
M  V30 2980 H 263.426 3.37368 2.45946 0
M  V30 2981 H 264.816 6.71638 0.187668 0
M  V30 2982 N 267.536 -0.106894 1.57237 0
M  V30 2983 C 268.499 -1.11466 2.0027 0
M  V30 2984 C 269.499 -1.33623 0.894519 0
M  V30 2985 O 270.689 -1.29935 1.16028 0
M  V30 2986 C 267.821 -2.46646 2.35327 0
M  V30 2987 H 269.014 -0.744516 2.90512 0
M  V30 2988 H 266.567 -0.351576 1.52295 0
M  V30 2989 H 267.302 -2.88558 1.48003 0
M  V30 2990 H 267.087 -2.31915 3.16161 0
M  V30 2991 H 268.577 -3.19151 2.69318 0
M  V30 2992 N 269.014 -1.53014 -0.377408 0
M  V30 2993 C 269.946 -1.74884 -1.48149 0
M  V30 2994 C 270.959 -0.629433 -1.5014 0
M  V30 2995 O 272.148 -0.905416 -1.53833 0
M  V30 2996 C 269.248 -1.80299 -2.86959 0
M  V30 2997 C 268.421 -3.09776 -3.08801 0
M  V30 2998 C 267.48 -3.06586 -4.27658 0
M  V30 2999 O 266.506 -3.80419 -4.23403 0
M  V30 3000 N 267.708 -2.26578 -5.34455 0
M  V30 3001 H 270.473 -2.70147 -1.29771 0
M  V30 3002 H 268.034 -1.51646 -0.56703 0
M  V30 3003 H 270.026 -1.75657 -3.64591 0
M  V30 3004 H 268.596 -0.92372 -2.98641 0
M  V30 3005 H 267.816 -3.27815 -2.18931 0
M  V30 3006 H 269.104 -3.95366 -3.20255 0
M  V30 3007 H 268.502 -1.66081 -5.40771 0
M  V30 3008 H 267.059 -2.27766 -6.10709 0
M  V30 3009 N 270.492 0.636531 -1.44174 0
M  V30 3010 C 271.72 1.42353 -1.50144 0
M  V30 3011 C 272.135 1.88389 -0.124575 0
M  V30 3012 O 271.492 1.6051 0.868489 0
M  V30 3013 C 271.543 2.64744 -2.46156 0
M  V30 3014 O 271.264 2.20629 -3.7849 0
M  V30 3015 C 272.765 3.57929 -2.61537 0
M  V30 3016 H 269.985 0.436752 -0.5094 0
M  V30 3017 H 272.529 0.778933 -1.89084 0
M  V30 3018 H 270.684 3.25307 -2.10366 0
M  V30 3019 H 271.098 2.99938 -4.30276 0
M  V30 3020 H 272.572 4.40428 -3.32757 0
M  V30 3021 H 273.049 4.06382 -1.66585 0
M  V30 3022 H 273.655 3.03238 -2.98206 0
M  V30 3023 N 271.97 1.30982 0.876444 0
M  V30 3024 C 273.217 1.20296 1.62896 0
M  V30 3025 C 273.545 -0.240395 1.93009 0
M  V30 3026 O 272.8 -1.18733 1.55567 0
M  V30 3027 C 273.099 1.98572 2.9716 0
M  V30 3028 C 272.765 3.48125 2.86566 0
M  V30 3029 C 271.427 3.88905 2.83383 0
M  V30 3030 C 273.779 4.43322 2.74071 0
M  V30 3031 C 271.107 5.2316 2.65556 0
M  V30 3032 C 273.459 5.77695 2.57781 0
M  V30 3033 C 272.123 6.17704 2.52979 0
M  V30 3034 H 271.393 0.440193 0.59608 0
M  V30 3035 H 274.04 1.62177 1.01837 0
M  V30 3036 H 272.345 1.49352 3.62217 0
M  V30 3037 H 274.042 1.8769 3.54364 0
M  V30 3038 H 270.632 3.15723 2.89856 0
M  V30 3039 H 274.816 4.12752 2.75589 0
M  V30 3040 H 270.072 5.53241 2.60259 0
M  V30 3041 H 274.246 6.51091 2.47089 0
M  V30 3042 H 271.873 7.21678 2.38924 0
M  V30 3043 N 273.449 -1.08991 1.13837 0
M  V30 3044 C 274.695 -1.81526 0.90422 0
M  V30 3045 C 275.028 -1.85706 -0.568066 0
M  V30 3046 O 274.303 -1.32855 -1.42056 0
M  V30 3047 C 274.586 -3.27447 1.49835 0
M  V30 3048 C 274.439 -3.31512 3.04006 0
M  V30 3049 C 275.758 -4.24256 1.17025 0
M  V30 3050 H 272.877 -0.659029 0.329923 0
M  V30 3051 H 275.519 -1.27644 1.40737 0
M  V30 3052 H 273.669 -3.73462 1.07044 0
M  V30 3053 H 275.341 -2.93867 3.55584 0
M  V30 3054 H 273.584 -2.70963 3.38765 0
M  V30 3055 H 274.255 -4.34329 3.40679 0
M  V30 3056 H 276.731 -3.86549 1.54009 0
M  V30 3057 H 275.607 -5.24684 1.61237 0
M  V30 3058 H 275.868 -4.42019 0.0846274 0
M  V30 3059 N 274.927 -0.932562 -1.27047 0
M  V30 3060 C 275.89 -0.440064 -2.24936 0
M  V30 3061 C 276.89 0.444071 -1.54547 0
M  V30 3062 O 278.08 0.244465 -1.72476 0
M  V30 3063 C 275.212 0.36678 -3.38921 0
M  V30 3064 H 276.405 -1.305 -2.70018 0
M  V30 3065 H 273.958 -0.713707 -1.39054 0
M  V30 3066 H 274.693 1.25033 -2.99228 0
M  V30 3067 H 274.478 -0.267204 -3.91188 0
M  V30 3068 H 275.968 0.701567 -4.11665 0
M  V30 3069 N 276.405 1.4127 -0.698611 0
M  V30 3070 C 277.335 2.33447 -0.049629 0
M  V30 3071 C 278.316 1.51982 0.763898 0
M  V30 3072 O 279.501 1.80509 0.716257 0
M  V30 3073 C 276.631 3.35828 0.885267 0
M  V30 3074 C 275.585 4.27627 0.178613 0
M  V30 3075 C 274.911 5.20406 1.22807 0
M  V30 3076 C 276.211 5.13459 -0.956933 0
M  V30 3077 H 277.905 2.87966 -0.81951 0
M  V30 3078 H 275.451 1.38461 -0.395538 0
M  V30 3079 H 277.404 3.9924 1.34854 0
M  V30 3080 H 276.128 2.79666 1.68685 0
M  V30 3081 H 274.787 3.65643 -0.26466 0
M  V30 3082 H 274.435 4.60558 2.02226 0
M  V30 3083 H 274.135 5.82661 0.760239 0
M  V30 3084 H 275.659 5.86695 1.69179 0
M  V30 3085 H 277.073 5.70421 -0.573805 0
M  V30 3086 H 275.47 5.8467 -1.35205 0
M  V30 3087 H 276.54 4.50443 -1.79524 0
M  V30 3088 N 277.883 0.443576 1.51229 0
M  V30 3089 C 279.123 -0.119889 2.04048 0
M  V30 3090 C 279.487 -1.39418 1.32009 0
M  V30 3091 O 280.688 -2.03829 1.75235 0
M  V30 3092 C 278.959 -0.327233 3.55899 0
M  V30 3093 S 280.518 -0.853208 4.30425 0
M  V30 3094 H 277.336 -0.028921 0.710412 0
M  V30 3095 H 279.938 0.604413 1.85922 0
M  V30 3096 H 278.642 0.606445 4.05895 0
M  V30 3097 H 278.173 -1.07844 3.7833 0
M  V30 3098 H 280.188 -2.13005 4.48155 0
M  V30 3099 N 279.361 -1.56624 0.175154 0
M  V30 3100 C 280.324 -2.16934 -0.739738 0
M  V30 3101 C 281.324 -1.11842 -1.15533 0
M  V30 3102 O 282.514 -1.37335 -1.07167 0
M  V30 3103 C 279.646 -2.75531 -2.00738 0
M  V30 3104 H 280.839 -2.99131 -0.214639 0
M  V30 3105 H 278.392 -1.56123 -0.0744197 0
M  V30 3106 H 279.127 -1.97078 -2.57548 0
M  V30 3107 H 278.912 -3.52444 -1.71831 0
M  V30 3108 H 280.402 -3.21904 -2.66021 0
M  V30 3109 N 280.839 0.0985539 -1.57292 0
M  V30 3110 C 282.067 0.816318 -1.90115 0
M  V30 3111 C 282.482 1.72451 -0.768509 0
M  V30 3112 O 281.839 1.80643 0.259687 0
M  V30 3113 C 281.89 1.63259 -3.22535 0
M  V30 3114 O 281.611 0.760934 -4.31441 0
M  V30 3115 C 283.112 2.45372 -3.69199 0
M  V30 3116 H 280.332 0.233595 -0.629027 0
M  V30 3117 H 282.876 0.0768229 -2.04356 0
M  V30 3118 H 281.031 2.32463 -3.09903 0
M  V30 3119 H 281.445 1.32595 -5.07463 0
M  V30 3120 H 282.919 2.98144 -4.64558 0
M  V30 3121 H 283.396 3.23677 -2.96867 0
M  V30 3122 H 284.002 1.81373 -3.84687 0
M  V30 3123 N 282.317 1.53212 0.369288 0
M  V30 3124 C 283.594 1.59815 1.12776 0
M  V30 3125 C 283.974 0.403402 2.0721 0
M  V30 3126 O 283.322 -0.606667 2.20299 0
M  V30 3127 C 283.532 2.94664 1.87013 0
M  V30 3128 C 284.88 3.49109 2.41677 0
M  V30 3129 O 285.904 2.96669 1.97144 0
M  V30 3130 O 284.763 4.40775 3.23079 0
M  V30 3131 H 281.857 0.645376 0.517125 0
M  V30 3132 H 284.403 1.65553 0.37285 0
M  V30 3133 H 283.175 3.73061 1.18071 0
M  V30 3134 H 282.798 2.92401 2.69421 0
M  V30 3135 N 283.795 -0.628877 1.44509 0
M  V30 3136 C 285.041 -1.39045 1.47629 0
M  V30 3137 C 285.374 -1.93892 0.109343 0
M  V30 3138 O 284.649 -1.7379 -0.87334 0
M  V30 3139 C 284.932 -2.55408 2.53848 0
M  V30 3140 C 284.785 -2.05896 3.99909 0
M  V30 3141 C 286.104 -3.5759 2.56549 0
M  V30 3142 H 283.223 -0.504232 0.537512 0
M  V30 3143 H 285.865 -0.710854 1.76201 0
M  V30 3144 H 284.015 -3.13384 2.29615 0
M  V30 3145 H 285.687 -1.52734 4.35282 0
M  V30 3146 H 283.93 -1.37061 4.11578 0
M  V30 3147 H 284.601 -2.89681 4.69882 0
M  V30 3148 H 287.077 -3.09419 2.78207 0
M  V30 3149 H 285.953 -4.36527 3.32769 0
M  V30 3150 H 286.214 -4.11808 1.60832 0
M  V30 3151 N 285.273 -1.31445 -0.869486 0
M  V30 3152 C 286.22 -1.19135 -1.97675 0
M  V30 3153 C 287.19 -0.0770266 -1.65921 0
M  V30 3154 O 288.375 -0.249972 -1.89155 0
M  V30 3155 C 285.515 -0.905149 -3.33018 0
M  V30 3156 C 284.628 -2.10285 -3.77365 0
M  V30 3157 C 283.763 -1.75339 -5.01427 0
M  V30 3158 C 282.802 -2.91515 -5.38224 0
M  V30 3159 N 281.939 -2.56762 -6.53466 0
M  V30 3160 H 286.779 -2.13853 -2.07535 0
M  V30 3161 H 284.316 -1.06379 -1.01597 0
M  V30 3162 H 286.274 -0.719765 -4.10944 0
M  V30 3163 H 284.904 0.00519624 -3.228 0
M  V30 3164 H 283.956 -2.39899 -2.95216 0
M  V30 3165 H 285.268 -2.97237 -4.00564 0
M  V30 3166 H 284.422 -1.53266 -5.87022 0
M  V30 3167 H 283.161 -0.855801 -4.80133 0
M  V30 3168 H 282.166 -3.14237 -4.51149 0
M  V30 3169 H 283.391 -3.81985 -5.61484 0
M  V30 3170 H 281.337 -1.69526 -6.33717 0
M  V30 3171 H 281.254 -3.37243 -6.76612 0
M  V30 3172 H 282.522 -2.38083 -7.42251 0
M  V30 3173 N 286.751 1.08385 -1.14413 0
M  V30 3174 C 287.998 1.80776 -0.912482 0
M  V30 3175 C 288.326 1.86236 0.560934 0
M  V30 3176 O 287.581 1.33431 1.43159 0
M  V30 3177 C 287.88 3.26273 -1.45879 0
M  V30 3178 C 287.546 3.4093 -2.95089 0
M  V30 3179 C 286.208 3.44638 -3.35824 0
M  V30 3180 C 288.56 3.44591 -3.91033 0
M  V30 3181 C 285.888 3.49597 -4.71167 0
M  V30 3182 C 288.24 3.51086 -5.26233 0
M  V30 3183 C 286.904 3.53067 -5.6648 0
M  V30 3184 H 286.174 0.661507 -0.333901 0
M  V30 3185 H 288.821 1.27613 -1.42784 0
M  V30 3186 H 287.126 3.82146 -0.864376 0
M  V30 3187 H 288.823 3.80839 -1.2555 0
M  V30 3188 H 285.413 3.38736 -2.62594 0
M  V30 3189 H 289.597 3.40957 -3.60641 0
M  V30 3190 H 284.853 3.49424 -5.0171 0
M  V30 3191 H 289.027 3.52864 -6.00383 0
M  V30 3192 H 286.654 3.56662 -6.71339 0
M  V30 3193 N 288.23 0.939286 1.26551 0
M  V30 3194 C 289.479 0.581601 1.93133 0
M  V30 3195 C 289.792 -0.883224 1.74524 0
M  V30 3196 O 290.998 -1.3502 2.35546 0
M  V30 3197 C 289.454 0.989425 3.46032 0
M  V30 3198 C 289.062 2.47573 3.73379 0
M  V30 3199 C 290.806 0.703544 4.18629 0
M  V30 3200 C 288.713 2.82235 5.19709 0
M  V30 3201 H 287.643 0.213803 0.723052 0
M  V30 3202 H 290.294 1.14167 1.4366 0
M  V30 3203 H 288.676 0.357902 3.94379 0
M  V30 3204 H 289.85 3.15614 3.35744 0
M  V30 3205 H 288.165 2.73471 3.1401 0
M  V30 3206 H 290.762 0.938869 5.26393 0
M  V30 3207 H 291.105 -0.359639 4.14744 0
M  V30 3208 H 291.638 1.2947 3.76141 0
M  V30 3209 H 288.377 3.87509 5.28694 0
M  V30 3210 H 287.897 2.18854 5.58447 0
M  V30 3211 H 289.576 2.70599 5.87695 0
M  V30 3212 N 289.708 -1.40897 0.706093 0
M  V30 3213 C 290.933 -2.05895 0.249435 0
M  V30 3214 C 291.358 -1.52823 -1.09666 0
M  V30 3215 O 290.716 -0.659589 -1.68876 0
M  V30 3216 C 290.764 -3.59872 0.22904 0
M  V30 3217 O 289.868 -4.04708 -0.792784 0
M  V30 3218 H 289.209 -0.653206 0.119241 0
M  V30 3219 H 291.739 -1.80471 0.96391 0
M  V30 3220 H 291.749 -4.07951 0.0634791 0
M  V30 3221 H 290.424 -3.97866 1.21141 0
M  V30 3222 H 289.001 -3.68111 -0.59572 0
M  V30 3223 N 291.186 -0.45159 -1.50991 0
M  V30 3224 C 292.134 0.366864 -2.29689 0
M  V30 3225 C 293.128 1.00809 -1.36139 0
M  V30 3226 O 294.334 0.941427 -1.53418 0
M  V30 3227 H 290.709 0.137133 -0.739391 0
M  V30 3228 H 292.68 -0.317538 -2.96706 0
M  V30 3229 C 291.429 1.44751 -3.16137 0
M  V30 3230 H 290.752 0.963473 -3.88017 0
M  V30 3231 H 292.192 1.99315 -3.74232 0
M  V30 3232 C 290.651 2.43869 -2.32442 0
M  V30 3233 O 291.181 3.4872 -1.99392 0
M  V30 3234 N 289.387 2.15105 -1.95392 0
M  V30 3235 H 288.934 1.29866 -2.22469 0
M  V30 3236 H 288.892 2.81661 -1.39693 0
M  V30 3237 N 292.664 1.56529 -0.183458 0
M  V30 3238 C 294.075 1.83739 0.331177 0
M  V30 3239 C 294.426 1.10373 1.62211 0
M  V30 3240 O 293.551 0.36071 2.13373 0
M  V30 3241 C 294.146 3.33306 0.607646 0
M  V30 3242 C 292.705 3.60969 1.06668 0
M  V30 3243 C 291.852 2.77086 0.109029 0
M  V30 3244 H 294.803 1.53379 -0.407484 0
M  V30 3245 H 294.824 3.51444 1.45832 0
M  V30 3246 H 294.336 3.86677 -0.332086 0
M  V30 3247 H 292.437 3.13021 2.0211 0
M  V30 3248 H 292.55 4.69231 0.967447 0
M  V30 3249 H 290.914 2.47319 0.608714 0
M  V30 3250 H 291.697 3.33241 -0.82494 0
M  V30 3251 N 294.142 -0.090211 1.57342 0
M  V30 3252 C 295.553 -0.644173 1.75235 0
M  V30 3253 C 295.904 -1.78865 0.806335 0
M  V30 3254 O 295.029 -2.16395 -0.0140128 0
M  V30 3255 C 295.624 -1.17532 3.1776 0
M  V30 3256 C 294.183 -1.67531 3.37061 0
M  V30 3257 C 293.33 -0.58693 2.71017 0
M  V30 3258 H 296.281 0.135884 1.58117 0
M  V30 3259 H 296.302 -2.04455 3.20902 0
M  V30 3260 H 295.814 -0.342138 3.86589 0
M  V30 3261 H 293.915 -2.53234 2.73319 0
M  V30 3262 H 294.028 -1.76493 4.45406 0
M  V30 3263 H 292.392 -1.02756 2.33052 0
M  V30 3264 H 293.175 0.235758 3.4249 0
M  V30 3265 N 295.62 -1.53406 -0.361157 0
M  V30 3266 C 296.845 -1.74024 -1.12829 0
M  V30 3267 C 297.27 -0.470069 -1.82132 0
M  V30 3268 O 296.628 0.57619 -1.719 0
M  V30 3269 C 296.676 -2.90903 -2.13091 0
M  V30 3270 O 295.78 -2.59821 -3.20261 0
M  V30 3271 H 295.121 -0.577804 -0.327168 0
M  V30 3272 H 297.651 -2.00307 -0.41693 0
M  V30 3273 H 297.661 -3.17194 -2.56616 0
M  V30 3274 H 296.336 -3.83034 -1.62042 0
M  V30 3275 H 294.913 -2.44362 -2.81677 0
M  V30 3276 N 297.098 0.621204 -1.44841 0
M  V30 3277 C 298.031 1.7459 -1.46947 0
M  V30 3278 C 299.009 1.59273 -0.327238 0
M  V30 3279 O 300.193 1.81021 -0.525706 0
M  V30 3280 C 297.32 3.12274 -1.31159 0
M  V30 3281 C 296.366 3.46216 -2.49072 0
M  V30 3282 S 297.199 3.4258 -4.11581 0
M  V30 3283 C 298.355 4.82867 -3.98233 0
M  V30 3284 H 298.588 1.72538 -2.42111 0
M  V30 3285 H 296.121 0.796683 -1.32259 0
M  V30 3286 H 298.079 3.91722 -1.22737 0
M  V30 3287 H 296.74 3.11855 -0.374885 0
M  V30 3288 H 295.933 4.4643 -2.33915 0
M  V30 3289 H 295.535 2.74253 -2.54286 0
M  V30 3290 H 297.827 5.7234 -3.62537 0
M  V30 3291 H 298.77 5.0308 -4.98313 0
M  V30 3292 H 299.178 4.57908 -3.30121 0
M  V30 3293 N 298.576 1.31904 0.862503 0
M  V30 3294 C 299.822 1.22197 1.61851 0
M  V30 3295 C 300.155 -0.217641 1.92977 0
M  V30 3296 O 299.43 -1.15264 1.56666 0
M  V30 3297 C 299.713 2.07378 2.94391 0
M  V30 3298 C 299.566 3.59678 2.70096 0
M  V30 3299 C 300.885 1.92891 3.95577 0
M  V30 3300 H 298.004 0.445255 0.587296 0
M  V30 3301 H 300.646 1.6177 0.99651 0
M  V30 3302 H 298.796 1.73758 3.47477 0
M  V30 3303 H 300.468 4.03472 2.23625 0
M  V30 3304 H 298.711 3.82735 2.04197 0
M  V30 3305 H 299.382 4.14595 3.64438 0
M  V30 3306 H 301.858 2.22327 3.51724 0
M  V30 3307 H 300.734 2.54781 4.86187 0
M  V30 3308 H 300.995 0.894315 4.3296 0
M  V30 3309 N 300.054 -1.07777 1.14986 0
M  V30 3310 C 301.017 -2.13041 0.845358 0
M  V30 3311 C 302.017 -1.60071 -0.152931 0
M  V30 3312 O 303.207 -1.74033 0.0761879 0
M  V30 3313 C 300.339 -3.39896 0.261383 0
M  V30 3314 H 301.532 -2.41485 1.77834 0
M  V30 3315 H 299.085 -1.23595 0.956757 0
M  V30 3316 H 299.82 -3.17091 -0.68 0
M  V30 3317 H 299.605 -3.79642 0.980514 0
M  V30 3318 H 301.095 -4.17548 0.0657687 0
M  V30 3319 N 301.532 -0.945985 -1.26051 0
M  V30 3320 C 302.495 -0.463897 -2.24456 0
M  V30 3321 C 303.495 0.427655 -1.55009 0
M  V30 3322 O 304.685 0.226157 -1.72726 0
M  V30 3323 C 301.817 0.330812 -3.39291 0
M  V30 3324 H 303.01 -1.33357 -2.68619 0
M  V30 3325 H 300.563 -0.728416 -1.38289 0
M  V30 3326 H 301.298 1.21852 -3.00537 0
M  V30 3327 H 301.083 -0.308679 -3.90883 0
M  V30 3328 H 302.573 0.657865 -4.12386 0
M  V30 3329 N 303.011 1.40521 -0.713556 0
M  V30 3330 C 304.259 2.00527 -0.251692 0
M  V30 3331 C 304.58 1.56857 1.15848 0
M  V30 3332 O 303.85 0.807127 1.785 0
M  V30 3333 H 302.43 0.741551 -0.0900646 0
M  V30 3334 H 305.092 1.71887 -0.918733 0
M  V30 3335 H 304.188 3.10813 -0.283192 0
M  V30 3336 N 304.489 0.459591 1.5075 0
M  V30 3337 C 305.714 -0.0996819 2.0716 0
M  V30 3338 C 306.139 -1.33761 1.32249 0
M  V30 3339 O 305.497 -1.77551 0.366786 0
M  V30 3340 C 305.545 -0.378226 3.58611 0
M  V30 3341 O 304.649 -1.46081 3.85661 0
M  V30 3342 H 303.99 0.00791392 0.663953 0
M  V30 3343 H 306.52 0.647329 1.9409 0
M  V30 3344 H 306.53 -0.622135 4.03229 0
M  V30 3345 H 305.205 0.526439 4.12555 0
M  V30 3346 H 303.782 -1.20511 3.5289 0
M  V30 3347 N 305.967 -1.56429 0.191757 0
M  V30 3348 C 307.213 -1.97777 -0.448554 0
M  V30 3349 C 307.546 -1.07847 -1.61501 0
M  V30 3350 O 306.821 -0.129774 -1.94067 0
M  V30 3351 C 307.104 -3.48362 -0.911906 0
M  V30 3352 C 306.957 -4.4907 0.256136 0
M  V30 3353 C 308.276 -4.02561 -1.77857 0
M  V30 3354 H 305.395 -0.719071 -0.161572 0
M  V30 3355 H 308.037 -1.87896 0.282007 0
M  V30 3356 H 306.187 -3.56914 -1.53442 0
M  V30 3357 H 307.859 -4.5256 0.893733 0
M  V30 3358 H 306.102 -4.24181 0.908436 0
M  V30 3359 H 306.773 -5.51889 -0.11053 0
M  V30 3360 H 309.249 -3.96767 -1.25359 0
M  V30 3361 H 308.125 -5.08301 -2.07174 0
M  V30 3362 H 308.386 -3.47616 -2.73158 0
M  V30 3363 N 307.445 0.0818655 -1.57387 0
M  V30 3364 C 308.691 0.784074 -1.8703 0
M  V30 3365 C 309.024 1.77729 -0.782689 0
M  V30 3366 O 308.299 1.93384 0.208051 0
M  V30 3367 C 308.582 1.50105 -3.27323 0
M  V30 3368 C 308.435 0.524925 -4.46727 0
M  V30 3369 C 309.754 2.44843 -3.65705 0
M  V30 3370 H 306.873 0.283582 -0.680257 0
M  V30 3371 H 309.515 0.0474352 -1.89941 0
M  V30 3372 H 307.665 2.12897 -3.24972 0
M  V30 3373 H 309.337 -0.0970111 -4.61198 0
M  V30 3374 H 307.58 -0.160606 -4.33503 0
M  V30 3375 H 308.251 1.064 -5.41648 0
M  V30 3376 H 310.727 1.92135 -3.69085 0
M  V30 3377 H 309.603 2.92018 -4.64776 0
M  V30 3378 H 309.864 3.29197 -2.95096 0
M  V30 3379 N 308.923 1.53595 0.353017 0
M  V30 3380 C 309.886 1.80232 1.41594 0
M  V30 3381 C 310.886 0.673081 1.46035 0
M  V30 3382 O 312.076 0.941335 1.46576 0
M  V30 3383 C 309.208 1.93578 2.80607 0
M  V30 3384 H 310.401 2.75174 1.19244 0
M  V30 3385 H 307.954 1.44864 0.586872 0
M  V30 3386 H 308.689 1.00746 3.08254 0
M  V30 3387 H 308.474 2.75724 2.78781 0
M  V30 3388 H 309.964 2.15735 3.57558 0
M  V30 3389 N 310.401 -0.613514 1.45168 0
M  V30 3390 C 311.364 -1.7065 1.53007 0
M  V30 3391 C 312.364 -1.5548 0.410184 0
M  V30 3392 O 313.554 -1.60656 0.673455 0
M  V30 3393 C 310.686 -3.09875 1.42093 0
M  V30 3394 H 311.879 -1.65068 2.50385 0
M  V30 3395 H 309.432 -0.828728 1.32521 0
M  V30 3396 H 310.167 -3.21039 0.458769 0
M  V30 3397 H 309.952 -3.22293 2.23315 0
M  V30 3398 H 311.442 -3.895 1.50598 0
M  V30 3399 N 311.879 -1.3236 -0.855495 0
M  V30 3400 C 313.125 -1.23054 -1.612 0
M  V30 3401 C 313.458 0.207404 -1.93089 0
M  V30 3402 O 312.733 1.14432 -1.57275 0
M  V30 3403 C 313.016 -2.08937 -2.93287 0
M  V30 3404 C 312.869 -3.61105 -2.68185 0
M  V30 3405 C 314.188 -1.94986 -3.94549 0
M  V30 3406 H 311.307 -0.448364 -0.584926 0
M  V30 3407 H 313.949 -1.62297 -0.987917 0
M  V30 3408 H 312.099 -1.75599 -3.46551 0
M  V30 3409 H 313.771 -4.04652 -2.21483 0
M  V30 3410 H 312.014 -3.83813 -2.02164 0
M  V30 3411 H 312.685 -4.16522 -3.62234 0
M  V30 3412 H 315.161 -2.24189 -3.5054 0
M  V30 3413 H 314.037 -2.57356 -4.84829 0
M  V30 3414 H 314.298 -0.917263 -4.3248 0
M  V30 3415 N 313.357 1.07166 -1.15556 0
M  V30 3416 C 314.289 2.14341 -0.811815 0
M  V30 3417 C 315.302 1.61835 0.177015 0
M  V30 3418 O 316.491 1.78439 -0.0464996 0
M  V30 3419 C 313.591 3.38387 -0.186481 0
M  V30 3420 C 312.764 4.20238 -1.21321 0
M  V30 3421 C 311.823 5.2266 -0.609302 0
M  V30 3422 O 310.849 5.54719 -1.27576 0
M  V30 3423 N 312.051 5.77306 0.608099 0
M  V30 3424 H 314.816 2.44431 -1.73417 0
M  V30 3425 H 312.377 1.23089 -1.0517 0
M  V30 3426 H 314.369 4.04044 0.230339 0
M  V30 3427 H 312.939 3.05994 0.639249 0
M  V30 3428 H 312.159 3.50369 -1.80652 0
M  V30 3429 H 313.447 4.71736 -1.90638 0
M  V30 3430 H 312.845 5.53513 1.1679 0
M  V30 3431 H 311.402 6.44583 0.96725 0
M  V30 3432 N 314.835 0.952656 1.25548 0
M  V30 3433 C 316.083 0.605176 1.92826 0
M  V30 3434 C 316.404 -0.860261 1.74999 0
M  V30 3435 O 315.674 -1.6125 1.11244 0
M  V30 3436 H 314.254 0.220832 0.713612 0
M  V30 3437 H 316.916 1.21047 1.52754 0
M  V30 3438 H 316.012 0.832798 3.00784 0
M  V30 3439 N 316.313 -1.40141 0.720998 0
M  V30 3440 C 317.243 -2.33339 0.0867621 0
M  V30 3441 C 318.224 -1.53178 -0.739622 0
M  V30 3442 O 319.409 -1.81625 -0.687449 0
M  V30 3443 C 316.539 -3.37194 -0.831728 0
M  V30 3444 C 315.493 -4.27857 -0.110558 0
M  V30 3445 C 314.819 -5.22294 -1.14513 0
M  V30 3446 C 316.119 -5.11872 1.0385 0
M  V30 3447 H 317.813 -2.86626 0.865219 0
M  V30 3448 H 315.359 -1.37814 0.417516 0
M  V30 3449 H 317.312 -4.01335 -1.28485 0
M  V30 3450 H 316.036 -2.82314 -1.64214 0
M  V30 3451 H 314.695 -3.65176 0.322797 0
M  V30 3452 H 314.343 -4.63717 -1.94874 0
M  V30 3453 H 314.043 -5.83797 -0.667446 0
M  V30 3454 H 315.567 -5.89312 -1.59824 0
M  V30 3455 H 316.981 -5.69436 0.664482 0
M  V30 3456 H 315.378 -5.82445 1.4449 0
M  V30 3457 H 316.448 -4.4753 1.86668 0
M  V30 3458 N 317.792 -0.46758 -1.50504 0
M  V30 3459 C 318.74 0.342482 -2.30065 0
M  V30 3460 C 319.734 0.993596 -1.37201 0
M  V30 3461 O 320.94 0.925102 -1.54408 0
M  V30 3462 H 317.315 0.129283 -0.740803 0
M  V30 3463 H 319.286 -0.34899 -2.96352 0
M  V30 3464 C 318.035 1.4139 -3.17654 0
M  V30 3465 H 317.358 0.922264 -3.89017 0
M  V30 3466 H 318.798 1.95335 -3.76325 0
M  V30 3467 C 317.257 2.4139 -2.35016 0
M  V30 3468 O 317.787 3.46586 -2.03079 0
M  V30 3469 N 315.993 2.13021 -1.97662 0
M  V30 3470 H 315.54 1.27499 -2.23834 0
M  V30 3471 H 315.498 2.80164 -1.42673 0
M  V30 3472 N 319.27 1.56325 -0.20005 0
M  V30 3473 C 320.2 2.22318 0.713916 0
M  V30 3474 C 321.181 1.18788 1.21752 0
M  V30 3475 O 322.366 1.47309 1.26545 0
M  V30 3476 C 319.496 2.88639 1.93144 0
M  V30 3477 C 318.45 3.98457 1.56255 0
M  V30 3478 C 317.776 4.51967 2.85709 0
M  V30 3479 C 319.076 5.16612 0.768747 0
M  V30 3480 H 320.77 2.98952 0.163755 0
M  V30 3481 H 318.316 1.43792 0.0773219 0
M  V30 3482 H 320.269 3.33491 2.57608 0
M  V30 3483 H 318.993 2.09419 2.50621 0
M  V30 3484 H 317.652 3.54305 0.941471 0
M  V30 3485 H 317.3 3.69503 3.41287 0
M  V30 3486 H 317 5.26071 2.6177 0
M  V30 3487 H 318.524 4.99523 3.51154 0
M  V30 3488 H 319.938 5.57977 1.3166 0
M  V30 3489 H 318.335 5.96812 0.627286 0
M  V30 3490 H 319.405 4.84358 -0.229168 0
M  V30 3491 N 320.748 -0.0735177 1.57428 0
M  V30 3492 C 322.164 -0.428264 1.53747 0
M  V30 3493 C 322.364 -1.79272 0.91998 0
M  V30 3494 O 321.42 -2.47051 0.521745 0
M  V30 3495 C 322.733 -0.370914 2.98404 0
M  V30 3496 C 324.281 -0.451224 3.0973 0
M  V30 3497 C 324.756 -0.4238 4.56035 0
M  V30 3498 N 326.247 -0.483925 4.60665 0
M  V30 3499 C 326.982 -0.484891 5.71346 0
M  V30 3500 N 326.478 -0.440775 6.91396 0
M  V30 3501 N 328.271 -0.531319 5.59583 0
M  V30 3502 H 320.422 0.819949 1.95935 0
M  V30 3503 H 322.685 0.307493 0.896745 0
M  V30 3504 H 322.391 0.564956 3.47133 0
M  V30 3505 H 322.265 -1.18176 3.5821 0
M  V30 3506 H 324.652 -1.37752 2.60976 0
M  V30 3507 H 324.733 0.388167 2.52838 0
M  V30 3508 H 324.377 0.498638 5.05446 0
M  V30 3509 H 324.307 -1.2807 5.10789 0
M  V30 3510 H 326.798 -0.522338 3.74273 0
M  V30 3511 H 327.111 -0.44539 7.71515 0
M  V30 3512 H 325.456 -0.40749 6.93804 0
M  V30 3513 H 328.647 -0.563464 4.64696 0
M  V30 3514 H 328.82 -0.528603 6.4584 0
M  V30 3515 N 322.226 -1.5378 -0.344866 0
M  V30 3516 C 323.451 -1.75211 -1.10977 0
M  V30 3517 C 323.876 -0.48936 -1.81623 0
M  V30 3518 O 323.234 0.557925 -1.72502 0
M  V30 3519 C 323.282 -2.93147 -2.09993 0
M  V30 3520 O 322.386 -2.63203 -3.17487 0
M  V30 3521 H 321.727 -0.581241 -0.321021 0
M  V30 3522 H 324.257 -2.00738 -0.395661 0
M  V30 3523 H 324.267 -3.19898 -2.53237 0
M  V30 3524 H 322.942 -3.84731 -1.5797 0
M  V30 3525 H 321.519 -2.47336 -2.79069 0
M  V30 3526 N 323.704 0.605807 -1.45491 0
M  V30 3527 C 325.115 1.18777 -1.44045 0
M  V30 3528 C 325.466 1.95471 -0.169001 0
M  V30 3529 O 324.591 2.0374 0.729324 0
M  V30 3530 C 325.186 2.16064 -2.60963 0
M  V30 3531 C 323.745 2.69633 -2.62631 0
M  V30 3532 C 322.892 1.45072 -2.36325 0
M  V30 3533 H 325.843 0.395017 -1.53705 0
M  V30 3534 H 325.864 2.9913 -2.35163 0
M  V30 3535 H 325.376 1.60217 -3.53486 0
M  V30 3536 H 323.477 3.29414 -1.74119 0
M  V30 3537 H 323.59 3.13944 -3.61906 0
M  V30 3538 H 321.954 1.74089 -1.85917 0
M  V30 3539 H 322.737 0.910899 -3.30995 0
M  V30 3540 N 325.182 1.32811 0.848464 0
M  V30 3541 C 326.13 1.22231 1.97895 0
M  V30 3542 C 327.124 0.125749 1.68933 0
M  V30 3543 O 328.33 0.289083 1.77663 0
M  V30 3544 H 324.705 0.379058 0.649476 0
M  V30 3545 H 326.676 2.17828 2.03945 0
M  V30 3546 C 325.425 0.968572 3.33937 0
M  V30 3547 H 324.748 1.80458 3.56756 0
M  V30 3548 H 326.188 0.934808 4.13567 0
M  V30 3549 C 324.647 -0.328628 3.35293 0
M  V30 3550 O 325.177 -1.33848 3.78745 0
M  V30 3551 N 323.383 -0.352788 2.88451 0
M  V30 3552 H 322.93 0.469541 2.53285 0
M  V30 3553 H 322.888 -1.22057 2.89741 0
M  V30 3554 N 326.66 -1.06551 1.16123 0
M  V30 3555 C 327.608 -2.16063 0.861371 0
M  V30 3556 C 328.602 -1.6856 -0.168517 0
M  V30 3557 O 329.808 -1.79986 -0.0227579 0
M  V30 3558 H 326.183 -0.705278 0.260934 0
M  V30 3559 H 328.154 -2.38567 1.79244 0
M  V30 3560 C 326.903 -3.45661 0.376018 0
M  V30 3561 H 326.226 -3.82604 1.15992 0
M  V30 3562 H 327.666 -4.23504 0.204951 0
M  V30 3563 C 326.125 -3.24546 -0.903954 0
M  V30 3564 O 326.655 -3.49865 -1.97377 0
M  V30 3565 N 324.861 -2.77992 -0.846679 0
M  V30 3566 H 324.408 -2.57589 0.0241017 0
M  V30 3567 H 324.366 -2.64244 -1.70359 0
M  V30 3568 N 328.138 -0.959301 -1.25041 0
M  V30 3569 C 329.385 -0.616611 -1.92884 0
M  V30 3570 C 329.713 0.847036 -1.75087 0
M  V30 3571 O 328.968 1.62374 -1.09239 0
M  V30 3572 C 329.267 -0.927136 -3.45165 0
M  V30 3573 C 328.933 -2.37757 -3.83122 0
M  V30 3574 C 327.595 -2.77402 -3.93194 0
M  V30 3575 C 329.947 -3.31929 -4.01836 0
M  V30 3576 C 327.275 -4.10277 -4.19392 0
M  V30 3577 C 329.627 -4.64423 -4.29528 0
M  V30 3578 C 328.291 -5.03857 -4.37818 0
M  V30 3579 H 327.561 -0.225634 -0.705812 0
M  V30 3580 H 330.208 -1.20921 -1.48493 0
M  V30 3581 H 328.513 -0.252195 -3.90987 0
M  V30 3582 H 330.21 -0.6405 -3.95852 0
M  V30 3583 H 326.8 -2.06013 -3.75841 0
M  V30 3584 H 330.984 -3.02488 -3.93465 0
M  V30 3585 H 326.24 -4.40467 -4.24027 0
M  V30 3586 H 330.414 -5.37369 -4.42953 0
M  V30 3587 H 328.041 -6.06843 -4.57871 0
M  V30 3588 N 329.616 1.39756 -0.72842 0
M  V30 3589 C 330.546 2.33289 -0.0991354 0
M  V30 3590 C 331.527 1.53568 0.731489 0
M  V30 3591 O 332.712 1.81987 0.677807 0
M  V30 3592 C 329.842 3.3763 0.813834 0
M  V30 3593 C 328.796 4.2791 0.0878663 0
M  V30 3594 C 328.122 5.22894 1.11741 0
M  V30 3595 C 329.422 5.11314 -1.06563 0
M  V30 3596 H 331.116 2.86163 -0.880408 0
M  V30 3597 H 328.662 1.37591 -0.424819 0
M  V30 3598 H 330.615 4.0201 1.26355 0
M  V30 3599 H 329.339 2.83181 1.62715 0
M  V30 3600 H 327.998 3.65 -0.342159 0
M  V30 3601 H 327.646 4.64744 1.92412 0
M  V30 3602 H 327.346 5.84143 0.636477 0
M  V30 3603 H 328.87 5.90151 1.56697 0
M  V30 3604 H 330.284 5.69076 -0.694671 0
M  V30 3605 H 328.681 5.81671 -1.47577 0
M  V30 3606 H 329.751 4.46534 -1.89038 0
M  V30 3607 N 331.094 0.475555 1.50254 0
M  V30 3608 C 332.319 -0.0777042 2.07254 0
M  V30 3609 C 332.744 -1.3235 1.3366 0
M  V30 3610 O 332.102 -1.77152 0.385597 0
M  V30 3611 C 332.15 -0.340169 3.58992 0
M  V30 3612 O 331.254 -1.41982 3.87188 0
M  V30 3613 H 330.595 0.0149556 0.663832 0
M  V30 3614 H 333.125 0.667878 1.93392 0
M  V30 3615 H 333.135 -0.579332 4.03866 0
M  V30 3616 H 331.81 0.570167 4.11973 0
M  V30 3617 H 330.387 -1.16762 3.54148 0
M  V30 3618 N 332.573 -1.56217 0.208337 0
M  V30 3619 C 333.803 -2.02043 -0.431523 0
M  V30 3620 C 334.211 -1.08755 -1.54819 0
M  V30 3621 O 333.554 -0.0870009 -1.83494 0
M  V30 3622 C 333.616 -3.44239 -1.03633 0
M  V30 3623 C 333.28 -4.56965 -0.0567502 0
M  V30 3624 C 334.277 -5.14624 0.738773 0
M  V30 3625 C 331.962 -5.02266 0.0581736 0
M  V30 3626 C 333.956 -6.16045 1.63605 0
M  V30 3627 C 331.643 -6.03528 0.959001 0
M  V30 3628 C 332.641 -6.60293 1.7465 0
M  V30 3629 O 332.329 -7.59586 2.6322 0
M  V30 3630 H 332.061 -0.666772 -0.111313 0
M  V30 3631 H 334.615 -2.02919 0.318277 0
M  V30 3632 H 332.845 -3.40391 -1.83497 0
M  V30 3633 H 334.534 -3.73793 -1.58221 0
M  V30 3634 H 335.3 -4.80483 0.660364 0
M  V30 3635 H 331.179 -4.57771 -0.544633 0
M  V30 3636 H 334.723 -6.60279 2.25116 0
M  V30 3637 H 330.62 -6.37092 1.03848 0
M  V30 3638 H 331.388 -7.77057 2.57148 0
M  V30 3639 N 334.051 0.0651679 -1.57465 0
M  V30 3640 C 335.281 0.774683 -1.91526 0
M  V30 3641 C 335.689 1.71305 -0.803196 0
M  V30 3642 O 335.032 1.82231 0.231881 0
M  V30 3643 C 335.094 1.61645 -3.21109 0
M  V30 3644 C 334.758 0.846753 -4.49087 0
M  V30 3645 C 335.755 0.163024 -5.19644 0
M  V30 3646 C 333.44 0.811966 -4.95694 0
M  V30 3647 C 335.434 -0.54519 -6.35064 0
M  V30 3648 C 333.121 0.0999836 -6.11018 0
M  V30 3649 C 334.119 -0.577388 -6.80555 0
M  V30 3650 O 333.807 -1.27789 -7.93678 0
M  V30 3651 H 333.539 0.225031 -0.637446 0
M  V30 3652 H 336.093 0.0377134 -2.05365 0
M  V30 3653 H 334.323 2.39638 -3.03497 0
M  V30 3654 H 336.012 2.20525 -3.40769 0
M  V30 3655 H 336.778 0.181163 -4.84662 0
M  V30 3656 H 332.657 1.32867 -4.41438 0
M  V30 3657 H 336.201 -1.07446 -6.89276 0
M  V30 3658 H 332.098 0.0797945 -6.45451 0
M  V30 3659 H 332.866 -1.18784 -8.09835 0
M  V30 3660 N 335.529 1.53961 0.336706 0
M  V30 3661 C 336.945 1.44378 0.680241 0
M  V30 3662 C 337.145 0.606034 1.9217 0
M  V30 3663 O 336.201 0.099688 2.52303 0
M  V30 3664 C 337.514 2.87945 0.8665 0
M  V30 3665 C 339.062 2.97763 0.964682 0
M  V30 3666 C 339.537 4.42453 1.18321 0
M  V30 3667 N 341.028 4.46008 1.25025 0
M  V30 3668 C 341.763 5.55102 1.43697 0
M  V30 3669 N 341.259 6.7419 1.59498 0
M  V30 3670 N 343.052 5.42727 1.463 0
M  V30 3671 H 335.203 2.06918 -0.479455 0
M  V30 3672 H 337.466 0.935634 -0.152619 0
M  V30 3673 H 337.172 3.51691 0.0256937 0
M  V30 3674 H 337.046 3.33293 1.76623 0
M  V30 3675 H 339.433 2.34153 1.796 0
M  V30 3676 H 339.514 2.55766 0.041708 0
M  V30 3677 H 339.158 5.06645 0.356788 0
M  V30 3678 H 339.088 4.82048 2.11985 0
M  V30 3679 H 341.579 3.60196 1.14312 0
M  V30 3680 H 341.892 7.53095 1.734 0
M  V30 3681 H 340.237 6.77123 1.56621 0
M  V30 3682 H 343.428 4.48647 1.33543 0
M  V30 3683 H 343.601 6.27806 1.6051 0
M  V30 3684 N 337.007 -0.598083 1.45811 0
M  V30 3685 C 337.937 -1.71873 1.58057 0
M  V30 3686 C 338.918 -1.64533 0.431615 0
M  V30 3687 O 340.103 -1.82787 0.65595 0
M  V30 3688 C 337.233 -3.10495 1.55597 0
M  V30 3689 C 336.187 -3.32654 2.69305 0
M  V30 3690 C 335.513 -4.71646 2.51902 0
M  V30 3691 C 336.813 -3.21981 4.11248 0
M  V30 3692 H 338.507 -1.61881 2.51863 0
M  V30 3693 H 336.053 -0.777372 1.21214 0
M  V30 3694 H 338.006 -3.88699 1.6276 0
M  V30 3695 H 336.73 -3.2135 0.583255 0
M  V30 3696 H 335.389 -2.56843 2.61586 0
M  V30 3697 H 335.037 -4.79246 1.52748 0
M  V30 3698 H 334.737 -4.87426 3.2816 0
M  V30 3699 H 336.261 -5.52038 2.60933 0
M  V30 3700 H 337.675 -3.90049 4.20161 0
M  V30 3701 H 336.072 -3.49289 4.87972 0
M  V30 3702 H 337.142 -2.1928 4.32486 0
M  V30 3703 N 338.485 -1.33259 -0.841409 0
M  V30 3704 C 339.713 -1.27605 -1.62864 0
M  V30 3705 C 340.128 0.153507 -1.88175 0
M  V30 3706 O 339.485 1.09485 -1.46011 0
M  V30 3707 C 339.536 -2.04596 -2.98031 0
M  V30 3708 O 339.257 -3.41975 -2.73834 0
M  V30 3709 C 340.758 -2.06122 -3.92465 0
M  V30 3710 H 337.978 -0.439718 -0.506842 0
M  V30 3711 H 340.522 -1.75591 -1.04824 0
M  V30 3712 H 338.677 -1.60299 -3.5268 0
M  V30 3713 H 339.091 -3.81549 -3.59889 0
M  V30 3714 H 340.565 -2.64451 -4.84531 0
M  V30 3715 H 341.042 -1.05083 -4.26444 0
M  V30 3716 H 341.648 -2.50427 -3.43753 0
M  V30 3717 N 339.963 1.05934 -1.16686 0
M  V30 3718 C 341.379 1.30938 -0.912542 0
M  V30 3719 C 341.579 1.96803 0.432533 0
M  V30 3720 O 340.635 2.23693 1.17123 0
M  V30 3721 C 341.948 2.18649 -2.06429 0
M  V30 3722 C 343.496 2.32055 -2.10047 0
M  V30 3723 C 343.971 3.23122 -3.24586 0
M  V30 3724 N 345.462 3.30706 -3.24327 0
M  V30 3725 C 346.197 4.01273 -4.09594 0
M  V30 3726 N 345.693 4.74332 -5.04956 0
M  V30 3727 N 347.486 3.97361 -3.97569 0
M  V30 3728 H 339.637 0.615777 -2.03278 0
M  V30 3729 H 341.9 0.334077 -0.887185 0
M  V30 3730 H 341.606 1.77534 -3.03603 0
M  V30 3731 H 341.48 3.19252 -2.00894 0
M  V30 3732 H 343.867 2.72415 -1.13464 0
M  V30 3733 H 343.948 1.31107 -2.19647 0
M  V30 3734 H 343.592 2.83477 -4.2143 0
M  V30 3735 H 343.522 4.24057 -3.12223 0
M  V30 3736 H 346.013 2.78644 -2.55276 0
M  V30 3737 H 346.326 5.25716 -5.6643 0
M  V30 3738 H 344.671 4.733 -5.08933 0
M  V30 3739 H 347.862 3.39405 -3.22369 0
M  V30 3740 H 348.035 4.52089 -4.64241 0
M  V30 3741 N 341.441 0.965919 1.2453 0
M  V30 3742 C 342.688 0.626831 1.92554 0
M  V30 3743 C 343.016 -0.837739 1.75534 0
M  V30 3744 O 342.271 -1.61793 1.10098 0
M  V30 3745 C 342.57 0.945428 3.44669 0
M  V30 3746 C 342.236 2.39785 3.81856 0
M  V30 3747 C 340.898 2.79483 3.91718 0
M  V30 3748 C 343.25 3.34055 4.00071 0
M  V30 3749 C 340.578 4.12496 4.1721 0
M  V30 3750 C 342.93 4.66694 4.27059 0
M  V30 3751 C 341.594 5.06172 4.3514 0
M  V30 3752 H 340.864 0.229374 0.704605 0
M  V30 3753 H 343.511 1.21707 1.4785 0
M  V30 3754 H 341.816 0.272926 3.90848 0
M  V30 3755 H 343.513 0.661484 3.95507 0
M  V30 3756 H 340.103 2.08003 3.74743 0
M  V30 3757 H 344.287 3.04571 3.91855 0
M  V30 3758 H 339.543 4.42709 4.21685 0
M  V30 3759 H 343.717 5.3971 4.40097 0
M  V30 3760 H 341.344 6.09262 4.54646 0
M  V30 3761 N 342.919 -1.39368 0.735821 0
M  V30 3762 C 343.849 -2.33234 0.111506 0
M  V30 3763 C 344.83 -1.53954 -0.723334 0
M  V30 3764 O 346.015 -1.82344 -0.668147 0
M  V30 3765 C 343.145 -3.38057 -0.795917 0
M  V30 3766 C 342.099 -4.2795 -0.065172 0
M  V30 3767 C 341.425 -5.23479 -1.08967 0
M  V30 3768 C 342.725 -5.10741 1.09273 0
M  V30 3769 H 344.419 -2.85692 0.895571 0
M  V30 3770 H 341.965 -1.37364 0.432109 0
M  V30 3771 H 343.918 -4.02675 -1.24221 0
M  V30 3772 H 342.642 -2.8404 -1.61211 0
M  V30 3773 H 341.301 -3.64813 0.361511 0
M  V30 3774 H 340.949 -4.65758 -1.89944 0
M  V30 3775 H 340.649 -5.84472 -0.605489 0
M  V30 3776 H 342.173 -5.90974 -1.53565 0
M  V30 3777 H 343.587 -5.68699 0.724841 0
M  V30 3778 H 341.984 -5.8088 1.50659 0
M  V30 3779 H 343.054 -4.45525 1.91404 0
M  V30 3780 N 344.397 -0.483516 -1.5 0
M  V30 3781 C 345.622 0.0667119 -2.07293 0
M  V30 3782 C 346.047 1.3164 -1.3436 0
M  V30 3783 O 345.405 1.76945 -0.394987 0
M  V30 3784 C 345.453 0.321126 -3.59167 0
M  V30 3785 O 344.557 1.39927 -3.87936 0
M  V30 3786 H 343.898 -0.0184758 -0.663743 0
M  V30 3787 H 346.428 -0.678125 -1.93035 0
M  V30 3788 H 346.438 0.557906 -4.04168 0
M  V30 3789 H 345.113 -0.592007 -4.11665 0
M  V30 3790 H 343.69 1.14882 -3.54763 0
M  V30 3791 N 345.875 1.56104 -0.216619 0
M  V30 3792 C 347.291 1.58995 0.13886 0
M  V30 3793 C 347.491 1.23333 1.59346 0
M  V30 3794 O 346.547 0.966234 2.33281 0
M  V30 3795 C 347.86 3.00143 -0.182968 0
M  V30 3796 C 349.408 3.12751 -0.124807 0
M  V30 3797 C 349.883 4.56068 -0.420241 0
M  V30 3798 N 351.374 4.61723 -0.369634 0
M  V30 3799 C 352.109 5.70542 -0.571789 0
M  V30 3800 N 351.605 6.87744 -0.835453 0
M  V30 3801 N 353.398 5.59831 -0.504563 0
M  V30 3802 H 345.549 1.77562 -1.16557 0
M  V30 3803 H 347.812 0.825091 -0.466828 0
M  V30 3804 H 347.518 3.30871 -1.19237 0
M  V30 3805 H 347.392 3.73813 0.504367 0
M  V30 3806 H 349.779 2.81822 0.875223 0
M  V30 3807 H 349.86 2.41421 -0.845544 0
M  V30 3808 H 349.504 4.87713 -1.41769 0
M  V30 3809 H 349.434 5.25617 0.321631 0
M  V30 3810 H 351.925 3.77502 -0.173338 0
M  V30 3811 H 352.238 7.66587 -0.977938 0
M  V30 3812 H 350.583 6.895 -0.872592 0
M  V30 3813 H 353.774 4.67145 -0.298842 0
M  V30 3814 H 353.947 6.44573 -0.665519 0
M  V30 3815 N 347.353 -0.0568162 1.57498 0
M  V30 3816 C 348.599 -0.75422 1.88253 0
M  V30 3817 C 348.932 -1.76461 0.810865 0
M  V30 3818 O 348.207 -1.93691 -0.177259 0
M  V30 3819 C 348.49 -1.44878 3.2967 0
M  V30 3820 C 348.343 -0.453789 4.47505 0
M  V30 3821 C 349.662 -2.38994 3.69554 0
M  V30 3822 H 346.781 -0.272724 0.684683 0
M  V30 3823 H 349.423 -0.0172113 1.89992 0
M  V30 3824 H 347.573 -2.077 3.28318 0
M  V30 3825 H 349.245 0.170371 4.60985 0
M  V30 3826 H 347.488 0.229552 4.33192 0
M  V30 3827 H 348.159 -0.977699 5.43273 0
M  V30 3828 H 350.635 -1.86239 3.72095 0
M  V30 3829 H 349.511 -2.84587 4.69363 0
M  V30 3830 H 349.772 -3.24461 3.00296 0
M  V30 3831 N 348.832 -1.54138 -0.328536 0
M  V30 3832 C 350.081 -1.71318 -1.06456 0
M  V30 3833 C 350.394 -0.491109 -1.89334 0
M  V30 3834 O 351.6 -0.54416 -2.65991 0
M  V30 3835 C 350.056 -3.03 -1.94214 0
M  V30 3836 C 349.664 -4.32595 -1.16471 0
M  V30 3837 C 351.408 -3.29544 -2.67583 0
M  V30 3838 C 349.315 -5.55341 -2.03347 0
M  V30 3839 H 348.245 -0.638429 -0.401155 0
M  V30 3840 H 350.896 -1.80633 -0.323106 0
M  V30 3841 H 349.278 -2.87579 -2.72239 0
M  V30 3842 H 350.452 -4.58766 -0.432525 0
M  V30 3843 H 348.767 -4.12777 -0.548063 0
M  V30 3844 H 351.364 -4.18444 -3.3288 0
M  V30 3845 H 351.707 -2.47206 -3.34955 0
M  V30 3846 H 352.24 -3.45809 -1.96623 0
M  V30 3847 H 348.979 -6.40268 -1.40491 0
M  V30 3848 H 348.499 -5.33397 -2.74313 0
M  V30 3849 H 350.178 -5.91557 -2.62049 0
M  V30 3850 N 350.31 0.590341 -1.46126 0
M  V30 3851 C 351.257 1.69994 -1.56111 0
M  V30 3852 C 352.227 1.61065 -0.405867 0
M  V30 3853 O 353.412 1.8039 -0.621613 0
M  V30 3854 C 350.552 3.08326 -1.55013 0
M  V30 3855 C 349.665 3.27936 -2.81215 0
M  V30 3856 C 348.8 4.56473 -2.71673 0
M  V30 3857 C 347.839 4.694 -3.92849 0
M  V30 3858 N 346.976 5.89254 -3.81738 0
M  V30 3859 H 351.816 1.60797 -2.50895 0
M  V30 3860 H 349.353 0.783799 -1.24479 0
M  V30 3861 H 351.311 3.88383 -1.52362 0
M  V30 3862 H 349.941 3.16439 -0.637667 0
M  V30 3863 H 348.993 2.41536 -2.93879 0
M  V30 3864 H 350.305 3.33357 -3.71045 0
M  V30 3865 H 349.459 5.44748 -2.67085 0
M  V30 3866 H 348.198 4.53477 -1.7947 0
M  V30 3867 H 347.203 3.79544 -3.97777 0
M  V30 3868 H 348.428 4.7418 -4.86138 0
M  V30 3869 H 346.374 5.87271 -2.92317 0
M  V30 3870 H 346.291 5.95911 -4.65217 0
M  V30 3871 H 347.559 6.79981 -3.81112 0
M  V30 3872 N 351.788 1.33704 0.83433 0
M  V30 3873 C 353.028 1.26754 1.60352 0
M  V30 3874 C 353.392 -0.163182 1.91305 0
M  V30 3875 O 354.593 -0.3567 2.66423 0
M  V30 3876 C 352.864 2.12262 2.8754 0
M  V30 3877 S 354.423 2.22549 3.78176 0
M  V30 3878 H 351.241 0.450879 0.549753 0
M  V30 3879 H 353.843 1.68788 0.986444 0
M  V30 3880 H 352.547 3.15238 2.62779 0
M  V30 3881 H 352.078 1.71082 3.54252 0
M  V30 3882 H 354.093 1.3899 4.76336 0
M  V30 3883 N 353.266 -1.05314 1.17247 0
M  V30 3884 C 354.543 -1.75184 0.87005 0
M  V30 3885 C 354.923 -2.01481 -0.629965 0
M  V30 3886 O 354.271 -1.64988 -1.58086 0
M  V30 3887 C 354.481 -3.04594 1.70363 0
M  V30 3888 C 355.829 -3.78567 1.92281 0
M  V30 3889 O 356.853 -3.14461 1.67311 0
M  V30 3890 O 355.712 -4.93755 2.3424 0
M  V30 3891 H 352.806 -0.761729 0.322021 0
M  V30 3892 H 355.352 -1.11493 1.27935 0
M  V30 3893 H 354.124 -2.81201 2.72106 0
M  V30 3894 H 353.747 -3.76022 1.29202 0
M  V30 3895 N 354.744 -0.972509 -1.24016 0
M  V30 3896 C 356.155 -0.67517 -1.74064 0
M  V30 3897 C 356.506 0.808939 -1.78747 0
M  V30 3898 O 355.631 1.63286 -1.42009 0
M  V30 3899 C 356.226 -1.21889 -3.16115 0
M  V30 3900 C 354.785 -0.971358 -3.6365 0
M  V30 3901 C 353.932 -1.35134 -2.42145 0
M  V30 3902 H 356.883 -1.14727 -1.09651 0
M  V30 3903 H 356.904 -0.587489 -3.75937 0
M  V30 3904 H 356.416 -2.29906 -3.12674 0
M  V30 3905 H 354.517 0.0930686 -3.72484 0
M  V30 3906 H 354.63 -1.62039 -4.50866 0
M  V30 3907 H 352.994 -0.769751 -2.4279 0
M  V30 3908 H 353.777 -2.4411 -2.41381 0
M  V30 3909 N 356.222 1.38976 -0.743202 0
M  V30 3910 C 357.499 1.94351 -0.220705 0
M  V30 3911 C 357.879 1.67935 1.2791 0
M  V30 3912 O 357.227 1.01211 2.04862 0
M  V30 3913 C 357.437 3.44426 -0.563171 0
M  V30 3914 C 358.785 4.2144 -0.517046 0
M  V30 3915 O 359.809 3.52661 -0.500846 0
M  V30 3916 O 358.668 5.44032 -0.518806 0
M  V30 3917 H 355.762 0.825879 -0.043047 0
M  V30 3918 H 358.308 1.48429 -0.822618 0
M  V30 3919 H 357.08 3.5712 -1.59941 0
M  V30 3920 H 356.703 3.97543 0.0672883 0
M  V30 3921 N 357.7 0.491464 1.49741 0
M  V30 3922 C 358.94 -0.0549118 2.04326 0
M  V30 3923 C 359.304 -1.35148 1.36378 0
M  V30 3924 O 360.505 -1.9815 1.81631 0
M  V30 3925 C 358.776 -0.213841 3.5676 0
M  V30 3926 S 360.335 -0.715839 4.32922 0
M  V30 3927 H 357.153 -0.00630513 0.710972 0
M  V30 3928 H 359.755 0.663257 1.83905 0
M  V30 3929 H 358.459 0.73527 4.0376 0
M  V30 3930 H 357.99 -0.957529 3.81569 0
M  V30 3931 H 360.005 -1.9864 4.54705 0
M  V30 3932 N 359.178 -1.55987 0.224894 0
M  V30 3933 C 360.108 -2.23426 -0.678457 0
M  V30 3934 C 361.089 -1.20709 -1.19847 0
M  V30 3935 O 362.274 -1.49304 -1.24186 0
M  V30 3936 C 359.404 -2.91676 -1.88527 0
M  V30 3937 C 358.358 -4.00893 -1.49896 0
M  V30 3938 C 357.684 -4.56455 -2.78483 0
M  V30 3939 C 358.984 -5.17769 -0.686461 0
M  V30 3940 H 360.678 -2.99175 -0.116173 0
M  V30 3941 H 358.224 -1.43897 -0.054436 0
M  V30 3942 H 360.177 -3.37547 -2.5227 0
M  V30 3943 H 358.901 -2.1338 -2.47258 0
M  V30 3944 H 357.56 -3.55758 -0.884985 0
M  V30 3945 H 357.208 -3.74886 -3.35365 0
M  V30 3946 H 356.908 -5.30169 -2.53368 0
M  V30 3947 H 358.432 -5.05047 -3.43162 0
M  V30 3948 H 359.846 -5.60001 -1.22767 0
M  V30 3949 H 358.243 -5.97735 -0.532259 0
M  V30 3950 H 359.313 -4.83932 0.306196 0
M  V30 3951 N 360.656 0.0484629 -1.57525 0
M  V30 3952 C 362.072 0.40375 -1.54409 0
M  V30 3953 C 362.272 1.77786 -0.948384 0
M  V30 3954 O 361.328 2.46189 -0.560983 0
M  V30 3955 C 362.641 0.323394 -2.98956 0
M  V30 3956 C 364.189 0.401892 -3.10409 0
M  V30 3957 C 364.664 0.351195 -4.56652 0
M  V30 3958 N 366.155 0.410576 -4.61377 0
M  V30 3959 C 366.89 0.393933 -5.72045 0
M  V30 3960 N 366.386 0.330724 -6.9201 0
M  V30 3961 N 368.179 0.442227 -5.60358 0
M  V30 3962 H 360.33 -0.851016 -1.94606 0
M  V30 3963 H 362.593 -0.321721 -0.89174 0
M  V30 3964 H 362.299 -0.62011 -3.4619 0
M  V30 3965 H 362.173 1.12463 -3.60044 0
M  V30 3966 H 364.56 1.33582 -2.63134 0
M  V30 3967 H 364.641 -0.428342 -2.52188 0
M  V30 3968 H 364.285 -0.578987 -5.04589 0
M  V30 3969 H 364.215 1.19928 -5.12762 0
M  V30 3970 H 366.706 0.462729 -3.75056 0
M  V30 3971 H 367.019 0.322592 -7.72126 0
M  V30 3972 H 365.364 0.29706 -6.94365 0
M  V30 3973 H 368.555 0.489464 -4.65534 0
M  V30 3974 H 368.728 0.425788 -6.466 0
M  V30 3975 N 362.134 1.5431 0.320358 0
M  V30 3976 C 363.097 1.83195 1.3774 0
M  V30 3977 C 364.097 0.703906 1.44575 0
M  V30 3978 O 365.287 0.972214 1.44546 0
M  V30 3979 C 362.419 1.99487 2.76438 0
M  V30 3980 H 363.612 2.77642 1.1338 0
M  V30 3981 H 361.165 1.46076 0.556012 0
M  V30 3982 H 361.9 1.07262 3.06048 0
M  V30 3983 H 361.685 2.81575 2.7287 0
M  V30 3984 H 363.175 2.23271 3.52902 0
M  V30 3985 N 363.613 -0.582584 1.46437 0
M  V30 3986 C 364.853 -1.35184 1.53312 0
M  V30 3987 C 365.217 -1.9115 0.180508 0
M  V30 3988 O 366.418 -2.68514 0.124017 0
M  V30 3989 C 364.689 -2.45089 2.60127 0
M  V30 3990 S 366.248 -3.32439 2.86408 0
M  V30 3991 H 363.066 -0.460559 0.54167 0
M  V30 3992 H 365.668 -0.669709 1.83671 0
M  V30 3993 H 364.372 -2.02366 3.57038 0
M  V30 3994 H 363.903 -3.18074 2.315 0
M  V30 3995 H 365.918 -4.43924 2.21688 0
M  V30 3996 N 365.091 -1.34144 -0.827227 0
M  V30 3997 C 366.023 -1.21206 -1.9453 0
M  V30 3998 C 367.036 -0.140176 -1.62195 0
M  V30 3999 O 368.225 -0.391647 -1.7415 0
M  V30 4000 C 365.325 -0.839141 -3.28347 0
M  V30 4001 C 364.498 -2.0051 -3.88734 0
M  V30 4002 C 363.557 -1.61128 -5.00923 0
M  V30 4003 O 362.583 -2.32726 -5.19449 0
M  V30 4004 N 363.785 -0.522958 -5.7814 0
M  V30 4005 H 366.55 -2.17525 -2.06162 0
M  V30 4006 H 364.111 -1.27043 -1.00358 0
M  V30 4007 H 366.103 -0.557556 -4.00841 0
M  V30 4008 H 364.673 0.0337293 -3.12582 0
M  V30 4009 H 363.893 -2.45166 -3.08686 0
M  V30 4010 H 365.181 -2.78498 -4.25812 0
M  V30 4011 H 364.579 0.0723518 -5.65654 0
M  V30 4012 H 363.136 -0.301089 -6.51104 0
M  V30 4013 N 366.569 1.04691 -1.17803 0
M  V30 4014 C 367.479 2.16057 -0.914151 0
M  V30 4015 C 368.495 1.73589 0.119503 0
M  V30 4016 O 369.671 2.01308 -0.0609468 0
M  V30 4017 C 366.736 3.4394 -0.436603 0
M  V30 4018 C 365.797 4.00825 -1.53746 0
M  V30 4019 C 365.03 5.22604 -1.0826 0
M  V30 4020 O 365.253 5.70367 0.0612244 0
M  V30 4021 O 364.187 5.7186 -1.87775 0
M  V30 4022 H 368.013 2.41169 -1.84584 0
M  V30 4023 H 365.598 1.1453 -0.959334 0
M  V30 4024 H 367.48 4.21024 -0.178057 0
M  V30 4025 H 366.155 3.20316 0.466869 0
M  V30 4026 H 365.062 3.25158 -1.84995 0
M  V30 4027 H 366.395 4.28778 -2.41683 0
M  V30 4028 N 368.047 0.979072 1.23499 0
M  V30 4029 C 368.979 0.476271 2.24197 0
M  V30 4030 C 369.992 -0.421166 1.57258 0
M  V30 4031 O 371.181 -0.225515 1.7707 0
M  V30 4032 C 368.281 -0.330503 3.37285 0
M  V30 4033 C 367.454 0.559744 4.33804 0
M  V30 4034 C 366.513 -0.192954 5.25846 0
M  V30 4035 O 365.539 0.416978 5.67671 0
M  V30 4036 N 366.741 -1.47932 5.61334 0
M  V30 4037 H 369.506 1.34211 2.67969 0
M  V30 4038 H 367.067 0.852189 1.37657 0
M  V30 4039 H 369.059 -0.842361 3.95836 0
M  V30 4040 H 367.629 -1.09734 2.92707 0
M  V30 4041 H 366.849 1.25245 3.73775 0
M  V30 4042 H 368.137 1.1665 4.95248 0
M  V30 4043 H 367.535 -1.9964 5.29302 0
M  V30 4044 H 366.092 -1.93664 6.22364 0
M  V30 4045 N 369.525 -1.3858 0.750561 0
M  V30 4046 C 370.774 -1.99424 0.302172 0
M  V30 4047 C 371.087 -1.60254 -1.12152 0
M  V30 4048 O 372.293 -2.14046 -1.67023 0
M  V30 4049 C 370.749 -3.56558 0.489307 0
M  V30 4050 C 370.357 -4.04682 1.92189 0
M  V30 4051 C 372.101 -4.24374 0.103478 0
M  V30 4052 C 370.008 -5.54446 2.05775 0
M  V30 4053 H 368.938 -0.746046 0.10923 0
M  V30 4054 H 371.589 -1.58383 0.92667 0
M  V30 4055 H 369.971 -3.95472 -0.204329 0
M  V30 4056 H 371.145 -3.77065 2.64875 0
M  V30 4057 H 369.46 -3.4958 2.26236 0
M  V30 4058 H 372.057 -5.34384 0.183787 0
M  V30 4059 H 372.4 -4.05468 -0.943481 0
M  V30 4060 H 372.933 -3.90688 0.748854 0
M  V30 4061 H 369.672 -5.78252 3.08714 0
M  V30 4062 H 369.192 -5.83816 1.37546 0
M  V30 4063 H 370.871 -6.20099 1.84626 0
M  V30 4064 N 371.003 -0.499398 -1.49478 0
M  V30 4065 C 371.913 0.284489 -2.32869 0
M  V30 4066 C 372.929 0.968885 -1.44529 0
M  V30 4067 O 374.105 0.95062 -1.77553 0
M  V30 4068 C 371.17 1.33594 -3.19928 0
M  V30 4069 C 370.231 0.665149 -4.24116 0
M  V30 4070 C 369.464 1.6665 -5.07014 0
M  V30 4071 O 369.687 2.89618 -4.91404 0
M  V30 4072 O 368.621 1.22271 -5.8935 0
M  V30 4073 H 372.447 -0.39802 -3.01081 0
M  V30 4074 H 370.032 -0.260758 -1.47107 0
M  V30 4075 H 371.914 1.94431 -3.73864 0
M  V30 4076 H 370.589 2.0014 -2.54412 0
M  V30 4077 H 369.496 0.0170769 -3.74096 0
M  V30 4078 H 370.829 0.0421555 -4.92182 0
M  V30 4079 N 372.481 1.55866 -0.233164 0
M  V30 4080 C 373.444 2.1953 0.658715 0
M  V30 4081 C 374.444 1.16053 1.11303 0
M  V30 4082 O 375.634 1.41218 1.01996 0
M  V30 4083 C 372.766 2.82791 1.90373 0
M  V30 4084 H 373.959 2.99721 0.10347 0
M  V30 4085 H 371.512 1.56291 0.0164245 0
M  V30 4086 H 372.247 2.06501 2.50056 0
M  V30 4087 H 372.032 3.58578 1.58632 0
M  V30 4088 H 373.522 3.31556 2.53891 0
M  V30 4089 N 373.959 -0.0401083 1.57549 0
M  V30 4090 C 374.889 -1.04384 2.08869 0
M  V30 4091 C 375.87 -1.38407 0.988817 0
M  V30 4092 O 377.055 -1.47483 1.26342 0
M  V30 4093 C 374.185 -2.34808 2.55895 0
M  V30 4094 C 373.139 -2.15057 3.70047 0
M  V30 4095 C 372.465 -3.51145 4.03239 0
M  V30 4096 C 373.765 -1.54576 4.98902 0
M  V30 4097 H 375.459 -0.616666 2.92981 0
M  V30 4098 H 373.005 -0.295184 1.40942 0
M  V30 4099 H 374.958 -3.05346 2.90417 0
M  V30 4100 H 373.682 -2.79565 1.68853 0
M  V30 4101 H 372.341 -1.46954 3.35857 0
M  V30 4102 H 371.989 -3.93529 3.13279 0
M  V30 4103 H 371.689 -3.38758 4.80122 0
M  V30 4104 H 373.213 -4.23062 4.40285 0
M  V30 4105 H 374.627 -2.15017 5.31451 0
M  V30 4106 H 373.024 -1.52796 5.80322 0
M  V30 4107 H 374.094 -0.51039 4.82206 0
M  V30 4108 N 375.437 -1.54477 -0.31217 0
M  V30 4109 C 376.367 -1.87652 -1.38957 0
M  V30 4110 C 377.348 -0.734358 -1.53431 0
M  V30 4111 O 378.533 -0.98911 -1.67123 0
M  V30 4112 C 375.663 -2.11396 -2.75552 0
M  V30 4113 C 374.617 -3.27243 -2.75855 0
M  V30 4114 C 373.943 -3.36382 -4.15633 0
M  V30 4115 C 375.243 -4.64622 -2.38587 0
M  V30 4116 H 376.937 -2.77887 -1.11442 0
M  V30 4117 H 374.483 -1.33707 -0.534655 0
M  V30 4118 H 376.436 -2.33189 -3.51 0
M  V30 4119 H 375.16 -1.17921 -3.04569 0
M  V30 4120 H 373.819 -3.05356 -2.02863 0
M  V30 4121 H 373.467 -2.40445 -4.41809 0
M  V30 4122 H 373.167 -4.14249 -4.1674 0
M  V30 4123 H 374.691 -3.60422 -4.92877 0
M  V30 4124 H 376.105 -4.86219 -3.03749 0
M  V30 4125 H 374.502 -5.45121 -2.50925 0
M  V30 4126 H 375.572 -4.66097 -1.33723 0
M  V30 4127 N 376.915 0.57481 -1.46744 0
M  V30 4128 C 377.825 1.711 -1.60505 0
M  V30 4129 C 378.841 1.67008 -0.488307 0
M  V30 4130 O 380.017 1.86774 -0.753495 0
M  V30 4131 C 377.082 3.07608 -1.59932 0
M  V30 4132 C 376.143 3.22904 -2.82898 0
M  V30 4133 C 375.376 4.529 -2.82343 0
M  V30 4134 O 375.599 5.37278 -1.91542 0
M  V30 4135 O 374.533 4.71611 -3.73987 0
M  V30 4136 H 378.359 1.62436 -2.56609 0
M  V30 4137 H 375.944 0.742779 -1.29627 0
M  V30 4138 H 377.826 3.88877 -1.62336 0
M  V30 4139 H 376.501 3.16692 -0.669898 0
M  V30 4140 H 375.408 2.41099 -2.86046 0
M  V30 4141 H 376.741 3.18715 -3.75076 0
M  V30 4142 N 378.394 1.34581 0.820102 0
M  V30 4143 C 379.619 1.30333 1.61332 0
M  V30 4144 C 380.044 -0.119339 1.87721 0
M  V30 4145 O 379.402 -1.08197 1.45475 0
M  V30 4146 C 379.45 2.10258 2.92957 0
M  V30 4147 O 378.554 1.47404 3.85157 0
M  V30 4148 H 377.895 0.447488 0.490561 0
M  V30 4149 H 380.425 1.77425 1.01889 0
M  V30 4150 H 380.435 2.21718 3.42498 0
M  V30 4151 H 379.11 3.13693 2.73074 0
M  V30 4152 H 377.687 1.44703 3.43679 0
M  V30 4153 N 379.872 -1.04064 1.18357 0
M  V30 4154 C 381.097 -1.81454 1.00445 0
M  V30 4155 C 381.522 -1.82823 -0.442423 0
M  V30 4156 O 380.88 -1.24555 -1.31741 0
M  V30 4157 C 380.928 -3.24925 1.56384 0
M  V30 4158 O 380.032 -4.04856 0.785209 0
M  V30 4159 H 379.373 -0.560604 0.355835 0
M  V30 4160 H 381.903 -1.31059 1.57114 0
M  V30 4161 H 381.913 -3.75702 1.59097 0
M  V30 4162 H 380.588 -3.23244 2.61699 0
M  V30 4163 H 379.165 -3.63537 0.830399 0
M  V30 4164 N 381.35 -0.985608 -1.22978 0
M  V30 4165 C 382.28 -0.549649 -2.26939 0
M  V30 4166 C 383.261 0.419803 -1.64838 0
M  V30 4167 O 384.446 0.31203 -1.91677 0
M  V30 4168 C 381.576 0.143652 -3.47003 0
M  V30 4169 C 380.53 -0.743606 -4.21491 0
M  V30 4170 C 379.856 0.0822027 -5.34637 0
M  V30 4171 C 381.156 -2.03694 -4.80943 0
M  V30 4172 H 382.85 -1.41862 -2.63658 0
M  V30 4173 H 380.396 -0.683571 -1.26741 0
M  V30 4174 H 382.349 0.459985 -4.18882 0
M  V30 4175 H 381.073 1.04711 -3.09359 0
M  V30 4176 H 379.732 -1.04347 -3.51436 0
M  V30 4177 H 379.38 0.986359 -4.93234 0
M  V30 4178 H 379.08 -0.508377 -5.85397 0
M  V30 4179 H 380.604 0.392797 -6.09335 0
M  V30 4180 H 382.018 -1.78504 -5.44802 0
M  V30 4181 H 380.415 -2.57573 -5.42011 0
M  V30 4182 H 381.485 -2.72042 -4.01399 0
M  V30 4183 N 382.828 1.3818 -0.7579 0
M  V30 4184 C 384.244 1.5353 -0.435972 0
M  V30 4185 C 384.444 1.71961 1.05032 0
M  V30 4186 O 383.5 1.73307 1.83633 0
M  V30 4187 C 384.813 2.73989 -1.23898 0
M  V30 4188 C 386.361 2.87841 -1.22949 0
M  V30 4189 C 386.836 4.11266 -2.01554 0
M  V30 4190 N 388.327 4.18352 -1.98837 0
M  V30 4191 C 389.062 5.12856 -2.5645 0
M  V30 4192 N 388.558 6.13005 -3.22794 0
M  V30 4193 N 390.351 5.05238 -2.46356 0
M  V30 4194 H 382.502 1.24467 -1.7211 0
M  V30 4195 H 384.765 0.604982 -0.729864 0
M  V30 4196 H 384.471 2.66789 -2.29165 0
M  V30 4197 H 384.345 3.67294 -0.858764 0
M  V30 4198 H 386.732 2.9452 -0.184854 0
M  V30 4199 H 386.813 1.95534 -1.64924 0
M  V30 4200 H 386.457 4.05349 -3.06031 0
M  V30 4201 H 386.387 5.02661 -1.5697 0
M  V30 4202 H 388.878 3.46628 -1.50524 0
M  V30 4203 H 389.191 6.81619 -3.64165 0
M  V30 4204 H 387.536 6.13325 -3.2689 0
M  V30 4205 H 390.727 4.25938 -1.9415 0
M  V30 4206 H 390.9 5.78707 -2.91552 0
M  V30 4207 N 384.306 0.507319 1.49211 0
M  V30 4208 C 385.238 -0.304532 2.27168 0
M  V30 4209 C 386.251 -0.924956 1.33972 0
M  V30 4210 O 387.44 -0.807227 1.59205 0
M  V30 4211 C 384.54 -1.44431 3.06583 0
M  V30 4212 C 383.713 -0.930026 4.27398 0
M  V30 4213 C 382.772 -1.94817 4.88807 0
M  V30 4214 O 381.798 -1.51418 5.4869 0
M  V30 4215 N 383 -3.279 4.79022 0
M  V30 4216 H 385.765 0.36395 2.97482 0
M  V30 4217 H 383.326 0.340249 1.58284 0
M  V30 4218 H 385.318 -2.12311 3.44537 0
M  V30 4219 H 383.888 -2.01684 2.38835 0
M  V30 4220 H 383.108 -0.0759244 3.94127 0
M  V30 4221 H 384.396 -0.564932 5.05654 0
M  V30 4222 H 383.794 -3.65843 4.3148 0
M  V30 4223 H 382.351 -3.91476 5.21142 0
M  V30 4224 N 385.784 -1.5574 0.241426 0
M  V30 4225 C 386.747 -2.19877 -0.647063 0
M  V30 4226 C 387.747 -1.16642 -1.10686 0
M  V30 4227 O 388.937 -1.41757 -1.01245 0
M  V30 4228 C 386.069 -2.83797 -1.88871 0
M  V30 4229 H 387.262 -2.99772 -0.087574 0
M  V30 4230 H 384.815 -1.56298 -0.00813574 0
M  V30 4231 H 385.55 -2.07824 -2.48957 0
M  V30 4232 H 385.335 -3.59414 -1.56728 0
M  V30 4233 H 386.825 -3.32898 -2.52129 0
M  V30 4234 N 387.262 0.0317525 -1.57568 0
M  V30 4235 C 388.194 1.06073 -2.03178 0
M  V30 4236 C 389.207 1.32627 -0.944132 0
M  V30 4237 O 390.396 1.30162 -1.22148 0
M  V30 4238 C 387.496 2.40297 -2.38978 0
M  V30 4239 C 386.669 2.33137 -3.70089 0
M  V30 4240 C 385.728 3.49787 -3.9311 0
M  V30 4241 O 384.754 3.29403 -4.64201 0
M  V30 4242 N 385.956 4.71562 -3.38541 0
M  V30 4243 H 388.721 0.672006 -2.92069 0
M  V30 4244 H 386.282 0.219745 -1.60402 0
M  V30 4245 H 388.274 3.1705 -2.51518 0
M  V30 4246 H 386.844 2.71024 -1.55771 0
M  V30 4247 H 386.064 1.415 -3.67928 0
M  V30 4248 H 387.352 2.25493 -4.56104 0
M  V30 4249 H 386.75 4.91024 -2.80912 0
M  V30 4250 H 385.307 5.45689 -3.56464 0
M  V30 4251 N 388.74 1.54641 0.303973 0
M  V30 4252 C 389.672 1.81754 1.39636 0
M  V30 4253 C 390.685 0.70035 1.46966 0
M  V30 4254 O 391.874 0.97778 1.49338 0
M  V30 4255 C 388.974 1.93785 2.7803 0
M  V30 4256 C 388.147 3.24156 2.93669 0
M  V30 4257 C 387.206 3.26641 4.12544 0
M  V30 4258 O 386.232 4.00187 4.04771 0
M  V30 4259 N 387.434 2.5182 5.23036 0
M  V30 4260 H 390.199 2.76031 1.16734 0
M  V30 4261 H 387.76 1.54178 0.494033 0
M  V30 4262 H 389.752 1.92852 3.55795 0
M  V30 4263 H 388.322 1.06515 2.93893 0
M  V30 4264 H 387.542 3.37887 2.03042 0
M  V30 4265 H 388.83 4.10195 3.01027 0
M  V30 4266 H 388.228 1.91692 5.32232 0
M  V30 4267 H 386.785 2.56644 5.99147 0
M  V30 4268 N 390.218 -0.567019 1.47046 0
M  V30 4269 C 391.166 -1.69593 1.59188 0
M  V30 4270 C 392.16 -1.63046 0.459609 0
M  V30 4271 O 393.366 -1.6835 0.637058 0
M  V30 4272 H 389.741 -0.560993 0.500791 0
M  V30 4273 H 391.712 -1.56488 2.54075 0
M  V30 4274 C 390.461 -3.07964 1.61411 0
M  V30 4275 H 389.784 -3.13679 2.47881 0
M  V30 4276 H 391.224 -3.86671 1.73958 0
M  V30 4277 C 389.683 -3.35123 0.34559 0
M  V30 4278 O 390.213 -3.97812 -0.557521 0
M  V30 4279 N 388.419 -2.89699 0.22864 0
M  V30 4280 H 387.966 -2.38863 0.964479 0
M  V30 4281 H 387.924 -3.08242 -0.619192 0
M  V30 4282 N 391.696 -1.35014 -0.812953 0
M  V30 4283 C 392.629 -1.21761 -1.93001 0
M  V30 4284 C 393.607 -0.10694 -1.62248 0
M  V30 4285 O 394.791 -0.273891 -1.865 0
M  V30 4286 C 391.918 -0.873404 -3.27245 0
M  V30 4287 C 390.964 -1.99523 -3.76952 0
M  V30 4288 S 391.797 -3.61009 -3.95516 0
M  V30 4289 C 392.953 -3.28651 -5.32672 0
M  V30 4290 H 393.186 -2.16315 -2.03948 0
M  V30 4291 H 390.719 -1.20156 -0.969631 0
M  V30 4292 H 392.677 -0.68161 -4.04802 0
M  V30 4293 H 391.338 0.053971 -3.14054 0
M  V30 4294 H 390.531 -1.70838 -4.74163 0
M  V30 4295 H 390.133 -2.14503 -3.06373 0
M  V30 4296 H 392.425 -2.81085 -6.1644 0
M  V30 4297 H 393.368 -4.25039 -5.66346 0
M  V30 4298 H 393.776 -2.6458 -4.98656 0
M  V30 4299 N 393.175 1.03435 -1.18907 0
M  V30 4300 C 394.452 1.73778 -0.89781 0
M  V30 4301 C 394.832 2.02458 0.597832 0
M  V30 4302 O 394.18 1.67482 1.55441 0
M  V30 4303 C 394.39 3.01845 -1.75187 0
M  V30 4304 C 395.738 3.7546 -1.9828 0
M  V30 4305 O 396.762 3.11759 -1.72293 0
M  V30 4306 O 395.621 4.89966 -2.42065 0
M  V30 4307 H 392.715 0.75651 -0.334098 0
M  V30 4308 H 395.261 1.09444 -1.29693 0
M  V30 4309 H 394.033 2.76836 -2.76545 0
M  V30 4310 H 393.656 3.73919 -1.35167 0
M  V30 4311 N 394.653 0.992116 1.22453 0
M  V30 4312 C 396.064 0.702776 1.72968 0
M  V30 4313 C 396.415 -0.780399 1.80012 0
M  V30 4314 O 395.54 -1.61007 1.44589 0
M  V30 4315 C 396.135 1.26903 3.14135 0
M  V30 4316 C 394.694 1.02909 3.62059 0
M  V30 4317 C 393.841 1.38969 2.39964 0
M  V30 4318 H 396.792 1.16457 1.07812 0
M  V30 4319 H 396.813 0.647223 3.74955 0
M  V30 4320 H 396.325 2.34851 3.08977 0
M  V30 4321 H 394.426 -0.0337979 3.72585 0
M  V30 4322 H 394.539 1.69191 4.48231 0
M  V30 4323 H 392.903 0.808279 2.41535 0
M  V30 4324 H 393.686 2.4792 2.37467 0
M  V30 4325 N 396.131 -1.37776 0.765217 0
M  V30 4326 C 397.078 -2.30342 0.145274 0
M  V30 4327 C 398.048 -1.5077 -0.696971 0
M  V30 4328 O 399.233 -1.79362 -0.650689 0
M  V30 4329 C 396.373 -3.37227 -0.732939 0
M  V30 4330 C 395.486 -4.31819 0.125199 0
M  V30 4331 C 394.621 -5.25777 -0.757107 0
M  V30 4332 C 393.66 -6.12012 0.103963 0
M  V30 4333 N 392.797 -6.98232 -0.735953 0
M  V30 4334 H 397.637 -2.8278 0.940195 0
M  V30 4335 H 395.174 -1.39211 0.475255 0
M  V30 4336 H 397.132 -3.97818 -1.25686 0
M  V30 4337 H 395.762 -2.86171 -1.49353 0
M  V30 4338 H 394.814 -3.7259 0.766865 0
M  V30 4339 H 396.126 -4.92509 0.789683 0
M  V30 4340 H 395.28 -5.91541 -1.34776 0
M  V30 4341 H 394.019 -4.65481 -1.45529 0
M  V30 4342 H 393.024 -5.45233 0.707197 0
M  V30 4343 H 394.249 -6.74379 0.799381 0
M  V30 4344 H 392.195 -6.40472 -1.41887 0
M  V30 4345 H 392.112 -7.55891 -0.128624 0
M  V30 4346 H 393.38 -7.68393 -1.31121 0
M  V30 4347 N 397.609 -0.515225 -1.4894 0
M  V30 4348 C 398.572 0.244681 -2.2789 0
M  V30 4349 C 399.572 0.881166 -1.34507 0
M  V30 4350 O 400.762 0.743497 -1.57537 0
M  V30 4351 C 397.894 1.35247 -3.12923 0
M  V30 4352 H 399.087 -0.448289 -2.96531 0
M  V30 4353 H 396.64 -0.270656 -1.53939 0
M  V30 4354 H 397.375 2.07916 -2.48881 0
M  V30 4355 H 397.16 0.901374 -3.81599 0
M  V30 4356 H 398.65 1.88737 -3.72516 0
M  V30 4357 N 399.087 1.5561 -0.249682 0
M  V30 4358 C 400.05 2.20217 0.635394 0
M  V30 4359 C 401.05 1.17227 1.10066 0
M  V30 4360 O 402.24 1.42292 1.00492 0
M  V30 4361 C 399.372 2.84794 1.87363 0
M  V30 4362 H 400.565 2.99814 0.0716752 0
M  V30 4363 H 398.118 1.563 -0.000153234 0
M  V30 4364 H 398.853 2.09142 2.47851 0
M  V30 4365 H 398.638 3.60241 1.5482 0
M  V30 4366 H 400.128 3.3423 2.5036 0
M  V30 4367 N 400.565 -0.0233959 1.57583 0
M  V30 4368 C 401.475 -1.03907 2.10334 0
M  V30 4369 C 402.491 -1.39257 1.04323 0
M  V30 4370 O 403.667 -1.48462 1.36091 0
M  V30 4371 C 400.732 -2.31938 2.57693 0
M  V30 4372 C 399.793 -2.03117 3.78209 0
M  V30 4373 C 399.026 -3.25043 4.233 0
M  V30 4374 O 399.249 -4.35916 3.67876 0
M  V30 4375 O 398.183 -3.10411 5.15683 0
M  V30 4376 H 402.009 -0.620748 2.97288 0
M  V30 4377 H 399.594 -0.240743 1.47448 0
M  V30 4378 H 401.476 -3.07196 2.88458 0
M  V30 4379 H 400.151 -2.73055 1.73847 0
M  V30 4380 H 399.058 -1.25408 3.52454 0
M  V30 4381 H 400.391 -1.66852 4.63056 0
M  V30 4382 N 402.043 -1.548 -0.295768 0
M  V30 4383 C 402.953 -1.89177 -1.38742 0
M  V30 4384 C 403.969 -0.786481 -1.55211 0
M  V30 4385 O 405.145 -1.08344 -1.69775 0
M  V30 4386 C 402.21 -2.13663 -2.73036 0
M  V30 4387 C 401.271 -3.37349 -2.65508 0
M  V30 4388 C 400.504 -3.60658 -3.93398 0
M  V30 4389 O 400.727 -2.86882 -4.93006 0
M  V30 4390 O 399.661 -4.54179 -3.94975 0
M  V30 4391 H 403.487 -2.82059 -1.12589 0
M  V30 4392 H 401.072 -1.41056 -0.492295 0
M  V30 4393 H 402.954 -2.3094 -3.52484 0
M  V30 4394 H 401.629 -1.23967 -2.99022 0
M  V30 4395 H 400.536 -3.25431 -1.84514 0
M  V30 4396 H 401.869 -4.27192 -2.44474 0
M  V30 4397 N 403.521 0.559213 -1.47345 0
M  V30 4398 C 404.431 1.69388 -1.62311 0
M  V30 4399 C 405.447 1.6648 -0.505993 0
M  V30 4400 O 406.623 1.85964 -0.773262 0
M  V30 4401 C 403.688 3.05894 -1.63185 0
M  V30 4402 C 402.749 3.19885 -2.86307 0
M  V30 4403 C 401.982 4.49879 -2.87131 0
M  V30 4404 O 402.205 5.35217 -1.97229 0
M  V30 4405 O 401.139 4.67618 -3.78968 0
M  V30 4406 H 404.965 1.59706 -2.58317 0
M  V30 4407 H 402.55 0.728989 -1.30407 0
M  V30 4408 H 404.432 3.87133 -1.66451 0
M  V30 4409 H 403.107 3.15964 -0.70345 0
M  V30 4410 H 402.014 2.38052 -2.88587 0
M  V30 4411 H 403.347 3.14718 -3.78435 0
M  V30 4412 N 404.999 1.35443 0.805782 0
M  V30 4413 C 405.909 1.30546 1.94923 0
M  V30 4414 C 406.925 0.210233 1.72725 0
M  V30 4415 O 408.101 0.43975 1.9654 0
M  V30 4416 C 405.166 1.07782 3.29521 0
M  V30 4417 C 404.227 2.26625 3.64609 0
M  V30 4418 C 403.46 2.04938 4.92784 0
M  V30 4419 O 403.683 1.01624 5.61274 0
M  V30 4420 O 402.617 2.9232 5.26149 0
M  V30 4421 H 406.443 2.26779 2.02002 0
M  V30 4422 H 404.028 1.15823 0.943682 0
M  V30 4423 H 405.91 0.969392 4.10098 0
M  V30 4424 H 404.585 0.146003 3.23371 0
M  V30 4425 H 403.492 2.43033 2.84404 0
M  V30 4426 H 404.825 3.18257 3.75464 0
M  V30 4427 N 406.477 -1.02803 1.19454 0
M  V30 4428 C 407.387 -2.14575 0.948408 0
M  V30 4429 C 408.403 -1.73757 -0.091871 0
M  V30 4430 O 409.579 -2.01185 0.0929654 0
M  V30 4431 C 406.644 -3.43202 0.491265 0
M  V30 4432 C 405.705 -3.98328 1.60103 0
M  V30 4433 C 404.938 -5.20816 1.16561 0
M  V30 4434 O 405.161 -5.70392 0.0295238 0
M  V30 4435 O 404.095 -5.68801 1.96849 0
M  V30 4436 H 407.921 -2.38202 1.88397 0
M  V30 4437 H 405.506 -1.12989 0.977433 0
M  V30 4438 H 407.388 -4.20687 0.245015 0
M  V30 4439 H 406.063 -3.21018 -0.415851 0
M  V30 4440 H 404.97 -3.22174 1.90144 0
M  V30 4441 H 406.303 -4.24879 2.48473 0
M  V30 4442 N 407.956 -0.998596 -1.21925 0
M  V30 4443 C 408.866 -0.562736 -2.27751 0
M  V30 4444 C 409.882 0.391203 -1.69545 0
M  V30 4445 O 411.058 0.256625 -1.99758 0
M  V30 4446 C 408.123 0.11012 -3.46525 0
M  V30 4447 C 407.184 -0.887495 -4.20026 0
M  V30 4448 C 406.417 -0.246654 -5.3313 0
M  V30 4449 O 406.64 0.958088 -5.62296 0
M  V30 4450 O 405.574 -0.954374 -5.94286 0
M  V30 4451 H 409.4 -1.44329 -2.67213 0
M  V30 4452 H 406.985 -0.767135 -1.28201 0
M  V30 4453 H 408.867 0.486756 -4.18579 0
M  V30 4454 H 407.542 0.965154 -3.08976 0
M  V30 4455 H 406.449 -1.31517 -3.5022 0
M  V30 4456 H 407.782 -1.71191 -4.6147 0
M  V30 4457 N 409.434 1.37368 -0.772513 0
M  V30 4458 C 410.344 2.34053 -0.160081 0
M  V30 4459 C 411.36 1.60216 0.678728 0
M  V30 4460 O 412.536 1.92303 0.59847 0
M  V30 4461 C 409.601 3.3939 0.708182 0
M  V30 4462 C 408.662 4.29048 -0.147172 0
M  V30 4463 C 407.895 5.29354 0.679744 0
M  V30 4464 O 408.118 5.3723 1.91678 0
M  V30 4465 O 407.052 6.01835 0.0885444 0
M  V30 4466 H 410.878 2.88159 -0.959053 0
M  V30 4467 H 408.463 1.39543 -0.533685 0
M  V30 4468 H 410.345 4.03839 1.20384 0
M  V30 4469 H 409.02 2.8761 1.48533 0
M  V30 4470 H 407.927 3.67697 -0.689205 0
M  V30 4471 H 409.26 4.84134 -0.887423 0
M  V30 4472 N 410.912 0.523116 1.48665 0
M  V30 4473 C 411.822 -0.247406 2.33292 0
M  V30 4474 C 412.838 -0.945769 1.46052 0
M  V30 4475 O 414.014 -0.922253 1.79043 0
M  V30 4476 C 411.079 -1.28487 3.22012 0
M  V30 4477 C 410.14 -0.597592 4.2512 0
M  V30 4478 C 409.373 -1.58563 5.09601 0
M  V30 4479 O 409.596 -2.81763 4.95949 0
M  V30 4480 O 408.53 -1.12879 5.91221 0
M  V30 4481 H 412.356 0.445869 3.00409 0
M  V30 4482 H 409.941 0.284128 1.46673 0
M  V30 4483 H 411.823 -1.88459 3.7691 0
M  V30 4484 H 410.498 -1.96068 2.57564 0
M  V30 4485 H 409.405 0.0424407 3.74076 0
M  V30 4486 H 410.738 0.0361517 4.92187 0
M  V30 4487 N 412.39 -1.55475 0.257931 0
M  V30 4488 C 413.3 -2.2549 -0.647425 0
M  V30 4489 C 414.316 -1.2748 -1.18427 0
M  V30 4490 O 415.492 -1.6038 -1.2182 0
M  V30 4491 C 412.557 -2.94916 -1.82278 0
M  V30 4492 C 411.618 -4.08363 -1.32432 0
M  V30 4493 C 410.851 -4.74469 -2.44366 0
M  V30 4494 O 411.074 -4.39701 -3.63344 0
M  V30 4495 O 410.008 -5.62763 -2.13497 0
M  V30 4496 H 413.834 -3.03593 -0.0807707 0
M  V30 4497 H 411.419 -1.49377 0.0259962 0
M  V30 4498 H 413.301 -3.38606 -2.50846 0
M  V30 4499 H 411.976 -2.19744 -2.37685 0
M  V30 4500 H 410.883 -3.69166 -0.605605 0
M  V30 4501 H 412.216 -4.85385 -0.816211 0
M  V30 4502 N 413.868 0.0150385 -1.57593 0
M  V30 4503 C 415.114 0.704043 -1.90187 0
M  V30 4504 C 415.447 1.74249 -0.857366 0
M  V30 4505 O 414.722 1.94092 0.125843 0
M  V30 4506 C 415.005 1.36087 -3.33395 0
M  V30 4507 C 414.858 0.334981 -4.48551 0
M  V30 4508 C 416.177 2.29112 -3.7576 0
M  V30 4509 H 413.296 0.254475 -0.691673 0
M  V30 4510 H 415.938 -0.0331678 -1.89971 0
M  V30 4511 H 414.088 1.98922 -3.3371 0
M  V30 4512 H 415.76 -0.292534 -4.60372 0
M  V30 4513 H 414.003 -0.344325 -4.32431 0
M  V30 4514 H 414.674 0.833316 -5.45674 0
M  V30 4515 H 417.15 1.76308 -3.76902 0
M  V30 4516 H 416.026 2.72043 -4.76743 0
M  V30 4517 H 416.287 3.16385 -3.08793 0
M  V30 4518 N 415.346 1.54954 0.287554 0
M  V30 4519 C 416.623 1.65569 1.04146 0
M  V30 4520 C 417.003 0.512672 2.0478 0
M  V30 4521 O 416.351 -0.489038 2.23205 0
M  V30 4522 C 416.561 3.04163 1.71131 0
M  V30 4523 C 417.909 3.61429 2.22832 0
M  V30 4524 O 418.933 3.06702 1.81141 0
M  V30 4525 O 417.792 4.57281 2.9926 0
M  V30 4526 H 414.886 0.671881 0.482188 0
M  V30 4527 H 417.432 1.67297 0.28457 0
M  V30 4528 H 416.204 3.78796 0.981303 0
M  V30 4529 H 415.827 3.06271 2.53543 0
M  V30 4530 N 416.824 -0.551391 1.4764 0
M  V30 4531 C 417.754 -1.66757 1.63445 0
M  V30 4532 C 418.735 -1.63077 0.483742 0
M  V30 4533 O 419.92 -1.80607 0.71377 0
M  V30 4534 C 417.05 -3.05387 1.65396 0
M  V30 4535 C 416.004 -3.23918 2.79752 0
M  V30 4536 C 415.33 -4.63393 2.66779 0
M  V30 4537 C 416.63 -3.08735 4.21284 0
M  V30 4538 H 418.324 -1.53786 2.56886 0
M  V30 4539 H 415.87 -0.738415 1.23626 0
M  V30 4540 H 417.823 -3.83325 1.75043 0
M  V30 4541 H 416.547 -3.19332 0.685195 0
M  V30 4542 H 415.206 -2.48391 2.69625 0
M  V30 4543 H 414.854 -4.74144 1.67918 0
M  V30 4544 H 414.554 -4.7674 3.43501 0
M  V30 4545 H 416.078 -5.43458 2.78364 0
M  V30 4546 H 417.492 -3.76484 4.32357 0
M  V30 4547 H 415.889 -3.33588 4.98838 0
M  V30 4548 H 416.959 -2.0541 4.39243 0
M  V30 4549 N 418.302 -1.35869 -0.798587 0
M  V30 4550 C 419.265 -1.29307 -1.89242 0
M  V30 4551 C 420.265 -0.202747 -1.59517 0
M  V30 4552 O 421.455 -0.456957 -1.681 0
M  V30 4553 C 418.587 -1.00229 -3.25833 0
M  V30 4554 H 419.78 -2.26576 -1.96478 0
M  V30 4555 H 417.333 -1.20509 -0.995358 0
M  V30 4556 H 418.068 -0.033801 -3.24282 0
M  V30 4557 H 417.853 -1.79121 -3.48795 0
M  V30 4558 H 419.343 -0.98219 -4.05885 0
M  V30 4559 N 419.78 1.02168 -1.19998 0
M  V30 4560 C 421.02 1.77232 -1.01825 0
M  V30 4561 C 421.384 1.86833 0.442428 0
M  V30 4562 O 422.585 2.58293 0.744189 0
M  V30 4563 C 420.856 3.15601 -1.67722 0
M  V30 4564 S 422.415 4.06765 -1.64584 0
M  V30 4565 H 419.233 0.610021 -0.365233 0
M  V30 4566 H 421.835 1.22368 -1.52467 0
M  V30 4567 H 420.539 3.06235 -2.73218 0
M  V30 4568 H 420.07 3.7554 -1.17189 0
M  V30 4569 H 422.085 4.91586 -0.67511 0
M  V30 4570 N 421.258 1.00505 1.21394 0
M  V30 4571 C 422.486 0.706609 1.9446 0
M  V30 4572 C 422.901 -0.73081 1.74082 0
M  V30 4573 O 422.258 -1.49446 1.04747 0
M  V30 4574 C 422.309 1.01824 3.46863 0
M  V30 4575 O 422.03 2.39919 3.66566 0
M  V30 4576 C 423.531 0.739216 4.37093 0
M  V30 4577 H 420.751 0.260394 0.618414 0
M  V30 4578 H 423.295 1.34311 1.54211 0
M  V30 4579 H 421.45 0.427343 3.85036 0
M  V30 4580 H 421.864 2.50784 4.6066 0
M  V30 4581 H 423.338 1.00744 5.42729 0
M  V30 4582 H 423.815 -0.326746 4.37983 0
M  V30 4583 H 424.421 1.31173 4.04566 0
M  V30 4584 N 422.737 -1.36956 0.779787 0
M  V30 4585 C 424.148 -1.82094 0.412156 0
M  V30 4586 C 424.499 -1.64926 -1.06273 0
M  V30 4587 O 423.624 -1.16483 -1.82375 0
M  V30 4588 C 424.219 -3.3059 0.741319 0
M  V30 4589 C 422.778 -3.73974 0.426641 0
M  V30 4590 C 421.925 -2.59368 0.980987 0
M  V30 4591 H 424.876 -1.25314 0.973758 0
M  V30 4592 H 424.897 -3.80489 0.028887 0
M  V30 4593 H 424.409 -3.43054 1.81482 0
M  V30 4594 H 422.51 -3.67076 -0.639215 0
M  V30 4595 H 422.623 -4.69778 0.940515 0
M  V30 4596 H 420.987 -2.51463 0.404757 0
M  V30 4597 H 421.77 -2.74621 2.06005 0
M  V30 4598 N 424.215 -0.530993 -1.48385 0
M  V30 4599 C 425.443 -0.00134122 -2.069 0
M  V30 4600 C 425.858 1.2805 -1.3874 0
M  V30 4601 O 425.215 1.76204 -0.475244 0
M  V30 4602 C 425.266 0.225256 -3.60798 0
M  V30 4603 O 424.987 -1.0058 -4.26398 0
M  V30 4604 C 426.488 0.795172 -4.3611 0
M  V30 4605 H 423.708 -0.0339704 -0.67014 0
M  V30 4606 H 426.252 -0.736926 -1.90761 0
M  V30 4607 H 424.407 0.910891 -3.76539 0
M  V30 4608 H 424.821 -0.787165 -5.1856 0
M  V30 4609 H 426.295 0.903143 -5.44562 0
M  V30 4610 H 426.772 1.80031 -4.00606 0
M  V30 4611 H 427.378 0.146069 -4.25049 0
M  V30 4612 N 425.693 1.55336 -0.266172 0
M  V30 4613 C 426.97 1.91372 0.404486 0
M  V30 4614 C 427.35 1.18935 1.74407 0
M  V30 4615 O 426.698 0.3132 2.26343 0
M  V30 4616 C 426.908 3.44581 0.553593 0
M  V30 4617 C 428.256 4.16196 0.840618 0
M  V30 4618 O 429.28 3.50426 0.638739 0
M  V30 4619 O 428.139 5.32567 1.22618 0
M  V30 4620 H 425.233 0.797194 0.220025 0
M  V30 4621 H 427.779 1.66813 -0.311664 0
M  V30 4622 H 426.551 3.89357 -0.389498 0
M  V30 4623 H 426.174 3.75065 1.31955 0
M  V30 4624 N 427.171 -0.0066808 1.57599 0
M  V30 4625 C 428.417 -0.693947 1.90558 0
M  V30 4626 C 428.75 -1.73792 0.866594 0
M  V30 4627 O 428.025 -1.94156 -0.115548 0
M  V30 4628 C 428.308 -1.34317 3.34112 0
M  V30 4629 C 428.161 -0.311189 4.48722 0
M  V30 4630 C 429.48 -2.27116 3.7697 0
M  V30 4631 H 426.599 -0.250803 0.693013 0
M  V30 4632 H 429.241 0.043242 1.89951 0
M  V30 4633 H 427.391 -1.9715 3.3476 0
M  V30 4634 H 429.063 0.316944 4.6021 0
M  V30 4635 H 427.306 0.367253 4.32243 0
M  V30 4636 H 427.977 -0.804366 5.46108 0
M  V30 4637 H 430.453 -1.74306 3.77831 0
M  V30 4638 H 429.329 -2.69511 4.78179 0
M  V30 4639 H 429.59 -3.14743 3.10466 0
M  V30 4640 N 428.649 -1.55105 -0.279332 0
M  V30 4641 C 430.065 -1.46803 -0.626187 0
M  V30 4642 C 430.265 -0.676939 -1.89789 0
M  V30 4643 O 429.321 -0.19326 -2.51759 0
M  V30 4644 C 430.634 -2.90962 -0.759034 0
M  V30 4645 C 432.182 -3.01138 -0.853504 0
M  V30 4646 C 432.657 -4.46539 -1.01818 0
M  V30 4647 N 434.148 -4.50341 -1.08386 0
M  V30 4648 C 434.883 -5.60053 -1.22996 0
M  V30 4649 N 434.379 -6.79645 -1.34366 0
M  V30 4650 N 436.172 -5.47783 -1.26056 0
M  V30 4651 H 428.323 -2.04996 0.555921 0
M  V30 4652 H 430.586 -0.929325 0.187239 0
M  V30 4653 H 430.292 -3.51544 0.104852 0
M  V30 4654 H 430.166 -3.39619 -1.64131 0
M  V30 4655 H 432.553 -2.40658 -1.70786 0
M  V30 4656 H 432.634 -2.55745 0.0532466 0
M  V30 4657 H 432.278 -5.0762 -0.168504 0
M  V30 4658 H 432.208 -4.89583 -1.93948 0
M  V30 4659 H 434.699 -3.64191 -1.00864 0
M  V30 4660 H 435.012 -7.59012 -1.4533 0
M  V30 4661 H 433.357 -6.82469 -1.31382 0
M  V30 4662 H 436.548 -4.53294 -1.168 0
M  V30 4663 H 436.721 -6.33331 -1.37098 0
M  V30 4664 N 430.127 0.543554 -1.4793 0
M  V30 4665 C 431.404 1.30458 -1.4574 0
M  V30 4666 C 431.784 2.1048 -0.161692 0
M  V30 4667 O 431.132 2.11831 0.856734 0
M  V30 4668 C 431.342 2.19754 -2.71126 0
M  V30 4669 C 432.69 2.80334 -3.18901 0
M  V30 4670 O 433.714 2.30049 -2.71948 0
M  V30 4671 O 432.573 3.71766 -4.00565 0
M  V30 4672 H 429.667 0.588117 -0.581418 0
M  V30 4673 H 432.213 0.561328 -1.60147 0
M  V30 4674 H 430.985 1.60316 -3.56952 0
M  V30 4675 H 430.608 3.01351 -2.59371 0
M  V30 4676 N 431.605 1.3629 0.791371 0
M  V30 4677 C 432.851 1.30605 1.55146 0
M  V30 4678 C 433.184 -0.115042 1.93859 0
M  V30 4679 O 432.459 -1.06798 1.62556 0
M  V30 4680 C 432.742 2.22692 2.82985 0
M  V30 4681 C 432.595 3.73489 2.50651 0
M  V30 4682 C 433.914 2.13588 3.84796 0
M  V30 4683 H 431.033 0.475761 0.562868 0
M  V30 4684 H 433.675 1.66825 0.909358 0
M  V30 4685 H 431.825 1.91933 3.37778 0
M  V30 4686 H 433.497 4.14758 2.01924 0
M  V30 4687 H 431.74 3.93021 1.83622 0
M  V30 4688 H 432.411 4.3333 3.41949 0
M  V30 4689 H 434.887 2.40659 3.39445 0
M  V30 4690 H 433.763 2.80195 4.71998 0
M  V30 4691 H 434.024 1.12256 4.27611 0
M  V30 4692 N 433.083 -1.0153 1.20538 0
M  V30 4693 C 434.36 -1.72327 0.925343 0
M  V30 4694 C 434.74 -2.03383 -0.565547 0
M  V30 4695 O 434.088 -1.69934 -1.52757 0
M  V30 4696 C 434.298 -2.9902 1.79967 0
M  V30 4697 C 435.646 -3.72258 2.04228 0
M  V30 4698 O 436.67 -3.08979 1.77231 0
M  V30 4699 O 435.529 -4.86053 2.4983 0
M  V30 4700 H 432.623 -0.751099 0.346092 0
M  V30 4701 H 435.169 -1.07366 1.31417 0
M  V30 4702 H 433.941 -2.72402 2.80915 0
M  V30 4703 H 433.564 -3.71721 1.41099 0
M  V30 4704 N 434.561 -1.01147 -1.20859 0
M  V30 4705 C 435.81 -0.693214 -1.89413 0
M  V30 4706 C 436.123 0.779969 -1.79376 0
M  V30 4707 O 437.329 1.21057 -2.43017 0
M  V30 4708 C 435.785 -1.18949 -3.39675 0
M  V30 4709 C 435.393 -2.68921 -3.58309 0
M  V30 4710 C 437.137 -0.94642 -4.13815 0
M  V30 4711 C 435.044 -3.12056 -5.0237 0
M  V30 4712 H 433.974 -0.255595 -0.709357 0
M  V30 4713 H 436.625 -1.22349 -1.36759 0
M  V30 4714 H 435.007 -0.587228 -3.91622 0
M  V30 4715 H 436.181 -3.34652 -3.16772 0
M  V30 4716 H 434.496 -2.91314 -2.97532 0
M  V30 4717 H 437.093 -1.24417 -5.20023 0
M  V30 4718 H 437.436 0.117219 -4.16135 0
M  V30 4719 H 437.969 -1.5118 -3.67953 0
M  V30 4720 H 434.708 -4.17674 -5.05202 0
M  V30 4721 H 434.228 -2.51041 -5.44737 0
M  V30 4722 H 435.907 -3.04403 -5.70918 0
M  V30 4723 O 436.078 1.32499 -0.923373 0
M  V30 4724 H 436.769 1.85906 -0.543924 0
M  V30 END ATOM
M  V30 BEGIN BOND
M  V30 END BOND
M  V30 END CTAB
M  END
$$$$
