drugbank_target|Q13177 Serine/threonine-protein kinase PAK 2 (DB12010)
 OpenBabel12092121173D

  0  0  0     0  0            999 V3000
M  V30 BEGIN CTAB
M  V30 COUNTS 8205 8289 0 0 0
M  V30 BEGIN ATOM
M  V30 1 H -0.908 1.98254 -0.117106 0
M  V30 2 N 0 1.576 0 0
M  V30 3 C 0.933 2.03868 1.02534 0
M  V30 4 C 1.911 0.928543 1.3348 0
M  V30 5 O 3.095 1.19667 1.45644 0
M  V30 6 C 0.222 2.43627 2.35294 0
M  V30 7 C -0.732 3.65373 2.2001 0
M  V30 8 S 0.101 5.13292 1.52614 0
M  V30 9 C 1.257 5.56322 2.86805 0
M  V30 10 H 1.49 2.90518 0.631377 0
M  V30 11 H -0.977 1.52953 0.210867 0
M  V30 12 H 0.981 2.67203 3.11629 0
M  V30 13 H -0.358 1.57376 2.7183 0
M  V30 14 H -1.165 3.90944 3.18086 0
M  V30 15 H -1.563 3.418 1.51819 0
M  V30 16 H 0.729 5.58782 3.83104 0
M  V30 17 H 1.672 6.56266 2.65933 0
M  V30 18 H 2.08 4.83886 2.90714 0
M  V30 19 N 1.4781 -0.272755 1.55222 0
M  V30 20 C 2.7031 -1.02683 1.80197 0
M  V30 21 C 3.1281 -1.79142 0.573551 0
M  V30 22 O 2.4861 -1.74917 -0.476849 0
M  V30 23 C 2.5341 -1.9609 3.02624 0
M  V30 24 O 1.6381 -3.04863 2.77727 0
M  V30 25 H 0.9791 -0.293557 0.595584 0
M  V30 26 H 3.5091 -0.30159 2.02365 0
M  V30 27 H 3.5191 -2.38039 3.31363 0
M  V30 28 H 2.1941 -1.39851 3.91682 0
M  V30 29 H 0.7711 -2.67228 2.60084 0
M  V30 30 N 2.9562 -1.48159 -0.537278 0
M  V30 31 C 4.2332 -1.46291 -1.29839 0
M  V30 32 C 4.6132 -0.170613 -2.10409 0
M  V30 33 O 3.9612 0.847746 -2.12192 0
M  V30 34 C 4.1712 -2.72055 -2.18603 0
M  V30 35 C 5.5192 -3.20087 -2.7898 0
M  V30 36 O 6.5432 -2.72921 -2.28894 0
M  V30 37 O 5.4022 -4.02138 -3.70064 0
M  V30 38 H 2.4962 -0.583906 -0.585647 0
M  V30 39 H 5.0422 -1.60384 -0.554534 0
M  V30 40 H 3.8142 -3.57628 -1.58801 0
M  V30 41 H 3.4372 -2.60646 -3.00249 0
M  V30 42 N 4.4343 0.785586 -1.36625 0
M  V30 43 C 5.3823 1.91978 -1.31329 0
M  V30 44 C 6.3763 1.68162 -0.204416 0
M  V30 45 O 7.5823 1.76122 -0.371645 0
M  V30 46 H 3.9573 0.631087 -0.408942 0
M  V30 47 H 5.9283 1.93562 -2.27104 0
M  V30 48 C 4.6773 3.29055 -1.12329 0
M  V30 49 H 4.0003 3.4795 -1.96903 0
M  V30 50 H 5.4403 4.08756 -1.12671 0
M  V30 51 C 3.8993 3.36461 0.171861 0
M  V30 52 O 4.4293 3.84576 1.16035 0
M  V30 53 N 2.6353 2.89782 0.217846 0
M  V30 54 H 2.1823 2.50819 -0.587183 0
M  V30 55 H 2.1403 2.95119 1.08408 0
M  V30 56 N 5.9124 1.20967 1.01018 0
M  V30 57 C 7.1604 1.02172 1.74371 0
M  V30 58 C 7.4814 -0.446414 1.89821 0
M  V30 59 O 6.7514 -1.32234 1.44537 0
M  V30 60 H 5.3314 0.375066 0.646014 0
M  V30 61 H 7.9934 1.52187 1.21758 0
M  V30 62 H 7.0894 1.48538 2.74487 0
M  V30 63 N 7.3905 -1.2043 1.01659 0
M  V30 64 C 8.3005 -2.2689 0.596484 0
M  V30 65 C 9.3165 -1.70107 -0.36599 0
M  V30 66 O 10.4925 -2.00117 -0.226942 0
M  V30 67 C 7.5575 -3.4665 -0.0586659 0
M  V30 68 C 6.6185 -4.18662 0.949751 0
M  V30 69 C 5.8515 -5.32705 0.32577 0
M  V30 70 O 6.0745 -5.63656 -0.874509 0
M  V30 71 O 5.0085 -5.92803 1.04249 0
M  V30 72 H 8.8345 -2.65041 1.4828 0
M  V30 73 H 6.4195 -1.27048 0.786082 0
M  V30 74 H 8.3015 -4.19256 -0.424564 0
M  V30 75 H 6.9765 -3.10375 -0.91918 0
M  V30 76 H 5.8835 -3.48229 1.36702 0
M  V30 77 H 7.2165 -4.58878 1.78023 0
M  V30 78 N 8.8686 -0.792821 -1.36206 0
M  V30 79 C 9.7986 -0.207853 -2.32573 0
M  V30 80 C 10.7796 0.659055 -1.56813 0
M  V30 81 O 11.9646 0.592176 -1.84951 0
M  V30 82 C 9.0946 0.655449 -3.41059 0
M  V30 83 C 8.0486 -0.111842 -4.27854 0
M  V30 84 C 7.3746 0.872274 -5.27537 0
M  V30 85 C 8.6746 -1.30299 -5.05786 0
M  V30 86 H 10.3686 -1.01294 -2.81744 0
M  V30 87 H 7.9146 -0.48854 -1.3546 0
M  V30 88 H 9.8676 1.07464 -4.07467 0
M  V30 89 H 8.5916 1.49328 -2.90463 0
M  V30 90 H 7.2506 -0.512053 -3.63006 0
M  V30 91 H 6.8986 1.70523 -4.73214 0
M  V30 92 H 6.5986 0.363291 -5.86476 0
M  V30 93 H 8.1226 1.28996 -5.96818 0
M  V30 94 H 9.5366 -0.959379 -5.65216 0
M  V30 95 H 7.9336 -1.7455 -5.74154 0
M  V30 96 H 9.0036 -2.09663 -4.37229 0
M  V30 97 N 10.3467 1.47872 -0.545128 0
M  V30 98 C 11.2567 2.33633 0.212746 0
M  V30 99 C 12.2727 1.4744 0.923983 0
M  V30 100 O 13.4487 1.80393 0.895572 0
M  V30 101 C 10.5137 3.23884 1.23693 0
M  V30 102 C 9.5747 4.25961 0.534417 0
M  V30 103 C 8.8077 5.11899 1.5098 0
M  V30 104 O 9.0307 5.00077 2.7437 0
M  V30 105 O 7.9647 5.92831 1.0409 0
M  V30 106 H 11.7907 2.99714 -0.490416 0
M  V30 107 H 9.3757 1.46235 -0.305871 0
M  V30 108 H 11.2577 3.79666 1.82843 0
M  V30 109 H 9.9327 2.60446 1.92222 0
M  V30 110 H 8.8397 3.73972 -0.0979679 0
M  V30 111 H 10.1727 4.92079 -0.109213 0
M  V30 112 N 11.8248 0.280983 1.55075 0
M  V30 113 C 13.1018 -0.386207 1.91749 0
M  V30 114 C 13.4818 -1.73264 1.20594 0
M  V30 115 O 12.8298 -2.26034 0.334784 0
M  V30 116 C 13.0398 -0.520687 3.45094 0
M  V30 117 C 14.3878 -0.800865 4.16979 0
M  V30 118 O 15.4118 -0.605271 3.5102 0
M  V30 119 O 14.2708 -1.1753 5.33712 0
M  V30 120 H 11.3648 -0.212408 0.799257 0
M  V30 121 H 13.9108 0.327568 1.66509 0
M  V30 122 H 12.6828 0.426633 3.88967 0
M  V30 123 H 12.3058 -1.2837 3.76307 0
M  V30 124 N 13.3029 -1.57598 0.00835791 0
M  V30 125 C 14.2499 -2.08945 -0.980346 0
M  V30 126 C 15.2199 -0.986738 -1.33614 0
M  V30 127 O 16.4049 -1.25968 -1.43306 0
M  V30 128 C 13.5449 -2.60425 -2.26435 0
M  V30 129 C 12.6579 -3.84628 -1.96685 0
M  V30 130 C 11.7929 -4.24579 -3.19228 0
M  V30 131 C 10.8319 -5.41596 -2.85202 0
M  V30 132 N 9.9689 -5.768 -4.00307 0
M  V30 133 H 14.8089 -2.93148 -0.535551 0
M  V30 134 H 12.3459 -1.44912 -0.252776 0
M  V30 135 H 14.3039 -2.88354 -3.01509 0
M  V30 136 H 12.9339 -1.79083 -2.68568 0
M  V30 137 H 11.9859 -3.63556 -1.11942 0
M  V30 138 H 13.2979 -4.69796 -1.67611 0
M  V30 139 H 12.4519 -4.53834 -4.02641 0
M  V30 140 H 11.1909 -3.38137 -3.51447 0
M  V30 141 H 10.1959 -5.12056 -2.00198 0
M  V30 142 H 11.4209 -6.29721 -2.54222 0
M  V30 143 H 9.3669 -4.93316 -4.32407 0
M  V30 144 H 9.2839 -6.5656 -3.74786 0
M  V30 145 H 10.5519 -6.10652 -4.84484 0
M  V30 146 N 14.781 0.264519 -1.55364 0
M  V30 147 C 16.192 0.834936 -1.6699 0
M  V30 148 C 16.543 1.86718 -0.602552 0
M  V30 149 O 15.668 2.14899 0.254425 0
M  V30 150 C 16.263 1.5212 -3.02729 0
M  V30 151 C 14.822 2.03954 -3.16354 0
M  V30 152 C 13.969 0.884498 -2.62815 0
M  V30 153 H 16.92 0.0406869 -1.58648 0
M  V30 154 H 16.941 2.38853 -2.96191 0
M  V30 155 H 16.453 0.769668 -3.80392 0
M  V30 156 H 14.554 2.82041 -2.43482 0
M  V30 157 H 14.667 2.24902 -4.23032 0
M  V30 158 H 13.031 1.2802 -2.20188 0
M  V30 159 H 13.814 0.14634 -3.42988 0
M  V30 160 N 16.2591 1.48442 0.529413 0
M  V30 161 C 17.6701 1.5002 1.11134 0
M  V30 162 C 18.0211 0.27031 1.94329 0
M  V30 163 O 17.1461 -0.622507 2.07253 0
M  V30 164 C 17.7411 2.71834 2.02217 0
M  V30 165 C 16.3001 2.76283 2.55627 0
M  V30 166 C 15.4471 2.43542 1.326 0
M  V30 167 H 18.3981 1.5555 0.314641 0
M  V30 168 H 18.4191 2.50384 2.8651 0
M  V30 169 H 17.9311 3.61331 1.41639 0
M  V30 170 H 16.0321 1.90995 3.19924 0
M  V30 171 H 16.1451 3.77725 2.94721 0
M  V30 172 H 14.5091 1.94709 1.64196 0
M  V30 173 H 15.2921 3.3528 0.737734 0
M  V30 174 N 17.7372 -0.778329 1.37039 0
M  V30 175 C 18.7002 -1.87301 1.32102 0
M  V30 176 C 19.7002 -1.59198 0.226405 0
M  V30 177 O 20.8902 -1.67403 0.481861 0
M  V30 178 C 18.0222 -3.24309 1.05055 0
M  V30 179 H 19.2152 -1.93093 2.29467 0
M  V30 180 H 16.7682 -0.977358 1.21973 0
M  V30 181 H 17.5032 -3.24196 0.0819373 0
M  V30 182 H 17.2882 -3.46098 1.84279 0
M  V30 183 H 18.7782 -4.04382 1.04234 0
M  V30 184 N 19.2153 -1.21501 -1.00376 0
M  V30 185 C 20.6263 -1.03146 -1.55621 0
M  V30 186 C 20.9773 0.408375 -1.91903 0
M  V30 187 O 20.1023 1.29177 -1.73616 0
M  V30 188 C 20.6973 -1.86612 -2.82775 0
M  V30 189 C 19.2563 -1.72586 -3.34501 0
M  V30 190 C 18.4033 -1.83747 -2.07683 0
M  V30 191 H 21.3543 -1.35505 -0.826081 0
M  V30 192 H 21.3753 -1.3771 -3.54706 0
M  V30 193 H 20.8873 -2.91399 -2.56336 0
M  V30 194 H 18.9883 -0.704877 -3.65872 0
M  V30 195 H 19.1013 -2.54623 -4.05837 0
M  V30 196 H 17.4653 -1.27069 -2.20739 0
M  V30 197 H 18.2483 -2.90044 -1.83655 0
M  V30 198 N 20.6934 1.19889 -1.02296 0
M  V30 199 C 22.1044 1.71124 -0.746568 0
M  V30 200 C 22.4554 1.81939 0.734335 0
M  V30 201 O 21.5804 1.48639 1.57275 0
M  V30 202 C 22.1754 3.10804 -1.34857 0
M  V30 203 C 20.7344 3.59323 -1.1209 0
M  V30 204 C 19.8814 2.3635 -1.45031 0
M  V30 205 H 22.8324 1.04813 -1.19163 0
M  V30 206 H 22.8534 3.73186 -0.742437 0
M  V30 207 H 22.3654 3.029 -2.42638 0
M  V30 208 H 20.4664 3.7255 -0.0610337 0
M  V30 209 H 20.5794 4.4378 -1.80544 0
M  V30 210 H 18.9434 2.39399 -0.869487 0
M  V30 211 H 19.7264 2.31081 -2.53883 0
M  V30 212 N 22.1715 0.800033 1.35784 0
M  V30 213 C 23.4175 0.377901 1.99248 0
M  V30 214 C 23.7505 -1.05052 1.63333 0
M  V30 215 O 23.0255 -1.72768 0.893385 0
M  V30 216 C 23.3085 0.553922 3.55814 0
M  V30 217 C 23.1615 2.0268 4.01548 0
M  V30 218 C 24.4805 -0.0244802 4.40093 0
M  V30 219 H 21.5995 0.138782 0.723815 0
M  V30 220 H 24.2415 1.00835 1.61035 0
M  V30 221 H 22.3915 0.0172398 3.88496 0
M  V30 222 H 24.0635 2.62536 3.79305 0
M  V30 223 H 22.3065 2.5256 3.52698 0
M  V30 224 H 22.9775 2.10087 5.10458 0
M  V30 225 H 25.4535 0.433775 4.13833 0
M  V30 226 H 24.3295 0.128637 5.48749 0
M  V30 227 H 24.5905 -1.11758 4.27741 0
M  V30 228 N 23.6496 -1.47581 0.552962 0
M  V30 229 C 25.0656 -1.5818 0.212424 0
M  V30 230 C 25.2656 -1.55213 -1.28496 0
M  V30 231 O 24.3216 -1.45329 -2.06484 0
M  V30 232 C 25.6346 -2.88865 0.835318 0
M  V30 233 C 27.1826 -3.0244 0.806156 0
M  V30 234 C 27.6576 -4.35819 1.40804 0
M  V30 235 N 29.1486 -4.42444 1.37103 0
M  V30 236 C 29.8836 -5.44202 1.80641 0
M  V30 237 N 29.3796 -6.52795 2.32015 0
M  V30 238 N 31.1726 -5.35222 1.71738 0
M  V30 239 H 23.3236 -1.47753 1.52587 0
M  V30 240 H 25.5866 -0.702941 0.636064 0
M  V30 241 H 25.2926 -2.9676 1.88749 0
M  V30 242 H 25.1666 -3.7579 0.325848 0
M  V30 243 H 27.5536 -2.94144 -0.237317 0
M  V30 244 H 27.6346 -2.17068 1.35334 0
M  V30 245 H 27.2786 -4.44871 2.45056 0
M  V30 246 H 27.2086 -5.19916 0.836338 0
M  V30 247 H 29.6996 -3.6456 0.995202 0
M  V30 248 H 30.0126 -7.26609 2.63171 0
M  V30 249 H 28.3576 -6.53696 2.36023 0
M  V30 250 H 31.5486 -4.49284 1.31382 0
M  V30 251 H 31.7216 -6.14389 2.05987 0
M  V30 252 N 25.1277 -0.289203 -1.54924 0
M  V30 253 C 26.0607 0.633823 -2.19221 0
M  V30 254 C 27.0387 1.14174 -1.15772 0
M  V30 255 O 28.2227 1.21211 -1.44361 0
M  V30 256 C 25.3497 1.86592 -2.82668 0
M  V30 257 C 24.3957 1.49227 -3.99542 0
M  V30 258 S 25.2287 0.558312 -5.32582 0
M  V30 259 C 26.3847 1.79847 -5.99505 0
M  V30 260 H 26.6177 0.0875416 -2.97171 0
M  V30 261 H 24.1507 -0.0733899 -1.54225 0
M  V30 262 H 26.1087 2.57305 -3.19851 0
M  V30 263 H 24.7697 2.38335 -2.04585 0
M  V30 264 H 23.9627 2.40945 -4.42676 0
M  V30 265 H 23.5647 0.865193 -3.63855 0
M  V30 266 H 25.8567 2.7406 -6.19595 0
M  V30 267 H 26.7997 1.4099 -6.93922 0
M  V30 268 H 27.2077 1.96982 -5.29016 0
M  V30 269 N 26.6058 1.57591 -0.0167156 0
M  V30 270 C 27.8308 1.9598 0.67872 0
M  V30 271 C 28.2558 0.892546 1.65575 0
M  V30 272 O 27.6138 -0.147772 1.80697 0
M  V30 273 C 27.6618 3.33468 1.37227 0
M  V30 274 O 26.7658 3.28954 2.48722 0
M  V30 275 H 26.1068 0.639339 0.17928 0
M  V30 276 H 28.6368 2.04463 -0.0748802 0
M  V30 277 H 28.6468 3.69417 1.7319 0
M  V30 278 H 27.3218 4.10694 0.656007 0
M  V30 279 H 25.8988 3.04705 2.14963 0
M  V30 280 N 28.0839 -0.256276 1.55502 0
M  V30 281 C 29.3089 -1.00766 1.81276 0
M  V30 282 C 29.7339 -1.78524 0.59252 0
M  V30 283 O 29.0919 -1.75413 -0.45827 0
M  V30 284 C 29.1399 -1.92869 3.04687 0
M  V30 285 O 28.2439 -3.019 2.80945 0
M  V30 286 H 27.5849 -0.287224 0.598664 0
M  V30 287 H 30.1149 -0.280109 2.02674 0
M  V30 288 H 30.1249 -2.34511 3.33869 0
M  V30 289 H 28.7999 -1.35689 3.93143 0
M  V30 290 H 27.3769 -2.64454 2.62904 0
M  V30 291 N 29.562 -1.4872 -0.521534 0
M  V30 292 C 30.79 -1.60843 -1.30142 0
M  V30 293 C 31.205 -0.271897 -1.86832 0
M  V30 294 O 30.562 0.739969 -1.66825 0
M  V30 295 C 30.613 -2.66155 -2.4463 0
M  V30 296 O 30.334 -3.94623 -1.90275 0
M  V30 297 C 31.835 -2.88795 -3.36322 0
M  V30 298 H 29.055 -0.542075 -0.395468 0
M  V30 299 H 31.599 -1.94609 -0.628285 0
M  V30 300 H 29.754 -2.35224 -3.07812 0
M  V30 301 H 30.168 -4.52468 -2.65279 0
M  V30 302 H 31.642 -3.66264 -4.12983 0
M  V30 303 H 32.119 -1.97934 -3.9207 0
M  V30 304 H 32.725 -3.21063 -2.78924 0
M  V30 305 N 31.0401 0.771051 -1.3745 0
M  V30 306 C 32.2891 1.52491 -1.3202 0
M  V30 307 C 32.6021 1.9538 0.0927347 0
M  V30 308 O 33.8081 2.70159 0.269503 0
M  V30 309 C 32.2641 2.75366 -2.31736 0
M  V30 310 C 31.8721 2.39573 -3.78562 0
M  V30 311 C 33.6161 3.53307 -2.35318 0
M  V30 312 C 31.5231 3.58954 -4.70007 0
M  V30 313 H 30.4531 0.572506 -0.490666 0
M  V30 314 H 33.1041 0.844474 -1.62914 0
M  V30 315 H 31.4861 3.45303 -1.93861 0
M  V30 316 H 32.6601 1.77415 -4.25277 0
M  V30 317 H 30.9751 1.74805 -3.77932 0
M  V30 318 H 33.5721 4.42039 -3.00842 0
M  V30 319 H 33.9151 3.93217 -1.36698 0
M  V30 320 H 34.4481 2.90367 -2.71904 0
M  V30 321 H 31.1871 3.24125 -5.69757 0
M  V30 322 H 30.7071 4.20214 -4.27996 0
M  V30 323 H 32.3861 4.25758 -4.87175 0
M  V30 324 N 32.5182 1.22032 0.997298 0
M  V30 325 C 33.7652 1.04222 1.73621 0
M  V30 326 C 34.0932 -0.423264 1.89839 0
M  V30 327 O 33.3482 -1.3302 1.43542 0
M  V30 328 C 33.6472 1.69345 3.14733 0
M  V30 329 C 33.3132 3.19226 3.18442 0
M  V30 330 C 31.9752 3.60124 3.19161 0
M  V30 331 C 34.3272 4.15181 3.15078 0
M  V30 332 C 31.6552 4.95467 3.14212 0
M  V30 333 C 34.0072 5.50495 3.1167 0
M  V30 334 C 32.6712 5.90779 3.10703 0
M  V30 335 H 31.9412 0.381374 0.635323 0
M  V30 336 H 34.5882 1.51732 1.16831 0
M  V30 337 H 32.8932 1.14147 3.74803 0
M  V30 338 H 34.5902 1.53059 3.7064 0
M  V30 339 H 31.1802 2.86659 3.18629 0
M  V30 340 H 35.3642 3.84605 3.13676 0
M  V30 341 H 30.6202 5.25916 3.11805 0
M  V30 342 H 34.7942 6.24576 3.08022 0
M  V30 343 H 32.4212 6.9562 3.06622 0
M  V30 344 N 33.9963 -1.19345 1.0293 0
M  V30 345 C 35.2213 -1.93538 0.745511 0
M  V30 346 C 35.6463 -1.75007 -0.689511 0
M  V30 347 O 35.0043 -1.05265 -1.47611 0
M  V30 348 C 35.0523 -3.43336 1.10239 0
M  V30 349 O 34.1563 -4.11806 0.221289 0
M  V30 350 H 33.4973 -0.604193 0.275404 0
M  V30 351 H 36.0273 -1.5141 1.37609 0
M  V30 352 H 36.0373 -3.94004 1.05947 0
M  V30 353 H 34.7123 -3.56146 2.14786 0
M  V30 354 H 33.2893 -3.715 0.322842 0
M  V30 355 N 35.4744 -0.807222 -1.35358 0
M  V30 356 C 36.7024 -0.400377 -2.02989 0
M  V30 357 C 37.1174 0.988859 -1.60832 0
M  V30 358 O 36.4744 1.63729 -0.806175 0
M  V30 359 C 36.5254 -0.474867 -3.58368 0
M  V30 360 O 36.2464 -1.80933 -3.98992 0
M  V30 361 C 37.7474 -0.0609112 -4.43258 0
M  V30 362 H 34.9674 -0.162587 -0.651004 0
M  V30 363 H 37.5114 -1.09102 -1.72965 0
M  V30 364 H 35.6664 0.167534 -3.87038 0
M  V30 365 H 36.0804 -1.77256 -4.9364 0
M  V30 366 H 37.5544 -0.164145 -5.51756 0
M  V30 367 H 38.0314 0.993831 -4.27808 0
M  V30 368 H 38.6374 -0.676492 -4.19885 0
M  V30 369 N 36.9525 1.47285 -0.560781 0
M  V30 370 C 38.2005 2.02064 -0.0379868 0
M  V30 371 C 38.5215 1.43711 1.31803 0
M  V30 372 O 37.7915 0.61362 1.86042 0
M  V30 373 H 36.3715 0.746918 -0.0110531 0
M  V30 374 H 39.0335 1.80648 -0.731598 0
M  V30 375 H 38.1295 3.12064 0.0474463 0
M  V30 376 N 38.4306 0.297415 1.54768 0
M  V30 377 C 39.6786 -0.312295 1.99673 0
M  V30 378 C 39.9996 -1.54686 1.18732 0
M  V30 379 O 39.2696 -1.93854 0.282382 0
M  V30 380 H 37.8496 -0.118381 0.73756 0
M  V30 381 H 40.5116 0.407915 1.90583 0
M  V30 382 H 39.6076 -0.586813 3.06534 0
M  V30 383 N 39.9087 -1.5758 0.0250728 0
M  V30 384 C 40.8557 -2.09973 -0.958129 0
M  V30 385 C 41.8257 -1.00085 -1.3256 0
M  V30 386 O 43.0107 -1.27481 -1.41962 0
M  V30 387 C 40.1507 -2.62812 -2.2366 0
M  V30 388 C 39.2637 -3.86693 -1.92594 0
M  V30 389 C 38.3987 -4.27941 -3.14707 0
M  V30 390 C 37.4377 -5.44591 -2.79442 0
M  V30 391 N 36.5747 -5.81014 -3.94167 0
M  V30 392 H 41.4147 -2.937 -0.504428 0
M  V30 393 H 38.9517 -1.45172 -0.237392 0
M  V30 394 H 40.9097 -2.91536 -2.98434 0
M  V30 395 H 39.5397 -1.81922 -2.66654 0
M  V30 396 H 38.5917 -3.64723 -1.0808 0
M  V30 397 H 39.9037 -4.71547 -1.62619 0
M  V30 398 H 39.0577 -4.58079 -3.97804 0
M  V30 399 H 37.7967 -3.41845 -3.4784 0
M  V30 400 H 36.8017 -5.1415 -1.94755 0
M  V30 401 H 38.0267 -6.32382 -2.47528 0
M  V30 402 H 35.9727 -4.97874 -4.2715 0
M  V30 403 H 35.8897 -6.60498 -3.67801 0
M  V30 404 H 37.1577 -6.15756 -4.7798 0
M  V30 405 N 41.3868 0.248026 -1.55636 0
M  V30 406 C 42.6638 0.998988 -1.68165 0
M  V30 407 C 43.0438 2.03409 -0.564621 0
M  V30 408 O 42.3918 2.24378 0.432076 0
M  V30 409 C 42.6018 1.63334 -3.0842 0
M  V30 410 C 43.9498 2.13562 -3.66983 0
M  V30 411 O 44.9738 1.73277 -3.11213 0
M  V30 412 O 43.8328 2.87526 -4.64749 0
M  V30 413 H 40.9268 0.464933 -0.683935 0
M  V30 414 H 43.4728 0.241902 -1.67967 0
M  V30 415 H 42.2448 0.884583 -3.8117 0
M  V30 416 H 41.8678 2.45666 -3.12624 0
M  V30 417 N 42.8649 1.48995 0.513639 0
M  V30 418 C 44.2759 1.5119 1.09537 0
M  V30 419 C 44.6269 0.290906 1.94031 0
M  V30 420 O 43.7519 -0.60049 2.07902 0
M  V30 421 C 44.3469 2.73964 1.99322 0
M  V30 422 C 42.9059 2.78978 2.52682 0
M  V30 423 C 42.0529 2.44934 1.30009 0
M  V30 424 H 45.0039 1.55875 0.298125 0
M  V30 425 H 45.0249 2.53409 2.83838 0
M  V30 426 H 44.5369 3.62813 1.37799 0
M  V30 427 H 42.6379 1.94378 3.1788 0
M  V30 428 H 42.7509 3.8083 2.90698 0
M  V30 429 H 41.1149 1.9644 1.62122 0
M  V30 430 H 41.8979 3.36043 0.702131 0
M  V30 431 N 44.343 -0.763751 1.37857 0
M  V30 432 C 45.273 -1.89103 1.36975 0
M  V30 433 C 46.254 -1.68439 0.237152 0
M  V30 434 O 47.439 -1.8918 0.438713 0
M  V30 435 C 44.569 -3.26496 1.18395 0
M  V30 436 C 43.523 -3.61741 2.28751 0
M  V30 437 C 42.849 -4.97762 1.95286 0
M  V30 438 C 44.149 -3.67665 3.70972 0
M  V30 439 H 45.843 -1.90099 2.31307 0
M  V30 440 H 43.389 -0.91319 1.11341 0
M  V30 441 H 45.342 -4.05003 1.16406 0
M  V30 442 H 44.066 -3.25955 0.205215 0
M  V30 443 H 42.725 -2.85547 2.29909 0
M  V30 444 H 42.373 -4.93769 0.959221 0
M  V30 445 H 42.073 -5.22313 2.69189 0
M  V30 446 H 43.597 -5.7866 1.94898 0
M  V30 447 H 45.011 -4.36307 3.719 0
M  V30 448 H 43.408 -4.03718 4.43995 0
M  V30 449 H 44.478 -2.68134 4.0402 0
M  V30 450 N 45.8211 -1.22559 -0.990812 0
M  V30 451 C 47.0461 -1.07862 -1.77145 0
M  V30 452 C 47.4711 0.366447 -1.84496 0
M  V30 453 O 46.8291 1.26478 -1.29896 0
M  V30 454 C 46.8771 -1.69686 -3.18181 0
M  V30 455 O 45.9811 -0.951946 -4.01263 0
M  V30 456 H 45.3221 -0.378712 -0.545411 0
M  V30 457 H 47.8521 -1.62399 -1.2445 0
M  V30 458 H 47.8621 -1.74496 -3.68802 0
M  V30 459 H 46.5371 -2.74841 -3.12146 0
M  V30 460 H 45.1141 -0.980011 -3.59792 0
M  V30 461 N 47.2992 1.18797 -1.03562 0
M  V30 462 C 48.2622 2.20464 -0.626769 0
M  V30 463 C 49.2622 1.57721 0.313173 0
M  V30 464 O 50.4522 1.73917 0.0992615 0
M  V30 465 C 47.5842 3.40802 0.0818498 0
M  V30 466 H 48.7772 2.58149 -1.5264 0
M  V30 467 H 46.3302 1.32593 -0.827578 0
M  V30 468 H 47.0652 3.08642 0.995518 0
M  V30 469 H 46.8502 3.8758 -0.593652 0
M  V30 470 H 48.3402 4.16092 0.354584 0
M  V30 471 N 48.7773 0.814389 1.34928 0
M  V30 472 C 49.7253 0.218424 2.31572 0
M  V30 473 C 50.7193 -0.636128 1.57002 0
M  V30 474 O 51.9253 -0.52842 1.72069 0
M  V30 475 H 48.3003 0.0518799 0.750208 0
M  V30 476 H 50.2713 1.04852 2.79372 0
M  V30 477 C 49.0203 -0.61207 3.4227 0
M  V30 478 H 48.3433 0.0361578 3.99784 0
M  V30 479 H 49.7833 -0.995317 4.12152 0
M  V30 480 C 48.2423 -1.78087 2.85984 0
M  V30 481 O 48.7723 -2.8787 2.80168 0
M  V30 482 N 46.9783 -1.59488 2.42924 0
M  V30 483 H 46.5253 -0.701874 2.47854 0
M  V30 484 H 46.4833 -2.37846 2.05613 0
M  V30 485 N 50.2554 -1.46986 0.568584 0
M  V30 486 C 51.2054 -2.27179 -0.193339 0
M  V30 487 C 52.1894 -1.35035 -0.874895 0
M  V30 488 O 53.3814 -1.5931 -0.771322 0
M  V30 489 C 50.5104 -3.21063 -1.21546 0
M  V30 490 C 49.5964 -4.2069 -0.536738 0
M  V30 491 N 49.9874 -5.04218 0.399673 0
M  V30 492 C 48.2854 -4.38961 -0.789254 0
M  V30 493 C 48.9864 -5.76242 0.795017 0
M  V30 494 N 47.9624 -5.434 0.1473 0
M  V30 495 H 51.7644 -2.89146 0.526458 0
M  V30 496 H 49.2784 -1.57664 0.389342 0
M  V30 497 H 51.2754 -3.77209 -1.77536 0
M  V30 498 H 49.9354 -2.60654 -1.93623 0
M  V30 499 H 50.9464 -5.12077 0.774454 0
M  V30 500 H 47.6234 -3.89713 -1.49767 0
M  V30 501 H 49.0134 -6.53417 1.56513 0
M  V30 502 N 51.7335 -0.305618 -1.54608 0
M  V30 503 C 52.9585 0.307562 -2.05107 0
M  V30 504 C 53.3835 1.46385 -1.18123 0
M  V30 505 O 52.7415 1.8034 -0.186324 0
M  V30 506 C 52.7895 0.73704 -3.52987 0
M  V30 507 O 51.8935 1.84134 -3.6901 0
M  V30 508 H 51.2345 0.0589143 -0.661381 0
M  V30 509 H 53.7645 -0.448807 -1.99617 0
M  V30 510 H 53.7745 1.02459 -3.94925 0
M  V30 511 H 52.4495 -0.108773 -4.15758 0
M  V30 512 H 51.0265 1.55398 -3.38978 0
M  V30 513 N 53.2116 1.57565 -0.0334293 0
M  V30 514 C 54.1416 2.13511 0.945265 0
M  V30 515 C 55.1226 1.05231 1.33643 0
M  V30 516 O 56.3076 1.33084 1.41429 0
M  V30 517 C 53.4376 2.6657 2.22616 0
M  V30 518 C 52.3916 3.79676 1.97561 0
M  V30 519 C 51.7176 4.1918 3.31952 0
M  V30 520 C 53.0176 5.0557 1.31135 0
M  V30 521 H 54.7116 2.95538 0.479325 0
M  V30 522 H 52.2576 1.42166 0.229115 0
M  V30 523 H 54.2106 3.04344 2.91466 0
M  V30 524 H 52.9346 1.8171 2.71384 0
M  V30 525 H 51.5936 3.42347 1.31127 0
M  V30 526 H 51.2416 3.31296 3.78487 0
M  V30 527 H 50.9416 4.95402 3.15992 0
M  V30 528 H 52.4656 4.59541 4.02063 0
M  V30 529 H 53.8796 5.40903 1.89992 0
M  V30 530 H 52.2766 5.86818 1.25559 0
M  V30 531 H 53.3466 4.84062 0.284894 0
M  V30 532 N 54.6897 -0.239769 1.55765 0
M  V30 533 C 55.6367 -1.29696 1.90913 0
M  V30 534 C 56.6067 -1.47478 0.764164 0
M  V30 535 O 57.7917 -1.61345 1.01845 0
M  V30 536 C 54.9317 -2.64598 2.21544 0
M  V30 537 C 54.0447 -2.54765 3.48882 0
M  V30 538 C 53.1797 -3.82069 3.69049 0
M  V30 539 C 52.2187 -3.66883 4.89963 0
M  V30 540 N 51.3557 -4.86094 5.06614 0
M  V30 541 H 56.1957 -0.990224 2.81067 0
M  V30 542 H 53.7327 -0.477684 1.39128 0
M  V30 543 H 55.6907 -3.43132 2.3731 0
M  V30 544 H 54.3207 -2.93405 1.34585 0
M  V30 545 H 53.3727 -1.67763 3.41409 0
M  V30 546 H 54.6847 -2.39457 4.37563 0
M  V30 547 H 53.8387 -4.69046 3.84812 0
M  V30 548 H 52.5777 -4.00282 2.78614 0
M  V30 549 H 51.5827 -2.78289 4.74168 0
M  V30 550 H 52.8077 -3.50157 5.81865 0
M  V30 551 H 50.7537 -5.04655 4.19117 0
M  V30 552 H 50.6707 -4.73443 5.89396 0
M  V30 553 H 51.9387 -5.74549 5.26795 0
M  V30 554 N 56.1678 -1.49265 -0.50573 0
M  V30 555 C 57.5788 -1.51769 -1.08734 0
M  V30 556 C 57.9298 -0.301192 -1.93874 0
M  V30 557 O 57.0548 0.589456 -2.08217 0
M  V30 558 C 57.6498 -2.75017 -1.97867 0
M  V30 559 C 56.2088 -2.80314 -2.51199 0
M  V30 560 C 55.3558 -2.4562 -1.28709 0
M  V30 561 H 58.3068 -1.56031 -0.289855 0
M  V30 562 H 58.3278 -2.5491 -2.82491 0
M  V30 563 H 57.8398 -3.63539 -1.35873 0
M  V30 564 H 55.9408 -1.96061 -3.16845 0
M  V30 565 H 56.0538 -3.82366 -2.88675 0
M  V30 566 H 54.4178 -1.97297 -1.61078 0
M  V30 567 H 55.2008 -3.36411 -0.6843 0
M  V30 568 N 57.6459 0.756429 -1.3826 0
M  V30 569 C 58.5759 1.88374 -1.37976 0
M  V30 570 C 59.5569 1.68311 -0.246082 0
M  V30 571 O 60.7419 1.88944 -0.44874 0
M  V30 572 C 57.8719 3.25864 -1.20125 0
M  V30 573 C 56.8259 3.60523 -2.30666 0
M  V30 574 C 56.1519 4.9672 -1.97923 0
M  V30 575 C 57.4519 3.65692 -3.72916 0
M  V30 576 H 59.1459 1.88869 -2.32312 0
M  V30 577 H 56.6919 0.907272 -1.11824 0
M  V30 578 H 58.6449 4.0438 -1.18552 0
M  V30 579 H 57.3689 3.25841 -0.222498 0
M  V30 580 H 56.0279 2.84324 -2.3142 0
M  V30 581 H 55.6759 4.93253 -0.985393 0
M  V30 582 H 55.3759 5.20878 -2.71955 0
M  V30 583 H 56.8999 5.77618 -1.97964 0
M  V30 584 H 58.3139 4.34328 -3.74208 0
M  V30 585 H 56.7109 4.01358 -4.4613 0
M  V30 586 H 57.7809 2.65987 -4.05436 0
M  V30 587 N 59.124 1.23083 0.984299 0
M  V30 588 C 60.535 1.05609 1.5396 0
M  V30 589 C 60.886 -0.377793 1.92528 0
M  V30 590 O 60.011 -1.26398 1.75649 0
M  V30 591 C 60.606 1.91087 2.7977 0
M  V30 592 C 59.165 1.77885 3.31713 0
M  V30 593 C 58.312 1.87028 2.04733 0
M  V30 594 H 61.263 1.36802 0.804419 0
M  V30 595 H 61.284 1.43336 3.5247 0
M  V30 596 H 60.796 2.9544 2.51668 0
M  V30 597 H 58.897 0.762995 3.64704 0
M  V30 598 H 59.01 2.61047 4.01735 0
M  V30 599 H 57.374 1.30565 2.18689 0
M  V30 600 H 58.157 2.92929 1.79017 0
M  V30 601 N 60.6021 -1.18246 1.0419 0
M  V30 602 C 61.8271 -1.92736 0.765996 0
M  V30 603 C 62.2521 -1.75728 -0.67091 0
M  V30 604 O 61.6101 -1.06825 -1.46486 0
M  V30 605 C 61.6581 -3.42148 1.13875 0
M  V30 606 O 60.7621 -4.11548 0.264954 0
M  V30 607 H 60.1031 -0.601238 0.281797 0
M  V30 608 H 62.6331 -1.49942 1.39207 0
M  V30 609 H 62.6431 -3.92858 1.1012 0
M  V30 610 H 61.3181 -3.53848 2.18551 0
M  V30 611 H 59.8951 -3.71137 0.362226 0
M  V30 612 N 62.0802 -0.821533 -1.34494 0
M  V30 613 C 63.3262 -0.409552 -1.98622 0
M  V30 614 C 63.6592 1.0244 -1.64984 0
M  V30 615 O 62.9342 1.71325 -0.920758 0
M  V30 616 C 63.2172 -0.610458 -3.54888 0
M  V30 617 C 63.0702 -2.09043 -3.98273 0
M  V30 618 C 64.3892 -0.0455379 -4.40076 0
M  V30 619 H 61.5082 -0.15028 -0.721516 0
M  V30 620 H 64.1502 -1.03384 -1.59411 0
M  V30 621 H 62.3002 -0.079044 -3.8842 0
M  V30 622 H 63.9722 -2.68537 -3.75081 0
M  V30 623 H 62.2152 -2.58139 -3.48635 0
M  V30 624 H 62.8862 -2.18182 -5.07051 0
M  V30 625 H 65.3622 -0.499557 -4.1309 0
M  V30 626 H 64.2382 -0.215922 -5.48475 0
M  V30 627 H 64.4992 1.04939 -4.29465 0
M  V30 628 N 63.5583 1.46682 -0.576371 0
M  V30 629 C 64.9693 1.86112 -0.148091 0
M  V30 630 C 65.3203 1.48073 1.2872 0
M  V30 631 O 64.4453 0.892656 1.97131 0
M  V30 632 C 65.0403 3.37786 -0.261982 0
M  V30 633 C 63.5993 3.76235 0.111384 0
M  V30 634 C 62.7463 2.70713 -0.60083 0
M  V30 635 H 65.6973 1.37927 -0.78497 0
M  V30 636 H 65.7183 3.77007 0.514364 0
M  V30 637 H 65.2303 3.6544 -1.30671 0
M  V30 638 H 63.3313 3.54198 1.15649 0
M  V30 639 H 63.4443 4.78391 -0.26052 0
M  V30 640 H 61.8083 2.54666 -0.0417783 0
M  V30 641 H 62.5913 3.01208 -1.64708 0
M  V30 642 N 65.0364 0.313813 1.54444 0
M  V30 643 C 65.9464 -0.565714 2.27677 0
M  V30 644 C 66.9624 -1.13754 1.31666 0
M  V30 645 O 68.1384 -1.15959 1.64668 0
M  V30 646 C 65.2034 -1.71528 3.01296 0
M  V30 647 C 64.2644 -1.17624 4.12872 0
M  V30 648 C 63.4974 -2.27102 4.8297 0
M  V30 649 O 63.7204 -3.47256 4.52514 0
M  V30 650 O 62.6544 -1.9307 5.70094 0
M  V30 651 H 66.4804 0.0287296 3.03686 0
M  V30 652 H 64.0654 0.0798312 1.49187 0
M  V30 653 H 65.9474 -2.38476 3.4743 0
M  V30 654 H 64.6224 -2.29608 2.2817 0
M  V30 655 H 63.5294 -0.472124 3.71109 0
M  V30 656 H 64.8624 -0.640695 4.88012 0
M  V30 657 N 66.5145 -1.57545 0.0417849 0
M  V30 658 C 67.4245 -2.14451 -0.951213 0
M  V30 659 C 68.4405 -1.09992 -1.34825 0
M  V30 660 O 69.6165 -1.42114 -1.42708 0
M  V30 661 C 66.6815 -2.67063 -2.21084 0
M  V30 662 C 65.7425 -3.86284 -1.87304 0
M  V30 663 C 64.9755 -4.36378 -3.07261 0
M  V30 664 O 65.1985 -3.85587 -4.20332 0
M  V30 665 O 64.1325 -5.28077 -2.88822 0
M  V30 666 H 67.9585 -2.99601 -0.497287 0
M  V30 667 H 65.5435 -1.48317 -0.179567 0
M  V30 668 H 67.4255 -3.00914 -2.95006 0
M  V30 669 H 66.1005 -1.84989 -2.65633 0
M  V30 670 H 65.0075 -3.57338 -1.10727 0
M  V30 671 H 66.3405 -4.6956 -1.47562 0
M  V30 672 N 67.9926 0.231505 -1.5589 0
M  V30 673 C 68.9396 1.28682 -1.91598 0
M  V30 674 C 69.9096 1.47071 -0.771974 0
M  V30 675 O 71.0946 1.60802 -1.027 0
M  V30 676 C 68.2346 2.6342 -2.22944 0
M  V30 677 C 67.3476 2.52912 -3.50228 0
M  V30 678 C 66.4826 3.80106 -3.7107 0
M  V30 679 C 65.5216 3.64279 -4.91902 0
M  V30 680 N 64.6586 4.834 -5.09184 0
M  V30 681 H 69.4986 0.975305 -2.81588 0
M  V30 682 H 67.0356 0.470299 -1.39379 0
M  V30 683 H 68.9936 3.41869 -2.39126 0
M  V30 684 H 67.6236 2.92687 -1.36139 0
M  V30 685 H 66.6756 1.6595 -3.42294 0
M  V30 686 H 67.9876 2.37133 -4.38827 0
M  V30 687 H 67.1416 4.66999 -3.87295 0
M  V30 688 H 65.8806 3.98799 -2.80733 0
M  V30 689 H 64.8856 2.7577 -4.75637 0
M  V30 690 H 66.1106 3.47067 -5.83714 0
M  V30 691 H 64.0566 5.02425 -4.21788 0
M  V30 692 H 63.9736 4.70311 -5.91898 0
M  V30 693 H 65.2416 5.71747 -5.29835 0
M  V30 694 N 69.4707 1.49531 0.497807 0
M  V30 695 C 70.4177 1.66436 1.59899 0
M  V30 696 C 71.3877 0.505793 1.58212 0
M  V30 697 O 72.5727 0.733202 1.7615 0
M  V30 698 C 69.7127 1.7399 2.98029 0
M  V30 699 C 68.8257 3.01172 3.09708 0
M  V30 700 C 67.9607 2.99686 4.38591 0
M  V30 701 C 66.9997 4.21434 4.43914 0
M  V30 702 N 66.1367 4.1784 5.64229 0
M  V30 703 H 70.9767 2.60459 1.44793 0
M  V30 704 H 68.5137 1.29137 0.704423 0
M  V30 705 H 70.4717 1.76352 3.78095 0
M  V30 706 H 69.1017 0.834301 3.11832 0
M  V30 707 H 68.1537 3.08408 2.22685 0
M  V30 708 H 69.4657 3.91165 3.09502 0
M  V30 709 H 68.6197 3.00628 5.2698 0
M  V30 710 H 67.3587 2.07477 4.41367 0
M  V30 711 H 66.3637 4.20733 3.53926 0
M  V30 712 H 67.5887 5.14839 4.42851 0
M  V30 713 H 65.5347 3.28469 5.67841 0
M  V30 714 H 65.4517 5.01571 5.65652 0
M  V30 715 H 66.7197 4.22889 6.54817 0
M  V30 716 N 70.9488 -0.749086 1.3866 0
M  V30 717 C 72.3598 -1.32664 1.31366 0
M  V30 718 C 72.7108 -1.96179 -0.028484 0
M  V30 719 O 71.8358 -1.9537 -0.93057 0
M  V30 720 C 72.4308 -2.41219 2.37905 0
M  V30 721 C 70.9898 -2.94684 2.34176 0
M  V30 722 C 70.1368 -1.68108 2.20533 0
M  V30 723 H 73.0878 -0.547628 1.48952 0
M  V30 724 H 73.1088 -3.21268 2.0388 0
M  V30 725 H 72.6208 -1.94962 3.35576 0
M  V30 726 H 70.7218 -3.45258 1.401 0
M  V30 727 H 70.8348 -3.48757 3.2849 0
M  V30 728 H 69.1988 -1.91907 1.67463 0
M  V30 729 H 69.9818 -1.23923 3.20153 0
M  V30 730 N 72.4269 -1.23603 -0.977757 0
M  V30 731 C 73.8429 -0.999251 -1.24447 0
M  V30 732 C 74.0429 0.298053 -1.99283 0
M  V30 733 O 73.0989 1.01681 -2.31122 0
M  V30 734 C 74.4119 -2.20784 -2.04144 0
M  V30 735 C 75.9599 -2.25303 -2.17273 0
M  V30 736 C 76.4349 -3.45755 -3.00362 0
M  V30 737 N 77.9259 -3.4601 -3.07947 0
M  V30 738 C 78.6609 -4.35868 -3.72568 0
M  V30 739 N 78.1569 -5.35966 -4.38991 0
M  V30 740 N 79.9499 -4.23605 -3.6948 0
M  V30 741 H 72.1009 -2.06986 -0.476483 0
M  V30 742 H 74.3639 -0.907801 -0.273134 0
M  V30 743 H 74.0699 -3.14945 -1.56533 0
M  V30 744 H 73.9439 -2.22085 -3.04891 0
M  V30 745 H 76.3309 -1.3168 -2.64092 0
M  V30 746 H 76.4119 -2.28033 -1.15907 0
M  V30 747 H 76.0559 -4.39687 -2.5424 0
M  V30 748 H 75.9859 -3.40266 -4.01904 0
M  V30 749 H 78.4769 -2.73588 -2.60688 0
M  V30 750 H 78.7899 -6.00783 -4.86086 0
M  V30 751 H 77.1349 -5.39863 -4.37691 0
M  V30 752 H 80.3259 -3.44647 -3.16759 0
M  V30 753 H 80.4989 -4.93836 -4.1956 0
M  V30 754 N 73.905 1.17692 -1.04816 0
M  V30 755 C 74.855 2.1952 -0.616042 0
M  V30 756 C 75.839 1.57147 0.345485 0
M  V30 757 O 77.031 1.76245 0.163325 0
M  V30 758 C 74.16 3.43298 0.0116917 0
M  V30 759 C 73.246 4.12777 -0.973435 0
M  V30 760 N 73.637 4.5814 -2.14339 0
M  V30 761 C 71.935 4.38747 -0.80108 0
M  V30 762 C 72.636 5.11713 -2.7663 0
M  V30 763 N 71.612 5.03686 -2.04453 0
M  V30 764 H 75.414 2.52293 -1.5075 0
M  V30 765 H 72.928 1.3398 -0.917776 0
M  V30 766 H 74.925 4.15519 0.339006 0
M  V30 767 H 73.585 3.12018 0.898593 0
M  V30 768 H 74.596 4.52349 -2.52191 0
M  V30 769 H 71.273 4.17485 0.0350934 0
M  V30 770 H 72.663 5.56962 -3.75823 0
M  V30 771 N 75.3831 0.828654 1.34056 0
M  V30 772 C 76.3301 0.252567 2.29414 0
M  V30 773 C 77.3001 -0.62588 1.53857 0
M  V30 774 O 78.4851 -0.566312 1.82202 0
M  V30 775 C 75.6251 -0.574831 3.40279 0
M  V30 776 C 74.7381 0.326499 4.30764 0
M  V30 777 C 73.8731 -0.511016 5.28736 0
M  V30 778 C 72.9121 0.389342 6.1086 0
M  V30 779 N 72.0491 -0.409439 7.00905 0
M  V30 780 H 76.8891 1.07108 2.78086 0
M  V30 781 H 74.4261 0.539677 1.36843 0
M  V30 782 H 76.3841 -1.06992 4.03248 0
M  V30 783 H 75.0141 -1.35841 2.92826 0
M  V30 784 H 74.0661 0.939837 3.68607 0
M  V30 785 H 75.3781 1.01857 4.88289 0
M  V30 786 H 74.5321 -1.07035 5.97184 0
M  V30 787 H 73.2711 -1.23657 4.71763 0
M  V30 788 H 72.2761 0.960769 5.4134 0
M  V30 789 H 73.5011 1.1131 6.69916 0
M  V30 790 H 71.4471 -1.11856 6.46393 0
M  V30 791 H 71.3641 0.224126 7.55668 0
M  V30 792 H 72.6321 -0.951336 7.73673 0
M  V30 793 N 76.8612 -1.46375 0.584142 0
M  V30 794 C 78.1102 -2.01585 0.0679741 0
M  V30 795 C 78.4232 -1.46109 -1.30045 0
M  V30 796 O 79.6292 -1.93148 -1.90804 0
M  V30 797 C 78.0852 -3.5983 0.0709207 0
M  V30 798 C 77.6932 -4.24303 1.43775 0
M  V30 799 C 79.4372 -4.22693 -0.391228 0
M  V30 800 C 77.3442 -5.74631 1.39834 0
M  V30 801 H 76.2742 -0.753689 0.0216421 0
M  V30 802 H 78.9252 -1.68093 0.736001 0
M  V30 803 H 77.3072 -3.90405 -0.663299 0
M  V30 804 H 78.4812 -4.05335 2.19181 0
M  V30 805 H 76.7962 -3.73539 1.84004 0
M  V30 806 H 79.3932 -5.3289 -0.439524 0
M  V30 807 H 79.7362 -3.91728 -1.40906 0
M  V30 808 H 80.2692 -3.96749 0.288974 0
M  V30 809 H 77.0082 -6.10258 2.39303 0
M  V30 810 H 76.5282 -5.95858 0.686505 0
M  V30 811 H 78.2072 -6.37375 1.11187 0
M  V30 812 N 78.3393 -0.321999 -1.54275 0
M  V30 813 C 79.5883 0.281931 -1.9972 0
M  V30 814 C 79.9013 1.53369 -1.21397 0
M  V30 815 O 81.1073 2.21352 -1.57211 0
M  V30 816 C 79.5633 0.5529 -3.55628 0
M  V30 817 C 79.1713 -0.681721 -4.42783 0
M  V30 818 C 80.9153 1.11687 -4.09544 0
M  V30 819 C 78.8223 -0.382742 -5.9016 0
M  V30 820 H 77.7523 0.109124 -0.746062 0
M  V30 821 H 80.4033 -0.43398 -1.78294 0
M  V30 822 H 78.7853 1.32896 -3.73035 0
M  V30 823 H 79.9593 -1.45723 -4.37151 0
M  V30 824 H 78.2743 -1.1658 -3.99748 0
M  V30 825 H 80.8713 1.35515 -5.17242 0
M  V30 826 H 81.2143 2.06575 -3.61431 0
M  V30 827 H 81.7473 0.402032 -3.95763 0
M  V30 828 H 78.4863 -1.30076 -6.42464 0
M  V30 829 H 78.0063 0.355094 -5.98748 0
M  V30 830 H 79.6853 0.00800157 -6.47 0
M  V30 831 N 79.8174 1.5752 -0.0501392 0
M  V30 832 C 81.0424 1.97376 0.636997 0
M  V30 833 C 81.4674 0.927466 1.63645 0
M  V30 834 O 80.8254 -0.10941 1.8097 0
M  V30 835 C 80.8734 3.36304 1.30123 0
M  V30 836 O 79.9774 3.34156 2.41689 0
M  V30 837 H 79.3184 0.642998 0.165679 0
M  V30 838 H 81.8484 2.04258 -0.118233 0
M  V30 839 H 81.8584 3.73008 1.65315 0
M  V30 840 H 80.5334 4.11993 0.568746 0
M  V30 841 H 79.1104 3.09196 2.08451 0
M  V30 842 N 81.2955 -0.223234 1.56011 0
M  V30 843 C 82.5445 -0.945912 1.78144 0
M  V30 844 C 82.8575 -1.85567 0.618396 0
M  V30 845 O 84.0635 -2.61688 0.723318 0
M  V30 846 C 82.5195 -1.73216 3.15475 0
M  V30 847 C 82.1275 -0.868619 4.39499 0
M  V30 848 C 83.8715 -2.44615 3.46935 0
M  V30 849 C 81.7785 -1.65212 5.67855 0
M  V30 850 H 80.7085 -0.356929 0.664167 0
M  V30 851 H 83.3595 -0.199845 1.82409 0
M  V30 852 H 81.7415 -2.52107 3.05382 0
M  V30 853 H 82.9155 -0.120366 4.60643 0
M  V30 854 H 81.2305 -0.26683 4.15544 0
M  V30 855 H 83.8275 -3.03732 4.40058 0
M  V30 856 H 84.1705 -3.17417 2.69355 0
M  V30 857 H 84.7035 -1.72715 3.58349 0
M  V30 858 H 81.4425 -0.967407 6.48322 0
M  V30 859 H 80.9625 -2.37503 5.50774 0
M  V30 860 H 82.6415 -2.21322 6.07968 0
M  V30 861 N 82.7736 -1.49793 -0.48987 0
M  V30 862 C 84.0206 -1.59841 -1.24327 0
M  V30 863 C 84.3486 -0.290135 -1.92324 0
M  V30 864 O 83.6036 0.722749 -1.81865 0
M  V30 865 C 83.9026 -2.71488 -2.32441 0
M  V30 866 C 83.5686 -4.12614 -1.81826 0
M  V30 867 C 82.2306 -4.51017 -1.67742 0
M  V30 868 C 84.5826 -5.00892 -1.4407 0
M  V30 869 C 81.9106 -5.75459 -1.14297 0
M  V30 870 C 84.2626 -6.25863 -0.920742 0
M  V30 871 C 82.9266 -6.63086 -0.766383 0
M  V30 872 H 82.1966 -0.584899 -0.454944 0
M  V30 873 H 84.8436 -1.83663 -0.542215 0
M  V30 874 H 83.1486 -2.4168 -3.0838 0
M  V30 875 H 84.8456 -2.76469 -2.90458 0
M  V30 876 H 81.4356 -3.82307 -1.93751 0
M  V30 877 H 85.6196 -4.7187 -1.53794 0
M  V30 878 H 80.8756 -6.02989 -1.01068 0
M  V30 879 H 85.0496 -6.9364 -0.619448 0
M  V30 880 H 82.6766 -7.59393 -0.350083 0
M  V30 881 N 84.2517 0.741722 -1.39055 0
M  V30 882 C 85.4767 1.53607 -1.39354 0
M  V30 883 C 85.9017 1.88096 0.0116905 0
M  V30 884 O 85.2597 1.5143 0.996924 0
M  V30 885 C 85.3077 2.80441 -2.26682 0
M  V30 886 O 84.4117 3.76088 -1.69208 0
M  V30 887 H 83.7527 0.464142 -0.474835 0
M  V30 888 H 86.2827 0.915665 -1.82967 0
M  V30 889 H 86.2927 3.29246 -2.40959 0
M  V30 890 H 84.9677 2.5467 -3.2881 0
M  V30 891 H 83.5447 3.34833 -1.64138 0
M  V30 892 N 85.7298 1.2412 0.971189 0
M  V30 893 C 86.9778 1.07668 1.71032 0
M  V30 894 C 87.2988 -0.385797 1.91146 0
M  V30 895 O 86.5688 -1.27569 1.4867 0
M  V30 896 H 85.1488 0.395429 0.633755 0
M  V30 897 H 87.8108 1.55984 1.16855 0
M  V30 898 H 86.9068 1.57195 2.69622 0
M  V30 899 N 87.2079 -1.17134 1.05439 0
M  V30 900 C 88.4359 -1.91372 0.786414 0
M  V30 901 C 88.8509 -1.76955 -0.658202 0
M  V30 902 O 88.2079 -1.10838 -1.44987 0
M  V30 903 C 88.2589 -3.42356 1.1608 0
M  V30 904 O 87.9799 -3.56332 2.54871 0
M  V30 905 C 89.4809 -4.33663 0.919322 0
M  V30 906 H 86.7009 -0.607118 0.285743 0
M  V30 907 H 89.2449 -1.48525 1.40572 0
M  V30 908 H 87.3999 -3.82939 0.586191 0
M  V30 909 H 87.8139 -4.49896 2.69618 0
M  V30 910 H 89.2879 -5.38099 1.231 0
M  V30 911 H 89.7649 -4.38959 -0.145359 0
M  V30 912 H 90.3709 -3.98796 1.47789 0
M  V30 913 N 88.686 -0.835752 -1.33615 0
M  V30 914 C 89.596 -0.269088 -2.33052 0
M  V30 915 C 90.612 0.603251 -1.63208 0
M  V30 916 O 91.788 0.508112 -1.94885 0
M  V30 917 C 88.853 0.549091 -3.42324 0
M  V30 918 C 87.914 -0.347156 -4.27894 0
M  V30 919 C 87.147 0.43207 -5.31948 0
M  V30 920 O 87.37 1.66409 -5.45586 0
M  V30 921 O 86.304 -0.192298 -6.01593 0
M  V30 922 H 90.13 -1.09243 -2.83372 0
M  V30 923 H 87.715 -0.598198 -1.36901 0
M  V30 924 H 89.597 1.01414 -4.09015 0
M  V30 925 H 88.272 1.34955 -2.94226 0
M  V30 926 H 87.179 -0.859979 -3.64081 0
M  V30 927 H 88.512 -1.1123 -4.79467 0
M  V30 928 N 90.1641 1.46063 -0.591896 0
M  V30 929 C 91.1111 2.30399 0.136069 0
M  V30 930 C 92.0811 1.41169 0.875238 0
M  V30 931 O 93.2661 1.70112 0.86409 0
M  V30 932 C 90.4061 3.25804 1.13781 0
M  V30 933 C 89.5191 4.30134 0.401137 0
M  V30 934 C 88.6541 5.12659 1.39121 0
M  V30 935 C 87.6931 6.0873 0.641462 0
M  V30 936 N 86.8301 6.8409 1.58004 0
M  V30 937 H 91.6701 2.92118 -0.589144 0
M  V30 938 H 89.2071 1.43959 -0.302342 0
M  V30 939 H 91.1651 3.79569 1.73156 0
M  V30 940 H 89.7951 2.65872 1.83062 0
M  V30 941 H 88.8471 3.79152 -0.307826 0
M  V30 942 H 90.1591 4.98458 -0.184565 0
M  V30 943 H 89.3131 5.70747 2.05749 0
M  V30 944 H 88.0521 4.44316 2.01084 0
M  V30 945 H 87.0571 5.49786 -0.0385419 0
M  V30 946 H 88.2821 6.79095 0.0270945 0
M  V30 947 H 86.2281 6.18449 2.18761 0
M  V30 948 H 86.1451 7.48709 1.04738 0
M  V30 949 H 87.4131 7.4673 2.23639 0
M  V30 950 N 91.6422 0.330177 1.54103 0
M  V30 951 C 92.8902 -0.269871 2.0029 0
M  V30 952 C 93.2112 -1.52133 1.21986 0
M  V30 953 O 92.4812 -1.93212 0.323438 0
M  V30 954 H 91.0612 -0.10271 0.739905 0
M  V30 955 H 93.7232 0.448249 1.89675 0
M  V30 956 H 92.8192 -0.52166 3.07709 0
M  V30 957 N 93.1203 -1.57491 0.0584922 0
M  V30 958 C 94.3453 -1.97711 -0.62652 0
M  V30 959 C 94.7703 -0.936132 -1.63151 0
M  V30 960 O 94.1283 0.099811 -1.81025 0
M  V30 961 C 94.1763 -3.36989 -1.28338 0
M  V30 962 O 93.2803 -3.35433 -2.39913 0
M  V30 963 H 92.6213 -0.643868 -0.162266 0
M  V30 964 H 95.1513 -2.04193 0.129064 0
M  V30 965 H 95.1613 -3.73879 -1.63335 0
M  V30 966 H 93.8363 -4.12289 -0.546889 0
M  V30 967 H 92.4133 -3.10298 -2.06809 0
M  V30 968 N 94.5984 0.214957 -1.56127 0
M  V30 969 C 95.5454 1.26642 -1.92952 0
M  V30 970 C 96.5154 1.46244 -0.78753 0
M  V30 971 O 97.7004 1.59704 -1.04399 0
M  V30 972 C 94.8404 2.6104 -2.25726 0
M  V30 973 C 93.9534 2.49183 -3.52891 0
M  V30 974 C 93.0884 3.76149 -3.7508 0
M  V30 975 C 92.1274 3.59041 -4.95738 0
M  V30 976 N 91.2644 4.77972 -5.14283 0
M  V30 977 H 96.1044 0.945384 -2.82607 0
M  V30 978 H 93.6414 0.455489 -1.3987 0
M  V30 979 H 95.5994 3.39313 -2.42739 0
M  V30 980 H 94.2294 2.91227 -1.39236 0
M  V30 981 H 93.2814 1.6231 -3.44034 0
M  V30 982 H 94.5934 2.32466 -4.41318 0
M  V30 983 H 93.7474 4.62865 -3.92226 0
M  V30 984 H 92.4864 3.95799 -2.84947 0
M  V30 985 H 91.4914 2.7071 -4.78535 0
M  V30 986 H 92.7164 3.40856 -5.87362 0
M  V30 987 H 90.6624 4.97923 -4.27093 0
M  V30 988 H 90.5794 4.64006 -5.96853 0
M  V30 989 H 91.8474 5.66096 -5.35869 0
M  V30 990 N 96.0765 1.50051 0.48192 0
M  V30 991 C 97.0235 1.68122 1.58125 0
M  V30 992 C 97.9935 0.522545 1.57666 0
M  V30 993 O 99.1785 0.751844 1.75362 0
M  V30 994 C 96.3185 1.77142 2.96167 0
M  V30 995 C 95.4315 3.0444 3.06497 0
M  V30 996 C 94.5665 3.04321 4.35387 0
M  V30 997 C 93.6055 4.26118 4.3942 0
M  V30 998 N 92.7425 4.238 5.59766 0
M  V30 999 H 97.5825 2.6198 1.42022 0
M  V30 1000 H 95.1195 1.29877 0.690687 0
M  V30 1001 H 97.0775 1.80352 3.76203 0
M  V30 1002 H 95.7075 0.867329 3.1093 0
M  V30 1003 H 94.7595 3.10752 2.19402 0
M  V30 1004 H 96.0715 3.94426 3.05336 0
M  V30 1005 H 95.2255 3.062 5.23762 0
M  V30 1006 H 93.9645 2.12147 4.39141 0
M  V30 1007 H 92.9695 4.24463 3.49444 0
M  V30 1008 H 94.1945 5.19507 4.37366 0
M  V30 1009 H 92.1405 3.34474 5.64326 0
M  V30 1010 H 92.0575 5.07542 5.60301 0
M  V30 1011 H 93.3255 4.2981 6.50295 0
M  V30 1012 N 97.5546 -0.734337 1.39446 0
M  V30 1013 C 98.5016 -1.84835 1.38219 0
M  V30 1014 C 99.4716 -1.64331 0.24179 0
M  V30 1015 O 100.657 -1.85728 0.437002 0
M  V30 1016 C 97.7966 -3.22355 1.23212 0
M  V30 1017 C 96.9096 -3.5456 2.46801 0
M  V30 1018 C 96.0446 -4.81485 2.24377 0
M  V30 1019 C 95.0836 -5.06536 3.43639 0
M  V30 1020 N 94.2206 -6.24665 3.20528 0
M  V30 1021 H 99.0606 -1.85219 2.33448 0
M  V30 1022 H 96.5976 -0.905039 1.15963 0
M  V30 1023 H 98.5556 -4.0174 1.12522 0
M  V30 1024 H 97.1856 -3.21248 0.316121 0
M  V30 1025 H 96.2376 -2.69872 2.68092 0
M  V30 1026 H 97.5496 -3.6899 3.3563 0
M  V30 1027 H 96.7036 -5.68852 2.10933 0
M  V30 1028 H 95.4426 -4.6923 1.32944 0
M  V30 1029 H 94.4476 -4.17632 3.5758 0
M  V30 1030 H 95.6726 -5.20676 4.35974 0
M  V30 1031 H 93.6186 -6.13696 2.3176 0
M  V30 1032 H 93.5356 -6.39685 4.02913 0
M  V30 1033 H 94.8036 -7.14868 3.10779 0
M  V30 1034 N 99.0327 -1.24633 -0.964593 0
M  V30 1035 C 99.9427 -1.05859 -2.09359 0
M  V30 1036 C 100.959 0.00148855 -1.74 0
M  V30 1037 O 102.135 -0.197346 -2.00431 0
M  V30 1038 C 99.1997 -0.668879 -3.40187 0
M  V30 1039 C 98.2607 -1.80578 -3.89474 0
M  V30 1040 C 97.4937 -1.43457 -5.14058 0
M  V30 1041 O 97.7167 -0.325775 -5.69469 0
M  V30 1042 O 96.6507 -2.2613 -5.57807 0
M  V30 1043 H 100.477 -2.00516 -2.28094 0
M  V30 1044 H 98.0617 -1.03481 -1.0776 0
M  V30 1045 H 99.9437 -0.463211 -4.18846 0
M  V30 1046 H 98.6187 0.248536 -3.22744 0
M  V30 1047 H 97.5257 -2.06623 -3.11862 0
M  V30 1048 H 98.8587 -2.70208 -4.11398 0
M  V30 1049 N 100.511 1.16574 -1.06058 0
M  V30 1050 C 101.458 2.20883 -0.669263 0
M  V30 1051 C 102.428 1.62729 0.332918 0
M  V30 1052 O 103.613 1.895 0.222346 0
M  V30 1053 C 100.753 3.45049 -0.0593572 0
M  V30 1054 C 99.8658 4.17458 -1.11143 0
M  V30 1055 C 99.0008 5.29135 -0.467916 0
M  V30 1056 C 98.0398 5.93343 -1.50369 0
M  V30 1057 N 97.1768 6.96516 -0.883706 0
M  V30 1058 H 102.017 2.53709 -1.5632 0
M  V30 1059 H 99.5538 1.24616 -0.781625 0
M  V30 1060 H 101.512 4.16033 0.311771 0
M  V30 1061 H 100.142 3.12781 0.797992 0
M  V30 1062 H 99.1938 3.45101 -1.60029 0
M  V30 1063 H 100.506 4.61307 -1.89731 0
M  V30 1064 H 99.6598 6.06684 -0.0436871 0
M  V30 1065 H 98.3988 4.86443 0.349864 0
M  V30 1066 H 97.4038 5.14517 -1.93784 0
M  V30 1067 H 98.6288 6.38114 -2.32352 0
M  V30 1068 H 96.5748 6.55943 -0.086595 0
M  V30 1069 H 96.4918 7.38723 -1.607 0
M  V30 1070 H 97.7598 7.77993 -0.484543 0
M  V30 1071 N 101.989 0.842826 1.3317 0
M  V30 1072 C 102.899 0.281444 2.32906 0
M  V30 1073 C 103.915 -0.594587 1.63526 0
M  V30 1074 O 105.091 -0.49777 1.95152 0
M  V30 1075 C 102.156 -0.530929 3.42611 0
M  V30 1076 C 101.217 0.369843 4.27704 0
M  V30 1077 C 100.45 -0.403853 5.3217 0
M  V30 1078 O 100.673 -1.63513 5.46461 0
M  V30 1079 O 99.6069 0.224199 6.01482 0
M  V30 1080 H 103.433 1.10744 2.82789 0
M  V30 1081 H 101.018 0.60545 1.36582 0
M  V30 1082 H 102.9 -0.992437 4.09547 0
M  V30 1083 H 101.575 -1.33392 2.94938 0
M  V30 1084 H 100.482 0.879275 3.6362 0
M  V30 1085 H 101.815 1.13771 4.78871 0
M  V30 1086 N 103.467 -1.45747 0.599634 0
M  V30 1087 C 104.883 -1.57424 0.26264 0
M  V30 1088 C 105.083 -1.59222 -1.23493 0
M  V30 1089 O 104.139 -1.51825 -2.01756 0
M  V30 1090 C 105.452 -2.86061 0.926795 0
M  V30 1091 C 107 -2.99722 0.901967 0
M  V30 1092 C 107.475 -4.31119 1.54598 0
M  V30 1093 N 108.966 -4.37858 1.5111 0
M  V30 1094 C 109.701 -5.3818 1.97863 0
M  V30 1095 N 109.197 -6.45083 2.52666 0
M  V30 1096 N 110.99 -5.29487 1.88679 0
M  V30 1097 H 103.141 -1.42823 1.57211 0
M  V30 1098 H 105.404 -0.68235 0.658105 0
M  V30 1099 H 105.11 -2.90605 1.98095 0
M  V30 1100 H 104.984 -3.74563 0.445238 0
M  V30 1101 H 107.371 -2.9475 -0.143617 0
M  V30 1102 H 107.452 -2.12652 1.42171 0
M  V30 1103 H 107.096 -4.36849 2.59085 0
M  V30 1104 H 107.026 -5.16992 1.00132 0
M  V30 1105 H 109.517 -3.61209 1.11068 0
M  V30 1106 H 109.83 -7.17869 2.86155 0
M  V30 1107 H 108.175 -6.45856 2.56701 0
M  V30 1108 H 111.366 -4.44877 1.4561 0
M  V30 1109 H 111.539 -6.07524 2.25429 0
M  V30 1110 N 104.945 -0.338344 -1.53925 0
M  V30 1111 C 106.356 0.146651 -1.86123 0
M  V30 1112 C 106.707 1.5042 -1.2597 0
M  V30 1113 O 105.832 2.08723 -0.571294 0
M  V30 1114 C 106.427 0.272879 -3.37699 0
M  V30 1115 C 104.986 0.702103 -3.69794 0
M  V30 1116 C 104.133 -0.167304 -2.76795 0
M  V30 1117 H 107.084 -0.558123 -1.48562 0
M  V30 1118 H 107.105 1.10128 -3.64214 0
M  V30 1119 H 106.617 -0.715307 -3.81451 0
M  V30 1120 H 104.718 1.6995 -3.31584 0
M  V30 1121 H 104.831 0.495604 -4.7653 0
M  V30 1122 H 103.195 0.359527 -2.5215 0
M  V30 1123 H 103.978 -1.15253 -3.23375 0
M  V30 1124 N 106.423 1.57458 -0.0668435 0
M  V30 1125 C 107.333 2.15937 0.916975 0
M  V30 1126 C 108.349 1.12123 1.33058 0
M  V30 1127 O 109.525 1.44366 1.40429 0
M  V30 1128 C 106.59 2.70547 2.16807 0
M  V30 1129 C 105.651 3.89215 1.81135 0
M  V30 1130 C 104.884 4.41211 3.0028 0
M  V30 1131 O 105.107 3.92225 4.14144 0
M  V30 1132 O 104.041 5.32605 2.80384 0
M  V30 1133 H 107.867 3.00354 0.449561 0
M  V30 1134 H 105.452 1.48584 0.155949 0
M  V30 1135 H 107.334 3.0557 2.90181 0
M  V30 1136 H 106.009 1.89192 2.62656 0
M  V30 1137 H 104.916 3.59054 1.05028 0
M  V30 1138 H 106.249 4.71848 1.40073 0
M  V30 1139 N 107.901 -0.206675 1.56239 0
M  V30 1140 C 109.15 -0.926964 1.79138 0
M  V30 1141 C 109.463 -1.84901 0.638043 0
M  V30 1142 O 110.669 -2.60906 0.751033 0
M  V30 1143 C 109.125 -1.6986 3.17294 0
M  V30 1144 C 108.733 -0.821956 4.40395 0
M  V30 1145 C 110.477 -2.40922 3.4951 0
M  V30 1146 C 108.384 -1.59179 5.69575 0
M  V30 1147 H 107.314 -0.349864 0.667915 0
M  V30 1148 H 109.965 -0.180487 1.8261 0
M  V30 1149 H 108.347 -2.48853 3.08039 0
M  V30 1150 H 109.521 -0.0715019 4.60745 0
M  V30 1151 H 107.836 -0.222741 4.15804 0
M  V30 1152 H 110.433 -2.99047 4.43255 0
M  V30 1153 H 110.776 -3.14542 2.72707 0
M  V30 1154 H 111.309 -1.68905 3.60161 0
M  V30 1155 H 108.048 -0.898589 6.49312 0
M  V30 1156 H 107.568 -2.31648 5.53262 0
M  V30 1157 H 109.247 -2.14862 6.10281 0
M  V30 1158 N 109.379 -1.50304 -0.473955 0
M  V30 1159 C 110.604 -1.65175 -1.25427 0
M  V30 1160 C 111.029 -0.333673 -1.85117 0
M  V30 1161 O 110.387 0.702114 -1.67153 0
M  V30 1162 C 110.435 -2.74295 -2.34082 0
M  V30 1163 O 109.539 -2.35349 -3.38651 0
M  V30 1164 H 108.88 -0.551944 -0.369126 0
M  V30 1165 H 111.41 -1.96662 -0.564364 0
M  V30 1166 H 111.42 -2.97285 -2.79438 0
M  V30 1167 H 110.095 -3.69959 -1.90008 0
M  V30 1168 H 108.672 -2.22794 -2.99027 0
M  V30 1169 N 110.857 0.726932 -1.39834 0
M  V30 1170 C 112.268 1.30558 -1.3346 0
M  V30 1171 C 112.619 1.962 -0.00273003 0
M  V30 1172 O 111.744 1.96826 0.899371 0
M  V30 1173 C 112.339 2.37404 -2.41713 0
M  V30 1174 C 110.898 2.90921 -2.38835 0
M  V30 1175 C 110.045 1.64578 -2.2318 0
M  V30 1176 H 112.996 0.523862 -1.49804 0
M  V30 1177 H 113.017 3.17984 -2.08966 0
M  V30 1178 H 112.529 1.89599 -3.38635 0
M  V30 1179 H 110.63 3.42985 -1.45575 0
M  V30 1180 H 110.743 3.43487 -3.33997 0
M  V30 1181 H 109.107 1.89219 -1.70494 0
M  V30 1182 H 109.89 1.18814 -3.22084 0
M  V30 1183 N 112.336 1.25143 0.95797 0
M  V30 1184 C 113.747 1.08851 1.51685 0
M  V30 1185 C 114.098 -0.33687 1.93286 0
M  V30 1186 O 113.223 -1.22644 1.7829 0
M  V30 1187 C 113.818 1.96978 2.75654 0
M  V30 1188 C 112.377 1.84881 3.27866 0
M  V30 1189 C 111.524 1.91329 2.0072 0
M  V30 1190 H 114.475 1.38478 0.77522 0
M  V30 1191 H 114.496 1.5078 3.4935 0
M  V30 1192 H 114.008 3.00712 2.45345 0
M  V30 1193 H 112.109 0.840182 3.63004 0
M  V30 1194 H 112.222 2.6951 3.96107 0
M  V30 1195 H 110.586 1.35174 2.15871 0
M  V30 1196 H 111.369 2.96661 1.72764 0
M  V30 1197 N 113.814 -1.1601 1.06675 0
M  V30 1198 C 115.039 -1.91068 0.806706 0
M  V30 1199 C 115.464 -1.77112 -0.633485 0
M  V30 1200 O 114.822 -1.09908 -1.44187 0
M  V30 1201 C 114.87 -3.39655 1.21106 0
M  V30 1202 O 113.974 -4.10893 0.352189 0
M  V30 1203 H 113.315 -0.595125 0.294486 0
M  V30 1204 H 115.845 -1.46955 1.42356 0
M  V30 1205 H 115.855 -3.90434 1.18428 0
M  V30 1206 H 114.53 -3.49132 2.26008 0
M  V30 1207 H 113.107 -3.70285 0.440868 0
M  V30 1208 N 115.292 -0.849877 -1.32721 0
M  V30 1209 C 116.569 -0.372405 -1.92022 0
M  V30 1210 C 116.949 1.1435 -1.77447 0
M  V30 1211 O 116.297 1.96296 -1.16962 0
M  V30 1212 C 116.507 -0.831482 -3.3895 0
M  V30 1213 C 117.855 -0.845882 -4.16089 0
M  V30 1214 O 118.879 -0.775806 -3.47649 0
M  V30 1215 O 117.738 -0.943753 -5.38289 0
M  V30 1216 H 114.832 -0.107667 -0.819961 0
M  V30 1217 H 117.378 -0.93646 -1.41522 0
M  V30 1218 H 116.15 -1.87448 -3.4348 0
M  V30 1219 H 115.773 -0.24461 -3.96847 0
M  V30 1220 N 116.77 1.45427 -0.607355 0
M  V30 1221 C 118.017 2.02241 -0.102455 0
M  V30 1222 C 118.345 1.4758 1.26691 0
M  V30 1223 O 117.6 0.640468 1.84923 0
M  V30 1224 C 117.899 3.57398 -0.0129263 0
M  V30 1225 C 117.565 4.3121 -1.31792 0
M  V30 1226 C 116.227 4.51092 -1.67539 0
M  V30 1227 C 118.579 4.73401 -2.18039 0
M  V30 1228 C 115.907 5.10422 -2.89285 0
M  V30 1229 C 118.259 5.34078 -3.39034 0
M  V30 1230 C 116.923 5.52184 -3.75033 0
M  V30 1231 H 116.193 0.740051 -0.037491 0
M  V30 1232 H 118.84 1.74494 -0.788926 0
M  V30 1233 H 117.145 3.84421 0.756806 0
M  V30 1234 H 118.842 3.99061 0.393881 0
M  V30 1235 H 115.432 4.16047 -1.02968 0
M  V30 1236 H 119.616 4.57774 -1.91721 0
M  V30 1237 H 114.872 5.22629 -3.17283 0
M  V30 1238 H 119.046 5.65724 -4.06115 0
M  V30 1239 H 116.673 5.97925 -4.69457 0
M  V30 1240 N 118.248 0.346503 1.53744 0
M  V30 1241 C 119.158 -0.517293 2.28826 0
M  V30 1242 C 120.174 -1.10935 1.3405 0
M  V30 1243 O 121.35 -1.1244 1.6709 0
M  V30 1244 C 118.415 -1.65098 3.04866 0
M  V30 1245 C 117.476 -1.0884 4.15274 0
M  V30 1246 C 116.709 -2.16806 4.87679 0
M  V30 1247 O 116.932 -3.3758 4.59778 0
M  V30 1248 O 115.866 -1.80934 5.74061 0
M  V30 1249 H 119.692 0.0931396 3.03557 0
M  V30 1250 H 117.277 0.111458 1.48984 0
M  V30 1251 H 119.159 -2.31053 3.5241 0
M  V30 1252 H 117.834 -2.24717 2.32989 0
M  V30 1253 H 116.741 -0.3933 3.72027 0
M  V30 1254 H 118.074 -0.537036 4.89261 0
M  V30 1255 N 119.726 -1.57421 0.075193 0
M  V30 1256 C 120.676 -2.09441 -0.901025 0
M  V30 1257 C 121.66 -1.00486 -1.25663 0
M  V30 1258 O 122.852 -1.2679 -1.23504 0
M  V30 1259 C 119.981 -2.66233 -2.16737 0
M  V30 1260 C 119.067 -3.82198 -1.83808 0
M  V30 1261 N 119.458 -4.91028 -1.21345 0
M  V30 1262 C 117.756 -3.91558 -2.13538 0
M  V30 1263 C 118.457 -5.71852 -1.06585 0
M  V30 1264 N 117.433 -5.20233 -1.57667 0
M  V30 1265 H 121.235 -2.90972 -0.413815 0
M  V30 1266 H 118.749 -1.6189 -0.128601 0
M  V30 1267 H 120.746 -3.01819 -2.87595 0
M  V30 1268 H 119.406 -1.8615 -2.66042 0
M  V30 1269 H 120.417 -5.10323 -0.88268 0
M  V30 1270 H 117.094 -3.22454 -2.65197 0
M  V30 1271 H 118.484 -6.69401 -0.578933 0
M  V30 1272 N 121.204 0.198386 -1.56346 0
M  V30 1273 C 122.432 0.935572 -1.84539 0
M  V30 1274 C 122.847 1.76989 -0.657281 0
M  V30 1275 O 122.204 1.78626 0.374043 0
M  V30 1276 C 122.255 1.8344 -3.11499 0
M  V30 1277 O 121.976 1.03377 -4.25728 0
M  V30 1278 C 123.477 2.68355 -3.52846 0
M  V30 1279 H 120.697 0.273126 -0.612897 0
M  V30 1280 H 123.241 0.20663 -2.03453 0
M  V30 1281 H 121.396 2.51701 -2.94492 0
M  V30 1282 H 121.81 1.64599 -4.98003 0
M  V30 1283 H 123.284 3.27085 -4.44657 0
M  V30 1284 H 123.761 3.41901 -2.75681 0
M  V30 1285 H 124.367 2.05471 -3.72373 0
M  V30 1286 N 122.682 1.50554 0.465978 0
M  V30 1287 C 123.931 1.61038 1.21448 0
M  V30 1288 C 124.244 0.31865 1.92987 0
M  V30 1289 O 125.45 0.302469 2.6981 0
M  V30 1290 C 123.906 2.84283 2.20706 0
M  V30 1291 C 123.514 4.20352 1.54946 0
M  V30 1292 C 125.258 3.04115 2.96166 0
M  V30 1293 C 123.165 5.34778 2.5252 0
M  V30 1294 H 122.095 0.599718 0.457005 0
M  V30 1295 H 124.746 1.7699 0.484424 0
M  V30 1296 H 123.128 2.61901 2.97025 0
M  V30 1297 H 124.302 4.53008 0.843811 0
M  V30 1298 H 122.617 4.06167 0.917475 0
M  V30 1299 H 125.214 3.86774 3.69202 0
M  V30 1300 H 125.557 2.16045 3.55852 0
M  V30 1301 H 126.09 3.26702 2.26959 0
M  V30 1302 H 122.829 6.25018 1.97566 0
M  V30 1303 H 122.349 5.06534 3.21222 0
M  V30 1304 H 124.028 5.65561 3.14245 0
M  V30 1305 N 124.16 -0.719506 1.40217 0
M  V30 1306 C 125.11 -1.8251 1.36653 0
M  V30 1307 C 126.094 -1.59028 0.244732 0
M  V30 1308 O 127.286 -1.70268 0.483524 0
M  V30 1309 C 124.415 -3.20599 1.22763 0
M  V30 1310 C 123.501 -3.49858 2.39708 0
M  V30 1311 N 123.892 -3.49957 3.6519 0
M  V30 1312 C 122.19 -3.80297 2.33002 0
M  V30 1313 C 122.891 -3.77449 4.42614 0
M  V30 1314 N 121.867 -3.96002 3.72402 0
M  V30 1315 H 125.669 -1.80914 2.31619 0
M  V30 1316 H 123.183 -0.918455 1.33933 0
M  V30 1317 H 125.18 -3.99766 1.18292 0
M  V30 1318 H 123.84 -3.23424 0.287614 0
M  V30 1319 H 124.851 -3.309 3.98404 0
M  V30 1320 H 121.528 -3.90635 1.47346 0
M  V30 1321 H 122.918 -3.83863 5.51451 0
M  V30 1322 N 125.638 -1.25649 -0.95132 0
M  V30 1323 C 126.884 -1.10757 -1.69884 0
M  V30 1324 C 127.217 0.350061 -1.91019 0
M  V30 1325 O 126.492 1.25783 -1.48354 0
M  V30 1326 C 126.775 -1.86606 -3.07978 0
M  V30 1327 C 126.628 -3.40217 -2.94232 0
M  V30 1328 C 127.947 -1.65182 -4.07925 0
M  V30 1329 H 125.066 -0.40374 -0.616574 0
M  V30 1330 H 127.708 -1.54521 -1.10558 0
M  V30 1331 H 125.858 -1.49409 -3.58621 0
M  V30 1332 H 127.53 -3.87108 -2.50889 0
M  V30 1333 H 125.773 -3.67759 -2.30078 0
M  V30 1334 H 126.444 -3.88505 -3.92133 0
M  V30 1335 H 128.92 -1.9757 -3.66204 0
M  V30 1336 H 127.796 -2.20683 -5.02583 0
M  V30 1337 H 128.057 -0.593933 -4.38092 0
M  V30 1338 N 127.117 1.15442 -1.07289 0
M  V30 1339 C 128.365 1.85845 -0.794096 0
M  V30 1340 C 128.686 1.82692 0.681809 0
M  V30 1341 O 127.956 1.26741 1.49377 0
M  V30 1342 H 126.536 0.688089 -0.290763 0
M  V30 1343 H 129.198 1.39947 -1.3565 0
M  V30 1344 H 128.294 2.91001 -1.12804 0
M  V30 1345 N 128.595 0.856903 1.32268 0
M  V30 1346 C 129.842 0.461386 1.97174 0
M  V30 1347 C 130.17 -0.983491 1.67803 0
M  V30 1348 O 129.425 -1.70541 0.959903 0
M  V30 1349 C 129.724 0.649919 3.51441 0
M  V30 1350 C 129.39 2.0656 4.00804 0
M  V30 1351 C 128.052 2.45279 4.13995 0
M  V30 1352 C 130.404 2.98947 4.26943 0
M  V30 1353 C 127.732 3.75653 4.50668 0
M  V30 1354 C 130.084 4.28822 4.65075 0
M  V30 1355 C 128.748 4.67472 4.76472 0
M  V30 1356 H 128.018 0.168833 0.72151 0
M  V30 1357 H 130.665 1.08739 1.57633 0
M  V30 1358 H 128.97 -0.0593018 3.91755 0
M  V30 1359 H 130.667 0.32391 3.9969 0
M  V30 1360 H 127.257 1.75495 3.91024 0
M  V30 1361 H 131.441 2.70265 4.16258 0
M  V30 1362 H 126.697 4.05379 4.57688 0
M  V30 1363 H 130.871 5.0047 4.84255 0
M  V30 1364 H 128.498 5.68539 5.04646 0
M  V30 1365 N 130.073 -1.45103 0.615059 0
M  V30 1366 C 131.35 -1.95549 0.0448276 0
M  V30 1367 C 131.73 -1.55737 -1.4251 0
M  V30 1368 O 131.078 -0.823556 -2.13143 0
M  V30 1369 C 131.288 -3.48098 0.250785 0
M  V30 1370 C 132.636 -4.24384 0.135509 0
M  V30 1371 O 133.66 -3.55738 0.181299 0
M  V30 1372 O 132.519 -5.46493 0.0268878 0
M  V30 1373 H 129.613 -0.8264 -0.0314845 0
M  V30 1374 H 132.159 -1.55232 0.685642 0
M  V30 1375 H 130.931 -3.7007 1.27139 0
M  V30 1376 H 130.554 -3.95323 -0.424937 0
M  V30 1377 N 131.551 -0.354651 -1.53558 0
M  V30 1378 C 132.514 0.484566 -2.24019 0
M  V30 1379 C 133.514 1.01861 -1.24422 0
M  V30 1380 O 134.704 0.906097 -1.4878 0
M  V30 1381 C 131.836 1.67615 -2.96847 0
M  V30 1382 H 133.029 -0.131843 -2.9961 0
M  V30 1383 H 130.582 -0.106165 -1.55939 0
M  V30 1384 H 131.317 2.33095 -2.25471 0
M  V30 1385 H 131.102 1.30029 -3.69912 0
M  V30 1386 H 132.592 2.27114 -3.50441 0
M  V30 1387 N 133.029 1.57378 -0.0835403 0
M  V30 1388 C 134.275 1.94217 0.583733 0
M  V30 1389 C 134.608 0.964653 1.68547 0
M  V30 1390 O 133.883 -0.00422258 1.945 0
M  V30 1391 C 134.166 3.41253 1.14972 0
M  V30 1392 C 134.019 4.49768 0.0538277 0
M  V30 1393 C 135.338 3.89352 2.05166 0
M  V30 1394 H 132.457 0.706233 0.210724 0
M  V30 1395 H 135.099 1.89392 -0.1519 0
M  V30 1396 H 133.249 3.45496 1.77665 0
M  V30 1397 H 134.921 4.57641 -0.579851 0
M  V30 1398 H 133.164 4.29432 -0.614068 0
M  V30 1399 H 133.835 5.49817 0.490452 0
M  V30 1400 H 136.311 3.87189 1.52393 0
M  V30 1401 H 135.187 4.92822 2.41698 0
M  V30 1402 H 135.448 3.27973 2.96456 0
M  V30 1403 N 134.507 -0.190092 1.56449 0
M  V30 1404 C 135.735 -0.925772 1.85033 0
M  V30 1405 C 136.15 -1.76638 0.666658 0
M  V30 1406 O 135.507 -1.78822 -0.364565 0
M  V30 1407 C 135.558 -1.81786 3.12468 0
M  V30 1408 O 135.279 -1.01118 4.26271 0
M  V30 1409 C 136.78 -2.6648 3.54265 0
M  V30 1410 H 134 -0.269872 0.614337 0
M  V30 1411 H 136.544 -0.195837 2.0356 0
M  V30 1412 H 134.699 -2.50136 2.95822 0
M  V30 1413 H 135.113 -1.61956 4.98869 0
M  V30 1414 H 136.587 -3.24722 4.46385 0
M  V30 1415 H 137.064 -3.40434 2.77491 0
M  V30 1416 H 137.67 -2.03493 3.73458 0
M  V30 1417 N 135.985 -1.50799 -0.457987 0
M  V30 1418 C 137.233 -1.62121 -1.2067 0
M  V30 1419 C 137.554 -0.329793 -1.92191 0
M  V30 1420 O 136.824 0.653409 -1.84682 0
M  V30 1421 H 135.404 -0.597441 -0.448411 0
M  V30 1422 H 138.066 -1.87637 -0.527096 0
M  V30 1423 H 137.162 -2.43882 -1.94751 0
M  V30 1424 N 137.463 0.71206 -1.40597 0
M  V30 1425 C 138.373 1.8562 -1.43466 0
M  V30 1426 C 139.389 1.70902 -0.326902 0
M  V30 1427 O 140.565 1.93105 -0.572043 0
M  V30 1428 C 137.63 3.21451 -1.29884 0
M  V30 1429 C 136.691 3.48398 -2.50833 0
M  V30 1430 C 135.924 4.77749 -2.3789 0
M  V30 1431 O 136.147 5.53089 -1.39459 0
M  V30 1432 O 135.081 5.05111 -3.27333 0
M  V30 1433 H 138.907 1.86155 -2.39958 0
M  V30 1434 H 136.492 0.86295 -1.21957 0
M  V30 1435 H 138.374 4.02579 -1.24531 0
M  V30 1436 H 137.049 3.21636 -0.364997 0
M  V30 1437 H 135.956 2.67265 -2.61763 0
M  V30 1438 H 137.289 3.53014 -3.4299 0
M  V30 1439 N 138.941 1.26152 0.944643 0
M  V30 1440 C 140.188 1.11492 1.69044 0
M  V30 1441 C 140.516 -0.342366 1.91463 0
M  V30 1442 O 139.771 -1.26812 1.49054 0
M  V30 1443 C 140.07 1.82541 3.07268 0
M  V30 1444 C 139.736 3.32445 3.04616 0
M  V30 1445 C 138.398 3.73337 3.036 0
M  V30 1446 C 140.75 4.28171 2.97185 0
M  V30 1447 C 138.078 5.08348 2.92915 0
M  V30 1448 C 140.43 5.63218 2.88041 0
M  V30 1449 C 139.094 6.03426 2.85366 0
M  V30 1450 H 138.364 0.407977 0.618576 0
M  V30 1451 H 141.011 1.56551 1.10291 0
M  V30 1452 H 139.316 1.29941 3.69625 0
M  V30 1453 H 141.013 1.68642 3.63815 0
M  V30 1454 H 137.603 2.99915 3.06185 0
M  V30 1455 H 141.787 3.97563 2.97081 0
M  V30 1456 H 137.043 5.38667 2.89219 0
M  V30 1457 H 141.217 6.37078 2.81254 0
M  V30 1458 H 138.844 7.07999 2.76842 0
M  V30 1459 N 140.419 -1.14872 1.07899 0
M  V30 1460 C 141.647 -1.89661 0.82683 0
M  V30 1461 C 142.062 -1.78312 -0.620519 0
M  V30 1462 O 141.419 -1.13888 -1.42604 0
M  V30 1463 C 141.47 -3.39817 1.23316 0
M  V30 1464 O 141.191 -3.50845 2.62372 0
M  V30 1465 C 142.692 -4.31615 1.0111 0
M  V30 1466 H 139.912 -0.60092 0.298557 0
M  V30 1467 H 142.456 -1.4551 1.43691 0
M  V30 1468 H 140.611 -3.8161 0.667286 0
M  V30 1469 H 141.025 -4.44076 2.79101 0
M  V30 1470 H 142.499 -5.35367 1.34486 0
M  V30 1471 H 142.976 -4.39169 -0.0522168 0
M  V30 1472 H 143.582 -3.95572 1.56215 0
M  V30 1473 N 141.898 -0.863906 -1.31812 0
M  V30 1474 C 143.146 -0.470904 -1.96537 0
M  V30 1475 C 143.467 0.978771 -1.68657 0
M  V30 1476 O 142.737 1.6853 -0.998717 0
M  V30 1477 H 141.317 -0.171148 -0.72713 0
M  V30 1478 H 143.979 -1.10236 -1.60729 0
M  V30 1479 H 143.075 -0.623616 -3.05806 0
M  V30 1480 N 143.376 1.44774 -0.622745 0
M  V30 1481 C 144.309 2.27792 0.136329 0
M  V30 1482 C 145.287 1.38041 0.859264 0
M  V30 1483 O 146.471 1.67478 0.86506 0
M  V30 1484 C 143.598 3.16776 1.19878 0
M  V30 1485 C 142.644 4.22575 0.57731 0
M  V30 1486 S 143.477 5.31825 -0.626294 0
M  V30 1487 C 144.633 6.24377 0.436378 0
M  V30 1488 H 144.866 2.91824 -0.567967 0
M  V30 1489 H 142.399 1.48838 -0.410677 0
M  V30 1490 H 144.357 3.68596 1.80686 0
M  V30 1491 H 143.018 2.5198 1.87523 0
M  V30 1492 H 142.211 4.84818 1.37721 0
M  V30 1493 H 141.813 3.73974 0.0440439 0
M  V30 1494 H 144.105 6.64689 1.31128 0
M  V30 1495 H 145.048 7.07941 -0.150271 0
M  V30 1496 H 145.456 5.59381 0.758513 0
M  V30 1497 N 144.854 0.36279 1.53368 0
M  V30 1498 C 146.265 -0.117022 1.86333 0
M  V30 1499 C 146.616 -1.48397 1.28347 0
M  V30 1500 O 145.741 -2.07787 0.604428 0
M  V30 1501 C 146.336 -0.21912 3.38091 0
M  V30 1502 C 144.895 -0.643184 3.70864 0
M  V30 1503 C 144.042 0.211318 2.76494 0
M  V30 1504 H 146.993 0.581687 1.47655 0
M  V30 1505 H 147.014 -1.04319 3.6592 0
M  V30 1506 H 146.526 0.775902 3.80265 0
M  V30 1507 H 144.627 -1.64654 3.34245 0
M  V30 1508 H 144.74 -0.41973 4.77258 0
M  V30 1509 H 143.104 -0.319367 2.5269 0
M  V30 1510 H 143.887 1.20383 3.21501 0
M  V30 1511 N 146.332 -1.57332 0.0918853 0
M  V30 1512 C 147.242 -2.17368 -0.882505 0
M  V30 1513 C 148.258 -1.14226 -1.31257 0
M  V30 1514 O 149.434 -1.46582 -1.38115 0
M  V30 1515 C 146.499 -2.73962 -2.12476 0
M  V30 1516 C 145.56 -3.92048 -1.7492 0
M  V30 1517 C 144.793 -4.45933 -2.93223 0
M  V30 1518 O 145.016 -3.98764 -4.07852 0
M  V30 1519 O 143.95 -5.36999 -2.71875 0
M  V30 1520 H 147.776 -3.01031 -0.40172 0
M  V30 1521 H 145.361 -1.48813 -0.132291 0
M  V30 1522 H 147.243 -3.10147 -2.85283 0
M  V30 1523 H 145.918 -1.93347 -2.59613 0
M  V30 1524 H 144.825 -3.6068 -0.993025 0
M  V30 1525 H 146.158 -4.74017 -1.32548 0
M  V30 1526 N 147.81 0.181792 -1.56548 0
M  V30 1527 C 148.742 1.24956 -1.92142 0
M  V30 1528 C 149.755 1.41022 -0.813422 0
M  V30 1529 O 150.944 1.41212 -1.09186 0
M  V30 1530 C 148.044 2.61981 -2.14987 0
M  V30 1531 C 147.217 2.6735 -3.46183 0
M  V30 1532 C 146.276 3.85664 -3.5798 0
M  V30 1533 O 145.302 3.72148 -4.30691 0
M  V30 1534 N 146.504 5.01683 -2.92053 0
M  V30 1535 H 149.269 0.947329 -2.84334 0
M  V30 1536 H 146.83 0.371629 -1.57577 0
M  V30 1537 H 148.822 3.3958 -2.20154 0
M  V30 1538 H 147.392 2.84637 -1.2923 0
M  V30 1539 H 146.612 1.75925 -3.52766 0
M  V30 1540 H 147.9 2.67939 -4.32534 0
M  V30 1541 H 147.298 5.15564 -2.32832 0
M  V30 1542 H 145.855 5.77181 -3.0283 0
M  V30 1543 N 149.288 1.51039 0.449983 0
M  V30 1544 C 150.534 1.64287 1.19923 0
M  V30 1545 C 150.889 0.348701 1.89214 0
M  V30 1546 O 150.182 -0.654751 1.80065 0
M  V30 1547 C 150.376 2.77556 2.25161 0
M  V30 1548 C 150.205 4.17862 1.66198 0
M  V30 1549 C 148.975 4.83976 1.45243 0
M  V30 1550 C 151.173 5.01388 1.14519 0
M  V30 1551 N 149.155 6.08433 0.817437 0
M  V30 1552 C 150.526 6.16743 0.634705 0
M  V30 1553 C 152.581 4.87008 1.03574 0
M  V30 1554 C 151.284 7.19295 0.0255452 0
M  V30 1555 C 153.31 5.89757 0.440489 0
M  V30 1556 C 152.672 7.04375 -0.0595112 0
M  V30 1557 H 148.771 0.655161 0.426952 0
M  V30 1558 H 151.355 1.88228 0.49781 0
M  V30 1559 H 149.526 2.553 2.92706 0
M  V30 1560 H 151.258 2.80049 2.92155 0
M  V30 1561 H 148.013 4.41627 1.71063 0
M  V30 1562 H 148.437 6.75017 0.517747 0
M  V30 1563 H 153.079 3.9866 1.4082 0
M  V30 1564 H 150.797 8.07302 -0.359071 0
M  V30 1565 H 154.383 5.80698 0.35788 0
M  V30 1566 H 153.263 7.82521 -0.512882 0
M  V30 1567 N 150.766 -0.704594 1.40972 0
M  V30 1568 C 151.729 -1.80035 1.41845 0
M  V30 1569 C 152.729 -1.57774 0.310474 0
M  V30 1570 O 153.919 -1.64613 0.56992 0
M  V30 1571 C 151.051 -3.18284 1.22098 0
M  V30 1572 H 152.244 -1.80658 2.3938 0
M  V30 1573 H 149.797 -0.911329 1.26982 0
M  V30 1574 H 150.532 -3.23306 0.253672 0
M  V30 1575 H 150.317 -3.35843 2.02366 0
M  V30 1576 H 151.807 -3.98289 1.25522 0
M  V30 1577 N 152.244 -1.26651 -0.937939 0
M  V30 1578 C 153.66 -1.03834 -1.21205 0
M  V30 1579 C 153.86 0.234502 -2.00131 0
M  V30 1580 O 152.916 0.942767 -2.3424 0
M  V30 1581 C 154.229 -2.27167 -1.97017 0
M  V30 1582 C 155.777 -2.32101 -2.09996 0
M  V30 1583 C 156.252 -3.55136 -2.8921 0
M  V30 1584 N 157.743 -3.55632 -2.96783 0
M  V30 1585 C 158.478 -4.475 -3.58512 0
M  V30 1586 N 157.974 -5.4966 -4.21717 0
M  V30 1587 N 159.767 -4.35145 -3.55816 0
M  V30 1588 H 151.918 -2.08398 -0.410391 0
M  V30 1589 H 154.181 -0.916031 -0.244114 0
M  V30 1590 H 153.887 -3.19765 -1.46434 0
M  V30 1591 H 153.761 -2.31672 -2.97671 0
M  V30 1592 H 156.148 -1.40015 -2.59769 0
M  V30 1593 H 156.229 -2.31605 -1.08594 0
M  V30 1594 H 155.873 -4.47553 -2.40123 0
M  V30 1595 H 155.803 -3.5288 -3.90875 0
M  V30 1596 H 158.294 -2.81743 -2.51852 0
M  V30 1597 H 158.607 -6.15943 -4.66727 0
M  V30 1598 H 156.952 -5.53514 -4.20294 0
M  V30 1599 H 160.143 -3.5455 -3.05634 0
M  V30 1600 H 160.316 -5.06934 -4.03636 0
M  V30 1601 N 153.722 1.14298 -1.08507 0
M  V30 1602 C 154.652 2.21542 -0.737646 0
M  V30 1603 C 155.633 1.67773 0.280377 0
M  V30 1604 O 156.818 1.93616 0.150521 0
M  V30 1605 C 153.948 3.46988 -0.147259 0
M  V30 1606 C 152.902 4.13789 -1.09374 0
M  V30 1607 C 152.228 5.33449 -0.365524 0
M  V30 1608 C 153.528 4.62208 -2.4323 0
M  V30 1609 H 155.222 2.5086 -1.6343 0
M  V30 1610 H 152.768 1.20576 -0.787243 0
M  V30 1611 H 154.721 4.21262 0.107808 0
M  V30 1612 H 153.445 3.17037 0.784538 0
M  V30 1613 H 152.104 3.4147 -1.33393 0
M  V30 1614 H 151.752 4.99759 0.57011 0
M  V30 1615 H 151.452 5.79088 -0.996512 0
M  V30 1616 H 152.976 6.10485 -0.118534 0
M  V30 1617 H 154.39 5.27952 -2.23472 0
M  V30 1618 H 152.787 5.18553 -3.02031 0
M  V30 1619 H 153.857 3.77224 -3.04681 0
M  V30 1620 N 155.201 0.870884 1.31352 0
M  V30 1621 C 156.131 0.343096 2.30966 0
M  V30 1622 C 157.112 -0.566507 1.60389 0
M  V30 1623 O 158.297 -0.483336 1.88089 0
M  V30 1624 C 155.427 -0.455487 3.443 0
M  V30 1625 C 154.381 0.361103 4.26474 0
M  V30 1626 C 153.707 -0.563221 5.31725 0
M  V30 1627 C 155.007 1.59566 4.97329 0
M  V30 1628 H 156.701 1.17548 2.75359 0
M  V30 1629 H 154.247 0.566686 1.32381 0
M  V30 1630 H 156.2 -0.83525 4.13039 0
M  V30 1631 H 154.924 -1.32139 2.98675 0
M  V30 1632 H 153.583 0.722825 3.59403 0
M  V30 1633 H 153.231 -1.42643 4.82351 0
M  V30 1634 H 152.931 -0.0207409 5.87596 0
M  V30 1635 H 154.455 -0.939808 6.03324 0
M  V30 1636 H 155.869 1.28728 5.58661 0
M  V30 1637 H 154.266 2.07728 5.63 0
M  V30 1638 H 155.336 2.34798 4.24262 0
M  V30 1639 N 156.679 -1.44442 0.630414 0
M  V30 1640 C 157.611 -2.2892 -0.113347 0
M  V30 1641 C 158.624 -1.41243 -0.80959 0
M  V30 1642 O 159.813 -1.65402 -0.671156 0
M  V30 1643 C 156.913 -3.17594 -1.18266 0
M  V30 1644 C 156.086 -4.33682 -0.569073 0
M  V30 1645 C 155.145 -5.03397 -1.53226 0
M  V30 1646 O 154.171 -5.59438 -1.04967 0
M  V30 1647 N 155.373 -5.04783 -2.86661 0
M  V30 1648 H 158.138 -2.93392 0.611636 0
M  V30 1649 H 155.699 -1.54881 0.471523 0
M  V30 1650 H 157.691 -3.61097 -1.82732 0
M  V30 1651 H 156.261 -2.54876 -1.80988 0
M  V30 1652 H 155.481 -3.9338 0.254187 0
M  V30 1653 H 156.769 -5.08608 -0.139767 0
M  V30 1654 H 156.167 -4.60584 -3.28449 0
M  V30 1655 H 154.724 -5.52077 -3.46489 0
M  V30 1656 N 158.157 -0.370918 -1.53173 0
M  V30 1657 C 159.385 0.217704 -2.05751 0
M  V30 1658 C 159.8 1.42018 -1.24404 0
M  V30 1659 O 159.157 1.80245 -0.286033 0
M  V30 1660 C 159.208 0.605954 -3.56385 0
M  V30 1661 O 158.929 -0.548734 -4.3465 0
M  V30 1662 C 160.43 1.2524 -4.25241 0
M  V30 1663 H 157.65 0.0371659 -0.66997 0
M  V30 1664 H 160.194 -0.530832 -1.9749 0
M  V30 1665 H 158.349 1.3044 -3.6478 0
M  V30 1666 H 158.763 -0.23376 -5.23979 0
M  V30 1667 H 160.237 1.47458 -5.3194 0
M  V30 1668 H 160.714 2.2143 -3.79296 0
M  V30 1669 H 161.32 0.595233 -4.21114 0
M  V30 1670 N 159.635 1.57281 -0.100228 0
M  V30 1671 C 160.86 1.99302 0.573881 0
M  V30 1672 C 161.285 0.979059 1.60611 0
M  V30 1673 O 160.643 -0.0517803 1.81226 0
M  V30 1674 C 160.691 3.40274 1.19358 0
M  V30 1675 O 159.795 3.41676 2.30935 0
M  V30 1676 H 159.136 0.647944 0.145138 0
M  V30 1677 H 161.666 2.03779 -0.183156 0
M  V30 1678 H 161.676 3.78078 1.53365 0
M  V30 1679 H 160.351 4.13594 0.437385 0
M  V30 1680 H 158.928 3.15672 1.98509 0
M  V30 1681 N 161.113 -0.173488 1.56642 0
M  V30 1682 C 162.061 -1.23417 1.97157 0
M  V30 1683 C 163.055 -1.45946 0.860013 0
M  V30 1684 O 164.261 -1.46551 1.04512 0
M  V30 1685 H 160.636 -0.414818 0.62724 0
M  V30 1686 H 162.607 -0.865582 2.8557 0
M  V30 1687 C 161.356 -2.5665 2.34576 0
M  V30 1688 H 160.679 -2.40137 3.19647 0
M  V30 1689 H 162.119 -3.2956 2.6677 0
M  V30 1690 C 160.578 -3.15245 1.18836 0
M  V30 1691 O 161.108 -3.98883 0.474869 0
M  V30 1692 N 159.314 -2.74303 0.959497 0
M  V30 1693 H 158.861 -2.0639 1.54146 0
M  V30 1694 H 158.819 -3.13844 0.186932 0
M  V30 1695 N 162.591 -1.51276 -0.441967 0
M  V30 1696 C 163.84 -1.6295 -1.18871 0
M  V30 1697 C 164.153 -0.349312 -1.92456 0
M  V30 1698 O 165.359 -0.345355 -2.69295 0
M  V30 1699 C 163.815 -2.87759 -2.16155 0
M  V30 1700 C 163.423 -4.22764 -1.48239 0
M  V30 1701 C 165.167 -3.08788 -2.91291 0
M  V30 1702 C 163.074 -5.38728 -2.4398 0
M  V30 1703 H 162.004 -0.606913 -0.447406 0
M  V30 1704 H 164.655 -1.77739 -0.456205 0
M  V30 1705 H 163.037 -2.66593 -2.92821 0
M  V30 1706 H 164.211 -4.54293 -0.771635 0
M  V30 1707 H 162.526 -4.07575 -0.852741 0
M  V30 1708 H 165.123 -3.92599 -3.63002 0
M  V30 1709 H 165.466 -2.21679 -3.5237 0
M  V30 1710 H 165.999 -3.30272 -2.21733 0
M  V30 1711 H 162.738 -6.28082 -1.87598 0
M  V30 1712 H 162.258 -5.1158 -3.13123 0
M  V30 1713 H 163.937 -5.70489 -3.05207 0
M  V30 1714 N 164.069 0.697108 -1.41344 0
M  V30 1715 C 165.297 1.48593 -1.43972 0
M  V30 1716 C 165.712 1.88747 -0.0445612 0
M  V30 1717 O 165.069 1.56682 0.935785 0
M  V30 1718 C 165.12 2.74946 -2.34706 0
M  V30 1719 O 164.841 2.36484 -3.68791 0
M  V30 1720 C 166.342 3.687 -2.46121 0
M  V30 1721 H 163.562 0.457964 -0.490418 0
M  V30 1722 H 166.106 0.858429 -1.8561 0
M  V30 1723 H 164.261 3.33937 -1.9638 0
M  V30 1724 H 164.675 3.17918 -4.17167 0
M  V30 1725 H 166.149 4.54145 -3.13777 0
M  V30 1726 H 166.626 4.13081 -1.49199 0
M  V30 1727 H 167.232 3.15613 -2.85076 0
M  V30 1728 N 165.547 1.27147 0.931209 0
M  V30 1729 C 166.494 1.09568 2.03134 0
M  V30 1730 C 167.464 -0.00222433 1.661 0
M  V30 1731 O 168.649 0.159439 1.90133 0
M  V30 1732 C 165.789 0.745231 3.36957 0
M  V30 1733 C 164.902 1.92041 3.86968 0
M  V30 1734 C 164.037 1.51216 5.09222 0
M  V30 1735 C 163.076 2.65504 5.5152 0
M  V30 1736 N 162.213 2.25291 6.64972 0
M  V30 1737 H 167.053 2.03708 2.17502 0
M  V30 1738 H 164.59 1.01411 1.06556 0
M  V30 1739 H 166.548 0.522878 4.1391 0
M  V30 1740 H 165.178 -0.159202 3.22407 0
M  V30 1741 H 164.23 2.25541 3.06326 0
M  V30 1742 H 165.542 2.77787 4.1429 0
M  V30 1743 H 164.696 1.25084 5.93666 0
M  V30 1744 H 163.435 0.625749 4.83669 0
M  V30 1745 H 162.44 2.92354 4.65628 0
M  V30 1746 H 163.665 3.54761 5.7907 0
M  V30 1747 H 161.611 1.39098 6.41083 0
M  V30 1748 H 161.528 3.04577 6.91931 0
M  V30 1749 H 162.796 2.02398 7.52765 0
M  V30 1750 N 167.025 -1.13721 1.09112 0
M  V30 1751 C 167.955 -2.21148 0.749385 0
M  V30 1752 C 168.936 -1.6792 -0.271475 0
M  V30 1753 O 170.121 -1.93693 -0.140251 0
M  V30 1754 C 167.251 -3.46905 0.165659 0
M  V30 1755 C 166.205 -4.13203 1.11567 0
M  V30 1756 C 165.531 -5.33248 0.393809 0
M  V30 1757 C 166.831 -4.60912 2.45678 0
M  V30 1758 H 168.525 -2.4999 1.64758 0
M  V30 1759 H 166.071 -1.20156 0.793626 0
M  V30 1760 H 168.024 -4.21313 -0.085466 0
M  V30 1761 H 166.748 -3.17449 -0.767714 0
M  V30 1762 H 165.407 -3.40758 1.35202 0
M  V30 1763 H 165.055 -5.00054 -0.543599 0
M  V30 1764 H 164.755 -5.78552 1.02721 0
M  V30 1765 H 166.279 -6.10413 0.150908 0
M  V30 1766 H 167.693 -5.26759 2.26269 0
M  V30 1767 H 166.09 -5.16944 3.04776 0
M  V30 1768 H 167.16 -3.75603 3.06677 0
M  V30 1769 N 168.503 -0.877838 -1.30888 0
M  V30 1770 C 169.413 -0.343096 -2.32078 0
M  V30 1771 C 170.429 0.551022 -1.65045 0
M  V30 1772 O 171.605 0.445854 -1.96403 0
M  V30 1773 C 168.67 0.439905 -3.43898 0
M  V30 1774 C 167.731 -0.483111 -4.26573 0
M  V30 1775 C 166.964 0.262616 -5.33053 0
M  V30 1776 O 167.187 1.48967 -5.50604 0
M  V30 1777 O 166.121 -0.383593 -6.00676 0
M  V30 1778 H 169.947 -1.18203 -2.79753 0
M  V30 1779 H 167.532 -0.64145 -1.34929 0
M  V30 1780 H 169.414 0.883504 -4.12034 0
M  V30 1781 H 168.089 1.25526 -2.98371 0
M  V30 1782 H 166.996 -0.975374 -3.61161 0
M  V30 1783 H 168.329 -1.26427 -4.75686 0
M  V30 1784 N 169.982 1.44106 -0.638065 0
M  V30 1785 C 170.914 2.28976 0.101205 0
M  V30 1786 C 171.927 1.4167 0.802088 0
M  V30 1787 O 173.116 1.65755 0.662375 0
M  V30 1788 C 170.216 3.18217 1.16581 0
M  V30 1789 C 169.389 4.33978 0.546066 0
M  V30 1790 C 168.448 5.04202 1.50554 0
M  V30 1791 O 167.474 5.59986 1.01999 0
M  V30 1792 N 168.676 5.06296 2.8398 0
M  V30 1793 H 171.441 2.93064 -0.627186 0
M  V30 1794 H 169.002 1.54629 -0.479731 0
M  V30 1795 H 170.994 3.62061 1.80815 0
M  V30 1796 H 169.564 2.55833 1.79634 0
M  V30 1797 H 168.784 3.93239 -0.275046 0
M  V30 1798 H 170.072 5.08675 0.112793 0
M  V30 1799 H 169.47 4.62319 3.26002 0
M  V30 1800 H 168.027 5.53907 3.43556 0
M  V30 1801 N 171.46 0.379036 1.52974 0
M  V30 1802 C 172.407 -0.461048 2.26148 0
M  V30 1803 C 173.377 -1.06637 1.27349 0
M  V30 1804 O 174.562 -1.09633 1.56157 0
M  V30 1805 C 171.702 -1.58782 3.06402 0
M  V30 1806 C 170.815 -1.00636 4.20115 0
M  V30 1807 C 169.95 -2.10334 4.87784 0
M  V30 1808 C 168.989 -1.49724 5.93506 0
M  V30 1809 N 168.126 -2.5331 6.54812 0
M  V30 1810 H 172.966 0.169429 2.97518 0
M  V30 1811 H 170.503 0.0953806 1.4679 0
M  V30 1812 H 172.461 -2.25174 3.51215 0
M  V30 1813 H 171.091 -2.18876 2.37261 0
M  V30 1814 H 170.143 -0.232332 3.7969 0
M  V30 1815 H 171.455 -0.523343 4.96047 0
M  V30 1816 H 170.609 -2.84519 5.35849 0
M  V30 1817 H 169.348 -2.61992 4.11353 0
M  V30 1818 H 168.353 -0.740598 5.44789 0
M  V30 1819 H 169.578 -0.988732 6.71864 0
M  V30 1820 H 167.524 -3.04156 5.81227 0
M  V30 1821 H 167.441 -2.09734 7.26325 0
M  V30 1822 H 168.709 -3.27155 7.07524 0
M  V30 1823 N 172.938 -1.57226 0.108567 0
M  V30 1824 C 173.885 -2.14756 -0.845481 0
M  V30 1825 C 174.855 -1.06971 -1.27068 0
M  V30 1826 O 176.04 -1.34827 -1.35005 0
M  V30 1827 C 173.18 -2.74298 -2.09415 0
M  V30 1828 C 172.293 -3.96358 -1.71826 0
M  V30 1829 C 171.428 -4.44021 -2.9158 0
M  V30 1830 C 170.467 -5.58637 -2.50181 0
M  V30 1831 N 169.604 -6.01091 -3.62814 0
M  V30 1832 H 174.444 -2.95961 -0.348035 0
M  V30 1833 H 171.981 -1.46226 -0.160106 0
M  V30 1834 H 173.939 -3.06945 -2.82561 0
M  V30 1835 H 172.569 -1.95801 -2.56636 0
M  V30 1836 H 171.621 -3.69939 -0.885947 0
M  V30 1837 H 172.933 -4.79504 -1.37394 0
M  V30 1838 H 172.087 -4.78522 -3.72963 0
M  V30 1839 H 170.826 -3.59803 -3.29231 0
M  V30 1840 H 169.831 -5.23751 -1.67228 0
M  V30 1841 H 171.056 -6.44613 -2.13659 0
M  V30 1842 H 169.002 -5.19817 -4.00158 0
M  V30 1843 H 168.919 -6.79066 -3.32273 0
M  V30 1844 H 170.187 -6.40227 -4.44668 0
M  V30 1845 N 174.416 0.165178 -1.56732 0
M  V30 1846 C 175.364 1.22369 -1.97809 0
M  V30 1847 C 176.358 1.45488 -0.867741 0
M  V30 1848 O 177.564 1.45995 -1.05288 0
M  V30 1849 H 173.939 0.411486 -0.629431 0
M  V30 1850 H 175.91 0.850425 -2.86025 0
M  V30 1851 C 174.659 2.55403 -2.35934 0
M  V30 1852 H 173.982 2.38438 -3.20916 0
M  V30 1853 H 175.422 3.2814 -2.68514 0
M  V30 1854 C 173.881 3.14611 -1.20506 0
M  V30 1855 O 174.411 3.98626 -0.496016 0
M  V30 1856 N 172.617 2.7379 -0.97403 0
M  V30 1857 H 172.164 2.0557 -1.55238 0
M  V30 1858 H 172.122 3.1374 -0.203573 0
M  V30 1859 N 175.894 1.51508 0.433938 0
M  V30 1860 C 177.305 1.56784 1.01369 0
M  V30 1861 C 177.656 0.393349 1.92217 0
M  V30 1862 O 176.781 -0.489441 2.10792 0
M  V30 1863 C 177.376 2.84144 1.8452 0
M  V30 1864 C 175.935 2.9198 2.37539 0
M  V30 1865 C 175.082 2.51482 1.16843 0
M  V30 1866 H 178.033 1.57236 0.215081 0
M  V30 1867 H 178.054 2.68098 2.70007 0
M  V30 1868 H 177.566 3.69607 1.18373 0
M  V30 1869 H 175.667 2.10955 3.0713 0
M  V30 1870 H 175.78 3.95704 2.70103 0
M  V30 1871 H 174.144 2.04758 1.51481 0
M  V30 1872 H 174.927 3.39293 0.523015 0
M  V30 1873 N 177.372 -0.689602 1.41712 0
M  V30 1874 C 178.304 -1.815 1.39966 0
M  V30 1875 C 179.317 -1.59995 0.300917 0
M  V30 1876 O 180.506 -1.69387 0.563039 0
M  V30 1877 C 177.606 -3.18364 1.16179 0
M  V30 1878 C 176.779 -3.66847 2.38206 0
M  V30 1879 C 175.838 -4.82398 2.10186 0
M  V30 1880 O 174.864 -4.93706 2.83272 0
M  V30 1881 N 176.066 -5.70064 1.0958 0
M  V30 1882 H 178.831 -1.83488 2.36965 0
M  V30 1883 H 176.392 -0.872149 1.36401 0
M  V30 1884 H 178.384 -3.93301 0.953756 0
M  V30 1885 H 176.954 -3.11365 0.27756 0
M  V30 1886 H 176.174 -2.82751 2.74673 0
M  V30 1887 H 177.462 -3.95978 3.19498 0
M  V30 1888 H 176.86 -5.63565 0.491019 0
M  V30 1889 H 175.417 -6.44874 0.947656 0
M  V30 1890 N 178.85 -1.27639 -0.924453 0
M  V30 1891 C 179.813 -1.10681 -2.00705 0
M  V30 1892 C 180.813 -0.0497823 -1.60723 0
M  V30 1893 O 182.003 -0.294654 -1.7169 0
M  V30 1894 C 179.135 -0.687164 -3.33902 0
M  V30 1895 H 180.328 -2.06817 -2.17179 0
M  V30 1896 H 177.881 -1.10473 -1.10569 0
M  V30 1897 H 178.616 0.275439 -3.23128 0
M  V30 1898 H 178.401 -1.45061 -3.6428 0
M  V30 1899 H 179.891 -0.590853 -4.13399 0
M  V30 1900 N 180.328 1.1314 -1.09713 0
M  V30 1901 C 181.574 1.84757 -0.836224 0
M  V30 1902 C 181.907 1.8347 0.636598 0
M  V30 1903 O 181.182 1.27491 1.46889 0
M  V30 1904 C 181.465 3.32782 -1.37578 0
M  V30 1905 C 181.318 3.42567 -2.91493 0
M  V30 1906 C 182.637 4.28307 -1.01198 0
M  V30 1907 H 179.756 0.67082 -0.305236 0
M  V30 1908 H 182.398 1.3278 -1.35903 0
M  V30 1909 H 180.548 3.77177 -0.931097 0
M  V30 1910 H 182.22 3.06862 -3.44432 0
M  V30 1911 H 180.463 2.83349 -3.28475 0
M  V30 1912 H 181.134 4.46674 -3.24324 0
M  V30 1913 H 183.61 3.91999 -1.39556 0
M  V30 1914 H 182.486 5.30307 -1.41653 0
M  V30 1915 H 182.747 4.42029 0.0794833 0
M  V30 1916 N 181.806 0.884767 1.30421 0
M  V30 1917 C 182.736 0.367574 2.30589 0
M  V30 1918 C 183.717 -0.549464 1.60981 0
M  V30 1919 O 184.902 -0.46336 1.88591 0
M  V30 1920 C 182.032 -0.418944 3.44764 0
M  V30 1921 C 180.986 0.406316 4.26067 0
M  V30 1922 C 180.312 -0.506793 5.32293 0
M  V30 1923 C 181.612 1.64832 4.95608 0
M  V30 1924 H 183.306 1.20462 2.74097 0
M  V30 1925 H 180.852 0.580695 1.31772 0
M  V30 1926 H 182.805 -0.791395 4.13902 0
M  V30 1927 H 181.529 -1.28964 3.0006 0
M  V30 1928 H 180.188 0.760903 3.58617 0
M  V30 1929 H 179.836 -1.37519 4.83836 0
M  V30 1930 H 179.536 0.0415828 5.87585 0
M  V30 1931 H 181.06 -0.875764 6.04287 0
M  V30 1932 H 182.474 1.34646 5.57264 0
M  V30 1933 H 180.871 2.13688 5.60765 0
M  V30 1934 H 181.941 2.39284 4.21748 0
M  V30 1935 N 183.284 -1.43765 0.645699 0
M  V30 1936 C 184.561 -1.9541 0.0862963 0
M  V30 1937 C 184.941 -1.58725 -1.39175 0
M  V30 1938 O 184.289 -0.868581 -2.11348 0
M  V30 1939 C 184.499 -3.47488 0.324565 0
M  V30 1940 C 185.847 -4.24001 0.225497 0
M  V30 1941 O 186.871 -3.55274 0.256715 0
M  V30 1942 O 185.73 -5.46313 0.142801 0
M  V30 1943 H 182.824 -0.826882 -0.0139483 0
M  V30 1944 H 185.37 -1.53743 0.718415 0
M  V30 1945 H 184.142 -3.67289 1.3496 0
M  V30 1946 H 183.765 -3.96135 -0.340987 0
M  V30 1947 N 184.763 -0.387143 -1.52771 0
M  V30 1948 C 186.009 0.196025 -2.0185 0
M  V30 1949 C 186.342 1.46641 -1.27319 0
M  V30 1950 O 185.617 1.90889 -0.373032 0
M  V30 1951 C 185.9 0.466136 -3.5707 0
M  V30 1952 C 185.753 -0.819385 -4.42274 0
M  V30 1953 C 187.072 1.25768 -4.21747 0
M  V30 1954 H 184.191 0.0697708 -0.73369 0
M  V30 1955 H 186.833 -0.516286 -1.82851 0
M  V30 1956 H 184.983 1.07293 -3.7339 0
M  V30 1957 H 186.655 -1.4563 -4.37709 0
M  V30 1958 H 184.898 -1.43517 -4.09372 0
M  V30 1959 H 185.569 -0.585065 -5.48891 0
M  V30 1960 H 188.045 0.744167 -4.09391 0
M  V30 1961 H 186.921 1.41541 -5.30337 0
M  V30 1962 H 187.182 2.27228 -3.79236 0
M  V30 1963 N 186.241 1.57166 -0.116904 0
M  V30 1964 C 187.171 2.18222 0.830759 0
M  V30 1965 C 188.152 1.12167 1.27877 0
M  V30 1966 O 189.337 1.40394 1.34176 0
M  V30 1967 C 186.467 2.77996 2.08172 0
M  V30 1968 C 185.421 3.89614 1.77157 0
M  V30 1969 C 184.747 4.36187 3.09265 0
M  V30 1970 C 186.047 5.1181 1.04151 0
M  V30 1971 H 187.741 2.97664 0.321992 0
M  V30 1972 H 185.287 1.4318 0.153434 0
M  V30 1973 H 187.24 3.19366 2.74924 0
M  V30 1974 H 185.964 1.9584 2.6137 0
M  V30 1975 H 184.623 3.48816 1.12796 0
M  V30 1976 H 184.271 3.50893 3.60393 0
M  V30 1977 H 183.971 5.11455 2.89288 0
M  V30 1978 H 185.495 4.80207 3.77139 0
M  V30 1979 H 186.909 5.50214 1.61052 0
M  V30 1980 H 185.306 5.92648 0.942762 0
M  V30 1981 H 186.376 4.84892 0.0279022 0
M  V30 1982 N 187.719 -0.156864 1.56817 0
M  V30 1983 C 188.666 -1.19394 1.97519 0
M  V30 1984 C 189.636 -1.4322 0.841265 0
M  V30 1985 O 190.821 -1.55719 1.10255 0
M  V30 1986 C 187.961 -2.52483 2.35258 0
M  V30 1987 C 187.074 -2.35914 3.61896 0
M  V30 1988 C 186.209 -3.61969 3.88782 0
M  V30 1989 C 185.248 -3.40395 5.08722 0
M  V30 1990 N 184.385 -4.58556 5.31668 0
M  V30 1991 H 189.225 -0.839845 2.85921 0
M  V30 1992 H 186.762 -0.403264 1.41464 0
M  V30 1993 H 188.72 -3.30071 2.55165 0
M  V30 1994 H 187.35 -2.85859 1.49949 0
M  V30 1995 H 186.402 -1.49429 3.49821 0
M  V30 1996 H 187.714 -2.15926 4.49641 0
M  V30 1997 H 186.868 -4.47989 4.09135 0
M  V30 1998 H 185.607 -3.84951 2.9944 0
M  V30 1999 H 184.612 -2.52763 4.88253 0
M  V30 2000 H 185.837 -3.18822 5.99608 0
M  V30 2001 H 183.783 -4.81729 4.45279 0
M  V30 2002 H 183.7 -4.41535 6.13664 0
M  V30 2003 H 184.968 -5.45817 5.5651 0
M  V30 2004 N 189.197 -1.51736 -0.425897 0
M  V30 2005 C 190.444 -1.6497 -1.17436 0
M  V30 2006 C 190.772 -0.371445 -1.9092 0
M  V30 2007 O 190.027 0.644963 -1.84767 0
M  V30 2008 C 190.326 -2.81103 -2.20717 0
M  V30 2009 C 189.992 -4.19954 -1.64162 0
M  V30 2010 C 188.654 -4.57725 -1.48462 0
M  V30 2011 C 191.006 -5.06552 -1.22696 0
M  V30 2012 C 188.334 -5.79789 -0.897873 0
M  V30 2013 C 190.686 -6.29205 -0.654464 0
M  V30 2014 C 189.35 -6.6574 -0.484456 0
M  V30 2015 H 188.62 -0.603668 -0.429727 0
M  V30 2016 H 191.267 -1.85798 -0.463829 0
M  V30 2017 H 189.572 -2.54542 -2.97852 0
M  V30 2018 H 191.269 -2.8854 -2.78471 0
M  V30 2019 H 187.859 -3.90181 -1.77361 0
M  V30 2020 H 192.043 -4.77968 -1.33642 0
M  V30 2021 H 187.299 -6.06733 -0.75402 0
M  V30 2022 H 191.473 -6.95643 -0.324694 0
M  V30 2023 H 189.1 -7.60195 -0.0276833 0
M  V30 2024 N 190.675 0.682077 -1.42076 0
M  V30 2025 C 191.905 1.46844 -1.45329 0
M  V30 2026 C 192.313 1.89102 -0.0609328 0
M  V30 2027 O 191.656 1.58238 0.933082 0
M  V30 2028 C 191.718 2.75375 -2.31104 0
M  V30 2029 C 191.382 2.55238 -3.79081 0
M  V30 2030 C 192.379 2.20309 -4.70914 0
M  V30 2031 C 190.064 2.70459 -4.2327 0
M  V30 2032 C 192.058 2.00859 -6.04925 0
M  V30 2033 C 189.745 2.50624 -5.57343 0
M  V30 2034 C 190.743 2.15876 -6.47986 0
M  V30 2035 O 190.431 1.96227 -7.79583 0
M  V30 2036 H 190.163 0.4586 -0.496651 0
M  V30 2037 H 192.717 0.846131 -1.87162 0
M  V30 2038 H 190.947 3.40061 -1.84107 0
M  V30 2039 H 192.636 3.37231 -2.25898 0
M  V30 2040 H 193.402 2.08153 -4.38061 0
M  V30 2041 H 189.281 2.96485 -3.53012 0
M  V30 2042 H 192.825 1.7366 -6.75639 0
M  V30 2043 H 188.722 2.62375 -5.89771 0
M  V30 2044 H 189.49 2.10883 -7.90867 0
M  V30 2045 N 192.153 1.28127 0.917671 0
M  V30 2046 C 193.43 1.05761 1.64542 0
M  V30 2047 C 193.81 -0.404344 2.07191 0
M  V30 2048 O 193.158 -1.38963 1.81388 0
M  V30 2049 C 193.368 2.02857 2.83989 0
M  V30 2050 C 194.716 2.32786 3.551 0
M  V30 2051 O 195.74 2.0091 2.94132 0
M  V30 2052 O 194.599 2.87169 4.64969 0
M  V30 2053 H 191.693 0.403916 0.721652 0
M  V30 2054 H 194.239 1.39431 0.967322 0
M  V30 2055 H 193.011 3.01407 2.49538 0
M  V30 2056 H 192.634 1.69809 3.59514 0
M  V30 2057 N 193.631 -1.12557 1.10312 0
M  V30 2058 C 194.856 -1.88405 0.867085 0
M  V30 2059 C 195.281 -1.79038 -0.576817 0
M  V30 2060 O 194.639 -1.14439 -1.40618 0
M  V30 2061 C 194.687 -3.3563 1.31851 0
M  V30 2062 O 193.791 -4.09565 0.482734 0
M  V30 2063 H 193.132 -0.585455 0.313271 0
M  V30 2064 H 195.662 -1.42352 1.4696 0
M  V30 2065 H 195.672 -3.86469 1.3079 0
M  V30 2066 H 194.347 -3.41765 2.37001 0
M  V30 2067 H 192.924 -3.68695 0.558448 0
M  V30 2068 N 195.109 -0.891671 -1.2995 0
M  V30 2069 C 196.057 -0.353066 -2.29905 0
M  V30 2070 C 197.051 0.543509 -1.60444 0
M  V30 2071 O 198.257 0.4272 -1.74857 0
M  V30 2072 H 194.632 -0.095531 -0.745907 0
M  V30 2073 H 196.603 -1.20961 -2.72784 0
M  V30 2074 C 195.352 0.411475 -3.45257 0
M  V30 2075 H 194.675 -0.269182 -3.98893 0
M  V30 2076 H 196.115 0.753328 -4.17254 0
M  V30 2077 C 194.574 1.6111 -2.9588 0
M  V30 2078 O 195.104 2.71045 -2.96475 0
M  V30 2079 N 193.31 1.45054 -2.51809 0
M  V30 2080 H 192.857 0.556175 -2.51524 0
M  V30 2081 H 192.815 2.25453 -2.1913 0
M  V30 2082 N 196.587 1.43421 -0.653314 0
M  V30 2083 C 197.815 2.06163 -0.174491 0
M  V30 2084 C 198.23 1.48969 1.1599 0
M  V30 2085 O 197.587 0.621042 1.71608 0
M  V30 2086 C 197.638 3.61417 -0.0774865 0
M  V30 2087 O 197.359 4.16485 -1.35912 0
M  V30 2088 C 198.86 4.41235 0.427402 0
M  V30 2089 H 196.08 0.664946 -0.0899353 0
M  V30 2090 H 198.624 1.83924 -0.893988 0
M  V30 2091 H 196.779 3.82841 0.59257 0
M  V30 2092 H 197.193 5.10153 -1.21839 0
M  V30 2093 H 198.667 5.5021 0.44423 0
M  V30 2094 H 199.144 4.14268 1.45873 0
M  V30 2095 H 199.75 4.2478 -0.210167 0
M  V30 2096 N 198.065 0.39524 1.52563 0
M  V30 2097 C 199.311 -0.185318 2.01952 0
M  V30 2098 C 199.644 -1.45964 1.28095 0
M  V30 2099 O 198.919 -1.90689 0.38315 0
M  V30 2100 C 199.202 -0.447193 3.57312 0
M  V30 2101 C 199.055 0.842828 4.41833 0
M  V30 2102 C 200.374 -1.23529 4.22408 0
M  V30 2103 H 197.493 -0.0658788 0.73405 0
M  V30 2104 H 200.135 0.525975 1.82575 0
M  V30 2105 H 198.285 -1.05312 3.73954 0
M  V30 2106 H 199.957 1.4795 4.36931 0
M  V30 2107 H 198.2 1.45686 4.08605 0
M  V30 2108 H 198.871 0.614165 5.48573 0
M  V30 2109 H 201.347 -0.722445 4.0978 0
M  V30 2110 H 200.223 -1.38727 5.3108 0
M  V30 2111 H 200.484 -2.25213 3.80436 0
M  V30 2112 N 199.544 -1.57102 0.125237 0
M  V30 2113 C 200.491 -2.15641 -0.822655 0
M  V30 2114 C 201.461 -1.08313 -1.25927 0
M  V30 2115 O 202.646 -1.36251 -1.33567 0
M  V30 2116 C 199.786 -2.76504 -2.06494 0
M  V30 2117 C 198.899 -3.98158 -1.67612 0
M  V30 2118 C 198.034 -4.47088 -2.86854 0
M  V30 2119 C 197.073 -5.6126 -2.44242 0
M  V30 2120 N 196.21 -6.04905 -3.56419 0
M  V30 2121 H 201.05 -2.96313 -0.316625 0
M  V30 2122 H 198.587 -1.46388 -0.144588 0
M  V30 2123 H 200.545 -3.09925 -2.79289 0
M  V30 2124 H 199.175 -1.98512 -2.54545 0
M  V30 2125 H 198.227 -3.70858 -0.846661 0
M  V30 2126 H 199.539 -4.80934 -1.32301 0
M  V30 2127 H 198.693 -4.82451 -3.67867 0
M  V30 2128 H 197.432 -3.63275 -3.25396 0
M  V30 2129 H 196.437 -5.25495 -1.61663 0
M  V30 2130 H 197.662 -6.46843 -2.0681 0
M  V30 2131 H 195.608 -5.24032 -3.94623 0
M  V30 2132 H 195.525 -6.82552 -3.25051 0
M  V30 2133 H 196.793 -6.44907 -4.37853 0
M  V30 2134 N 201.022 0.148545 -1.56898 0
M  V30 2135 C 201.954 1.20852 -1.9475 0
M  V30 2136 C 202.967 1.39265 -0.843152 0
M  V30 2137 O 204.156 1.38864 -1.12156 0
M  V30 2138 C 201.256 2.57362 -2.20495 0
M  V30 2139 C 200.429 2.59947 -3.51776 0
M  V30 2140 C 199.488 3.77984 -3.6608 0
M  V30 2141 O 198.514 3.62929 -4.38487 0
M  V30 2142 N 199.716 4.95375 -3.02629 0
M  V30 2143 H 202.481 0.886804 -2.86279 0
M  V30 2144 H 200.042 0.338121 -1.5833 0
M  V30 2145 H 202.034 3.34833 -2.27307 0
M  V30 2146 H 200.604 2.81832 -1.35238 0
M  V30 2147 H 199.824 1.68403 -3.56419 0
M  V30 2148 H 201.112 2.58704 -4.38121 0
M  V30 2149 H 200.51 5.10509 -2.43715 0
M  V30 2150 H 199.067 5.70627 -3.15004 0
M  V30 2151 N 202.5 1.5196 0.417844 0
M  V30 2152 C 203.447 1.74678 1.50852 0
M  V30 2153 C 204.417 0.588947 1.55308 0
M  V30 2154 O 205.602 0.825544 1.72016 0
M  V30 2155 C 202.742 1.89544 2.88387 0
M  V30 2156 C 201.855 3.17166 2.93309 0
M  V30 2157 C 200.99 3.22513 4.22088 0
M  V30 2158 C 200.029 4.44372 4.20951 0
M  V30 2159 N 199.166 4.47161 5.41287 0
M  V30 2160 H 204.006 2.67768 1.30783 0
M  V30 2161 H 201.543 1.32689 0.63498 0
M  V30 2162 H 203.501 1.96146 3.68216 0
M  V30 2163 H 202.131 0.998424 3.06971 0
M  V30 2164 H 201.183 3.19778 2.06024 0
M  V30 2165 H 202.495 4.07021 2.88332 0
M  V30 2166 H 201.649 3.28139 5.10303 0
M  V30 2167 H 200.388 2.30581 4.29748 0
M  V30 2168 H 199.393 4.38902 3.31127 0
M  V30 2169 H 200.618 5.3759 4.14938 0
M  V30 2170 H 198.564 3.58108 5.49632 0
M  V30 2171 H 198.481 5.3085 5.3827 0
M  V30 2172 H 199.749 4.57005 6.3148 0
M  V30 2173 N 203.978 -0.674533 1.42435 0
M  V30 2174 C 205.208 -1.46071 1.46105 0
M  V30 2175 C 205.616 -1.89067 0.0709605 0
M  V30 2176 O 204.959 -1.58731 -0.924677 0
M  V30 2177 C 205.021 -2.74145 2.32561 0
M  V30 2178 C 204.685 -2.53224 3.8043 0
M  V30 2179 C 205.682 -2.17809 4.72075 0
M  V30 2180 C 203.367 -2.6821 4.24698 0
M  V30 2181 C 205.361 -1.97648 6.05982 0
M  V30 2182 C 203.048 -2.47665 5.58664 0
M  V30 2183 C 204.046 -2.12437 6.49122 0
M  V30 2184 O 203.734 -1.9209 7.80613 0
M  V30 2185 H 203.466 -0.455959 0.499076 0
M  V30 2186 H 206.02 -0.836193 1.87609 0
M  V30 2187 H 204.25 -3.3908 1.85908 0
M  V30 2188 H 205.939 -3.36028 2.27683 0
M  V30 2189 H 206.705 -2.05826 4.39159 0
M  V30 2190 H 202.584 -2.94609 3.54579 0
M  V30 2191 H 206.128 -1.70075 6.7655 0
M  V30 2192 H 202.025 -2.59244 5.91154 0
M  V30 2193 H 202.793 -2.06686 7.91974 0
M  V30 2194 N 205.456 -1.28612 -0.910864 0
M  V30 2195 C 206.386 -1.15326 -2.03032 0
M  V30 2196 C 207.367 -0.0502924 -1.70026 0
M  V30 2197 O 208.552 -0.227797 -1.92859 0
M  V30 2198 C 205.682 -0.817343 -3.37545 0
M  V30 2199 C 204.636 -1.8754 -3.84724 0
M  V30 2200 C 203.962 -1.39305 -5.16235 0
M  V30 2201 C 205.262 -3.28244 -4.06267 0
M  V30 2202 H 206.956 -2.08975 -2.14406 0
M  V30 2203 H 204.502 -1.00612 -1.03021 0
M  V30 2204 H 206.455 -0.711151 -4.15356 0
M  V30 2205 H 205.179 0.154846 -3.26233 0
M  V30 2206 H 203.838 -1.97079 -3.09121 0
M  V30 2207 H 203.486 -0.409846 -5.01328 0
M  V30 2208 H 203.186 -2.10057 -5.48771 0
M  V30 2209 H 204.71 -1.30014 -5.96598 0
M  V30 2210 H 206.124 -3.21611 -4.74594 0
M  V30 2211 H 204.521 -3.96855 -4.5014 0
M  V30 2212 H 205.591 -3.72048 -3.10979 0
M  V30 2213 N 206.934 1.1197 -1.10907 0
M  V30 2214 C 208.159 1.87942 -0.877064 0
M  V30 2215 C 208.584 1.79341 0.567314 0
M  V30 2216 O 207.942 1.15184 1.40009 0
M  V30 2217 C 207.99 3.34926 -1.33629 0
M  V30 2218 O 207.094 4.09303 -0.504447 0
M  V30 2219 H 206.435 0.583785 -0.316371 0
M  V30 2220 H 208.965 1.4157 -1.47712 0
M  V30 2221 H 208.975 3.8577 -1.32837 0
M  V30 2222 H 207.65 3.40504 -2.3881 0
M  V30 2223 H 206.227 3.68393 -0.577993 0
M  V30 2224 N 208.412 0.89855 1.29475 0
M  V30 2225 C 209.659 0.523882 1.95606 0
M  V30 2226 C 209.987 -0.929608 1.70847 0
M  V30 2227 O 209.242 -1.67401 1.01367 0
M  V30 2228 C 209.541 0.761398 3.49195 0
M  V30 2229 C 209.207 2.19207 3.94029 0
M  V30 2230 C 207.869 2.58326 4.05982 0
M  V30 2231 C 210.221 3.12379 4.17216 0
M  V30 2232 C 207.549 3.898 4.38489 0
M  V30 2233 C 209.901 4.43401 4.51197 0
M  V30 2234 C 208.565 4.82394 4.61359 0
M  V30 2235 H 207.835 0.191702 0.715773 0
M  V30 2236 H 210.482 1.13699 1.54094 0
M  V30 2237 H 208.787 0.0653622 3.91745 0
M  V30 2238 H 210.484 0.450904 3.98457 0
M  V30 2239 H 207.074 1.87846 3.85242 0
M  V30 2240 H 211.258 2.83371 4.07449 0
M  V30 2241 H 206.514 4.19734 4.44559 0
M  V30 2242 H 210.688 5.15623 4.68087 0
M  V30 2243 H 208.315 5.84306 4.86303 0
M  V30 2244 N 209.89 -1.43072 0.660911 0
M  V30 2245 C 211.118 -2.06067 0.185422 0
M  V30 2246 C 211.533 -1.49582 -1.15198 0
M  V30 2247 O 210.89 -0.630134 -1.71276 0
M  V30 2248 C 210.941 -3.61371 0.0966523 0
M  V30 2249 O 210.662 -4.15758 1.38119 0
M  V30 2250 C 212.163 -4.41455 -0.403996 0
M  V30 2251 H 209.383 -0.664459 0.0934604 0
M  V30 2252 H 211.927 -1.83447 0.90373 0
M  V30 2253 H 210.082 -3.8315 -0.572259 0
M  V30 2254 H 210.496 -5.09499 1.24542 0
M  V30 2255 H 211.97 -5.50437 -0.415045 0
M  V30 2256 H 212.447 -4.15036 -1.43674 0
M  V30 2257 H 213.053 -4.24663 0.232691 0
M  V30 2258 N 211.368 -0.403325 -1.52352 0
M  V30 2259 C 212.779 0.0675782 -1.86578 0
M  V30 2260 C 213.13 1.44941 -1.32236 0
M  V30 2261 O 212.255 2.06112 -0.659307 0
M  V30 2262 C 212.85 0.129404 -3.38553 0
M  V30 2263 C 211.409 0.544629 -3.72439 0
M  V30 2264 C 210.556 -0.284551 -2.75836 0
M  V30 2265 H 213.507 -0.620631 -1.46061 0
M  V30 2266 H 213.528 0.94581 -3.68558 0
M  V30 2267 H 213.04 -0.87645 -3.78074 0
M  V30 2268 H 211.141 1.55734 -3.38493 0
M  V30 2269 H 211.254 0.293046 -4.78203 0
M  V30 2270 H 209.618 0.252258 -2.53448 0
M  V30 2271 H 210.401 -1.28865 -3.18196 0
M  V30 2272 N 212.846 1.57033 -0.133567 0
M  V30 2273 C 214.257 1.82593 0.389464 0
M  V30 2274 C 214.608 1.05156 1.6564 0
M  V30 2275 O 213.733 0.292644 2.14412 0
M  V30 2276 C 214.328 3.31204 0.713377 0
M  V30 2277 C 212.887 3.57393 1.18098 0
M  V30 2278 C 212.034 2.76598 0.197126 0
M  V30 2279 H 214.985 1.54598 -0.358481 0
M  V30 2280 H 215.006 3.46627 1.56939 0
M  V30 2281 H 214.518 3.87537 -0.2089 0
M  V30 2282 H 212.619 3.06433 2.11966 0
M  V30 2283 H 212.732 4.65915 1.11624 0
M  V30 2284 H 211.096 2.45257 0.687088 0
M  V30 2285 H 211.879 3.35697 -0.718504 0
M  V30 2286 N 214.325 -0.140222 1.56975 0
M  V30 2287 C 215.235 -1.19223 2.02047 0
M  V30 2288 C 216.251 -1.46612 0.937062 0
M  V30 2289 O 217.427 -1.58148 1.24704 0
M  V30 2290 C 214.492 -2.50414 2.39778 0
M  V30 2291 C 213.553 -2.30612 3.621 0
M  V30 2292 C 212.786 -3.55547 3.98023 0
M  V30 2293 O 213.009 -4.62004 3.34528 0
M  V30 2294 O 211.943 -3.47808 4.91237 0
M  V30 2295 H 215.769 -0.839559 2.91865 0
M  V30 2296 H 213.354 -0.349453 1.45256 0
M  V30 2297 H 215.236 -3.27747 2.64877 0
M  V30 2298 H 213.911 -2.85198 1.53114 0
M  V30 2299 H 212.818 -1.51207 3.4218 0
M  V30 2300 H 214.151 -2.00741 4.49404 0
M  V30 2301 N 215.803 -1.52179 -0.40978 0
M  V30 2302 C 216.75 -1.75475 -1.49924 0
M  V30 2303 C 217.72 -0.597175 -1.54994 0
M  V30 2304 O 218.905 -0.834655 -1.71575 0
M  V30 2305 C 216.045 -1.9107 -2.87378 0
M  V30 2306 C 215.158 -3.18717 -2.91622 0
M  V30 2307 C 214.293 -3.24747 -4.20372 0
M  V30 2308 C 213.332 -4.46598 -4.18588 0
M  V30 2309 N 212.469 -4.50025 -5.38908 0
M  V30 2310 H 217.309 -2.68458 -1.29361 0
M  V30 2311 H 214.846 -1.33024 -0.627934 0
M  V30 2312 H 216.804 -1.98096 -3.6717 0
M  V30 2313 H 215.434 -1.01469 -3.06437 0
M  V30 2314 H 214.486 -3.20866 -2.04326 0
M  V30 2315 H 215.798 -4.08544 -2.86169 0
M  V30 2316 H 214.952 -3.30841 -5.08556 0
M  V30 2317 H 213.691 -2.32857 -4.28519 0
M  V30 2318 H 212.696 -4.40652 -3.28794 0
M  V30 2319 H 213.921 -5.39783 -4.12081 0
M  V30 2320 H 211.867 -3.61017 -5.47725 0
M  V30 2321 H 211.784 -5.33697 -5.35447 0
M  V30 2322 H 213.052 -4.60347 -6.29048 0
M  V30 2323 N 217.281 0.66697 -1.42791 0
M  V30 2324 C 218.558 1.4234 -1.34159 0
M  V30 2325 C 218.938 2.11093 0.0172729 0
M  V30 2326 O 218.286 2.03808 1.03318 0
M  V30 2327 C 218.496 2.41942 -2.51526 0
M  V30 2328 C 219.844 3.06353 -2.93995 0
M  V30 2329 O 220.868 2.52269 -2.51473 0
M  V30 2330 O 219.727 4.04376 -3.67617 0
M  V30 2331 H 216.821 0.635277 -0.529483 0
M  V30 2332 H 219.367 0.695034 -1.54814 0
M  V30 2333 H 218.139 1.89991 -3.42081 0
M  V30 2334 H 217.762 3.22249 -2.32898 0
M  V30 2335 N 218.759 1.29093 0.90403 0
M  V30 2336 C 220.007 1.16583 1.65085 0
M  V30 2337 C 220.328 -0.283933 1.92922 0
M  V30 2338 O 219.598 -1.19509 1.55224 0
M  V30 2339 H 218.178 0.428467 0.611903 0
M  V30 2340 H 220.84 1.61959 1.08422 0
M  V30 2341 H 219.936 1.71266 2.6091 0
M  V30 2342 N 220.237 -1.11381 1.11499 0
M  V30 2343 C 221.484 -1.83132 0.864231 0
M  V30 2344 C 221.812 -1.84683 -0.610114 0
M  V30 2345 O 221.067 -1.29589 -1.46646 0
M  V30 2346 C 221.366 -3.30026 1.37177 0
M  V30 2347 C 221.032 -3.48634 2.85946 0
M  V30 2348 C 219.694 -3.53421 3.26569 0
M  V30 2349 C 222.046 -3.54837 3.81759 0
M  V30 2350 C 219.374 -3.61967 4.61733 0
M  V30 2351 C 221.726 -3.64915 5.1674 0
M  V30 2352 C 220.39 -3.67962 5.5692 0
M  V30 2353 H 219.66 -0.670127 0.316245 0
M  V30 2354 H 222.307 -1.31354 1.3935 0
M  V30 2355 H 220.612 -3.84304 0.762753 0
M  V30 2356 H 222.309 -3.84034 1.15408 0
M  V30 2357 H 218.899 -3.45579 2.53521 0
M  V30 2358 H 223.083 -3.50399 3.51474 0
M  V30 2359 H 218.339 -3.62603 4.92269 0
M  V30 2360 H 222.513 -3.68658 5.90816 0
M  V30 2361 H 220.14 -3.74336 6.61647 0
M  V30 2362 N 221.715 -0.905404 -1.28997 0
M  V30 2363 C 223.126 -0.581953 -1.77398 0
M  V30 2364 C 223.477 0.902552 -1.74208 0
M  V30 2365 O 222.602 1.70584 -1.33154 0
M  V30 2366 C 223.197 -1.04961 -3.22131 0
M  V30 2367 C 221.756 -0.777229 -3.68288 0
M  V30 2368 C 220.903 -1.22109 -2.48967 0
M  V30 2369 H 223.854 -1.08754 -1.15578 0
M  V30 2370 H 223.875 -0.387387 -3.78523 0
M  V30 2371 H 223.387 -2.13008 -3.24421 0
M  V30 2372 H 221.488 0.290383 -3.71467 0
M  V30 2373 H 221.601 -1.37911 -4.58822 0
M  V30 2374 H 219.965 -0.639971 -2.46529 0
M  V30 2375 H 220.748 -2.30972 -2.53982 0
M  V30 2376 N 223.193 1.4272 -0.668489 0
M  V30 2377 C 224.418 2.06484 -0.194758 0
M  V30 2378 C 224.843 1.49862 1.13679 0
M  V30 2379 O 224.201 0.614582 1.70565 0
M  V30 2380 C 224.249 3.60353 -0.133546 0
M  V30 2381 O 223.353 4.02464 0.899806 0
M  V30 2382 H 222.694 0.656137 -0.10188 0
M  V30 2383 H 225.224 1.82964 -0.915722 0
M  V30 2384 H 225.234 4.07976 0.0447041 0
M  V30 2385 H 223.909 4.00938 -1.1055 0
M  V30 2386 H 222.486 3.66402 0.693109 0
M  V30 2387 N 224.671 0.411399 1.52136 0
M  V30 2388 C 225.919 -0.163322 2.01439 0
M  V30 2389 C 226.24 -1.45453 1.29879 0
M  V30 2390 O 225.51 -1.91225 0.4254 0
M  V30 2391 H 224.09 -0.0633447 0.744309 0
M  V30 2392 H 226.752 0.548161 1.87033 0
M  V30 2393 H 225.848 -0.357817 3.10042 0
M  V30 2394 N 226.149 -1.5696 0.141893 0
M  V30 2395 C 227.377 -2.00322 -0.517579 0
M  V30 2396 C 227.792 -1.02193 -1.58752 0
M  V30 2397 O 227.149 -0.0181619 -1.82491 0
M  V30 2398 C 227.2 -3.43618 -1.12289 0
M  V30 2399 O 226.921 -4.37995 -0.0956929 0
M  V30 2400 C 228.422 -4.02231 -1.86347 0
M  V30 2401 H 225.642 -0.657243 -0.135177 0
M  V30 2402 H 228.186 -2.03146 0.234973 0
M  V30 2403 H 226.341 -3.41662 -1.82609 0
M  V30 2404 H 226.755 -5.21729 -0.538469 0
M  V30 2405 H 228.229 -5.04509 -2.23997 0
M  V30 2406 H 228.706 -3.42655 -2.74744 0
M  V30 2407 H 229.312 -4.07802 -1.20737 0
M  V30 2408 N 227.627 0.131896 -1.57047 0
M  V30 2409 C 229.038 0.690407 -1.73465 0
M  V30 2410 C 229.389 1.8094 -0.758629 0
M  V30 2411 O 228.514 2.16282 0.0713813 0
M  V30 2412 C 229.109 1.25916 -3.14532 0
M  V30 2413 C 227.668 1.76409 -3.32501 0
M  V30 2414 C 226.815 0.658579 -2.69366 0
M  V30 2415 H 229.766 -0.0939144 -1.58422 0
M  V30 2416 H 229.787 2.12892 -3.15369 0
M  V30 2417 H 229.299 0.444515 -3.85546 0
M  V30 2418 H 227.4 2.60391 -2.66509 0
M  V30 2419 H 227.513 1.88241 -4.4057 0
M  V30 2420 H 225.877 1.08899 -2.30246 0
M  V30 2421 H 226.66 -0.14487 -3.42994 0
M  V30 2422 N 229.106 1.52395 0.401703 0
M  V30 2423 C 230.069 1.75636 1.47257 0
M  V30 2424 C 231.069 0.62628 1.48103 0
M  V30 2425 O 232.259 0.894227 1.49497 0
M  V30 2426 C 229.391 1.84553 2.86624 0
M  V30 2427 H 230.584 2.71241 1.27938 0
M  V30 2428 H 228.137 1.42923 0.632662 0
M  V30 2429 H 228.872 0.908882 3.11303 0
M  V30 2430 H 228.657 2.66715 2.87412 0
M  V30 2431 H 230.147 2.04251 3.64241 0
M  V30 2432 N 230.584 -0.659388 1.43143 0
M  V30 2433 C 231.514 -1.78422 1.50625 0
M  V30 2434 C 232.495 -1.66216 0.361443 0
M  V30 2435 O 233.68 -1.85404 0.577834 0
M  V30 2436 C 230.81 -3.16815 1.42287 0
M  V30 2437 C 229.764 -3.43777 2.54954 0
M  V30 2438 C 229.09 -4.81905 2.31671 0
M  V30 2439 C 230.39 -3.39134 3.97222 0
M  V30 2440 H 232.084 -1.72417 2.44771 0
M  V30 2441 H 229.63 -0.828084 1.17808 0
M  V30 2442 H 231.583 -3.95253 1.46127 0
M  V30 2443 H 230.307 -3.23534 0.446435 0
M  V30 2444 H 228.966 -2.67707 2.50457 0
M  V30 2445 H 228.614 -4.85294 1.32284 0
M  V30 2446 H 228.314 -5.00906 3.07192 0
M  V30 2447 H 229.838 -5.62609 2.37284 0
M  V30 2448 H 231.252 -4.07518 4.03239 0
M  V30 2449 H 229.649 -3.69671 4.72719 0
M  V30 2450 H 230.719 -2.37426 4.22797 0
M  V30 2451 N 232.062 -1.29571 -0.897171 0
M  V30 2452 C 233.01 -1.14802 -2.02295 0
M  V30 2453 C 234.004 -0.0629637 -1.69283 0
M  V30 2454 O 235.21 -0.222945 -1.78614 0
M  V30 2455 H 231.585 -0.354692 -0.663097 0
M  V30 2456 H 233.556 -2.10108 -2.11889 0
M  V30 2457 C 232.305 -0.843966 -3.37302 0
M  V30 2458 H 231.628 -1.67093 -3.63208 0
M  V30 2459 H 233.068 -0.780672 -4.16751 0
M  V30 2460 C 231.527 0.452843 -3.33843 0
M  V30 2461 O 232.057 1.47813 -3.73516 0
M  V30 2462 N 230.263 0.459601 -2.86943 0
M  V30 2463 H 229.81 -0.375213 -2.54853 0
M  V30 2464 H 229.768 1.32726 -2.85011 0
M  V30 2465 N 233.54 1.10788 -1.12088 0
M  V30 2466 C 234.503 2.15207 -0.788577 0
M  V30 2467 C 235.503 1.59609 0.195317 0
M  V30 2468 O 236.693 1.74174 -0.0300193 0
M  V30 2469 C 233.825 3.4047 -0.171174 0
M  V30 2470 H 235.018 2.46116 -1.71368 0
M  V30 2471 H 232.571 1.26089 -0.923652 0
M  V30 2472 H 233.306 3.15176 0.763832 0
M  V30 2473 H 233.091 3.82109 -0.879514 0
M  V30 2474 H 234.581 4.17576 0.04496 0
M  V30 2475 N 235.018 0.912232 1.28515 0
M  V30 2476 C 235.965 0.397954 2.27343 0
M  V30 2477 C 236.935 -0.526766 1.57526 0
M  V30 2478 O 238.12 -0.449292 1.85435 0
M  V30 2479 C 235.26 -0.357263 3.43246 0
M  V30 2480 C 234.373 0.599788 4.27816 0
M  V30 2481 C 233.508 -0.173725 5.30916 0
M  V30 2482 C 232.547 0.777039 6.07148 0
M  V30 2483 N 231.684 0.0371398 7.0209 0
M  V30 2484 H 236.524 1.24577 2.70711 0
M  V30 2485 H 234.061 0.625612 1.33133 0
M  V30 2486 H 236.019 -0.8113 4.09236 0
M  V30 2487 H 234.649 -1.16943 3.00872 0
M  V30 2488 H 233.701 1.17235 3.61884 0
M  V30 2489 H 235.013 1.32704 4.80823 0
M  V30 2490 H 234.167 -0.688394 6.02782 0
M  V30 2491 H 232.906 -0.934041 4.78672 0
M  V30 2492 H 231.911 1.3031 5.34134 0
M  V30 2493 H 233.136 1.53689 6.61481 0
M  V30 2494 H 231.082 -0.705213 6.52198 0
M  V30 2495 H 230.999 0.704249 7.52713 0
M  V30 2496 H 232.267 -0.457383 7.78157 0
M  V30 2497 N 236.496 -1.42363 0.676048 0
M  V30 2498 C 237.744 -2.01123 0.198437 0
M  V30 2499 C 238.065 -1.53731 -1.19966 0
M  V30 2500 O 237.335 -0.759518 -1.80577 0
M  V30 2501 H 235.915 -0.743678 0.0703721 0
M  V30 2502 H 238.577 -1.74263 0.872837 0
M  V30 2503 H 237.673 -3.11454 0.200686 0
M  V30 2504 N 237.974 -0.419461 -1.51915 0
M  V30 2505 C 239.202 0.152136 -2.0634 0
M  V30 2506 C 239.617 1.37988 -1.28859 0
M  V30 2507 O 238.974 1.79243 -0.343232 0
M  V30 2508 C 239.025 0.492266 -3.58133 0
M  V30 2509 O 238.746 -0.686736 -4.32684 0
M  V30 2510 C 240.247 1.11648 -4.2901 0
M  V30 2511 H 237.467 0.0158325 -0.670813 0
M  V30 2512 H 240.011 -0.593394 -1.95702 0
M  V30 2513 H 238.166 1.18769 -3.68745 0
M  V30 2514 H 238.58 -0.400341 -5.2297 0
M  V30 2515 H 240.054 1.3046 -5.36362 0
M  V30 2516 H 240.531 2.09251 -3.86148 0
M  V30 2517 H 241.137 0.460958 -4.22795 0
M  V30 2518 N 239.452 1.56882 -0.150215 0
M  V30 2519 C 240.362 2.20494 0.801222 0
M  V30 2520 C 241.378 1.19019 1.26927 0
M  V30 2521 O 242.554 1.51607 1.32579 0
M  V30 2522 C 239.619 2.81659 2.02161 0
M  V30 2523 C 238.68 3.9827 1.60249 0
M  V30 2524 C 237.913 4.56508 2.7647 0
M  V30 2525 O 238.136 4.13627 3.92771 0
M  V30 2526 O 237.07 5.46719 2.51757 0
M  V30 2527 H 240.896 3.02315 0.289717 0
M  V30 2528 H 238.481 1.49202 0.0769684 0
M  V30 2529 H 240.363 3.20522 2.73576 0
M  V30 2530 H 239.038 2.02849 2.52258 0
M  V30 2531 H 237.945 3.64117 0.858477 0
M  V30 2532 H 239.278 4.78609 1.14864 0
M  V30 2533 N 240.93 -0.123565 1.57115 0
M  V30 2534 C 241.893 -1.13583 1.99076 0
M  V30 2535 C 242.893 -1.34564 0.880296 0
M  V30 2536 O 244.083 -1.31158 1.14644 0
M  V30 2537 C 241.215 -2.49128 2.32698 0
M  V30 2538 H 242.408 -0.775287 2.89706 0
M  V30 2539 H 239.961 -0.36771 1.51913 0
M  V30 2540 H 240.696 -2.90111 1.44934 0
M  V30 2541 H 240.481 -2.35255 3.13684 0
M  V30 2542 H 241.971 -3.2199 2.65918 0
M  V30 2543 N 242.408 -1.52605 -0.393616 0
M  V30 2544 C 243.819 -1.59417 -0.971761 0
M  V30 2545 C 244.17 -0.444173 -1.91106 0
M  V30 2546 O 243.295 0.433382 -2.12016 0
M  V30 2547 C 243.89 -2.88936 -1.76921 0
M  V30 2548 C 242.449 -2.98175 -2.29714 0
M  V30 2549 C 241.596 -2.54491 -1.10135 0
M  V30 2550 H 244.547 -1.57751 -0.173317 0
M  V30 2551 H 244.568 -2.75163 -2.62804 0
M  V30 2552 H 244.08 -3.72616 -1.08532 0
M  V30 2553 H 242.181 -2.19024 -3.01429 0
M  V30 2554 H 242.294 -4.02726 -2.59517 0
M  V30 2555 H 240.658 -2.08702 -1.45999 0
M  V30 2556 H 241.441 -3.4056 -0.432874 0
M  V30 2557 N 243.887 0.651787 -1.4349 0
M  V30 2558 C 244.85 1.74647 -1.48429 0
M  V30 2559 C 245.85 1.56513 -0.368817 0
M  V30 2560 O 247.04 1.62385 -0.630623 0
M  V30 2561 C 244.172 3.13533 -1.33827 0
M  V30 2562 H 245.365 1.71649 -2.4592 0
M  V30 2563 H 242.918 0.863573 -1.30277 0
M  V30 2564 H 243.653 3.22142 -0.37349 0
M  V30 2565 H 243.438 3.28101 -2.14691 0
M  V30 2566 H 244.928 3.93356 -1.40218 0
M  V30 2567 N 245.365 1.30045 0.890287 0
M  V30 2568 C 246.611 1.18737 1.64406 0
M  V30 2569 C 246.944 -0.258525 1.92472 0
M  V30 2570 O 246.219 -1.18562 1.54186 0
M  V30 2571 C 246.502 2.01087 2.98724 0
M  V30 2572 C 246.355 3.53867 2.77665 0
M  V30 2573 C 247.674 1.84457 3.9958 0
M  V30 2574 H 244.793 0.432698 0.596608 0
M  V30 2575 H 247.435 1.5962 1.0306 0
M  V30 2576 H 245.585 1.66349 3.51084 0
M  V30 2577 H 247.257 3.98637 2.32133 0
M  V30 2578 H 245.5 3.78318 2.12269 0
M  V30 2579 H 246.171 4.06772 3.7315 0
M  V30 2580 H 248.647 2.14817 3.56361 0
M  V30 2581 H 247.523 2.44411 4.91482 0
M  V30 2582 H 247.784 0.802276 4.3476 0
M  V30 2583 N 246.843 -1.10192 1.12674 0
M  V30 2584 C 248.089 -1.82475 0.884915 0
M  V30 2585 C 248.422 -1.85093 -0.58773 0
M  V30 2586 O 247.697 -1.3134 -1.43457 0
M  V30 2587 C 247.98 -3.29018 1.46353 0
M  V30 2588 C 247.833 -3.34718 3.00473 0
M  V30 2589 C 249.152 -4.25473 1.12519 0
M  V30 2590 H 246.271 -0.662492 0.322915 0
M  V30 2591 H 248.913 -1.2913 1.39375 0
M  V30 2592 H 247.063 -3.74576 1.03077 0
M  V30 2593 H 248.735 -2.97622 3.52447 0
M  V30 2594 H 246.978 -2.74541 3.35872 0
M  V30 2595 H 247.649 -4.37918 3.36053 0
M  V30 2596 H 250.125 -3.88161 1.499 0
M  V30 2597 H 249.001 -5.26365 1.55663 0
M  V30 2598 H 249.262 -4.42084 0.0377407 0
M  V30 2599 N 248.321 -0.919034 -1.28029 0
M  V30 2600 C 249.549 -0.570971 -1.98866 0
M  V30 2601 C 249.964 0.848996 -1.68634 0
M  V30 2602 O 249.321 1.56307 -0.942036 0
M  V30 2603 C 249.372 -0.776876 -3.53054 0
M  V30 2604 O 249.093 -2.14097 -3.82222 0
M  V30 2605 C 250.594 -0.436356 -4.41147 0
M  V30 2606 H 247.814 -0.217175 -0.634883 0
M  V30 2607 H 250.358 -1.23368 -1.63097 0
M  V30 2608 H 248.513 -0.161085 -3.87065 0
M  V30 2609 H 248.927 -2.18455 -4.76841 0
M  V30 2610 H 250.401 -0.63117 -5.4838 0
M  V30 2611 H 250.878 0.627686 -4.34692 0
M  V30 2612 H 251.484 -1.02991 -4.12641 0
M  V30 2613 N 249.799 1.42003 -0.683588 0
M  V30 2614 C 250.709 2.34597 -0.0109075 0
M  V30 2615 C 251.725 1.55576 0.779245 0
M  V30 2616 O 252.901 1.88107 0.719555 0
M  V30 2617 C 249.966 3.34199 0.922588 0
M  V30 2618 C 249.027 4.29115 0.125984 0
M  V30 2619 C 248.26 5.23959 1.01502 0
M  V30 2620 O 248.483 5.23952 2.25456 0
M  V30 2621 O 247.417 6.00053 0.47111 0
M  V30 2622 H 251.243 2.93675 -0.773853 0
M  V30 2623 H 248.828 1.42654 -0.443861 0
M  V30 2624 H 250.71 3.95365 1.45823 0
M  V30 2625 H 249.385 2.77582 1.66523 0
M  V30 2626 H 248.292 3.71335 -0.453969 0
M  V30 2627 H 249.625 4.88798 -0.577736 0
M  V30 2628 N 251.277 0.427512 1.51691 0
M  V30 2629 C 252.187 -0.39527 2.31246 0
M  V30 2630 C 253.203 -1.03674 1.39742 0
M  V30 2631 O 254.379 -1.03425 1.72816 0
M  V30 2632 C 251.444 -1.48706 3.13189 0
M  V30 2633 C 250.505 -0.866743 4.20459 0
M  V30 2634 C 249.738 -1.90651 4.98486 0
M  V30 2635 O 249.961 -3.12733 4.77026 0
M  V30 2636 O 248.895 -1.5025 5.82845 0
M  V30 2637 H 252.721 0.253918 3.02637 0
M  V30 2638 H 250.306 0.190274 1.48183 0
M  V30 2639 H 252.188 -2.12047 3.64162 0
M  V30 2640 H 250.863 -2.12051 2.44573 0
M  V30 2641 H 249.77 -0.195544 3.73589 0
M  V30 2642 H 251.103 -0.276934 4.9142 0
M  V30 2643 N 252.755 -1.56801 0.158532 0
M  V30 2644 C 253.665 -2.20916 -0.789518 0
M  V30 2645 C 254.681 -1.1969 -1.26294 0
M  V30 2646 O 255.857 -1.52308 -1.31773 0
M  V30 2647 C 252.922 -2.82727 -2.00665 0
M  V30 2648 C 251.983 -3.99114 -1.58134 0
M  V30 2649 C 251.216 -4.57968 -2.74045 0
M  V30 2650 O 251.439 -4.15704 -3.90572 0
M  V30 2651 O 250.373 -5.48047 -2.48855 0
M  V30 2652 H 254.199 -3.02464 -0.273681 0
M  V30 2653 H 251.784 -1.4924 -0.0690548 0
M  V30 2654 H 253.666 -3.21968 -2.71872 0
M  V30 2655 H 252.341 -2.04184 -2.51179 0
M  V30 2656 H 251.248 -3.64567 -0.839155 0
M  V30 2657 H 252.581 -4.79212 -1.12325 0
M  V30 2658 N 254.233 0.115231 -1.57178 0
M  V30 2659 C 255.51 0.852873 -1.76027 0
M  V30 2660 C 255.89 1.97892 -0.73498 0
M  V30 2661 O 255.238 2.27232 0.24036 0
M  V30 2662 C 255.448 1.36608 -3.21153 0
M  V30 2663 C 256.796 1.81692 -3.83762 0
M  V30 2664 O 257.82 1.46278 -3.24779 0
M  V30 2665 O 256.679 2.47104 -4.87444 0
M  V30 2666 H 253.773 0.405296 -0.720877 0
M  V30 2667 H 256.319 0.0986785 -1.69413 0
M  V30 2668 H 255.091 0.558357 -3.87296 0
M  V30 2669 H 254.714 2.18287 -3.3232 0
M  V30 2670 N 255.711 1.52812 0.385517 0
M  V30 2671 C 256.988 1.5861 1.14465 0
M  V30 2672 C 257.368 0.381402 2.07626 0
M  V30 2673 O 256.716 -0.629999 2.19643 0
M  V30 2674 C 256.926 2.92664 1.90128 0
M  V30 2675 C 258.274 3.46526 2.45367 0
M  V30 2676 O 259.298 2.94562 2.0028 0
M  V30 2677 O 258.157 4.37323 3.27736 0
M  V30 2678 H 255.251 0.639855 0.523941 0
M  V30 2679 H 257.797 1.65149 0.390389 0
M  V30 2680 H 256.569 3.71788 1.22022 0
M  V30 2681 H 256.192 2.89527 2.72507 0
M  V30 2682 N 257.189 -0.644168 1.43834 0
M  V30 2683 C 258.466 -1.40188 1.36406 0
M  V30 2684 C 258.846 -2.11094 0.0163124 0
M  V30 2685 O 258.194 -2.05426 -1.00062 0
M  V30 2686 C 258.404 -2.3791 2.55343 0
M  V30 2687 C 259.752 -3.01637 2.98832 0
M  V30 2688 O 260.776 -2.48237 2.55455 0
M  V30 2689 O 259.635 -3.98477 3.74003 0
M  V30 2690 H 256.729 -0.626773 0.539523 0
M  V30 2691 H 259.275 -0.670317 1.559 0
M  V30 2692 H 258.047 -1.84525 3.4506 0
M  V30 2693 H 257.67 -3.18503 2.37995 0
M  V30 2694 N 258.668 -1.30515 -0.883378 0
M  V30 2695 C 259.578 -1.18959 -2.02203 0
M  V30 2696 C 260.594 -0.109172 -1.73657 0
M  V30 2697 O 261.77 -0.324413 -1.9877 0
M  V30 2698 C 258.835 -0.883871 -3.35244 0
M  V30 2699 C 257.896 -2.04982 -3.77201 0
M  V30 2700 C 257.129 -1.75859 -5.03894 0
M  V30 2701 O 257.352 -0.687276 -5.66244 0
M  V30 2702 O 256.286 -2.61146 -5.42297 0
M  V30 2703 H 260.112 -2.14616 -2.1488 0
M  V30 2704 H 257.697 -1.10124 -1.0096 0
M  V30 2705 H 259.579 -0.728644 -4.15053 0
M  V30 2706 H 258.254 0.0427798 -3.23672 0
M  V30 2707 H 257.161 -2.26038 -2.9809 0
M  V30 2708 H 258.494 -2.95825 -3.93381 0
M  V30 2709 N 260.146 1.09593 -1.13257 0
M  V30 2710 C 261.056 2.19739 -0.821691 0
M  V30 2711 C 262.072 1.72926 0.19302 0
M  V30 2712 O 263.248 2.01385 0.0244895 0
M  V30 2713 C 260.313 3.45482 -0.290333 0
M  V30 2714 C 259.374 4.06985 -1.36607 0
M  V30 2715 C 258.607 5.26726 -0.859975 0
M  V30 2716 O 258.83 5.69594 0.303082 0
M  V30 2717 O 257.764 5.7931 -1.63351 0
M  V30 2718 H 261.59 2.48781 -1.74189 0
M  V30 2719 H 259.175 1.18496 -0.909894 0
M  V30 2720 H 261.057 4.214 0.000674022 0
M  V30 2721 H 259.732 3.18047 0.602306 0
M  V30 2722 H 258.639 3.32712 -1.71037 0
M  V30 2723 H 259.972 4.38643 -2.23279 0
M  V30 2724 N 261.624 0.925811 1.2754 0
M  V30 2725 C 262.852 0.581509 1.9856 0
M  V30 2726 C 263.267 -0.840041 1.69082 0
M  V30 2727 O 262.624 -1.55805 0.950312 0
M  V30 2728 C 262.675 0.795589 3.52637 0
M  V30 2729 O 262.396 2.16121 3.81082 0
M  V30 2730 C 263.897 0.459744 4.4091 0
M  V30 2731 H 261.117 0.220538 0.633722 0
M  V30 2732 H 263.661 1.24232 1.6244 0
M  V30 2733 H 261.816 0.18161 3.86974 0
M  V30 2734 H 262.23 2.2098 4.75676 0
M  V30 2735 H 263.704 0.660244 5.48037 0
M  V30 2736 H 264.181 -0.604625 4.35018 0
M  V30 2737 H 264.787 1.05178 4.12089 0
M  V30 2738 N 263.102 -1.41638 0.69111 0
M  V30 2739 C 264.065 -2.29178 0.0319786 0
M  V30 2740 C 265.065 -1.44153 -0.712496 0
M  V30 2741 O 266.255 -1.65354 -0.548053 0
M  V30 2742 C 263.387 -3.26952 -0.965161 0
M  V30 2743 H 264.58 -2.88959 0.802681 0
M  V30 2744 H 262.133 -1.4955 0.454356 0
M  V30 2745 H 262.868 -2.72142 -1.76378 0
M  V30 2746 H 262.653 -3.89685 -0.434522 0
M  V30 2747 H 264.143 -3.92561 -1.42428 0
M  V30 2748 N 264.58 -0.43555 -1.51462 0
M  V30 2749 C 265.991 0.0279871 -1.86679 0
M  V30 2750 C 266.342 1.42104 -1.35281 0
M  V30 2751 O 265.467 2.04667 -0.702878 0
M  V30 2752 C 266.062 0.0575626 -3.38751 0
M  V30 2753 C 264.621 0.465507 -3.7351 0
M  V30 2754 C 263.768 -0.342996 -2.75171 0
M  V30 2755 H 266.719 -0.651473 -1.44712 0
M  V30 2756 H 266.74 0.867421 -3.70481 0
M  V30 2757 H 266.252 -0.956448 -3.7613 0
M  V30 2758 H 264.353 1.48519 -3.41721 0
M  V30 2759 H 264.466 0.191546 -4.78717 0
M  V30 2760 H 262.83 0.198442 -2.53926 0
M  V30 2761 H 263.613 -1.35585 -3.15391 0
M  V30 2762 N 266.058 1.56714 -0.166846 0
M  V30 2763 C 267.469 1.83378 0.350646 0
M  V30 2764 C 267.82 1.08646 1.63372 0
M  V30 2765 O 266.945 0.338058 2.13743 0
M  V30 2766 C 267.54 3.32643 0.642963 0
M  V30 2767 C 266.099 3.59818 1.10491 0
M  V30 2768 C 265.246 2.76954 0.138411 0
M  V30 2769 H 268.197 1.53803 -0.391193 0
M  V30 2770 H 268.218 3.49878 1.49551 0
M  V30 2771 H 267.73 3.87007 -0.291055 0
M  V30 2772 H 265.831 3.1086 2.05418 0
M  V30 2773 H 265.944 4.68178 1.01716 0
M  V30 2774 H 264.308 2.4666 0.634911 0
M  V30 2775 H 265.091 3.34097 -0.789549 0
M  V30 2776 N 267.536 -0.106894 1.57237 0
M  V30 2777 C 268.782 -0.81373 1.85759 0
M  V30 2778 C 269.115 -1.78952 0.754315 0
M  V30 2779 O 268.39 -1.93029 -0.23879 0
M  V30 2780 C 268.673 -1.55293 3.24894 0
M  V30 2781 C 268.526 -0.595929 4.45835 0
M  V30 2782 C 269.845 -2.5063 3.61763 0
M  V30 2783 H 266.964 -0.294369 0.67566 0
M  V30 2784 H 269.606 -0.0776472 1.89841 0
M  V30 2785 H 267.756 -2.1804 3.21544 0
M  V30 2786 H 269.428 0.0236262 4.61294 0
M  V30 2787 H 267.671 0.0916191 4.33703 0
M  V30 2788 H 268.342 -1.15004 5.39887 0
M  V30 2789 H 270.818 -1.97982 3.65981 0
M  V30 2790 H 269.694 -2.99376 4.60071 0
M  V30 2791 H 269.955 -3.3385 2.89821 0
M  V30 2792 N 269.014 -1.53014 -0.377408 0
M  V30 2793 C 270.263 -1.67845 -1.11853 0
M  V30 2794 C 270.576 -0.430625 -1.90801 0
M  V30 2795 O 271.782 -0.459261 -2.67587 0
M  V30 2796 C 270.238 -2.96668 -2.03756 0
M  V30 2797 C 269.846 -4.28671 -1.30175 0
M  V30 2798 C 271.59 -3.20865 -2.77932 0
M  V30 2799 C 269.497 -5.48591 -2.20911 0
M  V30 2800 H 268.427 -0.625343 -0.421263 0
M  V30 2801 H 271.078 -1.79514 -0.380409 0
M  V30 2802 H 269.46 -2.78773 -2.8125 0
M  V30 2803 H 270.634 -4.57157 -0.578259 0
M  V30 2804 H 268.949 -4.10825 -0.679108 0
M  V30 2805 H 271.546 -4.07642 -3.46024 0
M  V30 2806 H 271.889 -2.36424 -3.4265 0
M  V30 2807 H 272.422 -3.39379 -2.07525 0
M  V30 2808 H 269.161 -6.35474 -1.6079 0
M  V30 2809 H 268.681 -5.244 -2.91144 0
M  V30 2810 H 270.36 -5.8292 -2.80736 0
M  V30 2811 N 270.492 0.636531 -1.44174 0
M  V30 2812 C 271.455 1.73063 -1.50273 0
M  V30 2813 C 272.455 1.56113 -0.385397 0
M  V30 2814 O 273.645 1.61707 -0.64781 0
M  V30 2815 C 270.777 3.12096 -1.37145 0
M  V30 2816 H 271.97 1.69031 -2.47727 0
M  V30 2817 H 269.523 0.849706 -1.31186 0
M  V30 2818 H 270.258 3.21728 -0.407636 0
M  V30 2819 H 270.043 3.25805 -2.18159 0
M  V30 2820 H 271.533 3.91846 -1.44382 0
M  V30 2821 N 271.97 1.30982 0.876444 0
M  V30 2822 C 273.381 1.18277 1.44456 0
M  V30 2823 C 273.732 -0.213265 1.95037 0
M  V30 2824 O 272.857 -1.11057 1.85729 0
M  V30 2825 C 273.452 2.1411 2.62569 0
M  V30 2826 C 272.011 2.05358 3.15444 0
M  V30 2827 C 271.158 2.03706 1.88146 0
M  V30 2828 H 274.109 1.43127 0.685584 0
M  V30 2829 H 274.13 1.72692 3.39054 0
M  V30 2830 H 273.642 3.15706 2.25724 0
M  V30 2831 H 271.743 1.06934 3.56926 0
M  V30 2832 H 271.856 2.94156 3.78166 0
M  V30 2833 H 270.22 1.48629 2.06837 0
M  V30 2834 H 271.003 3.07047 1.53547 0
M  V30 2835 N 273.449 -1.08991 1.13837 0
M  V30 2836 C 274.865 -1.33312 0.877506 0
M  V30 2837 C 275.065 -1.95587 -0.48456 0
M  V30 2838 O 274.121 -2.20509 -1.23013 0
M  V30 2839 C 275.434 -2.24045 2.0056 0
M  V30 2840 C 276.982 -2.37542 2.03821 0
M  V30 2841 C 277.457 -3.31614 3.15905 0
M  V30 2842 N 278.948 -3.39189 3.15445 0
M  V30 2843 C 279.683 -4.11992 3.98811 0
M  V30 2844 N 279.179 -4.87553 4.92203 0
M  V30 2845 N 280.972 -4.07762 3.86894 0
M  V30 2846 H 273.123 -0.669456 2.01574 0
M  V30 2847 H 275.386 -0.357482 0.878015 0
M  V30 2848 H 275.092 -1.85521 2.98789 0
M  V30 2849 H 274.966 -3.24466 1.92359 0
M  V30 2850 H 277.353 -2.75327 1.06202 0
M  V30 2851 H 277.434 -1.36884 2.16093 0
M  V30 2852 H 277.078 -2.94551 4.13766 0
M  V30 2853 H 277.008 -4.32186 3.0087 0
M  V30 2854 H 279.499 -2.85314 2.47799 0
M  V30 2855 H 279.812 -5.40549 5.52292 0
M  V30 2856 H 278.157 -4.86627 4.96205 0
M  V30 2857 H 281.348 -3.47833 3.13257 0
M  V30 2858 H 281.521 -4.64238 4.52092 0
M  V30 2859 N 274.927 -0.932562 -1.27047 0
M  V30 2860 C 276.338 -0.619451 -1.76124 0
M  V30 2861 C 276.689 0.865397 -1.76083 0
M  V30 2862 O 275.814 1.67722 -1.36742 0
M  V30 2863 C 276.409 -1.11771 -3.19832 0
M  V30 2864 C 274.968 -0.855174 -3.66557 0
M  V30 2865 C 274.115 -1.27362 -2.46321 0
M  V30 2866 H 277.066 -1.11181 -1.13245 0
M  V30 2867 H 277.087 -0.46759 -3.77616 0
M  V30 2868 H 276.599 -2.19842 -3.1983 0
M  V30 2869 H 274.7 0.211524 -3.71999 0
M  V30 2870 H 274.813 -1.47613 -4.55793 0
M  V30 2871 H 273.177 -0.692119 -2.45116 0
M  V30 2872 H 273.96 -2.36307 -2.49025 0
M  V30 2873 N 276.405 1.4127 -0.698611 0
M  V30 2874 C 277.682 1.94955 -0.158762 0
M  V30 2875 C 278.062 1.63781 1.33188 0
M  V30 2876 O 277.41 0.946423 2.07979 0
M  V30 2877 C 277.62 3.46044 -0.453309 0
M  V30 2878 C 278.968 4.22872 -0.382707 0
M  V30 2879 O 279.992 3.54076 -0.388396 0
M  V30 2880 O 278.851 5.45407 -0.345463 0
M  V30 2881 H 275.945 0.82683 -0.0167505 0
M  V30 2882 H 278.491 1.50971 -0.77498 0
M  V30 2883 H 277.263 3.62028 -1.48498 0
M  V30 2884 H 276.886 3.97128 0.19373 0
M  V30 2885 N 277.883 0.443576 1.51229 0
M  V30 2886 C 278.833 -0.382787 2.24764 0
M  V30 2887 C 279.817 -0.984836 1.27239 0
M  V30 2888 O 281.009 -0.901943 1.52296 0
M  V30 2889 C 278.138 -1.47989 3.09765 0
M  V30 2890 C 277.224 -0.886931 4.14722 0
M  V30 2891 N 277.615 -0.0237103 5.05794 0
M  V30 2892 C 275.913 -1.15385 4.30816 0
M  V30 2893 C 276.614 0.309971 5.80874 0
M  V30 2894 N 275.59 -0.307989 5.42727 0
M  V30 2895 H 279.392 0.282624 2.92538 0
M  V30 2896 H 276.906 0.256027 1.60369 0
M  V30 2897 H 278.903 -2.08482 3.61027 0
M  V30 2898 H 277.563 -2.14758 2.43535 0
M  V30 2899 H 278.574 0.34318 5.16762 0
M  V30 2900 H 275.251 -1.81857 3.75812 0
M  V30 2901 H 276.641 1.01279 6.64223 0
M  V30 2902 N 279.361 -1.56624 0.175154 0
M  V30 2903 C 280.589 -2.01374 -0.474971 0
M  V30 2904 C 281.004 -1.05537 -1.56548 0
M  V30 2905 O 280.361 -0.0568668 -1.82411 0
M  V30 2906 C 280.412 -3.45923 -1.04975 0
M  V30 2907 O 280.133 -4.381 -0.00276605 0
M  V30 2908 C 281.634 -4.06093 -1.77773 0
M  V30 2909 H 278.854 -0.659962 -0.121206 0
M  V30 2910 H 281.398 -2.02601 0.27801 0
M  V30 2911 H 279.553 -3.45458 -1.75321 0
M  V30 2912 H 279.967 -5.22753 -0.427681 0
M  V30 2913 H 281.441 -5.09147 -2.13245 0
M  V30 2914 H 281.918 -3.48405 -2.67414 0
M  V30 2915 H 282.524 -4.10272 -1.12059 0
M  V30 2916 N 280.839 0.0985539 -1.57292 0
M  V30 2917 C 281.786 1.11981 -2.01814 0
M  V30 2918 C 282.756 1.39999 -0.89384 0
M  V30 2919 O 283.941 1.5152 -1.15958 0
M  V30 2920 C 281.081 2.43577 -2.44467 0
M  V30 2921 C 280.194 2.2232 -3.70402 0
M  V30 2922 C 279.329 3.4729 -4.01949 0
M  V30 2923 C 278.368 3.2128 -5.21005 0
M  V30 2924 N 277.505 4.38507 -5.48321 0
M  V30 2925 H 282.345 0.733149 -2.88841 0
M  V30 2926 H 279.882 0.350482 -1.42864 0
M  V30 2927 H 281.84 3.20373 -2.6724 0
M  V30 2928 H 280.47 2.80097 -1.60455 0
M  V30 2929 H 279.522 1.36343 -3.55126 0
M  V30 2930 H 280.834 1.99089 -4.57345 0
M  V30 2931 H 279.988 4.32495 -4.25479 0
M  V30 2932 H 278.727 3.73572 -3.13521 0
M  V30 2933 H 277.732 2.34468 -4.97298 0
M  V30 2934 H 278.957 2.96348 -6.11028 0
M  V30 2935 H 276.903 4.64871 -4.62851 0
M  V30 2936 H 276.82 4.18455 -6.29628 0
M  V30 2937 H 278.088 5.24787 -5.76385 0
M  V30 2938 N 282.317 1.53212 0.369288 0
M  V30 2939 C 283.542 1.73423 1.1375 0
M  V30 2940 C 283.967 0.460404 1.82378 0
M  V30 2941 O 283.325 -0.585298 1.71592 0
M  V30 2942 C 283.373 2.89769 2.1463 0
M  V30 2943 O 282.477 2.58119 3.21634 0
M  V30 2944 H 281.818 0.576061 0.330227 0
M  V30 2945 H 284.348 2.00083 0.427547 0
M  V30 2946 H 284.358 3.15829 2.58294 0
M  V30 2947 H 283.033 3.8217 1.64071 0
M  V30 2948 H 281.61 2.42864 2.82969 0
M  V30 2949 N 283.795 -0.628877 1.44509 0
M  V30 2950 C 285.044 -1.38437 1.4669 0
M  V30 2951 C 285.357 -1.95322 0.104272 0
M  V30 2952 O 286.563 -2.715 0.00362163 0
M  V30 2953 C 285.019 -2.50659 2.5826 0
M  V30 2954 C 284.627 -2.00277 4.0074 0
M  V30 2955 C 286.371 -3.27844 2.69664 0
M  V30 2956 C 284.278 -3.09854 5.0373 0
M  V30 2957 H 283.208 -0.520245 0.545766 0
M  V30 2958 H 285.859 -0.676313 1.70582 0
M  V30 2959 H 284.241 -3.2405 2.27612 0
M  V30 2960 H 285.415 -1.33736 4.40966 0
M  V30 2961 H 283.73 -1.35901 3.93599 0
M  V30 2962 H 286.327 -4.09534 3.43781 0
M  V30 2963 H 286.67 -3.77471 1.75559 0
M  V30 2964 H 287.203 -2.61543 2.99733 0
M  V30 2965 H 283.942 -2.65168 5.99472 0
M  V30 2966 H 283.462 -3.7503 4.68095 0
M  V30 2967 H 285.141 -3.74592 5.27532 0
M  V30 2968 N 285.273 -1.31445 -0.869486 0
M  V30 2969 C 286.503 -1.23942 -1.65294 0
M  V30 2970 C 286.911 0.197561 -1.88166 0
M  V30 2971 O 286.254 1.14019 -1.44033 0
M  V30 2972 C 286.316 -1.91385 -3.04322 0
M  V30 2973 C 285.98 -3.40726 -3.04557 0
M  V30 2974 C 286.977 -4.36464 -2.82481 0
M  V30 2975 C 284.662 -3.82425 -3.25663 0
M  V30 2976 C 286.656 -5.71876 -2.8149 0
M  V30 2977 C 284.343 -5.1795 -3.243 0
M  V30 2978 C 285.341 -6.12486 -3.02241 0
M  V30 2979 O 285.029 -7.45534 -3.00724 0
M  V30 2980 H 284.761 -0.429459 -0.522054 0
M  V30 2981 H 287.315 -1.73873 -1.0935 0
M  V30 2982 H 285.545 -1.36004 -3.61994 0
M  V30 2983 H 287.234 -1.77791 -3.64891 0
M  V30 2984 H 288 -4.05576 -2.65956 0
M  V30 2985 H 283.879 -3.09274 -3.41863 0
M  V30 2986 H 287.423 -6.45638 -2.64191 0
M  V30 2987 H 283.32 -5.48473 -3.40365 0
M  V30 2988 H 284.088 -7.54713 -3.16782 0
M  V30 2989 N 286.751 1.08385 -1.14413 0
M  V30 2990 C 287.979 1.84517 -0.936001 0
M  V30 2991 C 288.394 1.81626 0.515503 0
M  V30 2992 O 287.751 1.22008 1.35721 0
M  V30 2993 C 287.802 3.32049 -1.42918 0
M  V30 2994 O 287.523 3.34951 -2.82381 0
M  V30 2995 C 289.024 4.24986 -1.26103 0
M  V30 2996 H 286.244 0.582491 -0.333084 0
M  V30 2997 H 288.788 1.36885 -1.5193 0
M  V30 2998 H 286.943 3.7707 -0.888641 0
M  V30 2999 H 287.357 4.27048 -3.04517 0
M  V30 3000 H 288.831 5.26615 -1.6547 0
M  V30 3001 H 289.308 4.38726 -0.20392 0
M  V30 3002 H 289.914 3.85791 -1.79012 0
M  V30 3003 N 288.23 0.939286 1.26551 0
M  V30 3004 C 289.646 0.641304 1.46149 0
M  V30 3005 C 289.846 -0.805964 1.84679 0
M  V30 3006 O 288.902 -1.58278 1.96734 0
M  V30 3007 C 290.215 1.6011 2.54529 0
M  V30 3008 C 291.763 1.6106 2.68382 0
M  V30 3009 C 292.238 2.55765 3.79932 0
M  V30 3010 N 293.729 2.5404 3.87322 0
M  V30 3011 C 294.464 3.24004 4.73085 0
M  V30 3012 N 293.96 4.03388 5.63249 0
M  V30 3013 N 295.753 3.12965 4.66914 0
M  V30 3014 H 287.904 1.87478 0.998285 0
M  V30 3015 H 290.167 0.805559 0.499779 0
M  V30 3016 H 289.873 2.63412 2.33039 0
M  V30 3017 H 289.747 1.35171 3.52149 0
M  V30 3018 H 292.134 0.584835 2.89247 0
M  V30 3019 H 292.215 1.90053 1.71212 0
M  V30 3020 H 291.859 3.58458 3.5982 0
M  V30 3021 H 291.789 2.24063 4.76554 0
M  V30 3022 H 294.28 1.96396 3.22858 0
M  V30 3023 H 294.593 4.5373 6.25579 0
M  V30 3024 H 292.938 4.07489 5.63008 0
M  V30 3025 H 296.129 2.50432 3.95476 0
M  V30 3026 H 296.302 3.67759 5.33533 0
M  V30 3027 N 289.708 -1.40897 0.706093 0
M  V30 3028 C 290.933 -2.05895 0.249435 0
M  V30 3029 C 291.358 -1.52823 -1.09666 0
M  V30 3030 O 290.716 -0.659589 -1.68876 0
M  V30 3031 C 290.764 -3.59872 0.22904 0
M  V30 3032 O 289.868 -4.04708 -0.792784 0
M  V30 3033 H 289.209 -0.653206 0.119241 0
M  V30 3034 H 291.739 -1.80471 0.96391 0
M  V30 3035 H 291.749 -4.07951 0.0634791 0
M  V30 3036 H 290.424 -3.97866 1.21141 0
M  V30 3037 H 289.001 -3.68111 -0.59572 0
M  V30 3038 N 291.186 -0.45159 -1.50991 0
M  V30 3039 C 292.432 0.110237 -2.025 0
M  V30 3040 C 292.765 1.41109 -1.33424 0
M  V30 3041 O 292.04 1.89135 -0.453659 0
M  V30 3042 C 292.323 0.314271 -3.58726 0
M  V30 3043 C 292.176 -1.00623 -4.38401 0
M  V30 3044 C 293.495 1.07767 -4.26702 0
M  V30 3045 H 290.614 0.0385897 -0.735989 0
M  V30 3046 H 293.256 -0.593374 -1.80497 0
M  V30 3047 H 291.406 0.913601 -3.77605 0
M  V30 3048 H 293.078 -1.64064 -4.31139 0
M  V30 3049 H 291.321 -1.6075 -4.02917 0
M  V30 3050 H 291.992 -0.817341 -5.45915 0
M  V30 3051 H 294.468 0.56986 -4.12179 0
M  V30 3052 H 293.344 1.18921 -5.35863 0
M  V30 3053 H 293.605 2.10939 -3.88532 0
M  V30 3054 N 292.664 1.56529 -0.183458 0
M  V30 3055 C 293.913 1.96419 0.458511 0
M  V30 3056 C 294.226 1.0727 1.63562 0
M  V30 3057 O 295.432 1.36893 2.34462 0
M  V30 3058 C 293.888 3.49298 0.867122 0
M  V30 3059 C 293.496 4.47092 -0.285057 0
M  V30 3060 C 295.24 3.97983 1.47683 0
M  V30 3061 C 293.147 5.91225 0.143862 0
M  V30 3062 H 292.077 0.733394 0.175071 0
M  V30 3063 H 294.728 1.81448 -0.273624 0
M  V30 3064 H 293.11 3.59731 1.65559 0
M  V30 3065 H 294.284 4.48383 -1.0625 0
M  V30 3066 H 292.599 4.08535 -0.805503 0
M  V30 3067 H 295.196 5.03134 1.80999 0
M  V30 3068 H 295.539 3.41618 2.37914 0
M  V30 3069 H 296.072 3.90617 0.752562 0
M  V30 3070 H 292.811 6.5149 -0.723974 0
M  V30 3071 H 292.331 5.93214 0.886413 0
M  V30 3072 H 294.01 6.44362 0.583628 0
M  V30 3073 N 294.142 -0.090211 1.57342 0
M  V30 3074 C 295.419 -0.824761 1.77361 0
M  V30 3075 C 295.799 -1.96698 0.76637 0
M  V30 3076 O 295.147 -2.27586 -0.204179 0
M  V30 3077 C 295.357 -1.31481 3.23286 0
M  V30 3078 C 296.705 -1.75563 3.86604 0
M  V30 3079 O 297.729 -1.41093 3.27065 0
M  V30 3080 O 296.588 -2.39317 4.91314 0
M  V30 3081 H 293.682 -0.393776 0.727234 0
M  V30 3082 H 296.228 -0.0717138 1.69548 0
M  V30 3083 H 295 -0.496671 3.88135 0
M  V30 3084 H 294.623 -2.12973 3.35751 0
M  V30 3085 N 295.62 -1.53406 -0.361157 0
M  V30 3086 C 297.031 -1.61442 -0.937728 0
M  V30 3087 C 297.382 -0.48461 -1.90121 0
M  V30 3088 O 296.507 0.388312 -2.12888 0
M  V30 3089 C 297.102 -2.92624 -1.70753 0
M  V30 3090 C 295.661 -3.02981 -2.23337 0
M  V30 3091 C 294.808 -2.5677 -1.04712 0
M  V30 3092 H 297.759 -1.58083 -0.139816 0
M  V30 3093 H 297.78 -2.80675 -2.56908 0
M  V30 3094 H 297.292 -3.74834 -1.00604 0
M  V30 3095 H 295.393 -2.25368 -2.96715 0
M  V30 3096 H 295.506 -4.0814 -2.50916 0
M  V30 3097 H 293.87 -2.11752 -1.41539 0
M  V30 3098 H 294.653 -3.41402 -0.360539 0
M  V30 3099 N 297.098 0.621204 -1.44841 0
M  V30 3100 C 298.344 1.3826 -1.48365 0
M  V30 3101 C 298.677 1.93831 -0.119624 0
M  V30 3102 O 297.952 1.74251 0.864111 0
M  V30 3103 C 298.235 2.54058 -2.55199 0
M  V30 3104 C 298.088 2.03772 -4.00995 0
M  V30 3105 C 299.407 3.56225 -2.58442 0
M  V30 3106 H 296.526 0.501374 -0.540179 0
M  V30 3107 H 299.168 0.7015 -1.76576 0
M  V30 3108 H 297.318 3.12162 -2.31274 0
M  V30 3109 H 298.99 1.50423 -4.36086 0
M  V30 3110 H 297.233 1.34876 -4.12299 0
M  V30 3111 H 297.904 2.87185 -4.71411 0
M  V30 3112 H 300.38 3.07939 -2.79844 0
M  V30 3113 H 299.256 4.34756 -3.3508 0
M  V30 3114 H 299.517 4.10949 -1.63013 0
M  V30 3115 N 298.576 1.31904 0.862503 0
M  V30 3116 C 299.987 1.19803 1.43193 0
M  V30 3117 C 300.338 -0.192567 1.95253 0
M  V30 3118 O 299.463 -1.09081 1.86896 0
M  V30 3119 C 300.058 2.16883 2.60283 0
M  V30 3120 C 298.617 2.08692 3.13248 0
M  V30 3121 C 297.764 2.05691 1.85975 0
M  V30 3122 H 300.715 1.43846 0.670365 0
M  V30 3123 H 300.736 1.76278 3.37204 0
M  V30 3124 H 300.248 3.18083 2.22363 0
M  V30 3125 H 298.349 1.10713 3.55771 0
M  V30 3126 H 298.462 2.9815 3.75025 0
M  V30 3127 H 296.826 1.50814 2.05249 0
M  V30 3128 H 297.609 3.08659 1.50282 0
M  V30 3129 N 300.054 -1.07777 1.14986 0
M  V30 3130 C 301.017 -2.13041 0.845358 0
M  V30 3131 C 302.017 -1.60071 -0.152931 0
M  V30 3132 O 303.207 -1.74033 0.0761879 0
M  V30 3133 C 300.339 -3.39896 0.261383 0
M  V30 3134 H 301.532 -2.41485 1.77834 0
M  V30 3135 H 299.085 -1.23595 0.956757 0
M  V30 3136 H 299.82 -3.17091 -0.68 0
M  V30 3137 H 299.605 -3.79642 0.980514 0
M  V30 3138 H 301.095 -4.17548 0.0657687 0
M  V30 3139 N 301.532 -0.945985 -1.26051 0
M  V30 3140 C 302.943 -0.638096 -1.75457 0
M  V30 3141 C 303.294 0.846672 -1.76991 0
M  V30 3142 O 302.419 1.66262 -1.38513 0
M  V30 3143 C 303.014 -1.15157 -3.18629 0
M  V30 3144 C 301.573 -0.894004 -3.65629 0
M  V30 3145 C 300.72 -1.29967 -2.44957 0
M  V30 3146 H 303.671 -1.12376 -1.1206 0
M  V30 3147 H 303.692 -0.507615 -3.77099 0
M  V30 3148 H 303.204 -2.23222 -3.1748 0
M  V30 3149 H 301.305 0.172057 -3.72203 0
M  V30 3150 H 301.418 -1.52439 -4.54202 0
M  V30 3151 H 299.782 -0.718078 -2.44368 0
M  V30 3152 H 300.565 -2.38935 -2.46505 0
M  V30 3153 N 303.011 1.40521 -0.713556 0
M  V30 3154 C 304.257 2.01221 -0.252564 0
M  V30 3155 C 304.59 1.56444 1.1506 0
M  V30 3156 O 303.865 0.783597 1.78017 0
M  V30 3157 C 304.148 3.58582 -0.330332 0
M  V30 3158 C 304.001 4.13437 -1.77173 0
M  V30 3159 C 305.32 4.39079 0.299641 0
M  V30 3160 H 302.439 0.731077 -0.0932471 0
M  V30 3161 H 305.081 1.67026 -0.905673 0
M  V30 3162 H 303.231 3.87844 0.225737 0
M  V30 3163 H 304.903 3.9498 -2.38303 0
M  V30 3164 H 303.146 3.67801 -2.3001 0
M  V30 3165 H 303.817 5.22597 -1.77755 0
M  V30 3166 H 306.293 4.15735 -0.174139 0
M  V30 3167 H 305.169 5.4848 0.214771 0
M  V30 3168 H 305.43 4.19915 1.38288 0
M  V30 3169 N 304.489 0.459591 1.5075 0
M  V30 3170 C 305.737 -0.0991532 2.01857 0
M  V30 3171 C 306.058 -1.41247 1.34441 0
M  V30 3172 O 305.328 -1.89775 0.486022 0
M  V30 3173 H 303.908 -0.039633 0.745948 0
M  V30 3174 H 306.57 0.607387 1.85194 0
M  V30 3175 H 305.666 -0.258998 3.11023 0
M  V30 3176 N 305.967 -1.56429 0.191757 0
M  V30 3177 C 307.244 -1.89224 -0.495332 0
M  V30 3178 C 307.624 -1.10478 -1.79883 0
M  V30 3179 O 306.972 -0.204852 -2.2758 0
M  V30 3180 C 307.182 -3.41548 -0.717367 0
M  V30 3181 C 308.53 -4.11711 -1.03823 0
M  V30 3182 O 309.554 -3.4698 -0.805204 0
M  V30 3183 O 308.413 -5.2611 -1.47887 0
M  V30 3184 H 305.507 -0.785788 -0.25781 0
M  V30 3185 H 308.053 -1.68111 0.231721 0
M  V30 3186 H 306.825 -3.90772 0.203287 0
M  V30 3187 H 306.448 -3.68342 -1.497 0
M  V30 3188 N 307.445 0.0818655 -1.57387 0
M  V30 3189 C 308.67 0.799946 -1.91352 0
M  V30 3190 C 309.095 1.70833 -0.787258 0
M  V30 3191 O 308.453 1.79419 0.26048 0
M  V30 3192 C 308.501 1.57812 -3.24234 0
M  V30 3193 O 307.605 2.68806 -3.12757 0
M  V30 3194 H 306.946 0.21891 -0.626877 0
M  V30 3195 H 309.476 0.0531256 -2.04531 0
M  V30 3196 H 309.486 1.95952 -3.57864 0
M  V30 3197 H 308.161 0.911548 -4.05788 0
M  V30 3198 H 306.738 2.33597 -2.90666 0
M  V30 3199 N 308.923 1.53595 0.353017 0
M  V30 3200 C 309.873 1.77299 1.43349 0
M  V30 3201 C 310.857 0.627884 1.48143 0
M  V30 3202 O 312.049 0.88697 1.53173 0
M  V30 3203 C 309.178 1.97757 2.80619 0
M  V30 3204 C 308.264 3.18305 2.80254 0
M  V30 3205 N 308.655 4.39967 2.49526 0
M  V30 3206 C 306.953 3.19283 3.11407 0
M  V30 3207 C 307.654 5.21772 2.57156 0
M  V30 3208 N 306.63 4.58269 2.92388 0
M  V30 3209 H 310.432 2.68963 1.18474 0
M  V30 3210 H 307.946 1.52391 0.561306 0
M  V30 3211 H 309.943 2.1287 3.58458 0
M  V30 3212 H 308.603 1.07329 3.06448 0
M  V30 3213 H 309.614 4.67482 2.22893 0
M  V30 3214 H 306.291 2.3879 3.4247 0
M  V30 3215 H 307.681 6.2885 2.36638 0
M  V30 3216 N 310.401 -0.613514 1.45168 0
M  V30 3217 C 311.647 -1.37471 1.49096 0
M  V30 3218 C 311.98 -1.93765 0.129901 0
M  V30 3219 O 311.255 -1.74707 -0.854858 0
M  V30 3220 C 311.538 -2.52701 2.56542 0
M  V30 3221 C 311.391 -2.01643 4.0207 0
M  V30 3222 C 312.71 -3.54849 2.60327 0
M  V30 3223 H 309.829 -0.498502 0.54283 0
M  V30 3224 H 312.471 -0.692125 1.76945 0
M  V30 3225 H 310.621 -3.10931 2.32926 0
M  V30 3226 H 312.293 -1.48108 4.36877 0
M  V30 3227 H 310.536 -1.32688 4.13009 0
M  V30 3228 H 311.207 -2.84681 4.72928 0
M  V30 3229 H 313.683 -3.0645 2.81474 0
M  V30 3230 H 312.559 -4.32973 3.37381 0
M  V30 3231 H 312.82 -4.10079 1.6519 0
M  V30 3232 N 311.879 -1.3236 -0.855495 0
M  V30 3233 C 313.156 -1.13491 -1.59309 0
M  V30 3234 C 313.536 0.30503 -2.08885 0
M  V30 3235 O 312.884 1.30151 -1.87811 0
M  V30 3236 C 313.094 -2.16176 -2.73987 0
M  V30 3237 C 314.442 -2.49463 -3.43589 0
M  V30 3238 O 315.466 -2.14715 -2.84211 0
M  V30 3239 O 314.325 -3.09027 -4.50738 0
M  V30 3240 H 311.419 -0.437887 -0.701559 0
M  V30 3241 H 313.965 -1.43887 -0.899696 0
M  V30 3242 H 312.737 -3.1297 -2.34873 0
M  V30 3243 H 312.36 -1.86769 -3.51003 0
M  V30 3244 N 313.357 1.07166 -1.15556 0
M  V30 3245 C 314.605 1.79443 -0.929764 0
M  V30 3246 C 314.926 1.87246 0.544414 0
M  V30 3247 O 314.196 1.37473 1.39564 0
M  V30 3248 H 312.776 0.664625 -0.341003 0
M  V30 3249 H 315.438 1.29499 -1.45657 0
M  V30 3250 H 314.534 2.81832 -1.34079 0
M  V30 3251 N 314.835 0.952656 1.25548 0
M  V30 3252 C 315.798 0.475794 2.24207 0
M  V30 3253 C 316.798 -0.419428 1.55234 0
M  V30 3254 O 317.988 -0.216994 1.72843 0
M  V30 3255 C 315.12 -0.312814 3.39462 0
M  V30 3256 H 316.313 1.34779 2.67908 0
M  V30 3257 H 313.866 0.735739 1.37901 0
M  V30 3258 H 314.601 -1.20257 3.01179 0
M  V30 3259 H 314.386 0.329404 3.90714 0
M  V30 3260 H 315.876 -0.635986 4.12729 0
M  V30 3261 N 316.313 -1.40141 0.720998 0
M  V30 3262 C 317.276 -2.29058 0.0805834 0
M  V30 3263 C 318.276 -1.45632 -0.681758 0
M  V30 3264 O 319.466 -1.6648 -0.512856 0
M  V30 3265 C 316.598 -3.28925 -0.895593 0
M  V30 3266 H 317.791 -2.87191 0.863793 0
M  V30 3267 H 315.344 -1.48553 0.485975 0
M  V30 3268 H 316.079 -2.75822 -1.70566 0
M  V30 3269 H 315.864 -3.90519 -0.351766 0
M  V30 3270 H 317.354 -3.95494 -1.34069 0
M  V30 3271 N 317.792 -0.46758 -1.50504 0
M  V30 3272 C 318.739 0.328413 -2.28452 0
M  V30 3273 C 319.709 0.990313 -1.33349 0
M  V30 3274 O 320.894 1.00343 -1.62284 0
M  V30 3275 C 318.034 1.40648 -3.15138 0
M  V30 3276 C 317.147 0.759709 -4.25267 0
M  V30 3277 C 316.282 1.81537 -4.99217 0
M  V30 3278 C 315.321 1.14866 -6.01226 0
M  V30 3279 N 314.458 2.14702 -6.68467 0
M  V30 3280 H 319.298 -0.342603 -2.96024 0
M  V30 3281 H 316.835 -0.180801 -1.45985 0
M  V30 3282 H 318.793 2.04315 -3.63746 0
M  V30 3283 H 317.423 2.04671 -2.49619 0
M  V30 3284 H 316.475 0.0105671 -3.80399 0
M  V30 3285 H 317.787 0.233243 -4.98254 0
M  V30 3286 H 316.941 2.52793 -5.51526 0
M  V30 3287 H 315.68 2.37564 -4.25928 0
M  V30 3288 H 314.685 0.42171 -5.4818 0
M  V30 3289 H 315.91 0.595334 -6.76485 0
M  V30 3290 H 313.856 2.69752 -5.97972 0
M  V30 3291 H 313.773 1.6703 -7.37317 0
M  V30 3292 H 315.041 2.85348 -7.25394 0
M  V30 3293 N 319.27 1.56325 -0.20005 0
M  V30 3294 C 320.495 2.02548 0.44597 0
M  V30 3295 C 320.92 1.07922 1.5406 0
M  V30 3296 O 320.278 0.0635775 1.81188 0
M  V30 3297 C 320.326 3.47175 0.974761 0
M  V30 3298 O 319.43 3.55671 2.08739 0
M  V30 3299 H 318.771 0.655862 0.103638 0
M  V30 3300 H 321.301 2.02201 -0.312381 0
M  V30 3301 H 321.311 3.87067 1.2901 0
M  V30 3302 H 319.986 4.15538 0.17347 0
M  V30 3303 H 318.563 3.27657 1.78032 0
M  V30 3304 N 320.748 -0.0735177 1.57428 0
M  V30 3305 C 321.678 -1.0879 2.06608 0
M  V30 3306 C 322.659 -1.40473 0.959237 0
M  V30 3307 O 323.844 -1.5013 1.23185 0
M  V30 3308 C 320.974 -2.40183 2.50857 0
M  V30 3309 C 319.928 -2.22858 3.65402 0
M  V30 3310 C 319.254 -3.59619 3.957 0
M  V30 3311 C 320.554 -1.65123 4.95511 0
M  V30 3312 H 322.248 -0.678673 2.91607 0
M  V30 3313 H 319.794 -0.325013 1.40284 0
M  V30 3314 H 321.747 -3.11437 2.83874 0
M  V30 3315 H 320.471 -2.83083 1.62885 0
M  V30 3316 H 319.13 -1.54045 3.32664 0
M  V30 3317 H 318.778 -4.00086 3.04861 0
M  V30 3318 H 318.478 -3.48866 4.72828 0
M  V30 3319 H 320.002 -4.32306 4.31212 0
M  V30 3320 H 321.416 -2.26241 5.26771 0
M  V30 3321 H 319.813 -1.65071 5.7695 0
M  V30 3322 H 320.883 -0.612559 4.81015 0
M  V30 3323 N 322.226 -1.5378 -0.344866 0
M  V30 3324 C 323.503 -1.61589 -1.10219 0
M  V30 3325 C 323.883 -0.436316 -2.06542 0
M  V30 3326 O 323.231 0.571543 -2.21237 0
M  V30 3327 C 323.441 -2.97602 -1.82301 0
M  V30 3328 C 324.789 -3.5291 -2.36093 0
M  V30 3329 O 325.813 -2.99768 -1.924 0
M  V30 3330 O 324.672 -4.45859 -3.16026 0
M  V30 3331 H 321.766 -0.653522 -0.506792 0
M  V30 3332 H 324.312 -1.66126 -0.346465 0
M  V30 3333 H 323.084 -3.74893 -1.12121 0
M  V30 3334 H 322.707 -2.9665 -2.64735 0
M  V30 3335 N 323.704 0.605807 -1.45491 0
M  V30 3336 C 324.651 1.7164 -1.54299 0
M  V30 3337 C 325.621 1.61486 -0.388761 0
M  V30 3338 O 326.806 1.81039 -0.602445 0
M  V30 3339 C 323.946 3.09953 -1.51734 0
M  V30 3340 C 323.059 3.309 -2.77721 0
M  V30 3341 C 322.194 4.59329 -2.66816 0
M  V30 3342 C 321.233 4.7354 -3.87848 0
M  V30 3343 N 320.37 5.9327 -3.75467 0
M  V30 3344 H 325.21 1.63449 -2.49176 0
M  V30 3345 H 322.747 0.796957 -1.23641 0
M  V30 3346 H 324.705 3.89977 -1.48235 0
M  V30 3347 H 323.335 3.17098 -0.604068 0
M  V30 3348 H 322.387 2.44639 -2.913 0
M  V30 3349 H 323.699 3.37274 -3.67488 0
M  V30 3350 H 322.853 5.4755 -2.61292 0
M  V30 3351 H 321.592 4.55355 -1.74651 0
M  V30 3352 H 320.597 3.83741 -3.93729 0
M  V30 3353 H 321.822 4.79309 -4.81082 0
M  V30 3354 H 319.768 5.90338 -2.86072 0
M  V30 3355 H 319.685 6.00811 -4.5887 0
M  V30 3356 H 320.953 6.83984 -3.73879 0
M  V30 3357 N 325.182 1.32811 0.848464 0
M  V30 3358 C 326.114 1.18095 1.96433 0
M  V30 3359 C 327.127 0.114354 1.62398 0
M  V30 3360 O 328.316 0.363892 1.74751 0
M  V30 3361 C 325.416 0.786798 3.2964 0
M  V30 3362 C 324.589 1.943 3.91875 0
M  V30 3363 C 323.648 1.53138 5.03423 0
M  V30 3364 O 322.674 2.24432 5.23086 0
M  V30 3365 N 323.876 0.430915 5.78898 0
M  V30 3366 H 326.641 2.14218 2.09597 0
M  V30 3367 H 324.202 1.2543 1.02367 0
M  V30 3368 H 326.194 0.493715 4.01677 0
M  V30 3369 H 324.764 -0.0834541 3.12489 0
M  V30 3370 H 323.984 2.40224 3.12547 0
M  V30 3371 H 325.272 2.71689 4.30189 0
M  V30 3372 H 324.67 -0.162333 5.65467 0
M  V30 3373 H 323.227 0.197466 6.51501 0
M  V30 3374 N 326.66 -1.06551 1.16123 0
M  V30 3375 C 327.607 -2.13961 0.865414 0
M  V30 3376 C 328.577 -1.65066 -0.185055 0
M  V30 3377 O 329.762 -1.90732 -0.05083 0
M  V30 3378 C 326.902 -3.43113 0.369776 0
M  V30 3379 C 326.015 -4.05756 1.48276 0
M  V30 3380 C 325.15 -5.22773 0.942414 0
M  V30 3381 C 324.189 -5.77395 2.03179 0
M  V30 3382 N 323.326 -6.85731 1.50721 0
M  V30 3383 H 328.166 -2.38605 1.78527 0
M  V30 3384 H 325.703 -1.17072 0.890646 0
M  V30 3385 H 327.661 -4.17151 0.0640643 0
M  V30 3386 H 326.291 -3.18695 -0.513143 0
M  V30 3387 H 325.343 -3.29292 1.9045 0
M  V30 3388 H 326.655 -4.42351 2.30493 0
M  V30 3389 H 325.809 -6.03827 0.589729 0
M  V30 3390 H 324.548 -4.87618 0.0895191 0
M  V30 3391 H 323.553 -4.94981 2.3932 0
M  V30 3392 H 324.778 -6.14603 2.8886 0
M  V30 3393 H 322.724 -6.52499 0.676811 0
M  V30 3394 H 322.641 -7.21254 2.26557 0
M  V30 3395 H 323.909 -7.7047 1.18303 0
M  V30 3396 N 328.138 -0.959301 -1.25041 0
M  V30 3397 C 329.085 -0.482057 -2.2571 0
M  V30 3398 C 330.055 0.467939 -1.59372 0
M  V30 3399 O 331.24 0.380159 -1.86974 0
M  V30 3400 C 328.38 0.229623 -3.44335 0
M  V30 3401 C 327.493 -0.758156 -4.25295 0
M  V30 3402 C 326.628 -0.0234403 -5.31195 0
M  V30 3403 C 325.667 -1.00184 -6.03846 0
M  V30 3404 N 324.804 -0.29769 -7.01469 0
M  V30 3405 H 329.644 -1.34538 -2.65901 0
M  V30 3406 H 327.181 -0.674592 -1.3072 0
M  V30 3407 H 329.139 0.658856 -4.11965 0
M  V30 3408 H 327.769 1.05696 -3.05005 0
M  V30 3409 H 326.821 -1.30586 -3.57284 0
M  V30 3410 H 328.133 -1.50458 -4.75567 0
M  V30 3411 H 327.287 0.464201 -6.04922 0
M  V30 3412 H 326.026 0.755741 -4.81809 0
M  V30 3413 H 325.031 -1.50044 -5.2893 0
M  V30 3414 H 326.256 -1.78133 -6.55321 0
M  V30 3415 H 324.202 0.462668 -6.54366 0
M  V30 3416 H 324.119 -0.983128 -7.4958 0
M  V30 3417 H 325.387 0.16826 -7.79318 0
M  V30 3418 N 329.616 1.39756 -0.72842 0
M  V30 3419 C 330.563 2.30647 -0.0841519 0
M  V30 3420 C 331.533 1.48869 0.7367 0
M  V30 3421 O 332.718 1.77574 0.698015 0
M  V30 3422 C 329.858 3.35165 0.822091 0
M  V30 3423 C 328.971 4.31999 -0.0106663 0
M  V30 3424 C 328.106 5.23585 0.896241 0
M  V30 3425 C 327.145 6.12072 0.0583381 0
M  V30 3426 N 326.282 6.96035 0.920818 0
M  V30 3427 H 331.122 2.85173 -0.864891 0
M  V30 3428 H 328.659 1.40422 -0.438179 0
M  V30 3429 H 330.617 3.94345 1.36189 0
M  V30 3430 H 329.247 2.8211 1.56888 0
M  V30 3431 H 328.299 3.74492 -0.66781 0
M  V30 3432 H 329.611 4.9443 -0.658825 0
M  V30 3433 H 328.765 5.87759 1.50412 0
M  V30 3434 H 327.504 4.61459 1.57819 0
M  V30 3435 H 326.509 5.46916 -0.562389 0
M  V30 3436 H 327.734 6.76261 -0.6203 0
M  V30 3437 H 325.68 6.36485 1.58818 0
M  V30 3438 H 325.597 7.55284 0.32899 0
M  V30 3439 H 326.865 7.64646 1.51447 0
M  V30 3440 N 331.094 0.475555 1.50254 0
M  V30 3441 C 332.322 -0.0754493 2.06762 0
M  V30 3442 C 332.737 -1.33111 1.33891 0
M  V30 3443 O 332.094 -1.77846 0.40952 0
M  V30 3444 C 332.145 -0.359008 3.59713 0
M  V30 3445 O 331.866 0.846851 4.29837 0
M  V30 3446 C 333.367 -0.956484 4.32858 0
M  V30 3447 H 330.587 0.00907525 0.670939 0
M  V30 3448 H 333.131 0.665618 1.93364 0
M  V30 3449 H 331.286 -1.05001 3.72899 0
M  V30 3450 H 331.7 0.594162 5.21124 0
M  V30 3451 H 333.174 -1.10463 5.40834 0
M  V30 3452 H 333.651 -1.94775 3.93649 0
M  V30 3453 H 334.257 -0.303723 4.24214 0
M  V30 3454 N 332.573 -1.56217 0.208337 0
M  V30 3455 C 333.52 -2.19699 -0.707192 0
M  V30 3456 C 334.49 -1.14836 -1.20008 0
M  V30 3457 O 335.675 -1.4314 -1.26157 0
M  V30 3458 C 332.815 -2.87061 -1.91546 0
M  V30 3459 C 331.928 -4.06483 -1.46271 0
M  V30 3460 C 331.063 -4.61665 -2.62752 0
M  V30 3461 C 330.102 -5.73417 -2.14147 0
M  V30 3462 N 329.239 -6.22948 -3.23853 0
M  V30 3463 H 334.079 -2.97575 -0.159111 0
M  V30 3464 H 331.616 -1.46948 -0.0667874 0
M  V30 3465 H 333.574 -3.24294 -2.62468 0
M  V30 3466 H 332.204 -2.11725 -2.43664 0
M  V30 3467 H 331.256 -3.74825 -0.648886 0
M  V30 3468 H 332.568 -4.87271 -1.06622 0
M  V30 3469 H 331.722 -5.01272 -3.41776 0
M  V30 3470 H 330.461 -3.80013 -3.05682 0
M  V30 3471 H 329.466 -5.33326 -1.33581 0
M  V30 3472 H 330.691 -6.56897 -1.72232 0
M  V30 3473 H 328.637 -5.44213 -3.6629 0
M  V30 3474 H 328.554 -6.98823 -2.88414 0
M  V30 3475 H 329.822 -6.6721 -4.03052 0
M  V30 3476 N 334.051 0.0651679 -1.57465 0
M  V30 3477 C 334.984 1.10876 -1.99453 0
M  V30 3478 C 335.962 1.37205 -0.872555 0
M  V30 3479 O 337.146 1.50468 -1.13542 0
M  V30 3480 C 334.273 2.45167 -2.3369 0
M  V30 3481 C 333.319 2.3493 -3.55964 0
M  V30 3482 S 334.152 1.73708 -5.06543 0
M  V30 3483 C 335.308 3.09563 -5.43987 0
M  V30 3484 H 335.541 0.750967 -2.87659 0
M  V30 3485 H 333.074 0.273933 -1.51951 0
M  V30 3486 H 335.032 3.22412 -2.54088 0
M  V30 3487 H 333.693 2.78105 -1.46001 0
M  V30 3488 H 332.886 3.3398 -3.77457 0
M  V30 3489 H 332.488 1.65823 -3.3523 0
M  V30 3490 H 334.78 4.05882 -5.42463 0
M  V30 3491 H 335.723 2.92843 -6.44708 0
M  V30 3492 H 336.131 3.10474 -4.71451 0
M  V30 3493 N 335.529 1.53961 0.336706 0
M  V30 3494 C 336.757 1.75483 1.09605 0
M  V30 3495 C 337.172 0.4972 1.82136 0
M  V30 3496 O 336.529 -0.53149 1.74589 0
M  V30 3497 C 336.58 2.93943 2.10428 0
M  V30 3498 O 336.301 4.14842 1.40846 0
M  V30 3499 C 337.802 3.27571 2.98684 0
M  V30 3500 H 335.022 0.586166 0.326574 0
M  V30 3501 H 337.566 2.00808 0.38683 0
M  V30 3502 H 335.721 2.70929 2.76905 0
M  V30 3503 H 336.135 4.81383 2.08255 0
M  V30 3504 H 337.609 4.13791 3.6535 0
M  V30 3505 H 338.086 2.44168 3.65074 0
M  V30 3506 H 338.692 3.52615 2.37787 0
M  V30 3507 N 337.007 -0.598083 1.45811 0
M  V30 3508 C 338.284 -1.35777 1.40797 0
M  V30 3509 C 338.664 -2.10935 0.083462 0
M  V30 3510 O 338.012 -2.08505 -0.934763 0
M  V30 3511 C 338.222 -2.29666 2.62783 0
M  V30 3512 C 339.57 -2.91977 3.08277 0
M  V30 3513 O 340.594 -2.39984 2.63223 0
M  V30 3514 O 339.453 -3.86376 3.86491 0
M  V30 3515 H 336.547 -0.609291 0.55919 0
M  V30 3516 H 339.093 -0.620379 1.57954 0
M  V30 3517 H 337.865 -1.73454 3.50756 0
M  V30 3518 H 337.488 -3.1077 2.48008 0
M  V30 3519 N 338.485 -1.33259 -0.841409 0
M  V30 3520 C 339.395 -1.25332 -1.98316 0
M  V30 3521 C 340.411 -0.164364 -1.73222 0
M  V30 3522 O 341.587 -0.387486 -1.97637 0
M  V30 3523 C 338.652 -0.990078 -3.32262 0
M  V30 3524 C 337.713 -2.16879 -3.70489 0
M  V30 3525 C 336.946 -1.91801 -4.98044 0
M  V30 3526 O 337.169 -0.867075 -5.63771 0
M  V30 3527 O 336.103 -2.78267 -5.33714 0
M  V30 3528 H 339.929 -2.21344 -2.07944 0
M  V30 3529 H 337.514 -1.1328 -0.974058 0
M  V30 3530 H 339.396 -0.860321 -4.12524 0
M  V30 3531 H 338.071 -0.0602155 -3.23644 0
M  V30 3532 H 336.978 -2.35407 -2.90748 0
M  V30 3533 H 338.311 -3.0819 -3.8377 0
M  V30 3534 N 339.963 1.05934 -1.16686 0
M  V30 3535 C 340.873 2.17014 -0.891183 0
M  V30 3536 C 341.889 1.73453 0.137907 0
M  V30 3537 O 343.065 2.01361 -0.039592 0
M  V30 3538 C 340.13 3.44384 -0.400099 0
M  V30 3539 C 339.191 4.02433 -1.49486 0
M  V30 3540 C 338.424 5.23723 -1.02711 0
M  V30 3541 O 338.647 5.7027 0.121716 0
M  V30 3542 O 337.581 5.7382 -1.81699 0
M  V30 3543 H 341.407 2.43113 -1.82015 0
M  V30 3544 H 338.992 1.15541 -0.947132 0
M  V30 3545 H 340.874 4.21189 -0.133392 0
M  V30 3546 H 339.549 3.19802 0.500817 0
M  V30 3547 H 338.456 3.27102 -1.81535 0
M  V30 3548 H 339.789 4.31317 -2.37121 0
M  V30 3549 N 341.441 0.965919 1.2453 0
M  V30 3550 C 342.69 0.622437 1.91856 0
M  V30 3551 C 343.003 -0.846006 1.76358 0
M  V30 3552 O 344.209 -1.29993 2.38357 0
M  V30 3553 C 342.665 1.0626 3.43856 0
M  V30 3554 C 342.273 2.55437 3.68043 0
M  V30 3555 C 344.017 0.792183 4.17043 0
M  V30 3556 C 341.924 2.93196 5.13605 0
M  V30 3557 H 340.854 0.229092 0.718354 0
M  V30 3558 H 343.505 1.17189 1.41206 0
M  V30 3559 H 341.887 0.441476 3.93531 0
M  V30 3560 H 343.061 3.22665 3.28974 0
M  V30 3561 H 341.376 2.8007 3.08139 0
M  V30 3562 H 343.973 1.05031 5.24283 0
M  V30 3563 H 344.316 -0.271584 4.15413 0
M  V30 3564 H 344.849 1.37419 3.73311 0
M  V30 3565 H 341.588 3.98636 5.20355 0
M  V30 3566 H 341.108 2.30651 5.53679 0
M  V30 3567 H 342.787 2.83004 5.81823 0
M  V30 3568 N 342.919 -1.39368 0.735821 0
M  V30 3569 C 343.852 -2.28155 0.0451175 0
M  V30 3570 C 344.83 -1.44433 -0.746852 0
M  V30 3571 O 346.014 -1.73823 -0.729237 0
M  V30 3572 C 343.141 -3.253 -0.943266 0
M  V30 3573 C 342.187 -4.25826 -0.239685 0
M  V30 3574 S 343.02 -5.25166 1.04693 0
M  V30 3575 C 344.176 -6.2587 0.0611639 0
M  V30 3576 H 344.409 -2.86388 0.79807 0
M  V30 3577 H 341.942 -1.45104 0.527653 0
M  V30 3578 H 343.9 -3.81789 -1.50824 0
M  V30 3579 H 342.561 -2.66085 -1.66906 0
M  V30 3580 H 341.754 -4.94229 -0.987596 0
M  V30 3581 H 341.356 -3.73141 0.253274 0
M  V30 3582 H 343.648 -6.73007 -0.778941 0
M  V30 3583 H 344.591 -7.04508 0.712362 0
M  V30 3584 H 344.999 -5.63639 -0.311602 0
M  V30 3585 N 344.397 -0.483516 -1.5 0
M  V30 3586 C 345.307 0.309172 -2.32554 0
M  V30 3587 C 346.323 0.984159 -1.43493 0
M  V30 3588 O 347.499 0.969399 -1.76535 0
M  V30 3589 C 344.564 1.36979 -3.18493 0
M  V30 3590 C 343.625 0.710095 -4.23387 0
M  V30 3591 C 342.858 1.72018 -5.05218 0
M  V30 3592 O 343.081 2.94813 -4.88305 0
M  V30 3593 O 342.015 1.28515 -5.8802 0
M  V30 3594 H 345.841 -0.366064 -3.01486 0
M  V30 3595 H 343.426 -0.24514 -1.47375 0
M  V30 3596 H 345.308 1.98385 -3.71781 0
M  V30 3597 H 343.983 2.02828 -2.52275 0
M  V30 3598 H 342.89 0.0567539 -3.74057 0
M  V30 3599 H 344.223 0.0943557 -4.9211 0
M  V30 3600 N 345.875 1.56104 -0.216619 0
M  V30 3601 C 346.822 2.2007 0.695531 0
M  V30 3602 C 347.792 1.15471 1.19397 0
M  V30 3603 O 348.977 1.43807 1.25396 0
M  V30 3604 C 346.117 2.88073 1.90021 0
M  V30 3605 C 345.23 4.07253 1.44113 0
M  V30 3606 C 344.365 4.63052 2.603 0
M  V30 3607 C 343.404 5.74545 2.11103 0
M  V30 3608 N 342.541 6.24656 3.20545 0
M  V30 3609 H 347.381 2.97655 0.143327 0
M  V30 3610 H 344.918 1.46982 0.0589934 0
M  V30 3611 H 346.876 3.25681 2.60745 0
M  V30 3612 H 345.506 2.13015 2.42538 0
M  V30 3613 H 344.558 3.75164 0.628999 0
M  V30 3614 H 345.87 4.8783 1.04036 0
M  V30 3615 H 345.024 5.03078 3.39113 0
M  V30 3616 H 343.763 3.81628 3.03663 0
M  V30 3617 H 342.768 5.34027 1.3075 0
M  V30 3618 H 343.993 6.57801 1.68746 0
M  V30 3619 H 341.939 5.46148 3.63399 0
M  V30 3620 H 341.856 7.00343 2.84704 0
M  V30 3621 H 343.124 6.69338 3.99508 0
M  V30 3622 N 347.353 -0.0568162 1.57498 0
M  V30 3623 C 348.283 -1.06593 2.0775 0
M  V30 3624 C 349.264 -1.39448 0.974082 0
M  V30 3625 O 350.449 -1.48815 1.24771 0
M  V30 3626 C 347.579 -2.37509 2.5339 0
M  V30 3627 C 346.533 -2.1897 3.67745 0
M  V30 3628 C 345.859 -3.55402 3.99492 0
M  V30 3629 C 347.159 -1.59859 4.97235 0
M  V30 3630 H 348.853 -0.647706 2.9231 0
M  V30 3631 H 346.399 -0.310116 1.40621 0
M  V30 3632 H 348.352 -3.08409 2.87162 0
M  V30 3633 H 347.076 -2.8134 1.65878 0
M  V30 3634 H 345.735 -1.50508 3.3428 0
M  V30 3635 H 345.383 -3.9683 3.09088 0
M  V30 3636 H 345.083 -3.43831 4.76502 0
M  V30 3637 H 346.607 -4.27708 4.35773 0
M  V30 3638 H 348.021 -2.20642 5.29141 0
M  V30 3639 H 346.418 -1.58942 5.78669 0
M  V30 3640 H 347.488 -0.561506 4.81638 0
M  V30 3641 N 348.832 -1.54138 -0.328536 0
M  V30 3642 C 350.248 -1.44736 -0.672574 0
M  V30 3643 C 350.448 -0.616217 -1.91846 0
M  V30 3644 O 349.504 -0.113067 -2.52247 0
M  V30 3645 C 350.817 -2.884 -0.851217 0
M  V30 3646 C 352.365 -2.98271 -0.948877 0
M  V30 3647 C 352.84 -4.43074 -1.15973 0
M  V30 3648 N 354.331 -4.46665 -1.22658 0
M  V30 3649 C 355.066 -5.55857 -1.40751 0
M  V30 3650 N 354.562 -6.75026 -1.5592 0
M  V30 3651 N 356.355 -5.43495 -1.4342 0
M  V30 3652 H 348.506 -2.06661 0.490421 0
M  V30 3653 H 350.769 -0.934812 0.157579 0
M  V30 3654 H 350.475 -3.51699 -0.00704236 0
M  V30 3655 H 350.349 -3.34225 -1.74853 0
M  V30 3656 H 352.736 -2.35102 -1.78356 0
M  V30 3657 H 352.817 -2.55785 -0.0281435 0
M  V30 3658 H 352.461 -5.06827 -0.329915 0
M  V30 3659 H 352.391 -4.83165 -2.09426 0
M  V30 3660 H 354.882 -3.60797 -1.124 0
M  V30 3661 H 355.195 -7.54004 -1.69404 0
M  V30 3662 H 353.54 -6.77944 -1.53027 0
M  V30 3663 H 356.731 -4.49349 -1.31162 0
M  V30 3664 H 356.904 -6.28649 -1.57178 0
M  V30 3665 N 350.31 0.590341 -1.46126 0
M  V30 3666 C 351.538 1.37504 -1.54597 0
M  V30 3667 C 351.953 1.87897 -0.184447 0
M  V30 3668 O 351.31 1.63192 0.816984 0
M  V30 3669 C 351.361 2.56779 -2.54454 0
M  V30 3670 O 351.082 2.08476 -3.85317 0
M  V30 3671 C 352.583 3.49427 -2.72792 0
M  V30 3672 H 349.803 0.420325 -0.523037 0
M  V30 3673 H 352.347 0.718383 -1.91467 0
M  V30 3674 H 350.502 3.1845 -2.20609 0
M  V30 3675 H 350.916 2.86097 -4.396 0
M  V30 3676 H 352.39 4.29619 -3.466 0
M  V30 3677 H 352.867 4.00876 -1.79429 0
M  V30 3678 H 353.473 2.93598 -3.07702 0
M  V30 3679 N 351.788 1.33704 0.83433 0
M  V30 3680 C 353.037 1.24763 1.58484 0
M  V30 3681 C 353.35 -0.183775 1.94735 0
M  V30 3682 O 354.556 -0.395234 2.68608 0
M  V30 3683 C 353.012 2.18638 2.85876 0
M  V30 3684 C 352.62 3.66974 2.56971 0
M  V30 3685 C 354.364 2.18581 3.63899 0
M  V30 3686 C 352.271 4.5275 3.80488 0
M  V30 3687 H 351.201 0.463425 0.594772 0
M  V30 3688 H 353.852 1.58797 0.919551 0
M  V30 3689 H 352.234 1.77542 3.5397 0
M  V30 3690 H 353.408 4.16538 1.9706 0
M  V30 3691 H 351.723 3.69366 1.92244 0
M  V30 3692 H 354.32 2.79894 4.55591 0
M  V30 3693 H 354.663 1.18207 3.99165 0
M  V30 3694 H 355.196 2.58062 3.02735 0
M  V30 3695 H 351.935 5.54017 3.5035 0
M  V30 3696 H 351.455 4.07927 4.39722 0
M  V30 3697 H 353.134 4.66784 4.4802 0
M  V30 3698 N 353.266 -1.05314 1.17247 0
M  V30 3699 C 354.512 -1.78557 0.961513 0
M  V30 3700 C 354.845 -1.87419 -0.508697 0
M  V30 3701 O 354.12 -1.37307 -1.37757 0
M  V30 3702 C 354.403 -3.22514 1.60176 0
M  V30 3703 C 354.256 -3.21673 3.14399 0
M  V30 3704 C 355.575 -4.20318 1.30463 0
M  V30 3705 H 352.694 -0.6482 0.350723 0
M  V30 3706 H 355.336 -1.23102 1.44727 0
M  V30 3707 H 353.486 -3.69867 1.18871 0
M  V30 3708 H 355.158 -2.82405 3.64753 0
M  V30 3709 H 353.401 -2.60048 3.47214 0
M  V30 3710 H 354.072 -4.23271 3.54324 0
M  V30 3711 H 356.548 -3.81454 1.66229 0
M  V30 3712 H 355.424 -5.19289 1.77848 0
M  V30 3713 H 355.685 -4.41526 0.22521 0
M  V30 3714 N 354.744 -0.972509 -1.24016 0
M  V30 3715 C 355.969 -0.654417 -1.96805 0
M  V30 3716 C 356.394 0.770398 -1.716 0
M  V30 3717 O 355.752 1.52361 -0.982647 0
M  V30 3718 C 355.8 -0.941031 -3.48105 0
M  V30 3719 O 354.904 -0.0289472 -4.1239 0
M  V30 3720 H 354.245 -0.24692 -0.616382 0
M  V30 3721 H 356.775 -1.30396 -1.57664 0
M  V30 3722 H 356.785 -0.87452 -3.98517 0
M  V30 3723 H 355.46 -1.97939 -3.65777 0
M  V30 3724 H 354.037 -0.149192 -3.72601 0
M  V30 3725 N 356.222 1.38976 -0.743202 0
M  V30 3726 C 357.471 1.99581 -0.291592 0
M  V30 3727 C 357.784 1.59656 1.13001 0
M  V30 3728 O 358.99 2.13157 1.68156 0
M  V30 3729 C 357.446 3.56813 -0.470391 0
M  V30 3730 C 357.054 4.05695 -1.90041 0
M  V30 3731 C 358.798 4.24423 -0.0809709 0
M  V30 3732 C 356.705 5.5553 -2.02832 0
M  V30 3733 H 355.635 0.746615 -0.105272 0
M  V30 3734 H 358.286 1.58872 -0.918258 0
M  V30 3735 H 356.668 3.95359 0.225299 0
M  V30 3736 H 357.842 3.78464 -2.62872 0
M  V30 3737 H 356.157 3.50775 -2.24379 0
M  V30 3738 H 358.754 5.34474 -0.155445 0
M  V30 3739 H 359.097 4.04962 0.96497 0
M  V30 3740 H 359.63 3.9108 -0.728124 0
M  V30 3741 H 356.369 5.79881 -3.05643 0
M  V30 3742 H 355.889 5.84537 -1.34448 0
M  V30 3743 H 357.568 6.21069 -1.81335 0
M  V30 3744 N 357.7 0.491464 1.49741 0
M  V30 3745 C 358.948 -0.0563141 2.02022 0
M  V30 3746 C 359.269 -1.38363 1.37407 0
M  V30 3747 O 358.539 -1.88702 0.526166 0
M  V30 3748 H 357.119 -0.0238014 0.746621 0
M  V30 3749 H 359.781 0.646533 1.83864 0
M  V30 3750 H 358.877 -0.192967 3.11503 0
M  V30 3751 N 359.178 -1.55987 0.224894 0
M  V30 3752 C 360.455 -1.90232 -0.455083 0
M  V30 3753 C 360.835 -1.14269 -1.77499 0
M  V30 3754 O 360.183 -0.253079 -2.27094 0
M  V30 3755 C 360.393 -3.42993 -0.644758 0
M  V30 3756 C 361.741 -4.13821 -0.950669 0
M  V30 3757 O 362.765 -3.4861 -0.731423 0
M  V30 3758 O 361.624 -5.29128 -1.36695 0
M  V30 3759 H 358.718 -0.79108 -0.241084 0
M  V30 3760 H 361.264 -1.67581 0.267327 0
M  V30 3761 H 360.036 -3.90252 0.28613 0
M  V30 3762 H 359.659 -3.71434 -1.41853 0
M  V30 3763 N 360.656 0.0484629 -1.57525 0
M  V30 3764 C 362.067 0.597486 -1.76881 0
M  V30 3765 C 362.418 1.76664 -0.853475 0
M  V30 3766 O 361.543 2.16357 -0.0433656 0
M  V30 3767 C 362.138 1.09066 -3.20765 0
M  V30 3768 C 360.697 1.58535 -3.41385 0
M  V30 3769 C 359.844 0.514868 -2.72478 0
M  V30 3770 H 362.795 -0.177758 -1.57701 0
M  V30 3771 H 362.816 1.95875 -3.2621 0
M  V30 3772 H 362.328 0.239521 -3.8736 0
M  V30 3773 H 360.429 2.45898 -2.79937 0
M  V30 3774 H 360.542 1.64622 -4.49929 0
M  V30 3775 H 358.906 0.965407 -2.35695 0
M  V30 3776 H 359.689 -0.32648 -3.41744 0
M  V30 3777 N 362.134 1.5431 0.320358 0
M  V30 3778 C 363.081 1.83918 1.39438 0
M  V30 3779 C 364.051 0.686525 1.51248 0
M  V30 3780 O 365.236 0.933269 1.66417 0
M  V30 3781 C 362.376 2.075 2.75749 0
M  V30 3782 C 361.489 3.35177 2.72544 0
M  V30 3783 C 360.624 3.48704 4.00723 0
M  V30 3784 C 359.663 4.70244 3.91838 0
M  V30 3785 N 358.8 4.80679 5.11754 0
M  V30 3786 H 363.64 2.75544 1.13489 0
M  V30 3787 H 361.177 1.36459 0.549309 0
M  V30 3788 H 363.135 2.19166 3.54996 0
M  V30 3789 H 361.765 1.19163 3 0
M  V30 3790 H 360.817 3.32233 1.85271 0
M  V30 3791 H 362.129 4.24534 2.61863 0
M  V30 3792 H 361.283 3.59928 4.88402 0
M  V30 3793 H 360.022 2.57445 4.14214 0
M  V30 3794 H 359.027 4.59072 3.02544 0
M  V30 3795 H 360.252 5.6289 3.7991 0
M  V30 3796 H 358.198 3.92337 5.25745 0
M  V30 3797 H 358.115 5.64007 5.0342 0
M  V30 3798 H 359.383 4.96239 6.01138 0
M  V30 3799 N 363.613 -0.582584 1.46437 0
M  V30 3800 C 364.56 -1.69164 1.5701 0
M  V30 3801 C 365.53 -1.60847 0.414403 0
M  V30 3802 O 366.715 -1.80058 0.631171 0
M  V30 3803 C 363.855 -3.075 1.56646 0
M  V30 3804 C 362.968 -3.2644 2.82951 0
M  V30 3805 C 362.103 -4.55026 2.7409 0
M  V30 3806 C 361.142 -4.6731 3.95333 0
M  V30 3807 N 360.279 -5.87221 3.84858 0
M  V30 3808 H 365.119 -1.59464 2.51744 0
M  V30 3809 H 362.656 -0.777186 1.24893 0
M  V30 3810 H 364.614 -3.8757 1.5442 0
M  V30 3811 H 363.244 -3.16096 0.654439 0
M  V30 3812 H 362.296 -2.39974 2.95155 0
M  V30 3813 H 363.608 -3.31385 3.72808 0
M  V30 3814 H 362.762 -5.43324 2.6997 0
M  V30 3815 H 361.501 -4.52519 1.81873 0
M  V30 3816 H 360.506 -3.77429 3.99784 0
M  V30 3817 H 361.731 -4.71595 4.88646 0
M  V30 3818 H 359.677 -5.85712 2.95427 0
M  V30 3819 H 359.594 -5.93435 4.6837 0
M  V30 3820 H 360.862 -6.7795 3.84713 0
M  V30 3821 N 365.091 -1.34144 -0.827227 0
M  V30 3822 C 366.038 -1.25364 -1.93785 0
M  V30 3823 C 367.008 -0.129774 -1.65592 0
M  V30 3824 O 368.193 -0.310024 -1.88264 0
M  V30 3825 C 365.333 -1.01064 -3.2997 0
M  V30 3826 C 364.446 -2.22185 -3.70484 0
M  V30 3827 C 363.581 -1.91203 -4.95595 0
M  V30 3828 C 362.62 -3.08491 -5.28677 0
M  V30 3829 N 361.757 -2.77421 -6.44967 0
M  V30 3830 H 366.597 -2.20347 -2.00627 0
M  V30 3831 H 364.134 -1.09558 -0.981608 0
M  V30 3832 H 366.092 -0.850139 -4.08446 0
M  V30 3833 H 364.722 -0.0975026 -3.22653 0
M  V30 3834 H 363.774 -2.4917 -2.87434 0
M  V30 3835 H 365.086 -3.0983 -3.90905 0
M  V30 3836 H 364.24 -1.71864 -5.81848 0
M  V30 3837 H 362.979 -1.00812 -4.77167 0
M  V30 3838 H 361.984 -3.28431 -4.40923 0
M  V30 3839 H 363.209 -3.99655 -5.49047 0
M  V30 3840 H 361.155 -1.89601 -6.28003 0
M  V30 3841 H 361.072 -3.58598 -6.6554 0
M  V30 3842 H 362.34 -2.61577 -7.34301 0
M  V30 3843 N 366.569 1.04691 -1.17803 0
M  V30 3844 C 367.799 1.81183 -0.992788 0
M  V30 3845 C 368.207 1.8347 0.462098 0
M  V30 3846 O 367.55 1.2643 1.33271 0
M  V30 3847 C 367.612 3.28363 -1.46349 0
M  V30 3848 C 367.276 3.49749 -2.94151 0
M  V30 3849 C 368.273 3.41456 -3.92051 0
M  V30 3850 C 365.958 3.76548 -3.32441 0
M  V30 3851 C 367.952 3.59656 -5.26238 0
M  V30 3852 C 365.639 3.94396 -4.66792 0
M  V30 3853 C 366.637 3.8595 -5.635 0
M  V30 3854 O 366.325 4.03294 -6.9542 0
M  V30 3855 H 366.057 0.577622 -0.351182 0
M  V30 3856 H 368.611 1.32876 -1.5663 0
M  V30 3857 H 366.841 3.77609 -0.833574 0
M  V30 3858 H 368.53 3.86395 -1.24313 0
M  V30 3859 H 369.296 3.20723 -3.63815 0
M  V30 3860 H 365.175 3.82224 -2.57732 0
M  V30 3861 H 368.719 3.52979 -6.01707 0
M  V30 3862 H 364.616 4.14622 -4.94731 0
M  V30 3863 H 365.384 4.2049 -7.02232 0
M  V30 3864 N 368.047 0.979072 1.23499 0
M  V30 3865 C 369.275 0.665202 1.95915 0
M  V30 3866 C 369.69 -0.767571 1.72493 0
M  V30 3867 O 369.047 -1.51635 1.01554 0
M  V30 3868 C 369.098 0.944438 3.48945 0
M  V30 3869 O 368.819 2.3209 3.71572 0
M  V30 3870 C 370.32 0.646336 4.38563 0
M  V30 3871 H 367.54 0.247218 0.623798 0
M  V30 3872 H 370.084 1.31009 1.57025 0
M  V30 3873 H 368.239 0.345575 3.85856 0
M  V30 3874 H 368.653 2.40957 4.65876 0
M  V30 3875 H 370.127 0.892091 5.44744 0
M  V30 3876 H 370.604 -0.419575 4.37191 0
M  V30 3877 H 371.21 1.22562 4.07258 0
M  V30 3878 N 369.525 -1.3858 0.750561 0
M  V30 3879 C 370.941 -1.53759 0.427824 0
M  V30 3880 C 371.141 -1.71401 -1.05943 0
M  V30 3881 O 370.197 -1.72331 -1.84549 0
M  V30 3882 C 371.51 -2.74642 1.22443 0
M  V30 3883 C 373.058 -2.88489 1.2142 0
M  V30 3884 C 373.533 -4.12329 1.9937 0
M  V30 3885 N 375.024 -4.194 1.96616 0
M  V30 3886 C 375.759 -5.14209 2.53727 0
M  V30 3887 N 375.255 -6.14709 3.19539 0
M  V30 3888 N 377.048 -5.06537 2.43673 0
M  V30 3889 H 369.199 -1.25377 1.71447 0
M  V30 3890 H 371.462 -0.608844 0.726645 0
M  V30 3891 H 371.168 -2.68 2.27747 0
M  V30 3892 H 371.042 -3.67745 0.839273 0
M  V30 3893 H 373.429 -2.94614 0.169232 0
M  V30 3894 H 373.51 -1.96406 1.63885 0
M  V30 3895 H 373.154 -4.06966 3.03877 0
M  V30 3896 H 373.084 -5.03486 1.54302 0
M  V30 3897 H 375.575 -3.47421 1.48684 0
M  V30 3898 H 375.888 -6.8354 3.60545 0
M  V30 3899 H 374.233 -6.1505 3.23633 0
M  V30 3900 H 377.424 -4.26962 1.91889 0
M  V30 3901 H 377.597 -5.80245 2.88479 0
M  V30 3902 N 371.003 -0.499398 -1.49478 0
M  V30 3903 C 372.233 0.0424839 -2.06556 0
M  V30 3904 C 372.641 1.31514 -1.36018 0
M  V30 3905 O 371.984 1.78555 -0.431718 0
M  V30 3906 C 372.046 0.368074 -3.57611 0
M  V30 3907 C 371.71 -0.806631 -4.49825 0
M  V30 3908 C 372.707 -1.69667 -4.91436 0
M  V30 3909 C 370.392 -1.00498 -4.92144 0
M  V30 3910 C 372.386 -2.76923 -5.74101 0
M  V30 3911 C 370.073 -2.08072 -5.74586 0
M  V30 3912 C 371.071 -2.96119 -6.15469 0
M  V30 3913 O 370.759 -4.01836 -6.96264 0
M  V30 3914 H 370.491 -0.0165165 -0.675798 0
M  V30 3915 H 373.045 -0.695497 -1.93267 0
M  V30 3916 H 371.275 1.15963 -3.68903 0
M  V30 3917 H 372.964 0.848381 -3.96935 0
M  V30 3918 H 373.73 -1.55524 -4.59388 0
M  V30 3919 H 369.609 -0.329036 -4.59824 0
M  V30 3920 H 373.153 -3.45676 -6.05932 0
M  V30 3921 H 369.05 -2.22211 -6.06047 0
M  V30 3922 H 369.818 -3.9917 -7.14567 0
M  V30 3923 N 372.481 1.55866 -0.233164 0
M  V30 3924 C 373.391 2.24431 0.683217 0
M  V30 3925 C 374.407 1.2558 1.2044 0
M  V30 3926 O 375.583 1.58422 1.24356 0
M  V30 3927 C 372.648 2.91979 1.86947 0
M  V30 3928 C 371.709 4.06204 1.38912 0
M  V30 3929 C 370.942 4.70522 2.51883 0
M  V30 3930 O 371.165 4.33865 3.70293 0
M  V30 3931 O 370.099 5.59296 2.22423 0
M  V30 3932 H 373.925 3.03426 0.129059 0
M  V30 3933 H 371.51 1.494 -0.0022283 0
M  V30 3934 H 373.392 3.34573 2.56201 0
M  V30 3935 H 372.067 2.15935 2.41151 0
M  V30 3936 H 370.974 3.68155 0.664259 0
M  V30 3937 H 372.307 4.84025 0.893328 0
M  V30 3938 N 373.959 -0.0401083 1.57549 0
M  V30 3939 C 374.906 -1.04413 2.05831 0
M  V30 3940 C 375.876 -1.36585 0.945184 0
M  V30 3941 O 377.061 -1.47112 1.21502 0
M  V30 3942 C 374.201 -2.34336 2.53339 0
M  V30 3943 C 373.314 -2.08419 3.78398 0
M  V30 3944 C 372.449 -3.32133 4.14561 0
M  V30 3945 C 371.488 -3.01721 5.3257 0
M  V30 3946 N 370.625 -4.17855 5.64218 0
M  V30 3947 H 375.465 -0.625442 2.91363 0
M  V30 3948 H 373.002 -0.297218 1.44066 0
M  V30 3949 H 374.96 -3.10234 2.78946 0
M  V30 3950 H 373.59 -2.73948 1.7074 0
M  V30 3951 H 372.642 -1.23069 3.59942 0
M  V30 3952 H 373.954 -1.81978 4.64419 0
M  V30 3953 H 373.108 -4.16406 4.41238 0
M  V30 3954 H 371.847 -3.61678 3.2717 0
M  V30 3955 H 370.852 -2.15849 5.05657 0
M  V30 3956 H 372.077 -2.73466 6.21605 0
M  V30 3957 H 370.023 -4.47372 4.79786 0
M  V30 3958 H 369.94 -3.94798 6.44725 0
M  V30 3959 H 371.208 -5.03033 5.95465 0
M  V30 3960 N 375.437 -1.54477 -0.31217 0
M  V30 3961 C 376.686 -1.72438 -1.04633 0
M  V30 3962 C 376.999 -0.511163 -1.88803 0
M  V30 3963 O 378.205 -0.572341 -2.65399 0
M  V30 3964 C 376.661 -3.05043 -1.9099 0
M  V30 3965 C 376.269 -4.33806 -1.11877 0
M  V30 3966 C 378.013 -3.32364 -2.64073 0
M  V30 3967 C 375.92 -5.57467 -1.97445 0
M  V30 3968 H 374.85 -0.642647 -0.394361 0
M  V30 3969 H 377.501 -1.80966 -0.303929 0
M  V30 3970 H 375.883 -2.90451 -2.69173 0
M  V30 3971 H 377.057 -4.59199 -0.383843 0
M  V30 3972 H 375.372 -4.13336 -0.504252 0
M  V30 3973 H 377.969 -4.21951 -3.28423 0
M  V30 3974 H 378.312 -2.50745 -3.32314 0
M  V30 3975 H 378.845 -3.47875 -1.92944 0
M  V30 3976 H 375.584 -6.41722 -1.33692 0
M  V30 3977 H 375.104 -5.36277 -2.6864 0
M  V30 3978 H 376.783 -5.94303 -2.5576 0
M  V30 3979 N 376.915 0.57481 -1.46744 0
M  V30 3980 C 378.163 1.33009 -1.52161 0
M  V30 3981 C 378.484 1.94185 -0.178092 0
M  V30 3982 O 377.754 1.7899 0.796196 0
M  V30 3983 H 376.334 0.493873 -0.560445 0
M  V30 3984 H 378.996 0.672589 -1.82927 0
M  V30 3985 H 378.092 2.13273 -2.27862 0
M  V30 3986 N 378.394 1.34581 0.820102 0
M  V30 3987 C 379.326 1.22236 1.93884 0
M  V30 3988 C 380.339 0.148776 1.62119 0
M  V30 3989 O 381.528 0.400877 1.7394 0
M  V30 3990 C 378.628 0.856542 3.27897 0
M  V30 3991 C 377.801 2.02569 3.87666 0
M  V30 3992 C 376.86 1.63782 5.00062 0
M  V30 3993 O 375.886 2.35477 5.18208 0
M  V30 3994 N 377.088 0.553611 5.77854 0
M  V30 3995 H 379.853 2.18615 2.05006 0
M  V30 3996 H 377.414 1.27573 0.99683 0
M  V30 3997 H 379.406 0.578806 4.0054 0
M  V30 3998 H 377.976 -0.0171518 3.12595 0
M  V30 3999 H 377.196 2.468 3.07382 0
M  V30 4000 H 378.484 2.80752 4.24329 0
M  V30 4001 H 377.882 -0.0423528 5.65684 0
M  V30 4002 H 376.439 0.335614 6.50935 0
M  V30 4003 N 379.872 -1.04064 1.18357 0
M  V30 4004 C 381.12 -1.76915 0.977013 0
M  V30 4005 C 381.441 -1.88624 -0.494577 0
M  V30 4006 O 380.711 -1.41125 -1.3587 0
M  V30 4007 H 379.291 -0.65535 0.358504 0
M  V30 4008 H 381.953 -1.25592 1.49039 0
M  V30 4009 H 381.049 -2.78178 1.41504 0
M  V30 4010 N 381.35 -0.985608 -1.22978 0
M  V30 4011 C 382.313 -0.535071 -2.22867 0
M  V30 4012 C 383.313 0.378123 -1.56291 0
M  V30 4013 O 384.503 0.171092 -1.73358 0
M  V30 4014 C 381.635 0.222702 -3.40172 0
M  V30 4015 H 382.828 -1.41835 -2.6424 0
M  V30 4016 H 380.381 -0.772042 -1.35901 0
M  V30 4017 H 381.116 1.12229 -3.04262 0
M  V30 4018 H 380.901 -0.43288 -3.89703 0
M  V30 4019 H 382.391 0.526335 -4.1427 0
M  V30 4020 N 382.828 1.3818 -0.7579 0
M  V30 4021 C 384.053 2.04827 -0.325679 0
M  V30 4022 C 384.478 1.56788 1.03919 0
M  V30 4023 O 383.836 0.721811 1.66312 0
M  V30 4024 C 383.884 3.58774 -0.362447 0
M  V30 4025 O 382.988 4.07372 0.642033 0
M  V30 4026 H 382.329 0.64833 -0.143402 0
M  V30 4027 H 384.859 1.7677 -1.03023 0
M  V30 4028 H 384.869 4.07434 -0.214844 0
M  V30 4029 H 383.544 3.93096 -1.35824 0
M  V30 4030 H 382.121 3.70068 0.458688 0
M  V30 4031 N 384.306 0.507319 1.49211 0
M  V30 4032 C 385.554 -0.0348839 2.0207 0
M  V30 4033 C 385.875 -1.36898 1.38866 0
M  V30 4034 O 385.145 -1.88133 0.546151 0
M  V30 4035 H 383.725 -0.0158812 0.746831 0
M  V30 4036 H 386.387 0.665998 1.83168 0
M  V30 4037 H 385.483 -0.159917 3.1169 0
M  V30 4038 N 385.784 -1.5574 0.241426 0
M  V30 4039 C 387.012 -2.03208 -0.389134 0
M  V30 4040 C 387.427 -1.12082 -1.51931 0
M  V30 4041 O 386.784 -0.134183 -1.82006 0
M  V30 4042 C 386.835 -3.50064 -0.902087 0
M  V30 4043 O 386.556 -4.37717 0.18305 0
M  V30 4044 C 388.057 -4.13268 -1.60389 0
M  V30 4045 H 385.277 -0.664509 -0.0931053 0
M  V30 4046 H 387.821 -2.0124 0.36369 0
M  V30 4047 H 385.976 -3.52583 -1.60511 0
M  V30 4048 H 386.39 -5.24097 -0.205579 0
M  V30 4049 H 387.864 -5.17733 -1.91458 0
M  V30 4050 H 388.341 -3.59434 -2.52397 0
M  V30 4051 H 388.947 -4.14655 -0.945576 0
M  V30 4052 N 387.262 0.0317525 -1.57568 0
M  V30 4053 C 388.508 0.724175 -1.8943 0
M  V30 4054 C 388.841 1.75149 -0.838836 0
M  V30 4055 O 388.116 1.93948 0.146422 0
M  V30 4056 C 388.399 1.39615 -3.31933 0
M  V30 4057 C 388.252 0.382537 -4.4817 0
M  V30 4058 C 389.571 2.33084 -3.73309 0
M  V30 4059 H 386.69 0.261797 -0.688935 0
M  V30 4060 H 389.332 -0.013017 -1.89996 0
M  V30 4061 H 387.482 2.02451 -3.31581 0
M  V30 4062 H 389.154 -0.243689 -4.60656 0
M  V30 4063 H 387.397 -0.29844 -4.32772 0
M  V30 4064 H 388.068 0.891145 -5.44759 0
M  V30 4065 H 390.544 1.80295 -3.7501 0
M  V30 4066 H 389.42 2.77084 -4.73831 0
M  V30 4067 H 389.681 3.19643 -3.05419 0
M  V30 4068 N 388.74 1.54641 0.303973 0
M  V30 4069 C 389.987 1.7378 1.03955 0
M  V30 4070 C 390.315 0.521986 1.87365 0
M  V30 4071 O 389.57 -0.496099 1.89308 0
M  V30 4072 C 389.869 2.97753 1.97681 0
M  V30 4073 C 389.535 4.31671 1.30271 0
M  V30 4074 C 388.197 4.68075 1.11619 0
M  V30 4075 C 390.549 5.147 0.82055 0
M  V30 4076 C 387.877 5.8509 0.434304 0
M  V30 4077 C 390.229 6.32416 0.152395 0
M  V30 4078 C 388.893 6.67484 -0.0461067 0
M  V30 4079 H 388.163 0.635908 0.380398 0
M  V30 4080 H 390.81 1.88896 0.314718 0
M  V30 4081 H 389.115 2.77406 2.76682 0
M  V30 4082 H 390.812 3.09756 2.54661 0
M  V30 4083 H 387.402 4.03041 1.45795 0
M  V30 4084 H 391.586 4.87077 0.952374 0
M  V30 4085 H 386.842 6.10806 0.269495 0
M  V30 4086 H 391.016 6.96023 -0.229126 0
M  V30 4087 H 388.643 7.58011 -0.576494 0
M  V30 4088 N 390.218 -0.567019 1.47046 0
M  V30 4089 C 391.446 -1.35027 1.56765 0
M  V30 4090 C 391.861 -1.8758 0.214316 0
M  V30 4091 O 391.218 -1.64471 -0.790919 0
M  V30 4092 C 391.269 -2.52698 2.58507 0
M  V30 4093 O 390.99 -2.0232 3.88585 0
M  V30 4094 C 392.491 -3.45043 2.78316 0
M  V30 4095 H 389.711 -0.41195 0.529658 0
M  V30 4096 H 392.255 -0.687832 1.92585 0
M  V30 4097 H 390.41 -3.149 2.25648 0
M  V30 4098 H 390.824 -2.79068 4.44096 0
M  V30 4099 H 392.298 -4.2405 3.53391 0
M  V30 4100 H 392.775 -3.97971 1.85784 0
M  V30 4101 H 393.381 -2.88665 3.12334 0
M  V30 4102 N 391.696 -1.35014 -0.812953 0
M  V30 4103 C 392.659 -1.27292 -1.90602 0
M  V30 4104 C 393.659 -0.185817 -1.59723 0
M  V30 4105 O 394.849 -0.439102 -1.68575 0
M  V30 4106 C 391.981 -0.967676 -3.26877 0
M  V30 4107 H 393.174 -2.24479 -1.9887 0
M  V30 4108 H 390.727 -1.19446 -1.00808 0
M  V30 4109 H 391.462 0.0005954 -3.243 0
M  V30 4110 H 391.247 -1.75412 -3.50675 0
M  V30 4111 H 392.737 -0.939085 -4.06904 0
M  V30 4112 N 393.175 1.03435 -1.18907 0
M  V30 4113 C 394.403 1.80381 -1.01342 0
M  V30 4114 C 394.818 1.83649 0.438005 0
M  V30 4115 O 394.175 1.27655 1.30424 0
M  V30 4116 C 394.226 3.25689 -1.56873 0
M  V30 4117 O 393.947 3.22673 -2.96334 0
M  V30 4118 C 395.448 4.19255 -1.44014 0
M  V30 4119 H 392.668 0.56784 -0.35749 0
M  V30 4120 H 395.212 1.30317 -1.576 0
M  V30 4121 H 393.367 3.72962 -1.04777 0
M  V30 4122 H 393.781 4.13748 -3.22355 0
M  V30 4123 H 395.255 5.19123 -1.87657 0
M  V30 4124 H 395.732 4.37467 -0.389815 0
M  V30 4125 H 396.338 3.77851 -1.95214 0
M  V30 4126 N 394.653 0.992116 1.22453 0
M  V30 4127 C 395.93 0.583508 1.86694 0
M  V30 4128 C 396.31 -0.9392 1.89056 0
M  V30 4129 O 395.658 -1.82081 1.38053 0
M  V30 4130 C 395.868 1.20304 3.2761 0
M  V30 4131 C 397.216 1.30308 4.0411 0
M  V30 4132 O 398.24 1.15737 3.36873 0
M  V30 4133 O 397.099 1.53615 5.24466 0
M  V30 4134 H 394.193 0.198129 0.802916 0
M  V30 4135 H 396.739 1.08794 1.30238 0
M  V30 4136 H 395.511 2.24461 3.2052 0
M  V30 4137 H 395.134 0.684144 3.9167 0
M  V30 4138 N 396.131 -1.37776 0.765217 0
M  V30 4139 C 397.377 -2.00145 0.327072 0
M  V30 4140 C 397.71 -1.60607 -1.09175 0
M  V30 4141 O 396.985 -0.849127 -1.74986 0
M  V30 4142 C 397.268 -3.57109 0.46319 0
M  V30 4143 C 397.121 -4.06576 1.92395 0
M  V30 4144 C 398.44 -4.39888 -0.136473 0
M  V30 4145 H 395.559 -0.727113 0.120316 0
M  V30 4146 H 398.201 -1.63549 0.967039 0
M  V30 4147 H 396.351 -3.88414 -0.0816358 0
M  V30 4148 H 398.023 -3.85864 2.52798 0
M  V30 4149 H 396.266 -3.59011 2.43503 0
M  V30 4150 H 396.937 -5.15639 1.97028 0
M  V30 4151 H 399.413 -4.14803 0.328317 0
M  V30 4152 H 398.289 -5.48899 -0.0110582 0
M  V30 4153 H 398.55 -4.24758 -1.22608 0
M  V30 4154 N 397.609 -0.515225 -1.4894 0
M  V30 4155 C 398.572 0.244681 -2.2789 0
M  V30 4156 C 399.572 0.881166 -1.34507 0
M  V30 4157 O 400.762 0.743497 -1.57537 0
M  V30 4158 C 397.894 1.35247 -3.12923 0
M  V30 4159 H 399.087 -0.448289 -2.96531 0
M  V30 4160 H 396.64 -0.270656 -1.53939 0
M  V30 4161 H 397.375 2.07916 -2.48881 0
M  V30 4162 H 397.16 0.901374 -3.81599 0
M  V30 4163 H 398.65 1.88737 -3.72516 0
M  V30 4164 N 399.087 1.5561 -0.249682 0
M  V30 4165 C 400.017 2.24477 0.642826 0
M  V30 4166 C 400.998 1.22601 1.17911 0
M  V30 4167 O 402.183 1.5126 1.21795 0
M  V30 4168 C 399.313 2.94638 1.83863 0
M  V30 4169 C 398.267 4.03227 1.435 0
M  V30 4170 C 397.593 4.60828 2.71186 0
M  V30 4171 C 398.893 5.18796 0.604002 0
M  V30 4172 H 400.587 2.99321 0.0685625 0
M  V30 4173 H 398.133 1.43965 0.0315363 0
M  V30 4174 H 400.086 3.41517 2.46868 0
M  V30 4175 H 398.81 2.17287 2.43832 0
M  V30 4176 H 397.469 3.57121 0.828275 0
M  V30 4177 H 397.117 3.80174 3.29358 0
M  V30 4178 H 396.817 5.34132 2.44901 0
M  V30 4179 H 398.341 5.10442 3.35084 0
M  V30 4180 H 399.755 5.61883 1.13842 0
M  V30 4181 H 398.152 5.98506 0.437097 0
M  V30 4182 H 399.222 4.83384 -0.383147 0
M  V30 4183 N 400.565 -0.0233959 1.57583 0
M  V30 4184 C 401.813 -0.711654 1.89156 0
M  V30 4185 C 402.134 -1.75591 0.848096 0
M  V30 4186 O 401.404 -1.95547 -0.117566 0
M  V30 4187 H 399.984 -0.265835 0.698098 0
M  V30 4188 H 402.646 0.0119948 1.94896 0
M  V30 4189 H 401.742 -1.19766 2.88206 0
M  V30 4190 N 402.043 -1.548 -0.295768 0
M  V30 4191 C 402.975 -1.82492 -1.3867 0
M  V30 4192 C 403.988 -0.708134 -1.46592 0
M  V30 4193 O 405.177 -0.985686 -1.48817 0
M  V30 4194 C 402.277 -1.95256 -2.76999 0
M  V30 4195 C 401.45 -3.25709 -2.91946 0
M  V30 4196 C 400.509 -3.28824 -4.10806 0
M  V30 4197 O 399.535 -4.02328 -4.02643 0
M  V30 4198 N 400.737 -2.5459 -5.21694 0
M  V30 4199 H 403.502 -2.76646 -1.15269 0
M  V30 4200 H 401.063 -1.54438 -0.485849 0
M  V30 4201 H 403.055 -1.94736 -3.54768 0
M  V30 4202 H 401.625 -1.08072 -2.93324 0
M  V30 4203 H 400.845 -3.38959 -2.01247 0
M  V30 4204 H 402.133 -4.11786 -2.98847 0
M  V30 4205 H 401.531 -1.94512 -5.31208 0
M  V30 4206 H 400.088 -2.59818 -5.97778 0
M  V30 4207 N 403.521 0.559213 -1.47345 0
M  V30 4208 C 404.431 1.69388 -1.62311 0
M  V30 4209 C 405.447 1.6648 -0.505993 0
M  V30 4210 O 406.623 1.85964 -0.773262 0
M  V30 4211 C 403.688 3.05894 -1.63185 0
M  V30 4212 C 402.749 3.19885 -2.86307 0
M  V30 4213 C 401.982 4.49879 -2.87131 0
M  V30 4214 O 402.205 5.35217 -1.97229 0
M  V30 4215 O 401.139 4.67618 -3.78968 0
M  V30 4216 H 404.965 1.59706 -2.58317 0
M  V30 4217 H 402.55 0.728989 -1.30407 0
M  V30 4218 H 404.432 3.87133 -1.66451 0
M  V30 4219 H 403.107 3.15964 -0.70345 0
M  V30 4220 H 402.014 2.38052 -2.88587 0
M  V30 4221 H 403.347 3.14718 -3.78435 0
M  V30 4222 N 404.999 1.35443 0.805782 0
M  V30 4223 C 406.245 1.28952 1.56522 0
M  V30 4224 C 406.578 -0.135597 1.93726 0
M  V30 4225 O 405.853 -1.08516 1.61414 0
M  V30 4226 C 406.136 2.19678 2.85331 0
M  V30 4227 C 405.989 3.7081 2.54598 0
M  V30 4228 C 407.308 2.09495 3.8704 0
M  V30 4229 H 404.427 0.469764 0.567883 0
M  V30 4230 H 407.069 1.65851 0.927001 0
M  V30 4231 H 405.219 1.8834 3.39795 0
M  V30 4232 H 406.891 4.12593 2.06312 0
M  V30 4233 H 405.134 3.91051 1.8778 0
M  V30 4234 H 405.805 4.29679 3.46525 0
M  V30 4235 H 408.281 2.37045 3.41978 0
M  V30 4236 H 407.157 2.75173 4.74943 0
M  V30 4237 H 407.418 1.07714 4.28777 0
M  V30 4238 N 406.477 -1.02803 1.19454 0
M  V30 4239 C 407.44 -2.09264 0.934955 0
M  V30 4240 C 408.44 -1.60576 -0.0849015 0
M  V30 4241 O 409.63 -1.73554 0.149933 0
M  V30 4242 C 406.762 -3.38482 0.40531 0
M  V30 4243 H 407.955 -2.33726 1.87916 0
M  V30 4244 H 405.508 -1.19426 1.00832 0
M  V30 4245 H 406.243 -3.19689 -0.544899 0
M  V30 4246 H 406.028 -3.75142 1.14065 0
M  V30 4247 H 407.518 -4.16894 0.242806 0
M  V30 4248 N 407.956 -0.998596 -1.21925 0
M  V30 4249 C 409.205 -0.673085 -1.90138 0
M  V30 4250 C 409.518 0.79895 -1.78539 0
M  V30 4251 O 410.724 1.23628 -2.4172 0
M  V30 4252 C 409.18 -1.15339 -3.40918 0
M  V30 4253 C 408.788 -2.65106 -3.61141 0
M  V30 4254 C 410.532 -0.902476 -4.14796 0
M  V30 4255 C 408.439 -3.0671 -5.05651 0
M  V30 4256 H 407.369 -0.248057 -0.712028 0
M  V30 4257 H 410.02 -1.20891 -1.38049 0
M  V30 4258 H 408.402 -0.545658 -3.92223 0
M  V30 4259 H 409.576 -3.31274 -3.20304 0
M  V30 4260 H 407.891 -2.88142 -3.00605 0
M  V30 4261 H 410.488 -1.18895 -5.21314 0
M  V30 4262 H 410.831 0.161349 -4.15987 0
M  V30 4263 H 411.364 -1.47269 -3.69536 0
M  V30 4264 H 408.103 -4.12292 -5.09603 0
M  V30 4265 H 407.623 -2.45249 -5.47369 0
M  V30 4266 H 409.302 -2.9833 -5.74115 0
M  V30 4267 N 409.434 1.37368 -0.772513 0
M  V30 4268 C 410.381 2.30262 -0.157488 0
M  V30 4269 C 411.351 1.51137 0.688965 0
M  V30 4270 O 412.536 1.79704 0.641168 0
M  V30 4271 C 409.676 3.37611 0.715045 0
M  V30 4272 C 408.789 4.31746 -0.148098 0
M  V30 4273 C 407.924 5.26171 0.729213 0
M  V30 4274 C 406.963 6.11948 -0.136418 0
M  V30 4275 N 406.1 6.98613 0.698914 0
M  V30 4276 H 410.94 2.82277 -0.955179 0
M  V30 4277 H 408.477 1.38957 -0.482631 0
M  V30 4278 H 410.435 3.98479 1.23575 0
M  V30 4279 H 409.065 2.86959 1.47833 0
M  V30 4280 H 408.117 3.72178 -0.786613 0
M  V30 4281 H 409.429 4.92084 -0.81579 0
M  V30 4282 H 408.583 5.92247 1.31637 0
M  V30 4283 H 407.322 4.66246 1.43059 0
M  V30 4284 H 406.327 5.4485 -0.736102 0
M  V30 4285 H 407.552 6.73945 -0.835134 0
M  V30 4286 H 405.498 6.41215 1.38489 0
M  V30 4287 H 405.415 7.55948 0.0885358 0
M  V30 4288 H 406.683 7.69077 1.27044 0
M  V30 4289 N 410.912 0.523116 1.48665 0
M  V30 4290 C 411.844 -0.280421 2.27478 0
M  V30 4291 C 412.857 -0.910694 1.34945 0
M  V30 4292 O 414.046 -0.790295 1.60052 0
M  V30 4293 C 411.146 -1.41171 3.08097 0
M  V30 4294 C 410.319 -0.884642 4.28361 0
M  V30 4295 C 409.378 -1.89622 4.90846 0
M  V30 4296 O 408.404 -1.4559 5.50265 0
M  V30 4297 N 409.606 -3.22801 4.82472 0
M  V30 4298 H 412.371 0.395481 2.97079 0
M  V30 4299 H 409.932 0.357018 1.57915 0
M  V30 4300 H 411.924 -2.08645 3.4677 0
M  V30 4301 H 410.494 -1.99139 2.40961 0
M  V30 4302 H 409.714 -0.0341177 3.94185 0
M  V30 4303 H 411.002 -0.511268 5.06225 0
M  V30 4304 H 410.4 -3.61246 4.35336 0
M  V30 4305 H 408.957 -3.85927 5.25265 0
M  V30 4306 N 412.39 -1.55475 0.257931 0
M  V30 4307 C 413.639 -1.98383 -0.364275 0
M  V30 4308 C 413.952 -1.14952 -1.58258 0
M  V30 4309 O 415.158 -1.47924 -2.27664 0
M  V30 4310 C 413.614 -3.53037 -0.699479 0
M  V30 4311 C 413.222 -4.45223 0.498046 0
M  V30 4312 C 414.966 -4.04575 -1.28526 0
M  V30 4313 C 412.873 -5.91238 0.138383 0
M  V30 4314 H 411.803 -0.740911 -0.13988 0
M  V30 4315 H 414.454 -1.79936 0.359883 0
M  V30 4316 H 412.836 -3.6722 -1.48207 0
M  V30 4317 H 414.01 -4.42803 1.27522 0
M  V30 4318 H 412.325 -4.04226 0.999503 0
M  V30 4319 H 414.922 -5.11196 -1.56788 0
M  V30 4320 H 415.265 -3.5258 -2.21344 0
M  V30 4321 H 415.798 -3.93762 -0.565337 0
M  V30 4322 H 412.537 -6.47294 1.03398 0
M  V30 4323 H 412.057 -5.96768 -0.602374 0
M  V30 4324 H 413.736 -6.46413 -0.27553 0
M  V30 4325 N 413.868 0.0150385 -1.57593 0
M  V30 4326 C 414.816 1.02958 -2.08572 0
M  V30 4327 C 415.81 1.36554 -1.00246 0
M  V30 4328 O 417.016 1.35295 -1.18724 0
M  V30 4329 H 413.391 0.349619 -0.665786 0
M  V30 4330 H 415.362 0.573932 -2.92829 0
M  V30 4331 C 414.111 2.31752 -2.59203 0
M  V30 4332 H 413.434 2.06765 -3.42182 0
M  V30 4333 H 414.874 3.01053 -2.98568 0
M  V30 4334 C 413.333 3.01692 -1.49945 0
M  V30 4335 O 413.863 3.92083 -0.873704 0
M  V30 4336 N 412.069 2.6326 -1.23056 0
M  V30 4337 H 411.616 1.89838 -1.74125 0
M  V30 4338 H 411.574 3.10372 -0.501685 0
M  V30 4339 N 415.346 1.54954 0.287554 0
M  V30 4340 C 416.276 1.89839 1.35954 0
M  V30 4341 C 417.257 0.758675 1.52244 0
M  V30 4342 O 418.442 1.01557 1.65529 0
M  V30 4343 C 415.572 2.15753 2.72154 0
M  V30 4344 C 414.526 3.3159 2.70614 0
M  V30 4345 C 413.852 3.42952 4.10229 0
M  V30 4346 C 415.152 4.68359 2.31165 0
M  V30 4347 H 416.846 2.79625 1.07007 0
M  V30 4348 H 414.392 1.3454 0.513316 0
M  V30 4349 H 416.345 2.38743 3.47246 0
M  V30 4350 H 415.069 1.22752 3.02654 0
M  V30 4351 H 413.728 3.08545 1.97979 0
M  V30 4352 H 413.376 2.47443 4.37928 0
M  V30 4353 H 413.076 4.20826 4.10097 0
M  V30 4354 H 414.6 3.68218 4.87081 0
M  V30 4355 H 416.014 4.9099 2.95976 0
M  V30 4356 H 414.411 5.49044 2.42221 0
M  V30 4357 H 415.481 4.68165 1.26291 0
M  V30 4358 N 416.824 -0.551391 1.4764 0
M  V30 4359 C 417.756 -1.67333 1.56628 0
M  V30 4360 C 418.769 -1.56398 0.452045 0
M  V30 4361 O 419.958 -1.6325 0.721926 0
M  V30 4362 C 417.058 -3.05841 1.45994 0
M  V30 4363 C 416.231 -3.42472 2.72088 0
M  V30 4364 C 415.29 -4.60168 2.55209 0
M  V30 4365 O 414.316 -4.64458 3.2904 0
M  V30 4366 N 415.518 -5.57024 1.63416 0
M  V30 4367 H 418.283 -1.60066 2.53375 0
M  V30 4368 H 415.844 -0.738169 1.44093 0
M  V30 4369 H 417.836 -3.8242 1.32428 0
M  V30 4370 H 416.406 -3.07302 0.573071 0
M  V30 4371 H 415.626 -2.55284 3.00373 0
M  V30 4372 H 416.914 -3.63723 3.55785 0
M  V30 4373 H 416.312 -5.56319 1.02594 0
M  V30 4374 H 414.869 -6.32906 1.558 0
M  V30 4375 N 418.302 -1.35869 -0.798587 0
M  V30 4376 C 419.249 -1.29446 -1.91082 0
M  V30 4377 C 420.219 -0.16487 -1.6528 0
M  V30 4378 O 421.404 -0.349888 -1.87564 0
M  V30 4379 C 418.544 -1.0804 -3.27752 0
M  V30 4380 C 417.657 -2.29993 -3.65687 0
M  V30 4381 C 416.792 -2.01673 -4.91428 0
M  V30 4382 C 415.831 -3.19636 -5.22015 0
M  V30 4383 N 414.968 -2.91039 -6.38937 0
M  V30 4384 H 419.808 -2.24553 -1.95907 0
M  V30 4385 H 417.345 -1.11615 -0.958148 0
M  V30 4386 H 419.303 -0.936586 -4.06551 0
M  V30 4387 H 417.933 -0.16592 -3.22373 0
M  V30 4388 H 416.985 -2.55211 -2.82085 0
M  V30 4389 H 418.297 -3.18052 -3.84245 0
M  V30 4390 H 417.451 -1.84168 -5.78072 0
M  V30 4391 H 416.19 -1.10911 -4.74921 0
M  V30 4392 H 415.195 -3.37709 -4.33858 0
M  V30 4393 H 416.42 -4.11211 -5.40447 0
M  V30 4394 H 414.366 -2.0288 -6.2384 0
M  V30 4395 H 414.283 -3.72635 -6.57784 0
M  V30 4396 H 415.551 -2.77093 -7.28587 0
M  V30 4397 N 419.78 1.02168 -1.19998 0
M  V30 4398 C 420.712 2.10705 -0.901994 0
M  V30 4399 C 421.725 1.6244 0.108216 0
M  V30 4400 O 422.914 1.78082 -0.12214 0
M  V30 4401 C 420.014 3.37291 -0.329834 0
M  V30 4402 C 419.187 4.14714 -1.39035 0
M  V30 4403 C 418.246 5.19606 -0.830432 0
M  V30 4404 O 417.272 5.48809 -1.50989 0
M  V30 4405 N 418.474 5.79366 0.362696 0
M  V30 4406 H 421.239 2.36856 -1.83628 0
M  V30 4407 H 418.8 1.18518 -1.10296 0
M  V30 4408 H 420.792 4.04657 0.0587633 0
M  V30 4409 H 419.362 3.0843 0.508891 0
M  V30 4410 H 418.582 3.42392 -1.9535 0
M  V30 4411 H 419.87 4.63226 -2.10474 0
M  V30 4412 H 419.268 5.57968 0.932081 0
M  V30 4413 H 417.825 6.48106 0.69299 0
M  V30 4414 N 421.258 1.00505 1.21394 0
M  V30 4415 C 422.669 0.721082 1.72213 0
M  V30 4416 C 423.02 -0.761263 1.80829 0
M  V30 4417 O 422.145 -1.59464 1.46288 0
M  V30 4418 C 422.74 1.30228 3.12772 0
M  V30 4419 C 421.299 1.06743 3.60947 0
M  V30 4420 C 420.446 1.41507 2.38477 0
M  V30 4421 H 423.397 1.17594 1.06571 0
M  V30 4422 H 423.418 0.686955 3.74247 0
M  V30 4423 H 422.93 2.38115 3.06468 0
M  V30 4424 H 421.031 0.00572162 3.726 0
M  V30 4425 H 421.144 1.73936 4.46411 0
M  V30 4426 H 419.508 0.833852 2.40664 0
M  V30 4427 H 420.291 2.50424 2.34824 0
M  V30 4428 N 422.737 -1.36956 0.779787 0
M  V30 4429 C 423.684 -2.30175 0.169697 0
M  V30 4430 C 424.654 -1.51501 -0.68094 0
M  V30 4431 O 425.839 -1.80042 -0.631629 0
M  V30 4432 C 422.979 -3.37985 -0.697131 0
M  V30 4433 C 422.092 -4.31661 0.170992 0
M  V30 4434 C 421.227 -5.2655 -0.701298 0
M  V30 4435 C 420.266 -6.11867 0.168869 0
M  V30 4436 N 419.403 -6.98973 -0.661855 0
M  V30 4437 H 424.243 -2.81767 0.970135 0
M  V30 4438 H 421.78 -1.38699 0.489994 0
M  V30 4439 H 423.738 -3.99128 -1.2146 0
M  V30 4440 H 422.368 -2.87739 -1.46309 0
M  V30 4441 H 421.42 -3.71756 0.80634 0
M  V30 4442 H 422.732 -4.91644 0.841875 0
M  V30 4443 H 421.886 -5.92937 -1.28494 0
M  V30 4444 H 420.625 -4.66998 -1.40584 0
M  V30 4445 H 419.63 -5.44452 0.764986 0
M  V30 4446 H 420.855 -6.73493 0.870863 0
M  V30 4447 H 418.801 -6.41941 -1.35086 0
M  V30 4448 H 418.718 -7.55984 -0.0484447 0
M  V30 4449 H 419.986 -7.6974 -1.22963 0
M  V30 4450 N 424.215 -0.530993 -1.48385 0
M  V30 4451 C 425.162 0.231223 -2.29639 0
M  V30 4452 C 426.132 0.932864 -1.37429 0
M  V30 4453 O 427.317 0.933692 -1.66394 0
M  V30 4454 C 424.457 1.27155 -3.2082 0
M  V30 4455 C 423.57 0.578655 -4.28107 0
M  V30 4456 C 422.705 1.602 -5.06467 0
M  V30 4457 C 421.744 0.892625 -6.05556 0
M  V30 4458 N 420.881 1.86157 -6.76971 0
M  V30 4459 H 425.721 -0.467848 -2.94305 0
M  V30 4460 H 423.258 -0.242556 -1.45086 0
M  V30 4461 H 425.216 1.88703 -3.72085 0
M  V30 4462 H 423.846 1.939 -2.58075 0
M  V30 4463 H 422.898 -0.150782 -3.80101 0
M  V30 4464 H 424.21 0.0217065 -4.98795 0
M  V30 4465 H 423.364 2.29173 -5.61751 0
M  V30 4466 H 422.103 2.19285 -4.35621 0
M  V30 4467 H 421.108 0.188829 -5.49476 0
M  V30 4468 H 422.333 0.307878 -6.78402 0
M  V30 4469 H 420.279 2.44147 -6.08875 0
M  V30 4470 H 420.196 1.35608 -7.43738 0
M  V30 4471 H 421.464 2.54325 -7.36844 0
M  V30 4472 N 425.693 1.55336 -0.266172 0
M  V30 4473 C 426.603 2.2583 0.635458 0
M  V30 4474 C 427.619 1.28106 1.17749 0
M  V30 4475 O 428.795 1.61024 1.20968 0
M  V30 4476 C 425.86 2.95879 1.80712 0
M  V30 4477 C 424.921 4.09059 1.30265 0
M  V30 4478 C 424.154 4.75759 2.41846 0
M  V30 4479 O 424.377 4.41622 3.61007 0
M  V30 4480 O 423.311 5.63888 2.1051 0
M  V30 4481 H 427.137 3.03631 0.0646693 0
M  V30 4482 H 424.722 1.49361 -0.0339177 0
M  V30 4483 H 426.604 3.39932 2.49047 0
M  V30 4484 H 425.279 2.21002 2.36516 0
M  V30 4485 H 424.186 3.69482 0.586019 0
M  V30 4486 H 425.519 4.85811 0.790458 0
M  V30 4487 N 427.171 -0.0066808 1.57599 0
M  V30 4488 C 428.101 -0.999296 2.11036 0
M  V30 4489 C 429.082 -1.36278 1.01795 0
M  V30 4490 O 430.267 -1.4477 1.29442 0
M  V30 4491 C 427.397 -2.29328 2.60818 0
M  V30 4492 C 426.351 -2.07159 3.74525 0
M  V30 4493 C 425.677 -3.42512 4.10596 0
M  V30 4494 C 426.977 -1.43959 5.02069 0
M  V30 4495 H 428.671 -0.554382 2.94223 0
M  V30 4496 H 426.217 -0.265221 1.41536 0
M  V30 4497 H 428.17 -2.99117 2.96828 0
M  V30 4498 H 426.894 -2.7592 1.74745 0
M  V30 4499 H 425.553 -1.39797 3.38899 0
M  V30 4500 H 425.201 -3.86795 3.21556 0
M  V30 4501 H 424.901 -3.28498 4.87199 0
M  V30 4502 H 426.425 -4.13628 4.4916 0
M  V30 4503 H 427.839 -2.03696 5.35893 0
M  V30 4504 H 426.236 -1.40452 5.83432 0
M  V30 4505 H 427.306 -0.407992 4.83181 0
M  V30 4506 N 428.649 -1.55105 -0.279332 0
M  V30 4507 C 429.898 -1.74618 -1.00952 0
M  V30 4508 C 430.211 -0.551096 -1.87676 0
M  V30 4509 O 431.417 -0.628507 -2.64125 0
M  V30 4510 C 429.873 -3.09025 -1.84476 0
M  V30 4511 C 429.481 -4.36081 -1.0265 0
M  V30 4512 C 431.225 -3.37891 -2.56963 0
M  V30 4513 C 429.132 -5.6153 -1.85576 0
M  V30 4514 H 428.062 -0.650868 -0.38064 0
M  V30 4515 H 430.713 -1.81569 -0.265475 0
M  V30 4516 H 429.095 -2.96095 -2.62952 0
M  V30 4517 H 430.269 -4.59909 -0.286354 0
M  V30 4518 H 428.584 -4.14312 -0.416464 0
M  V30 4519 H 431.181 -4.28822 -3.19399 0
M  V30 4520 H 431.524 -2.57737 -3.26921 0
M  V30 4521 H 432.057 -3.5189 -1.85522 0
M  V30 4522 H 428.796 -6.44413 -1.2005 0
M  V30 4523 H 428.316 -5.41854 -2.57204 0
M  V30 4524 H 429.995 -5.99594 -2.43096 0
M  V30 4525 N 430.127 0.543554 -1.4793 0
M  V30 4526 C 431.376 1.29649 -1.54512 0
M  V30 4527 C 431.689 1.94382 -0.217973 0
M  V30 4528 O 432.895 2.71017 -0.161908 0
M  V30 4529 C 431.351 2.35175 -2.72435 0
M  V30 4530 C 430.959 1.76572 -4.11736 0
M  V30 4531 C 432.703 3.11564 -2.8832 0
M  V30 4532 C 430.61 2.79958 -5.20939 0
M  V30 4533 H 429.54 0.487541 -0.57517 0
M  V30 4534 H 432.191 0.575708 -1.74235 0
M  V30 4535 H 430.573 3.10229 -2.46118 0
M  V30 4536 H 431.747 1.07799 -4.48013 0
M  V30 4537 H 430.062 1.12722 -4.00852 0
M  V30 4538 H 432.659 3.88794 -3.67074 0
M  V30 4539 H 433.002 3.66594 -1.97268 0
M  V30 4540 H 433.535 2.43623 -3.14472 0
M  V30 4541 H 430.274 2.29766 -6.13912 0
M  V30 4542 H 429.794 3.47101 -4.89164 0
M  V30 4543 H 431.473 3.43198 -5.48474 0
M  V30 4544 N 431.605 1.3629 0.791371 0
M  V30 4545 C 432.553 1.30514 1.92533 0
M  V30 4546 C 433.547 0.197285 1.68247 0
M  V30 4547 O 434.753 0.364176 1.76278 0
M  V30 4548 H 431.128 0.406263 0.632815 0
M  V30 4549 H 433.099 2.26282 1.94523 0
M  V30 4550 C 431.848 1.10933 3.29529 0
M  V30 4551 H 431.171 1.95427 3.48781 0
M  V30 4552 H 432.611 1.10937 4.0923 0
M  V30 4553 C 431.07 -0.186123 3.36385 0
M  V30 4554 O 431.6 -1.17664 3.84081 0
M  V30 4555 N 429.806 -0.230128 2.89687 0
M  V30 4556 H 429.353 0.576545 2.51065 0
M  V30 4557 H 429.311 -1.09658 2.94657 0
M  V30 4558 N 433.083 -1.0153 1.20538 0
M  V30 4559 C 433.993 -2.13557 0.971113 0
M  V30 4560 C 435.009 -1.73845 -0.0734366 0
M  V30 4561 O 436.185 -2.01075 0.114299 0
M  V30 4562 C 433.25 -3.42661 0.527639 0
M  V30 4563 C 432.311 -3.96608 1.64319 0
M  V30 4564 C 431.544 -5.1955 1.22078 0
M  V30 4565 O 431.767 -5.70329 0.0900198 0
M  V30 4566 O 430.701 -5.66681 2.02871 0
M  V30 4567 H 434.527 -2.3619 1.90913 0
M  V30 4568 H 432.112 -1.11946 0.989362 0
M  V30 4569 H 433.994 -4.20404 0.289621 0
M  V30 4570 H 432.669 -3.21441 -0.381779 0
M  V30 4571 H 431.576 -3.20139 1.93551 0
M  V30 4572 H 432.909 -4.22219 2.52966 0
M  V30 4573 N 434.561 -1.01147 -1.20859 0
M  V30 4574 C 435.81 -0.693214 -1.89413 0
M  V30 4575 C 436.123 0.779969 -1.79376 0
M  V30 4576 O 437.329 1.21057 -2.43017 0
M  V30 4577 C 435.785 -1.18949 -3.39675 0
M  V30 4578 C 435.393 -2.68921 -3.58309 0
M  V30 4579 C 437.137 -0.94642 -4.13815 0
M  V30 4580 C 435.044 -3.12056 -5.0237 0
M  V30 4581 H 433.974 -0.255595 -0.709357 0
M  V30 4582 H 436.625 -1.22349 -1.36759 0
M  V30 4583 H 435.007 -0.587228 -3.91622 0
M  V30 4584 H 436.181 -3.34652 -3.16772 0
M  V30 4585 H 434.496 -2.91314 -2.97532 0
M  V30 4586 H 437.093 -1.24417 -5.20023 0
M  V30 4587 H 437.436 0.117219 -4.16135 0
M  V30 4588 H 437.969 -1.5118 -3.67953 0
M  V30 4589 H 434.708 -4.17674 -5.05202 0
M  V30 4590 H 434.228 -2.51041 -5.44737 0
M  V30 4591 H 435.907 -3.04403 -5.70918 0
M  V30 4592 N 436.039 1.36541 -0.78704 0
M  V30 4593 C 436.969 2.32659 -0.197992 0
M  V30 4594 C 437.95 1.56533 0.665697 0
M  V30 4595 O 439.135 1.84698 0.60001 0
M  V30 4596 C 436.265 3.40778 0.669901 0
M  V30 4597 C 435.219 4.27897 -0.0937039 0
M  V30 4598 C 434.545 5.27163 0.894629 0
M  V30 4599 C 435.845 5.06334 -1.28154 0
M  V30 4600 H 437.539 2.82171 -1.00099 0
M  V30 4601 H 435.085 1.35665 -0.482793 0
M  V30 4602 H 437.038 4.07008 1.09191 0
M  V30 4603 H 435.762 2.89827 1.50558 0
M  V30 4604 H 434.421 3.6322 -0.49666 0
M  V30 4605 H 434.069 4.72486 1.72527 0
M  V30 4606 H 433.769 5.86317 0.388149 0
M  V30 4607 H 435.293 5.96266 1.31525 0
M  V30 4608 H 436.707 5.65617 -0.93541 0
M  V30 4609 H 435.104 5.74888 -1.72115 0
M  V30 4610 H 436.174 4.38114 -2.07807 0
M  V30 4611 N 437.518 0.538854 1.48102 0
M  V30 4612 C 438.764 0.00801365 2.02798 0
M  V30 4613 C 439.097 -1.3309 1.41424 0
M  V30 4614 O 438.372 -1.86169 0.563158 0
M  V30 4615 C 438.655 -0.104589 3.59948 0
M  V30 4616 C 438.508 1.26012 4.31788 0
M  V30 4617 C 439.827 -0.827055 4.32259 0
M  V30 4618 H 436.946 0.00438624 0.736987 0
M  V30 4619 H 439.588 0.6976 1.7673 0
M  V30 4620 H 437.738 -0.691893 3.82289 0
M  V30 4621 H 439.41 1.88922 4.2084 0
M  V30 4622 H 437.653 1.83968 3.92859 0
M  V30 4623 H 438.324 1.13424 5.40221 0
M  V30 4624 H 440.8 -0.328578 4.14801 0
M  V30 4625 H 439.676 -0.87476 5.41885 0
M  V30 4626 H 439.937 -1.87927 4.0017 0
M  V30 4627 N 438.996 -1.55193 0.274407 0
M  V30 4628 C 439.929 -2.18606 -0.654712 0
M  V30 4629 C 440.907 -1.14677 -1.15273 0
M  V30 4630 O 442.091 -1.43198 -1.22583 0
M  V30 4631 C 439.218 -2.80875 -1.89281 0
M  V30 4632 C 438.264 -3.981 -1.53032 0
M  V30 4633 S 439.097 -5.32025 -0.609107 0
M  V30 4634 C 440.253 -5.97761 -1.85559 0
M  V30 4635 H 440.486 -2.97074 -0.115894 0
M  V30 4636 H 438.019 -1.54288 0.05867 0
M  V30 4637 H 439.977 -3.17381 -2.60345 0
M  V30 4638 H 438.638 -2.02302 -2.40277 0
M  V30 4639 H 437.831 -4.40356 -2.45158 0
M  V30 4640 H 437.433 -3.63013 -0.899874 0
M  V30 4641 H 439.725 -6.16951 -2.7996 0
M  V30 4642 H 440.668 -6.92545 -1.47605 0
M  V30 4643 H 441.076 -5.27113 -2.02021 0
M  V30 4644 N 440.474 -0.00167713 -1.576 0
M  V30 4645 C 441.421 0.989195 -2.08527 0
M  V30 4646 C 442.391 1.34031 -0.981065 0
M  V30 4647 O 443.576 1.43839 -1.2536 0
M  V30 4648 C 440.716 2.27537 -2.59463 0
M  V30 4649 C 439.829 1.98314 -3.83791 0
M  V30 4650 C 438.964 3.21025 -4.23222 0
M  V30 4651 C 438.003 2.87495 -5.40382 0
M  V30 4652 N 437.14 4.02749 -5.75098 0
M  V30 4653 H 441.98 0.547973 -2.92919 0
M  V30 4654 H 439.517 0.258917 -1.44803 0
M  V30 4655 H 441.475 3.02729 -2.87073 0
M  V30 4656 H 440.105 2.69325 -1.77943 0
M  V30 4657 H 439.157 1.13482 -3.63078 0
M  V30 4658 H 440.469 1.69601 -4.69081 0
M  V30 4659 H 439.623 4.04561 -4.52123 0
M  V30 4660 H 438.362 3.52877 -3.36644 0
M  V30 4661 H 437.367 2.02367 -5.11202 0
M  V30 4662 H 438.592 2.56889 -6.28637 0
M  V30 4663 H 436.538 4.34494 -4.91478 0
M  V30 4664 H 436.455 3.77566 -6.54966 0
M  V30 4665 H 437.723 4.87068 -6.08592 0
M  V30 4666 N 441.952 1.55251 0.271103 0
M  V30 4667 C 442.862 1.9136 1.35714 0
M  V30 4668 C 443.878 0.811075 1.5394 0
M  V30 4669 O 445.054 1.11031 1.6803 0
M  V30 4670 C 442.119 2.1798 2.69603 0
M  V30 4671 C 441.18 3.4153 2.60107 0
M  V30 4672 C 440.413 3.66871 3.8761 0
M  V30 4673 O 440.636 2.94689 4.8838 0
M  V30 4674 O 439.57 4.60405 3.87699 0
M  V30 4675 H 443.396 2.83815 1.08088 0
M  V30 4676 H 440.981 1.41821 0.469792 0
M  V30 4677 H 442.863 2.36518 3.48765 0
M  V30 4678 H 441.538 1.28708 2.97012 0
M  V30 4679 H 440.445 3.28325 1.79314 0
M  V30 4680 H 441.778 4.31027 2.37647 0
M  V30 4681 N 443.43 -0.535701 1.48216 0
M  V30 4682 C 444.36 -1.65014 1.65204 0
M  V30 4683 C 445.341 -1.62554 0.501011 0
M  V30 4684 O 446.526 -1.7984 0.732886 0
M  V30 4685 C 443.656 -3.03616 1.68626 0
M  V30 4686 C 442.61 -3.20932 2.83172 0
M  V30 4687 C 441.936 -4.60537 2.71679 0
M  V30 4688 C 443.236 -3.04249 4.24535 0
M  V30 4689 H 444.93 -1.51053 2.58502 0
M  V30 4690 H 442.476 -0.725262 1.24402 0
M  V30 4691 H 444.429 -3.81446 1.79099 0
M  V30 4692 H 443.153 -3.18587 0.719026 0
M  V30 4693 H 441.812 -2.45517 2.72244 0
M  V30 4694 H 441.46 -4.72336 1.72937 0
M  V30 4695 H 441.16 -4.73069 3.48538 0
M  V30 4696 H 442.684 -5.40475 2.84112 0
M  V30 4697 H 444.098 -3.71877 4.36326 0
M  V30 4698 H 442.495 -3.28278 5.02348 0
M  V30 4699 H 443.565 -2.00739 4.41397 0
M  V30 4700 N 444.908 -1.36708 -0.784132 0
M  V30 4701 C 445.855 -1.31466 -1.89698 0
M  V30 4702 C 446.825 -0.18239 -1.65096 0
M  V30 4703 O 448.01 -0.369762 -1.87183 0
M  V30 4704 C 445.15 -1.1151 -3.26588 0
M  V30 4705 C 444.263 -2.33859 -3.63227 0
M  V30 4706 C 443.398 -2.06873 -4.89262 0
M  V30 4707 C 442.437 -3.25154 -5.18595 0
M  V30 4708 N 441.574 -2.978 -6.35814 0
M  V30 4709 H 446.414 -2.26619 -1.93515 0
M  V30 4710 H 443.951 -1.12625 -0.946256 0
M  V30 4711 H 445.909 -0.979653 -4.05535 0
M  V30 4712 H 444.539 -0.200103 -3.22179 0
M  V30 4713 H 443.591 -2.58188 -2.79362 0
M  V30 4714 H 444.903 -3.22109 -3.8085 0
M  V30 4715 H 444.057 -1.90289 -5.76086 0
M  V30 4716 H 442.796 -1.15942 -4.73718 0
M  V30 4717 H 441.801 -3.42292 -4.30251 0
M  V30 4718 H 443.026 -4.1692 -5.36055 0
M  V30 4719 H 440.972 -2.09485 -6.21653 0
M  V30 4720 H 440.889 -3.7959 -6.53794 0
M  V30 4721 H 442.157 -2.84805 -7.25607 0
M  V30 4722 N 446.386 1.0089 -1.21074 0
M  V30 4723 C 447.334 2.11707 -0.963476 0
M  V30 4724 C 448.328 1.69172 0.0879032 0
M  V30 4725 O 449.534 1.79889 -0.0631415 0
M  V30 4726 H 445.909 0.692026 -0.294287 0
M  V30 4727 H 447.88 2.29743 -1.90422 0
M  V30 4728 C 446.629 3.43473 -0.540509 0
M  V30 4729 H 445.952 3.76634 -1.34114 0
M  V30 4730 H 447.392 4.22044 -0.406777 0
M  V30 4731 C 445.851 3.2849 0.748079 0
M  V30 4732 O 446.381 3.58883 1.8046 0
M  V30 4733 N 444.587 2.81715 0.713081 0
M  V30 4734 H 444.134 2.5718 -0.146973 0
M  V30 4735 H 444.092 2.72071 1.57558 0
M  V30 4736 N 447.864 1.01787 1.20321 0
M  V30 4737 C 449.275 0.739307 1.71438 0
M  V30 4738 C 449.626 -0.742041 1.81627 0
M  V30 4739 O 448.751 -1.57903 1.47971 0
M  V30 4740 C 449.346 1.33538 3.11373 0
M  V30 4741 C 447.905 1.10566 3.59795 0
M  V30 4742 C 447.052 1.44028 2.36962 0
M  V30 4743 H 450.003 1.18718 1.05317 0
M  V30 4744 H 450.024 0.726611 3.73498 0
M  V30 4745 H 449.536 2.41352 3.03926 0
M  V30 4746 H 447.637 0.0452405 3.72573 0
M  V30 4747 H 447.75 1.78661 4.44542 0
M  V30 4748 H 446.114 0.85933 2.39766 0
M  V30 4749 H 446.897 2.52901 2.32155 0
M  V30 4750 N 449.342 -1.36122 0.79427 0
M  V30 4751 C 450.29 -2.31871 0.184023 0
M  V30 4752 C 451.284 -1.56041 -0.659365 0
M  V30 4753 O 452.49 -1.71266 -0.553906 0
M  V30 4754 H 448.865 -0.750896 0.0407373 0
M  V30 4755 H 450.836 -2.80898 1.00693 0
M  V30 4756 C 449.585 -3.41324 -0.662813 0
M  V30 4757 H 448.908 -3.99793 -0.0231944 0
M  V30 4758 H 450.348 -4.10629 -1.05639 0
M  V30 4759 C 448.807 -2.83308 -1.82313 0
M  V30 4760 O 449.337 -2.75863 -2.91997 0
M  V30 4761 N 447.543 -2.40529 -1.63077 0
M  V30 4762 H 447.09 -2.46785 -0.738591 0
M  V30 4763 H 447.048 -2.02059 -2.40872 0
M  V30 4764 N 450.82 -0.546701 -1.47814 0
M  V30 4765 C 452.069 -0.0166497 -2.01693 0
M  V30 4766 C 452.382 1.33721 -1.42752 0
M  V30 4767 O 453.588 1.95658 -1.8823 0
M  V30 4768 C 452.044 0.0206769 -3.59894 0
M  V30 4769 C 451.652 -1.3293 -4.27824 0
M  V30 4770 C 453.396 0.498674 -4.21561 0
M  V30 4771 C 451.303 -1.25165 -5.78003 0
M  V30 4772 H 450.233 -0.0024541 -0.753996 0
M  V30 4773 H 452.884 -0.692984 -1.69912 0
M  V30 4774 H 451.266 0.76244 -3.88591 0
M  V30 4775 H 452.44 -2.08795 -4.10781 0
M  V30 4776 H 450.755 -1.74438 -3.78101 0
M  V30 4777 H 453.352 0.575 -5.31599 0
M  V30 4778 H 453.695 1.5083 -3.88016 0
M  V30 4779 H 454.228 -0.18791 -3.97356 0
M  V30 4780 H 450.967 -2.23695 -6.1615 0
M  V30 4781 H 450.487 -0.53464 -5.97412 0
M  V30 4782 H 452.166 -0.949299 -6.39998 0
M  V30 4783 N 452.299 1.55045 -0.282633 0
M  V30 4784 C 453.545 2.00056 0.332481 0
M  V30 4785 C 453.878 1.1708 1.54939 0
M  V30 4786 O 453.153 0.2427 1.9298 0
M  V30 4787 C 453.436 3.53086 0.70725 0
M  V30 4788 C 453.289 4.46813 -0.517521 0
M  V30 4789 C 454.608 4.12245 1.54084 0
M  V30 4790 H 451.727 0.727268 0.119373 0
M  V30 4791 H 454.369 1.85932 -0.391076 0
M  V30 4792 H 452.519 3.65253 1.32372 0
M  V30 4793 H 454.191 4.46579 -1.15607 0
M  V30 4794 H 452.434 4.18163 -1.1542 0
M  V30 4795 H 453.105 5.51595 -0.211426 0
M  V30 4796 H 455.581 4.03401 1.02013 0
M  V30 4797 H 454.457 5.19515 1.77186 0
M  V30 4798 H 454.718 3.62951 2.52427 0
M  V30 4799 N 453.777 0.010035 1.57597 0
M  V30 4800 C 454.725 -0.996272 2.10184 0
M  V30 4801 C 455.719 -1.34942 1.02406 0
M  V30 4802 O 456.925 -1.33389 1.20861 0
M  V30 4803 H 453.3 -0.338982 0.671264 0
M  V30 4804 H 455.271 -0.527272 2.93705 0
M  V30 4805 C 454.02 -2.27599 2.62857 0
M  V30 4806 H 453.343 -2.01295 3.45428 0
M  V30 4807 H 454.783 -2.96265 3.0332 0
M  V30 4808 C 453.242 -2.99269 1.54725 0
M  V30 4809 O 453.772 -3.90644 0.93597 0
M  V30 4810 N 451.978 -2.61269 1.27228 0
M  V30 4811 H 451.525 -1.87043 1.77123 0
M  V30 4812 H 451.483 -3.09534 0.550999 0
M  V30 4813 N 455.255 -1.55392 -0.262866 0
M  V30 4814 C 456.502 -1.76476 -0.993109 0
M  V30 4815 C 456.83 -0.571479 -1.85915 0
M  V30 4816 O 456.085 0.445733 -1.90556 0
M  V30 4817 C 456.384 -3.02889 -1.89718 0
M  V30 4818 C 456.05 -4.34974 -1.18781 0
M  V30 4819 C 454.712 -4.7087 -0.991699 0
M  V30 4820 C 457.064 -5.16695 -0.683798 0
M  V30 4821 C 454.392 -5.86036 -0.279024 0
M  V30 4822 C 456.744 -6.32598 0.0153327 0
M  V30 4823 C 455.408 -6.67127 0.223062 0
M  V30 4824 H 454.678 -0.64577 -0.363404 0
M  V30 4825 H 457.325 -1.89664 -0.264525 0
M  V30 4826 H 455.63 -2.84644 -2.6923 0
M  V30 4827 H 457.327 -3.16399 -2.46359 0
M  V30 4828 H 453.917 -4.06765 -1.35058 0
M  V30 4829 H 458.101 -4.8943 -0.8229 0
M  V30 4830 H 453.357 -6.11306 -0.107456 0
M  V30 4831 H 457.531 -6.95171 0.413584 0
M  V30 4832 H 455.158 -7.56216 0.777265 0
M  V30 4833 N 456.733 0.527833 -1.48498 0
M  V30 4834 C 457.663 1.64136 -1.66077 0
M  V30 4835 C 458.644 1.62286 -0.509625 0
M  V30 4836 O 459.829 1.79449 -0.742413 0
M  V30 4837 C 456.959 3.02717 -1.70234 0
M  V30 4838 C 455.913 3.19426 -2.8487 0
M  V30 4839 C 455.239 4.5909 -2.74118 0
M  V30 4840 C 456.539 3.01993 -4.26142 0
M  V30 4841 H 458.233 1.4968 -2.593 0
M  V30 4842 H 455.779 0.718654 -1.24785 0
M  V30 4843 H 457.732 3.80491 -1.8112 0
M  V30 4844 H 456.456 3.18201 -0.735911 0
M  V30 4845 H 455.115 2.4407 -2.73542 0
M  V30 4846 H 454.763 4.71413 -1.7544 0
M  V30 4847 H 454.463 4.71214 -3.51042 0
M  V30 4848 H 455.987 5.3896 -2.86974 0
M  V30 4849 H 457.401 3.69558 -4.38292 0
M  V30 4850 H 455.798 3.2561 -5.04082 0
M  V30 4851 H 456.868 1.98396 -4.42456 0
M  V30 4852 N 458.211 1.37122 0.776871 0
M  V30 4853 C 459.488 1.22586 1.52421 0
M  V30 4854 C 459.868 -0.182726 2.10308 0
M  V30 4855 O 459.216 -1.18979 1.9508 0
M  V30 4856 C 459.426 2.31782 2.60918 0
M  V30 4857 C 460.774 2.69071 3.2846 0
M  V30 4858 O 461.798 2.3092 2.71209 0
M  V30 4859 O 460.657 3.3478 4.31954 0
M  V30 4860 H 457.751 0.478045 0.674835 0
M  V30 4861 H 460.297 1.48888 0.814275 0
M  V30 4862 H 459.069 3.26131 2.16227 0
M  V30 4863 H 458.692 2.06916 3.39517 0
M  V30 4864 N 459.689 -1.00246 1.21608 0
M  V30 4865 C 460.914 -1.78167 1.06167 0
M  V30 4866 C 461.339 -1.84138 -0.384035 0
M  V30 4867 O 460.697 -1.28683 -1.27712 0
M  V30 4868 C 460.745 -3.19786 1.66642 0
M  V30 4869 O 459.849 -4.02153 0.913613 0
M  V30 4870 H 459.19 -0.549 0.37349 0
M  V30 4871 H 461.72 -1.25994 1.61204 0
M  V30 4872 H 461.73 -3.70451 1.70969 0
M  V30 4873 H 460.405 -3.14754 2.7185 0
M  V30 4874 H 458.982 -3.60711 0.945635 0
M  V30 4875 N 461.167 -1.02423 -1.1978 0
M  V30 4876 C 462.397 -0.736387 -1.93031 0
M  V30 4877 C 462.805 0.708023 -1.75453 0
M  V30 4878 O 462.148 1.4927 -1.07071 0
M  V30 4879 C 462.21 -1.00194 -3.45255 0
M  V30 4880 C 461.874 -2.43698 -3.86601 0
M  V30 4881 C 462.871 -3.41814 -3.91738 0
M  V30 4882 C 460.556 -2.77975 -4.18372 0
M  V30 4883 C 462.55 -4.72265 -4.28071 0
M  V30 4884 C 460.237 -4.08636 -4.54378 0
M  V30 4885 C 461.235 -5.05592 -4.59201 0
M  V30 4886 O 460.923 -6.33914 -4.94376 0
M  V30 4887 H 460.655 -0.269116 -0.620123 0
M  V30 4888 H 463.209 -1.37043 -1.52998 0
M  V30 4889 H 461.439 -0.310747 -3.85449 0
M  V30 4890 H 463.128 -0.704488 -3.9974 0
M  V30 4891 H 463.894 -3.16671 -3.67348 0
M  V30 4892 H 459.773 -2.0319 -4.13805 0
M  V30 4893 H 463.317 -5.4794 -4.3175 0
M  V30 4894 H 459.214 -4.33556 -4.78226 0
M  V30 4895 H 459.982 -6.38317 -5.12341 0
M  V30 4896 N 462.645 1.35699 -0.801477 0
M  V30 4897 C 463.575 2.32436 -0.222658 0
M  V30 4898 C 464.556 1.5723 0.649057 0
M  V30 4899 O 465.741 1.85324 0.580387 0
M  V30 4900 C 462.871 3.41469 0.633719 0
M  V30 4901 C 461.825 4.27774 -0.139083 0
M  V30 4902 C 461.151 5.28082 0.838666 0
M  V30 4903 C 462.451 5.04946 -1.33517 0
M  V30 4904 H 464.145 2.81094 -1.03086 0
M  V30 4905 H 461.691 1.35146 -0.497155 0
M  V30 4906 H 463.644 4.08143 1.04868 0
M  V30 4907 H 462.368 2.91408 1.47475 0
M  V30 4908 H 461.027 3.62673 -0.535156 0
M  V30 4909 H 460.675 4.7429 1.67506 0
M  V30 4910 H 460.375 5.86695 0.32594 0
M  V30 4911 H 461.899 5.97628 1.25194 0
M  V30 4912 H 463.313 5.64593 -0.995349 0
M  V30 4913 H 461.71 5.7303 -1.78202 0
M  V30 4914 H 462.78 4.35886 -2.12442 0
M  V30 4915 N 464.123 0.554532 1.47522 0
M  V30 4916 C 465.369 0.0295227 2.02779 0
M  V30 4917 C 465.702 -1.31582 1.42828 0
M  V30 4918 O 464.977 -1.85561 0.582872 0
M  V30 4919 C 465.26 -0.0664057 3.60039 0
M  V30 4920 C 465.113 1.30585 4.30427 0
M  V30 4921 C 466.432 -0.781162 4.33112 0
M  V30 4922 H 463.551 0.0122027 0.736899 0
M  V30 4923 H 466.193 0.716305 1.7598 0
M  V30 4924 H 464.343 -0.651307 3.83002 0
M  V30 4925 H 466.015 1.93374 4.18813 0
M  V30 4926 H 464.258 1.88125 3.90886 0
M  V30 4927 H 464.929 1.19147 5.38988 0
M  V30 4928 H 467.405 -0.284565 4.15126 0
M  V30 4929 H 466.281 -0.817237 5.42782 0
M  V30 4930 H 466.542 -1.83672 4.0214 0
M  V30 4931 N 465.601 -1.54893 0.290851 0
M  V30 4932 C 466.849 -1.99538 -0.320756 0
M  V30 4933 C 467.17 -1.18075 -1.55188 0
M  V30 4934 O 466.44 -0.274162 -1.93972 0
M  V30 4935 H 465.02 -0.737052 -0.121507 0
M  V30 4936 H 467.682 -1.90755 0.399832 0
M  V30 4937 H 466.778 -3.06282 -0.599802 0
M  V30 4938 N 467.08 -0.0183926 -1.57589 0
M  V30 4939 C 468.357 0.700621 -1.82622 0
M  V30 4940 C 468.737 1.90951 -0.90005 0
M  V30 4941 O 468.085 2.28452 0.0469145 0
M  V30 4942 C 468.295 1.08899 -3.31575 0
M  V30 4943 C 469.643 1.48514 -3.9778 0
M  V30 4944 O 470.667 1.18227 -3.36007 0
M  V30 4945 O 469.526 2.04903 -5.06633 0
M  V30 4946 H 466.62 0.342743 -0.752633 0
M  V30 4947 H 469.166 -0.0452548 -1.6964 0
M  V30 4948 H 467.938 0.228113 -3.90635 0
M  V30 4949 H 467.561 1.89338 -3.49624 0
M  V30 4950 N 468.558 1.5553 0.254621 0
M  V30 4951 C 469.468 1.92789 1.33677 0
M  V30 4952 C 470.484 0.827356 1.53071 0
M  V30 4953 O 471.66 1.12807 1.66843 0
M  V30 4954 C 468.725 2.20827 2.67275 0
M  V30 4955 C 467.786 3.4427 2.5647 0
M  V30 4956 C 467.019 3.70961 3.83697 0
M  V30 4957 O 467.242 2.99852 4.85227 0
M  V30 4958 O 466.176 4.64491 3.82794 0
M  V30 4959 H 470.002 2.84945 1.05071 0
M  V30 4960 H 467.587 1.42312 0.454723 0
M  V30 4961 H 469.469 2.40204 3.46237 0
M  V30 4962 H 468.144 1.31851 2.9563 0
M  V30 4963 H 467.051 3.30209 1.75821 0
M  V30 4964 H 468.384 4.33524 2.33062 0
M  V30 4965 N 470.036 -0.519951 1.48776 0
M  V30 4966 C 470.966 -1.63253 1.66945 0
M  V30 4967 C 471.947 -1.62014 0.518224 0
M  V30 4968 O 473.132 -1.79053 0.751919 0
M  V30 4969 C 470.262 -3.0181 1.71836 0
M  V30 4970 C 469.216 -3.17911 2.8656 0
M  V30 4971 C 468.542 -4.5763 2.76548 0
M  V30 4972 C 469.842 -2.99729 4.27738 0
M  V30 4973 H 471.536 -1.48302 2.6009 0
M  V30 4974 H 469.082 -0.712026 1.25165 0
M  V30 4975 H 471.035 -3.79525 1.83135 0
M  V30 4976 H 469.759 -3.17806 0.752775 0
M  V30 4977 H 468.418 -2.42616 2.74833 0
M  V30 4978 H 468.066 -4.70476 1.77937 0
M  V30 4979 H 467.766 -4.69346 3.53536 0
M  V30 4980 H 469.29 -5.37431 2.89828 0
M  V30 4981 H 470.704 -3.67228 4.40246 0
M  V30 4982 H 469.101 -3.22932 5.05801 0
M  V30 4983 H 470.171 -1.96047 4.43502 0
M  V30 4984 N 471.514 -1.37532 -0.769588 0
M  V30 4985 C 472.761 -1.3286 -1.52822 0
M  V30 4986 C 473.089 0.0862597 -1.94309 0
M  V30 4987 O 472.344 1.05995 -1.6451 0
M  V30 4988 C 472.643 -2.21558 -2.8044 0
M  V30 4989 C 472.309 -3.69796 -2.57996 0
M  V30 4990 C 470.971 -4.10194 -2.51583 0
M  V30 4991 C 473.323 -4.63699 -2.37976 0
M  V30 4992 C 470.651 -5.42608 -2.23144 0
M  V30 4993 C 473.003 -5.96353 -2.1106 0
M  V30 4994 C 471.667 -6.35853 -2.03093 0
M  V30 4995 H 470.937 -0.486168 -0.559215 0
M  V30 4996 H 473.584 -1.69757 -0.886277 0
M  V30 4997 H 471.889 -1.77663 -3.49204 0
M  V30 4998 H 473.586 -2.15256 -3.38328 0
M  V30 4999 H 470.176 -3.37759 -2.63851 0
M  V30 5000 H 474.36 -4.33346 -2.41919 0
M  V30 5001 H 469.616 -5.72173 -2.15472 0
M  V30 5002 H 473.79 -6.68667 -1.94568 0
M  V30 5003 H 471.417 -7.38382 -1.8082 0
M  V30 5004 N 472.992 0.995999 -1.22138 0
M  V30 5005 C 474.238 1.73767 -1.04561 0
M  V30 5006 C 474.571 1.89633 0.418698 0
M  V30 5007 O 473.846 1.43723 1.3105 0
M  V30 5008 C 474.129 3.14505 -1.75382 0
M  V30 5009 C 473.982 3.06306 -3.29388 0
M  V30 5010 C 475.301 4.13615 -1.50369 0
M  V30 5011 H 472.42 0.630728 -0.38125 0
M  V30 5012 H 475.062 1.16057 -1.50435 0
M  V30 5013 H 473.212 3.63775 -1.36383 0
M  V30 5014 H 474.884 2.64681 -3.77812 0
M  V30 5015 H 473.127 2.43186 -3.59226 0
M  V30 5016 H 473.798 4.05884 -3.74116 0
M  V30 5017 H 476.274 3.73089 -1.84239 0
M  V30 5018 H 475.15 5.10212 -2.02421 0
M  V30 5019 H 475.411 4.39949 -0.435611 0
M  V30 5020 N 474.47 1.03057 1.19235 0
M  V30 5021 C 475.716 0.729098 1.89241 0
M  V30 5022 C 476.049 -0.740573 1.79525 0
M  V30 5023 O 475.324 -1.53946 1.18874 0
M  V30 5024 C 475.607 1.18304 3.40112 0
M  V30 5025 C 475.46 2.71406 3.5869 0
M  V30 5026 C 476.779 0.765161 4.33397 0
M  V30 5027 H 473.898 0.266338 0.687192 0
M  V30 5028 H 476.54 1.28079 1.40341 0
M  V30 5029 H 474.69 0.713672 3.81889 0
M  V30 5030 H 476.362 3.26303 3.26074 0
M  V30 5031 H 474.605 3.11717 3.01687 0
M  V30 5032 H 475.276 2.98225 4.64506 0
M  V30 5033 H 477.752 1.16889 3.99345 0
M  V30 5034 H 476.628 1.11065 5.37546 0
M  V30 5035 H 476.889 -0.332372 4.40849 0
M  V30 5036 N 475.948 -1.35272 0.808662 0
M  V30 5037 C 476.881 -2.27595 0.165994 0
M  V30 5038 C 477.859 -1.48189 -0.669241 0
M  V30 5039 O 479.043 -1.77444 -0.636073 0
M  V30 5040 C 476.17 -3.29843 -0.769505 0
M  V30 5041 C 475.216 -4.26498 -0.0136267 0
M  V30 5042 S 476.049 -5.18878 1.32384 0
M  V30 5043 C 477.205 -6.24666 0.392838 0
M  V30 5044 H 477.438 -2.81755 0.948756 0
M  V30 5045 H 474.971 -1.42103 0.603828 0
M  V30 5046 H 476.929 -3.89247 -1.30374 0
M  V30 5047 H 475.59 -2.74558 -1.52567 0
M  V30 5048 H 474.783 -4.98769 -0.724227 0
M  V30 5049 H 474.385 -3.71274 0.450713 0
M  V30 5050 H 476.677 -6.7619 -0.4211 0
M  V30 5051 H 477.62 -6.99741 1.0848 0
M  V30 5052 H 478.028 -5.64499 -0.0123908 0
M  V30 5053 N 477.426 -0.562348 -1.47226 0
M  V30 5054 C 478.336 0.185466 -2.33866 0
M  V30 5055 C 479.352 0.906713 -1.48508 0
M  V30 5056 O 480.528 0.874458 -1.81425 0
M  V30 5057 C 477.593 1.19904 -3.25306 0
M  V30 5058 C 476.654 0.484669 -4.26555 0
M  V30 5059 C 475.887 1.44996 -5.13626 0
M  V30 5060 O 476.11 2.68515 -5.03245 0
M  V30 5061 O 475.044 0.971642 -5.94006 0
M  V30 5062 H 478.87 -0.525361 -2.99121 0
M  V30 5063 H 476.455 -0.322916 -1.45868 0
M  V30 5064 H 478.337 1.78399 -3.81774 0
M  V30 5065 H 477.012 1.8917 -2.62672 0
M  V30 5066 H 475.919 -0.141605 -3.73832 0
M  V30 5067 H 477.252 -0.166634 -4.91918 0
M  V30 5068 N 478.904 1.54736 -0.299062 0
M  V30 5069 C 480.134 2.04215 0.312992 0
M  V30 5070 C 480.542 1.17596 1.48215 0
M  V30 5071 O 479.885 0.193835 1.82674 0
M  V30 5072 C 479.947 3.49696 0.833862 0
M  V30 5073 C 479.611 4.56518 -0.20977 0
M  V30 5074 C 480.608 5.09442 -1.03756 0
M  V30 5075 C 478.293 5.01073 -0.35091 0
M  V30 5076 C 480.287 6.05459 -1.99244 0
M  V30 5077 C 477.974 5.9691 -1.30924 0
M  V30 5078 C 478.972 6.48987 -2.1285 0
M  V30 5079 O 478.66 7.42947 -3.07059 0
M  V30 5080 H 478.392 0.672128 0.0722494 0
M  V30 5081 H 480.946 2.00718 -0.436043 0
M  V30 5082 H 479.176 3.5051 1.63339 0
M  V30 5083 H 480.865 3.82381 1.36159 0
M  V30 5084 H 481.631 4.75816 -0.939376 0
M  V30 5085 H 477.51 4.60168 0.276813 0
M  V30 5086 H 481.054 6.46031 -2.63229 0
M  V30 5087 H 476.951 6.29953 -1.40815 0
M  V30 5088 H 477.719 7.60743 -3.02015 0
M  V30 5089 N 480.382 0.0267497 1.57577 0
M  V30 5090 C 481.312 -0.954308 2.13108 0
M  V30 5091 C 482.293 -1.34088 1.04663 0
M  V30 5092 O 483.478 -1.41992 1.32484 0
M  V30 5093 C 480.608 -2.23744 2.65624 0
M  V30 5094 C 479.562 -1.99168 3.78835 0
M  V30 5095 C 478.888 -3.33726 4.17769 0
M  V30 5096 C 480.188 -1.33277 5.0501 0
M  V30 5097 H 481.882 -0.491848 2.95332 0
M  V30 5098 H 479.428 -0.23514 1.42067 0
M  V30 5099 H 481.381 -2.92754 3.03106 0
M  V30 5100 H 480.105 -2.72151 1.80558 0
M  V30 5101 H 478.764 -1.32577 3.41788 0
M  V30 5102 H 478.412 -3.79888 3.29688 0
M  V30 5103 H 478.112 -3.18089 4.94058 0
M  V30 5104 H 479.636 -4.04008 4.57832 0
M  V30 5105 H 481.05 -1.92283 5.40093 0
M  V30 5106 H 479.447 -1.28045 5.8628 0
M  V30 5107 H 480.517 -0.305411 4.83937 0
M  V30 5108 N 481.861 -1.55662 -0.24637 0
M  V30 5109 C 482.824 -1.89558 -1.28842 0
M  V30 5110 C 483.824 -0.772082 -1.41052 0
M  V30 5111 O 485.014 -1.04007 -1.39743 0
M  V30 5112 C 482.146 -2.12449 -2.66605 0
M  V30 5113 H 483.339 -2.82735 -1.00004 0
M  V30 5114 H 480.892 -1.48562 -0.485684 0
M  V30 5115 H 481.627 -1.21742 -3.00582 0
M  V30 5116 H 481.412 -2.94273 -2.59125 0
M  V30 5117 H 482.902 -2.39854 -3.41847 0
M  V30 5118 N 483.339 0.512053 -1.4905 0
M  V30 5119 C 484.587 1.26436 -1.57665 0
M  V30 5120 C 484.908 1.93255 -0.260293 0
M  V30 5121 O 484.178 1.82206 0.719564 0
M  V30 5122 H 482.758 0.469658 -0.580888 0
M  V30 5123 H 485.42 0.594398 -1.85615 0
M  V30 5124 H 484.516 2.03417 -2.36702 0
M  V30 5125 N 484.817 1.37938 0.762283 0
M  V30 5126 C 486.065 1.33404 1.51815 0
M  V30 5127 C 486.386 -0.0780975 1.94844 0
M  V30 5128 O 485.656 -1.02405 1.67003 0
M  V30 5129 H 484.236 0.490839 0.563104 0
M  V30 5130 H 486.898 1.72527 0.906669 0
M  V30 5131 H 485.994 1.97926 2.41313 0
M  V30 5132 N 486.295 -0.989507 1.22664 0
M  V30 5133 C 487.52 -1.77031 1.08051 0
M  V30 5134 C 487.945 -1.84535 -0.364483 0
M  V30 5135 O 487.303 -1.3003 -1.2634 0
M  V30 5136 C 487.351 -3.18 1.70024 0
M  V30 5137 O 486.455 -4.01161 0.956216 0
M  V30 5138 H 485.796 -0.545008 0.379292 0
M  V30 5139 H 488.326 -1.24277 1.62531 0
M  V30 5140 H 488.336 -3.68616 1.74888 0
M  V30 5141 H 487.011 -3.11853 2.75174 0
M  V30 5142 H 485.588 -3.59687 0.98384 0
M  V30 5143 N 487.773 -1.03688 -1.18687 0
M  V30 5144 C 488.703 -0.645407 -2.24403 0
M  V30 5145 C 489.684 0.349511 -1.66471 0
M  V30 5146 O 490.869 0.230453 -1.92828 0
M  V30 5147 C 487.999 -0.00365337 -3.473 0
M  V30 5148 C 486.953 -0.921705 -4.17958 0
M  V30 5149 C 486.279 -0.144629 -5.34504 0
M  V30 5150 C 487.579 -2.23909 -4.71871 0
M  V30 5151 H 489.273 -1.52917 -2.57404 0
M  V30 5152 H 486.819 -0.736711 -1.23728 0
M  V30 5153 H 488.772 0.281908 -4.20456 0
M  V30 5154 H 487.496 0.914963 -3.13522 0
M  V30 5155 H 486.155 -1.19159 -3.46694 0
M  V30 5156 H 485.803 0.776274 -4.96974 0
M  V30 5157 H 485.503 -0.756206 -5.82714 0
M  V30 5158 H 487.027 0.134004 -6.10453 0
M  V30 5159 H 488.441 -2.0145 -5.36741 0
M  V30 5160 H 486.838 -2.8033 -5.30599 0
M  V30 5161 H 487.908 -2.88822 -3.895 0
M  V30 5162 N 489.251 1.34841 -0.815825 0
M  V30 5163 C 490.479 2.0273 -0.413294 0
M  V30 5164 C 490.894 1.61459 0.978599 0
M  V30 5165 O 490.251 0.816584 1.63212 0
M  V30 5166 C 490.302 3.58058 -0.497676 0
M  V30 5167 O 490.023 3.97832 -1.8347 0
M  V30 5168 C 491.524 4.4321 -0.0891339 0
M  V30 5169 H 488.744 0.649956 -0.166728 0
M  V30 5170 H 491.288 1.72267 -1.10201 0
M  V30 5171 H 489.443 3.87136 0.142886 0
M  V30 5172 H 489.857 4.92501 -1.80396 0
M  V30 5173 H 491.331 5.5164 -0.199274 0
M  V30 5174 H 491.808 4.28432 0.966571 0
M  V30 5175 H 492.414 4.19446 -0.703214 0
M  V30 5176 N 490.729 0.570148 1.46925 0
M  V30 5177 C 492.006 -0.0153259 1.95594 0
M  V30 5178 C 492.386 -1.47232 1.51281 0
M  V30 5179 O 491.734 -2.15574 0.757624 0
M  V30 5180 C 491.944 0.143624 3.48704 0
M  V30 5181 C 493.292 0.00494484 4.246 0
M  V30 5182 O 494.316 0.0718214 3.56128 0
M  V30 5183 O 493.175 -0.141175 5.46318 0
M  V30 5184 H 490.269 -0.0568819 0.825041 0
M  V30 5185 H 492.815 0.637583 1.57267 0
M  V30 5186 H 491.587 1.15699 3.73804 0
M  V30 5187 H 491.21 -0.5463 3.93829 0
M  V30 5188 N 492.207 -1.54576 0.307264 0
M  V30 5189 C 493.453 -2.0056 -0.300612 0
M  V30 5190 C 493.786 -1.1953 -1.53057 0
M  V30 5191 O 493.061 -0.27337 -1.92569 0
M  V30 5192 C 493.344 -3.54167 -0.650987 0
M  V30 5193 C 493.197 -4.45933 0.588539 0
M  V30 5194 C 494.516 -4.14645 -1.47506 0
M  V30 5195 H 491.635 -0.729075 -0.107788 0
M  V30 5196 H 494.277 -1.85286 0.420606 0
M  V30 5197 H 492.427 -3.67313 -1.26544 0
M  V30 5198 H 494.099 -4.44683 1.22697 0
M  V30 5199 H 492.342 -4.16274 1.22058 0
M  V30 5200 H 493.013 -5.51189 0.299153 0
M  V30 5201 H 495.489 -4.04973 -0.955821 0
M  V30 5202 H 494.365 -5.22269 -1.68899 0
M  V30 5203 H 494.626 -3.66921 -2.4662 0
M  V30 5204 N 493.685 -0.035106 -1.57561 0
M  V30 5205 C 494.931 0.64318 -1.92331 0
M  V30 5206 C 495.264 1.71434 -0.912368 0
M  V30 5207 O 494.539 1.94395 0.0640303 0
M  V30 5208 C 494.822 1.25411 -3.37556 0
M  V30 5209 C 494.675 0.192109 -4.4939 0
M  V30 5210 C 495.994 2.17041 -3.82859 0
M  V30 5211 H 493.113 0.232341 -0.699419 0
M  V30 5212 H 495.755 -0.0935889 -1.89769 0
M  V30 5213 H 493.905 1.88205 -3.39869 0
M  V30 5214 H 495.577 -0.438849 -4.59208 0
M  V30 5215 H 493.82 -0.481725 -4.31117 0
M  V30 5216 H 494.491 0.659292 -5.48049 0
M  V30 5217 H 496.967 1.64228 -3.8232 0
M  V30 5218 H 495.843 2.56738 -4.85157 0
M  V30 5219 H 496.104 3.06401 -3.18702 0
M  V30 5220 N 495.163 1.55791 0.238111 0
M  V30 5221 C 496.391 1.82098 0.982233 0
M  V30 5222 C 496.806 0.612025 1.78605 0
M  V30 5223 O 496.163 -0.419381 1.77616 0
M  V30 5224 C 496.214 3.0673 1.91309 0
M  V30 5225 O 495.935 4.2296 1.14179 0
M  V30 5226 C 497.436 3.45903 2.77248 0
M  V30 5227 H 494.656 0.605748 0.288635 0
M  V30 5228 H 497.2 2.02862 0.258341 0
M  V30 5229 H 495.355 2.87991 2.59114 0
M  V30 5230 H 495.769 4.93653 1.7722 0
M  V30 5231 H 497.243 4.36189 3.38295 0
M  V30 5232 H 497.72 2.66891 3.48806 0
M  V30 5233 H 498.326 3.67024 2.14881 0
M  V30 5234 N 496.642 -0.504142 1.49319 0
M  V30 5235 C 497.552 -1.63248 1.68486 0
M  V30 5236 C 498.568 -1.64488 0.567432 0
M  V30 5237 O 499.744 -1.82966 0.841749 0
M  V30 5238 C 496.809 -2.99627 1.74426 0
M  V30 5239 C 495.87 -3.09039 2.97982 0
M  V30 5240 C 495.103 -4.38913 3.0363 0
M  V30 5241 O 495.326 -5.27528 2.16958 0
M  V30 5242 O 494.26 -4.53231 3.96062 0
M  V30 5243 H 498.086 -1.50008 2.64067 0
M  V30 5244 H 495.671 -0.680086 1.33023 0
M  V30 5245 H 497.553 -3.80689 1.80705 0
M  V30 5246 H 496.228 -3.13136 0.820233 0
M  V30 5247 H 495.135 -2.27177 2.97223 0
M  V30 5248 H 496.468 -3.00456 3.89855 0
M  V30 5249 N 498.12 -1.38341 -0.754957 0
M  V30 5250 C 499.348 -1.37704 -1.54419 0
M  V30 5251 C 499.763 0.0335243 -1.8877 0
M  V30 5252 O 499.12 0.999773 -1.52679 0
M  V30 5253 C 499.171 -2.23136 -2.84416 0
M  V30 5254 O 498.892 -3.58697 -2.51531 0
M  V30 5255 C 500.393 -2.30664 -3.78562 0
M  V30 5256 H 497.613 -0.471061 -0.477852 0
M  V30 5257 H 500.157 -1.81902 -0.934446 0
M  V30 5258 H 498.312 -1.82403 -3.41772 0
M  V30 5259 H 498.726 -4.03665 -3.34896 0
M  V30 5260 H 500.2 -2.9473 -4.66732 0
M  V30 5261 H 500.677 -1.3199 -4.18898 0
M  V30 5262 H 501.283 -2.71781 -3.27131 0
M  V30 5263 N 499.598 0.982988 -1.23187 0
M  V30 5264 C 500.838 1.73903 -1.07412 0
M  V30 5265 C 501.202 1.88146 0.382764 0
M  V30 5266 O 502.403 2.6053 0.661638 0
M  V30 5267 C 500.674 3.10105 -1.77678 0
M  V30 5268 S 502.233 4.01323 -1.77441 0
M  V30 5269 H 499.051 0.598093 -0.384456 0
M  V30 5270 H 501.653 1.17456 -1.56283 0
M  V30 5271 H 500.357 2.97388 -2.82822 0
M  V30 5272 H 499.888 3.71622 -1.29077 0
M  V30 5273 H 501.903 4.89189 -0.831162 0
M  V30 5274 N 501.076 1.04316 1.18135 0
M  V30 5275 C 502.009 0.580823 2.20685 0
M  V30 5276 C 502.987 -0.385943 1.57953 0
M  V30 5277 O 504.171 -0.299654 1.86103 0
M  V30 5278 C 501.298 -0.151162 3.38363 0
M  V30 5279 C 500.344 0.769247 4.19505 0
M  V30 5280 S 501.177 2.25352 4.85774 0
M  V30 5281 C 502.333 1.53246 6.0685 0
M  V30 5282 H 502.566 1.44968 2.5956 0
M  V30 5283 H 500.099 0.85434 1.28609 0
M  V30 5284 H 502.057 -0.567315 4.06561 0
M  V30 5285 H 500.718 -0.995936 2.97892 0
M  V30 5286 H 499.911 0.203335 5.0359 0
M  V30 5287 H 499.513 1.12436 3.56699 0
M  V30 5288 H 501.805 0.82689 6.72435 0
M  V30 5289 H 502.748 2.35044 6.67952 0
M  V30 5290 H 503.156 1.0237 5.5514 0
M  V30 5291 N 502.554 -1.34406 0.822964 0
M  V30 5292 C 503.831 -1.92733 0.333641 0
M  V30 5293 C 504.211 -1.75107 -1.17901 0
M  V30 5294 O 503.559 -1.12983 -1.98613 0
M  V30 5295 C 503.769 -3.40557 0.763023 0
M  V30 5296 C 505.117 -4.17709 0.761879 0
M  V30 5297 O 506.141 -3.49141 0.705606 0
M  V30 5298 O 505 -5.40082 0.835109 0
M  V30 5299 H 502.094 -0.821964 0.0911249 0
M  V30 5300 H 504.64 -1.4338 0.907757 0
M  V30 5301 H 503.412 -3.47187 1.8049 0
M  V30 5302 H 503.035 -3.97259 0.164605 0
M  V30 5303 N 504.032 -0.577932 -1.46621 0
M  V30 5304 C 504.942 0.160651 -2.34049 0
M  V30 5305 C 505.958 0.890911 -1.49462 0
M  V30 5306 O 507.134 0.855166 -1.82343 0
M  V30 5307 C 504.199 1.16447 -3.26559 0
M  V30 5308 C 503.26 0.4394 -4.27045 0
M  V30 5309 C 502.493 1.3954 -5.15135 0
M  V30 5310 O 502.716 2.63162 -5.06065 0
M  V30 5311 O 501.65 0.908585 -5.95003 0
M  V30 5312 H 505.476 -0.557057 -2.98547 0
M  V30 5313 H 503.061 -0.338369 -1.45518 0
M  V30 5314 H 504.943 1.7434 -3.83645 0
M  V30 5315 H 503.618 1.86373 -2.64663 0
M  V30 5316 H 502.525 -0.181247 -3.73661 0
M  V30 5317 H 503.858 -0.218799 -4.91713 0
M  V30 5318 N 505.51 1.54411 -0.315457 0
M  V30 5319 C 506.473 2.22713 0.54142 0
M  V30 5320 C 507.473 1.2179 1.04995 0
M  V30 5321 O 508.663 1.46426 0.943667 0
M  V30 5322 C 505.795 2.92485 1.75116 0
M  V30 5323 H 506.988 2.99849 -0.0555508 0
M  V30 5324 H 504.541 1.56159 -0.0664453 0
M  V30 5325 H 505.276 2.19466 2.38758 0
M  V30 5326 H 505.061 3.66483 1.39401 0
M  V30 5327 H 506.551 3.44548 2.35959 0
M  V30 5328 N 506.988 0.0434614 1.5754 0
M  V30 5329 C 507.92 -0.962586 2.08007 0
M  V30 5330 C 508.933 -1.27972 1.00634 0
M  V30 5331 O 510.122 -1.24186 1.28219 0
M  V30 5332 C 507.222 -2.28621 2.50171 0
M  V30 5333 C 506.395 -2.15214 3.80791 0
M  V30 5334 C 505.454 -3.30633 4.09351 0
M  V30 5335 O 504.48 -3.0688 4.79388 0
M  V30 5336 N 505.682 -4.54873 3.60654 0
M  V30 5337 H 508.447 -0.531891 2.94942 0
M  V30 5338 H 506.008 -0.142965 1.61268 0
M  V30 5339 H 508 -3.04689 2.66359 0
M  V30 5340 H 506.57 -2.63283 1.68525 0
M  V30 5341 H 505.79 -1.23785 3.74261 0
M  V30 5342 H 507.078 -2.03475 4.66343 0
M  V30 5343 H 506.476 -4.77063 3.04019 0
M  V30 5344 H 505.033 -5.2806 3.82094 0
M  V30 5345 N 508.466 -1.55915 -0.229846 0
M  V30 5346 C 509.715 -1.77742 -0.953455 0
M  V30 5347 C 510.028 -0.610524 -1.85828 0
M  V30 5348 O 511.234 -0.712219 -2.61992 0
M  V30 5349 C 509.69 -3.14738 -1.74551 0
M  V30 5350 C 509.298 -4.39126 -0.887242 0
M  V30 5351 C 511.042 -3.45895 -2.46084 0
M  V30 5352 C 508.949 -5.67149 -1.67617 0
M  V30 5353 H 507.879 -0.662648 -0.359741 0
M  V30 5354 H 510.53 -1.82322 -0.207576 0
M  V30 5355 H 508.912 -3.04311 -2.53399 0
M  V30 5356 H 510.086 -4.60588 -0.139892 0
M  V30 5357 H 508.401 -4.15427 -0.284443 0
M  V30 5358 H 510.998 -4.38767 -3.05594 0
M  V30 5359 H 511.341 -2.68007 -3.18556 0
M  V30 5360 H 511.874 -3.57614 -1.74233 0
M  V30 5361 H 508.613 -6.47906 -0.994881 0
M  V30 5362 H 508.133 -5.49763 -2.39836 0
M  V30 5363 H 509.812 -6.07025 -2.23898 0
M  V30 5364 N 509.944 0.496216 -1.49584 0
M  V30 5365 C 510.907 1.57952 -1.66084 0
M  V30 5366 C 511.907 1.51729 -0.53244 0
M  V30 5367 O 513.097 1.54796 -0.79899 0
M  V30 5368 C 510.229 2.97604 -1.66268 0
M  V30 5369 H 511.422 1.44649 -2.6271 0
M  V30 5370 H 508.975 0.7208 -1.38687 0
M  V30 5371 H 509.71 3.16378 -0.712432 0
M  V30 5372 H 509.495 3.03528 -2.4822 0
M  V30 5373 H 510.985 3.76301 -1.81073 0
M  V30 5374 N 511.423 1.38739 0.74761 0
M  V30 5375 C 512.386 1.36241 1.84312 0
M  V30 5376 C 513.386 0.261811 1.58654 0
M  V30 5377 O 514.576 0.519031 1.66288 0
M  V30 5378 C 511.708 1.12253 3.21888 0
M  V30 5379 H 512.901 2.33712 1.87933 0
M  V30 5380 H 510.454 1.2412 0.949946 0
M  V30 5381 H 511.189 0.154133 3.23934 0
M  V30 5382 H 510.974 1.91943 3.41907 0
M  V30 5383 H 512.464 1.13215 4.0196 0
M  V30 5384 N 512.901 -0.976442 1.23707 0
M  V30 5385 C 514.147 -1.72081 1.07312 0
M  V30 5386 C 514.48 -1.90275 -0.388476 0
M  V30 5387 O 513.755 -1.4579 -1.28746 0
M  V30 5388 C 514.038 -3.11675 1.80363 0
M  V30 5389 C 513.891 -3.01027 3.3422 0
M  V30 5390 C 515.21 -4.1117 1.5693 0
M  V30 5391 H 512.329 -0.624583 0.391236 0
M  V30 5392 H 514.971 -1.13649 1.52263 0
M  V30 5393 H 513.121 -3.61559 1.42153 0
M  V30 5394 H 514.793 -2.58637 3.81975 0
M  V30 5395 H 513.036 -2.3744 3.63049 0
M  V30 5396 H 513.707 -3.9988 3.80525 0
M  V30 5397 H 516.183 -3.7011 1.90151 0
M  V30 5398 H 515.059 -5.06928 2.10513 0
M  V30 5399 H 515.32 -4.392 0.505548 0
M  V30 5400 N 514.379 -1.04941 -1.1758 0
M  V30 5401 C 515.619 -0.766996 -1.89464 0
M  V30 5402 C 515.983 0.693123 -1.79053 0
M  V30 5403 O 517.184 1.08953 -2.45729 0
M  V30 5404 C 515.455 -1.23108 -3.35528 0
M  V30 5405 S 517.014 -1.07565 -4.25412 0
M  V30 5406 H 513.832 -0.278616 -0.654136 0
M  V30 5407 H 516.434 -1.34352 -1.4202 0
M  V30 5408 H 515.138 -2.28896 -3.40639 0
M  V30 5409 H 514.669 -0.648724 -3.88014 0
M  V30 5410 H 516.684 0.00169467 -4.962 0
M  V30 5411 N 515.857 1.33968 -0.830081 0
M  V30 5412 C 517.273 1.51003 -0.516742 0
M  V30 5413 C 517.473 1.77286 0.957694 0
M  V30 5414 O 516.529 1.82797 1.74188 0
M  V30 5415 C 517.842 2.67036 -1.38247 0
M  V30 5416 C 519.39 2.80919 -1.38034 0
M  V30 5417 C 519.865 4.00004 -2.23071 0
M  V30 5418 N 521.356 4.07224 -2.20733 0
M  V30 5419 C 522.091 4.98541 -2.83275 0
M  V30 5420 N 521.587 5.95033 -3.54835 0
M  V30 5421 N 523.38 4.91469 -2.72791 0
M  V30 5422 H 515.531 1.15168 -1.78466 0
M  V30 5423 H 517.794 0.565443 -0.760906 0
M  V30 5424 H 517.5 2.54266 -2.42985 0
M  V30 5425 H 517.374 3.62226 -1.05225 0
M  V30 5426 H 519.761 2.93127 -0.340713 0
M  V30 5427 H 519.842 1.86517 -1.75057 0
M  V30 5428 H 519.486 3.88557 -3.27087 0
M  V30 5429 H 519.416 4.93634 -1.83394 0
M  V30 5430 H 521.907 3.38162 -1.68687 0
M  V30 5431 H 522.22 6.61357 -3.99784 0
M  V30 5432 H 520.565 5.95135 -3.58942 0
M  V30 5433 H 523.756 4.15048 -2.16456 0
M  V30 5434 H 523.929 5.62439 -3.21818 0
M  V30 5435 N 517.335 0.585699 1.46312 0
M  V30 5436 C 518.245 -0.148236 2.34131 0
M  V30 5437 C 519.261 -0.882972 1.49932 0
M  V30 5438 O 520.437 -0.845484 1.82794 0
M  V30 5439 C 517.502 -1.14714 3.27172 0
M  V30 5440 C 516.563 -0.416746 4.27272 0
M  V30 5441 C 515.796 -1.36806 5.15868 0
M  V30 5442 O 516.019 -2.60475 5.07454 0
M  V30 5443 O 514.953 -0.877018 5.95476 0
M  V30 5444 H 518.779 0.572882 2.98248 0
M  V30 5445 H 516.364 0.346082 1.45336 0
M  V30 5446 H 518.246 -1.72303 3.84564 0
M  V30 5447 H 516.921 -1.84967 2.65648 0
M  V30 5448 H 515.828 0.201061 3.73559 0
M  V30 5449 H 517.161 0.244872 4.9159 0
M  V30 5450 N 518.813 -1.54241 0.323641 0
M  V30 5451 C 520.053 -2.0248 -0.279502 0
M  V30 5452 C 520.417 -1.20672 -1.49339 0
M  V30 5453 O 521.618 -1.58715 -2.1694 0
M  V30 5454 C 519.889 -3.52238 -0.605266 0
M  V30 5455 S 521.448 -4.22411 -1.18805 0
M  V30 5456 H 518.266 -0.705957 -0.0845313 0
M  V30 5457 H 520.868 -1.90089 0.456781 0
M  V30 5458 H 519.572 -4.094 0.286339 0
M  V30 5459 H 519.103 -3.6871 -1.37174 0
M  V30 5460 H 521.118 -4.30075 -2.47487 0
M  V30 5461 N 520.291 -0.0518155 -1.57515 0
M  V30 5462 C 521.221 0.920283 -2.146 0
M  V30 5463 C 522.202 1.32406 -1.06783 0
M  V30 5464 O 523.387 1.39866 -1.34726 0
M  V30 5465 C 520.517 2.1949 -2.6915 0
M  V30 5466 C 519.471 1.93116 -3.81956 0
M  V30 5467 C 518.797 3.27037 -4.23026 0
M  V30 5468 C 520.097 1.25225 -5.07066 0
M  V30 5469 H 521.791 0.444801 -2.96077 0
M  V30 5470 H 519.337 0.212508 -1.42423 0
M  V30 5471 H 521.29 2.87894 -3.07725 0
M  V30 5472 H 520.014 2.69244 -1.84865 0
M  V30 5473 H 518.673 1.27123 -3.43854 0
M  V30 5474 H 518.321 3.74595 -3.3569 0
M  V30 5475 H 518.021 3.10189 -4.99056 0
M  V30 5476 H 519.545 3.96673 -4.64202 0
M  V30 5477 H 520.959 1.83666 -5.43083 0
M  V30 5478 H 519.356 1.18702 -5.88243 0
M  V30 5479 H 520.426 0.228382 -4.84362 0
M  V30 5480 N 521.769 1.56035 0.221574 0
M  V30 5481 C 522.701 1.889 1.29805 0
M  V30 5482 C 523.714 0.777269 1.43047 0
M  V30 5483 O 524.903 1.05557 1.43945 0
M  V30 5484 C 522.003 2.0825 2.67367 0
M  V30 5485 C 521.176 3.39267 2.76073 0
M  V30 5486 C 520.235 3.48049 3.94649 0
M  V30 5487 O 519.261 4.2108 3.82988 0
M  V30 5488 N 520.463 2.79191 5.08953 0
M  V30 5489 H 523.228 2.81831 1.01938 0
M  V30 5490 H 520.789 1.5658 0.411612 0
M  V30 5491 H 522.781 2.11441 3.45072 0
M  V30 5492 H 521.351 1.21944 2.87834 0
M  V30 5493 H 520.571 3.48175 1.84846 0
M  V30 5494 H 521.859 4.25575 2.7886 0
M  V30 5495 H 521.257 2.19635 5.21322 0
M  V30 5496 H 519.814 2.88043 5.84701 0
M  V30 5497 N 523.247 -0.488276 1.49845 0
M  V30 5498 C 524.21 -1.57069 1.66919 0
M  V30 5499 C 525.21 -1.51445 0.540479 0
M  V30 5500 O 526.4 -1.5437 0.807188 0
M  V30 5501 C 523.532 -2.96718 1.67844 0
M  V30 5502 H 524.725 -1.43254 2.63474 0
M  V30 5503 H 522.278 -0.713435 1.39068 0
M  V30 5504 H 523.013 -3.15996 0.7292 0
M  V30 5505 H 522.798 -3.02208 2.49826 0
M  V30 5506 H 524.288 -3.75335 1.83066 0
M  V30 5507 N 524.725 -1.39134 -0.740242 0
M  V30 5508 C 525.655 -1.40165 -1.86751 0
M  V30 5509 C 526.636 -0.265708 -1.68012 0
M  V30 5510 O 527.821 -0.47076 -1.88408 0
M  V30 5511 C 524.951 -1.2392 -3.2444 0
M  V30 5512 C 523.905 -2.34858 -3.57807 0
M  V30 5513 C 523.231 -2.03707 -4.94376 0
M  V30 5514 C 524.531 -3.77159 -3.61315 0
M  V30 5515 H 526.225 -2.345 -1.86145 0
M  V30 5516 H 523.771 -1.12875 -0.89416 0
M  V30 5517 H 525.724 -1.23263 -4.02969 0
M  V30 5518 H 524.448 -0.26051 -3.25559 0
M  V30 5519 H 523.107 -2.34723 -2.81604 0
M  V30 5520 H 522.755 -1.04289 -4.9207 0
M  V30 5521 H 522.455 -2.78016 -5.17669 0
M  V30 5522 H 523.979 -2.04691 -5.75268 0
M  V30 5523 H 525.393 -3.79252 -4.29931 0
M  V30 5524 H 523.79 -4.50784 -3.96124 0
M  V30 5525 H 524.86 -4.08513 -2.61238 0
M  V30 5526 N 526.204 0.969867 -1.24223 0
M  V30 5527 C 527.114 2.09806 -1.0497 0
M  V30 5528 C 528.13 1.73998 0.00886455 0
M  V30 5529 O 529.306 2.00513 -0.188848 0
M  V30 5530 C 526.371 3.40467 -0.654452 0
M  V30 5531 C 525.432 3.90236 -1.78926 0
M  V30 5532 C 524.665 5.14662 -1.41277 0
M  V30 5533 O 524.888 5.69602 -0.301632 0
M  V30 5534 O 523.822 5.58761 -2.23763 0
M  V30 5535 H 527.648 2.28942 -1.99548 0
M  V30 5536 H 525.233 1.08197 -1.03023 0
M  V30 5537 H 527.115 4.19039 -0.445452 0
M  V30 5538 H 525.79 3.22636 0.262216 0
M  V30 5539 H 524.697 3.12735 -2.05299 0
M  V30 5540 H 526.03 4.1254 -2.68462 0
M  V30 5541 N 527.682 1.05563 1.17022 0
M  V30 5542 C 528.929 0.767937 1.87374 0
M  V30 5543 C 529.257 -0.705224 1.81265 0
M  V30 5544 O 528.512 -1.5318 1.21796 0
M  V30 5545 C 528.811 1.19849 3.36706 0
M  V30 5546 C 528.477 2.6745 3.63017 0
M  V30 5547 C 527.139 3.0777 3.69907 0
M  V30 5548 C 529.491 3.62811 3.74189 0
M  V30 5549 C 526.819 4.42307 3.85463 0
M  V30 5550 C 529.171 4.97087 3.91264 0
M  V30 5551 C 527.835 5.37055 3.96394 0
M  V30 5552 H 527.105 0.281008 0.68565 0
M  V30 5553 H 529.752 1.32339 1.38415 0
M  V30 5554 H 528.057 0.562096 3.87747 0
M  V30 5555 H 529.754 0.953038 3.8951 0
M  V30 5556 H 526.344 2.35228 3.58282 0
M  V30 5557 H 530.528 3.32798 3.68183 0
M  V30 5558 H 525.784 4.72769 3.87684 0
M  V30 5559 H 529.958 5.70869 3.9885 0
M  V30 5560 H 527.585 6.41308 4.082 0
M  V30 5561 N 529.16 -1.33526 0.837174 0
M  V30 5562 C 530.09 -2.31764 0.284206 0
M  V30 5563 C 531.071 -1.58896 -0.607142 0
M  V30 5564 O 532.256 -1.86798 -0.531047 0
M  V30 5565 C 529.386 -3.43029 -0.542962 0
M  V30 5566 C 528.34 -4.27255 0.252451 0
M  V30 5567 C 527.666 -5.3012 -0.69836 0
M  V30 5568 C 528.966 -5.01229 1.46858 0
M  V30 5569 H 530.66 -2.78262 1.10502 0
M  V30 5570 H 528.206 -1.3378 0.532812 0
M  V30 5571 H 530.159 -4.1078 -0.940096 0
M  V30 5572 H 528.883 -2.95216 -1.39697 0
M  V30 5573 H 527.542 -3.61127 0.631124 0
M  V30 5574 H 527.19 -4.78564 -1.54872 0
M  V30 5575 H 526.89 -5.87353 -0.170274 0
M  V30 5576 H 528.414 -6.00737 -1.09305 0
M  V30 5577 H 529.828 -5.61756 1.14469 0
M  V30 5578 H 528.225 -5.68104 1.93333 0
M  V30 5579 H 529.295 -4.301 2.23924 0
M  V30 5580 N 530.638 -0.59345 -1.46 0
M  V30 5581 C 531.588 0.154751 -2.27474 0
M  V30 5582 C 532.572 0.851849 -1.365 0
M  V30 5583 O 533.764 0.744171 -1.60596 0
M  V30 5584 C 530.893 1.16079 -3.2308 0
M  V30 5585 C 529.979 0.465256 -4.2154 0
M  V30 5586 N 530.37 -0.485197 -5.03467 0
M  V30 5587 C 528.668 0.714634 -4.40237 0
M  V30 5588 C 529.369 -0.892709 -5.74809 0
M  V30 5589 N 528.345 -0.239511 -5.43072 0
M  V30 5590 H 532.147 -0.57546 -2.88211 0
M  V30 5591 H 529.661 -0.416046 -1.5698 0
M  V30 5592 H 531.658 1.71108 -3.80168 0
M  V30 5593 H 530.318 1.89171 -2.63903 0
M  V30 5594 H 531.329 -0.861258 -5.10689 0
M  V30 5595 H 528.006 1.43131 -3.92199 0
M  V30 5596 H 529.396 -1.67581 -6.50666 0
M  V30 5597 N 532.116 1.54067 -0.331816 0
M  V30 5598 C 533.079 2.23275 0.517768 0
M  V30 5599 C 534.079 1.22897 1.03697 0
M  V30 5600 O 535.269 1.47419 0.928084 0
M  V30 5601 C 532.401 2.94326 1.72004 0
M  V30 5602 H 533.594 2.99773 -0.0873507 0
M  V30 5603 H 531.147 1.56079 -0.0830042 0
M  V30 5604 H 531.882 2.21986 2.36417 0
M  V30 5605 H 531.667 3.67941 1.35507 0
M  V30 5606 H 533.157 3.47031 2.32291 0
M  V30 5607 N 533.594 0.0601682 1.57485 0
M  V30 5608 C 534.542 -0.928899 2.13247 0
M  V30 5609 C 535.536 -1.31616 1.06647 0
M  V30 5610 O 536.742 -1.29476 1.25043 0
M  V30 5611 H 533.117 -0.317455 0.681708 0
M  V30 5612 H 535.088 -0.433566 2.95233 0
M  V30 5613 C 533.837 -2.19121 2.69965 0
M  V30 5614 H 533.16 -1.90204 3.51657 0
M  V30 5615 H 534.6 -2.86465 3.12592 0
M  V30 5616 C 533.059 -2.94195 1.64168 0
M  V30 5617 O 533.589 -3.87468 1.05978 0
M  V30 5618 N 531.795 -2.57089 1.35476 0
M  V30 5619 H 531.342 -1.81314 1.82984 0
M  V30 5620 H 531.3 -3.07624 0.649196 0
M  V30 5621 N 535.072 -1.5615 -0.213296 0
M  V30 5622 C 536.004 -1.89586 -1.28802 0
M  V30 5623 C 537.017 -0.784844 -1.42633 0
M  V30 5624 O 538.206 -1.06319 -1.43383 0
M  V30 5625 C 535.306 -2.09665 -2.66259 0
M  V30 5626 C 534.479 -3.40726 -2.7427 0
M  V30 5627 C 533.538 -3.50137 -3.92798 0
M  V30 5628 O 532.564 -4.23105 -3.8075 0
M  V30 5629 N 533.766 -2.81886 -5.07465 0
M  V30 5630 H 536.531 -2.82368 -1.00442 0
M  V30 5631 H 534.092 -1.56796 -0.403302 0
M  V30 5632 H 536.084 -2.13268 -3.43946 0
M  V30 5633 H 534.654 -1.23469 -2.87183 0
M  V30 5634 H 533.874 -3.4915 -1.82997 0
M  V30 5635 H 535.162 -4.27048 -2.76599 0
M  V30 5636 H 534.56 -2.22397 -5.2015 0
M  V30 5637 H 533.117 -2.91139 -5.83165 0
M  V30 5638 N 536.55 0.480323 -1.50102 0
M  V30 5639 C 537.796 1.23489 -1.60867 0
M  V30 5640 C 538.129 1.91809 -0.303827 0
M  V30 5641 O 537.404 1.81694 0.694092 0
M  V30 5642 C 537.687 2.28578 -2.78252 0
M  V30 5643 C 537.54 1.64624 -4.18592 0
M  V30 5644 C 538.859 3.2997 -2.91218 0
M  V30 5645 H 535.978 0.447605 -0.585507 0
M  V30 5646 H 538.62 0.530005 -1.82458 0
M  V30 5647 H 536.77 2.88697 -2.59974 0
M  V30 5648 H 538.442 1.08173 -4.48438 0
M  V30 5649 H 536.685 0.949645 -4.23278 0
M  V30 5650 H 537.356 2.40946 -4.96638 0
M  V30 5651 H 539.832 2.79864 -3.07921 0
M  V30 5652 H 538.708 4.00839 -3.74993 0
M  V30 5653 H 538.969 3.93541 -2.0144 0
M  V30 5654 N 538.028 1.39524 0.732853 0
M  V30 5655 C 539.277 1.36175 1.48792 0
M  V30 5656 C 539.59 -0.0388195 1.95561 0
M  V30 5657 O 540.796 -0.194899 2.708 0
M  V30 5658 C 539.252 2.39242 2.68871 0
M  V30 5659 C 538.86 3.85024 2.29042 0
M  V30 5660 C 540.604 2.44972 3.46683 0
M  V30 5661 C 538.511 4.79727 3.45856 0
M  V30 5662 H 537.441 0.506267 0.558757 0
M  V30 5663 H 540.092 1.65181 0.799226 0
M  V30 5664 H 538.474 2.0331 3.39825 0
M  V30 5665 H 539.648 4.30008 1.6562 0
M  V30 5666 H 537.963 3.82609 1.64316 0
M  V30 5667 H 540.56 3.12918 4.33574 0
M  V30 5668 H 540.903 1.4749 3.89297 0
M  V30 5669 H 541.436 2.79808 2.82759 0
M  V30 5670 H 538.175 5.78479 3.08289 0
M  V30 5671 H 537.695 4.39421 4.08251 0
M  V30 5672 H 539.374 4.98731 4.12161 0
M  V30 5673 N 539.506 -0.963266 1.24736 0
M  V30 5674 C 540.456 -2.0438 1.01058 0
M  V30 5675 C 541.44 -1.60824 -0.0495354 0
M  V30 5676 O 542.632 -1.76232 0.164741 0
M  V30 5677 C 539.761 -3.37617 0.622067 0
M  V30 5678 C 538.847 -3.87722 1.7185 0
M  V30 5679 N 539.238 -4.10715 2.95207 0
M  V30 5680 C 537.536 -4.16426 1.59703 0
M  V30 5681 C 538.237 -4.51872 3.66315 0
M  V30 5682 N 537.213 -4.57302 2.93897 0
M  V30 5683 H 541.015 -2.20138 1.94721 0
M  V30 5684 H 538.529 -1.14741 1.14927 0
M  V30 5685 H 540.526 -4.14638 0.43366 0
M  V30 5686 H 539.186 -3.23242 -0.307327 0
M  V30 5687 H 540.197 -3.98037 3.31341 0
M  V30 5688 H 536.874 -4.10962 0.73598 0
M  V30 5689 H 538.264 -4.78037 4.72155 0
M  V30 5690 N 540.985 -1.06182 -1.16461 0
M  V30 5691 C 542.401 -0.785065 -1.38956 0
M  V30 5692 C 542.601 0.616103 -1.9185 0
M  V30 5693 O 541.657 1.37686 -2.11657 0
M  V30 5694 C 542.97 -1.84902 -2.37132 0
M  V30 5695 C 544.518 -1.8724 -2.50819 0
M  V30 5696 C 544.993 -2.92686 -3.52277 0
M  V30 5697 N 546.484 -2.91712 -3.59803 0
M  V30 5698 C 547.219 -3.69949 -4.38093 0
M  V30 5699 N 546.715 -4.58 -5.19815 0
M  V30 5700 N 548.508 -3.58346 -4.33064 0
M  V30 5701 H 540.659 -1.96569 -0.804634 0
M  V30 5702 H 542.922 -0.851747 -0.416211 0
M  V30 5703 H 542.628 -2.85518 -2.0536 0
M  V30 5704 H 542.502 -1.69908 -3.36766 0
M  V30 5705 H 544.889 -0.872827 -2.81897 0
M  V30 5706 H 544.97 -2.06311 -1.51226 0
M  V30 5707 H 544.614 -3.92835 -3.21937 0
M  V30 5708 H 544.544 -2.70864 -4.51598 0
M  V30 5709 H 547.035 -2.27876 -3.01464 0
M  V30 5710 H 547.348 -5.14357 -5.76764 0
M  V30 5711 H 545.693 -4.62056 -5.19162 0
M  V30 5712 H 548.884 -2.88943 -3.68279 0
M  V30 5713 H 549.057 -4.19563 -4.93833 0
M  V30 5714 N 542.463 1.3308 -0.844243 0
M  V30 5715 C 543.74 1.92178 -0.364261 0
M  V30 5716 C 544.12 1.76961 1.15101 0
M  V30 5717 O 543.468 1.16128 1.9679 0
M  V30 5718 C 543.678 3.393 -0.817106 0
M  V30 5719 C 545.026 4.16444 -0.828236 0
M  V30 5720 O 546.05 3.47975 -0.761062 0
M  V30 5721 O 544.909 5.38685 -0.920926 0
M  V30 5722 H 542.003 0.820411 -0.10419 0
M  V30 5723 H 544.549 1.41918 -0.930453 0
M  V30 5724 H 543.321 3.44272 -1.85991 0
M  V30 5725 H 542.944 3.96947 -0.227785 0
M  V30 5726 N 543.941 0.601185 1.45683 0
M  V30 5727 C 545.19 0.0914953 2.01492 0
M  V30 5728 C 545.503 -1.28331 1.47616 0
M  V30 5729 O 546.709 -1.88537 1.95362 0
M  V30 5730 C 545.165 0.11291 3.59723 0
M  V30 5731 C 544.773 1.48717 4.22596 0
M  V30 5732 C 546.517 -0.341871 4.23121 0
M  V30 5733 C 544.424 1.46531 5.7296 0
M  V30 5734 H 543.354 0.0304365 0.753385 0
M  V30 5735 H 546.005 0.755568 1.67223 0
M  V30 5736 H 544.387 -0.617692 3.91153 0
M  V30 5737 H 545.561 2.23897 4.02749 0
M  V30 5738 H 543.876 1.88351 3.71366 0
M  V30 5739 H 546.473 -0.377304 5.33367 0
M  V30 5740 H 546.816 -1.36325 3.93346 0
M  V30 5741 H 547.349 0.335256 3.96385 0
M  V30 5742 H 544.088 2.46408 6.07423 0
M  V30 5743 H 543.608 0.755997 5.95017 0
M  V30 5744 H 545.287 1.18618 6.36034 0
M  V30 5745 N 545.419 -1.53889 0.339982 0
M  V30 5746 C 546.366 -2.24902 -0.518452 0
M  V30 5747 C 547.336 -1.24593 -1.09844 0
M  V30 5748 O 548.521 -1.53317 -1.13572 0
M  V30 5749 C 545.661 -3.02262 -1.66529 0
M  V30 5750 C 544.774 -4.17418 -1.11295 0
M  V30 5751 C 543.909 -4.82273 -2.2268 0
M  V30 5752 C 542.948 -5.89503 -1.6478 0
M  V30 5753 N 542.085 -6.48153 -2.69893 0
M  V30 5754 H 546.925 -2.97853 0.0936579 0
M  V30 5755 H 544.462 -1.46986 0.0579924 0
M  V30 5756 H 546.42 -3.45371 -2.3404 0
M  V30 5757 H 545.05 -2.31614 -2.24844 0
M  V30 5758 H 544.102 -3.78976 -0.328886 0
M  V30 5759 H 545.414 -4.94554 -0.649414 0
M  V30 5760 H 544.568 -5.28435 -2.98063 0
M  V30 5761 H 543.307 -4.04552 -2.72376 0
M  V30 5762 H 542.312 -5.42728 -0.879004 0
M  V30 5763 H 543.537 -6.6913 -1.1594 0
M  V30 5764 H 541.483 -5.73298 -3.1885 0
M  V30 5765 H 541.4 -7.20752 -2.28151 0
M  V30 5766 H 542.668 -6.98968 -3.45056 0
M  V30 5767 N 546.897 -0.0685191 -1.57451 0
M  V30 5768 C 548.122 0.613919 -1.98106 0
M  V30 5769 C 548.547 1.62551 -0.946501 0
M  V30 5770 O 547.905 1.81085 0.0882824 0
M  V30 5771 C 547.953 1.26189 -3.378 0
M  V30 5772 O 547.057 2.37773 -3.36954 0
M  V30 5773 H 546.398 0.158163 -0.644888 0
M  V30 5774 H 548.928 -0.142063 -2.04106 0
M  V30 5775 H 548.938 1.60951 -3.74912 0
M  V30 5776 H 547.613 0.520625 -4.12629 0
M  V30 5777 H 546.19 2.04829 -3.11608 0
M  V30 5778 N 548.375 1.56261 0.205012 0
M  V30 5779 C 549.652 1.70856 0.952233 0
M  V30 5780 C 550.032 0.620501 2.01775 0
M  V30 5781 O 549.38 -0.370035 2.25484 0
M  V30 5782 C 549.59 3.12807 1.54767 0
M  V30 5783 C 550.938 3.72733 2.0336 0
M  V30 5784 O 551.962 3.15873 1.64629 0
M  V30 5785 O 550.821 4.72501 2.746 0
M  V30 5786 H 547.915 0.696496 0.445895 0
M  V30 5787 H 550.461 1.6857 0.195489 0
M  V30 5788 H 549.233 3.83465 0.779132 0
M  V30 5789 H 548.856 3.1928 2.36951 0
M  V30 5790 N 549.853 -0.472356 1.50355 0
M  V30 5791 C 550.801 -1.59126 1.69651 0
M  V30 5792 C 551.795 -1.59793 0.56237 0
M  V30 5793 O 553.001 -1.63957 0.742832 0
M  V30 5794 H 549.376 -0.528008 0.535454 0
M  V30 5795 H 551.347 -1.40013 2.63513 0
M  V30 5796 C 550.096 -2.97075 1.8067 0
M  V30 5797 H 549.419 -2.9728 2.67329 0
M  V30 5798 H 550.859 -3.74825 1.98197 0
M  V30 5799 C 549.318 -3.32247 0.558016 0
M  V30 5800 O 549.848 -4.00553 -0.303399 0
M  V30 5801 N 548.054 -2.87659 0.412415 0
M  V30 5802 H 547.601 -2.32246 1.11443 0
M  V30 5803 H 547.559 -3.11556 -0.421908 0
M  V30 5804 N 551.331 -1.39911 -0.725443 0
M  V30 5805 C 552.577 -1.37858 -1.48738 0
M  V30 5806 C 552.91 0.0224187 -1.94187 0
M  V30 5807 O 552.185 0.989204 -1.67466 0
M  V30 5808 C 552.468 -2.3594 -2.72038 0
M  V30 5809 C 552.321 -3.85023 -2.32546 0
M  V30 5810 C 553.64 -2.31704 -3.74167 0
M  V30 5811 H 550.759 -0.502074 -0.539528 0
M  V30 5812 H 553.401 -1.70974 -0.828728 0
M  V30 5813 H 551.551 -2.0783 -3.28236 0
M  V30 5814 H 553.223 -4.2392 -1.81905 0
M  V30 5815 H 551.466 -4.01334 -1.64661 0
M  V30 5816 H 552.137 -4.49152 -3.20884 0
M  V30 5817 H 554.613 -2.5658 -3.27576 0
M  V30 5818 H 553.489 -3.02395 -4.58092 0
M  V30 5819 H 553.75 -1.3253 -4.21768 0
M  V30 5820 N 552.809 0.956637 -1.25245 0
M  V30 5821 C 553.739 2.07058 -1.07931 0
M  V30 5822 C 554.72 1.70096 0.0110361 0
M  V30 5823 O 555.905 1.93555 -0.158121 0
M  V30 5824 C 553.035 3.40272 -0.695124 0
M  V30 5825 C 551.989 3.91235 -1.73549 0
M  V30 5826 C 551.315 5.20921 -1.20604 0
M  V30 5827 C 552.615 4.17837 -3.13385 0
M  V30 5828 H 554.309 2.218 -2.01109 0
M  V30 5829 H 551.855 1.06581 -0.968326 0
M  V30 5830 H 553.808 4.1765 -0.560949 0
M  V30 5831 H 552.532 3.25462 0.272355 0
M  V30 5832 H 551.191 3.16025 -1.85807 0
M  V30 5833 H 550.839 5.02479 -0.228846 0
M  V30 5834 H 550.539 5.55987 -1.90136 0
M  V30 5835 H 552.063 6.00897 -1.08421 0
M  V30 5836 H 553.477 4.8588 -3.04292 0
M  V30 5837 H 551.874 4.64154 -3.80369 0
M  V30 5838 H 552.944 3.2419 -3.60595 0
M  V30 5839 N 554.287 1.06798 1.15896 0
M  V30 5840 C 555.217 0.704677 2.22613 0
M  V30 5841 C 556.198 -0.305252 1.67339 0
M  V30 5842 O 557.383 -0.179247 1.93371 0
M  V30 5843 C 554.513 0.0957325 3.47168 0
M  V30 5844 C 553.467 1.0322 4.15367 0
M  V30 5845 C 552.793 0.286293 5.33933 0
M  V30 5846 C 554.093 2.36341 4.65768 0
M  V30 5847 H 555.787 1.59688 2.53259 0
M  V30 5848 H 553.333 0.769257 1.21731 0
M  V30 5849 H 555.286 -0.170333 4.21056 0
M  V30 5850 H 554.01 -0.831516 3.15838 0
M  V30 5851 H 552.669 1.28309 3.43413 0
M  V30 5852 H 552.317 -0.644237 4.98857 0
M  V30 5853 H 552.017 0.910436 5.80504 0
M  V30 5854 H 553.541 0.0278938 6.10594 0
M  V30 5855 H 554.955 2.1561 5.31211 0
M  V30 5856 H 553.352 2.94299 5.2298 0
M  V30 5857 H 554.422 2.99047 3.81705 0
M  V30 5858 N 555.766 -1.3263 0.851289 0
M  V30 5859 C 557.014 -1.96978 0.452128 0
M  V30 5860 C 557.335 -1.67715 -0.99482 0
M  V30 5861 O 556.605 -0.98259 -1.69476 0
M  V30 5862 H 555.185 -0.72873 0.164202 0
M  V30 5863 H 557.847 -1.61774 1.08698 0
M  V30 5864 H 556.943 -3.06387 0.594407 0
M  V30 5865 N 557.244 -0.608902 -1.45362 0
M  V30 5866 C 558.177 0.158059 -2.27652 0
M  V30 5867 C 559.155 0.872397 -1.37215 0
M  V30 5868 O 560.339 0.881002 -1.66645 0
M  V30 5869 C 557.466 1.22896 -3.15617 0
M  V30 5870 C 556.512 0.617607 -4.22005 0
M  V30 5871 S 557.345 -0.575518 -5.32398 0
M  V30 5872 C 558.501 0.495938 -6.23932 0
M  V30 5873 H 558.734 -0.540095 -2.92353 0
M  V30 5874 H 556.267 -0.396456 -1.49223 0
M  V30 5875 H 558.225 1.84195 -3.66855 0
M  V30 5876 H 556.886 1.89919 -2.50179 0
M  V30 5877 H 556.079 1.42341 -4.83482 0
M  V30 5878 H 555.681 0.0797273 -3.73915 0
M  V30 5879 H 557.973 1.37465 -6.63408 0
M  V30 5880 H 558.916 -0.0827108 -7.08052 0
M  V30 5881 H 559.324 0.811856 -5.58631 0
M  V30 5882 N 558.722 1.53707 -0.348139 0
M  V30 5883 C 559.632 2.28881 0.514857 0
M  V30 5884 C 560.648 1.34168 1.10793 0
M  V30 5885 O 561.824 1.6721 1.12262 0
M  V30 5886 C 558.889 3.05042 1.64774 0
M  V30 5887 C 557.95 4.15389 1.08398 0
M  V30 5888 C 557.183 4.87909 2.16287 0
M  V30 5889 O 557.406 4.60137 3.3709 0
M  V30 5890 O 556.34 5.74254 1.80323 0
M  V30 5891 H 560.166 3.03547 -0.0963699 0
M  V30 5892 H 557.751 1.48972 -0.113043 0
M  V30 5893 H 559.633 3.52656 2.30677 0
M  V30 5894 H 558.308 2.33228 2.24469 0
M  V30 5895 H 557.215 3.72068 0.389341 0
M  V30 5896 H 558.548 4.89318 0.531829 0
M  V30 5897 N 560.2 0.0768682 1.57412 0
M  V30 5898 C 561.448 -0.589918 1.93299 0
M  V30 5899 C 561.769 -1.69842 0.958049 0
M  V30 5900 O 561.039 -1.95899 0.00703261 0
M  V30 5901 H 559.619 -0.220901 0.713591 0
M  V30 5902 H 562.281 0.135917 1.94425 0
M  V30 5903 H 561.377 -1.01195 2.95239 0
M  V30 5904 N 561.678 -1.56367 -0.196722 0
M  V30 5905 C 562.903 -1.84991 -0.937714 0
M  V30 5906 C 563.328 -0.660244 -1.76132 0
M  V30 5907 O 562.686 0.390967 -1.77034 0
M  V30 5908 C 562.734 -3.11828 -1.81096 0
M  V30 5909 O 561.838 -2.92266 -2.90955 0
M  V30 5910 H 561.179 -0.609193 -0.264159 0
M  V30 5911 H 563.709 -2.03595 -0.202529 0
M  V30 5912 H 563.719 -3.42579 -2.21594 0
M  V30 5913 H 562.394 -3.98037 -1.2058 0
M  V30 5914 H 560.971 -2.72809 -2.54224 0
M  V30 5915 N 563.156 0.464375 -1.50603 0
M  V30 5916 C 564.402 1.21776 -1.62168 0
M  V30 5917 C 564.735 1.91476 -0.324154 0
M  V30 5918 O 564.01 1.8242 0.674782 0
M  V30 5919 C 564.293 2.25614 -2.80661 0
M  V30 5920 C 564.146 1.60175 -4.20314 0
M  V30 5921 C 565.465 3.26862 -2.94702 0
M  V30 5922 H 562.584 0.44137 -0.590222 0
M  V30 5923 H 565.226 0.510623 -1.8301 0
M  V30 5924 H 563.376 2.85923 -2.63021 0
M  V30 5925 H 565.048 1.03411 -4.4956 0
M  V30 5926 H 563.291 0.904697 -4.24261 0
M  V30 5927 H 563.962 2.35665 -4.99165 0
M  V30 5928 H 566.438 2.76582 -3.10872 0
M  V30 5929 H 565.314 3.96839 -3.79223 0
M  V30 5930 H 565.575 3.91382 -2.05603 0
M  V30 5931 N 564.634 1.40294 0.718013 0
M  V30 5932 C 565.581 1.40367 1.8321 0
M  V30 5933 C 566.551 0.260952 1.64037 0
M  V30 5934 O 567.736 0.458648 1.85205 0
M  V30 5935 C 564.876 1.26965 3.20895 0
M  V30 5936 C 563.989 2.50922 3.51656 0
M  V30 5937 C 563.124 2.29981 4.78834 0
M  V30 5938 C 562.163 3.49527 5.02491 0
M  V30 5939 N 561.3 3.27796 6.20882 0
M  V30 5940 H 566.14 2.35593 1.82482 0
M  V30 5941 H 563.677 1.17012 0.891444 0
M  V30 5942 H 565.635 1.17202 4.00399 0
M  V30 5943 H 564.265 0.353591 3.20858 0
M  V30 5944 H 563.317 2.71223 2.66725 0
M  V30 5945 H 564.629 3.39913 3.65048 0
M  V30 5946 H 563.783 2.17558 5.66351 0
M  V30 5947 H 562.522 1.38411 4.67647 0
M  V30 5948 H 561.527 3.6243 4.1343 0
M  V30 5949 H 562.752 4.42021 5.15553 0
M  V30 5950 H 560.698 2.38906 6.1095 0
M  V30 5951 H 560.615 4.10351 6.34939 0
M  V30 5952 H 561.883 3.19101 7.11193 0
M  V30 5953 N 566.112 -0.949982 1.2575 0
M  V30 5954 C 567.042 -2.06483 1.09028 0
M  V30 5955 C 568.023 -1.701 -0.00201532 0
M  V30 5956 O 569.208 -1.93469 0.168383 0
M  V30 5957 C 566.338 -3.39899 0.71316 0
M  V30 5958 C 565.292 -3.90309 1.75621 0
M  V30 5959 C 564.618 -5.20274 1.23365 0
M  V30 5960 C 565.918 -4.16169 3.15596 0
M  V30 5961 H 567.612 -2.20731 2.02283 0
M  V30 5962 H 565.158 -1.06066 0.973964 0
M  V30 5963 H 567.111 -4.17346 0.58309 0
M  V30 5964 H 565.835 -3.25602 -0.255091 0
M  V30 5965 H 564.494 -3.15035 1.8748 0
M  V30 5966 H 564.142 -5.02351 0.255491 0
M  V30 5967 H 563.842 -5.54971 1.93082 0
M  V30 5968 H 565.366 -6.00314 1.11607 0
M  V30 5969 H 566.78 -4.84259 3.06864 0
M  V30 5970 H 565.177 -4.62131 3.82825 0
M  V30 5971 H 566.247 -3.22273 3.6231 0
M  V30 5972 N 567.59 -1.07411 -1.15328 0
M  V30 5973 C 568.818 -0.818782 -1.90009 0
M  V30 5974 C 569.233 0.628072 -1.78047 0
M  V30 5975 O 568.59 1.43085 -1.13282 0
M  V30 5976 C 568.641 -1.21874 -3.40337 0
M  V30 5977 O 568.362 -2.60883 -3.51954 0
M  V30 5978 C 569.863 -0.992796 -4.3204 0
M  V30 5979 H 567.083 -0.296007 -0.60218 0
M  V30 5980 H 569.627 -1.43073 -1.46117 0
M  V30 5981 H 567.782 -0.651103 -3.81889 0
M  V30 5982 H 568.196 -2.77216 -4.45255 0
M  V30 5983 H 569.67 -1.32215 -5.35932 0
M  V30 5984 H 570.147 0.0708331 -4.39143 0
M  V30 5985 H 570.753 -1.54537 -3.9623 0
M  V30 5986 N 569.068 1.32177 -0.85831 0
M  V30 5987 C 570.345 1.91781 -0.384624 0
M  V30 5988 C 570.725 1.78171 1.13217 0
M  V30 5989 O 570.073 1.18209 1.95548 0
M  V30 5990 C 570.283 3.38414 -0.853047 0
M  V30 5991 C 571.631 4.15542 -0.872359 0
M  V30 5992 O 572.655 3.47148 -0.797926 0
M  V30 5993 O 571.514 5.37678 -0.978009 0
M  V30 5994 H 568.608 0.819259 -0.112886 0
M  V30 5995 H 571.154 1.40923 -0.945453 0
M  V30 5996 H 569.926 3.4228 -1.89632 0
M  V30 5997 H 569.549 3.96683 -0.269874 0
M  V30 5998 N 570.547 0.616602 1.45037 0
M  V30 5999 C 571.794 0.115331 2.02171 0
M  V30 6000 C 572.122 -1.25748 1.48383 0
M  V30 6001 O 571.377 -1.84511 0.652229 0
M  V30 6002 C 571.676 0.0356829 3.57382 0
M  V30 6003 C 571.342 1.34535 4.30362 0
M  V30 6004 C 570.004 1.70408 4.50016 0
M  V30 6005 C 572.356 2.21049 4.72003 0
M  V30 6006 C 569.684 2.92529 5.0857 0
M  V30 6007 C 572.036 3.42427 5.31908 0
M  V30 6008 C 570.7 3.78541 5.49784 0
M  V30 6009 H 569.97 0.0422024 0.739797 0
M  V30 6010 H 572.617 0.80002 1.73988 0
M  V30 6011 H 570.922 -0.732314 3.84895 0
M  V30 6012 H 572.619 -0.368463 3.99304 0
M  V30 6013 H 569.209 1.05615 4.15383 0
M  V30 6014 H 573.393 1.94632 4.56544 0
M  V30 6015 H 568.649 3.20605 5.20598 0
M  V30 6016 H 572.823 4.09709 5.63127 0
M  V30 6017 H 570.45 4.73255 5.94923 0
M  V30 6018 N 572.025 -1.5352 0.356285 0
M  V30 6019 C 573.273 -2.00719 -0.235837 0
M  V30 6020 C 573.594 -1.24551 -1.5004 0
M  V30 6021 O 572.864 -0.356185 -1.92635 0
M  V30 6022 H 571.444 -0.741542 -0.0901366 0
M  V30 6023 H 574.106 -1.88887 0.480378 0
M  V30 6024 H 573.202 -3.08551 -0.469357 0
M  V30 6025 N 573.503 -0.0852151 -1.57369 0
M  V30 6026 C 574.75 0.580806 -1.93992 0
M  V30 6027 C 575.078 1.68801 -0.966252 0
M  V30 6028 O 574.333 1.95694 0.0158649 0
M  V30 6029 C 574.632 1.18482 -3.3719 0
M  V30 6030 C 574.298 0.2024 -4.50446 0
M  V30 6031 C 572.96 -0.0678318 -4.81152 0
M  V30 6032 C 575.312 -0.46895 -5.19086 0
M  V30 6033 C 572.64 -1.01627 -5.77831 0
M  V30 6034 C 574.992 -1.4058 -6.16782 0
M  V30 6035 C 573.656 -1.68436 -6.45899 0
M  V30 6036 H 572.926 0.212532 -0.709867 0
M  V30 6037 H 575.573 -0.158947 -1.90839 0
M  V30 6038 H 573.878 2.0006 -3.36873 0
M  V30 6039 H 575.575 1.70767 -3.62822 0
M  V30 6040 H 572.165 0.423208 -4.26505 0
M  V30 6041 H 576.349 -0.273307 -4.95547 0
M  V30 6042 H 571.605 -1.2392 -5.9871 0
M  V30 6043 H 575.779 -1.93188 -6.69068 0
M  V30 6044 H 573.406 -2.42088 -7.20623 0
M  V30 6045 N 574.981 1.5647 0.188427 0
M  V30 6046 C 576.221 1.82803 0.914469 0
M  V30 6047 C 576.585 0.663681 1.80165 0
M  V30 6048 O 577.786 0.807059 2.56398 0
M  V30 6049 C 576.057 3.14187 1.70357 0
M  V30 6050 S 577.616 3.61947 2.48072 0
M  V30 6051 H 574.434 0.641497 0.306599 0
M  V30 6052 H 577.036 1.94694 0.177361 0
M  V30 6053 H 575.74 3.96937 1.04255 0
M  V30 6054 H 575.271 3.05192 2.48237 0
M  V30 6055 H 577.286 3.27913 3.72407 0
M  V30 6056 N 576.459 -0.456382 1.50847 0
M  V30 6057 C 577.422 -1.53493 1.70213 0
M  V30 6058 C 578.422 -1.50264 0.572481 0
M  V30 6059 O 579.612 -1.52623 0.839751 0
M  V30 6060 C 576.744 -2.93091 1.741 0
M  V30 6061 H 577.937 -1.37633 2.66453 0
M  V30 6062 H 575.49 -0.683776 1.4055 0
M  V30 6063 H 576.225 -3.14378 0.796063 0
M  V30 6064 H 576.01 -2.9684 2.5618 0
M  V30 6065 H 577.5 -3.71368 1.90987 0
M  V30 6066 N 577.937 -1.40673 -0.710563 0
M  V30 6067 C 578.869 -1.37256 -1.83558 0
M  V30 6068 C 579.882 -0.277133 -1.60424 0
M  V30 6069 O 581.071 -0.537831 -1.70205 0
M  V30 6070 C 578.171 -1.1144 -3.20054 0
M  V30 6071 C 577.344 -2.32734 -3.70342 0
M  V30 6072 C 576.403 -2.03002 -4.85465 0
M  V30 6073 O 575.429 -2.75912 -4.97857 0
M  V30 6074 N 576.631 -1.01105 -5.71627 0
M  V30 6075 H 579.396 -2.34215 -1.86985 0
M  V30 6076 H 576.957 -1.35091 -0.892301 0
M  V30 6077 H 578.949 -0.895265 -3.94673 0
M  V30 6078 H 577.519 -0.231307 -3.11743 0
M  V30 6079 H 576.739 -2.70446 -2.86798 0
M  V30 6080 H 578.027 -3.13584 -4.00678 0
M  V30 6081 H 577.425 -0.407303 -5.64232 0
M  V30 6082 H 575.982 -0.85182 -6.4621 0
M  V30 6083 N 579.415 0.9433 -1.26252 0
M  V30 6084 C 580.664 1.68369 -1.11062 0
M  V30 6085 C 580.977 1.92514 0.346104 0
M  V30 6086 O 582.183 2.64358 0.618646 0
M  V30 6087 C 580.639 3.03171 -1.93946 0
M  V30 6088 C 580.247 2.86782 -3.4418 0
M  V30 6089 C 581.991 3.80916 -1.87359 0
M  V30 6090 C 579.898 4.17044 -4.19319 0
M  V30 6091 H 578.828 0.631469 -0.412023 0
M  V30 6092 H 581.479 1.04922 -1.50544 0
M  V30 6093 H 579.861 3.67587 -1.47296 0
M  V30 6094 H 581.035 2.31229 -3.98585 0
M  V30 6095 H 579.35 2.22482 -3.51981 0
M  V30 6096 H 581.947 4.77417 -2.40784 0
M  V30 6097 H 582.29 4.07658 -0.843857 0
M  V30 6098 H 582.823 3.2327 -2.31821 0
M  V30 6099 H 579.562 3.95487 -5.22753 0
M  V30 6100 H 579.082 4.72319 -3.69696 0
M  V30 6101 H 580.761 4.85513 -4.27651 0
M  V30 6102 N 580.893 1.08022 1.14757 0
M  V30 6103 C 582.121 0.828847 1.89572 0
M  V30 6104 C 582.536 -0.618621 1.78377 0
M  V30 6105 O 581.893 -1.42482 1.1404 0
M  V30 6106 C 581.944 1.23677 3.39685 0
M  V30 6107 O 581.665 2.62746 3.50566 0
M  V30 6108 C 583.166 1.01569 4.31507 0
M  V30 6109 H 580.386 0.299196 0.600602 0
M  V30 6110 H 582.93 1.43846 1.45357 0
M  V30 6111 H 581.085 0.671347 3.81539 0
M  V30 6112 H 581.499 2.79573 4.43778 0
M  V30 6113 H 582.973 1.35055 5.35223 0
M  V30 6114 H 583.45 -0.0475433 4.39174 0
M  V30 6115 H 584.056 1.56636 3.95405 0
M  V30 6116 N 582.371 -1.3172 0.865308 0
M  V30 6117 C 583.782 -1.79104 0.527126 0
M  V30 6118 C 584.133 -1.7135 -0.955695 0
M  V30 6119 O 583.258 -1.27845 -1.74598 0
M  V30 6120 C 583.853 -3.25207 0.950061 0
M  V30 6121 C 582.412 -3.70504 0.663611 0
M  V30 6122 C 581.559 -2.52605 1.14395 0
M  V30 6123 H 584.51 -1.18868 1.05148 0
M  V30 6124 H 584.531 -3.79535 0.270805 0
M  V30 6125 H 584.043 -3.30818 2.02931 0
M  V30 6126 H 582.144 -3.70398 -0.404474 0
M  V30 6127 H 582.257 -4.62845 1.23737 0
M  V30 6128 H 580.621 -2.4838 0.563859 0
M  V30 6129 H 581.404 -2.60964 2.23053 0
M  V30 6130 N 583.85 -0.624285 -1.44708 0
M  V30 6131 C 584.76 0.0861083 -2.34442 0
M  V30 6132 C 585.776 0.84291 -1.5222 0
M  V30 6133 O 586.952 0.796723 -1.84971 0
M  V30 6134 C 584.017 1.05999 -3.30099 0
M  V30 6135 C 583.077 0.303316 -4.28227 0
M  V30 6136 C 582.311 1.23081 -5.19314 0
M  V30 6137 O 582.534 2.46929 -5.14181 0
M  V30 6138 O 581.468 0.71883 -5.97592 0
M  V30 6139 H 585.293 -0.651756 -2.96624 0
M  V30 6140 H 582.879 -0.384493 -1.44368 0
M  V30 6141 H 584.76 1.62046 -3.88997 0
M  V30 6142 H 583.436 1.77859 -2.70459 0
M  V30 6143 H 582.343 -0.300033 -3.72895 0
M  V30 6144 H 583.676 -0.375123 -4.90768 0
M  V30 6145 N 585.328 1.53329 -0.364422 0
M  V30 6146 C 586.26 2.23286 0.517293 0
M  V30 6147 C 587.273 1.24657 1.04711 0
M  V30 6148 O 588.462 1.50887 0.95369 0
M  V30 6149 C 585.562 2.91604 1.72685 0
M  V30 6150 C 584.735 4.1673 1.32873 0
M  V30 6151 C 583.794 4.68269 2.40022 0
M  V30 6152 O 582.82 5.31976 2.02461 0
M  V30 6153 N 584.022 4.45983 3.7159 0
M  V30 6154 H 586.787 2.99588 -0.0819391 0
M  V30 6155 H 584.348 1.60787 -0.189544 0
M  V30 6156 H 586.34 3.22992 2.4384 0
M  V30 6157 H 584.91 2.18763 2.23297 0
M  V30 6158 H 584.13 3.91657 0.447069 0
M  V30 6159 H 585.418 4.98078 1.03902 0
M  V30 6160 H 584.816 3.95077 4.04883 0
M  V30 6161 H 583.373 4.81924 4.38854 0
M  V30 6162 N 586.806 0.0935595 1.57322 0
M  V30 6163 C 588.031 -0.582324 1.99057 0
M  V30 6164 C 588.456 -1.61025 0.972242 0
M  V30 6165 O 587.814 -1.81202 -0.0594622 0
M  V30 6166 C 587.862 -1.20799 3.39765 0
M  V30 6167 O 586.966 -2.32382 3.40694 0
M  V30 6168 H 586.307 -0.147884 0.647323 0
M  V30 6169 H 588.837 0.174516 2.03854 0
M  V30 6170 H 588.847 -1.54966 3.77425 0
M  V30 6171 H 587.522 -0.454914 4.13405 0
M  V30 6172 H 586.099 -1.99845 3.14827 0
M  V30 6173 N 588.284 -1.56567 -0.180126 0
M  V30 6174 C 589.231 -1.95725 -1.22313 0
M  V30 6175 C 590.201 -0.819911 -1.44453 0
M  V30 6176 O 591.386 -1.07931 -1.57339 0
M  V30 6177 C 588.526 -2.31484 -2.55947 0
M  V30 6178 C 587.639 -3.58354 -2.4126 0
M  V30 6179 C 586.774 -3.83366 -3.67701 0
M  V30 6180 C 585.813 -5.03612 -3.47909 0
M  V30 6181 N 584.95 -5.24802 -4.66398 0
M  V30 6182 H 589.79 -2.84642 -0.882198 0
M  V30 6183 H 587.327 -1.4085 -0.42422 0
M  V30 6184 H 589.285 -2.50237 -3.33822 0
M  V30 6185 H 587.915 -1.45689 -2.88053 0
M  V30 6186 H 586.967 -3.47565 -1.54606 0
M  V30 6187 H 588.279 -4.46386 -2.22577 0
M  V30 6188 H 587.433 -4.02439 -4.54013 0
M  V30 6189 H 586.172 -2.93692 -3.89353 0
M  V30 6190 H 585.177 -4.84447 -2.59983 0
M  V30 6191 H 586.402 -5.94809 -3.27688 0
M  V30 6192 H 584.348 -4.38079 -4.88286 0
M  V30 6193 H 584.265 -6.07041 -4.50596 0
M  V30 6194 H 585.533 -5.48346 -5.54019 0
M  V30 6195 N 589.762 0.448376 -1.51087 0
M  V30 6196 C 591.178 0.783984 -1.39017 0
M  V30 6197 C 591.378 1.96087 -0.463904 0
M  V30 6198 O 590.434 2.52357 0.0850534 0
M  V30 6199 C 591.747 1.07471 -2.80839 0
M  V30 6200 C 593.295 1.17981 -2.89913 0
M  V30 6201 C 593.77 1.50354 -4.32617 0
M  V30 6202 N 595.261 1.57301 -4.35673 0
M  V30 6203 C 595.996 1.839 -5.4311 0
M  V30 6204 N 595.492 2.08365 -6.60724 0
M  V30 6205 N 597.285 1.8559 -5.30578 0
M  V30 6206 H 589.436 -0.326881 -2.0987 0
M  V30 6207 H 591.699 -0.0838006 -0.944289 0
M  V30 6208 H 591.405 0.282768 -3.50561 0
M  V30 6209 H 591.279 2.00519 -3.19487 0
M  V30 6210 H 593.666 1.9624 -2.20395 0
M  V30 6211 H 593.747 0.228603 -2.54776 0
M  V30 6212 H 593.391 0.726273 -5.0268 0
M  V30 6213 H 593.321 2.46663 -4.65258 0
M  V30 6214 H 595.812 1.40342 -3.50874 0
M  V30 6215 H 596.125 2.27999 -7.38401 0
M  V30 6216 H 594.47 2.0571 -6.63859 0
M  V30 6217 H 597.661 1.65989 -4.37682 0
M  V30 6218 H 597.834 2.05983 -6.1439 0
M  V30 6219 N 591.24 1.41047 0.703093 0
M  V30 6220 C 592.465 1.43537 1.49706 0
M  V30 6221 C 592.89 0.0401853 1.88057 0
M  V30 6222 O 592.248 -0.954785 1.54122 0
M  V30 6223 C 592.296 2.3433 2.74084 0
M  V30 6224 O 591.4 1.79515 3.71279 0
M  V30 6225 H 590.741 0.487454 0.450871 0
M  V30 6226 H 593.271 1.85422 0.86486 0
M  V30 6227 H 593.281 2.49947 3.22476 0
M  V30 6228 H 591.956 3.35708 2.45506 0
M  V30 6229 H 590.533 1.7331 3.30179 0
M  V30 6230 N 592.718 -0.936591 1.26751 0
M  V30 6231 C 593.946 -1.71758 1.15355 0
M  V30 6232 C 594.361 -1.86549 -0.290683 0
M  V30 6233 O 593.718 -1.37616 -1.19868 0
M  V30 6234 C 593.769 -3.12193 1.82258 0
M  V30 6235 O 593.49 -2.98105 3.21038 0
M  V30 6236 C 594.991 -4.06485 1.76875 0
M  V30 6237 H 592.211 -0.537636 0.401483 0
M  V30 6238 H 594.755 -1.17382 1.67457 0
M  V30 6239 H 592.91 -3.63456 1.34083 0
M  V30 6240 H 593.324 -3.86824 3.54214 0
M  V30 6241 H 594.798 -5.02569 2.28316 0
M  V30 6242 H 595.275 -4.32986 0.736216 0
M  V30 6243 H 595.881 -3.61144 2.24623 0
M  V30 6244 N 594.196 -1.08629 -1.14182 0
M  V30 6245 C 595.129 -0.662329 -2.18377 0
M  V30 6246 C 596.107 0.327054 -1.59277 0
M  V30 6247 O 597.291 0.230376 -1.87087 0
M  V30 6248 C 594.418 0.0254765 -3.3869 0
M  V30 6249 C 593.464 -0.924414 -4.16361 0
M  V30 6250 S 594.297 -2.43226 -4.77076 0
M  V30 6251 C 595.453 -1.75663 -6.00744 0
M  V30 6252 H 595.686 -1.54501 -2.54001 0
M  V30 6253 H 593.219 -0.901484 -1.2535 0
M  V30 6254 H 595.177 0.416032 -4.08386 0
M  V30 6255 H 593.838 0.884689 -3.01384 0
M  V30 6256 H 593.031 -0.390099 -5.02488 0
M  V30 6257 H 592.633 -1.25598 -3.5228 0
M  V30 6258 H 594.925 -1.07589 -6.68903 0
M  V30 6259 H 595.868 -2.59673 -6.58768 0
M  V30 6260 H 596.276 -1.22903 -5.50958 0
M  V30 6261 N 595.674 1.31259 -0.872281 0
M  V30 6262 C 596.92 1.96913 -0.485083 0
M  V30 6263 C 597.253 1.68774 0.960667 0
M  V30 6264 O 596.528 0.985495 1.67685 0
M  V30 6265 C 596.811 3.52299 -0.745502 0
M  V30 6266 C 596.664 3.90002 -2.24095 0
M  V30 6267 C 597.983 4.39582 -0.213516 0
M  V30 6268 H 595.102 0.715252 -0.177716 0
M  V30 6269 H 597.744 1.55347 -1.09395 0
M  V30 6270 H 595.894 3.87835 -0.227276 0
M  V30 6271 H 597.566 3.64555 -2.82661 0
M  V30 6272 H 595.809 3.38526 -2.71261 0
M  V30 6273 H 596.48 4.98352 -2.37381 0
M  V30 6274 H 598.956 4.10882 -0.656902 0
M  V30 6275 H 597.832 5.47251 -0.42516 0
M  V30 6276 H 598.093 4.33158 0.884666 0
M  V30 6277 N 597.152 0.631951 1.44375 0
M  V30 6278 C 598.4 0.136497 2.01639 0
M  V30 6279 C 598.721 -1.24637 1.49969 0
M  V30 6280 O 597.991 -1.82827 0.70363 0
M  V30 6281 H 596.571 0.0474703 0.74549 0
M  V30 6282 H 599.233 0.818837 1.76865 0
M  V30 6283 H 598.329 0.104817 3.11924 0
M  V30 6284 N 598.631 -1.53133 0.372548 0
M  V30 6285 C 599.859 -2.05774 -0.215515 0
M  V30 6286 C 600.274 -1.24555 -1.41886 0
M  V30 6287 O 599.631 -0.287951 -1.80214 0
M  V30 6288 C 599.682 -3.5645 -0.602161 0
M  V30 6289 O 599.403 -4.34591 0.553359 0
M  V30 6290 C 600.904 -4.25374 -1.24787 0
M  V30 6291 H 598.124 -0.670009 -0.0364529 0
M  V30 6292 H 600.668 -1.97434 0.532934 0
M  V30 6293 H 598.823 -3.64918 -1.30052 0
M  V30 6294 H 599.237 -5.23954 0.239336 0
M  V30 6295 H 600.711 -5.32097 -1.46891 0
M  V30 6296 H 601.188 -3.79531 -2.21026 0
M  V30 6297 H 601.794 -4.21177 -0.590752 0
M  V30 6298 N 600.109 -0.101901 -1.5727 0
M  V30 6299 C 601.52 0.426173 -1.81771 0
M  V30 6300 C 601.871 1.67725 -1.01797 0
M  V30 6301 O 600.996 2.14958 -0.249386 0
M  V30 6302 C 601.591 0.779962 -3.297 0
M  V30 6303 C 600.15 1.25275 -3.54941 0
M  V30 6304 C 599.297 0.252814 -2.76145 0
M  V30 6305 H 602.248 -0.32726 -1.55289 0
M  V30 6306 H 602.269 1.63891 -3.43395 0
M  V30 6307 H 601.781 -0.130778 -3.8788 0
M  V30 6308 H 599.882 2.18097 -3.021 0
M  V30 6309 H 599.995 1.20988 -4.63572 0
M  V30 6310 H 598.359 0.736362 -2.43823 0
M  V30 6311 H 599.142 -0.650724 -3.37076 0
M  V30 6312 N 601.587 1.56661 0.17182 0
M  V30 6313 C 602.817 1.85831 0.902804 0
M  V30 6314 C 603.225 0.685157 1.76358 0
M  V30 6315 O 602.568 -0.354947 1.80238 0
M  V30 6316 C 602.63 3.09406 1.83053 0
M  V30 6317 C 602.294 4.4231 1.1494 0
M  V30 6318 C 603.291 5.17342 0.515104 0
M  V30 6319 C 600.976 4.89045 1.14631 0
M  V30 6320 C 602.97 6.37299 -0.113194 0
M  V30 6321 C 600.657 6.08933 0.514184 0
M  V30 6322 C 601.655 6.82904 -0.114463 0
M  V30 6323 O 601.343 8.00518 -0.736622 0
M  V30 6324 H 601.075 0.620715 0.267748 0
M  V30 6325 H 603.629 2.04637 0.176918 0
M  V30 6326 H 601.859 2.86544 2.59672 0
M  V30 6327 H 603.548 3.25027 2.4313 0
M  V30 6328 H 604.314 4.82317 0.509474 0
M  V30 6329 H 600.193 4.31409 1.62502 0
M  V30 6330 H 603.737 6.94976 -0.604477 0
M  V30 6331 H 599.634 6.43423 0.517395 0
M  V30 6332 H 600.402 8.16027 -0.635822 0
M  V30 6333 N 603.065 -0.440357 1.51323 0
M  V30 6334 C 604.311 -1.18874 1.65047 0
M  V30 6335 C 604.666 -1.88988 0.360742 0
M  V30 6336 O 603.959 -1.80479 -0.643272 0
M  V30 6337 C 604.153 -2.2339 2.78984 0
M  V30 6338 C 603.982 -1.63534 4.18911 0
M  V30 6339 C 602.752 -1.42158 4.84891 0
M  V30 6340 C 604.95 -1.11324 5.02107 0
M  V30 6341 N 602.932 -0.778679 6.08942 0
M  V30 6342 C 604.303 -0.595421 6.17134 0
M  V30 6343 C 606.358 -1.00471 4.87658 0
M  V30 6344 C 605.061 0.0202557 7.19297 0
M  V30 6345 C 607.087 -0.402928 5.90026 0
M  V30 6346 C 606.449 0.10436 7.04323 0
M  V30 6347 H 602.548 -0.422771 0.657866 0
M  V30 6348 H 605.132 -0.485814 1.88542 0
M  V30 6349 H 603.303 -2.91074 2.57158 0
M  V30 6350 H 605.035 -2.90366 2.81904 0
M  V30 6351 H 601.79 -1.68247 4.42707 0
M  V30 6352 H 602.214 -0.474755 6.75333 0
M  V30 6353 H 606.856 -1.38278 3.99548 0
M  V30 6354 H 604.574 0.410468 8.07057 0
M  V30 6355 H 608.16 -0.320897 5.80914 0
M  V30 6356 H 607.04 0.562697 7.82179 0
M  V30 6357 N 604.543 -1.41418 -0.695603 0
M  V30 6358 C 605.476 -1.3768 -1.81988 0
M  V30 6359 C 606.454 -0.244061 -1.60758 0
M  V30 6360 O 607.638 -0.430965 -1.83507 0
M  V30 6361 C 604.765 -1.1476 -3.18666 0
M  V30 6362 C 603.811 -2.30752 -3.58686 0
M  V30 6363 S 604.644 -3.9323 -3.63498 0
M  V30 6364 C 605.8 -3.72613 -5.02902 0
M  V30 6365 H 606.033 -2.32822 -1.84882 0
M  V30 6366 H 603.566 -1.27942 -0.86431 0
M  V30 6367 H 605.524 -1.02223 -3.97569 0
M  V30 6368 H 604.185 -0.212385 -3.13381 0
M  V30 6369 H 603.378 -2.10409 -4.57978 0
M  V30 6370 H 602.98 -2.39696 -2.87092 0
M  V30 6371 H 605.272 -3.32317 -5.904 0
M  V30 6372 H 606.215 -4.71507 -5.28286 0
M  V30 6373 H 606.623 -3.0589 -4.74438 0
M  V30 6374 N 606.021 0.929856 -1.27246 0
M  V30 6375 C 606.984 2.01172 -1.09829 0
M  V30 6376 C 607.984 1.60743 -0.0429687 0
M  V30 6377 O 609.174 1.71813 -0.287373 0
M  V30 6378 C 606.306 3.34191 -0.673003 0
M  V30 6379 H 607.499 2.18054 -2.05895 0
M  V30 6380 H 605.052 1.11036 -1.10003 0
M  V30 6381 H 605.787 3.23009 0.289134 0
M  V30 6382 H 605.572 3.64892 -1.43515 0
M  V30 6383 H 607.062 4.13646 -0.573323 0
M  V30 6384 N 607.499 1.09233 1.13605 0
M  V30 6385 C 608.91 0.846839 1.6639 0
M  V30 6386 C 609.261 -0.625031 1.85978 0
M  V30 6387 O 608.386 -1.48173 1.57714 0
M  V30 6388 C 608.981 1.5307 3.0225 0
M  V30 6389 C 607.54 1.33223 3.52035 0
M  V30 6390 C 606.687 1.58806 2.27323 0
M  V30 6391 H 609.638 1.25175 0.975541 0
M  V30 6392 H 609.659 0.96267 3.68121 0
M  V30 6393 H 609.171 2.60192 2.87961 0
M  V30 6394 H 607.272 0.282091 3.71531 0
M  V30 6395 H 607.385 2.0657 4.32279 0
M  V30 6396 H 605.749 1.01007 2.33815 0
M  V30 6397 H 606.532 2.67153 2.15602 0
M  V30 6398 N 608.977 -1.30795 0.87923 0
M  V30 6399 C 609.887 -2.32041 0.345565 0
M  V30 6400 C 610.903 -1.65103 -0.549265 0
M  V30 6401 O 612.079 -1.9645 -0.443763 0
M  V30 6402 C 609.144 -3.43944 -0.436245 0
M  V30 6403 C 608.205 -4.26521 0.48765 0
M  V30 6404 C 607.438 -5.33081 -0.256943 0
M  V30 6405 O 607.661 -5.50762 -1.48381 0
M  V30 6406 O 606.595 -6.00635 0.389985 0
M  V30 6407 H 610.421 -2.79627 1.18501 0
M  V30 6408 H 608.006 -1.3486 0.642885 0
M  V30 6409 H 609.888 -4.12128 -0.879119 0
M  V30 6410 H 608.563 -2.98504 -1.25208 0
M  V30 6411 H 607.47 -3.61057 0.979216 0
M  V30 6412 H 608.803 -4.75551 1.26933 0
M  V30 6413 N 610.455 -0.639598 -1.44038 0
M  V30 6414 C 611.701 -0.147698 -2.02261 0
M  V30 6415 C 612.034 1.23031 -1.50256 0
M  V30 6416 O 611.309 1.81847 -0.690068 0
M  V30 6417 C 611.592 -0.14362 -3.59813 0
M  V30 6418 C 611.445 -1.55458 -4.22082 0
M  V30 6419 C 612.764 0.527317 -4.36929 0
M  V30 6420 H 609.883 -0.0551453 -0.734934 0
M  V30 6421 H 612.525 -0.817688 -1.71505 0
M  V30 6422 H 610.675 0.426898 -3.86147 0
M  V30 6423 H 612.347 -2.17464 -4.06826 0
M  V30 6424 H 610.59 -2.10594 -3.79253 0
M  V30 6425 H 611.261 -1.50369 -5.31124 0
M  V30 6426 H 613.737 0.0420504 -4.16079 0
M  V30 6427 H 612.613 0.499389 -5.46624 0
M  V30 6428 H 612.874 1.59914 -4.12165 0
M  V30 6429 N 611.933 1.52934 -0.380664 0
M  V30 6430 C 613.179 2.01765 0.20458 0
M  V30 6431 C 613.512 1.26696 1.47179 0
M  V30 6432 O 612.787 0.364936 1.91046 0
M  V30 6433 C 613.07 3.56869 0.481269 0
M  V30 6434 C 612.923 4.42617 -0.800629 0
M  V30 6435 C 614.242 4.2121 1.27554 0
M  V30 6436 H 611.361 0.733388 0.0728803 0
M  V30 6437 H 614.003 1.83068 -0.50853 0
M  V30 6438 H 612.153 3.72932 1.08875 0
M  V30 6439 H 613.825 4.38323 -1.43773 0
M  V30 6440 H 612.068 4.09977 -1.4178 0
M  V30 6441 H 612.739 5.49134 -0.561791 0
M  V30 6442 H 615.215 4.09072 0.761514 0
M  V30 6443 H 614.091 5.29732 1.43788 0
M  V30 6444 H 614.352 3.78269 2.28833 0
M  V30 6445 N 613.412 0.11024 1.57214 0
M  V30 6446 C 614.64 -0.557834 1.99238 0
M  V30 6447 C 615.055 -1.60778 0.989734 0
M  V30 6448 O 614.412 -1.82491 -0.0186092 0
M  V30 6449 C 614.463 -1.19189 3.41286 0
M  V30 6450 O 614.184 -0.183919 4.37714 0
M  V30 6451 C 615.685 -1.94413 3.98395 0
M  V30 6452 H 612.905 -0.148392 0.654386 0
M  V30 6453 H 615.449 0.193996 2.03578 0
M  V30 6454 H 613.604 -1.89456 3.37913 0
M  V30 6455 H 614.018 -0.643475 5.20538 0
M  V30 6456 H 615.492 -2.34116 4.99894 0
M  V30 6457 H 615.969 -2.81592 3.3705 0
M  V30 6458 H 616.575 -1.28928 4.05287 0
M  V30 6459 N 614.89 -1.56749 -0.16351 0
M  V30 6460 C 616.306 -1.51043 -0.515567 0
M  V30 6461 C 616.506 -0.815855 -1.84245 0
M  V30 6462 O 615.562 -0.379477 -2.49632 0
M  V30 6463 C 616.875 -2.95791 -0.541114 0
M  V30 6464 C 618.423 -3.0664 -0.627776 0
M  V30 6465 C 618.898 -4.52861 -0.684141 0
M  V30 6466 N 620.389 -4.5714 -0.746818 0
M  V30 6467 C 621.124 -5.67634 -0.811137 0
M  V30 6468 N 620.62 -6.8774 -0.835811 0
M  V30 6469 N 622.413 -5.55624 -0.850756 0
M  V30 6470 H 614.564 -2.00307 0.70645 0
M  V30 6471 H 616.827 -0.912876 0.255659 0
M  V30 6472 H 616.533 -3.49797 0.365329 0
M  V30 6473 H 616.407 -3.50858 -1.38487 0
M  V30 6474 H 618.794 -2.52663 -1.52464 0
M  V30 6475 H 618.875 -2.54645 0.242805 0
M  V30 6476 H 618.519 -5.07472 0.2085 0
M  V30 6477 H 618.449 -5.02621 -1.57098 0
M  V30 6478 H 620.94 -3.70669 -0.735717 0
M  V30 6479 H 621.253 -7.67701 -0.886279 0
M  V30 6480 H 619.598 -6.90334 -0.803958 0
M  V30 6481 H 622.789 -4.60709 -0.828535 0
M  V30 6482 H 622.962 -6.41756 -0.897418 0
M  V30 6483 N 616.368 0.432326 -1.51554 0
M  V30 6484 C 617.315 1.52512 -1.7323 0
M  V30 6485 C 618.285 1.55863 -0.5741 0
M  V30 6486 O 619.47 1.72796 -0.809093 0
M  V30 6487 C 616.61 2.90183 -1.86783 0
M  V30 6488 C 615.723 2.96322 -3.14352 0
M  V30 6489 C 614.858 4.25147 -3.18471 0
M  V30 6490 C 613.897 4.25172 -4.40335 0
M  V30 6491 N 613.034 5.45529 -4.41975 0
M  V30 6492 H 617.874 1.33332 -2.66508 0
M  V30 6493 H 615.411 0.647613 -1.32077 0
M  V30 6494 H 617.369 3.70071 -1.92623 0
M  V30 6495 H 615.999 3.0791 -0.969087 0
M  V30 6496 H 615.051 2.09066 -3.17798 0
M  V30 6497 H 616.363 2.92203 -4.04251 0
M  V30 6498 H 615.517 5.13411 -3.23255 0
M  V30 6499 H 614.256 4.31929 -2.2647 0
M  V30 6500 H 613.261 3.353 -4.35723 0
M  V30 6501 H 614.486 4.20049 -5.33606 0
M  V30 6502 H 612.432 5.53024 -3.52847 0
M  V30 6503 H 612.349 5.43311 -5.25689 0
M  V30 6504 H 613.617 6.35812 -4.50958 0
M  V30 6505 N 617.846 1.41785 0.688094 0
M  V30 6506 C 618.809 1.43936 1.78368 0
M  V30 6507 C 619.809 0.328866 1.57401 0
M  V30 6508 O 620.999 0.589093 1.63937 0
M  V30 6509 C 618.131 1.25804 3.16838 0
M  V30 6510 H 619.324 2.41472 1.77852 0
M  V30 6511 H 616.877 1.28037 0.896448 0
M  V30 6512 H 617.612 0.291386 3.22988 0
M  V30 6513 H 617.397 2.06272 3.33458 0
M  V30 6514 H 618.887 1.30162 3.96797 0
M  V30 6515 N 619.324 -0.923095 1.27737 0
M  V30 6516 C 620.554 -1.70277 1.17001 0
M  V30 6517 C 620.962 -1.87188 -0.275199 0
M  V30 6518 O 620.305 -1.39195 -1.19877 0
M  V30 6519 C 620.367 -3.11976 1.78637 0
M  V30 6520 C 620.031 -3.18386 3.27841 0
M  V30 6521 C 621.028 -3.00287 4.2441 0
M  V30 6522 C 618.713 -3.41198 3.68632 0
M  V30 6523 C 620.707 -3.04896 5.59747 0
M  V30 6524 C 618.394 -3.4544 5.04097 0
M  V30 6525 C 619.392 -3.27309 5.99465 0
M  V30 6526 O 619.08 -3.31295 7.32461 0
M  V30 6527 H 618.812 -0.539366 0.407505 0
M  V30 6528 H 621.366 -1.16446 1.69202 0
M  V30 6529 H 619.596 -3.67308 1.20919 0
M  V30 6530 H 621.285 -3.7193 1.6255 0
M  V30 6531 H 622.051 -2.825 3.94232 0
M  V30 6532 H 617.93 -3.54359 2.94873 0
M  V30 6533 H 621.474 -2.90662 6.34162 0
M  V30 6534 H 617.371 -3.62753 5.33929 0
M  V30 6535 H 618.139 -3.47719 7.40968 0
M  V30 6536 N 620.802 -1.09834 -1.13024 0
M  V30 6537 C 622.05 -0.835297 -1.8403 0
M  V30 6538 C 622.371 0.640944 -1.84165 0
M  V30 6539 O 621.641 1.46517 -1.30037 0
M  V30 6540 H 620.221 -0.306018 -0.681441 0
M  V30 6541 H 622.883 -1.38734 -1.36891 0
M  V30 6542 H 621.979 -1.19258 -2.88416 0
M  V30 6543 N 622.28 1.30327 -0.886154 0
M  V30 6544 C 623.691 1.78243 -0.555554 0
M  V30 6545 C 624.042 1.72849 0.928314 0
M  V30 6546 O 623.167 1.30607 1.72542 0
M  V30 6547 C 623.762 3.23654 -1.00168 0
M  V30 6548 C 622.321 3.69401 -0.722471 0
M  V30 6549 C 621.468 2.50753 -1.18399 0
M  V30 6550 H 624.419 1.1718 -1.07026 0
M  V30 6551 H 624.44 3.79056 -0.331152 0
M  V30 6552 H 623.952 3.27548 -2.08169 0
M  V30 6553 H 622.053 3.70995 0.345496 0
M  V30 6554 H 622.166 4.60818 -1.31085 0
M  V30 6555 H 620.53 2.47452 -0.603303 0
M  V30 6556 H 621.313 2.57383 -2.27176 0
M  V30 6557 N 623.758 0.647228 1.43697 0
M  V30 6558 C 624.705 -0.0480092 2.3075 0
M  V30 6559 C 625.675 -0.820705 1.44408 0
M  V30 6560 O 626.86 -0.798515 1.73287 0
M  V30 6561 C 624 -1.01259 3.2991 0
M  V30 6562 C 623.113 -0.236629 4.31351 0
M  V30 6563 C 622.248 -1.19447 5.17596 0
M  V30 6564 C 621.287 -0.408595 6.10735 0
M  V30 6565 N 620.424 -1.31772 6.89623 0
M  V30 6566 H 625.264 0.700238 2.89656 0
M  V30 6567 H 622.801 0.357082 1.427 0
M  V30 6568 H 624.759 -1.58538 3.85903 0
M  V30 6569 H 623.389 -1.72778 2.72667 0
M  V30 6570 H 622.441 0.452353 3.77701 0
M  V30 6571 H 623.753 0.374731 4.9739 0
M  V30 6572 H 622.907 -1.83809 5.78186 0
M  V30 6573 H 621.646 -1.83975 4.51669 0
M  V30 6574 H 620.651 0.24841 5.49239 0
M  V30 6575 H 621.876 0.232188 6.78703 0
M  V30 6576 H 619.822 -1.94991 6.2635 0
M  V30 6577 H 619.739 -0.760779 7.52162 0
M  V30 6578 H 621.007 -1.94967 7.54724 0
M  V30 6579 N 625.236 -1.5273 0.388769 0
M  V30 6580 C 626.482 -2.01871 -0.193877 0
M  V30 6581 C 626.815 -1.27475 -1.46505 0
M  V30 6582 O 626.09 -0.375063 -1.90849 0
M  V30 6583 C 626.373 -3.5712 -0.462336 0
M  V30 6584 C 626.226 -4.42186 0.824091 0
M  V30 6585 C 627.545 -4.21881 -1.25319 0
M  V30 6586 H 624.664 -0.733764 -0.0689899 0
M  V30 6587 H 627.306 -1.82796 0.518231 0
M  V30 6588 H 625.456 -3.73504 -1.06896 0
M  V30 6589 H 627.128 -4.37554 1.46096 0
M  V30 6590 H 625.371 -4.09219 1.43952 0
M  V30 6591 H 626.042 -5.48828 0.590905 0
M  V30 6592 H 628.518 -4.0947 -0.73981 0
M  V30 6593 H 627.394 -5.30487 -1.40977 0
M  V30 6594 H 627.655 -3.79478 -2.26824 0
M  V30 6595 N 626.714 -0.118576 -1.57153 0
M  V30 6596 C 627.991 0.583062 -1.86708 0
M  V30 6597 C 628.371 1.84841 -1.01967 0
M  V30 6598 O 627.719 2.28288 -0.0984673 0
M  V30 6599 C 627.929 0.875912 -3.3783 0
M  V30 6600 C 629.277 1.22916 -4.0642 0
M  V30 6601 O 630.301 0.966188 -3.42846 0
M  V30 6602 O 629.16 1.72269 -5.18638 0
M  V30 6603 H 626.254 0.294185 -0.772906 0
M  V30 6604 H 628.8 -0.153048 -1.69008 0
M  V30 6605 H 627.572 -0.0207776 -3.91294 0
M  V30 6606 H 627.195 1.66719 -3.60958 0
M  V30 6607 N 628.193 1.56834 0.155195 0
M  V30 6608 C 629.442 1.82088 0.867567 0
M  V30 6609 C 629.755 0.69849 1.82703 0
M  V30 6610 O 630.961 0.836407 2.58295 0
M  V30 6611 C 629.417 3.22707 1.59336 0
M  V30 6612 C 629.025 4.42859 0.676719 0
M  V30 6613 C 630.769 3.57242 2.293 0
M  V30 6614 C 628.676 5.74501 1.40367 0
M  V30 6615 H 627.606 0.679057 0.327715 0
M  V30 6616 H 630.257 1.83105 0.120351 0
M  V30 6617 H 628.639 3.16054 2.38591 0
M  V30 6618 H 629.813 4.60731 -0.0800196 0
M  V30 6619 H 628.128 4.16311 0.0859129 0
M  V30 6620 H 630.725 4.52847 2.84312 0
M  V30 6621 H 631.068 2.82901 3.05406 0
M  V30 6622 H 631.601 3.6552 1.56972 0
M  V30 6623 H 628.34 6.51915 0.684623 0
M  V30 6624 H 627.86 5.60579 2.13332 0
M  V30 6625 H 629.539 6.17016 1.94681 0
M  V30 6626 N 629.671 -0.424282 1.51781 0
M  V30 6627 C 630.917 -1.17117 1.66298 0
M  V30 6628 C 631.272 -1.88595 0.380767 0
M  V30 6629 O 630.565 -1.81151 -0.624094 0
M  V30 6630 C 630.759 -2.20418 2.81337 0
M  V30 6631 C 630.588 -1.59081 4.20622 0
M  V30 6632 C 629.358 -1.37007 4.86371 0
M  V30 6633 C 631.556 -1.05992 5.0326 0
M  V30 6634 N 629.538 -0.714049 6.09733 0
M  V30 6635 C 630.909 -0.529933 6.17731 0
M  V30 6636 C 632.964 -0.952927 4.88696 0
M  V30 6637 C 631.667 0.0965457 7.19235 0
M  V30 6638 C 633.693 -0.340325 5.9042 0
M  V30 6639 C 633.055 0.179057 7.04172 0
M  V30 6640 H 629.154 -0.41577 0.662314 0
M  V30 6641 H 631.738 -0.46579 1.89046 0
M  V30 6642 H 629.909 -2.8833 2.60231 0
M  V30 6643 H 631.641 -2.8736 2.84968 0
M  V30 6644 H 628.396 -1.63543 4.44467 0
M  V30 6645 H 628.82 -0.403101 6.75799 0
M  V30 6646 H 633.462 -1.34033 4.00993 0
M  V30 6647 H 631.18 0.496044 8.06576 0
M  V30 6648 H 634.766 -0.259266 5.81222 0
M  V30 6649 H 633.646 0.645626 7.81538 0
M  V30 6650 N 631.149 -1.42148 -0.680565 0
M  V30 6651 C 632.374 -1.45901 -1.47403 0
M  V30 6652 C 632.799 -0.0700985 -1.87969 0
M  V30 6653 O 632.157 0.930145 -1.55621 0
M  V30 6654 C 632.205 -2.38661 -2.70321 0
M  V30 6655 O 631.309 -1.85399 -3.68376 0
M  V30 6656 H 630.65 -0.494565 -0.443059 0
M  V30 6657 H 633.18 -1.86774 -0.835251 0
M  V30 6658 H 633.19 -2.55046 -3.18458 0
M  V30 6659 H 631.865 -3.39571 -2.40134 0
M  V30 6660 H 630.442 -1.78541 -3.2738 0
M  V30 6661 N 632.627 0.916307 -1.28225 0
M  V30 6662 C 633.557 2.0352 -1.14464 0
M  V30 6663 C 634.538 1.70045 -0.0430844 0
M  V30 6664 O 635.723 1.92954 -0.219619 0
M  V30 6665 C 632.853 3.37889 -0.803027 0
M  V30 6666 C 631.807 3.85516 -1.85908 0
M  V30 6667 C 631.133 5.1682 -1.37116 0
M  V30 6668 C 632.433 4.07655 -3.26519 0
M  V30 6669 H 634.127 2.1529 -2.08064 0
M  V30 6670 H 631.673 1.03446 -1.00174 0
M  V30 6671 H 633.626 4.15654 -0.693537 0
M  V30 6672 H 632.35 3.26164 0.168674 0
M  V30 6673 H 631.009 3.09953 -1.95767 0
M  V30 6674 H 630.657 5.01497 -0.38859 0
M  V30 6675 H 630.357 5.49657 -2.07728 0
M  V30 6676 H 631.881 5.97143 -1.27484 0
M  V30 6677 H 633.295 4.75953 -3.19596 0
M  V30 6678 H 631.692 4.51818 -3.94943 0
M  V30 6679 H 632.762 3.12553 -3.70727 0
M  V30 6680 N 634.105 1.10431 1.1244 0
M  V30 6681 C 635.353 0.845045 1.83585 0
M  V30 6682 C 635.674 -0.631168 1.84503 0
M  V30 6683 O 634.944 -1.45825 1.30813 0
M  V30 6684 H 633.524 0.309628 0.679809 0
M  V30 6685 H 636.186 1.39458 1.36153 0
M  V30 6686 H 635.282 1.20786 2.8778 0
M  V30 6687 N 635.583 -1.29855 0.893053 0
M  V30 6688 C 636.832 -1.95104 0.511597 0
M  V30 6689 C 637.145 -1.71226 -0.945567 0
M  V30 6690 O 638.351 -2.30525 -1.43424 0
M  V30 6691 C 636.807 -3.49374 0.864034 0
M  V30 6692 C 636.415 -3.82061 2.33952 0
M  V30 6693 C 638.159 -4.20894 0.552167 0
M  V30 6694 C 636.066 -5.29546 2.63316 0
M  V30 6695 H 634.996 -0.73029 0.187597 0
M  V30 6696 H 637.647 -1.47682 1.08914 0
M  V30 6697 H 636.029 -3.95413 0.215493 0
M  V30 6698 H 637.203 -3.46904 3.03305 0
M  V30 6699 H 635.518 -3.23665 2.61973 0
M  V30 6700 H 638.115 -5.29435 0.748489 0
M  V30 6701 H 638.458 -4.13178 -0.508924 0
M  V30 6702 H 638.991 -3.80564 1.15825 0
M  V30 6703 H 635.73 -5.4232 3.68197 0
M  V30 6704 H 635.25 -5.65974 1.9858 0
M  V30 6705 H 636.929 -5.97068 2.49236 0
M  V30 6706 N 637.061 -0.65484 -1.43351 0
M  V30 6707 C 637.994 0.0855537 -2.2804 0
M  V30 6708 C 638.972 0.828301 -1.39921 0
M  V30 6709 O 640.156 0.827539 -1.69364 0
M  V30 6710 C 637.283 1.12792 -3.19368 0
M  V30 6711 C 636.329 0.483037 -4.23756 0
M  V30 6712 S 637.162 -0.744605 -5.30298 0
M  V30 6713 C 638.318 0.297187 -6.25194 0
M  V30 6714 H 638.551 -0.632831 -2.90487 0
M  V30 6715 H 636.084 -0.44373 -1.47886 0
M  V30 6716 H 638.042 1.7243 -3.72529 0
M  V30 6717 H 636.703 1.81863 -2.56095 0
M  V30 6718 H 635.896 1.26888 -4.87766 0
M  V30 6719 H 635.498 -0.0392713 -3.73979 0
M  V30 6720 H 637.79 1.1629 -6.67445 0
M  V30 6721 H 638.733 -0.30793 -7.0743 0
M  V30 6722 H 639.141 0.633721 -5.60932 0
M  V30 6723 N 638.539 1.52521 -0.396863 0
M  V30 6724 C 639.502 2.2527 0.422604 0
M  V30 6725 C 640.502 1.27184 0.983913 0
M  V30 6726 O 641.692 1.51222 0.864723 0
M  V30 6727 C 638.824 3.01356 1.59365 0
M  V30 6728 H 640.017 2.99133 -0.214416 0
M  V30 6729 H 637.57 1.55587 -0.149128 0
M  V30 6730 H 638.305 2.31813 2.26789 0
M  V30 6731 H 638.09 3.73357 1.19779 0
M  V30 6732 H 639.58 3.56571 2.17363 0
M  V30 6733 N 640.017 0.126909 1.57088 0
M  V30 6734 C 641.266 -0.529024 1.94639 0
M  V30 6735 C 641.579 -1.67323 1.01304 0
M  V30 6736 O 642.785 -2.39245 1.28352 0
M  V30 6737 C 641.241 -0.992483 3.45945 0
M  V30 6738 C 640.849 0.123691 4.47829 0
M  V30 6739 C 642.593 -1.61934 3.924 0
M  V30 6740 C 640.5 -0.356911 5.90322 0
M  V30 6741 H 639.43 -0.201397 0.726605 0
M  V30 6742 H 642.081 0.208032 1.82317 0
M  V30 6743 H 640.463 -1.7842 3.53528 0
M  V30 6744 H 641.637 0.900168 4.51922 0
M  V30 6745 H 639.952 0.657699 4.11173 0
M  V30 6746 H 642.549 -1.9902 4.96281 0
M  V30 6747 H 642.892 -2.50075 3.32819 0
M  V30 6748 H 643.425 -0.892894 3.8765 0
M  V30 6749 H 640.164 0.488636 6.53676 0
M  V30 6750 H 639.684 -1.0997 5.89633 0
M  V30 6751 H 641.363 -0.815547 6.41839 0
M  V30 6752 N 641.495 -1.56914 -0.146875 0
M  V30 6753 C 642.405 -2.0154 -1.20079 0
M  V30 6754 C 643.421 -0.930838 -1.47008 0
M  V30 6755 O 644.597 -1.24032 -1.58676 0
M  V30 6756 C 641.662 -2.38715 -2.51428 0
M  V30 6757 C 640.723 -3.6112 -2.32145 0
M  V30 6758 C 639.956 -3.96512 -3.57231 0
M  V30 6759 O 640.179 -3.32566 -4.63418 0
M  V30 6760 O 639.113 -4.89758 -3.49887 0
M  V30 6761 H 642.939 -2.91506 -0.851924 0
M  V30 6762 H 640.524 -1.45106 -0.355607 0
M  V30 6763 H 642.406 -2.63485 -3.28867 0
M  V30 6764 H 641.081 -1.51903 -2.85845 0
M  V30 6765 H 639.988 -3.41536 -1.52656 0
M  V30 6766 H 641.321 -4.48549 -2.02644 0
M  V30 6767 N 642.974 0.416227 -1.52004 0
M  V30 6768 C 643.907 1.52736 -1.6955 0
M  V30 6769 C 644.885 1.53264 -0.54305 0
M  V30 6770 O 646.069 1.72077 -0.769527 0
M  V30 6771 C 643.196 2.91283 -1.72835 0
M  V30 6772 C 642.242 3.08695 -2.94295 0
M  V30 6773 S 643.075 2.82758 -4.54762 0
M  V30 6774 C 644.231 4.23548 -4.60823 0
M  V30 6775 H 644.464 1.37623 -2.63528 0
M  V30 6776 H 641.997 0.607335 -1.41954 0
M  V30 6777 H 643.955 3.71134 -1.75413 0
M  V30 6778 H 642.616 3.03742 -0.799966 0
M  V30 6779 H 641.809 4.10042 -2.93056 0
M  V30 6780 H 641.411 2.36699 -2.89568 0
M  V30 6781 H 643.703 5.17078 -4.37763 0
M  V30 6782 H 644.646 4.29813 -5.62731 0
M  V30 6783 H 645.054 4.08188 -3.89927 0
M  V30 6784 N 644.452 1.42507 0.673017 0
M  V30 6785 C 645.698 1.43284 1.43519 0
M  V30 6786 C 646.031 0.049668 1.94136 0
M  V30 6787 O 645.306 -0.926369 1.71022 0
M  V30 6788 C 645.589 2.45874 2.63093 0
M  V30 6789 C 645.442 3.93388 2.18096 0
M  V30 6790 C 646.761 2.45431 3.6531 0
M  V30 6791 H 643.88 0.521752 0.520522 0
M  V30 6792 H 646.522 1.73932 0.764701 0
M  V30 6793 H 644.672 2.19869 3.20296 0
M  V30 6794 H 646.344 4.30379 1.66046 0
M  V30 6795 H 644.587 4.07169 1.49652 0
M  V30 6796 H 645.258 4.60752 3.03993 0
M  V30 6797 H 647.734 2.68561 3.17827 0
M  V30 6798 H 646.61 3.19189 4.46553 0
M  V30 6799 H 646.871 1.48092 4.16559 0
M  V30 6800 N 645.93 -0.909495 1.28709 0
M  V30 6801 C 646.84 -2.04558 1.14861 0
M  V30 6802 C 647.856 -1.73842 0.0741621 0
M  V30 6803 O 649.032 -1.99383 0.2843 0
M  V30 6804 C 646.097 -3.36957 0.816148 0
M  V30 6805 C 645.158 -3.81255 1.97341 0
M  V30 6806 C 644.391 -5.07335 1.65671 0
M  V30 6807 O 644.614 -5.67514 0.573053 0
M  V30 6808 O 643.548 -5.47449 2.50167 0
M  V30 6809 H 647.374 -2.19161 2.10243 0
M  V30 6810 H 644.959 -1.03159 1.08068 0
M  V30 6811 H 646.841 -4.16436 0.644873 0
M  V30 6812 H 645.516 -3.2352 -0.107983 0
M  V30 6813 H 644.423 -3.02584 2.19986 0
M  V30 6814 H 645.756 -3.99261 2.87839 0
M  V30 6815 N 647.408 -1.11026 -1.11852 0
M  V30 6816 C 648.656 -0.854769 -1.83134 0
M  V30 6817 C 648.977 0.621375 -1.84835 0
M  V30 6818 O 648.247 1.45129 -1.31584 0
M  V30 6819 H 646.827 -0.313229 -0.678157 0
M  V30 6820 H 649.489 -1.40178 -1.35411 0
M  V30 6821 H 648.585 -1.22311 -2.87135 0
M  V30 6822 N 648.886 1.2938 -0.899927 0
M  V30 6823 C 649.796 2.31462 -0.382437 0
M  V30 6824 C 650.812 1.65956 0.522929 0
M  V30 6825 O 651.988 1.97131 0.412454 0
M  V30 6826 C 649.053 3.44595 0.381472 0
M  V30 6827 C 648.114 4.25692 -0.555444 0
M  V30 6828 C 647.347 5.33422 0.172102 0
M  V30 6829 O 647.57 5.53053 1.396 0
M  V30 6830 O 646.504 5.99939 -0.485491 0
M  V30 6831 H 650.33 2.77706 -1.22934 0
M  V30 6832 H 647.915 1.33821 -0.664259 0
M  V30 6833 H 649.797 4.13474 0.813442 0
M  V30 6834 H 648.472 3.00458 1.20443 0
M  V30 6835 H 647.379 3.59453 -1.03653 0
M  V30 6836 H 648.712 4.73471 -1.34483 0
M  V30 6837 N 650.364 0.662433 1.43002 0
M  V30 6838 C 651.775 0.258315 1.84904 0
M  V30 6839 C 652.126 -1.19703 1.55453 0
M  V30 6840 O 651.251 -1.91484 1.00811 0
M  V30 6841 C 651.846 0.462047 3.35635 0
M  V30 6842 C 650.405 0.112165 3.76233 0
M  V30 6843 C 649.552 0.760479 2.66668 0
M  V30 6844 H 652.503 0.865467 1.33024 0
M  V30 6845 H 652.524 -0.289646 3.79396 0
M  V30 6846 H 652.036 1.52135 3.57039 0
M  V30 6847 H 650.137 -0.944179 3.60439 0
M  V30 6848 H 650.25 0.544058 4.76001 0
M  V30 6849 H 648.614 0.192887 2.53969 0
M  V30 6850 H 649.397 1.82299 2.90898 0
M  V30 6851 N 651.842 -1.52309 0.404946 0
M  V30 6852 C 653.253 -1.86585 -0.0655926 0
M  V30 6853 C 653.604 -1.3239 -1.44801 0
M  V30 6854 O 652.729 -0.6615 -2.06042 0
M  V30 6855 C 653.324 -3.38566 -0.125801 0
M  V30 6856 C 651.883 -3.72497 -0.540666 0
M  V30 6857 C 651.03 -2.75806 0.287487 0
M  V30 6858 H 653.981 -1.45995 0.622185 0
M  V30 6859 H 654.002 -3.68658 -0.941888 0
M  V30 6860 H 653.514 -3.77981 0.880473 0
M  V30 6861 H 651.615 -3.38659 -1.55373 0
M  V30 6862 H 651.728 -4.78234 -0.287956 0
M  V30 6863 H 650.092 -2.53474 -0.249561 0
M  V30 6864 H 650.875 -3.18059 1.29203 0
M  V30 6865 N 653.32 -0.135238 -1.57019 0
M  V30 6866 C 654.55 0.525303 -1.9981 0
M  V30 6867 C 654.958 1.59724 -1.01415 0
M  V30 6868 O 654.301 1.837 -0.00130938 0
M  V30 6869 C 654.363 1.19578 -3.3903 0
M  V30 6870 C 654.027 0.269855 -4.56203 0
M  V30 6871 C 655.024 -0.497905 -5.1751 0
M  V30 6872 C 652.709 0.176188 -5.01991 0
M  V30 6873 C 654.703 -1.3469 -6.23007 0
M  V30 6874 C 652.39 -0.676422 -6.07345 0
M  V30 6875 C 653.388 -1.43658 -6.67721 0
M  V30 6876 O 653.076 -2.27501 -7.71037 0
M  V30 6877 H 652.808 0.142296 -0.660854 0
M  V30 6878 H 655.362 -0.223272 -2.04183 0
M  V30 6879 H 653.592 1.99176 -3.3146 0
M  V30 6880 H 655.281 1.75486 -3.66005 0
M  V30 6881 H 656.047 -0.435507 -4.83041 0
M  V30 6882 H 651.926 0.757583 -4.54733 0
M  V30 6883 H 655.47 -1.9407 -6.70062 0
M  V30 6884 H 651.367 -0.740154 -6.41243 0
M  V30 6885 H 652.135 -2.20619 -7.88206 0
M  V30 6886 N 654.798 1.5699 0.138552 0
M  V30 6887 C 655.728 2.01933 1.17241 0
M  V30 6888 C 656.709 0.90033 1.44319 0
M  V30 6889 O 657.894 1.16872 1.55095 0
M  V30 6890 C 655.024 2.40711 2.50351 0
M  V30 6891 C 653.978 3.55874 2.37776 0
M  V30 6892 C 653.304 3.80491 3.75674 0
M  V30 6893 C 654.604 4.8826 1.85472 0
M  V30 6894 H 656.298 2.88551 0.798672 0
M  V30 6895 H 653.844 1.3882 0.382743 0
M  V30 6896 H 655.797 2.70754 3.22909 0
M  V30 6897 H 654.521 1.5104 2.89576 0
M  V30 6898 H 653.18 3.2601 1.67669 0
M  V30 6899 H 652.828 2.88057 4.12349 0
M  V30 6900 H 652.528 4.57998 3.68119 0
M  V30 6901 H 654.052 4.12967 4.49767 0
M  V30 6902 H 655.466 5.16965 2.4783 0
M  V30 6903 H 653.863 5.69631 1.88787 0
M  V30 6904 H 654.933 4.78071 0.810935 0
M  V30 6905 N 656.276 -0.40816 1.52223 0
M  V30 6906 C 657.224 -1.51788 1.76248 0
M  V30 6907 C 658.218 -1.57264 0.629638 0
M  V30 6908 O 659.424 -1.60659 0.811704 0
M  V30 6909 H 655.799 -0.504823 0.557367 0
M  V30 6910 H 657.77 -1.2871 2.69214 0
M  V30 6911 C 656.519 -2.89145 1.93107 0
M  V30 6912 H 655.842 -2.85674 2.79697 0
M  V30 6913 H 657.282 -3.66082 2.13916 0
M  V30 6914 C 655.741 -3.29581 0.698431 0
M  V30 6915 O 656.271 -4.01479 -0.133238 0
M  V30 6916 N 654.477 -2.85651 0.53405 0
M  V30 6917 H 654.024 -2.2731 1.21194 0
M  V30 6918 H 653.982 -3.13065 -0.289387 0
M  V30 6919 N 657.755 -1.42862 -0.66545 0
M  V30 6920 C 658.665 -1.49491 -1.80803 0
M  V30 6921 C 659.681 -0.382914 -1.69734 0
M  V30 6922 O 660.857 -0.635223 -1.9112 0
M  V30 6923 C 657.922 -1.40383 -3.17007 0
M  V30 6924 C 656.983 -2.62152 -3.39963 0
M  V30 6925 C 656.216 -2.53469 -4.69669 0
M  V30 6926 O 656.439 -1.57568 -5.48205 0
M  V30 6927 O 655.373 -3.43763 -4.94075 0
M  V30 6928 H 659.199 -2.45949 -1.78165 0
M  V30 6929 H 656.784 -1.24728 -0.822387 0
M  V30 6930 H 658.666 -1.377 -3.98267 0
M  V30 6931 H 657.341 -0.470546 -3.20262 0
M  V30 6932 H 656.248 -2.70409 -2.58515 0
M  V30 6933 H 657.581 -3.54411 -3.41546 0
M  V30 6934 N 659.233 0.902656 -1.29189 0
M  V30 6935 C 660.181 2.0278 -1.13943 0
M  V30 6936 C 661.175 1.69308 -0.055787 0
M  V30 6937 O 662.381 1.78707 -0.215371 0
M  V30 6938 H 658.756 0.664595 -0.351877 0
M  V30 6939 H 660.727 2.12778 -2.09208 0
M  V30 6940 C 659.476 3.37657 -0.82966 0
M  V30 6941 H 658.799 3.63913 -1.65551 0
M  V30 6942 H 660.239 4.17078 -0.762998 0
M  V30 6943 C 658.698 3.33648 0.466991 0
M  V30 6944 O 659.228 3.72886 1.49395 0
M  V30 6945 N 657.434 2.86745 0.471761 0
M  V30 6946 H 656.981 2.55009 -0.364406 0
M  V30 6947 H 656.939 2.84446 1.33933 0
M  V30 6948 N 660.711 1.11618 1.11262 0
M  V30 6949 C 662.122 0.881942 1.64556 0
M  V30 6950 C 662.473 -0.585442 1.87262 0
M  V30 6951 O 661.598 -1.44795 1.60821 0
M  V30 6952 C 662.193 1.59446 2.98935 0
M  V30 6953 C 660.752 1.40661 3.4913 0
M  V30 6954 C 659.899 1.63593 2.23903 0
M  V30 6955 H 662.85 1.27217 0.94877 0
M  V30 6956 H 662.871 1.04054 3.65996 0
M  V30 6957 H 662.383 2.66241 2.82378 0
M  V30 6958 H 660.484 0.360835 3.70849 0
M  V30 6959 H 660.597 2.15693 4.27801 0
M  V30 6960 H 658.961 1.05944 2.3162 0
M  V30 6961 H 659.744 2.71666 2.09886 0
M  V30 6962 N 662.189 -1.289 0.906776 0
M  V30 6963 C 663.119 -2.29932 0.406659 0
M  V30 6964 C 664.1 -1.6189 -0.522061 0
M  V30 6965 O 665.285 -1.8935 -0.431283 0
M  V30 6966 C 662.415 -3.45425 -0.360366 0
M  V30 6967 C 661.369 -4.25316 0.478574 0
M  V30 6968 C 660.695 -5.33076 -0.416373 0
M  V30 6969 C 661.995 -4.92739 1.7322 0
M  V30 6970 H 663.689 -2.72013 1.25097 0
M  V30 6971 H 661.235 -1.30768 0.602977 0
M  V30 6972 H 663.188 -4.15186 -0.721029 0
M  V30 6973 H 661.912 -3.02206 -1.23852 0
M  V30 6974 H 660.571 -3.57273 0.821662 0
M  V30 6975 H 660.219 -4.86101 -1.29287 0
M  V30 6976 H 659.919 -5.8743 0.141309 0
M  V30 6977 H 661.443 -6.05686 -0.773072 0
M  V30 6978 H 662.857 -5.54898 1.44086 0
M  V30 6979 H 661.254 -5.57057 2.23175 0
M  V30 6980 H 662.324 -4.17625 2.46408 0
M  V30 6981 N 663.667 -0.670007 -1.42649 0
M  V30 6982 C 665.083 -0.33911 -1.55956 0
M  V30 6983 C 665.283 1.1558 -1.65056 0
M  V30 6984 O 664.339 1.94111 -1.61485 0
M  V30 6985 C 665.652 -1.06522 -2.812 0
M  V30 6986 C 667.2 -1.04708 -2.94966 0
M  V30 6987 C 667.675 -1.75442 -4.23065 0
M  V30 6988 N 669.166 -1.72286 -4.29967 0
M  V30 6989 C 669.901 -2.23877 -5.27889 0
M  V30 6990 N 669.397 -2.83829 -6.31991 0
M  V30 6991 N 671.19 -2.14279 -5.19654 0
M  V30 6992 H 663.341 -1.6399 -1.34986 0
M  V30 6993 H 665.604 -0.690603 -0.649439 0
M  V30 6994 H 665.31 -2.12033 -2.80597 0
M  V30 6995 H 665.184 -0.627398 -3.71946 0
M  V30 6996 H 667.571 -0.000315966 -2.951 0
M  V30 6997 H 667.652 -1.52374 -2.05465 0
M  V30 6998 H 667.296 -2.80084 -4.23693 0
M  V30 6999 H 667.226 -1.25229 -5.11493 0
M  V30 7000 H 669.717 -1.28554 -3.55362 0
M  V30 7001 H 670.03 -3.20827 -7.03057 0
M  V30 7002 H 668.375 -2.87896 -6.32567 0
M  V30 7003 H 671.566 -1.67135 -4.37245 0
M  V30 7004 H 671.739 -2.54792 -5.95806 0
M  V30 7005 N 665.145 1.52092 -0.413018 0
M  V30 7006 C 666.108 2.25706 0.398687 0
M  V30 7007 C 667.108 1.28221 0.970368 0
M  V30 7008 O 668.298 1.52131 0.848635 0
M  V30 7009 C 665.43 3.03029 1.5616 0
M  V30 7010 H 666.623 2.98888 -0.246131 0
M  V30 7011 H 664.176 1.5542 -0.165622 0
M  V30 7012 H 664.911 2.34205 2.24317 0
M  V30 7013 H 664.696 3.74606 1.15812 0
M  V30 7014 H 666.186 3.58857 2.13569 0
M  V30 7015 N 666.623 0.143563 1.56945 0
M  V30 7016 C 667.553 -0.7936 2.196 0
M  V30 7017 C 668.534 -1.25955 1.14321 0
M  V30 7018 O 669.719 -1.31773 1.42651 0
M  V30 7019 C 666.849 -2.03424 2.81489 0
M  V30 7020 C 665.803 -1.70519 3.92565 0
M  V30 7021 C 665.129 -3.01817 4.41373 0
M  V30 7022 C 666.429 -0.95449 5.13504 0
M  V30 7023 H 668.123 -0.271423 2.98167 0
M  V30 7024 H 665.669 -0.12911 1.4342 0
M  V30 7025 H 667.622 -2.69463 3.23987 0
M  V30 7026 H 666.346 -2.58008 2.00248 0
M  V30 7027 H 665.005 -1.06859 3.5068 0
M  V30 7028 H 664.653 -3.54386 3.56959 0
M  V30 7029 H 664.353 -2.80565 5.16292 0
M  V30 7030 H 665.877 -3.68934 4.86539 0
M  V30 7031 H 667.291 -1.5169 5.52868 0
M  V30 7032 H 665.688 -0.842035 5.94163 0
M  V30 7033 H 666.758 0.0544033 4.84869 0
M  V30 7034 N 668.101 -1.57061 -0.130224 0
M  V30 7035 C 669.331 -1.88159 -0.853217 0
M  V30 7036 C 669.739 -0.731675 -1.7448 0
M  V30 7037 O 669.082 0.307035 -1.81116 0
M  V30 7038 C 669.144 -3.1415 -1.74785 0
M  V30 7039 C 668.808 -4.45202 -1.03173 0
M  V30 7040 C 669.805 -5.18526 -0.377759 0
M  V30 7041 C 667.49 -4.91912 -1.01624 0
M  V30 7042 C 669.484 -6.36775 0.282123 0
M  V30 7043 C 667.171 -6.10082 -0.352555 0
M  V30 7044 C 668.169 -6.82361 0.295483 0
M  V30 7045 O 667.857 -7.98284 0.948606 0
M  V30 7046 H 667.589 -0.627596 -0.251197 0
M  V30 7047 H 670.143 -2.05034 -0.1226 0
M  V30 7048 H 668.373 -2.93328 -2.51983 0
M  V30 7049 H 670.062 -3.31359 -2.34427 0
M  V30 7050 H 670.828 -4.83498 -0.381417 0
M  V30 7051 H 666.707 -4.35566 -1.51007 0
M  V30 7052 H 670.251 -6.93129 0.788525 0
M  V30 7053 H 666.148 -6.44569 -0.346621 0
M  V30 7054 H 666.916 -8.14054 0.851954 0
M  V30 7055 N 669.579 0.400081 -1.52437 0
M  V30 7056 C 670.509 1.4947 -1.7939 0
M  V30 7057 C 671.49 1.57383 -0.645329 0
M  V30 7058 O 672.675 1.72511 -0.891826 0
M  V30 7059 C 669.805 2.87201 -1.95276 0
M  V30 7060 C 668.759 2.94134 -3.10917 0
M  V30 7061 C 668.085 4.34207 -3.1204 0
M  V30 7062 C 669.385 2.64791 -4.50203 0
M  V30 7063 H 671.079 1.27165 -2.71052 0
M  V30 7064 H 668.625 0.610312 -1.30427 0
M  V30 7065 H 670.578 3.63772 -2.12715 0
M  V30 7066 H 669.302 3.10819 -1.00294 0
M  V30 7067 H 667.961 2.20009 -2.93243 0
M  V30 7068 H 667.609 4.54848 -2.14761 0
M  V30 7069 H 667.309 4.39768 -3.89715 0
M  V30 7070 H 668.833 5.127 -3.31619 0
M  V30 7071 H 670.247 3.31083 -4.68035 0
M  V30 7072 H 668.644 2.81717 -5.29864 0
M  V30 7073 H 669.714 1.60184 -4.57678 0
M  V30 7074 N 671.057 1.43213 0.657864 0
M  V30 7075 C 672.306 1.43871 1.41365 0
M  V30 7076 C 672.619 0.064898 1.95492 0
M  V30 7077 O 673.825 -0.0510796 2.71452 0
M  V30 7078 C 672.281 2.53158 2.55811 0
M  V30 7079 C 671.889 3.96624 2.08311 0
M  V30 7080 C 673.633 2.63004 3.3321 0
M  V30 7081 C 671.54 4.97385 3.1994 0
M  V30 7082 H 670.47 0.535174 0.531136 0
M  V30 7083 H 673.121 1.69185 0.710543 0
M  V30 7084 H 671.503 2.21037 3.2857 0
M  V30 7085 H 672.677 4.38182 1.42593 0
M  V30 7086 H 670.992 3.90781 1.43804 0
M  V30 7087 H 673.589 3.3546 4.16378 0
M  V30 7088 H 673.932 1.67918 3.80932 0
M  V30 7089 H 674.465 2.94403 2.67529 0
M  V30 7090 H 671.204 5.94007 2.77192 0
M  V30 7091 H 670.724 4.60444 3.84385 0
M  V30 7092 H 672.403 5.19877 3.85145 0
M  V30 7093 N 672.536 -0.895792 1.29666 0
M  V30 7094 C 673.499 -1.98189 1.15124 0
M  V30 7095 C 674.499 -1.60572 0.0855717 0
M  V30 7096 O 675.689 -1.70991 0.332826 0
M  V30 7097 C 672.821 -3.32289 0.761372 0
M  V30 7098 H 674.014 -2.12518 2.11603 0
M  V30 7099 H 671.567 -1.0808 1.12908 0
M  V30 7100 H 672.302 -3.23662 -0.203393 0
M  V30 7101 H 672.087 -3.60958 1.53139 0
M  V30 7102 H 673.577 -4.1198 0.682792 0
M  V30 7103 N 674.014 -1.12206 -1.10668 0
M  V30 7104 C 675.242 -0.898635 -1.86366 0
M  V30 7105 C 675.657 0.551991 -1.80551 0
M  V30 7106 O 675.014 1.38152 -1.19249 0
M  V30 7107 C 675.065 -1.36199 -3.34861 0
M  V30 7108 O 674.786 -2.75576 -3.40573 0
M  V30 7109 C 676.287 -1.17515 -4.2744 0
M  V30 7110 H 673.507 -0.321281 -0.589084 0
M  V30 7111 H 676.051 -1.49142 -1.39918 0
M  V30 7112 H 674.206 -0.81249 -3.78784 0
M  V30 7113 H 674.62 -2.95851 -4.33096 0
M  V30 7114 H 676.094 -1.54827 -5.29842 0
M  V30 7115 H 676.571 -0.115486 -4.39048 0
M  V30 7116 H 677.177 -1.71203 -3.89319 0
M  V30 7117 N 675.492 1.28418 -0.913599 0
M  V30 7118 C 676.44 2.29272 -0.392037 0
M  V30 7119 C 677.434 1.61344 0.516198 0
M  V30 7120 O 678.64 1.75557 0.39746 0
M  V30 7121 H 675.015 0.744178 -0.108178 0
M  V30 7122 H 676.986 2.70691 -1.25574 0
M  V30 7123 C 675.735 3.45905 0.352815 0
M  V30 7124 H 675.058 3.98378 -0.336848 0
M  V30 7125 H 676.498 4.18473 0.682398 0
M  V30 7126 C 674.957 2.98572 1.56065 0
M  V30 7127 O 675.487 3.01033 2.65974 0
M  V30 7128 N 673.693 2.54235 1.40759 0
M  V30 7129 H 673.24 2.52432 0.513403 0
M  V30 7130 H 673.198 2.22925 2.21702 0
M  V30 7131 N 676.97 0.677563 1.42291 0
M  V30 7132 C 678.218 0.200578 2.01102 0
M  V30 7133 C 678.539 -1.19803 1.53858 0
M  V30 7134 O 677.809 -1.80496 0.761439 0
M  V30 7135 H 676.389 0.0711634 0.743603 0
M  V30 7136 H 679.051 0.874691 1.7417 0
M  V30 7137 H 678.147 0.204 3.11433 0
M  V30 7138 N 678.448 -1.51871 0.421078 0
M  V30 7139 C 679.676 -2.06356 -0.14994 0
M  V30 7140 C 680.091 -1.29006 -1.37851 0
M  V30 7141 O 679.448 -0.345139 -1.79207 0
M  V30 7142 C 679.499 -3.58185 -0.488454 0
M  V30 7143 O 679.22 -4.32611 0.691341 0
M  V30 7144 C 680.721 -4.29129 -1.11191 0
M  V30 7145 H 677.941 -0.67083 -0.0151186 0
M  V30 7146 H 680.485 -1.95638 0.595476 0
M  V30 7147 H 678.64 -3.68871 -1.18376 0
M  V30 7148 H 679.054 -5.22927 0.405906 0
M  V30 7149 H 680.528 -5.36501 -1.29889 0
M  V30 7150 H 681.005 -3.86371 -2.0884 0
M  V30 7151 H 681.611 -4.22843 -0.456458 0
M  V30 7152 N 679.926 -0.151884 -1.56866 0
M  V30 7153 C 681.337 0.368128 -1.83035 0
M  V30 7154 C 681.688 1.64402 -1.07082 0
M  V30 7155 O 680.813 2.14056 -0.317647 0
M  V30 7156 C 681.408 0.674676 -3.32014 0
M  V30 7157 C 679.967 1.13919 -3.58747 0
M  V30 7158 C 679.114 0.164833 -2.7681 0
M  V30 7159 H 682.065 -0.376499 -1.54169 0
M  V30 7160 H 682.086 1.52883 -3.48435 0
M  V30 7161 H 681.598 -0.254113 -3.87267 0
M  V30 7162 H 679.699 2.08375 -3.08886 0
M  V30 7163 H 679.812 1.06179 -4.67186 0
M  V30 7164 H 678.176 0.658419 -2.46043 0
M  V30 7165 H 678.959 -0.757633 -3.34836 0
M  V30 7166 N 681.404 1.57128 0.121893 0
M  V30 7167 C 682.314 2.03425 1.16857 0
M  V30 7168 C 683.33 0.954108 1.45509 0
M  V30 7169 O 684.506 1.26541 1.56682 0
M  V30 7170 C 681.571 2.42685 2.47599 0
M  V30 7171 C 680.632 3.64767 2.2637 0
M  V30 7172 C 679.865 4.02145 3.50878 0
M  V30 7173 O 680.088 3.39897 4.58068 0
M  V30 7174 O 679.022 4.95262 3.42051 0
M  V30 7175 H 682.848 2.92825 0.80544 0
M  V30 7176 H 680.433 1.45654 0.332477 0
M  V30 7177 H 682.315 2.68684 3.24634 0
M  V30 7178 H 680.99 1.56432 2.83392 0
M  V30 7179 H 679.897 3.43922 1.47203 0
M  V30 7180 H 681.23 4.51716 1.95482 0
M  V30 7181 N 682.882 -0.391992 1.52647 0
M  V30 7182 C 683.812 -1.48517 1.8018 0
M  V30 7183 C 684.793 -1.57039 0.653667 0
M  V30 7184 O 685.978 -1.72036 0.900962 0
M  V30 7185 C 683.108 -2.86161 1.96797 0
M  V30 7186 C 682.062 -2.92481 3.12472 0
M  V30 7187 C 681.388 -4.32546 3.14338 0
M  V30 7188 C 682.688 -2.624 4.51601 0
M  V30 7189 H 684.382 -1.25726 2.71723 0
M  V30 7190 H 681.928 -0.603387 1.30749 0
M  V30 7191 H 683.881 -3.62639 2.14641 0
M  V30 7192 H 682.605 -3.10283 1.01941 0
M  V30 7193 H 681.264 -2.18451 2.94406 0
M  V30 7194 H 680.912 -4.53703 2.1717 0
M  V30 7195 H 680.612 -4.37695 3.92042 0
M  V30 7196 H 682.136 -5.10934 3.34333 0
M  V30 7197 H 683.55 -3.28596 4.69785 0
M  V30 7198 H 681.947 -2.78903 5.3135 0
M  V30 7199 H 683.017 -1.57754 4.58521 0
M  V30 7200 N 684.36 -1.4356 -0.65026 0
M  V30 7201 C 685.292 -1.44918 -1.77571 0
M  V30 7202 C 686.305 -0.344925 -1.59104 0
M  V30 7203 O 687.494 -0.609537 -1.6777 0
M  V30 7204 C 684.594 -1.24914 -3.15039 0
M  V30 7205 C 683.767 -2.48232 -3.60138 0
M  V30 7206 C 682.826 -2.23409 -4.76419 0
M  V30 7207 O 681.852 -2.9678 -4.85706 0
M  V30 7208 N 683.054 -1.25259 -5.66825 0
M  V30 7209 H 685.819 -2.41935 -1.76883 0
M  V30 7210 H 683.38 -1.38754 -0.834202 0
M  V30 7211 H 685.372 -1.06185 -3.90521 0
M  V30 7212 H 683.942 -0.363319 -3.10481 0
M  V30 7213 H 683.162 -2.82366 -2.75069 0
M  V30 7214 H 684.45 -3.30296 -3.87017 0
M  V30 7215 H 683.848 -0.646246 -5.61997 0
M  V30 7216 H 682.405 -1.12513 -6.42016 0
M  V30 7217 N 685.838 0.888903 -1.30139 0
M  V30 7218 C 686.786 2.0156 -1.16088 0
M  V30 7219 C 687.78 1.69239 -0.0737413 0
M  V30 7220 O 688.986 1.78468 -0.234313 0
M  V30 7221 H 685.361 0.660825 -0.358907 0
M  V30 7222 H 687.332 2.10547 -2.11453 0
M  V30 7223 C 686.081 3.36758 -0.865426 0
M  V30 7224 H 685.404 3.62137 -1.69402 0
M  V30 7225 H 686.844 4.16246 -0.807192 0
M  V30 7226 C 685.303 3.34124 0.431577 0
M  V30 7227 O 685.833 3.7445 1.45431 0
M  V30 7228 N 684.039 2.87229 0.441321 0
M  V30 7229 H 683.586 2.54609 -0.391433 0
M  V30 7230 H 683.544 2.8585 1.30909 0
M  V30 7231 N 687.317 1.12792 1.10072 0
M  V30 7232 C 688.728 0.899346 1.63611 0
M  V30 7233 C 689.079 -0.565547 1.87872 0
M  V30 7234 O 688.204 -1.43081 1.62348 0
M  V30 7235 C 688.799 1.62608 2.97227 0
M  V30 7236 C 687.358 1.44356 3.47618 0
M  V30 7237 C 686.505 1.65958 2.22156 0
M  V30 7238 H 689.456 1.28216 0.935223 0
M  V30 7239 H 689.477 1.0793 3.64872 0
M  V30 7240 H 688.989 2.69221 2.79538 0
M  V30 7241 H 687.09 0.400148 3.70445 0
M  V30 7242 H 687.203 2.20218 4.25489 0
M  V30 7243 H 685.567 1.08395 2.30484 0
M  V30 7244 H 686.35 2.73877 2.06993 0
M  V30 7245 N 688.795 -1.27931 0.920396 0
M  V30 7246 C 689.705 -2.30824 0.419212 0
M  V30 7247 C 690.721 -1.66767 -0.496461 0
M  V30 7248 O 691.897 -1.97763 -0.38104 0
M  V30 7249 C 688.962 -3.45158 -0.326601 0
M  V30 7250 C 688.023 -4.24754 0.623098 0
M  V30 7251 C 687.256 -5.33629 -0.0872172 0
M  V30 7252 O 687.479 -5.55204 -1.30784 0
M  V30 7253 O 686.413 -5.99091 0.580875 0
M  V30 7254 H 690.239 -2.75716 1.27337 0
M  V30 7255 H 687.824 -1.32747 0.685465 0
M  V30 7256 H 689.706 -4.14716 -0.747559 0
M  V30 7257 H 688.381 -3.02336 -1.15648 0
M  V30 7258 H 687.288 -3.57759 1.09359 0
M  V30 7259 H 688.621 -4.71272 1.41998 0
M  V30 7260 N 690.273 -0.685099 -1.4193 0
M  V30 7261 C 691.22 -0.0131869 -2.30796 0
M  V30 7262 C 692.19 0.782129 -1.46533 0
M  V30 7263 O 693.375 0.75229 -1.75343 0
M  V30 7264 C 690.515 0.924768 -3.32479 0
M  V30 7265 C 689.628 0.122181 -4.31827 0
M  V30 7266 C 688.763 1.05682 -5.20581 0
M  V30 7267 C 687.802 0.246526 -6.11603 0
M  V30 7268 N 686.939 1.13442 -6.92875 0
M  V30 7269 H 691.779 -0.776789 -2.87698 0
M  V30 7270 H 689.316 -0.394791 -1.41703 0
M  V30 7271 H 691.274 1.48251 -3.89971 0
M  V30 7272 H 689.904 1.65488 -2.77152 0
M  V30 7273 H 688.956 -0.552335 -3.76369 0
M  V30 7274 H 690.268 -0.506473 -4.96222 0
M  V30 7275 H 689.422 1.68415 -5.82856 0
M  V30 7276 H 688.161 1.71935 -4.56388 0
M  V30 7277 H 687.166 -0.393944 -5.48387 0
M  V30 7278 H 688.391 -0.412053 -6.77849 0
M  V30 7279 H 686.337 1.78316 -6.313 0
M  V30 7280 H 686.254 0.561089 -7.53915 0
M  V30 7281 H 687.522 1.74889 -7.59628 0
M  V30 7282 N 691.751 1.51645 -0.429126 0
M  V30 7283 C 692.681 2.30434 0.377148 0
M  V30 7284 C 693.662 1.35493 1.02838 0
M  V30 7285 O 694.847 1.6441 1.03359 0
M  V30 7286 C 691.977 3.14038 1.48315 0
M  V30 7287 C 690.931 4.1719 0.955855 0
M  V30 7288 C 690.257 4.89263 2.15698 0
M  V30 7289 C 691.557 5.223 -0.00402136 0
M  V30 7290 H 693.251 2.98085 -0.280336 0
M  V30 7291 H 690.797 1.43354 -0.136265 0
M  V30 7292 H 692.75 3.67933 2.05435 0
M  V30 7293 H 691.474 2.44193 2.16881 0
M  V30 7294 H 690.133 3.64335 0.406929 0
M  V30 7295 H 689.781 4.15929 2.82864 0
M  V30 7296 H 689.481 5.59009 1.81059 0
M  V30 7297 H 691.005 5.45978 2.73387 0
M  V30 7298 H 692.419 5.71315 0.476607 0
M  V30 7299 H 690.816 5.99525 -0.26258 0
M  V30 7300 H 691.886 4.75638 -0.943236 0
M  V30 7301 N 693.229 0.160201 1.56784 0
M  V30 7302 C 694.454 -0.497373 2.01348 0
M  V30 7303 C 694.879 -1.56757 1.03966 0
M  V30 7304 O 694.237 -1.81292 0.0174455 0
M  V30 7305 C 694.285 -1.0628 3.44582 0
M  V30 7306 O 693.389 -2.17723 3.50244 0
M  V30 7307 H 692.73 -0.120295 0.653012 0
M  V30 7308 H 695.26 0.260821 2.02931 0
M  V30 7309 H 695.27 -1.38819 3.83658 0
M  V30 7310 H 693.945 -0.279166 4.14962 0
M  V30 7311 H 692.522 -1.86313 3.2302 0
M  V30 7312 N 694.707 -1.5719 -0.113559 0
M  V30 7313 C 696.118 -1.74259 -0.670116 0
M  V30 7314 C 696.469 -0.779694 -1.80042 0
M  V30 7315 O 695.594 0.0461353 -2.16351 0
M  V30 7316 C 696.189 -3.15981 -1.22236 0
M  V30 7317 C 694.748 -3.34537 -1.72516 0
M  V30 7318 C 693.895 -2.70116 -0.627098 0
M  V30 7319 H 696.846 -1.58301 0.112396 0
M  V30 7320 H 696.867 -3.17832 -2.09197 0
M  V30 7321 H 696.379 -3.86038 -0.39949 0
M  V30 7322 H 694.48 -2.6953 -2.57263 0
M  V30 7323 H 694.593 -4.42737 -1.83086 0
M  V30 7324 H 692.957 -2.31501 -1.06204 0
M  V30 7325 H 693.74 -3.42802 0.184889 0
M  V30 7326 N 696.185 0.383891 -1.52853 0
M  V30 7327 C 697.434 1.12563 -1.67369 0
M  V30 7328 C 697.747 1.90982 -0.422533 0
M  V30 7329 O 698.953 2.6778 -0.447914 0
M  V30 7330 C 697.409 2.05011 -2.95801 0
M  V30 7331 C 697.017 1.31991 -4.28115 0
M  V30 7332 C 698.761 2.79289 -3.19684 0
M  V30 7333 C 696.668 2.23235 -5.4765 0
M  V30 7334 H 695.598 0.42391 -0.623552 0
M  V30 7335 H 698.249 0.388016 -1.79351 0
M  V30 7336 H 696.631 2.82429 -2.77578 0
M  V30 7337 H 697.805 0.597633 -4.56908 0
M  V30 7338 H 696.12 0.696517 -4.10533 0
M  V30 7339 H 698.717 3.47749 -4.06171 0
M  V30 7340 H 699.06 3.43649 -2.3497 0
M  V30 7341 H 699.593 2.08962 -3.38496 0
M  V30 7342 H 696.332 1.63482 -6.34786 0
M  V30 7343 H 695.852 2.93364 -5.23161 0
M  V30 7344 H 697.531 2.83205 -5.81725 0
M  V30 7345 N 697.663 1.43903 0.642637 0
M  V30 7346 C 698.91 1.46079 1.40239 0
M  V30 7347 C 699.238 0.0890335 1.94296 0
M  V30 7348 O 698.493 -0.907533 1.73385 0
M  V30 7349 C 698.792 2.45907 2.59354 0
M  V30 7350 C 698.458 3.91522 2.23654 0
M  V30 7351 C 697.12 4.31179 2.1363 0
M  V30 7352 C 699.472 4.83242 1.95261 0
M  V30 7353 C 696.8 5.60495 1.73384 0
M  V30 7354 C 699.152 6.12933 1.56511 0
M  V30 7355 C 697.816 6.51556 1.4502 0
M  V30 7356 H 697.086 0.534542 0.513172 0
M  V30 7357 H 699.733 1.77047 0.72984 0
M  V30 7358 H 698.038 2.08381 3.3179 0
M  V30 7359 H 699.735 2.44842 3.17574 0
M  V30 7360 H 696.325 3.60142 2.32369 0
M  V30 7361 H 700.509 4.53367 2.0192 0
M  V30 7362 H 695.765 5.89249 1.63082 0
M  V30 7363 H 699.939 6.83469 1.33576 0
M  V30 7364 H 697.566 7.51663 1.13606 0
M  V30 7365 N 699.141 -0.881989 1.30609 0
M  V30 7366 C 700.557 -1.16576 1.09005 0
M  V30 7367 C 700.757 -2.00961 -0.14727 0
M  V30 7368 O 699.813 -2.38117 -0.840036 0
M  V30 7369 C 701.126 -1.86954 2.35518 0
M  V30 7370 C 702.674 -1.99706 2.41011 0
M  V30 7371 C 703.149 -2.73497 3.67374 0
M  V30 7372 N 704.64 -2.8104 3.68199 0
M  V30 7373 C 705.375 -3.38718 4.62664 0
M  V30 7374 N 704.871 -3.97421 5.67475 0
M  V30 7375 N 706.664 -3.36561 4.50203 0
M  V30 7376 H 698.815 -0.319398 2.09985 0
M  V30 7377 H 701.078 -0.204058 0.925778 0
M  V30 7378 H 700.784 -1.32393 3.2583 0
M  V30 7379 H 700.658 -2.87317 2.44395 0
M  V30 7380 H 703.045 -2.53436 1.51176 0
M  V30 7381 H 703.126 -0.984218 2.36108 0
M  V30 7382 H 702.77 -2.20438 4.57569 0
M  V30 7383 H 702.7 -3.75163 3.6954 0
M  V30 7384 H 705.191 -2.39365 2.92426 0
M  V30 7385 H 705.504 -4.39507 6.35652 0
M  V30 7386 H 703.849 -3.95832 5.71264 0
M  V30 7387 H 707.04 -2.8993 3.67503 0
M  V30 7388 H 707.213 -3.81215 5.24003 0
M  V30 7389 N 700.619 -1.13374 -1.09472 0
M  V30 7390 C 701.896 -0.806329 -1.78207 0
M  V30 7391 C 702.276 0.702191 -1.99079 0
M  V30 7392 O 701.624 1.63931 -1.59182 0
M  V30 7393 C 701.834 -1.59271 -3.10538 0
M  V30 7394 C 703.182 -1.78509 -3.85253 0
M  V30 7395 O 704.206 -1.55866 -3.20288 0
M  V30 7396 O 703.065 -2.16287 -5.01879 0
M  V30 7397 H 700.159 -0.29435 -0.772843 0
M  V30 7398 H 702.705 -1.23833 -1.16033 0
M  V30 7399 H 701.477 -2.61792 -2.90828 0
M  V30 7400 H 701.1 -1.15562 -3.80436 0
M  V30 7401 N 702.098 1.27442 -0.927168 0
M  V30 7402 C 703.345 1.94391 -0.567324 0
M  V30 7403 C 703.673 1.72875 0.891321 0
M  V30 7404 O 702.928 1.05071 1.65102 0
M  V30 7405 C 703.227 3.47413 -0.838994 0
M  V30 7406 C 702.893 3.89049 -2.2793 0
M  V30 7407 C 701.555 4.00127 -2.67305 0
M  V30 7408 C 703.907 4.10154 -3.21595 0
M  V30 7409 C 701.235 4.29697 -3.99471 0
M  V30 7410 C 703.587 4.41208 -4.53341 0
M  V30 7411 C 702.251 4.50499 -4.92551 0
M  V30 7412 H 701.521 0.711325 -0.207598 0
M  V30 7413 H 704.168 1.51523 -1.17103 0
M  V30 7414 H 702.473 3.91503 -0.152609 0
M  V30 7415 H 704.17 3.97354 -0.53955 0
M  V30 7416 H 700.76 3.80962 -1.96381 0
M  V30 7417 H 704.944 4.01036 -2.92377 0
M  V30 7418 H 700.2 4.35099 -4.29533 0
M  V30 7419 H 704.374 4.56486 -5.25922 0
M  V30 7420 H 702.001 4.73167 -5.94994 0
M  V30 7421 N 703.576 0.692616 1.41565 0
M  V30 7422 C 704.506 0.0397325 2.33466 0
M  V30 7423 C 705.487 -0.770334 1.51657 0
M  V30 7424 O 706.672 -0.723903 1.80203 0
M  V30 7425 C 703.802 -0.899495 3.3545 0
M  V30 7426 C 702.756 -0.196738 4.27548 0
M  V30 7427 C 702.082 -1.25012 5.19881 0
M  V30 7428 C 703.382 0.935158 5.1386 0
M  V30 7429 H 705.076 0.807296 2.88311 0
M  V30 7430 H 702.622 0.389665 1.38628 0
M  V30 7431 H 704.575 -1.36545 3.98665 0
M  V30 7432 H 703.299 -1.69869 2.78948 0
M  V30 7433 H 701.958 0.249158 3.65752 0
M  V30 7434 H 701.606 -2.04177 4.59696 0
M  V30 7435 H 701.306 -0.784931 5.82334 0
M  V30 7436 H 702.83 -1.71665 5.85972 0
M  V30 7437 H 704.244 0.549619 5.70659 0
M  V30 7438 H 702.641 1.32726 5.85238 0
M  V30 7439 H 703.711 1.77613 4.512 0
M  V30 7440 N 705.054 -1.51416 0.437162 0
M  V30 7441 C 706.002 -2.29328 -0.388765 0
M  V30 7442 C 706.996 -1.35171 -1.02104 0
M  V30 7443 O 708.202 -1.52513 -0.956024 0
M  V30 7444 H 704.577 -0.738048 -0.144183 0
M  V30 7445 H 706.548 -2.96995 0.289212 0
M  V30 7446 C 705.297 -3.14741 -1.47761 0
M  V30 7447 H 704.62 -3.8708 -1.00045 0
M  V30 7448 H 706.06 -3.72313 -2.02877 0
M  V30 7449 C 704.519 -2.30105 -2.46076 0
M  V30 7450 O 705.049 -1.96055 -3.50607 0
M  V30 7451 N 703.255 -1.93331 -2.1696 0
M  V30 7452 H 702.802 -2.2122 -1.31983 0
M  V30 7453 H 702.76 -1.36999 -2.82982 0
M  V30 7454 N 706.532 -0.168513 -1.56696 0
M  V30 7455 C 707.948 0.187686 -1.58493 0
M  V30 7456 C 708.148 1.63063 -1.18375 0
M  V30 7457 O 707.204 2.36142 -0.894042 0
M  V30 7458 C 708.517 -0.0905858 -3.00564 0
M  V30 7459 C 710.065 -0.028575 -3.12987 0
M  V30 7460 C 710.54 -0.279799 -4.57145 0
M  V30 7461 N 712.031 -0.227476 -4.62641 0
M  V30 7462 C 712.766 -0.396073 -5.7203 0
M  V30 7463 N 712.262 -0.623572 -6.89988 0
M  V30 7464 N 714.055 -0.332173 -5.61118 0
M  V30 7465 H 706.206 -1.11042 -1.81062 0
M  V30 7466 H 708.469 -0.441235 -0.839056 0
M  V30 7467 H 708.175 -1.09006 -3.34381 0
M  V30 7468 H 708.049 0.619078 -3.72085 0
M  V30 7469 H 710.436 0.961471 -2.78998 0
M  V30 7470 H 710.517 -0.770905 -2.43907 0
M  V30 7471 H 710.161 -1.26704 -4.91842 0
M  V30 7472 H 710.091 0.48311 -5.24379 0
M  V30 7473 H 712.582 -0.0571723 -3.77857 0
M  V30 7474 H 712.895 -0.741745 -7.69232 0
M  V30 7475 H 711.24 -0.660153 -6.91858 0
M  V30 7476 H 714.431 -0.155051 -4.67843 0
M  V30 7477 H 714.604 -0.466994 -6.46315 0
M  V30 7478 N 708.01 1.57248 0.105221 0
M  V30 7479 C 709.25 1.87393 0.816283 0
M  V30 7480 C 709.614 0.758249 1.76393 0
M  V30 7481 O 710.815 0.941835 2.5176 0
M  V30 7482 C 709.086 3.22775 1.53463 0
M  V30 7483 S 710.645 3.74588 2.28537 0
M  V30 7484 H 707.463 0.656847 0.272164 0
M  V30 7485 H 710.065 1.9536 0.073909 0
M  V30 7486 H 708.769 4.01905 0.830674 0
M  V30 7487 H 708.3 3.17921 2.3171 0
M  V30 7488 H 710.315 3.47193 3.54502 0
M  V30 7489 N 709.488 -0.375779 1.53054 0
M  V30 7490 C 710.418 -1.46598 1.81745 0
M  V30 7491 C 711.399 -1.56337 0.670286 0
M  V30 7492 O 712.584 -1.71071 0.919158 0
M  V30 7493 C 709.714 -2.84058 1.99821 0
M  V30 7494 C 708.668 -2.8915 3.15557 0
M  V30 7495 C 707.994 -4.29187 3.18908 0
M  V30 7496 C 709.294 -2.57595 4.54359 0
M  V30 7497 H 710.988 -1.22837 2.73041 0
M  V30 7498 H 708.534 -0.589485 1.31381 0
M  V30 7499 H 710.487 -3.60342 2.18475 0
M  V30 7500 H 709.211 -3.09184 1.05226 0
M  V30 7501 H 707.87 -2.15316 2.96706 0
M  V30 7502 H 707.518 -4.51374 2.2197 0
M  V30 7503 H 707.218 -4.33512 3.96662 0
M  V30 7504 H 708.742 -5.07359 3.39734 0
M  V30 7505 H 710.156 -3.23595 4.73243 0
M  V30 7506 H 708.553 -2.73252 5.34279 0
M  V30 7507 H 709.623 -1.52882 4.60169 0
M  V30 7508 N 710.966 -1.44241 -0.634997 0
M  V30 7509 C 711.876 -1.53293 -1.77591 0
M  V30 7510 C 712.892 -0.418831 -1.68884 0
M  V30 7511 O 714.068 -0.675619 -1.8973 0
M  V30 7512 C 711.133 -1.47075 -3.13958 0
M  V30 7513 C 710.194 -2.69304 -3.34326 0
M  V30 7514 C 709.427 -2.63374 -4.64187 0
M  V30 7515 O 709.65 -1.69161 -5.44739 0
M  V30 7516 O 708.584 -3.54166 -4.86673 0
M  V30 7517 H 712.41 -2.49673 -1.72908 0
M  V30 7518 H 709.995 -1.26445 -0.795745 0
M  V30 7519 H 711.877 -1.46117 -3.95257 0
M  V30 7520 H 710.552 -0.538373 -3.19192 0
M  V30 7521 H 709.459 -2.75831 -2.52721 0
M  V30 7522 H 710.792 -3.61576 -3.33951 0
M  V30 7523 N 712.444 0.87505 -1.31075 0
M  V30 7524 C 713.377 1.98471 -1.12625 0
M  V30 7525 C 714.355 1.6257 -0.0311379 0
M  V30 7526 O 715.539 1.87574 -0.186594 0
M  V30 7527 C 712.666 3.30963 -0.719799 0
M  V30 7528 C 711.712 3.85849 -1.81722 0
M  V30 7529 S 712.545 4.11926 -3.42165 0
M  V30 7530 C 713.701 5.47423 -3.03445 0
M  V30 7531 H 713.934 2.13817 -2.06566 0
M  V30 7532 H 711.467 1.02463 -1.15502 0
M  V30 7533 H 713.425 4.07541 -0.492035 0
M  V30 7534 H 712.086 3.1346 0.200413 0
M  V30 7535 H 711.279 4.81616 -1.48533 0
M  V30 7536 H 710.881 3.16046 -1.99977 0
M  V30 7537 H 713.173 6.28881 -2.52023 0
M  V30 7538 H 714.116 5.85557 -3.98157 0
M  V30 7539 H 714.524 5.10455 -2.41031 0
M  V30 7540 N 713.922 1.13953 1.08869 0
M  V30 7541 C 715.199 0.815768 1.77777 0
M  V30 7542 C 715.579 -0.691624 1.99449 0
M  V30 7543 O 714.927 -1.63085 1.60049 0
M  V30 7544 C 715.137 1.60916 3.09689 0
M  V30 7545 C 716.485 1.80549 3.84301 0
M  V30 7546 O 717.509 1.57562 3.19457 0
M  V30 7547 O 716.368 2.18946 5.00724 0
M  V30 7548 H 713.462 0.298445 0.771271 0
M  V30 7549 H 716.008 1.24446 1.15374 0
M  V30 7550 H 714.78 2.6333 2.89435 0
M  V30 7551 H 714.403 1.17578 3.79817 0
M  V30 7552 N 715.4 -1.26948 0.933913 0
M  V30 7553 C 716.646 -1.94374 0.57848 0
M  V30 7554 C 716.979 -1.73166 -0.879048 0
M  V30 7555 O 716.254 -1.06438 -1.62792 0
M  V30 7556 C 716.537 -3.4834 0.912739 0
M  V30 7557 C 716.39 -3.78866 2.42448 0
M  V30 7558 C 717.709 -4.38062 0.423003 0
M  V30 7559 H 714.828 -0.705959 0.211639 0
M  V30 7560 H 717.47 -1.49951 1.16682 0
M  V30 7561 H 715.62 -3.86309 0.412058 0
M  V30 7562 H 717.292 -3.50654 2.99733 0
M  V30 7563 H 715.535 -3.25198 2.87104 0
M  V30 7564 H 716.206 -4.86458 2.60887 0
M  V30 7565 H 718.682 -4.0728 0.852191 0
M  V30 7566 H 717.558 -5.44599 0.685776 0
M  V30 7567 H 717.819 -4.36886 -0.676994 0
M  V30 7568 N 716.879 -0.700114 -1.41195 0
M  V30 7569 C 717.789 -0.0382854 -2.34569 0
M  V30 7570 C 718.805 0.761036 -1.56474 0
M  V30 7571 O 719.981 0.697553 -1.88934 0
M  V30 7572 C 717.046 0.883522 -3.35253 0
M  V30 7573 C 716.107 0.0758957 -4.29233 0
M  V30 7574 C 715.34 0.9538 -5.25108 0
M  V30 7575 O 715.563 2.19326 -5.26547 0
M  V30 7576 O 714.497 0.401049 -6.00562 0
M  V30 7577 H 718.323 -0.808073 -2.92752 0
M  V30 7578 H 715.908 -0.460479 -1.42127 0
M  V30 7579 H 717.79 1.41199 -3.9704 0
M  V30 7580 H 716.465 1.63272 -2.79506 0
M  V30 7581 H 715.372 -0.497274 -3.7078 0
M  V30 7582 H 716.705 -0.634741 -4.8809 0
M  V30 7583 N 718.357 1.51182 -0.445186 0
M  V30 7584 C 719.304 2.27939 0.362291 0
M  V30 7585 C 720.274 1.31864 1.01 0
M  V30 7586 O 721.459 1.60776 1.02741 0
M  V30 7587 C 718.599 3.13016 1.45311 0
M  V30 7588 C 717.712 4.24093 0.822757 0
M  V30 7589 C 716.847 4.96467 1.88928 0
M  V30 7590 C 715.886 5.99454 1.23778 0
M  V30 7591 N 715.023 6.65206 2.24602 0
M  V30 7592 H 719.863 2.965 -0.29862 0
M  V30 7593 H 717.4 1.46237 -0.15911 0
M  V30 7594 H 719.358 3.60673 2.09692 0
M  V30 7595 H 717.988 2.46553 2.08354 0
M  V30 7596 H 717.04 3.80341 0.0670364 0
M  V30 7597 H 718.352 4.97853 0.307184 0
M  V30 7598 H 717.506 5.47712 2.60953 0
M  V30 7599 H 716.245 4.22355 2.4386 0
M  V30 7600 H 715.25 5.47494 0.503042 0
M  V30 7601 H 716.475 6.75527 0.695694 0
M  V30 7602 H 714.421 5.93901 2.78599 0
M  V30 7603 H 714.338 7.34756 1.77958 0
M  V30 7604 H 715.606 7.21078 2.96085 0
M  V30 7605 N 719.835 0.176821 1.56605 0
M  V30 7606 C 721.251 -0.179278 1.5859 0
M  V30 7607 C 721.451 -1.62433 1.19238 0
M  V30 7608 O 720.507 -2.35665 0.906552 0
M  V30 7609 C 721.82 0.106524 3.00511 0
M  V30 7610 C 723.368 0.0451731 3.12967 0
M  V30 7611 C 723.843 0.304038 4.5699 0
M  V30 7612 N 725.334 0.252008 4.62514 0
M  V30 7613 C 726.069 0.426404 5.71812 0
M  V30 7614 N 725.565 0.660155 6.89648 0
M  V30 7615 N 727.358 0.361926 5.60934 0
M  V30 7616 H 719.509 1.12001 1.8047 0
M  V30 7617 H 721.772 0.445679 0.836704 0
M  V30 7618 H 721.478 1.10778 3.33798 0
M  V30 7619 H 721.352 -0.599337 3.72408 0
M  V30 7620 H 723.739 -0.946662 2.79504 0
M  V30 7621 H 723.82 0.78383 2.43495 0
M  V30 7622 H 723.464 1.29311 4.91163 0
M  V30 7623 H 723.394 -0.455294 5.24628 0
M  V30 7624 H 725.885 0.0772102 3.77821 0
M  V30 7625 H 726.198 0.782529 7.68828 0
M  V30 7626 H 724.543 0.696835 6.91498 0
M  V30 7627 H 727.734 0.17986 4.67754 0
M  V30 7628 H 727.907 0.501263 6.46058 0
M  V30 7629 N 721.313 -1.57302 -0.09688 0
M  V30 7630 C 722.561 -1.8563 -0.799117 0
M  V30 7631 C 722.882 -0.765263 -1.79356 0
M  V30 7632 O 722.152 0.208657 -1.94786 0
M  V30 7633 H 720.732 -0.684937 -0.298111 0
M  V30 7634 H 723.394 -1.9474 -0.0789341 0
M  V30 7635 H 722.49 -2.82305 -1.3308 0
M  V30 7636 N 722.791 0.367657 -1.53252 0
M  V30 7637 C 724.016 1.13566 -1.73544 0
M  V30 7638 C 724.441 1.82329 -0.462344 0
M  V30 7639 O 723.799 1.71655 0.583472 0
M  V30 7640 C 723.847 2.14322 -2.89997 0
M  V30 7641 O 722.951 3.21359 -2.58461 0
M  V30 7642 H 722.292 0.329614 -0.576412 0
M  V30 7643 H 724.822 0.425417 -2.00128 0
M  V30 7644 H 724.832 2.57958 -3.16104 0
M  V30 7645 H 723.507 1.63664 -3.82344 0
M  V30 7646 H 722.084 2.8271 -2.43165 0
M  V30 7647 N 724.269 1.44576 0.627338 0
M  V30 7648 C 725.232 1.51372 1.72102 0
M  V30 7649 C 726.232 0.395329 1.55865 0
M  V30 7650 O 727.422 0.658094 1.61291 0
M  V30 7651 C 724.554 1.39129 3.11217 0
M  V30 7652 H 725.747 2.48798 1.6745 0
M  V30 7653 H 723.3 1.31724 0.841336 0
M  V30 7654 H 724.035 0.428114 3.21462 0
M  V30 7655 H 723.82 2.20229 3.24409 0
M  V30 7656 H 725.31 1.46874 3.90919 0
M  V30 7657 N 725.747 -0.868086 1.31537 0
M  V30 7658 C 726.694 -1.97548 1.19346 0
M  V30 7659 C 727.664 -1.65913 0.0787922 0
M  V30 7660 O 728.849 -1.89129 0.251985 0
M  V30 7661 C 725.989 -3.32922 0.908692 0
M  V30 7662 C 725.102 -3.77141 2.10687 0
M  V30 7663 C 724.237 -5.01241 1.75873 0
M  V30 7664 C 723.276 -5.37914 2.92088 0
M  V30 7665 N 722.413 -6.53192 2.57457 0
M  V30 7666 H 727.253 -2.07307 2.14074 0
M  V30 7667 H 724.79 -1.01483 1.06487 0
M  V30 7668 H 726.748 -4.10867 0.724138 0
M  V30 7669 H 725.378 -3.228 -0.0017611 0
M  V30 7670 H 724.43 -2.94961 2.40213 0
M  V30 7671 H 725.742 -4.00248 2.97663 0
M  V30 7672 H 724.896 -5.86858 1.53891 0
M  V30 7673 H 723.635 -4.80041 0.86091 0
M  V30 7674 H 722.64 -4.50814 3.14717 0
M  V30 7675 H 723.865 -5.61077 3.82582 0
M  V30 7676 H 721.811 -6.33536 1.702 0
M  V30 7677 H 721.728 -6.76252 3.37963 0
M  V30 7678 H 722.996 -7.41997 2.38873 0
M  V30 7679 N 727.225 -1.14528 -1.08264 0
M  V30 7680 C 728.135 -0.84728 -2.18765 0
M  V30 7681 C 729.151 0.172826 -1.7314 0
M  V30 7682 O 730.327 0.000985336 -2.014 0
M  V30 7683 C 727.392 -0.330633 -3.4512 0
M  V30 7684 C 726.453 -1.41348 -4.05363 0
M  V30 7685 C 725.686 -0.921387 -5.25686 0
M  V30 7686 O 725.909 0.236587 -5.69909 0
M  V30 7687 O 724.843 -1.70101 -5.77364 0
M  V30 7688 H 728.669 -1.7708 -2.46731 0
M  V30 7689 H 726.254 -0.923661 -1.17426 0
M  V30 7690 H 728.136 -0.0485053 -4.21372 0
M  V30 7691 H 726.811 0.565147 -3.18728 0
M  V30 7692 H 725.718 -1.74908 -3.30693 0
M  V30 7693 H 727.051 -2.28383 -4.36007 0
M  V30 7694 N 728.703 1.26451 -0.940633 0
M  V30 7695 C 729.633 2.28773 -0.467479 0
M  V30 7696 C 730.614 1.63218 0.478955 0
M  V30 7697 O 731.799 1.90427 0.380929 0
M  V30 7698 C 728.929 3.46259 0.268656 0
M  V30 7699 C 727.883 4.23898 -0.591171 0
M  V30 7700 C 727.209 5.33993 0.274891 0
M  V30 7701 C 728.509 4.87974 -1.86223 0
M  V30 7702 H 730.203 2.68601 -1.32265 0
M  V30 7703 H 727.749 1.29123 -0.637436 0
M  V30 7704 H 729.702 4.16951 0.610696 0
M  V30 7705 H 728.426 3.05383 1.15796 0
M  V30 7706 H 727.085 3.54969 -0.916098 0
M  V30 7707 H 726.733 4.89358 1.16353 0
M  V30 7708 H 726.433 5.86849 -0.297006 0
M  V30 7709 H 727.957 6.07523 0.612213 0
M  V30 7710 H 729.371 5.50883 -1.58747 0
M  V30 7711 H 727.768 5.50945 -2.37866 0
M  V30 7712 H 728.838 4.10945 -2.57394 0
M  V30 7713 N 730.181 0.707592 1.40822 0
M  V30 7714 C 731.111 0.0644925 2.33411 0
M  V30 7715 C 732.092 -0.754205 1.52466 0
M  V30 7716 O 733.277 -0.704749 1.80961 0
M  V30 7717 C 730.407 -0.863865 3.36385 0
M  V30 7718 C 729.361 -0.15138 4.27732 0
M  V30 7719 C 728.687 -1.19491 5.21177 0
M  V30 7720 C 729.987 0.989607 5.12839 0
M  V30 7721 H 731.681 0.837829 2.87438 0
M  V30 7722 H 729.227 0.404346 1.38207 0
M  V30 7723 H 731.18 -1.32309 4.0009 0
M  V30 7724 H 729.904 -1.66901 2.80734 0
M  V30 7725 H 728.563 0.287937 3.65467 0
M  V30 7726 H 728.211 -1.9929 4.61836 0
M  V30 7727 H 727.911 -0.723123 5.83134 0
M  V30 7728 H 729.435 -1.6544 5.8776 0
M  V30 7729 H 730.849 0.610114 5.70044 0
M  V30 7730 H 729.246 1.38926 5.83798 0
M  V30 7731 H 730.316 1.82389 4.49291 0
M  V30 7732 N 731.66 -1.50943 0.453197 0
M  V30 7733 C 732.592 -2.25922 -0.38623 0
M  V30 7734 C 733.605 -1.3055 -0.972652 0
M  V30 7735 O 734.794 -1.56191 -0.864097 0
M  V30 7736 C 731.894 -3.01176 -1.5539 0
M  V30 7737 C 731.067 -4.23768 -1.0835 0
M  V30 7738 C 730.126 -4.81466 -2.12313 0
M  V30 7739 O 729.152 -5.42875 -1.71101 0
M  V30 7740 N 730.354 -4.66889 -3.44956 0
M  V30 7741 H 733.119 -2.98601 0.256468 0
M  V30 7742 H 730.68 -1.59408 0.282965 0
M  V30 7743 H 732.672 -3.36659 -2.24594 0
M  V30 7744 H 731.242 -2.31409 -2.10163 0
M  V30 7745 H 730.462 -3.93597 -0.217961 0
M  V30 7746 H 731.75 -5.03289 -0.746857 0
M  V30 7747 H 731.148 -4.18011 -3.81161 0
M  V30 7748 H 729.705 -5.06691 -4.1001 0
M  V30 7749 N 733.138 -0.185124 -1.56509 0
M  V30 7750 C 734.088 0.752315 -2.15231 0
M  V30 7751 C 735.072 1.18327 -1.0903 0
M  V30 7752 O 736.264 1.14333 -1.35119 0
M  V30 7753 C 733.393 1.97583 -2.80742 0
M  V30 7754 C 732.479 1.56623 -3.94119 0
M  V30 7755 N 732.87 0.867008 -4.98314 0
M  V30 7756 C 731.168 1.85626 -4.05535 0
M  V30 7757 C 731.869 0.663228 -5.77907 0
M  V30 7758 N 730.845 1.20891 -5.29987 0
M  V30 7759 H 734.647 0.209267 -2.93154 0
M  V30 7760 H 732.161 0.0150444 -1.62393 0
M  V30 7761 H 734.158 2.65779 -3.21197 0
M  V30 7762 H 732.818 2.52369 -2.04303 0
M  V30 7763 H 733.829 0.52355 -5.15247 0
M  V30 7764 H 730.506 2.41992 -3.40215 0
M  V30 7765 H 731.896 0.109273 -6.71811 0
M  V30 7766 N 734.616 1.57351 0.0885366 0
M  V30 7767 C 736.027 1.75303 0.642308 0
M  V30 7768 C 736.378 0.808238 1.78779 0
M  V30 7769 O 735.503 -0.01171 2.16397 0
M  V30 7770 C 736.098 3.17885 1.17194 0
M  V30 7771 C 734.657 3.37239 1.67172 0
M  V30 7772 C 733.804 2.7108 0.584045 0
M  V30 7773 H 736.755 1.58103 -0.137567 0
M  V30 7774 H 736.776 3.2112 2.04114 0
M  V30 7775 H 736.288 3.86625 0.338024 0
M  V30 7776 H 734.389 2.73588 2.52943 0
M  V30 7777 H 734.502 4.45594 1.76019 0
M  V30 7778 H 732.866 2.33161 1.02508 0
M  V30 7779 H 733.649 3.42464 -0.239403 0
M  V30 7780 N 736.094 -0.359525 1.53444 0
M  V30 7781 C 737.341 -1.10152 1.6992 0
M  V30 7782 C 737.669 -1.89125 0.4541 0
M  V30 7783 O 736.924 -1.87396 -0.564023 0
M  V30 7784 C 737.223 -2.08287 2.90433 0
M  V30 7785 C 736.889 -1.45749 4.26694 0
M  V30 7786 C 735.551 -1.28421 4.63747 0
M  V30 7787 C 737.903 -1.00557 5.11408 0
M  V30 7788 C 735.231 -0.644951 5.83144 0
M  V30 7789 C 737.583 -0.380288 6.31456 0
M  V30 7790 C 736.247 -0.194557 6.67216 0
M  V30 7791 H 735.517 -0.403076 0.621781 0
M  V30 7792 H 738.164 -0.382612 1.87639 0
M  V30 7793 H 736.469 -2.86503 2.67251 0
M  V30 7794 H 738.166 -2.65662 3.00374 0
M  V30 7795 H 734.756 -1.6023 3.97523 0
M  V30 7796 H 738.94 -1.12735 4.83326 0
M  V30 7797 H 734.196 -0.48952 6.09437 0
M  V30 7798 H 738.37 -0.0219455 6.96397 0
M  V30 7799 H 735.997 0.30285 7.59597 0
M  V30 7800 N 737.572 -1.44907 -0.619662 0
M  V30 7801 C 738.502 -1.55488 -1.742 0
M  V30 7802 C 739.483 -0.407143 -1.65156 0
M  V30 7803 O 740.668 -0.628743 -1.8374 0
M  V30 7804 C 737.798 -1.5097 -3.1277 0
M  V30 7805 C 736.752 -2.64337 -3.36615 0
M  V30 7806 C 736.078 -2.44872 -4.75333 0
M  V30 7807 C 737.378 -4.06423 -3.28051 0
M  V30 7808 H 739.072 -2.49432 -1.65602 0
M  V30 7809 H 736.618 -1.20047 -0.795281 0
M  V30 7810 H 738.571 -1.56971 -3.91073 0
M  V30 7811 H 737.295 -0.535486 -3.2218 0
M  V30 7812 H 735.954 -2.57744 -2.60698 0
M  V30 7813 H 735.602 -1.45617 -4.81461 0
M  V30 7814 H 735.302 -3.20888 -4.92244 0
M  V30 7815 H 736.826 -2.52709 -5.55851 0
M  V30 7816 H 738.24 -4.14324 -3.96243 0
M  V30 7817 H 736.637 -4.82733 -3.56495 0
M  V30 7818 H 737.707 -4.29183 -2.25676 0
M  V30 7819 N 739.05 0.861098 -1.31996 0
M  V30 7820 C 739.997 1.96912 -1.20392 0
M  V30 7821 C 740.967 1.65869 -0.0875899 0
M  V30 7822 O 742.152 1.88992 -0.262011 0
M  V30 7823 C 739.292 3.32435 -0.926335 0
M  V30 7824 C 738.405 3.76018 -2.12684 0
M  V30 7825 C 737.54 5.00301 -1.78529 0
M  V30 7826 C 736.579 5.36357 -2.94937 0
M  V30 7827 N 735.716 6.51818 -2.60917 0
M  V30 7828 H 740.556 2.06169 -2.1517 0
M  V30 7829 H 738.093 1.00917 -1.07024 0
M  V30 7830 H 740.051 4.10478 -0.745917 0
M  V30 7831 H 738.681 3.22796 -0.0153578 0
M  V30 7832 H 737.733 2.93683 -2.41774 0
M  V30 7833 H 739.045 3.98664 -2.99781 0
M  V30 7834 H 738.199 5.86034 -1.57001 0
M  V30 7835 H 736.938 4.79578 -0.886356 0
M  V30 7836 H 735.943 4.49139 -3.17103 0
M  V30 7837 H 737.168 5.59041 -3.85552 0
M  V30 7838 H 735.114 6.32624 -1.73558 0
M  V30 7839 H 735.031 6.7445 -3.41544 0
M  V30 7840 H 736.299 7.4072 -2.42804 0
M  V30 7841 N 740.528 1.15101 1.07655 0
M  V30 7842 C 741.458 0.867864 2.16773 0
M  V30 7843 C 742.439 -0.180283 1.69142 0
M  V30 7844 O 743.624 -0.0353152 1.94168 0
M  V30 7845 C 740.754 0.35299 3.45501 0
M  V30 7846 C 739.708 1.33746 4.06566 0
M  V30 7847 C 739.034 0.681562 5.30338 0
M  V30 7848 C 740.334 2.7024 4.46954 0
M  V30 7849 H 742.028 1.78034 2.40716 0
M  V30 7850 H 739.574 0.857435 1.15689 0
M  V30 7851 H 741.527 0.142465 4.21159 0
M  V30 7852 H 740.251 -0.594945 3.21135 0
M  V30 7853 H 738.91 1.53429 3.32949 0
M  V30 7854 H 738.558 -0.272422 5.02262 0
M  V30 7855 H 738.258 1.33853 5.72151 0
M  V30 7856 H 739.782 0.48074 6.08705 0
M  V30 7857 H 741.196 2.5442 5.13754 0
M  V30 7858 H 739.593 3.32282 4.99709 0
M  V30 7859 H 740.663 3.26537 3.58471 0
M  V30 7860 N 742.006 -1.2595 0.947325 0
M  V30 7861 C 742.969 -2.24407 0.466285 0
M  V30 7862 C 743.969 -1.55054 -0.426005 0
M  V30 7863 O 745.159 -1.7275 -0.224319 0
M  V30 7864 C 742.291 -3.39326 -0.327201 0
M  V30 7865 H 743.484 -2.68477 1.33642 0
M  V30 7866 H 741.037 -1.38211 0.729887 0
M  V30 7867 H 741.772 -3.00667 -1.21532 0
M  V30 7868 H 741.557 -3.9085 0.312839 0
M  V30 7869 H 743.047 -4.12455 -0.653477 0
M  V30 7870 N 743.484 -0.715051 -1.40445 0
M  V30 7871 C 744.431 -0.0621393 -2.30716 0
M  V30 7872 C 745.401 0.750871 -1.48159 0
M  V30 7873 O 746.586 0.714928 -1.76899 0
M  V30 7874 C 743.726 0.854036 -3.34365 0
M  V30 7875 C 742.839 0.0305565 -4.31989 0
M  V30 7876 C 741.974 0.946162 -5.22706 0
M  V30 7877 C 741.013 0.116741 -6.11989 0
M  V30 7878 N 740.15 0.987194 -6.95125 0
M  V30 7879 H 744.99 -0.83764 -2.85985 0
M  V30 7880 H 742.527 -0.424759 -1.40834 0
M  V30 7881 H 744.485 1.39946 -3.93028 0
M  V30 7882 H 743.115 1.59572 -2.806 0
M  V30 7883 H 742.167 -0.632044 -3.75112 0
M  V30 7884 H 743.479 -0.611615 -4.95036 0
M  V30 7885 H 742.633 1.56014 -5.86297 0
M  V30 7886 H 741.372 1.62216 -4.59932 0
M  V30 7887 H 740.377 -0.510176 -5.47428 0
M  V30 7888 H 741.602 -0.555742 -6.76822 0
M  V30 7889 H 739.548 1.64885 -6.3494 0
M  V30 7890 H 739.465 0.401046 -7.54936 0
M  V30 7891 H 740.733 1.58737 -7.63166 0
M  V30 7892 N 744.962 1.50701 -0.461195 0
M  V30 7893 C 746.373 1.867 -0.00370227 0
M  V30 7894 C 746.724 1.37673 1.39787 0
M  V30 7895 O 745.849 0.737515 2.03445 0
M  V30 7896 C 746.444 3.388 5.75786e-05 0
M  V30 7897 C 745.003 3.74247 0.402044 0
M  V30 7898 C 744.15 2.74549 -0.389652 0
M  V30 7899 H 747.101 1.43585 -0.675942 0
M  V30 7900 H 747.122 3.719 0.804414 0
M  V30 7901 H 746.634 3.74452 -1.02015 0
M  V30 7902 H 744.735 3.44192 1.42697 0
M  V30 7903 H 744.848 4.78973 0.110265 0
M  V30 7904 H 743.212 2.54226 0.155314 0
M  V30 7905 H 743.995 3.13044 -1.40919 0
M  V30 7906 N 746.441 0.193421 1.56409 0
M  V30 7907 C 747.371 -0.723334 2.22014 0
M  V30 7908 C 748.352 -1.22254 1.1827 0
M  V30 7909 O 749.537 -1.27168 1.46771 0
M  V30 7910 C 746.667 -1.94366 2.87818 0
M  V30 7911 C 745.621 -1.57943 3.97791 0
M  V30 7912 C 744.947 -2.87623 4.50752 0
M  V30 7913 C 746.247 -0.790639 5.16281 0
M  V30 7914 H 747.941 -0.176426 2.9888 0
M  V30 7915 H 745.487 -0.0834166 1.43758 0
M  V30 7916 H 747.44 -2.5902 3.32396 0
M  V30 7917 H 746.164 -2.51507 2.08355 0
M  V30 7918 H 744.823 -0.956482 3.53903 0
M  V30 7919 H 744.471 -3.4285 3.68053 0
M  V30 7920 H 744.171 -2.63998 5.24956 0
M  V30 7921 H 745.695 -3.53268 4.9803 0
M  V30 7922 H 747.109 -1.34024 5.57414 0
M  V30 7923 H 745.506 -0.65258 5.96541 0
M  V30 7924 H 746.576 0.208633 4.84451 0
M  V30 7925 N 747.919 -1.57396 -0.0801906 0
M  V30 7926 C 749.144 -1.91437 -0.797909 0
M  V30 7927 C 749.569 -0.789075 -1.70749 0
M  V30 7928 O 748.927 0.25857 -1.79447 0
M  V30 7929 C 748.975 -3.24402 -1.57467 0
M  V30 7930 O 748.079 -3.13043 -2.68473 0
M  V30 7931 H 747.42 -0.627109 -0.218243 0
M  V30 7932 H 749.95 -2.04537 -0.050949 0
M  V30 7933 H 749.96 -3.58072 -1.95571 0
M  V30 7934 H 748.635 -4.05884 -0.907229 0
M  V30 7935 H 747.212 -2.90915 -2.33287 0
M  V30 7936 N 749.397 0.351382 -1.53633 0
M  V30 7937 C 750.622 1.11718 -1.74739 0
M  V30 7938 C 751.047 1.81829 -0.481657 0
M  V30 7939 O 750.405 1.72264 0.565233 0
M  V30 7940 C 750.453 2.11234 -2.92254 0
M  V30 7941 O 749.557 3.186 -2.61855 0
M  V30 7942 H 748.898 0.323482 -0.579875 0
M  V30 7943 H 751.428 0.404167 -2.00568 0
M  V30 7944 H 751.438 2.54591 -3.18822 0
M  V30 7945 H 750.113 1.59599 -3.84058 0
M  V30 7946 H 748.69 2.80115 -2.4615 0
M  V30 7947 N 750.875 1.45233 0.611969 0
M  V30 7948 C 751.805 1.5641 1.73373 0
M  V30 7949 C 752.786 0.415896 1.64937 0
M  V30 7950 O 753.971 0.638478 1.83404 0
M  V30 7951 C 751.101 1.52627 3.11965 0
M  V30 7952 C 750.055 2.66119 3.35208 0
M  V30 7953 C 749.381 2.4739 4.74028 0
M  V30 7954 C 750.681 4.08157 3.25891 0
M  V30 7955 H 752.375 2.50307 1.64277 0
M  V30 7956 H 749.921 1.20467 0.788904 0
M  V30 7957 H 751.874 1.59043 3.90235 0
M  V30 7958 H 750.598 0.552564 3.21892 0
M  V30 7959 H 749.257 2.59123 2.59327 0
M  V30 7960 H 748.905 1.48168 4.80682 0
M  V30 7961 H 748.605 3.23494 4.90536 0
M  V30 7962 H 750.129 2.55653 5.54503 0
M  V30 7963 H 751.543 4.1642 3.9404 0
M  V30 7964 H 749.94 4.84617 3.5393 0
M  V30 7965 H 751.01 4.30374 2.23397 0
M  V30 7966 N 752.353 -0.854086 1.3245 0
M  V30 7967 C 753.581 -1.64074 1.26045 0
M  V30 7968 C 753.996 -1.8802 -0.171456 0
M  V30 7969 O 753.353 -1.4496 -1.10873 0
M  V30 7970 C 753.404 -2.9997 2.01743 0
M  V30 7971 O 753.125 -2.77084 3.39346 0
M  V30 7972 C 754.626 -3.94414 2.02368 0
M  V30 7973 H 751.846 -0.511015 0.434862 0
M  V30 7974 H 754.39 -1.06494 1.74583 0
M  V30 7975 H 752.545 -3.54193 1.56926 0
M  V30 7976 H 752.959 -3.63514 3.78098 0
M  V30 7977 H 754.433 -4.87032 2.59815 0
M  V30 7978 H 754.91 -4.27427 1.01009 0
M  V30 7979 H 755.516 -3.46127 2.47135 0
M  V30 7980 N 753.831 -1.1567 -1.07043 0
M  V30 7981 C 755.242 -0.942408 -1.61169 0
M  V30 7982 C 755.593 0.515537 -1.89306 0
M  V30 7983 O 754.718 1.38726 -1.66084 0
M  V30 7984 C 755.313 -1.70431 -2.92812 0
M  V30 7985 C 753.872 -1.53521 -3.43669 0
M  V30 7986 C 753.019 -1.7179 -2.17678 0
M  V30 7987 H 755.97 -1.3065 -0.9009 0
M  V30 7988 H 755.991 -1.17566 -3.61882 0
M  V30 7989 H 755.503 -2.76538 -2.72302 0
M  V30 7990 H 753.604 -0.498224 -3.69254 0
M  V30 7991 H 753.717 -2.31422 -4.19501 0
M  V30 7992 H 752.081 -1.14468 -2.27529 0
M  V30 7993 H 752.864 -2.79269 -1.99659 0
M  V30 7994 N 755.309 1.25446 -0.953992 0
M  V30 7995 C 756.239 2.28264 -0.491717 0
M  V30 7996 C 757.22 1.63717 0.461617 0
M  V30 7997 O 758.405 1.90821 0.36071 0
M  V30 7998 C 755.535 3.46525 0.231915 0
M  V30 7999 C 754.489 4.23247 -0.636098 0
M  V30 8000 C 753.815 5.34254 0.218238 0
M  V30 8001 C 755.115 4.85971 -1.91389 0
M  V30 8002 H 756.809 2.67183 -1.35106 0
M  V30 8003 H 754.355 1.2844 -0.651095 0
M  V30 8004 H 756.308 4.17576 0.566439 0
M  V30 8005 H 755.032 3.06594 1.12551 0
M  V30 8006 H 753.691 3.53978 -0.953696 0
M  V30 8007 H 753.339 4.90564 1.11156 0
M  V30 8008 H 753.039 5.86501 -0.359232 0
M  V30 8009 H 754.563 6.08138 0.547743 0
M  V30 8010 H 755.977 5.49168 -1.64581 0
M  V30 8011 H 754.374 5.48391 -2.43696 0
M  V30 8012 H 755.444 4.08192 -2.61738 0
M  V30 8013 N 756.787 0.722489 1.40064 0
M  V30 8014 C 758.036 0.261932 1.99992 0
M  V30 8015 C 758.349 -1.15358 1.57961 0
M  V30 8016 O 759.555 -1.71301 2.10637 0
M  V30 8017 C 758.011 0.41737 3.57472 0
M  V30 8018 C 757.619 1.83997 4.08472 0
M  V30 8019 C 759.363 0.0179561 4.24496 0
M  V30 8020 C 757.27 1.94563 5.5848 0
M  V30 8021 H 756.2 0.0941768 0.748095 0
M  V30 8022 H 758.851 0.894572 1.60218 0
M  V30 8023 H 757.233 -0.283965 3.94981 0
M  V30 8024 H 758.407 2.57224 3.82325 0
M  V30 8025 H 756.722 2.19147 3.54067 0
M  V30 8026 H 759.319 0.076085 5.34646 0
M  V30 8027 H 759.662 -1.02498 4.03485 0
M  V30 8028 H 760.195 0.669988 3.92117 0
M  V30 8029 H 756.934 2.97001 5.84355 0
M  V30 8030 H 756.454 1.25756 5.86469 0
M  V30 8031 H 758.133 1.72095 6.23692 0
M  V30 8032 N 758.265 -1.50454 0.469181 0
M  V30 8033 C 759.198 -2.25149 -0.371928 0
M  V30 8034 C 760.176 -1.28382 -0.997845 0
M  V30 8035 O 761.36 -1.57599 -1.03415 0
M  V30 8036 C 758.487 -3.02629 -1.52097 0
M  V30 8037 C 757.533 -4.14305 -1.01262 0
M  V30 8038 S 758.366 -5.35453 0.0711459 0
M  V30 8039 C 759.522 -6.1648 -1.08181 0
M  V30 8040 H 759.755 -2.96142 0.262134 0
M  V30 8041 H 757.288 -1.52296 0.254042 0
M  V30 8042 H 759.246 -3.47861 -2.17952 0
M  V30 8043 H 757.907 -2.31165 -2.12654 0
M  V30 8044 H 757.1 -4.67913 -1.87278 0
M  V30 8045 H 756.702 -3.71499 -0.431804 0
M  V30 8046 H 758.994 -6.47497 -1.99382 0
M  V30 8047 H 759.937 -7.05679 -0.585028 0
M  V30 8048 H 760.345 -5.48492 -1.33478 0
M  V30 8049 N 759.743 -0.201713 -1.56304 0
M  V30 8050 C 760.706 0.702811 -2.18159 0
M  V30 8051 C 761.706 1.13619 -1.13787 0
M  V30 8052 O 762.896 1.0482 -1.39134 0
M  V30 8053 C 760.028 1.96032 -2.78898 0
M  V30 8054 H 761.221 0.163836 -2.99452 0
M  V30 8055 H 758.774 0.04791 -1.56227 0
M  V30 8056 H 759.509 2.54165 -2.01421 0
M  V30 8057 H 759.294 1.65824 -3.55309 0
M  V30 8058 H 760.784 2.60519 -3.26373 0
M  V30 8059 N 761.222 1.57436 0.0718424 0
M  V30 8060 C 762.185 2.02703 1.06977 0
M  V30 8061 C 763.185 0.924062 1.31597 0
M  V30 8062 O 764.375 1.18894 1.27318 0
M  V30 8063 C 761.507 2.40763 2.41342 0
M  V30 8064 H 762.7 2.92098 0.679619 0
M  V30 8065 H 760.253 1.5304 0.317565 0
M  V30 8066 H 760.988 1.54394 2.8519 0
M  V30 8067 H 760.773 3.21249 2.24814 0
M  V30 8068 H 762.263 2.76361 3.13073 0
M  V30 8069 N 762.7 -0.34323 1.53817 0
M  V30 8070 C 763.647 -1.42153 1.81827 0
M  V30 8071 C 764.617 -1.52251 0.663996 0
M  V30 8072 O 765.802 -1.67784 0.908461 0
M  V30 8073 C 762.942 -2.78799 2.03384 0
M  V30 8074 C 762.055 -2.7749 3.31094 0
M  V30 8075 C 761.19 -4.05856 3.42717 0
M  V30 8076 C 760.229 -3.98776 4.64375 0
M  V30 8077 N 759.366 -5.18833 4.73029 0
M  V30 8078 H 764.206 -1.17567 2.73829 0
M  V30 8079 H 761.743 -0.569506 1.35628 0
M  V30 8080 H 763.701 -3.58211 2.13872 0
M  V30 8081 H 762.331 -3.01736 1.14696 0
M  V30 8082 H 761.383 -1.90182 3.29446 0
M  V30 8083 H 762.695 -2.68137 4.206 0
M  V30 8084 H 761.849 -4.93691 3.52638 0
M  V30 8085 H 760.588 -4.1799 2.51267 0
M  V30 8086 H 759.593 -3.09325 4.5453 0
M  V30 8087 H 760.818 -3.88224 5.57189 0
M  V30 8088 H 758.764 -5.31511 3.84489 0
M  V30 8089 H 758.681 -5.11737 5.56472 0
M  V30 8090 H 759.949 -6.08439 4.87261 0
M  V30 8091 N 764.178 -1.45556 -0.604258 0
M  V30 8092 C 765.088 -1.57025 -1.74299 0
M  V30 8093 C 766.104 -0.45456 -1.67958 0
M  V30 8094 O 767.28 -0.715711 -1.88254 0
M  V30 8095 C 764.345 -1.53702 -3.10768 0
M  V30 8096 C 763.406 -2.76335 -3.28538 0
M  V30 8097 C 762.639 -2.73161 -4.58496 0
M  V30 8098 O 762.862 -1.80678 -5.41028 0
M  V30 8099 O 761.796 -3.64409 -4.79051 0
M  V30 8100 H 765.622 -2.53284 -1.67573 0
M  V30 8101 H 763.207 -1.28104 -0.768745 0
M  V30 8102 H 765.089 -1.54468 -3.92068 0
M  V30 8103 H 763.764 -0.605957 -3.17978 0
M  V30 8104 H 762.671 -2.8113 -2.46813 0
M  V30 8105 H 764.004 -3.68578 -3.26207 0
M  V30 8106 N 765.656 0.84705 -1.32902 0
M  V30 8107 C 766.619 1.9378 -1.224 0
M  V30 8108 C 767.619 1.60144 -0.145108 0
M  V30 8109 O 768.809 1.69638 -0.396058 0
M  V30 8110 C 765.941 3.29234 -0.884174 0
M  V30 8111 H 767.134 2.04518 -2.19345 0
M  V30 8112 H 764.687 1.03816 -1.16842 0
M  V30 8113 H 765.422 3.24193 0.0831277 0
M  V30 8114 H 765.207 3.55026 -1.6643 0
M  V30 8115 H 766.697 4.09162 -0.835226 0
M  V30 8116 N 767.134 1.16236 1.06428 0
M  V30 8117 C 768.067 0.81119 2.13295 0
M  V30 8118 C 769.045 -0.216555 1.61151 0
M  V30 8119 O 770.229 -0.100949 1.88229 0
M  V30 8120 C 767.356 0.207901 3.38061 0
M  V30 8121 C 766.402 1.20904 4.09004 0
M  V30 8122 S 767.235 2.75513 4.59187 0
M  V30 8123 C 768.391 2.1663 5.87216 0
M  V30 8124 H 768.624 1.71632 2.42755 0
M  V30 8125 H 766.157 0.985693 1.18842 0
M  V30 8126 H 768.115 -0.133715 4.10282 0
M  V30 8127 H 766.776 -0.67497 3.06762 0
M  V30 8128 H 765.969 0.735326 4.98607 0
M  V30 8129 H 765.571 1.49567 3.42791 0
M  V30 8130 H 767.863 1.53413 6.59902 0
M  V30 8131 H 768.806 3.04437 6.39315 0
M  V30 8132 H 769.214 1.60565 5.41183 0
M  V30 8133 N 768.612 -1.24939 0.960631 0
M  V30 8134 C 769.559 -2.25658 0.484459 0
M  V30 8135 C 770.529 -1.59422 -0.466242 0
M  V30 8136 O 771.714 -1.87015 -0.378169 0
M  V30 8137 C 768.854 -3.44359 -0.225958 0
M  V30 8138 C 767.967 -4.25214 0.762682 0
M  V30 8139 C 767.102 -5.31192 0.0290931 0
M  V30 8140 C 766.141 -6.03739 1.00827 0
M  V30 8141 N 765.278 -7.01437 0.305155 0
M  V30 8142 H 770.118 -2.65758 1.34821 0
M  V30 8143 H 767.655 -1.30648 0.675983 0
M  V30 8144 H 769.613 -4.12035 -0.654472 0
M  V30 8145 H 768.243 -3.05118 -1.05371 0
M  V30 8146 H 767.295 -3.57144 1.30966 0
M  V30 8147 H 768.607 -4.75406 1.50964 0
M  V30 8148 H 767.761 -6.04971 -0.457763 0
M  V30 8149 H 766.5 -4.81889 -0.750614 0
M  V30 8150 H 765.505 -5.2877 1.50607 0
M  V30 8151 H 766.73 -6.55131 1.7883 0
M  V30 8152 H 764.676 -6.54415 -0.455704 0
M  V30 8153 H 764.593 -7.49475 0.991104 0
M  V30 8154 H 765.861 -7.79336 -0.159966 0
M  V30 8155 N 770.09 -0.729906 -1.39679 0
M  V30 8156 C 771.315 -0.284345 -2.05442 0
M  V30 8157 C 771.74 1.07056 -1.54663 0
M  V30 8158 O 771.098 1.67732 -0.688157 0
M  V30 8159 C 771.146 -0.290089 -3.59431 0
M  V30 8160 O 770.25 0.723978 -4.05995 0
M  V30 8161 H 769.591 -0.130311 -0.651088 0
M  V30 8162 H 772.121 -0.994403 -1.78809 0
M  V30 8163 H 772.131 -0.132712 -4.07784 0
M  V30 8164 H 770.806 -1.27877 -3.95753 0
M  V30 8165 H 769.383 0.533154 -3.69069 0
M  V30 8166 N 771.568 1.50203 -0.477153 0
M  V30 8167 C 772.516 2.30278 0.327826 0
M  V30 8168 C 773.51 1.37831 0.984839 0
M  V30 8169 O 774.716 1.54994 0.915251 0
M  V30 8170 H 771.091 0.741612 0.124564 0
M  V30 8171 H 773.062 2.96124 -0.367853 0
M  V30 8172 C 771.811 3.18548 1.39365 0
M  V30 8173 H 771.134 3.89596 0.897475 0
M  V30 8174 H 772.574 3.77561 1.92934 0
M  V30 8175 C 771.033 2.36548 2.39889 0
M  V30 8176 O 771.563 2.05282 3.45286 0
M  V30 8177 N 769.769 1.99015 2.11758 0
M  V30 8178 H 769.316 2.24641 1.26071 0
M  V30 8179 H 769.274 1.44454 2.7925 0
M  V30 8180 N 773.046 0.209999 1.56195 0
M  V30 8181 C 774.462 -0.145598 1.58934 0
M  V30 8182 C 774.662 -1.59868 1.22656 0
M  V30 8183 O 773.718 -2.33689 0.956336 0
M  V30 8184 C 775.031 0.170243 3.00218 0
M  V30 8185 C 776.579 0.111548 3.12801 0
M  V30 8186 C 777.054 0.400904 4.56242 0
M  V30 8187 N 778.545 0.350058 4.61875 0
M  V30 8188 C 779.28 0.547598 5.70779 0
M  V30 8189 N 778.776 0.806291 6.88092 0
M  V30 8190 N 780.569 0.480827 5.6004 0
M  V30 8191 H 772.72 1.15804 1.78054 0
M  V30 8192 H 774.983 0.463326 0.827063 0
M  V30 8193 H 774.689 1.17833 3.31373 0
M  V30 8194 H 774.563 -0.520208 3.73596 0
M  V30 8195 H 776.95 -0.887162 2.81449 0
M  V30 8196 H 777.031 0.835302 2.41777 0
M  V30 8197 H 776.675 1.397 4.8831 0
M  V30 8198 H 776.605 -0.34391 5.25476 0
M  V30 8199 H 779.096 0.157334 3.77572 0
M  V30 8200 H 779.409 0.945433 7.66995 0
M  V30 8201 H 777.754 0.843355 6.89864 0
M  V30 8202 H 780.945 0.279037 4.67268 0
M  V30 8203 H 781.118 0.638189 6.4485 0
M  V30 8204 O 774.563 -1.61333 0.0733639 0
M  V30 8205 H 775.254 -1.86233 -0.532616 0
M  V30 END ATOM
M  V30 BEGIN BOND
M  V30 END BOND
M  V30 END CTAB
M  END
$$$$
