drugbank_target|P76270 Free methionine-R-sulfoxide reductase (DB03814)
 OpenBabel12092120283D

  0  0  0     0  0            999 V3000
M  V30 BEGIN CTAB
M  V30 COUNTS 2543 2563 0 0 0
M  V30 BEGIN ATOM
M  V30 1 H -0.908 1.98254 -0.117106 0
M  V30 2 N 0 1.576 0 0
M  V30 3 C 0.933 2.03868 1.02534 0
M  V30 4 C 1.911 0.928543 1.3348 0
M  V30 5 O 3.095 1.19667 1.45644 0
M  V30 6 C 0.222 2.43627 2.35294 0
M  V30 7 C -0.732 3.65373 2.2001 0
M  V30 8 S 0.101 5.13292 1.52614 0
M  V30 9 C 1.257 5.56322 2.86805 0
M  V30 10 H 1.49 2.90518 0.631377 0
M  V30 11 H -0.977 1.52953 0.210867 0
M  V30 12 H 0.981 2.67203 3.11629 0
M  V30 13 H -0.358 1.57376 2.7183 0
M  V30 14 H -1.165 3.90944 3.18086 0
M  V30 15 H -1.563 3.418 1.51819 0
M  V30 16 H 0.729 5.58782 3.83104 0
M  V30 17 H 1.672 6.56266 2.65933 0
M  V30 18 H 2.08 4.83886 2.90714 0
M  V30 19 N 1.4781 -0.272755 1.55222 0
M  V30 20 C 2.4261 -1.35705 1.88909 0
M  V30 21 C 3.4201 -1.5112 0.765456 0
M  V30 22 O 4.6261 -1.52901 0.949802 0
M  V30 23 H 1.0011 -0.453868 0.59959 0
M  V30 24 H 2.9721 -1.04544 2.79487 0
M  V30 25 C 1.7211 -2.71049 2.17779 0
M  V30 26 H 1.0441 -2.59979 3.03728 0
M  V30 27 H 2.4841 -3.45858 2.45272 0
M  V30 28 C 0.9431 -3.22165 0.985473 0
M  V30 29 O 1.4731 -4.01096 0.220233 0
M  V30 30 N -0.3209 -2.7985 0.783108 0
M  V30 31 H -0.7739 -2.15775 1.40708 0
M  V30 32 H -0.8159 -3.14397 -0.0130392 0
M  V30 33 N 2.9562 -1.48159 -0.537278 0
M  V30 34 C 3.9032 -1.62138 -1.64256 0
M  V30 35 C 4.8732 -0.463668 -1.59497 0
M  V30 36 O 6.0582 -0.686241 -1.78032 0
M  V30 37 C 3.1982 -1.66028 -3.02537 0
M  V30 38 C 2.3112 -2.92855 -3.17585 0
M  V30 39 C 1.4462 -2.87952 -4.46382 0
M  V30 40 C 0.4852 -4.09516 -4.54932 0
M  V30 41 N -0.3778 -4.02733 -5.75109 0
M  V30 42 H 4.4622 -2.56529 -1.51647 0
M  V30 43 H 1.9992 -1.27224 -0.738414 0
M  V30 44 H 3.9572 -1.66265 -3.82638 0
M  V30 45 H 2.5872 -0.751331 -3.13934 0
M  V30 46 H 1.6392 -3.02395 -2.30784 0
M  V30 47 H 2.9512 -3.82822 -3.19764 0
M  V30 48 H 2.1052 -2.8655 -5.34765 0
M  V30 49 H 0.8442 -1.95702 -4.46712 0
M  V30 50 H -0.1508 -4.11201 -3.64957 0
M  V30 51 H 1.0742 -5.02917 -4.56346 0
M  V30 52 H -0.9798 -3.13299 -5.76351 0
M  V30 53 H -1.0628 -4.86397 -5.78752 0
M  V30 54 H 0.2052 -4.05379 -6.65799 0
M  V30 55 N 4.4343 0.785586 -1.36625 0
M  V30 56 C 5.6623 1.57448 -1.3423 0
M  V30 57 C 6.0773 1.88649 0.0755653 0
M  V30 58 O 5.4343 1.50414 1.03354 0
M  V30 59 C 5.4853 2.89316 -2.16745 0
M  V30 60 O 5.2063 2.59459 -3.53005 0
M  V30 61 C 6.7073 3.83606 -2.22174 0
M  V30 62 H 3.9273 0.488226 -0.4603 0
M  V30 63 H 6.4713 0.974733 -1.79775 0
M  V30 64 H 4.6263 3.4575 -1.74745 0
M  V30 65 H 5.0403 3.43804 -3.96105 0
M  V30 66 H 6.5143 4.73181 -2.8426 0
M  V30 67 H 6.9913 4.21734 -1.22627 0
M  V30 68 H 7.5973 3.33104 -2.64427 0
M  V30 69 N 5.9124 1.20967 1.01018 0
M  V30 70 C 6.8224 0.980157 2.13143 0
M  V30 71 C 7.8384 -0.0660665 1.73875 0
M  V30 72 O 9.0144 0.122821 2.01025 0
M  V30 73 C 6.0794 0.54216 3.42435 0
M  V30 74 C 5.1404 1.65999 3.95908 0
M  V30 75 C 4.3734 1.2428 5.19028 0
M  V30 76 O 4.5964 0.114196 5.70286 0
M  V30 77 O 3.5304 2.05271 5.65816 0
M  V30 78 H 7.3564 1.91913 2.35379 0
M  V30 79 H 4.9414 0.994099 1.11526 0
M  V30 80 H 6.8234 0.30744 4.20277 0
M  V30 81 H 5.4984 -0.36815 3.216 0
M  V30 82 H 4.4054 1.94906 3.19316 0
M  V30 83 H 5.7384 2.54753 4.21143 0
M  V30 84 N 7.3905 -1.2043 1.01659 0
M  V30 85 C 8.6375 -1.89797 0.705917 0
M  V30 86 C 8.9655 -1.78848 -0.764439 0
M  V30 87 O 8.2205 -1.16694 -1.57102 0
M  V30 88 C 8.5195 -3.40464 1.08714 0
M  V30 89 C 8.1855 -3.71614 2.5537 0
M  V30 90 C 6.8475 -3.79826 2.95441 0
M  V30 91 C 9.1995 -3.85915 3.50313 0
M  V30 92 C 6.5275 -3.99797 4.29394 0
M  V30 93 C 8.8795 -4.07396 4.83954 0
M  V30 94 C 7.5435 -4.13837 5.23732 0
M  V30 95 H 6.8135 -0.694518 0.258313 0
M  V30 96 H 9.4605 -1.42691 1.27717 0
M  V30 97 H 7.7655 -3.89385 0.434309 0
M  V30 98 H 9.4625 -3.92433 0.824461 0
M  V30 99 H 6.0525 -3.65822 2.23321 0
M  V30 100 H 10.2365 -3.78926 3.20513 0
M  V30 101 H 5.4925 -4.03018 4.59768 0
M  V30 102 H 9.6665 -4.17404 5.57447 0
M  V30 103 H 7.2935 -4.29064 6.27541 0
M  V30 104 N 8.8686 -0.792821 -1.36206 0
M  V30 105 C 10.0986 -0.378275 -2.03107 0
M  V30 106 C 10.5066 1.01119 -1.59911 0
M  V30 107 O 9.8496 1.66052 -0.785658 0
M  V30 108 C 9.9116 -0.366535 -3.57627 0
M  V30 109 C 9.5756 -1.70416 -4.24037 0
M  V30 110 C 10.5726 -2.6602 -4.46687 0
M  V30 111 C 8.2576 -1.98439 -4.6144 0
M  V30 112 C 10.2516 -3.8784 -5.05825 0
M  V30 113 C 7.9386 -3.20525 -5.20295 0
M  V30 114 C 8.9366 -4.15044 -5.42427 0
M  V30 115 O 8.6246 -5.34978 -6.00045 0
M  V30 116 H 8.3566 -0.153543 -0.658332 0
M  V30 117 H 10.9106 -1.07383 -1.75094 0
M  V30 118 H 9.1406 0.385539 -3.84773 0
M  V30 119 H 10.8296 0.0238088 -4.05893 0
M  V30 120 H 11.5956 -2.45658 -4.18183 0
M  V30 121 H 7.4746 -1.25686 -4.43536 0
M  V30 122 H 11.0186 -4.61628 -5.23015 0
M  V30 123 H 6.9156 -3.40764 -5.48225 0
M  V30 124 H 7.6836 -5.36088 -6.18508 0
M  V30 125 N 10.3467 1.47872 -0.545128 0
M  V30 126 C 11.3097 2.28337 0.198717 0
M  V30 127 C 12.3097 1.36255 0.853888 0
M  V30 128 O 13.4997 1.59003 0.711606 0
M  V30 129 C 10.6317 3.15585 1.28915 0
M  V30 130 H 11.8247 2.95567 -0.507941 0
M  V30 131 H 9.3777 1.53362 -0.301616 0
M  V30 132 H 10.1127 2.53019 2.02859 0
M  V30 133 H 9.8977 3.83337 0.824309 0
M  V30 134 H 11.3877 3.76243 1.81194 0
M  V30 135 N 11.8248 0.280983 1.55075 0
M  V30 136 C 13.1018 -0.386207 1.91749 0
M  V30 137 C 13.4818 -1.73264 1.20594 0
M  V30 138 O 12.8298 -2.26034 0.334784 0
M  V30 139 C 13.0398 -0.520687 3.45094 0
M  V30 140 C 14.3878 -0.800865 4.16979 0
M  V30 141 O 15.4118 -0.605271 3.5102 0
M  V30 142 O 14.2708 -1.1753 5.33712 0
M  V30 143 H 11.3648 -0.212408 0.799257 0
M  V30 144 H 13.9108 0.327568 1.66509 0
M  V30 145 H 12.6828 0.426633 3.88967 0
M  V30 146 H 12.3058 -1.2837 3.76307 0
M  V30 147 N 13.3029 -1.57598 0.00835791 0
M  V30 148 C 14.2329 -2.1198 -0.979113 0
M  V30 149 C 15.2139 -1.03091 -1.35301 0
M  V30 150 O 16.3989 -1.30818 -1.43528 0
M  V30 151 C 13.5289 -2.62995 -2.26828 0
M  V30 152 C 12.4829 -3.76485 -2.03576 0
M  V30 153 C 11.8089 -4.13846 -3.38579 0
M  V30 154 C 13.1089 -5.0342 -1.39161 0
M  V30 155 H 14.8029 -2.94738 -0.526281 0
M  V30 156 H 12.3489 -1.41783 -0.251704 0
M  V30 157 H 14.3019 -2.99669 -2.96271 0
M  V30 158 H 13.0259 -1.7737 -2.7424 0
M  V30 159 H 11.6849 -3.40217 -1.36557 0
M  V30 160 H 11.3329 -3.25232 -3.83709 0
M  V30 161 H 11.0329 -4.90312 -3.23834 0
M  V30 162 H 12.5569 -4.53086 -4.09323 0
M  V30 163 H 13.9709 -5.37812 -1.98573 0
M  V30 164 H 12.3679 -5.84746 -1.34878 0
M  V30 165 H 13.4379 -4.83548 -0.361868 0
M  V30 166 N 14.781 0.264519 -1.55364 0
M  V30 167 C 15.729 1.34702 -1.89626 0
M  V30 168 C 16.723 1.50712 -0.773459 0
M  V30 169 O 17.929 1.52395 -0.957897 0
M  V30 170 H 14.304 0.450682 -0.601988 0
M  V30 171 H 16.275 1.0306 -2.80038 0
M  V30 172 C 15.024 2.6989 -2.19214 0
M  V30 173 H 14.347 2.58365 -3.05103 0
M  V30 174 H 15.787 3.44553 -2.47102 0
M  V30 175 C 14.246 3.21637 -1.00254 0
M  V30 176 O 14.776 4.00973 -0.241501 0
M  V30 177 N 12.982 2.7943 -0.797938 0
M  V30 178 H 12.529 2.15026 -1.4185 0
M  V30 179 H 12.487 3.144 -0.00363422 0
M  V30 180 N 16.2591 1.48442 0.529413 0
M  V30 181 C 17.6751 1.34575 0.858004 0
M  V30 182 C 17.8751 0.3572 1.98309 0
M  V30 183 O 16.9311 -0.221379 2.51528 0
M  V30 184 C 18.2441 2.74617 1.22499 0
M  V30 185 C 19.7921 2.83109 1.33484 0
M  V30 186 C 20.2671 4.23854 1.73526 0
M  V30 187 N 21.7581 4.2653 1.80628 0
M  V30 188 C 22.4931 5.32372 2.12997 0
M  V30 189 N 21.9891 6.48491 2.43786 0
M  V30 190 N 23.7821 5.19766 2.14008 0
M  V30 191 H 15.9331 2.1133 -0.212925 0
M  V30 192 H 18.1961 0.947439 -0.0326199 0
M  V30 193 H 17.9021 3.4852 0.471905 0
M  V30 194 H 17.7761 3.08177 2.17501 0
M  V30 195 H 20.1631 2.09462 2.0787 0
M  V30 196 H 20.2441 2.53168 0.366027 0
M  V30 197 H 19.8881 4.98018 0.997013 0
M  V30 198 H 19.8181 4.5124 2.71459 0
M  V30 199 H 22.3091 3.42772 1.59108 0
M  V30 200 H 22.6221 7.24993 2.67592 0
M  V30 201 H 20.9671 6.51765 2.41304 0
M  V30 202 H 24.1581 4.28066 1.89412 0
M  V30 203 H 24.3311 6.02354 2.38902 0
M  V30 204 N 17.7372 -0.778329 1.37039 0
M  V30 205 C 19.0142 -1.52551 1.22424 0
M  V30 206 C 19.3942 -2.10288 -0.184964 0
M  V30 207 O 18.7422 -1.94953 -1.19187 0
M  V30 208 C 18.9522 -2.61164 2.31504 0
M  V30 209 C 20.3002 -3.28746 2.68721 0
M  V30 210 O 21.3242 -2.71455 2.30631 0
M  V30 211 O 20.1832 -4.3231 3.3432 0
M  V30 212 H 17.2772 -0.675343 0.477326 0
M  V30 213 H 19.8232 -0.815859 1.48801 0
M  V30 214 H 18.5952 -2.16574 3.25901 0
M  V30 215 H 18.2182 -3.39737 2.06554 0
M  V30 216 N 19.2153 -1.21501 -1.00376 0
M  V30 217 C 20.4623 -1.03299 -1.74171 0
M  V30 218 C 20.7903 0.433326 -1.89612 0
M  V30 219 O 20.0453 1.33779 -1.42834 0
M  V30 220 C 20.3443 -1.67673 -3.15627 0
M  V30 221 C 20.0103 -3.17533 -3.2013 0
M  V30 222 C 18.6723 -3.58427 -3.21067 0
M  V30 223 C 21.0243 -4.13504 -3.17275 0
M  V30 224 C 18.3523 -4.93794 -3.16835 0
M  V30 225 C 20.7043 -5.48834 -3.14585 0
M  V30 226 C 19.3683 -5.89123 -3.13831 0
M  V30 227 H 18.6383 -0.377999 -0.637336 0
M  V30 228 H 21.2853 -1.51111 -1.17634 0
M  V30 229 H 19.5903 -1.12158 -3.75404 0
M  V30 230 H 21.2873 -1.51091 -3.71446 0
M  V30 231 H 17.8773 -2.84965 -3.20145 0
M  V30 232 H 22.0613 -3.82936 -3.15711 0
M  V30 233 H 17.3173 -5.24255 -3.1459 0
M  V30 234 H 21.4913 -6.22934 -3.1133 0
M  V30 235 H 19.1183 -6.93984 -3.10307 0
M  V30 236 N 20.6934 1.19889 -1.02296 0
M  V30 237 C 21.6414 2.24938 -0.592081 0
M  V30 238 C 22.6354 1.65257 0.372357 0
M  V30 239 O 23.8414 1.78371 0.241583 0
M  V30 240 H 20.2164 0.731787 -0.173182 0
M  V30 241 H 22.1874 2.58603 -1.48885 0
M  V30 242 C 20.9364 3.47668 0.047351 0
M  V30 243 H 20.2594 3.93875 -0.685772 0
M  V30 244 H 21.6994 4.22852 0.311862 0
M  V30 245 C 20.1584 3.11136 1.29212 0
M  V30 246 O 20.6884 3.2325 2.38479 0
M  V30 247 N 18.8944 2.65625 1.17863 0
M  V30 248 H 18.4414 2.55968 0.289493 0
M  V30 249 H 18.3994 2.41553 2.01245 0
M  V30 250 N 22.1715 0.800033 1.35784 0
M  V30 251 C 23.1345 0.211565 2.28221 0
M  V30 252 C 24.1345 -0.59728 1.49296 0
M  V30 253 O 25.3245 -0.416721 1.69142 0
M  V30 254 C 22.4565 -0.705846 3.33513 0
M  V30 255 H 23.6495 1.02677 2.81776 0
M  V30 256 H 21.2025 0.570211 1.45528 0
M  V30 257 H 21.9375 -1.54498 2.85133 0
M  V30 258 H 21.7225 -0.127655 3.91892 0
M  V30 259 H 23.2125 -1.11211 4.02519 0
M  V30 260 N 23.6496 -1.47581 0.552962 0
M  V30 261 C 24.5796 -2.32762 -0.185451 0
M  V30 262 C 25.5606 -1.43527 -0.912905 0
M  V30 263 O 26.7456 -1.72388 -0.894201 0
M  V30 264 C 23.8756 -3.25219 -1.21859 0
M  V30 265 C 22.8296 -4.23661 -0.607864 0
M  V30 266 C 22.1556 -5.05413 -1.74533 0
M  V30 267 C 23.4556 -5.20481 0.435582 0
M  V30 268 H 25.1496 -2.94749 0.525684 0
M  V30 269 H 22.6956 -1.41738 0.254251 0
M  V30 270 H 24.6486 -3.8365 -1.7433 0
M  V30 271 H 23.3726 -2.61279 -1.95961 0
M  V30 272 H 22.0316 -3.66451 -0.104489 0
M  V30 273 H 21.6796 -4.3788 -2.47529 0
M  V30 274 H 21.3796 -5.72059 -1.34249 0
M  V30 275 H 22.9036 -5.66701 -2.27338 0
M  V30 276 H 24.3176 -5.733 -0.00290157 0
M  V30 277 H 22.7146 -5.95305 0.757067 0
M  V30 278 H 23.7846 -4.66217 1.33303 0
M  V30 279 N 25.1277 -0.289203 -1.54924 0
M  V30 280 C 26.0607 0.633823 -2.19221 0
M  V30 281 C 27.0387 1.14174 -1.15772 0
M  V30 282 O 28.2227 1.21211 -1.44361 0
M  V30 283 C 25.3497 1.86592 -2.82668 0
M  V30 284 C 24.3957 1.49227 -3.99542 0
M  V30 285 S 25.2287 0.558312 -5.32582 0
M  V30 286 C 26.3847 1.79847 -5.99505 0
M  V30 287 H 26.6177 0.0875416 -2.97171 0
M  V30 288 H 24.1507 -0.0733899 -1.54225 0
M  V30 289 H 26.1087 2.57305 -3.19851 0
M  V30 290 H 24.7697 2.38335 -2.04585 0
M  V30 291 H 23.9627 2.40945 -4.42676 0
M  V30 292 H 23.5647 0.865193 -3.63855 0
M  V30 293 H 25.8567 2.7406 -6.19595 0
M  V30 294 H 26.7997 1.4099 -6.93922 0
M  V30 295 H 27.2077 1.96982 -5.29016 0
M  V30 296 N 26.6058 1.57591 -0.0167156 0
M  V30 297 C 27.5688 2.08393 0.954204 0
M  V30 298 C 28.5688 0.996531 1.26198 0
M  V30 299 O 29.7588 1.25858 1.20438 0
M  V30 300 C 26.8908 2.5394 2.27436 0
M  V30 301 H 28.0838 2.95455 0.514451 0
M  V30 302 H 25.6368 1.54582 0.231089 0
M  V30 303 H 26.3718 1.70171 2.76066 0
M  V30 304 H 26.1568 3.33371 2.06412 0
M  V30 305 H 27.6468 2.93512 2.97053 0
M  V30 306 N 28.0839 -0.256276 1.55502 0
M  V30 307 C 29.3319 -0.983672 1.76545 0
M  V30 308 C 29.6529 -1.86206 0.578982 0
M  V30 309 O 28.9229 -1.91656 -0.405577 0
M  V30 310 H 27.5029 -0.366191 0.651086 0
M  V30 311 H 30.1649 -0.276479 1.92929 0
M  V30 312 H 29.2609 -1.61087 2.67315 0
M  V30 313 N 29.562 -1.4872 -0.521534 0
M  V30 314 C 30.472 -1.66569 -1.65203 0
M  V30 315 C 31.488 -0.548197 -1.65139 0
M  V30 316 O 32.664 -0.820339 -1.83936 0
M  V30 317 C 29.729 -1.70917 -3.01642 0
M  V30 318 C 28.79 -2.94356 -3.12495 0
M  V30 319 C 28.023 -2.98487 -4.42426 0
M  V30 320 O 28.246 -2.10786 -5.30024 0
M  V30 321 O 27.18 -3.90746 -4.57822 0
M  V30 322 H 31.006 -2.62298 -1.5308 0
M  V30 323 H 28.591 -1.3222 -0.695565 0
M  V30 324 H 30.473 -1.7625 -3.82771 0
M  V30 325 H 29.148 -0.783633 -3.14071 0
M  V30 326 H 28.055 -2.94552 -2.3063 0
M  V30 327 H 29.388 -3.86322 -3.04986 0
M  V30 328 N 31.0401 0.771051 -1.3745 0
M  V30 329 C 32.2681 1.56015 -1.35893 0
M  V30 330 C 32.6831 1.88718 0.0555523 0
M  V30 331 O 32.0401 1.51502 1.01752 0
M  V30 332 C 32.0911 2.87001 -2.19801 0
M  V30 333 O 31.8121 2.557 -3.55738 0
M  V30 334 C 33.3131 3.81228 -2.26231 0
M  V30 335 H 30.5331 0.483317 -0.465453 0
M  V30 336 H 33.0771 0.955611 -1.80799 0
M  V30 337 H 31.2321 3.43877 -1.78402 0
M  V30 338 H 31.6461 3.39584 -3.99729 0
M  V30 339 H 33.1201 4.70139 -2.89263 0
M  V30 340 H 33.5971 4.20409 -1.27093 0
M  V30 341 H 34.2031 3.30281 -2.67945 0
M  V30 342 N 32.5182 1.22032 0.997298 0
M  V30 343 C 33.7432 1.06921 1.77715 0
M  V30 344 C 34.1682 -0.376226 1.84299 0
M  V30 345 O 33.5262 -1.27165 1.29223 0
M  V30 346 C 33.5742 1.67996 3.19076 0
M  V30 347 O 32.6782 0.930653 4.01762 0
M  V30 348 H 32.0192 0.375814 0.547412 0
M  V30 349 H 34.5492 1.61737 1.25309 0
M  V30 350 H 34.5592 1.72538 3.69723 0
M  V30 351 H 33.2342 2.73182 3.13599 0
M  V30 352 H 31.8112 0.960917 3.60307 0
M  V30 353 N 33.9963 -1.19345 1.0293 0
M  V30 354 C 35.2433 -1.89038 0.726008 0
M  V30 355 C 35.5713 -1.79649 -0.745427 0
M  V30 356 O 34.8263 -1.18354 -1.55855 0
M  V30 357 C 35.1253 -3.39292 1.12319 0
M  V30 358 C 34.7913 -3.68885 2.59297 0
M  V30 359 C 33.4533 -3.76671 2.99453 0
M  V30 360 C 35.8053 -3.82178 3.54386 0
M  V30 361 C 33.1333 -3.9522 4.33611 0
M  V30 362 C 35.4853 -4.0224 4.88248 0
M  V30 363 C 34.1493 -4.08259 5.28092 0
M  V30 364 H 33.4193 -0.691739 0.265665 0
M  V30 365 H 36.0663 -1.41328 1.29223 0
M  V30 366 H 34.3713 -3.88903 0.475584 0
M  V30 367 H 36.0683 -3.91536 0.866037 0
M  V30 368 H 32.6583 -3.63433 2.27189 0
M  V30 369 H 36.8423 -3.75505 3.24514 0
M  V30 370 H 32.0983 -3.98119 4.64016 0
M  V30 371 H 36.2723 -4.11468 5.61843 0
M  V30 372 H 33.8993 -4.22384 6.32057 0
M  V30 373 N 35.4744 -0.807222 -1.35358 0
M  V30 374 C 36.4044 -0.232509 -2.3234 0
M  V30 375 C 37.3854 0.642386 -1.57504 0
M  V30 376 O 38.5704 0.572526 -1.85569 0
M  V30 377 C 35.7004 0.619238 -3.41735 0
M  V30 378 C 34.6544 -0.157215 -4.27711 0
M  V30 379 C 33.9804 0.816273 -5.28433 0
M  V30 380 C 35.2804 -1.35656 -5.04376 0
M  V30 381 H 36.9744 -1.04276 -2.80654 0
M  V30 382 H 34.5204 -0.50288 -1.34934 0
M  V30 383 H 36.4734 1.03137 -4.08584 0
M  V30 384 H 35.1974 1.46239 -2.92031 0
M  V30 385 H 33.8564 -0.550525 -3.62443 0
M  V30 386 H 33.5044 1.65494 -4.74996 0
M  V30 387 H 33.2044 0.301067 -5.86828 0
M  V30 388 H 34.7284 1.22659 -5.98153 0
M  V30 389 H 36.1424 -1.01927 -5.64166 0
M  V30 390 H 34.5394 -1.8063 -5.7227 0
M  V30 391 H 35.6094 -2.14288 -4.34981 0
M  V30 392 N 36.9525 1.47285 -0.560781 0
M  V30 393 C 37.9155 2.28535 0.174488 0
M  V30 394 C 38.9155 1.37153 0.839388 0
M  V30 395 O 40.1055 1.59748 0.694702 0
M  V30 396 C 37.2375 3.16934 1.25561 0
M  V30 397 H 38.4305 2.95012 -0.539262 0
M  V30 398 H 35.9835 1.53034 -0.317865 0
M  V30 399 H 36.7185 2.55157 2.00164 0
M  V30 400 H 36.5035 3.8419 0.783604 0
M  V30 401 H 37.9935 3.78143 1.77193 0
M  V30 402 N 38.4306 0.297415 1.54768 0
M  V30 403 C 39.6586 -0.315623 2.04478 0
M  V30 404 C 40.0736 -1.47792 1.17486 0
M  V30 405 O 39.4306 -1.81404 0.19971 0
M  V30 406 C 39.4816 -0.7753 3.53088 0
M  V30 407 O 39.2026 0.340732 4.36773 0
M  V30 408 C 40.7036 -1.45386 4.18781 0
M  V30 409 H 37.9236 -0.0690887 0.667434 0
M  V30 410 H 40.4676 0.436003 1.99798 0
M  V30 411 H 38.6226 -1.47696 3.58141 0
M  V30 412 H 39.0366 -0.0165035 5.24497 0
M  V30 413 H 40.5106 -1.72669 5.24299 0
M  V30 414 H 40.9876 -2.39275 3.68299 0
M  V30 415 H 41.5936 -0.795475 4.17795 0
M  V30 416 N 39.9087 -1.5758 0.0250728 0
M  V30 417 C 40.8387 -2.13007 -0.956575 0
M  V30 418 C 41.8197 -1.0452 -1.342 0
M  V30 419 O 43.0047 -1.32332 -1.42133 0
M  V30 420 C 40.1347 -2.65386 -2.24026 0
M  V30 421 C 39.0887 -3.78623 -1.99571 0
M  V30 422 C 38.4147 -4.17414 -3.3417 0
M  V30 423 C 39.7147 -5.04867 -1.33814 0
M  V30 424 H 41.4087 -2.9528 -0.494991 0
M  V30 425 H 38.9547 -1.42042 -0.236651 0
M  V30 426 H 40.9077 -3.02794 -2.93076 0
M  V30 427 H 39.6317 -1.80268 -2.72343 0
M  V30 428 H 38.2907 -3.41646 -1.32941 0
M  V30 429 H 37.9387 -3.29284 -3.80238 0
M  V30 430 H 37.6387 -4.93719 -3.18615 0
M  V30 431 H 39.1627 -4.57402 -4.04495 0
M  V30 432 H 40.5767 -5.39888 -1.92857 0
M  V30 433 H 38.9737 -5.86144 -1.28669 0
M  V30 434 H 40.0437 -4.83904 -0.310561 0
M  V30 435 N 41.3868 0.248026 -1.55636 0
M  V30 436 C 42.3498 1.29044 -1.89421 0
M  V30 437 C 43.3498 1.41134 -0.770581 0
M  V30 438 O 44.5398 1.39854 -1.03858 0
M  V30 439 C 41.6718 2.66831 -2.12165 0
M  V30 440 H 42.8648 1.00305 -2.82629 0
M  V30 441 H 40.4178 0.487265 -1.48511 0
M  V30 442 H 41.1528 3.00711 -1.21422 0
M  V30 443 H 40.9378 2.59438 -2.93997 0
M  V30 444 H 42.4278 3.42103 -2.3949 0
M  V30 445 N 42.8649 1.48995 0.513639 0
M  V30 446 C 43.8129 1.65199 1.63744 0
M  V30 447 C 44.8069 0.51809 1.61283 0
M  V30 448 O 46.0129 0.697335 1.65943 0
M  V30 449 H 42.3879 0.52069 0.542574 0
M  V30 450 H 44.3589 2.59552 1.47226 0
M  V30 451 C 43.1079 1.72409 3.01945 0
M  V30 452 H 42.4309 2.59029 3.04539 0
M  V30 453 H 43.8709 1.87785 3.80148 0
M  V30 454 C 42.3299 0.46618 3.33659 0
M  V30 455 O 42.8599 -0.413744 3.99564 0
M  V30 456 N 41.0659 0.332931 2.88687 0
M  V30 457 H 40.6129 1.04996 2.35231 0
M  V30 458 H 40.5709 -0.507665 3.10274 0
M  V30 459 N 44.343 -0.763751 1.37857 0
M  V30 460 C 45.571 -1.55293 1.36718 0
M  V30 461 C 45.986 -1.88745 -0.0455434 0
M  V30 462 O 45.343 -1.52039 -1.00947 0
M  V30 463 C 45.394 -2.85831 2.2132 0
M  V30 464 O 45.115 -2.5381 3.57089 0
M  V30 465 C 46.616 -3.80023 2.28249 0
M  V30 466 H 43.836 -0.480841 0.468009 0
M  V30 467 H 46.38 -0.946009 1.81303 0
M  V30 468 H 44.535 -3.42926 1.80223 0
M  V30 469 H 44.949 -3.37459 4.01524 0
M  V30 470 H 46.423 -4.68599 2.91752 0
M  V30 471 H 46.9 -4.1973 1.2932 0
M  V30 472 H 47.506 -3.28855 2.69693 0
M  V30 473 N 45.8211 -1.22559 -0.990812 0
M  V30 474 C 47.0461 -1.07862 -1.77145 0
M  V30 475 C 47.4711 0.366447 -1.84496 0
M  V30 476 O 46.8291 1.26478 -1.29896 0
M  V30 477 C 46.8771 -1.69686 -3.18181 0
M  V30 478 O 45.9811 -0.951946 -4.01263 0
M  V30 479 H 45.3221 -0.378712 -0.545411 0
M  V30 480 H 47.8521 -1.62399 -1.2445 0
M  V30 481 H 47.8621 -1.74496 -3.68802 0
M  V30 482 H 46.5371 -2.74841 -3.12146 0
M  V30 483 H 45.1141 -0.980011 -3.59792 0
M  V30 484 N 47.2992 1.18797 -1.03562 0
M  V30 485 C 48.2622 2.20464 -0.626769 0
M  V30 486 C 49.2622 1.57721 0.313173 0
M  V30 487 O 50.4522 1.73917 0.0992615 0
M  V30 488 C 47.5842 3.40802 0.0818498 0
M  V30 489 H 48.7772 2.58149 -1.5264 0
M  V30 490 H 46.3302 1.32593 -0.827578 0
M  V30 491 H 47.0652 3.08642 0.995518 0
M  V30 492 H 46.8502 3.8758 -0.593652 0
M  V30 493 H 48.3402 4.16092 0.354584 0
M  V30 494 N 48.7773 0.814389 1.34928 0
M  V30 495 C 49.7073 0.244827 2.32213 0
M  V30 496 C 50.6883 -0.634024 1.57842 0
M  V30 497 O 51.8733 -0.562676 1.8587 0
M  V30 498 C 49.0033 -0.601106 3.42058 0
M  V30 499 C 47.9573 0.179896 4.27622 0
M  V30 500 C 47.2833 -0.788237 5.28858 0
M  V30 501 C 48.5833 1.38329 5.03649 0
M  V30 502 H 50.2773 1.05763 2.80097 0
M  V30 503 H 47.8233 0.510029 1.34665 0
M  V30 504 H 49.7763 -1.00968 4.09125 0
M  V30 505 H 48.5003 -1.44688 2.92802 0
M  V30 506 H 47.1593 0.569739 3.62146 0
M  V30 507 H 46.8073 -1.62973 4.75866 0
M  V30 508 H 46.5073 -0.269942 5.8698 0
M  V30 509 H 48.0313 -1.19485 5.98795 0
M  V30 510 H 49.4453 1.04918 5.63618 0
M  V30 511 H 47.8423 1.83662 5.71304 0
M  V30 512 H 48.9123 2.16592 4.33839 0
M  V30 513 N 50.2554 -1.46986 0.568584 0
M  V30 514 C 51.1854 -2.32946 -0.160753 0
M  V30 515 C 52.1664 -1.44487 -0.897631 0
M  V30 516 O 53.3514 -1.73327 -0.875867 0
M  V30 517 C 50.4814 -3.26494 -1.18403 0
M  V30 518 C 49.4354 -4.24282 -0.562895 0
M  V30 519 C 48.7614 -5.07236 -1.69163 0
M  V30 520 C 50.0614 -5.19989 0.490761 0
M  V30 521 H 51.7554 -2.94175 0.556916 0
M  V30 522 H 49.3014 -1.4146 0.26927 0
M  V30 523 H 51.2544 -3.85477 -1.70251 0
M  V30 524 H 49.9784 -2.63343 -1.93179 0
M  V30 525 H 48.6374 -3.66541 -0.0656164 0
M  V30 526 H 48.2854 -4.4048 -2.42871 0
M  V30 527 H 47.9854 -5.7345 -1.28174 0
M  V30 528 H 49.5094 -5.6908 -2.21314 0
M  V30 529 H 50.9234 -5.73271 0.0579047 0
M  V30 530 H 49.3204 -5.94469 0.820165 0
M  V30 531 H 50.3904 -4.64777 1.3824 0
M  V30 532 N 51.7335 -0.305618 -1.54608 0
M  V30 533 C 52.9635 0.304333 -2.04346 0
M  V30 534 C 53.3715 1.47715 -1.18224 0
M  V30 535 O 52.7145 1.82591 -0.201577 0
M  V30 536 C 52.7765 0.819031 -3.50046 0
M  V30 537 C 52.4405 -0.22912 -4.56425 0
M  V30 538 C 53.4375 -1.05914 -5.08997 0
M  V30 539 C 51.1225 -0.372148 -5.0092 0
M  V30 540 C 53.1165 -2.01809 -6.04609 0
M  V30 541 C 50.8035 -1.33454 -5.9635 0
M  V30 542 C 51.8015 -2.15599 -6.48079 0
M  V30 543 O 51.4895 -3.10205 -7.41639 0
M  V30 544 H 51.2215 0.0693996 -0.672428 0
M  V30 545 H 53.7755 -0.444548 -2.00532 0
M  V30 546 H 52.0055 1.61852 -3.51199 0
M  V30 547 H 53.6945 1.34537 -3.82955 0
M  V30 548 H 54.4605 -0.959538 -4.75413 0
M  V30 549 H 50.3395 0.257304 -4.60281 0
M  V30 550 H 53.8835 -2.65966 -6.44909 0
M  V30 551 H 49.7805 -1.43485 -6.29351 0
M  V30 552 H 50.5485 -3.05237 -7.59455 0
M  V30 553 N 53.2116 1.57565 -0.0334293 0
M  V30 554 C 54.1216 2.13943 0.962572 0
M  V30 555 C 55.1376 1.09276 1.35406 0
M  V30 556 O 56.3136 1.41355 1.4346 0
M  V30 557 C 53.3786 2.65887 2.22497 0
M  V30 558 C 52.4396 3.85286 1.8935 0
M  V30 559 C 51.6726 4.34743 3.09571 0
M  V30 560 O 51.8956 3.83352 4.22371 0
M  V30 561 O 50.8296 5.26538 2.91618 0
M  V30 562 H 54.6556 2.99333 0.513169 0
M  V30 563 H 52.2406 1.4822 0.18743 0
M  V30 564 H 54.1226 2.99346 2.96598 0
M  V30 565 H 52.7976 1.83578 2.6661 0
M  V30 566 H 51.7046 3.56746 1.1262 0
M  V30 567 H 53.0376 4.68771 1.5005 0
M  V30 568 N 54.6897 -0.239769 1.55765 0
M  V30 569 C 56.1057 -0.588624 1.48349 0
M  V30 570 C 56.3057 -1.88005 0.72502 0
M  V30 571 O 55.3617 -2.51186 0.257269 0
M  V30 572 C 56.6747 -0.68474 2.928 0
M  V30 573 C 58.2227 -0.77659 3.03213 0
M  V30 574 C 58.6977 -0.904207 4.48986 0
M  V30 575 N 60.1887 -0.968896 4.52953 0
M  V30 576 C 60.9237 -1.08703 5.63002 0
M  V30 577 N 60.4197 -1.17026 6.82845 0
M  V30 578 N 62.2127 -1.12074 5.50814 0
M  V30 579 H 54.3637 0.607911 2.03515 0
M  V30 580 H 56.6267 0.21083 0.924259 0
M  V30 581 H 56.3327 0.194284 3.51163 0
M  V30 582 H 56.2067 -1.55435 3.43686 0
M  V30 583 H 58.5937 -1.64606 2.44926 0
M  V30 584 H 58.6747 0.118315 2.55526 0
M  V30 585 H 58.3187 -0.0392633 5.07885 0
M  V30 586 H 58.2487 -1.81426 4.9436 0
M  V30 587 H 60.7397 -0.915633 3.6664 0
M  V30 588 H 61.0527 -1.25966 7.62465 0
M  V30 589 H 59.3977 -1.13971 6.85591 0
M  V30 590 H 62.5887 -1.05226 4.5612 0
M  V30 591 H 62.7617 -1.20936 6.36615 0
M  V30 592 N 56.1678 -1.49265 -0.50573 0
M  V30 593 C 57.0978 -1.68495 -1.61653 0
M  V30 594 C 58.0788 -0.53366 -1.61512 0
M  V30 595 O 59.2638 -0.76897 -1.78327 0
M  V30 596 C 56.3938 -1.74709 -3.00157 0
M  V30 597 C 55.3478 -2.89581 -3.15162 0
M  V30 598 C 54.6738 -2.80903 -4.5497 0
M  V30 599 C 55.9738 -4.30578 -2.95634 0
M  V30 600 H 57.6678 -2.61493 -1.45814 0
M  V30 601 H 55.2138 -1.25838 -0.70005 0
M  V30 602 H 57.1668 -1.86748 -3.77761 0
M  V30 603 H 55.8908 -0.783067 -3.17074 0
M  V30 604 H 54.5498 -2.77136 -2.39982 0
M  V30 605 H 54.1978 -1.82419 -4.68756 0
M  V30 606 H 53.8978 -3.57999 -4.65951 0
M  V30 607 H 55.4218 -2.94944 -5.34641 0
M  V30 608 H 56.8358 -4.4373 -3.63011 0
M  V30 609 H 55.2328 -5.0886 -3.18091 0
M  V30 610 H 56.3028 -4.45352 -1.91806 0
M  V30 611 N 57.6459 0.756429 -1.3826 0
M  V30 612 C 58.8739 1.54565 -1.3754 0
M  V30 613 C 59.2889 1.88767 0.0355331 0
M  V30 614 O 58.6459 1.52572 1.0014 0
M  V30 615 C 58.6969 2.84654 -2.22833 0
M  V30 616 O 58.4179 2.51912 -3.5843 0
M  V30 617 C 59.9189 3.78807 -2.30261 0
M  V30 618 H 57.1389 0.478353 -0.470553 0
M  V30 619 H 59.6829 0.936381 -1.81803 0
M  V30 620 H 57.8379 3.41965 -1.8204 0
M  V30 621 H 58.2519 3.35325 -4.03308 0
M  V30 622 H 59.7259 4.67045 -2.94233 0
M  V30 623 H 60.2029 4.19038 -1.31545 0
M  V30 624 H 60.8089 3.2742 -2.71433 0
M  V30 625 N 59.124 1.23083 0.984299 0
M  V30 626 C 60.401 0.9689 1.69917 0
M  V30 627 C 60.781 -0.513604 2.04757 0
M  V30 628 O 60.129 -1.48383 1.73767 0
M  V30 629 C 60.339 1.87518 2.94343 0
M  V30 630 C 61.687 2.13636 3.6694 0
M  V30 631 O 62.711 1.85036 3.04368 0
M  V30 632 O 61.57 2.62119 4.79537 0
M  V30 633 H 58.664 0.365095 0.742048 0
M  V30 634 H 61.21 1.34107 1.03987 0
M  V30 635 H 59.982 2.87756 2.65164 0
M  V30 636 H 59.605 1.50514 3.6801 0
M  V30 637 N 60.6021 -1.18246 1.0419 0
M  V30 638 C 61.8511 -1.87588 0.741194 0
M  V30 639 C 62.1641 -1.81303 -0.734066 0
M  V30 640 O 63.3701 -2.46019 -1.14834 0
M  V30 641 C 61.8261 -3.36538 1.27555 0
M  V30 642 C 61.4341 -3.51349 2.77953 0
M  V30 643 C 63.1781 -4.11273 1.05143 0
M  V30 644 C 61.0851 -4.94265 3.2474 0
M  V30 645 H 60.0151 -0.702622 0.273565 0
M  V30 646 H 62.6661 -1.33601 1.25789 0
M  V30 647 H 61.0481 -3.9 0.686703 0
M  V30 648 H 62.2221 -3.08153 3.42605 0
M  V30 649 H 60.5371 -2.90022 2.98791 0
M  V30 650 H 63.1341 -5.16689 1.37611 0
M  V30 651 H 63.4771 -4.16298 -0.0112774 0
M  V30 652 H 64.0101 -3.63987 1.60495 0
M  V30 653 H 60.7491 -4.94408 4.30396 0
M  V30 654 H 60.2691 -5.38172 2.64823 0
M  V30 655 H 61.9481 -5.62987 3.18834 0
M  V30 656 N 62.0802 -0.821533 -1.34494 0
M  V30 657 C 63.0282 -0.230702 -2.31453 0
M  V30 658 C 64.0222 0.627793 -1.57338 0
M  V30 659 O 65.2282 0.519288 -1.72347 0
M  V30 660 H 61.6032 -0.0558577 -0.749923 0
M  V30 661 H 63.5742 -1.06332 -2.78812 0
M  V30 662 C 62.3232 0.59391 -3.4259 0
M  V30 663 H 61.6462 -0.0573588 -3.99759 0
M  V30 664 H 63.0862 0.973446 -4.12674 0
M  V30 665 C 61.5452 1.76568 -2.86924 0
M  V30 666 O 62.0752 2.8638 -2.81691 0
M  V30 667 N 60.2812 1.58198 -2.43766 0
M  V30 668 H 59.8282 0.68872 -2.48222 0
M  V30 669 H 59.7862 2.36752 -2.06871 0
M  V30 670 N 63.5583 1.46682 -0.576371 0
M  V30 671 C 64.8043 2.03287 -0.0679305 0
M  V30 672 C 65.1593 1.44063 1.27529 0
M  V30 673 O 64.4523 0.593973 1.82161 0
M  V30 674 C 64.6463 3.57345 0.062886 0
M  V30 675 C 64.4753 4.31509 -1.26611 0
M  V30 676 C 63.2453 4.70664 -1.83856 0
M  V30 677 C 65.4433 4.65444 -2.18783 0
M  V30 678 N 63.4253 5.29552 -3.10561 0
M  V30 679 C 64.7963 5.24835 -3.30072 0
M  V30 680 C 66.8513 4.47375 -2.18542 0
M  V30 681 C 65.5543 5.68063 -4.41244 0
M  V30 682 C 67.5803 4.91614 -3.28739 0
M  V30 683 C 66.9423 5.51071 -4.38748 0
M  V30 684 H 63.0413 0.779083 -0.0674836 0
M  V30 685 H 65.6253 1.78918 -0.767877 0
M  V30 686 H 63.7963 3.8144 0.731988 0
M  V30 687 H 65.5283 4.00592 0.575134 0
M  V30 688 H 62.2833 4.53224 -1.37424 0
M  V30 689 H 62.7073 5.63523 -3.75195 0
M  V30 690 H 67.3493 4.00747 -1.34765 0
M  V30 691 H 65.0673 6.13672 -5.25768 0
M  V30 692 H 68.6533 4.79389 -3.29662 0
M  V30 693 H 67.5333 5.84678 -5.22611 0
M  V30 694 N 65.0364 0.313813 1.54444 0
M  V30 695 C 65.9994 -0.54379 2.22656 0
M  V30 696 C 66.9994 -1.05124 1.21678 0
M  V30 697 O 68.1894 -0.945225 1.46325 0
M  V30 698 C 65.3214 -1.75427 2.92298 0
M  V30 699 H 66.5144 0.0523599 2.99854 0
M  V30 700 H 64.0674 0.0647834 1.56166 0
M  V30 701 H 64.8024 -2.38991 2.19211 0
M  V30 702 H 64.5874 -1.39791 3.66334 0
M  V30 703 H 66.0774 -2.36325 3.44297 0
M  V30 704 N 66.5145 -1.57545 0.0417849 0
M  V30 705 C 67.7625 -1.91937 -0.632829 0
M  V30 706 C 68.0835 -0.919978 -1.71934 0
M  V30 707 O 67.3535 0.0366064 -1.95866 0
M  V30 708 H 65.9335 -0.708493 -0.236742 0
M  V30 709 H 68.5955 -1.9468 0.0925745 0
M  V30 710 H 67.6915 -2.92912 -1.07746 0
M  V30 711 N 67.9926 0.231505 -1.5589 0
M  V30 712 C 69.2396 0.957352 -1.78441 0
M  V30 713 C 69.5676 1.84726 -0.60882 0
M  V30 714 O 68.8226 1.91416 0.40725 0
M  V30 715 C 69.1216 1.83577 -3.0665 0
M  V30 716 C 68.7876 1.09993 -4.37278 0
M  V30 717 C 67.4496 0.896629 -4.72773 0
M  V30 718 C 69.8016 0.579558 -5.17968 0
M  V30 719 C 67.1296 0.160896 -5.86479 0
M  V30 720 C 69.4816 -0.142783 -6.32439 0
M  V30 721 C 68.1456 -0.357427 -6.66542 0
M  V30 722 H 67.4156 0.35032 -0.65296 0
M  V30 723 H 70.0626 0.226259 -1.90159 0
M  V30 724 H 68.3676 2.63441 -2.90011 0
M  V30 725 H 70.0646 2.39934 -3.21298 0
M  V30 726 H 66.6546 1.26835 -4.09403 0
M  V30 727 H 70.8386 0.724125 -4.90989 0
M  V30 728 H 66.0946 -0.0157293 -6.11398 0
M  V30 729 H 70.2686 -0.553559 -6.94196 0
M  V30 730 H 67.8956 -0.929466 -7.54497 0
M  V30 731 N 69.4707 1.49531 0.497807 0
M  V30 732 C 70.7007 1.62657 1.27382 0
M  V30 733 C 71.1087 0.298488 1.86831 0
M  V30 734 O 70.4517 -0.72647 1.68725 0
M  V30 735 C 70.5137 2.6393 2.44093 0
M  V30 736 C 70.1777 4.08195 2.05489 0
M  V30 737 C 71.1747 4.949 1.59279 0
M  V30 738 C 68.8597 4.53948 2.15026 0
M  V30 739 C 70.8537 6.25397 1.23113 0
M  V30 740 C 68.5407 5.84458 1.78473 0
M  V30 741 C 69.5387 6.70006 1.32591 0
M  V30 742 O 69.2267 7.98083 0.965327 0
M  V30 743 H 68.9587 0.550429 0.392434 0
M  V30 744 H 71.5127 1.96325 0.603801 0
M  V30 745 H 69.7427 2.25449 3.14181 0
M  V30 746 H 71.4317 2.66552 3.06113 0
M  V30 747 H 72.1977 4.60779 1.51354 0
M  V30 748 H 68.0767 3.87525 2.4969 0
M  V30 749 H 71.6207 6.92125 0.872299 0
M  V30 750 H 67.5177 6.18107 1.86048 0
M  V30 751 H 68.2857 8.11122 1.09652 0
M  V30 752 N 70.9488 -0.749086 1.3866 0
M  V30 753 C 71.8788 -1.8764 1.38973 0
M  V30 754 C 72.8598 -1.68178 0.255004 0
M  V30 755 O 74.0448 -1.88704 0.458754 0
M  V30 756 C 71.1748 -3.25222 1.21851 0
M  V30 757 C 70.1288 -3.59295 2.32575 0
M  V30 758 C 69.4548 -4.95663 2.00555 0
M  V30 759 C 70.7548 -3.63709 3.7485 0
M  V30 760 H 72.4488 -1.87635 2.3331 0
M  V30 761 H 69.9948 -0.901329 1.12303 0
M  V30 762 H 71.9478 -4.03746 1.20695 0
M  V30 763 H 70.6718 -3.25719 0.239775 0
M  V30 764 H 69.3308 -2.83093 2.32925 0
M  V30 765 H 68.9788 -4.92724 1.01154 0
M  V30 766 H 68.6788 -5.19429 2.74714 0
M  V30 767 H 70.2028 -5.7656 2.01024 0
M  V30 768 H 71.6168 -4.32338 3.76506 0
M  V30 769 H 70.0138 -3.98986 4.48252 0
M  V30 770 H 71.0838 -2.63834 4.06841 0
M  V30 771 N 72.4269 -1.23603 -0.977757 0
M  V30 772 C 73.3569 -1.04401 -2.0886 0
M  V30 773 C 74.3379 0.0399052 -1.70053 0
M  V30 774 O 75.5229 -0.125246 -1.93796 0
M  V30 775 C 72.6529 -0.637269 -3.41403 0
M  V30 776 C 71.6069 -1.66883 -3.94124 0
M  V30 777 C 70.9329 -1.11745 -5.22893 0
M  V30 778 C 72.2329 -3.06247 -4.23096 0
M  V30 779 H 73.9269 -1.97316 -2.25182 0
M  V30 780 H 71.4729 -0.950096 -1.08209 0
M  V30 781 H 73.4259 -0.48998 -4.18542 0
M  V30 782 H 72.1499 0.327557 -3.24953 0
M  V30 783 H 70.8089 -1.80416 -3.19133 0
M  V30 784 H 70.4569 -0.143527 -5.02795 0
M  V30 785 H 70.1569 -1.80672 -5.59134 0
M  V30 786 H 71.6809 -0.982067 -6.02651 0
M  V30 787 H 73.0949 -2.96001 -4.90975 0
M  V30 788 H 71.4919 -3.72436 -4.70544 0
M  V30 789 H 72.5619 -3.55041 -3.30263 0
M  V30 790 N 73.905 1.17692 -1.04816 0
M  V30 791 C 74.815 2.25229 -0.65643 0
M  V30 792 C 75.831 1.71018 0.320761 0
M  V30 793 O 77.007 2.00649 0.173805 0
M  V30 794 C 74.072 3.46684 -0.0332629 0
M  V30 795 C 73.133 4.15997 -1.06042 0
M  V30 796 C 72.366 5.31654 -0.466893 0
M  V30 797 O 72.589 5.65777 0.724758 0
M  V30 798 O 71.523 5.89831 -1.1993 0
M  V30 799 H 75.349 2.61016 -1.55255 0
M  V30 800 H 72.934 1.24919 -0.81949 0
M  V30 801 H 74.816 4.20234 0.313256 0
M  V30 802 H 73.491 3.12703 0.836566 0
M  V30 803 H 72.398 3.44482 -1.45886 0
M  V30 804 H 73.731 4.53996 -1.90127 0
M  V30 805 N 75.3831 0.828654 1.34056 0
M  V30 806 C 76.6601 0.341809 1.9259 0
M  V30 807 C 77.0401 -1.17158 1.75605 0
M  V30 808 O 76.3881 -1.98132 1.13824 0
M  V30 809 C 76.5981 0.777453 3.4023 0
M  V30 810 C 77.9461 0.779579 4.17382 0
M  V30 811 O 78.9701 0.7204 3.48839 0
M  V30 812 O 77.8291 0.857996 5.39723 0
M  V30 813 H 74.9231 0.0946085 0.821571 0
M  V30 814 H 77.4691 0.913827 1.42994 0
M  V30 815 H 76.2411 1.8196 3.46419 0
M  V30 816 H 75.8641 0.181444 3.97186 0
M  V30 817 N 76.8612 -1.46375 0.584142 0
M  V30 818 C 78.1382 -1.956 0.0033388 0
M  V30 819 C 78.5182 -1.52679 -1.45782 0
M  V30 820 O 77.8662 -0.77816 -2.14842 0
M  V30 821 C 78.0762 -3.48551 0.176891 0
M  V30 822 C 79.4242 -4.24576 0.0454609 0
M  V30 823 O 80.4482 -3.56043 0.105801 0
M  V30 824 O 79.3072 -5.46427 -0.0890376 0
M  V30 825 H 76.4012 -0.825547 -0.0490066 0
M  V30 826 H 78.9472 -1.56652 0.65256 0
M  V30 827 H 77.7192 -3.72683 1.1926 0
M  V30 828 H 77.3422 -3.94332 -0.508695 0
M  V30 829 N 78.3393 -0.321999 -1.54275 0
M  V30 830 C 79.5673 0.283052 -2.04955 0
M  V30 831 C 79.9823 1.45904 -1.19823 0
M  V30 832 O 79.3393 1.81063 -0.228545 0
M  V30 833 C 79.3903 0.719028 -3.54277 0
M  V30 834 O 79.1113 -0.410175 -4.36176 0
M  V30 835 C 80.6123 1.38705 -4.21041 0
M  V30 836 H 77.8323 0.0584616 -0.668448 0
M  V30 837 H 80.3763 -0.467734 -1.99079 0
M  V30 838 H 78.5313 1.41979 -3.60445 0
M  V30 839 H 78.9453 -0.0669416 -5.24457 0
M  V30 840 H 80.4193 1.64306 -5.2698 0
M  V30 841 H 80.8963 2.33385 -3.72059 0
M  V30 842 H 81.5023 0.728906 -4.19007 0
M  V30 843 N 79.8174 1.5752 -0.0501392 0
M  V30 844 C 80.7474 2.14502 0.922566 0
M  V30 845 C 81.7284 1.06642 1.3252 0
M  V30 846 O 82.9134 1.34577 1.4001 0
M  V30 847 C 80.0434 2.68916 2.19776 0
M  V30 848 C 78.9974 3.8175 1.93523 0
M  V30 849 C 78.3234 4.22677 3.27487 0
M  V30 850 C 79.6234 5.06932 1.25765 0
M  V30 851 H 81.3174 2.9603 0.447952 0
M  V30 852 H 78.8634 1.42401 0.214024 0
M  V30 853 H 80.8164 3.07419 2.88222 0
M  V30 854 H 79.5404 1.84578 2.69441 0
M  V30 855 H 78.1994 3.43718 1.27489 0
M  V30 856 H 77.8474 3.35291 3.74952 0
M  V30 857 H 77.5474 4.98725 3.1072 0
M  V30 858 H 79.0714 4.63779 3.97166 0
M  V30 859 H 80.4854 5.42888 1.84244 0
M  V30 860 H 78.8824 5.88116 1.19328 0
M  V30 861 H 79.9524 4.84337 0.233536 0
M  V30 862 N 81.2955 -0.223234 1.56011 0
M  V30 863 C 82.5415 -0.949279 1.79211 0
M  V30 864 C 82.8745 -1.84054 0.619494 0
M  V30 865 O 82.1495 -1.90726 -0.381317 0
M  V30 866 C 82.4325 -1.78965 3.12479 0
M  V30 867 C 82.2855 -0.924997 4.40186 0
M  V30 868 C 83.6045 -2.76774 3.42175 0
M  V30 869 H 80.7235 -0.343676 0.651963 0
M  V30 870 H 83.3655 -0.218253 1.88742 0
M  V30 871 H 81.5155 -2.41291 3.04485 0
M  V30 872 H 83.1875 -0.318615 4.60198 0
M  V30 873 H 81.4305 -0.230344 4.33188 0
M  V30 874 H 82.1015 -1.54735 5.29869 0
M  V30 875 H 84.5775 -2.24584 3.50287 0
M  V30 876 H 83.4535 -3.32678 4.36597 0
M  V30 877 H 83.7145 -3.54429 2.64258 0
M  V30 878 N 82.7736 -1.49793 -0.48987 0
M  V30 879 C 83.7036 -1.70201 -1.59856 0
M  V30 880 C 84.6846 -0.55076 -1.60937 0
M  V30 881 O 85.8696 -0.787841 -1.77501 0
M  V30 882 C 82.9996 -1.77882 -2.98287 0
M  V30 883 C 81.9536 -2.92907 -3.12073 0
M  V30 884 C 81.2796 -2.85712 -4.51965 0
M  V30 885 C 82.5796 -4.3369 -2.91051 0
M  V30 886 H 84.2736 -2.63025 -1.43032 0
M  V30 887 H 81.8196 -1.26574 -0.686664 0
M  V30 888 H 83.7726 -1.90744 -3.75759 0
M  V30 889 H 82.4966 -0.816653 -3.16225 0
M  V30 890 H 81.1556 -2.79665 -2.37029 0
M  V30 891 H 80.8036 -1.8738 -4.66795 0
M  V30 892 H 80.5036 -3.62921 -4.62128 0
M  V30 893 H 82.0276 -3.00598 -5.31482 0
M  V30 894 H 83.4416 -4.47555 -3.58284 0
M  V30 895 H 81.8386 -5.12205 -3.12675 0
M  V30 896 H 82.9086 -4.47362 -1.87071 0
M  V30 897 N 84.2517 0.741722 -1.39055 0
M  V30 898 C 85.4997 1.49818 -1.35643 0
M  V30 899 C 85.8207 1.94938 0.0491642 0
M  V30 900 O 85.0907 1.68505 0.999141 0
M  V30 901 H 83.6707 0.555755 -0.499144 0
M  V30 902 H 86.3327 0.880957 -1.73854 0
M  V30 903 H 85.4287 2.38348 -2.01486 0
M  V30 904 N 85.7298 1.2412 0.971189 0
M  V30 905 C 87.1408 1.07236 1.52831 0
M  V30 906 C 87.4918 -0.357352 1.92918 0
M  V30 907 O 86.6168 -1.24528 1.76979 0
M  V30 908 C 87.2118 1.94043 2.77728 0
M  V30 909 C 85.7708 1.81394 3.29808 0
M  V30 910 C 84.9178 1.89189 2.02738 0
M  V30 911 H 87.8688 1.37648 0.789864 0
M  V30 912 H 87.8898 1.47066 3.5093 0
M  V30 913 H 87.4018 2.98093 2.4852 0
M  V30 914 H 85.5028 0.801634 3.63874 0
M  V30 915 H 85.6158 2.65294 3.98944 0
M  V30 916 H 83.9798 1.32877 2.17292 0
M  V30 917 H 84.7628 2.94812 1.759 0
M  V30 918 N 87.2079 -1.17134 1.05439 0
M  V30 919 C 88.4549 -1.87456 0.765942 0
M  V30 920 C 88.7829 -1.81189 -0.707153 0
M  V30 921 O 88.0379 -1.21633 -1.5331 0
M  V30 922 C 88.3369 -3.36833 1.19491 0
M  V30 923 C 88.0029 -3.63301 2.67063 0
M  V30 924 C 86.6649 -3.70234 3.07376 0
M  V30 925 C 89.0169 -3.74575 3.62413 0
M  V30 926 C 86.3449 -3.85933 4.41896 0
M  V30 927 C 88.6969 -3.91793 4.9667 0
M  V30 928 C 87.3609 -3.96966 5.36633 0
M  V30 929 H 86.6309 -0.685948 0.280278 0
M  V30 930 H 89.2779 -1.38556 1.32192 0
M  V30 931 H 87.5829 -3.87807 0.557969 0
M  V30 932 H 89.2799 -3.89611 0.948893 0
M  V30 933 H 85.8699 -3.58532 2.34846 0
M  V30 934 H 90.0539 -3.68537 3.32406 0
M  V30 935 H 85.3099 -3.88187 4.72357 0
M  V30 936 H 89.4839 -3.99458 5.70444 0
M  V30 937 H 87.1109 -4.08883 6.40874 0
M  V30 938 N 88.686 -0.835752 -1.33615 0
M  V30 939 C 89.618 -0.224151 -2.28101 0
M  V30 940 C 90.631 0.593331 -1.51603 0
M  V30 941 O 91.82 0.420911 -1.73466 0
M  V30 942 C 88.92 0.703309 -3.31522 0
M  V30 943 C 88.093 -0.0741528 -4.37337 0
M  V30 944 C 87.152 0.776176 -5.20444 0
M  V30 945 O 86.178 0.216506 -5.68788 0
M  V30 946 N 87.38 2.09401 -5.41416 0
M  V30 947 H 90.145 -1.03598 -2.81225 0
M  V30 948 H 87.706 -0.69392 -1.46275 0
M  V30 949 H 89.698 1.27707 -3.84022 0
M  V30 950 H 88.268 1.41585 -2.78698 0
M  V30 951 H 87.488 -0.82928 -3.85378 0
M  V30 952 H 88.776 -0.608863 -5.05144 0
M  V30 953 H 88.174 2.57229 -5.03835 0
M  V30 954 H 86.731 2.61633 -5.96985 0
M  V30 955 N 90.1641 1.46063 -0.591896 0
M  V30 956 C 91.4121 2.01938 -0.0808391 0
M  V30 957 C 91.7331 1.46475 1.28725 0
M  V30 958 O 91.0031 0.652944 1.84698 0
M  V30 959 H 89.5831 0.746516 -0.0268938 0
M  V30 960 H 92.2451 1.79055 -0.769752 0
M  V30 961 H 91.3411 3.12094 -0.0187578 0
M  V30 962 N 91.6422 0.330177 1.54103 0
M  V30 963 C 92.5892 -0.532762 2.24567 0
M  V30 964 C 93.5592 -1.10635 1.23892 0
M  V30 965 O 94.7442 -1.14546 1.5259 0
M  V30 966 C 91.8842 -1.6845 3.01195 0
M  V30 967 C 90.9972 -1.13951 4.167 0
M  V30 968 C 90.1322 -2.25746 4.80845 0
M  V30 969 C 89.1712 -1.6853 5.88442 0
M  V30 970 N 88.3082 -2.74014 6.46421 0
M  V30 971 H 93.1482 0.0746905 2.97906 0
M  V30 972 H 90.6852 0.048632 1.4702 0
M  V30 973 H 92.6432 -2.36234 3.43874 0
M  V30 974 H 91.2732 -2.26314 2.30178 0
M  V30 975 H 90.3252 -0.35301 3.78758 0
M  V30 976 H 91.6372 -0.680892 4.94131 0
M  V30 977 H 90.7912 -3.01422 5.26526 0
M  V30 978 H 89.5302 -2.74947 4.0281 0
M  V30 979 H 88.5352 -0.913543 5.42157 0
M  V30 980 H 89.7602 -1.20198 6.68378 0
M  V30 981 H 87.7062 -3.22494 5.71256 0
M  V30 982 H 87.6232 -2.32735 7.19285 0
M  V30 983 H 88.8912 -3.49499 6.96757 0
M  V30 984 N 93.1203 -1.57491 0.0584922 0
M  V30 985 C 94.3693 -1.92155 -0.613146 0
M  V30 986 C 94.6823 -0.939334 -1.71569 0
M  V30 987 O 95.8883 -1.17829 -2.44599 0
M  V30 988 C 94.3443 -3.41303 -1.14195 0
M  V30 989 C 93.9523 -4.47944 -0.0711265 0
M  V30 990 C 95.6963 -3.84988 -1.78841 0
M  V30 991 C 93.6033 -5.88212 -0.613225 0
M  V30 992 H 92.5333 -0.717162 -0.232796 0
M  V30 993 H 95.1843 -1.83049 0.12857 0
M  V30 994 H 93.5663 -3.45437 -1.93621 0
M  V30 995 H 94.7403 -4.55408 0.702836 0
M  V30 996 H 93.0553 -4.13644 0.478313 0
M  V30 997 H 95.6523 -4.87159 -2.20408 0
M  V30 998 H 95.9953 -3.21632 -2.64308 0
M  V30 999 H 96.5283 -3.83401 -1.06059 0
M  V30 1000 H 93.2673 -6.55183 0.203978 0
M  V30 1001 H 92.7873 -5.84294 -1.35501 0
M  V30 1002 H 94.4663 -6.37687 -1.09383 0
M  V30 1003 N 94.5984 0.214957 -1.56127 0
M  V30 1004 C 95.5614 1.24997 -1.92116 0
M  V30 1005 C 96.5614 1.39467 -0.800344 0
M  V30 1006 O 97.7514 1.37619 -1.06802 0
M  V30 1007 C 94.8834 2.62271 -2.17777 0
M  V30 1008 H 96.0764 0.942875 -2.84693 0
M  V30 1009 H 93.6294 0.455654 -1.49511 0
M  V30 1010 H 94.3644 2.98068 -1.27773 0
M  V30 1011 H 94.1494 2.53143 -2.99434 0
M  V30 1012 H 95.6394 3.36946 -2.46693 0
M  V30 1013 N 96.0765 1.50051 0.48192 0
M  V30 1014 C 97.3165 1.62128 1.24474 0
M  V30 1015 C 97.6805 0.309742 1.89485 0
M  V30 1016 O 98.8815 0.305854 2.67054 0
M  V30 1017 C 97.1525 2.76151 2.26882 0
M  V30 1018 S 98.7115 3.08297 3.12247 0
M  V30 1019 H 95.5295 0.571661 0.422759 0
M  V30 1020 H 98.1315 1.87791 0.54359 0
M  V30 1021 H 96.8355 3.69942 1.77683 0
M  V30 1022 H 96.3665 2.52541 3.0164 0
M  V30 1023 H 98.3815 2.51287 4.27866 0
M  V30 1024 N 97.5546 -0.734337 1.39446 0
M  V30 1025 C 98.8006 -1.49613 1.36908 0
M  V30 1026 C 99.1336 -1.94169 -0.0347829 0
M  V30 1027 O 98.4086 -1.66833 -0.999847 0
M  V30 1028 C 98.6916 -2.73534 2.34203 0
M  V30 1029 C 98.5446 -2.34993 3.83534 0
M  V30 1030 C 99.8636 -3.75635 2.29317 0
M  V30 1031 H 96.9826 -0.542714 0.498629 0
M  V30 1032 H 99.6246 -0.839597 1.70443 0
M  V30 1033 H 97.7746 -3.29553 2.05736 0
M  V30 1034 H 99.4466 -1.84601 4.22753 0
M  V30 1035 H 97.6896 -1.67213 4.00278 0
M  V30 1036 H 98.3606 -3.23738 4.47099 0
M  V30 1037 H 100.837 -3.29203 2.54489 0
M  V30 1038 H 99.7126 -4.60008 2.99472 0
M  V30 1039 H 99.9736 -4.22603 1.29842 0
M  V30 1040 N 99.0327 -1.24633 -0.964593 0
M  V30 1041 C 100.449 -1.01239 -1.2338 0
M  V30 1042 C 100.649 0.2769 -1.99588 0
M  V30 1043 O 99.7047 0.992241 -2.32187 0
M  V30 1044 C 101.018 -2.22937 -2.01791 0
M  V30 1045 C 102.566 -2.27594 -2.14872 0
M  V30 1046 C 103.041 -3.48921 -2.96678 0
M  V30 1047 N 104.532 -3.49257 -3.04259 0
M  V30 1048 C 105.267 -4.39795 -3.67924 0
M  V30 1049 N 104.763 -5.40591 -4.33281 0
M  V30 1050 N 106.556 -4.275 -3.64966 0
M  V30 1051 H 98.7067 -2.0748 -0.454502 0
M  V30 1052 H 100.97 -0.910647 -0.26349 0
M  V30 1053 H 100.676 -3.16587 -1.53184 0
M  V30 1054 H 100.55 -2.25306 -3.02518 0
M  V30 1055 H 102.937 -1.34473 -2.6268 0
M  V30 1056 H 103.018 -2.2925 -1.13482 0
M  V30 1057 H 102.662 -4.42359 -2.49562 0
M  V30 1058 H 102.592 -3.4451 -3.98272 0
M  V30 1059 H 105.083 -2.76337 -2.57771 0
M  V30 1060 H 105.396 -6.05904 -4.79687 0
M  V30 1061 H 103.741 -5.44475 -4.3194 0
M  V30 1062 H 106.932 -3.47987 -3.13086 0
M  V30 1063 H 107.105 -4.98258 -4.14298 0
M  V30 1064 N 100.511 1.16574 -1.06058 0
M  V30 1065 C 101.76 1.86385 -0.770944 0
M  V30 1066 C 102.073 1.82448 0.705129 0
M  V30 1067 O 103.279 2.47815 1.10905 0
M  V30 1068 C 101.735 3.34466 -1.32893 0
M  V30 1069 C 101.343 3.46883 -2.83507 0
M  V30 1070 C 103.087 4.09548 -1.11672 0
M  V30 1071 C 100.994 4.89036 -3.32562 0
M  V30 1072 H 99.9238 0.698181 -0.284709 0
M  V30 1073 H 102.575 1.31583 -1.27899 0
M  V30 1074 H 100.957 3.88859 -0.748662 0
M  V30 1075 H 102.131 3.02663 -3.47465 0
M  V30 1076 H 100.446 2.85232 -3.03368 0
M  V30 1077 H 103.043 5.14434 -1.45814 0
M  V30 1078 H 103.386 4.16264 -0.0549535 0
M  V30 1079 H 103.919 3.61387 -1.66265 0
M  V30 1080 H 100.658 4.87499 -4.38207 0
M  V30 1081 H 100.178 5.3389 -2.73351 0
M  V30 1082 H 101.857 5.57843 -3.2775 0
M  V30 1083 N 101.989 0.842826 1.3317 0
M  V30 1084 C 103.4 0.496651 1.79973 0
M  V30 1085 C 103.751 -0.984641 1.69703 0
M  V30 1086 O 102.876 -1.76743 1.24863 0
M  V30 1087 C 103.471 0.894727 3.26772 0
M  V30 1088 C 102.03 0.600629 3.71577 0
M  V30 1089 C 101.177 1.10091 2.5451 0
M  V30 1090 H 104.128 1.03116 1.20635 0
M  V30 1091 H 104.149 0.206347 3.7994 0
M  V30 1092 H 103.661 1.97287 3.34215 0
M  V30 1093 H 101.762 -0.467284 3.69658 0
M  V30 1094 H 101.875 1.15863 4.64879 0
M  V30 1095 H 100.239 0.52162 2.49301 0
M  V30 1096 H 101.022 2.18591 2.64713 0
M  V30 1097 N 103.467 -1.45747 0.599634 0
M  V30 1098 C 104.713 -2.02592 0.0918643 0
M  V30 1099 C 105.046 -1.46806 -1.27128 0
M  V30 1100 O 104.321 -0.639658 -1.83681 0
M  V30 1101 C 104.604 -3.60073 0.0443398 0
M  V30 1102 C 104.457 -4.26208 1.43759 0
M  V30 1103 C 105.776 -4.35309 -0.647608 0
M  V30 1104 H 102.895 -0.736175 0.034857 0
M  V30 1105 H 105.537 -1.73694 0.770081 0
M  V30 1106 H 103.687 -3.84823 -0.533224 0
M  V30 1107 H 105.359 -4.12668 2.06162 0
M  V30 1108 H 103.602 -3.84916 2.00056 0
M  V30 1109 H 104.273 -5.35069 1.35665 0
M  V30 1110 H 106.749 -4.15805 -0.156776 0
M  V30 1111 H 105.625 -5.45038 -0.649942 0
M  V30 1112 H 105.886 -4.07598 -1.71219 0
M  V30 1113 N 104.945 -0.338344 -1.53925 0
M  V30 1114 C 106.193 0.259245 -2.0043 0
M  V30 1115 C 106.514 1.51484 -1.22791 0
M  V30 1116 O 105.784 1.93037 -0.33368 0
M  V30 1117 H 104.364 0.0987845 -0.740439 0
M  V30 1118 H 107.026 -0.458302 -1.89435 0
M  V30 1119 H 106.122 0.505334 -3.07982 0
M  V30 1120 N 106.423 1.57458 -0.0668435 0
M  V30 1121 C 107.839 1.56947 0.289772 0
M  V30 1122 C 108.039 1.07584 1.70376 0
M  V30 1123 O 107.095 0.739486 2.41429 0
M  V30 1124 C 108.408 3.0052 0.103943 0
M  V30 1125 C 109.956 3.12517 0.173857 0
M  V30 1126 C 110.431 4.57997 0.0163682 0
M  V30 1127 N 111.922 4.63144 0.0721352 0
M  V30 1128 C 112.657 5.73394 -0.0253794 0
M  V30 1129 N 112.153 6.92576 -0.176133 0
M  V30 1130 N 113.946 5.62091 0.0313305 0
M  V30 1131 H 106.097 1.87863 -0.991027 0
M  V30 1132 H 108.36 0.86583 -0.38606 0
M  V30 1133 H 108.066 3.40729 -0.871572 0
M  V30 1134 H 107.94 3.67304 0.858366 0
M  V30 1135 H 110.327 2.72197 1.13985 0
M  V30 1136 H 110.408 2.48381 -0.611586 0
M  V30 1137 H 110.052 4.99005 -0.946374 0
M  V30 1138 H 109.982 5.20158 0.821153 0
M  V30 1139 H 112.473 3.77436 0.187263 0
M  V30 1140 H 112.786 7.72418 -0.242821 0
M  V30 1141 H 111.131 6.94678 -0.211429 0
M  V30 1142 H 114.322 4.67867 0.147773 0
M  V30 1143 H 114.495 6.47982 -0.048121 0
M  V30 1144 N 107.901 -0.206675 1.56239 0
M  V30 1145 C 109.149 -0.927007 1.79586 0
M  V30 1146 C 109.47 -1.8427 0.637929 0
M  V30 1147 O 108.74 -1.92849 -0.344398 0
M  V30 1148 H 107.32 -0.345292 0.662407 0
M  V30 1149 H 109.982 -0.21496 1.93711 0
M  V30 1150 H 109.078 -1.52501 2.72305 0
M  V30 1151 N 109.379 -1.50304 -0.473955 0
M  V30 1152 C 110.625 -1.61389 -1.22806 0
M  V30 1153 C 110.958 -0.311955 -1.91678 0
M  V30 1154 O 110.233 0.686384 -1.81986 0
M  V30 1155 C 110.516 -2.79219 -2.27396 0
M  V30 1156 C 110.369 -4.19286 -1.62848 0
M  V30 1157 C 111.688 -2.92614 -3.28732 0
M  V30 1158 H 108.807 -0.587399 -0.445119 0
M  V30 1159 H 111.449 -1.82681 -0.522265 0
M  V30 1160 H 109.599 -2.61195 -2.87592 0
M  V30 1161 H 111.271 -4.48892 -1.06271 0
M  V30 1162 H 109.514 -4.23677 -0.931693 0
M  V30 1163 H 110.185 -4.97655 -2.38838 0
M  V30 1164 H 112.661 -3.09105 -2.78556 0
M  V30 1165 H 111.537 -3.76688 -3.99246 0
M  V30 1166 H 111.798 -2.03107 -3.92683 0
M  V30 1167 N 110.857 0.726932 -1.39834 0
M  V30 1168 C 112.097 1.4992 -1.38936 0
M  V30 1169 C 112.461 1.91996 0.0126883 0
M  V30 1170 O 113.662 2.68399 0.146715 0
M  V30 1171 C 111.933 2.70013 -2.34153 0
M  V30 1172 S 113.492 3.59563 -2.51515 0
M  V30 1173 H 110.31 0.51271 -0.492595 0
M  V30 1174 H 112.912 0.85107 -1.76003 0
M  V30 1175 H 111.616 2.37254 -3.34871 0
M  V30 1176 H 111.147 3.39748 -1.98331 0
M  V30 1177 H 113.162 4.63973 -1.75909 0
M  V30 1178 N 112.336 1.25143 0.95797 0
M  V30 1179 C 113.584 1.09476 1.69881 0
M  V30 1180 C 113.905 -0.365502 1.91544 0
M  V30 1181 O 113.175 -1.25985 1.50015 0
M  V30 1182 H 111.755 0.402128 0.629525 0
M  V30 1183 H 114.417 1.57214 1.15194 0
M  V30 1184 H 113.513 1.60046 2.6794 0
M  V30 1185 N 113.814 -1.1601 1.06675 0
M  V30 1186 C 115.042 -1.90527 0.806667 0
M  V30 1187 C 115.457 -1.77643 -0.639396 0
M  V30 1188 O 114.814 -1.12369 -1.43803 0
M  V30 1189 C 114.865 -3.41106 1.19705 0
M  V30 1190 O 114.586 -3.53608 2.58636 0
M  V30 1191 C 116.087 -4.32663 0.965266 0
M  V30 1192 H 113.307 -0.604053 0.292166 0
M  V30 1193 H 115.851 -1.47026 1.4214 0
M  V30 1194 H 114.006 -3.82296 0.626774 0
M  V30 1195 H 114.42 -4.47011 2.74375 0
M  V30 1196 H 115.894 -5.36763 1.288 0
M  V30 1197 H 116.371 -4.39089 -0.0987936 0
M  V30 1198 H 116.977 -3.97206 1.52011 0
M  V30 1199 N 115.292 -0.849877 -1.32721 0
M  V30 1200 C 116.255 -0.296122 -2.27279 0
M  V30 1201 C 117.255 0.541458 -1.5141 0
M  V30 1202 O 118.445 0.353658 -1.70572 0
M  V30 1203 C 115.577 0.581579 -3.35902 0
M  V30 1204 H 116.77 -1.13064 -2.77771 0
M  V30 1205 H 114.323 -0.62383 -1.43311 0
M  V30 1206 H 115.058 1.43809 -2.9067 0
M  V30 1207 H 114.843 -0.0178814 -3.92096 0
M  V30 1208 H 116.333 0.961951 -4.0637 0
M  V30 1209 N 116.77 1.45427 -0.607355 0
M  V30 1210 C 118.016 2.0254 -0.102607 0
M  V30 1211 C 118.349 1.47478 1.26348 0
M  V30 1212 O 117.624 0.64939 1.83339 0
M  V30 1213 C 117.907 3.60044 -0.0634347 0
M  V30 1214 C 117.76 4.2544 -1.46017 0
M  V30 1215 C 119.079 4.35646 0.624514 0
M  V30 1216 H 116.198 0.73598 -0.0387607 0
M  V30 1217 H 118.84 1.73284 -0.779282 0
M  V30 1218 H 116.99 3.85101 0.512808 0
M  V30 1219 H 118.662 4.11569 -2.08347 0
M  V30 1220 H 116.905 3.83849 -2.02094 0
M  V30 1221 H 117.576 5.34342 -1.385 0
M  V30 1222 H 120.052 4.15882 0.134723 0
M  V30 1223 H 118.928 5.45376 0.621028 0
M  V30 1224 H 119.189 4.08501 1.69055 0
M  V30 1225 N 118.248 0.346503 1.53744 0
M  V30 1226 C 119.211 -0.496439 2.23759 0
M  V30 1227 C 120.211 -1.0252 1.2388 0
M  V30 1228 O 121.401 -0.913974 1.48297 0
M  V30 1229 C 118.533 -1.69187 2.95954 0
M  V30 1230 H 119.726 0.115952 2.99676 0
M  V30 1231 H 117.279 0.0978939 1.55993 0
M  V30 1232 H 118.014 -2.34288 2.24231 0
M  V30 1233 H 117.799 -1.31989 3.69217 0
M  V30 1234 H 119.289 -2.28969 3.49232 0
M  V30 1235 N 119.726 -1.57421 0.075193 0
M  V30 1236 C 121.142 -1.57099 -0.281444 0
M  V30 1237 C 121.342 -1.08486 -1.69803 0
M  V30 1238 O 120.398 -0.752279 -2.41033 0
M  V30 1239 C 121.711 -3.00571 -0.0880041 0
M  V30 1240 C 123.259 -3.12605 -0.157281 0
M  V30 1241 C 123.734 -4.57999 0.0079207 0
M  V30 1242 N 125.225 -4.63176 -0.0475725 0
M  V30 1243 C 125.96 -5.73373 0.0557876 0
M  V30 1244 N 125.456 -6.92473 0.21286 0
M  V30 1245 N 127.249 -5.621 -0.00152098 0
M  V30 1246 H 119.4 -1.87335 1.00098 0
M  V30 1247 H 121.663 -0.86377 0.390646 0
M  V30 1248 H 121.369 -3.40262 0.889629 0
M  V30 1249 H 121.243 -3.67754 -0.838875 0
M  V30 1250 H 123.63 -2.72798 -1.1254 0
M  V30 1251 H 123.711 -2.48053 0.62475 0
M  V30 1252 H 123.355 -4.98496 0.972824 0
M  V30 1253 H 123.285 -5.20586 -0.793556 0
M  V30 1254 H 125.776 -3.7753 -0.167244 0
M  V30 1255 H 126.089 -7.72279 0.283781 0
M  V30 1256 H 124.434 -6.94556 0.248267 0
M  V30 1257 H 127.625 -4.67938 -0.122958 0
M  V30 1258 H 127.798 -6.47948 0.0824844 0
M  V30 1259 N 121.204 0.198386 -1.56346 0
M  V30 1260 C 122.152 1.26538 -1.95169 0
M  V30 1261 C 123.146 1.47295 -0.836685 0
M  V30 1262 O 124.352 1.48195 -1.02167 0
M  V30 1263 H 120.727 0.424744 -0.620561 0
M  V30 1264 H 122.698 0.910904 -2.84157 0
M  V30 1265 C 121.447 2.6035 -2.30463 0
M  V30 1266 H 120.77 2.45192 -3.15786 0
M  V30 1267 H 122.21 3.33762 -2.61494 0
M  V30 1268 C 120.669 3.17096 -1.13806 0
M  V30 1269 O 121.199 3.99588 -0.41135 0
M  V30 1270 N 119.405 2.75795 -0.915736 0
M  V30 1271 H 118.952 2.08816 -1.50843 0
M  V30 1272 H 118.91 3.14101 -0.136979 0
M  V30 1273 N 122.682 1.50554 0.465978 0
M  V30 1274 C 123.614 1.65949 1.58093 0
M  V30 1275 C 124.627 0.540827 1.53554 0
M  V30 1276 O 125.816 0.814187 1.5885 0
M  V30 1277 C 122.916 1.63261 2.96983 0
M  V30 1278 C 122.089 2.91245 3.26336 0
M  V30 1279 C 121.148 2.8113 4.44806 0
M  V30 1280 O 120.174 3.55086 4.44862 0
M  V30 1281 N 121.376 1.95032 5.46756 0
M  V30 1282 H 124.141 2.62122 1.45301 0
M  V30 1283 H 121.702 1.48082 0.65448 0
M  V30 1284 H 123.694 1.54101 3.74212 0
M  V30 1285 H 122.264 0.748032 3.03518 0
M  V30 1286 H 121.484 3.14493 2.37672 0
M  V30 1287 H 122.772 3.76022 3.42761 0
M  V30 1288 H 122.17 1.3427 5.49534 0
M  V30 1289 H 120.727 1.91772 6.2295 0
M  V30 1290 N 124.16 -0.719506 1.40217 0
M  V30 1291 C 125.406 -1.48152 1.38488 0
M  V30 1292 C 125.739 -1.94195 -0.0141867 0
M  V30 1293 O 125.014 -1.67884 -0.982096 0
M  V30 1294 C 125.297 -2.71035 2.37091 0
M  V30 1295 C 125.15 -2.30912 3.86005 0
M  V30 1296 C 126.469 -3.73182 2.33288 0
M  V30 1297 H 123.588 -0.537395 0.504357 0
M  V30 1298 H 126.23 -0.821472 1.71324 0
M  V30 1299 H 124.38 -3.27352 2.0922 0
M  V30 1300 H 126.052 -1.80107 4.24687 0
M  V30 1301 H 124.295 -1.62958 4.02029 0
M  V30 1302 H 124.966 -3.18978 4.50508 0
M  V30 1303 H 127.442 -3.26485 2.57966 0
M  V30 1304 H 126.318 -4.56806 3.04334 0
M  V30 1305 H 126.579 -4.21202 1.34317 0
M  V30 1306 N 125.638 -1.25649 -0.95132 0
M  V30 1307 C 126.57 -1.02112 -2.05197 0
M  V30 1308 C 127.583 0.0150571 -1.62793 0
M  V30 1309 O 128.772 -0.223874 -1.77091 0
M  V30 1310 C 125.872 -0.522361 -3.3485 0
M  V30 1311 C 125.045 -1.62546 -4.06076 0
M  V30 1312 C 124.104 -1.12649 -5.14001 0
M  V30 1313 O 123.13 -1.82156 -5.39266 0
M  V30 1314 N 124.332 0.03047 -5.80492 0
M  V30 1315 H 127.097 -1.96885 -2.25957 0
M  V30 1316 H 124.658 -1.16899 -1.1201 0
M  V30 1317 H 126.65 -0.172961 -4.0433 0
M  V30 1318 H 125.22 0.33151 -3.10837 0
M  V30 1319 H 124.44 -2.14628 -3.30649 0
M  V30 1320 H 125.728 -2.36644 -4.50419 0
M  V30 1321 H 125.126 0.611169 -5.62389 0
M  V30 1322 H 123.683 0.320875 -6.5101 0
M  V30 1323 N 127.117 1.15442 -1.07289 0
M  V30 1324 C 128.533 1.38201 -0.798288 0
M  V30 1325 C 128.733 1.92429 0.597769 0
M  V30 1326 O 127.789 2.12962 1.3566 0
M  V30 1327 C 129.102 2.35357 -1.87156 0
M  V30 1328 C 130.65 2.49021 -1.89624 0
M  V30 1329 C 131.125 3.49468 -2.96034 0
M  V30 1330 N 132.616 3.57003 -2.95132 0
M  V30 1331 C 133.351 4.34543 -3.74112 0
M  V30 1332 N 132.847 5.15421 -4.6294 0
M  V30 1333 N 134.64 4.29625 -3.62462 0
M  V30 1334 H 126.791 0.78584 -1.97328 0
M  V30 1335 H 129.054 0.408065 -0.855679 0
M  V30 1336 H 128.76 2.02626 -2.87464 0
M  V30 1337 H 128.634 3.35129 -1.73114 0
M  V30 1338 H 131.021 2.81051 -0.899687 0
M  V30 1339 H 131.102 1.4925 -2.07745 0
M  V30 1340 H 130.746 3.18173 -3.95889 0
M  V30 1341 H 130.676 4.48992 -2.75161 0
M  V30 1342 H 133.167 2.99276 -2.30743 0
M  V30 1343 H 133.48 5.7183 -5.19837 0
M  V30 1344 H 131.825 5.14729 -4.66989 0
M  V30 1345 H 135.016 3.65505 -2.92444 0
M  V30 1346 H 135.189 4.89807 -4.24256 0
M  V30 1347 N 128.595 0.856903 1.32268 0
M  V30 1348 C 129.844 0.457599 1.96441 0
M  V30 1349 C 130.157 -0.992426 1.68553 0
M  V30 1350 O 131.363 -1.49727 2.26482 0
M  V30 1351 C 129.819 0.767358 3.51624 0
M  V30 1352 C 129.427 2.23326 3.88367 0
M  V30 1353 C 131.171 0.435887 4.22256 0
M  V30 1354 C 129.078 2.48613 5.36606 0
M  V30 1355 H 128.008 0.167387 0.735185 0
M  V30 1356 H 130.659 1.048 1.5063 0
M  V30 1357 H 129.041 0.106367 3.95857 0
M  V30 1358 H 130.215 2.93623 3.55137 0
M  V30 1359 H 128.53 2.52948 3.30766 0
M  V30 1360 H 131.127 0.602202 5.31298 0
M  V30 1361 H 131.47 -0.622672 4.11617 0
M  V30 1362 H 132.003 1.05286 3.83614 0
M  V30 1363 H 128.742 3.53101 5.52268 0
M  V30 1364 H 128.262 1.82896 5.71235 0
M  V30 1365 H 129.941 2.32676 6.03714 0
M  V30 1366 N 130.073 -1.45103 0.615059 0
M  V30 1367 C 130.983 -2.34382 -0.101034 0
M  V30 1368 C 131.999 -1.51681 -0.852585 0
M  V30 1369 O 133.175 -1.8446 -0.808484 0
M  V30 1370 C 130.24 -3.29417 -1.08099 0
M  V30 1371 C 129.301 -4.28025 -0.330577 0
M  V30 1372 C 128.534 -5.1852 -1.26385 0
M  V30 1373 O 128.757 -5.12598 -2.50198 0
M  V30 1374 O 127.691 -5.97122 -0.756866 0
M  V30 1375 H 131.517 -2.97033 0.632855 0
M  V30 1376 H 129.102 -1.4461 0.375293 0
M  V30 1377 H 130.984 -3.87958 -1.6452 0
M  V30 1378 H 129.659 -2.69321 -1.79577 0
M  V30 1379 H 128.566 -3.73078 0.276283 0
M  V30 1380 H 129.899 -4.90997 0.343866 0
M  V30 1381 N 131.551 -0.354651 -1.53558 0
M  V30 1382 C 132.828 0.294281 -1.93374 0
M  V30 1383 C 133.208 1.67313 -1.28723 0
M  V30 1384 O 132.556 2.24179 -0.442247 0
M  V30 1385 C 132.766 0.355445 -3.47185 0
M  V30 1386 C 134.114 0.601007 -4.20325 0
M  V30 1387 O 135.138 0.437106 -3.53508 0
M  V30 1388 O 133.997 0.919322 -5.38712 0
M  V30 1389 H 131.091 0.174033 -0.808481 0
M  V30 1390 H 133.637 -0.406638 -1.64756 0
M  V30 1391 H 132.409 -0.611729 -3.86489 0
M  V30 1392 H 132.032 1.1027 -3.82003 0
M  V30 1393 N 133.029 1.57378 -0.0835403 0
M  V30 1394 C 134.275 1.94217 0.583733 0
M  V30 1395 C 134.608 0.964653 1.68547 0
M  V30 1396 O 133.883 -0.00422258 1.945 0
M  V30 1397 C 134.166 3.41253 1.14972 0
M  V30 1398 C 134.019 4.49768 0.0538277 0
M  V30 1399 C 135.338 3.89352 2.05166 0
M  V30 1400 H 132.457 0.706233 0.210724 0
M  V30 1401 H 135.099 1.89392 -0.1519 0
M  V30 1402 H 133.249 3.45496 1.77665 0
M  V30 1403 H 134.921 4.57641 -0.579851 0
M  V30 1404 H 133.164 4.29432 -0.614068 0
M  V30 1405 H 133.835 5.49817 0.490452 0
M  V30 1406 H 136.311 3.87189 1.52393 0
M  V30 1407 H 135.187 4.92822 2.41698 0
M  V30 1408 H 135.448 3.27973 2.96456 0
M  V30 1409 N 134.507 -0.190092 1.56449 0
M  V30 1410 C 135.457 -1.23977 1.91347 0
M  V30 1411 C 136.441 -1.40747 0.779693 0
M  V30 1412 O 137.633 -1.43033 1.04262 0
M  V30 1413 C 134.762 -2.58347 2.26079 0
M  V30 1414 C 133.848 -2.4535 3.45925 0
M  V30 1415 N 134.239 -2.02039 4.63696 0
M  V30 1416 C 132.537 -2.76229 3.50162 0
M  V30 1417 C 133.238 -2.01053 5.4585 0
M  V30 1418 N 132.214 -2.42747 4.8639 0
M  V30 1419 H 136.016 -0.896318 2.79899 0
M  V30 1420 H 133.53 -0.398496 1.57435 0
M  V30 1421 H 135.527 -3.34173 2.49267 0
M  V30 1422 H 134.187 -2.93512 1.38856 0
M  V30 1423 H 135.198 -1.7267 4.88268 0
M  V30 1424 H 131.875 -3.15556 2.73369 0
M  V30 1425 H 133.265 -1.69426 6.50188 0
M  V30 1426 N 135.985 -1.50799 -0.457987 0
M  V30 1427 C 137.231 -1.62683 -1.21088 0
M  V30 1428 C 137.564 -0.332268 -1.91336 0
M  V30 1429 O 136.839 0.667043 -1.82704 0
M  V30 1430 C 137.122 -2.81615 -2.24422 0
M  V30 1431 C 136.975 -4.20989 -1.58392 0
M  V30 1432 C 138.294 -2.96085 -3.2561 0
M  V30 1433 H 135.413 -0.592087 -0.438864 0
M  V30 1434 H 138.055 -1.83225 -0.50286 0
M  V30 1435 H 136.205 -2.64231 -2.84806 0
M  V30 1436 H 137.877 -4.49994 -1.01504 0
M  V30 1437 H 136.12 -4.24641 -0.886704 0
M  V30 1438 H 136.791 -5.0016 -2.33547 0
M  V30 1439 H 139.267 -3.12042 -2.75262 0
M  V30 1440 H 138.143 -3.80902 -3.95228 0
M  V30 1441 H 138.404 -2.0726 -3.90507 0
M  V30 1442 N 137.463 0.71206 -1.40597 0
M  V30 1443 C 138.71 1.47197 -1.39065 0
M  V30 1444 C 139.038 1.94499 0.00583891 0
M  V30 1445 O 138.293 1.68752 0.99102 0
M  V30 1446 C 138.592 2.71039 -2.32965 0
M  V30 1447 C 138.258 2.42484 -3.80148 0
M  V30 1448 C 136.92 2.34406 -4.20247 0
M  V30 1449 C 139.272 2.18598 -4.73143 0
M  V30 1450 C 136.6 2.00516 -5.51371 0
M  V30 1451 C 138.952 1.8622 -6.0457 0
M  V30 1452 C 137.616 1.76626 -6.43708 0
M  V30 1453 H 136.886 0.538634 -0.508876 0
M  V30 1454 H 139.533 0.815325 -1.73276 0
M  V30 1455 H 137.838 3.41558 -1.91951 0
M  V30 1456 H 139.535 3.29138 -2.29061 0
M  V30 1457 H 136.125 2.49659 -3.4838 0
M  V30 1458 H 140.309 2.23793 -4.42979 0
M  V30 1459 H 135.565 1.91628 -5.80593 0
M  V30 1460 H 139.739 1.66752 -6.76141 0
M  V30 1461 H 137.366 1.50133 -7.45228 0
M  V30 1462 N 138.941 1.26152 0.944643 0
M  V30 1463 C 140.218 1.02247 1.66748 0
M  V30 1464 C 140.598 -0.448202 2.06287 0
M  V30 1465 O 139.946 -1.42779 1.78399 0
M  V30 1466 C 140.156 1.96788 2.88228 0
M  V30 1467 C 141.504 2.25201 3.59958 0
M  V30 1468 O 142.528 1.94626 2.98327 0
M  V30 1469 O 141.387 2.77242 4.70956 0
M  V30 1470 H 138.481 0.388517 0.730057 0
M  V30 1471 H 141.027 1.37348 0.99668 0
M  V30 1472 H 139.799 2.96047 2.55875 0
M  V30 1473 H 139.422 1.62145 3.63035 0
M  V30 1474 N 140.419 -1.14872 1.07899 0
M  V30 1475 C 141.667 -1.85422 0.803941 0
M  V30 1476 C 141.988 -1.83051 -0.67211 0
M  V30 1477 O 141.258 -1.27532 -1.48703 0
M  V30 1478 H 139.838 -0.686537 0.294408 0
M  V30 1479 H 142.5 -1.39226 1.3639 0
M  V30 1480 H 141.596 -2.90399 1.14346 0
M  V30 1481 N 141.898 -0.863906 -1.31812 0
M  V30 1482 C 142.848 -0.286898 -2.26188 0
M  V30 1483 C 143.832 0.572577 -1.50367 0
M  V30 1484 O 145.024 0.420447 -1.71934 0
M  V30 1485 C 142.153 0.515849 -3.39402 0
M  V30 1486 C 141.239 -0.356531 -4.22599 0
M  V30 1487 N 141.63 -1.44716 -4.84656 0
M  V30 1488 C 139.928 -0.147898 -4.45755 0
M  V30 1489 C 140.629 -1.98462 -5.46798 0
M  V30 1490 N 139.605 -1.28247 -5.28255 0
M  V30 1491 H 143.407 -1.12055 -2.717 0
M  V30 1492 H 140.921 -0.711012 -1.46008 0
M  V30 1493 H 142.918 0.945701 -4.06032 0
M  V30 1494 H 141.578 1.34718 -2.95434 0
M  V30 1495 H 142.589 -1.83008 -4.84488 0
M  V30 1496 H 139.266 0.647973 -4.12441 0
M  V30 1497 H 140.656 -2.89932 -6.06126 0
M  V30 1498 N 143.376 1.44774 -0.622745 0
M  V30 1499 C 144.625 2.01334 -0.121397 0
M  V30 1500 C 144.938 1.49505 1.26125 0
M  V30 1501 O 146.144 1.98139 1.85616 0
M  V30 1502 C 144.6 3.59516 -0.166298 0
M  V30 1503 C 144.208 4.20342 -1.54974 0
M  V30 1504 C 145.952 4.23582 0.279021 0
M  V30 1505 C 143.859 5.70721 -1.55021 0
M  V30 1506 H 142.789 0.752851 -0.0416172 0
M  V30 1507 H 145.44 1.66083 -0.780309 0
M  V30 1508 H 143.822 3.92027 0.559557 0
M  V30 1509 H 144.996 3.99381 -2.29851 0
M  V30 1510 H 143.311 3.68529 -1.93843 0
M  V30 1511 H 145.908 5.33868 0.298083 0
M  V30 1512 H 146.251 3.95327 1.30471 0
M  V30 1513 H 146.784 3.95843 -0.394063 0
M  V30 1514 H 143.523 6.03698 -2.55399 0
M  V30 1515 H 143.043 5.93829 -0.844245 0
M  V30 1516 H 144.722 6.34203 -1.28047 0
M  V30 1517 N 144.854 0.36279 1.53368 0
M  V30 1518 C 145.817 -0.472679 2.24273 0
M  V30 1519 C 146.817 -1.012 1.24961 0
M  V30 1520 O 148.007 -0.898194 1.49259 0
M  V30 1521 C 145.139 -1.66039 2.97731 0
M  V30 1522 H 146.332 0.14773 2.99536 0
M  V30 1523 H 143.885 0.114434 1.55881 0
M  V30 1524 H 144.62 -2.31896 2.26704 0
M  V30 1525 H 144.405 -1.28066 3.70596 0
M  V30 1526 H 145.895 -2.25252 3.51641 0
M  V30 1527 N 146.332 -1.57332 0.0918853 0
M  V30 1528 C 147.572 -1.96117 -0.575988 0
M  V30 1529 C 147.936 -0.972499 -1.65549 0
M  V30 1530 O 149.137 -1.24872 -2.38034 0
M  V30 1531 C 147.408 -3.39407 -1.11973 0
M  V30 1532 S 148.967 -4.00185 -1.79992 0
M  V30 1533 H 145.785 -0.685682 -0.188045 0
M  V30 1534 H 148.387 -1.94755 0.170525 0
M  V30 1535 H 147.091 -4.09131 -0.322504 0
M  V30 1536 H 146.622 -3.44358 -1.90214 0
M  V30 1537 H 148.637 -3.88728 -3.08391 0
M  V30 1538 N 147.81 0.181792 -1.56548 0
M  V30 1539 C 149.087 0.926765 -1.72251 0
M  V30 1540 C 149.467 2.00831 -0.650386 0
M  V30 1541 O 148.815 2.26008 0.336521 0
M  V30 1542 C 149.025 1.50106 -3.1507 0
M  V30 1543 C 150.373 1.97805 -3.75711 0
M  V30 1544 O 151.397 1.59922 -3.18282 0
M  V30 1545 O 150.256 2.67555 -4.76525 0
M  V30 1546 H 147.35 0.435506 -0.703039 0
M  V30 1547 H 149.896 0.170443 -1.68842 0
M  V30 1548 H 148.668 0.72212 -3.84579 0
M  V30 1549 H 148.291 2.32186 -3.22763 0
M  V30 1550 N 149.288 1.51039 0.449983 0
M  V30 1551 C 150.251 1.70863 1.5277 0
M  V30 1552 C 151.251 0.578846 1.5002 0
M  V30 1553 O 152.441 0.846213 1.52266 0
M  V30 1554 C 149.573 1.75341 2.9235 0
M  V30 1555 H 150.766 2.67034 1.36502 0
M  V30 1556 H 148.319 1.40838 0.677812 0
M  V30 1557 H 149.054 0.809383 3.14037 0
M  V30 1558 H 148.839 2.57436 2.95752 0
M  V30 1559 H 150.329 1.92559 3.70555 0
M  V30 1560 N 150.766 -0.704594 1.40972 0
M  V30 1561 C 151.729 -1.80035 1.41845 0
M  V30 1562 C 152.729 -1.57774 0.310474 0
M  V30 1563 O 153.919 -1.64613 0.56992 0
M  V30 1564 C 151.051 -3.18284 1.22098 0
M  V30 1565 H 152.244 -1.80658 2.3938 0
M  V30 1566 H 149.797 -0.911329 1.26982 0
M  V30 1567 H 150.532 -3.23306 0.253672 0
M  V30 1568 H 150.317 -3.35843 2.02366 0
M  V30 1569 H 151.807 -3.98289 1.25522 0
M  V30 1570 N 152.244 -1.26651 -0.937939 0
M  V30 1571 C 153.469 -1.15279 -1.72411 0
M  V30 1572 C 153.894 0.287866 -1.85884 0
M  V30 1573 O 153.252 1.20855 -1.35143 0
M  V30 1574 C 153.3 -1.83028 -3.10698 0
M  V30 1575 O 152.404 -1.12128 -3.96864 0
M  V30 1576 H 151.745 -0.401504 -0.528858 0
M  V30 1577 H 154.275 -1.67531 -1.1745 0
M  V30 1578 H 154.285 -1.89981 -3.6107 0
M  V30 1579 H 152.96 -2.87833 -3.00208 0
M  V30 1580 H 151.537 -1.13173 -3.55312 0
M  V30 1581 N 153.722 1.14298 -1.08507 0
M  V30 1582 C 154.67 2.21483 -0.710483 0
M  V30 1583 C 155.664 1.66998 0.284234 0
M  V30 1584 O 156.87 1.79401 0.146692 0
M  V30 1585 H 153.245 0.721578 -0.211729 0
M  V30 1586 H 155.216 2.50348 -1.62384 0
M  V30 1587 C 153.965 3.4743 -0.137007 0
M  V30 1588 H 153.288 3.89686 -0.893592 0
M  V30 1589 H 154.728 4.2391 0.0872789 0
M  V30 1590 C 153.187 3.17548 1.12538 0
M  V30 1591 O 153.717 3.35437 2.21009 0
M  V30 1592 N 151.923 2.71499 1.03617 0
M  V30 1593 H 151.47 2.57143 0.153403 0
M  V30 1594 H 151.428 2.51881 1.88158 0
M  V30 1595 N 155.201 0.870884 1.31352 0
M  V30 1596 C 156.426 0.495957 2.01383 0
M  V30 1597 C 156.851 -0.904324 1.64935 0
M  V30 1598 O 156.209 -1.59687 0.858466 0
M  V30 1599 C 156.257 0.661433 3.54482 0
M  V30 1600 O 155.361 -0.298851 4.11316 0
M  V30 1601 H 154.702 0.197158 0.634054 0
M  V30 1602 H 157.232 1.17455 1.67527 0
M  V30 1603 H 157.242 0.555072 4.04207 0
M  V30 1604 H 155.917 1.68246 3.8035 0
M  V30 1605 H 154.494 -0.147368 3.72609 0
M  V30 1606 N 156.679 -1.44442 0.630414 0
M  V30 1607 C 157.589 -2.34476 -0.0761693 0
M  V30 1608 C 158.605 -1.52576 -0.836449 0
M  V30 1609 O 159.781 -1.85307 -0.788874 0
M  V30 1610 C 156.846 -3.30545 -1.04599 0
M  V30 1611 C 155.907 -4.28352 -0.28516 0
M  V30 1612 C 155.14 -5.19831 -1.20878 0
M  V30 1613 O 155.363 -5.15223 -2.44747 0
M  V30 1614 O 154.297 -5.97892 -0.693491 0
M  V30 1615 H 158.123 -2.96345 0.664324 0
M  V30 1616 H 155.708 -1.44203 0.39061 0
M  V30 1617 H 157.59 -3.89681 -1.60396 0
M  V30 1618 H 156.265 -2.7121 -1.76711 0
M  V30 1619 H 155.172 -3.72764 0.315837 0
M  V30 1620 H 156.505 -4.90605 0.395924 0
M  V30 1621 N 158.157 -0.370918 -1.53173 0
M  V30 1622 C 159.406 0.218249 -2.00516 0
M  V30 1623 C 159.719 1.49429 -1.26215 0
M  V30 1624 O 160.925 2.16239 -1.64174 0
M  V30 1625 C 159.381 0.43948 -3.57207 0
M  V30 1626 C 158.989 -0.822244 -4.4039 0
M  V30 1627 C 160.733 0.986012 -4.1289 0
M  V30 1628 C 158.64 -0.570304 -5.88644 0
M  V30 1629 H 157.57 0.0853333 -0.749156 0
M  V30 1630 H 160.221 -0.490483 -1.76823 0
M  V30 1631 H 158.603 1.20961 -3.77074 0
M  V30 1632 H 159.777 -1.59557 -4.32294 0
M  V30 1633 H 158.092 -1.29238 -3.95836 0
M  V30 1634 H 160.689 1.18991 -5.21292 0
M  V30 1635 H 161.032 1.94972 -3.6782 0
M  V30 1636 H 161.565 0.27592 -3.96842 0
M  V30 1637 H 158.304 -1.50449 -6.38001 0
M  V30 1638 H 157.824 0.164427 -5.99575 0
M  V30 1639 H 159.503 -0.19784 -6.46697 0
M  V30 1640 N 159.635 1.57281 -0.100228 0
M  V30 1641 C 160.881 1.94826 0.563101 0
M  V30 1642 C 161.214 0.982475 1.67514 0
M  V30 1643 O 160.489 0.0164069 1.94493 0
M  V30 1644 C 160.772 3.42453 1.11346 0
M  V30 1645 C 160.625 4.498 0.00612081 0
M  V30 1646 C 161.944 3.91506 2.01024 0
M  V30 1647 H 159.063 0.708428 0.203221 0
M  V30 1648 H 161.705 1.8922 -0.171979 0
M  V30 1649 H 159.855 3.47361 1.7399 0
M  V30 1650 H 161.527 4.57 -0.628357 0
M  V30 1651 H 159.77 4.28756 -0.659581 0
M  V30 1652 H 160.441 5.50306 0.432109 0
M  V30 1653 H 162.917 3.88784 1.48278 0
M  V30 1654 H 161.793 4.95358 2.36457 0
M  V30 1655 H 162.054 3.31099 2.92961 0
M  V30 1656 N 161.113 -0.173488 1.56642 0
M  V30 1657 C 162.043 -1.2171 1.99271 0
M  V30 1658 C 163.024 -1.46289 0.867959 0
M  V30 1659 O 164.209 -1.5766 1.13388 0
M  V30 1660 C 161.339 -2.55651 2.35074 0
M  V30 1661 C 160.293 -2.45645 3.50489 0
M  V30 1662 C 159.619 -3.84056 3.72028 0
M  V30 1663 C 160.919 -1.96302 4.84007 0
M  V30 1664 H 162.613 -0.86275 2.867 0
M  V30 1665 H 160.159 -0.413571 1.37933 0
M  V30 1666 H 162.112 -3.2886 2.63494 0
M  V30 1667 H 160.836 -2.92869 1.44552 0
M  V30 1668 H 159.495 -1.7489 3.22194 0
M  V30 1669 H 159.143 -4.18664 2.788 0
M  V30 1670 H 158.843 -3.7823 4.49684 0
M  V30 1671 H 160.367 -4.58854 4.02846 0
M  V30 1672 H 161.781 -2.59284 5.11317 0
M  V30 1673 H 160.178 -2.01429 5.65284 0
M  V30 1674 H 161.248 -0.917226 4.76146 0
M  V30 1675 N 162.591 -1.51276 -0.441967 0
M  V30 1676 C 164.002 -1.56244 -1.02199 0
M  V30 1677 C 164.353 -0.383149 -1.92422 0
M  V30 1678 O 163.478 0.500613 -2.1053 0
M  V30 1679 C 164.073 -2.83162 -1.86024 0
M  V30 1680 C 162.632 -2.90716 -2.39084 0
M  V30 1681 C 161.779 -2.50858 -1.18175 0
M  V30 1682 H 164.73 -1.5712 -0.223416 0
M  V30 1683 H 164.751 -2.66663 -2.71425 0
M  V30 1684 H 164.263 -3.68974 -1.20331 0
M  V30 1685 H 162.364 -2.09323 -3.08244 0
M  V30 1686 H 162.477 -3.94266 -2.72198 0
M  V30 1687 H 160.841 -2.03951 -1.52565 0
M  V30 1688 H 161.624 -3.3901 -0.541001 0
M  V30 1689 N 164.069 0.697108 -1.41344 0
M  V30 1690 C 164.999 1.82353 -1.45841 0
M  V30 1691 C 165.98 1.67115 -0.317247 0
M  V30 1692 O 167.165 1.86871 -0.528474 0
M  V30 1693 C 164.295 3.20476 -1.33838 0
M  V30 1694 C 163.249 3.50415 -2.4575 0
M  V30 1695 C 162.575 4.87878 -2.18813 0
M  V30 1696 C 163.875 3.49546 -3.88091 0
M  V30 1697 H 165.569 1.78846 -2.40113 0
M  V30 1698 H 163.115 0.859028 -1.15571 0
M  V30 1699 H 165.068 3.98988 -1.35596 0
M  V30 1700 H 163.792 3.24604 -0.360498 0
M  V30 1701 H 162.451 2.74253 -2.43271 0
M  V30 1702 H 162.099 4.8863 -1.19371 0
M  V30 1703 H 161.799 5.08875 -2.93803 0
M  V30 1704 H 163.323 5.68702 -2.22284 0
M  V30 1705 H 164.737 4.18066 -3.92293 0
M  V30 1706 H 163.134 3.82075 -4.62751 0
M  V30 1707 H 164.204 2.48552 -4.16353 0
M  V30 1708 N 165.547 1.27147 0.931209 0
M  V30 1709 C 166.793 1.13446 1.68101 0
M  V30 1710 C 167.126 -0.319628 1.91552 0
M  V30 1711 O 166.401 -1.23407 1.50336 0
M  V30 1712 C 166.684 1.91482 3.0497 0
M  V30 1713 C 166.537 3.44855 2.88782 0
M  V30 1714 C 167.856 1.71651 4.05246 0
M  V30 1715 H 164.975 0.413498 0.610072 0
M  V30 1716 H 167.617 1.56261 1.08086 0
M  V30 1717 H 165.767 1.55095 3.56199 0
M  V30 1718 H 167.439 3.9105 2.44698 0
M  V30 1719 H 165.682 3.71373 2.24198 0
M  V30 1720 H 166.353 3.94694 3.85902 0
M  V30 1721 H 168.829 2.0337 3.63015 0
M  V30 1722 H 167.705 2.28651 4.99009 0
M  V30 1723 H 167.966 0.663555 4.37092 0
M  V30 1724 N 167.025 -1.13721 1.09112 0
M  V30 1725 C 168.271 -1.85198 0.826414 0
M  V30 1726 C 168.604 -1.83129 -0.646319 0
M  V30 1727 O 167.879 -1.2671 -1.47563 0
M  V30 1728 C 168.162 -3.33507 1.35812 0
M  V30 1729 C 168.015 -3.44108 2.89672 0
M  V30 1730 C 169.334 -4.28838 0.989256 0
M  V30 1731 H 166.453 -0.67243 0.301675 0
M  V30 1732 H 169.095 -1.33499 1.35197 0
M  V30 1733 H 167.245 -3.77666 0.911082 0
M  V30 1734 H 168.917 -3.08684 3.428 0
M  V30 1735 H 167.16 -2.85087 3.26967 0
M  V30 1736 H 167.831 -4.48388 3.21951 0
M  V30 1737 H 170.307 -3.92734 1.37475 0
M  V30 1738 H 169.183 -5.31051 1.38838 0
M  V30 1739 H 169.444 -4.4198 -0.102924 0
M  V30 1740 N 168.503 -0.877838 -1.30888 0
M  V30 1741 C 169.45 -0.337538 -2.28318 0
M  V30 1742 C 170.42 0.568346 -1.56074 0
M  V30 1743 O 171.605 0.498298 -1.84178 0
M  V30 1744 C 168.745 0.448142 -3.42178 0
M  V30 1745 C 167.858 -0.48615 -4.29256 0
M  V30 1746 C 166.993 0.314427 -5.30269 0
M  V30 1747 C 166.032 -0.615791 -6.08995 0
M  V30 1748 N 165.169 0.14902 -7.01942 0
M  V30 1749 H 170.009 -1.17356 -2.73919 0
M  V30 1750 H 167.546 -0.590094 -1.34745 0
M  V30 1751 H 169.504 0.919517 -4.06941 0
M  V30 1752 H 168.134 1.24879 -2.97666 0
M  V30 1753 H 167.186 -1.076 -3.64865 0
M  V30 1754 H 168.498 -1.19909 -4.84173 0
M  V30 1755 H 167.652 0.847969 -6.00745 0
M  V30 1756 H 166.391 1.06062 -4.76027 0
M  V30 1757 H 165.396 -1.16102 -5.37401 0
M  V30 1758 H 166.621 -1.36097 -6.65323 0
M  V30 1759 H 164.567 0.877884 -6.50099 0
M  V30 1760 H 164.484 -0.504433 -7.54315 0
M  V30 1761 H 165.752 0.663537 -7.76671 0
M  V30 1762 N 169.982 1.44106 -0.638065 0
M  V30 1763 C 170.93 2.3248 0.0748149 0
M  V30 1764 C 171.924 1.47746 0.828702 0
M  V30 1765 O 173.13 1.64049 0.740816 0
M  V30 1766 H 169.505 0.750771 0.0429686 0
M  V30 1767 H 171.476 2.90348 -0.688504 0
M  V30 1768 C 170.225 3.31843 1.03805 0
M  V30 1769 H 169.548 3.97059 0.467375 0
M  V30 1770 H 170.988 3.96345 1.50622 0
M  V30 1771 C 169.447 2.61291 2.1267 0
M  V30 1772 O 169.977 2.41702 3.20847 0
M  V30 1773 N 168.183 2.20915 1.88798 0
M  V30 1774 H 167.73 2.37047 1.00829 0
M  V30 1775 H 167.688 1.74038 2.61836 0
M  V30 1776 N 171.46 0.379036 1.52974 0
M  V30 1777 C 172.392 -0.495963 2.2377 0
M  V30 1778 C 173.405 -1.03517 1.25651 0
M  V30 1779 O 174.594 -0.939249 1.51791 0
M  V30 1780 C 171.694 -1.69894 2.93239 0
M  V30 1781 C 170.867 -1.2889 4.17979 0
M  V30 1782 C 169.926 -2.35543 4.70538 0
M  V30 1783 O 168.952 -1.97375 5.33883 0
M  V30 1784 N 170.154 -3.67318 4.49508 0
M  V30 1785 H 172.919 0.110523 2.99496 0
M  V30 1786 H 170.48 0.204878 1.60598 0
M  V30 1787 H 172.472 -2.40747 3.25304 0
M  V30 1788 H 171.042 -2.212 2.20883 0
M  V30 1789 H 170.262 -0.409676 3.92065 0
M  V30 1790 H 171.55 -0.991443 4.99047 0
M  V30 1791 H 170.948 -4.01095 3.98923 0
M  V30 1792 H 169.505 -4.34235 4.8609 0
M  V30 1793 N 172.938 -1.57226 0.108567 0
M  V30 1794 C 174.187 -1.94008 -0.551703 0
M  V30 1795 C 174.5 -0.993442 -1.68494 0
M  V30 1796 O 175.706 -1.25551 -2.40726 0
M  V30 1797 C 174.162 -3.44763 -1.03279 0
M  V30 1798 C 173.77 -4.47943 0.0714193 0
M  V30 1799 C 175.514 -3.90483 -1.66503 0
M  V30 1800 C 173.421 -5.89865 -0.425779 0
M  V30 1801 H 172.351 -0.724206 -0.209863 0
M  V30 1802 H 175.002 -1.82547 0.186741 0
M  V30 1803 H 173.384 -3.51422 -1.82533 0
M  V30 1804 H 174.558 -4.52942 0.847365 0
M  V30 1805 H 172.873 -4.11913 0.609669 0
M  V30 1806 H 175.47 -4.93925 -2.04798 0
M  V30 1807 H 175.813 -3.29877 -2.53942 0
M  V30 1808 H 176.346 -3.86581 -0.938074 0
M  V30 1809 H 173.085 -6.54202 0.412316 0
M  V30 1810 H 172.605 -5.88309 -1.16843 0
M  V30 1811 H 174.284 -6.40844 -0.890397 0
M  V30 1812 N 174.416 0.165178 -1.56732 0
M  V30 1813 C 175.665 0.879143 -1.81532 0
M  V30 1814 C 175.978 1.83144 -0.686842 0
M  V30 1815 O 177.184 2.58823 -0.819944 0
M  V30 1816 C 175.64 1.61388 -3.21686 0
M  V30 1817 C 175.248 0.704904 -4.4242 0
M  V30 1818 C 176.992 2.3157 -3.55774 0
M  V30 1819 C 174.899 1.44022 -5.73595 0
M  V30 1820 H 173.829 0.332033 -0.676957 0
M  V30 1821 H 176.48 0.132008 -1.83025 0
M  V30 1822 H 174.862 2.40599 -3.14529 0
M  V30 1823 H 176.036 -0.0506815 -4.60772 0
M  V30 1824 H 174.351 0.112419 -4.16248 0
M  V30 1825 H 176.948 2.8719 -4.51028 0
M  V30 1826 H 177.291 3.07201 -2.8095 0
M  V30 1827 H 177.824 1.59297 -3.64513 0
M  V30 1828 H 174.563 0.72612 -6.51466 0
M  V30 1829 H 174.083 2.16898 -5.5921 0
M  V30 1830 H 175.762 1.98606 -6.15764 0
M  V30 1831 N 175.894 1.51508 0.433938 0
M  V30 1832 C 177.142 1.6402 1.18075 0
M  V30 1833 C 177.463 0.360328 1.91642 0
M  V30 1834 O 176.733 -0.623945 1.85698 0
M  V30 1835 H 175.313 0.6045 0.43885 0
M  V30 1836 H 177.975 1.88452 0.497178 0
M  V30 1837 H 177.071 2.46949 1.90847 0
M  V30 1838 N 177.372 -0.689602 1.41712 0
M  V30 1839 C 178.618 -1.45181 1.41599 0
M  V30 1840 C 178.951 -1.94181 0.0270081 0
M  V30 1841 O 178.226 -1.6993 -0.946265 0
M  V30 1842 C 178.509 -2.65945 2.42787 0
M  V30 1843 C 178.362 -2.22672 3.90816 0
M  V30 1844 C 179.681 -3.68149 2.41151 0
M  V30 1845 H 176.8 -0.526576 0.515642 0
M  V30 1846 H 179.442 -0.784947 1.73028 0
M  V30 1847 H 177.592 -3.2284 2.16116 0
M  V30 1848 H 179.264 -1.71058 4.28412 0
M  V30 1849 H 177.507 -1.54394 4.05395 0
M  V30 1850 H 178.178 -3.0935 4.57172 0
M  V30 1851 H 180.654 -3.2094 2.64834 0
M  V30 1852 H 179.53 -4.50248 3.13955 0
M  V30 1853 H 179.791 -4.18259 1.43221 0
M  V30 1854 N 178.85 -1.27639 -0.924453 0
M  V30 1855 C 179.78 -1.13166 -2.04244 0
M  V30 1856 C 180.761 -0.032256 -1.70069 0
M  V30 1857 O 181.946 -0.207328 -1.9309 0
M  V30 1858 C 179.076 -0.781496 -3.38393 0
M  V30 1859 C 178.03 -1.83449 -3.86692 0
M  V30 1860 C 177.356 -1.33822 -5.17683 0
M  V30 1861 C 178.656 -3.23917 -4.09726 0
M  V30 1862 H 180.35 -2.06689 -2.1661 0
M  V30 1863 H 177.896 -0.995136 -1.04082 0
M  V30 1864 H 179.849 -0.667057 -4.16087 0
M  V30 1865 H 178.573 0.189439 -3.2605 0
M  V30 1866 H 177.232 -1.93789 -3.11193 0
M  V30 1867 H 176.88 -0.35665 -5.01734 0
M  V30 1868 H 176.58 -2.04224 -5.50968 0
M  V30 1869 H 178.104 -1.23679 -5.97943 0
M  V30 1870 H 179.518 -3.16559 -4.77978 0
M  V30 1871 H 177.915 -3.92059 -4.54324 0
M  V30 1872 H 178.985 -3.68729 -3.14908 0
M  V30 1873 N 180.328 1.1314 -1.09713 0
M  V30 1874 C 181.605 1.80762 -0.747302 0
M  V30 1875 C 181.985 1.96663 0.767265 0
M  V30 1876 O 181.333 1.53706 1.69076 0
M  V30 1877 C 181.543 3.15606 -1.48975 0
M  V30 1878 C 182.891 3.90914 -1.65746 0
M  V30 1879 O 183.915 3.25239 -1.45251 0
M  V30 1880 O 182.774 5.08718 -1.9967 0
M  V30 1881 H 179.868 0.782103 -0.268782 0
M  V30 1882 H 182.414 1.20041 -1.19951 0
M  V30 1883 H 181.186 2.99278 -2.52088 0
M  V30 1884 H 180.809 3.84029 -1.02991 0
M  V30 1885 N 181.806 0.884767 1.30421 0
M  V30 1886 C 183.055 0.499164 1.95426 0
M  V30 1887 C 183.368 -0.95645 1.70621 0
M  V30 1888 O 184.574 -1.44889 2.29607 0
M  V30 1889 C 183.03 0.84177 3.49917 0
M  V30 1890 C 182.638 2.31514 3.83543 0
M  V30 1891 C 184.382 0.525355 4.21237 0
M  V30 1892 C 182.289 2.59939 5.31212 0
M  V30 1893 H 181.219 0.182944 0.73147 0
M  V30 1894 H 183.87 1.07971 1.48373 0
M  V30 1895 H 182.252 0.190311 3.95542 0
M  V30 1896 H 183.426 3.0109 3.48829 0
M  V30 1897 H 181.741 2.59907 3.25326 0
M  V30 1898 H 184.338 0.714762 5.29901 0
M  V30 1899 H 184.681 -0.535222 4.12845 0
M  V30 1900 H 185.214 1.134 3.81294 0
M  V30 1901 H 181.953 3.64736 5.44654 0
M  V30 1902 H 181.473 1.94972 5.67227 0
M  V30 1903 H 183.152 2.45429 5.98643 0
M  V30 1904 N 183.284 -1.43765 0.645699 0
M  V30 1905 C 184.561 -1.9541 0.0862963 0
M  V30 1906 C 184.941 -1.58725 -1.39175 0
M  V30 1907 O 184.289 -0.868581 -2.11348 0
M  V30 1908 C 184.499 -3.47488 0.324565 0
M  V30 1909 C 185.847 -4.24001 0.225497 0
M  V30 1910 O 186.871 -3.55274 0.256715 0
M  V30 1911 O 185.73 -5.46313 0.142801 0
M  V30 1912 H 182.824 -0.826882 -0.0139483 0
M  V30 1913 H 185.37 -1.53743 0.718415 0
M  V30 1914 H 184.142 -3.67289 1.3496 0
M  V30 1915 H 183.765 -3.96135 -0.340987 0
M  V30 1916 N 184.763 -0.387143 -1.52771 0
M  V30 1917 C 185.988 0.198407 -2.06449 0
M  V30 1918 C 186.413 1.39918 -1.25716 0
M  V30 1919 O 185.771 1.79099 -0.281657 0
M  V30 1920 C 185.819 0.548893 -3.56398 0
M  V30 1921 O 184.923 1.64315 -3.78252 0
M  V30 1922 H 184.264 0.0237731 -0.663574 0
M  V30 1923 H 186.794 -0.553989 -1.96957 0
M  V30 1924 H 186.804 0.813812 -3.99801 0
M  V30 1925 H 185.479 -0.329005 -4.14597 0
M  V30 1926 H 184.056 1.37211 -3.46738 0
M  V30 1927 N 186.241 1.57166 -0.116904 0
M  V30 1928 C 187.469 1.99473 0.549383 0
M  V30 1929 C 187.884 0.996541 1.60357 0
M  V30 1930 O 187.241 -0.0108731 1.82497 0
M  V30 1931 C 187.292 3.41788 1.17741 0
M  V30 1932 O 187.013 4.37788 0.165362 0
M  V30 1933 C 188.514 3.99216 1.92722 0
M  V30 1934 H 185.734 0.655009 0.145616 0
M  V30 1935 H 188.278 2.03494 -0.202625 0
M  V30 1936 H 186.433 3.38713 1.88021 0
M  V30 1937 H 186.847 5.20806 0.621403 0
M  V30 1938 H 188.321 5.00882 2.31995 0
M  V30 1939 H 188.798 3.3824 2.80161 0
M  V30 1940 H 189.404 4.0583 1.27209 0
M  V30 1941 N 187.719 -0.156864 1.56817 0
M  V30 1942 C 188.965 -0.872416 1.83076 0
M  V30 1943 C 189.298 -1.81261 0.697001 0
M  V30 1944 O 188.573 -1.92171 -0.30008 0
M  V30 1945 C 188.856 -1.65551 3.19789 0
M  V30 1946 C 188.709 -0.737467 4.43713 0
M  V30 1947 C 190.028 -2.62012 3.53606 0
M  V30 1948 H 187.147 -0.315715 0.665953 0
M  V30 1949 H 189.789 -0.138004 1.89498 0
M  V30 1950 H 187.939 -2.28159 3.14445 0
M  V30 1951 H 189.611 -0.123143 4.61136 0
M  V30 1952 H 187.854 -0.0464067 4.33775 0
M  V30 1953 H 188.525 -1.32122 5.35955 0
M  V30 1954 H 191.001 -2.09525 3.59497 0
M  V30 1955 H 189.877 -3.13861 4.50314 0
M  V30 1956 H 190.138 -3.42902 2.79053 0
M  V30 1957 N 189.197 -1.51736 -0.425897 0
M  V30 1958 C 190.444 -1.6497 -1.17436 0
M  V30 1959 C 190.772 -0.371445 -1.9092 0
M  V30 1960 O 190.027 0.644963 -1.84767 0
M  V30 1961 C 190.326 -2.81103 -2.20717 0
M  V30 1962 C 189.992 -4.19954 -1.64162 0
M  V30 1963 C 188.654 -4.57725 -1.48462 0
M  V30 1964 C 191.006 -5.06552 -1.22696 0
M  V30 1965 C 188.334 -5.79789 -0.897873 0
M  V30 1966 C 190.686 -6.29205 -0.654464 0
M  V30 1967 C 189.35 -6.6574 -0.484456 0
M  V30 1968 H 188.62 -0.603668 -0.429727 0
M  V30 1969 H 191.267 -1.85798 -0.463829 0
M  V30 1970 H 189.572 -2.54542 -2.97852 0
M  V30 1971 H 191.269 -2.8854 -2.78471 0
M  V30 1972 H 187.859 -3.90181 -1.77361 0
M  V30 1973 H 192.043 -4.77968 -1.33642 0
M  V30 1974 H 187.299 -6.06733 -0.75402 0
M  V30 1975 H 191.473 -6.95643 -0.324694 0
M  V30 1976 H 189.1 -7.60195 -0.0276833 0
M  V30 1977 N 190.675 0.682077 -1.42076 0
M  V30 1978 C 191.923 1.4393 -1.41876 0
M  V30 1979 C 192.244 1.94971 -0.0335599 0
M  V30 1980 O 191.514 1.72591 0.926773 0
M  V30 1981 H 190.094 0.534085 -0.522267 0
M  V30 1982 H 192.756 0.806427 -1.77434 0
M  V30 1983 H 191.852 2.29588 -2.11414 0
M  V30 1984 N 192.153 1.28127 0.917671 0
M  V30 1985 C 193.569 1.05749 1.19538 0
M  V30 1986 C 193.769 -0.202633 2.00479 0
M  V30 1987 O 192.825 -0.905382 2.3571 0
M  V30 1988 C 194.138 2.30273 1.93378 0
M  V30 1989 C 195.686 2.35412 2.06277 0
M  V30 1990 C 196.161 3.59692 2.83524 0
M  V30 1991 N 197.652 3.60309 2.91087 0
M  V30 1992 C 198.387 4.53147 3.51348 0
M  V30 1993 N 197.883 5.563 4.12919 0
M  V30 1994 N 199.676 4.40751 3.48849 0
M  V30 1995 H 191.827 2.09024 0.377184 0
M  V30 1996 H 194.09 0.919798 0.22951 0
M  V30 1997 H 193.796 3.22055 1.41328 0
M  V30 1998 H 193.67 2.36378 2.93947 0
M  V30 1999 H 196.057 1.4413 2.57508 0
M  V30 2000 H 196.138 2.33304 1.04895 0
M  V30 2001 H 195.782 4.51316 2.32973 0
M  V30 2002 H 195.712 3.59054 3.85211 0
M  V30 2003 H 198.203 2.85714 2.47338 0
M  V30 2004 H 198.516 6.2329 4.56869 0
M  V30 2005 H 196.861 5.60131 4.11435 0
M  V30 2006 H 200.052 3.59367 2.99955 0
M  V30 2007 H 200.225 5.13291 3.9552 0
M  V30 2008 N 193.631 -1.12557 1.10312 0
M  V30 2009 C 194.878 -1.84038 0.844759 0
M  V30 2010 C 195.206 -1.84026 -0.629668 0
M  V30 2011 O 194.461 -1.28026 -1.48013 0
M  V30 2012 C 194.76 -3.31462 1.33669 0
M  V30 2013 C 194.426 -3.51647 2.82232 0
M  V30 2014 C 193.088 -3.56864 3.22802 0
M  V30 2015 C 195.44 -3.58867 3.77974 0
M  V30 2016 C 192.768 -3.66844 4.57867 0
M  V30 2017 C 195.12 -3.70375 5.1284 0
M  V30 2018 C 193.784 -3.73848 5.52986 0
M  V30 2019 H 193.054 -0.673444 0.309119 0
M  V30 2020 H 195.701 -1.32824 1.37949 0
M  V30 2021 H 194.006 -3.85091 0.721949 0
M  V30 2022 H 195.703 -3.85236 1.11329 0
M  V30 2023 H 192.293 -3.48249 2.49842 0
M  V30 2024 H 196.477 -3.54107 3.47738 0
M  V30 2025 H 191.733 -3.67804 4.88396 0
M  V30 2026 H 195.907 -3.74904 5.86873 0
M  V30 2027 H 193.534 -3.81333 6.57639 0
M  V30 2028 N 195.109 -0.891671 -1.2995 0
M  V30 2029 C 196.337 -0.52866 -2.00032 0
M  V30 2030 C 196.752 0.884574 -1.66795 0
M  V30 2031 O 196.109 1.5827 -0.908669 0
M  V30 2032 C 196.16 -0.701814 -3.54622 0
M  V30 2033 O 195.881 -2.05942 -3.86678 0
M  V30 2034 C 197.382 -0.342683 -4.41973 0
M  V30 2035 H 194.602 -0.203659 -0.639347 0
M  V30 2036 H 197.146 -1.19881 -1.65677 0
M  V30 2037 H 195.301 -0.0789468 -3.8732 0
M  V30 2038 H 195.715 -2.08291 -4.81368 0
M  V30 2039 H 197.189 -0.514709 -5.49595 0
M  V30 2040 H 197.666 0.71975 -4.33262 0
M  V30 2041 H 198.272 -0.942154 -4.14733 0
M  V30 2042 N 196.587 1.43421 -0.653314 0
M  V30 2043 C 197.864 1.95361 -0.0966581 0
M  V30 2044 C 198.244 1.59461 1.38331 0
M  V30 2045 O 197.592 0.879777 2.10884 0
M  V30 2046 C 197.802 3.47311 -0.342988 0
M  V30 2047 C 199.15 4.23875 -0.24798 0
M  V30 2048 O 200.174 3.55133 -0.275553 0
M  V30 2049 O 199.033 5.4623 -0.171771 0
M  V30 2050 H 196.127 0.826945 0.00956291 0
M  V30 2051 H 198.673 1.5336 -0.726558 0
M  V30 2052 H 197.445 3.66569 -1.36906 0
M  V30 2053 H 197.068 3.9631 0.319975 0
M  V30 2054 N 198.065 0.39524 1.52563 0
M  V30 2055 C 198.975 -0.444232 2.30356 0
M  V30 2056 C 199.991 -1.06615 1.37511 0
M  V30 2057 O 201.167 -1.07067 1.70583 0
M  V30 2058 C 198.232 -1.55315 3.09964 0
M  V30 2059 C 197.293 -0.955734 4.18526 0
M  V30 2060 C 196.526 -2.01181 4.9433 0
M  V30 2061 O 196.749 -3.22781 4.70285 0
M  V30 2062 O 195.683 -1.62579 5.79527 0
M  V30 2063 H 199.509 0.189667 3.03107 0
M  V30 2064 H 197.094 0.1588 1.48554 0
M  V30 2065 H 198.976 -2.19724 3.59582 0
M  V30 2066 H 197.651 -2.17191 2.4002 0
M  V30 2067 H 196.558 -0.274743 3.7309 0
M  V30 2068 H 197.891 -0.381109 4.90722 0
M  V30 2069 N 199.544 -1.57102 0.125237 0
M  V30 2070 C 200.821 -1.86953 -0.575142 0
M  V30 2071 C 201.201 -1.02749 -1.84407 0
M  V30 2072 O 200.549 -0.108144 -2.28244 0
M  V30 2073 C 200.759 -3.38198 -0.861583 0
M  V30 2074 C 202.107 -4.06937 -1.21192 0
M  V30 2075 O 203.131 -3.43252 -0.951645 0
M  V30 2076 O 201.99 -5.19364 -1.70068 0
M  V30 2077 H 199.084 -0.774147 -0.290906 0
M  V30 2078 H 201.63 -1.68942 0.160211 0
M  V30 2079 H 200.402 -3.91282 0.0373647 0
M  V30 2080 H 200.025 -3.61661 -1.65188 0
M  V30 2081 N 201.022 0.148545 -1.56898 0
M  V30 2082 C 201.932 1.20293 -2.01412 0
M  V30 2083 C 202.948 1.47107 -0.929273 0
M  V30 2084 O 204.124 1.58807 -1.23863 0
M  V30 2085 C 201.189 2.51682 -2.38447 0
M  V30 2086 C 200.25 2.32529 -3.60872 0
M  V30 2087 C 199.483 3.57653 -3.96132 0
M  V30 2088 O 199.706 4.63771 -3.32073 0
M  V30 2089 O 198.64 3.50408 -4.89385 0
M  V30 2090 H 202.466 0.855025 -2.91416 0
M  V30 2091 H 200.051 0.357151 -1.45068 0
M  V30 2092 H 201.933 3.29147 -2.63135 0
M  V30 2093 H 200.608 2.86006 -1.51599 0
M  V30 2094 H 199.515 1.53019 -3.41373 0
M  V30 2095 H 200.848 2.03121 -4.48333 0
M  V30 2096 N 202.5 1.5196 0.417844 0
M  V30 2097 C 203.432 1.70895 1.52733 0
M  V30 2098 C 204.445 0.589405 1.51756 0
M  V30 2099 O 205.634 0.864312 1.56179 0
M  V30 2100 C 202.734 1.72627 2.91639 0
M  V30 2101 C 201.907 3.01479 3.16905 0
M  V30 2102 C 200.966 2.95139 4.35637 0
M  V30 2103 O 199.992 3.69059 4.3334 0
M  V30 2104 N 201.194 2.12328 5.40275 0
M  V30 2105 H 203.959 2.66612 1.36888 0
M  V30 2106 H 201.52 1.50089 0.607037 0
M  V30 2107 H 203.512 1.65928 3.6912 0
M  V30 2108 H 202.082 0.844216 3.00985 0
M  V30 2109 H 201.302 3.21895 2.27546 0
M  V30 2110 H 202.59 3.86736 3.30625 0
M  V30 2111 H 201.988 1.51685 5.44985 0
M  V30 2112 H 200.545 2.11494 6.16534 0
M  V30 2113 N 203.978 -0.674533 1.42435 0
M  V30 2114 C 205.226 -1.43175 1.42637 0
M  V30 2115 C 205.547 -1.94951 0.0438992 0
M  V30 2116 O 204.817 -1.7308 -0.917607 0
M  V30 2117 H 203.397 -0.531307 0.525092 0
M  V30 2118 H 206.059 -0.797006 1.77859 0
M  V30 2119 H 205.155 -2.28463 2.12629 0
M  V30 2120 N 205.456 -1.28612 -0.910864 0
M  V30 2121 C 206.386 -1.15326 -2.03032 0
M  V30 2122 C 207.367 -0.0502924 -1.70026 0
M  V30 2123 O 208.552 -0.227797 -1.92859 0
M  V30 2124 C 205.682 -0.817343 -3.37545 0
M  V30 2125 C 204.636 -1.8754 -3.84724 0
M  V30 2126 C 203.962 -1.39305 -5.16235 0
M  V30 2127 C 205.262 -3.28244 -4.06267 0
M  V30 2128 H 206.956 -2.08975 -2.14406 0
M  V30 2129 H 204.502 -1.00612 -1.03021 0
M  V30 2130 H 206.455 -0.711151 -4.15356 0
M  V30 2131 H 205.179 0.154846 -3.26233 0
M  V30 2132 H 203.838 -1.97079 -3.09121 0
M  V30 2133 H 203.486 -0.409846 -5.01328 0
M  V30 2134 H 203.186 -2.10057 -5.48771 0
M  V30 2135 H 204.71 -1.30014 -5.96598 0
M  V30 2136 H 206.124 -3.21611 -4.74594 0
M  V30 2137 H 204.521 -3.96855 -4.5014 0
M  V30 2138 H 205.591 -3.72048 -3.10979 0
M  V30 2139 N 206.934 1.1197 -1.10907 0
M  V30 2140 C 208.35 1.35591 -0.841852 0
M  V30 2141 C 208.55 1.94233 0.536246 0
M  V30 2142 O 207.606 2.1717 1.28816 0
M  V30 2143 C 208.919 2.29284 -1.94549 0
M  V30 2144 C 210.467 2.42862 -1.97451 0
M  V30 2145 C 210.942 3.39873 -3.07002 0
M  V30 2146 N 212.433 3.47433 -3.06341 0
M  V30 2147 C 213.168 4.22421 -3.87748 0
M  V30 2148 N 212.664 5.00432 -4.79103 0
M  V30 2149 N 214.457 4.17876 -3.75946 0
M  V30 2150 H 206.608 0.722664 -1.99728 0
M  V30 2151 H 208.871 0.380635 -0.868229 0
M  V30 2152 H 208.577 1.93378 -2.93765 0
M  V30 2153 H 208.451 3.29452 -1.83688 0
M  V30 2154 H 210.838 2.78046 -0.988645 0
M  V30 2155 H 210.919 1.42566 -2.12388 0
M  V30 2156 H 210.563 3.05417 -4.05811 0
M  V30 2157 H 210.493 4.40011 -2.89306 0
M  V30 2158 H 212.984 2.91784 -2.40147 0
M  V30 2159 H 213.297 5.55002 -5.37766 0
M  V30 2160 H 211.642 4.99612 -4.83128 0
M  V30 2161 H 214.833 3.56016 -3.03924 0
M  V30 2162 H 215.006 4.76061 -4.39624 0
M  V30 2163 N 208.412 0.89855 1.29475 0
M  V30 2164 C 209.344 0.332726 2.26772 0
M  V30 2165 C 210.357 -0.520323 1.54261 0
M  V30 2166 O 211.546 -0.337668 1.75277 0
M  V30 2167 C 208.646 -0.544334 3.345 0
M  V30 2168 C 207.819 0.282728 4.36485 0
M  V30 2169 C 206.878 -0.526982 5.23555 0
M  V30 2170 O 205.904 0.0551165 5.69173 0
M  V30 2171 N 207.106 -1.83331 5.5079 0
M  V30 2172 H 209.871 1.16897 2.75962 0
M  V30 2173 H 207.432 0.762919 1.42798 0
M  V30 2174 H 209.424 -1.09239 3.89678 0
M  V30 2175 H 207.994 -1.28127 2.85136 0
M  V30 2176 H 207.214 1.01221 3.80983 0
M  V30 2177 H 208.502 0.84918 5.01664 0
M  V30 2178 H 207.9 -2.32898 5.15534 0
M  V30 2179 H 206.457 -2.32852 6.08788 0
M  V30 2180 N 209.89 -1.43072 0.660911 0
M  V30 2181 C 210.82 -2.33497 -0.0122829 0
M  V30 2182 C 211.801 -1.49903 -0.803925 0
M  V30 2183 O 212.986 -1.78546 -0.763864 0
M  V30 2184 C 210.116 -3.33363 -0.973994 0
M  V30 2185 C 209.07 -4.27003 -0.291928 0
M  V30 2186 C 208.396 -5.16967 -1.36562 0
M  V30 2187 C 209.696 -5.15816 0.820462 0
M  V30 2188 H 211.39 -2.90038 0.742873 0
M  V30 2189 H 208.936 -1.39461 0.358688 0
M  V30 2190 H 210.889 -3.95524 -1.45392 0
M  V30 2191 H 209.613 -2.75095 -1.7604 0
M  V30 2192 H 208.272 -3.66217 0.167623 0
M  V30 2193 H 207.92 -4.55034 -2.14366 0
M  V30 2194 H 207.62 -5.80441 -0.914454 0
M  V30 2195 H 209.144 -5.82003 -1.84675 0
M  V30 2196 H 210.558 -5.71742 0.422366 0
M  V30 2197 H 208.955 -5.8805 1.19656 0
M  V30 2198 H 210.025 -4.55045 1.67518 0
M  V30 2199 N 211.368 -0.403325 -1.52352 0
M  V30 2200 C 212.614 0.174605 -2.02047 0
M  V30 2201 C 212.947 1.45282 -1.28867 0
M  V30 2202 O 212.222 1.90483 -0.393257 0
M  V30 2203 C 212.505 0.428238 -3.57545 0
M  V30 2204 C 212.358 -0.866248 -4.4138 0
M  V30 2205 C 213.677 1.21287 -4.23057 0
M  V30 2206 H 210.796 0.0619851 -0.734389 0
M  V30 2207 H 213.438 -0.53565 -1.82293 0
M  V30 2208 H 211.588 1.03327 -3.74507 0
M  V30 2209 H 213.26 -1.50265 -4.3614 0
M  V30 2210 H 211.503 -1.47851 -4.07827 0
M  V30 2211 H 212.174 -0.643249 -5.48239 0
M  V30 2212 H 214.65 0.700703 -4.10158 0
M  V30 2213 H 213.526 1.35909 -5.31808 0
M  V30 2214 H 213.787 2.23193 -3.81625 0
M  V30 2215 N 212.846 1.57033 -0.133567 0
M  V30 2216 C 213.809 2.14897 0.796995 0
M  V30 2217 C 214.809 1.0874 1.18458 0
M  V30 2218 O 215.999 1.34446 1.1077 0
M  V30 2219 C 213.131 2.70112 2.07973 0
M  V30 2220 H 214.324 2.98457 0.293873 0
M  V30 2221 H 211.877 1.55871 0.115787 0
M  V30 2222 H 212.612 1.9018 2.62682 0
M  V30 2223 H 212.397 3.47764 1.81115 0
M  V30 2224 H 213.887 3.14738 2.74462 0
M  V30 2225 N 214.325 -0.140222 1.56975 0
M  V30 2226 C 215.257 -1.19818 1.95388 0
M  V30 2227 C 216.27 -1.38816 0.850525 0
M  V30 2228 O 217.459 -1.38267 1.12891 0
M  V30 2229 C 214.559 -2.56189 2.21857 0
M  V30 2230 C 213.732 -2.58077 3.5315 0
M  V30 2231 C 212.791 -3.76037 3.6808 0
M  V30 2232 O 211.817 -3.60598 4.40406 0
M  V30 2233 N 213.019 -4.93763 3.05251 0
M  V30 2234 H 215.784 -0.871609 2.86746 0
M  V30 2235 H 213.345 -0.32972 1.58507 0
M  V30 2236 H 215.337 -3.33623 2.2908 0
M  V30 2237 H 213.907 -2.81111 1.36731 0
M  V30 2238 H 213.127 -1.6651 3.57307 0
M  V30 2239 H 214.415 -2.56377 4.39486 0
M  V30 2240 H 213.813 -5.09209 2.46419 0
M  V30 2241 H 212.37 -5.68949 3.18026 0
M  V30 2242 N 215.803 -1.52179 -0.40978 0
M  V30 2243 C 216.733 -1.78435 -1.5061 0
M  V30 2244 C 217.714 -0.635295 -1.57791 0
M  V30 2245 O 218.899 -0.880823 -1.73076 0
M  V30 2246 C 216.029 -1.93444 -2.88439 0
M  V30 2247 C 214.983 -3.09038 -2.96108 0
M  V30 2248 C 214.309 -3.09268 -4.36185 0
M  V30 2249 C 215.609 -4.48508 -2.67652 0
M  V30 2250 H 217.303 -2.70237 -1.28889 0
M  V30 2251 H 214.849 -1.30036 -0.618605 0
M  V30 2252 H 216.802 -2.10394 -3.65119 0
M  V30 2253 H 215.526 -0.983129 -3.11452 0
M  V30 2254 H 214.185 -2.91837 -2.21872 0
M  V30 2255 H 213.833 -2.11861 -4.56206 0
M  V30 2256 H 213.533 -3.86907 -4.42241 0
M  V30 2257 H 215.057 -3.28348 -5.14801 0
M  V30 2258 H 216.471 -4.65918 -3.34056 0
M  V30 2259 H 214.868 -5.28059 -2.85085 0
M  V30 2260 H 215.938 -4.56649 -1.63095 0
M  V30 2261 N 217.281 0.66697 -1.42791 0
M  V30 2262 C 218.191 1.80962 -1.49299 0
M  V30 2263 C 219.207 1.69775 -0.381108 0
M  V30 2264 O 220.383 1.91188 -0.633188 0
M  V30 2265 C 217.448 3.17156 -1.40045 0
M  V30 2266 C 216.509 3.40242 -2.6179 0
M  V30 2267 C 215.742 4.69939 -2.52969 0
M  V30 2268 O 215.965 5.48372 -1.56985 0
M  V30 2269 O 214.899 4.94441 -3.43237 0
M  V30 2270 H 218.725 1.78427 -2.45759 0
M  V30 2271 H 216.31 0.823713 -1.24641 0
M  V30 2272 H 218.192 3.98413 -1.37276 0
M  V30 2273 H 216.867 3.20312 -0.467138 0
M  V30 2274 H 215.774 2.58802 -2.70134 0
M  V30 2275 H 217.107 3.41923 -3.54047 0
M  V30 2276 N 218.759 1.29093 0.90403 0
M  V30 2277 C 219.706 1.13853 2.00764 0
M  V30 2278 C 220.676 0.0330084 1.66067 0
M  V30 2279 O 221.861 0.199733 1.89752 0
M  V30 2280 C 219.001 0.816537 3.35301 0
M  V30 2281 C 218.114 2.00206 3.82807 0
M  V30 2282 C 217.249 1.61983 5.059 0
M  V30 2283 C 216.288 2.77143 5.45764 0
M  V30 2284 N 215.425 2.39346 6.60044 0
M  V30 2285 H 220.265 2.08276 2.13132 0
M  V30 2286 H 217.802 1.03648 1.04381 0
M  V30 2287 H 219.76 0.610557 4.12708 0
M  V30 2288 H 218.39 -0.090779 3.22672 0
M  V30 2289 H 217.442 2.31988 3.01473 0
M  V30 2290 H 218.754 2.86512 4.08304 0
M  V30 2291 H 217.908 1.37649 5.90879 0
M  V30 2292 H 216.647 0.728202 4.82233 0
M  V30 2293 H 215.652 3.02165 4.59322 0
M  V30 2294 H 216.877 3.66964 5.71414 0
M  V30 2295 H 214.823 1.52665 6.37989 0
M  V30 2296 H 214.74 3.19185 6.85315 0
M  V30 2297 H 216.008 2.1832 7.48303 0
M  V30 2298 N 220.237 -1.11381 1.11499 0
M  V30 2299 C 221.483 -1.83403 0.865512 0
M  V30 2300 C 221.816 -1.84459 -0.607329 0
M  V30 2301 O 221.091 -1.29811 -1.44842 0
M  V30 2302 C 221.374 -3.30552 1.42855 0
M  V30 2303 C 221.227 -3.37886 2.96906 0
M  V30 2304 C 222.546 -4.26643 1.08 0
M  V30 2305 H 219.665 -0.665879 0.31587 0
M  V30 2306 H 222.307 -1.30601 1.37998 0
M  V30 2307 H 220.457 -3.75648 0.990985 0
M  V30 2308 H 222.129 -3.01343 3.49271 0
M  V30 2309 H 220.372 -2.78088 3.32941 0
M  V30 2310 H 221.043 -4.41458 3.31389 0
M  V30 2311 H 223.519 -3.89729 1.45775 0
M  V30 2312 H 222.395 -5.27986 1.50072 0
M  V30 2313 H 222.656 -4.42099 -0.00915037 0
M  V30 2314 N 221.715 -0.905404 -1.28997 0
M  V30 2315 C 222.645 -0.404212 -2.29975 0
M  V30 2316 C 223.626 0.523784 -1.61835 0
M  V30 2317 O 224.811 0.433298 -1.89304 0
M  V30 2318 C 221.941 0.364042 -3.45387 0
M  V30 2319 C 220.895 -0.474048 -4.25367 0
M  V30 2320 C 220.221 0.422045 -5.33032 0
M  V30 2321 C 221.521 -1.72696 -4.92923 0
M  V30 2322 H 223.215 -1.24807 -2.72146 0
M  V30 2323 H 220.761 -0.601585 -1.30832 0
M  V30 2324 H 222.714 0.725447 -4.15109 0
M  V30 2325 H 221.438 1.24174 -3.02074 0
M  V30 2326 H 220.097 -0.81786 -3.57361 0
M  V30 2327 H 219.745 1.29804 -4.85963 0
M  V30 2328 H 219.445 -0.135057 -5.87445 0
M  V30 2329 H 220.969 0.779517 -6.05604 0
M  V30 2330 H 222.383 -1.43495 -5.55051 0
M  V30 2331 H 220.78 -2.22582 -5.57295 0
M  V30 2332 H 221.85 -2.45964 -4.17887 0
M  V30 2333 N 223.193 1.4272 -0.668489 0
M  V30 2334 C 224.156 2.292 0.00448567 0
M  V30 2335 C 225.156 1.43001 0.735339 0
M  V30 2336 O 226.346 1.64461 0.57429 0
M  V30 2337 C 223.478 3.25375 1.01705 0
M  V30 2338 H 224.671 2.90199 -0.756608 0
M  V30 2339 H 222.224 1.50254 -0.430506 0
M  V30 2340 H 222.959 2.69301 1.80686 0
M  V30 2341 H 222.744 3.88944 0.496463 0
M  V30 2342 H 224.234 3.90245 1.48655 0
M  V30 2343 N 224.671 0.411399 1.52136 0
M  V30 2344 C 225.899 -0.163076 2.06256 0
M  V30 2345 C 226.314 -1.3867 1.28125 0
M  V30 2346 O 225.671 -1.79423 0.333721 0
M  V30 2347 C 225.722 -0.511252 3.57867 0
M  V30 2348 O 225.443 0.66378 4.33042 0
M  V30 2349 C 226.944 -1.13921 4.28412 0
M  V30 2350 H 224.164 -0.0193897 0.67072 0
M  V30 2351 H 226.708 0.583007 1.96013 0
M  V30 2352 H 224.863 -1.20723 3.6811 0
M  V30 2353 H 225.277 0.372601 5.23175 0
M  V30 2354 H 226.751 -1.33302 5.35663 0
M  V30 2355 H 227.228 -2.11296 3.85033 0
M  V30 2356 H 227.834 -0.483373 4.22544 0
M  V30 2357 N 226.149 -1.5696 0.141893 0
M  V30 2358 C 227.377 -2.00322 -0.517579 0
M  V30 2359 C 227.792 -1.02193 -1.58752 0
M  V30 2360 O 227.149 -0.0181619 -1.82491 0
M  V30 2361 C 227.2 -3.43618 -1.12289 0
M  V30 2362 O 226.921 -4.37995 -0.0956929 0
M  V30 2363 C 228.422 -4.02231 -1.86347 0
M  V30 2364 H 225.642 -0.657243 -0.135177 0
M  V30 2365 H 228.186 -2.03146 0.234973 0
M  V30 2366 H 226.341 -3.41662 -1.82609 0
M  V30 2367 H 226.755 -5.21729 -0.538469 0
M  V30 2368 H 228.229 -5.04509 -2.23997 0
M  V30 2369 H 228.706 -3.42655 -2.74744 0
M  V30 2370 H 229.312 -4.07802 -1.20737 0
M  V30 2371 N 227.627 0.131896 -1.57047 0
M  V30 2372 C 228.904 0.871495 -1.75112 0
M  V30 2373 C 229.284 1.9866 -0.713949 0
M  V30 2374 O 228.632 2.26965 0.264447 0
M  V30 2375 C 228.842 1.40007 -3.19686 0
M  V30 2376 C 230.19 1.85752 -3.81813 0
M  V30 2377 O 231.214 1.49715 -3.23209 0
M  V30 2378 O 230.073 2.5226 -4.84796 0
M  V30 2379 H 227.167 0.412919 -0.716538 0
M  V30 2380 H 229.713 0.116641 -1.69299 0
M  V30 2381 H 228.485 0.599404 -3.86682 0
M  V30 2382 H 228.108 2.218 -3.29986 0
M  V30 2383 N 229.106 1.52395 0.401703 0
M  V30 2384 C 230.336 1.70429 1.1678 0
M  V30 2385 C 230.744 0.416702 1.84554 0
M  V30 2386 O 230.087 -0.617697 1.73003 0
M  V30 2387 C 230.149 2.78919 2.26814 0
M  V30 2388 C 229.813 4.20437 1.79113 0
M  V30 2389 C 230.81 5.04028 1.27482 0
M  V30 2390 C 228.495 4.66704 1.85722 0
M  V30 2391 C 230.489 6.31961 0.830913 0
M  V30 2392 C 228.176 5.94625 1.40942 0
M  V30 2393 C 229.174 6.77082 0.897128 0
M  V30 2394 O 228.862 8.02607 0.455822 0
M  V30 2395 H 228.594 0.574272 0.356634 0
M  V30 2396 H 231.148 1.99767 0.477724 0
M  V30 2397 H 229.378 2.44973 2.99207 0
M  V30 2398 H 231.067 2.8548 2.88541 0
M  V30 2399 H 231.833 4.69471 1.21744 0
M  V30 2400 H 227.712 4.0262 2.24539 0
M  V30 2401 H 231.256 6.96271 0.430368 0
M  V30 2402 H 227.153 6.28688 1.46362 0
M  V30 2403 H 227.921 8.16453 0.578457 0
M  V30 2404 N 230.584 -0.659388 1.43143 0
M  V30 2405 C 231.531 -1.77249 1.47822 0
M  V30 2406 C 232.501 -1.62818 0.328558 0
M  V30 2407 O 233.686 -1.83151 0.534838 0
M  V30 2408 C 230.826 -3.15371 1.40126 0
M  V30 2409 C 229.939 -3.4098 2.65249 0
M  V30 2410 C 229.074 -4.68915 2.49584 0
M  V30 2411 C 228.113 -4.87608 3.70006 0
M  V30 2412 N 227.25 -6.06796 3.53189 0
M  V30 2413 H 232.09 -1.72584 2.42938 0
M  V30 2414 H 229.627 -0.842297 1.20598 0
M  V30 2415 H 231.585 -3.9521 1.33659 0
M  V30 2416 H 230.215 -3.19121 0.485964 0
M  V30 2417 H 229.267 -2.55282 2.8202 0
M  V30 2418 H 230.579 -3.50681 3.54717 0
M  V30 2419 H 229.733 -5.56871 2.4079 0
M  V30 2420 H 228.472 -4.61524 1.5763 0
M  V30 2421 H 227.477 -3.9809 3.79215 0
M  V30 2422 H 228.702 -4.96834 4.62961 0
M  V30 2423 H 226.648 -6.00549 2.63965 0
M  V30 2424 H 226.565 -6.17428 4.36255 0
M  V30 2425 H 227.833 -6.9739 3.48236 0
M  V30 2426 N 232.062 -1.29571 -0.897171 0
M  V30 2427 C 233.009 -1.14916 -2.00158 0
M  V30 2428 C 233.979 -0.0418149 -1.66047 0
M  V30 2429 O 235.164 -0.209793 -1.89643 0
M  V30 2430 C 232.304 -0.834307 -3.34863 0
M  V30 2431 C 231.417 -2.02234 -3.8174 0
M  V30 2432 C 230.552 -1.64664 -5.05034 0
M  V30 2433 C 229.591 -2.80033 -5.44286 0
M  V30 2434 N 228.728 -2.42843 -6.58765 0
M  V30 2435 H 233.568 -2.09403 -2.12025 0
M  V30 2436 H 231.105 -1.042 -1.0383 0
M  V30 2437 H 233.063 -0.632436 -4.12379 0
M  V30 2438 H 231.693 0.0736656 -3.22716 0
M  V30 2439 H 230.745 -2.33583 -3.00238 0
M  V30 2440 H 232.057 -2.88673 -4.06779 0
M  V30 2441 H 231.211 -1.4078 -5.9014 0
M  V30 2442 H 229.95 -0.753766 -4.8184 0
M  V30 2443 H 228.955 -3.04596 -4.57713 0
M  V30 2444 H 230.18 -3.69989 -5.6946 0
M  V30 2445 H 228.126 -1.56046 -6.3717 0
M  V30 2446 H 228.043 -3.22815 -6.83613 0
M  V30 2447 H 229.311 -2.22285 -7.47134 0
M  V30 2448 N 233.54 1.10788 -1.12088 0
M  V30 2449 C 234.787 1.82671 -0.873931 0
M  V30 2450 C 235.115 1.85004 0.600311 0
M  V30 2451 O 234.37 1.30365 1.45957 0
M  V30 2452 C 234.669 3.29294 -1.38926 0
M  V30 2453 C 234.335 3.47113 -2.87791 0
M  V30 2454 C 232.997 3.51684 -3.28439 0
M  V30 2455 C 235.349 3.52808 -3.83635 0
M  V30 2456 C 232.677 3.59513 -4.63646 0
M  V30 2457 C 235.029 3.62169 -5.18668 0
M  V30 2458 C 233.693 3.65003 -5.58864 0
M  V30 2459 H 232.963 0.668441 -0.319794 0
M  V30 2460 H 235.61 1.30613 -1.40045 0
M  V30 2461 H 233.915 3.83894 -0.783122 0
M  V30 2462 H 235.612 3.83416 -1.17443 0
M  V30 2463 H 232.202 3.4423 -2.5535 0
M  V30 2464 H 236.386 3.4853 -3.53328 0
M  V30 2465 H 231.642 3.59987 -4.94185 0
M  V30 2466 H 235.816 3.6552 -5.92763 0
M  V30 2467 H 233.443 3.70822 -6.63623 0
M  V30 2468 N 235.018 0.912232 1.28515 0
M  V30 2469 C 236.265 0.544599 1.95039 0
M  V30 2470 C 236.593 -0.911435 1.71823 0
M  V30 2471 O 235.848 -1.66317 1.03137 0
M  V30 2472 C 236.147 0.798392 3.48368 0
M  V30 2473 C 235.813 2.23374 3.91682 0
M  V30 2474 C 234.475 2.62617 4.03219 0
M  V30 2475 C 236.827 3.16786 4.13879 0
M  V30 2476 C 234.155 3.94429 4.3433 0
M  V30 2477 C 236.507 4.48161 4.46469 0
M  V30 2478 C 235.171 4.8726 4.56217 0
M  V30 2479 H 234.441 0.199283 0.7137 0
M  V30 2480 H 237.088 1.15327 1.52879 0
M  V30 2481 H 235.393 0.106908 3.91654 0
M  V30 2482 H 237.09 0.493141 3.97956 0
M  V30 2483 H 233.68 1.91922 3.83228 0
M  V30 2484 H 237.864 2.87677 4.0442 0
M  V30 2485 H 233.12 4.24426 4.40082 0
M  V30 2486 H 237.294 5.20559 4.62592 0
M  V30 2487 H 234.921 5.89431 4.80078 0
M  V30 2488 N 236.496 -1.42363 0.676048 0
M  V30 2489 C 237.459 -2.29199 0.00766941 0
M  V30 2490 C 238.459 -1.43389 -0.727745 0
M  V30 2491 O 239.649 -1.64764 -0.56556 0
M  V30 2492 C 236.781 -3.2591 -0.999785 0
M  V30 2493 H 237.974 -2.89794 0.771988 0
M  V30 2494 H 235.527 -1.50024 0.438468 0
M  V30 2495 H 236.262 -2.70256 -1.79255 0
M  V30 2496 H 236.047 -3.89202 -0.475829 0
M  V30 2497 H 237.537 -3.91028 -1.46583 0
M  V30 2498 N 237.974 -0.419461 -1.51915 0
M  V30 2499 C 239.199 0.154572 -2.06823 0
M  V30 2500 C 239.624 1.3722 -1.28656 0
M  V30 2501 O 238.982 1.78461 -0.319583 0
M  V30 2502 C 239.03 0.473172 -3.57482 0
M  V30 2503 O 238.134 1.56255 -3.81652 0
M  V30 2504 H 237.475 0.0096924 -0.663929 0
M  V30 2505 H 240.005 -0.595642 -1.95738 0
M  V30 2506 H 240.015 0.728825 -4.01438 0
M  V30 2507 H 238.69 -0.416873 -4.13805 0
M  V30 2508 H 237.267 1.29825 -3.49571 0
M  V30 2509 N 239.452 1.56882 -0.150215 0
M  V30 2510 C 240.698 1.96518 0.500834 0
M  V30 2511 C 241.031 1.03527 1.64304 0
M  V30 2512 O 240.306 0.0782751 1.94342 0
M  V30 2513 C 240.589 3.45822 1.00395 0
M  V30 2514 C 240.442 4.49591 -0.136983 0
M  V30 2515 C 241.761 3.97704 1.88467 0
M  V30 2516 H 238.88 0.714535 0.18058 0
M  V30 2517 H 241.522 1.88577 -0.232091 0
M  V30 2518 H 239.672 3.5272 1.62851 0
M  V30 2519 H 241.344 4.5477 -0.77343 0
M  V30 2520 H 239.587 4.26441 -0.795652 0
M  V30 2521 H 240.258 5.51402 0.256815 0
M  V30 2522 H 242.734 3.93304 1.35834 0
M  V30 2523 H 241.61 5.0263 2.20578 0
M  V30 2524 H 241.871 3.40252 2.82279 0
M  V30 2525 N 240.93 -0.123565 1.57115 0
M  V30 2526 C 241.893 -1.13583 1.99076 0
M  V30 2527 C 242.893 -1.34564 0.880296 0
M  V30 2528 O 244.083 -1.31158 1.14644 0
M  V30 2529 C 241.215 -2.49128 2.32698 0
M  V30 2530 H 242.408 -0.775287 2.89706 0
M  V30 2531 H 239.961 -0.36771 1.51913 0
M  V30 2532 H 240.696 -2.90111 1.44934 0
M  V30 2533 H 240.481 -2.35255 3.13684 0
M  V30 2534 H 241.971 -3.2199 2.65918 0
M  V30 2535 N 242.408 -1.52605 -0.393616 0
M  V30 2536 C 243.656 -1.67093 -1.13685 0
M  V30 2537 C 243.977 -0.411011 -1.90619 0
M  V30 2538 O 243.247 0.574491 -1.87287 0
M  V30 2539 H 241.827 -0.615923 -0.422668 0
M  V30 2540 H 244.489 -1.89704 -0.447039 0
M  V30 2541 H 243.585 -2.51922 -1.84232 0
M  V30 2542 O 243.925 0.539544 -1.52221 0
M  V30 2543 H 244.616 1.19468 -1.5247 0
M  V30 END ATOM
M  V30 BEGIN BOND
M  V30 END BOND
M  V30 END CTAB
M  END
$$$$
