drugbank_target|Q06174 Carboxylesterase (DB01670)
 OpenBabel12092119513D

  0  0  0     0  0            999 V3000
M  V30 BEGIN CTAB
M  V30 COUNTS 3941 3992 0 0 0
M  V30 BEGIN ATOM
M  V30 1 H -0.908 1.98254 -0.117106 0
M  V30 2 N 0 1.576 0 0
M  V30 3 C 0.933 2.03868 1.02534 0
M  V30 4 C 1.911 0.928543 1.3348 0
M  V30 5 O 3.095 1.19667 1.45644 0
M  V30 6 C 0.222 2.43627 2.35294 0
M  V30 7 C -0.732 3.65373 2.2001 0
M  V30 8 S 0.101 5.13292 1.52614 0
M  V30 9 C 1.257 5.56322 2.86805 0
M  V30 10 H 1.49 2.90518 0.631377 0
M  V30 11 H -0.977 1.52953 0.210867 0
M  V30 12 H 0.981 2.67203 3.11629 0
M  V30 13 H -0.358 1.57376 2.7183 0
M  V30 14 H -1.165 3.90944 3.18086 0
M  V30 15 H -1.563 3.418 1.51819 0
M  V30 16 H 0.729 5.58782 3.83104 0
M  V30 17 H 1.672 6.56266 2.65933 0
M  V30 18 H 2.08 4.83886 2.90714 0
M  V30 19 N 1.4781 -0.272755 1.55222 0
M  V30 20 C 2.4251 -1.33716 1.88119 0
M  V30 21 C 3.3951 -1.49066 0.73271 0
M  V30 22 O 4.5801 -1.63469 0.984002 0
M  V30 23 C 1.7201 -2.69238 2.15882 0
M  V30 24 C 0.8331 -2.62108 3.43399 0
M  V30 25 C -0.0319 -3.89811 3.60861 0
M  V30 26 C -0.9929 -3.77193 4.8207 0
M  V30 27 N -1.8559 -4.9673 4.96189 0
M  V30 28 H 2.9841 -1.04962 2.78903 0
M  V30 29 H 0.5211 -0.507088 1.38083 0
M  V30 30 H 2.4791 -3.48089 2.29978 0
M  V30 31 H 1.1091 -2.96194 1.28331 0
M  V30 32 H 0.1611 -1.74967 3.37773 0
M  V30 33 H 1.4731 -2.48685 4.32386 0
M  V30 34 H 0.6271 -4.77103 3.74777 0
M  V30 35 H -0.6339 -4.06102 2.7006 0
M  V30 36 H -1.6289 -2.88284 4.68159 0
M  V30 37 H -0.4039 -3.62421 5.74307 0
M  V30 38 H -2.4579 -5.13431 4.08319 0
M  V30 39 H -2.5409 -4.85839 5.79221 0
M  V30 40 H -1.2729 -5.85594 5.1449 0
M  V30 41 N 2.9562 -1.48159 -0.537278 0
M  V30 42 C 4.2052 -1.5506 -1.28993 0
M  V30 43 C 4.5182 -0.226211 -1.94288 0
M  V30 44 O 5.7242 -0.173395 -2.70946 0
M  V30 45 C 4.1802 -2.73429 -2.34018 0
M  V30 46 C 3.7882 -4.1248 -1.74825 0
M  V30 47 C 5.5322 -2.89638 -3.10339 0
M  V30 48 C 3.4392 -5.22121 -2.77747 0
M  V30 49 H 2.3692 -0.577231 -0.485098 0
M  V30 50 H 5.0202 -1.74478 -0.568317 0
M  V30 51 H 3.4022 -2.47431 -3.09182 0
M  V30 52 H 4.5762 -4.48466 -1.05899 0
M  V30 53 H 2.8912 -4.01327 -1.11022 0
M  V30 54 H 5.4882 -3.68718 -3.87235 0
M  V30 55 H 5.8312 -1.9882 -3.65754 0
M  V30 56 H 6.3642 -3.15502 -2.42288 0
M  V30 57 H 3.1032 -6.1488 -2.27161 0
M  V30 58 H 2.6232 -4.90631 -3.45024 0
M  V30 59 H 4.3022 -5.49924 -3.4087 0
M  V30 60 N 4.4343 0.785586 -1.36625 0
M  V30 61 C 5.6803 1.54591 -1.31261 0
M  V30 62 C 6.0133 1.93906 0.106823 0
M  V30 63 O 5.2883 1.63007 1.06108 0
M  V30 64 C 5.5713 2.82038 -2.23889 0
M  V30 65 C 5.4243 2.49066 -3.74548 0
M  V30 66 C 6.7433 3.83887 -2.15217 0
M  V30 67 H 3.8623 0.560846 -0.478143 0
M  V30 68 H 6.5043 0.902278 -1.67209 0
M  V30 69 H 4.6543 3.36961 -1.93363 0
M  V30 70 H 6.3263 2.00164 -4.15611 0
M  V30 71 H 4.5693 1.81954 -3.93796 0
M  V30 72 H 5.2403 3.40109 -4.34776 0
M  V30 73 H 7.7163 3.38421 -2.42096 0
M  V30 74 H 6.5923 4.70806 -2.82193 0
M  V30 75 H 6.8533 4.27131 -1.14068 0
M  V30 76 N 5.9124 1.20967 1.01018 0
M  V30 77 C 7.3234 1.02319 1.56165 0
M  V30 78 C 7.6744 -0.418546 1.91684 0
M  V30 79 O 6.7994 -1.30096 1.72928 0
M  V30 80 C 7.3944 1.85109 2.8376 0
M  V30 81 C 5.9534 1.70809 3.35412 0
M  V30 82 C 5.1004 1.82643 2.08655 0
M  V30 83 H 8.0514 1.35065 0.833255 0
M  V30 84 H 8.0724 1.35827 3.55431 0
M  V30 85 H 7.5844 2.90035 2.57878 0
M  V30 86 H 5.6854 0.685464 3.66241 0
M  V30 87 H 5.7984 2.52467 4.07182 0
M  V30 88 H 4.1624 1.25896 2.21409 0
M  V30 89 H 4.9454 2.89066 1.85191 0
M  V30 90 N 7.3905 -1.2043 1.01659 0
M  V30 91 C 8.8015 -1.71517 0.737482 0
M  V30 92 C 9.1525 -1.81547 -0.743973 0
M  V30 93 O 8.2775 -1.47803 -1.58061 0
M  V30 94 C 8.8725 -3.11515 1.33206 0
M  V30 95 C 7.4315 -3.59912 1.10183 0
M  V30 96 C 6.5785 -2.37116 1.43776 0
M  V30 97 H 9.5295 -1.05444 1.18606 0
M  V30 98 H 9.5505 -3.73575 0.722636 0
M  V30 99 H 9.0625 -3.04182 2.41028 0
M  V30 100 H 7.1635 -3.72577 0.0412756 0
M  V30 101 H 7.2765 -4.44731 1.78188 0
M  V30 102 H 5.6405 -2.39857 0.856778 0
M  V30 103 H 6.4235 -2.32424 2.52654 0
M  V30 104 N 8.8686 -0.792821 -1.36206 0
M  V30 105 C 9.8156 -0.191653 -2.30003 0
M  V30 106 C 10.7856 0.666453 -1.52143 0
M  V30 107 O 11.9706 0.61442 -1.80636 0
M  V30 108 C 9.1106 0.664848 -3.38635 0
M  V30 109 C 8.2236 -0.212175 -4.31479 0
M  V30 110 C 7.3586 0.651022 -5.27196 0
M  V30 111 C 6.3976 -0.227247 -6.11678 0
M  V30 112 N 5.5346 0.595127 -6.99573 0
M  V30 113 H 10.3746 -0.996978 -2.80828 0
M  V30 114 H 7.9116 -0.503206 -1.38225 0
M  V30 115 H 9.8696 1.17645 -4.00269 0
M  V30 116 H 8.4996 1.43557 -2.89122 0
M  V30 117 H 7.5516 -0.841777 -3.70969 0
M  V30 118 H 8.8636 -0.888751 -4.90818 0
M  V30 119 H 8.0176 1.2283 -5.94136 0
M  V30 120 H 6.7566 1.36121 -4.68319 0
M  V30 121 H 5.7616 -0.816904 -5.43697 0
M  V30 122 H 6.9866 -0.93509 -6.72631 0
M  V30 123 H 4.9326 1.28955 -6.432 0
M  V30 124 H 4.8496 -0.0236952 -7.55996 0
M  V30 125 H 6.1176 1.15613 -7.70879 0
M  V30 126 N 10.3467 1.47872 -0.545128 0
M  V30 127 C 11.7577 1.86384 -0.108581 0
M  V30 128 C 12.1087 1.45309 1.31832 0
M  V30 129 O 11.2337 0.850641 1.9898 0
M  V30 130 C 11.8287 3.38265 -0.190274 0
M  V30 131 C 10.3877 3.75914 0.191164 0
M  V30 132 C 9.5347 2.71926 -0.543273 0
M  V30 133 H 12.4857 1.39561 -0.755537 0
M  V30 134 H 12.5067 3.75831 0.594217 0
M  V30 135 H 12.0187 3.6813 -1.2289 0
M  V30 136 H 10.1197 3.51665 1.23136 0
M  V30 137 H 10.2327 4.78836 -0.158987 0
M  V30 138 H 8.5967 2.54697 0.0122495 0
M  V30 139 H 9.3797 3.04634 -1.58282 0
M  V30 140 N 11.8248 0.280983 1.55075 0
M  V30 141 C 13.0718 -0.334115 1.99725 0
M  V30 142 C 13.3998 -1.5542 1.1694 0
M  V30 143 O 12.6548 -1.94361 0.228531 0
M  V30 144 C 12.9538 -0.754656 3.49342 0
M  V30 145 C 12.6198 0.361445 4.49449 0
M  V30 146 C 11.2818 0.667893 4.76542 0
M  V30 147 C 13.6338 1.11322 5.09173 0
M  V30 148 C 10.9618 1.7296 5.60626 0
M  V30 149 C 13.3138 2.1647 5.9441 0
M  V30 150 C 11.9778 2.47742 6.19822 0
M  V30 151 H 11.2478 -0.122261 0.730844 0
M  V30 152 H 13.8948 0.395917 1.87363 0
M  V30 153 H 12.1998 -1.56446 3.5921 0
M  V30 154 H 13.8968 -1.24142 3.813 0
M  V30 155 H 10.4868 0.112481 4.28452 0
M  V30 156 H 14.6708 0.88973 4.8826 0
M  V30 157 H 9.9268 1.97684 5.78559 0
M  V30 158 H 14.1008 2.75193 6.3972 0
M  V30 159 H 11.7278 3.30145 6.84769 0
M  V30 160 N 13.3029 -1.57598 0.00835791 0
M  V30 161 C 14.5499 -1.90928 -0.674732 0
M  V30 162 C 14.8779 -0.88277 -1.73313 0
M  V30 163 O 14.1329 0.111294 -1.95383 0
M  V30 164 C 14.4319 -3.3101 -1.34787 0
M  V30 165 C 14.0979 -4.48922 -0.421861 0
M  V30 166 C 12.7599 -4.8091 -0.166927 0
M  V30 167 C 15.1119 -5.20755 0.215211 0
M  V30 168 C 12.4399 -5.821 0.733232 0
M  V30 169 C 14.7919 -6.22905 1.1033 0
M  V30 170 C 13.4559 -6.53346 1.36733 0
M  V30 171 H 12.7259 -0.698656 -0.246902 0
M  V30 172 H 15.3729 -1.91387 0.0656779 0
M  V30 173 H 13.6779 -3.26714 -2.16253 0
M  V30 174 H 15.3749 -3.54061 -1.8826 0
M  V30 175 H 11.9649 -4.23934 -0.630729 0
M  V30 176 H 16.1489 -4.9629 0.0312829 0
M  V30 177 H 11.4049 -6.04042 0.945712 0
M  V30 178 H 15.5789 -6.77694 1.60325 0
M  V30 179 H 13.2059 -7.31573 2.06652 0
M  V30 180 N 14.781 0.264519 -1.55364 0
M  V30 181 C 16.028 0.994986 -1.7637 0
M  V30 182 C 16.356 1.85976 -0.5695 0
M  V30 183 O 15.611 1.90509 0.44776 0
M  V30 184 C 15.91 1.9004 -3.02687 0
M  V30 185 C 15.576 1.19243 -4.34847 0
M  V30 186 C 14.238 0.996709 -4.70764 0
M  V30 187 C 16.59 0.689296 -5.16622 0
M  V30 188 C 13.918 0.285261 -5.86006 0
M  V30 189 C 16.27 -0.00860079 -6.32599 0
M  V30 190 C 14.934 -0.215963 -6.67151 0
M  V30 191 H 14.204 0.364091 -0.645383 0
M  V30 192 H 16.851 0.266543 -1.89636 0
M  V30 193 H 15.156 2.69533 -2.84357 0
M  V30 194 H 16.853 2.46695 -3.16137 0
M  V30 195 H 13.443 1.3549 -4.06621 0
M  V30 196 H 17.627 0.828108 -4.89342 0
M  V30 197 H 12.883 0.113961 -6.11294 0
M  V30 198 H 17.057 -0.406186 -6.95214 0
M  V30 199 H 14.684 -0.769217 -7.56298 0
M  V30 200 N 16.2591 1.48442 0.529413 0
M  V30 201 C 17.1691 1.6569 1.66084 0
M  V30 202 C 18.1851 0.539432 1.65427 0
M  V30 203 O 19.3611 0.810572 1.84368 0
M  V30 204 C 16.4261 1.69315 3.02545 0
M  V30 205 C 15.4871 2.92694 3.14052 0
M  V30 206 C 14.7201 2.96137 4.44003 0
M  V30 207 O 14.9431 2.07973 5.31134 0
M  V30 208 O 13.8771 3.88312 4.59888 0
M  V30 209 H 17.7031 2.61483 1.54469 0
M  V30 210 H 15.2881 1.3185 0.702567 0
M  V30 211 H 17.1701 1.74217 3.83701 0
M  V30 212 H 15.8451 0.766966 3.14483 0
M  V30 213 H 14.7521 2.93324 2.32189 0
M  V30 214 H 16.0851 3.84699 3.0703 0
M  V30 215 N 17.7372 -0.778329 1.37039 0
M  V30 216 C 18.7002 -1.87301 1.32102 0
M  V30 217 C 19.7002 -1.59198 0.226405 0
M  V30 218 O 20.8902 -1.67403 0.481861 0
M  V30 219 C 18.0222 -3.24309 1.05055 0
M  V30 220 H 19.2152 -1.93093 2.29467 0
M  V30 221 H 16.7682 -0.977358 1.21973 0
M  V30 222 H 17.5032 -3.24196 0.0819373 0
M  V30 223 H 17.2882 -3.46098 1.84279 0
M  V30 224 H 18.7782 -4.04382 1.04234 0
M  V30 225 N 19.2153 -1.21501 -1.00376 0
M  V30 226 C 20.4633 -1.03095 -1.73827 0
M  V30 227 C 20.7843 0.436341 -1.90055 0
M  V30 228 O 20.0543 1.31466 -1.45236 0
M  V30 229 H 18.6343 -0.378487 -0.644016 0
M  V30 230 H 21.2963 -1.52831 -1.20949 0
M  V30 231 H 20.3923 -1.49991 -2.73695 0
M  V30 232 N 20.6934 1.19889 -1.02296 0
M  V30 233 C 21.6034 2.26571 -0.608508 0
M  V30 234 C 22.6194 1.70299 0.356964 0
M  V30 235 O 23.7954 2.00235 0.216326 0
M  V30 236 C 20.8604 3.46677 0.0402814 0
M  V30 237 C 19.9214 4.18153 -0.97194 0
M  V30 238 C 19.1544 5.32525 -0.354016 0
M  V30 239 O 19.3774 5.64112 0.844604 0
M  V30 240 O 18.3114 5.92242 -1.07391 0
M  V30 241 H 22.1374 2.64251 -1.49684 0
M  V30 242 H 19.7224 1.26629 -0.792809 0
M  V30 243 H 21.6044 4.19475 0.402324 0
M  V30 244 H 20.2794 3.10858 0.902707 0
M  V30 245 H 19.1864 3.47499 -1.38546 0
M  V30 246 H 20.5194 4.57927 -1.80454 0
M  V30 247 N 22.1715 0.800033 1.35784 0
M  V30 248 C 23.5875 0.482977 1.52117 0
M  V30 249 C 23.7875 -0.996948 1.75109 0
M  V30 250 O 22.8435 -1.78216 1.78872 0
M  V30 251 C 24.1565 1.32264 2.70049 0
M  V30 252 C 25.7045 1.31742 2.83924 0
M  V30 253 C 26.1795 2.14106 4.04874 0
M  V30 254 N 27.6705 2.11607 4.12039 0
M  V30 255 C 28.4055 2.72099 5.04727 0
M  V30 256 N 27.9015 3.41492 6.02789 0
M  V30 257 N 29.6945 2.61776 4.97423 0
M  V30 258 H 21.8455 1.75856 1.19115 0
M  V30 259 H 24.1085 0.748122 0.582252 0
M  V30 260 H 23.8145 2.37261 2.59616 0
M  V30 261 H 23.6885 0.971303 3.6448 0
M  V30 262 H 26.0755 0.275333 2.93813 0
M  V30 263 H 26.1565 1.70859 1.9037 0
M  V30 264 H 25.8005 3.18351 3.95746 0
M  V30 265 H 25.7305 1.72353 4.97596 0
M  V30 266 H 28.2215 1.61112 3.41835 0
M  V30 267 H 28.5345 3.84953 6.70098 0
M  V30 268 H 26.8795 3.45596 6.02983 0
M  V30 269 H 30.0705 2.07157 4.19766 0
M  V30 270 H 30.2435 3.0921 5.69468 0
M  V30 271 N 23.6496 -1.47581 0.552962 0
M  V30 272 C 24.6126 -2.28439 -0.186605 0
M  V30 273 C 25.6126 -1.36706 -0.84665 0
M  V30 274 O 26.8026 -1.59378 -0.703164 0
M  V30 275 C 23.9346 -3.16264 -1.2724 0
M  V30 276 H 25.1276 -2.95294 0.523609 0
M  V30 277 H 22.6806 -1.532 0.309745 0
M  V30 278 H 23.4156 -2.54091 -2.01514 0
M  V30 279 H 23.2006 -3.83769 -0.803968 0
M  V30 280 H 24.6906 -3.77198 -1.79196 0
M  V30 281 N 25.1277 -0.289203 -1.54924 0
M  V30 282 C 26.3737 0.323998 -2.00195 0
M  V30 283 C 26.7067 1.54441 -1.17735 0
M  V30 284 O 25.9817 1.92875 -0.250878 0
M  V30 285 C 26.2647 0.692276 -3.53383 0
M  V30 286 C 26.1177 -0.536457 -4.46589 0
M  V30 287 C 27.4367 1.52335 -4.12895 0
M  V30 288 H 24.5557 0.116289 -0.727768 0
M  V30 289 H 27.1977 -0.398954 -1.85764 0
M  V30 290 H 25.3477 1.30822 -3.65811 0
M  V30 291 H 27.0197 -1.17499 -4.46085 0
M  V30 292 H 25.2627 -1.17192 -4.1767 0
M  V30 293 H 25.9337 -0.234806 -5.515 0
M  V30 294 H 28.4097 1.00302 -4.0383 0
M  V30 295 H 27.2857 1.74982 -5.20262 0
M  V30 296 H 27.5467 2.50886 -3.64018 0
M  V30 297 N 26.6058 1.57591 -0.0167156 0
M  V30 298 C 27.5358 2.12496 0.967858 0
M  V30 299 C 28.5168 1.03807 1.34752 0
M  V30 300 O 29.7018 1.31577 1.42833 0
M  V30 301 C 26.8318 2.64194 2.25431 0
M  V30 302 C 25.7858 3.77559 2.01576 0
M  V30 303 C 25.1118 4.15636 3.36379 0
M  V30 304 C 26.4118 5.04151 1.36489 0
M  V30 305 H 28.1058 2.95013 0.510643 0
M  V30 306 H 25.6518 1.41915 0.244181 0
M  V30 307 H 27.6048 3.01236 2.94678 0
M  V30 308 H 26.3288 1.78821 2.73296 0
M  V30 309 H 24.9878 3.40937 1.34751 0
M  V30 310 H 24.6358 3.27263 3.81979 0
M  V30 311 H 24.3358 4.92022 3.21229 0
M  V30 312 H 25.8598 4.5525 4.06915 0
M  V30 313 H 27.2738 5.38857 1.95718 0
M  V30 314 H 25.6708 5.85453 1.31776 0
M  V30 315 H 26.7408 4.83733 0.336219 0
M  V30 316 N 28.0839 -0.256276 1.55502 0
M  V30 317 C 29.0139 -1.32102 1.92539 0
M  V30 318 C 29.9949 -1.50684 0.789194 0
M  V30 319 O 31.1799 -1.63449 1.04872 0
M  V30 320 C 28.3099 -2.67752 2.21192 0
M  V30 321 C 27.2639 -2.63878 3.36975 0
M  V30 322 C 26.5899 -4.03236 3.51147 0
M  V30 323 C 27.8899 -2.21682 4.72921 0
M  V30 324 H 29.5839 -1.01351 2.81724 0
M  V30 325 H 27.1299 -0.486105 1.35547 0
M  V30 326 H 29.0829 -3.42365 2.45691 0
M  V30 327 H 27.8069 -3.0012 1.28824 0
M  V30 328 H 26.4659 -1.91722 3.12471 0
M  V30 329 H 26.1139 -4.32854 2.56216 0
M  V30 330 H 25.8139 -4.01535 4.29003 0
M  V30 331 H 27.3379 -4.79563 3.77957 0
M  V30 332 H 28.7519 -2.86023 4.96854 0
M  V30 333 H 27.1489 -2.3111 5.53812 0
M  V30 334 H 28.2189 -1.16833 4.70615 0
M  V30 335 N 29.562 -1.4872 -0.521534 0
M  V30 336 C 30.492 -1.66771 -1.63431 0
M  V30 337 C 31.473 -0.516499 -1.62069 0
M  V30 338 O 32.658 -0.750013 -1.79132 0
M  V30 339 C 29.788 -1.71515 -3.01993 0
M  V30 340 C 28.742 -2.86222 -3.18216 0
M  V30 341 C 28.068 -2.76061 -4.57924 0
M  V30 342 C 29.368 -4.27419 -3.00184 0
M  V30 343 H 31.062 -2.59932 -1.48579 0
M  V30 344 H 28.608 -1.25089 -0.713358 0
M  V30 345 H 30.561 -1.82731 -3.7972 0
M  V30 346 H 29.285 -0.749393 -3.17886 0
M  V30 347 H 27.944 -2.74575 -2.42908 0
M  V30 348 H 27.592 -1.77437 -4.70665 0
M  V30 349 H 27.292 -3.53037 -4.69722 0
M  V30 350 H 28.816 -2.89256 -5.37739 0
M  V30 351 H 30.23 -4.39855 -3.67697 0
M  V30 352 H 28.627 -5.05458 -3.2347 0
M  V30 353 H 29.697 -4.43293 -1.96518 0
M  V30 354 N 31.0401 0.771051 -1.3745 0
M  V30 355 C 31.9901 1.87456 -1.29785 0
M  V30 356 C 32.9741 1.59827 -0.185541 0
M  V30 357 O 34.1661 1.71945 -0.419997 0
M  V30 358 C 31.2951 3.24935 -1.1078 0
M  V30 359 C 30.3811 3.58514 -2.26558 0
M  V30 360 N 30.7721 3.6327 -3.5195 0
M  V30 361 C 29.0701 3.88683 -2.18727 0
M  V30 362 C 29.7711 3.93616 -4.283 0
M  V30 363 N 28.7471 4.09551 -3.57448 0
M  V30 364 H 32.5491 1.89386 -2.24745 0
M  V30 365 H 30.0631 0.967531 -1.30432 0
M  V30 366 H 32.0601 4.03881 -1.03374 0
M  V30 367 H 30.7201 3.24268 -0.16738 0
M  V30 368 H 31.7311 3.45458 -3.85848 0
M  V30 369 H 28.4081 3.95834 -1.32746 0
M  V30 370 H 29.7981 4.04066 -5.36824 0
M  V30 371 N 32.5182 1.22032 0.997298 0
M  V30 372 C 33.7662 1.04016 1.73278 0
M  V30 373 C 34.0872 -0.426255 1.90284 0
M  V30 374 O 33.3572 -1.30694 1.45931 0
M  V30 375 H 31.9372 0.381897 0.642 0
M  V30 376 H 34.5992 1.5347 1.20137 0
M  V30 377 H 33.6952 1.51441 2.72896 0
M  V30 378 N 33.9963 -1.19345 1.0293 0
M  V30 379 C 35.2433 -1.89038 0.726008 0
M  V30 380 C 35.5713 -1.79649 -0.745427 0
M  V30 381 O 34.8263 -1.18354 -1.55855 0
M  V30 382 C 35.1253 -3.39292 1.12319 0
M  V30 383 C 34.7913 -3.68885 2.59297 0
M  V30 384 C 33.4533 -3.76671 2.99453 0
M  V30 385 C 35.8053 -3.82178 3.54386 0
M  V30 386 C 33.1333 -3.9522 4.33611 0
M  V30 387 C 35.4853 -4.0224 4.88248 0
M  V30 388 C 34.1493 -4.08259 5.28092 0
M  V30 389 H 33.4193 -0.691739 0.265665 0
M  V30 390 H 36.0663 -1.41328 1.29223 0
M  V30 391 H 34.3713 -3.88903 0.475584 0
M  V30 392 H 36.0683 -3.91536 0.866037 0
M  V30 393 H 32.6583 -3.63433 2.27189 0
M  V30 394 H 36.8423 -3.75505 3.24514 0
M  V30 395 H 32.0983 -3.98119 4.64016 0
M  V30 396 H 36.2723 -4.11468 5.61843 0
M  V30 397 H 33.8993 -4.22384 6.32057 0
M  V30 398 N 35.4744 -0.807222 -1.35358 0
M  V30 399 C 36.7024 -0.400377 -2.02989 0
M  V30 400 C 37.1174 0.988859 -1.60832 0
M  V30 401 O 36.4744 1.63729 -0.806175 0
M  V30 402 C 36.5254 -0.474867 -3.58368 0
M  V30 403 O 36.2464 -1.80933 -3.98992 0
M  V30 404 C 37.7474 -0.0609112 -4.43258 0
M  V30 405 H 34.9674 -0.162587 -0.651004 0
M  V30 406 H 37.5114 -1.09102 -1.72965 0
M  V30 407 H 35.6664 0.167534 -3.87038 0
M  V30 408 H 36.0804 -1.77256 -4.9364 0
M  V30 409 H 37.5544 -0.164145 -5.51756 0
M  V30 410 H 38.0314 0.993831 -4.27808 0
M  V30 411 H 38.6374 -0.676492 -4.19885 0
M  V30 412 N 36.9525 1.47285 -0.560781 0
M  V30 413 C 38.2005 2.02064 -0.0379868 0
M  V30 414 C 38.5215 1.43711 1.31803 0
M  V30 415 O 37.7915 0.61362 1.86042 0
M  V30 416 H 36.3715 0.746918 -0.0110531 0
M  V30 417 H 39.0335 1.80648 -0.731598 0
M  V30 418 H 38.1295 3.12064 0.0474463 0
M  V30 419 N 38.4306 0.297415 1.54768 0
M  V30 420 C 39.3786 -0.596051 2.24833 0
M  V30 421 C 40.3726 -1.13992 1.25308 0
M  V30 422 O 41.5786 -1.09098 1.4317 0
M  V30 423 H 37.9536 -0.210814 0.721846 0
M  V30 424 H 39.9246 0.0174667 2.98395 0
M  V30 425 C 38.6736 -1.75818 2.99972 0
M  V30 426 H 37.9966 -1.3489 3.76357 0
M  V30 427 H 39.4366 -2.35949 3.52284 0
M  V30 428 C 37.8956 -2.66014 2.06732 0
M  V30 429 O 38.4256 -3.67009 1.63302 0
M  V30 430 N 36.6316 -2.33669 1.72763 0
M  V30 431 H 36.1786 -1.51586 2.08277 0
M  V30 432 H 36.1366 -2.94285 1.10652 0
M  V30 433 N 39.9087 -1.5758 0.0250728 0
M  V30 434 C 41.1337 -1.96337 -0.668317 0
M  V30 435 C 41.5587 -0.901314 -1.651 0
M  V30 436 O 40.9167 0.138187 -1.80773 0
M  V30 437 C 40.9647 -3.34191 -1.35457 0
M  V30 438 O 40.0687 -3.30269 -2.46974 0
M  V30 439 H 39.4097 -0.640281 -0.175887 0
M  V30 440 H 41.9397 -2.0442 0.0857224 0
M  V30 441 H 41.9497 -3.70331 -1.71228 0
M  V30 442 H 40.6247 -4.11036 -0.634218 0
M  V30 443 H 39.2017 -3.05841 -2.13344 0
M  V30 444 N 41.3868 0.248026 -1.55636 0
M  V30 445 C 42.3498 1.29044 -1.89421 0
M  V30 446 C 43.3498 1.41134 -0.770581 0
M  V30 447 O 44.5398 1.39854 -1.03858 0
M  V30 448 C 41.6718 2.66831 -2.12165 0
M  V30 449 H 42.8648 1.00305 -2.82629 0
M  V30 450 H 40.4178 0.487265 -1.48511 0
M  V30 451 H 41.1528 3.00711 -1.21422 0
M  V30 452 H 40.9378 2.59438 -2.93997 0
M  V30 453 H 42.4278 3.42103 -2.3949 0
M  V30 454 N 42.8649 1.48995 0.513639 0
M  V30 455 C 44.1419 1.48338 1.27495 0
M  V30 456 C 44.5219 0.204065 2.10111 0
M  V30 457 O 43.8699 -0.813881 2.13514 0
M  V30 458 C 44.0799 2.75498 2.14247 0
M  V30 459 C 45.4279 3.24484 2.73852 0
M  V30 460 O 46.4519 2.76528 2.24523 0
M  V30 461 O 45.3109 4.07974 3.6362 0
M  V30 462 H 42.4049 0.593149 0.576284 0
M  V30 463 H 44.9509 1.61246 0.528948 0
M  V30 464 H 43.7229 3.60109 1.53092 0
M  V30 465 H 43.3459 2.6539 2.96064 0
M  V30 466 N 44.343 -0.763751 1.37857 0
M  V30 467 C 45.589 -1.52483 1.33704 0
M  V30 468 C 45.922 -1.94051 -0.0759612 0
M  V30 469 O 45.197 -1.64675 -1.03501 0
M  V30 470 C 45.48 -2.78441 2.28348 0
M  V30 471 C 45.333 -2.43075 3.78463 0
M  V30 472 C 46.652 -3.80415 2.21298 0
M  V30 473 H 43.771 -0.553169 0.487005 0
M  V30 474 H 46.413 -0.875562 1.68624 0
M  V30 475 H 44.563 -3.33842 1.987 0
M  V30 476 H 46.235 -1.93527 4.18742 0
M  V30 477 H 44.478 -1.75666 3.96641 0
M  V30 478 H 45.149 -3.33149 4.40132 0
M  V30 479 H 47.625 -3.34527 2.47449 0
M  V30 480 H 46.501 -4.66257 2.89647 0
M  V30 481 H 46.762 -4.25262 1.20849 0
M  V30 482 N 45.8211 -1.22559 -0.990812 0
M  V30 483 C 47.2371 -0.985996 -1.255 0
M  V30 484 C 47.4371 0.319173 -1.98956 0
M  V30 485 O 46.4931 1.04127 -2.3003 0
M  V30 486 C 47.8061 -2.18607 -2.06474 0
M  V30 487 C 49.3541 -2.22985 -2.19651 0
M  V30 488 C 49.8291 -3.4255 -3.04012 0
M  V30 489 N 51.3201 -3.42725 -3.11599 0
M  V30 490 C 52.0551 -4.31892 -3.7717 0
M  V30 491 N 51.5511 -5.31279 -4.44651 0
M  V30 492 N 53.3441 -4.19662 -3.73952 0
M  V30 493 H 45.4951 -2.06469 -0.49841 0
M  V30 494 H 47.7581 -0.904853 -0.282747 0
M  V30 495 H 47.4641 -3.13267 -1.59865 0
M  V30 496 H 47.3381 -2.18838 -3.07229 0
M  V30 497 H 49.7251 -1.28871 -2.65474 0
M  V30 498 H 49.8061 -2.26791 -1.18319 0
M  V30 499 H 49.4501 -4.36965 -2.58889 0
M  V30 500 H 49.3801 -3.35984 -4.0549 0
M  V30 501 H 51.8711 -2.70807 -2.63575 0
M  V30 502 H 52.1841 -5.95593 -4.92431 0
M  V30 503 H 50.5291 -5.3519 -4.43392 0
M  V30 504 H 53.7201 -3.41268 -3.20396 0
M  V30 505 H 53.8931 -4.89358 -4.24774 0
M  V30 506 N 47.2992 1.18797 -1.03562 0
M  V30 507 C 48.2322 2.2105 -0.56676 0
M  V30 508 C 49.2102 1.57704 0.395993 0
M  V30 509 O 50.3942 1.85908 0.311498 0
M  V30 510 C 47.5212 3.38259 0.172704 0
M  V30 511 C 46.5672 4.19987 -0.74252 0
M  V30 512 S 47.4002 4.87199 -2.22254 0
M  V30 513 C 48.5562 6.07813 -1.49379 0
M  V30 514 H 48.7892 2.60478 -1.43312 0
M  V30 515 H 46.3222 1.29151 -0.846133 0
M  V30 516 H 48.2802 4.06191 0.593191 0
M  V30 517 H 46.9412 2.97252 1.01488 0
M  V30 518 H 46.1342 5.03709 -0.171265 0
M  V30 519 H 45.7362 3.57408 -1.10163 0
M  V30 520 H 48.0282 6.72948 -0.784056 0
M  V30 521 H 48.9712 6.69435 -2.30786 0
M  V30 522 H 49.3792 5.55781 -0.988331 0
M  V30 523 N 48.7773 0.814389 1.34928 0
M  V30 524 C 49.7073 0.244827 2.32213 0
M  V30 525 C 50.6883 -0.634024 1.57842 0
M  V30 526 O 51.8733 -0.562676 1.8587 0
M  V30 527 C 49.0033 -0.601106 3.42058 0
M  V30 528 C 47.9573 0.179896 4.27622 0
M  V30 529 C 47.2833 -0.788237 5.28858 0
M  V30 530 C 48.5833 1.38329 5.03649 0
M  V30 531 H 50.2773 1.05763 2.80097 0
M  V30 532 H 47.8233 0.510029 1.34665 0
M  V30 533 H 49.7763 -1.00968 4.09125 0
M  V30 534 H 48.5003 -1.44688 2.92802 0
M  V30 535 H 47.1593 0.569739 3.62146 0
M  V30 536 H 46.8073 -1.62973 4.75866 0
M  V30 537 H 46.5073 -0.269942 5.8698 0
M  V30 538 H 48.0313 -1.19485 5.98795 0
M  V30 539 H 49.4453 1.04918 5.63618 0
M  V30 540 H 47.8423 1.83662 5.71304 0
M  V30 541 H 48.9123 2.16592 4.33839 0
M  V30 542 N 50.2554 -1.46986 0.568584 0
M  V30 543 C 51.5034 -2.02041 0.0487022 0
M  V30 544 C 51.8244 -1.44408 -1.31039 0
M  V30 545 O 51.0944 -0.623477 -1.85714 0
M  V30 546 H 49.6744 -0.746849 0.015014 0
M  V30 547 H 52.3364 -1.80257 0.741168 0
M  V30 548 H 51.4324 -3.12085 -0.0308961 0
M  V30 549 N 51.7335 -0.305618 -1.54608 0
M  V30 550 C 53.1495 0.0476228 -1.59529 0
M  V30 551 C 53.3495 1.52025 -1.32252 0
M  V30 552 O 52.4055 2.27368 -1.09818 0
M  V30 553 C 53.7185 -0.354471 -2.98603 0
M  V30 554 C 55.2665 -0.303622 -3.11524 0
M  V30 555 C 55.7415 -0.680608 -4.52915 0
M  V30 556 N 57.2325 -0.63332 -4.5885 0
M  V30 557 C 57.9675 -0.897432 -5.66334 0
M  V30 558 N 57.4635 -1.22775 -6.81834 0
M  V30 559 N 59.2565 -0.824186 -5.56025 0
M  V30 560 H 51.4075 -1.2653 -1.70599 0
M  V30 561 H 53.6705 -0.513291 -0.797017 0
M  V30 562 H 53.3765 -1.3798 -3.23503 0
M  V30 563 H 53.2505 0.289568 -3.76087 0
M  V30 564 H 55.6375 0.712472 -2.8637 0
M  V30 565 H 55.7185 -0.982348 -2.36185 0
M  V30 566 H 55.3625 -1.69453 -4.78799 0
M  V30 567 H 55.2925 0.0202385 -5.26596 0
M  V30 568 H 57.7835 -0.389138 -3.75891 0
M  V30 569 H 58.0965 -1.41513 -7.59733 0
M  V30 570 H 56.4415 -1.26583 -6.83375 0
M  V30 571 H 59.6325 -0.565748 -4.64669 0
M  V30 572 H 59.8055 -1.03338 -6.39707 0
M  V30 573 N 53.2116 1.57565 -0.0334293 0
M  V30 574 C 54.4586 1.91978 0.644272 0
M  V30 575 C 54.7866 0.910231 1.71887 0
M  V30 576 O 54.0416 -0.0801961 1.95536 0
M  V30 577 C 54.3406 3.33112 1.29504 0
M  V30 578 C 54.0066 4.49537 0.350388 0
M  V30 579 C 52.6686 4.81115 0.0903974 0
M  V30 580 C 55.0206 5.20347 -0.298032 0
M  V30 581 C 52.3486 5.8086 -0.825746 0
M  V30 582 C 54.7006 6.2107 -1.20226 0
M  V30 583 C 53.3646 6.51088 -1.4711 0
M  V30 584 H 52.6346 0.702496 0.235756 0
M  V30 585 H 55.2816 1.91259 -0.0961176 0
M  V30 586 H 53.5866 3.30113 2.11028 0
M  V30 587 H 55.2836 3.57011 1.82603 0
M  V30 588 H 51.8736 4.24883 0.563205 0
M  V30 589 H 56.0576 4.96178 -0.110234 0
M  V30 590 H 51.3136 6.02461 -1.04169 0
M  V30 591 H 55.4876 6.75057 -1.71086 0
M  V30 592 H 53.1146 7.28193 -2.18264 0
M  V30 593 N 54.6897 -0.239769 1.55765 0
M  V30 594 C 55.6197 -1.30052 1.9393 0
M  V30 595 C 56.6007 -1.49839 0.805132 0
M  V30 596 O 57.7857 -1.62328 1.06599 0
M  V30 597 C 54.9157 -2.65391 2.2402 0
M  V30 598 C 53.8697 -2.60289 3.39755 0
M  V30 599 C 53.1957 -3.99489 3.55405 0
M  V30 600 C 54.4957 -2.16654 4.75246 0
M  V30 601 H 56.1897 -0.983573 2.82783 0
M  V30 602 H 53.7357 -0.471701 1.36055 0
M  V30 603 H 55.6887 -3.3974 2.49308 0
M  V30 604 H 54.4127 -2.98736 1.32 0
M  V30 605 H 53.0717 -1.88398 3.14487 0
M  V30 606 H 52.7197 -4.30112 2.60793 0
M  V30 607 H 52.4197 -3.96962 4.33238 0
M  V30 608 H 53.9437 -4.75528 3.83022 0
M  V30 609 H 55.3577 -2.80737 4.99859 0
M  V30 610 H 53.7547 -2.25223 5.56232 0
M  V30 611 H 54.8247 -1.11835 4.71827 0
M  V30 612 N 56.1678 -1.49265 -0.50573 0
M  V30 613 C 57.0778 -1.68312 -1.63427 0
M  V30 614 C 58.0938 -0.565682 -1.64548 0
M  V30 615 O 59.2698 -0.839801 -1.83055 0
M  V30 616 C 56.3348 -1.74107 -2.99813 0
M  V30 617 C 55.3958 -2.97653 -3.09356 0
M  V30 618 C 54.6288 -3.03163 -4.39236 0
M  V30 619 O 54.8518 -2.16396 -5.27758 0
M  V30 620 O 53.7858 -3.9558 -4.53652 0
M  V30 621 H 57.6118 -2.63907 -1.50289 0
M  V30 622 H 55.1968 -1.32951 -0.681502 0
M  V30 623 H 57.0788 -1.803 -3.80881 0
M  V30 624 H 55.7538 -0.816901 -3.13223 0
M  V30 625 H 54.6608 -2.96981 -2.27493 0
M  V30 626 H 55.9938 -3.89535 -3.00871 0
M  V30 627 N 57.6459 0.756429 -1.3826 0
M  V30 628 C 58.8709 1.55077 -1.37717 0
M  V30 629 C 59.2959 1.88073 0.03164 0
M  V30 630 O 58.6539 1.50364 1.01293 0
M  V30 631 C 58.7019 2.8283 -2.23695 0
M  V30 632 O 57.8059 3.77862 -1.6521 0
M  V30 633 H 57.1469 0.469152 -0.469885 0
M  V30 634 H 59.6769 0.935019 -1.81985 0
M  V30 635 H 59.6869 3.31783 -2.37453 0
M  V30 636 H 58.3619 2.58144 -3.2609 0
M  V30 637 H 56.9389 3.36555 -1.60578 0
M  V30 638 N 59.124 1.23083 0.984299 0
M  V30 639 C 60.071 1.00854 2.07598 0
M  V30 640 C 61.041 -0.0726709 1.65941 0
M  V30 641 O 62.226 0.0786535 1.90638 0
M  V30 642 C 59.366 0.601645 3.39815 0
M  V30 643 C 58.479 1.75456 3.94765 0
M  V30 644 C 57.614 1.29482 5.15177 0
M  V30 645 C 56.653 2.41873 5.62284 0
M  V30 646 N 55.79 1.96885 6.73929 0
M  V30 647 H 60.63 1.943 2.25946 0
M  V30 648 H 58.167 0.968001 1.10762 0
M  V30 649 H 60.125 0.346854 4.15756 0
M  V30 650 H 58.755 -0.295803 3.21442 0
M  V30 651 H 57.807 2.12346 3.15616 0
M  V30 652 H 59.119 2.59965 4.25699 0
M  V30 653 H 58.273 0.997923 5.98437 0
M  V30 654 H 57.012 0.420046 4.85888 0
M  V30 655 H 56.017 2.72342 4.77608 0
M  V30 656 H 57.242 3.29881 5.93595 0
M  V30 657 H 55.188 1.11782 6.46406 0
M  V30 658 H 55.105 2.74956 7.04227 0
M  V30 659 H 56.373 1.70289 7.60672 0
M  V30 660 N 60.6021 -1.18246 1.0419 0
M  V30 661 C 61.8501 -1.87886 0.744543 0
M  V30 662 C 62.1711 -1.8082 -0.730006 0
M  V30 663 O 61.4411 -1.22736 -1.52685 0
M  V30 664 H 60.0211 -0.695556 0.272417 0
M  V30 665 H 62.6831 -1.43494 1.31892 0
M  V30 666 H 61.7791 -2.9389 1.05049 0
M  V30 667 N 62.0802 -0.821533 -1.34494 0
M  V30 668 C 63.3102 -0.421272 -2.02259 0
M  V30 669 C 63.7182 0.977047 -1.6202 0
M  V30 670 O 63.0612 1.64348 -0.820703 0
M  V30 671 C 63.1232 -0.44231 -3.56769 0
M  V30 672 C 62.7872 -1.79372 -4.20327 0
M  V30 673 C 63.7842 -2.75435 -4.40944 0
M  V30 674 C 61.4692 -2.08182 -4.57127 0
M  V30 675 C 63.4632 -3.98482 -4.97484 0
M  V30 676 C 61.1502 -3.31489 -5.13379 0
M  V30 677 C 62.1482 -4.26457 -5.33501 0
M  V30 678 O 61.8362 -5.47585 -5.88562 0
M  V30 679 H 61.5682 -0.167473 -0.654927 0
M  V30 680 H 64.1222 -1.11073 -1.72777 0
M  V30 681 H 62.3522 0.303836 -3.85505 0
M  V30 682 H 64.0412 -0.0622925 -4.05852 0
M  V30 683 H 64.8072 -2.54473 -4.12878 0
M  V30 684 H 60.6862 -1.35066 -4.4077 0
M  V30 685 H 64.2302 -4.72618 -5.13106 0
M  V30 686 H 60.1272 -3.52316 -5.40873 0
M  V30 687 H 60.8952 -5.49086 -6.06998 0
M  V30 688 N 63.5583 1.46682 -0.576371 0
M  V30 689 C 64.7863 2.06798 -0.0649635 0
M  V30 690 C 65.2013 1.42612 1.23723 0
M  V30 691 O 64.5583 0.529203 1.74659 0
M  V30 692 C 64.6093 3.6132 0.114202 0
M  V30 693 O 64.3303 4.23104 -1.13644 0
M  V30 694 C 65.8313 4.38349 0.66069 0
M  V30 695 H 63.0513 0.668778 -0.0545616 0
M  V30 696 H 65.5953 1.88404 -0.795237 0
M  V30 697 H 63.7503 3.79162 0.794673 0
M  V30 698 H 64.1643 5.15894 -0.946253 0
M  V30 699 H 65.6383 5.47081 0.73526 0
M  V30 700 H 66.1153 4.05953 1.67627 0
M  V30 701 H 66.7213 4.25297 0.0152951 0
M  V30 702 N 65.0364 0.313813 1.54444 0
M  V30 703 C 66.2764 -0.292389 2.02298 0
M  V30 704 C 66.6404 -1.50105 1.19719 0
M  V30 705 O 67.8414 -2.17947 1.5733 0
M  V30 706 C 66.1124 -0.627682 3.51845 0
M  V30 707 S 67.6714 -1.21493 4.21646 0
M  V30 708 H 64.4894 -0.0890247 0.705405 0
M  V30 709 H 67.0914 0.444668 1.90376 0
M  V30 710 H 65.7954 0.260265 4.09574 0
M  V30 711 H 65.3264 -1.39519 3.67829 0
M  V30 712 H 67.3414 -2.5022 4.28491 0
M  V30 713 N 66.5145 -1.57545 0.0417849 0
M  V30 714 C 67.4645 -2.07483 -0.945247 0
M  V30 715 C 68.4485 -0.977983 -1.27767 0
M  V30 716 O 69.6405 -1.24142 -1.26166 0
M  V30 717 C 66.7695 -2.61576 -2.22335 0
M  V30 718 C 65.8555 -3.78213 -1.91874 0
M  V30 719 N 66.2465 -4.88344 -1.31733 0
M  V30 720 C 64.5445 -3.8694 -2.21796 0
M  V30 721 C 65.2455 -5.69462 -1.1869 0
M  V30 722 N 64.2215 -5.16771 -1.68666 0
M  V30 723 H 68.0235 -2.90029 -0.475441 0
M  V30 724 H 65.5375 -1.61581 -0.162911 0
M  V30 725 H 67.5345 -2.95651 -2.93932 0
M  V30 726 H 66.1945 -1.80465 -2.69931 0
M  V30 727 H 67.2055 -5.08335 -0.990729 0
M  V30 728 H 63.8825 -3.16757 -2.71977 0
M  V30 729 H 65.2725 -6.68023 -0.720793 0
M  V30 730 N 67.9926 0.231505 -1.5589 0
M  V30 731 C 68.9556 1.27028 -1.90779 0
M  V30 732 C 69.9556 1.40308 -0.785507 0
M  V30 733 O 71.1456 1.38744 -1.05336 0
M  V30 734 C 68.2776 2.64566 -2.14983 0
M  V30 735 H 69.4706 0.973017 -2.83677 0
M  V30 736 H 67.0236 0.471486 -1.49019 0
M  V30 737 H 67.7586 2.99406 -1.24604 0
M  V30 738 H 67.5436 2.56305 -2.96732 0
M  V30 739 H 69.0336 3.39543 -2.43105 0
M  V30 740 N 69.4707 1.49531 0.497807 0
M  V30 741 C 70.8817 1.52344 1.07927 0
M  V30 742 C 71.2327 0.311469 1.93712 0
M  V30 743 O 70.3577 -0.578405 2.08527 0
M  V30 744 C 70.9527 2.76062 1.96405 0
M  V30 745 C 69.5117 2.81643 2.49709 0
M  V30 746 C 68.6587 2.46299 1.27404 0
M  V30 747 H 71.6097 1.56182 0.281576 0
M  V30 748 H 71.6307 2.56405 2.81135 0
M  V30 749 H 71.1427 3.64254 1.33943 0
M  V30 750 H 69.2437 1.97739 3.15801 0
M  V30 751 H 69.3567 3.83891 2.86643 0
M  V30 752 H 67.7207 1.98148 1.60029 0
M  V30 753 H 68.5037 3.36769 0.66645 0
M  V30 754 N 70.9488 -0.749086 1.3866 0
M  V30 755 C 72.1978 -1.50371 1.3443 0
M  V30 756 C 72.5108 -1.95503 -0.0616397 0
M  V30 757 O 73.7168 -2.70554 -0.226489 0
M  V30 758 C 72.1728 -2.71644 2.36088 0
M  V30 759 C 71.7808 -2.3352 3.82325 0
M  V30 760 C 73.5248 -3.49518 2.40909 0
M  V30 761 C 71.4318 -3.51431 4.75658 0
M  V30 762 H 70.3618 -0.564628 0.499712 0
M  V30 763 H 73.0128 -0.818449 1.64237 0
M  V30 764 H 71.3948 -3.42175 1.9933 0
M  V30 765 H 72.5688 -1.70627 4.28046 0
M  V30 766 H 70.8838 -1.6877 3.80665 0
M  V30 767 H 73.4808 -4.37197 3.07836 0
M  V30 768 H 73.8238 -3.90992 1.42937 0
M  V30 769 H 74.3568 -2.86005 2.76489 0
M  V30 770 H 71.0958 -3.15019 5.74842 0
M  V30 771 H 70.6158 -4.13352 4.34627 0
M  V30 772 H 72.2948 -4.17953 4.93887 0
M  V30 773 N 72.4269 -1.23603 -0.977757 0
M  V30 774 C 73.6569 -1.09487 -1.75203 0
M  V30 775 C 74.0649 0.356321 -1.85814 0
M  V30 776 O 73.4079 1.25816 -1.33851 0
M  V30 777 C 73.4699 -1.64905 -3.19447 0
M  V30 778 C 73.1339 -3.13688 -3.32338 0
M  V30 779 C 74.1309 -4.10953 -3.18455 0
M  V30 780 C 71.8159 -3.53449 -3.56902 0
M  V30 781 C 73.8099 -5.45962 -3.28944 0
M  V30 782 C 71.4969 -4.88602 -3.6703 0
M  V30 783 C 72.4949 -5.84668 -3.53062 0
M  V30 784 O 72.1829 -7.17365 -3.62826 0
M  V30 785 H 71.9149 -0.38367 -0.556573 0
M  V30 786 H 74.4689 -1.6398 -1.23693 0
M  V30 787 H 72.6989 -1.04835 -3.72218 0
M  V30 788 H 74.3879 -1.46226 -3.78646 0
M  V30 789 H 75.1539 -3.81577 -2.99372 0
M  V30 790 H 71.0329 -2.79188 -3.66844 0
M  V30 791 H 74.5769 -6.20925 -3.17958 0
M  V30 792 H 70.4739 -5.17653 -3.85623 0
M  V30 793 H 71.2419 -7.2515 -3.79605 0
M  V30 794 N 73.905 1.17692 -1.04816 0
M  V30 795 C 74.852 2.21581 -0.645797 0
M  V30 796 C 75.822 1.62367 0.350159 0
M  V30 797 O 77.007 1.89254 0.242433 0
M  V30 798 C 74.147 3.45092 -0.0227568 0
M  V30 799 C 73.26 4.18613 -1.06709 0
M  V30 800 C 72.395 5.29602 -0.411767 0
M  V30 801 C 71.434 5.94904 -1.44067 0
M  V30 802 N 70.571 6.97414 -0.809781 0
M  V30 803 H 75.411 2.55353 -1.5362 0
M  V30 804 H 72.948 1.25438 -0.768364 0
M  V30 805 H 74.906 4.15679 0.35588 0
M  V30 806 H 73.536 3.11917 0.831122 0
M  V30 807 H 72.588 3.46779 -1.5636 0
M  V30 808 H 73.9 4.63293 -1.84827 0
M  V30 809 H 73.054 6.06696 0.0206623 0
M  V30 810 H 71.793 4.86045 0.401438 0
M  V30 811 H 70.798 5.16544 -1.88316 0
M  V30 812 H 72.023 6.40542 -2.25571 0
M  V30 813 H 69.969 6.55998 -0.0170186 0
M  V30 814 H 69.886 7.40386 -1.52856 0
M  V30 815 H 71.154 7.78463 -0.401999 0
M  V30 816 N 75.3831 0.828654 1.34056 0
M  V30 817 C 76.6311 0.41863 1.97717 0
M  V30 818 C 76.9521 -1.02314 1.66002 0
M  V30 819 O 76.2221 -1.71119 0.953683 0
M  V30 820 H 74.8021 0.151809 0.731412 0
M  V30 821 H 77.4641 1.05936 1.63596 0
M  V30 822 H 76.5601 0.542318 3.07352 0
M  V30 823 N 76.8612 -1.46375 0.584142 0
M  V30 824 C 77.8112 -2.27371 -0.169232 0
M  V30 825 C 78.7952 -1.35955 -0.860523 0
M  V30 826 O 79.9872 -1.60119 -0.754382 0
M  V30 827 C 77.1162 -3.22334 -1.18134 0
M  V30 828 C 76.2022 -4.21235 -0.492088 0
M  V30 829 N 76.5932 -5.03766 0.453129 0
M  V30 830 C 74.8912 -4.39773 -0.742652 0
M  V30 831 C 75.5922 -5.75366 0.85609 0
M  V30 832 N 74.5682 -5.43214 0.204926 0
M  V30 833 H 78.3702 -2.88572 0.557097 0
M  V30 834 H 75.8842 -1.57242 0.406042 0
M  V30 835 H 77.8812 -3.79071 -1.73525 0
M  V30 836 H 76.5412 -2.62693 -1.90847 0
M  V30 837 H 77.5522 -5.11227 0.828723 0
M  V30 838 H 74.2292 -3.91279 -1.45625 0
M  V30 839 H 75.6192 -6.5172 1.63434 0
M  V30 840 N 78.3393 -0.321999 -1.54275 0
M  V30 841 C 79.5873 0.280489 -2.00144 0
M  V30 842 C 79.9083 1.52777 -1.21178 0
M  V30 843 O 79.1783 1.9338 -0.313187 0
M  V30 844 H 77.7583 0.106632 -0.73935 0
M  V30 845 H 80.4203 -0.438184 -1.8991 0
M  V30 846 H 79.5163 0.537972 -3.07428 0
M  V30 847 N 79.8174 1.5752 -0.0501392 0
M  V30 848 C 81.0634 1.92936 0.624798 0
M  V30 849 C 81.3964 0.928685 1.70555 0
M  V30 850 O 80.6714 -0.0454779 1.94447 0
M  V30 851 C 80.9544 3.38737 1.22185 0
M  V30 852 C 80.8074 4.49552 0.149218 0
M  V30 853 C 82.1264 3.84913 2.13378 0
M  V30 854 H 79.2454 0.701604 0.225657 0
M  V30 855 H 81.8874 1.89671 -0.111693 0
M  V30 856 H 80.0374 3.4165 1.84953 0
M  V30 857 H 81.7094 4.58768 -0.482648 0
M  V30 858 H 79.9524 4.30638 -0.522841 0
M  V30 859 H 80.6234 5.48653 0.606966 0
M  V30 860 H 83.0994 3.8387 1.60572 0
M  V30 861 H 81.9754 4.87584 2.52097 0
M  V30 862 H 82.2364 3.21611 3.03346 0
M  V30 863 N 81.2955 -0.223234 1.56011 0
M  V30 864 C 82.7065 -0.790368 1.69145 0
M  V30 865 C 83.0575 -1.85055 0.651845 0
M  V30 866 O 82.1825 -2.15498 -0.197359 0
M  V30 867 C 82.7775 -1.4404 3.06656 0
M  V30 868 C 81.3365 -1.95494 3.2165 0
M  V30 869 C 80.4835 -0.814506 2.65068 0
M  V30 870 H 83.4345 0.00139011 1.587 0
M  V30 871 H 83.4555 -2.30916 3.0242 0
M  V30 872 H 82.9675 -0.668543 3.82298 0
M  V30 873 H 81.0685 -2.75487 2.50874 0
M  V30 874 H 81.1815 -2.13607 4.28846 0
M  V30 875 H 79.5455 -1.22137 2.23505 0
M  V30 876 H 80.3285 -0.0553515 3.43255 0
M  V30 877 N 82.7736 -1.49793 -0.48987 0
M  V30 878 C 84.1846 -1.52914 -1.07118 0
M  V30 879 C 84.5356 -0.321738 -1.93544 0
M  V30 880 O 83.6606 0.567338 -2.08831 0
M  V30 881 C 84.2556 -2.771 -1.94938 0
M  V30 882 C 82.8146 -2.82963 -2.48212 0
M  V30 883 C 81.9616 -2.46972 -1.26096 0
M  V30 884 H 84.9126 -1.56329 -0.273289 0
M  V30 885 H 84.9336 -2.57892 -2.79771 0
M  V30 886 H 84.4456 -3.64959 -1.32009 0
M  V30 887 H 82.5466 -1.99411 -3.14748 0
M  V30 888 H 82.6596 -3.85406 -2.84603 0
M  V30 889 H 81.0236 -1.98994 -1.58976 0
M  V30 890 H 81.8066 -3.37118 -0.648581 0
M  V30 891 N 84.2517 0.741722 -1.39055 0
M  V30 892 C 85.1617 1.88621 -1.39496 0
M  V30 893 C 86.1777 1.71557 -0.290578 0
M  V30 894 O 87.3537 1.94275 -0.530954 0
M  V30 895 C 84.4187 3.24134 -1.23037 0
M  V30 896 C 83.4797 3.5364 -2.43387 0
M  V30 897 C 82.7127 4.82687 -2.27703 0
M  V30 898 O 82.9357 5.55922 -1.27696 0
M  V30 899 O 81.8697 5.1194 -3.16545 0
M  V30 900 H 85.6957 1.91203 -2.35956 0
M  V30 901 H 83.2807 0.888625 -1.20099 0
M  V30 902 H 85.1627 4.0513 -1.15964 0
M  V30 903 H 83.8377 3.22337 -0.296691 0
M  V30 904 H 82.7447 2.72758 -2.56035 0
M  V30 905 H 84.0777 3.60209 -3.35425 0
M  V30 906 N 85.7298 1.2412 0.971189 0
M  V30 907 C 86.6398 1.04747 2.09917 0
M  V30 908 C 87.6558 -0.0107162 1.73997 0
M  V30 909 O 88.8318 0.186714 2.00533 0
M  V30 910 C 85.8968 0.650828 3.40537 0
M  V30 911 C 84.9578 1.7851 3.90426 0
M  V30 912 C 84.1908 1.40729 5.14812 0
M  V30 913 O 84.4138 0.29557 5.69634 0
M  V30 914 O 83.3478 2.23168 5.58999 0
M  V30 915 H 87.1738 1.99304 2.29154 0
M  V30 916 H 84.7588 1.02908 1.08307 0
M  V30 917 H 86.6408 0.440992 4.19086 0
M  V30 918 H 85.3158 -0.265649 3.22608 0
M  V30 919 H 84.2228 2.04966 3.12953 0
M  V30 920 H 85.5558 2.68023 4.12825 0
M  V30 921 N 87.2079 -1.17134 1.05439 0
M  V30 922 C 88.1379 -2.2342 0.678649 0
M  V30 923 C 89.1189 -1.66971 -0.32476 0
M  V30 924 O 90.3039 -1.93149 -0.201802 0
M  V30 925 C 87.4339 -3.47256 0.0552099 0
M  V30 926 C 86.3879 -4.16543 0.98365 0
M  V30 927 C 85.7139 -5.34231 0.223961 0
M  V30 928 C 87.0139 -4.68495 2.3089 0
M  V30 929 H 88.7079 -2.55105 1.56722 0
M  V30 930 H 86.2539 -1.2262 0.754998 0
M  V30 931 H 88.2069 -4.20828 -0.21946 0
M  V30 932 H 86.9309 -3.14846 -0.868319 0
M  V30 933 H 85.5899 -3.44887 1.24293 0
M  V30 934 H 85.2379 -4.98071 -0.702412 0
M  V30 935 H 84.9379 -5.81527 0.842627 0
M  V30 936 H 86.4619 -6.10585 -0.0433671 0
M  V30 937 H 87.8759 -5.33691 2.09396 0
M  V30 938 H 86.2729 -5.26379 2.88176 0
M  V30 939 H 87.3429 -3.85169 2.94572 0
M  V30 940 N 88.686 -0.835752 -1.33615 0
M  V30 941 C 89.932 -0.430596 -1.98176 0
M  V30 942 C 90.265 1.00684 -1.66061 0
M  V30 943 O 89.54 1.70339 -0.938877 0
M  V30 944 C 89.823 -0.648065 -3.5422 0
M  V30 945 C 89.676 -2.13255 -3.96033 0
M  V30 946 C 90.995 -0.0922113 -4.40003 0
M  V30 947 H 88.114 -0.157924 -0.719881 0
M  V30 948 H 90.756 -1.05069 -1.58305 0
M  V30 949 H 88.906 -0.120237 -3.88314 0
M  V30 950 H 90.578 -2.725 -3.72211 0
M  V30 951 H 88.821 -2.61823 -3.45878 0
M  V30 952 H 89.492 -2.23547 -5.04708 0
M  V30 953 H 91.968 -0.543343 -4.12537 0
M  V30 954 H 90.844 -0.274083 -5.48215 0
M  V30 955 H 91.105 1.00378 -4.30554 0
M  V30 956 N 90.1641 1.46063 -0.591896 0
M  V30 957 C 91.1141 2.27458 0.157172 0
M  V30 958 C 92.0981 1.3641 0.853301 0
M  V30 959 O 93.2901 1.60517 0.74588 0
M  V30 960 C 90.4191 3.22956 1.16423 0
M  V30 961 C 89.5051 4.2149 0.469742 0
M  V30 962 N 89.8961 5.03519 -0.479839 0
M  V30 963 C 88.1941 4.40161 0.719319 0
M  V30 964 C 88.8951 5.74904 -0.886591 0
M  V30 965 N 87.8711 5.43097 -0.233731 0
M  V30 966 H 91.6731 2.88272 -0.572392 0
M  V30 967 H 89.1871 1.57024 -0.414375 0
M  V30 968 H 91.1841 3.79986 1.71513 0
M  V30 969 H 89.8441 2.63701 1.89451 0
M  V30 970 H 90.8551 5.1078 -0.855823 0
M  V30 971 H 87.5321 3.92046 1.43548 0
M  V30 972 H 88.9221 6.50844 -1.66888 0
M  V30 973 N 91.6422 0.330177 1.54103 0
M  V30 974 C 92.8702 -0.272179 2.05102 0
M  V30 975 C 93.2852 -1.45267 1.20595 0
M  V30 976 O 92.6422 -1.8094 0.238144 0
M  V30 977 C 92.6932 -0.70023 3.54653 0
M  V30 978 O 92.4142 0.433301 4.35952 0
M  V30 979 C 93.9152 -1.3647 4.21771 0
M  V30 980 H 91.1352 -0.0549159 0.668749 0
M  V30 981 H 93.6792 0.478285 1.98828 0
M  V30 982 H 91.8342 -1.40066 3.61193 0
M  V30 983 H 92.2482 0.0947539 5.24414 0
M  V30 984 H 93.7222 -1.61509 5.27843 0
M  V30 985 H 94.1992 -2.31409 3.73292 0
M  V30 986 H 94.8052 -0.706675 4.19388 0
M  V30 987 N 93.1203 -1.57491 0.0584922 0
M  V30 988 C 94.3683 -1.92597 -0.612436 0
M  V30 989 C 94.6893 -0.938162 -1.70949 0
M  V30 990 O 93.9593 0.0158301 -1.95894 0
M  V30 991 H 92.5393 -0.710964 -0.229214 0
M  V30 992 H 95.2013 -1.94571 0.113218 0
M  V30 993 H 94.2973 -2.94038 -1.04633 0
M  V30 994 N 94.5984 0.214957 -1.56127 0
M  V30 995 C 96.0094 0.781386 -1.69562 0
M  V30 996 C 96.3604 1.84707 -0.66165 0
M  V30 997 O 95.4854 2.156 0.185927 0
M  V30 998 C 96.0804 1.42411 -3.07416 0
M  V30 999 C 94.6394 1.93786 -3.22683 0
M  V30 1000 C 93.7864 0.800438 -2.65496 0
M  V30 1001 H 96.7374 -0.00980633 -1.58697 0
M  V30 1002 H 96.7584 2.29309 -3.0364 0
M  V30 1003 H 96.2704 0.64826 -3.82648 0
M  V30 1004 H 94.3714 2.74152 -2.52332 0
M  V30 1005 H 94.4844 2.1133 -4.29973 0
M  V30 1006 H 92.8484 1.2095 -2.2415 0
M  V30 1007 H 93.6314 0.0371471 -3.4328 0
M  V30 1008 N 96.0765 1.50051 0.48192 0
M  V30 1009 C 97.3535 1.51009 1.2432 0
M  V30 1010 C 97.7335 0.248587 2.09631 0
M  V30 1011 O 97.0815 -0.768409 2.15192 0
M  V30 1012 C 97.2915 2.79981 2.08355 0
M  V30 1013 C 98.6395 3.3022 2.66908 0
M  V30 1014 O 99.6635 2.81228 2.18607 0
M  V30 1015 O 98.5225 4.15595 3.54884 0
M  V30 1016 H 95.6165 0.605239 0.563573 0
M  V30 1017 H 98.1625 1.62332 0.494627 0
M  V30 1018 H 96.9345 3.63275 1.45419 0
M  V30 1019 H 96.5575 2.7161 2.90368 0
M  V30 1020 N 97.5546 -0.734337 1.39446 0
M  V30 1021 C 98.8316 -1.48579 1.27215 0
M  V30 1022 C 99.2116 -2.1077 -0.117968 0
M  V30 1023 O 98.5596 -1.98646 -1.12924 0
M  V30 1024 C 98.7696 -2.53667 2.39696 0
M  V30 1025 C 100.118 -3.20031 2.79044 0
M  V30 1026 O 101.142 -2.6398 2.39151 0
M  V30 1027 O 100.001 -4.21455 3.47905 0
M  V30 1028 H 97.0946 -0.659816 0.49857 0
M  V30 1029 H 99.6406 -0.768106 1.51322 0
M  V30 1030 H 98.4126 -2.06096 3.32626 0
M  V30 1031 H 98.0356 -3.32994 2.17258 0
M  V30 1032 N 99.0327 -1.24633 -0.964593 0
M  V30 1033 C 100.279 -1.09957 -1.71117 0
M  V30 1034 C 100.634 0.357422 -1.89051 0
M  V30 1035 O 99.9267 1.26029 -1.44317 0
M  V30 1036 C 100.121 -1.7763 -3.10133 0
M  V30 1037 C 99.9497 -3.29759 -3.05759 0
M  V30 1038 C 98.7197 -3.98981 -3.10068 0
M  V30 1039 C 100.918 -4.26305 -2.87695 0
M  V30 1040 N 98.8997 -5.37966 -2.95747 0
M  V30 1041 C 100.271 -5.52308 -2.81702 0
M  V30 1042 C 102.326 -4.16842 -2.72299 0
M  V30 1043 C 101.029 -6.69931 -2.61887 0
M  V30 1044 C 103.055 -5.34147 -2.53853 0
M  V30 1045 C 102.417 -6.59084 -2.48572 0
M  V30 1046 H 98.5157 -0.457003 -0.634564 0
M  V30 1047 H 101.1 -1.57592 -1.14337 0
M  V30 1048 H 99.2707 -1.32504 -3.65099 0
M  V30 1049 H 101.003 -1.55786 -3.73514 0
M  V30 1050 H 97.7577 -3.50169 -3.18871 0
M  V30 1051 H 98.1817 -6.10877 -2.91818 0
M  V30 1052 H 102.824 -3.21007 -2.75163 0
M  V30 1053 H 100.542 -7.65886 -2.57767 0
M  V30 1054 H 104.128 -5.28678 -2.4288 0
M  V30 1055 H 103.008 -7.48324 -2.34481 0
M  V30 1056 N 100.511 1.16574 -1.06058 0
M  V30 1057 C 101.757 1.87565 -0.78683 0
M  V30 1058 C 102.112 1.80012 0.679214 0
M  V30 1059 O 101.405 1.20327 1.49104 0
M  V30 1060 C 101.599 3.36195 -1.21275 0
M  V30 1061 C 101.428 3.58216 -2.71866 0
M  V30 1062 C 100.198 3.7444 -3.39298 0
M  V30 1063 C 102.396 3.57134 -3.70081 0
M  V30 1064 N 100.378 3.84389 -4.78663 0
M  V30 1065 C 101.749 3.73038 -4.9522 0
M  V30 1066 C 103.804 3.40332 -3.63426 0
M  V30 1067 C 102.507 3.73879 -6.14497 0
M  V30 1068 C 104.533 3.42466 -4.82153 0
M  V30 1069 C 103.895 3.58887 -6.06118 0
M  V30 1070 H 99.9938 0.704081 -0.340284 0
M  V30 1071 H 102.578 1.39885 -1.35426 0
M  V30 1072 H 100.749 3.82522 -0.673179 0
M  V30 1073 H 102.481 3.94839 -0.887917 0
M  V30 1074 H 99.2358 3.74662 -2.89699 0
M  V30 1075 H 99.6598 3.93138 -5.51155 0
M  V30 1076 H 104.302 3.26566 -2.68541 0
M  V30 1077 H 102.02 3.86427 -7.09718 0
M  V30 1078 H 105.606 3.30712 -4.78666 0
M  V30 1079 H 104.486 3.60454 -6.9645 0
M  V30 1080 N 101.989 0.842826 1.3317 0
M  V30 1081 C 102.921 0.236245 2.27979 0
M  V30 1082 C 103.934 -0.585282 1.51915 0
M  V30 1083 O 105.123 -0.411705 1.73687 0
M  V30 1084 C 102.223 -0.685717 3.3189 0
M  V30 1085 C 101.396 0.0973448 4.37292 0
M  V30 1086 C 100.455 -0.748565 5.20848 0
M  V30 1087 O 99.4809 -0.186339 5.68895 0
M  V30 1088 N 100.683 -2.06527 5.42519 0
M  V30 1089 H 103.448 1.05088 2.80672 0
M  V30 1090 H 101.009 0.701667 1.45905 0
M  V30 1091 H 103.001 -1.25669 3.84694 0
M  V30 1092 H 101.571 -1.40105 2.79445 0
M  V30 1093 H 100.791 0.849706 3.84933 0
M  V30 1094 H 102.079 0.635643 5.04814 0
M  V30 1095 H 101.477 -2.54554 5.05192 0
M  V30 1096 H 100.034 -2.58464 5.98364 0
M  V30 1097 N 103.467 -1.45747 0.599634 0
M  V30 1098 C 104.744 -1.95585 0.0240846 0
M  V30 1099 C 105.124 -1.54217 -1.44154 0
M  V30 1100 O 104.472 -0.800903 -2.14004 0
M  V30 1101 C 104.682 -3.48344 0.21385 0
M  V30 1102 C 106.03 -4.24504 0.0904902 0
M  V30 1103 O 107.054 -3.55911 0.143558 0
M  V30 1104 O 105.913 -5.46491 -0.0310766 0
M  V30 1105 H 103.007 -0.82602 -0.0402478 0
M  V30 1106 H 105.553 -1.55951 0.669139 0
M  V30 1107 H 104.325 -3.71397 1.23206 0
M  V30 1108 H 103.948 -3.9485 -0.466842 0
M  V30 1109 N 104.945 -0.338344 -1.53925 0
M  V30 1110 C 106.191 0.260143 -2.01125 0
M  V30 1111 C 106.524 1.50617 -1.22589 0
M  V30 1112 O 105.799 1.91979 -0.312113 0
M  V30 1113 C 106.082 0.579499 -3.55407 0
M  V30 1114 C 105.935 -0.678264 -4.44657 0
M  V30 1115 C 107.254 1.39122 -4.17532 0
M  V30 1116 H 104.373 0.0930772 -0.731099 0
M  V30 1117 H 107.015 -0.457852 -1.84401 0
M  V30 1118 H 105.165 1.19118 -3.69788 0
M  V30 1119 H 106.837 -1.31631 -4.42121 0
M  V30 1120 H 105.08 -1.3042 -4.13731 0
M  V30 1121 H 105.751 -0.410143 -5.50474 0
M  V30 1122 H 108.227 0.874035 -4.06817 0
M  V30 1123 H 107.103 1.58342 -5.25565 0
M  V30 1124 H 107.364 2.39178 -3.71815 0
M  V30 1125 N 106.423 1.57458 -0.0668435 0
M  V30 1126 C 107.356 2.08033 0.93795 0
M  V30 1127 C 108.334 0.984321 1.29421 0
M  V30 1128 O 109.518 1.25736 1.40437 0
M  V30 1129 C 106.645 2.53388 2.24749 0
M  V30 1130 C 105.691 3.74376 2.04315 0
M  V30 1131 S 106.524 5.19303 1.30706 0
M  V30 1132 C 107.68 5.67986 2.62951 0
M  V30 1133 H 107.913 2.92935 0.50759 0
M  V30 1134 H 105.446 1.5371 0.145804 0
M  V30 1135 H 107.404 2.8018 3.00016 0
M  V30 1136 H 106.065 1.68763 2.64911 0
M  V30 1137 H 105.258 4.04083 3.01218 0
M  V30 1138 H 104.86 3.47931 1.37186 0
M  V30 1139 H 107.152 5.74528 3.5906 0
M  V30 1140 H 108.095 6.66955 2.3786 0
M  V30 1141 H 108.503 4.95781 2.69929 0
M  V30 1142 N 107.901 -0.206675 1.56239 0
M  V30 1143 C 108.849 -1.27571 1.94495 0
M  V30 1144 C 109.843 -1.47737 0.828862 0
M  V30 1145 O 111.049 -1.48735 1.0138 0
M  V30 1146 H 107.424 -0.428029 0.6183 0
M  V30 1147 H 109.395 -0.925961 2.8367 0
M  V30 1148 C 108.144 -2.61568 2.29079 0
M  V30 1149 H 107.467 -2.46863 3.14482 0
M  V30 1150 H 108.907 -3.35144 2.5972 0
M  V30 1151 C 107.366 -3.17695 1.12123 0
M  V30 1152 O 107.896 -3.99801 0.390153 0
M  V30 1153 N 106.102 -2.76276 0.901097 0
M  V30 1154 H 105.649 -2.09613 1.49733 0
M  V30 1155 H 105.607 -3.1417 0.120319 0
M  V30 1156 N 109.379 -1.50304 -0.473955 0
M  V30 1157 C 110.627 -1.60832 -1.22382 0
M  V30 1158 C 110.948 -0.30939 -1.9253 0
M  V30 1159 O 110.218 0.67296 -1.83978 0
M  V30 1160 H 108.798 -0.592652 -0.454723 0
M  V30 1161 H 111.46 -1.87068 -0.546968 0
M  V30 1162 H 110.556 -2.41803 -1.97327 0
M  V30 1163 N 110.857 0.726932 -1.39834 0
M  V30 1164 C 112.087 1.51393 -1.40583 0
M  V30 1165 C 112.495 1.892 -0.000740625 0
M  V30 1166 O 111.838 1.55189 0.982951 0
M  V30 1167 C 111.9 2.82588 -2.22226 0
M  V30 1168 C 111.564 2.67169 -3.70769 0
M  V30 1169 C 112.561 2.3518 -4.63666 0
M  V30 1170 C 110.246 2.83788 -4.14451 0
M  V30 1171 C 112.24 2.20002 -5.98229 0
M  V30 1172 C 109.927 2.68229 -5.49087 0
M  V30 1173 C 110.925 2.36382 -6.4079 0
M  V30 1174 O 110.613 2.2093 -7.72946 0
M  V30 1175 H 110.345 0.474168 -0.48181 0
M  V30 1176 H 112.899 0.905247 -1.84376 0
M  V30 1177 H 111.129 3.45746 -1.73195 0
M  V30 1178 H 112.818 3.44247 -2.15055 0
M  V30 1179 H 113.584 2.21984 -4.31217 0
M  V30 1180 H 109.463 3.07566 -3.43401 0
M  V30 1181 H 113.007 1.95067 -6.69772 0
M  V30 1182 H 108.904 2.81006 -5.81125 0
M  V30 1183 H 109.672 2.35937 -7.83757 0
M  V30 1184 N 112.336 1.25143 0.95797 0
M  V30 1185 C 113.246 1.06968 2.08794 0
M  V30 1186 C 114.262 0.00773911 1.73998 0
M  V30 1187 O 115.438 0.207972 2.00323 0
M  V30 1188 C 112.503 0.68691 3.39827 0
M  V30 1189 C 111.564 1.82641 3.88511 0
M  V30 1190 C 110.797 1.46181 5.1329 0
M  V30 1191 O 111.02 0.355971 5.69288 0
M  V30 1192 O 109.954 2.29085 5.566 0
M  V30 1193 H 113.78 2.01723 2.27027 0
M  V30 1194 H 111.365 1.04051 1.07209 0
M  V30 1195 H 113.247 0.485417 4.18595 0
M  V30 1196 H 111.922 -0.231417 3.22872 0
M  V30 1197 H 110.829 2.08274 3.10762 0
M  V30 1198 H 112.162 2.72386 4.09959 0
M  V30 1199 N 113.814 -1.1601 1.06675 0
M  V30 1200 C 115.061 -1.86633 0.785781 0
M  V30 1201 C 115.389 -1.81929 -0.687896 0
M  V30 1202 O 114.644 -1.23253 -1.52011 0
M  V30 1203 C 114.943 -3.35547 1.23057 0
M  V30 1204 C 114.609 -3.60448 2.70902 0
M  V30 1205 C 113.271 -3.66954 3.11285 0
M  V30 1206 C 115.623 -3.7071 3.66365 0
M  V30 1207 C 112.951 -3.81225 4.45965 0
M  V30 1208 C 115.303 -3.86503 5.00797 0
M  V30 1209 C 113.967 -3.91252 5.40813 0
M  V30 1210 H 113.237 -0.682937 0.287538 0
M  V30 1211 H 115.884 -1.37146 1.33654 0
M  V30 1212 H 114.189 -3.87193 0.59907 0
M  V30 1213 H 115.886 -3.88583 0.990163 0
M  V30 1214 H 112.476 -3.56021 2.38636 0
M  V30 1215 H 116.66 -3.64991 3.36296 0
M  V30 1216 H 111.916 -3.83155 4.76447 0
M  V30 1217 H 116.09 -3.93385 5.74649 0
M  V30 1218 H 113.717 -4.02062 6.45174 0
M  V30 1219 N 115.292 -0.849877 -1.32721 0
M  V30 1220 C 116.222 -0.306308 -2.31482 0
M  V30 1221 C 117.203 0.591952 -1.59468 0
M  V30 1222 O 118.388 0.513199 -1.87296 0
M  V30 1223 C 115.518 0.510204 -3.43532 0
M  V30 1224 C 114.472 -0.293209 -4.26994 0
M  V30 1225 C 113.798 0.647743 -5.30762 0
M  V30 1226 C 115.098 -1.51634 -4.99804 0
M  V30 1227 H 116.792 -1.13153 -2.77195 0
M  V30 1228 H 114.338 -0.545553 -1.33266 0
M  V30 1229 H 116.291 0.900856 -4.11658 0
M  V30 1230 H 115.015 1.36874 -2.96535 0
M  V30 1231 H 113.674 -0.665555 -3.60508 0
M  V30 1232 H 113.322 1.50299 -4.8002 0
M  V30 1233 H 113.022 0.11422 -5.87489 0
M  V30 1234 H 114.546 1.03567 -6.01753 0
M  V30 1235 H 115.96 -1.19824 -5.60638 0
M  V30 1236 H 114.357 -1.98745 -5.66234 0
M  V30 1237 H 115.427 -2.28018 -4.27943 0
M  V30 1238 N 116.77 1.45427 -0.607355 0
M  V30 1239 C 117.717 2.3053 0.111625 0
M  V30 1240 C 118.687 1.4209 0.860216 0
M  V30 1241 O 119.872 1.71019 0.845998 0
M  V30 1242 C 117.012 3.26992 1.10319 0
M  V30 1243 C 116.125 4.30535 0.355493 0
M  V30 1244 C 115.26 5.14105 1.33676 0
M  V30 1245 C 114.299 6.09376 0.576862 0
M  V30 1246 N 113.436 6.85727 1.5074 0
M  V30 1247 H 118.276 2.91477 -0.620093 0
M  V30 1248 H 115.813 1.43631 -0.317594 0
M  V30 1249 H 117.771 3.81385 1.6912 0
M  V30 1250 H 116.401 2.67799 1.80232 0
M  V30 1251 H 115.453 3.78805 -0.348023 0
M  V30 1252 H 116.765 4.98235 -0.237423 0
M  V30 1253 H 115.919 5.72897 1.99684 0
M  V30 1254 H 114.658 4.46423 1.9636 0
M  V30 1255 H 113.663 5.49715 -0.0968519 0
M  V30 1256 H 114.888 6.79085 -0.0449341 0
M  V30 1257 H 112.834 6.20735 2.12189 0
M  V30 1258 H 112.751 7.49778 0.967913 0
M  V30 1259 H 114.019 7.4906 2.15706 0
M  V30 1260 N 118.248 0.346503 1.53744 0
M  V30 1261 C 119.196 -0.52422 2.26616 0
M  V30 1262 C 120.19 -1.09948 1.28871 0
M  V30 1263 O 121.396 -1.04488 1.46568 0
M  V30 1264 H 117.771 -0.187743 0.728187 0
M  V30 1265 H 119.742 0.11239 2.98188 0
M  V30 1266 C 118.491 -1.66186 3.05414 0
M  V30 1267 H 117.814 -1.22848 3.80458 0
M  V30 1268 H 119.254 -2.24622 3.59612 0
M  V30 1269 C 117.713 -2.59302 2.1509 0
M  V30 1270 O 118.243 -3.61628 1.74895 0
M  V30 1271 N 116.449 -2.28055 1.8011 0
M  V30 1272 H 115.996 -1.44883 2.12994 0
M  V30 1273 H 115.954 -2.90615 1.19958 0
M  V30 1274 N 119.726 -1.57421 0.075193 0
M  V30 1275 C 120.673 -2.12915 -0.890843 0
M  V30 1276 C 121.643 -1.04252 -1.29309 0
M  V30 1277 O 122.828 -1.31933 -1.37834 0
M  V30 1278 C 119.968 -2.69795 -2.15186 0
M  V30 1279 C 119.081 -3.92624 -1.80194 0
M  V30 1280 C 118.216 -4.37736 -3.00933 0
M  V30 1281 C 117.255 -5.53205 -2.61974 0
M  V30 1282 N 116.392 -5.9326 -3.75483 0
M  V30 1283 H 121.232 -2.95156 -0.410735 0
M  V30 1284 H 118.769 -1.45854 -0.191086 0
M  V30 1285 H 120.727 -3.00883 -2.89008 0
M  V30 1286 H 119.357 -1.90313 -2.60731 0
M  V30 1287 H 118.409 -3.67977 -0.964218 0
M  V30 1288 H 119.721 -4.76482 -1.47534 0
M  V30 1289 H 118.875 -4.70503 -3.8303 0
M  V30 1290 H 117.614 -3.52739 -3.36789 0
M  V30 1291 H 116.619 -5.20086 -1.783 0
M  V30 1292 H 117.844 -6.39936 -2.27284 0
M  V30 1293 H 115.79 -5.11212 -4.11094 0
M  V30 1294 H 115.707 -6.71865 -3.46602 0
M  V30 1295 H 116.975 -6.30651 -4.58148 0
M  V30 1296 N 121.204 0.198386 -1.56346 0
M  V30 1297 C 122.452 0.91747 -1.80075 0
M  V30 1298 C 122.773 1.83929 -0.647692 0
M  V30 1299 O 122.043 1.93029 0.334166 0
M  V30 1300 H 120.623 0.341774 -0.664228 0
M  V30 1301 H 123.285 0.204684 -1.93822 0
M  V30 1302 H 122.381 1.51055 -2.7311 0
M  V30 1303 N 122.682 1.50554 0.465978 0
M  V30 1304 C 123.912 1.65323 1.23903 0
M  V30 1305 C 124.32 0.338051 1.86155 0
M  V30 1306 O 123.663 -0.690518 1.70228 0
M  V30 1307 C 123.725 2.69048 2.3844 0
M  V30 1308 C 123.389 4.12462 1.96784 0
M  V30 1309 C 124.386 4.98168 1.48745 0
M  V30 1310 C 122.071 4.58407 2.05349 0
M  V30 1311 C 124.065 6.27868 1.0982 0
M  V30 1312 C 121.752 5.88112 1.66035 0
M  V30 1313 C 122.75 6.72668 1.18349 0
M  V30 1314 O 122.438 7.99951 0.795825 0
M  V30 1315 H 122.17 0.558629 0.38067 0
M  V30 1316 H 124.724 1.97561 0.562022 0
M  V30 1317 H 122.954 2.32062 3.09328 0
M  V30 1318 H 124.643 2.72985 3.0039 0
M  V30 1319 H 125.409 4.63885 1.41546 0
M  V30 1320 H 121.288 3.92735 2.41414 0
M  V30 1321 H 124.832 6.93819 0.725293 0
M  V30 1322 H 120.729 6.21914 1.72895 0
M  V30 1323 H 121.497 8.13265 0.924222 0
M  V30 1324 N 124.16 -0.719506 1.40217 0
M  V30 1325 C 125.07 -1.86378 1.42479 0
M  V30 1326 C 126.086 -1.71073 0.317834 0
M  V30 1327 O 127.262 -1.93406 0.561794 0
M  V30 1328 C 124.327 -3.22136 1.28178 0
M  V30 1329 C 123.388 -3.49723 2.48982 0
M  V30 1330 C 122.621 -4.79004 2.35353 0
M  V30 1331 O 122.844 -5.53821 1.36524 0
M  V30 1332 O 121.778 -5.06839 3.2465 0
M  V30 1333 H 125.604 -1.87425 2.38968 0
M  V30 1334 H 123.189 -0.869405 1.21498 0
M  V30 1335 H 125.071 -4.03234 1.22395 0
M  V30 1336 H 123.746 -3.21825 0.347934 0
M  V30 1337 H 122.653 -2.6865 2.60342 0
M  V30 1338 H 123.986 -3.54828 3.41113 0
M  V30 1339 N 125.638 -1.25649 -0.95132 0
M  V30 1340 C 126.585 -1.06323 -2.04851 0
M  V30 1341 C 127.555 0.0286491 -1.66075 0
M  V30 1342 O 128.74 -0.12917 -1.90362 0
M  V30 1343 C 125.88 -0.691529 -3.381 0
M  V30 1344 C 124.993 -1.85861 -3.89974 0
M  V30 1345 C 124.128 -1.43096 -5.11563 0
M  V30 1346 C 123.167 -2.56696 -5.55674 0
M  V30 1347 N 122.304 -2.14684 -6.68472 0
M  V30 1348 H 127.144 -2.00222 -2.20715 0
M  V30 1349 H 124.681 -0.997027 -1.08156 0
M  V30 1350 H 126.639 -0.456963 -4.1469 0
M  V30 1351 H 125.269 0.210474 -3.22113 0
M  V30 1352 H 124.321 -2.20639 -3.09875 0
M  V30 1353 H 125.633 -2.71161 -4.18657 0
M  V30 1354 H 124.787 -1.15624 -5.9558 0
M  V30 1355 H 123.526 -0.548722 -4.84603 0
M  V30 1356 H 122.531 -2.84909 -4.7022 0
M  V30 1357 H 123.756 -3.45503 -5.8464 0
M  V30 1358 H 121.702 -1.28881 -6.43215 0
M  V30 1359 H 121.619 -2.9353 -6.96689 0
M  V30 1360 H 122.887 -1.90397 -7.5589 0
M  V30 1361 N 127.117 1.15442 -1.07289 0
M  V30 1362 C 128.366 1.85557 -0.790669 0
M  V30 1363 C 128.679 1.83186 0.685739 0
M  V30 1364 O 129.885 2.48977 1.0827 0
M  V30 1365 C 128.341 3.33038 -1.36433 0
M  V30 1366 C 127.949 3.43856 -2.8717 0
M  V30 1367 C 129.693 4.0834 -1.1601 0
M  V30 1368 C 127.6 4.85482 -3.3773 0
M  V30 1369 H 126.53 0.695122 -0.292098 0
M  V30 1370 H 129.181 1.30219 -1.29287 0
M  V30 1371 H 127.563 3.88043 -0.789864 0
M  V30 1372 H 128.737 2.98961 -3.50655 0
M  V30 1373 H 127.052 2.81998 -3.06376 0
M  V30 1374 H 129.649 5.12859 -1.51262 0
M  V30 1375 H 129.992 4.16182 -0.0991007 0
M  V30 1376 H 130.525 3.59603 -1.70089 0
M  V30 1377 H 127.264 4.82823 -4.43353 0
M  V30 1378 H 126.784 5.30961 -2.78999 0
M  V30 1379 H 128.463 5.54335 -3.33648 0
M  V30 1380 N 128.595 0.856903 1.32268 0
M  V30 1381 C 129.558 0.308171 2.27119 0
M  V30 1382 C 130.558 -0.533421 1.51695 0
M  V30 1383 O 131.748 -0.344607 1.70757 0
M  V30 1384 C 128.88 -0.563757 3.36206 0
M  V30 1385 H 130.073 1.14535 2.77167 0
M  V30 1386 H 127.626 0.631421 1.42978 0
M  V30 1387 H 128.361 -1.42266 2.91429 0
M  V30 1388 H 128.146 0.0386749 3.92081 0
M  V30 1389 H 129.636 -0.940386 4.06874 0
M  V30 1390 N 130.073 -1.45103 0.615059 0
M  V30 1391 C 131.319 -2.02483 0.113347 0
M  V30 1392 C 131.652 -1.48146 -1.25564 0
M  V30 1393 O 130.927 -0.659104 -1.82992 0
M  V30 1394 C 131.21 -3.60005 0.0825278 0
M  V30 1395 C 131.063 -4.2466 1.48271 0
M  V30 1396 C 132.382 -4.35972 -0.601401 0
M  V30 1397 H 129.501 -0.735764 0.0426632 0
M  V30 1398 H 132.143 -1.72868 0.788461 0
M  V30 1399 H 130.293 -3.85367 -0.492378 0
M  V30 1400 H 131.965 -4.10458 2.10527 0
M  V30 1401 H 130.208 -3.82772 2.04127 0
M  V30 1402 H 130.879 -5.336 1.41332 0
M  V30 1403 H 133.355 -4.15947 -0.112666 0
M  V30 1404 H 132.231 -5.45697 -0.592097 0
M  V30 1405 H 132.492 -4.09391 -1.66887 0
M  V30 1406 N 131.551 -0.354651 -1.53558 0
M  V30 1407 C 132.514 0.484566 -2.24019 0
M  V30 1408 C 133.514 1.01861 -1.24422 0
M  V30 1409 O 134.704 0.906097 -1.4878 0
M  V30 1410 C 131.836 1.67615 -2.96847 0
M  V30 1411 H 133.029 -0.131843 -2.9961 0
M  V30 1412 H 130.582 -0.106165 -1.55939 0
M  V30 1413 H 131.317 2.33095 -2.25471 0
M  V30 1414 H 131.102 1.30029 -3.69912 0
M  V30 1415 H 132.592 2.27114 -3.50441 0
M  V30 1416 N 133.029 1.57378 -0.0835403 0
M  V30 1417 C 134.277 1.93547 0.581718 0
M  V30 1418 C 134.598 0.96524 1.69435 0
M  V30 1419 O 133.868 0.0153369 1.95894 0
M  V30 1420 H 132.448 0.714521 0.217874 0
M  V30 1421 H 135.11 1.94366 -0.144158 0
M  V30 1422 H 134.206 2.95665 0.999423 0
M  V30 1423 N 134.507 -0.190092 1.56449 0
M  V30 1424 C 135.437 -1.23816 1.97969 0
M  V30 1425 C 136.418 -1.47201 0.852395 0
M  V30 1426 O 137.603 -1.58854 1.1171 0
M  V30 1427 C 134.733 -2.5813 2.3235 0
M  V30 1428 C 133.687 -2.49348 3.47864 0
M  V30 1429 C 133.013 -3.8798 3.67934 0
M  V30 1430 C 134.313 -2.01424 4.81898 0
M  V30 1431 H 136.007 -0.89311 2.85769 0
M  V30 1432 H 133.553 -0.428177 1.37487 0
M  V30 1433 H 135.506 -3.31637 2.59991 0
M  V30 1434 H 134.23 -2.94386 1.41438 0
M  V30 1435 H 132.889 -1.78297 3.20321 0
M  V30 1436 H 132.537 -4.21597 2.74344 0
M  V30 1437 H 132.237 -3.82978 4.45648 0
M  V30 1438 H 133.761 -4.63101 3.97957 0
M  V30 1439 H 135.175 -2.64693 5.08538 0
M  V30 1440 H 133.572 -2.07413 5.63116 0
M  V30 1441 H 134.642 -0.967677 4.75146 0
M  V30 1442 N 135.985 -1.50799 -0.457987 0
M  V30 1443 C 137.21 -1.66496 -1.23668 0
M  V30 1444 C 137.635 -0.353288 -1.84752 0
M  V30 1445 O 136.993 0.684346 -1.67888 0
M  V30 1446 C 137.041 -2.76763 -2.3116 0
M  V30 1447 O 136.145 -2.38928 -3.36136 0
M  V30 1448 H 135.486 -0.555828 -0.363252 0
M  V30 1449 H 138.016 -1.9725 -0.543474 0
M  V30 1450 H 138.026 -3.00232 -2.76269 0
M  V30 1451 H 136.701 -3.71954 -1.86073 0
M  V30 1452 H 135.278 -2.25953 -2.96647 0
M  V30 1453 N 137.463 0.71206 -1.40597 0
M  V30 1454 C 138.393 1.83889 -1.43899 0
M  V30 1455 C 139.374 1.67442 -0.299504 0
M  V30 1456 O 140.559 1.87421 -0.508624 0
M  V30 1457 C 137.689 3.21877 -1.30431 0
M  V30 1458 C 136.643 3.53002 -2.42019 0
M  V30 1459 C 135.969 4.90172 -2.13626 0
M  V30 1460 C 137.269 3.53643 -3.84362 0
M  V30 1461 H 138.963 1.81383 -2.38203 0
M  V30 1462 H 136.509 0.871237 -1.14654 0
M  V30 1463 H 138.462 4.00404 -1.31357 0
M  V30 1464 H 137.186 3.24968 -0.326049 0
M  V30 1465 H 135.845 2.76818 -2.40349 0
M  V30 1466 H 135.493 4.89869 -1.14182 0
M  V30 1467 H 135.193 5.11962 -2.88389 0
M  V30 1468 H 136.717 5.71028 -2.1624 0
M  V30 1469 H 138.131 4.22203 -3.87837 0
M  V30 1470 H 136.528 3.86961 -4.58673 0
M  V30 1471 H 137.598 2.52954 -4.13693 0
M  V30 1472 N 138.941 1.26152 0.944643 0
M  V30 1473 C 140.189 1.11271 1.6871 0
M  V30 1474 C 140.51 -0.345166 1.91921 0
M  V30 1475 O 139.78 -1.24387 1.51343 0
M  V30 1476 H 138.36 0.408783 0.625224 0
M  V30 1477 H 141.022 1.58427 1.1352 0
M  V30 1478 H 140.118 1.62879 2.66227 0
M  V30 1479 N 140.419 -1.14872 1.07899 0
M  V30 1480 C 141.667 -1.85422 0.803941 0
M  V30 1481 C 141.988 -1.83051 -0.67211 0
M  V30 1482 O 141.258 -1.27532 -1.48703 0
M  V30 1483 H 139.838 -0.686537 0.294408 0
M  V30 1484 H 142.5 -1.39226 1.3639 0
M  V30 1485 H 141.596 -2.90399 1.14346 0
M  V30 1486 N 141.898 -0.863906 -1.31812 0
M  V30 1487 C 143.144 -0.472535 -1.97218 0
M  V30 1488 C 143.477 0.971394 -1.68159 0
M  V30 1489 O 142.752 1.68309 -0.974798 0
M  V30 1490 C 143.035 -0.723054 -3.52766 0
M  V30 1491 C 142.888 -2.21608 -3.91421 0
M  V30 1492 C 144.207 -0.185522 -4.39709 0
M  V30 1493 H 141.326 -0.173158 -0.71637 0
M  V30 1494 H 143.968 -1.08403 -1.56041 0
M  V30 1495 H 142.118 -0.202577 -3.87971 0
M  V30 1496 H 143.79 -2.80334 -3.66347 0
M  V30 1497 H 142.033 -2.691 -3.40246 0
M  V30 1498 H 142.704 -2.34203 -4.99853 0
M  V30 1499 H 145.18 -0.630726 -4.11292 0
M  V30 1500 H 144.056 -0.390306 -5.47511 0
M  V30 1501 H 144.317 0.912229 -4.32586 0
M  V30 1502 N 143.376 1.44774 -0.622745 0
M  V30 1503 C 144.623 2.02121 -0.1239 0
M  V30 1504 C 144.951 1.48915 1.25118 0
M  V30 1505 O 144.206 0.660045 1.84233 0
M  V30 1506 C 144.505 3.57364 -0.0508323 0
M  V30 1507 C 144.171 4.29787 -1.36358 0
M  V30 1508 C 142.833 4.4929 -1.72314 0
M  V30 1509 C 145.185 4.71062 -2.23048 0
M  V30 1510 C 142.513 5.07325 -2.94682 0
M  V30 1511 C 144.865 5.30452 -3.44679 0
M  V30 1512 C 143.529 5.48175 -3.80868 0
M  V30 1513 H 142.799 0.739612 -0.0453381 0
M  V30 1514 H 145.446 1.73648 -0.807389 0
M  V30 1515 H 143.751 3.85202 0.715991 0
M  V30 1516 H 145.448 3.99456 0.351533 0
M  V30 1517 H 142.038 4.14932 -1.07375 0
M  V30 1518 H 146.222 4.55715 -1.96565 0
M  V30 1519 H 141.478 5.19235 -3.22809 0
M  V30 1520 H 145.652 5.61385 -4.12092 0
M  V30 1521 H 143.279 5.92912 -4.75773 0
M  V30 1522 N 144.854 0.36279 1.53368 0
M  V30 1523 C 146.079 -0.231226 2.06107 0
M  V30 1524 C 146.504 -1.419 1.23474 0
M  V30 1525 O 145.862 -1.79524 0.253128 0
M  V30 1526 C 145.91 -0.605523 3.5548 0
M  V30 1527 O 145.014 -1.70312 3.7559 0
M  V30 1528 H 144.355 -0.034327 0.663112 0
M  V30 1529 H 146.885 0.522584 1.97814 0
M  V30 1530 H 146.895 -0.877314 3.98456 0
M  V30 1531 H 145.57 0.263004 4.15068 0
M  V30 1532 H 144.147 -1.4271 3.44512 0
M  V30 1533 N 146.332 -1.57332 0.0918853 0
M  V30 1534 C 147.262 -2.16872 -0.865371 0
M  V30 1535 C 148.243 -1.10118 -1.29646 0
M  V30 1536 O 149.428 -1.38242 -1.36392 0
M  V30 1537 C 146.558 -2.74649 -2.12569 0
M  V30 1538 C 145.512 -3.86747 -1.83333 0
M  V30 1539 C 144.838 -4.31212 -3.16166 0
M  V30 1540 C 146.138 -5.10089 -1.1228 0
M  V30 1541 H 147.832 -2.97114 -0.369307 0
M  V30 1542 H 145.378 -1.42918 -0.176194 0
M  V30 1543 H 147.331 -3.14952 -2.7997 0
M  V30 1544 H 146.055 -1.91657 -2.64452 0
M  V30 1545 H 144.714 -3.46978 -1.18331 0
M  V30 1546 H 144.362 -3.45115 -3.6593 0
M  V30 1547 H 144.062 -5.06788 -2.97388 0
M  V30 1548 H 145.586 -4.74146 -3.84731 0
M  V30 1549 H 147 -5.47582 -1.69785 0
M  V30 1550 H 145.397 -5.91073 -1.03693 0
M  V30 1551 H 146.467 -4.84786 -0.105041 0
M  V30 1552 N 147.81 0.181792 -1.56548 0
M  V30 1553 C 148.757 1.22521 -1.95595 0
M  V30 1554 C 149.727 1.4454 -0.818373 0
M  V30 1555 O 150.912 1.57454 -1.07763 0
M  V30 1556 C 148.052 2.56193 -2.31212 0
M  V30 1557 C 147.165 2.41641 -3.58097 0
M  V30 1558 C 146.3 3.68108 -3.82975 0
M  V30 1559 C 145.339 3.48445 -5.03242 0
M  V30 1560 N 144.476 4.66956 -5.24306 0
M  V30 1561 H 149.316 0.885226 -2.84548 0
M  V30 1562 H 146.853 0.425718 -1.40805 0
M  V30 1563 H 148.811 3.34088 -2.49882 0
M  V30 1564 H 147.441 2.88208 -1.45382 0
M  V30 1565 H 146.493 1.54976 -3.474 0
M  V30 1566 H 147.805 2.23052 -4.46149 0
M  V30 1567 H 146.959 4.54441 -4.01956 0
M  V30 1568 H 145.698 3.89666 -2.93278 0
M  V30 1569 H 144.703 2.60499 -4.8417 0
M  V30 1570 H 145.928 3.2832 -5.9446 0
M  V30 1571 H 143.874 4.88752 -4.37559 0
M  V30 1572 H 143.791 4.51242 -6.06561 0
M  V30 1573 H 145.059 5.54602 -5.47756 0
M  V30 1574 N 149.288 1.51039 0.449983 0
M  V30 1575 C 150.218 1.74379 1.55288 0
M  V30 1576 C 151.199 0.593236 1.5942 0
M  V30 1577 O 152.384 0.834625 1.7535 0
M  V30 1578 C 149.514 1.85728 2.93466 0
M  V30 1579 C 148.468 3.01078 3.04197 0
M  V30 1580 C 147.794 2.97595 4.44231 0
M  V30 1581 C 149.094 4.41254 2.7945 0
M  V30 1582 H 150.788 2.66725 1.36008 0
M  V30 1583 H 148.334 1.2835 0.652864 0
M  V30 1584 H 150.287 2.0064 3.70569 0
M  V30 1585 H 149.011 0.900207 3.13949 0
M  V30 1586 H 147.67 2.85851 2.29531 0
M  V30 1587 H 147.318 1.99691 4.61663 0
M  V30 1588 H 147.018 3.75046 4.52343 0
M  V30 1589 H 148.542 3.14583 5.23326 0
M  V30 1590 H 149.956 4.56897 3.46292 0
M  V30 1591 H 148.353 5.20315 2.98985 0
M  V30 1592 H 149.423 4.52164 1.75144 0
M  V30 1593 N 150.766 -0.704594 1.40972 0
M  V30 1594 C 152.014 -1.46169 1.39568 0
M  V30 1595 C 152.335 -1.95 0.00253745 0
M  V30 1596 O 151.605 -1.71095 -0.954114 0
M  V30 1597 H 150.185 -0.542326 0.513704 0
M  V30 1598 H 152.847 -0.834553 1.76128 0
M  V30 1599 H 151.943 -2.32922 2.07735 0
M  V30 1600 N 152.244 -1.26651 -0.937939 0
M  V30 1601 C 153.474 -1.15006 -1.71631 0
M  V30 1602 C 153.882 0.297026 -1.86854 0
M  V30 1603 O 153.225 1.21493 -1.37786 0
M  V30 1604 C 153.287 -1.74984 -3.14039 0
M  V30 1605 C 152.951 -3.24103 -3.2219 0
M  V30 1606 C 153.948 -4.20877 -3.05219 0
M  V30 1607 C 151.633 -3.64625 -3.45476 0
M  V30 1608 C 153.627 -5.56151 -3.11408 0
M  V30 1609 C 151.314 -5.00032 -3.513 0
M  V30 1610 C 152.312 -5.95604 -3.34282 0
M  V30 1611 O 152 -7.28545 -3.3982 0
M  V30 1612 H 151.732 -0.401183 -0.544085 0
M  V30 1613 H 154.286 -1.67832 -1.18413 0
M  V30 1614 H 152.516 -1.16624 -3.68695 0
M  V30 1615 H 154.205 -1.58199 -3.73802 0
M  V30 1616 H 154.971 -3.90908 -2.87081 0
M  V30 1617 H 150.85 -2.90718 -3.57777 0
M  V30 1618 H 154.394 -6.30727 -2.98043 0
M  V30 1619 H 150.291 -5.29659 -3.68959 0
M  V30 1620 H 151.059 -7.3686 -3.56343 0
M  V30 1621 N 153.722 1.14298 -1.08507 0
M  V30 1622 C 154.95 1.89219 -0.836876 0
M  V30 1623 C 155.365 1.78638 0.611054 0
M  V30 1624 O 154.722 1.14643 1.41998 0
M  V30 1625 C 154.773 3.39158 -1.25116 0
M  V30 1626 O 154.494 3.49449 -2.64229 0
M  V30 1627 C 155.995 4.31073 -1.03398 0
M  V30 1628 H 153.215 0.599328 -0.301739 0
M  V30 1629 H 155.759 1.44746 -1.44461 0
M  V30 1630 H 153.914 3.81251 -0.687514 0
M  V30 1631 H 154.328 4.42589 -2.81452 0
M  V30 1632 H 155.802 5.34646 -1.37323 0
M  V30 1633 H 156.279 4.3919 0.0289259 0
M  V30 1634 H 156.885 3.94738 -1.58311 0
M  V30 1635 N 155.201 0.870884 1.31352 0
M  V30 1636 C 156.447 0.482987 1.96965 0
M  V30 1637 C 156.78 -0.962462 1.68672 0
M  V30 1638 O 156.055 -1.6779 0.98371 0
M  V30 1639 C 156.338 0.741752 3.52378 0
M  V30 1640 C 156.191 2.2368 3.9024 0
M  V30 1641 C 157.51 0.208838 4.39604 0
M  V30 1642 H 154.629 0.176955 0.715441 0
M  V30 1643 H 157.271 1.09229 1.55464 0
M  V30 1644 H 155.421 0.223149 3.87859 0
M  V30 1645 H 157.093 2.82273 3.64856 0
M  V30 1646 H 155.336 2.70901 3.38814 0
M  V30 1647 H 156.007 2.3685 4.98604 0
M  V30 1648 H 158.483 0.652529 4.10952 0
M  V30 1649 H 157.359 0.419336 5.47296 0
M  V30 1650 H 157.62 -0.889275 4.33064 0
M  V30 1651 N 156.679 -1.44442 0.630414 0
M  V30 1652 C 158.09 -1.85434 0.217063 0
M  V30 1653 C 158.441 -1.52748 -1.23136 0
M  V30 1654 O 157.566 -0.965205 -1.93682 0
M  V30 1655 C 158.161 -3.36581 0.387168 0
M  V30 1656 C 156.72 -3.76389 0.0283297 0
M  V30 1657 C 155.867 -2.68296 0.700889 0
M  V30 1658 H 158.818 -1.34919 0.83562 0
M  V30 1659 H 158.839 -3.78657 -0.374086 0
M  V30 1660 H 158.351 -3.60339 1.44144 0
M  V30 1661 H 156.452 -3.58246 -1.02423 0
M  V30 1662 H 156.565 -4.77095 0.437892 0
M  V30 1663 H 154.929 -2.54335 0.136267 0
M  V30 1664 H 155.712 -2.94887 1.75774 0
M  V30 1665 N 158.157 -0.370918 -1.53173 0
M  V30 1666 C 159.406 0.218249 -2.00516 0
M  V30 1667 C 159.719 1.49429 -1.26215 0
M  V30 1668 O 160.925 2.16239 -1.64174 0
M  V30 1669 C 159.381 0.43948 -3.57207 0
M  V30 1670 C 158.989 -0.822244 -4.4039 0
M  V30 1671 C 160.733 0.986012 -4.1289 0
M  V30 1672 C 158.64 -0.570304 -5.88644 0
M  V30 1673 H 157.57 0.0853333 -0.749156 0
M  V30 1674 H 160.221 -0.490483 -1.76823 0
M  V30 1675 H 158.603 1.20961 -3.77074 0
M  V30 1676 H 159.777 -1.59557 -4.32294 0
M  V30 1677 H 158.092 -1.29238 -3.95836 0
M  V30 1678 H 160.689 1.18991 -5.21292 0
M  V30 1679 H 161.032 1.94972 -3.6782 0
M  V30 1680 H 161.565 0.27592 -3.96842 0
M  V30 1681 H 158.304 -1.50449 -6.38001 0
M  V30 1682 H 157.824 0.164427 -5.99575 0
M  V30 1683 H 159.503 -0.19784 -6.46697 0
M  V30 1684 N 159.635 1.57281 -0.100228 0
M  V30 1685 C 160.545 2.17833 0.870965 0
M  V30 1686 C 161.561 1.14921 1.30649 0
M  V30 1687 O 162.737 1.47313 1.37335 0
M  V30 1688 C 159.802 2.75085 2.1102 0
M  V30 1689 C 158.863 3.9297 1.72838 0
M  V30 1690 C 158.096 4.47482 2.90854 0
M  V30 1691 O 158.319 4.00922 4.05731 0
M  V30 1692 O 157.253 5.38433 2.69023 0
M  V30 1693 H 161.079 3.0124 0.38575 0
M  V30 1694 H 158.664 1.48881 0.124397 0
M  V30 1695 H 160.546 3.11656 2.83634 0
M  V30 1696 H 159.221 1.94721 2.58584 0
M  V30 1697 H 158.128 3.61201 0.973883 0
M  V30 1698 H 159.461 4.74713 1.30033 0
M  V30 1699 N 161.113 -0.173488 1.56642 0
M  V30 1700 C 162.361 -0.888706 1.81512 0
M  V30 1701 C 162.682 -1.82875 0.676872 0
M  V30 1702 O 161.952 -1.93536 -0.303414 0
M  V30 1703 H 160.532 -0.331164 0.669582 0
M  V30 1704 H 163.194 -0.173823 1.94123 0
M  V30 1705 H 162.29 -1.46691 2.75478 0
M  V30 1706 N 162.591 -1.51276 -0.441967 0
M  V30 1707 C 163.84 -1.6295 -1.18871 0
M  V30 1708 C 164.153 -0.349312 -1.92456 0
M  V30 1709 O 165.359 -0.345355 -2.69295 0
M  V30 1710 C 163.815 -2.87759 -2.16155 0
M  V30 1711 C 163.423 -4.22764 -1.48239 0
M  V30 1712 C 165.167 -3.08788 -2.91291 0
M  V30 1713 C 163.074 -5.38728 -2.4398 0
M  V30 1714 H 162.004 -0.606913 -0.447406 0
M  V30 1715 H 164.655 -1.77739 -0.456205 0
M  V30 1716 H 163.037 -2.66593 -2.92821 0
M  V30 1717 H 164.211 -4.54293 -0.771635 0
M  V30 1718 H 162.526 -4.07575 -0.852741 0
M  V30 1719 H 165.123 -3.92599 -3.63002 0
M  V30 1720 H 165.466 -2.21679 -3.5237 0
M  V30 1721 H 165.999 -3.30272 -2.21733 0
M  V30 1722 H 162.738 -6.28082 -1.87598 0
M  V30 1723 H 162.258 -5.1158 -3.13123 0
M  V30 1724 H 163.937 -5.70489 -3.05207 0
M  V30 1725 N 164.069 0.697108 -1.41344 0
M  V30 1726 C 165.315 1.4593 -1.40827 0
M  V30 1727 C 165.648 1.94193 -0.0167098 0
M  V30 1728 O 164.923 1.69425 0.955263 0
M  V30 1729 C 165.206 2.67229 -2.41373 0
M  V30 1730 C 165.059 2.24741 -3.8963 0
M  V30 1731 C 166.378 3.69423 -2.39196 0
M  V30 1732 H 163.497 0.529303 -0.512842 0
M  V30 1733 H 166.139 0.794112 -1.72609 0
M  V30 1734 H 164.289 3.23982 -2.14401 0
M  V30 1735 H 165.961 1.73327 -4.27499 0
M  V30 1736 H 164.204 1.56542 -4.0457 0
M  V30 1737 H 164.875 3.1177 -4.55525 0
M  V30 1738 H 167.351 3.2234 -2.63128 0
M  V30 1739 H 166.227 4.51907 -3.11563 0
M  V30 1740 H 166.488 4.19012 -1.41001 0
M  V30 1741 N 165.547 1.27147 0.931209 0
M  V30 1742 C 166.775 1.16082 1.71267 0
M  V30 1743 C 167.19 -0.282772 1.8667 0
M  V30 1744 O 166.547 -1.19283 1.38122 0
M  V30 1745 C 166.598 1.8358 3.11417 0
M  V30 1746 O 166.319 3.22299 2.96741 0
M  V30 1747 C 167.82 1.78597 4.05732 0
M  V30 1748 H 165.04 0.403758 0.535929 0
M  V30 1749 H 167.584 1.67953 1.16671 0
M  V30 1750 H 165.739 1.35623 3.62885 0
M  V30 1751 H 166.153 3.55851 3.85319 0
M  V30 1752 H 167.627 2.30444 5.01597 0
M  V30 1753 H 168.104 0.754564 4.3267 0
M  V30 1754 H 168.71 2.26152 3.60188 0
M  V30 1755 N 167.025 -1.13721 1.09112 0
M  V30 1756 C 167.958 -2.18094 0.67158 0
M  V30 1757 C 168.936 -1.59414 -0.320299 0
M  V30 1758 O 170.12 -1.87183 -0.222444 0
M  V30 1759 C 167.247 -3.38698 -0.0111189 0
M  V30 1760 C 166.293 -4.15966 0.942055 0
M  V30 1761 S 167.126 -4.7604 2.45246 0
M  V30 1762 C 168.282 -5.99994 1.78208 0
M  V30 1763 H 168.515 -2.53344 1.55577 0
M  V30 1764 H 166.048 -1.24967 0.906789 0
M  V30 1765 H 168.006 -4.08559 -0.398716 0
M  V30 1766 H 166.667 -3.01756 -0.871905 0
M  V30 1767 H 165.86 -5.02318 0.411396 0
M  V30 1768 H 165.462 -3.51745 1.2709 0
M  V30 1769 H 167.754 -6.68441 1.10424 0
M  V30 1770 H 168.697 -6.57662 2.62463 0
M  V30 1771 H 169.105 -5.50432 1.25238 0
M  V30 1772 N 168.503 -0.877838 -1.30888 0
M  V30 1773 C 169.743 -0.499301 -1.98208 0
M  V30 1774 C 170.107 0.932649 -1.67826 0
M  V30 1775 O 171.308 1.41694 -2.28421 0
M  V30 1776 C 169.579 -0.758221 -3.49265 0
M  V30 1777 S 171.138 -0.480719 -4.36159 0
M  V30 1778 H 167.956 -0.186062 -0.686223 0
M  V30 1779 H 170.558 -1.13556 -1.59139 0
M  V30 1780 H 169.262 -1.79903 -3.68867 0
M  V30 1781 H 168.793 -0.109247 -3.93248 0
M  V30 1782 H 170.808 0.683698 -4.91467 0
M  V30 1783 N 169.982 1.44106 -0.638065 0
M  V30 1784 C 170.945 2.29138 0.0531013 0
M  V30 1785 C 171.945 1.41409 0.765506 0
M  V30 1786 O 173.135 1.63206 0.609046 0
M  V30 1787 C 170.267 3.23144 1.08584 0
M  V30 1788 H 171.46 2.91739 -0.694883 0
M  V30 1789 H 169.013 1.51134 -0.398538 0
M  V30 1790 H 169.748 2.65408 1.86357 0
M  V30 1791 H 169.533 3.87804 0.578852 0
M  V30 1792 H 171.023 3.87004 1.56899 0
M  V30 1793 N 171.46 0.379036 1.52974 0
M  V30 1794 C 172.871 -0.0972525 1.86447 0
M  V30 1795 C 173.222 -1.47027 1.29914 0
M  V30 1796 O 172.347 -2.07135 0.626433 0
M  V30 1797 C 172.942 -0.183248 3.38304 0
M  V30 1798 C 171.501 -0.603812 3.71525 0
M  V30 1799 C 170.648 0.240632 2.76254 0
M  V30 1800 H 173.599 0.597316 1.4703 0
M  V30 1801 H 173.62 -1.00432 3.67006 0
M  V30 1802 H 173.132 0.816191 3.79421 0
M  V30 1803 H 171.233 -1.61099 3.35973 0
M  V30 1804 H 171.346 -0.369086 4.77676 0
M  V30 1805 H 169.71 -0.292548 2.53014 0
M  V30 1806 H 170.493 1.23786 3.20206 0
M  V30 1807 N 172.938 -1.57226 0.108567 0
M  V30 1808 C 173.871 -2.10447 -0.882464 0
M  V30 1809 C 174.849 -1.01829 -1.26766 0
M  V30 1810 O 176.033 -1.29415 -1.37054 0
M  V30 1811 C 173.16 -2.59258 -2.17952 0
M  V30 1812 C 172.206 -3.79662 -1.94318 0
M  V30 1813 S 173.039 -5.22586 -1.16892 0
M  V30 1814 C 174.195 -5.74758 -2.47799 0
M  V30 1815 H 174.428 -2.94178 -0.429745 0
M  V30 1816 H 171.961 -1.54043 -0.105 0
M  V30 1817 H 173.919 -2.88036 -2.92482 0
M  V30 1818 H 172.58 -1.75728 -2.60343 0
M  V30 1819 H 171.773 -4.11928 -2.90399 0
M  V30 1820 H 171.375 -3.51446 -1.27913 0
M  V30 1821 H 173.667 -5.83846 -3.43701 0
M  V30 1822 H 174.61 -6.73027 -2.20093 0
M  V30 1823 H 175.018 -5.02763 -2.56689 0
M  V30 1824 N 174.416 0.165178 -1.56732 0
M  V30 1825 C 175.646 0.894919 -1.86212 0
M  V30 1826 C 176.054 1.76066 -0.692627 0
M  V30 1827 O 175.397 1.80387 0.347303 0
M  V30 1828 C 175.459 1.8174 -3.10179 0
M  V30 1829 C 175.123 1.13064 -4.42793 0
M  V30 1830 C 176.12 0.493169 -5.17556 0
M  V30 1831 C 173.805 1.12556 -4.89527 0
M  V30 1832 C 175.799 -0.140209 -6.37246 0
M  V30 1833 C 173.486 0.488366 -6.09145 0
M  V30 1834 C 174.484 -0.143411 -6.82849 0
M  V30 1835 O 174.172 -0.77055 -8.00199 0
M  V30 1836 H 173.904 0.265114 -0.621844 0
M  V30 1837 H 176.458 0.168242 -2.0471 0
M  V30 1838 H 174.688 2.58455 -2.87642 0
M  V30 1839 H 176.377 2.4175 -3.26055 0
M  V30 1840 H 177.143 0.489023 -4.82528 0
M  V30 1841 H 173.022 1.60672 -4.32094 0
M  V30 1842 H 176.566 -0.633932 -6.94714 0
M  V30 1843 H 172.463 0.490116 -6.43637 0
M  V30 1844 H 173.231 -0.670408 -8.1575 0
M  V30 1845 N 175.894 1.51508 0.433938 0
M  V30 1846 C 177.143 1.63578 1.18005 0
M  V30 1847 C 177.456 0.359514 1.92268 0
M  V30 1848 O 178.662 0.359632 2.69108 0
M  V30 1849 C 177.118 2.88901 2.14626 0
M  V30 1850 C 176.726 4.23544 1.45995 0
M  V30 1851 C 178.47 3.10328 2.89649 0
M  V30 1852 C 176.377 5.40014 2.4112 0
M  V30 1853 H 175.307 0.609277 0.444182 0
M  V30 1854 H 177.958 1.77978 0.446773 0
M  V30 1855 H 176.34 2.68142 2.91403 0
M  V30 1856 H 177.514 4.54696 0.747532 0
M  V30 1857 H 175.829 4.08021 0.831115 0
M  V30 1858 H 178.426 3.94518 3.60915 0
M  V30 1859 H 178.769 2.23544 3.51189 0
M  V30 1860 H 179.302 3.31443 2.19978 0
M  V30 1861 H 176.041 6.29068 1.84264 0
M  V30 1862 H 175.561 5.13233 3.10406 0
M  V30 1863 H 177.24 5.72099 3.02177 0
M  V30 1864 N 177.372 -0.689602 1.41712 0
M  V30 1865 C 178.319 -1.80345 1.44029 0
M  V30 1866 C 179.289 -1.63478 0.293948 0
M  V30 1867 O 180.474 -1.84244 0.495869 0
M  V30 1868 C 177.614 -3.18272 1.33405 0
M  V30 1869 C 176.727 -3.46529 2.57956 0
M  V30 1870 C 175.862 -4.74103 2.39582 0
M  V30 1871 C 174.901 -4.95347 3.5958 0
M  V30 1872 N 174.038 -6.14151 3.40239 0
M  V30 1873 H 178.878 -1.77698 2.39222 0
M  V30 1874 H 176.415 -0.867688 1.18784 0
M  V30 1875 H 178.373 -3.97956 1.25246 0
M  V30 1876 H 177.003 -3.2008 0.418164 0
M  V30 1877 H 176.055 -2.61207 2.76542 0
M  V30 1878 H 177.367 -3.58126 3.47199 0
M  V30 1879 H 176.521 -5.61853 2.28924 0
M  V30 1880 H 175.26 -4.64763 1.47805 0
M  V30 1881 H 174.265 -4.06044 3.70686 0
M  V30 1882 H 175.49 -5.06542 4.52318 0
M  V30 1883 H 173.436 -6.06013 2.51167 0
M  V30 1884 H 173.353 -6.26543 4.23061 0
M  V30 1885 H 174.621 -7.04619 3.33365 0
M  V30 1886 N 178.85 -1.27639 -0.924453 0
M  V30 1887 C 180.075 -1.17101 -1.71179 0
M  V30 1888 C 180.5 0.268134 -1.86179 0
M  V30 1889 O 179.858 1.19415 -1.36418 0
M  V30 1890 C 179.906 -1.86313 -3.08739 0
M  V30 1891 O 179.01 -1.16331 -3.95652 0
M  V30 1892 H 178.351 -0.407091 -0.524569 0
M  V30 1893 H 180.881 -1.68767 -1.15666 0
M  V30 1894 H 180.891 -1.938 -3.59034 0
M  V30 1895 H 179.566 -2.91001 -2.97138 0
M  V30 1896 H 178.143 -1.16935 -3.54091 0
M  V30 1897 N 180.328 1.1314 -1.09713 0
M  V30 1898 C 181.238 2.22242 -0.751367 0
M  V30 1899 C 182.254 1.72224 0.247938 0
M  V30 1900 O 183.43 2.01205 0.0885463 0
M  V30 1901 C 180.495 3.46231 -0.180274 0
M  V30 1902 C 179.556 4.11125 -1.2359 0
M  V30 1903 C 178.789 5.29195 -0.691966 0
M  V30 1904 O 179.012 5.68342 0.48414 0
M  V30 1905 O 177.946 5.84214 -1.44838 0
M  V30 1906 H 181.772 2.54197 -1.66186 0
M  V30 1907 H 179.357 1.21331 -0.871735 0
M  V30 1908 H 181.239 4.21185 0.134739 0
M  V30 1909 H 179.914 3.1597 0.703185 0
M  V30 1910 H 178.821 3.37985 -1.60366 0
M  V30 1911 H 180.154 4.45524 -2.09211 0
M  V30 1912 N 181.806 0.884767 1.30421 0
M  V30 1913 C 182.716 0.355398 2.31892 0
M  V30 1914 C 183.732 -0.542261 1.65335 0
M  V30 1915 O 184.908 -0.435432 1.96637 0
M  V30 1916 C 181.973 -0.421661 3.44126 0
M  V30 1917 C 181.034 0.505727 4.26311 0
M  V30 1918 C 180.267 -0.234343 5.33185 0
M  V30 1919 O 180.49 -1.46045 5.51386 0
M  V30 1920 O 179.424 0.415443 6.00465 0
M  V30 1921 H 183.25 1.19685 2.79122 0
M  V30 1922 H 180.835 0.648596 1.34587 0
M  V30 1923 H 182.717 -0.861641 4.12497 0
M  V30 1924 H 181.392 -1.23942 2.99032 0
M  V30 1925 H 180.299 0.994513 3.60639 0
M  V30 1926 H 181.632 1.28948 4.75009 0
M  V30 1927 N 183.284 -1.43765 0.645699 0
M  V30 1928 C 184.512 -2.06253 0.163556 0
M  V30 1929 C 184.927 -1.48352 -1.16778 0
M  V30 1930 O 184.284 -0.611932 -1.71935 0
M  V30 1931 C 184.335 -3.61453 0.0583186 0
M  V30 1932 O 184.056 -4.172 1.33702 0
M  V30 1933 C 185.557 -4.41002 -0.450795 0
M  V30 1934 H 182.777 -0.665413 0.0864077 0
M  V30 1935 H 185.321 -1.84396 0.884222 0
M  V30 1936 H 183.476 -3.82522 -0.612865 0
M  V30 1937 H 183.89 -5.10791 1.19131 0
M  V30 1938 H 185.364 -5.49966 -0.473403 0
M  V30 1939 H 185.841 -4.13488 -1.48068 0
M  V30 1940 H 186.447 -4.24886 0.187637 0
M  V30 1941 N 184.763 -0.387143 -1.52771 0
M  V30 1942 C 185.696 0.493123 -2.22808 0
M  V30 1943 C 186.674 1.0658 -1.22798 0
M  V30 1944 O 187.858 1.11785 -1.51777 0
M  V30 1945 C 184.985 1.68238 -2.93962 0
M  V30 1946 C 184.031 1.23515 -4.08223 0
M  V30 1947 S 184.864 0.21848 -5.35054 0
M  V30 1948 C 186.02 1.41357 -6.09729 0
M  V30 1949 H 186.253 -0.101625 -2.97126 0
M  V30 1950 H 183.786 -0.171323 -1.53447 0
M  V30 1951 H 185.744 2.36443 -3.35567 0
M  V30 1952 H 184.405 2.24842 -2.19328 0
M  V30 1953 H 183.598 2.12304 -4.57103 0
M  V30 1954 H 183.2 0.632044 -3.68621 0
M  V30 1955 H 185.492 2.34101 -6.3577 0
M  V30 1956 H 186.435 0.965736 -7.01484 0
M  V30 1957 H 186.843 1.6294 -5.40473 0
M  V30 1958 N 186.241 1.57166 -0.116904 0
M  V30 1959 C 187.471 1.99184 0.548586 0
M  V30 1960 C 187.879 0.995436 1.60897 0
M  V30 1961 O 187.222 -0.0201293 1.83689 0
M  V30 1962 C 187.284 3.37611 1.23526 0
M  V30 1963 C 186.948 4.55857 0.323077 0
M  V30 1964 C 187.945 5.18056 -0.437476 0
M  V30 1965 C 185.63 5.01751 0.234761 0
M  V30 1966 C 187.624 6.24536 -1.2741 0
M  V30 1967 C 185.311 6.08093 -0.605496 0
M  V30 1968 C 186.309 6.69352 -1.35856 0
M  V30 1969 O 185.997 7.7364 -2.18487 0
M  V30 1970 H 185.729 0.659148 0.149999 0
M  V30 1971 H 188.283 2.0443 -0.199428 0
M  V30 1972 H 186.513 3.29113 2.0303 0
M  V30 1973 H 188.202 3.63932 1.79745 0
M  V30 1974 H 188.968 4.83516 -0.379105 0
M  V30 1975 H 184.847 4.53817 0.810601 0
M  V30 1976 H 188.391 6.72281 -1.86237 0
M  V30 1977 H 184.288 6.42063 -0.665268 0
M  V30 1978 H 185.056 7.90727 -2.11406 0
M  V30 1979 N 187.719 -0.156864 1.56817 0
M  V30 1980 C 188.629 -1.2136 2.00771 0
M  V30 1981 C 189.645 -1.47598 0.921459 0
M  V30 1982 O 190.821 -1.59462 1.2302 0
M  V30 1983 C 187.886 -2.52943 2.37109 0
M  V30 1984 C 186.947 -2.34439 3.59634 0
M  V30 1985 C 186.18 -3.59748 3.94229 0
M  V30 1986 O 186.403 -4.65526 3.29609 0
M  V30 1987 O 185.337 -3.52998 4.8752 0
M  V30 1988 H 189.163 -0.870468 2.90958 0
M  V30 1989 H 186.748 -0.36484 1.44877 0
M  V30 1990 H 188.63 -3.30538 2.61386 0
M  V30 1991 H 187.305 -2.86806 1.5008 0
M  V30 1992 H 186.212 -1.54828 3.40557 0
M  V30 1993 H 187.545 -2.05496 4.4725 0
M  V30 1994 N 189.197 -1.51736 -0.425897 0
M  V30 1995 C 190.445 -1.64644 -1.17204 0
M  V30 1996 C 190.766 -0.370486 -1.91448 0
M  V30 1997 O 190.036 0.614088 -1.86026 0
M  V30 1998 H 188.616 -0.606819 -0.435638 0
M  V30 1999 H 191.278 -1.88713 -0.487177 0
M  V30 2000 H 190.374 -2.47958 -1.89534 0
M  V30 2001 N 190.675 0.682077 -1.42076 0
M  V30 2002 C 191.921 1.44428 -1.42367 0
M  V30 2003 C 192.254 1.94164 -0.0373056 0
M  V30 2004 O 191.529 1.70429 0.937239 0
M  V30 2005 C 191.812 2.64654 -2.44194 0
M  V30 2006 C 191.665 2.20596 -3.91991 0
M  V30 2007 C 192.984 3.66865 -2.431 0
M  V30 2008 H 190.103 0.523834 -0.518428 0
M  V30 2009 H 192.745 0.77576 -1.73442 0
M  V30 2010 H 190.895 3.2169 -2.17826 0
M  V30 2011 H 192.567 1.68783 -4.29313 0
M  V30 2012 H 190.81 1.52242 -4.06208 0
M  V30 2013 H 191.481 3.06921 -4.58807 0
M  V30 2014 H 193.957 3.19531 -2.66532 0
M  V30 2015 H 192.833 4.48577 -3.16339 0
M  V30 2016 H 193.094 4.17493 -1.45437 0
M  V30 2017 N 192.153 1.28127 0.917671 0
M  V30 2018 C 193.083 1.14248 2.03641 0
M  V30 2019 C 194.064 0.0412748 1.7005 0
M  V30 2020 O 195.249 0.217566 1.92977 0
M  V30 2021 C 192.379 0.799431 3.37974 0
M  V30 2022 C 191.333 1.85497 3.85713 0
M  V30 2023 C 190.659 1.36565 5.16966 0
M  V30 2024 C 191.959 3.26085 4.08002 0
M  V30 2025 H 193.653 2.07835 2.15511 0
M  V30 2026 H 191.199 1.00064 1.03553 0
M  V30 2027 H 193.152 0.689114 4.15727 0
M  V30 2028 H 191.876 -0.172145 3.26146 0
M  V30 2029 H 190.535 1.95437 3.10161 0
M  V30 2030 H 190.183 0.383253 5.01538 0
M  V30 2031 H 189.883 2.07143 5.49878 0
M  V30 2032 H 191.407 1.26848 5.97279 0
M  V30 2033 H 192.821 3.19089 4.76293 0
M  V30 2034 H 191.218 3.94462 4.52238 0
M  V30 2035 H 192.288 3.70394 3.12948 0
M  V30 2036 N 193.631 -1.12557 1.10312 0
M  V30 2037 C 194.541 -2.21841 0.763142 0
M  V30 2038 C 195.557 -1.72354 -0.238801 0
M  V30 2039 O 196.733 -2.01249 -0.0778746 0
M  V30 2040 C 193.798 -3.46131 0.198632 0
M  V30 2041 C 192.859 -4.10464 1.25769 0
M  V30 2042 C 192.092 -5.28821 0.72002 0
M  V30 2043 O 192.315 -5.6859 -0.453993 0
M  V30 2044 O 191.249 -5.83437 1.47935 0
M  V30 2045 H 195.075 -2.53312 1.67532 0
M  V30 2046 H 192.66 -1.20867 0.878157 0
M  V30 2047 H 194.542 -4.2125 -0.112401 0
M  V30 2048 H 193.217 -3.16338 -0.686419 0
M  V30 2049 H 192.124 -3.3713 1.62156 0
M  V30 2050 H 193.457 -4.44408 2.11571 0
M  V30 2051 N 195.109 -0.891671 -1.2995 0
M  V30 2052 C 196.339 -0.527893 -1.99742 0
M  V30 2053 C 196.747 0.88979 -1.66971 0
M  V30 2054 O 196.09 1.59766 -0.906667 0
M  V30 2055 C 196.152 -0.630804 -3.53922 0
M  V30 2056 C 195.816 -2.01401 -4.10228 0
M  V30 2057 C 196.813 -2.98422 -4.25724 0
M  V30 2058 C 194.498 -2.32121 -4.45449 0
M  V30 2059 C 196.492 -4.24293 -4.75662 0
M  V30 2060 C 194.179 -3.58237 -4.95086 0
M  V30 2061 C 195.177 -4.54137 -5.10146 0
M  V30 2062 O 194.865 -5.78014 -5.58708 0
M  V30 2063 H 194.597 -0.201953 -0.645129 0
M  V30 2064 H 197.151 -1.20076 -1.66646 0
M  V30 2065 H 195.381 0.0990616 -3.86573 0
M  V30 2066 H 197.07 -0.277338 -4.04951 0
M  V30 2067 H 197.836 -2.76001 -3.98809 0
M  V30 2068 H 193.715 -1.5824 -4.32991 0
M  V30 2069 H 197.259 -4.99153 -4.87332 0
M  V30 2070 H 193.156 -3.80491 -5.21437 0
M  V30 2071 H 193.924 -5.8049 -5.77039 0
M  V30 2072 N 196.587 1.43421 -0.653314 0
M  V30 2073 C 197.55 2.29182 0.0287951 0
M  V30 2074 C 198.55 1.42213 0.750465 0
M  V30 2075 O 199.74 1.63843 0.591701 0
M  V30 2076 C 196.872 3.24278 1.05151 0
M  V30 2077 H 198.065 2.90985 -0.725786 0
M  V30 2078 H 195.618 1.50702 -0.414545 0
M  V30 2079 H 196.353 2.6737 1.83532 0
M  V30 2080 H 196.138 3.88396 0.537687 0
M  V30 2081 H 197.628 3.88647 1.52786 0
M  V30 2082 N 198.065 0.39524 1.52563 0
M  V30 2083 C 199.481 0.0454682 1.59535 0
M  V30 2084 C 199.681 -1.44056 1.4089 0
M  V30 2085 O 198.737 -2.20579 1.22888 0
M  V30 2086 C 200.05 0.527963 2.96029 0
M  V30 2087 C 201.598 0.484733 3.09224 0
M  V30 2088 C 202.073 0.943512 4.48176 0
M  V30 2089 N 203.564 0.899765 4.54377 0
M  V30 2090 C 204.299 1.22609 5.60138 0
M  V30 2091 N 203.795 1.62319 6.73516 0
M  V30 2092 N 205.588 1.14696 5.50274 0
M  V30 2093 H 197.739 1.36261 1.62931 0
M  V30 2094 H 200.002 0.558887 0.765735 0
M  V30 2095 H 199.708 1.56607 3.14908 0
M  V30 2096 H 199.582 -0.0698056 3.77135 0
M  V30 2097 H 201.969 -0.544298 2.90037 0
M  V30 2098 H 202.05 1.11838 2.30056 0
M  V30 2099 H 201.694 1.9708 4.68104 0
M  V30 2100 H 201.624 0.286817 5.25818 0
M  V30 2101 H 204.115 0.607632 3.72983 0
M  V30 2102 H 204.428 1.85567 7.5019 0
M  V30 2103 H 202.773 1.66211 6.74833 0
M  V30 2104 H 205.964 0.835701 4.6058 0
M  V30 2105 H 206.137 1.40459 6.32594 0
M  V30 2106 N 199.544 -1.57102 0.125237 0
M  V30 2107 C 200.454 -2.19191 -0.8362 0
M  V30 2108 C 201.47 -1.16985 -1.28805 0
M  V30 2109 O 202.646 -1.49479 -1.34974 0
M  V30 2110 C 199.711 -2.78407 -2.06617 0
M  V30 2111 C 198.772 -3.9567 -1.66565 0
M  V30 2112 C 198.005 -4.52052 -2.83698 0
M  V30 2113 O 198.228 -4.07326 -3.99302 0
M  V30 2114 O 197.162 -5.42645 -2.60423 0
M  V30 2115 H 200.988 -3.01816 -0.337776 0
M  V30 2116 H 198.573 -1.4906 -0.100695 0
M  V30 2117 H 200.455 -3.16129 -2.7864 0
M  V30 2118 H 199.13 -1.9881 -2.55453 0
M  V30 2119 H 198.037 -3.62705 -0.916296 0
M  V30 2120 H 199.37 -4.76722 -1.22464 0
M  V30 2121 N 201.022 0.148545 -1.56898 0
M  V30 2122 C 202.252 0.875118 -1.8715 0
M  V30 2123 C 202.66 1.75322 -0.711262 0
M  V30 2124 O 202.003 1.80745 0.328151 0
M  V30 2125 C 202.065 1.7844 -3.12089 0
M  V30 2126 C 201.729 1.08361 -4.43967 0
M  V30 2127 C 202.726 0.438247 -5.1805 0
M  V30 2128 C 200.411 1.07358 -4.90693 0
M  V30 2129 C 202.405 -0.20779 -6.37061 0
M  V30 2130 C 200.092 0.42373 -6.09629 0
M  V30 2131 C 201.09 -0.215829 -6.82659 0
M  V30 2132 O 200.778 -0.855378 -7.99336 0
M  V30 2133 H 200.51 0.258504 -0.624621 0
M  V30 2134 H 203.064 0.14652 -2.04877 0
M  V30 2135 H 201.294 2.55389 -2.90367 0
M  V30 2136 H 202.983 2.38279 -3.286 0
M  V30 2137 H 203.749 0.437817 -4.8302 0
M  V30 2138 H 199.628 1.5608 -4.33774 0
M  V30 2139 H 203.172 -0.70758 -6.94002 0
M  V30 2140 H 199.069 0.421822 -6.4412 0
M  V30 2141 H 199.837 -0.756892 -8.14993 0
M  V30 2142 N 202.5 1.5196 0.417844 0
M  V30 2143 C 203.447 1.74678 1.50852 0
M  V30 2144 C 204.417 0.588947 1.55308 0
M  V30 2145 O 205.602 0.825544 1.72016 0
M  V30 2146 C 202.742 1.89544 2.88387 0
M  V30 2147 C 201.855 3.17166 2.93309 0
M  V30 2148 C 200.99 3.22513 4.22088 0
M  V30 2149 C 200.029 4.44372 4.20951 0
M  V30 2150 N 199.166 4.47161 5.41287 0
M  V30 2151 H 204.006 2.67768 1.30783 0
M  V30 2152 H 201.543 1.32689 0.63498 0
M  V30 2153 H 203.501 1.96146 3.68216 0
M  V30 2154 H 202.131 0.998424 3.06971 0
M  V30 2155 H 201.183 3.19778 2.06024 0
M  V30 2156 H 202.495 4.07021 2.88332 0
M  V30 2157 H 201.649 3.28139 5.10303 0
M  V30 2158 H 200.388 2.30581 4.29748 0
M  V30 2159 H 199.393 4.38902 3.31127 0
M  V30 2160 H 200.618 5.3759 4.14938 0
M  V30 2161 H 198.564 3.58108 5.49632 0
M  V30 2162 H 198.481 5.3085 5.3827 0
M  V30 2163 H 199.749 4.57005 6.3148 0
M  V30 2164 N 203.978 -0.674533 1.42435 0
M  V30 2165 C 204.925 -1.78807 1.45934 0
M  V30 2166 C 205.895 -1.63157 0.311271 0
M  V30 2167 O 207.08 -1.83707 0.515383 0
M  V30 2168 C 204.22 -3.16839 1.36773 0
M  V30 2169 C 203.333 -3.43774 2.61617 0
M  V30 2170 C 202.468 -4.71536 2.44597 0
M  V30 2171 C 201.507 -4.91505 3.64814 0
M  V30 2172 N 200.644 -6.10508 3.46734 0
M  V30 2173 H 205.484 -1.75151 2.41093 0
M  V30 2174 H 203.021 -0.85504 1.19697 0
M  V30 2175 H 204.979 -3.96606 1.29459 0
M  V30 2176 H 203.609 -3.19619 0.452089 0
M  V30 2177 H 202.661 -2.58259 2.79297 0
M  V30 2178 H 203.973 -3.54423 3.50978 0
M  V30 2179 H 203.127 -5.59393 2.3487 0
M  V30 2180 H 201.866 -4.6317 1.52726 0
M  V30 2181 H 200.871 -4.0209 3.74972 0
M  V30 2182 H 202.096 -5.01716 4.57665 0
M  V30 2183 H 200.042 -6.03315 2.5758 0
M  V30 2184 H 199.959 -6.2202 4.29682 0
M  V30 2185 H 201.227 -7.01044 3.40819 0
M  V30 2186 N 205.456 -1.28612 -0.910864 0
M  V30 2187 C 206.872 -1.06381 -1.18976 0
M  V30 2188 C 207.072 0.191998 -2.00583 0
M  V30 2189 O 206.128 0.892869 -2.36187 0
M  V30 2190 C 207.441 -2.31295 -1.92154 0
M  V30 2191 C 208.989 -2.36503 -2.05025 0
M  V30 2192 C 209.464 -3.61191 -2.81612 0
M  V30 2193 N 210.955 -3.61847 -2.89172 0
M  V30 2194 C 211.69 -4.55004 -3.4894 0
M  V30 2195 N 211.186 -5.58482 -4.09963 0
M  V30 2196 N 212.979 -4.42594 -3.46506 0
M  V30 2197 H 205.13 -2.09221 -0.366094 0
M  V30 2198 H 207.393 -0.921003 -0.224629 0
M  V30 2199 H 207.099 -3.228 -1.39618 0
M  V30 2200 H 206.973 -2.37934 -2.9269 0
M  V30 2201 H 209.36 -1.45494 -2.5674 0
M  V30 2202 H 209.441 -2.33857 -1.03657 0
M  V30 2203 H 209.085 -4.52545 -2.30576 0
M  V30 2204 H 209.015 -3.61092 -3.83302 0
M  V30 2205 H 211.506 -2.87022 -2.45819 0
M  V30 2206 H 211.819 -6.25704 -4.53557 0
M  V30 2207 H 210.164 -5.62305 -4.08459 0
M  V30 2208 H 213.355 -3.60953 -2.98045 0
M  V30 2209 H 213.528 -5.15381 -3.92793 0
M  V30 2210 N 206.934 1.1197 -1.10907 0
M  V30 2211 C 207.844 2.21433 -0.774896 0
M  V30 2212 C 208.86 1.72478 0.229657 0
M  V30 2213 O 210.036 2.01288 0.0672008 0
M  V30 2214 C 207.101 3.4602 -0.216986 0
M  V30 2215 C 206.162 4.09791 -1.27944 0
M  V30 2216 C 205.395 5.28431 -0.748055 0
M  V30 2217 O 205.618 5.68823 0.423833 0
M  V30 2218 O 204.552 5.82644 -1.51027 0
M  V30 2219 H 208.378 2.5242 -1.68873 0
M  V30 2220 H 205.963 1.20399 -0.884555 0
M  V30 2221 H 207.845 4.21304 0.090059 0
M  V30 2222 H 206.52 3.16698 0.669633 0
M  V30 2223 H 205.427 3.36265 -1.63941 0
M  V30 2224 H 206.76 4.4328 -2.13925 0
M  V30 2225 N 208.412 0.89855 1.29475 0
M  V30 2226 C 209.66 0.522847 1.9522 0
M  V30 2227 C 209.981 -0.93371 1.71192 0
M  V30 2228 O 209.251 -1.65823 1.04305 0
M  V30 2229 H 207.831 0.190366 0.722336 0
M  V30 2230 H 210.493 1.14459 1.5775 0
M  V30 2231 H 209.589 0.704476 3.04045 0
M  V30 2232 N 209.89 -1.43072 0.660911 0
M  V30 2233 C 210.837 -2.30785 -0.0259884 0
M  V30 2234 C 211.807 -1.45184 -0.806888 0
M  V30 2235 O 212.992 -1.74041 -0.781943 0
M  V30 2236 C 210.132 -3.30861 -0.981067 0
M  V30 2237 C 209.245 -4.31558 -0.195458 0
M  V30 2238 C 208.38 -5.18712 -1.14503 0
M  V30 2239 C 207.419 -6.11097 -0.350299 0
M  V30 2240 N 206.556 -6.90849 -1.25186 0
M  V30 2241 H 211.396 -2.88975 0.727846 0
M  V30 2242 H 208.933 -1.42353 0.370682 0
M  V30 2243 H 210.891 -3.87399 -1.54849 0
M  V30 2244 H 209.521 -2.74304 -1.70169 0
M  V30 2245 H 208.573 -3.77252 0.488374 0
M  V30 2246 H 209.885 -4.9701 0.422176 0
M  V30 2247 H 209.039 -5.79914 -1.78284 0
M  V30 2248 H 207.778 -4.53404 -1.79656 0
M  V30 2249 H 206.783 -5.48976 0.300808 0
M  V30 2250 H 208.008 -6.7845 0.296941 0
M  V30 2251 H 205.954 -6.28182 -1.89005 0
M  V30 2252 H 205.871 -7.52854 -0.688971 0
M  V30 2253 H 207.139 -7.5655 -1.87757 0
M  V30 2254 N 211.368 -0.403325 -1.52352 0
M  V30 2255 C 212.593 0.176499 -2.06648 0
M  V30 2256 C 213.018 1.38577 -1.27193 0
M  V30 2257 O 212.376 1.7879 -0.300637 0
M  V30 2258 C 212.424 0.511061 -3.5696 0
M  V30 2259 O 211.528 1.60294 -3.79973 0
M  V30 2260 H 210.869 0.0167337 -0.663789 0
M  V30 2261 H 213.399 -0.574848 -1.96359 0
M  V30 2262 H 213.409 0.771362 -4.00642 0
M  V30 2263 H 212.084 -0.37296 -4.14224 0
M  V30 2264 H 210.661 1.33526 -3.48174 0
M  V30 2265 N 212.846 1.57033 -0.133567 0
M  V30 2266 C 213.756 2.19632 0.824564 0
M  V30 2267 C 214.772 1.17666 1.28182 0
M  V30 2268 O 215.948 1.50193 1.3418 0
M  V30 2269 C 213.013 2.79499 2.05137 0
M  V30 2270 C 212.074 3.96548 1.64464 0
M  V30 2271 C 211.307 4.5355 2.81297 0
M  V30 2272 O 211.53 4.09438 3.97136 0
M  V30 2273 O 210.464 5.44018 2.57542 0
M  V30 2274 H 214.29 3.01991 0.321766 0
M  V30 2275 H 211.875 1.49112 0.0927889 0
M  V30 2276 H 213.757 3.17602 2.7696 0
M  V30 2277 H 212.432 2.00162 2.54395 0
M  V30 2278 H 211.339 3.63186 0.897048 0
M  V30 2279 H 212.672 4.77364 1.19934 0
M  V30 2280 N 214.325 -0.140222 1.56975 0
M  V30 2281 C 215.235 -1.19223 2.02047 0
M  V30 2282 C 216.251 -1.46612 0.937062 0
M  V30 2283 O 217.427 -1.58148 1.24704 0
M  V30 2284 C 214.492 -2.50414 2.39778 0
M  V30 2285 C 213.553 -2.30612 3.621 0
M  V30 2286 C 212.786 -3.55547 3.98023 0
M  V30 2287 O 213.009 -4.62004 3.34528 0
M  V30 2288 O 211.943 -3.47808 4.91237 0
M  V30 2289 H 215.769 -0.839559 2.91865 0
M  V30 2290 H 213.354 -0.349453 1.45256 0
M  V30 2291 H 215.236 -3.27747 2.64877 0
M  V30 2292 H 213.911 -2.85198 1.53114 0
M  V30 2293 H 212.818 -1.51207 3.4218 0
M  V30 2294 H 214.151 -2.00741 4.49404 0
M  V30 2295 N 215.803 -1.52179 -0.40978 0
M  V30 2296 C 216.735 -1.71703 -1.51825 0
M  V30 2297 C 217.748 -0.597445 -1.51441 0
M  V30 2298 O 218.937 -0.872582 -1.55719 0
M  V30 2299 C 216.037 -1.74171 -2.90719 0
M  V30 2300 C 215.21 -3.03156 -3.15302 0
M  V30 2301 C 214.269 -2.97445 -4.34065 0
M  V30 2302 O 213.295 -3.71352 -4.31377 0
M  V30 2303 N 214.497 -2.15191 -5.39141 0
M  V30 2304 H 217.262 -2.67334 -1.35472 0
M  V30 2305 H 214.823 -1.50409 -0.599069 0
M  V30 2306 H 216.815 -1.67884 -3.68235 0
M  V30 2307 H 215.385 -0.860166 -3.00533 0
M  V30 2308 H 214.605 -3.23097 -2.25836 0
M  V30 2309 H 215.893 -3.88484 -3.28569 0
M  V30 2310 H 215.291 -1.54573 -5.44173 0
M  V30 2311 H 213.848 -2.1476 -6.15403 0
M  V30 2312 N 217.281 0.66697 -1.42791 0
M  V30 2313 C 218.53 1.42278 -1.42968 0
M  V30 2314 C 218.843 1.9553 -0.0524489 0
M  V30 2315 O 220.049 2.71414 0.068363 0
M  V30 2316 C 218.505 2.57418 -2.51524 0
M  V30 2317 C 218.113 2.10832 -3.9529 0
M  V30 2318 C 219.857 3.34878 -2.60877 0
M  V30 2319 C 217.764 3.23101 -4.95338 0
M  V30 2320 H 216.694 0.534533 -0.531781 0
M  V30 2321 H 219.345 0.721302 -1.68729 0
M  V30 2322 H 217.727 3.29971 -2.18941 0
M  V30 2323 H 218.901 1.4538 -4.37266 0
M  V30 2324 H 217.216 1.46289 -3.89857 0
M  V30 2325 H 219.813 4.18505 -3.32802 0
M  V30 2326 H 220.156 3.81993 -1.6549 0
M  V30 2327 H 220.689 2.69398 -2.92693 0
M  V30 2328 H 217.428 2.80969 -5.9223 0
M  V30 2329 H 216.948 3.87309 -4.57987 0
M  V30 2330 H 218.627 3.88447 -5.17415 0
M  V30 2331 N 218.759 1.29093 0.90403 0
M  V30 2332 C 219.669 1.15727 2.0407 0
M  V30 2333 C 220.685 0.0815308 1.73809 0
M  V30 2334 O 221.861 0.292749 1.99261 0
M  V30 2335 C 218.926 0.830424 3.36608 0
M  V30 2336 C 217.987 1.98955 3.80415 0
M  V30 2337 C 217.22 1.6782 5.06628 0
M  V30 2338 O 217.443 0.597105 5.67266 0
M  V30 2339 O 216.377 2.52486 5.46383 0
M  V30 2340 H 220.203 2.11171 2.18267 0
M  V30 2341 H 217.788 1.08504 1.027 0
M  V30 2342 H 219.67 0.662521 4.16159 0
M  V30 2343 H 218.345 -0.0942678 3.23563 0
M  V30 2344 H 217.252 2.21267 3.01648 0
M  V30 2345 H 218.585 2.89529 3.98037 0
M  V30 2346 N 220.237 -1.11381 1.11499 0
M  V30 2347 C 221.169 -2.17207 0.731704 0
M  V30 2348 C 222.182 -1.61066 -0.236957 0
M  V30 2349 O 223.371 -1.78489 -0.0197591 0
M  V30 2350 C 220.471 -3.38846 0.0607624 0
M  V30 2351 C 219.644 -4.24451 1.0564 0
M  V30 2352 C 218.703 -5.24562 0.4149 0
M  V30 2353 O 217.729 -5.59071 1.069 0
M  V30 2354 N 218.931 -5.74651 -0.821943 0
M  V30 2355 H 221.696 -2.50699 1.64225 0
M  V30 2356 H 219.257 -1.26908 1.00529 0
M  V30 2357 H 221.249 -4.02911 -0.380139 0
M  V30 2358 H 219.819 -3.03411 -0.752376 0
M  V30 2359 H 219.039 -3.56833 1.67524 0
M  V30 2360 H 220.327 -4.78486 1.72998 0
M  V30 2361 H 219.725 -5.48797 -1.37252 0
M  V30 2362 H 218.282 -6.40549 -1.20582 0
M  V30 2363 N 221.715 -0.905404 -1.28997 0
M  V30 2364 C 222.625 -0.392246 -2.31298 0
M  V30 2365 C 223.641 0.515889 -1.66176 0
M  V30 2366 O 224.817 0.404093 -1.97304 0
M  V30 2367 C 221.882 0.36686 -3.44754 0
M  V30 2368 C 220.943 -0.573485 -4.25452 0
M  V30 2369 C 220.176 0.149488 -5.33491 0
M  V30 2370 O 220.399 1.37255 -5.5364 0
M  V30 2371 O 219.333 -0.510919 -5.99728 0
M  V30 2372 H 223.159 -1.2411 -2.77183 0
M  V30 2373 H 220.744 -0.669926 -1.33538 0
M  V30 2374 H 222.626 0.795907 -4.13816 0
M  V30 2375 H 221.301 1.19169 -3.00966 0
M  V30 2376 H 220.208 -1.05176 -3.59011 0
M  V30 2377 H 221.541 -1.36489 -4.72897 0
M  V30 2378 N 223.193 1.4272 -0.668489 0
M  V30 2379 C 224.126 2.28111 0.0637898 0
M  V30 2380 C 225.104 1.40705 0.814912 0
M  V30 2381 O 226.288 1.70146 0.81134 0
M  V30 2382 C 223.415 3.20429 1.0974 0
M  V30 2383 C 222.461 4.24197 0.442579 0
M  V30 2384 S 223.294 5.29563 -0.795173 0
M  V30 2385 C 224.45 6.25449 0.237516 0
M  V30 2386 H 224.683 2.8987 -0.660521 0
M  V30 2387 H 222.216 1.47456 -0.457821 0
M  V30 2388 H 224.174 3.74158 1.68868 0
M  V30 2389 H 222.835 2.57818 1.79411 0
M  V30 2390 H 222.028 4.88954 1.22227 0
M  V30 2391 H 221.63 3.73925 -0.0749554 0
M  V30 2392 H 223.922 6.68524 1.09915 0
M  V30 2393 H 224.865 7.07104 -0.375421 0
M  V30 2394 H 225.273 5.61511 0.580167 0
M  V30 2395 N 224.671 0.411399 1.52136 0
M  V30 2396 C 225.581 -0.419774 2.30814 0
M  V30 2397 C 226.597 -1.0515 1.38634 0
M  V30 2398 O 227.773 -1.05252 1.71709 0
M  V30 2399 C 224.838 -1.52019 3.11594 0
M  V30 2400 C 223.899 -0.91129 4.19516 0
M  V30 2401 C 223.132 -1.95927 4.96436 0
M  V30 2402 O 223.355 -3.17775 4.73683 0
M  V30 2403 O 222.289 -1.56423 5.81219 0
M  V30 2404 H 226.115 0.221805 3.02889 0
M  V30 2405 H 223.7 0.174547 1.48377 0
M  V30 2406 H 225.582 -2.15898 3.61892 0
M  V30 2407 H 224.257 -2.14633 2.42311 0
M  V30 2408 H 223.164 -0.235157 3.7336 0
M  V30 2409 H 224.497 -0.32904 4.91099 0
M  V30 2410 N 226.149 -1.5696 0.141893 0
M  V30 2411 C 227.096 -2.16501 -0.799737 0
M  V30 2412 C 228.066 -1.09643 -1.24771 0
M  V30 2413 O 229.251 -1.3766 -1.32115 0
M  V30 2414 C 226.391 -2.78679 -2.03549 0
M  V30 2415 C 225.504 -3.99914 -1.6338 0
M  V30 2416 C 224.639 -4.50106 -2.82096 0
M  V30 2417 C 223.678 -5.63819 -2.38275 0
M  V30 2418 N 222.815 -6.08651 -3.49983 0
M  V30 2419 H 227.655 -2.96632 -0.285179 0
M  V30 2420 H 225.192 -1.46533 -0.129053 0
M  V30 2421 H 227.15 -3.1287 -2.75986 0
M  V30 2422 H 225.78 -2.012 -2.52425 0
M  V30 2423 H 224.832 -3.71735 -0.807279 0
M  V30 2424 H 226.144 -4.82311 -1.27192 0
M  V30 2425 H 225.298 -4.86325 -3.62729 0
M  V30 2426 H 224.037 -3.66706 -3.21525 0
M  V30 2427 H 223.042 -5.2718 -1.56081 0
M  V30 2428 H 224.267 -6.49 -1.99938 0
M  V30 2429 H 222.213 -5.28188 -3.89042 0
M  V30 2430 H 222.13 -6.85961 -3.17794 0
M  V30 2431 H 223.398 -6.49515 -4.30988 0
M  V30 2432 N 227.627 0.131896 -1.57047 0
M  V30 2433 C 228.874 0.841932 -1.84168 0
M  V30 2434 C 229.202 1.8048 -0.725066 0
M  V30 2435 O 228.457 1.93618 0.284692 0
M  V30 2436 C 228.756 1.63703 -3.17704 0
M  V30 2437 C 228.422 0.81961 -4.43388 0
M  V30 2438 C 227.084 0.594148 -4.77518 0
M  V30 2439 C 229.436 0.248977 -5.20605 0
M  V30 2440 C 226.764 -0.212409 -5.86315 0
M  V30 2441 C 229.116 -0.544701 -6.30251 0
M  V30 2442 C 227.78 -0.780599 -6.6292 0
M  V30 2443 H 227.05 0.308085 -0.673917 0
M  V30 2444 H 229.697 0.104867 -1.91213 0
M  V30 2445 H 228.002 2.44464 -3.06177 0
M  V30 2446 H 229.699 2.19015 -3.35907 0
M  V30 2447 H 226.289 1.00542 -4.16641 0
M  V30 2448 H 230.473 0.410408 -4.946 0
M  V30 2449 H 225.729 -0.404524 -6.1006 0
M  V30 2450 H 229.903 -0.993922 -6.89271 0
M  V30 2451 H 227.53 -1.40742 -7.47058 0
M  V30 2452 N 229.106 1.52395 0.401703 0
M  V30 2453 C 230.053 1.76268 1.48991 0
M  V30 2454 C 231.023 0.605386 1.54675 0
M  V30 2455 O 232.208 0.843742 1.7113 0
M  V30 2456 C 229.348 1.92592 2.86361 0
M  V30 2457 C 228.461 3.20259 2.89928 0
M  V30 2458 C 227.596 3.26972 4.18644 0
M  V30 2459 C 226.635 4.48812 4.16214 0
M  V30 2460 N 225.772 4.52877 5.36514 0
M  V30 2461 H 230.612 2.6914 1.27935 0
M  V30 2462 H 228.149 1.33355 0.620871 0
M  V30 2463 H 230.107 2.0004 3.66115 0
M  V30 2464 H 228.737 1.03093 3.05895 0
M  V30 2465 H 227.789 3.21945 2.02621 0
M  V30 2466 H 229.101 4.10056 2.83999 0
M  V30 2467 H 228.255 3.33533 5.06794 0
M  V30 2468 H 226.994 2.35126 4.27278 0
M  V30 2469 H 225.999 4.4239 3.26453 0
M  V30 2470 H 227.224 5.41961 4.09213 0
M  V30 2471 H 225.17 3.63917 5.45802 0
M  V30 2472 H 225.087 5.36529 5.32609 0
M  V30 2473 H 226.355 4.63676 6.26597 0
M  V30 2474 N 230.584 -0.659388 1.43143 0
M  V30 2475 C 231.516 -1.7849 1.43784 0
M  V30 2476 C 232.529 -1.5932 0.334787 0
M  V30 2477 O 233.718 -1.68155 0.598842 0
M  V30 2478 C 230.818 -3.15828 1.22906 0
M  V30 2479 C 229.991 -3.61711 2.45934 0
M  V30 2480 C 229.05 -4.77831 2.20371 0
M  V30 2481 O 228.076 -4.87586 2.93681 0
M  V30 2482 N 229.278 -5.67611 1.21647 0
M  V30 2483 H 232.043 -1.7842 2.40803 0
M  V30 2484 H 229.604 -0.84302 1.3822 0
M  V30 2485 H 231.596 -3.91189 1.03697 0
M  V30 2486 H 230.166 -3.10707 0.343542 0
M  V30 2487 H 229.386 -2.76861 2.80609 0
M  V30 2488 H 230.674 -3.89112 3.27825 0
M  V30 2489 H 230.072 -5.62397 0.610449 0
M  V30 2490 H 228.629 -6.42719 1.08423 0
M  V30 2491 N 232.062 -1.29571 -0.897171 0
M  V30 2492 C 233.29 -1.20583 -1.68129 0
M  V30 2493 C 233.705 0.233181 -1.87354 0
M  V30 2494 O 233.062 1.15579 -1.41236 0
M  V30 2495 C 233.113 -1.91772 -3.06441 0
M  V30 2496 O 232.834 -3.30053 -2.88091 0
M  V30 2497 C 234.335 -1.89291 -4.00854 0
M  V30 2498 H 231.555 -0.417826 -0.525036 0
M  V30 2499 H 234.099 -1.70987 -1.12177 0
M  V30 2500 H 232.254 -1.45196 -3.59161 0
M  V30 2501 H 232.668 -3.65942 -3.75748 0
M  V30 2502 H 234.142 -2.43662 -4.95311 0
M  V30 2503 H 234.619 -0.869014 -4.30517 0
M  V30 2504 H 235.225 -2.35622 -3.54066 0
M  V30 2505 N 233.54 1.10788 -1.12088 0
M  V30 2506 C 234.951 1.64181 -0.88891 0
M  V30 2507 C 235.302 1.87508 0.577498 0
M  V30 2508 O 234.427 1.61434 1.44112 0
M  V30 2509 C 235.022 2.98257 -1.60712 0
M  V30 2510 C 233.581 3.4853 -1.42139 0
M  V30 2511 C 232.728 2.23208 -1.6454 0
M  V30 2512 H 235.679 0.943368 -1.27618 0
M  V30 2513 H 235.7 3.65552 -1.05604 0
M  V30 2514 H 235.212 2.81246 -2.67436 0
M  V30 2515 H 233.313 3.70692 -0.376552 0
M  V30 2516 H 233.426 4.26882 -2.17505 0
M  V30 2517 H 231.79 2.31169 -1.06925 0
M  V30 2518 H 232.573 2.08733 -2.72554 0
M  V30 2519 N 235.018 0.912232 1.28515 0
M  V30 2520 C 235.951 0.343928 2.25593 0
M  V30 2521 C 236.929 -0.550994 1.5298 0
M  V30 2522 O 238.113 -0.494991 1.81885 0
M  V30 2523 C 235.24 -0.508525 3.34861 0
M  V30 2524 C 234.286 0.320808 4.25292 0
M  V30 2525 S 235.119 1.72658 5.06902 0
M  V30 2526 C 236.275 0.881394 6.19663 0
M  V30 2527 H 236.508 1.16674 2.73449 0
M  V30 2528 H 234.041 0.713384 1.36931 0
M  V30 2529 H 235.999 -0.994539 3.9827 0
M  V30 2530 H 234.66 -1.30571 2.85675 0
M  V30 2531 H 233.853 -0.330941 5.02912 0
M  V30 2532 H 233.455 0.74042 3.66598 0
M  V30 2533 H 235.747 0.110359 6.7741 0
M  V30 2534 H 236.69 1.63009 6.89082 0
M  V30 2535 H 237.098 0.430239 5.62858 0
M  V30 2536 N 236.496 -1.42363 0.676048 0
M  V30 2537 C 237.443 -2.308 -0.00150904 0
M  V30 2538 C 238.413 -1.46032 -0.791444 0
M  V30 2539 O 239.598 -1.74861 -0.76344 0
M  V30 2540 C 236.738 -3.31883 -0.945919 0
M  V30 2541 C 235.851 -4.31741 -0.149675 0
M  V30 2542 C 234.986 -5.19898 -1.08995 0
M  V30 2543 C 234.025 -6.11434 -0.285465 0
M  V30 2544 N 233.162 -6.92138 -1.17851 0
M  V30 2545 H 238.002 -2.88187 0.758455 0
M  V30 2546 H 235.539 -1.41952 0.38576 0
M  V30 2547 H 237.497 -3.89019 -1.50731 0
M  V30 2548 H 236.127 -2.76093 -1.6725 0
M  V30 2549 H 235.179 -3.76713 0.528359 0
M  V30 2550 H 236.491 -4.96534 0.474866 0
M  V30 2551 H 235.645 -5.81772 -1.72123 0
M  V30 2552 H 234.384 -4.55284 -1.74837 0
M  V30 2553 H 233.389 -5.48627 0.359018 0
M  V30 2554 H 234.614 -6.78097 0.368883 0
M  V30 2555 H 232.56 -6.30152 -1.82332 0
M  V30 2556 H 232.477 -7.53542 -0.609082 0
M  V30 2557 H 233.745 -7.58499 -1.79722 0
M  V30 2558 N 237.974 -0.419461 -1.51915 0
M  V30 2559 C 239.202 0.152136 -2.0634 0
M  V30 2560 C 239.617 1.37988 -1.28859 0
M  V30 2561 O 238.974 1.79243 -0.343232 0
M  V30 2562 C 239.025 0.492266 -3.58133 0
M  V30 2563 O 238.746 -0.686736 -4.32684 0
M  V30 2564 C 240.247 1.11648 -4.2901 0
M  V30 2565 H 237.467 0.0158325 -0.670813 0
M  V30 2566 H 240.011 -0.593394 -1.95702 0
M  V30 2567 H 238.166 1.18769 -3.68745 0
M  V30 2568 H 238.58 -0.400341 -5.2297 0
M  V30 2569 H 240.054 1.3046 -5.36362 0
M  V30 2570 H 240.531 2.09251 -3.86148 0
M  V30 2571 H 241.137 0.460958 -4.22795 0
M  V30 2572 N 239.452 1.56882 -0.150215 0
M  V30 2573 C 240.382 2.19935 0.784284 0
M  V30 2574 C 241.363 1.14854 1.25469 0
M  V30 2575 O 242.548 1.43209 1.31168 0
M  V30 2576 C 239.678 2.82349 2.02229 0
M  V30 2577 C 238.632 3.93285 1.68853 0
M  V30 2578 C 237.958 4.42649 2.99944 0
M  V30 2579 C 239.258 5.13904 0.932714 0
M  V30 2580 H 240.952 2.9828 0.258781 0
M  V30 2581 H 238.498 1.43473 0.123029 0
M  V30 2582 H 240.451 3.25126 2.68088 0
M  V30 2583 H 239.175 2.0134 2.57157 0
M  V30 2584 H 237.834 3.5113 1.05371 0
M  V30 2585 H 237.482 3.58458 3.52869 0
M  V30 2586 H 237.182 5.17476 2.78374 0
M  V30 2587 H 238.706 4.88099 3.66868 0
M  V30 2588 H 240.12 5.53506 1.49345 0
M  V30 2589 H 238.517 5.94515 0.81684 0
M  V30 2590 H 239.587 4.84842 -0.0749568 0
M  V30 2591 N 240.93 -0.123565 1.57115 0
M  V30 2592 C 241.877 -1.15177 2.00007 0
M  V30 2593 C 242.847 -1.41403 0.871454 0
M  V30 2594 O 244.032 -1.53346 1.13533 0
M  V30 2595 C 241.172 -2.47436 2.40561 0
M  V30 2596 C 240.285 -2.28184 3.66819 0
M  V30 2597 C 239.42 -3.53641 3.96373 0
M  V30 2598 C 238.459 -3.29528 5.15827 0
M  V30 2599 N 237.596 -4.47175 5.41275 0
M  V30 2600 H 242.436 -0.779008 2.87638 0
M  V30 2601 H 239.973 -0.373166 1.42288 0
M  V30 2602 H 241.931 -3.24584 2.62109 0
M  V30 2603 H 240.561 -2.82614 1.55978 0
M  V30 2604 H 239.613 -1.41976 3.52912 0
M  V30 2605 H 240.925 -2.0634 4.5412 0
M  V30 2606 H 240.079 -4.39209 4.18545 0
M  V30 2607 H 238.818 -3.78512 3.07538 0
M  V30 2608 H 237.823 -2.42349 4.93505 0
M  V30 2609 H 239.048 -3.06031 6.06236 0
M  V30 2610 H 236.994 -4.72175 4.55397 0
M  V30 2611 H 236.911 -4.28419 6.22891 0
M  V30 2612 H 238.179 -5.3389 5.67963 0
M  V30 2613 N 242.408 -1.52605 -0.393616 0
M  V30 2614 C 243.371 -1.76415 -1.46323 0
M  V30 2615 C 244.371 -0.634126 -1.47768 0
M  V30 2616 O 245.561 -0.902142 -1.4902 0
M  V30 2617 C 242.693 -1.8607 -2.85641 0
M  V30 2618 H 243.886 -2.71916 -1.26498 0
M  V30 2619 H 241.439 -1.43257 -0.625073 0
M  V30 2620 H 242.174 -0.925378 -3.10817 0
M  V30 2621 H 241.959 -2.68235 -2.85993 0
M  V30 2622 H 243.449 -2.06179 -3.63153 0
M  V30 2623 N 243.887 0.651787 -1.4349 0
M  V30 2624 C 244.817 1.77621 -1.51569 0
M  V30 2625 C 245.798 1.66022 -0.370253 0
M  V30 2626 O 246.983 1.85095 -0.587658 0
M  V30 2627 C 244.113 3.16056 -1.43966 0
M  V30 2628 C 243.067 3.4242 -2.56774 0
M  V30 2629 C 242.393 4.8067 -2.34223 0
M  V30 2630 C 243.693 3.37023 -3.99015 0
M  V30 2631 H 245.387 1.71117 -2.45681 0
M  V30 2632 H 242.933 0.821825 -1.18246 0
M  V30 2633 H 244.886 3.94472 -1.48221 0
M  V30 2634 H 243.61 3.23293 -0.463586 0
M  V30 2635 H 242.269 2.66375 -2.51873 0
M  V30 2636 H 241.917 4.84585 -1.34856 0
M  V30 2637 H 241.617 4.9927 -3.09844 0
M  V30 2638 H 243.141 5.61342 -2.40265 0
M  V30 2639 H 244.555 4.05374 -4.05395 0
M  V30 2640 H 242.952 3.67159 -4.74673 0
M  V30 2641 H 244.022 2.3518 -4.2405 0
M  V30 2642 N 245.365 1.30045 0.890287 0
M  V30 2643 C 246.297 1.11786 2.00091 0
M  V30 2644 C 247.31 0.0626307 1.62679 0
M  V30 2645 O 248.499 0.308112 1.75821 0
M  V30 2646 C 245.599 0.681527 3.31977 0
M  V30 2647 C 244.772 1.81735 3.97858 0
M  V30 2648 C 243.831 1.37045 5.08041 0
M  V30 2649 O 242.857 2.07677 5.29961 0
M  V30 2650 N 244.059 0.246525 5.79976 0
M  V30 2651 H 246.824 2.07441 2.16306 0
M  V30 2652 H 244.385 1.2211 1.06305 0
M  V30 2653 H 246.377 0.365675 4.03045 0
M  V30 2654 H 244.947 -0.182828 3.12065 0
M  V30 2655 H 244.167 2.30159 3.20032 0
M  V30 2656 H 245.455 2.57865 4.38615 0
M  V30 2657 H 244.853 -0.34215 5.64664 0
M  V30 2658 H 243.41 -0.00990438 6.51799 0
M  V30 2659 N 246.843 -1.10192 1.12674 0
M  V30 2660 C 247.753 -2.20172 0.810026 0
M  V30 2661 C 248.769 -1.72821 -0.202188 0
M  V30 2662 O 249.945 -2.01369 -0.0351691 0
M  V30 2663 C 247.01 -3.45631 0.272007 0
M  V30 2664 C 246.071 -4.07704 1.34447 0
M  V30 2665 C 245.304 -5.27175 0.832029 0
M  V30 2666 O 245.527 -5.69425 -0.333284 0
M  V30 2667 O 244.461 -5.80168 1.60277 0
M  V30 2668 H 248.287 -2.49701 1.72867 0
M  V30 2669 H 245.872 -1.18977 0.903597 0
M  V30 2670 H 247.754 -4.21394 -0.0230219 0
M  V30 2671 H 246.429 -3.17723 -0.619164 0
M  V30 2672 H 245.336 -3.33614 1.6927 0
M  V30 2673 H 246.669 -4.3982 2.2095 0
M  V30 2674 N 248.321 -0.919034 -1.28029 0
M  V30 2675 C 249.251 -0.428581 -2.29533 0
M  V30 2676 C 250.232 0.50659 -1.62381 0
M  V30 2677 O 251.417 0.413195 -1.89753 0
M  V30 2678 C 248.547 0.327388 -3.45753 0
M  V30 2679 C 247.501 -0.519137 -4.2484 0
M  V30 2680 C 246.827 0.365486 -5.33449 0
M  V30 2681 C 248.127 -1.77914 -4.91064 0
M  V30 2682 H 249.821 -1.27687 -2.70807 0
M  V30 2683 H 247.367 -0.615428 -1.30186 0
M  V30 2684 H 249.32 0.681378 -4.15855 0
M  V30 2685 H 248.044 1.20963 -3.03374 0
M  V30 2686 H 246.703 -0.855717 -3.56473 0
M  V30 2687 H 246.351 1.24642 -4.87312 0
M  V30 2688 H 246.051 -0.197356 -5.87268 0
M  V30 2689 H 247.575 0.715241 -6.06396 0
M  V30 2690 H 248.989 -1.49374 -5.53498 0
M  V30 2691 H 247.386 -2.2848 -5.54903 0
M  V30 2692 H 248.456 -2.50382 -4.15255 0
M  V30 2693 N 249.799 1.42003 -0.683588 0
M  V30 2694 C 251.048 2.00638 -0.206681 0
M  V30 2695 C 251.361 1.5472 1.19671 0
M  V30 2696 O 252.567 2.05833 1.77045 0
M  V30 2697 C 251.023 3.58487 -0.318632 0
M  V30 2698 C 250.631 4.1339 -1.72663 0
M  V30 2699 C 252.375 4.24384 0.0991141 0
M  V30 2700 C 250.282 5.63633 -1.79087 0
M  V30 2701 H 249.212 0.750408 -0.0735107 0
M  V30 2702 H 251.863 1.62624 -0.850048 0
M  V30 2703 H 250.245 3.94047 0.392781 0
M  V30 2704 H 251.419 3.89273 -2.46583 0
M  V30 2705 H 249.734 3.59976 -2.09299 0
M  V30 2706 H 252.331 5.34652 0.0713833 0
M  V30 2707 H 252.674 4.00505 1.13586 0
M  V30 2708 H 253.207 3.93816 -0.561599 0
M  V30 2709 H 249.946 5.92323 -2.80774 0
M  V30 2710 H 249.466 5.89714 -1.09535 0
M  V30 2711 H 251.145 6.28201 -1.5483 0
M  V30 2712 N 251.277 0.427512 1.51691 0
M  V30 2713 C 252.24 -0.377132 2.26076 0
M  V30 2714 C 253.24 -0.958089 1.29141 0
M  V30 2715 O 254.43 -0.83408 1.52934 0
M  V30 2716 C 251.562 -1.53262 3.04506 0
M  V30 2717 H 252.755 0.27464 2.9864 0
M  V30 2718 H 250.308 0.180445 1.55255 0
M  V30 2719 H 251.043 -2.22072 2.36335 0
M  V30 2720 H 250.828 -1.12232 3.75694 0
M  V30 2721 H 252.318 -2.10135 3.60878 0
M  V30 2722 N 252.755 -1.56801 0.158532 0
M  V30 2723 C 254.032 -1.88131 -0.535357 0
M  V30 2724 C 254.412 -1.06638 -1.82186 0
M  V30 2725 O 253.76 -0.156533 -2.27963 0
M  V30 2726 C 253.97 -3.39949 -0.789653 0
M  V30 2727 C 255.318 -4.09416 -1.12533 0
M  V30 2728 O 256.342 -3.45194 -0.878622 0
M  V30 2729 O 255.201 -5.22855 -1.59014 0
M  V30 2730 H 252.295 -0.780143 -0.27442 0
M  V30 2731 H 254.841 -1.68564 0.19601 0
M  V30 2732 H 253.613 -3.91115 0.120353 0
M  V30 2733 H 253.236 -3.65084 -1.57479 0
M  V30 2734 N 254.233 0.115231 -1.57178 0
M  V30 2735 C 255.479 0.82357 -1.85325 0
M  V30 2736 C 255.812 1.79349 -0.744814 0
M  V30 2737 O 255.087 1.92899 0.249024 0
M  V30 2738 C 255.37 1.57014 -3.24066 0
M  V30 2739 C 255.223 0.619565 -4.45513 0
M  V30 2740 C 256.542 2.52545 -3.60429 0
M  V30 2741 H 253.661 0.297948 -0.674089 0
M  V30 2742 H 256.303 0.0877138 -1.89797 0
M  V30 2743 H 254.453 2.19742 -3.20383 0
M  V30 2744 H 256.125 0.000837639 -4.613 0
M  V30 2745 H 254.368 -0.0686174 -4.33746 0
M  V30 2746 H 255.039 1.17866 -5.3927 0
M  V30 2747 H 257.515 1.9992 -3.64926 0
M  V30 2748 H 256.391 3.01811 -4.58477 0
M  V30 2749 H 256.652 3.35383 -2.88047 0
M  V30 2750 N 255.711 1.52812 0.385517 0
M  V30 2751 C 257.127 1.4214 0.725829 0
M  V30 2752 C 257.327 0.544589 1.94001 0
M  V30 2753 O 256.383 0.0193693 2.52493 0
M  V30 2754 C 257.696 2.85042 0.957668 0
M  V30 2755 C 259.244 2.94543 1.05892 0
M  V30 2756 C 259.719 4.38464 1.32337 0
M  V30 2757 N 261.21 4.41804 1.39151 0
M  V30 2758 C 261.945 5.5025 1.61285 0
M  V30 2759 N 261.441 6.68775 1.80866 0
M  V30 2760 N 263.234 5.37798 1.63492 0
M  V30 2761 H 255.385 2.08338 -0.413383 0
M  V30 2762 H 257.648 0.940016 -0.122775 0
M  V30 2763 H 257.354 3.51431 0.137568 0
M  V30 2764 H 257.228 3.27505 1.87137 0
M  V30 2765 H 259.615 2.28321 1.86959 0
M  V30 2766 H 259.696 2.55504 0.123057 0
M  V30 2767 H 259.34 5.05254 0.517793 0
M  V30 2768 H 259.27 4.75059 2.27214 0
M  V30 2769 H 261.761 3.56377 1.25713 0
M  V30 2770 H 262.074 7.47197 1.97271 0
M  V30 2771 H 260.419 6.71797 1.78083 0
M  V30 2772 H 263.61 4.44171 1.47749 0
M  V30 2773 H 263.783 6.22382 1.80402 0
M  V30 2774 N 257.189 -0.644168 1.43834 0
M  V30 2775 C 258.466 -1.40188 1.36406 0
M  V30 2776 C 258.846 -2.11094 0.0163124 0
M  V30 2777 O 258.194 -2.05426 -1.00062 0
M  V30 2778 C 258.404 -2.3791 2.55343 0
M  V30 2779 C 259.752 -3.01637 2.98832 0
M  V30 2780 O 260.776 -2.48237 2.55455 0
M  V30 2781 O 259.635 -3.98477 3.74003 0
M  V30 2782 H 256.729 -0.626773 0.539523 0
M  V30 2783 H 259.275 -0.670317 1.559 0
M  V30 2784 H 258.047 -1.84525 3.4506 0
M  V30 2785 H 257.67 -3.18503 2.37995 0
M  V30 2786 N 258.668 -1.30515 -0.883378 0
M  V30 2787 C 259.618 -1.13641 -1.9766 0
M  V30 2788 C 260.602 -0.0511314 -1.60819 0
M  V30 2789 O 261.794 -0.274623 -1.74857 0
M  V30 2790 C 258.923 -0.831976 -3.33066 0
M  V30 2791 C 258.009 -1.95759 -3.76217 0
M  V30 2792 N 258.4 -3.20313 -3.9145 0
M  V30 2793 C 256.698 -1.85431 -4.05625 0
M  V30 2794 C 257.399 -3.93856 -4.2808 0
M  V30 2795 N 256.375 -3.21919 -4.38029 0
M  V30 2796 H 260.177 -2.08106 -2.07531 0
M  V30 2797 H 257.691 -1.21877 -1.0733 0
M  V30 2798 H 259.688 -0.692102 -4.11115 0
M  V30 2799 H 258.348 0.104588 -3.24532 0
M  V30 2800 H 259.359 -3.55583 -3.76538 0
M  V30 2801 H 256.036 -0.991531 -4.05555 0
M  V30 2802 H 257.426 -5.01125 -4.47575 0
M  V30 2803 N 260.146 1.09593 -1.13257 0
M  V30 2804 C 261.076 2.18214 -0.830946 0
M  V30 2805 C 262.057 1.68812 0.208966 0
M  V30 2806 O 263.242 1.9408 0.0682666 0
M  V30 2807 C 260.372 3.46051 -0.294296 0
M  V30 2808 C 259.326 4.08778 -1.26826 0
M  V30 2809 C 258.652 5.31419 -0.591449 0
M  V30 2810 C 259.952 4.51476 -2.62615 0
M  V30 2811 H 261.646 2.43703 -1.73923 0
M  V30 2812 H 259.192 1.17128 -0.837675 0
M  V30 2813 H 261.145 4.2134 -0.0709606 0
M  V30 2814 H 259.869 3.20079 0.649366 0
M  V30 2815 H 258.528 3.35505 -1.47756 0
M  V30 2816 H 258.176 5.01727 0.357633 0
M  V30 2817 H 257.876 5.74341 -1.24123 0
M  V30 2818 H 259.4 6.09433 -0.377355 0
M  V30 2819 H 260.814 5.17999 -2.45663 0
M  V30 2820 H 259.211 5.05277 -3.23752 0
M  V30 2821 H 260.281 3.63962 -3.20406 0
M  V30 2822 N 261.624 0.925811 1.2754 0
M  V30 2823 C 262.901 0.483726 1.89524 0
M  V30 2824 C 263.281 -1.03809 1.83812 0
M  V30 2825 O 262.629 -1.89143 1.28207 0
M  V30 2826 C 262.839 1.02769 3.33526 0
M  V30 2827 C 264.187 1.08703 4.10449 0
M  V30 2828 O 265.211 0.977175 3.42534 0
M  V30 2829 O 264.07 1.25599 5.31871 0
M  V30 2830 H 261.164 0.15529 0.812289 0
M  V30 2831 H 263.71 1.01738 1.35822 0
M  V30 2832 H 262.482 2.07155 3.31967 0
M  V30 2833 H 262.105 0.475567 3.94746 0
M  V30 2834 N 263.102 -1.41638 0.69111 0
M  V30 2835 C 264.032 -2.3347 0.037248 0
M  V30 2836 C 265.013 -1.51575 -0.771947 0
M  V30 2837 O 266.198 -1.80126 -0.72582 0
M  V30 2838 C 263.328 -3.35354 -0.903064 0
M  V30 2839 C 262.282 -4.27526 -0.201288 0
M  V30 2840 C 261.608 -5.19747 -1.25565 0
M  V30 2841 C 262.908 -5.13959 0.929689 0
M  V30 2842 H 264.602 -2.88397 0.804227 0
M  V30 2843 H 262.148 -1.38669 0.388189 0
M  V30 2844 H 264.101 -3.98519 -1.36969 0
M  V30 2845 H 262.825 -2.78767 -1.70166 0
M  V30 2846 H 261.484 -3.65779 0.245265 0
M  V30 2847 H 261.132 -4.59479 -2.04666 0
M  V30 2848 H 260.832 -5.8225 -0.791128 0
M  V30 2849 H 262.356 -5.85789 -1.72288 0
M  V30 2850 H 263.77 -5.70718 0.543546 0
M  V30 2851 H 262.167 -5.85379 1.32103 0
M  V30 2852 H 263.237 -4.51389 1.77133 0
M  V30 2853 N 264.58 -0.43555 -1.51462 0
M  V30 2854 C 265.829 0.133007 -2.01261 0
M  V30 2855 C 266.142 1.43942 -1.32439 0
M  V30 2856 O 267.348 2.09081 -1.73198 0
M  V30 2857 C 265.804 0.287581 -3.58749 0
M  V30 2858 C 265.412 -1.00829 -4.36506 0
M  V30 2859 C 267.156 0.810004 -4.167 0
M  V30 2860 C 265.063 -0.819454 -5.85695 0
M  V30 2861 H 263.993 0.0534822 -0.752101 0
M  V30 2862 H 266.644 -0.565038 -1.74584 0
M  V30 2863 H 265.026 1.04859 -3.81865 0
M  V30 2864 H 266.2 -1.77749 -4.25138 0
M  V30 2865 H 264.515 -1.45911 -3.89999 0
M  V30 2866 H 267.112 0.967743 -5.2587 0
M  V30 2867 H 267.455 1.79196 -3.75758 0
M  V30 2868 H 267.988 0.107357 -3.97655 0
M  V30 2869 H 264.727 -1.77374 -6.31046 0
M  V30 2870 H 264.247 -0.0900208 -5.99732 0
M  V30 2871 H 265.926 -0.471949 -6.45276 0
M  V30 2872 N 266.058 1.56714 -0.166846 0
M  V30 2873 C 267.288 2.00828 0.48494 0
M  V30 2874 C 267.696 1.04612 1.57648 0
M  V30 2875 O 267.039 0.0383201 1.8366 0
M  V30 2876 C 267.101 3.4137 1.12723 0
M  V30 2877 C 266.765 4.56654 0.177886 0
M  V30 2878 C 267.762 5.16402 -0.60207 0
M  V30 2879 C 265.447 5.02244 0.0750139 0
M  V30 2880 C 267.441 6.20167 -1.47215 0
M  V30 2881 C 265.128 6.05859 -0.798649 0
M  V30 2882 C 266.126 6.64691 -1.57082 0
M  V30 2883 O 265.814 7.66297 -2.42989 0
M  V30 2884 H 265.546 0.663587 0.128953 0
M  V30 2885 H 268.1 2.03692 -0.264365 0
M  V30 2886 H 266.33 3.35406 1.92457 0
M  V30 2887 H 268.019 3.69466 1.68076 0
M  V30 2888 H 268.785 4.82065 -0.53274 0
M  V30 2889 H 264.664 4.56167 0.665812 0
M  V30 2890 H 268.208 6.66016 -2.07531 0
M  V30 2891 H 264.105 6.39621 -0.869199 0
M  V30 2892 H 264.873 7.83601 -2.36455 0
M  V30 2893 N 267.536 -0.106894 1.57237 0
M  V30 2894 C 268.499 -1.11466 2.0027 0
M  V30 2895 C 269.499 -1.33623 0.894519 0
M  V30 2896 O 270.689 -1.29935 1.16028 0
M  V30 2897 C 267.821 -2.46646 2.35327 0
M  V30 2898 H 269.014 -0.744516 2.90512 0
M  V30 2899 H 266.567 -0.351576 1.52295 0
M  V30 2900 H 267.302 -2.88558 1.48003 0
M  V30 2901 H 267.087 -2.31915 3.16161 0
M  V30 2902 H 268.577 -3.19151 2.69318 0
M  V30 2903 N 269.014 -1.53014 -0.377408 0
M  V30 2904 C 270.425 -1.60438 -0.954798 0
M  V30 2905 C 270.776 -0.464418 -1.90624 0
M  V30 2906 O 269.901 0.41087 -2.12464 0
M  V30 2907 C 270.496 -2.90797 -1.73847 0
M  V30 2908 C 269.055 -3.00595 -2.26538 0
M  V30 2909 C 268.202 -2.55645 -1.07429 0
M  V30 2910 H 271.153 -1.57926 -0.156575 0
M  V30 2911 H 271.174 -2.77935 -2.5987 0
M  V30 2912 H 270.686 -3.73746 -1.04574 0
M  V30 2913 H 268.787 -2.22208 -2.99089 0
M  V30 2914 H 268.9 -4.05456 -2.5523 0
M  V30 2915 H 267.264 -2.10239 -1.43777 0
M  V30 2916 H 268.047 -3.41 -0.396728 0
M  V30 2917 N 270.492 0.636531 -1.44174 0
M  V30 2918 C 271.72 1.42353 -1.50144 0
M  V30 2919 C 272.135 1.88389 -0.124575 0
M  V30 2920 O 271.492 1.6051 0.868489 0
M  V30 2921 C 271.543 2.64744 -2.46156 0
M  V30 2922 O 271.264 2.20629 -3.7849 0
M  V30 2923 C 272.765 3.57929 -2.61537 0
M  V30 2924 H 269.985 0.436752 -0.5094 0
M  V30 2925 H 272.529 0.778933 -1.89084 0
M  V30 2926 H 270.684 3.25307 -2.10366 0
M  V30 2927 H 271.098 2.99938 -4.30276 0
M  V30 2928 H 272.572 4.40428 -3.32757 0
M  V30 2929 H 273.049 4.06382 -1.66585 0
M  V30 2930 H 273.655 3.03238 -2.98206 0
M  V30 2931 N 271.97 1.30982 0.876444 0
M  V30 2932 C 273.217 1.20296 1.62896 0
M  V30 2933 C 273.545 -0.240395 1.93009 0
M  V30 2934 O 272.8 -1.18733 1.55567 0
M  V30 2935 C 273.099 1.98572 2.9716 0
M  V30 2936 C 272.765 3.48125 2.86566 0
M  V30 2937 C 271.427 3.88905 2.83383 0
M  V30 2938 C 273.779 4.43322 2.74071 0
M  V30 2939 C 271.107 5.2316 2.65556 0
M  V30 2940 C 273.459 5.77695 2.57781 0
M  V30 2941 C 272.123 6.17704 2.52979 0
M  V30 2942 H 271.393 0.440193 0.59608 0
M  V30 2943 H 274.04 1.62177 1.01837 0
M  V30 2944 H 272.345 1.49352 3.62217 0
M  V30 2945 H 274.042 1.8769 3.54364 0
M  V30 2946 H 270.632 3.15723 2.89856 0
M  V30 2947 H 274.816 4.12752 2.75589 0
M  V30 2948 H 270.072 5.53241 2.60259 0
M  V30 2949 H 274.246 6.51091 2.47089 0
M  V30 2950 H 271.873 7.21678 2.38924 0
M  V30 2951 N 273.449 -1.08991 1.13837 0
M  V30 2952 C 274.695 -1.81526 0.90422 0
M  V30 2953 C 275.028 -1.85706 -0.568066 0
M  V30 2954 O 274.303 -1.32855 -1.42056 0
M  V30 2955 C 274.586 -3.27447 1.49835 0
M  V30 2956 C 274.439 -3.31512 3.04006 0
M  V30 2957 C 275.758 -4.24256 1.17025 0
M  V30 2958 H 272.877 -0.659029 0.329923 0
M  V30 2959 H 275.519 -1.27644 1.40737 0
M  V30 2960 H 273.669 -3.73462 1.07044 0
M  V30 2961 H 275.341 -2.93867 3.55584 0
M  V30 2962 H 273.584 -2.70963 3.38765 0
M  V30 2963 H 274.255 -4.34329 3.40679 0
M  V30 2964 H 276.731 -3.86549 1.54009 0
M  V30 2965 H 275.607 -5.24684 1.61237 0
M  V30 2966 H 275.868 -4.42019 0.0846274 0
M  V30 2967 N 274.927 -0.932562 -1.27047 0
M  V30 2968 C 276.173 -0.576412 -1.94436 0
M  V30 2969 C 276.506 0.880891 -1.73072 0
M  V30 2970 O 275.781 1.62905 -1.06264 0
M  V30 2971 C 276.064 -0.909031 -3.48437 0
M  V30 2972 C 275.917 -2.42044 -3.79123 0
M  V30 2973 C 277.236 -0.418341 -4.38107 0
M  V30 2974 H 274.355 -0.210888 -0.706184 0
M  V30 2975 H 276.997 -1.16522 -1.50075 0
M  V30 2976 H 275.147 -0.407947 -3.86352 0
M  V30 2977 H 276.819 -2.99359 -3.50973 0
M  V30 2978 H 275.062 -2.86758 -3.25503 0
M  V30 2979 H 275.733 -2.6037 -4.86736 0
M  V30 2980 H 278.209 -0.847856 -4.0737 0
M  V30 2981 H 277.085 -0.679981 -5.44672 0
M  V30 2982 H 277.346 0.681642 -4.36814 0
M  V30 2983 N 276.405 1.4127 -0.698611 0
M  V30 2984 C 277.337 2.292 0.00399731 0
M  V30 2985 C 278.35 1.44944 0.741279 0
M  V30 2986 O 279.539 1.68416 0.591477 0
M  V30 2987 C 276.639 3.22875 1.02979 0
M  V30 2988 C 275.812 4.35904 0.36151 0
M  V30 2989 C 274.871 5.10134 1.29033 0
M  V30 2990 O 273.897 5.63809 0.781562 0
M  V30 2991 N 275.099 5.17885 2.6225 0
M  V30 2992 H 277.864 2.9014 -0.750921 0
M  V30 2993 H 275.425 1.52455 -0.544882 0
M  V30 2994 H 277.417 3.69404 1.65296 0
M  V30 2995 H 275.987 2.63221 1.68622 0
M  V30 2996 H 275.207 3.91719 -0.441584 0
M  V30 2997 H 276.495 5.08696 -0.103055 0
M  V30 2998 H 275.893 4.7573 3.061 0
M  V30 2999 H 274.45 5.6798 3.19754 0
M  V30 3000 N 277.883 0.443576 1.51229 0
M  V30 3001 C 278.846 -0.353132 2.26463 0
M  V30 3002 C 279.846 -0.944338 1.3015 0
M  V30 3003 O 281.036 -0.817813 1.5381 0
M  V30 3004 C 278.168 -1.50023 3.06114 0
M  V30 3005 H 279.361 0.3063 2.98332 0
M  V30 3006 H 276.914 0.196902 1.55055 0
M  V30 3007 H 277.649 -2.19553 2.38677 0
M  V30 3008 H 277.434 -1.08241 3.76864 0
M  V30 3009 H 278.924 -2.06296 3.63087 0
M  V30 3010 N 279.361 -1.56624 0.175154 0
M  V30 3011 C 280.777 -1.58571 -0.180966 0
M  V30 3012 C 280.977 -1.19065 -1.6256 0
M  V30 3013 O 280.033 -0.904044 -2.35761 0
M  V30 3014 C 281.346 -3.00522 0.103326 0
M  V30 3015 C 282.894 -3.12972 0.0418426 0
M  V30 3016 C 283.369 -4.57022 0.299175 0
M  V30 3017 N 284.86 -4.62541 0.247086 0
M  V30 3018 C 285.595 -5.71857 0.420318 0
M  V30 3019 N 285.091 -6.89717 0.652816 0
M  V30 3020 N 286.884 -5.60972 0.355957 0
M  V30 3021 H 279.035 -1.80589 1.11809 0
M  V30 3022 H 281.298 -0.837178 0.444788 0
M  V30 3023 H 281.004 -3.33916 1.10422 0
M  V30 3024 H 280.878 -3.72344 -0.603299 0
M  V30 3025 H 283.265 -2.79403 -0.949636 0
M  V30 3026 H 283.346 -2.43578 0.781238 0
M  V30 3027 H 282.99 -4.913 1.28788 0
M  V30 3028 H 282.92 -5.24579 -0.460876 0
M  V30 3029 H 285.411 -3.77829 0.0731895 0
M  V30 3030 H 285.724 -7.68911 0.774347 0
M  V30 3031 H 284.069 -6.91572 0.689476 0
M  V30 3032 H 287.26 -4.67773 0.174882 0
M  V30 3033 H 287.433 -6.46111 0.494388 0
M  V30 3034 N 280.839 0.0985539 -1.57292 0
M  V30 3035 C 281.789 1.1261 -1.9825 0
M  V30 3036 C 282.773 1.35961 -0.860426 0
M  V30 3037 O 283.965 1.36711 -1.12424 0
M  V30 3038 C 281.094 2.44727 -2.40757 0
M  V30 3039 C 280.18 2.24764 -3.59642 0
M  V30 3040 N 280.571 1.74661 -4.74687 0
M  V30 3041 C 278.869 2.55344 -3.65672 0
M  V30 3042 C 279.57 1.68887 -5.56644 0
M  V30 3043 N 278.546 2.13976 -4.99715 0
M  V30 3044 H 282.348 0.731604 -2.84648 0
M  V30 3045 H 279.862 0.306029 -1.59491 0
M  V30 3046 H 281.859 3.19072 -2.68326 0
M  V30 3047 H 280.519 2.84917 -1.55733 0
M  V30 3048 H 281.53 1.43908 -4.97505 0
M  V30 3049 H 278.207 2.99081 -2.91302 0
M  V30 3050 H 279.597 1.3123 -6.5896 0
M  V30 3051 N 282.317 1.53212 0.369288 0
M  V30 3052 C 283.594 1.59815 1.12776 0
M  V30 3053 C 283.974 0.403402 2.0721 0
M  V30 3054 O 283.322 -0.606667 2.20299 0
M  V30 3055 C 283.532 2.94664 1.87013 0
M  V30 3056 C 284.88 3.49109 2.41677 0
M  V30 3057 O 285.904 2.96669 1.97144 0
M  V30 3058 O 284.763 4.40775 3.23079 0
M  V30 3059 H 281.857 0.645376 0.517125 0
M  V30 3060 H 284.403 1.65553 0.37285 0
M  V30 3061 H 283.175 3.73061 1.18071 0
M  V30 3062 H 282.798 2.92401 2.69421 0
M  V30 3063 N 283.795 -0.628877 1.44509 0
M  V30 3064 C 284.705 -1.7694 1.54044 0
M  V30 3065 C 285.721 -1.68705 0.425987 0
M  V30 3066 O 286.897 -1.89442 0.683656 0
M  V30 3067 C 283.962 -3.13332 1.48405 0
M  V30 3068 C 283.023 -3.33181 2.70719 0
M  V30 3069 C 282.256 -4.63067 2.6534 0
M  V30 3070 O 282.479 -5.44017 1.71469 0
M  V30 3071 O 281.413 -4.85167 3.56226 0
M  V30 3072 H 285.239 -1.71848 2.50403 0
M  V30 3073 H 282.824 -0.790378 1.26781 0
M  V30 3074 H 284.706 -3.94634 1.47791 0
M  V30 3075 H 283.381 -3.1896 0.551898 0
M  V30 3076 H 282.288 -2.51549 2.769 0
M  V30 3077 H 283.621 -3.32416 3.62988 0
M  V30 3078 N 285.273 -1.31445 -0.869486 0
M  V30 3079 C 286.206 -1.13465 -1.97992 0
M  V30 3080 C 287.184 -0.0380291 -1.62556 0
M  V30 3081 O 288.368 -0.194544 -1.87493 0
M  V30 3082 C 285.495 -0.733822 -3.30655 0
M  V30 3083 C 284.541 -1.83356 -3.85075 0
M  V30 3084 S 285.374 -3.43909 -4.10472 0
M  V30 3085 C 286.53 -3.05763 -5.46132 0
M  V30 3086 H 286.763 -2.07471 -2.1294 0
M  V30 3087 H 284.296 -1.15936 -1.01972 0
M  V30 3088 H 286.254 -0.509306 -4.07328 0
M  V30 3089 H 284.915 0.187123 -3.13542 0
M  V30 3090 H 284.108 -1.50574 -4.80982 0
M  V30 3091 H 283.71 -2.01315 -3.15195 0
M  V30 3092 H 286.002 -2.54686 -6.27807 0
M  V30 3093 H 286.945 -4.00635 -5.83864 0
M  V30 3094 H 287.353 -2.43192 -5.09429 0
M  V30 3095 N 286.751 1.08385 -1.14413 0
M  V30 3096 C 288 1.80153 -0.907076 0
M  V30 3097 C 288.313 1.87176 0.567851 0
M  V30 3098 O 289.519 2.55359 0.922172 0
M  V30 3099 C 287.975 3.23687 -1.57336 0
M  V30 3100 C 287.583 3.24897 -3.08457 0
M  V30 3101 C 289.327 4.00136 -1.41744 0
M  V30 3102 C 287.234 4.6302 -3.67921 0
M  V30 3103 H 286.164 0.675139 -0.335714 0
M  V30 3104 H 288.815 1.21733 -1.37307 0
M  V30 3105 H 287.197 3.82234 -1.03505 0
M  V30 3106 H 288.371 2.76055 -3.68958 0
M  V30 3107 H 286.686 2.61943 -3.2369 0
M  V30 3108 H 289.283 5.02201 -1.83572 0
M  V30 3109 H 289.626 4.14709 -0.363576 0
M  V30 3110 H 290.159 3.48058 -1.92614 0
M  V30 3111 H 286.898 4.5365 -4.73161 0
M  V30 3112 H 286.418 5.12143 -3.12201 0
M  V30 3113 H 288.097 5.31994 -3.68227 0
M  V30 3114 N 288.23 0.939286 1.26551 0
M  V30 3115 C 289.178 0.43815 2.28436 0
M  V30 3116 C 290.172 -0.483587 1.62351 0
M  V30 3117 O 291.378 -0.362009 1.76322 0
M  V30 3118 H 287.753 0.123149 0.741848 0
M  V30 3119 H 289.724 1.31002 2.68106 0
M  V30 3120 C 288.473 -0.283052 3.46546 0
M  V30 3121 H 287.796 0.417043 3.97619 0
M  V30 3122 H 289.236 -0.597948 4.19763 0
M  V30 3123 C 287.695 -1.50018 3.01656 0
M  V30 3124 O 288.225 -2.59855 3.0633 0
M  V30 3125 N 286.431 -1.35608 2.57019 0
M  V30 3126 H 285.978 -0.46244 2.53415 0
M  V30 3127 H 285.936 -2.17165 2.27347 0
M  V30 3128 N 289.708 -1.40897 0.706093 0
M  V30 3129 C 291.119 -1.84023 0.315052 0
M  V30 3130 C 291.47 -1.5906 -1.14866 0
M  V30 3131 O 290.595 -1.06651 -1.88293 0
M  V30 3132 C 291.19 -3.34055 0.565038 0
M  V30 3133 C 289.749 -3.7571 0.227806 0
M  V30 3134 C 288.896 -2.64204 0.842122 0
M  V30 3135 H 291.847 -1.303 0.905963 0
M  V30 3136 H 291.868 -3.80107 -0.172843 0
M  V30 3137 H 291.38 -3.52192 1.63042 0
M  V30 3138 H 289.481 -3.63172 -0.832895 0
M  V30 3139 H 289.594 -4.74103 0.690174 0
M  V30 3140 H 287.958 -2.53255 0.270893 0
M  V30 3141 H 288.741 -2.85155 1.91158 0
M  V30 3142 N 291.186 -0.45159 -1.50991 0
M  V30 3143 C 292.463 0.170707 -1.94854 0
M  V30 3144 C 292.843 1.58788 -1.39103 0
M  V30 3145 O 292.191 2.20913 -0.583921 0
M  V30 3146 C 292.401 0.133929 -3.48743 0
M  V30 3147 C 293.749 0.33248 -4.23296 0
M  V30 3148 O 294.773 0.211403 -3.55572 0
M  V30 3149 O 293.632 0.57486 -5.43468 0
M  V30 3150 H 290.726 0.122264 -0.817912 0
M  V30 3151 H 293.272 -0.510594 -1.61836 0
M  V30 3152 H 292.044 -0.856283 -3.81816 0
M  V30 3153 H 291.667 0.857529 -3.88242 0
M  V30 3154 N 292.664 1.56529 -0.183458 0
M  V30 3155 C 293.889 2.02064 0.467428 0
M  V30 3156 C 294.314 1.06282 1.55196 0
M  V30 3157 O 293.672 0.0443565 1.81246 0
M  V30 3158 C 293.72 3.46122 1.01153 0
M  V30 3159 O 292.824 3.53437 2.12499 0
M  V30 3160 H 292.165 0.654726 0.110588 0
M  V30 3161 H 294.695 2.02521 -0.290917 0
M  V30 3162 H 294.705 3.85676 1.33108 0
M  V30 3163 H 293.38 4.15331 0.217533 0
M  V30 3164 H 291.957 3.2575 1.81497 0
M  V30 3165 N 294.142 -0.090211 1.57342 0
M  V30 3166 C 295.105 -1.09335 2.01441 0
M  V30 3167 C 296.105 -1.32666 0.908641 0
M  V30 3168 O 297.295 -1.28697 1.174 0
M  V30 3169 C 294.427 -2.44136 2.3793 0
M  V30 3170 H 295.62 -0.713662 2.91285 0
M  V30 3171 H 293.173 -0.335404 1.52659 0
M  V30 3172 H 293.908 -2.86972 1.51055 0
M  V30 3173 H 293.693 -2.28548 3.18603 0
M  V30 3174 H 295.183 -3.16277 2.72688 0
M  V30 3175 N 295.62 -1.53406 -0.361157 0
M  V30 3176 C 296.568 -1.80832 -1.46296 0
M  V30 3177 C 297.562 -0.677699 -1.55253 0
M  V30 3178 O 298.768 -0.860723 -1.58087 0
M  V30 3179 H 295.143 -0.572627 -0.487445 0
M  V30 3180 H 297.114 -2.73045 -1.20371 0
M  V30 3181 C 295.863 -2.01907 -2.8307 0
M  V30 3182 H 295.186 -2.88349 -2.76938 0
M  V30 3183 H 296.626 -2.25072 -3.59331 0
M  V30 3184 C 295.085 -0.799449 -3.27277 0
M  V30 3185 O 295.615 0.00971761 -4.01699 0
M  V30 3186 N 293.821 -0.621637 -2.83873 0
M  V30 3187 H 293.368 -1.28126 -2.23476 0
M  V30 3188 H 293.326 0.19298 -3.13807 0
M  V30 3189 N 297.098 0.621204 -1.44841 0
M  V30 3190 C 298.347 1.37658 -1.47422 0
M  V30 3191 C 298.66 1.95264 -0.114629 0
M  V30 3192 O 299.866 2.71494 -0.0180199 0
M  V30 3193 C 298.322 2.49285 -2.59586 0
M  V30 3194 C 297.93 1.98149 -4.01797 0
M  V30 3195 C 299.674 3.26409 -2.71399 0
M  V30 3196 C 297.581 3.07178 -5.05367 0
M  V30 3197 H 296.511 0.517344 -0.548517 0
M  V30 3198 H 299.162 0.667257 -1.70938 0
M  V30 3199 H 297.544 3.22839 -2.29328 0
M  V30 3200 H 298.718 1.31395 -4.41669 0
M  V30 3201 H 297.033 1.33812 -3.94314 0
M  V30 3202 H 299.63 4.07706 -3.45948 0
M  V30 3203 H 299.973 3.76535 -1.77559 0
M  V30 3204 H 300.506 2.5995 -3.01116 0
M  V30 3205 H 297.245 2.61985 -6.00869 0
M  V30 3206 H 296.765 3.72542 -4.70077 0
M  V30 3207 H 298.444 3.71789 -5.29511 0
M  V30 3208 N 298.576 1.31904 0.862503 0
M  V30 3209 C 299.825 1.21373 1.61094 0
M  V30 3210 C 300.138 -0.22504 1.94301 0
M  V30 3211 O 301.344 -0.452121 2.67709 0
M  V30 3212 C 299.8 2.12525 2.9045 0
M  V30 3213 C 299.408 3.61441 2.64697 0
M  V30 3214 C 301.152 2.10813 3.68454 0
M  V30 3215 C 299.059 4.44578 3.90006 0
M  V30 3216 H 297.989 0.450705 0.604468 0
M  V30 3217 H 300.64 1.56811 0.953027 0
M  V30 3218 H 299.022 1.69994 3.57656 0
M  V30 3219 H 300.196 4.12264 2.05851 0
M  V30 3220 H 298.511 3.65205 2.00036 0
M  V30 3221 H 301.108 2.70167 4.61426 0
M  V30 3222 H 301.451 1.09713 4.01583 0
M  V30 3223 H 301.984 2.51583 3.08141 0
M  V30 3224 H 298.723 5.46461 3.62023 0
M  V30 3225 H 298.243 3.98508 4.48276 0
M  V30 3226 H 299.922 4.57176 4.5782 0
M  V30 3227 N 300.054 -1.07777 1.14986 0
M  V30 3228 C 301.284 -1.83752 0.944402 0
M  V30 3229 C 301.692 -1.8218 -0.51058 0
M  V30 3230 O 301.035 -1.22852 -1.36576 0
M  V30 3231 C 301.097 -3.32128 1.37592 0
M  V30 3232 C 300.761 -3.57425 2.84775 0
M  V30 3233 C 301.758 -3.5173 3.8286 0
M  V30 3234 C 299.443 -3.8523 3.2234 0
M  V30 3235 C 301.437 -3.73482 5.16517 0
M  V30 3236 C 299.124 -4.06634 4.56171 0
M  V30 3237 C 300.122 -4.00754 5.53069 0
M  V30 3238 O 299.81 -4.2159 6.84483 0
M  V30 3239 H 299.542 -0.58673 0.335744 0
M  V30 3240 H 302.096 -1.36982 1.53052 0
M  V30 3241 H 300.326 -3.79686 0.733165 0
M  V30 3242 H 302.015 -3.89555 1.14024 0
M  V30 3243 H 302.781 -3.30256 3.55184 0
M  V30 3244 H 298.66 -3.88923 2.47508 0
M  V30 3245 H 302.204 -3.68808 5.92137 0
M  V30 3246 H 298.101 -4.27593 4.83564 0
M  V30 3247 H 298.869 -4.38961 6.90837 0
M  V30 3248 N 301.532 -0.945985 -1.26051 0
M  V30 3249 C 302.48 -0.450259 -2.282 0
M  V30 3250 C 303.474 0.47497 -1.62605 0
M  V30 3251 O 304.68 0.352653 -1.76512 0
M  V30 3252 H 301.055 -0.127081 -0.741184 0
M  V30 3253 H 303.026 -1.32422 -2.67408 0
M  V30 3254 C 301.775 0.26467 -3.46691 0
M  V30 3255 H 301.098 -0.438123 -3.97392 0
M  V30 3256 H 302.538 0.575678 -4.20074 0
M  V30 3257 C 300.997 1.48416 -3.02447 0
M  V30 3258 O 301.527 2.58227 -3.07704 0
M  V30 3259 N 299.733 1.34243 -2.57735 0
M  V30 3260 H 299.28 0.448994 -2.53657 0
M  V30 3261 H 299.238 2.15957 -2.28495 0
M  V30 3262 N 303.011 1.40521 -0.713556 0
M  V30 3263 C 303.921 2.34522 -0.0606667 0
M  V30 3264 C 304.937 1.57193 0.74607 0
M  V30 3265 O 306.113 1.89591 0.679493 0
M  V30 3266 C 303.178 3.36081 0.851491 0
M  V30 3267 C 302.239 4.29286 0.0349339 0
M  V30 3268 C 301.472 5.25994 0.903649 0
M  V30 3269 O 301.695 5.28616 2.14292 0
M  V30 3270 O 300.629 6.00918 0.343723 0
M  V30 3271 H 304.455 2.91968 -0.835972 0
M  V30 3272 H 302.04 1.41681 -0.47402 0
M  V30 3273 H 303.922 3.98369 1.37404 0
M  V30 3274 H 302.597 2.81052 1.60598 0
M  V30 3275 H 301.504 3.70289 -0.532633 0
M  V30 3276 H 302.837 4.87462 -0.681287 0
M  V30 3277 N 304.489 0.459591 1.5075 0
M  V30 3278 C 305.738 -0.100971 2.01447 0
M  V30 3279 C 306.051 -1.41816 1.34713 0
M  V30 3280 O 307.257 -2.06299 1.76502 0
M  V30 3281 C 305.713 -0.23047 3.59161 0
M  V30 3282 C 305.321 1.0776 4.34847 0
M  V30 3283 C 307.065 -0.743608 4.17936 0
M  V30 3284 C 304.972 0.91253 5.84317 0
M  V30 3285 H 303.902 -0.0415102 0.752856 0
M  V30 3286 H 306.553 0.592742 1.73663 0
M  V30 3287 H 304.935 -0.987703 3.83485 0
M  V30 3288 H 306.109 1.8449 4.22256 0
M  V30 3289 H 304.424 1.52097 3.87628 0
M  V30 3290 H 307.021 -0.883959 5.27343 0
M  V30 3291 H 307.364 -1.73196 3.78562 0
M  V30 3292 H 307.897 -0.04408 3.97776 0
M  V30 3293 H 304.636 1.87391 6.28144 0
M  V30 3294 H 304.156 0.185422 5.99513 0
M  V30 3295 H 305.835 0.574547 6.44444 0
M  V30 3296 N 305.967 -1.56429 0.191757 0
M  V30 3297 C 306.877 -2.22541 -0.742481 0
M  V30 3298 C 307.893 -1.22342 -1.23727 0
M  V30 3299 O 309.069 -1.55069 -1.28513 0
M  V30 3300 C 306.134 -2.8692 -1.94623 0
M  V30 3301 C 305.195 -4.02378 -1.49633 0
M  V30 3302 C 304.428 -4.63678 -2.6427 0
M  V30 3303 O 304.651 -4.23895 -3.81666 0
M  V30 3304 O 303.585 -5.53202 -2.37174 0
M  V30 3305 H 307.411 -3.02977 -0.209462 0
M  V30 3306 H 304.996 -1.49353 -0.0373832 0
M  V30 3307 H 306.878 -3.27663 -2.64982 0
M  V30 3308 H 305.553 -2.09466 -2.46791 0
M  V30 3309 H 304.46 -3.66265 -0.761636 0
M  V30 3310 H 305.793 -4.81487 -1.02134 0
M  V30 3311 N 307.445 0.0818655 -1.57387 0
M  V30 3312 C 308.67 0.799946 -1.91352 0
M  V30 3313 C 309.095 1.70833 -0.787258 0
M  V30 3314 O 308.453 1.79419 0.26048 0
M  V30 3315 C 308.501 1.57812 -3.24234 0
M  V30 3316 O 307.605 2.68806 -3.12757 0
M  V30 3317 H 306.946 0.21891 -0.626877 0
M  V30 3318 H 309.476 0.0531256 -2.04531 0
M  V30 3319 H 309.486 1.95952 -3.57864 0
M  V30 3320 H 308.161 0.911548 -4.05788 0
M  V30 3321 H 306.738 2.33597 -2.90666 0
M  V30 3322 N 308.923 1.53595 0.353017 0
M  V30 3323 C 310.334 1.61937 0.929153 0
M  V30 3324 C 310.685 0.494686 1.89861 0
M  V30 3325 O 309.81 -0.377017 2.1309 0
M  V30 3326 C 310.405 2.93526 1.69199 0
M  V30 3327 C 308.964 3.04161 2.21727 0
M  V30 3328 C 308.111 2.57322 1.03348 0
M  V30 3329 H 311.062 1.58155 0.131431 0
M  V30 3330 H 311.083 2.82034 2.55416 0
M  V30 3331 H 310.595 3.75362 0.986144 0
M  V30 3332 H 308.696 2.26938 2.95516 0
M  V30 3333 H 308.809 4.09465 2.48748 0
M  V30 3334 H 307.173 2.12499 1.40414 0
M  V30 3335 H 307.956 3.41588 0.342428 0
M  V30 3336 N 310.401 -0.613514 1.45168 0
M  V30 3337 C 311.647 -1.37471 1.49096 0
M  V30 3338 C 311.98 -1.93765 0.129901 0
M  V30 3339 O 311.255 -1.74707 -0.854858 0
M  V30 3340 C 311.538 -2.52701 2.56542 0
M  V30 3341 C 311.391 -2.01643 4.0207 0
M  V30 3342 C 312.71 -3.54849 2.60327 0
M  V30 3343 H 309.829 -0.498502 0.54283 0
M  V30 3344 H 312.471 -0.692125 1.76945 0
M  V30 3345 H 310.621 -3.10931 2.32926 0
M  V30 3346 H 312.293 -1.48108 4.36877 0
M  V30 3347 H 310.536 -1.32688 4.13009 0
M  V30 3348 H 311.207 -2.84681 4.72928 0
M  V30 3349 H 313.683 -3.0645 2.81474 0
M  V30 3350 H 312.559 -4.32973 3.37381 0
M  V30 3351 H 312.82 -4.10079 1.6519 0
M  V30 3352 N 311.879 -1.3236 -0.855495 0
M  V30 3353 C 312.826 -1.21225 -1.964 0
M  V30 3354 C 313.796 -0.0946204 -1.6583 0
M  V30 3355 O 314.981 -0.27002 -1.8888 0
M  V30 3356 C 312.121 -0.940419 -3.32039 0
M  V30 3357 C 311.234 -2.14276 -3.75113 0
M  V30 3358 C 310.369 -1.80648 -4.9954 0
M  V30 3359 C 309.408 -2.97208 -5.35102 0
M  V30 3360 N 308.545 -2.63678 -6.50706 0
M  V30 3361 H 313.385 -2.16042 -2.05255 0
M  V30 3362 H 310.922 -1.07451 -1.00463 0
M  V30 3363 H 312.88 -0.763311 -4.10158 0
M  V30 3364 H 311.51 -0.0290413 -3.22787 0
M  V30 3365 H 310.562 -2.43017 -2.92655 0
M  V30 3366 H 311.874 -3.01468 -3.97389 0
M  V30 3367 H 311.028 -1.59484 -5.85363 0
M  V30 3368 H 309.767 -0.906678 -4.79198 0
M  V30 3369 H 308.772 -3.19004 -4.47791 0
M  V30 3370 H 309.997 -3.87918 -5.57401 0
M  V30 3371 H 307.943 -1.76238 -6.31883 0
M  V30 3372 H 307.86 -3.444 -6.72997 0
M  V30 3373 H 309.128 -2.45942 -7.39684 0
M  V30 3374 N 313.357 1.07166 -1.15556 0
M  V30 3375 C 314.289 2.14341 -0.811815 0
M  V30 3376 C 315.302 1.61835 0.177015 0
M  V30 3377 O 316.491 1.78439 -0.0464996 0
M  V30 3378 C 313.591 3.38387 -0.186481 0
M  V30 3379 C 312.764 4.20238 -1.21321 0
M  V30 3380 C 311.823 5.2266 -0.609302 0
M  V30 3381 O 310.849 5.54719 -1.27576 0
M  V30 3382 N 312.051 5.77306 0.608099 0
M  V30 3383 H 314.816 2.44431 -1.73417 0
M  V30 3384 H 312.377 1.23089 -1.0517 0
M  V30 3385 H 314.369 4.04044 0.230339 0
M  V30 3386 H 312.939 3.05994 0.639249 0
M  V30 3387 H 312.159 3.50369 -1.80652 0
M  V30 3388 H 313.447 4.71736 -1.90638 0
M  V30 3389 H 312.845 5.53513 1.1679 0
M  V30 3390 H 311.402 6.44583 0.96725 0
M  V30 3391 N 314.835 0.952656 1.25548 0
M  V30 3392 C 316.084 0.602053 1.92505 0
M  V30 3393 C 316.397 -0.864663 1.75451 0
M  V30 3394 O 317.603 -1.32514 2.36965 0
M  V30 3395 C 316.059 1.02607 3.44963 0
M  V30 3396 C 315.667 2.51519 3.70732 0
M  V30 3397 C 317.411 0.747905 4.1786 0
M  V30 3398 C 315.318 2.87732 5.16686 0
M  V30 3399 H 314.248 0.22146 0.720744 0
M  V30 3400 H 316.899 1.15684 1.42441 0
M  V30 3401 H 315.281 0.399712 3.93978 0
M  V30 3402 H 316.455 3.19157 3.32378 0
M  V30 3403 H 314.77 2.76786 3.11092 0
M  V30 3404 H 317.367 0.994647 5.25367 0
M  V30 3405 H 317.71 -0.315629 4.15102 0
M  V30 3406 H 318.243 1.33452 3.74747 0
M  V30 3407 H 314.982 3.93095 5.24554 0
M  V30 3408 H 314.502 2.24765 5.56094 0
M  V30 3409 H 316.181 2.76817 5.84792 0
M  V30 3410 N 316.313 -1.40141 0.720998 0
M  V30 3411 C 317.26 -2.30688 0.071919 0
M  V30 3412 C 318.23 -1.48476 -0.744584 0
M  V30 3413 O 319.415 -1.77201 -0.707423 0
M  V30 3414 C 316.555 -3.34724 -0.839855 0
M  V30 3415 C 315.668 -4.31998 -0.0122438 0
M  V30 3416 C 314.803 -5.23102 -0.923995 0
M  V30 3417 C 313.842 -6.12033 -0.0907969 0
M  V30 3418 N 312.979 -6.95537 -0.957718 0
M  V30 3419 H 317.819 -2.85628 0.849755 0
M  V30 3420 H 315.356 -1.40653 0.430726 0
M  V30 3421 H 317.314 -3.93618 -1.38279 0
M  V30 3422 H 315.944 -2.81274 -1.58381 0
M  V30 3423 H 314.996 -3.74841 0.64794 0
M  V30 3424 H 316.308 -4.94772 0.632595 0
M  V30 3425 H 315.462 -5.86953 -1.53527 0
M  V30 3426 H 314.201 -4.60615 -1.60264 0
M  V30 3427 H 313.206 -5.47207 0.533377 0
M  V30 3428 H 314.431 -6.76581 0.584428 0
M  V30 3429 H 312.377 -6.35633 -1.62192 0
M  V30 3430 H 312.294 -7.55099 -0.36904 0
M  V30 3431 H 313.562 -7.63832 -1.555 0
M  V30 3432 N 317.792 -0.46758 -1.50504 0
M  V30 3433 C 319.038 0.0808869 -2.03239 0
M  V30 3434 C 319.393 1.37721 -1.34353 0
M  V30 3435 O 318.686 1.86016 -0.459194 0
M  V30 3436 C 318.88 0.323995 -3.55928 0
M  V30 3437 C 318.709 -0.947215 -4.39611 0
M  V30 3438 C 317.479 -1.48951 -4.82848 0
M  V30 3439 C 319.677 -1.84166 -4.80195 0
M  V30 3440 N 317.659 -2.71011 -5.50842 0
M  V30 3441 C 319.03 -2.90815 -5.47564 0
M  V30 3442 C 321.085 -1.85246 -4.62156 0
M  V30 3443 C 319.788 -3.98529 -5.98805 0
M  V30 3444 C 321.814 -2.91914 -5.14335 0
M  V30 3445 C 321.176 -3.97282 -5.81676 0
M  V30 3446 H 317.275 -0.0103394 -0.781932 0
M  V30 3447 H 319.859 -0.635003 -1.84054 0
M  V30 3448 H 318.03 1.00892 -3.75067 0
M  V30 3449 H 319.762 0.866492 -3.95315 0
M  V30 3450 H 316.517 -1.03918 -4.62058 0
M  V30 3451 H 316.941 -3.32988 -5.89447 0
M  V30 3452 H 321.583 -1.05103 -4.09528 0
M  V30 3453 H 319.301 -4.79491 -6.50472 0
M  V30 3454 H 322.887 -2.93729 -5.0221 0
M  V30 3455 H 321.767 -4.78462 -6.21324 0
M  V30 3456 N 319.27 1.56325 -0.20005 0
M  V30 3457 C 320.5 2.01811 0.442232 0
M  V30 3458 C 320.908 1.07932 1.55394 0
M  V30 3459 O 320.251 0.0772685 1.83537 0
M  V30 3460 C 320.313 3.43685 1.05457 0
M  V30 3461 C 319.977 4.56928 0.0809833 0
M  V30 3462 C 320.974 5.15009 -0.711471 0
M  V30 3463 C 318.659 5.0229 -0.0315364 0
M  V30 3464 C 320.653 6.16904 -1.60336 0
M  V30 3465 C 318.34 6.04028 -0.926981 0
M  V30 3466 C 319.338 6.6121 -1.71146 0
M  V30 3467 O 319.026 7.60971 -2.59189 0
M  V30 3468 H 318.758 0.666173 0.114848 0
M  V30 3469 H 321.312 2.03085 -0.307511 0
M  V30 3470 H 319.542 3.39413 1.85299 0
M  V30 3471 H 321.231 3.72948 1.60201 0
M  V30 3472 H 321.997 4.80827 -0.634873 0
M  V30 3473 H 317.876 4.57476 0.568902 0
M  V30 3474 H 321.42 6.61464 -2.21611 0
M  V30 3475 H 317.317 6.37634 -1.00468 0
M  V30 3476 H 318.085 7.7841 -2.53023 0
M  V30 3477 N 320.748 -0.0735177 1.57428 0
M  V30 3478 C 321.658 -1.10547 2.06922 0
M  V30 3479 C 322.674 -1.42506 0.998402 0
M  V30 3480 O 323.85 -1.52717 1.31299 0
M  V30 3481 C 320.915 -2.40019 2.50184 0
M  V30 3482 C 319.976 -2.15046 3.71556 0
M  V30 3483 C 319.209 -3.38345 4.12745 0
M  V30 3484 O 319.432 -4.47399 3.53822 0
M  V30 3485 O 318.366 -3.2666 5.05546 0
M  V30 3486 H 322.192 -0.715013 2.95163 0
M  V30 3487 H 319.777 -0.287531 1.46607 0
M  V30 3488 H 321.659 -3.16218 2.78539 0
M  V30 3489 H 320.334 -2.78447 1.65072 0
M  V30 3490 H 319.241 -1.36558 3.48285 0
M  V30 3491 H 320.574 -1.81499 4.57514 0
M  V30 3492 N 322.226 -1.5378 -0.344866 0
M  V30 3493 C 323.158 -1.77988 -1.44406 0
M  V30 3494 C 324.171 -0.661138 -1.48771 0
M  V30 3495 O 325.36 -0.937842 -1.51877 0
M  V30 3496 C 322.46 -1.86345 -2.8307 0
M  V30 3497 C 321.633 -3.16256 -3.0216 0
M  V30 3498 C 320.692 -3.15588 -4.21059 0
M  V30 3499 O 319.718 -3.89314 -4.15239 0
M  V30 3500 N 320.92 -2.37864 -5.29529 0
M  V30 3501 H 323.685 -2.72839 -1.24012 0
M  V30 3502 H 321.246 -1.52814 -0.534737 0
M  V30 3503 H 323.238 -1.83351 -3.60783 0
M  V30 3504 H 321.808 -0.986858 -2.96614 0
M  V30 3505 H 321.028 -3.32385 -2.11929 0
M  V30 3506 H 322.316 -4.0207 -3.11797 0
M  V30 3507 H 321.714 -1.77514 -5.37127 0
M  V30 3508 H 320.271 -2.40668 -6.05741 0
M  V30 3509 N 323.704 0.605807 -1.45491 0
M  V30 3510 C 324.929 1.39625 -1.53361 0
M  V30 3511 C 325.354 1.87351 -0.167645 0
M  V30 3512 O 324.712 1.60243 0.848051 0
M  V30 3513 C 324.76 2.57559 -2.5238 0
M  V30 3514 O 323.864 3.58248 -2.04285 0
M  V30 3515 H 323.205 0.416771 -0.516912 0
M  V30 3516 H 325.735 0.737103 -1.90861 0
M  V30 3517 H 325.745 3.0478 -2.71244 0
M  V30 3518 H 324.42 2.22171 -3.51586 0
M  V30 3519 H 322.997 3.17664 -1.95305 0
M  V30 3520 N 325.182 1.32811 0.848464 0
M  V30 3521 C 326.43 1.23479 1.59991 0
M  V30 3522 C 326.751 -0.201853 1.93952 0
M  V30 3523 O 326.021 -1.12818 1.60153 0
M  V30 3524 H 324.601 0.454034 0.593179 0
M  V30 3525 H 327.263 1.66412 1.01455 0
M  V30 3526 H 326.359 1.82178 2.53412 0
M  V30 3527 N 326.66 -1.06551 1.16123 0
M  V30 3528 C 327.61 -2.12209 0.833736 0
M  V30 3529 C 328.594 -1.59825 -0.185656 0
M  V30 3530 O 329.786 -1.76994 0.0147906 0
M  V30 3531 C 326.915 -3.41674 0.333697 0
M  V30 3532 C 326.001 -4.00892 1.38372 0
M  V30 3533 N 326.392 -4.34256 2.59337 0
M  V30 3534 C 324.69 -4.28463 1.23836 0
M  V30 3535 C 325.391 -4.81291 3.26701 0
M  V30 3536 N 324.367 -4.80565 2.54083 0
M  V30 3537 H 328.169 -2.35849 1.75364 0
M  V30 3538 H 325.683 -1.24068 1.04789 0
M  V30 3539 H 327.68 -4.16822 0.0806918 0
M  V30 3540 H 326.34 -3.19475 -0.58017 0
M  V30 3541 H 327.351 -4.24687 2.96415 0
M  V30 3542 H 324.028 -4.15721 0.38504 0
M  V30 3543 H 325.418 -5.16332 4.29943 0
M  V30 3544 N 328.138 -0.959301 -1.25041 0
M  V30 3545 C 329.384 -0.617525 -1.9317 0
M  V30 3546 C 329.717 0.843981 -1.74902 0
M  V30 3547 O 328.992 1.60615 -1.09696 0
M  V30 3548 C 329.275 -0.982736 -3.46431 0
M  V30 3549 C 329.128 -2.50032 -3.73904 0
M  V30 3550 C 330.447 -0.511176 -4.37121 0
M  V30 3551 H 327.566 -0.22582 -0.701552 0
M  V30 3552 H 330.208 -1.19679 -1.4757 0
M  V30 3553 H 328.358 -0.489806 -3.854 0
M  V30 3554 H 330.03 -3.06737 -3.44544 0
M  V30 3555 H 328.273 -2.93598 -3.19348 0
M  V30 3556 H 328.944 -2.70635 -4.81103 0
M  V30 3557 H 331.42 -0.934075 -4.0548 0
M  V30 3558 H 330.296 -0.795361 -5.43107 0
M  V30 3559 H 330.557 0.588834 -4.38161 0
M  V30 3560 N 329.616 1.39756 -0.72842 0
M  V30 3561 C 330.865 1.99879 -0.270407 0
M  V30 3562 C 331.178 1.58449 1.14688 0
M  V30 3563 O 332.384 2.11362 1.70407 0
M  V30 3564 C 330.84 3.57292 -0.43252 0
M  V30 3565 C 330.448 4.07688 -1.85727 0
M  V30 3566 C 332.192 4.24485 -0.0359507 0
M  V30 3567 C 330.099 5.5765 -1.96928 0
M  V30 3568 H 329.029 0.747689 -0.0973472 0
M  V30 3569 H 331.68 1.59837 -0.901355 0
M  V30 3570 H 330.062 3.95097 0.267219 0
M  V30 3571 H 331.236 3.81231 -2.58843 0
M  V30 3572 H 329.551 3.53135 -2.20646 0
M  V30 3573 H 332.148 5.34609 -0.0987484 0
M  V30 3574 H 332.491 4.03915 1.00787 0
M  V30 3575 H 333.024 3.9183 -0.686604 0
M  V30 3576 H 329.763 5.8309 -2.99476 0
M  V30 3577 H 329.283 5.8593 -1.28241 0
M  V30 3578 H 330.962 6.22957 -1.74737 0
M  V30 3579 N 331.094 0.475555 1.50254 0
M  V30 3580 C 332.322 -0.0754493 2.06762 0
M  V30 3581 C 332.737 -1.33111 1.33891 0
M  V30 3582 O 332.094 -1.77846 0.40952 0
M  V30 3583 C 332.145 -0.359008 3.59713 0
M  V30 3584 O 331.866 0.846851 4.29837 0
M  V30 3585 C 333.367 -0.956484 4.32858 0
M  V30 3586 H 330.587 0.00907525 0.670939 0
M  V30 3587 H 333.131 0.665618 1.93364 0
M  V30 3588 H 331.286 -1.05001 3.72899 0
M  V30 3589 H 331.7 0.594162 5.21124 0
M  V30 3590 H 333.174 -1.10463 5.40834 0
M  V30 3591 H 333.651 -1.94775 3.93649 0
M  V30 3592 H 334.257 -0.303723 4.24214 0
M  V30 3593 N 332.573 -1.56217 0.208337 0
M  V30 3594 C 333.503 -2.22694 -0.702116 0
M  V30 3595 C 334.484 -1.19432 -1.2112 0
M  V30 3596 O 335.669 -1.47978 -1.25762 0
M  V30 3597 C 332.799 -2.8966 -1.9161 0
M  V30 3598 C 331.753 -3.9928 -1.5414 0
M  V30 3599 C 331.079 -4.53476 -2.83308 0
M  V30 3600 C 332.379 -5.17012 -0.741339 0
M  V30 3601 H 334.073 -2.99034 -0.147898 0
M  V30 3602 H 331.619 -1.43831 -0.0696951 0
M  V30 3603 H 333.572 -3.34852 -2.55836 0
M  V30 3604 H 332.296 -2.10746 -2.49507 0
M  V30 3605 H 330.955 -3.54799 -0.922668 0
M  V30 3606 H 330.603 -3.71308 -3.39322 0
M  V30 3607 H 330.303 -5.27451 -2.58976 0
M  V30 3608 H 331.827 -5.01378 -3.485 0
M  V30 3609 H 333.241 -5.58667 -1.28699 0
M  V30 3610 H 331.638 -5.97137 -0.595627 0
M  V30 3611 H 332.708 -4.8423 0.254851 0
M  V30 3612 N 334.051 0.0651679 -1.57465 0
M  V30 3613 C 335.328 0.79644 -1.78651 0
M  V30 3614 C 335.708 1.95454 -0.797566 0
M  V30 3615 O 335.056 2.27882 0.167946 0
M  V30 3616 C 335.266 1.26322 -3.25337 0
M  V30 3617 C 336.614 1.6939 -3.89348 0
M  V30 3618 O 337.638 1.35872 -3.29268 0
M  V30 3619 O 336.497 2.31471 -4.95059 0
M  V30 3620 H 333.591 0.382157 -0.733407 0
M  V30 3621 H 336.137 0.0447311 -1.69641 0
M  V30 3622 H 334.909 0.434859 -3.88876 0
M  V30 3623 H 334.532 2.07604 -3.39096 0
M  V30 3624 N 335.529 1.53961 0.336706 0
M  V30 3625 C 336.461 1.78751 1.4346 0
M  V30 3626 C 337.474 0.669019 1.48418 0
M  V30 3627 O 338.663 0.945884 1.51378 0
M  V30 3628 C 335.763 1.87844 2.82078 0
M  V30 3629 C 334.936 3.17854 3.00479 0
M  V30 3630 C 333.995 3.17816 4.19379 0
M  V30 3631 O 333.021 3.91511 4.13168 0
M  V30 3632 N 334.223 2.40669 5.2826 0
M  V30 3633 H 336.988 2.73493 1.22563 0
M  V30 3634 H 334.549 1.53096 0.526625 0
M  V30 3635 H 336.541 1.85261 3.59806 0
M  V30 3636 H 335.111 1.00257 2.96086 0
M  V30 3637 H 334.331 3.33504 2.10163 0
M  V30 3638 H 335.619 4.03718 3.0966 0
M  V30 3639 H 335.017 1.8036 5.36178 0
M  V30 3640 H 333.574 2.43877 6.04456 0
M  V30 3641 N 337.007 -0.598083 1.45811 0
M  V30 3642 C 337.917 -1.73632 1.57763 0
M  V30 3643 C 338.933 -1.67763 0.461676 0
M  V30 3644 O 340.109 -1.87949 0.723685 0
M  V30 3645 C 337.174 -3.10114 1.55018 0
M  V30 3646 C 336.235 -3.27364 2.77726 0
M  V30 3647 C 335.468 -4.57334 2.75102 0
M  V30 3648 O 335.691 -5.40258 1.8297 0
M  V30 3649 O 334.625 -4.77502 3.66437 0
M  V30 3650 H 338.451 -1.66498 2.53992 0
M  V30 3651 H 336.036 -0.763308 1.28429 0
M  V30 3652 H 337.918 -3.9141 1.56129 0
M  V30 3653 H 336.593 -3.17718 0.619431 0
M  V30 3654 H 335.5 -2.45619 2.82174 0
M  V30 3655 H 336.833 -3.24641 3.69958 0
M  V30 3656 N 338.485 -1.33259 -0.841409 0
M  V30 3657 C 339.432 -1.23302 -1.95103 0
M  V30 3658 C 340.402 -0.112204 -1.65721 0
M  V30 3659 O 341.587 -0.290038 -1.88583 0
M  V30 3660 C 338.727 -0.975583 -3.31023 0
M  V30 3661 C 337.84 -2.18243 -3.72819 0
M  V30 3662 C 336.975 -1.85936 -4.97595 0
M  V30 3663 C 336.014 -3.02866 -5.3192 0
M  V30 3664 N 335.151 -2.70565 -6.47873 0
M  V30 3665 H 339.991 -2.18207 -2.02952 0
M  V30 3666 H 337.528 -1.0851 -0.993173 0
M  V30 3667 H 339.486 -0.80677 -4.09325 0
M  V30 3668 H 338.116 -0.0632755 -3.22738 0
M  V30 3669 H 337.168 -2.46107 -2.90061 0
M  V30 3670 H 338.48 -3.05666 -3.94169 0
M  V30 3671 H 337.634 -1.65684 -5.83638 0
M  V30 3672 H 336.373 -0.957452 -4.78209 0
M  V30 3673 H 335.378 -3.23736 -4.44382 0
M  V30 3674 H 336.603 -3.93809 -5.53255 0
M  V30 3675 H 334.549 -1.8293 -6.29978 0
M  V30 3676 H 334.466 -3.51519 -6.69306 0
M  V30 3677 H 335.734 -2.53774 -7.37034 0
M  V30 3678 N 339.963 1.05934 -1.16686 0
M  V30 3679 C 341.24 1.75643 -0.860747 0
M  V30 3680 C 341.62 2.01144 0.640641 0
M  V30 3681 O 340.968 1.64147 1.58959 0
M  V30 3682 C 341.178 3.05493 -1.68745 0
M  V30 3683 C 342.526 3.79581 -1.90271 0
M  V30 3684 O 343.55 3.15344 -1.65641 0
M  V30 3685 O 342.409 4.9499 -2.31618 0
M  V30 3686 H 339.503 0.763426 -0.317977 0
M  V30 3687 H 342.049 1.1217 -1.27342 0
M  V30 3688 H 340.821 2.8264 -2.70611 0
M  V30 3689 H 340.444 3.76702 -1.27206 0
M  V30 3690 N 341.441 0.965919 1.2453 0
M  V30 3691 C 342.373 0.452465 2.2469 0
M  V30 3692 C 343.386 -0.437821 1.56802 0
M  V30 3693 O 344.575 -0.244283 1.76821 0
M  V30 3694 C 341.675 -0.366258 3.36915 0
M  V30 3695 C 340.848 0.513701 4.34373 0
M  V30 3696 C 339.907 -0.248716 5.25612 0
M  V30 3697 O 338.933 0.356745 5.68081 0
M  V30 3698 N 340.135 -1.53877 5.59734 0
M  V30 3699 H 342.9 1.31361 2.69378 0
M  V30 3700 H 340.461 0.837541 1.38553 0
M  V30 3701 H 342.453 -0.884297 3.94921 0
M  V30 3702 H 341.023 -1.12832 2.91526 0
M  V30 3703 H 340.243 1.21273 3.75082 0
M  V30 3704 H 341.531 1.11391 4.96457 0
M  V30 3705 H 340.929 -2.05243 5.27154 0
M  V30 3706 H 339.486 -2.00254 6.20275 0
M  V30 3707 N 342.919 -1.39368 0.735821 0
M  V30 3708 C 343.849 -2.33234 0.111506 0
M  V30 3709 C 344.83 -1.53954 -0.723334 0
M  V30 3710 O 346.015 -1.82344 -0.668147 0
M  V30 3711 C 343.145 -3.38057 -0.795917 0
M  V30 3712 C 342.099 -4.2795 -0.065172 0
M  V30 3713 C 341.425 -5.23479 -1.08967 0
M  V30 3714 C 342.725 -5.10741 1.09273 0
M  V30 3715 H 344.419 -2.85692 0.895571 0
M  V30 3716 H 341.965 -1.37364 0.432109 0
M  V30 3717 H 343.918 -4.02675 -1.24221 0
M  V30 3718 H 342.642 -2.8404 -1.61211 0
M  V30 3719 H 341.301 -3.64813 0.361511 0
M  V30 3720 H 340.949 -4.65758 -1.89944 0
M  V30 3721 H 340.649 -5.84472 -0.605489 0
M  V30 3722 H 342.173 -5.90974 -1.53565 0
M  V30 3723 H 343.587 -5.68699 0.724841 0
M  V30 3724 H 341.984 -5.8088 1.50659 0
M  V30 3725 H 343.054 -4.45525 1.91404 0
M  V30 3726 N 344.397 -0.483516 -1.5 0
M  V30 3727 C 345.347 0.32306 -2.257 0
M  V30 3728 C 346.331 0.950755 -1.29805 0
M  V30 3729 O 347.523 0.861247 -1.54634 0
M  V30 3730 C 344.652 1.39724 -3.13579 0
M  V30 3731 C 343.738 0.776663 -4.16928 0
M  V30 3732 N 344.129 -0.1104 -5.0568 0
M  V30 3733 C 342.427 1.03922 -4.33724 0
M  V30 3734 C 343.128 -0.46387 -5.79848 0
M  V30 3735 N 342.104 0.163987 -5.43353 0
M  V30 3736 H 345.906 -0.360086 -2.91686 0
M  V30 3737 H 343.42 -0.298456 -1.59634 0
M  V30 3738 H 345.417 1.98837 -3.66428 0
M  V30 3739 H 344.077 2.08225 -2.49143 0
M  V30 3740 H 345.088 -0.480069 -5.1567 0
M  V30 3741 H 341.765 1.71829 -3.80501 0
M  V30 3742 H 343.155 -1.18854 -6.61304 0
M  V30 3743 N 345.875 1.56104 -0.216619 0
M  V30 3744 C 346.785 2.23694 0.706982 0
M  V30 3745 C 347.801 1.24295 1.21765 0
M  V30 3746 O 348.977 1.57094 1.2603 0
M  V30 3747 C 346.042 2.8998 1.90033 0
M  V30 3748 C 345.103 4.04708 1.43213 0
M  V30 3749 C 344.336 4.67824 2.56859 0
M  V30 3750 O 344.559 4.29913 3.74874 0
M  V30 3751 O 343.493 5.56905 2.28343 0
M  V30 3752 H 347.319 3.03272 0.161235 0
M  V30 3753 H 344.904 1.49394 0.0136177 0
M  V30 3754 H 346.786 3.31837 2.59735 0
M  V30 3755 H 345.461 2.13365 2.43428 0
M  V30 3756 H 344.368 3.6743 0.70327 0
M  V30 3757 H 345.701 4.83051 0.944615 0
M  V30 3758 N 347.353 -0.0568162 1.57498 0
M  V30 3759 C 348.63 -0.786954 1.79071 0
M  V30 3760 C 349.01 -1.95028 0.80792 0
M  V30 3761 O 348.358 -2.27968 -0.155858 0
M  V30 3762 C 348.568 -1.24594 3.26002 0
M  V30 3763 C 349.916 -1.67323 3.90241 0
M  V30 3764 O 350.94 -1.34124 3.29984 0
M  V30 3765 O 349.799 -2.28842 4.9628 0
M  V30 3766 H 346.893 -0.378262 0.735423 0
M  V30 3767 H 349.439 -0.035734 1.69662 0
M  V30 3768 H 348.211 -0.41423 3.89101 0
M  V30 3769 H 347.834 -2.05803 3.40192 0
M  V30 3770 N 348.832 -1.54138 -0.328536 0
M  V30 3771 C 350.081 -1.71318 -1.06456 0
M  V30 3772 C 350.394 -0.491109 -1.89334 0
M  V30 3773 O 351.6 -0.54416 -2.65991 0
M  V30 3774 C 350.056 -3.03 -1.94214 0
M  V30 3775 C 349.664 -4.32595 -1.16471 0
M  V30 3776 C 351.408 -3.29544 -2.67583 0
M  V30 3777 C 349.315 -5.55341 -2.03347 0
M  V30 3778 H 348.245 -0.638429 -0.401155 0
M  V30 3779 H 350.896 -1.80633 -0.323106 0
M  V30 3780 H 349.278 -2.87579 -2.72239 0
M  V30 3781 H 350.452 -4.58766 -0.432525 0
M  V30 3782 H 348.767 -4.12777 -0.548063 0
M  V30 3783 H 351.364 -4.18444 -3.3288 0
M  V30 3784 H 351.707 -2.47206 -3.34955 0
M  V30 3785 H 352.24 -3.45809 -1.96623 0
M  V30 3786 H 348.979 -6.40268 -1.40491 0
M  V30 3787 H 348.499 -5.33397 -2.74313 0
M  V30 3788 H 350.178 -5.91557 -2.62049 0
M  V30 3789 N 350.31 0.590341 -1.46126 0
M  V30 3790 C 351.54 1.37304 -1.54373 0
M  V30 3791 C 351.948 1.88332 -0.181071 0
M  V30 3792 O 351.291 1.63852 0.830559 0
M  V30 3793 C 351.353 2.6012 -2.48149 0
M  V30 3794 C 351.017 2.30613 -3.94546 0
M  V30 3795 C 352.014 1.89915 -4.83971 0
M  V30 3796 C 349.699 2.42993 -4.39613 0
M  V30 3797 C 351.693 1.61981 -6.16475 0
M  V30 3798 C 349.38 2.14672 -5.72153 0
M  V30 3799 C 350.378 1.7423 -6.60404 0
M  V30 3800 O 350.066 1.46251 -7.90485 0
M  V30 3801 H 349.798 0.426086 -0.524811 0
M  V30 3802 H 352.352 0.72539 -1.92165 0
M  V30 3803 H 350.582 3.27664 -2.05361 0
M  V30 3804 H 352.271 3.22182 -2.46887 0
M  V30 3805 H 353.037 1.79872 -4.50412 0
M  V30 3806 H 348.916 2.73435 -3.71153 0
M  V30 3807 H 352.46 1.30341 -6.85315 0
M  V30 3808 H 348.357 2.24337 -6.05263 0
M  V30 3809 H 349.125 1.6016 -8.02677 0
M  V30 3810 N 351.788 1.33704 0.83433 0
M  V30 3811 C 352.751 1.24244 1.92603 0
M  V30 3812 C 353.751 0.160383 1.59998 0
M  V30 3813 O 354.941 0.412228 1.69252 0
M  V30 3814 C 352.073 0.91555 3.28376 0
M  V30 3815 H 353.266 2.21287 2.02416 0
M  V30 3816 H 350.819 1.17827 1.02696 0
M  V30 3817 H 351.554 -0.0521886 3.24258 0
M  V30 3818 H 351.339 1.69811 3.53422 0
M  V30 3819 H 352.829 0.874231 4.08347 0
M  V30 3820 N 353.266 -1.05314 1.17247 0
M  V30 3821 C 354.513 -1.78293 0.960091 0
M  V30 3822 C 354.841 -1.87658 -0.51136 0
M  V30 3823 O 354.096 -1.3718 -1.39571 0
M  V30 3824 C 354.395 -3.2229 1.54479 0
M  V30 3825 C 354.061 -3.32987 3.04024 0
M  V30 3826 C 352.723 -3.35613 3.44844 0
M  V30 3827 C 355.075 -3.34102 4.00031 0
M  V30 3828 C 352.403 -3.36982 4.8027 0
M  V30 3829 C 354.755 -3.3701 5.35357 0
M  V30 3830 C 353.419 -3.37923 5.75642 0
M  V30 3831 H 352.689 -0.652422 0.351322 0
M  V30 3832 H 355.336 -1.23782 1.46117 0
M  V30 3833 H 353.641 -3.7972 0.965391 0
M  V30 3834 H 355.338 -3.77376 1.35603 0
M  V30 3835 H 351.928 -3.31655 2.71483 0
M  V30 3836 H 356.112 -3.31276 3.69554 0
M  V30 3837 H 351.368 -3.35999 5.10798 0
M  V30 3838 H 355.542 -3.36822 6.09528 0
M  V30 3839 H 353.169 -3.38738 6.80559 0
M  V30 3840 N 354.744 -0.972509 -1.24016 0
M  V30 3841 C 355.674 -0.525548 -2.27509 0
M  V30 3842 C 356.655 0.437262 -1.64384 0
M  V30 3843 O 357.84 0.332343 -1.91335 0
M  V30 3844 C 354.97 0.180448 -3.46831 0
M  V30 3845 C 353.924 -0.698859 -4.22256 0
M  V30 3846 C 353.25 0.138903 -5.3452 0
M  V30 3847 C 354.55 -1.98582 -4.83076 0
M  V30 3848 H 356.244 -1.39058 -2.65148 0
M  V30 3849 H 353.79 -0.67009 -1.27459 0
M  V30 3850 H 355.743 0.504387 -4.18371 0
M  V30 3851 H 354.467 1.07987 -3.08231 0
M  V30 3852 H 353.126 -1.00614 -3.52523 0
M  V30 3853 H 352.774 1.03862 -4.9216 0
M  V30 3854 H 352.474 -0.446259 -5.85903 0
M  V30 3855 H 353.998 0.457404 -6.08884 0
M  V30 3856 H 355.412 -1.72715 -5.46665 0
M  V30 3857 H 353.809 -2.5181 -5.44713 0
M  V30 3858 H 354.879 -2.67769 -4.04262 0
M  V30 3859 N 356.222 1.38976 -0.743202 0
M  V30 3860 C 357.132 2.3434 -0.110399 0
M  V30 3861 C 358.148 1.58741 0.712559 0
M  V30 3862 O 359.324 1.9099 0.639125 0
M  V30 3863 C 356.389 3.37812 0.780012 0
M  V30 3864 C 355.45 4.29263 -0.0561319 0
M  V30 3865 C 354.683 5.27793 0.791875 0
M  V30 3866 O 354.906 5.33043 2.03031 0
M  V30 3867 O 353.84 6.01512 0.216183 0
M  V30 3868 H 357.666 2.90129 -0.897714 0
M  V30 3869 H 355.251 1.40643 -0.503966 0
M  V30 3870 H 357.133 4.01194 1.28923 0
M  V30 3871 H 355.808 2.84395 1.546 0
M  V30 3872 H 354.715 3.69076 -0.611056 0
M  V30 3873 H 356.048 4.85907 -0.784531 0
M  V30 3874 N 357.7 0.491464 1.49741 0
M  V30 3875 C 358.925 -0.0557177 2.07325 0
M  V30 3876 C 359.35 -1.30925 1.35056 0
M  V30 3877 O 358.708 -1.76733 0.404365 0
M  V30 3878 C 358.756 -0.302074 3.59333 0
M  V30 3879 O 357.86 -1.37868 3.88672 0
M  V30 3880 H 357.201 0.0219956 0.663636 0
M  V30 3881 H 359.731 0.688352 1.92673 0
M  V30 3882 H 359.741 -0.536464 4.04458 0
M  V30 3883 H 358.416 0.61383 4.11345 0
M  V30 3884 H 356.993 -1.12999 3.55367 0
M  V30 3885 N 359.178 -1.55987 0.224894 0
M  V30 3886 C 360.108 -2.23426 -0.678457 0
M  V30 3887 C 361.089 -1.20709 -1.19847 0
M  V30 3888 O 362.274 -1.49304 -1.24186 0
M  V30 3889 C 359.404 -2.91676 -1.88527 0
M  V30 3890 C 358.358 -4.00893 -1.49896 0
M  V30 3891 C 357.684 -4.56455 -2.78483 0
M  V30 3892 C 358.984 -5.17769 -0.686461 0
M  V30 3893 H 360.678 -2.99175 -0.116173 0
M  V30 3894 H 358.224 -1.43897 -0.054436 0
M  V30 3895 H 360.177 -3.37547 -2.5227 0
M  V30 3896 H 358.901 -2.1338 -2.47258 0
M  V30 3897 H 357.56 -3.55758 -0.884985 0
M  V30 3898 H 357.208 -3.74886 -3.35365 0
M  V30 3899 H 356.908 -5.30169 -2.53368 0
M  V30 3900 H 358.432 -5.05047 -3.43162 0
M  V30 3901 H 359.846 -5.60001 -1.22767 0
M  V30 3902 H 358.243 -5.97735 -0.532259 0
M  V30 3903 H 359.313 -4.83932 0.306196 0
M  V30 3904 N 360.656 0.0484629 -1.57525 0
M  V30 3905 C 361.933 0.777447 -1.79486 0
M  V30 3906 C 362.313 1.94597 -0.818251 0
M  V30 3907 O 361.661 2.28047 0.143767 0
M  V30 3908 C 361.871 1.22864 -3.26658 0
M  V30 3909 C 363.219 1.65251 -3.91123 0
M  V30 3910 O 364.243 1.32372 -3.3069 0
M  V30 3911 O 363.102 2.26207 -4.97486 0
M  V30 3912 H 360.196 0.374357 -0.737419 0
M  V30 3913 H 362.742 0.0267359 -1.69679 0
M  V30 3914 H 361.514 0.393589 -3.89316 0
M  V30 3915 H 361.137 2.03996 -3.41279 0
M  V30 3916 N 362.134 1.5431 0.320358 0
M  V30 3917 C 363.38 1.73859 1.05568 0
M  V30 3918 C 363.735 0.507807 1.85578 0
M  V30 3919 O 363.028 -0.499789 1.84967 0
M  V30 3920 C 363.222 2.95639 2.00828 0
M  V30 3921 C 363.051 4.30444 1.30186 0
M  V30 3922 C 361.821 4.94544 1.03703 0
M  V30 3923 C 364.019 5.0929 0.716138 0
M  V30 3924 N 362.001 6.13172 0.298846 0
M  V30 3925 C 363.372 6.19903 0.109729 0
M  V30 3926 C 365.427 4.94034 0.619269 0
M  V30 3927 C 364.13 7.16924 -0.584153 0
M  V30 3928 C 366.156 5.91369 -0.0609184 0
M  V30 3929 C 365.518 7.01336 -0.656258 0
M  V30 3930 H 361.617 0.688988 0.36989 0
M  V30 3931 H 364.201 1.9177 0.336494 0
M  V30 3932 H 362.372 2.79188 2.70016 0
M  V30 3933 H 364.104 3.03802 2.6737 0
M  V30 3934 H 360.859 4.54536 1.33019 0
M  V30 3935 H 361.283 6.76977 -0.0561964 0
M  V30 3936 H 365.925 4.0916 1.06526 0
M  V30 3937 H 363.643 8.01354 -1.04197 0
M  V30 3938 H 367.229 5.81642 -0.135552 0
M  V30 3939 H 366.109 7.75359 -1.17423 0
M  V30 3940 O 363.651 -0.466303 1.54622 0
M  V30 3941 H 364.342 -1.12058 1.57996 0
M  V30 END ATOM
M  V30 BEGIN BOND
M  V30 END BOND
M  V30 END CTAB
M  END
$$$$
