drugbank_target|P30085 UMP-CMP kinase (DB00441; DB03403; DB03435; DB03664; DB04444)
 OpenBabel12092119363D

  0  0  0     0  0            999 V3000
M  V30 BEGIN CTAB
M  V30 COUNTS 3122 3144 0 0 0
M  V30 BEGIN ATOM
M  V30 1 H -0.908 1.98254 -0.117106 0
M  V30 2 N 0 1.576 0 0
M  V30 3 C 0.933 2.03868 1.02534 0
M  V30 4 C 1.911 0.928543 1.3348 0
M  V30 5 O 3.095 1.19667 1.45644 0
M  V30 6 C 0.222 2.43627 2.35294 0
M  V30 7 C -0.732 3.65373 2.2001 0
M  V30 8 S 0.101 5.13292 1.52614 0
M  V30 9 C 1.257 5.56322 2.86805 0
M  V30 10 H 1.49 2.90518 0.631377 0
M  V30 11 H -0.977 1.52953 0.210867 0
M  V30 12 H 0.981 2.67203 3.11629 0
M  V30 13 H -0.358 1.57376 2.7183 0
M  V30 14 H -1.165 3.90944 3.18086 0
M  V30 15 H -1.563 3.418 1.51819 0
M  V30 16 H 0.729 5.58782 3.83104 0
M  V30 17 H 1.672 6.56266 2.65933 0
M  V30 18 H 2.08 4.83886 2.90714 0
M  V30 19 N 1.4781 -0.272755 1.55222 0
M  V30 20 C 2.4251 -1.33716 1.88119 0
M  V30 21 C 3.3951 -1.49066 0.73271 0
M  V30 22 O 4.5801 -1.63469 0.984002 0
M  V30 23 C 1.7201 -2.69238 2.15882 0
M  V30 24 C 0.8331 -2.62108 3.43399 0
M  V30 25 C -0.0319 -3.89811 3.60861 0
M  V30 26 C -0.9929 -3.77193 4.8207 0
M  V30 27 N -1.8559 -4.9673 4.96189 0
M  V30 28 H 2.9841 -1.04962 2.78903 0
M  V30 29 H 0.5211 -0.507088 1.38083 0
M  V30 30 H 2.4791 -3.48089 2.29978 0
M  V30 31 H 1.1091 -2.96194 1.28331 0
M  V30 32 H 0.1611 -1.74967 3.37773 0
M  V30 33 H 1.4731 -2.48685 4.32386 0
M  V30 34 H 0.6271 -4.77103 3.74777 0
M  V30 35 H -0.6339 -4.06102 2.7006 0
M  V30 36 H -1.6289 -2.88284 4.68159 0
M  V30 37 H -0.4039 -3.62421 5.74307 0
M  V30 38 H -2.4579 -5.13431 4.08319 0
M  V30 39 H -2.5409 -4.85839 5.79221 0
M  V30 40 H -1.2729 -5.85594 5.1449 0
M  V30 41 N 2.9562 -1.48159 -0.537278 0
M  V30 42 C 4.3672 -1.49429 -1.11928 0
M  V30 43 C 4.7182 -0.26 -1.9447 0
M  V30 44 O 3.8432 0.633489 -2.0692 0
M  V30 45 C 4.4382 -2.70758 -2.03656 0
M  V30 46 C 2.9972 -2.74923 -2.57088 0
M  V30 47 C 2.1442 -2.42835 -1.3389 0
M  V30 48 H 5.0952 -1.55381 -0.322886 0
M  V30 49 H 5.1162 -2.48861 -2.87834 0
M  V30 50 H 4.6282 -3.60575 -1.43553 0
M  V30 51 H 2.7292 -1.89296 -3.20933 0
M  V30 52 H 2.8422 -3.76157 -2.9672 0
M  V30 53 H 1.2062 -1.93836 -1.65226 0
M  V30 54 H 1.9892 -3.34884 -0.755504 0
M  V30 55 N 4.4343 0.785586 -1.36625 0
M  V30 56 C 5.3643 1.91259 -1.33949 0
M  V30 57 C 6.3453 1.68795 -0.210325 0
M  V30 58 O 7.5303 1.89854 -0.408561 0
M  V30 59 C 4.6603 3.28339 -1.13186 0
M  V30 60 C 3.6143 3.65335 -2.22967 0
M  V30 61 C 2.9403 5.00806 -1.87342 0
M  V30 62 C 4.2403 3.7352 -3.65075 0
M  V30 63 H 5.9343 1.93755 -2.28253 0
M  V30 64 H 3.4803 0.930788 -1.09874 0
M  V30 65 H 5.4333 4.06804 -1.09948 0
M  V30 66 H 4.1573 3.2624 -0.153332 0
M  V30 67 H 2.8163 2.89169 -2.25337 0
M  V30 68 H 2.4643 4.95233 -0.880545 0
M  V30 69 H 2.1643 5.26529 -2.60846 0
M  V30 70 H 3.6883 5.81687 -1.85667 0
M  V30 71 H 5.1023 4.42168 -3.64911 0
M  V30 72 H 3.4993 4.10731 -4.37516 0
M  V30 73 H 4.5693 2.74527 -3.99703 0
M  V30 74 N 5.9124 1.20967 1.01018 0
M  V30 75 C 7.1584 1.02526 1.74975 0
M  V30 76 C 7.4914 -0.4408 1.89131 0
M  V30 77 O 6.7664 -1.32718 1.42184 0
M  V30 78 C 7.0494 1.71699 3.1653 0
M  V30 79 C 6.9024 3.25791 3.10129 0
M  V30 80 C 8.2214 1.45531 4.15342 0
M  V30 81 H 5.3404 0.373863 0.635134 0
M  V30 82 H 7.9824 1.49071 1.17805 0
M  V30 83 H 6.1324 1.32128 3.65341 0
M  V30 84 H 7.8044 3.74697 2.69072 0
M  V30 85 H 6.0474 3.56363 2.47362 0
M  V30 86 H 6.7184 3.69353 4.10222 0
M  V30 87 H 9.1944 1.79872 3.75213 0
M  V30 88 H 8.0704 1.96453 5.1254 0
M  V30 89 H 8.3314 0.384237 4.40427 0
M  V30 90 N 7.3905 -1.2043 1.01659 0
M  V30 91 C 8.6365 -1.90079 0.706963 0
M  V30 92 C 8.9695 -1.78648 -0.761474 0
M  V30 93 O 8.2445 -1.17069 -1.55323 0
M  V30 94 C 8.5275 -3.41469 1.14327 0
M  V30 95 C 8.3805 -3.61833 2.67201 0
M  V30 96 C 9.6995 -4.34261 0.714529 0
M  V30 97 H 6.8185 -0.690254 0.2583 0
M  V30 98 H 9.4605 -1.41826 1.26433 0
M  V30 99 H 7.6105 -3.82696 0.669056 0
M  V30 100 H 9.2825 -3.2986 3.22475 0
M  V30 101 H 7.5255 -3.05304 3.08175 0
M  V30 102 H 8.1965 -4.67955 2.92783 0
M  V30 103 H 10.6725 -4.00682 1.12221 0
M  V30 104 H 9.5485 -5.38806 1.04784 0
M  V30 105 H 9.8095 -4.40431 -0.383799 0
M  V30 106 N 8.8686 -0.792821 -1.36206 0
M  V30 107 C 10.1156 -0.366786 -1.99151 0
M  V30 108 C 10.4436 1.06243 -1.62919 0
M  V30 109 O 9.6986 1.74927 -0.877442 0
M  V30 110 C 9.9976 -0.481501 -3.54142 0
M  V30 111 C 9.6636 -1.87202 -4.10203 0
M  V30 112 C 8.3256 -2.25248 -4.25226 0
M  V30 113 C 10.6776 -2.78237 -4.40719 0
M  V30 114 C 8.0056 -3.53723 -4.68078 0
M  V30 115 C 10.3576 -4.06144 -4.85005 0
M  V30 116 C 9.0216 -4.44207 -4.98234 0
M  V30 117 H 8.2916 -0.134217 -0.728743 0
M  V30 118 H 10.9386 -1.01094 -1.62641 0
M  V30 119 H 9.2436 0.246146 -3.91026 0
M  V30 120 H 10.9406 -0.132844 -4.0078 0
M  V30 121 H 7.5306 -1.56639 -3.98951 0
M  V30 122 H 11.7146 -2.50097 -4.28679 0
M  V30 123 H 6.9706 -3.8308 -4.76508 0
M  V30 124 H 11.1446 -4.76796 -5.07581 0
M  V30 125 H 8.7716 -5.43814 -5.31197 0
M  V30 126 N 10.3467 1.47872 -0.545128 0
M  V30 127 C 11.5927 2.02793 -0.0166104 0
M  V30 128 C 11.9257 1.41987 1.32489 0
M  V30 129 O 11.2007 0.571045 1.85928 0
M  V30 130 C 11.4837 3.59989 0.0893294 0
M  V30 131 C 11.3367 4.3125 -1.27841 0
M  V30 132 C 12.6557 4.32606 0.808724 0
M  V30 133 H 9.7747 0.736962 -0.00751035 0
M  V30 134 H 12.4167 1.76433 -0.705085 0
M  V30 135 H 10.5667 3.82579 0.675681 0
M  V30 136 H 12.2387 4.20035 -1.90704 0
M  V30 137 H 10.4817 3.92076 -1.85632 0
M  V30 138 H 11.1527 5.39736 -1.15713 0
M  V30 139 H 13.6287 4.14936 0.310992 0
M  V30 140 H 12.5047 5.42251 0.851782 0
M  V30 141 H 12.7657 4.00963 1.86229 0
M  V30 142 N 11.8248 0.280983 1.55075 0
M  V30 143 C 12.7548 -0.597469 2.25727 0
M  V30 144 C 13.7358 -1.15417 1.24952 0
M  V30 145 O 14.9208 -1.18722 1.53684 0
M  V30 146 C 12.0508 -1.7789 2.98283 0
M  V30 147 C 11.0048 -1.35347 4.06036 0
M  V30 148 C 10.3308 -2.61846 4.66198 0
M  V30 149 C 11.6308 -0.499354 5.19907 0
M  V30 150 H 13.3248 -0.00824265 2.99399 0
M  V30 151 H 10.8708 -0.0025244 1.44 0
M  V30 152 H 12.8238 -2.39937 3.46422 0
M  V30 153 H 11.5478 -2.39405 2.22155 0
M  V30 154 H 10.2068 -0.756156 3.58717 0
M  V30 155 H 9.8548 -3.21632 3.86732 0
M  V30 156 H 9.5548 -2.3409 5.38958 0
M  V30 157 H 11.0788 -3.24732 5.1709 0
M  V30 158 H 12.4928 -1.02498 5.64063 0
M  V30 159 H 10.8898 -0.316424 5.99265 0
M  V30 160 H 11.9598 0.480459 4.82514 0
M  V30 161 N 13.3029 -1.57598 0.00835791 0
M  V30 162 C 14.5509 -1.90551 -0.6734 0
M  V30 163 C 14.8719 -0.883301 -1.73847 0
M  V30 164 O 14.1419 0.0781442 -1.95744 0
M  V30 165 H 12.7219 -0.703312 -0.251717 0
M  V30 166 H 15.3839 -1.94833 0.0512592 0
M  V30 167 H 14.4799 -2.9056 -1.13935 0
M  V30 168 N 14.781 0.264519 -1.55364 0
M  V30 169 C 16.029 0.993021 -1.76021 0
M  V30 170 C 16.35 1.86511 -0.569099 0
M  V30 171 O 15.62 1.91438 0.415735 0
M  V30 172 H 14.2 0.369639 -0.649135 0
M  V30 173 H 16.862 0.286707 -1.9278 0
M  V30 174 H 15.958 1.62502 -2.66457 0
M  V30 175 N 16.2591 1.48442 0.529413 0
M  V30 176 C 17.6701 1.5002 1.11134 0
M  V30 177 C 18.0211 0.27031 1.94329 0
M  V30 178 O 17.1461 -0.622507 2.07253 0
M  V30 179 C 17.7411 2.71834 2.02217 0
M  V30 180 C 16.3001 2.76283 2.55627 0
M  V30 181 C 15.4471 2.43542 1.326 0
M  V30 182 H 18.3981 1.5555 0.314641 0
M  V30 183 H 18.4191 2.50384 2.8651 0
M  V30 184 H 17.9311 3.61331 1.41639 0
M  V30 185 H 16.0321 1.90995 3.19924 0
M  V30 186 H 16.1451 3.77725 2.94721 0
M  V30 187 H 14.5091 1.94709 1.64196 0
M  V30 188 H 15.2921 3.3528 0.737734 0
M  V30 189 N 17.7372 -0.778329 1.37039 0
M  V30 190 C 18.9852 -1.53361 1.31623 0
M  V30 191 C 19.3062 -1.94739 -0.100831 0
M  V30 192 O 18.5762 -1.65797 -1.04347 0
M  V30 193 H 17.1562 -0.568794 0.484234 0
M  V30 194 H 19.8182 -0.926742 1.71457 0
M  V30 195 H 18.9142 -2.43606 1.95096 0
M  V30 196 N 19.2153 -1.21501 -1.00376 0
M  V30 197 C 20.1783 -0.976927 -2.07337 0
M  V30 198 C 21.1783 0.0525322 -1.60714 0
M  V30 199 O 22.3683 -0.184869 -1.73216 0
M  V30 200 C 19.5003 -0.473423 -3.37597 0
M  V30 201 H 20.6933 -1.92587 -2.29892 0
M  V30 202 H 18.2463 -1.03217 -1.17371 0
M  V30 203 H 18.9813 0.480379 -3.20722 0
M  V30 204 H 18.7663 -1.216 -3.72768 0
M  V30 205 H 20.2563 -0.32675 -4.1632 0
M  V30 206 N 20.6934 1.19889 -1.02296 0
M  V30 207 C 21.9414 1.89046 -0.714558 0
M  V30 208 C 22.2624 1.79636 0.758681 0
M  V30 209 O 21.5324 1.20292 1.54618 0
M  V30 210 H 20.1124 0.699802 -0.261317 0
M  V30 211 H 22.7744 1.45574 -1.29592 0
M  V30 212 H 21.8704 2.95524 -1.0036 0
M  V30 213 N 22.1715 0.800033 1.35784 0
M  V30 214 C 23.1185 0.203848 2.29898 0
M  V30 215 C 24.0885 -0.658375 1.52495 0
M  V30 216 O 25.2735 -0.604832 1.8096 0
M  V30 217 C 22.4135 -0.64688 3.38983 0
M  V30 218 C 21.5265 0.235054 4.3136 0
M  V30 219 C 20.6615 -0.623054 5.27533 0
M  V30 220 C 19.7005 0.259682 6.11549 0
M  V30 221 N 18.8375 -0.558019 6.99879 0
M  V30 222 H 23.6775 1.01186 2.80295 0
M  V30 223 H 21.2145 0.51053 1.37957 0
M  V30 224 H 23.1725 -1.15521 4.00887 0
M  V30 225 H 21.8025 -1.42021 2.89879 0
M  V30 226 H 20.8545 0.861438 3.70518 0
M  V30 227 H 22.1665 0.914768 4.9034 0
M  V30 228 H 21.3205 -1.19678 5.94779 0
M  V30 229 H 20.0595 -1.33636 4.69034 0
M  V30 230 H 19.0645 0.845726 5.43256 0
M  V30 231 H 20.2895 0.970748 6.72126 0
M  V30 232 H 18.2355 -1.25542 6.43875 0
M  V30 233 H 18.1525 0.0637872 7.55973 0
M  V30 234 H 19.4205 -1.11523 7.71481 0
M  V30 235 N 23.6496 -1.47581 0.552962 0
M  V30 236 C 24.8976 -2.02082 0.0272703 0
M  V30 237 C 25.2186 -1.4301 -1.32563 0
M  V30 238 O 24.4886 -0.603745 -1.86365 0
M  V30 239 H 23.0686 -0.746966 0.00709182 0
M  V30 240 H 25.7306 -1.81033 0.722008 0
M  V30 241 H 24.8266 -3.12034 -0.0639951 0
M  V30 242 N 25.1277 -0.289203 -1.54924 0
M  V30 243 C 26.3557 0.326463 -2.04308 0
M  V30 244 C 26.7707 1.48413 -1.16701 0
M  V30 245 O 26.1277 1.81507 -0.190087 0
M  V30 246 C 26.1787 0.794014 -3.52672 0
M  V30 247 O 25.8997 -0.317564 -4.36948 0
M  V30 248 C 27.4007 1.47605 -4.18004 0
M  V30 249 H 24.6207 0.0726272 -0.667058 0
M  V30 250 H 27.1647 -0.425401 -2.00026 0
M  V30 251 H 25.3197 1.49593 -3.57352 0
M  V30 252 H 25.7337 0.0443186 -5.24481 0
M  V30 253 H 27.2077 1.75447 -5.23376 0
M  V30 254 H 27.6847 2.41224 -3.67025 0
M  V30 255 H 28.2907 0.81762 -4.17367 0
M  V30 256 N 26.6058 1.57591 -0.0167156 0
M  V30 257 C 27.5378 2.06343 0.997753 0
M  V30 258 C 28.5508 0.984469 1.29661 0
M  V30 259 O 29.7398 1.26093 1.26344 0
M  V30 260 C 26.8398 2.46255 2.32834 0
M  V30 261 C 26.0128 3.77083 2.21646 0
M  V30 262 C 25.0718 4.0368 3.37534 0
M  V30 263 O 24.0978 4.7411 3.14973 0
M  V30 264 N 25.2998 3.52881 4.60929 0
M  V30 265 H 28.0648 2.93997 0.581875 0
M  V30 266 H 25.6258 1.61002 0.170316 0
M  V30 267 H 27.6178 2.61149 3.09166 0
M  V30 268 H 26.1878 1.64032 2.66106 0
M  V30 269 H 25.4078 3.72106 1.30119 0
M  V30 270 H 26.6958 4.62822 2.11361 0
M  V30 271 H 26.0938 2.95878 4.82154 0
M  V30 272 H 24.6508 3.73076 5.34469 0
M  V30 273 N 28.0839 -0.256276 1.55502 0
M  V30 274 C 29.3239 -0.993081 1.78654 0
M  V30 275 C 29.6879 -1.8288 0.584724 0
M  V30 276 O 30.8889 -2.59665 0.694822 0
M  V30 277 C 29.1599 -1.83856 3.06483 0
M  V30 278 S 30.7189 -2.63573 3.5082 0
M  V30 279 H 27.5369 -0.334199 0.62756 0
M  V30 280 H 30.1389 -0.26184 1.93739 0
M  V30 281 H 28.8429 -1.21414 3.92029 0
M  V30 282 H 28.3739 -2.61271 2.94111 0
M  V30 283 H 30.3889 -3.86312 3.11412 0
M  V30 284 N 29.562 -1.4872 -0.521534 0
M  V30 285 C 30.525 -1.63379 -1.60748 0
M  V30 286 C 31.525 -0.50661 -1.52611 0
M  V30 287 O 32.715 -0.772601 -1.5613 0
M  V30 288 C 29.847 -1.61192 -3.00383 0
M  V30 289 H 31.04 -2.60217 -1.49087 0
M  V30 290 H 28.593 -1.37444 -0.744235 0
M  V30 291 H 29.328 -0.65863 -3.17541 0
M  V30 292 H 29.113 -2.43032 -3.07698 0
M  V30 293 H 30.603 -1.7466 -3.7932 0
M  V30 294 N 31.0401 0.771051 -1.3745 0
M  V30 295 C 32.4561 1.07171 -1.18265 0
M  V30 296 C 32.6561 2.01491 -0.019287 0
M  V30 297 O 31.7121 2.44244 0.640408 0
M  V30 298 C 33.0251 1.66854 -2.50161 0
M  V30 299 C 34.5731 1.79109 -2.56689 0
M  V30 300 C 35.0481 2.42205 -3.88717 0
M  V30 301 N 36.5391 2.49655 -3.90162 0
M  V30 302 C 37.2741 2.9933 -4.8907 0
M  V30 303 N 36.7701 3.49172 -5.98374 0
M  V30 304 N 38.5631 2.9821 -4.76474 0
M  V30 305 H 30.7141 0.144796 -2.11906 0
M  V30 306 H 32.9771 0.126863 -0.939473 0
M  V30 307 H 32.6831 1.05017 -3.35655 0
M  V30 308 H 32.5571 2.6614 -2.673 0
M  V30 309 H 34.9441 2.40077 -1.71601 0
M  V30 310 H 35.0251 0.785757 -2.43433 0
M  V30 311 H 34.6691 1.81875 -4.74219 0
M  V30 312 H 34.5991 3.43345 -3.99276 0
M  V30 313 H 37.0901 2.14383 -3.11205 0
M  V30 314 H 37.4031 3.8548 -6.69795 0
M  V30 315 H 35.7481 3.47275 -6.02018 0
M  V30 316 H 38.9391 2.58572 -3.90203 0
M  V30 317 H 39.1121 3.36613 -5.53711 0
M  V30 318 N 32.5182 1.22032 0.997298 0
M  V30 319 C 33.7672 1.03637 1.73038 0
M  V30 320 C 34.0802 -0.429475 1.90827 0
M  V30 321 O 35.2862 -0.732995 2.61418 0
M  V30 322 C 33.7422 1.80582 3.11317 0
M  V30 323 C 33.3502 3.31387 3.01474 0
M  V30 324 C 35.0942 1.70621 3.88701 0
M  V30 325 C 33.0012 4.00791 4.3488 0
M  V30 326 H 31.9312 0.384179 0.648785 0
M  V30 327 H 34.5822 1.4584 1.11368 0
M  V30 328 H 32.9642 1.31175 3.73643 0
M  V30 329 H 34.1382 3.88155 2.4834 0
M  V30 330 H 32.4532 3.41976 2.37575 0
M  V30 331 H 35.0502 2.19799 4.87434 0
M  V30 332 H 35.3932 0.665823 4.10941 0
M  V30 333 H 35.9262 2.17547 3.33044 0
M  V30 334 H 32.6652 5.05064 4.1784 0
M  V30 335 H 32.1852 3.48811 4.87945 0
M  V30 336 H 33.8642 4.06139 5.03647 0
M  V30 337 N 33.9963 -1.19345 1.0293 0
M  V30 338 C 35.2423 -1.89318 0.727083 0
M  V30 339 C 35.5753 -1.79446 -0.742483 0
M  V30 340 O 34.8503 -1.1871 -1.54072 0
M  V30 341 C 35.1333 -3.40238 1.17942 0
M  V30 342 C 34.9863 -3.58979 2.71024 0
M  V30 343 C 36.3053 -4.33479 0.760548 0
M  V30 344 H 33.4243 -0.687475 0.265606 0
M  V30 345 H 36.0663 -1.40477 1.2793 0
M  V30 346 H 34.2163 -3.81964 0.709608 0
M  V30 347 H 35.8883 -3.26421 3.25955 0
M  V30 348 H 34.1313 -3.02018 3.11396 0
M  V30 349 H 34.8023 -4.64823 2.9773 0
M  V30 350 H 37.2783 -3.99469 1.16464 0
M  V30 351 H 36.1543 -5.37664 1.10493 0
M  V30 352 H 36.4153 -4.40813 -0.337063 0
M  V30 353 N 35.4744 -0.807222 -1.35358 0
M  V30 354 C 36.3844 -0.219594 -2.3357 0
M  V30 355 C 37.4004 0.637734 -1.61892 0
M  V30 356 O 38.5764 0.549336 -1.93763 0
M  V30 357 C 35.6414 0.62158 -3.41083 0
M  V30 358 C 34.7024 -0.256315 -4.28534 0
M  V30 359 C 33.9354 0.544807 -5.30912 0
M  V30 360 O 34.1584 1.77944 -5.41934 0
M  V30 361 O 33.0924 -0.0646478 -6.01865 0
M  V30 362 H 36.9184 -1.03208 -2.85625 0
M  V30 363 H 34.5034 -0.569025 -1.38139 0
M  V30 364 H 36.3854 1.10067 -4.06772 0
M  V30 365 H 35.0604 1.41165 -2.91297 0
M  V30 366 H 33.9674 -0.782559 -3.65823 0
M  V30 367 H 35.3004 -1.01034 -4.81719 0
M  V30 368 N 36.9525 1.47285 -0.560781 0
M  V30 369 C 37.8995 2.30058 0.18491 0
M  V30 370 C 38.8695 1.39281 0.904986 0
M  V30 371 O 40.0545 1.68241 0.899979 0
M  V30 372 C 37.1945 3.23317 1.20666 0
M  V30 373 C 36.3075 4.29186 0.492285 0
M  V30 374 C 35.4425 5.09592 1.49964 0
M  V30 375 C 34.4815 6.07232 0.770439 0
M  V30 376 N 33.6185 6.80584 1.72479 0
M  V30 377 H 38.4585 2.93302 -0.527048 0
M  V30 378 H 35.9955 1.44568 -0.271738 0
M  V30 379 H 37.9535 3.75811 1.81168 0
M  V30 380 H 36.5835 2.61929 1.88661 0
M  V30 381 H 35.6355 3.7972 -0.227333 0
M  V30 382 H 36.9475 4.98738 -0.0787929 0
M  V30 383 H 36.1015 5.66254 2.17809 0
M  V30 384 H 34.8405 4.3995 2.10464 0
M  V30 385 H 33.8455 5.49745 0.0780846 0
M  V30 386 H 35.0705 6.78884 0.171134 0
M  V30 387 H 33.0165 6.1367 2.3183 0
M  V30 388 H 32.9335 7.46319 1.20596 0
M  V30 389 H 34.2015 7.41818 2.39428 0
M  V30 390 N 38.4306 0.297415 1.54768 0
M  V30 391 C 39.6606 -0.315165 2.04182 0
M  V30 392 C 40.0686 -1.4834 1.17439 0
M  V30 393 O 39.4116 -1.82695 0.191891 0
M  V30 394 C 39.4736 -0.837583 3.49607 0
M  V30 395 C 39.1376 0.204912 4.5654 0
M  V30 396 C 40.1346 1.03214 5.09552 0
M  V30 397 C 37.8196 0.345578 5.0111 0
M  V30 398 C 39.8136 1.986 6.05671 0
M  V30 399 C 37.5006 1.30289 5.97049 0
M  V30 400 C 38.4986 2.12159 6.49213 0
M  V30 401 O 38.1866 3.06268 7.43273 0
M  V30 402 H 37.9186 -0.0729646 0.672051 0
M  V30 403 H 40.4726 0.433907 2.00765 0
M  V30 404 H 38.7026 -1.63712 3.50336 0
M  V30 405 H 40.3916 -1.36566 3.82236 0
M  V30 406 H 41.1576 0.934312 4.75916 0
M  V30 407 H 37.0366 -0.28171 4.60138 0
M  V30 408 H 40.5806 2.62542 6.46311 0
M  V30 409 H 36.4776 1.40145 6.30103 0
M  V30 410 H 37.2456 3.01205 7.61064 0
M  V30 411 N 39.9087 -1.5758 0.0250728 0
M  V30 412 C 41.1567 -1.91255 -0.653151 0
M  V30 413 C 41.4777 -0.901691 -1.729 0
M  V30 414 O 40.7477 0.0573785 -1.95816 0
M  V30 415 H 39.3277 -0.705942 -0.244243 0
M  V30 416 H 41.9897 -1.94767 0.0719209 0
M  V30 417 H 41.0857 -2.91752 -1.10847 0
M  V30 418 N 41.3868 0.248026 -1.55636 0
M  V30 419 C 42.6168 0.992367 -1.81206 0
M  V30 420 C 43.0248 1.7949 -0.598324 0
M  V30 421 O 42.3678 1.78292 0.442434 0
M  V30 422 C 42.4298 1.97926 -3.00109 0
M  V30 423 C 42.0938 1.36377 -4.36177 0
M  V30 424 C 43.0908 0.76682 -5.14214 0
M  V30 425 C 40.7758 1.38347 -4.82872 0
M  V30 426 C 42.7698 0.197778 -6.37093 0
M  V30 427 C 40.4568 0.810574 -6.057 0
M  V30 428 C 41.4548 0.218754 -6.8265 0
M  V30 429 O 41.1428 -0.345298 -8.03158 0
M  V30 430 H 40.8748 0.297704 -0.606917 0
M  V30 431 H 43.4288 0.276517 -2.0353 0
M  V30 432 H 41.6588 2.73339 -2.73538 0
M  V30 433 H 43.3478 2.58694 -3.12781 0
M  V30 434 H 44.1138 0.744114 -4.79258 0
M  V30 435 H 39.9928 1.8335 -4.2297 0
M  V30 436 H 43.5368 -0.264788 -6.97097 0
M  V30 437 H 39.4338 0.830604 -6.40134 0
M  V30 438 H 40.2018 -0.237055 -8.18157 0
M  V30 439 N 42.8649 1.48995 0.513639 0
M  V30 440 C 44.0929 1.61531 1.29288 0
M  V30 441 C 44.5079 0.281801 1.86685 0
M  V30 442 O 43.8649 -0.731111 1.67215 0
M  V30 443 C 43.9159 2.67449 2.43215 0
M  V30 444 O 43.6369 3.95626 1.88179 0
M  V30 445 C 45.1379 2.90575 3.34785 0
M  V30 446 H 42.3579 0.544165 0.392588 0
M  V30 447 H 44.9019 1.9494 0.617956 0
M  V30 448 H 43.0569 2.36853 3.0656 0
M  V30 449 H 43.4709 4.53868 2.62876 0
M  V30 450 H 44.9449 3.68449 4.11035 0
M  V30 451 H 45.4219 2.00011 3.91015 0
M  V30 452 H 46.0279 3.22538 2.77218 0
M  V30 453 N 44.343 -0.763751 1.37857 0
M  V30 454 C 45.293 -1.86765 1.30777 0
M  V30 455 C 46.277 -1.59726 0.194015 0
M  V30 456 O 47.469 -1.7172 0.42911 0
M  V30 457 C 44.598 -3.24343 1.12502 0
M  V30 458 C 43.684 -3.57307 2.28456 0
M  V30 459 N 44.075 -3.61398 3.53871 0
M  V30 460 C 42.373 -3.87517 2.20786 0
M  V30 461 C 43.074 -3.91339 4.30382 0
M  V30 462 N 42.05 -4.07649 3.59615 0
M  V30 463 H 45.852 -1.88191 2.25746 0
M  V30 464 H 43.366 -0.9606 1.30944 0
M  V30 465 H 45.363 -4.03327 1.05514 0
M  V30 466 H 44.023 -3.24175 0.184574 0
M  V30 467 H 45.034 -3.43407 3.87675 0
M  V30 468 H 41.711 -3.95125 1.34844 0
M  V30 469 H 43.101 -4.01213 5.3896 0
M  V30 470 N 45.8211 -1.22559 -0.990812 0
M  V30 471 C 46.7511 -1.0218 -2.09956 0
M  V30 472 C 47.7321 0.0579394 -1.70001 0
M  V30 473 O 48.9171 -0.104684 -1.93918 0
M  V30 474 C 46.0471 -0.601023 -3.4206 0
M  V30 475 C 45.0011 -1.62694 -3.95872 0
M  V30 476 C 44.3271 -1.06193 -5.24049 0
M  V30 477 C 45.6271 -3.01743 -4.2632 0
M  V30 478 H 47.3211 -1.94916 -2.27262 0
M  V30 479 H 44.8671 -0.938566 -1.09211 0
M  V30 480 H 46.8201 -0.445561 -4.19038 0
M  V30 481 H 45.5441 0.362005 -3.24588 0
M  V30 482 H 44.2031 -1.77021 -3.21028 0
M  V30 483 H 43.8511 -0.0901903 -5.02919 0
M  V30 484 H 43.5511 -1.74732 -5.61019 0
M  V30 485 H 45.0751 -0.918092 -6.03658 0
M  V30 486 H 46.4891 -2.90777 -4.94087 0
M  V30 487 H 44.8861 -3.67425 -4.74467 0
M  V30 488 H 45.9561 -3.51518 -3.34011 0
M  V30 489 N 47.2992 1.18797 -1.03562 0
M  V30 490 C 48.5242 1.9314 -0.755764 0
M  V30 491 C 48.9492 1.7537 0.68022 0
M  V30 492 O 48.3072 1.06046 1.47051 0
M  V30 493 C 48.3552 3.42747 -1.12058 0
M  V30 494 O 47.4592 4.11683 -0.243124 0
M  V30 495 H 46.8002 0.602724 -0.278604 0
M  V30 496 H 49.3302 1.50678 -1.3841 0
M  V30 497 H 49.3402 3.93437 -1.08035 0
M  V30 498 H 48.0152 3.55002 -2.16672 0
M  V30 499 H 46.5922 3.71323 -0.342539 0
M  V30 500 N 48.7773 0.814389 1.34928 0
M  V30 501 C 49.7403 0.235759 2.27984 0
M  V30 502 C 50.7403 -0.581412 1.49921 0
M  V30 503 O 51.9303 -0.398758 1.69575 0
M  V30 504 C 49.0623 -0.670433 3.34242 0
M  V30 505 H 50.2553 1.05659 2.80671 0
M  V30 506 H 47.8083 0.585614 1.44915 0
M  V30 507 H 48.5433 -1.51466 2.86755 0
M  V30 508 H 48.3283 -0.0860822 3.92005 0
M  V30 509 H 49.8183 -1.06935 4.03676 0
M  V30 510 N 50.2554 -1.46986 0.568584 0
M  V30 511 C 51.5034 -2.02041 0.0487022 0
M  V30 512 C 51.8244 -1.44408 -1.31039 0
M  V30 513 O 51.0944 -0.623477 -1.85714 0
M  V30 514 H 49.6744 -0.746849 0.015014 0
M  V30 515 H 52.3364 -1.80257 0.741168 0
M  V30 516 H 51.4324 -3.12085 -0.0308961 0
M  V30 517 N 51.7335 -0.305618 -1.54608 0
M  V30 518 C 52.6435 0.57778 -2.27374 0
M  V30 519 C 53.6595 1.14451 -1.31061 0
M  V30 520 O 54.8355 1.16831 -1.6405 0
M  V30 521 C 51.9005 1.73123 -3.00382 0
M  V30 522 C 50.9615 1.19812 -4.12242 0
M  V30 523 C 50.1945 2.2966 -4.81759 0
M  V30 524 O 50.4175 3.49651 -4.50666 0
M  V30 525 O 49.3515 1.96091 -5.69062 0
M  V30 526 H 53.1775 -0.012624 -3.03697 0
M  V30 527 H 50.7625 -0.0719184 -1.49227 0
M  V30 528 H 52.6445 2.40315 -3.4616 0
M  V30 529 H 51.3195 2.30815 -2.26949 0
M  V30 530 H 50.2265 0.491798 -3.70853 0
M  V30 531 H 51.5595 0.666566 -4.87666 0
M  V30 532 N 53.2116 1.57565 -0.0334293 0
M  V30 533 C 54.1416 2.13511 0.945265 0
M  V30 534 C 55.1226 1.05231 1.33643 0
M  V30 535 O 56.3076 1.33084 1.41429 0
M  V30 536 C 53.4376 2.6657 2.22616 0
M  V30 537 C 52.3916 3.79676 1.97561 0
M  V30 538 C 51.7176 4.1918 3.31952 0
M  V30 539 C 53.0176 5.0557 1.31135 0
M  V30 540 H 54.7116 2.95538 0.479325 0
M  V30 541 H 52.2576 1.42166 0.229115 0
M  V30 542 H 54.2106 3.04344 2.91466 0
M  V30 543 H 52.9346 1.8171 2.71384 0
M  V30 544 H 51.5936 3.42347 1.31127 0
M  V30 545 H 51.2416 3.31296 3.78487 0
M  V30 546 H 50.9416 4.95402 3.15992 0
M  V30 547 H 52.4656 4.59541 4.02063 0
M  V30 548 H 53.8796 5.40903 1.89992 0
M  V30 549 H 52.2766 5.86818 1.25559 0
M  V30 550 H 53.3466 4.84062 0.284894 0
M  V30 551 N 54.6897 -0.239769 1.55765 0
M  V30 552 C 55.6197 -1.30052 1.9393 0
M  V30 553 C 56.6007 -1.49839 0.805132 0
M  V30 554 O 57.7857 -1.62328 1.06599 0
M  V30 555 C 54.9157 -2.65391 2.2402 0
M  V30 556 C 53.8697 -2.60289 3.39755 0
M  V30 557 C 53.1957 -3.99489 3.55405 0
M  V30 558 C 54.4957 -2.16654 4.75246 0
M  V30 559 H 56.1897 -0.983573 2.82783 0
M  V30 560 H 53.7357 -0.471701 1.36055 0
M  V30 561 H 55.6887 -3.3974 2.49308 0
M  V30 562 H 54.4127 -2.98736 1.32 0
M  V30 563 H 53.0717 -1.88398 3.14487 0
M  V30 564 H 52.7197 -4.30112 2.60793 0
M  V30 565 H 52.4197 -3.96962 4.33238 0
M  V30 566 H 53.9437 -4.75528 3.83022 0
M  V30 567 H 55.3577 -2.80737 4.99859 0
M  V30 568 H 53.7547 -2.25223 5.56232 0
M  V30 569 H 54.8247 -1.11835 4.71827 0
M  V30 570 N 56.1678 -1.49265 -0.50573 0
M  V30 571 C 57.5838 -1.35923 -0.836486 0
M  V30 572 C 57.7838 -0.388704 -1.97715 0
M  V30 573 O 56.8398 0.181336 -2.51848 0
M  V30 574 C 58.1528 -2.76531 -1.18115 0
M  V30 575 C 59.7008 -2.85197 -1.28964 0
M  V30 576 C 60.1758 -4.26561 -1.66761 0
M  V30 577 N 61.6668 -4.2935 -1.73819 0
M  V30 578 C 62.4018 -5.35693 -2.045 0
M  V30 579 N 61.8978 -6.52287 -2.33438 0
M  V30 580 N 63.6908 -5.23105 -2.05711 0
M  V30 581 H 55.8418 -2.10965 0.246519 0
M  V30 582 H 58.1048 -0.9468 0.0476887 0
M  V30 583 H 57.8108 -3.49226 -0.416398 0
M  V30 584 H 57.6848 -3.11599 -2.1257 0
M  V30 585 H 60.0718 -2.12742 -2.04511 0
M  V30 586 H 60.1528 -2.53718 -0.325704 0
M  V30 587 H 59.7968 -4.99541 -0.917656 0
M  V30 588 H 59.7268 -4.55502 -2.64246 0
M  V30 589 H 62.2178 -3.4526 -1.53635 0
M  V30 590 H 62.5308 -7.29158 -2.56024 0
M  V30 591 H 60.8758 -6.55521 -2.30905 0
M  V30 592 H 64.0668 -4.31026 -1.82577 0
M  V30 593 H 64.2398 -6.06078 -2.29289 0
M  V30 594 N 57.6459 0.756429 -1.3826 0
M  V30 595 C 58.9229 1.50584 -1.24835 0
M  V30 596 C 59.3029 2.10556 0.151485 0
M  V30 597 O 58.6509 1.96825 1.1607 0
M  V30 598 C 58.8609 2.57448 -2.3563 0
M  V30 599 C 60.2089 3.24429 -2.73917 0
M  V30 600 O 61.2329 2.67751 -2.34921 0
M  V30 601 O 60.0919 4.26937 -3.41156 0
M  V30 602 H 57.1859 0.667664 -0.48801 0
M  V30 603 H 59.7319 0.792083 -1.5008 0
M  V30 604 H 58.5039 2.11362 -3.29305 0
M  V30 605 H 58.1269 3.36408 -2.11933 0
M  V30 606 N 59.124 1.23083 0.984299 0
M  V30 607 C 60.034 1.02515 2.11016 0
M  V30 608 C 61.05 -0.0291702 1.73976 0
M  V30 609 O 62.226 0.165434 2.00719 0
M  V30 610 C 59.291 0.614673 3.41208 0
M  V30 611 C 58.352 1.74359 3.92297 0
M  V30 612 C 57.585 1.35261 5.16275 0
M  V30 613 O 57.808 0.235136 5.69915 0
M  V30 614 O 56.742 2.17227 5.61334 0
M  V30 615 H 60.568 1.96862 2.31255 0
M  V30 616 H 58.153 1.01753 1.09392 0
M  V30 617 H 60.035 0.396518 4.1953 0
M  V30 618 H 58.71 -0.299851 3.22308 0
M  V30 619 H 57.617 2.01635 3.1511 0
M  V30 620 H 58.95 2.63629 4.15645 0
M  V30 621 N 60.6021 -1.18246 1.0419 0
M  V30 622 C 62.0181 -1.40269 0.761366 0
M  V30 623 C 62.2181 -1.90777 -0.648578 0
M  V30 624 O 61.2741 -2.0929 -1.41258 0
M  V30 625 C 62.5871 -2.40237 1.8085 0
M  V30 626 C 64.1351 -2.53961 1.82955 0
M  V30 627 C 64.6101 -3.57194 2.86664 0
M  V30 628 N 66.1011 -3.64702 2.85563 0
M  V30 629 C 66.8361 -4.44309 3.6246 0
M  V30 630 N 66.3321 -5.27514 4.49111 0
M  V30 631 N 68.1251 -4.39084 3.50944 0
M  V30 632 H 60.2761 -0.837882 1.95175 0
M  V30 633 H 62.5391 -0.430608 0.84456 0
M  V30 634 H 62.2451 -2.10176 2.81991 0
M  V30 635 H 62.1191 -3.39601 1.64168 0
M  V30 636 H 64.5061 -2.83338 0.824855 0
M  V30 637 H 64.5871 -1.54706 2.03715 0
M  V30 638 H 64.2311 -3.28558 3.87314 0
M  V30 639 H 64.1611 -4.5613 2.6316 0
M  V30 640 H 66.6521 -3.05289 2.22727 0
M  V30 641 H 66.9651 -5.85411 5.04493 0
M  V30 642 H 65.3101 -5.2693 4.53178 0
M  V30 643 H 68.5011 -3.7313 2.82651 0
M  V30 644 H 68.6741 -5.00883 4.11121 0
M  V30 645 N 62.0802 -0.821533 -1.34494 0
M  V30 646 C 63.0272 -0.240397 -2.29545 0
M  V30 647 C 63.9972 0.634031 -1.53523 0
M  V30 648 O 65.1822 0.575966 -1.81899 0
M  V30 649 C 62.3222 0.592869 -3.39969 0
M  V30 650 C 61.4352 -0.30365 -4.30932 0
M  V30 651 C 60.5702 0.539049 -5.28458 0
M  V30 652 C 59.6092 -0.356942 -6.11058 0
M  V30 653 N 58.7462 0.446603 -7.00678 0
M  V30 654 H 63.5862 -1.05632 -2.7865 0
M  V30 655 H 61.1232 -0.532413 -1.37127 0
M  V30 656 H 63.0812 1.09129 -4.02675 0
M  V30 657 H 61.7112 1.37392 -2.92102 0
M  V30 658 H 60.7632 -0.920276 -3.691 0
M  V30 659 H 62.0752 -0.992661 -4.88823 0
M  V30 660 H 61.2292 1.102 -5.96608 0
M  V30 661 H 59.9682 1.26157 -4.71101 0
M  V30 662 H 58.9732 -0.932047 -5.41842 0
M  V30 663 H 60.1982 -1.07755 -6.70497 0
M  V30 664 H 58.1442 1.15282 -6.45791 0
M  V30 665 H 58.0612 -0.184048 -7.55776 0
M  V30 666 H 59.3292 0.992352 -7.73158 0
M  V30 667 N 63.5583 1.46682 -0.576371 0
M  V30 668 C 64.5063 2.31953 0.17335 0
M  V30 669 C 65.5003 1.44098 0.89062 0
M  V30 670 O 66.7063 1.60759 0.809728 0
M  V30 671 H 63.0813 0.748273 0.0747727 0
M  V30 672 H 65.0523 2.93007 -0.564738 0
M  V30 673 C 63.8013 3.27142 1.17786 0
M  V30 674 H 63.1243 3.94719 0.635361 0
M  V30 675 H 64.5643 3.896 1.67296 0
M  V30 676 C 63.0233 2.52036 2.23561 0
M  V30 677 O 63.5533 2.27877 3.3081 0
M  V30 678 N 61.7593 2.12709 1.97998 0
M  V30 679 H 61.3063 2.32557 1.10792 0
M  V30 680 H 61.2643 1.62776 2.68982 0
M  V30 681 N 65.0364 0.313813 1.54444 0
M  V30 682 C 66.4474 -0.176243 1.85866 0
M  V30 683 C 66.7984 -1.52405 1.23561 0
M  V30 684 O 65.9234 -2.09605 0.538016 0
M  V30 685 C 66.5184 -0.32657 3.37222 0
M  V30 686 C 65.0774 -0.760846 3.6863 0
M  V30 687 C 64.2244 0.123247 2.77026 0
M  V30 688 H 67.1754 0.534418 1.49431 0
M  V30 689 H 67.1964 -1.15908 3.62416 0
M  V30 690 H 66.7084 0.654531 3.82541 0
M  V30 691 H 64.8094 -1.75204 3.28838 0
M  V30 692 H 64.9224 -0.571353 4.75681 0
M  V30 693 H 63.2864 -0.399597 2.51546 0
M  V30 694 H 64.0694 1.10094 3.25168 0
M  V30 695 N 66.5145 -1.57545 0.0417849 0
M  V30 696 C 67.7915 -1.83642 -0.673433 0
M  V30 697 C 68.1715 -0.928298 -1.89594 0
M  V30 698 O 67.5195 0.0129955 -2.28496 0
M  V30 699 C 67.7295 -3.33155 -1.03964 0
M  V30 700 C 69.0775 -3.99941 -1.42592 0
M  V30 701 O 70.1015 -3.37725 -1.13226 0
M  V30 702 O 68.9605 -5.09619 -1.9736 0
M  V30 703 H 66.0545 -0.757638 -0.331533 0
M  V30 704 H 68.6005 -1.69554 0.070433 0
M  V30 705 H 67.3725 -3.9093 -0.170098 0
M  V30 706 H 66.9955 -3.52396 -1.84126 0
M  V30 707 N 67.9926 0.231505 -1.5589 0
M  V30 708 C 69.2176 0.978689 -1.82856 0
M  V30 709 C 69.6426 1.77559 -0.620846 0
M  V30 710 O 69.0006 1.76119 0.430305 0
M  V30 711 C 69.0486 1.87997 -3.07716 0
M  V30 712 O 68.1526 2.97393 -2.85712 0
M  V30 713 H 67.4936 0.277663 -0.603158 0
M  V30 714 H 70.0236 0.24783 -2.03093 0
M  V30 715 H 70.0336 2.2917 -3.37558 0
M  V30 716 H 68.7086 1.29417 -3.95252 0
M  V30 717 H 67.2856 2.60238 -2.67078 0
M  V30 718 N 69.4707 1.49531 0.497807 0
M  V30 719 C 70.4027 1.62559 1.61578 0
M  V30 720 C 71.4157 0.508134 1.54667 0
M  V30 721 O 72.6047 0.780309 1.60541 0
M  V30 722 C 69.7047 1.56925 3.00379 0
M  V30 723 C 68.8777 2.84257 3.3244 0
M  V30 724 C 67.9367 2.71632 4.50669 0
M  V30 725 O 66.9627 3.4557 4.52294 0
M  V30 726 N 68.1647 1.83391 5.5077 0
M  V30 727 H 70.9297 2.58981 1.50828 0
M  V30 728 H 68.4907 1.4666 0.685743 0
M  V30 729 H 70.4827 1.46129 3.77397 0
M  V30 730 H 69.0527 0.683483 3.05037 0
M  V30 731 H 68.2727 3.09381 2.44289 0
M  V30 732 H 69.5607 3.68666 3.5066 0
M  V30 733 H 68.9587 1.22583 5.52259 0
M  V30 734 H 67.5157 1.78515 6.26878 0
M  V30 735 N 70.9488 -0.749086 1.3866 0
M  V30 736 C 72.1788 -1.53611 1.38157 0
M  V30 737 C 72.5868 -1.89177 -0.0293595 0
M  V30 738 O 71.9298 -1.53606 -1.00752 0
M  V30 739 C 71.9918 -2.86087 2.17702 0
M  V30 740 C 71.6558 -2.73034 3.66472 0
M  V30 741 C 72.6528 -2.42526 4.59866 0
M  V30 742 C 70.3378 -2.90345 4.09884 0
M  V30 743 C 72.3318 -2.29492 5.94653 0
M  V30 744 C 70.0188 -2.7693 5.4475 0
M  V30 745 C 71.0168 -2.46547 6.36949 0
M  V30 746 O 70.7048 -2.33199 7.69333 0
M  V30 747 H 70.4368 -0.481773 0.474205 0
M  V30 748 H 72.9908 -0.934465 1.82912 0
M  V30 749 H 71.2208 -3.48458 1.67672 0
M  V30 750 H 72.9098 -3.47625 2.09551 0
M  V30 751 H 73.6758 -2.28816 4.27631 0
M  V30 752 H 69.5548 -3.1299 3.38464 0
M  V30 753 H 73.0988 -2.05698 6.66584 0
M  V30 754 H 68.9958 -2.90215 5.76581 0
M  V30 755 H 69.7638 -2.48376 7.79905 0
M  V30 756 N 72.4269 -1.23603 -0.977757 0
M  V30 757 C 73.6749 -1.06759 -1.71601 0
M  V30 758 C 73.9959 0.395929 -1.90938 0
M  V30 759 O 73.2659 1.28356 -1.47992 0
M  V30 760 H 71.8459 -0.392062 -0.635843 0
M  V30 761 H 74.5079 -1.55362 -1.1768 0
M  V30 762 H 73.6039 -1.55763 -2.70452 0
M  V30 763 N 73.905 1.17692 -1.04816 0
M  V30 764 C 74.815 2.25229 -0.65643 0
M  V30 765 C 75.831 1.71018 0.320761 0
M  V30 766 O 77.007 2.00649 0.173805 0
M  V30 767 C 74.072 3.46684 -0.0332629 0
M  V30 768 C 73.133 4.15997 -1.06042 0
M  V30 769 C 72.366 5.31654 -0.466893 0
M  V30 770 O 72.589 5.65777 0.724758 0
M  V30 771 O 71.523 5.89831 -1.1993 0
M  V30 772 H 75.349 2.61016 -1.55255 0
M  V30 773 H 72.934 1.24919 -0.81949 0
M  V30 774 H 74.816 4.20234 0.313256 0
M  V30 775 H 73.491 3.12703 0.836566 0
M  V30 776 H 72.398 3.44482 -1.45886 0
M  V30 777 H 73.731 4.53996 -1.90127 0
M  V30 778 N 75.3831 0.828654 1.34056 0
M  V30 779 C 76.3131 0.269443 2.3194 0
M  V30 780 C 77.2941 -0.617247 1.58506 0
M  V30 781 O 78.4791 -0.542931 1.86456 0
M  V30 782 C 75.6091 -0.564793 3.42677 0
M  V30 783 C 74.5631 0.225241 4.27407 0
M  V30 784 C 73.8891 -0.7321 5.29664 0
M  V30 785 C 75.1891 1.43663 5.02154 0
M  V30 786 H 76.8831 1.08728 2.7896 0
M  V30 787 H 74.4291 0.524283 1.34117 0
M  V30 788 H 76.3821 -0.966233 4.10173 0
M  V30 789 H 75.1061 -1.41574 2.9432 0
M  V30 790 H 73.7651 0.608117 3.61521 0
M  V30 791 H 73.4131 -1.57916 4.77568 0
M  V30 792 H 73.1131 -0.20767 5.87233 0
M  V30 793 H 74.6371 -1.13128 6.00029 0
M  V30 794 H 76.0511 1.1089 5.62473 0
M  V30 795 H 74.4481 1.89711 5.69324 0
M  V30 796 H 75.5181 2.21181 4.31517 0
M  V30 797 N 76.8612 -1.46375 0.584142 0
M  V30 798 C 78.1102 -2.01585 0.0679741 0
M  V30 799 C 78.4232 -1.46109 -1.30045 0
M  V30 800 O 79.6292 -1.93148 -1.90804 0
M  V30 801 C 78.0852 -3.5983 0.0709207 0
M  V30 802 C 77.6932 -4.24303 1.43775 0
M  V30 803 C 79.4372 -4.22693 -0.391228 0
M  V30 804 C 77.3442 -5.74631 1.39834 0
M  V30 805 H 76.2742 -0.753689 0.0216421 0
M  V30 806 H 78.9252 -1.68093 0.736001 0
M  V30 807 H 77.3072 -3.90405 -0.663299 0
M  V30 808 H 78.4812 -4.05335 2.19181 0
M  V30 809 H 76.7962 -3.73539 1.84004 0
M  V30 810 H 79.3932 -5.3289 -0.439524 0
M  V30 811 H 79.7362 -3.91728 -1.40906 0
M  V30 812 H 80.2692 -3.96749 0.288974 0
M  V30 813 H 77.0082 -6.10258 2.39303 0
M  V30 814 H 76.5282 -5.95858 0.686505 0
M  V30 815 H 78.2072 -6.37375 1.11187 0
M  V30 816 N 78.3393 -0.321999 -1.54275 0
M  V30 817 C 79.2493 0.553631 -2.27974 0
M  V30 818 C 80.2653 1.13054 -1.32268 0
M  V30 819 O 81.4413 1.15084 -1.6528 0
M  V30 820 C 78.5063 1.69927 -3.02201 0
M  V30 821 C 77.5673 1.15433 -4.1349 0
M  V30 822 C 76.8003 2.24537 -4.84168 0
M  V30 823 O 77.0233 3.44852 -4.5435 0
M  V30 824 O 75.9573 1.90044 -5.7111 0
M  V30 825 H 79.7833 -0.0448345 -3.03667 0
M  V30 826 H 77.3683 -0.0877418 -1.49142 0
M  V30 827 H 79.2503 2.3663 -3.48689 0
M  V30 828 H 77.9253 2.28395 -2.29385 0
M  V30 829 H 76.8323 0.452436 -3.71354 0
M  V30 830 H 78.1653 0.614805 -4.88345 0
M  V30 831 N 79.8174 1.5752 -0.0501392 0
M  V30 832 C 80.7644 2.1147 0.924603 0
M  V30 833 C 81.7344 1.02182 1.30951 0
M  V30 834 O 82.9194 1.29723 1.39916 0
M  V30 835 C 80.0594 2.66337 2.19451 0
M  V30 836 C 79.1724 3.89708 1.86418 0
M  V30 837 C 78.3074 4.32893 3.07859 0
M  V30 838 C 77.3464 5.48967 2.70742 0
M  V30 839 N 76.4834 5.87211 3.84874 0
M  V30 840 H 81.3234 2.94465 0.457639 0
M  V30 841 H 78.8604 1.45531 0.214266 0
M  V30 842 H 80.8184 2.96247 2.93758 0
M  V30 843 H 79.4484 1.86141 2.63726 0
M  V30 844 H 78.5004 3.66396 1.02264 0
M  V30 845 H 79.8124 4.74074 1.55096 0
M  V30 846 H 78.9664 4.6435 3.90466 0
M  V30 847 H 77.7054 3.47336 3.42358 0
M  V30 848 H 76.7104 5.17183 1.86551 0
M  V30 849 H 77.9354 6.3624 2.37436 0
M  V30 850 H 75.8814 5.04607 4.19175 0
M  V30 851 H 75.7984 6.66266 3.57247 0
M  V30 852 H 77.0664 6.23282 4.68123 0
M  V30 853 N 81.2955 -0.223234 1.56011 0
M  V30 854 C 82.5255 -0.963413 1.82762 0
M  V30 855 C 82.9335 -1.78516 0.626804 0
M  V30 856 O 82.2765 -1.78974 -0.414014 0
M  V30 857 C 82.3385 -1.93126 3.0322 0
M  V30 858 C 82.0025 -1.2942 4.38291 0
M  V30 859 C 82.9995 -0.684916 5.15369 0
M  V30 860 C 80.6845 -1.30647 4.85012 0
M  V30 861 C 82.6785 -0.0963971 6.37327 0
M  V30 862 C 80.3655 -0.71411 6.06913 0
M  V30 863 C 81.3635 -0.110123 6.82911 0
M  V30 864 O 81.0515 0.47303 8.02507 0
M  V30 865 H 80.7835 -0.288011 0.611576 0
M  V30 866 H 83.3375 -0.244103 2.03944 0
M  V30 867 H 81.5675 -2.68952 2.77852 0
M  V30 868 H 83.2565 -2.53685 3.16857 0
M  V30 869 H 84.0225 -0.667774 4.80381 0
M  V30 870 H 79.9015 -1.76598 4.25833 0
M  V30 871 H 83.4455 0.375657 6.96588 0
M  V30 872 H 79.3425 -0.728659 6.41374 0
M  V30 873 H 80.1105 0.367186 8.17676 0
M  V30 874 N 82.7736 -1.49793 -0.48987 0
M  V30 875 C 84.0226 -1.59085 -1.23995 0
M  V30 876 C 84.3356 -0.287907 -1.9347 0
M  V30 877 O 85.5416 -0.259506 -2.70257 0
M  V30 878 C 83.9976 -2.80736 -2.252 0
M  V30 879 C 83.6056 -4.17833 -1.61614 0
M  V30 880 C 85.3496 -2.99364 -3.00967 0
M  V30 881 C 83.2566 -5.30693 -2.60996 0
M  V30 882 H 82.1866 -0.592372 -0.466488 0
M  V30 883 H 84.8376 -1.76197 -0.51252 0
M  V30 884 H 83.2196 -2.57142 -3.01154 0
M  V30 885 H 84.3936 -4.51608 -0.915774 0
M  V30 886 H 82.7086 -4.04656 -0.981977 0
M  V30 887 H 85.3056 -3.80851 -3.75308 0
M  V30 888 H 85.6486 -2.10356 -3.59244 0
M  V30 889 H 86.1816 -3.2305 -2.32128 0
M  V30 890 H 82.9206 -6.21796 -2.07485 0
M  V30 891 H 82.4406 -5.01359 -3.2924 0
M  V30 892 H 84.1196 -5.6049 -3.23202 0
M  V30 893 N 84.2517 0.741722 -1.39055 0
M  V30 894 C 85.1987 1.85566 -1.37237 0
M  V30 895 C 86.1687 1.64457 -0.233072 0
M  V30 896 O 87.3537 1.85957 -0.427147 0
M  V30 897 C 84.4937 3.23004 -1.215 0
M  V30 898 C 83.6067 3.55864 -2.44918 0
M  V30 899 C 82.7417 4.82669 -2.21821 0
M  V30 900 C 81.7807 5.08351 -3.40948 0
M  V30 901 N 80.9177 6.26356 -3.17211 0
M  V30 902 H 85.7577 1.86455 -2.32462 0
M  V30 903 H 83.2947 0.911176 -1.15482 0
M  V30 904 H 85.2527 4.02331 -1.10389 0
M  V30 905 H 83.8827 3.21411 -0.29908 0
M  V30 906 H 82.9347 2.7129 -2.66657 0
M  V30 907 H 84.2467 3.70765 -3.33668 0
M  V30 908 H 83.4007 5.69962 -2.07914 0
M  V30 909 H 82.1397 4.69929 -1.30454 0
M  V30 910 H 81.1447 4.19522 -3.55361 0
M  V30 911 H 82.3697 5.22981 -4.33207 0
M  V30 912 H 80.3157 6.14917 -2.28502 0
M  V30 913 H 80.2327 6.41813 -3.99515 0
M  V30 914 H 81.5007 7.16506 -3.06984 0
M  V30 915 N 85.7298 1.2412 0.971189 0
M  V30 916 C 86.6398 1.04747 2.09917 0
M  V30 917 C 87.6558 -0.0107162 1.73997 0
M  V30 918 O 88.8318 0.186714 2.00533 0
M  V30 919 C 85.8968 0.650828 3.40537 0
M  V30 920 C 84.9578 1.7851 3.90426 0
M  V30 921 C 84.1908 1.40729 5.14812 0
M  V30 922 O 84.4138 0.29557 5.69634 0
M  V30 923 O 83.3478 2.23168 5.58999 0
M  V30 924 H 87.1738 1.99304 2.29154 0
M  V30 925 H 84.7588 1.02908 1.08307 0
M  V30 926 H 86.6408 0.440992 4.19086 0
M  V30 927 H 85.3158 -0.265649 3.22608 0
M  V30 928 H 84.2228 2.04966 3.12953 0
M  V30 929 H 85.5558 2.68023 4.12825 0
M  V30 930 N 87.2079 -1.17134 1.05439 0
M  V30 931 C 88.4559 -1.87085 0.764429 0
M  V30 932 C 88.7769 -1.81584 -0.710787 0
M  V30 933 O 88.0469 -1.24349 -1.51374 0
M  V30 934 H 86.6269 -0.692627 0.279779 0
M  V30 935 H 89.2889 -1.42087 1.33406 0
M  V30 936 H 88.3849 -2.92759 1.0816 0
M  V30 937 N 88.686 -0.835752 -1.33615 0
M  V30 938 C 89.633 -0.26473 -2.29277 0
M  V30 939 C 90.603 0.617712 -1.54187 0
M  V30 940 O 91.788 0.556641 -1.825 0
M  V30 941 C 88.928 0.556777 -3.40579 0
M  V30 942 C 88.041 -0.349339 -4.30585 0
M  V30 943 C 87.176 0.482969 -5.29 0
M  V30 944 C 86.215 -0.421732 -6.10645 0
M  V30 945 N 85.352 0.372262 -7.01112 0
M  V30 946 H 90.192 -1.08582 -2.77514 0
M  V30 947 H 87.729 -0.546927 -1.36554 0
M  V30 948 H 89.687 1.04852 -4.03809 0
M  V30 949 H 88.317 1.34286 -2.93542 0
M  V30 950 H 87.369 -0.959372 -3.68104 0
M  V30 951 H 88.681 -1.04445 -4.87742 0
M  V30 952 H 87.835 1.03866 -5.97743 0
M  V30 953 H 86.574 1.21153 -4.72412 0
M  V30 954 H 85.579 -0.989464 -5.40823 0
M  V30 955 H 86.804 -1.14861 -6.69316 0
M  V30 956 H 84.75 1.08426 -6.46977 0
M  V30 957 H 84.667 -0.264198 -7.55538 0
M  V30 958 H 85.935 0.910293 -7.74167 0
M  V30 959 N 90.1641 1.46063 -0.591896 0
M  V30 960 C 91.4131 2.01547 -0.0786637 0
M  V30 961 C 91.7261 1.46796 1.29268 0
M  V30 962 O 92.9321 1.94157 1.89777 0
M  V30 963 C 91.3881 3.59787 -0.0900024 0
M  V30 964 C 90.9961 4.23534 -1.46023 0
M  V30 965 C 92.7401 4.22895 0.368806 0
M  V30 966 C 90.6471 5.73881 -1.4288 0
M  V30 967 H 89.5771 0.753564 -0.0256388 0
M  V30 968 H 92.2281 1.677 -0.744905 0
M  V30 969 H 90.6101 3.90752 0.642586 0
M  V30 970 H 91.7841 4.04167 -2.21328 0
M  V30 971 H 90.0991 3.72558 -1.85982 0
M  V30 972 H 92.6961 5.33116 0.411258 0
M  V30 973 H 93.0391 3.9247 1.38827 0
M  V30 974 H 93.5721 3.9659 -0.31001 0
M  V30 975 H 90.3111 6.0898 -2.42536 0
M  V30 976 H 89.8311 5.95486 -0.718095 0
M  V30 977 H 91.5101 6.36776 -1.14565 0
M  V30 978 N 91.6422 0.330177 1.54103 0
M  V30 979 C 92.8882 -0.270806 2.00984 0
M  V30 980 C 93.2212 -1.51265 1.21789 0
M  V30 981 O 92.4962 -1.92142 0.301927 0
M  V30 982 C 92.7792 -0.598339 3.55094 0
M  V30 983 C 92.6322 0.654674 4.4501 0
M  V30 984 C 93.9512 -1.41334 4.16789 0
M  V30 985 H 91.0702 -0.0969531 0.730595 0
M  V30 986 H 93.7122 0.448066 1.84641 0
M  V30 987 H 91.8622 -1.21078 3.69151 0
M  V30 988 H 93.5342 1.29285 4.42813 0
M  V30 989 H 91.7772 1.28224 4.14416 0
M  V30 990 H 92.4482 0.380944 5.50684 0
M  V30 991 H 94.9242 -0.895597 4.06347 0
M  V30 992 H 93.8002 -1.61127 5.24718 0
M  V30 993 H 94.0612 -2.41146 3.70541 0
M  V30 994 N 93.1203 -1.57491 0.0584922 0
M  V30 995 C 94.5313 -1.80526 -0.476138 0
M  V30 996 C 94.8823 -0.971334 -1.70469 0
M  V30 997 O 94.0073 -0.190012 -2.15564 0
M  V30 998 C 94.6023 -3.27424 -0.870587 0
M  V30 999 C 93.1613 -3.51351 -1.35015 0
M  V30 1000 C 92.3083 -2.75343 -0.32887 0
M  V30 1001 H 95.2593 -1.56133 0.284312 0
M  V30 1002 H 95.2803 -3.38745 -1.73299 0
M  V30 1003 H 94.7923 -3.88093 0.0237627 0
M  V30 1004 H 92.8933 -2.95971 -2.26345 0
M  V30 1005 H 93.0063 -4.60059 -1.33726 0
M  V30 1006 H 91.3703 -2.417 -0.803321 0
M  V30 1007 H 92.1533 -3.38743 0.557521 0
M  V30 1008 N 94.5984 0.214957 -1.56127 0
M  V30 1009 C 95.8444 0.939762 -1.79712 0
M  V30 1010 C 96.1774 1.83723 -0.629247 0
M  V30 1011 O 95.4524 1.90925 0.371197 0
M  V30 1012 C 95.7354 1.77306 -3.13424 0
M  V30 1013 C 95.5884 0.90164 -4.40671 0
M  V30 1014 C 96.9074 2.74956 -3.43638 0
M  V30 1015 H 94.0264 0.340214 -0.653776 0
M  V30 1016 H 96.6684 0.20824 -1.88855 0
M  V30 1017 H 94.8184 2.39673 -3.0576 0
M  V30 1018 H 96.4904 0.294206 -4.60361 0
M  V30 1019 H 94.7334 0.207368 -4.33304 0
M  V30 1020 H 95.4044 1.51923 -5.30682 0
M  V30 1021 H 97.8804 2.22724 -3.51473 0
M  V30 1022 H 96.7564 3.30358 -4.38355 0
M  V30 1023 H 97.0174 3.53023 -2.66134 0
M  V30 1024 N 96.0765 1.50051 0.48192 0
M  V30 1025 C 96.9865 1.7089 1.60728 0
M  V30 1026 C 98.0025 0.591788 1.63627 0
M  V30 1027 O 99.1785 0.868817 1.81696 0
M  V30 1028 C 96.2435 1.78855 2.97005 0
M  V30 1029 C 95.3045 3.02537 3.04581 0
M  V30 1030 C 94.5375 3.10112 4.34357 0
M  V30 1031 O 94.7605 2.24765 5.24249 0
M  V30 1032 O 93.6945 4.02747 4.47301 0
M  V30 1033 H 97.5205 2.66264 1.46072 0
M  V30 1034 H 95.1055 1.34018 0.660264 0
M  V30 1035 H 96.9875 1.86336 3.77964 0
M  V30 1036 H 95.6625 0.866628 3.11883 0
M  V30 1037 H 94.5695 3.00563 2.22739 0
M  V30 1038 H 95.9025 3.94272 2.94636 0
M  V30 1039 N 97.5546 -0.734337 1.39446 0
M  V30 1040 C 98.8036 -1.48937 1.36017 0
M  V30 1041 C 99.1166 -1.95557 -0.0409005 0
M  V30 1042 O 100.323 -2.70779 -0.19778 0
M  V30 1043 C 98.7786 -2.69125 2.38955 0
M  V30 1044 C 98.3866 -2.29452 3.8478 0
M  V30 1045 C 100.131 -3.46944 2.44603 0
M  V30 1046 C 98.0376 -3.46366 4.79358 0
M  V30 1047 H 96.9676 -0.559296 0.505672 0
M  V30 1048 H 99.6186 -0.800983 1.65095 0
M  V30 1049 H 98.0006 -3.40041 2.02948 0
M  V30 1050 H 99.1746 -1.66077 4.29831 0
M  V30 1051 H 97.4896 -1.64723 3.82433 0
M  V30 1052 H 100.087 -4.33907 3.12456 0
M  V30 1053 H 100.43 -3.89454 1.47076 0
M  V30 1054 H 100.963 -2.83056 2.79507 0
M  V30 1055 H 97.7016 -3.08905 5.78151 0
M  V30 1056 H 97.2216 -4.08719 4.38986 0
M  V30 1057 H 98.9006 -4.12691 4.98292 0
M  V30 1058 N 99.0327 -1.24633 -0.964593 0
M  V30 1059 C 100.261 -1.11501 -1.74285 0
M  V30 1060 C 100.676 0.332165 -1.85855 0
M  V30 1061 O 100.033 1.22903 -1.34911 0
M  V30 1062 C 100.084 -1.75258 -3.16175 0
M  V30 1063 O 99.8047 -3.14318 -3.05182 0
M  V30 1064 C 101.306 -1.67776 -4.10324 0
M  V30 1065 H 98.5257 -0.389407 -0.546446 0
M  V30 1066 H 101.07 -1.64801 -1.21083 0
M  V30 1067 H 99.2247 -1.25954 -3.66353 0
M  V30 1068 H 99.6387 -3.4551 -3.94618 0
M  V30 1069 H 101.113 -2.17064 -5.0753 0
M  V30 1070 H 101.59 -0.639584 -4.34518 0
M  V30 1071 H 102.196 -2.16522 -3.66058 0
M  V30 1072 N 100.511 1.16574 -1.06058 0
M  V30 1073 C 101.76 1.86385 -0.770944 0
M  V30 1074 C 102.073 1.82448 0.705129 0
M  V30 1075 O 103.279 2.47815 1.10905 0
M  V30 1076 C 101.735 3.34466 -1.32893 0
M  V30 1077 C 101.343 3.46883 -2.83507 0
M  V30 1078 C 103.087 4.09548 -1.11672 0
M  V30 1079 C 100.994 4.89036 -3.32562 0
M  V30 1080 H 99.9238 0.698181 -0.284709 0
M  V30 1081 H 102.575 1.31583 -1.27899 0
M  V30 1082 H 100.957 3.88859 -0.748662 0
M  V30 1083 H 102.131 3.02663 -3.47465 0
M  V30 1084 H 100.446 2.85232 -3.03368 0
M  V30 1085 H 103.043 5.14434 -1.45814 0
M  V30 1086 H 103.386 4.16264 -0.0549535 0
M  V30 1087 H 103.919 3.61387 -1.66265 0
M  V30 1088 H 100.658 4.87499 -4.38207 0
M  V30 1089 H 100.178 5.3389 -2.73351 0
M  V30 1090 H 101.857 5.57843 -3.2775 0
M  V30 1091 N 101.989 0.842826 1.3317 0
M  V30 1092 C 103.214 0.453129 2.02389 0
M  V30 1093 C 103.639 -0.939105 1.6298 0
M  V30 1094 O 102.997 -1.61472 0.8244 0
M  V30 1095 C 103.045 0.586094 3.55805 0
M  V30 1096 O 102.149 -0.386029 4.10589 0
M  V30 1097 H 101.49 0.183664 0.638094 0
M  V30 1098 H 104.02 1.13875 1.69981 0
M  V30 1099 H 104.03 0.469209 4.05293 0
M  V30 1100 H 102.705 1.6014 3.83833 0
M  V30 1101 H 101.282 -0.226371 3.72212 0
M  V30 1102 N 103.467 -1.45747 0.599634 0
M  V30 1103 C 104.397 -2.33235 -0.111306 0
M  V30 1104 C 105.378 -1.46359 -0.866781 0
M  V30 1105 O 106.563 -1.75146 -0.838904 0
M  V30 1106 C 103.693 -3.28932 -1.11451 0
M  V30 1107 C 102.647 -4.25381 -0.472772 0
M  V30 1108 C 101.973 -5.1071 -1.58365 0
M  V30 1109 C 103.273 -5.18831 0.600948 0
M  V30 1110 H 104.967 -2.92927 0.61919 0
M  V30 1111 H 102.513 -1.40857 0.299215 0
M  V30 1112 H 104.466 -3.89002 -1.62036 0
M  V30 1113 H 103.19 -2.67381 -1.8755 0
M  V30 1114 H 101.849 -3.66598 0.0121472 0
M  V30 1115 H 101.497 -4.45533 -2.33473 0
M  V30 1116 H 101.197 -5.7604 -1.15982 0
M  V30 1117 H 102.721 -5.73647 -2.09194 0
M  V30 1118 H 104.135 -5.73019 0.179491 0
M  V30 1119 H 102.532 -5.92595 0.946076 0
M  V30 1120 H 103.602 -4.6174 1.48068 0
M  V30 1121 N 104.945 -0.338344 -1.53925 0
M  V30 1122 C 105.875 0.51328 -2.27789 0
M  V30 1123 C 106.856 1.107 -1.29149 0
M  V30 1124 O 108.041 1.12937 -1.57984 0
M  V30 1125 C 105.171 1.66697 -3.04679 0
M  V30 1126 C 104.125 1.20183 -4.1078 0
M  V30 1127 C 103.451 2.44363 -4.75595 0
M  V30 1128 C 104.751 0.30605 -5.21403 0
M  V30 1129 H 106.445 -0.102883 -2.99223 0
M  V30 1130 H 103.991 -0.0509219 -1.4391 0
M  V30 1131 H 105.944 2.26915 -3.55088 0
M  V30 1132 H 104.668 2.30995 -2.30887 0
M  V30 1133 H 103.327 0.622499 -3.61276 0
M  V30 1134 H 102.975 3.07057 -3.98403 0
M  V30 1135 H 102.675 2.13925 -5.47275 0
M  V30 1136 H 104.199 3.05317 -5.28786 0
M  V30 1137 H 105.613 0.814929 -5.67478 0
M  V30 1138 H 104.01 0.0937929 -6.00027 0
M  V30 1139 H 105.08 -0.65921 -4.80398 0
M  V30 1140 N 106.423 1.57458 -0.0668435 0
M  V30 1141 C 107.37 2.12439 0.902122 0
M  V30 1142 C 108.34 1.03565 1.2986 0
M  V30 1143 O 109.525 1.312 1.38532 0
M  V30 1144 C 106.665 2.6865 2.16614 0
M  V30 1145 C 105.778 3.91663 1.82274 0
M  V30 1146 C 104.913 4.36134 3.0325 0
M  V30 1147 C 103.952 5.51808 2.64904 0
M  V30 1148 N 103.089 5.9126 3.78624 0
M  V30 1149 H 107.929 2.94934 0.426382 0
M  V30 1150 H 105.466 1.4575 0.198819 0
M  V30 1151 H 107.424 2.99346 2.90599 0
M  V30 1152 H 106.054 1.88928 2.61737 0
M  V30 1153 H 105.106 3.6746 0.983719 0
M  V30 1154 H 106.418 4.75693 1.50059 0
M  V30 1155 H 105.572 4.68465 3.85519 0
M  V30 1156 H 104.311 3.50948 3.38655 0
M  V30 1157 H 103.316 5.19133 1.81055 0
M  V30 1158 H 104.541 6.38722 2.30675 0
M  V30 1159 H 102.487 5.09024 4.138 0
M  V30 1160 H 102.404 6.70018 3.5016 0
M  V30 1161 H 103.672 6.28212 4.61486 0
M  V30 1162 N 107.901 -0.206675 1.56239 0
M  V30 1163 C 109.317 -0.557025 1.49564 0
M  V30 1164 C 109.517 -1.86424 0.764735 0
M  V30 1165 O 108.573 -2.50584 0.310491 0
M  V30 1166 C 109.886 -0.622478 2.94186 0
M  V30 1167 C 111.434 -0.712099 3.04792 0
M  V30 1168 C 111.909 -0.808767 4.50803 0
M  V30 1169 N 113.4 -0.8726 4.54907 0
M  V30 1170 C 114.135 -0.967365 5.65181 0
M  V30 1171 N 113.631 -1.02515 6.85173 0
M  V30 1172 N 115.424 -1.00366 5.53067 0
M  V30 1173 H 107.575 0.650943 2.02179 0
M  V30 1174 H 109.838 0.230387 0.919579 0
M  V30 1175 H 109.544 0.268727 3.50672 0
M  V30 1176 H 109.418 -1.4811 3.46905 0
M  V30 1177 H 111.805 -1.59374 2.48363 0
M  V30 1178 H 111.886 0.172489 2.55218 0
M  V30 1179 H 111.53 0.0684754 5.07854 0
M  V30 1180 H 111.46 -1.70899 4.98098 0
M  V30 1181 H 113.951 -0.837657 3.68499 0
M  V30 1182 H 114.264 -1.09765 7.64965 0
M  V30 1183 H 112.609 -0.994026 6.87855 0
M  V30 1184 H 115.8 -0.95527 4.58249 0
M  V30 1185 H 115.973 -1.07405 6.39037 0
M  V30 1186 N 109.379 -1.50304 -0.473955 0
M  V30 1187 C 110.289 -1.7174 -1.5982 0
M  V30 1188 C 111.305 -0.600457 -1.63311 0
M  V30 1189 O 112.481 -0.878441 -1.81233 0
M  V30 1190 C 109.546 -1.80427 -2.96052 0
M  V30 1191 C 108.607 -3.04148 -3.02972 0
M  V30 1192 C 107.84 -3.12411 -4.32706 0
M  V30 1193 O 108.063 -2.27542 -5.23049 0
M  V30 1194 O 106.997 -4.05113 -4.45159 0
M  V30 1195 H 110.823 -2.67035 -1.44657 0
M  V30 1196 H 108.408 -1.34366 -0.653148 0
M  V30 1197 H 110.29 -1.88338 -3.7697 0
M  V30 1198 H 108.965 -0.883156 -3.11419 0
M  V30 1199 H 107.872 -3.0174 -2.21142 0
M  V30 1200 H 109.205 -3.95829 -2.92541 0
M  V30 1201 N 110.857 0.726932 -1.39834 0
M  V30 1202 C 111.79 1.8501 -1.33592 0
M  V30 1203 C 112.768 1.61262 -0.208191 0
M  V30 1204 O 113.952 1.84422 -0.389981 0
M  V30 1205 C 111.079 3.21143 -1.07633 0
M  V30 1206 C 110.125 3.63737 -2.22705 0
M  V30 1207 S 110.958 3.72167 -3.85035 0
M  V30 1208 C 112.114 5.11077 -3.61318 0
M  V30 1209 H 112.347 1.90022 -2.28646 0
M  V30 1210 H 109.88 0.892595 -1.25985 0
M  V30 1211 H 111.838 3.99747 -0.933415 0
M  V30 1212 H 110.499 3.13776 -0.142526 0
M  V30 1213 H 109.692 4.62551 -2.00155 0
M  V30 1214 H 109.294 2.9236 -2.33242 0
M  V30 1215 H 111.586 5.97656 -3.19083 0
M  V30 1216 H 112.529 5.38658 -4.59623 0
M  V30 1217 H 112.937 4.81135 -2.95245 0
M  V30 1218 N 112.336 1.25143 0.95797 0
M  V30 1219 C 113.613 1.00472 1.67823 0
M  V30 1220 C 113.993 -0.470056 2.058 0
M  V30 1221 O 113.341 -1.44663 1.76875 0
M  V30 1222 C 113.551 1.9372 2.90299 0
M  V30 1223 C 114.899 2.21371 3.62326 0
M  V30 1224 O 115.923 1.91451 3.00375 0
M  V30 1225 O 114.782 2.72231 4.7387 0
M  V30 1226 H 111.876 0.380752 0.734137 0
M  V30 1227 H 114.422 1.36283 1.01119 0
M  V30 1228 H 113.194 2.93316 2.59001 0
M  V30 1229 H 112.817 1.58286 3.64735 0
M  V30 1230 N 113.814 -1.1601 1.06675 0
M  V30 1231 C 114.746 -2.20115 0.638921 0
M  V30 1232 C 115.759 -1.59916 -0.305057 0
M  V30 1233 O 116.948 -1.78245 -0.0954446 0
M  V30 1234 C 114.048 -3.38798 -0.0830083 0
M  V30 1235 C 113.221 -4.2855 0.875426 0
M  V30 1236 C 112.28 -5.25849 0.192042 0
M  V30 1237 O 111.306 -5.63102 0.830921 0
M  V30 1238 N 112.508 -5.70648 -1.06493 0
M  V30 1239 H 115.273 -2.57439 1.53444 0
M  V30 1240 H 112.834 -1.31057 0.950557 0
M  V30 1241 H 114.826 -4.00936 -0.550685 0
M  V30 1242 H 113.396 -2.99947 -0.880386 0
M  V30 1243 H 112.616 -3.63617 1.52238 0
M  V30 1244 H 113.904 -4.85393 1.52548 0
M  V30 1245 H 113.302 -5.42482 -1.60405 0
M  V30 1246 H 111.859 -6.34859 -1.47641 0
M  V30 1247 N 115.292 -0.849877 -1.32721 0
M  V30 1248 C 116.52 -0.464754 -2.01613 0
M  V30 1249 C 116.935 0.937191 -1.63897 0
M  V30 1250 O 116.292 1.61081 -0.857856 0
M  V30 1251 C 116.343 -0.588638 -3.56675 0
M  V30 1252 O 116.064 -1.93535 -3.93034 0
M  V30 1253 C 117.565 -0.2019 -4.4284 0
M  V30 1254 H 114.785 -0.183215 -0.645502 0
M  V30 1255 H 117.329 -1.1455 -1.69407 0
M  V30 1256 H 115.484 0.0443159 -3.87375 0
M  V30 1257 H 115.898 -1.92871 -4.87751 0
M  V30 1258 H 117.372 -0.339599 -5.50954 0
M  V30 1259 H 117.849 0.857224 -4.30753 0
M  V30 1260 H 118.455 -0.809733 -4.17521 0
M  V30 1261 N 116.77 1.45427 -0.607355 0
M  V30 1262 C 117.703 2.27635 0.160482 0
M  V30 1263 C 118.681 1.37122 0.873857 0
M  V30 1264 O 119.865 1.66551 0.882775 0
M  V30 1265 C 116.992 3.15486 1.23231 0
M  V30 1266 C 116.038 4.21939 0.622097 0
M  V30 1267 S 116.871 5.32459 -0.569852 0
M  V30 1268 C 118.027 6.23879 0.502577 0
M  V30 1269 H 118.26 2.9241 -0.536983 0
M  V30 1270 H 115.793 1.49265 -0.394868 0
M  V30 1271 H 117.751 3.66659 1.84585 0
M  V30 1272 H 116.412 2.49977 1.90185 0
M  V30 1273 H 115.605 4.8333 1.42856 0
M  V30 1274 H 115.207 3.73906 0.0837063 0
M  V30 1275 H 117.499 6.63261 1.38171 0
M  V30 1276 H 118.442 7.0806 -0.0751759 0
M  V30 1277 H 118.85 5.58545 0.8178 0
M  V30 1278 N 118.248 0.346503 1.53744 0
M  V30 1279 C 119.211 -0.496439 2.23759 0
M  V30 1280 C 120.211 -1.0252 1.2388 0
M  V30 1281 O 121.401 -0.913974 1.48297 0
M  V30 1282 C 118.533 -1.69187 2.95954 0
M  V30 1283 H 119.726 0.115952 2.99676 0
M  V30 1284 H 117.279 0.0978939 1.55993 0
M  V30 1285 H 118.014 -2.34288 2.24231 0
M  V30 1286 H 117.799 -1.31989 3.69217 0
M  V30 1287 H 119.289 -2.28969 3.49232 0
M  V30 1288 N 119.726 -1.57421 0.075193 0
M  V30 1289 C 120.689 -2.11791 -0.876203 0
M  V30 1290 C 121.689 -1.04268 -1.22412 0
M  V30 1291 O 122.879 -1.30242 -1.15684 0
M  V30 1292 C 120.011 -2.62207 -2.17854 0
M  V30 1293 H 121.204 -2.9716 -0.40444 0
M  V30 1294 H 118.757 -1.55333 -0.173557 0
M  V30 1295 H 119.492 -1.803 -2.6956 0
M  V30 1296 H 119.277 -3.40802 -1.93897 0
M  V30 1297 H 120.767 -3.04335 -2.85955 0
M  V30 1298 N 121.204 0.198386 -1.56346 0
M  V30 1299 C 122.152 1.26538 -1.95169 0
M  V30 1300 C 123.146 1.47295 -0.836685 0
M  V30 1301 O 124.352 1.48195 -1.02167 0
M  V30 1302 H 120.727 0.424744 -0.620561 0
M  V30 1303 H 122.698 0.910904 -2.84157 0
M  V30 1304 C 121.447 2.6035 -2.30463 0
M  V30 1305 H 120.77 2.45192 -3.15786 0
M  V30 1306 H 122.21 3.33762 -2.61494 0
M  V30 1307 C 120.669 3.17096 -1.13806 0
M  V30 1308 O 121.199 3.99588 -0.41135 0
M  V30 1309 N 119.405 2.75795 -0.915736 0
M  V30 1310 H 118.952 2.08816 -1.50843 0
M  V30 1311 H 118.91 3.14101 -0.136979 0
M  V30 1312 N 122.682 1.50554 0.465978 0
M  V30 1313 C 123.645 1.69233 1.54574 0
M  V30 1314 C 124.645 0.562901 1.50626 0
M  V30 1315 O 125.835 0.830016 1.53155 0
M  V30 1316 C 122.967 1.7223 2.94193 0
M  V30 1317 H 124.16 2.65571 1.39327 0
M  V30 1318 H 121.713 1.40111 0.692711 0
M  V30 1319 H 122.448 0.77603 3.14878 0
M  V30 1320 H 122.233 2.54285 2.98466 0
M  V30 1321 H 123.723 1.88618 3.72576 0
M  V30 1322 N 124.16 -0.719506 1.40217 0
M  V30 1323 C 125.092 -1.84428 1.36084 0
M  V30 1324 C 126.105 -1.60597 0.266913 0
M  V30 1325 O 127.294 -1.70544 0.526983 0
M  V30 1326 C 124.394 -3.20757 1.094 0
M  V30 1327 C 123.567 -3.71817 2.30372 0
M  V30 1328 C 122.626 -4.86748 1.99907 0
M  V30 1329 O 121.652 -4.99603 2.72737 0
M  V30 1330 N 122.854 -5.7226 0.974635 0
M  V30 1331 H 125.619 -1.88473 2.33019 0
M  V30 1332 H 123.18 -0.900885 1.3452 0
M  V30 1333 H 125.172 -3.95235 0.870116 0
M  V30 1334 H 123.742 -3.11884 0.211452 0
M  V30 1335 H 122.962 -2.88514 2.68614 0
M  V30 1336 H 124.25 -4.02666 3.11026 0
M  V30 1337 H 123.648 -5.6448 0.371368 0
M  V30 1338 H 122.205 -6.46739 0.810656 0
M  V30 1339 N 125.638 -1.25649 -0.95132 0
M  V30 1340 C 126.585 -1.06323 -2.04851 0
M  V30 1341 C 127.555 0.0286491 -1.66075 0
M  V30 1342 O 128.74 -0.12917 -1.90362 0
M  V30 1343 C 125.88 -0.691529 -3.381 0
M  V30 1344 C 124.993 -1.85861 -3.89974 0
M  V30 1345 C 124.128 -1.43096 -5.11563 0
M  V30 1346 C 123.167 -2.56696 -5.55674 0
M  V30 1347 N 122.304 -2.14684 -6.68472 0
M  V30 1348 H 127.144 -2.00222 -2.20715 0
M  V30 1349 H 124.681 -0.997027 -1.08156 0
M  V30 1350 H 126.639 -0.456963 -4.1469 0
M  V30 1351 H 125.269 0.210474 -3.22113 0
M  V30 1352 H 124.321 -2.20639 -3.09875 0
M  V30 1353 H 125.633 -2.71161 -4.18657 0
M  V30 1354 H 124.787 -1.15624 -5.9558 0
M  V30 1355 H 123.526 -0.548722 -4.84603 0
M  V30 1356 H 122.531 -2.84909 -4.7022 0
M  V30 1357 H 123.756 -3.45503 -5.8464 0
M  V30 1358 H 121.702 -1.28881 -6.43215 0
M  V30 1359 H 121.619 -2.9353 -6.96689 0
M  V30 1360 H 122.887 -1.90397 -7.5589 0
M  V30 1361 N 127.117 1.15442 -1.07289 0
M  V30 1362 C 128.065 2.22225 -0.686952 0
M  V30 1363 C 129.059 1.66688 0.30193 0
M  V30 1364 O 130.265 1.79236 0.165712 0
M  V30 1365 H 126.64 0.723783 -0.204064 0
M  V30 1366 H 128.611 2.52056 -1.5972 0
M  V30 1367 C 127.36 3.47556 -0.100149 0
M  V30 1368 H 126.683 3.90612 -0.852211 0
M  V30 1369 H 128.123 4.23794 0.132235 0
M  V30 1370 C 126.582 3.16337 1.159 0
M  V30 1371 O 127.112 3.33074 2.24555 0
M  V30 1372 N 125.318 2.70385 1.06491 0
M  V30 1373 H 124.865 2.56966 0.180668 0
M  V30 1374 H 124.823 2.49871 1.90819 0
M  V30 1375 N 128.595 0.856903 1.32268 0
M  V30 1376 C 129.542 0.301172 2.28827 0
M  V30 1377 C 130.512 -0.593104 1.5515 0
M  V30 1378 O 131.697 -0.527537 1.83362 0
M  V30 1379 C 128.837 -0.502523 3.41422 0
M  V30 1380 C 127.95 0.417797 4.29975 0
M  V30 1381 C 127.085 -0.398749 5.29701 0
M  V30 1382 C 126.124 0.518827 6.09897 0
M  V30 1383 N 125.261 -0.260674 7.01616 0
M  V30 1384 H 130.101 1.12983 2.75751 0
M  V30 1385 H 127.638 0.568582 1.35667 0
M  V30 1386 H 129.596 -0.984141 4.05426 0
M  V30 1387 H 128.226 -1.29599 2.95642 0
M  V30 1388 H 127.278 1.01781 3.66531 0
M  V30 1389 H 128.59 1.12191 4.86019 0
M  V30 1390 H 127.744 -0.943435 5.9932 0
M  V30 1391 H 126.483 -1.13622 4.7428 0
M  V30 1392 H 125.488 1.07538 5.39181 0
M  V30 1393 H 126.713 1.25495 6.67404 0
M  V30 1394 H 124.659 -0.981198 6.4862 0
M  V30 1395 H 124.576 0.384364 7.55022 0
M  V30 1396 H 125.844 -0.787014 7.75517 0
M  V30 1397 N 130.073 -1.45103 0.615059 0
M  V30 1398 C 131.32 -2.02183 0.113179 0
M  V30 1399 C 131.648 -1.48249 -1.25906 0
M  V30 1400 O 130.903 -0.650265 -1.84581 0
M  V30 1401 C 131.202 -3.57386 0.0318797 0
M  V30 1402 C 130.868 -4.30505 1.34077 0
M  V30 1403 C 129.53 -4.50197 1.69929 0
M  V30 1404 C 131.882 -4.72238 2.20546 0
M  V30 1405 C 129.21 -5.08881 2.91988 0
M  V30 1406 C 131.562 -5.32272 3.41861 0
M  V30 1407 C 130.226 -5.50187 3.77956 0
M  V30 1408 H 129.496 -0.739842 0.0414151 0
M  V30 1409 H 132.143 -1.74073 0.798168 0
M  V30 1410 H 130.448 -3.84817 -0.736409 0
M  V30 1411 H 132.145 -3.99264 -0.372712 0
M  V30 1412 H 128.735 -4.15496 1.05173 0
M  V30 1413 H 132.919 -4.56751 1.94146 0
M  V30 1414 H 128.175 -5.20939 3.2005 0
M  V30 1415 H 132.349 -5.63563 4.09109 0
M  V30 1416 H 129.976 -5.95427 4.72622 0
M  V30 1417 N 131.551 -0.354651 -1.53558 0
M  V30 1418 C 132.481 0.489091 -2.2832 0
M  V30 1419 C 133.462 1.09324 -1.30316 0
M  V30 1420 O 134.647 1.11255 -1.59173 0
M  V30 1421 C 131.777 1.63456 -3.0643 0
M  V30 1422 C 130.731 1.1582 -4.12031 0
M  V30 1423 C 130.057 2.39305 -4.7816 0
M  V30 1424 C 131.357 0.250731 -5.21698 0
M  V30 1425 H 133.051 -0.134614 -2.99097 0
M  V30 1426 H 130.597 -0.0661826 -1.43848 0
M  V30 1427 H 132.55 2.23136 -3.57475 0
M  V30 1428 H 131.274 2.28533 -2.33325 0
M  V30 1429 H 129.933 0.584146 -3.61916 0
M  V30 1430 H 129.581 3.02814 -4.01637 0
M  V30 1431 H 129.281 2.08109 -5.49513 0
M  V30 1432 H 130.805 2.99691 -5.31994 0
M  V30 1433 H 132.219 0.754695 -5.68311 0
M  V30 1434 H 130.616 0.0301468 -6.00092 0
M  V30 1435 H 131.686 -0.710125 -4.79672 0
M  V30 1436 N 133.029 1.57378 -0.0835403 0
M  V30 1437 C 134.278 1.93106 0.582498 0
M  V30 1438 C 134.591 0.96651 1.70053 0
M  V30 1439 O 135.797 1.21705 2.42693 0
M  V30 1440 C 134.253 3.43076 1.08751 0
M  V30 1441 C 133.861 4.48 -0.000146404 0
M  V30 1442 C 135.605 3.87785 1.72694 0
M  V30 1443 C 133.512 5.89113 0.519568 0
M  V30 1444 H 132.442 0.720775 0.221358 0
M  V30 1445 H 135.093 1.82821 -0.157675 0
M  V30 1446 H 133.475 3.48474 1.88101 0
M  V30 1447 H 134.649 4.54233 -0.775199 0
M  V30 1448 H 132.964 4.1283 -0.54406 0
M  V30 1449 H 135.561 4.90604 2.1263 0
M  V30 1450 H 135.904 3.25796 2.59158 0
M  V30 1451 H 136.437 3.8504 0.999457 0
M  V30 1452 H 133.176 6.54775 -0.308186 0
M  V30 1453 H 132.696 5.86376 1.26188 0
M  V30 1454 H 134.375 6.39346 0.992237 0
M  V30 1455 N 134.507 -0.190092 1.56449 0
M  V30 1456 C 135.784 -0.935886 1.71757 0
M  V30 1457 C 136.164 -2.01173 0.639726 0
M  V30 1458 O 135.512 -2.25827 -0.348502 0
M  V30 1459 C 135.722 -1.51775 3.1427 0
M  V30 1460 C 137.07 -1.99794 3.74656 0
M  V30 1461 O 138.094 -1.61607 3.1743 0
M  V30 1462 O 136.953 -2.70079 4.751 0
M  V30 1463 H 134.047 -0.439229 0.700719 0
M  V30 1464 H 136.593 -0.179395 1.68749 0
M  V30 1465 H 135.365 -0.742505 3.84191 0
M  V30 1466 H 134.988 -2.33894 3.21527 0
M  V30 1467 N 135.985 -1.50799 -0.457987 0
M  V30 1468 C 137.233 -1.62121 -1.2067 0
M  V30 1469 C 137.554 -0.329793 -1.92191 0
M  V30 1470 O 136.824 0.653409 -1.84682 0
M  V30 1471 H 135.404 -0.597441 -0.448411 0
M  V30 1472 H 138.066 -1.87637 -0.527096 0
M  V30 1473 H 137.162 -2.43882 -1.94751 0
M  V30 1474 N 137.463 0.71206 -1.40597 0
M  V30 1475 C 138.71 1.47197 -1.39065 0
M  V30 1476 C 139.038 1.94499 0.00583891 0
M  V30 1477 O 138.293 1.68752 0.99102 0
M  V30 1478 C 138.592 2.71039 -2.32965 0
M  V30 1479 C 138.258 2.42484 -3.80148 0
M  V30 1480 C 136.92 2.34406 -4.20247 0
M  V30 1481 C 139.272 2.18598 -4.73143 0
M  V30 1482 C 136.6 2.00516 -5.51371 0
M  V30 1483 C 138.952 1.8622 -6.0457 0
M  V30 1484 C 137.616 1.76626 -6.43708 0
M  V30 1485 H 136.886 0.538634 -0.508876 0
M  V30 1486 H 139.533 0.815325 -1.73276 0
M  V30 1487 H 137.838 3.41558 -1.91951 0
M  V30 1488 H 139.535 3.29138 -2.29061 0
M  V30 1489 H 136.125 2.49659 -3.4838 0
M  V30 1490 H 140.309 2.23793 -4.42979 0
M  V30 1491 H 135.565 1.91628 -5.80593 0
M  V30 1492 H 139.739 1.66752 -6.76141 0
M  V30 1493 H 137.366 1.50133 -7.45228 0
M  V30 1494 N 138.941 1.26152 0.944643 0
M  V30 1495 C 140.352 1.10454 1.50522 0
M  V30 1496 C 140.703 -0.31635 1.93633 0
M  V30 1497 O 139.828 -1.20746 1.79581 0
M  V30 1498 C 140.423 1.99891 2.73549 0
M  V30 1499 C 138.982 1.88348 3.25886 0
M  V30 1500 C 138.129 1.93447 1.9868 0
M  V30 1501 H 141.08 1.39292 0.760489 0
M  V30 1502 H 141.101 1.54477 3.47732 0
M  V30 1503 H 140.613 3.03297 2.42141 0
M  V30 1504 H 138.714 0.878636 3.62092 0
M  V30 1505 H 138.827 2.73696 3.93227 0
M  V30 1506 H 137.191 1.37456 2.14425 0
M  V30 1507 H 137.974 2.98476 1.69607 0
M  V30 1508 N 140.419 -1.14872 1.07899 0
M  V30 1509 C 141.835 -1.37776 0.805606 0
M  V30 1510 C 142.035 -1.92743 -0.587555 0
M  V30 1511 O 141.091 -2.13678 -1.34528 0
M  V30 1512 C 142.404 -2.34361 1.88402 0
M  V30 1513 C 143.952 -2.48012 1.90942 0
M  V30 1514 C 144.427 -3.47893 2.97883 0
M  V30 1515 N 145.918 -3.55433 2.97021 0
M  V30 1516 C 146.653 -4.32553 3.76412 0
M  V30 1517 N 146.149 -5.12959 4.65666 0
M  V30 1518 N 147.942 -4.27697 3.64735 0
M  V30 1519 H 140.093 -0.775365 1.97742 0
M  V30 1520 H 142.356 -0.403521 0.857831 0
M  V30 1521 H 142.062 -2.01098 2.88535 0
M  V30 1522 H 141.936 -3.34206 1.74889 0
M  V30 1523 H 144.323 -2.8057 0.914579 0
M  V30 1524 H 144.404 -1.48147 2.08534 0
M  V30 1525 H 144.048 -3.16069 3.97571 0
M  V30 1526 H 143.978 -4.47527 2.77538 0
M  V30 1527 H 146.469 -2.98048 2.32326 0
M  V30 1528 H 146.782 -5.69065 5.22862 0
M  V30 1529 H 145.127 -5.12245 4.69712 0
M  V30 1530 H 148.318 -3.63949 2.94378 0
M  V30 1531 H 148.491 -4.8755 4.26848 0
M  V30 1532 N 141.898 -0.863906 -1.31812 0
M  V30 1533 C 142.846 -0.30422 -2.30602 0
M  V30 1534 C 143.84 0.577419 -1.59255 0
M  V30 1535 O 145.046 0.464194 -1.73912 0
M  V30 1536 H 141.421 -0.0796877 -0.747766 0
M  V30 1537 H 143.392 -1.15148 -2.75288 0
M  V30 1538 C 142.141 0.484617 -3.44306 0
M  V30 1539 H 141.464 -0.18451 -3.99374 0
M  V30 1540 H 142.904 0.841664 -4.15562 0
M  V30 1541 C 141.363 1.6735 -2.92396 0
M  V30 1542 O 141.893 2.77273 -2.90659 0
M  V30 1543 N 140.099 1.50362 -2.48676 0
M  V30 1544 H 139.646 0.609402 -2.50288 0
M  V30 1545 H 139.604 2.30051 -2.14299 0
M  V30 1546 N 143.376 1.44774 -0.622745 0
M  V30 1547 C 144.308 2.28856 0.125485 0
M  V30 1548 C 145.321 1.40811 0.817069 0
M  V30 1549 O 146.51 1.65044 0.679918 0
M  V30 1550 C 143.61 3.16963 1.19949 0
M  V30 1551 C 142.783 4.33374 0.592064 0
M  V30 1552 C 141.842 5.02577 1.55893 0
M  V30 1553 O 140.868 5.58873 1.07933 0
M  V30 1554 N 142.07 5.03256 2.89334 0
M  V30 1555 H 144.835 2.93713 -0.596068 0
M  V30 1556 H 142.396 1.55129 -0.463303 0
M  V30 1557 H 144.388 3.60123 1.84644 0
M  V30 1558 H 142.958 2.53913 1.82337 0
M  V30 1559 H 142.178 3.93509 -0.233322 0
M  V30 1560 H 143.466 5.08527 0.166738 0
M  V30 1561 H 142.864 4.58836 3.30887 0
M  V30 1562 H 141.421 5.50232 3.49412 0
M  V30 1563 N 144.854 0.36279 1.53368 0
M  V30 1564 C 146.131 -0.284021 1.93527 0
M  V30 1565 C 146.511 -1.66628 1.29608 0
M  V30 1566 O 145.859 -2.23942 0.45413 0
M  V30 1567 C 146.069 -0.337028 3.47369 0
M  V30 1568 C 147.417 -0.578708 4.20638 0
M  V30 1569 O 148.441 -0.418352 3.53735 0
M  V30 1570 O 147.3 -0.89074 5.39192 0
M  V30 1571 H 144.394 -0.169743 0.809393 0
M  V30 1572 H 146.94 0.41537 1.64538 0
M  V30 1573 H 145.712 0.632217 3.86159 0
M  V30 1574 H 145.335 -1.08243 3.82582 0
M  V30 1575 N 146.332 -1.57332 0.0918853 0
M  V30 1576 C 147.28 -2.15075 -0.885747 0
M  V30 1577 C 148.274 -1.09277 -1.29441 0
M  V30 1578 O 149.48 -1.27627 -1.26931 0
M  V30 1579 H 145.855 -0.687966 -0.303656 0
M  V30 1580 H 147.826 -2.96047 -0.373995 0
M  V30 1581 C 146.575 -2.74325 -2.13638 0
M  V30 1582 H 145.898 -3.55418 -1.8308 0
M  V30 1583 H 147.338 -3.183 -2.80109 0
M  V30 1584 C 145.797 -1.70062 -2.90827 0
M  V30 1585 O 146.327 -1.13763 -3.85254 0
M  V30 1586 N 144.533 -1.40628 -2.54307 0
M  V30 1587 H 144.08 -1.866 -1.7759 0
M  V30 1588 H 144.038 -0.711043 -3.06254 0
M  V30 1589 N 147.81 0.181792 -1.56548 0
M  V30 1590 C 148.74 1.22765 -1.98623 0
M  V30 1591 C 149.721 1.46747 -0.860189 0
M  V30 1592 O 150.906 1.58259 -1.12551 0
M  V30 1593 C 148.036 2.56894 -2.33715 0
M  V30 1594 C 146.99 2.475 -3.49182 0
M  V30 1595 C 146.316 3.86023 -3.69986 0
M  V30 1596 C 147.616 1.98866 -4.82959 0
M  V30 1597 H 149.31 0.877942 -2.86239 0
M  V30 1598 H 146.856 0.42088 -1.37712 0
M  V30 1599 H 148.809 3.30253 -2.61746 0
M  V30 1600 H 147.533 2.93632 -1.42997 0
M  V30 1601 H 146.192 1.76596 -3.21262 0
M  V30 1602 H 145.84 4.20136 -2.76576 0
M  V30 1603 H 145.54 3.80609 -4.47672 0
M  V30 1604 H 147.064 4.60984 -4.00407 0
M  V30 1605 H 148.478 2.61992 -5.09934 0
M  V30 1606 H 146.875 2.04424 -5.64208 0
M  V30 1607 H 147.945 0.942465 -4.75653 0
M  V30 1608 N 149.288 1.51039 0.449983 0
M  V30 1609 C 150.22 1.67617 1.56324 0
M  V30 1610 C 151.233 0.557083 1.52972 0
M  V30 1611 O 152.422 0.830989 1.57977 0
M  V30 1612 C 149.522 1.66402 2.95235 0
M  V30 1613 C 148.695 2.9469 3.23229 0
M  V30 1614 C 147.754 2.85832 4.41799 0
M  V30 1615 O 146.78 3.59785 4.41071 0
M  V30 1616 N 147.982 2.00821 5.44657 0
M  V30 1617 H 150.747 2.63648 1.42512 0
M  V30 1618 H 148.308 1.48767 0.638737 0
M  V30 1619 H 150.3 1.58062 3.72557 0
M  V30 1620 H 148.87 0.780182 3.02708 0
M  V30 1621 H 148.09 3.16996 2.34323 0
M  V30 1622 H 149.378 3.79636 3.38754 0
M  V30 1623 H 148.776 1.40091 5.48079 0
M  V30 1624 H 147.333 1.98368 6.20881 0
M  V30 1625 N 150.766 -0.704594 1.40972 0
M  V30 1626 C 152.014 -1.46169 1.39568 0
M  V30 1627 C 152.335 -1.95 0.00253745 0
M  V30 1628 O 151.605 -1.71095 -0.954114 0
M  V30 1629 H 150.185 -0.542326 0.513704 0
M  V30 1630 H 152.847 -0.834553 1.76128 0
M  V30 1631 H 151.943 -2.32922 2.07735 0
M  V30 1632 N 152.244 -1.26651 -0.937939 0
M  V30 1633 C 153.49 -1.13562 -1.68746 0
M  V30 1634 C 153.845 0.317241 -1.89767 0
M  V30 1635 O 153.138 1.22939 -1.46957 0
M  V30 1636 C 153.332 -1.84168 -3.06295 0
M  V30 1637 C 153.161 -3.36171 -2.98696 0
M  V30 1638 C 151.931 -4.05468 -3.01535 0
M  V30 1639 C 154.129 -4.32312 -2.78588 0
M  V30 1640 N 152.111 -5.44118 -2.84269 0
M  V30 1641 C 153.482 -5.58159 -2.69924 0
M  V30 1642 C 155.537 -4.22524 -2.63396 0
M  V30 1643 C 154.24 -6.75335 -2.47618 0
M  V30 1644 C 156.266 -5.39411 -2.42466 0
M  V30 1645 C 155.628 -6.64208 -2.34536 0
M  V30 1646 H 151.727 -0.470361 -0.624728 0
M  V30 1647 H 154.311 -1.59982 -1.10968 0
M  V30 1648 H 152.482 -1.40219 -3.62206 0
M  V30 1649 H 154.214 -1.63674 -3.70126 0
M  V30 1650 H 150.969 -3.56854 -3.11372 0
M  V30 1651 H 151.393 -6.1693 -2.78795 0
M  V30 1652 H 156.035 -3.26771 -2.68292 0
M  V30 1653 H 153.753 -7.71182 -2.41463 0
M  V30 1654 H 157.339 -5.33711 -2.31611 0
M  V30 1655 H 156.219 -7.53129 -2.18555 0
M  V30 1656 N 153.722 1.14298 -1.08507 0
M  V30 1657 C 154.67 2.21483 -0.710483 0
M  V30 1658 C 155.664 1.66998 0.284234 0
M  V30 1659 O 156.87 1.79401 0.146692 0
M  V30 1660 H 153.245 0.721578 -0.211729 0
M  V30 1661 H 155.216 2.50348 -1.62384 0
M  V30 1662 C 153.965 3.4743 -0.137007 0
M  V30 1663 H 153.288 3.89686 -0.893592 0
M  V30 1664 H 154.728 4.2391 0.0872789 0
M  V30 1665 C 153.187 3.17548 1.12538 0
M  V30 1666 O 153.717 3.35437 2.21009 0
M  V30 1667 N 151.923 2.71499 1.03617 0
M  V30 1668 H 151.47 2.57143 0.153403 0
M  V30 1669 H 151.428 2.51881 1.88158 0
M  V30 1670 N 155.201 0.870884 1.31352 0
M  V30 1671 C 156.148 0.325425 2.28494 0
M  V30 1672 C 157.118 -0.576615 1.5577 0
M  V30 1673 O 158.303 -0.508059 1.83911 0
M  V30 1674 C 155.443 -0.466283 3.41935 0
M  V30 1675 C 154.556 0.463378 4.29508 0
M  V30 1676 C 153.691 -0.342544 5.30094 0
M  V30 1677 C 152.73 0.583486 6.09313 0
M  V30 1678 N 151.867 -0.186244 7.01853 0
M  V30 1679 H 156.707 1.15901 2.74538 0
M  V30 1680 H 154.244 0.58294 1.35056 0
M  V30 1681 H 156.202 -0.941085 4.06447 0
M  V30 1682 H 154.832 -1.26456 2.97 0
M  V30 1683 H 153.884 1.05663 3.65431 0
M  V30 1684 H 155.196 1.1734 4.84802 0
M  V30 1685 H 154.35 -0.879816 6.00287 0
M  V30 1686 H 153.089 -1.08585 4.75458 0
M  V30 1687 H 152.094 1.13251 5.3801 0
M  V30 1688 H 153.319 1.32566 6.66035 0
M  V30 1689 H 151.265 -0.912348 6.49625 0
M  V30 1690 H 151.182 0.464422 7.54572 0
M  V30 1691 H 152.45 -0.704716 7.76308 0
M  V30 1692 N 156.679 -1.44442 0.630414 0
M  V30 1693 C 157.907 -2.06414 0.141671 0
M  V30 1694 C 158.322 -1.47105 -1.18345 0
M  V30 1695 O 157.679 -0.593662 -1.72574 0
M  V30 1696 C 157.73 -3.61494 0.0199784 0
M  V30 1697 O 157.451 -4.18594 1.29269 0
M  V30 1698 C 158.952 -4.40499 -0.497544 0
M  V30 1699 H 156.172 -0.666292 0.0793452 0
M  V30 1700 H 158.716 -1.85323 0.864614 0
M  V30 1701 H 156.871 -3.8185 -0.653402 0
M  V30 1702 H 157.285 -5.12026 1.13707 0
M  V30 1703 H 158.759 -5.49433 -0.531708 0
M  V30 1704 H 159.236 -4.11895 -1.52445 0
M  V30 1705 H 159.842 -4.25061 0.142562 0
M  V30 1706 N 158.157 -0.370918 -1.53173 0
M  V30 1707 C 159.09 0.516727 -2.22273 0
M  V30 1708 C 160.068 1.07877 -1.21661 0
M  V30 1709 O 161.252 1.13389 -1.50583 0
M  V30 1710 C 158.379 1.71346 -2.92161 0
M  V30 1711 C 157.425 1.27838 -4.0689 0
M  V30 1712 S 158.258 0.275217 -5.34792 0
M  V30 1713 C 159.414 1.47816 -6.08195 0
M  V30 1714 H 159.647 -0.0701054 -2.97217 0
M  V30 1715 H 157.18 -0.155038 -1.5362 0
M  V30 1716 H 159.138 2.39988 -3.3304 0
M  V30 1717 H 157.799 2.27156 -2.16931 0
M  V30 1718 H 156.992 2.17141 -4.54825 0
M  V30 1719 H 156.594 0.671105 -3.6793 0
M  V30 1720 H 158.886 2.40831 -6.33251 0
M  V30 1721 H 159.829 1.04008 -7.0042 0
M  V30 1722 H 160.237 1.68663 -5.38714 0
M  V30 1723 N 159.635 1.57281 -0.100228 0
M  V30 1724 C 160.912 1.86014 0.604812 0
M  V30 1725 C 161.292 0.998025 1.86018 0
M  V30 1726 O 160.64 0.0718184 2.28387 0
M  V30 1727 C 160.85 3.36784 0.915278 0
M  V30 1728 C 162.198 4.04957 1.27651 0
M  V30 1729 O 163.222 3.41695 1.00613 0
M  V30 1730 O 162.081 5.16593 1.7831 0
M  V30 1731 H 159.175 0.76942 0.303185 0
M  V30 1732 H 161.721 1.69176 -0.133313 0
M  V30 1733 H 160.493 3.91292 0.0248896 0
M  V30 1734 H 160.116 3.58987 1.70921 0
M  V30 1735 N 161.113 -0.173488 1.56642 0
M  V30 1736 C 162.361 -0.888706 1.81512 0
M  V30 1737 C 162.682 -1.82875 0.676872 0
M  V30 1738 O 161.952 -1.93536 -0.303414 0
M  V30 1739 H 160.532 -0.331164 0.669582 0
M  V30 1740 H 163.194 -0.173823 1.94123 0
M  V30 1741 H 162.29 -1.46691 2.75478 0
M  V30 1742 N 162.591 -1.51276 -0.441967 0
M  V30 1743 C 163.538 -1.72256 -1.53612 0
M  V30 1744 C 164.508 -0.564164 -1.56225 0
M  V30 1745 O 165.693 -0.798074 -1.73307 0
M  V30 1746 C 162.833 -1.84932 -2.91366 0
M  V30 1747 C 161.946 -3.12459 -2.98317 0
M  V30 1748 C 161.081 -3.15758 -4.27166 0
M  V30 1749 C 160.12 -4.37619 -4.27967 0
M  V30 1750 N 159.257 -4.38493 -5.48333 0
M  V30 1751 H 164.097 -2.65654 -1.35026 0
M  V30 1752 H 161.634 -1.31662 -0.656009 0
M  V30 1753 H 163.592 -1.90263 -3.7129 0
M  V30 1754 H 162.222 -0.949461 -3.08521 0
M  V30 1755 H 161.274 -3.1646 -2.11086 0
M  V30 1756 H 162.586 -4.02382 -2.94771 0
M  V30 1757 H 161.74 -3.19979 -5.15459 0
M  V30 1758 H 160.479 -2.23715 -4.33362 0
M  V30 1759 H 159.484 -4.33579 -3.38067 0
M  V30 1760 H 160.709 -5.30921 -4.23438 0
M  V30 1761 H 158.655 -3.49318 -5.55259 0
M  V30 1762 H 158.572 -5.22219 -5.46647 0
M  V30 1763 H 159.84 -4.469 -6.38671 0
M  V30 1764 N 164.069 0.697108 -1.41344 0
M  V30 1765 C 165.032 1.79281 -1.42797 0
M  V30 1766 C 166.032 1.57607 -0.318837 0
M  V30 1767 O 167.222 1.64309 -0.578642 0
M  V30 1768 C 164.354 3.17632 -1.23785 0
M  V30 1769 H 165.547 1.79385 -2.40335 0
M  V30 1770 H 163.1 0.904582 -1.27464 0
M  V30 1771 H 163.835 3.23167 -0.270814 0
M  V30 1772 H 163.62 3.34765 -2.04144 0
M  V30 1773 H 165.11 3.97617 -1.27633 0
M  V30 1774 N 165.547 1.27147 0.931209 0
M  V30 1775 C 166.824 1.0401 1.65654 0
M  V30 1776 C 167.204 -0.426297 2.06751 0
M  V30 1777 O 166.552 -1.40879 1.79904 0
M  V30 1778 C 166.762 1.99834 2.86125 0
M  V30 1779 C 168.11 2.29007 3.57549 0
M  V30 1780 O 169.134 1.97779 2.96246 0
M  V30 1781 O 167.993 2.82222 4.67989 0
M  V30 1782 H 165.087 0.396239 0.725895 0
M  V30 1783 H 167.633 1.38397 0.982056 0
M  V30 1784 H 166.405 2.98744 2.52721 0
M  V30 1785 H 166.028 1.65987 3.61295 0
M  V30 1786 N 167.025 -1.13721 1.09112 0
M  V30 1787 C 168.271 -1.85198 0.826414 0
M  V30 1788 C 168.604 -1.83129 -0.646319 0
M  V30 1789 O 167.879 -1.2671 -1.47563 0
M  V30 1790 C 168.162 -3.33507 1.35812 0
M  V30 1791 C 168.015 -3.44108 2.89672 0
M  V30 1792 C 169.334 -4.28838 0.989256 0
M  V30 1793 H 166.453 -0.67243 0.301675 0
M  V30 1794 H 169.095 -1.33499 1.35197 0
M  V30 1795 H 167.245 -3.77666 0.911082 0
M  V30 1796 H 168.917 -3.08684 3.428 0
M  V30 1797 H 167.16 -2.85087 3.26967 0
M  V30 1798 H 167.831 -4.48388 3.21951 0
M  V30 1799 H 170.307 -3.92734 1.37475 0
M  V30 1800 H 169.183 -5.31051 1.38838 0
M  V30 1801 H 169.444 -4.4198 -0.102924 0
M  V30 1802 N 168.503 -0.877838 -1.30888 0
M  V30 1803 C 169.728 -0.506629 -2.01117 0
M  V30 1804 C 170.153 0.895564 -1.65412 0
M  V30 1805 O 169.511 1.5923 -0.866922 0
M  V30 1806 C 169.559 -0.680223 -3.54126 0
M  V30 1807 O 168.663 0.277033 -4.11468 0
M  V30 1808 H 168.004 -0.200518 -0.633 0
M  V30 1809 H 170.534 -1.18342 -1.66902 0
M  V30 1810 H 170.544 -0.5765 -4.03907 0
M  V30 1811 H 169.219 -1.70261 -3.79452 0
M  V30 1812 H 167.796 0.127606 -3.72682 0
M  V30 1813 N 169.982 1.44106 -0.638065 0
M  V30 1814 C 171.229 2.01978 -0.14533 0
M  V30 1815 C 171.557 1.50234 1.23532 0
M  V30 1816 O 170.812 0.679548 1.83523 0
M  V30 1817 C 171.111 3.5729 -0.0887327 0
M  V30 1818 C 170.777 4.28317 -1.40909 0
M  V30 1819 C 169.439 4.47437 -1.77069 0
M  V30 1820 C 171.791 4.6867 -2.28031 0
M  V30 1821 C 169.119 5.04171 -3.00047 0
M  V30 1822 C 171.471 5.26766 -3.50286 0
M  V30 1823 C 170.135 5.44104 -3.86661 0
M  V30 1824 H 169.405 0.739089 -0.0531801 0
M  V30 1825 H 172.052 1.72781 -0.825761 0
M  V30 1826 H 170.357 3.8594 0.675095 0
M  V30 1827 H 172.054 3.99807 0.309145 0
M  V30 1828 H 168.644 4.1377 -1.1177 0
M  V30 1829 H 172.828 4.53604 -2.01388 0
M  V30 1830 H 168.084 5.15782 -3.28298 0
M  V30 1831 H 172.258 5.56983 -4.18023 0
M  V30 1832 H 169.885 5.87832 -4.82034 0
M  V30 1833 N 171.46 0.379036 1.52974 0
M  V30 1834 C 172.706 -0.206727 2.01744 0
M  V30 1835 C 173.039 -1.47314 1.26539 0
M  V30 1836 O 172.314 -1.91084 0.362903 0
M  V30 1837 C 172.597 -0.485066 3.56818 0
M  V30 1838 C 172.45 0.795919 4.42702 0
M  V30 1839 C 173.769 -1.28003 4.21074 0
M  V30 1840 H 170.888 -0.0736607 0.73331 0
M  V30 1841 H 173.53 0.506581 1.83122 0
M  V30 1842 H 171.68 -1.09272 3.72816 0
M  V30 1843 H 173.352 1.43307 4.38476 0
M  V30 1844 H 171.595 1.41344 4.10127 0
M  V30 1845 H 172.266 0.555947 5.49193 0
M  V30 1846 H 174.742 -0.765867 4.08991 0
M  V30 1847 H 173.618 -1.44352 5.29579 0
M  V30 1848 H 173.879 -2.29236 3.78026 0
M  V30 1849 N 172.938 -1.57226 0.108567 0
M  V30 1850 C 173.868 -2.17778 -0.84232 0
M  V30 1851 C 174.849 -1.11487 -1.2847 0
M  V30 1852 O 176.034 -1.39681 -1.34918 0
M  V30 1853 C 173.164 -2.76888 -2.09644 0
M  V30 1854 C 172.118 -3.88669 -1.79221 0
M  V30 1855 C 171.444 -4.34541 -3.11574 0
M  V30 1856 C 172.744 -5.11251 -1.06864 0
M  V30 1857 H 174.438 -2.97489 -0.337774 0
M  V30 1858 H 171.984 -1.43097 -0.161025 0
M  V30 1859 H 173.937 -3.17904 -2.76614 0
M  V30 1860 H 172.661 -1.94451 -2.62405 0
M  V30 1861 H 171.32 -3.48213 -1.14644 0
M  V30 1862 H 170.968 -3.48977 -3.62249 0
M  V30 1863 H 170.668 -5.09914 -2.91996 0
M  V30 1864 H 172.192 -4.782 -3.7968 0
M  V30 1865 H 173.606 -5.49352 -1.63968 0
M  V30 1866 H 172.003 -5.9214 -0.974178 0
M  V30 1867 H 173.073 -4.8487 -0.0536168 0
M  V30 1868 N 174.416 0.165178 -1.56732 0
M  V30 1869 C 175.663 0.880807 -1.8234 0
M  V30 1870 C 175.991 1.81977 -0.686621 0
M  V30 1871 O 175.246 1.92971 0.325697 0
M  V30 1872 C 175.545 1.70405 -3.1416 0
M  V30 1873 C 175.211 0.913475 -4.4155 0
M  V30 1874 C 173.873 0.695303 -4.7615 0
M  V30 1875 C 176.225 0.359349 -5.1996 0
M  V30 1876 C 173.553 -0.0879947 -5.86634 0
M  V30 1877 C 175.905 -0.410893 -6.31264 0
M  V30 1878 C 174.569 -0.639808 -6.64427 0
M  V30 1879 H 173.839 0.32231 -0.667231 0
M  V30 1880 H 176.486 0.145402 -1.90947 0
M  V30 1881 H 174.791 2.50903 -3.00923 0
M  V30 1882 H 176.488 2.26091 -3.31186 0
M  V30 1883 H 173.078 1.09357 -4.14414 0
M  V30 1884 H 177.262 0.515228 -4.93618 0
M  V30 1885 H 172.518 -0.27503 -6.10781 0
M  V30 1886 H 176.692 -0.847494 -6.91224 0
M  V30 1887 H 174.319 -1.24864 -7.49875 0
M  V30 1888 N 175.894 1.51508 0.433938 0
M  V30 1889 C 177.141 1.64345 1.18309 0
M  V30 1890 C 177.469 0.361315 1.91115 0
M  V30 1891 O 176.724 -0.654753 1.84422 0
M  V30 1892 C 177.023 2.79928 2.22205 0
M  V30 1893 C 176.689 4.19078 1.66387 0
M  V30 1894 C 175.351 4.56932 1.50887 0
M  V30 1895 C 177.703 5.05894 1.25381 0
M  V30 1896 C 175.031 5.79305 0.928608 0
M  V30 1897 C 177.383 6.2885 0.687823 0
M  V30 1898 C 176.047 6.65473 0.519755 0
M  V30 1899 H 175.317 0.601381 0.432923 0
M  V30 1900 H 177.964 1.85549 0.473676 0
M  V30 1901 H 176.269 2.52959 2.99197 0
M  V30 1902 H 177.966 2.87059 2.79997 0
M  V30 1903 H 174.556 3.89234 1.79428 0
M  V30 1904 H 178.74 4.77253 1.36175 0
M  V30 1905 H 173.996 6.06324 0.786186 0
M  V30 1906 H 178.17 6.95461 0.361581 0
M  V30 1907 H 175.797 7.6017 0.0679979 0
M  V30 1908 N 177.372 -0.689602 1.41712 0
M  V30 1909 C 178.649 -1.44457 1.31877 0
M  V30 1910 C 179.029 -2.11039 -0.0508537 0
M  V30 1911 O 178.377 -2.02138 -1.06547 0
M  V30 1912 C 178.587 -2.45913 2.47645 0
M  V30 1913 C 179.935 -3.10991 2.89084 0
M  V30 1914 O 180.959 -2.56238 2.47428 0
M  V30 1915 O 179.818 -4.10174 3.61137 0
M  V30 1916 H 176.912 -0.64362 0.519309 0
M  V30 1917 H 179.458 -0.719576 1.53689 0
M  V30 1918 H 178.23 -1.95409 3.39015 0
M  V30 1919 H 177.853 -3.25913 2.27742 0
M  V30 1920 N 178.85 -1.27639 -0.924453 0
M  V30 1921 C 180.09 -1.15407 -1.68703 0
M  V30 1922 C 180.454 0.294581 -1.89727 0
M  V30 1923 O 181.655 0.539385 -2.63333 0
M  V30 1924 C 179.926 -1.9195 -3.0148 0
M  V30 1925 S 181.485 -1.95969 -3.92609 0
M  V30 1926 H 178.303 -0.411937 -0.579507 0
M  V30 1927 H 180.905 -1.61592 -1.10038 0
M  V30 1928 H 179.609 -2.96387 -2.83871 0
M  V30 1929 H 179.14 -1.46272 -3.65196 0
M  V30 1930 H 181.155 -1.05846 -4.84779 0
M  V30 1931 N 180.328 1.1314 -1.09713 0
M  V30 1932 C 181.276 2.20717 -0.733934 0
M  V30 1933 C 182.27 1.6729 0.266506 0
M  V30 1934 O 183.476 1.79547 0.127656 0
M  V30 1935 H 179.851 0.719292 -0.21937 0
M  V30 1936 H 181.822 2.48611 -1.6503 0
M  V30 1937 C 180.571 3.47265 -0.173849 0
M  V30 1938 H 179.894 3.88716 -0.934873 0
M  V30 1939 H 181.334 4.23979 0.0423126 0
M  V30 1940 C 179.793 3.18724 1.09164 0
M  V30 1941 O 180.323 3.37762 2.17439 0
M  V30 1942 N 178.529 2.72583 1.00732 0
M  V30 1943 H 178.076 2.57291 0.126121 0
M  V30 1944 H 178.034 2.53862 1.85476 0
M  V30 1945 N 181.806 0.884767 1.30421 0
M  V30 1946 C 182.754 0.340869 2.30089 0
M  V30 1947 C 183.748 -0.55201 1.60154 0
M  V30 1948 O 184.954 -0.436467 1.74628 0
M  V30 1949 H 181.329 0.0915739 0.746404 0
M  V30 1950 H 183.3 1.19513 2.73421 0
M  V30 1951 C 182.049 -0.429779 3.45034 0
M  V30 1952 H 181.372 0.248024 3.9903 0
M  V30 1953 H 182.812 -0.775445 4.16849 0
M  V30 1954 C 181.271 -1.62677 2.95022 0
M  V30 1955 O 181.801 -2.72614 2.95033 0
M  V30 1956 N 180.007 -1.46387 2.51036 0
M  V30 1957 H 179.554 -0.569506 2.51226 0
M  V30 1958 H 179.512 -2.26612 2.17932 0
M  V30 1959 N 183.284 -1.43765 0.645699 0
M  V30 1960 C 184.194 -2.34544 -0.0512957 0
M  V30 1961 C 185.21 -1.53455 -0.82022 0
M  V30 1962 O 186.386 -1.86133 -0.769176 0
M  V30 1963 C 183.451 -3.31636 -1.01087 0
M  V30 1964 C 182.512 -4.2863 -0.239712 0
M  V30 1965 C 181.745 -5.21084 -1.15358 0
M  V30 1966 O 181.968 -5.1779 -2.39269 0
M  V30 1967 O 180.902 -5.98593 -0.630038 0
M  V30 1968 H 184.728 -2.95624 0.695718 0
M  V30 1969 H 182.313 -1.43781 0.405882 0
M  V30 1970 H 184.195 -3.9136 -1.56254 0
M  V30 1971 H 182.87 -2.73069 -1.73824 0
M  V30 1972 H 181.777 -3.72408 0.355356 0
M  V30 1973 H 183.11 -4.90157 0.447936 0
M  V30 1974 N 184.763 -0.387143 -1.52771 0
M  V30 1975 C 186.012 0.19697 -2.00736 0
M  V30 1976 C 186.325 1.48082 -1.27793 0
M  V30 1977 O 187.531 2.14485 -1.66458 0
M  V30 1978 C 185.987 0.401568 -3.57653 0
M  V30 1979 C 185.595 -0.868907 -4.39493 0
M  V30 1980 C 187.339 0.942164 -4.13912 0
M  V30 1981 C 185.246 -0.632705 -5.88006 0
M  V30 1982 H 184.176 0.0773827 -0.750019 0
M  V30 1983 H 186.827 -0.50921 -1.76293 0
M  V30 1984 H 185.209 1.16954 -3.78335 0
M  V30 1985 H 186.383 -1.64133 -4.30577 0
M  V30 1986 H 184.698 -1.33429 -3.94443 0
M  V30 1987 H 187.295 1.13455 -5.22525 0
M  V30 1988 H 187.638 1.9106 -3.69867 0
M  V30 1989 H 188.171 0.233814 -3.97112 0
M  V30 1990 H 184.91 -1.57208 -6.36369 0
M  V30 1991 H 184.43 0.100825 -5.99715 0
M  V30 1992 H 186.109 -0.26642 -6.46451 0
M  V30 1993 N 186.241 1.57166 -0.116904 0
M  V30 1994 C 187.481 1.97008 0.544715 0
M  V30 1995 C 187.845 0.998713 1.63981 0
M  V30 1996 O 189.046 1.28644 2.36018 0
M  V30 1997 C 187.317 3.41145 1.06559 0
M  V30 1998 S 188.876 4.02998 1.73603 0
M  V30 1999 H 185.694 0.688587 0.177112 0
M  V30 2000 H 188.296 1.94459 -0.201487 0
M  V30 2001 H 187 4.09592 0.257374 0
M  V30 2002 H 186.531 3.4734 1.84712 0
M  V30 2003 H 188.546 3.93585 3.02168 0
M  V30 2004 N 187.719 -0.156864 1.56817 0
M  V30 2005 C 188.968 -0.869504 1.81996 0
M  V30 2006 C 189.281 -1.82777 0.696545 0
M  V30 2007 O 190.487 -2.58384 0.833658 0
M  V30 2008 C 188.943 -1.59679 3.22538 0
M  V30 2009 C 188.551 -0.681431 4.42787 0
M  V30 2010 C 190.295 -2.2968 3.56997 0
M  V30 2011 C 188.202 -1.40978 5.74351 0
M  V30 2012 H 187.132 -0.328438 0.678708 0
M  V30 2013 H 189.783 -0.1223 1.83092 0
M  V30 2014 H 188.165 -2.38927 3.158 0
M  V30 2015 H 189.339 0.0751166 4.60739 0
M  V30 2016 H 187.654 -0.0903431 4.16302 0
M  V30 2017 H 190.251 -2.84794 4.52544 0
M  V30 2018 H 190.594 -3.05707 2.82576 0
M  V30 2019 H 191.127 -1.57361 3.65352 0
M  V30 2020 H 187.866 -0.691561 6.51842 0
M  V30 2021 H 187.386 -2.13929 5.60352 0
M  V30 2022 H 189.065 -1.95337 6.16808 0
M  V30 2023 N 189.197 -1.51736 -0.425897 0
M  V30 2024 C 190.107 -1.76738 -1.54275 0
M  V30 2025 C 191.123 -0.65211 -1.61318 0
M  V30 2026 O 192.299 -0.935654 -1.78346 0
M  V30 2027 C 189.364 -1.89755 -2.90162 0
M  V30 2028 C 188.425 -3.13633 -2.93143 0
M  V30 2029 C 187.658 -3.2602 -4.22548 0
M  V30 2030 O 187.881 -2.44067 -5.15546 0
M  V30 2031 O 186.815 -4.19071 -4.32046 0
M  V30 2032 H 190.641 -2.71502 -1.36089 0
M  V30 2033 H 188.226 -1.36376 -0.610069 0
M  V30 2034 H 190.108 -2.00236 -3.70788 0
M  V30 2035 H 188.783 -0.981785 -3.08452 0
M  V30 2036 H 187.69 -3.08622 -2.11431 0
M  V30 2037 H 189.023 -4.04936 -2.798 0
M  V30 2038 N 190.675 0.682077 -1.42076 0
M  V30 2039 C 192.091 0.994324 -1.24841 0
M  V30 2040 C 192.291 2.0096 -0.147389 0
M  V30 2041 O 191.347 2.47822 0.483782 0
M  V30 2042 C 192.66 1.50607 -2.60265 0
M  V30 2043 C 194.208 1.62421 -2.6756 0
M  V30 2044 C 194.683 2.16994 -4.03333 0
M  V30 2045 N 196.174 2.24337 -4.0525 0
M  V30 2046 C 196.909 2.67621 -5.07116 0
M  V30 2047 N 196.405 3.1041 -6.19368 0
M  V30 2048 N 198.198 2.67305 -4.94474 0
M  V30 2049 H 190.349 0.00973908 -2.12398 0
M  V30 2050 H 192.612 0.0668593 -0.945639 0
M  V30 2051 H 192.318 0.834583 -3.41654 0
M  V30 2052 H 192.192 2.48602 -2.83684 0
M  V30 2053 H 194.579 2.28678 -1.86521 0
M  V30 2054 H 194.66 0.629352 -2.47937 0
M  V30 2055 H 194.304 1.51349 -4.84826 0
M  V30 2056 H 194.234 3.17258 -4.20304 0
M  V30 2057 H 196.725 1.94158 -3.24209 0
M  V30 2058 H 197.038 3.42103 -6.92954 0
M  V30 2059 H 195.383 3.08286 -6.22884 0
M  V30 2060 H 198.574 2.33233 -4.05857 0
M  V30 2061 H 198.747 3.00718 -5.73997 0
M  V30 2062 N 192.153 1.28127 0.917671 0
M  V30 2063 C 193.393 1.163 1.68088 0
M  V30 2064 C 193.757 -0.284515 1.8988 0
M  V30 2065 O 194.958 -0.525413 2.63615 0
M  V30 2066 C 193.229 1.93546 3.00457 0
M  V30 2067 S 194.788 1.98048 3.91564 0
M  V30 2068 H 191.606 0.415005 0.577315 0
M  V30 2069 H 194.208 1.62173 1.09179 0
M  V30 2070 H 192.912 2.97888 2.82295 0
M  V30 2071 H 192.443 1.48207 3.64415 0
M  V30 2072 H 194.458 1.08415 4.84211 0
M  V30 2073 N 193.631 -1.12557 1.10312 0
M  V30 2074 C 194.561 -2.20341 0.772798 0
M  V30 2075 C 195.542 -1.68198 -0.25365 0
M  V30 2076 O 196.727 -1.93831 -0.119699 0
M  V30 2077 C 193.857 -3.46709 0.202443 0
M  V30 2078 C 192.811 -4.11996 1.15943 0
M  V30 2079 C 192.137 -5.328 0.450345 0
M  V30 2080 C 193.437 -4.5828 2.50552 0
M  V30 2081 H 195.131 -2.48229 1.674 0
M  V30 2082 H 192.677 -1.19308 0.806326 0
M  V30 2083 H 194.63 -4.2138 -0.0407752 0
M  V30 2084 H 193.354 -3.18245 -0.734001 0
M  V30 2085 H 192.013 -3.39305 1.38808 0
M  V30 2086 H 191.661 -5.00602 -0.490531 0
M  V30 2087 H 191.361 -5.7743 1.08851 0
M  V30 2088 H 192.885 -6.10219 0.215642 0
M  V30 2089 H 194.299 -5.2433 2.31843 0
M  V30 2090 H 192.696 -5.13683 3.10242 0
M  V30 2091 H 193.766 -3.72329 3.10643 0
M  V30 2092 N 195.109 -0.891671 -1.2995 0
M  V30 2093 C 196.019 -0.367691 -2.31701 0
M  V30 2094 C 197.035 0.533486 -1.6562 0
M  V30 2095 O 198.211 0.424997 -1.96865 0
M  V30 2096 C 195.276 0.403406 -3.44345 0
M  V30 2097 C 194.337 -0.528328 -4.26037 0
M  V30 2098 C 193.57 0.206063 -5.33302 0
M  V30 2099 O 193.793 1.43119 -5.52153 0
M  V30 2100 O 192.727 -0.447281 -6.00236 0
M  V30 2101 H 196.553 -1.21163 -2.78484 0
M  V30 2102 H 194.138 -0.655725 -1.34241 0
M  V30 2103 H 196.02 0.839753 -4.12948 0
M  V30 2104 H 194.695 1.22354 -2.99685 0
M  V30 2105 H 193.602 -1.01362 -3.60106 0
M  V30 2106 H 194.935 -1.31465 -4.74318 0
M  V30 2107 N 196.587 1.43421 -0.653314 0
M  V30 2108 C 198.003 1.56341 -0.320886 0
M  V30 2109 C 198.203 1.63696 1.17499 0
M  V30 2110 O 197.259 1.59208 1.95982 0
M  V30 2111 C 198.572 2.82424 -1.03233 0
M  V30 2112 C 200.12 2.96168 -1.01259 0
M  V30 2113 C 200.595 4.25084 -1.70492 0
M  V30 2114 N 202.086 4.31948 -1.67257 0
M  V30 2115 C 202.821 5.30466 -2.17701 0
M  V30 2116 N 202.317 6.35261 -2.76434 0
M  V30 2117 N 204.11 5.2212 -2.082 0
M  V30 2118 H 196.261 1.3689 -1.62403 0
M  V30 2119 H 198.524 0.657455 -0.682977 0
M  V30 2120 H 198.23 2.83053 -2.08744 0
M  V30 2121 H 198.104 3.72653 -0.583948 0
M  V30 2122 H 200.491 2.9508 0.0341235 0
M  V30 2123 H 200.572 2.07229 -1.49966 0
M  V30 2124 H 200.216 4.26932 -2.7512 0
M  V30 2125 H 200.146 5.1292 -1.19251 0
M  V30 2126 H 202.637 3.56838 -1.24398 0
M  V30 2127 H 202.95 7.06754 -3.12601 0
M  V30 2128 H 201.295 6.35884 -2.80495 0
M  V30 2129 H 204.486 4.39166 -1.62021 0
M  V30 2130 H 204.659 5.98739 -2.47822 0
M  V30 2131 N 198.065 0.39524 1.52563 0
M  V30 2132 C 199.313 -0.184678 2.01254 0
M  V30 2133 C 199.634 -1.46822 1.28329 0
M  V30 2134 O 198.904 -1.91666 0.405094 0
M  V30 2135 H 197.484 -0.0712355 0.743596 0
M  V30 2136 H 200.146 0.528293 1.87603 0
M  V30 2137 H 199.242 -0.390681 3.09645 0
M  V30 2138 N 199.544 -1.57102 0.125237 0
M  V30 2139 C 200.491 -2.15641 -0.822655 0
M  V30 2140 C 201.461 -1.08313 -1.25927 0
M  V30 2141 O 202.646 -1.36251 -1.33567 0
M  V30 2142 C 199.786 -2.76504 -2.06494 0
M  V30 2143 C 198.899 -3.98158 -1.67612 0
M  V30 2144 C 198.034 -4.47088 -2.86854 0
M  V30 2145 C 197.073 -5.6126 -2.44242 0
M  V30 2146 N 196.21 -6.04905 -3.56419 0
M  V30 2147 H 201.05 -2.96313 -0.316625 0
M  V30 2148 H 198.587 -1.46388 -0.144588 0
M  V30 2149 H 200.545 -3.09925 -2.79289 0
M  V30 2150 H 199.175 -1.98512 -2.54545 0
M  V30 2151 H 198.227 -3.70858 -0.846661 0
M  V30 2152 H 199.539 -4.80934 -1.32301 0
M  V30 2153 H 198.693 -4.82451 -3.67867 0
M  V30 2154 H 197.432 -3.63275 -3.25396 0
M  V30 2155 H 196.437 -5.25495 -1.61663 0
M  V30 2156 H 197.662 -6.46843 -2.0681 0
M  V30 2157 H 195.608 -5.24032 -3.94623 0
M  V30 2158 H 195.525 -6.82552 -3.25051 0
M  V30 2159 H 196.793 -6.44907 -4.37853 0
M  V30 2160 N 201.022 0.148545 -1.56898 0
M  V30 2161 C 202.247 0.880385 -1.87787 0
M  V30 2162 C 202.672 1.74018 -0.714093 0
M  V30 2163 O 202.03 1.78153 0.336343 0
M  V30 2164 C 202.078 1.71422 -3.17249 0
M  V30 2165 O 201.182 2.8183 -3.01074 0
M  V30 2166 H 200.523 0.245301 -0.617028 0
M  V30 2167 H 203.053 0.139826 -2.04122 0
M  V30 2168 H 203.063 2.10954 -3.49231 0
M  V30 2169 H 201.738 1.08284 -4.01556 0
M  V30 2170 H 200.315 2.45715 -2.80497 0
M  V30 2171 N 202.5 1.5196 0.417844 0
M  V30 2172 C 203.725 1.69717 1.1921 0
M  V30 2173 C 204.15 0.402148 1.83751 0
M  V30 2174 O 203.508 -0.639593 1.69643 0
M  V30 2175 C 203.556 2.82794 2.2374 0
M  V30 2176 O 202.66 2.47756 3.29683 0
M  V30 2177 H 202.001 0.565263 0.348387 0
M  V30 2178 H 204.531 1.98621 0.490985 0
M  V30 2179 H 204.541 3.07452 2.68212 0
M  V30 2180 H 203.216 3.76756 1.76146 0
M  V30 2181 H 201.793 2.33739 2.90552 0
M  V30 2182 N 203.978 -0.674533 1.42435 0
M  V30 2183 C 205.226 -1.43175 1.42637 0
M  V30 2184 C 205.547 -1.94951 0.0438992 0
M  V30 2185 O 204.817 -1.7308 -0.917607 0
M  V30 2186 H 203.397 -0.531307 0.525092 0
M  V30 2187 H 206.059 -0.797006 1.77859 0
M  V30 2188 H 205.155 -2.28463 2.12629 0
M  V30 2189 N 205.456 -1.28612 -0.910864 0
M  V30 2190 C 206.872 -1.06381 -1.18976 0
M  V30 2191 C 207.072 0.191998 -2.00583 0
M  V30 2192 O 206.128 0.892869 -2.36187 0
M  V30 2193 C 207.441 -2.31295 -1.92154 0
M  V30 2194 C 208.989 -2.36503 -2.05025 0
M  V30 2195 C 209.464 -3.61191 -2.81612 0
M  V30 2196 N 210.955 -3.61847 -2.89172 0
M  V30 2197 C 211.69 -4.55004 -3.4894 0
M  V30 2198 N 211.186 -5.58482 -4.09963 0
M  V30 2199 N 212.979 -4.42594 -3.46506 0
M  V30 2200 H 205.13 -2.09221 -0.366094 0
M  V30 2201 H 207.393 -0.921003 -0.224629 0
M  V30 2202 H 207.099 -3.228 -1.39618 0
M  V30 2203 H 206.973 -2.37934 -2.9269 0
M  V30 2204 H 209.36 -1.45494 -2.5674 0
M  V30 2205 H 209.441 -2.33857 -1.03657 0
M  V30 2206 H 209.085 -4.52545 -2.30576 0
M  V30 2207 H 209.015 -3.61092 -3.83302 0
M  V30 2208 H 211.506 -2.87022 -2.45819 0
M  V30 2209 H 211.819 -6.25704 -4.53557 0
M  V30 2210 H 210.164 -5.62305 -4.08459 0
M  V30 2211 H 213.355 -3.60953 -2.98045 0
M  V30 2212 H 213.528 -5.15381 -3.92793 0
M  V30 2213 N 206.934 1.1197 -1.10907 0
M  V30 2214 C 208.159 1.87942 -0.877064 0
M  V30 2215 C 208.584 1.79341 0.567314 0
M  V30 2216 O 207.942 1.15184 1.40009 0
M  V30 2217 C 207.99 3.34926 -1.33629 0
M  V30 2218 O 207.094 4.09303 -0.504447 0
M  V30 2219 H 206.435 0.583785 -0.316371 0
M  V30 2220 H 208.965 1.4157 -1.47712 0
M  V30 2221 H 208.975 3.8577 -1.32837 0
M  V30 2222 H 207.65 3.40504 -2.3881 0
M  V30 2223 H 206.227 3.68393 -0.577993 0
M  V30 2224 N 208.412 0.89855 1.29475 0
M  V30 2225 C 209.689 0.443416 1.90508 0
M  V30 2226 C 210.069 -1.07685 1.81569 0
M  V30 2227 O 209.417 -1.9182 1.24166 0
M  V30 2228 C 209.627 0.956708 3.35631 0
M  V30 2229 C 210.975 0.999728 4.12663 0
M  V30 2230 O 211.999 0.904299 3.4453 0
M  V30 2231 O 210.858 1.14289 5.34416 0
M  V30 2232 H 207.952 0.138025 0.815401 0
M  V30 2233 H 210.498 0.98834 1.37949 0
M  V30 2234 H 209.27 2.00067 3.36287 0
M  V30 2235 H 208.893 0.391728 3.95666 0
M  V30 2236 N 209.89 -1.43072 0.660911 0
M  V30 2237 C 211.167 -1.95307 0.107017 0
M  V30 2238 C 211.547 -1.60192 -1.37484 0
M  V30 2239 O 210.895 -0.890949 -2.10415 0
M  V30 2240 C 211.105 -3.47124 0.361402 0
M  V30 2241 C 212.453 -4.23738 0.270455 0
M  V30 2242 O 213.477 -3.54981 0.294382 0
M  V30 2243 O 212.336 -5.46131 0.200737 0
M  V30 2244 H 209.43 -0.826984 -0.00517729 0
M  V30 2245 H 211.976 -1.52972 0.734681 0
M  V30 2246 H 210.748 -3.65837 1.38848 0
M  V30 2247 H 210.371 -3.96475 -0.298953 0
M  V30 2248 N 211.368 -0.403325 -1.52352 0
M  V30 2249 C 212.316 0.439752 -2.28405 0
M  V30 2250 C 213.31 1.05089 -1.32863 0
M  V30 2251 O 214.516 0.989759 -1.50345 0
M  V30 2252 H 210.891 0.160587 -0.734653 0
M  V30 2253 H 212.862 -0.222983 -2.97566 0
M  V30 2254 C 211.611 1.54736 -3.11371 0
M  V30 2255 H 210.934 1.08643 -3.84755 0
M  V30 2256 H 212.374 2.1112 -3.67701 0
M  V30 2257 C 210.833 2.51141 -2.24566 0
M  V30 2258 O 211.363 3.54887 -1.88196 0
M  V30 2259 N 209.569 2.21213 -1.8845 0
M  V30 2260 H 209.116 1.36878 -2.18225 0
M  V30 2261 H 209.074 2.85963 -1.30662 0
M  V30 2262 N 212.846 1.57033 -0.133567 0
M  V30 2263 C 214.262 1.58035 0.222944 0
M  V30 2264 C 214.462 1.14713 1.6566 0
M  V30 2265 O 213.518 0.841218 2.38075 0
M  V30 2266 C 214.831 3.00691 -0.0236116 0
M  V30 2267 C 216.379 3.12973 0.0411512 0
M  V30 2268 C 216.854 4.57654 -0.177899 0
M  V30 2269 N 218.345 4.63033 -0.124365 0
M  V30 2270 C 219.08 5.72771 -0.268553 0
M  V30 2271 N 218.576 6.91206 -0.46972 0
M  V30 2272 N 220.369 5.61718 -0.2071 0
M  V30 2273 H 212.52 1.8349 -1.06981 0
M  V30 2274 H 214.783 0.848677 -0.422436 0
M  V30 2275 H 214.489 3.36726 -1.0153 0
M  V30 2276 H 214.363 3.70614 0.701808 0
M  V30 2277 H 216.75 2.76787 1.02338 0
M  V30 2278 H 216.831 2.45564 -0.716383 0
M  V30 2279 H 216.475 4.94542 -1.15717 0
M  V30 2280 H 216.405 5.23173 0.599797 0
M  V30 2281 H 218.896 3.7789 0.027011 0
M  V30 2282 H 219.209 7.70693 -0.570212 0
M  V30 2283 H 217.554 6.93156 -0.505876 0
M  V30 2284 H 220.745 4.68072 -0.0507986 0
M  V30 2285 H 220.918 6.47195 -0.322909 0
M  V30 2286 N 214.325 -0.140222 1.56975 0
M  V30 2287 C 215.235 -1.19223 2.02047 0
M  V30 2288 C 216.251 -1.46612 0.937062 0
M  V30 2289 O 217.427 -1.58148 1.24704 0
M  V30 2290 C 214.492 -2.50414 2.39778 0
M  V30 2291 C 213.553 -2.30612 3.621 0
M  V30 2292 C 212.786 -3.55547 3.98023 0
M  V30 2293 O 213.009 -4.62004 3.34528 0
M  V30 2294 O 211.943 -3.47808 4.91237 0
M  V30 2295 H 215.769 -0.839559 2.91865 0
M  V30 2296 H 213.354 -0.349453 1.45256 0
M  V30 2297 H 215.236 -3.27747 2.64877 0
M  V30 2298 H 213.911 -2.85198 1.53114 0
M  V30 2299 H 212.818 -1.51207 3.4218 0
M  V30 2300 H 214.151 -2.00741 4.49404 0
M  V30 2301 N 215.803 -1.52179 -0.40978 0
M  V30 2302 C 217.028 -1.70347 -1.18308 0
M  V30 2303 C 217.453 -0.411887 -1.83535 0
M  V30 2304 O 216.811 0.630587 -1.6998 0
M  V30 2305 C 216.859 -2.83977 -2.22238 0
M  V30 2306 O 215.963 -2.495 -3.28365 0
M  V30 2307 H 215.304 -0.567103 -0.345384 0
M  V30 2308 H 217.834 -1.98879 -0.480445 0
M  V30 2309 H 217.844 -3.0887 -2.66577 0
M  V30 2310 H 216.519 -3.77685 -1.74146 0
M  V30 2311 H 215.096 -2.35277 -2.89308 0
M  V30 2312 N 217.281 0.66697 -1.42791 0
M  V30 2313 C 218.211 1.79218 -1.49677 0
M  V30 2314 C 219.192 1.66405 -0.352623 0
M  V30 2315 O 220.377 1.85708 -0.567993 0
M  V30 2316 C 217.507 3.17565 -1.40605 0
M  V30 2317 C 216.461 3.45124 -2.53127 0
M  V30 2318 C 215.787 4.83127 -2.29112 0
M  V30 2319 C 217.087 3.41236 -3.95418 0
M  V30 2320 H 218.781 1.73713 -2.43853 0
M  V30 2321 H 216.327 0.83432 -1.17367 0
M  V30 2322 H 218.28 3.96022 -1.44029 0
M  V30 2323 H 217.004 3.23767 -0.429271 0
M  V30 2324 H 215.663 2.69031 -2.49034 0
M  V30 2325 H 215.311 4.85988 -1.29709 0
M  V30 2326 H 215.011 5.02528 -3.04531 0
M  V30 2327 H 216.535 5.63859 -2.34297 0
M  V30 2328 H 217.949 4.09651 -4.01073 0
M  V30 2329 H 216.346 3.72173 -4.70752 0
M  V30 2330 H 217.416 2.39665 -4.21532 0
M  V30 2331 N 218.759 1.29093 0.90403 0
M  V30 2332 C 219.669 1.15727 2.0407 0
M  V30 2333 C 220.685 0.0815308 1.73809 0
M  V30 2334 O 221.861 0.292749 1.99261 0
M  V30 2335 C 218.926 0.830424 3.36608 0
M  V30 2336 C 217.987 1.98955 3.80415 0
M  V30 2337 C 217.22 1.6782 5.06628 0
M  V30 2338 O 217.443 0.597105 5.67266 0
M  V30 2339 O 216.377 2.52486 5.46383 0
M  V30 2340 H 220.203 2.11171 2.18267 0
M  V30 2341 H 217.788 1.08504 1.027 0
M  V30 2342 H 219.67 0.662521 4.16159 0
M  V30 2343 H 218.345 -0.0942678 3.23563 0
M  V30 2344 H 217.252 2.21267 3.01648 0
M  V30 2345 H 218.585 2.89529 3.98037 0
M  V30 2346 N 220.237 -1.11381 1.11499 0
M  V30 2347 C 221.184 -2.17439 0.773887 0
M  V30 2348 C 222.154 -1.64132 -0.254899 0
M  V30 2349 O 223.339 -1.90345 -0.13168 0
M  V30 2350 C 220.479 -3.44373 0.223917 0
M  V30 2351 C 219.592 -4.1168 1.30934 0
M  V30 2352 C 218.727 -5.263 0.71984 0
M  V30 2353 C 217.766 -5.85493 1.78507 0
M  V30 2354 N 216.903 -6.91507 1.21502 0
M  V30 2355 H 221.743 -2.45962 1.68246 0
M  V30 2356 H 219.28 -1.20744 0.840191 0
M  V30 2357 H 221.238 -4.17047 -0.112921 0
M  V30 2358 H 219.868 -3.16232 -0.647851 0
M  V30 2359 H 218.92 -3.37073 1.76312 0
M  V30 2360 H 220.232 -4.51729 2.11524 0
M  V30 2361 H 219.386 -6.05785 0.333094 0
M  V30 2362 H 218.125 -4.87559 -0.117377 0
M  V30 2363 H 217.13 -5.04686 2.18111 0
M  V30 2364 H 218.355 -6.26301 2.62533 0
M  V30 2365 H 216.301 -6.54783 0.399455 0
M  V30 2366 H 216.218 -7.30214 1.95763 0
M  V30 2367 H 217.486 -7.74795 0.855181 0
M  V30 2368 N 221.715 -0.905404 -1.28997 0
M  V30 2369 C 223.131 -0.60233 -1.47798 0
M  V30 2370 C 223.331 0.854645 -1.82478 0
M  V30 2371 O 222.387 1.63439 -1.92468 0
M  V30 2372 C 223.7 -1.53306 -2.58685 0
M  V30 2373 C 225.248 -1.53887 -2.72558 0
M  V30 2374 C 225.723 -2.45602 -3.86579 0
M  V30 2375 N 227.214 -2.43681 -3.93921 0
M  V30 2376 C 227.949 -3.11347 -4.81509 0
M  V30 2377 N 227.445 -3.88313 -5.73746 0
M  V30 2378 N 229.238 -3.00476 -4.75048 0
M  V30 2379 H 221.389 -1.84765 -1.04764 0
M  V30 2380 H 223.652 -0.792025 -0.520961 0
M  V30 2381 H 223.358 -2.57141 -2.39941 0
M  V30 2382 H 223.232 -1.25787 -3.55609 0
M  V30 2383 H 225.619 -0.507941 -2.90696 0
M  V30 2384 H 225.7 -1.85447 -1.76191 0
M  V30 2385 H 225.344 -3.48792 -3.69197 0
M  V30 2386 H 225.274 -2.11349 -4.82327 0
M  V30 2387 H 227.765 -1.87767 -3.27951 0
M  V30 2388 H 228.078 -4.36985 -6.37389 0
M  V30 2389 H 226.423 -3.92419 -5.73614 0
M  V30 2390 H 229.614 -2.39858 -4.01977 0
M  V30 2391 H 229.787 -3.53485 -5.43095 0
M  V30 2392 N 223.193 1.4272 -0.668489 0
M  V30 2393 C 224.442 2.00846 -0.185389 0
M  V30 2394 C 224.755 1.53442 1.21305 0
M  V30 2395 O 225.961 2.03944 1.79218 0
M  V30 2396 C 224.417 3.58805 -0.280591 0
M  V30 2397 C 224.025 4.15198 -1.68268 0
M  V30 2398 C 225.769 4.24255 0.14412 0
M  V30 2399 C 223.676 5.655 -1.73099 0
M  V30 2400 H 222.606 0.751145 -0.0655475 0
M  V30 2401 H 225.257 1.63516 -0.832752 0
M  V30 2402 H 223.639 3.93608 0.434553 0
M  V30 2403 H 224.813 3.91866 -2.42441 0
M  V30 2404 H 223.128 3.62176 -2.05469 0
M  V30 2405 H 225.725 5.34547 0.128086 0
M  V30 2406 H 226.068 3.99277 1.17827 0
M  V30 2407 H 226.601 3.94389 -0.519798 0
M  V30 2408 H 223.34 5.95268 -2.74475 0
M  V30 2409 H 222.86 5.90842 -1.03274 0
M  V30 2410 H 224.539 6.29808 -1.48158 0
M  V30 2411 N 224.671 0.411399 1.52136 0
M  V30 2412 C 225.603 -0.448386 2.24771 0
M  V30 2413 C 226.616 -1.00828 1.27818 0
M  V30 2414 O 227.805 -0.906841 1.53749 0
M  V30 2415 C 224.905 -1.63636 2.96777 0
M  V30 2416 C 224.078 -1.19995 4.20618 0
M  V30 2417 C 223.137 -2.25509 4.75428 0
M  V30 2418 O 222.163 -1.86007 5.3795 0
M  V30 2419 N 223.365 -3.577 4.57199 0
M  V30 2420 H 226.13 0.174025 2.99194 0
M  V30 2421 H 223.691 0.238897 1.60128 0
M  V30 2422 H 225.683 -2.33793 3.30338 0
M  V30 2423 H 224.253 -2.16465 2.25526 0
M  V30 2424 H 223.473 -0.326421 3.92846 0
M  V30 2425 H 224.761 -0.885365 5.01038 0
M  V30 2426 H 224.159 -3.92543 4.07341 0
M  V30 2427 H 222.716 -4.23827 4.95191 0
M  V30 2428 N 226.149 -1.5696 0.141893 0
M  V30 2429 C 227.377 -2.00322 -0.517579 0
M  V30 2430 C 227.792 -1.02193 -1.58752 0
M  V30 2431 O 227.149 -0.0181619 -1.82491 0
M  V30 2432 C 227.2 -3.43618 -1.12289 0
M  V30 2433 O 226.921 -4.37995 -0.0956929 0
M  V30 2434 C 228.422 -4.02231 -1.86347 0
M  V30 2435 H 225.642 -0.657243 -0.135177 0
M  V30 2436 H 228.186 -2.03146 0.234973 0
M  V30 2437 H 226.341 -3.41662 -1.82609 0
M  V30 2438 H 226.755 -5.21729 -0.538469 0
M  V30 2439 H 228.229 -5.04509 -2.23997 0
M  V30 2440 H 228.706 -3.42655 -2.74744 0
M  V30 2441 H 229.312 -4.07802 -1.20737 0
M  V30 2442 N 227.627 0.131896 -1.57047 0
M  V30 2443 C 228.857 0.855219 -1.88068 0
M  V30 2444 C 229.265 1.74557 -0.729817 0
M  V30 2445 O 228.608 1.81083 0.308962 0
M  V30 2446 C 228.67 1.75119 -3.13964 0
M  V30 2447 C 228.334 1.03646 -4.45091 0
M  V30 2448 C 229.331 0.383276 -5.18485 0
M  V30 2449 C 227.016 1.02148 -4.91804 0
M  V30 2450 C 229.01 -0.275347 -6.36805 0
M  V30 2451 C 226.697 0.359047 -6.10044 0
M  V30 2452 C 227.695 -0.288222 -6.82392 0
M  V30 2453 O 227.383 -0.94011 -7.98384 0
M  V30 2454 H 227.115 0.251864 -0.627328 0
M  V30 2455 H 229.669 0.124782 -2.05021 0
M  V30 2456 H 227.899 2.52295 -2.9306 0
M  V30 2457 H 229.588 2.3478 -3.31109 0
M  V30 2458 H 230.354 0.386562 -4.83457 0
M  V30 2459 H 226.233 1.5147 -4.35405 0
M  V30 2460 H 229.777 -0.781148 -6.93213 0
M  V30 2461 H 225.674 0.35348 -6.44531 0
M  V30 2462 H 226.442 -0.84329 -8.14144 0
M  V30 2463 N 229.106 1.52395 0.401703 0
M  V30 2464 C 230.036 1.79231 1.49661 0
M  V30 2465 C 231.017 0.643654 1.57452 0
M  V30 2466 O 232.202 0.889989 1.72606 0
M  V30 2467 C 229.332 1.94971 2.87409 0
M  V30 2468 C 228.286 3.10604 2.94465 0
M  V30 2469 C 227.612 3.11577 4.34538 0
M  V30 2470 C 228.912 4.49921 2.6527 0
M  V30 2471 H 230.606 2.70917 1.27454 0
M  V30 2472 H 228.152 1.30362 0.6117 0
M  V30 2473 H 230.105 2.12328 3.63999 0
M  V30 2474 H 228.829 0.999632 3.10926 0
M  V30 2475 H 227.488 2.93009 2.20321 0
M  V30 2476 H 227.136 2.14277 4.55076 0
M  V30 2477 H 226.836 3.89247 4.40183 0
M  V30 2478 H 228.36 3.31073 5.13053 0
M  V30 2479 H 229.774 4.67683 3.31581 0
M  V30 2480 H 228.171 5.29564 2.82281 0
M  V30 2481 H 229.241 4.57507 1.60671 0
M  V30 2482 N 230.584 -0.659388 1.43143 0
M  V30 2483 C 231.516 -1.7849 1.43784 0
M  V30 2484 C 232.529 -1.5932 0.334787 0
M  V30 2485 O 233.718 -1.68155 0.598842 0
M  V30 2486 C 230.818 -3.15828 1.22906 0
M  V30 2487 C 229.991 -3.61711 2.45934 0
M  V30 2488 C 229.05 -4.77831 2.20371 0
M  V30 2489 O 228.076 -4.87586 2.93681 0
M  V30 2490 N 229.278 -5.67611 1.21647 0
M  V30 2491 H 232.043 -1.7842 2.40803 0
M  V30 2492 H 229.604 -0.84302 1.3822 0
M  V30 2493 H 231.596 -3.91189 1.03697 0
M  V30 2494 H 230.166 -3.10707 0.343542 0
M  V30 2495 H 229.386 -2.76861 2.80609 0
M  V30 2496 H 230.674 -3.89112 3.27825 0
M  V30 2497 H 230.072 -5.62397 0.610449 0
M  V30 2498 H 228.629 -6.42719 1.08423 0
M  V30 2499 N 232.062 -1.29571 -0.897171 0
M  V30 2500 C 233.287 -1.20705 -1.68656 0
M  V30 2501 C 233.712 0.228582 -1.86706 0
M  V30 2502 O 233.07 1.16494 -1.3892 0
M  V30 2503 C 233.118 -1.9282 -3.04717 0
M  V30 2504 O 232.222 -1.24697 -3.93096 0
M  V30 2505 H 231.563 -0.418126 -0.515816 0
M  V30 2506 H 234.093 -1.71183 -1.12061 0
M  V30 2507 H 234.103 -2.01372 -3.54843 0
M  V30 2508 H 232.778 -2.97239 -2.90899 0
M  V30 2509 H 231.355 -1.2442 -3.51531 0
M  V30 2510 N 233.54 1.10788 -1.12088 0
M  V30 2511 C 234.768 1.86461 -0.896651 0
M  V30 2512 C 235.183 1.80492 0.553912 0
M  V30 2513 O 234.54 1.19102 1.38278 0
M  V30 2514 C 234.591 3.35006 -1.35843 0
M  V30 2515 O 234.312 3.40866 -2.75213 0
M  V30 2516 C 235.813 4.27565 -1.1706 0
M  V30 2517 H 233.033 0.589425 -0.320654 0
M  V30 2518 H 235.577 1.40076 -1.48993 0
M  V30 2519 H 233.732 3.7887 -0.808458 0
M  V30 2520 H 234.146 4.33411 -2.9539 0
M  V30 2521 H 235.62 5.30007 -1.54263 0
M  V30 2522 H 236.097 4.3906 -0.110814 0
M  V30 2523 H 236.703 3.89501 -1.70789 0
M  V30 2524 N 235.018 0.912232 1.28515 0
M  V30 2525 C 235.965 0.397954 2.27343 0
M  V30 2526 C 236.935 -0.526766 1.57526 0
M  V30 2527 O 238.12 -0.449292 1.85435 0
M  V30 2528 C 235.26 -0.357263 3.43246 0
M  V30 2529 C 234.373 0.599788 4.27816 0
M  V30 2530 C 233.508 -0.173725 5.30916 0
M  V30 2531 C 232.547 0.777039 6.07148 0
M  V30 2532 N 231.684 0.0371398 7.0209 0
M  V30 2533 H 236.524 1.24577 2.70711 0
M  V30 2534 H 234.061 0.625612 1.33133 0
M  V30 2535 H 236.019 -0.8113 4.09236 0
M  V30 2536 H 234.649 -1.16943 3.00872 0
M  V30 2537 H 233.701 1.17235 3.61884 0
M  V30 2538 H 235.013 1.32704 4.80823 0
M  V30 2539 H 234.167 -0.688394 6.02782 0
M  V30 2540 H 232.906 -0.934041 4.78672 0
M  V30 2541 H 231.911 1.3031 5.34134 0
M  V30 2542 H 233.136 1.53689 6.61481 0
M  V30 2543 H 231.082 -0.705213 6.52198 0
M  V30 2544 H 230.999 0.704249 7.52713 0
M  V30 2545 H 232.267 -0.457383 7.78157 0
M  V30 2546 N 236.496 -1.42363 0.676048 0
M  V30 2547 C 237.907 -1.84649 0.275948 0
M  V30 2548 C 238.258 -1.56588 -1.18214 0
M  V30 2549 O 237.383 -1.02634 -1.90513 0
M  V30 2550 C 237.978 -3.35178 0.494053 0
M  V30 2551 C 236.537 -3.76109 0.148061 0
M  V30 2552 C 235.684 -2.65931 0.785891 0
M  V30 2553 H 238.635 -1.32192 0.878121 0
M  V30 2554 H 238.656 -3.79655 -0.25343 0
M  V30 2555 H 238.168 -3.55571 1.55535 0
M  V30 2556 H 236.269 -3.61323 -0.909742 0
M  V30 2557 H 236.382 -4.7546 0.589454 0
M  V30 2558 H 234.746 -2.53773 0.217113 0
M  V30 2559 H 235.529 -2.89146 1.85067 0
M  V30 2560 N 237.974 -0.419461 -1.51915 0
M  V30 2561 C 239.223 0.154346 -2.01109 0
M  V30 2562 C 239.536 1.45338 -1.30905 0
M  V30 2563 O 240.742 2.10906 -1.7097 0
M  V30 2564 C 239.198 0.325615 -3.58424 0
M  V30 2565 C 238.806 -0.961934 -4.37551 0
M  V30 2566 C 240.55 0.854155 -4.15818 0
M  V30 2567 C 238.457 -0.757287 -5.86531 0
M  V30 2568 H 237.387 0.0614563 -0.751491 0
M  V30 2569 H 240.038 -0.54649 -1.75173 0
M  V30 2570 H 238.42 1.08903 -3.80731 0
M  V30 2571 H 239.594 -1.7323 -4.26999 0
M  V30 2572 H 237.909 -1.41766 -3.91524 0
M  V30 2573 H 240.506 1.02346 -5.24814 0
M  V30 2574 H 240.849 1.83172 -3.73837 0
M  V30 2575 H 241.382 0.149528 -3.97519 0
M  V30 2576 H 238.121 -1.70671 -6.32892 0
M  V30 2577 H 237.641 -0.0264061 -5.99794 0
M  V30 2578 H 239.32 -0.403482 -6.45741 0
M  V30 2579 N 239.452 1.56882 -0.150215 0
M  V30 2580 C 240.701 1.95403 0.500071 0
M  V30 2581 C 241.014 1.03777 1.658 0
M  V30 2582 O 242.22 1.31889 2.37313 0
M  V30 2583 C 240.676 3.4738 0.941018 0
M  V30 2584 C 240.284 4.47596 -0.190158 0
M  V30 2585 C 242.028 3.9476 1.56091 0
M  V30 2586 C 239.935 5.90787 0.269237 0
M  V30 2587 H 238.865 0.729515 0.190588 0
M  V30 2588 H 241.516 1.81988 -0.235074 0
M  V30 2589 H 239.898 3.56138 1.73152 0
M  V30 2590 H 241.072 4.50536 -0.967157 0
M  V30 2591 H 239.387 4.10151 -0.718666 0
M  V30 2592 H 241.984 4.99181 1.9163 0
M  V30 2593 H 242.327 3.36494 2.45107 0
M  V30 2594 H 242.86 3.88932 0.835249 0
M  V30 2595 H 239.599 6.52879 -0.585621 0
M  V30 2596 H 239.119 5.912 1.01204 0
M  V30 2597 H 240.798 6.42979 0.720176 0
M  V30 2598 N 240.93 -0.123565 1.57115 0
M  V30 2599 C 242.207 -0.862196 1.75572 0
M  V30 2600 C 242.587 -1.98279 0.724475 0
M  V30 2601 O 241.935 -2.27102 -0.252407 0
M  V30 2602 C 242.145 -1.38309 3.20424 0
M  V30 2603 C 243.493 -1.83724 3.82793 0
M  V30 2604 O 244.517 -1.47999 3.23998 0
M  V30 2605 O 243.376 -2.49685 4.86127 0
M  V30 2606 H 240.47 -0.409113 0.718718 0
M  V30 2607 H 243.016 -0.107661 1.69358 0
M  V30 2608 H 241.788 -0.578889 3.86994 0
M  V30 2609 H 241.411 -2.20046 3.31158 0
M  V30 2610 N 242.408 -1.52605 -0.393616 0
M  V30 2611 C 243.338 -1.80022 -1.48709 0
M  V30 2612 C 244.319 -0.651995 -1.57108 0
M  V30 2613 O 245.504 -0.89913 -1.72132 0
M  V30 2614 C 242.634 -1.96492 -2.86371 0
M  V30 2615 C 241.588 -3.12161 -2.92813 0
M  V30 2616 C 240.914 -3.13877 -4.3288 0
M  V30 2617 C 242.214 -4.51322 -2.6288 0
M  V30 2618 H 243.908 -2.71589 -1.26015 0
M  V30 2619 H 241.454 -1.30684 -0.604778 0
M  V30 2620 H 243.407 -2.14255 -3.62867 0
M  V30 2621 H 242.131 -1.01611 -3.10391 0
M  V30 2622 H 240.79 -2.94173 -2.18764 0
M  V30 2623 H 240.438 -2.16687 -4.53933 0
M  V30 2624 H 240.138 -3.91576 -4.38112 0
M  V30 2625 H 241.662 -3.33789 -5.1129 0
M  V30 2626 H 243.076 -4.69435 -3.29096 0
M  V30 2627 H 241.473 -5.31053 -2.79468 0
M  V30 2628 H 242.543 -4.58353 -1.58242 0
M  V30 2629 N 243.887 0.651787 -1.4349 0
M  V30 2630 C 245.117 1.43728 -1.48411 0
M  V30 2631 C 245.525 1.8893 -0.10103 0
M  V30 2632 O 244.868 1.60182 0.899307 0
M  V30 2633 C 244.93 2.70411 -2.36893 0
M  V30 2634 C 244.594 2.4714 -3.8441 0
M  V30 2635 C 245.591 2.10271 -4.75481 0
M  V30 2636 C 243.276 2.6142 -4.28912 0
M  V30 2637 C 245.27 1.87982 -6.0905 0
M  V30 2638 C 242.957 2.38746 -5.62533 0
M  V30 2639 C 243.955 2.02083 -6.5242 0
M  V30 2640 O 243.643 1.79647 -7.8357 0
M  V30 2641 H 243.375 0.447962 -0.506267 0
M  V30 2642 H 245.929 0.80624 -1.88915 0
M  V30 2643 H 244.159 3.36079 -1.91278 0
M  V30 2644 H 245.848 3.32364 -2.33 0
M  V30 2645 H 246.614 1.98814 -4.42378 0
M  V30 2646 H 242.493 2.88931 -3.59222 0
M  V30 2647 H 246.037 1.5929 -6.7917 0
M  V30 2648 H 241.934 2.49806 -5.95203 0
M  V30 2649 H 242.702 1.9406 -7.95162 0
M  V30 2650 N 245.365 1.30045 0.890287 0
M  V30 2651 C 246.275 1.17885 2.02831 0
M  V30 2652 C 247.291 0.0999609 1.73713 0
M  V30 2653 O 248.467 0.313867 1.98939 0
M  V30 2654 C 245.532 0.866079 3.35708 0
M  V30 2655 C 244.593 2.02979 3.78283 0
M  V30 2656 C 243.826 1.73184 5.0482 0
M  V30 2657 O 244.049 0.657237 5.66601 0
M  V30 2658 O 242.983 2.58267 5.43674 0
M  V30 2659 H 246.809 2.13474 2.16015 0
M  V30 2660 H 244.394 1.09587 1.01543 0
M  V30 2661 H 246.276 0.706623 4.15433 0
M  V30 2662 H 244.951 -0.0599443 3.23644 0
M  V30 2663 H 243.858 2.24454 2.99285 0
M  V30 2664 H 245.191 2.93734 3.94944 0
M  V30 2665 N 246.843 -1.10192 1.12674 0
M  V30 2666 C 247.753 -2.20172 0.810026 0
M  V30 2667 C 248.769 -1.72821 -0.202188 0
M  V30 2668 O 249.945 -2.01369 -0.0351691 0
M  V30 2669 C 247.01 -3.45631 0.272007 0
M  V30 2670 C 246.071 -4.07704 1.34447 0
M  V30 2671 C 245.304 -5.27175 0.832029 0
M  V30 2672 O 245.527 -5.69425 -0.333284 0
M  V30 2673 O 244.461 -5.80168 1.60277 0
M  V30 2674 H 248.287 -2.49701 1.72867 0
M  V30 2675 H 245.872 -1.18977 0.903597 0
M  V30 2676 H 247.754 -4.21394 -0.0230219 0
M  V30 2677 H 246.429 -3.17723 -0.619164 0
M  V30 2678 H 245.336 -3.33614 1.6927 0
M  V30 2679 H 246.669 -4.3982 2.2095 0
M  V30 2680 N 248.321 -0.919034 -1.28029 0
M  V30 2681 C 249.254 -0.355887 -2.25408 0
M  V30 2682 C 250.232 0.542874 -1.5327 0
M  V30 2683 O 251.416 0.485338 -1.82145 0
M  V30 2684 C 248.543 0.490759 -3.35126 0
M  V30 2685 C 247.589 -0.343358 -4.25116 0
M  V30 2686 S 248.422 -1.75344 -5.05979 0
M  V30 2687 C 249.578 -0.914244 -6.19187 0
M  V30 2688 H 249.811 -1.18123 -2.72826 0
M  V30 2689 H 247.344 -0.720636 -1.36551 0
M  V30 2690 H 249.302 0.973404 -3.98792 0
M  V30 2691 H 247.963 1.29054 -2.86363 0
M  V30 2692 H 247.156 0.304266 -5.03081 0
M  V30 2693 H 246.758 -0.759851 -3.662 0
M  V30 2694 H 249.05 -0.146282 -6.77342 0
M  V30 2695 H 249.993 -1.66661 -6.88208 0
M  V30 2696 H 250.401 -0.460082 -5.62622 0
M  V30 2697 N 249.799 1.42003 -0.683588 0
M  V30 2698 C 251.047 2.01015 -0.209101 0
M  V30 2699 C 251.368 1.54365 1.19149 0
M  V30 2700 O 250.638 0.769083 1.80172 0
M  V30 2701 H 249.218 0.743294 -0.074315 0
M  V30 2702 H 251.88 1.73798 -0.882066 0
M  V30 2703 H 250.976 3.11343 -0.2172 0
M  V30 2704 N 251.277 0.427512 1.51691 0
M  V30 2705 C 252.224 -0.388867 2.275 0
M  V30 2706 C 253.194 -1.02532 1.30677 0
M  V30 2707 O 254.379 -1.0461 1.59566 0
M  V30 2708 C 251.519 -1.48954 3.11298 0
M  V30 2709 C 250.632 -0.872194 4.23104 0
M  V30 2710 C 249.767 -1.94709 4.94228 0
M  V30 2711 C 248.806 -1.30766 5.97969 0
M  V30 2712 N 247.943 -2.32349 6.62539 0
M  V30 2713 H 252.783 0.263997 2.96828 0
M  V30 2714 H 250.32 0.142033 1.46413 0
M  V30 2715 H 252.278 -2.13887 3.58201 0
M  V30 2716 H 250.908 -2.11217 2.44105 0
M  V30 2717 H 249.96 -0.111419 3.80237 0
M  V30 2718 H 251.272 -0.365264 4.97461 0
M  V30 2719 H 250.426 -2.67327 5.44629 0
M  V30 2720 H 249.165 -2.48773 4.1948 0
M  V30 2721 H 248.17 -0.566902 5.4687 0
M  V30 2722 H 249.395 -0.774483 6.74669 0
M  V30 2723 H 247.341 -2.85511 5.90609 0
M  V30 2724 H 247.258 -1.8652 7.3263 0
M  V30 2725 H 248.526 -3.04481 7.17574 0
M  V30 2726 N 252.755 -1.56801 0.158532 0
M  V30 2727 C 254.001 -1.96781 -0.490405 0
M  V30 2728 C 254.334 -1.04397 -1.63753 0
M  V30 2729 O 253.609 -0.0885805 -1.94298 0
M  V30 2730 C 253.892 -3.4635 -0.985594 0
M  V30 2731 C 253.745 -4.49512 0.160824 0
M  V30 2732 C 255.064 -3.98697 -1.86355 0
M  V30 2733 H 252.183 -0.715482 -0.176788 0
M  V30 2734 H 254.825 -1.88451 0.242088 0
M  V30 2735 H 252.975 -3.53579 -1.60978 0
M  V30 2736 H 254.647 -4.54353 0.797537 0
M  V30 2737 H 252.89 -4.26013 0.818256 0
M  V30 2738 H 253.561 -5.51531 -0.227569 0
M  V30 2739 H 256.037 -3.94019 -1.33746 0
M  V30 2740 H 254.913 -5.03792 -2.17909 0
M  V30 2741 H 255.174 -3.41744 -2.8047 0
M  V30 2742 N 254.233 0.115231 -1.57178 0
M  V30 2743 C 255.18 1.14115 -2.00615 0
M  V30 2744 C 256.15 1.40939 -0.878941 0
M  V30 2745 O 257.335 1.52741 -1.14345 0
M  V30 2746 C 254.475 2.46156 -2.4187 0
M  V30 2747 C 253.588 2.26236 -3.68024 0
M  V30 2748 C 252.723 3.51534 -3.98243 0
M  V30 2749 C 251.762 3.26787 -5.17568 0
M  V30 2750 N 250.899 4.44298 -5.43639 0
M  V30 2751 H 255.739 0.763743 -2.88047 0
M  V30 2752 H 253.276 0.365615 -1.42484 0
M  V30 2753 H 255.234 3.23189 -2.63827 0
M  V30 2754 H 253.864 2.81783 -1.57475 0
M  V30 2755 H 252.916 1.40102 -3.5366 0
M  V30 2756 H 254.228 2.03929 -4.55208 0
M  V30 2757 H 253.382 4.36984 -4.20868 0
M  V30 2758 H 252.121 3.76876 -3.09541 0
M  V30 2759 H 251.126 2.39729 -4.94783 0
M  V30 2760 H 252.351 3.02812 -6.0785 0
M  V30 2761 H 250.297 4.69754 -4.57895 0
M  V30 2762 H 250.214 4.25109 -6.25154 0
M  V30 2763 H 251.482 5.3087 -5.70786 0
M  V30 2764 N 255.711 1.52812 0.385517 0
M  V30 2765 C 256.658 1.77838 1.47113 0
M  V30 2766 C 257.628 0.621757 1.54024 0
M  V30 2767 O 258.813 0.861846 1.70226 0
M  V30 2768 C 255.953 1.95618 2.84302 0
M  V30 2769 C 255.066 3.23316 2.86515 0
M  V30 2770 C 254.201 3.31394 4.15152 0
M  V30 2771 C 253.24 4.53201 4.1143 0
M  V30 2772 N 252.377 4.58542 5.3168 0
M  V30 2773 H 257.217 2.70482 1.25073 0
M  V30 2774 H 254.754 1.34006 0.606692 0
M  V30 2775 H 256.712 2.03912 3.63972 0
M  V30 2776 H 255.342 1.06331 3.04784 0
M  V30 2777 H 254.394 3.24076 1.99195 0
M  V30 2778 H 255.706 4.13045 2.79634 0
M  V30 2779 H 254.86 3.3889 5.03228 0
M  V30 2780 H 253.599 2.39645 4.24761 0
M  V30 2781 H 252.604 4.45827 3.21742 0
M  V30 2782 H 253.829 5.46271 4.03442 0
M  V30 2783 H 251.775 3.69686 5.41912 0
M  V30 2784 H 251.692 5.42148 5.26889 0
M  V30 2785 H 252.96 4.70296 6.21644 0
M  V30 2786 N 257.189 -0.644168 1.43834 0
M  V30 2787 C 258.438 -1.39985 1.45214 0
M  V30 2788 C 258.751 -1.95421 0.0835494 0
M  V30 2789 O 259.957 -2.71488 -0.0251748 0
M  V30 2790 C 258.413 -2.53384 2.55587 0
M  V30 2791 C 258.021 -2.04517 3.98594 0
M  V30 2792 C 259.765 -3.30685 2.66172 0
M  V30 2793 C 257.672 -3.1518 5.00416 0
M  V30 2794 H 256.602 -0.526005 0.540218 0
M  V30 2795 H 259.253 -0.694367 1.69855 0
M  V30 2796 H 257.635 -3.26446 2.24163 0
M  V30 2797 H 258.809 -1.38405 4.39523 0
M  V30 2798 H 257.124 -1.40068 3.92135 0
M  V30 2799 H 259.721 -4.13158 3.39418 0
M  V30 2800 H 260.064 -3.79312 1.71546 0
M  V30 2801 H 260.597 -2.64708 2.96942 0
M  V30 2802 H 257.336 -2.71511 5.96625 0
M  V30 2803 H 256.856 -3.79974 4.64091 0
M  V30 2804 H 258.535 -3.80166 5.23529 0
M  V30 2805 N 258.668 -1.30515 -0.883378 0
M  V30 2806 C 259.945 -1.10086 -1.6168 0
M  V30 2807 C 260.325 0.349269 -2.08191 0
M  V30 2808 O 259.673 1.34105 -1.85008 0
M  V30 2809 C 259.883 -2.10315 -2.78511 0
M  V30 2810 C 261.231 -2.42119 -3.48803 0
M  V30 2811 O 262.255 -2.08638 -2.88702 0
M  V30 2812 O 261.114 -2.99396 -4.57192 0
M  V30 2813 H 258.208 -0.422907 -0.710689 0
M  V30 2814 H 260.754 -1.41947 -0.930015 0
M  V30 2815 H 259.526 -3.07917 -2.41459 0
M  V30 2816 H 259.149 -1.79282 -3.54886 0
M  V30 2817 N 260.146 1.09593 -1.13257 0
M  V30 2818 C 261.109 2.14359 -0.811358 0
M  V30 2819 C 262.109 1.59808 0.178377 0
M  V30 2820 O 263.299 1.74132 -0.0484911 0
M  V30 2821 C 260.431 3.40269 -0.207276 0
M  V30 2822 H 261.624 2.44284 -1.73969 0
M  V30 2823 H 259.177 1.25102 -0.936973 0
M  V30 2824 H 259.912 3.15969 0.73036 0
M  V30 2825 H 259.697 3.81154 -0.919992 0
M  V30 2826 H 261.187 4.176 0.000667944 0
M  V30 2827 N 261.624 0.925811 1.2754 0
M  V30 2828 C 262.849 0.580924 1.99098 0
M  V30 2829 C 263.274 -0.833555 1.68622 0
M  V30 2830 O 262.632 -1.55903 0.925422 0
M  V30 2831 C 262.68 0.811186 3.51358 0
M  V30 2832 O 261.784 -0.124129 4.12213 0
M  V30 2833 H 261.125 0.223873 0.625122 0
M  V30 2834 H 263.655 1.24455 1.62395 0
M  V30 2835 H 263.665 0.72601 4.01489 0
M  V30 2836 H 262.34 1.84227 3.72872 0
M  V30 2837 H 260.917 0.0108006 3.72898 0
M  V30 2838 N 263.102 -1.41638 0.69111 0
M  V30 2839 C 264.049 -2.30789 0.0229705 0
M  V30 2840 C 265.019 -1.46863 -0.775911 0
M  V30 2841 O 266.204 -1.75661 -0.74485 0
M  V30 2842 C 263.344 -3.32868 -0.910666 0
M  V30 2843 C 262.457 -4.31875 -0.103874 0
M  V30 2844 C 261.592 -5.21024 -1.03475 0
M  V30 2845 C 260.631 -6.11702 -0.220598 0
M  V30 2846 N 259.768 -6.93349 -1.10504 0
M  V30 2847 H 264.608 -2.87366 0.788978 0
M  V30 2848 H 262.145 -1.41535 0.400794 0
M  V30 2849 H 264.103 -3.90596 -1.46597 0
M  V30 2850 H 262.733 -2.77851 -1.64312 0
M  V30 2851 H 261.785 -3.76131 0.568285 0
M  V30 2852 H 263.097 -4.96003 0.527504 0
M  V30 2853 H 262.251 -5.83565 -1.65943 0
M  V30 2854 H 260.99 -4.57112 -1.69999 0
M  V30 2855 H 259.995 -5.48215 0.417187 0
M  V30 2856 H 261.22 -6.77668 0.440784 0
M  V30 2857 H 259.166 -6.3205 -1.75638 0
M  V30 2858 H 259.083 -7.54146 -0.529125 0
M  V30 2859 H 260.351 -7.60362 -1.71667 0
M  V30 2860 N 264.58 -0.43555 -1.51462 0
M  V30 2861 C 265.805 0.132627 -2.06976 0
M  V30 2862 C 266.23 1.35848 -1.30104 0
M  V30 2863 O 265.588 1.78112 -0.338493 0
M  V30 2864 C 265.636 0.43523 -3.57964 0
M  V30 2865 O 264.74 1.52198 -3.83288 0
M  V30 2866 H 264.081 0.00265 -0.663995 0
M  V30 2867 H 266.611 -0.616369 -1.95095 0
M  V30 2868 H 266.621 0.686206 -4.02188 0
M  V30 2869 H 265.296 -0.460739 -4.1334 0
M  V30 2870 H 263.873 1.2611 -3.50928 0
M  V30 2871 N 266.058 1.56714 -0.166846 0
M  V30 2872 C 267.304 1.97039 0.479962 0
M  V30 2873 C 267.637 1.05264 1.63197 0
M  V30 2874 O 266.912 0.0988833 1.94248 0
M  V30 2875 C 267.195 3.46867 0.967212 0
M  V30 2876 C 267.048 4.49421 -0.18466 0
M  V30 2877 C 268.367 3.9968 1.84238 0
M  V30 2878 H 265.486 0.71641 0.172992 0
M  V30 2879 H 268.128 1.8832 -0.252079 0
M  V30 2880 H 266.278 3.54428 1.59101 0
M  V30 2881 H 267.95 4.53924 -0.821621 0
M  V30 2882 H 266.193 4.25573 -0.840837 0
M  V30 2883 H 266.864 5.51644 0.198317 0
M  V30 2884 H 269.34 3.94723 1.31655 0
M  V30 2885 H 268.216 5.04941 2.15234 0
M  V30 2886 H 268.477 3.43226 2.78654 0
M  V30 2887 N 267.536 -0.106894 1.57237 0
M  V30 2888 C 268.813 -0.843526 1.76477 0
M  V30 2889 C 269.193 -1.97499 0.745464 0
M  V30 2890 O 268.541 -2.27357 -0.228306 0
M  V30 2891 C 268.751 -1.34903 3.21873 0
M  V30 2892 C 270.099 -1.79654 3.8472 0
M  V30 2893 O 271.123 -1.44554 3.2555 0
M  V30 2894 O 269.982 -2.44515 4.88748 0
M  V30 2895 H 267.076 -0.401468 0.723016 0
M  V30 2896 H 269.622 -0.0896927 1.69463 0
M  V30 2897 H 268.394 -0.53781 3.87586 0
M  V30 2898 H 268.017 -2.16522 3.33473 0
M  V30 2899 N 269.014 -1.53014 -0.377408 0
M  V30 2900 C 269.924 -1.81557 -1.48574 0
M  V30 2901 C 270.94 -0.703102 -1.59162 0
M  V30 2902 O 272.116 -0.99192 -1.75279 0
M  V30 2903 C 269.181 -1.9889 -2.83978 0
M  V30 2904 C 268.242 -3.22801 -2.83016 0
M  V30 2905 C 267.475 -3.39298 -4.11962 0
M  V30 2906 O 267.698 -2.60345 -5.0752 0
M  V30 2907 O 266.632 -4.32604 -4.18494 0
M  V30 2908 H 270.458 -2.75695 -1.27382 0
M  V30 2909 H 268.043 -1.38248 -0.566373 0
M  V30 2910 H 269.925 -2.11931 -3.6423 0
M  V30 2911 H 268.6 -1.07942 -3.05172 0
M  V30 2912 H 267.507 -3.15193 -2.01505 0
M  V30 2913 H 268.84 -4.13632 -2.66775 0
M  V30 2914 N 270.492 0.636531 -1.44174 0
M  V30 2915 C 271.738 1.39826 -1.4689 0
M  V30 2916 C 272.071 1.93947 -0.0990585 0
M  V30 2917 O 271.346 1.73325 0.882544 0
M  V30 2918 C 271.629 2.56751 -2.5249 0
M  V30 2919 C 271.482 2.08014 -3.98811 0
M  V30 2920 C 272.801 3.58946 -2.54649 0
M  V30 2921 H 269.92 0.507075 -0.53483 0
M  V30 2922 H 272.562 0.720188 -1.75822 0
M  V30 2923 H 270.712 3.14597 -2.2795 0
M  V30 2924 H 272.384 1.5504 -4.34466 0
M  V30 2925 H 270.627 1.39242 -4.10846 0
M  V30 2926 H 271.298 2.92169 -4.68339 0
M  V30 2927 H 273.774 3.1089 -2.76563 0
M  V30 2928 H 272.65 4.38286 -3.3045 0
M  V30 2929 H 272.911 4.12655 -1.58646 0
M  V30 2930 N 271.97 1.30982 0.876444 0
M  V30 2931 C 273.217 1.20296 1.62896 0
M  V30 2932 C 273.545 -0.240395 1.93009 0
M  V30 2933 O 272.8 -1.18733 1.55567 0
M  V30 2934 C 273.099 1.98572 2.9716 0
M  V30 2935 C 272.765 3.48125 2.86566 0
M  V30 2936 C 271.427 3.88905 2.83383 0
M  V30 2937 C 273.779 4.43322 2.74071 0
M  V30 2938 C 271.107 5.2316 2.65556 0
M  V30 2939 C 273.459 5.77695 2.57781 0
M  V30 2940 C 272.123 6.17704 2.52979 0
M  V30 2941 H 271.393 0.440193 0.59608 0
M  V30 2942 H 274.04 1.62177 1.01837 0
M  V30 2943 H 272.345 1.49352 3.62217 0
M  V30 2944 H 274.042 1.8769 3.54364 0
M  V30 2945 H 270.632 3.15723 2.89856 0
M  V30 2946 H 274.816 4.12752 2.75589 0
M  V30 2947 H 270.072 5.53241 2.60259 0
M  V30 2948 H 274.246 6.51091 2.47089 0
M  V30 2949 H 271.873 7.21678 2.38924 0
M  V30 2950 N 273.449 -1.08991 1.13837 0
M  V30 2951 C 274.726 -1.77863 0.813876 0
M  V30 2952 C 275.106 -1.99375 -0.693746 0
M  V30 2953 O 274.454 -1.59875 -1.63255 0
M  V30 2954 C 274.664 -3.0986 1.60586 0
M  V30 2955 C 276.012 -3.84493 1.8014 0
M  V30 2956 O 277.036 -3.19624 1.57222 0
M  V30 2957 O 275.895 -5.00957 2.18413 0
M  V30 2958 H 272.989 -0.771589 0.297624 0
M  V30 2959 H 275.535 -1.15507 1.24323 0
M  V30 2960 H 274.307 -2.89715 2.63022 0
M  V30 2961 H 273.93 -3.79942 1.17173 0
M  V30 2962 N 274.927 -0.932562 -1.27047 0
M  V30 2963 C 275.837 -0.441219 -2.30414 0
M  V30 2964 C 276.853 0.480525 -1.67233 0
M  V30 2965 O 278.029 0.362151 -1.98117 0
M  V30 2966 C 275.094 0.293651 -3.45454 0
M  V30 2967 C 274.155 -0.663601 -4.2414 0
M  V30 2968 C 273.388 0.0362932 -5.33688 0
M  V30 2969 O 273.611 1.2548 -5.56427 0
M  V30 2970 O 272.545 -0.638015 -5.98509 0
M  V30 2971 H 276.371 -1.29962 -2.74488 0
M  V30 2972 H 273.956 -0.6981 -1.32087 0
M  V30 2973 H 275.838 0.707951 -4.15411 0
M  V30 2974 H 274.513 1.12758 -3.03426 0
M  V30 2975 H 273.42 -1.12768 -3.56699 0
M  V30 2976 H 274.753 -1.46489 -4.69896 0
M  V30 2977 N 276.405 1.4127 -0.698611 0
M  V30 2978 C 277.651 2.01478 -0.231207 0
M  V30 2979 C 277.984 1.55215 1.16713 0
M  V30 2980 O 277.259 0.764672 1.78838 0
M  V30 2981 C 277.542 3.58912 -0.292281 0
M  V30 2982 C 277.395 4.15293 -1.72778 0
M  V30 2983 C 278.714 4.38736 0.346194 0
M  V30 2984 H 275.833 0.732025 -0.0854878 0
M  V30 2985 H 278.475 1.67977 -0.887906 0
M  V30 2986 H 276.625 3.87582 0.26686 0
M  V30 2987 H 278.297 3.97486 -2.341 0
M  V30 2988 H 276.54 3.7022 -2.26096 0
M  V30 2989 H 277.211 5.24452 -1.72202 0
M  V30 2990 H 279.687 4.15897 -0.130035 0
M  V30 2991 H 278.563 5.48221 0.272932 0
M  V30 2992 H 278.824 4.18425 1.42734 0
M  V30 2993 N 277.883 0.443576 1.51229 0
M  V30 2994 C 279.129 -0.120975 2.02439 0
M  V30 2995 C 279.462 -1.41815 1.32674 0
M  V30 2996 O 278.737 -1.89373 0.443622 0
M  V30 2997 C 279.02 -0.333291 3.58554 0
M  V30 2998 C 278.873 0.982968 4.38928 0
M  V30 2999 C 280.192 -1.10028 4.26124 0
M  V30 3000 H 277.311 -0.0424923 0.735774 0
M  V30 3001 H 279.953 0.583794 1.80809 0
M  V30 3002 H 278.103 -0.933614 3.77115 0
M  V30 3003 H 279.775 1.61775 4.32003 0
M  V30 3004 H 278.018 1.58611 4.03763 0
M  V30 3005 H 278.689 0.788379 5.46341 0
M  V30 3006 H 281.165 -0.591711 4.11871 0
M  V30 3007 H 280.041 -1.21761 5.35225 0
M  V30 3008 H 280.302 -2.12996 3.87408 0
M  V30 3009 N 279.361 -1.56624 0.175154 0
M  V30 3010 C 280.293 -2.15333 -0.785128 0
M  V30 3011 C 281.306 -1.1099 -1.19101 0
M  V30 3012 O 282.495 -1.38162 -1.13019 0
M  V30 3013 C 279.595 -2.68427 -2.06882 0
M  V30 3014 C 278.768 -3.97466 -1.8259 0
M  V30 3015 C 277.827 -4.35585 -2.95215 0
M  V30 3016 O 276.853 -5.03389 -2.65684 0
M  V30 3017 N 278.055 -3.97457 -4.23094 0
M  V30 3018 H 280.82 -2.98359 -0.283187 0
M  V30 3019 H 278.381 -1.61898 -0.00749817 0
M  V30 3020 H 280.373 -2.90924 -2.81328 0
M  V30 3021 H 278.943 -1.89968 -2.48256 0
M  V30 3022 H 278.163 -3.83307 -0.920287 0
M  V30 3023 H 279.451 -4.81736 -1.63733 0
M  V30 3024 H 278.849 -3.42878 -4.49945 0
M  V30 3025 H 277.406 -4.24947 -4.9423 0
M  V30 3026 N 280.839 0.0985539 -1.57292 0
M  V30 3027 C 282.088 0.801358 -1.85098 0
M  V30 3028 C 282.401 1.80066 -0.763902 0
M  V30 3029 O 283.607 2.55112 -0.928981 0
M  V30 3030 C 282.063 1.47599 -3.28242 0
M  V30 3031 C 281.671 0.516624 -4.45011 0
M  V30 3032 C 283.415 2.16272 -3.65276 0
M  V30 3033 C 281.322 1.19564 -5.79188 0
M  V30 3034 H 280.252 0.303022 -0.69043 0
M  V30 3035 H 282.903 0.0542623 -1.8342 0
M  V30 3036 H 281.285 2.27042 -3.2445 0
M  V30 3037 H 282.459 -0.246065 -4.60143 0
M  V30 3038 H 280.774 -0.064227 -4.1635 0
M  V30 3039 H 283.371 2.67802 -4.62803 0
M  V30 3040 H 283.714 2.95009 -2.93727 0
M  V30 3041 H 284.247 1.43693 -3.70941 0
M  V30 3042 H 280.986 0.449157 -6.53959 0
M  V30 3043 H 280.506 1.92984 -5.67906 0
M  V30 3044 H 282.185 1.7231 -6.23633 0
M  V30 3045 N 282.317 1.53212 0.369288 0
M  V30 3046 C 283.564 1.69215 1.11232 0
M  V30 3047 C 283.892 0.442048 1.8941 0
M  V30 3048 O 283.147 -0.575944 1.87033 0
M  V30 3049 C 283.446 2.89101 2.10132 0
M  V30 3050 C 283.112 4.25758 1.48463 0
M  V30 3051 C 281.774 4.6292 1.31372 0
M  V30 3052 C 284.126 5.10757 1.03811 0
M  V30 3053 C 281.454 5.82722 0.68207 0
M  V30 3054 C 283.806 6.31201 0.420487 0
M  V30 3055 C 282.47 6.67079 0.237038 0
M  V30 3056 H 281.74 0.619201 0.407027 0
M  V30 3057 H 284.387 1.87391 0.394552 0
M  V30 3058 H 282.692 2.65421 2.88199 0
M  V30 3059 H 284.389 2.98676 2.6757 0
M  V30 3060 H 280.979 3.96494 1.62758 0
M  V30 3061 H 285.163 4.82599 1.1581 0
M  V30 3062 H 280.419 6.09113 0.528316 0
M  V30 3063 H 284.593 6.96368 0.0662874 0
M  V30 3064 H 282.22 7.59774 -0.254477 0
M  V30 3065 N 283.795 -0.628877 1.44509 0
M  V30 3066 C 285.072 -1.38733 1.37886 0
M  V30 3067 C 285.452 -2.11065 0.0387008 0
M  V30 3068 O 284.8 -2.06476 -0.97878 0
M  V30 3069 C 285.01 -2.35188 2.57852 0
M  V30 3070 C 286.358 -2.9845 3.02014 0
M  V30 3071 O 287.382 -2.45513 2.58073 0
M  V30 3072 O 286.241 -3.94487 3.78209 0
M  V30 3073 H 283.335 -0.621015 0.54614 0
M  V30 3074 H 285.881 -0.653744 1.56602 0
M  V30 3075 H 284.653 -1.80855 3.46998 0
M  V30 3076 H 284.276 -3.1596 2.4136 0
M  V30 3077 N 285.273 -1.31445 -0.869486 0
M  V30 3078 C 286.22 -1.19135 -1.97675 0
M  V30 3079 C 287.19 -0.0770266 -1.65921 0
M  V30 3080 O 288.375 -0.249972 -1.89155 0
M  V30 3081 C 285.515 -0.905149 -3.33018 0
M  V30 3082 C 284.628 -2.10285 -3.77365 0
M  V30 3083 C 283.763 -1.75339 -5.01427 0
M  V30 3084 C 282.802 -2.91515 -5.38224 0
M  V30 3085 N 281.939 -2.56762 -6.53466 0
M  V30 3086 H 286.779 -2.13853 -2.07535 0
M  V30 3087 H 284.316 -1.06379 -1.01597 0
M  V30 3088 H 286.274 -0.719765 -4.10944 0
M  V30 3089 H 284.904 0.00519624 -3.228 0
M  V30 3090 H 283.956 -2.39899 -2.95216 0
M  V30 3091 H 285.268 -2.97237 -4.00564 0
M  V30 3092 H 284.422 -1.53266 -5.87022 0
M  V30 3093 H 283.161 -0.855801 -4.80133 0
M  V30 3094 H 282.166 -3.14237 -4.51149 0
M  V30 3095 H 283.391 -3.81985 -5.61484 0
M  V30 3096 H 281.337 -1.69526 -6.33717 0
M  V30 3097 H 281.254 -3.37243 -6.76612 0
M  V30 3098 H 282.522 -2.38083 -7.42251 0
M  V30 3099 N 286.751 1.08385 -1.14413 0
M  V30 3100 C 287.661 2.18856 -0.844951 0
M  V30 3101 C 288.677 1.73121 0.174668 0
M  V30 3102 O 289.853 2.014 0.00312857 0
M  V30 3103 C 286.918 3.45155 -0.32696 0
M  V30 3104 C 285.979 4.05513 -1.40916 0
M  V30 3105 C 285.212 5.25784 -0.915793 0
M  V30 3106 O 285.435 5.69884 0.242651 0
M  V30 3107 O 284.369 5.77545 -1.69487 0
M  V30 3108 H 288.195 2.46919 -1.76818 0
M  V30 3109 H 285.78 1.17524 -0.922411 0
M  V30 3110 H 287.662 4.21377 -0.0440211 0
M  V30 3111 H 286.337 3.18668 0.568539 0
M  V30 3112 H 285.244 3.30879 -1.74556 0
M  V30 3113 H 286.577 4.3625 -2.27919 0
M  V30 3114 N 288.23 0.939286 1.26551 0
M  V30 3115 C 289.478 0.58469 1.93457 0
M  V30 3116 C 289.799 -0.878774 1.74076 0
M  V30 3117 O 289.069 -1.62421 1.09528 0
M  V30 3118 H 287.649 0.21325 0.715914 0
M  V30 3119 H 290.311 1.1942 1.54029 0
M  V30 3120 H 289.407 0.800849 3.0165 0
M  V30 3121 O 289.747 -1.37657 0.844552 0
M  V30 3122 H 290.438 -1.88761 0.43461 0
M  V30 END ATOM
M  V30 BEGIN BOND
M  V30 END BOND
M  V30 END CTAB
M  END
$$$$
