drugbank_target|Q9H2S1 Small conductance calcium-activated potassium channel protein 2 (DB00721; DB01110; DB09089)
 OpenBabel12092121003D

  0  0  0     0  0            999 V3000
M  V30 BEGIN CTAB
M  V30 COUNTS 9033 9114 0 0 0
M  V30 BEGIN ATOM
M  V30 1 H -0.908 1.98254 -0.117106 0
M  V30 2 N 0 1.576 0 0
M  V30 3 C 0.933 2.03868 1.02534 0
M  V30 4 C 1.911 0.928543 1.3348 0
M  V30 5 O 3.095 1.19667 1.45644 0
M  V30 6 C 0.222 2.43627 2.35294 0
M  V30 7 C -0.732 3.65373 2.2001 0
M  V30 8 S 0.101 5.13292 1.52614 0
M  V30 9 C 1.257 5.56322 2.86805 0
M  V30 10 H 1.49 2.90518 0.631377 0
M  V30 11 H -0.977 1.52953 0.210867 0
M  V30 12 H 0.981 2.67203 3.11629 0
M  V30 13 H -0.358 1.57376 2.7183 0
M  V30 14 H -1.165 3.90944 3.18086 0
M  V30 15 H -1.563 3.418 1.51819 0
M  V30 16 H 0.729 5.58782 3.83104 0
M  V30 17 H 1.672 6.56266 2.65933 0
M  V30 18 H 2.08 4.83886 2.90714 0
M  V30 19 N 1.4781 -0.272755 1.55222 0
M  V30 20 C 2.7031 -1.02683 1.80197 0
M  V30 21 C 3.1281 -1.79142 0.573551 0
M  V30 22 O 2.4861 -1.74917 -0.476849 0
M  V30 23 C 2.5341 -1.9609 3.02624 0
M  V30 24 O 1.6381 -3.04863 2.77727 0
M  V30 25 H 0.9791 -0.293557 0.595584 0
M  V30 26 H 3.5091 -0.30159 2.02365 0
M  V30 27 H 3.5191 -2.38039 3.31363 0
M  V30 28 H 2.1941 -1.39851 3.91682 0
M  V30 29 H 0.7711 -2.67228 2.60084 0
M  V30 30 N 2.9562 -1.48159 -0.537278 0
M  V30 31 C 4.1812 -1.59707 -1.32319 0
M  V30 32 C 4.6062 -0.254859 -1.86365 0
M  V30 33 O 3.9642 0.772378 -1.64024 0
M  V30 34 C 4.0122 -2.6412 -2.45505 0
M  V30 35 O 3.1162 -2.20774 -3.48328 0
M  V30 36 H 2.4572 -0.535791 -0.392204 0
M  V30 37 H 4.9872 -1.94092 -0.647268 0
M  V30 38 H 4.9972 -2.85166 -2.91795 0
M  V30 39 H 3.6722 -3.61567 -2.05528 0
M  V30 40 H 2.2492 -2.09911 -3.08207 0
M  V30 41 N 4.4343 0.785586 -1.36625 0
M  V30 42 C 5.6743 1.55678 -1.32453 0
M  V30 43 C 6.0383 1.91769 0.0941089 0
M  V30 44 O 7.2393 2.67536 0.26042 0
M  V30 45 C 5.5103 2.79701 -2.22491 0
M  V30 46 S 7.0693 3.69907 -2.36038 0
M  V30 47 H 3.8873 0.533141 -0.470405 0
M  V30 48 H 6.4893 0.924953 -1.72235 0
M  V30 49 H 5.1933 2.51244 -3.24507 0
M  V30 50 H 4.7243 3.47854 -1.83742 0
M  V30 51 H 6.7393 4.71016 -1.56072 0
M  V30 52 N 5.9124 1.20967 1.01018 0
M  V30 53 C 7.3284 0.965905 1.27053 0
M  V30 54 C 7.5284 -0.350785 1.98423 0
M  V30 55 O 6.5844 -1.07773 2.28344 0
M  V30 56 C 7.8974 2.15294 2.09926 0
M  V30 57 C 9.4454 2.19463 2.23171 0
M  V30 58 C 9.9204 3.3767 3.09424 0
M  V30 59 N 11.4114 3.37724 3.17012 0
M  V30 60 C 12.1464 4.25837 3.83993 0
M  V30 61 N 11.6424 5.24138 4.53047 0
M  V30 62 N 13.4354 4.1366 3.80581 0
M  V30 63 H 5.5864 2.0565 0.531194 0
M  V30 64 H 7.8494 0.90024 0.297106 0
M  V30 65 H 7.5554 3.10684 1.64828 0
M  V30 66 H 7.4294 2.13923 3.10672 0
M  V30 67 H 9.8164 1.24632 2.6749 0
M  V30 68 H 9.8974 2.2488 1.21912 0
M  V30 69 H 9.5414 4.32791 2.65808 0
M  V30 70 H 9.4714 3.29491 4.10784 0
M  V30 71 H 11.9624 2.6658 2.6785 0
M  V30 72 H 12.2754 5.87684 5.01844 0
M  V30 73 H 10.6204 5.28068 4.5185 0
M  V30 74 H 13.8114 3.36127 3.25785 0
M  V30 75 H 13.9844 4.82538 4.32505 0
M  V30 76 N 7.3905 -1.2043 1.01659 0
M  V30 77 C 8.6205 -1.93496 0.724081 0
M  V30 78 C 9.0285 -1.74998 -0.71918 0
M  V30 79 O 8.3715 -1.06118 -1.49949 0
M  V30 80 C 8.4335 -3.45886 0.97994 0
M  V30 81 C 8.0975 -3.88145 2.41232 0
M  V30 82 C 9.0945 -3.93907 3.39313 0
M  V30 83 C 6.7795 -4.20134 2.75305 0
M  V30 84 C 8.7735 -4.31069 4.6953 0
M  V30 85 C 6.4605 -4.56971 4.05735 0
M  V30 86 C 7.4585 -4.62411 5.02658 0
M  V30 87 O 7.1465 -4.98403 6.30754 0
M  V30 88 H 6.8785 -0.621824 0.265162 0
M  V30 89 H 9.4325 -1.53867 1.36066 0
M  V30 90 H 7.6625 -3.85639 0.286198 0
M  V30 91 H 9.3515 -4.0018 0.679021 0
M  V30 92 H 10.1175 -3.69357 3.14325 0
M  V30 93 H 5.9965 -4.1509 2.00551 0
M  V30 94 H 9.5405 -4.3523 5.45179 0
M  V30 95 H 5.4375 -4.80977 4.30502 0
M  V30 96 H 6.2055 -5.16395 6.35042 0
M  V30 97 N 8.8686 -0.792821 -1.36206 0
M  V30 98 C 9.8166 -0.181555 -2.3189 0
M  V30 99 C 10.8106 0.661025 -1.55971 0
M  V30 100 O 12.0166 0.555728 -1.71206 0
M  V30 101 H 8.3916 -0.0399382 -0.750939 0
M  V30 102 H 10.3626 -1.00394 -2.81005 0
M  V30 103 C 9.1116 0.666444 -3.41253 0
M  V30 104 H 8.4346 0.0274489 -3.99791 0
M  V30 105 H 9.8746 1.06076 -4.10517 0
M  V30 106 C 8.3336 1.82614 -2.83114 0
M  V30 107 O 8.8636 2.9229 -2.75553 0
M  V30 108 N 7.0696 1.63333 -2.40356 0
M  V30 109 H 6.6166 0.741217 -2.46706 0
M  V30 110 H 6.5746 2.41087 -2.01803 0
M  V30 111 N 10.3467 1.47872 -0.545128 0
M  V30 112 C 11.5947 2.02093 -0.016553 0
M  V30 113 C 11.9157 1.42305 1.3332 0
M  V30 114 O 11.1857 0.593853 1.86682 0
M  V30 115 H 9.7657 0.746993 -0.00313038 0
M  V30 116 H 12.4277 1.81414 -0.712397 0
M  V30 117 H 11.5237 3.11996 0.0805422 0
M  V30 118 N 11.8248 0.280983 1.55075 0
M  V30 119 C 13.0728 -0.333455 1.9933 0
M  V30 120 C 13.3938 -1.55937 1.17085 0
M  V30 121 O 12.6638 -1.94143 0.261805 0
M  V30 122 H 11.2438 -0.126197 0.736263 0
M  V30 123 H 13.9058 0.387678 1.91005 0
M  V30 124 H 13.0018 -0.619292 3.05894 0
M  V30 125 N 13.3029 -1.57598 0.00835791 0
M  V30 126 C 14.5489 -1.91211 -0.675732 0
M  V30 127 C 14.8819 -0.883139 -1.72958 0
M  V30 128 O 14.1569 0.097016 -1.94258 0
M  V30 129 C 14.4399 -3.35379 -1.31123 0
M  V30 130 C 14.2929 -4.48999 -0.268356 0
M  V30 131 C 15.6119 -3.7912 -2.23508 0
M  V30 132 H 12.7309 -0.695374 -0.244179 0
M  V30 133 H 15.3729 -1.89901 0.0613655 0
M  V30 134 H 13.5229 -3.36626 -1.93946 0
M  V30 135 H 15.1949 -4.59887 0.360844 0
M  V30 136 H 13.4379 -4.31873 0.408482 0
M  V30 137 H 14.1089 -5.46851 -0.752218 0
M  V30 138 H 16.5849 -3.79477 -1.70693 0
M  V30 139 H 15.4609 -4.80729 -2.64936 0
M  V30 140 H 15.7219 -3.13455 -3.11766 0
M  V30 141 N 14.781 0.264519 -1.55364 0
M  V30 142 C 15.714 1.35297 -1.83766 0
M  V30 143 C 16.692 1.47171 -0.691336 0
M  V30 144 O 17.876 1.63663 -0.935238 0
M  V30 145 C 15.003 2.72847 -2.00679 0
M  V30 146 C 14.049 2.78214 -3.23263 0
M  V30 147 S 14.882 2.36601 -4.80396 0
M  V30 148 C 16.038 3.7611 -5.00292 0
M  V30 149 H 16.271 1.11003 -2.758 0
M  V30 150 H 13.804 0.464596 -1.47244 0
M  V30 151 H 15.762 3.52057 -2.11108 0
M  V30 152 H 14.423 2.94388 -1.09518 0
M  V30 153 H 13.616 3.7919 -3.3201 0
M  V30 154 H 13.218 2.07034 -3.11469 0
M  V30 155 H 15.51 4.71457 -4.86554 0
M  V30 156 H 16.453 3.7231 -6.02321 0
M  V30 157 H 16.861 3.67806 -4.28228 0
M  V30 158 N 16.2591 1.48442 0.529413 0
M  V30 159 C 17.6751 1.34575 0.858004 0
M  V30 160 C 17.8751 0.3572 1.98309 0
M  V30 161 O 16.9311 -0.221379 2.51528 0
M  V30 162 C 18.2441 2.74617 1.22499 0
M  V30 163 C 19.7921 2.83109 1.33484 0
M  V30 164 C 20.2671 4.23854 1.73526 0
M  V30 165 N 21.7581 4.2653 1.80628 0
M  V30 166 C 22.4931 5.32372 2.12997 0
M  V30 167 N 21.9891 6.48491 2.43786 0
M  V30 168 N 23.7821 5.19766 2.14008 0
M  V30 169 H 15.9331 2.1133 -0.212925 0
M  V30 170 H 18.1961 0.947439 -0.0326199 0
M  V30 171 H 17.9021 3.4852 0.471905 0
M  V30 172 H 17.7761 3.08177 2.17501 0
M  V30 173 H 20.1631 2.09462 2.0787 0
M  V30 174 H 20.2441 2.53168 0.366027 0
M  V30 175 H 19.8881 4.98018 0.997013 0
M  V30 176 H 19.8181 4.5124 2.71459 0
M  V30 177 H 22.3091 3.42772 1.59108 0
M  V30 178 H 22.6221 7.24993 2.67592 0
M  V30 179 H 20.9671 6.51765 2.41304 0
M  V30 180 H 24.1581 4.28066 1.89412 0
M  V30 181 H 24.3311 6.02354 2.38902 0
M  V30 182 N 17.7372 -0.778329 1.37039 0
M  V30 183 C 19.1482 -1.35421 1.28523 0
M  V30 184 C 19.4992 -1.96075 -0.0700901 0
M  V30 185 O 18.6242 -1.93352 -0.971801 0
M  V30 186 C 19.2192 -2.46211 2.32735 0
M  V30 187 C 17.7782 -2.99585 2.27873 0
M  V30 188 C 16.9252 -1.72748 2.16918 0
M  V30 189 H 19.8762 -0.5791 1.47757 0
M  V30 190 H 19.8972 -3.2552 1.9702 0
M  V30 191 H 19.4092 -2.02036 3.31365 0
M  V30 192 H 17.5102 -3.48152 1.32745 0
M  V30 193 H 17.6232 -3.55646 3.21018 0
M  V30 194 H 15.9872 -1.95416 1.63354 0
M  V30 195 H 16.7702 -1.30686 3.17452 0
M  V30 196 N 19.2153 -1.21501 -1.00376 0
M  V30 197 C 20.1453 -0.999478 -2.11028 0
M  V30 198 C 21.1263 0.0759671 -1.6993 0
M  V30 199 O 22.3113 -0.0841106 -1.94018 0
M  V30 200 C 19.4413 -0.564709 -3.42678 0
M  V30 201 C 18.3953 -1.58486 -3.97576 0
M  V30 202 C 17.7213 -1.00628 -5.25146 0
M  V30 203 C 19.0213 -2.97204 -4.29496 0
M  V30 204 H 20.7153 -1.92495 -2.29317 0
M  V30 205 H 18.2613 -0.92693 -1.102 0
M  V30 206 H 20.2143 -0.401091 -4.19487 0
M  V30 207 H 18.9383 0.396411 -3.24185 0
M  V30 208 H 17.5973 -1.73606 -3.22888 0
M  V30 209 H 17.2453 -0.0368439 -5.02987 0
M  V30 210 H 16.9453 -1.68771 -5.62841 0
M  V30 211 H 18.4693 -0.854015 -6.04598 0
M  V30 212 H 19.8833 -2.8552 -4.97143 0
M  V30 213 H 18.2803 -3.62372 -4.78338 0
M  V30 214 H 19.3503 -3.47956 -3.3772 0
M  V30 215 N 20.6934 1.19889 -1.02296 0
M  V30 216 C 21.9184 1.9393 -0.735237 0
M  V30 217 C 22.3434 1.74639 0.698782 0
M  V30 218 O 21.7014 1.04481 1.48167 0
M  V30 219 C 21.7494 3.43916 -1.08417 0
M  V30 220 O 20.8534 4.11917 -0.199446 0
M  V30 221 H 20.1944 0.605645 -0.272196 0
M  V30 222 H 22.7244 1.52137 -1.36804 0
M  V30 223 H 22.7344 3.9456 -1.03856 0
M  V30 224 H 21.4094 3.5728 -2.12894 0
M  V30 225 H 19.9864 3.71666 -0.303136 0
M  V30 226 N 22.1715 0.800033 1.35784 0
M  V30 227 C 23.1195 0.193851 2.31791 0
M  V30 228 C 24.1135 -0.652744 1.56319 0
M  V30 229 O 25.3195 -0.546641 1.71499 0
M  V30 230 H 21.6945 0.04392 0.750716 0
M  V30 231 H 23.6655 1.01883 2.80468 0
M  V30 232 C 22.4145 -0.648338 3.41602 0
M  V30 233 H 21.7375 -0.00624665 3.998 0
M  V30 234 H 23.1775 -1.03898 4.11073 0
M  V30 235 C 21.6365 -1.8111 2.84079 0
M  V30 236 O 22.1665 -2.90825 2.77099 0
M  V30 237 N 20.3725 -1.62056 2.41218 0
M  V30 238 H 19.9195 -0.728123 2.47095 0
M  V30 239 H 19.8775 -2.40013 2.03079 0
M  V30 240 N 23.6496 -1.47581 0.552962 0
M  V30 241 C 24.5796 -2.32762 -0.185451 0
M  V30 242 C 25.5606 -1.43527 -0.912905 0
M  V30 243 O 26.7456 -1.72388 -0.894201 0
M  V30 244 C 23.8756 -3.25219 -1.21859 0
M  V30 245 C 22.8296 -4.23661 -0.607864 0
M  V30 246 C 22.1556 -5.05413 -1.74533 0
M  V30 247 C 23.4556 -5.20481 0.435582 0
M  V30 248 H 25.1496 -2.94749 0.525684 0
M  V30 249 H 22.6956 -1.41738 0.254251 0
M  V30 250 H 24.6486 -3.8365 -1.7433 0
M  V30 251 H 23.3726 -2.61279 -1.95961 0
M  V30 252 H 22.0316 -3.66451 -0.104489 0
M  V30 253 H 21.6796 -4.3788 -2.47529 0
M  V30 254 H 21.3796 -5.72059 -1.34249 0
M  V30 255 H 22.9036 -5.66701 -2.27338 0
M  V30 256 H 24.3176 -5.733 -0.00290157 0
M  V30 257 H 22.7146 -5.95305 0.757067 0
M  V30 258 H 23.7846 -4.66217 1.33303 0
M  V30 259 N 25.1277 -0.289203 -1.54924 0
M  V30 260 C 26.3527 0.329299 -2.04769 0
M  V30 261 C 26.7777 1.4763 -1.16564 0
M  V30 262 O 26.1357 1.80527 -0.167186 0
M  V30 263 C 26.1837 0.774438 -3.52186 0
M  V30 264 O 25.2877 1.88038 -3.67036 0
M  V30 265 H 24.6287 0.0659259 -0.660719 0
M  V30 266 H 27.1587 -0.42761 -2.00082 0
M  V30 267 H 27.1687 1.06642 -3.93816 0
M  V30 268 H 25.8437 -0.0646707 -4.1585 0
M  V30 269 H 24.4207 1.58985 -3.3731 0
M  V30 270 N 26.6058 1.57591 -0.0167156 0
M  V30 271 C 27.5688 2.08393 0.954204 0
M  V30 272 C 28.5688 0.996531 1.26198 0
M  V30 273 O 29.7588 1.25858 1.20438 0
M  V30 274 C 26.8908 2.5394 2.27436 0
M  V30 275 H 28.0838 2.95455 0.514451 0
M  V30 276 H 25.6368 1.54582 0.231089 0
M  V30 277 H 26.3718 1.70171 2.76066 0
M  V30 278 H 26.1568 3.33371 2.06412 0
M  V30 279 H 27.6468 2.93512 2.97053 0
M  V30 280 N 28.0839 -0.256276 1.55502 0
M  V30 281 C 29.3089 -1.00766 1.81276 0
M  V30 282 C 29.7339 -1.78524 0.59252 0
M  V30 283 O 29.0919 -1.75413 -0.45827 0
M  V30 284 C 29.1399 -1.92869 3.04687 0
M  V30 285 O 28.2439 -3.019 2.80945 0
M  V30 286 H 27.5849 -0.287224 0.598664 0
M  V30 287 H 30.1149 -0.280109 2.02674 0
M  V30 288 H 30.1249 -2.34511 3.33869 0
M  V30 289 H 28.7999 -1.35689 3.93143 0
M  V30 290 H 27.3769 -2.64454 2.62904 0
M  V30 291 N 29.562 -1.4872 -0.521534 0
M  V30 292 C 30.978 -1.35028 -0.850855 0
M  V30 293 C 31.178 -0.367712 -1.98116 0
M  V30 294 O 30.234 0.208037 -2.51642 0
M  V30 295 C 31.547 -2.75263 -1.21041 0
M  V30 296 C 33.095 -2.83813 -1.31981 0
M  V30 297 C 33.57 -4.24769 -1.71276 0
M  V30 298 N 35.061 -4.27482 -1.78363 0
M  V30 299 C 35.796 -5.33494 -2.1017 0
M  V30 300 N 35.292 -6.49775 -2.40343 0
M  V30 301 N 37.085 -5.20894 -2.11248 0
M  V30 302 H 29.236 -2.11214 0.22413 0
M  V30 303 H 31.499 -0.947252 0.0376439 0
M  V30 304 H 31.205 -3.48765 -0.453415 0
M  V30 305 H 31.079 -3.09327 -2.15863 0
M  V30 306 H 33.466 -2.10561 -2.06756 0
M  V30 307 H 33.547 -2.53358 -0.352596 0
M  V30 308 H 33.191 -4.9854 -0.970588 0
M  V30 309 H 33.121 -4.52673 -2.69062 0
M  V30 310 H 35.612 -3.43611 -1.57288 0
M  V30 311 H 35.925 -7.26402 -2.63743 0
M  V30 312 H 34.27 -6.53035 -2.37844 0
M  V30 313 H 37.461 -4.29065 -1.87139 0
M  V30 314 H 37.634 -6.03612 -2.35704 0
M  V30 315 N 31.0401 0.771051 -1.3745 0
M  V30 316 C 32.4561 1.07171 -1.18265 0
M  V30 317 C 32.6561 2.01491 -0.019287 0
M  V30 318 O 31.7121 2.44244 0.640408 0
M  V30 319 C 33.0251 1.66854 -2.50161 0
M  V30 320 C 34.5731 1.79109 -2.56689 0
M  V30 321 C 35.0481 2.42205 -3.88717 0
M  V30 322 N 36.5391 2.49655 -3.90162 0
M  V30 323 C 37.2741 2.9933 -4.8907 0
M  V30 324 N 36.7701 3.49172 -5.98374 0
M  V30 325 N 38.5631 2.9821 -4.76474 0
M  V30 326 H 30.7141 0.144796 -2.11906 0
M  V30 327 H 32.9771 0.126863 -0.939473 0
M  V30 328 H 32.6831 1.05017 -3.35655 0
M  V30 329 H 32.5571 2.6614 -2.673 0
M  V30 330 H 34.9441 2.40077 -1.71601 0
M  V30 331 H 35.0251 0.785757 -2.43433 0
M  V30 332 H 34.6691 1.81875 -4.74219 0
M  V30 333 H 34.5991 3.43345 -3.99276 0
M  V30 334 H 37.0901 2.14383 -3.11205 0
M  V30 335 H 37.4031 3.8548 -6.69795 0
M  V30 336 H 35.7481 3.47275 -6.02018 0
M  V30 337 H 38.9391 2.58572 -3.90203 0
M  V30 338 H 39.1121 3.36613 -5.53711 0
M  V30 339 N 32.5182 1.22032 0.997298 0
M  V30 340 C 33.4662 0.983634 2.10778 0
M  V30 341 C 34.4602 -0.0717564 1.69248 0
M  V30 342 O 35.6662 0.080304 1.79821 0
M  V30 343 H 32.0412 0.300877 0.689186 0
M  V30 344 H 34.0122 1.92606 2.27916 0
M  V30 345 C 32.7612 0.57326 3.42942 0
M  V30 346 H 32.0842 1.37702 3.75338 0
M  V30 347 H 33.5242 0.447031 4.21637 0
M  V30 348 C 31.9832 -0.7167 3.29188 0
M  V30 349 O 32.5132 -1.77027 3.60589 0
M  V30 350 N 30.7192 -0.686167 2.82383 0
M  V30 351 H 30.2662 0.171507 2.57028 0
M  V30 352 H 30.2242 -1.54955 2.73562 0
M  V30 353 N 33.9963 -1.19345 1.0293 0
M  V30 354 C 34.9263 -2.2481 0.631105 0
M  V30 355 C 35.9073 -1.66245 -0.360104 0
M  V30 356 O 37.0923 -1.92677 -0.242726 0
M  V30 357 C 34.2223 -3.47295 -0.0184607 0
M  V30 358 C 33.1763 -4.18536 0.895073 0
M  V30 359 C 32.5023 -5.34586 0.110592 0
M  V30 360 C 33.8023 -4.73287 2.209 0
M  V30 361 H 35.4963 -2.58372 1.51275 0
M  V30 362 H 33.0423 -1.24194 0.728818 0
M  V30 363 H 34.9953 -4.20268 -0.308675 0
M  V30 364 H 33.7193 -3.12933 -0.934907 0
M  V30 365 H 32.3783 -3.47446 1.16949 0
M  V30 366 H 32.0263 -4.96469 -0.807902 0
M  V30 367 H 31.7263 -5.83183 0.719087 0
M  V30 368 H 33.2503 -6.10355 -0.172871 0
M  V30 369 H 34.6643 -5.38013 1.98028 0
M  V30 370 H 33.0613 -5.32373 2.76946 0
M  V30 371 H 34.1313 -3.91331 2.86336 0
M  V30 372 N 35.4744 -0.807222 -1.35358 0
M  V30 373 C 36.4244 -0.190706 -2.27201 0
M  V30 374 C 37.4084 0.635838 -1.47804 0
M  V30 375 O 38.6004 0.492991 -1.69996 0
M  V30 376 C 35.7294 0.659337 -3.36909 0
M  V30 377 C 34.8154 -0.176971 -4.23731 0
M  V30 378 N 35.2064 -1.24029 -4.90357 0
M  V30 379 C 33.5044 0.0412953 -4.45981 0
M  V30 380 C 34.2054 -1.75092 -5.54723 0
M  V30 381 N 33.1814 -1.05727 -5.33219 0
M  V30 382 H 36.9834 -1.0043 -2.76208 0
M  V30 383 H 34.4974 -0.648445 -1.48892 0
M  V30 384 H 36.4944 1.11706 -4.01656 0
M  V30 385 H 35.1544 1.47127 -2.89454 0
M  V30 386 H 36.1654 -1.62295 -4.91814 0
M  V30 387 H 32.8424 0.82232 -4.09322 0
M  V30 388 H 34.2324 -2.63963 -6.17878 0
M  V30 389 N 36.9525 1.47285 -0.560781 0
M  V30 390 C 37.8625 2.33846 0.187954 0
M  V30 391 C 38.8785 1.48412 0.908293 0
M  V30 392 O 40.0545 1.81332 0.876388 0
M  V30 393 C 37.1195 3.25178 1.2025 0
M  V30 394 C 36.1805 4.26504 0.489208 0
M  V30 395 C 35.4135 5.13472 1.45542 0
M  V30 396 O 35.6365 5.02959 2.6905 0
M  V30 397 O 34.5705 5.93902 0.977963 0
M  V30 398 H 38.3965 2.99177 -0.522177 0
M  V30 399 H 35.9815 1.45903 -0.321364 0
M  V30 400 H 37.8635 3.81584 1.78805 0
M  V30 401 H 36.5385 2.6247 1.89449 0
M  V30 402 H 35.4455 3.73847 -0.137627 0
M  V30 403 H 36.7785 4.91935 -0.161399 0
M  V30 404 N 38.4306 0.297415 1.54768 0
M  V30 405 C 39.3636 -0.622188 2.19554 0
M  V30 406 C 40.3416 -1.13558 1.16376 0
M  V30 407 O 41.5256 -1.20444 1.45002 0
M  V30 408 C 38.6526 -1.8509 2.83653 0
M  V30 409 C 37.6986 -1.47106 4.00328 0
M  V30 410 S 38.5316 -0.53006 5.3287 0
M  V30 411 C 39.6876 -1.76665 6.0045 0
M  V30 412 H 39.9206 -0.0717806 2.97213 0
M  V30 413 H 37.4536 0.0815678 1.54184 0
M  V30 414 H 39.4116 -2.55605 3.21211 0
M  V30 415 H 38.0726 -2.37247 2.05846 0
M  V30 416 H 37.2656 -2.38594 4.43947 0
M  V30 417 H 36.8676 -0.845885 3.64309 0
M  V30 418 H 39.1596 -2.7077 6.21039 0
M  V30 419 H 40.1026 -1.37308 6.9466 0
M  V30 420 H 40.5106 -1.94174 5.30054 0
M  V30 421 N 39.9087 -1.5758 0.0250728 0
M  V30 422 C 41.1857 -1.82917 -0.692873 0
M  V30 423 C 41.5657 -0.908137 -1.90568 0
M  V30 424 O 40.9137 0.0372298 -2.2847 0
M  V30 425 C 41.1237 -3.32034 -1.07492 0
M  V30 426 C 42.4717 -3.98406 -1.46826 0
M  V30 427 O 43.4957 -3.36505 -1.16801 0
M  V30 428 O 42.3547 -5.07497 -2.02754 0
M  V30 429 H 39.4487 -0.754079 -0.33955 0
M  V30 430 H 41.9947 -1.69619 0.0524456 0
M  V30 431 H 40.7667 -3.90728 -0.211552 0
M  V30 432 H 40.3897 -3.50424 -1.87854 0
M  V30 433 N 41.3868 0.248026 -1.55636 0
M  V30 434 C 42.6118 0.998028 -1.81808 0
M  V30 435 C 43.0368 1.78207 -0.601979 0
M  V30 436 O 42.3948 1.75653 0.448961 0
M  V30 437 C 42.4428 1.9125 -3.05705 0
M  V30 438 O 41.5468 3.00406 -2.82542 0
M  V30 439 H 40.8878 0.284045 -0.600179 0
M  V30 440 H 43.4178 0.269357 -2.02819 0
M  V30 441 H 43.4278 2.32737 -3.35108 0
M  V30 442 H 42.1028 1.33602 -3.93857 0
M  V30 443 H 40.6798 2.63056 -2.64303 0
M  V30 444 N 42.8649 1.48995 0.513639 0
M  V30 445 C 43.7749 1.67443 1.64317 0
M  V30 446 C 44.7909 0.556947 1.64846 0
M  V30 447 O 45.9669 0.830082 1.83498 0
M  V30 448 C 43.0319 1.72515 3.00732 0
M  V30 449 C 42.0929 2.96009 3.1093 0
M  V30 450 C 41.3259 3.00829 4.40837 0
M  V30 451 O 41.5489 2.13594 5.28898 0
M  V30 452 O 40.4829 3.93168 4.55744 0
M  V30 453 H 44.3089 2.63106 1.51687 0
M  V30 454 H 41.8939 1.32588 0.688543 0
M  V30 455 H 43.7759 1.78277 3.81831 0
M  V30 456 H 42.4509 0.800278 3.13651 0
M  V30 457 H 41.3579 2.9577 2.29065 0
M  V30 458 H 42.6909 3.87934 3.02933 0
M  V30 459 N 44.343 -0.763751 1.37857 0
M  V30 460 C 45.306 -1.85889 1.34081 0
M  V30 461 C 46.306 -1.58949 0.243277 0
M  V30 462 O 47.496 -1.66882 0.499589 0
M  V30 463 C 44.628 -3.23176 1.08489 0
M  V30 464 H 45.821 -1.90648 2.31502 0
M  V30 465 H 43.374 -0.964367 1.23003 0
M  V30 466 H 44.109 -3.24091 0.116318 0
M  V30 467 H 43.894 -3.44124 1.8794 0
M  V30 468 H 45.384 -4.03254 1.08517 0
M  V30 469 N 45.8211 -1.22559 -0.990812 0
M  V30 470 C 46.7531 -0.955325 -2.08342 0
M  V30 471 C 47.7661 0.0668408 -1.62663 0
M  V30 472 O 48.9551 -0.167421 -1.77713 0
M  V30 473 C 46.0551 -0.415566 -3.36342 0
M  V30 474 C 45.2281 -1.49544 -4.11042 0
M  V30 475 C 44.2871 -0.962399 -5.17324 0
M  V30 476 O 43.3131 -1.64907 -5.44788 0
M  V30 477 N 44.5151 0.215134 -5.80101 0
M  V30 478 H 47.2801 -1.89596 -2.32106 0
M  V30 479 H 44.8411 -1.13276 -1.15673 0
M  V30 480 H 46.8331 -0.0442386 -4.04676 0
M  V30 481 H 45.4031 0.430232 -3.09625 0
M  V30 482 H 44.6231 -2.04 -3.37309 0
M  V30 483 H 45.9111 -2.22195 -4.57719 0
M  V30 484 H 45.3091 0.789779 -5.6016 0
M  V30 485 H 43.8661 0.527826 -6.49659 0
M  V30 486 N 47.2992 1.18797 -1.03562 0
M  V30 487 C 48.7102 1.70322 -0.764676 0
M  V30 488 C 49.0612 1.82708 0.714996 0
M  V30 489 O 48.1862 1.50299 1.55689 0
M  V30 490 C 48.7812 3.09356 -1.38145 0
M  V30 491 C 47.3402 3.58114 -1.15895 0
M  V30 492 C 46.4872 2.34798 -1.4753 0
M  V30 493 H 49.4382 1.03543 -1.20268 0
M  V30 494 H 49.4592 3.72378 -0.781977 0
M  V30 495 H 48.9712 3.00309 -2.45837 0
M  V30 496 H 47.0722 3.72464 -0.100544 0
M  V30 497 H 47.1852 4.4184 -1.8524 0
M  V30 498 H 45.5492 2.38464 -0.894829 0
M  V30 499 H 46.3322 2.28375 -2.56319 0
M  V30 500 N 48.7773 0.814389 1.34928 0
M  V30 501 C 49.7073 0.244827 2.32213 0
M  V30 502 C 50.6883 -0.634024 1.57842 0
M  V30 503 O 51.8733 -0.562676 1.8587 0
M  V30 504 C 49.0033 -0.601106 3.42058 0
M  V30 505 C 47.9573 0.179896 4.27622 0
M  V30 506 C 47.2833 -0.788237 5.28858 0
M  V30 507 C 48.5833 1.38329 5.03649 0
M  V30 508 H 50.2773 1.05763 2.80097 0
M  V30 509 H 47.8233 0.510029 1.34665 0
M  V30 510 H 49.7763 -1.00968 4.09125 0
M  V30 511 H 48.5003 -1.44688 2.92802 0
M  V30 512 H 47.1593 0.569739 3.62146 0
M  V30 513 H 46.8073 -1.62973 4.75866 0
M  V30 514 H 46.5073 -0.269942 5.8698 0
M  V30 515 H 48.0313 -1.19485 5.98795 0
M  V30 516 H 49.4453 1.04918 5.63618 0
M  V30 517 H 47.8423 1.83662 5.71304 0
M  V30 518 H 48.9123 2.16592 4.33839 0
M  V30 519 N 50.2554 -1.46986 0.568584 0
M  V30 520 C 51.1874 -2.28233 -0.210337 0
M  V30 521 C 52.2004 -1.37682 -0.868767 0
M  V30 522 O 53.3894 -1.62406 -0.740705 0
M  V30 523 C 50.4894 -3.12293 -1.3163 0
M  V30 524 C 49.6624 -4.30878 -0.7525 0
M  V30 525 C 48.7214 -4.96445 -1.74439 0
M  V30 526 O 47.7474 -5.54482 -1.286 0
M  V30 527 N 48.9494 -4.92171 -3.07812 0
M  V30 528 H 51.7144 -2.95723 0.486648 0
M  V30 529 H 49.2754 -1.56742 0.405409 0
M  V30 530 H 51.2674 -3.53022 -1.97883 0
M  V30 531 H 49.8374 -2.46971 -1.91636 0
M  V30 532 H 49.0574 -3.94104 0.0871128 0
M  V30 533 H 50.3454 -5.07558 -0.35536 0
M  V30 534 H 49.7434 -4.46239 -3.47688 0
M  V30 535 H 48.3004 -5.36884 -3.69592 0
M  V30 536 N 51.7335 -0.305618 -1.54608 0
M  V30 537 C 53.1445 0.186098 -1.8577 0
M  V30 538 C 53.4955 1.53058 -1.22751 0
M  V30 539 O 52.6205 2.09888 -0.526893 0
M  V30 540 C 53.2155 0.344449 -3.37044 0
M  V30 541 C 51.7745 0.780384 -3.68221 0
M  V30 542 C 50.9215 -0.108554 -2.77087 0
M  V30 543 H 53.8725 -0.526485 -1.49712 0
M  V30 544 H 53.8935 1.17828 -3.61796 0
M  V30 545 H 53.4055 -0.634235 -3.82883 0
M  V30 546 H 51.5065 1.76945 -3.27904 0
M  V30 547 H 51.6195 0.596572 -4.75371 0
M  V30 548 H 49.9835 0.412931 -2.5133 0
M  V30 549 H 50.7665 -1.08368 -3.25747 0
M  V30 550 N 53.2116 1.57565 -0.0334293 0
M  V30 551 C 54.6226 1.79746 0.504798 0
M  V30 552 C 54.9736 0.944091 1.71992 0
M  V30 553 O 54.0986 0.155694 2.15839 0
M  V30 554 C 54.6936 3.25997 0.922567 0
M  V30 555 C 53.2526 3.49159 1.40588 0
M  V30 556 C 52.3996 2.74785 0.372633 0
M  V30 557 H 55.3506 1.56565 -0.259436 0
M  V30 558 H 55.3716 3.35945 1.78666 0
M  V30 559 H 54.8836 3.88081 0.0379825 0
M  V30 560 H 52.9846 2.92332 2.31025 0
M  V30 561 H 53.0976 4.57873 1.41028 0
M  V30 562 H 51.4616 2.40391 0.841672 0
M  V30 563 H 52.2446 3.39587 -0.503559 0
M  V30 564 N 54.6897 -0.239769 1.55765 0
M  V30 565 C 55.6527 -1.28038 1.90103 0
M  V30 566 C 56.6527 -1.40723 0.778055 0
M  V30 567 O 57.8427 -1.39301 1.04599 0
M  V30 568 C 54.9747 -2.65702 2.13577 0
M  V30 569 H 56.1677 -0.988048 2.83157 0
M  V30 570 H 53.7207 -0.479382 1.48767 0
M  V30 571 H 54.4557 -3.00063 1.23015 0
M  V30 572 H 54.2407 -2.57875 2.95369 0
M  V30 573 H 55.7307 -3.40828 2.41301 0
M  V30 574 N 56.1678 -1.49265 -0.50573 0
M  V30 575 C 57.3928 -1.62478 -1.28902 0
M  V30 576 C 57.8178 -0.294332 -1.85783 0
M  V30 577 O 57.1758 0.737412 -1.65626 0
M  V30 578 C 57.2238 -2.69268 -2.39848 0
M  V30 579 O 56.3278 -2.28113 -3.43567 0
M  V30 580 H 55.6688 -0.54399 -0.380751 0
M  V30 581 H 58.1988 -1.95421 -0.605952 0
M  V30 582 H 58.2088 -2.91291 -2.85681 0
M  V30 583 H 56.8838 -3.65846 -1.97812 0
M  V30 584 H 55.4608 -2.16401 -3.03685 0
M  V30 585 N 57.6459 0.756429 -1.3826 0
M  V30 586 C 58.8919 1.51772 -1.34511 0
M  V30 587 C 59.2249 1.94089 0.0656691 0
M  V30 588 O 58.4999 1.65221 1.02626 0
M  V30 589 C 58.7829 2.77226 -2.29821 0
M  V30 590 C 58.6359 2.41065 -3.79747 0
M  V30 591 C 59.9549 3.79236 -2.23312 0
M  V30 592 H 57.0739 0.550578 -0.489931 0
M  V30 593 H 59.7159 0.866607 -1.69086 0
M  V30 594 H 57.8659 3.32784 -2.00467 0
M  V30 595 H 59.5379 1.91303 -4.19763 0
M  V30 596 H 57.7809 1.7356 -3.97567 0
M  V30 597 H 58.4519 3.3081 -4.41892 0
M  V30 598 H 60.9279 3.3321 -2.49219 0
M  V30 599 H 59.8039 4.64714 -2.92116 0
M  V30 600 H 60.0649 4.24615 -1.23102 0
M  V30 601 N 59.124 1.23083 0.984299 0
M  V30 602 C 60.372 1.05848 1.72165 0
M  V30 603 C 60.693 -0.406049 1.90726 0
M  V30 604 O 59.963 -1.29139 1.47309 0
M  V30 605 H 58.543 0.388685 0.637913 0
M  V30 606 H 61.205 1.54736 1.18503 0
M  V30 607 H 60.301 1.54327 2.71274 0
M  V30 608 N 60.6021 -1.18246 1.0419 0
M  V30 609 C 61.8501 -1.87886 0.744543 0
M  V30 610 C 62.1711 -1.8082 -0.730006 0
M  V30 611 O 61.4411 -1.22736 -1.52685 0
M  V30 612 H 60.0211 -0.695556 0.272417 0
M  V30 613 H 62.6831 -1.43494 1.31892 0
M  V30 614 H 61.7791 -2.9389 1.05049 0
M  V30 615 N 62.0802 -0.821533 -1.34494 0
M  V30 616 C 63.3282 -0.408139 -1.97936 0
M  V30 617 C 63.6492 1.03193 -1.65457 0
M  V30 618 O 62.9192 1.71622 -0.944595 0
M  V30 619 H 61.4992 -0.147928 -0.732206 0
M  V30 620 H 64.1612 -1.05067 -1.64155 0
M  V30 621 H 63.2572 -0.52601 -3.07635 0
M  V30 622 N 63.5583 1.46682 -0.576371 0
M  V30 623 C 64.8063 2.02013 -0.0594163 0
M  V30 624 C 65.1273 1.45101 1.30271 0
M  V30 625 O 64.3973 0.633317 1.8538 0
M  V30 626 H 62.9773 0.746759 -0.0189745 0
M  V30 627 H 65.6393 1.79862 -0.750717 0
M  V30 628 H 64.7353 3.12097 0.014345 0
M  V30 629 N 65.0364 0.313813 1.54444 0
M  V30 630 C 66.2844 -0.291099 1.99993 0
M  V30 631 C 66.6054 -1.53418 1.20366 0
M  V30 632 O 65.8754 -1.93544 0.302927 0
M  V30 633 H 64.4554 -0.110552 0.738774 0
M  V30 634 H 67.1174 0.428106 1.9014 0
M  V30 635 H 66.2134 -0.554268 3.07139 0
M  V30 636 N 66.5145 -1.57545 0.0417849 0
M  V30 637 C 67.4775 -2.09885 -0.92093 0
M  V30 638 C 68.4775 -1.01648 -1.24596 0
M  V30 639 O 69.6675 -1.27759 -1.1842 0
M  V30 640 C 66.7995 -2.57527 -2.23367 0
M  V30 641 H 67.9925 -2.96236 -0.467382 0
M  V30 642 H 65.5455 -1.5493 -0.206467 0
M  V30 643 H 66.2805 -1.74542 -2.73323 0
M  V30 644 H 66.0655 -3.36613 -2.01083 0
M  V30 645 H 67.5555 -2.98201 -2.92346 0
M  V30 646 N 67.9926 0.231505 -1.5589 0
M  V30 647 C 69.2176 0.978689 -1.82856 0
M  V30 648 C 69.6426 1.77559 -0.620846 0
M  V30 649 O 69.0006 1.76119 0.430305 0
M  V30 650 C 69.0486 1.87997 -3.07716 0
M  V30 651 O 68.1526 2.97393 -2.85712 0
M  V30 652 H 67.4936 0.277663 -0.603158 0
M  V30 653 H 70.0236 0.24783 -2.03093 0
M  V30 654 H 70.0336 2.2917 -3.37558 0
M  V30 655 H 68.7086 1.29417 -3.95252 0
M  V30 656 H 67.2856 2.60238 -2.67078 0
M  V30 657 N 69.4707 1.49531 0.497807 0
M  V30 658 C 70.6957 1.63159 1.28039 0
M  V30 659 C 71.1207 0.30418 1.85624 0
M  V30 660 O 70.4787 -0.728618 1.66015 0
M  V30 661 C 70.5267 2.70537 2.38416 0
M  V30 662 O 69.6307 2.29931 3.42353 0
M  V30 663 H 68.9717 0.546001 0.377861 0
M  V30 664 H 71.5017 1.9574 0.59558 0
M  V30 665 H 71.5117 2.92802 2.84132 0
M  V30 666 H 70.1867 3.6689 1.95869 0
M  V30 667 H 68.7637 2.18009 3.02533 0
M  V30 668 N 70.9488 -0.749086 1.3866 0
M  V30 669 C 72.3598 -1.32664 1.31366 0
M  V30 670 C 72.7108 -1.96179 -0.028484 0
M  V30 671 O 71.8358 -1.9537 -0.93057 0
M  V30 672 C 72.4308 -2.41219 2.37905 0
M  V30 673 C 70.9898 -2.94684 2.34176 0
M  V30 674 C 70.1368 -1.68108 2.20533 0
M  V30 675 H 73.0878 -0.547628 1.48952 0
M  V30 676 H 73.1088 -3.21268 2.0388 0
M  V30 677 H 72.6208 -1.94962 3.35576 0
M  V30 678 H 70.7218 -3.45258 1.401 0
M  V30 679 H 70.8348 -3.48757 3.2849 0
M  V30 680 H 69.1988 -1.91907 1.67463 0
M  V30 681 H 69.9818 -1.23923 3.20153 0
M  V30 682 N 72.4269 -1.23603 -0.977757 0
M  V30 683 C 73.6519 -1.09735 -1.75991 0
M  V30 684 C 74.0769 0.346858 -1.84874 0
M  V30 685 O 73.4349 1.25093 -1.3123 0
M  V30 686 C 73.4829 -1.73051 -3.16363 0
M  V30 687 O 72.5869 -0.994452 -4.0023 0
M  V30 688 H 71.9279 -0.384476 -0.541364 0
M  V30 689 H 74.4579 -1.6371 -1.2272 0
M  V30 690 H 74.4679 -1.78398 -3.66931 0
M  V30 691 H 73.1429 -2.78137 -3.09213 0
M  V30 692 H 71.7199 -1.01812 -3.58732 0
M  V30 693 N 73.905 1.17692 -1.04816 0
M  V30 694 C 74.868 2.19787 -0.650117 0
M  V30 695 C 75.868 1.58044 0.296427 0
M  V30 696 O 77.058 1.74012 0.0808097 0
M  V30 697 C 74.19 3.40869 0.0456987 0
M  V30 698 H 75.383 2.56516 -1.5537 0
M  V30 699 H 72.936 1.31708 -0.841594 0
M  V30 700 H 73.671 3.09681 0.962726 0
M  V30 701 H 73.456 3.86928 -0.634727 0
M  V30 702 H 74.946 4.16445 0.310432 0
M  V30 703 N 75.3831 0.828654 1.34056 0
M  V30 704 C 76.3461 0.259927 2.27721 0
M  V30 705 C 77.3461 -0.565478 1.50529 0
M  V30 706 O 78.5361 -0.38075 1.69988 0
M  V30 707 C 75.6681 -0.634944 3.34935 0
M  V30 708 H 76.8611 1.0863 2.79534 0
M  V30 709 H 74.4141 0.600951 1.44285 0
M  V30 710 H 75.1491 -1.48416 2.88346 0
M  V30 711 H 74.9341 -0.0444999 3.92075 0
M  V30 712 H 76.4241 -1.02648 4.04788 0
M  V30 713 N 76.8612 -1.46375 0.584142 0
M  V30 714 C 77.8242 -2.28784 -0.138108 0
M  V30 715 C 78.8242 -1.38471 -0.817462 0
M  V30 716 O 80.0142 -1.60833 -0.669199 0
M  V30 717 C 77.1462 -3.18892 -1.20503 0
M  V30 718 H 78.3392 -2.94117 0.586127 0
M  V30 719 H 75.8922 -1.52509 0.342171 0
M  V30 720 H 76.6272 -2.58309 -1.96079 0
M  V30 721 H 76.4122 -3.85388 -0.722384 0
M  V30 722 H 77.9022 -3.80914 -1.71155 0
M  V30 723 N 78.3393 -0.321999 -1.54275 0
M  V30 724 C 79.3023 0.531975 -2.22941 0
M  V30 725 C 80.3023 1.04478 -1.22234 0
M  V30 726 O 81.4923 0.937452 -1.46825 0
M  V30 727 C 78.6243 1.73874 -2.93224 0
M  V30 728 H 79.8173 -0.0682612 -2.99822 0
M  V30 729 H 77.3703 -0.0730644 -1.56129 0
M  V30 730 H 78.1053 2.37825 -2.20476 0
M  V30 731 H 77.8903 1.37847 -3.6707 0
M  V30 732 H 79.3803 2.34496 -3.45545 0
M  V30 733 N 79.8174 1.5752 -0.0501392 0
M  V30 734 C 80.7804 2.1037 0.909786 0
M  V30 735 C 81.7804 1.02308 1.24056 0
M  V30 736 O 82.9704 1.28385 1.17741 0
M  V30 737 C 80.1024 2.58708 2.21998 0
M  V30 738 H 81.2954 2.96479 0.451665 0
M  V30 739 H 78.8484 1.55038 0.198248 0
M  V30 740 H 79.5834 1.75989 2.72394 0
M  V30 741 H 79.3684 3.37675 1.99295 0
M  V30 742 H 80.8584 2.99747 2.9076 0
M  V30 743 N 81.2955 -0.223234 1.56011 0
M  V30 744 C 82.2585 -1.26014 1.9145 0
M  V30 745 C 83.2585 -1.3989 0.792937 0
M  V30 746 O 84.4485 -1.38184 1.0607 0
M  V30 747 C 81.5805 -2.63422 2.16383 0
M  V30 748 H 82.7735 -0.95796 2.84189 0
M  V30 749 H 80.3265 -0.463576 1.49267 0
M  V30 750 H 81.0615 -2.98741 1.2619 0
M  V30 751 H 80.8465 -2.54728 2.98088 0
M  V30 752 H 82.3365 -3.38249 2.44903 0
M  V30 753 N 82.7736 -1.49793 -0.48987 0
M  V30 754 C 83.7366 -1.66752 -1.57246 0
M  V30 755 C 84.7366 -0.538867 -1.51502 0
M  V30 756 O 85.9266 -0.805545 -1.54456 0
M  V30 757 C 83.0586 -1.67528 -2.96896 0
M  V30 758 H 84.2516 -2.63321 -1.43534 0
M  V30 759 H 81.8046 -1.38992 -0.714914 0
M  V30 760 H 82.5396 -0.725837 -3.16073 0
M  V30 761 H 82.3246 -2.49504 -3.02473 0
M  V30 762 H 83.8146 -1.82667 -3.7553 0
M  V30 763 N 84.2517 0.741722 -1.39055 0
M  V30 764 C 85.2147 1.83733 -1.37021 0
M  V30 765 C 86.2147 1.58542 -0.268534 0
M  V30 766 O 87.4047 1.66067 -0.526076 0
M  V30 767 C 84.5367 3.2141 -1.13617 0
M  V30 768 H 85.7297 1.86941 -2.34506 0
M  V30 769 H 83.2827 0.944676 -1.24521 0
M  V30 770 H 84.0177 3.23865 -0.167863 0
M  V30 771 H 83.8027 3.4109 -1.93391 0
M  V30 772 H 85.2927 4.01477 -1.14918 0
M  V30 773 N 85.7298 1.2412 0.971189 0
M  V30 774 C 86.9758 1.08041 1.71625 0
M  V30 775 C 87.3088 -0.380407 1.90438 0
M  V30 776 O 86.5838 -1.28127 1.46334 0
M  V30 777 C 86.8668 1.81682 3.10908 0
M  V30 778 C 86.7198 3.35493 2.99608 0
M  V30 779 C 88.0388 1.58671 4.10501 0
M  V30 780 H 85.1578 0.39388 0.622919 0
M  V30 781 H 87.7998 1.52743 1.13003 0
M  V30 782 H 85.9498 1.43684 3.60953 0
M  V30 783 H 87.6218 3.83068 2.57015 0
M  V30 784 H 85.8648 3.64052 2.35899 0
M  V30 785 H 86.5358 3.82217 3.98264 0
M  V30 786 H 89.0118 1.91719 3.69301 0
M  V30 787 H 87.8878 2.1266 5.06031 0
M  V30 788 H 88.1488 0.524161 4.38982 0
M  V30 789 N 87.2079 -1.17134 1.05439 0
M  V30 790 C 88.4329 -1.91913 0.786396 0
M  V30 791 C 88.8579 -1.7643 -0.652234 0
M  V30 792 O 88.2159 -1.08372 -1.45345 0
M  V30 793 C 88.2639 -3.40921 1.17497 0
M  V30 794 O 87.3679 -4.11244 0.308589 0
M  V30 795 H 86.7089 -0.598215 0.288158 0
M  V30 796 H 89.2389 -1.48457 1.4079 0
M  V30 797 H 89.2489 -3.91668 1.14281 0
M  V30 798 H 87.9239 -3.5151 2.22292 0
M  V30 799 H 86.5009 -3.70731 0.40157 0
M  V30 800 N 88.686 -0.835752 -1.33615 0
M  V30 801 C 89.911 -0.442389 -2.02627 0
M  V30 802 C 90.336 0.947735 -1.62479 0
M  V30 803 O 89.694 1.61907 -0.815826 0
M  V30 804 C 89.742 -0.567216 -3.56111 0
M  V30 805 O 88.846 0.407799 -4.10379 0
M  V30 806 H 88.187 -0.180278 -0.639059 0
M  V30 807 H 90.717 -1.12972 -1.70583 0
M  V30 808 H 90.727 -0.447708 -4.05536 0
M  V30 809 H 89.402 -1.58103 -3.84677 0
M  V30 810 H 87.979 0.246107 -3.72087 0
M  V30 811 N 90.1641 1.46063 -0.591896 0
M  V30 812 C 91.3891 2.07226 -0.0850314 0
M  V30 813 C 91.8141 1.43625 1.21463 0
M  V30 814 O 91.1721 0.523305 1.73583 0
M  V30 815 C 91.2201 3.60554 0.0576567 0
M  V30 816 O 90.3241 3.97128 1.11188 0
M  V30 817 H 89.6651 0.660615 -0.0669568 0
M  V30 818 H 92.1951 1.8756 -0.81745 0
M  V30 819 H 92.2051 4.07165 0.2609 0
M  V30 820 H 90.8801 4.06235 -0.891416 0
M  V30 821 H 89.4571 3.62213 0.886356 0
M  V30 822 N 91.6422 0.330177 1.54103 0
M  V30 823 C 92.6052 -0.520144 2.2322 0
M  V30 824 C 93.6052 -1.03828 1.22786 0
M  V30 825 O 94.7952 -0.929652 1.4732 0
M  V30 826 C 91.9272 -1.72317 2.94142 0
M  V30 827 H 93.1202 0.0841605 2.99782 0
M  V30 828 H 90.6732 0.0813433 1.56088 0
M  V30 829 H 91.4082 -2.36653 2.21734 0
M  V30 830 H 91.1932 -1.35898 3.67796 0
M  V30 831 H 92.6832 -2.3266 3.46784 0
M  V30 832 N 93.1203 -1.57491 0.0584922 0
M  V30 833 C 94.5313 -1.80526 -0.476138 0
M  V30 834 C 94.8823 -0.971334 -1.70469 0
M  V30 835 O 94.0073 -0.190012 -2.15564 0
M  V30 836 C 94.6023 -3.27424 -0.870587 0
M  V30 837 C 93.1613 -3.51351 -1.35015 0
M  V30 838 C 92.3083 -2.75343 -0.32887 0
M  V30 839 H 95.2593 -1.56133 0.284312 0
M  V30 840 H 95.2803 -3.38745 -1.73299 0
M  V30 841 H 94.7923 -3.88093 0.0237627 0
M  V30 842 H 92.8933 -2.95971 -2.26345 0
M  V30 843 H 93.0063 -4.60059 -1.33726 0
M  V30 844 H 91.3703 -2.417 -0.803321 0
M  V30 845 H 92.1533 -3.38743 0.557521 0
M  V30 846 N 94.5984 0.214957 -1.56127 0
M  V30 847 C 95.5084 1.28727 -1.96129 0
M  V30 848 C 96.5244 1.50916 -0.866044 0
M  V30 849 O 97.7004 1.63918 -1.17016 0
M  V30 850 C 94.7654 2.61569 -2.27558 0
M  V30 851 C 93.8264 2.47625 -3.50685 0
M  V30 852 C 93.0594 3.74132 -3.80606 0
M  V30 853 O 93.2824 4.77438 -3.12104 0
M  V30 854 O 92.2164 3.70849 -4.74083 0
M  V30 855 H 96.0424 0.977855 -2.87527 0
M  V30 856 H 93.6274 0.418358 -1.43423 0
M  V30 857 H 95.5094 3.40012 -2.48938 0
M  V30 858 H 94.1844 2.92178 -1.39332 0
M  V30 859 H 93.0914 1.67361 -3.34576 0
M  V30 860 H 94.4244 2.21954 -4.39315 0
M  V30 861 N 96.0765 1.50051 0.48192 0
M  V30 862 C 97.3255 1.59741 1.23149 0
M  V30 863 C 97.6385 0.298163 1.93314 0
M  V30 864 O 98.8445 0.273835 2.70116 0
M  V30 865 C 97.3005 2.81926 2.23708 0
M  V30 866 C 96.9085 4.18685 1.59396 0
M  V30 867 C 98.6525 3.00956 2.99375 0
M  V30 868 C 96.5595 5.3207 2.58178 0
M  V30 869 H 95.4895 0.594838 0.46334 0
M  V30 870 H 98.1405 1.76467 0.503169 0
M  V30 871 H 96.5225 2.58736 2.99786 0
M  V30 872 H 97.6965 4.52088 0.891811 0
M  V30 873 H 96.0115 4.05171 0.960503 0
M  V30 874 H 98.6085 3.82836 3.73283 0
M  V30 875 H 98.9515 2.12258 3.58123 0
M  V30 876 H 99.4845 3.24277 2.30411 0
M  V30 877 H 96.2235 6.22888 2.04184 0
M  V30 878 H 95.7435 5.03098 3.26577 0
M  V30 879 H 97.4225 5.62196 3.20225 0
M  V30 880 N 97.5546 -0.734337 1.39446 0
M  V30 881 C 98.8006 -1.49613 1.36908 0
M  V30 882 C 99.1336 -1.94169 -0.0347829 0
M  V30 883 O 98.4086 -1.66833 -0.999847 0
M  V30 884 C 98.6916 -2.73534 2.34203 0
M  V30 885 C 98.5446 -2.34993 3.83534 0
M  V30 886 C 99.8636 -3.75635 2.29317 0
M  V30 887 H 96.9826 -0.542714 0.498629 0
M  V30 888 H 99.6246 -0.839597 1.70443 0
M  V30 889 H 97.7746 -3.29553 2.05736 0
M  V30 890 H 99.4466 -1.84601 4.22753 0
M  V30 891 H 97.6896 -1.67213 4.00278 0
M  V30 892 H 98.3606 -3.23738 4.47099 0
M  V30 893 H 100.837 -3.29203 2.54489 0
M  V30 894 H 99.7126 -4.60008 2.99472 0
M  V30 895 H 99.9736 -4.22603 1.29842 0
M  V30 896 N 99.0327 -1.24633 -0.964593 0
M  V30 897 C 100.279 -1.08949 -1.71049 0
M  V30 898 C 100.612 0.370302 -1.90637 0
M  V30 899 O 99.8867 1.27349 -1.47011 0
M  V30 900 C 100.17 -1.83329 -3.0994 0
M  V30 901 C 100.023 -3.37077 -2.97824 0
M  V30 902 C 101.342 -1.60846 -4.09654 0
M  V30 903 H 98.4607 -0.397178 -0.620821 0
M  V30 904 H 101.103 -1.5334 -1.12191 0
M  V30 905 H 99.2527 -1.45597 -3.60186 0
M  V30 906 H 100.925 -3.84425 -2.5498 0
M  V30 907 H 99.1677 -3.65298 -2.33965 0
M  V30 908 H 99.8387 -3.84324 -3.96231 0
M  V30 909 H 102.315 -1.93674 -3.68279 0
M  V30 910 H 101.191 -2.1534 -5.04896 0
M  V30 911 H 101.452 -0.547434 -4.38698 0
M  V30 912 N 100.511 1.16574 -1.06058 0
M  V30 913 C 101.736 1.91493 -0.796562 0
M  V30 914 C 102.161 1.76773 0.642868 0
M  V30 915 O 101.519 1.09142 1.44768 0
M  V30 916 C 101.567 3.40293 -1.19303 0
M  V30 917 O 100.671 4.11074 -0.330394 0
M  V30 918 H 100.012 0.596678 -0.291326 0
M  V30 919 H 102.542 1.47708 -1.41575 0
M  V30 920 H 102.552 3.91057 -1.16356 0
M  V30 921 H 101.227 3.50326 -2.24153 0
M  V30 922 H 99.8038 3.70513 -0.421225 0
M  V30 923 N 101.989 0.842826 1.3317 0
M  V30 924 C 102.936 0.276885 2.29133 0
M  V30 925 C 103.906 -0.609527 1.54512 0
M  V30 926 O 105.091 -0.546955 1.82792 0
M  V30 927 C 102.231 -0.538707 3.40869 0
M  V30 928 C 101.344 0.372169 4.30394 0
M  V30 929 C 100.479 -0.454908 5.29249 0
M  V30 930 C 99.5179 0.45411 6.10413 0
M  V30 931 N 98.6549 -0.335075 7.013 0
M  V30 932 H 103.495 1.10052 2.76934 0
M  V30 933 H 101.032 0.554161 1.36262 0
M  V30 934 H 102.99 -1.02709 4.0436 0
M  V30 935 H 101.62 -1.32727 2.9425 0
M  V30 936 H 100.672 0.97888 3.6759 0
M  V30 937 H 101.984 1.0703 4.87182 0
M  V30 938 H 101.138 -1.00695 5.98285 0
M  V30 939 H 99.8769 -1.18646 4.73048 0
M  V30 940 H 98.8819 1.01813 5.40291 0
M  V30 941 H 100.107 1.18409 6.68697 0
M  V30 942 H 98.0529 -1.04994 6.47543 0
M  V30 943 H 97.9699 0.304262 7.55387 0
M  V30 944 H 99.2379 -0.869224 7.74638 0
M  V30 945 N 103.467 -1.45747 0.599634 0
M  V30 946 C 104.878 -1.85853 0.177681 0
M  V30 947 C 105.229 -1.50102 -1.26348 0
M  V30 948 O 104.354 -0.923905 -1.95686 0
M  V30 949 C 104.949 -3.37326 0.315688 0
M  V30 950 C 103.508 -3.76365 -0.0515144 0
M  V30 951 C 102.655 -2.69722 0.643822 0
M  V30 952 H 105.606 -1.36661 0.806814 0
M  V30 953 H 105.627 -3.77778 -0.454321 0
M  V30 954 H 105.139 -3.63315 1.36468 0
M  V30 955 H 103.24 -3.55993 -1.09999 0
M  V30 956 H 103.353 -4.77916 0.336594 0
M  V30 957 H 101.717 -2.54567 0.0822881 0
M  V30 958 H 102.5 -2.98549 1.6948 0
M  V30 959 N 104.945 -0.338344 -1.53925 0
M  V30 960 C 105.855 0.529421 -2.28548 0
M  V30 961 C 106.871 1.11645 -1.3346 0
M  V30 962 O 108.047 1.13325 -1.66492 0
M  V30 963 C 105.112 1.66713 -3.03987 0
M  V30 964 C 104.173 1.11041 -4.14691 0
M  V30 965 C 103.406 2.19389 -4.86522 0
M  V30 966 O 103.629 3.40013 -4.57982 0
M  V30 967 O 102.563 1.83976 -5.73094 0
M  V30 968 H 106.389 -0.0770399 -3.03602 0
M  V30 969 H 103.974 -0.103555 -1.49041 0
M  V30 970 H 105.856 2.32918 -3.5118 0
M  V30 971 H 104.531 2.25949 -2.31794 0
M  V30 972 H 103.438 0.413024 -3.71813 0
M  V30 973 H 104.771 0.562975 -4.8897 0
M  V30 974 N 106.423 1.57458 -0.0668435 0
M  V30 975 C 107.373 2.0896 0.912119 0
M  V30 976 C 108.357 0.998186 1.26195 0
M  V30 977 O 109.549 1.26133 1.24175 0
M  V30 978 C 106.678 2.6508 2.18145 0
M  V30 979 C 105.764 3.81218 1.85832 0
M  V30 980 N 106.155 4.90378 1.23948 0
M  V30 981 C 104.453 3.9042 2.15612 0
M  V30 982 C 105.154 5.71279 1.09616 0
M  V30 983 N 104.13 5.19389 1.60423 0
M  V30 984 H 107.932 2.90749 0.42924 0
M  V30 985 H 105.446 1.6182 0.137184 0
M  V30 986 H 107.443 3.0029 2.89192 0
M  V30 987 H 106.103 1.84736 2.67025 0
M  V30 988 H 107.114 5.09847 0.909731 0
M  V30 989 H 103.791 3.21043 2.66903 0
M  V30 990 H 105.181 6.69085 0.614425 0
M  V30 991 N 107.901 -0.206675 1.56239 0
M  V30 992 C 108.849 -1.27571 1.94495 0
M  V30 993 C 109.843 -1.47737 0.828862 0
M  V30 994 O 111.049 -1.48735 1.0138 0
M  V30 995 H 107.424 -0.428029 0.6183 0
M  V30 996 H 109.395 -0.925961 2.8367 0
M  V30 997 C 108.144 -2.61568 2.29079 0
M  V30 998 H 107.467 -2.46863 3.14482 0
M  V30 999 H 108.907 -3.35144 2.5972 0
M  V30 1000 C 107.366 -3.17695 1.12123 0
M  V30 1001 O 107.896 -3.99801 0.390153 0
M  V30 1002 N 106.102 -2.76276 0.901097 0
M  V30 1003 H 105.649 -2.09613 1.49733 0
M  V30 1004 H 105.607 -3.1417 0.120319 0
M  V30 1005 N 109.379 -1.50304 -0.473955 0
M  V30 1006 C 110.327 -1.69482 -1.59307 0
M  V30 1007 C 111.321 -0.560669 -1.59853 0
M  V30 1008 O 112.527 -0.741087 -1.64036 0
M  V30 1009 H 108.902 -0.534892 -0.528578 0
M  V30 1010 H 110.873 -2.63364 -1.40293 0
M  V30 1011 C 109.622 -1.80354 -2.97267 0
M  V30 1012 H 108.945 -2.67012 -2.97564 0
M  V30 1013 H 110.385 -1.97798 -3.75036 0
M  V30 1014 C 108.844 -0.55448 -3.32306 0
M  V30 1015 O 109.374 0.307661 -4.0052 0
M  V30 1016 N 107.58 -0.409354 -2.87702 0
M  V30 1017 H 107.127 -1.11196 -2.32364 0
M  V30 1018 H 107.085 0.425223 -3.11511 0
M  V30 1019 N 110.857 0.726932 -1.39834 0
M  V30 1020 C 112.082 1.52121 -1.40976 0
M  V30 1021 C 112.507 1.88098 -0.00826029 0
M  V30 1022 O 111.865 1.52479 0.980807 0
M  V30 1023 C 111.913 2.78021 -2.29644 0
M  V30 1024 O 111.017 3.74272 -1.73188 0
M  V30 1025 H 110.358 0.45908 -0.479731 0
M  V30 1026 H 112.888 0.896207 -1.83927 0
M  V30 1027 H 112.898 3.26671 -2.44438 0
M  V30 1028 H 111.573 2.51169 -3.31492 0
M  V30 1029 H 110.15 3.33073 -1.6768 0
M  V30 1030 N 112.336 1.25143 0.95797 0
M  V30 1031 C 113.284 1.05019 2.07542 0
M  V30 1032 C 114.278 -0.0178751 1.69391 0
M  V30 1033 O 115.484 0.137472 1.79474 0
M  V30 1034 H 111.859 0.32265 0.679265 0
M  V30 1035 H 113.83 1.99759 2.21673 0
M  V30 1036 C 112.579 0.682074 3.40944 0
M  V30 1037 H 111.902 1.49573 3.70767 0
M  V30 1038 H 113.342 0.580945 4.20001 0
M  V30 1039 C 111.801 -0.611608 3.31302 0
M  V30 1040 O 112.331 -1.65465 3.66038 0
M  V30 1041 N 110.537 -0.595982 2.84423 0
M  V30 1042 H 110.084 0.253192 2.56353 0
M  V30 1043 H 110.042 -1.46173 2.78354 0
M  V30 1044 N 113.814 -1.1601 1.06675 0
M  V30 1045 C 114.762 -2.22586 0.675157 0
M  V30 1046 C 115.756 -1.66525 -0.310766 0
M  V30 1047 O 116.962 -1.79145 -0.175215 0
M  V30 1048 H 113.337 -0.724855 0.200223 0
M  V30 1049 H 115.308 -2.52899 1.58381 0
M  V30 1050 C 114.057 -3.47604 0.0817162 0
M  V30 1051 H 113.38 -3.91058 0.831484 0
M  V30 1052 H 114.82 -4.23718 -0.154708 0
M  V30 1053 C 113.279 -3.15718 -1.17576 0
M  V30 1054 O 113.809 -3.31878 -2.26318 0
M  V30 1055 N 112.015 -2.69816 -1.07923 0
M  V30 1056 H 111.562 -2.56866 -0.194293 0
M  V30 1057 H 111.52 -2.48855 -1.92141 0
M  V30 1058 N 115.292 -0.849877 -1.32721 0
M  V30 1059 C 116.222 -0.306308 -2.31482 0
M  V30 1060 C 117.203 0.591952 -1.59468 0
M  V30 1061 O 118.388 0.513199 -1.87296 0
M  V30 1062 C 115.518 0.510204 -3.43532 0
M  V30 1063 C 114.472 -0.293209 -4.26994 0
M  V30 1064 C 113.798 0.647743 -5.30762 0
M  V30 1065 C 115.098 -1.51634 -4.99804 0
M  V30 1066 H 116.792 -1.13153 -2.77195 0
M  V30 1067 H 114.338 -0.545553 -1.33266 0
M  V30 1068 H 116.291 0.900856 -4.11658 0
M  V30 1069 H 115.015 1.36874 -2.96535 0
M  V30 1070 H 113.674 -0.665555 -3.60508 0
M  V30 1071 H 113.322 1.50299 -4.8002 0
M  V30 1072 H 113.022 0.11422 -5.87489 0
M  V30 1073 H 114.546 1.03567 -6.01753 0
M  V30 1074 H 115.96 -1.19824 -5.60638 0
M  V30 1075 H 114.357 -1.98745 -5.66234 0
M  V30 1076 H 115.427 -2.28018 -4.27943 0
M  V30 1077 N 116.77 1.45427 -0.607355 0
M  V30 1078 C 117.733 2.28974 0.101693 0
M  V30 1079 C 118.733 1.39754 0.795329 0
M  V30 1080 O 119.923 1.61878 0.643527 0
M  V30 1081 C 117.055 3.20768 1.15414 0
M  V30 1082 H 118.248 2.93147 -0.632844 0
M  V30 1083 H 115.801 1.51945 -0.366391 0
M  V30 1084 H 116.536 2.61395 1.91945 0
M  V30 1085 H 116.321 3.86489 0.66098 0
M  V30 1086 H 117.811 3.83589 1.65073 0
M  V30 1087 N 118.248 0.346503 1.53744 0
M  V30 1088 C 119.178 -0.501193 2.28058 0
M  V30 1089 C 120.159 -1.10014 1.29734 0
M  V30 1090 O 121.344 -1.12097 1.58581 0
M  V30 1091 C 118.474 -1.65078 3.05559 0
M  V30 1092 C 117.428 -1.18003 4.11411 0
M  V30 1093 C 116.754 -2.41837 4.76884 0
M  V30 1094 C 118.054 -0.278394 5.21558 0
M  V30 1095 H 119.748 0.11875 2.99164 0
M  V30 1096 H 117.294 0.0585531 1.43881 0
M  V30 1097 H 119.247 -2.25028 3.56287 0
M  V30 1098 H 117.971 -2.29767 2.32109 0
M  V30 1099 H 116.63 -0.603331 3.61601 0
M  V30 1100 H 116.278 -3.0494 4.00026 0
M  V30 1101 H 115.978 -2.1102 5.48402 0
M  V30 1102 H 117.502 -3.02508 5.30397 0
M  V30 1103 H 118.916 -0.784823 5.67903 0
M  V30 1104 H 117.313 -0.0619707 6.00068 0
M  V30 1105 H 118.383 0.684677 4.80042 0
M  V30 1106 N 119.726 -1.57421 0.075193 0
M  V30 1107 C 120.956 -1.97659 -0.601203 0
M  V30 1108 C 121.364 -0.952427 -1.63479 0
M  V30 1109 O 120.707 0.0688241 -1.83571 0
M  V30 1110 C 120.769 -3.34218 -1.32434 0
M  V30 1111 C 120.433 -4.5484 -0.443826 0
M  V30 1112 C 121.43 -5.19034 0.299969 0
M  V30 1113 C 119.115 -5.00952 -0.367709 0
M  V30 1114 C 121.109 -6.27695 1.10807 0
M  V30 1115 C 118.796 -6.09484 0.444058 0
M  V30 1116 C 119.794 -6.72719 1.18061 0
M  V30 1117 O 119.482 -7.79161 1.97898 0
M  V30 1118 H 119.214 -0.65494 -0.167422 0
M  V30 1119 H 121.768 -2.04886 0.145157 0
M  V30 1120 H 119.998 -3.23615 -2.11685 0
M  V30 1121 H 121.687 -3.59038 -1.89331 0
M  V30 1122 H 122.453 -4.84351 0.250776 0
M  V30 1123 H 118.332 -4.51509 -0.930638 0
M  V30 1124 H 121.876 -6.76982 1.68347 0
M  V30 1125 H 117.773 -6.43601 0.494803 0
M  V30 1126 H 118.541 -7.96055 1.90367 0
M  V30 1127 N 121.204 0.198386 -1.56346 0
M  V30 1128 C 122.452 0.91747 -1.80075 0
M  V30 1129 C 122.773 1.83929 -0.647692 0
M  V30 1130 O 122.043 1.93029 0.334166 0
M  V30 1131 H 120.623 0.341774 -0.664228 0
M  V30 1132 H 123.285 0.204684 -1.93822 0
M  V30 1133 H 122.381 1.51055 -2.7311 0
M  V30 1134 N 122.682 1.50554 0.465978 0
M  V30 1135 C 123.91 1.65563 1.24083 0
M  V30 1136 C 124.325 0.341051 1.85694 0
M  V30 1137 O 123.682 -0.677543 1.69457 0
M  V30 1138 C 123.733 2.75051 2.34583 0
M  V30 1139 O 123.454 4.01413 1.75497 0
M  V30 1140 C 124.955 3.01078 3.25372 0
M  V30 1141 H 122.175 0.55638 0.375077 0
M  V30 1142 H 124.719 1.96807 0.555624 0
M  V30 1143 H 122.874 2.46486 2.9887 0
M  V30 1144 H 123.288 4.62002 2.48303 0
M  V30 1145 H 124.762 3.81339 3.99105 0
M  V30 1146 H 125.239 2.12349 3.84453 0
M  V30 1147 H 125.845 3.31194 2.66816 0
M  V30 1148 N 124.16 -0.719506 1.40217 0
M  V30 1149 C 125.408 -1.47641 1.3801 0
M  V30 1150 C 125.729 -1.94992 -0.018145 0
M  V30 1151 O 124.999 -1.70073 -0.972207 0
M  V30 1152 H 123.579 -0.547744 0.507923 0
M  V30 1153 H 126.241 -0.853187 1.75233 0
M  V30 1154 H 125.337 -2.35112 2.05253 0
M  V30 1155 N 125.638 -1.25649 -0.95132 0
M  V30 1156 C 126.886 -1.10375 -1.69298 0
M  V30 1157 C 127.207 0.355339 -1.91735 0
M  V30 1158 O 126.477 1.25188 -1.50681 0
M  V30 1159 H 125.057 -0.405461 -0.627384 0
M  V30 1160 H 127.719 -1.57823 -1.14358 0
M  V30 1161 H 126.815 -1.61465 -2.67087 0
M  V30 1162 N 127.117 1.15442 -1.07289 0
M  V30 1163 C 128.365 1.85845 -0.794096 0
M  V30 1164 C 128.686 1.82692 0.681809 0
M  V30 1165 O 127.956 1.26741 1.49377 0
M  V30 1166 H 126.536 0.688089 -0.290763 0
M  V30 1167 H 129.198 1.39947 -1.3565 0
M  V30 1168 H 128.294 2.91001 -1.12804 0
M  V30 1169 N 128.595 0.856903 1.32268 0
M  V30 1170 C 129.843 0.460474 1.96784 0
M  V30 1171 C 130.164 -0.987701 1.68135 0
M  V30 1172 O 129.434 -1.69058 0.989765 0
M  V30 1173 H 128.014 0.167289 0.728027 0
M  V30 1174 H 130.676 1.09383 1.61312 0
M  V30 1175 H 129.772 0.60739 3.06133 0
M  V30 1176 N 130.073 -1.45103 0.615059 0
M  V30 1177 C 131.298 -2.07064 0.117988 0
M  V30 1178 C 131.723 -1.4554 -1.19163 0
M  V30 1179 O 131.081 -0.550855 -1.72729 0
M  V30 1180 C 131.129 -3.606 -0.000288387 0
M  V30 1181 O 130.233 -3.98847 -1.04856 0
M  V30 1182 H 129.574 -0.659467 0.0774581 0
M  V30 1183 H 132.104 -1.86236 0.847186 0
M  V30 1184 H 132.114 -4.07529 -0.196091 0
M  V30 1185 H 130.789 -4.04765 0.955932 0
M  V30 1186 H 129.366 -3.63577 -0.828619 0
M  V30 1187 N 131.551 -0.354651 -1.53558 0
M  V30 1188 C 132.779 0.239515 -2.05509 0
M  V30 1189 C 133.194 1.4333 -1.2289 0
M  V30 1190 O 132.551 1.80538 -0.266899 0
M  V30 1191 C 132.602 0.643719 -3.55723 0
M  V30 1192 O 132.323 -0.502602 -4.35207 0
M  V30 1193 C 133.824 1.29743 -4.23889 0
M  V30 1194 H 131.044 0.0442697 -0.669538 0
M  V30 1195 H 133.588 -0.509856 -1.98042 0
M  V30 1196 H 131.743 1.34302 -3.63376 0
M  V30 1197 H 132.157 -0.178172 -5.24197 0
M  V30 1198 H 133.631 1.53091 -5.30346 0
M  V30 1199 H 134.108 2.25441 -3.76926 0
M  V30 1200 H 134.714 0.639865 -4.20459 0
M  V30 1201 N 133.029 1.57378 -0.0835403 0
M  V30 1202 C 134.277 1.93547 0.581718 0
M  V30 1203 C 134.598 0.96524 1.69435 0
M  V30 1204 O 133.868 0.0153369 1.95894 0
M  V30 1205 H 132.448 0.714521 0.217874 0
M  V30 1206 H 135.11 1.94366 -0.144158 0
M  V30 1207 H 134.206 2.95665 0.999423 0
M  V30 1208 N 134.507 -0.190092 1.56449 0
M  V30 1209 C 135.755 -0.907908 1.80559 0
M  V30 1210 C 136.076 -1.83583 0.657438 0
M  V30 1211 O 135.346 -1.93203 -0.323924 0
M  V30 1212 H 133.926 -0.338247 0.666032 0
M  V30 1213 H 136.588 -0.194403 1.93928 0
M  V30 1214 H 135.684 -1.49604 2.73907 0
M  V30 1215 N 135.985 -1.50799 -0.457987 0
M  V30 1216 C 137.233 -1.62121 -1.2067 0
M  V30 1217 C 137.554 -0.329793 -1.92191 0
M  V30 1218 O 136.824 0.653409 -1.84682 0
M  V30 1219 H 135.404 -0.597441 -0.448411 0
M  V30 1220 H 138.066 -1.87637 -0.527096 0
M  V30 1221 H 137.162 -2.43882 -1.94751 0
M  V30 1222 N 137.463 0.71206 -1.40597 0
M  V30 1223 C 138.711 1.46907 -1.38791 0
M  V30 1224 C 139.032 1.94998 0.00780391 0
M  V30 1225 O 138.302 1.70587 0.963174 0
M  V30 1226 H 136.882 0.545043 -0.51082 0
M  V30 1227 H 139.544 0.843882 -1.75683 0
M  V30 1228 H 138.64 2.34021 -2.06496 0
M  V30 1229 N 138.941 1.26152 0.944643 0
M  V30 1230 C 140.189 1.11271 1.6871 0
M  V30 1231 C 140.51 -0.345166 1.91921 0
M  V30 1232 O 139.78 -1.24387 1.51343 0
M  V30 1233 H 138.36 0.408783 0.625224 0
M  V30 1234 H 141.022 1.58427 1.1352 0
M  V30 1235 H 140.118 1.62879 2.66227 0
M  V30 1236 N 140.419 -1.14872 1.07899 0
M  V30 1237 C 141.667 -1.85422 0.803941 0
M  V30 1238 C 141.988 -1.83051 -0.67211 0
M  V30 1239 O 141.258 -1.27532 -1.48703 0
M  V30 1240 H 139.838 -0.686537 0.294408 0
M  V30 1241 H 142.5 -1.39226 1.3639 0
M  V30 1242 H 141.596 -2.90399 1.14346 0
M  V30 1243 N 141.898 -0.863906 -1.31812 0
M  V30 1244 C 143.146 -0.470904 -1.96537 0
M  V30 1245 C 143.467 0.978771 -1.68657 0
M  V30 1246 O 142.737 1.6853 -0.998717 0
M  V30 1247 H 141.317 -0.171148 -0.72713 0
M  V30 1248 H 143.979 -1.10236 -1.60729 0
M  V30 1249 H 143.075 -0.623616 -3.05806 0
M  V30 1250 N 143.376 1.44774 -0.622745 0
M  V30 1251 C 144.624 2.01721 -0.123655 0
M  V30 1252 C 144.945 1.49172 1.25589 0
M  V30 1253 O 144.215 0.691974 1.83272 0
M  V30 1254 H 142.795 0.745777 -0.0427225 0
M  V30 1255 H 145.457 1.77382 -0.807559 0
M  V30 1256 H 144.553 3.11984 -0.0849534 0
M  V30 1257 N 144.854 0.36279 1.53368 0
M  V30 1258 C 146.079 -0.231226 2.06107 0
M  V30 1259 C 146.504 -1.419 1.23474 0
M  V30 1260 O 145.862 -1.79524 0.253128 0
M  V30 1261 C 145.91 -0.605523 3.5548 0
M  V30 1262 O 145.014 -1.70312 3.7559 0
M  V30 1263 H 144.355 -0.034327 0.663112 0
M  V30 1264 H 146.885 0.522584 1.97814 0
M  V30 1265 H 146.895 -0.877314 3.98456 0
M  V30 1266 H 145.57 0.263004 4.15068 0
M  V30 1267 H 144.147 -1.4271 3.44512 0
M  V30 1268 N 146.332 -1.57332 0.0918853 0
M  V30 1269 C 147.58 -1.93853 -0.571446 0
M  V30 1270 C 147.901 -0.974212 -1.6892 0
M  V30 1271 O 147.171 -0.0257254 -1.95883 0
M  V30 1272 H 145.751 -0.715666 -0.214082 0
M  V30 1273 H 148.413 -1.94287 0.154464 0
M  V30 1274 H 147.509 -2.96191 -0.983729 0
M  V30 1275 N 147.81 0.181792 -1.56548 0
M  V30 1276 C 148.76 1.22961 -1.92002 0
M  V30 1277 C 149.744 1.40331 -0.787146 0
M  V30 1278 O 150.936 1.42478 -1.05019 0
M  V30 1279 C 148.065 2.57144 -2.27446 0
M  V30 1280 C 147.151 2.43512 -3.47222 0
M  V30 1281 N 147.542 1.99577 -4.64761 0
M  V30 1282 C 145.84 2.74368 -3.51622 0
M  V30 1283 C 146.541 1.98156 -5.46909 0
M  V30 1284 N 145.517 2.40164 -4.8767 0
M  V30 1285 H 149.319 0.881462 -2.8037 0
M  V30 1286 H 146.833 0.390141 -1.57644 0
M  V30 1287 H 148.83 3.32847 -2.51035 0
M  V30 1288 H 147.49 2.92771 -1.40411 0
M  V30 1289 H 148.501 1.70078 -4.89177 0
M  V30 1290 H 145.178 3.14102 -2.75038 0
M  V30 1291 H 146.568 1.65975 -6.51077 0
M  V30 1292 N 149.288 1.51039 0.449983 0
M  V30 1293 C 150.536 1.62759 1.19808 0
M  V30 1294 C 150.857 0.339981 1.92013 0
M  V30 1295 O 150.127 -0.643606 1.85026 0
M  V30 1296 H 148.707 0.599811 0.445237 0
M  V30 1297 H 151.369 1.87914 0.517138 0
M  V30 1298 H 150.465 2.44911 1.93455 0
M  V30 1299 N 150.766 -0.704594 1.40972 0
M  V30 1300 C 151.991 -1.49858 1.43378 0
M  V30 1301 C 152.416 -1.88061 0.038184 0
M  V30 1302 O 151.774 -1.5402 -0.956425 0
M  V30 1303 C 151.822 -2.74333 2.34038 0
M  V30 1304 O 150.926 -3.7147 1.7912 0
M  V30 1305 H 150.267 -0.45139 0.486974 0
M  V30 1306 H 152.797 -0.866832 1.8533 0
M  V30 1307 H 152.807 -3.22741 2.49604 0
M  V30 1308 H 151.482 -2.45863 3.35446 0
M  V30 1309 H 150.059 -3.30363 1.72958 0
M  V30 1310 N 152.244 -1.26651 -0.937939 0
M  V30 1311 C 153.469 -1.15279 -1.72411 0
M  V30 1312 C 153.894 0.287866 -1.85884 0
M  V30 1313 O 153.252 1.20855 -1.35143 0
M  V30 1314 C 153.3 -1.83028 -3.10698 0
M  V30 1315 O 152.404 -1.12128 -3.96864 0
M  V30 1316 H 151.745 -0.401504 -0.528858 0
M  V30 1317 H 154.275 -1.67531 -1.1745 0
M  V30 1318 H 154.285 -1.89981 -3.6107 0
M  V30 1319 H 152.96 -2.87833 -3.00208 0
M  V30 1320 H 151.537 -1.13173 -3.55312 0
M  V30 1321 N 153.722 1.14298 -1.08507 0
M  V30 1322 C 154.947 1.8976 -0.837001 0
M  V30 1323 C 155.372 1.78097 0.605228 0
M  V30 1324 O 154.73 1.12188 1.4242 0
M  V30 1325 C 154.778 3.37685 -1.26495 0
M  V30 1326 O 153.882 4.10281 -0.417514 0
M  V30 1327 H 153.223 0.590365 -0.303917 0
M  V30 1328 H 155.753 1.44672 -1.44676 0
M  V30 1329 H 155.763 3.88501 -1.24625 0
M  V30 1330 H 154.438 3.45492 -2.31534 0
M  V30 1331 H 153.015 3.69536 -0.499722 0
M  V30 1332 N 155.201 0.870884 1.31352 0
M  V30 1333 C 156.449 0.48132 1.96285 0
M  V30 1334 C 156.77 -0.969813 1.69173 0
M  V30 1335 O 156.04 -1.67998 1.00764 0
M  V30 1336 H 154.62 0.175002 0.726212 0
M  V30 1337 H 157.282 1.11087 1.60143 0
M  V30 1338 H 156.378 0.639825 3.05471 0
M  V30 1339 N 156.679 -1.44442 0.630414 0
M  V30 1340 C 157.907 -2.06414 0.141671 0
M  V30 1341 C 158.322 -1.47105 -1.18345 0
M  V30 1342 O 157.679 -0.593662 -1.72574 0
M  V30 1343 C 157.73 -3.61494 0.0199784 0
M  V30 1344 O 157.451 -4.18594 1.29269 0
M  V30 1345 C 158.952 -4.40499 -0.497544 0
M  V30 1346 H 156.172 -0.666292 0.0793452 0
M  V30 1347 H 158.716 -1.85323 0.864614 0
M  V30 1348 H 156.871 -3.8185 -0.653402 0
M  V30 1349 H 157.285 -5.12026 1.13707 0
M  V30 1350 H 158.759 -5.49433 -0.531708 0
M  V30 1351 H 159.236 -4.11895 -1.52445 0
M  V30 1352 H 159.842 -4.25061 0.142562 0
M  V30 1353 N 158.157 -0.370918 -1.53173 0
M  V30 1354 C 159.104 0.473035 -2.259 0
M  V30 1355 C 160.074 1.07311 -1.26781 0
M  V30 1356 O 161.259 1.1046 -1.55574 0
M  V30 1357 C 158.399 1.60405 -3.05556 0
M  V30 1358 C 157.512 1.02863 -4.19575 0
M  V30 1359 C 156.647 2.12918 -4.86661 0
M  V30 1360 C 155.686 1.52869 -5.92704 0
M  V30 1361 N 154.823 2.56779 -6.53459 0
M  V30 1362 H 159.663 -0.153649 -2.97604 0
M  V30 1363 H 157.2 -0.0875946 -1.46839 0
M  V30 1364 H 159.158 2.27034 -3.50016 0
M  V30 1365 H 157.788 2.20131 -2.36097 0
M  V30 1366 H 156.84 0.252465 -3.79561 0
M  V30 1367 H 158.152 0.549642 -4.95762 0
M  V30 1368 H 157.306 2.87356 -5.34333 0
M  V30 1369 H 156.045 2.6417 -4.09958 0
M  V30 1370 H 155.05 0.769479 -5.44389 0
M  V30 1371 H 156.275 1.02435 -6.7133 0
M  V30 1372 H 154.221 3.07235 -5.79606 0
M  V30 1373 H 154.138 2.13583 -7.25202 0
M  V30 1374 H 155.406 3.30903 -7.05779 0
M  V30 1375 N 159.635 1.57281 -0.100228 0
M  V30 1376 C 160.86 1.99302 0.573881 0
M  V30 1377 C 161.285 0.979059 1.60611 0
M  V30 1378 O 160.643 -0.0517803 1.81226 0
M  V30 1379 C 160.691 3.40274 1.19358 0
M  V30 1380 O 159.795 3.41676 2.30935 0
M  V30 1381 H 159.136 0.647944 0.145138 0
M  V30 1382 H 161.666 2.03779 -0.183156 0
M  V30 1383 H 161.676 3.78078 1.53365 0
M  V30 1384 H 160.351 4.13594 0.437385 0
M  V30 1385 H 158.928 3.15672 1.98509 0
M  V30 1386 N 161.113 -0.173488 1.56642 0
M  V30 1387 C 162.338 -0.910149 1.86363 0
M  V30 1388 C 162.763 -1.75132 0.686318 0
M  V30 1389 O 162.121 -1.77595 -0.364643 0
M  V30 1390 C 162.169 -1.76447 3.14482 0
M  V30 1391 O 161.273 -2.86584 2.96553 0
M  V30 1392 H 160.614 -0.255086 0.613047 0
M  V30 1393 H 163.144 -0.172283 2.03873 0
M  V30 1394 H 163.154 -2.16483 3.45831 0
M  V30 1395 H 161.829 -1.14658 3.99783 0
M  V30 1396 H 160.406 -2.50146 2.76553 0
M  V30 1397 N 162.591 -1.51276 -0.441967 0
M  V30 1398 C 163.538 -1.72256 -1.53612 0
M  V30 1399 C 164.508 -0.564164 -1.56225 0
M  V30 1400 O 165.693 -0.798074 -1.73307 0
M  V30 1401 C 162.833 -1.84932 -2.91366 0
M  V30 1402 C 161.946 -3.12459 -2.98317 0
M  V30 1403 C 161.081 -3.15758 -4.27166 0
M  V30 1404 C 160.12 -4.37619 -4.27967 0
M  V30 1405 N 159.257 -4.38493 -5.48333 0
M  V30 1406 H 164.097 -2.65654 -1.35026 0
M  V30 1407 H 161.634 -1.31662 -0.656009 0
M  V30 1408 H 163.592 -1.90263 -3.7129 0
M  V30 1409 H 162.222 -0.949461 -3.08521 0
M  V30 1410 H 161.274 -3.1646 -2.11086 0
M  V30 1411 H 162.586 -4.02382 -2.94771 0
M  V30 1412 H 161.74 -3.19979 -5.15459 0
M  V30 1413 H 160.479 -2.23715 -4.33362 0
M  V30 1414 H 159.484 -4.33579 -3.38067 0
M  V30 1415 H 160.709 -5.30921 -4.23438 0
M  V30 1416 H 158.655 -3.49318 -5.55259 0
M  V30 1417 H 158.572 -5.22219 -5.46647 0
M  V30 1418 H 159.84 -4.469 -6.38671 0
M  V30 1419 N 164.069 0.697108 -1.41344 0
M  V30 1420 C 165.016 1.81106 -1.43071 0
M  V30 1421 C 165.986 1.63632 -0.285275 0
M  V30 1422 O 167.171 1.84504 -0.486091 0
M  V30 1423 C 164.311 3.18975 -1.31715 0
M  V30 1424 C 163.424 3.47892 -2.56115 0
M  V30 1425 C 162.559 4.75367 -2.37064 0
M  V30 1426 C 161.598 4.97247 -3.56948 0
M  V30 1427 N 160.735 6.15947 -3.36977 0
M  V30 1428 H 165.575 1.78965 -2.38276 0
M  V30 1429 H 163.112 0.873975 -1.18322 0
M  V30 1430 H 165.07 3.98615 -1.23133 0
M  V30 1431 H 163.7 3.20297 -0.401183 0
M  V30 1432 H 162.752 2.62669 -2.75153 0
M  V30 1433 H 164.064 3.59962 -3.45295 0
M  V30 1434 H 163.218 5.63059 -2.25941 0
M  V30 1435 H 161.957 4.65541 -1.45338 0
M  V30 1436 H 160.962 4.08004 -3.68527 0
M  V30 1437 H 162.187 5.08934 -4.49626 0
M  V30 1438 H 160.133 6.07336 -2.47949 0
M  V30 1439 H 160.05 6.28777 -4.19732 0
M  V30 1440 H 161.318 7.06377 -3.29623 0
M  V30 1441 N 165.547 1.27147 0.931209 0
M  V30 1442 C 166.494 1.09568 2.03134 0
M  V30 1443 C 167.464 -0.00222433 1.661 0
M  V30 1444 O 168.649 0.159439 1.90133 0
M  V30 1445 C 165.789 0.745231 3.36957 0
M  V30 1446 C 164.902 1.92041 3.86968 0
M  V30 1447 C 164.037 1.51216 5.09222 0
M  V30 1448 C 163.076 2.65504 5.5152 0
M  V30 1449 N 162.213 2.25291 6.64972 0
M  V30 1450 H 167.053 2.03708 2.17502 0
M  V30 1451 H 164.59 1.01411 1.06556 0
M  V30 1452 H 166.548 0.522878 4.1391 0
M  V30 1453 H 165.178 -0.159202 3.22407 0
M  V30 1454 H 164.23 2.25541 3.06326 0
M  V30 1455 H 165.542 2.77787 4.1429 0
M  V30 1456 H 164.696 1.25084 5.93666 0
M  V30 1457 H 163.435 0.625749 4.83669 0
M  V30 1458 H 162.44 2.92354 4.65628 0
M  V30 1459 H 163.665 3.54761 5.7907 0
M  V30 1460 H 161.611 1.39098 6.41083 0
M  V30 1461 H 161.528 3.04577 6.91931 0
M  V30 1462 H 162.796 2.02398 7.52765 0
M  V30 1463 N 167.025 -1.13721 1.09112 0
M  V30 1464 C 167.973 -2.21103 0.722219 0
M  V30 1465 C 168.967 -1.67147 -0.275374 0
M  V30 1466 O 170.173 -1.79477 -0.137176 0
M  V30 1467 H 166.548 -0.720445 0.215553 0
M  V30 1468 H 168.519 -2.49483 1.63709 0
M  V30 1469 C 167.268 -3.47352 0.15543 0
M  V30 1470 H 166.591 -3.89206 0.914246 0
M  V30 1471 H 168.031 -4.2395 -0.0647967 0
M  V30 1472 C 166.49 -3.1814 -1.10852 0
M  V30 1473 O 167.02 -3.36604 -2.19227 0
M  V30 1474 N 165.226 -2.72045 -1.02176 0
M  V30 1475 H 164.773 -2.57221 -0.139764 0
M  V30 1476 H 164.731 -2.52875 -1.8682 0
M  V30 1477 N 168.503 -0.877838 -1.30888 0
M  V30 1478 C 169.435 -0.296607 -2.27273 0
M  V30 1479 C 170.448 0.544799 -1.53414 0
M  V30 1480 O 171.637 0.365511 -1.74718 0
M  V30 1481 C 168.737 0.597481 -3.33592 0
M  V30 1482 C 167.91 -0.213251 -4.3688 0
M  V30 1483 C 166.969 0.610208 -5.2265 0
M  V30 1484 O 165.995 0.035441 -5.69189 0
M  V30 1485 N 167.197 1.92071 -5.47804 0
M  V30 1486 H 169.962 -1.12492 -2.77787 0
M  V30 1487 H 167.523 -0.740105 -1.43993 0
M  V30 1488 H 169.515 1.15425 -3.87891 0
M  V30 1489 H 168.085 1.32647 -2.83061 0
M  V30 1490 H 167.305 -0.951466 -3.82545 0
M  V30 1491 H 168.593 -0.769262 -5.02951 0
M  V30 1492 H 167.991 2.4107 -5.11763 0
M  V30 1493 H 166.548 2.42508 -6.05007 0
M  V30 1494 N 169.982 1.44106 -0.638065 0
M  V30 1495 C 170.93 2.3248 0.0748149 0
M  V30 1496 C 171.924 1.47746 0.828702 0
M  V30 1497 O 173.13 1.64049 0.740816 0
M  V30 1498 H 169.505 0.750771 0.0429686 0
M  V30 1499 H 171.476 2.90348 -0.688504 0
M  V30 1500 C 170.225 3.31843 1.03805 0
M  V30 1501 H 169.548 3.97059 0.467375 0
M  V30 1502 H 170.988 3.96345 1.50622 0
M  V30 1503 C 169.447 2.61291 2.1267 0
M  V30 1504 O 169.977 2.41702 3.20847 0
M  V30 1505 N 168.183 2.20915 1.88798 0
M  V30 1506 H 167.73 2.37047 1.00829 0
M  V30 1507 H 167.688 1.74038 2.61836 0
M  V30 1508 N 171.46 0.379036 1.52974 0
M  V30 1509 C 172.709 -0.207612 2.00629 0
M  V30 1510 C 173.022 -1.48758 1.27006 0
M  V30 1511 O 174.228 -2.15365 1.65318 0
M  V30 1512 C 172.684 -0.42053 3.57435 0
M  V30 1513 C 172.292 0.845587 4.39948 0
M  V30 1514 C 174.036 -0.964102 4.13407 0
M  V30 1515 C 171.943 0.601513 5.88333 0
M  V30 1516 H 170.873 -0.0813591 0.749598 0
M  V30 1517 H 173.524 0.499853 1.76561 0
M  V30 1518 H 171.906 -1.18959 3.7771 0
M  V30 1519 H 173.08 1.61848 4.31442 0
M  V30 1520 H 171.395 1.31336 3.95145 0
M  V30 1521 H 173.992 -1.16225 5.21916 0
M  V30 1522 H 174.335 -1.93019 3.68849 0
M  V30 1523 H 174.868 -0.25487 3.96983 0
M  V30 1524 H 171.607 1.53831 6.37194 0
M  V30 1525 H 171.127 -0.132628 5.99653 0
M  V30 1526 H 172.806 0.232134 6.46583 0
M  V30 1527 N 172.938 -1.57226 0.108567 0
M  V30 1528 C 174.186 -1.94448 -0.550853 0
M  V30 1529 C 174.507 -0.992074 -1.67878 0
M  V30 1530 O 173.777 -0.0465 -1.95845 0
M  V30 1531 H 172.357 -0.717897 -0.206479 0
M  V30 1532 H 175.019 -1.94112 0.175062 0
M  V30 1533 H 174.115 -2.97218 -0.952259 0
M  V30 1534 N 174.416 0.165178 -1.56732 0
M  V30 1535 C 175.646 0.894919 -1.86212 0
M  V30 1536 C 176.054 1.76066 -0.692627 0
M  V30 1537 O 175.397 1.80387 0.347303 0
M  V30 1538 C 175.459 1.8174 -3.10179 0
M  V30 1539 C 175.123 1.13064 -4.42793 0
M  V30 1540 C 176.12 0.493169 -5.17556 0
M  V30 1541 C 173.805 1.12556 -4.89527 0
M  V30 1542 C 175.799 -0.140209 -6.37246 0
M  V30 1543 C 173.486 0.488366 -6.09145 0
M  V30 1544 C 174.484 -0.143411 -6.82849 0
M  V30 1545 O 174.172 -0.77055 -8.00199 0
M  V30 1546 H 173.904 0.265114 -0.621844 0
M  V30 1547 H 176.458 0.168242 -2.0471 0
M  V30 1548 H 174.688 2.58455 -2.87642 0
M  V30 1549 H 176.377 2.4175 -3.26055 0
M  V30 1550 H 177.143 0.489023 -4.82528 0
M  V30 1551 H 173.022 1.60672 -4.32094 0
M  V30 1552 H 176.566 -0.633932 -6.94714 0
M  V30 1553 H 172.463 0.490116 -6.43637 0
M  V30 1554 H 173.231 -0.670408 -8.1575 0
M  V30 1555 N 175.894 1.51508 0.433938 0
M  V30 1556 C 176.841 1.73068 1.52696 0
M  V30 1557 C 177.811 0.572441 1.55924 0
M  V30 1558 O 178.996 0.807253 1.72882 0
M  V30 1559 C 176.136 1.86474 2.90381 0
M  V30 1560 C 175.249 3.14037 2.96656 0
M  V30 1561 C 174.384 3.18019 4.25485 0
M  V30 1562 C 173.423 4.39882 4.2564 0
M  V30 1563 N 172.56 4.41394 5.45999 0
M  V30 1564 H 177.4 2.66366 1.33615 0
M  V30 1565 H 174.937 1.32008 0.649018 0
M  V30 1566 H 176.895 1.92229 3.70275 0
M  V30 1567 H 175.525 0.965809 3.08013 0
M  V30 1568 H 174.577 3.17575 2.09404 0
M  V30 1569 H 175.889 4.0394 2.92633 0
M  V30 1570 H 175.043 3.22708 5.13755 0
M  V30 1571 H 173.782 2.2601 4.3217 0
M  V30 1572 H 172.787 4.35366 3.35763 0
M  V30 1573 H 174.012 5.33159 4.20617 0
M  V30 1574 H 171.958 3.52258 5.53399 0
M  V30 1575 H 171.875 5.25111 5.4387 0
M  V30 1576 H 173.143 4.50281 6.36292 0
M  V30 1577 N 177.372 -0.689602 1.41712 0
M  V30 1578 C 178.302 -1.81577 1.46806 0
M  V30 1579 C 179.283 -1.66945 0.326105 0
M  V30 1580 O 180.468 -1.86588 0.538377 0
M  V30 1581 C 177.598 -3.19762 1.35535 0
M  V30 1582 C 176.552 -3.49107 2.47605 0
M  V30 1583 C 175.878 -4.86711 2.21397 0
M  V30 1584 C 177.178 -3.47483 3.89939 0
M  V30 1585 H 178.872 -1.7757 2.41058 0
M  V30 1586 H 176.418 -0.852887 1.16025 0
M  V30 1587 H 178.371 -3.98263 1.3771 0
M  V30 1588 H 177.095 -3.24409 0.377708 0
M  V30 1589 H 175.754 -2.72959 2.44722 0
M  V30 1590 H 175.402 -4.8799 1.21961 0
M  V30 1591 H 175.102 -5.0731 2.96497 0
M  V30 1592 H 176.626 -5.67515 2.25297 0
M  V30 1593 H 178.04 -4.1598 3.94505 0
M  V30 1594 H 176.437 -3.79615 4.64771 0
M  V30 1595 H 177.507 -2.46341 4.17665 0
M  V30 1596 N 178.85 -1.27639 -0.924453 0
M  V30 1597 C 180.098 -1.13941 -1.66918 0
M  V30 1598 C 180.419 0.314589 -1.92446 0
M  V30 1599 O 179.689 1.21964 -1.53303 0
M  V30 1600 H 178.269 -0.418678 -0.618642 0
M  V30 1601 H 180.931 -1.60213 -1.10985 0
M  V30 1602 H 180.027 -1.67094 -2.63602 0
M  V30 1603 N 180.328 1.1314 -1.09713 0
M  V30 1604 C 181.278 2.16709 -0.708593 0
M  V30 1605 C 182.262 1.58471 0.278523 0
M  V30 1606 O 183.454 1.76779 0.088427 0
M  V30 1607 C 180.583 3.43039 -0.133923 0
M  V30 1608 C 179.669 4.08277 -1.14763 0
M  V30 1609 N 180.06 4.48637 -2.33577 0
M  V30 1610 C 178.358 4.34954 -0.986446 0
M  V30 1611 C 179.059 4.9952 -2.98085 0
M  V30 1612 N 178.035 4.94561 -2.25632 0
M  V30 1613 H 181.837 2.45672 -1.61315 0
M  V30 1614 H 179.351 1.29967 -0.973775 0
M  V30 1615 H 181.348 4.16583 0.162465 0
M  V30 1616 H 180.008 3.15549 0.765447 0
M  V30 1617 H 181.019 4.41246 -2.7115 0
M  V30 1618 H 177.696 4.17258 -0.142008 0
M  V30 1619 H 179.086 5.40521 -3.99108 0
M  V30 1620 N 181.806 0.884767 1.30421 0
M  V30 1621 C 183.222 0.57874 1.48737 0
M  V30 1622 C 183.422 -0.883567 1.81095 0
M  V30 1623 O 182.478 -1.6648 1.89844 0
M  V30 1624 C 183.791 1.49171 2.61091 0
M  V30 1625 C 185.339 1.49532 2.74971 0
M  V30 1626 C 185.814 2.39421 3.90438 0
M  V30 1627 N 187.305 2.37383 3.97748 0
M  V30 1628 C 188.04 3.03647 4.86401 0
M  V30 1629 N 187.536 3.79136 5.79852 0
M  V30 1630 N 189.329 2.9288 4.79768 0
M  V30 1631 H 181.48 1.83075 1.0769 0
M  V30 1632 H 183.743 0.783637 0.533495 0
M  V30 1633 H 183.449 2.53291 2.44001 0
M  V30 1634 H 183.323 1.20113 3.57565 0
M  V30 1635 H 185.71 0.46163 2.91467 0
M  V30 1636 H 185.791 1.8262 1.79119 0
M  V30 1637 H 185.435 3.42874 3.74699 0
M  V30 1638 H 185.365 2.03649 4.85628 0
M  V30 1639 H 187.856 1.82525 3.30897 0
M  V30 1640 H 188.169 4.26789 6.4426 0
M  V30 1641 H 186.514 3.83243 5.79784 0
M  V30 1642 H 189.705 2.33433 4.05742 0
M  V30 1643 H 189.878 3.448 5.4865 0
M  V30 1644 N 183.284 -1.43765 0.645699 0
M  V30 1645 C 184.7 -1.56509 0.312591 0
M  V30 1646 C 184.9 -1.6307 -1.18365 0
M  V30 1647 O 183.956 -1.58167 -1.96824 0
M  V30 1648 C 185.269 -2.82968 1.01733 0
M  V30 1649 C 186.817 -2.96701 0.996865 0
M  V30 1650 C 187.292 -4.25982 1.68236 0
M  V30 1651 N 188.783 -4.32829 1.64964 0
M  V30 1652 C 189.518 -5.31613 2.14885 0
M  V30 1653 N 189.014 -6.36718 2.73061 0
M  V30 1654 N 190.807 -5.23217 2.05428 0
M  V30 1655 H 182.958 -1.3775 1.61675 0
M  V30 1656 H 185.221 -0.661067 0.679481 0
M  V30 1657 H 184.927 -2.84156 2.0724 0
M  V30 1658 H 184.801 -3.72957 0.564177 0
M  V30 1659 H 187.188 -2.95058 -0.0497719 0
M  V30 1660 H 187.269 -2.08022 1.48865 0
M  V30 1661 H 186.913 -4.28386 2.72852 0
M  V30 1662 H 186.843 -5.13545 1.16529 0
M  V30 1663 H 189.334 -3.57493 1.22503 0
M  V30 1664 H 189.647 -7.08401 3.08848 0
M  V30 1665 H 187.992 -6.37362 2.77118 0
M  V30 1666 H 191.183 -4.40019 1.59689 0
M  V30 1667 H 191.356 -6.00045 2.44643 0
M  V30 1668 N 184.763 -0.387143 -1.52771 0
M  V30 1669 C 185.726 0.436939 -2.24997 0
M  V30 1670 C 186.726 0.991991 -1.26555 0
M  V30 1671 O 187.916 0.874335 -1.50669 0
M  V30 1672 C 185.048 1.61281 -3.00335 0
M  V30 1673 H 186.241 -0.195365 -2.99263 0
M  V30 1674 H 183.794 -0.139218 -1.55679 0
M  V30 1675 H 184.529 2.2826 -2.30364 0
M  V30 1676 H 184.314 1.22154 -3.72587 0
M  V30 1677 H 185.804 2.19629 -3.5518 0
M  V30 1678 N 186.241 1.57166 -0.116904 0
M  V30 1679 C 187.171 2.18222 0.830759 0
M  V30 1680 C 188.152 1.12167 1.27877 0
M  V30 1681 O 189.337 1.40394 1.34176 0
M  V30 1682 C 186.467 2.77996 2.08172 0
M  V30 1683 C 185.421 3.89614 1.77157 0
M  V30 1684 C 184.747 4.36187 3.09265 0
M  V30 1685 C 186.047 5.1181 1.04151 0
M  V30 1686 H 187.741 2.97664 0.321992 0
M  V30 1687 H 185.287 1.4318 0.153434 0
M  V30 1688 H 187.24 3.19366 2.74924 0
M  V30 1689 H 185.964 1.9584 2.6137 0
M  V30 1690 H 184.623 3.48816 1.12796 0
M  V30 1691 H 184.271 3.50893 3.60393 0
M  V30 1692 H 183.971 5.11455 2.89288 0
M  V30 1693 H 185.495 4.80207 3.77139 0
M  V30 1694 H 186.909 5.50214 1.61052 0
M  V30 1695 H 185.306 5.92648 0.942762 0
M  V30 1696 H 186.376 4.84892 0.0279022 0
M  V30 1697 N 187.719 -0.156864 1.56817 0
M  V30 1698 C 188.966 -0.871125 1.82805 0
M  V30 1699 C 189.294 -1.81611 0.696262 0
M  V30 1700 O 188.549 -1.93141 -0.315459 0
M  V30 1701 C 188.848 -1.68737 3.1506 0
M  V30 1702 C 188.514 -0.890045 4.42028 0
M  V30 1703 C 187.176 -0.670042 4.76512 0
M  V30 1704 C 189.528 -0.331769 5.20143 0
M  V30 1705 C 186.856 0.119104 5.86579 0
M  V30 1706 C 189.208 0.444365 6.31037 0
M  V30 1707 C 187.872 0.675035 6.64078 0
M  V30 1708 H 187.142 -0.318767 0.668931 0
M  V30 1709 H 189.789 -0.135274 1.91022 0
M  V30 1710 H 188.094 -2.49304 3.0225 0
M  V30 1711 H 189.791 -2.24331 3.3238 0
M  V30 1712 H 186.381 -1.07157 4.14988 0
M  V30 1713 H 190.565 -0.489043 4.93885 0
M  V30 1714 H 185.821 0.307417 6.10627 0
M  V30 1715 H 189.995 0.884139 6.90765 0
M  V30 1716 H 187.622 1.28839 7.49203 0
M  V30 1717 N 189.197 -1.51736 -0.425897 0
M  V30 1718 C 190.107 -1.76738 -1.54275 0
M  V30 1719 C 191.123 -0.65211 -1.61318 0
M  V30 1720 O 192.299 -0.935654 -1.78346 0
M  V30 1721 C 189.364 -1.89755 -2.90162 0
M  V30 1722 C 188.425 -3.13633 -2.93143 0
M  V30 1723 C 187.658 -3.2602 -4.22548 0
M  V30 1724 O 187.881 -2.44067 -5.15546 0
M  V30 1725 O 186.815 -4.19071 -4.32046 0
M  V30 1726 H 190.641 -2.71502 -1.36089 0
M  V30 1727 H 188.226 -1.36376 -0.610069 0
M  V30 1728 H 190.108 -2.00236 -3.70788 0
M  V30 1729 H 188.783 -0.981785 -3.08452 0
M  V30 1730 H 187.69 -3.08622 -2.11431 0
M  V30 1731 H 189.023 -4.04936 -2.798 0
M  V30 1732 N 190.675 0.682077 -1.42076 0
M  V30 1733 C 191.622 1.79578 -1.44984 0
M  V30 1734 C 192.592 1.6332 -0.302614 0
M  V30 1735 O 193.777 1.83978 -0.505633 0
M  V30 1736 C 190.917 3.1756 -1.35091 0
M  V30 1737 C 190.03 3.45156 -2.59791 0
M  V30 1738 C 189.165 4.72826 -2.42093 0
M  V30 1739 C 188.204 4.93433 -3.62202 0
M  V30 1740 N 187.341 6.12338 -3.43491 0
M  V30 1741 H 192.181 1.76427 -2.40161 0
M  V30 1742 H 189.718 0.861376 -1.19242 0
M  V30 1743 H 191.676 3.97287 -1.27354 0
M  V30 1744 H 190.306 3.19854 -0.435133 0
M  V30 1745 H 189.358 2.59736 -2.77923 0
M  V30 1746 H 190.67 3.5628 -3.49094 0
M  V30 1747 H 189.824 5.60631 -2.319 0
M  V30 1748 H 188.563 4.63973 -1.50268 0
M  V30 1749 H 187.568 4.04073 -3.72834 0
M  V30 1750 H 188.793 5.04136 -4.54998 0
M  V30 1751 H 186.739 6.04672 -2.54377 0
M  V30 1752 H 186.656 6.2429 -4.26377 0
M  V30 1753 H 187.924 7.02841 -3.37097 0
M  V30 1754 N 192.153 1.28127 0.917671 0
M  V30 1755 C 193.569 1.05749 1.19538 0
M  V30 1756 C 193.769 -0.202633 2.00479 0
M  V30 1757 O 192.825 -0.905382 2.3571 0
M  V30 1758 C 194.138 2.30273 1.93378 0
M  V30 1759 C 195.686 2.35412 2.06277 0
M  V30 1760 C 196.161 3.59692 2.83524 0
M  V30 1761 N 197.652 3.60309 2.91087 0
M  V30 1762 C 198.387 4.53147 3.51348 0
M  V30 1763 N 197.883 5.563 4.12919 0
M  V30 1764 N 199.676 4.40751 3.48849 0
M  V30 1765 H 191.827 2.09024 0.377184 0
M  V30 1766 H 194.09 0.919798 0.22951 0
M  V30 1767 H 193.796 3.22055 1.41328 0
M  V30 1768 H 193.67 2.36378 2.93947 0
M  V30 1769 H 196.057 1.4413 2.57508 0
M  V30 1770 H 196.138 2.33304 1.04895 0
M  V30 1771 H 195.782 4.51316 2.32973 0
M  V30 1772 H 195.712 3.59054 3.85211 0
M  V30 1773 H 198.203 2.85714 2.47338 0
M  V30 1774 H 198.516 6.2329 4.56869 0
M  V30 1775 H 196.861 5.60131 4.11435 0
M  V30 1776 H 200.052 3.59367 2.99955 0
M  V30 1777 H 200.225 5.13291 3.9552 0
M  V30 1778 N 193.631 -1.12557 1.10312 0
M  V30 1779 C 194.578 -2.18247 0.750781 0
M  V30 1780 C 195.548 -1.63853 -0.272293 0
M  V30 1781 O 196.733 -1.90195 -0.151862 0
M  V30 1782 C 193.873 -3.44591 0.187379 0
M  V30 1783 C 192.986 -4.13046 1.2656 0
M  V30 1784 C 192.121 -5.27034 0.663978 0
M  V30 1785 C 191.16 -5.87353 1.72287 0
M  V30 1786 N 190.297 -6.92757 1.1416 0
M  V30 1787 H 195.137 -2.47732 1.65628 0
M  V30 1788 H 192.674 -1.21629 0.827337 0
M  V30 1789 H 194.632 -4.16904 -0.157148 0
M  V30 1790 H 193.262 -3.15527 -0.681355 0
M  V30 1791 H 192.314 -3.38924 1.72727 0
M  V30 1792 H 193.626 -4.53947 2.06721 0
M  V30 1793 H 192.78 -6.06104 0.268824 0
M  V30 1794 H 191.519 -4.87407 -0.169082 0
M  V30 1795 H 190.524 -5.06971 2.12746 0
M  V30 1796 H 191.749 -6.29051 2.55875 0
M  V30 1797 H 189.695 -6.5517 0.329984 0
M  V30 1798 H 189.612 -7.3225 1.88007 0
M  V30 1799 H 190.88 -7.75658 0.772956 0
M  V30 1800 N 195.109 -0.891671 -1.2995 0
M  V30 1801 C 196.525 -0.58662 -1.48428 0
M  V30 1802 C 196.725 0.873951 -1.81561 0
M  V30 1803 O 195.781 1.65471 -1.90724 0
M  V30 1804 C 197.094 -1.50553 -2.60296 0
M  V30 1805 C 198.642 -1.50988 -2.74175 0
M  V30 1806 C 199.117 -2.41488 -3.89163 0
M  V30 1807 N 200.608 -2.39489 -3.96483 0
M  V30 1808 C 201.343 -3.06223 -4.84784 0
M  V30 1809 N 200.839 -3.82206 -5.77833 0
M  V30 1810 N 202.632 -2.95421 -4.78208 0
M  V30 1811 H 194.783 -1.83644 -1.06718 0
M  V30 1812 H 197.046 -0.786455 -0.529332 0
M  V30 1813 H 196.752 -2.54581 -2.42654 0
M  V30 1814 H 196.626 -1.22008 -3.56923 0
M  V30 1815 H 199.013 -0.47708 -2.91218 0
M  V30 1816 H 199.094 -1.83567 -1.78148 0
M  V30 1817 H 198.738 -3.44857 -3.72876 0
M  V30 1818 H 198.668 -2.06222 -4.84541 0
M  V30 1819 H 201.159 -1.84278 -3.29924 0
M  V30 1820 H 201.472 -4.302 -6.41988 0
M  V30 1821 H 199.817 -3.86313 -5.77743 0
M  V30 1822 H 203.008 -2.35581 -4.04499 0
M  V30 1823 H 203.181 -3.47704 -5.46814 0
M  V30 1824 N 196.587 1.43421 -0.653314 0
M  V30 1825 C 197.517 2.33487 0.0246656 0
M  V30 1826 C 198.498 1.49475 0.811863 0
M  V30 1827 O 199.683 1.78139 0.773322 0
M  V30 1828 C 196.813 3.32841 0.99166 0
M  V30 1829 C 195.767 4.26842 0.314568 0
M  V30 1830 C 195.093 5.16236 1.39302 0
M  V30 1831 C 196.393 5.16243 -0.793095 0
M  V30 1832 H 198.087 2.90427 -0.727481 0
M  V30 1833 H 195.633 1.39649 -0.351287 0
M  V30 1834 H 197.586 3.94747 1.47487 0
M  V30 1835 H 196.31 2.74158 1.77497 0
M  V30 1836 H 194.969 3.663 -0.148199 0
M  V30 1837 H 194.617 4.53891 2.16776 0
M  V30 1838 H 194.317 5.79948 0.945223 0
M  V30 1839 H 195.841 5.81015 1.87759 0
M  V30 1840 H 197.255 5.71958 -0.392039 0
M  V30 1841 H 195.652 5.88676 -1.16536 0
M  V30 1842 H 196.722 4.55927 -1.65103 0
M  V30 1843 N 198.065 0.39524 1.52563 0
M  V30 1844 C 199.29 -0.187456 2.06551 0
M  V30 1845 C 199.715 -1.39249 1.26457 0
M  V30 1846 O 199.073 -1.78947 0.291151 0
M  V30 1847 C 199.121 -0.529985 3.56684 0
M  V30 1848 O 198.225 -1.62307 3.79118 0
M  V30 1849 H 197.566 -0.0202537 0.663691 0
M  V30 1850 H 200.096 0.564426 1.96661 0
M  V30 1851 H 200.106 -0.792598 4.00227 0
M  V30 1852 H 198.781 0.350987 4.14416 0
M  V30 1853 H 197.358 -1.3537 3.47461 0
M  V30 1854 N 199.544 -1.57102 0.125237 0
M  V30 1855 C 200.821 -1.86953 -0.575142 0
M  V30 1856 C 201.201 -1.02749 -1.84407 0
M  V30 1857 O 200.549 -0.108144 -2.28244 0
M  V30 1858 C 200.759 -3.38198 -0.861583 0
M  V30 1859 C 202.107 -4.06937 -1.21192 0
M  V30 1860 O 203.131 -3.43252 -0.951645 0
M  V30 1861 O 201.99 -5.19364 -1.70068 0
M  V30 1862 H 199.084 -0.774147 -0.290906 0
M  V30 1863 H 201.63 -1.68942 0.160211 0
M  V30 1864 H 200.402 -3.91282 0.0373647 0
M  V30 1865 H 200.025 -3.61661 -1.65188 0
M  V30 1866 N 201.022 0.148545 -1.56898 0
M  V30 1867 C 202.252 0.875118 -1.8715 0
M  V30 1868 C 202.66 1.75322 -0.711262 0
M  V30 1869 O 202.003 1.80745 0.328151 0
M  V30 1870 C 202.065 1.7844 -3.12089 0
M  V30 1871 C 201.729 1.08361 -4.43967 0
M  V30 1872 C 202.726 0.438247 -5.1805 0
M  V30 1873 C 200.411 1.07358 -4.90693 0
M  V30 1874 C 202.405 -0.20779 -6.37061 0
M  V30 1875 C 200.092 0.42373 -6.09629 0
M  V30 1876 C 201.09 -0.215829 -6.82659 0
M  V30 1877 O 200.778 -0.855378 -7.99336 0
M  V30 1878 H 200.51 0.258504 -0.624621 0
M  V30 1879 H 203.064 0.14652 -2.04877 0
M  V30 1880 H 201.294 2.55389 -2.90367 0
M  V30 1881 H 202.983 2.38279 -3.286 0
M  V30 1882 H 203.749 0.437817 -4.8302 0
M  V30 1883 H 199.628 1.5608 -4.33774 0
M  V30 1884 H 203.172 -0.70758 -6.94002 0
M  V30 1885 H 199.069 0.421822 -6.4412 0
M  V30 1886 H 199.837 -0.756892 -8.14993 0
M  V30 1887 N 202.5 1.5196 0.417844 0
M  V30 1888 C 203.463 1.74065 1.49111 0
M  V30 1889 C 204.463 0.610537 1.48758 0
M  V30 1890 O 205.653 0.87832 1.50437 0
M  V30 1891 C 202.785 1.81502 2.88565 0
M  V30 1892 H 203.978 2.69869 1.30807 0
M  V30 1893 H 201.531 1.42244 0.647785 0
M  V30 1894 H 202.266 0.875813 3.1225 0
M  V30 1895 H 202.051 2.63651 2.90225 0
M  V30 1896 H 203.541 2.00376 3.66387 0
M  V30 1897 N 203.978 -0.674533 1.42435 0
M  V30 1898 C 204.908 -1.80009 1.48724 0
M  V30 1899 C 205.889 -1.6659 0.343793 0
M  V30 1900 O 207.074 -1.86007 0.558137 0
M  V30 1901 C 204.204 -3.18306 1.38919 0
M  V30 1902 C 203.158 -3.46461 2.51294 0
M  V30 1903 C 202.484 -4.84335 2.26547 0
M  V30 1904 C 203.784 -3.43328 3.93603 0
M  V30 1905 H 205.478 -1.75004 2.42928 0
M  V30 1906 H 203.024 -0.840533 1.16923 0
M  V30 1907 H 204.977 -3.9678 1.41927 0
M  V30 1908 H 203.701 -3.2399 0.412094 0
M  V30 1909 H 202.36 -2.70348 2.47604 0
M  V30 1910 H 202.008 -4.86669 1.2713 0
M  V30 1911 H 201.708 -5.04136 3.01861 0
M  V30 1912 H 203.232 -5.65094 2.31304 0
M  V30 1913 H 204.646 -4.11772 3.98894 0
M  V30 1914 H 203.043 -3.74664 4.68771 0
M  V30 1915 H 204.113 -2.41897 4.20255 0
M  V30 1916 N 205.456 -1.28612 -0.910864 0
M  V30 1917 C 206.705 -1.15311 -1.65488 0
M  V30 1918 C 207.018 0.296999 -1.93332 0
M  V30 1919 O 208.224 0.551168 -2.65847 0
M  V30 1920 C 206.68 -2.01599 -2.98137 0
M  V30 1921 C 206.288 -3.51367 -2.7793 0
M  V30 1922 C 208.032 -1.96993 -3.76024 0
M  V30 1923 C 205.939 -4.29797 -4.06237 0
M  V30 1924 H 204.869 -0.42796 -0.620779 0
M  V30 1925 H 207.52 -1.53166 -1.01057 0
M  V30 1926 H 205.902 -1.56603 -3.63719 0
M  V30 1927 H 207.076 -4.0434 -2.21011 0
M  V30 1928 H 205.391 -3.57529 -2.13452 0
M  V30 1929 H 207.988 -2.52856 -4.71135 0
M  V30 1930 H 208.331 -0.94733 -4.05378 0
M  V30 1931 H 208.864 -2.39973 -3.17266 0
M  V30 1932 H 205.603 -5.32648 -3.82055 0
M  V30 1933 H 205.123 -3.81596 -4.62757 0
M  V30 1934 H 206.802 -4.39869 -4.74473 0
M  V30 1935 N 206.934 1.1197 -1.10907 0
M  V30 1936 C 208.181 1.83588 -0.854507 0
M  V30 1937 C 208.509 1.84357 0.6199 0
M  V30 1938 O 207.764 1.28809 1.47332 0
M  V30 1939 C 208.063 3.30749 -1.35425 0
M  V30 1940 C 207.729 3.50146 -2.84093 0
M  V30 1941 C 206.391 3.55148 -3.2469 0
M  V30 1942 C 208.743 3.56857 -3.79872 0
M  V30 1943 C 206.071 3.6441 -4.59806 0
M  V30 1944 C 208.423 3.6765 -5.14797 0
M  V30 1945 C 207.087 3.7091 -5.54961 0
M  V30 1946 H 206.357 0.671795 -0.312686 0
M  V30 1947 H 209.004 1.32091 -1.38652 0
M  V30 1948 H 207.309 3.84703 -0.742361 0
M  V30 1949 H 209.006 3.8464 -1.1337 0
M  V30 1950 H 205.596 3.46919 -2.51685 0
M  V30 1951 H 209.78 3.52258 -3.49611 0
M  V30 1952 H 205.036 3.65208 -4.9034 0
M  V30 1953 H 209.21 3.71786 -5.88853 0
M  V30 1954 H 206.837 3.7784 -6.59652 0
M  V30 1955 N 208.412 0.89855 1.29475 0
M  V30 1956 C 209.66 0.522847 1.9522 0
M  V30 1957 C 209.981 -0.93371 1.71192 0
M  V30 1958 O 209.251 -1.65823 1.04305 0
M  V30 1959 H 207.831 0.190366 0.722336 0
M  V30 1960 H 210.493 1.14459 1.5775 0
M  V30 1961 H 209.589 0.704476 3.04045 0
M  V30 1962 N 209.89 -1.43072 0.660911 0
M  V30 1963 C 210.823 -2.28074 -0.0758862 0
M  V30 1964 C 211.801 -1.40271 -0.822362 0
M  V30 1965 O 212.985 -1.69713 -0.820352 0
M  V30 1966 C 210.112 -3.19843 -1.11437 0
M  V30 1967 C 209.158 -4.23957 -0.465069 0
M  V30 1968 S 209.991 -5.29978 0.767078 0
M  V30 1969 C 211.147 -6.25314 -0.270682 0
M  V30 1970 H 211.38 -2.90216 0.645139 0
M  V30 1971 H 208.913 -1.47697 0.449995 0
M  V30 1972 H 210.871 -3.73257 -1.70849 0
M  V30 1973 H 209.532 -2.56863 -1.80776 0
M  V30 1974 H 208.725 -4.88299 -1.24819 0
M  V30 1975 H 208.327 -3.73959 0.0551242 0
M  V30 1976 H 210.619 -6.67932 -1.13459 0
M  V30 1977 H 211.562 -7.07293 0.337916 0
M  V30 1978 H 211.97 -5.61195 -0.609937 0
M  V30 1979 N 211.368 -0.403325 -1.52352 0
M  V30 1980 C 212.615 0.174347 -2.01748 0
M  V30 1981 C 212.943 1.45636 -1.2892 0
M  V30 1982 O 212.198 1.9193 -0.382258 0
M  V30 1983 C 212.497 0.474665 -3.54234 0
M  V30 1984 C 212.163 -0.717458 -4.45155 0
M  V30 1985 C 210.825 -1.04447 -4.69728 0
M  V30 1986 C 213.177 -1.51432 -4.98716 0
M  V30 1987 C 210.505 -2.16963 -5.45109 0
M  V30 1988 C 212.857 -2.6302 -5.75329 0
M  V30 1989 C 211.521 -2.96213 -5.98175 0
M  V30 1990 H 210.791 0.0637981 -0.738248 0
M  V30 1991 H 213.438 -0.543553 -1.83624 0
M  V30 1992 H 211.743 1.27406 -3.70506 0
M  V30 1993 H 213.44 0.934496 -3.89959 0
M  V30 1994 H 210.03 -0.452596 -4.26204 0
M  V30 1995 H 214.214 -1.27491 -4.79645 0
M  V30 1996 H 209.47 -2.43034 -5.61021 0
M  V30 1997 H 213.644 -3.25158 -6.15829 0
M  V30 1998 H 211.271 -3.83516 -6.56368 0
M  V30 1999 N 212.846 1.57033 -0.133567 0
M  V30 2000 C 214.094 1.953 0.519848 0
M  V30 2001 C 214.415 1.01866 1.66278 0
M  V30 2002 O 213.685 0.0776513 1.95746 0
M  V30 2003 H 212.265 0.721091 0.195032 0
M  V30 2004 H 214.927 1.93809 -0.205921 0
M  V30 2005 H 214.023 2.98695 0.904854 0
M  V30 2006 N 214.325 -0.140222 1.56975 0
M  V30 2007 C 215.574 -0.850152 1.82908 0
M  V30 2008 C 215.887 -1.82028 0.715892 0
M  V30 2009 O 217.093 -2.57485 0.861016 0
M  V30 2010 C 215.549 -1.5625 3.24213 0
M  V30 2011 C 215.157 -0.63443 4.43485 0
M  V30 2012 C 216.901 -2.25881 3.59413 0
M  V30 2013 C 214.808 -1.34879 5.75814 0
M  V30 2014 H 213.738 -0.321221 0.682153 0
M  V30 2015 H 216.389 -0.102874 1.83211 0
M  V30 2016 H 214.771 -2.35565 3.18316 0
M  V30 2017 H 215.945 0.12398 4.60633 0
M  V30 2018 H 214.26 -0.0461836 4.16374 0
M  V30 2019 H 216.857 -2.79978 4.5554 0
M  V30 2020 H 217.2 -3.02693 2.85802 0
M  V30 2021 H 217.733 -1.53477 3.67001 0
M  V30 2022 H 214.472 -0.622385 6.52539 0
M  V30 2023 H 213.992 -2.07974 5.6259 0
M  V30 2024 H 215.671 -1.88784 6.18845 0
M  V30 2025 N 215.803 -1.52179 -0.40978 0
M  V30 2026 C 217.049 -1.66453 -1.15851 0
M  V30 2027 C 217.382 -0.392972 -1.90182 0
M  V30 2028 O 216.657 0.608579 -1.84734 0
M  V30 2029 C 216.94 -2.88612 -2.15349 0
M  V30 2030 C 216.793 -4.25815 -1.44918 0
M  V30 2031 C 218.112 -3.06294 -3.16026 0
M  V30 2032 H 215.231 -0.60575 -0.419805 0
M  V30 2033 H 217.873 -1.84732 -0.444314 0
M  V30 2034 H 216.023 -2.73158 -2.76255 0
M  V30 2035 H 217.695 -4.52995 -0.871365 0
M  V30 2036 H 215.938 -4.27247 -0.751159 0
M  V30 2037 H 216.609 -5.07337 -2.17516 0
M  V30 2038 H 219.085 -3.20641 -2.65195 0
M  V30 2039 H 217.961 -3.93283 -3.8291 0
M  V30 2040 H 218.222 -2.19579 -3.83715 0
M  V30 2041 N 217.281 0.66697 -1.42791 0
M  V30 2042 C 218.527 1.4291 -1.43891 0
M  V30 2043 C 218.86 1.94114 -0.0578972 0
M  V30 2044 O 218.135 1.71414 0.91911 0
M  V30 2045 C 218.418 2.62049 -2.46987 0
M  V30 2046 C 218.271 2.16426 -3.94309 0
M  V30 2047 C 219.59 3.64266 -2.46978 0
M  V30 2048 H 216.709 0.518306 -0.523954 0
M  V30 2049 H 219.351 0.757321 -1.74255 0
M  V30 2050 H 217.501 3.19361 -2.21225 0
M  V30 2051 H 219.173 1.64221 -4.31079 0
M  V30 2052 H 217.416 1.47925 -4.078 0
M  V30 2053 H 218.087 3.02038 -4.62036 0
M  V30 2054 H 220.563 3.16686 -2.69906 0
M  V30 2055 H 219.439 4.45196 -3.21079 0
M  V30 2056 H 219.7 4.15927 -1.49857 0
M  V30 2057 N 218.759 1.29093 0.90403 0
M  V30 2058 C 219.692 1.08176 2.00931 0
M  V30 2059 C 220.67 -0.005083 1.62599 0
M  V30 2060 O 221.854 0.144765 1.87943 0
M  V30 2061 C 218.981 0.645897 3.32484 0
M  V30 2062 C 218.027 1.73081 3.89801 0
M  V30 2063 S 218.86 3.32905 4.19446 0
M  V30 2064 C 220.016 2.91176 5.54046 0
M  V30 2065 H 220.249 2.01752 2.18365 0
M  V30 2066 H 217.782 1.13191 1.0501 0
M  V30 2067 H 219.74 0.401131 4.08535 0
M  V30 2068 H 218.401 -0.270188 3.12936 0
M  V30 2069 H 217.594 1.37768 4.84805 0
M  V30 2070 H 217.196 1.92888 3.20422 0
M  V30 2071 H 219.488 2.37952 6.34338 0
M  V30 2072 H 220.431 3.85014 5.94281 0
M  V30 2073 H 220.839 2.296 5.15698 0
M  V30 2074 N 220.237 -1.11381 1.11499 0
M  V30 2075 C 221.483 -1.83403 0.865512 0
M  V30 2076 C 221.816 -1.84459 -0.607329 0
M  V30 2077 O 221.091 -1.29811 -1.44842 0
M  V30 2078 C 221.374 -3.30552 1.42855 0
M  V30 2079 C 221.227 -3.37886 2.96906 0
M  V30 2080 C 222.546 -4.26643 1.08 0
M  V30 2081 H 219.665 -0.665879 0.31587 0
M  V30 2082 H 222.307 -1.30601 1.37998 0
M  V30 2083 H 220.457 -3.75648 0.990985 0
M  V30 2084 H 222.129 -3.01343 3.49271 0
M  V30 2085 H 220.372 -2.78088 3.32941 0
M  V30 2086 H 221.043 -4.41458 3.31389 0
M  V30 2087 H 223.519 -3.89729 1.45775 0
M  V30 2088 H 222.395 -5.27986 1.50072 0
M  V30 2089 H 222.656 -4.42099 -0.00915037 0
M  V30 2090 N 221.715 -0.905404 -1.28997 0
M  V30 2091 C 222.964 -0.530191 -1.94607 0
M  V30 2092 C 223.277 0.929185 -1.72121 0
M  V30 2093 O 224.483 1.41218 -2.31883 0
M  V30 2094 C 222.939 -0.897333 -3.48534 0
M  V30 2095 C 222.547 -2.37587 -3.79811 0
M  V30 2096 C 224.291 -0.592304 -4.20347 0
M  V30 2097 C 222.198 -2.68357 -5.27009 0
M  V30 2098 H 221.128 -0.194558 -0.728466 0
M  V30 2099 H 223.779 -1.10318 -1.46636 0
M  V30 2100 H 222.161 -0.253214 -3.9519 0
M  V30 2101 H 223.335 -3.06602 -3.43994 0
M  V30 2102 H 221.65 -2.6505 -3.2115 0
M  V30 2103 H 224.247 -0.798975 -5.28697 0
M  V30 2104 H 224.59 0.469474 -4.13644 0
M  V30 2105 H 225.123 -1.19452 -3.79442 0
M  V30 2106 H 221.862 -3.73355 -5.38782 0
M  V30 2107 H 221.382 -2.03971 -5.64053 0
M  V30 2108 H 223.061 -2.54922 -5.94663 0
M  V30 2109 N 223.193 1.4272 -0.668489 0
M  V30 2110 C 224.103 2.34596 0.0139753 0
M  V30 2111 C 225.119 1.5474 0.795703 0
M  V30 2112 O 226.295 1.87334 0.739466 0
M  V30 2113 C 223.36 3.33202 0.957982 0
M  V30 2114 C 222.421 4.28957 0.17149 0
M  V30 2115 C 221.654 5.22853 1.07053 0
M  V30 2116 O 221.877 5.21531 2.31001 0
M  V30 2117 O 220.811 5.9952 0.534727 0
M  V30 2118 H 224.637 2.9448 -0.742661 0
M  V30 2119 H 222.222 1.43117 -0.428705 0
M  V30 2120 H 224.104 3.93796 1.50008 0
M  V30 2121 H 222.779 2.758 1.69458 0
M  V30 2122 H 221.686 3.71796 -0.414558 0
M  V30 2123 H 223.019 4.89383 -0.52586 0
M  V30 2124 N 224.671 0.411399 1.52136 0
M  V30 2125 C 225.899 -0.163076 2.06256 0
M  V30 2126 C 226.314 -1.3867 1.28125 0
M  V30 2127 O 225.671 -1.79423 0.333721 0
M  V30 2128 C 225.722 -0.511252 3.57867 0
M  V30 2129 O 225.443 0.66378 4.33042 0
M  V30 2130 C 226.944 -1.13921 4.28412 0
M  V30 2131 H 224.164 -0.0193897 0.67072 0
M  V30 2132 H 226.708 0.583007 1.96013 0
M  V30 2133 H 224.863 -1.20723 3.6811 0
M  V30 2134 H 225.277 0.372601 5.23175 0
M  V30 2135 H 226.751 -1.33302 5.35663 0
M  V30 2136 H 227.228 -2.11296 3.85033 0
M  V30 2137 H 227.834 -0.483373 4.22544 0
M  V30 2138 N 226.149 -1.5696 0.141893 0
M  V30 2139 C 227.059 -2.20066 -0.812905 0
M  V30 2140 C 228.075 -1.18344 -1.27557 0
M  V30 2141 O 229.251 -1.50902 -1.33381 0
M  V30 2142 C 226.316 -2.80583 -2.03652 0
M  V30 2143 C 225.377 -3.97414 -1.62359 0
M  V30 2144 C 224.61 -4.55036 -2.78887 0
M  V30 2145 O 224.833 -4.11538 -3.94959 0
M  V30 2146 O 223.767 -5.45376 -2.54653 0
M  V30 2147 H 227.593 -3.02157 -0.305746 0
M  V30 2148 H 225.178 -1.49159 -0.0848799 0
M  V30 2149 H 227.06 -3.19067 -2.75272 0
M  V30 2150 H 225.735 -2.01508 -2.5333 0
M  V30 2151 H 224.642 -3.63656 -0.877775 0
M  V30 2152 H 225.975 -4.77994 -1.17401 0
M  V30 2153 N 227.627 0.131896 -1.57047 0
M  V30 2154 C 228.557 1.16384 -2.02428 0
M  V30 2155 C 229.538 1.43936 -0.90644 0
M  V30 2156 O 230.723 1.54599 -1.17528 0
M  V30 2157 C 227.853 2.49328 -2.4177 0
M  V30 2158 C 226.807 2.36266 -3.56879 0
M  V30 2159 C 226.133 3.74057 -3.8208 0
M  V30 2160 C 227.433 1.834 -4.89042 0
M  V30 2161 H 229.127 0.786433 -2.88887 0
M  V30 2162 H 226.673 0.376855 -1.38981 0
M  V30 2163 H 228.626 3.21759 -2.7212 0
M  V30 2164 H 227.35 2.88934 -1.52266 0
M  V30 2165 H 226.009 1.66286 -3.26718 0
M  V30 2166 H 225.657 4.11125 -2.89803 0
M  V30 2167 H 225.357 3.66174 -4.59554 0
M  V30 2168 H 226.881 4.48012 -4.1487 0
M  V30 2169 H 228.295 2.45636 -5.18011 0
M  V30 2170 H 226.692 1.8637 -5.70426 0
M  V30 2171 H 227.762 0.790662 -4.7841 0
M  V30 2172 N 229.106 1.52395 0.401703 0
M  V30 2173 C 230.331 1.70972 1.17403 0
M  V30 2174 C 230.756 0.421615 1.83314 0
M  V30 2175 O 230.114 -0.621564 1.70312 0
M  V30 2176 C 230.162 2.85151 2.20728 0
M  V30 2177 O 229.266 2.51238 3.27037 0
M  V30 2178 H 228.607 0.568927 0.342372 0
M  V30 2179 H 231.137 1.99131 0.469891 0
M  V30 2180 H 231.147 3.10279 2.64936 0
M  V30 2181 H 229.822 3.78603 1.7214 0
M  V30 2182 H 228.399 2.36808 2.88057 0
M  V30 2183 N 230.584 -0.659388 1.43143 0
M  V30 2184 C 231.83 -1.41984 1.45644 0
M  V30 2185 C 232.185 -1.92245 0.0771718 0
M  V30 2186 O 231.478 -1.68976 -0.903205 0
M  V30 2187 C 231.672 -2.62206 2.42864 0
M  V30 2188 C 231.501 -2.23711 3.90107 0
M  V30 2189 C 230.271 -2.12332 4.58523 0
M  V30 2190 C 232.469 -1.84384 4.80112 0
M  V30 2191 N 230.451 -1.67102 5.9072 0
M  V30 2192 C 231.822 -1.5019 6.01534 0
M  V30 2193 C 233.877 -1.71512 4.67427 0
M  V30 2194 C 232.58 -1.04414 7.11681 0
M  V30 2195 C 234.606 -1.27142 5.77572 0
M  V30 2196 C 233.968 -0.938808 6.98116 0
M  V30 2197 H 230.067 -0.515448 0.588079 0
M  V30 2198 H 232.651 -0.759409 1.79279 0
M  V30 2199 H 230.822 -3.25917 2.11265 0
M  V30 2200 H 232.554 -3.28877 2.35843 0
M  V30 2201 H 229.309 -2.31893 4.12944 0
M  V30 2202 H 229.733 -1.46866 6.60878 0
M  V30 2203 H 234.375 -1.95868 3.74694 0
M  V30 2204 H 232.093 -0.788061 8.04248 0
M  V30 2205 H 235.679 -1.17681 5.69774 0
M  V30 2206 H 234.559 -0.6007 7.81896 0
M  V30 2207 N 232.062 -1.29571 -0.897171 0
M  V30 2208 C 233.31 -1.17456 -1.64464 0
M  V30 2209 C 233.631 0.273698 -1.9307 0
M  V30 2210 O 232.901 1.18684 -1.55855 0
M  V30 2211 H 231.481 -0.431706 -0.609622 0
M  V30 2212 H 234.143 -1.62531 -1.07562 0
M  V30 2213 H 233.239 -1.72648 -2.59998 0
M  V30 2214 N 233.54 1.10788 -1.12088 0
M  V30 2215 C 234.503 2.15207 -0.788577 0
M  V30 2216 C 235.503 1.59609 0.195317 0
M  V30 2217 O 236.693 1.74174 -0.0300193 0
M  V30 2218 C 233.825 3.4047 -0.171174 0
M  V30 2219 H 235.018 2.46116 -1.71368 0
M  V30 2220 H 232.571 1.26089 -0.923652 0
M  V30 2221 H 233.306 3.15176 0.763832 0
M  V30 2222 H 233.091 3.82109 -0.879514 0
M  V30 2223 H 234.581 4.17576 0.04496 0
M  V30 2224 N 235.018 0.912232 1.28515 0
M  V30 2225 C 236.248 0.559604 1.98877 0
M  V30 2226 C 236.656 -0.863113 1.68366 0
M  V30 2227 O 235.999 -1.58304 0.931969 0
M  V30 2228 C 236.061 0.68703 3.52874 0
M  V30 2229 C 235.725 2.07901 4.06972 0
M  V30 2230 C 236.722 3.05157 4.20922 0
M  V30 2231 C 234.407 2.39178 4.417 0
M  V30 2232 C 236.401 4.31806 4.68852 0
M  V30 2233 C 234.088 3.66068 4.89324 0
M  V30 2234 C 235.086 4.62195 5.02856 0
M  V30 2235 O 234.774 5.86829 5.49442 0
M  V30 2236 H 234.506 0.212191 0.641834 0
M  V30 2237 H 237.06 1.22712 1.64715 0
M  V30 2238 H 235.29 -0.0375486 3.86682 0
M  V30 2239 H 236.979 0.341727 4.04459 0
M  V30 2240 H 237.745 2.82311 3.94367 0
M  V30 2241 H 233.624 1.65109 4.30418 0
M  V30 2242 H 237.168 5.06842 4.79329 0
M  V30 2243 H 233.065 3.88739 5.15318 0
M  V30 2244 H 233.833 5.89597 5.6773 0
M  V30 2245 N 236.496 -1.42363 0.676048 0
M  V30 2246 C 237.773 -1.95183 0.127726 0
M  V30 2247 C 238.153 -1.61641 -1.35777 0
M  V30 2248 O 237.501 -0.913216 -2.09458 0
M  V30 2249 C 237.711 -3.46721 0.398199 0
M  V30 2250 C 239.059 -4.23427 0.315383 0
M  V30 2251 O 240.083 -3.54649 0.332016 0
M  V30 2252 O 238.942 -5.45888 0.25865 0
M  V30 2253 H 236.036 -0.826992 0.00359427 0
M  V30 2254 H 238.582 -1.52184 0.750864 0
M  V30 2255 H 237.354 -3.64344 1.4272 0
M  V30 2256 H 236.977 -3.96769 -0.256885 0
M  V30 2257 N 237.974 -0.419461 -1.51915 0
M  V30 2258 C 238.921 0.400927 -2.27291 0
M  V30 2259 C 239.891 1.03224 -1.30131 0
M  V30 2260 O 241.076 1.05455 -1.59009 0
M  V30 2261 C 238.216 1.50603 -3.10504 0
M  V30 2262 C 237.329 0.89462 -4.22635 0
M  V30 2263 C 236.464 1.97328 -4.93189 0
M  V30 2264 C 235.503 1.33935 -5.97267 0
M  V30 2265 N 234.64 2.3586 -6.61298 0
M  V30 2266 H 239.48 -0.248251 -2.96964 0
M  V30 2267 H 237.017 -0.134266 -1.46486 0
M  V30 2268 H 238.975 2.15783 -3.57062 0
M  V30 2269 H 237.605 2.12509 -2.42981 0
M  V30 2270 H 236.657 0.131583 -3.80172 0
M  V30 2271 H 237.969 0.391641 -4.9726 0
M  V30 2272 H 237.123 2.70211 -5.43204 0
M  V30 2273 H 235.862 2.50994 -4.18155 0
M  V30 2274 H 234.867 0.595896 -5.46561 0
M  V30 2275 H 236.092 0.810252 -6.74249 0
M  V30 2276 H 234.038 2.88639 -5.89087 0
M  V30 2277 H 233.955 1.90403 -7.3163 0
M  V30 2278 H 235.223 3.08282 -7.15949 0
M  V30 2279 N 239.452 1.56882 -0.150215 0
M  V30 2280 C 240.415 2.1573 0.774157 0
M  V30 2281 C 241.415 1.0999 1.17298 0
M  V30 2282 O 242.605 1.35613 1.09338 0
M  V30 2283 C 239.737 2.72302 2.05096 0
M  V30 2284 H 240.93 2.98752 0.262201 0
M  V30 2285 H 238.483 1.55985 0.099248 0
M  V30 2286 H 239.218 1.92956 2.6065 0
M  V30 2287 H 239.003 3.49665 1.77416 0
M  V30 2288 H 240.493 3.17632 2.71109 0
M  V30 2289 N 240.93 -0.123565 1.57115 0
M  V30 2290 C 242.155 -0.850398 1.89164 0
M  V30 2291 C 242.58 -1.7286 0.741688 0
M  V30 2292 O 241.938 -1.78665 -0.307958 0
M  V30 2293 C 241.986 -1.66353 3.19936 0
M  V30 2294 O 241.09 -2.77004 3.0552 0
M  V30 2295 H 240.431 -0.235454 0.620852 0
M  V30 2296 H 242.961 -0.107335 2.04318 0
M  V30 2297 H 242.971 -2.05372 3.52543 0
M  V30 2298 H 241.646 -1.01881 4.03228 0
M  V30 2299 H 240.223 -2.41221 2.84371 0
M  V30 2300 N 242.408 -1.52605 -0.393616 0
M  V30 2301 C 243.338 -1.80022 -1.48709 0
M  V30 2302 C 244.319 -0.651995 -1.57108 0
M  V30 2303 O 245.504 -0.89913 -1.72132 0
M  V30 2304 C 242.634 -1.96492 -2.86371 0
M  V30 2305 C 241.588 -3.12161 -2.92813 0
M  V30 2306 C 240.914 -3.13877 -4.3288 0
M  V30 2307 C 242.214 -4.51322 -2.6288 0
M  V30 2308 H 243.908 -2.71589 -1.26015 0
M  V30 2309 H 241.454 -1.30684 -0.604778 0
M  V30 2310 H 243.407 -2.14255 -3.62867 0
M  V30 2311 H 242.131 -1.01611 -3.10391 0
M  V30 2312 H 240.79 -2.94173 -2.18764 0
M  V30 2313 H 240.438 -2.16687 -4.53933 0
M  V30 2314 H 240.138 -3.91576 -4.38112 0
M  V30 2315 H 241.662 -3.33789 -5.1129 0
M  V30 2316 H 243.076 -4.69435 -3.29096 0
M  V30 2317 H 241.473 -5.31053 -2.79468 0
M  V30 2318 H 242.543 -4.58353 -1.58242 0
M  V30 2319 N 243.887 0.651787 -1.4349 0
M  V30 2320 C 245.117 1.43728 -1.48411 0
M  V30 2321 C 245.525 1.8893 -0.10103 0
M  V30 2322 O 244.868 1.60182 0.899307 0
M  V30 2323 C 244.93 2.70411 -2.36893 0
M  V30 2324 C 244.594 2.4714 -3.8441 0
M  V30 2325 C 245.591 2.10271 -4.75481 0
M  V30 2326 C 243.276 2.6142 -4.28912 0
M  V30 2327 C 245.27 1.87982 -6.0905 0
M  V30 2328 C 242.957 2.38746 -5.62533 0
M  V30 2329 C 243.955 2.02083 -6.5242 0
M  V30 2330 O 243.643 1.79647 -7.8357 0
M  V30 2331 H 243.375 0.447962 -0.506267 0
M  V30 2332 H 245.929 0.80624 -1.88915 0
M  V30 2333 H 244.159 3.36079 -1.91278 0
M  V30 2334 H 245.848 3.32364 -2.33 0
M  V30 2335 H 246.614 1.98814 -4.42378 0
M  V30 2336 H 242.493 2.88931 -3.59222 0
M  V30 2337 H 246.037 1.5929 -6.7917 0
M  V30 2338 H 241.934 2.49806 -5.95203 0
M  V30 2339 H 242.702 1.9406 -7.95162 0
M  V30 2340 N 245.365 1.30045 0.890287 0
M  V30 2341 C 246.59 1.21598 1.68014 0
M  V30 2342 C 247.015 -0.218678 1.86825 0
M  V30 2343 O 246.373 -1.15756 1.39536 0
M  V30 2344 C 246.421 1.94434 3.03691 0
M  V30 2345 O 245.525 1.2678 3.92429 0
M  V30 2346 H 244.866 0.420856 0.513592 0
M  V30 2347 H 247.396 1.71775 1.11151 0
M  V30 2348 H 247.406 2.03251 3.5377 0
M  V30 2349 H 246.081 2.98777 2.89318 0
M  V30 2350 H 244.658 1.26282 3.50866 0
M  V30 2351 N 246.843 -1.10192 1.12674 0
M  V30 2352 C 247.773 -2.18652 0.819362 0
M  V30 2353 C 248.754 -1.68698 -0.217915 0
M  V30 2354 O 249.939 -1.94041 -0.0785581 0
M  V30 2355 C 247.069 -3.46202 0.27594 0
M  V30 2356 C 246.023 -4.09444 1.24656 0
M  V30 2357 C 245.349 -5.31725 0.563258 0
M  V30 2358 C 246.649 -4.52863 2.60217 0
M  V30 2359 H 248.343 -2.44622 1.72628 0
M  V30 2360 H 245.889 -1.17571 0.831451 0
M  V30 2361 H 247.842 -4.21372 0.0486149 0
M  V30 2362 H 246.566 -3.1973 -0.666331 0
M  V30 2363 H 245.225 -3.36284 1.45974 0
M  V30 2364 H 244.873 -5.0153 -0.384235 0
M  V30 2365 H 244.573 -5.74991 1.21075 0
M  V30 2366 H 246.097 -6.09624 0.34503 0
M  V30 2367 H 247.511 -5.19294 2.42913 0
M  V30 2368 H 245.908 -5.06986 3.21068 0
M  V30 2369 H 246.978 -3.65656 3.18471 0
M  V30 2370 N 248.321 -0.919034 -1.28029 0
M  V30 2371 C 249.284 -0.416182 -2.2539 0
M  V30 2372 C 250.284 0.460438 -1.54067 0
M  V30 2373 O 251.474 0.262744 -1.72207 0
M  V30 2374 C 248.606 0.402707 -3.38513 0
M  V30 2375 H 249.799 -1.27629 -2.71387 0
M  V30 2376 H 247.352 -0.698919 -1.39803 0
M  V30 2377 H 248.087 1.282 -2.97885 0
M  V30 2378 H 247.872 -0.225698 -3.9145 0
M  V30 2379 H 249.362 0.745191 -4.10897 0
M  V30 2380 N 249.799 1.42003 -0.683588 0
M  V30 2381 C 250.729 2.33487 -0.024866 0
M  V30 2382 C 251.71 1.51163 0.779975 0
M  V30 2383 O 252.895 1.79739 0.735362 0
M  V30 2384 C 250.025 3.3487 0.920836 0
M  V30 2385 C 248.979 4.27414 0.223958 0
M  V30 2386 C 248.305 5.19074 1.2832 0
M  V30 2387 C 249.605 5.14445 -0.90242 0
M  V30 2388 H 251.299 2.88819 -0.788921 0
M  V30 2389 H 248.845 1.38873 -0.38083 0
M  V30 2390 H 250.798 3.97787 1.39081 0
M  V30 2391 H 249.522 2.77861 1.71642 0
M  V30 2392 H 248.181 3.65904 -0.225864 0
M  V30 2393 H 247.829 4.58387 2.071 0
M  V30 2394 H 247.529 5.81822 0.821995 0
M  V30 2395 H 249.053 5.84867 1.75392 0
M  V30 2396 H 250.467 5.70998 -0.513272 0
M  V30 2397 H 248.864 5.86072 -1.28997 0
M  V30 2398 H 249.934 4.52322 -1.74737 0
M  V30 2399 N 251.277 0.427512 1.51691 0
M  V30 2400 C 252.224 -0.388867 2.275 0
M  V30 2401 C 253.194 -1.02532 1.30677 0
M  V30 2402 O 254.379 -1.0461 1.59566 0
M  V30 2403 C 251.519 -1.48954 3.11298 0
M  V30 2404 C 250.632 -0.872194 4.23104 0
M  V30 2405 C 249.767 -1.94709 4.94228 0
M  V30 2406 C 248.806 -1.30766 5.97969 0
M  V30 2407 N 247.943 -2.32349 6.62539 0
M  V30 2408 H 252.783 0.263997 2.96828 0
M  V30 2409 H 250.32 0.142033 1.46413 0
M  V30 2410 H 252.278 -2.13887 3.58201 0
M  V30 2411 H 250.908 -2.11217 2.44105 0
M  V30 2412 H 249.96 -0.111419 3.80237 0
M  V30 2413 H 251.272 -0.365264 4.97461 0
M  V30 2414 H 250.426 -2.67327 5.44629 0
M  V30 2415 H 249.165 -2.48773 4.1948 0
M  V30 2416 H 248.17 -0.566902 5.4687 0
M  V30 2417 H 249.395 -0.774483 6.74669 0
M  V30 2418 H 247.341 -2.85511 5.90609 0
M  V30 2419 H 247.258 -1.8652 7.3263 0
M  V30 2420 H 248.526 -3.04481 7.17574 0
M  V30 2421 N 252.755 -1.56801 0.158532 0
M  V30 2422 C 253.995 -1.98383 -0.49229 0
M  V30 2423 C 254.359 -1.04184 -1.61275 0
M  V30 2424 O 255.56 -1.34856 -2.32524 0
M  V30 2425 C 253.831 -3.4385 -0.974766 0
M  V30 2426 S 255.39 -4.07459 -1.62857 0
M  V30 2427 H 252.208 -0.693041 -0.158794 0
M  V30 2428 H 254.81 -1.93856 0.252974 0
M  V30 2429 H 253.514 -4.10131 -0.148688 0
M  V30 2430 H 253.045 -3.52115 -1.75438 0
M  V30 2431 H 255.06 -4.01458 -2.91627 0
M  V30 2432 N 254.233 0.115231 -1.57178 0
M  V30 2433 C 255.163 1.1423 -2.03651 0
M  V30 2434 C 256.144 1.42967 -0.921655 0
M  V30 2435 O 257.329 1.53343 -1.19162 0
M  V30 2436 C 254.459 2.4675 -2.44401 0
M  V30 2437 C 253.413 2.32467 -3.59365 0
M  V30 2438 C 252.739 3.69984 -3.86026 0
M  V30 2439 C 254.039 1.78203 -4.90959 0
M  V30 2440 H 255.733 0.755749 -2.89705 0
M  V30 2441 H 253.279 0.362093 -1.39373 0
M  V30 2442 H 255.232 3.18854 -2.75517 0
M  V30 2443 H 253.956 2.87302 -1.55322 0
M  V30 2444 H 252.615 1.62811 -3.28463 0
M  V30 2445 H 252.263 4.08028 -2.94147 0
M  V30 2446 H 251.963 3.61279 -4.63412 0
M  V30 2447 H 253.487 4.43587 -4.19599 0
M  V30 2448 H 254.901 2.40128 -5.20587 0
M  V30 2449 H 253.298 1.8031 -5.72371 0
M  V30 2450 H 254.368 0.739876 -4.79222 0
M  V30 2451 N 255.711 1.52812 0.385517 0
M  V30 2452 C 256.96 1.67249 1.12741 0
M  V30 2453 C 257.273 0.4205 1.91027 0
M  V30 2454 O 258.479 0.445064 2.67827 0
M  V30 2455 C 256.935 2.95583 2.05326 0
M  V30 2456 C 256.543 4.27974 1.32447 0
M  V30 2457 C 258.287 3.19386 2.7963 0
M  V30 2458 C 256.194 5.47412 2.23818 0
M  V30 2459 H 255.124 0.6231 0.424573 0
M  V30 2460 H 257.775 1.79309 0.389924 0
M  V30 2461 H 256.157 2.77277 2.82725 0
M  V30 2462 H 257.331 4.56844 0.602495 0
M  V30 2463 H 255.646 4.10459 0.700885 0
M  V30 2464 H 258.243 4.05801 3.48181 0
M  V30 2465 H 258.586 2.34604 3.43899 0
M  V30 2466 H 259.119 3.38274 2.09322 0
M  V30 2467 H 255.858 6.34612 1.64157 0
M  V30 2468 H 255.378 5.22849 2.93921 0
M  V30 2469 H 257.057 5.81423 2.83824 0
M  V30 2470 N 257.189 -0.644168 1.43834 0
M  V30 2471 C 258.414 -1.43642 1.49605 0
M  V30 2472 C 258.839 -1.8773 0.117913 0
M  V30 2473 O 258.197 -1.57938 -0.890239 0
M  V30 2474 C 258.245 -2.6416 2.45463 0
M  V30 2475 O 257.349 -3.63538 1.94714 0
M  V30 2476 H 256.69 -0.430329 0.50568 0
M  V30 2477 H 259.22 -0.787448 1.8884 0
M  V30 2478 H 259.23 -3.11864 2.63068 0
M  V30 2479 H 257.905 -2.31414 3.45572 0
M  V30 2480 H 256.482 -3.2273 1.86814 0
M  V30 2481 N 258.668 -1.30515 -0.883378 0
M  V30 2482 C 259.598 -1.19607 -2.00541 0
M  V30 2483 C 260.579 -0.086346 -1.69881 0
M  V30 2484 O 261.764 -0.268654 -1.92333 0
M  V30 2485 C 258.894 -0.888758 -3.35736 0
M  V30 2486 C 257.848 -1.95659 -3.8066 0
M  V30 2487 C 257.174 -1.50224 -5.13164 0
M  V30 2488 C 258.474 -3.36788 -3.99213 0
M  V30 2489 H 260.168 -2.13476 -2.09925 0
M  V30 2490 H 257.714 -1.02775 -1.00863 0
M  V30 2491 H 259.667 -0.799094 -4.13754 0
M  V30 2492 H 258.391 0.0856125 -3.26488 0
M  V30 2493 H 257.05 -2.03591 -3.04871 0
M  V30 2494 H 256.698 -0.516092 -5.00345 0
M  V30 2495 H 256.398 -2.2165 -5.44192 0
M  V30 2496 H 257.922 -1.42639 -5.93706 0
M  V30 2497 H 259.336 -3.31605 -4.67665 0
M  V30 2498 H 257.733 -4.06314 -4.41621 0
M  V30 2499 H 258.803 -3.78561 -3.03017 0
M  V30 2500 N 260.146 1.09593 -1.13257 0
M  V30 2501 C 261.371 1.8604 -0.916732 0
M  V30 2502 C 261.796 1.80504 0.529146 0
M  V30 2503 O 261.154 1.18127 1.37534 0
M  V30 2504 C 261.202 3.32017 -1.40703 0
M  V30 2505 O 260.306 4.08141 -0.591153 0
M  V30 2506 H 259.647 0.576943 -0.328683 0
M  V30 2507 H 262.177 1.38405 -1.50682 0
M  V30 2508 H 262.187 3.82865 -1.4099 0
M  V30 2509 H 260.862 3.35361 -2.45979 0
M  V30 2510 H 259.439 3.67084 -0.656005 0
M  V30 2511 N 261.624 0.925811 1.2754 0
M  V30 2512 C 262.852 0.581509 1.9856 0
M  V30 2513 C 263.267 -0.840041 1.69082 0
M  V30 2514 O 262.624 -1.55805 0.950312 0
M  V30 2515 C 262.675 0.795589 3.52637 0
M  V30 2516 O 262.396 2.16121 3.81082 0
M  V30 2517 C 263.897 0.459744 4.4091 0
M  V30 2518 H 261.117 0.220538 0.633722 0
M  V30 2519 H 263.661 1.24232 1.6244 0
M  V30 2520 H 261.816 0.18161 3.86974 0
M  V30 2521 H 262.23 2.2098 4.75676 0
M  V30 2522 H 263.704 0.660244 5.48037 0
M  V30 2523 H 264.181 -0.604625 4.35018 0
M  V30 2524 H 264.787 1.05178 4.12089 0
M  V30 2525 N 263.102 -1.41638 0.69111 0
M  V30 2526 C 264.351 -2.00526 0.217318 0
M  V30 2527 C 264.664 -1.55353 -1.18848 0
M  V30 2528 O 265.87 -2.06769 -1.75951 0
M  V30 2529 C 264.326 -3.58313 0.337639 0
M  V30 2530 C 263.934 -4.12469 1.74852 0
M  V30 2531 C 265.678 -4.24431 -0.0766066 0
M  V30 2532 C 263.585 -5.62675 1.82074 0
M  V30 2533 H 262.515 -0.750008 0.0774893 0
M  V30 2534 H 265.166 -1.6217 0.858661 0
M  V30 2535 H 263.548 -3.9425 -0.371879 0
M  V30 2536 H 264.722 -3.8796 2.48644 0
M  V30 2537 H 263.037 -3.58861 2.11205 0
M  V30 2538 H 265.634 -5.34683 -0.0430284 0
M  V30 2539 H 265.977 -4.01101 -1.1146 0
M  V30 2540 H 266.51 -3.93512 0.582476 0
M  V30 2541 H 263.249 -5.90826 2.83911 0
M  V30 2542 H 262.769 -5.89124 1.12661 0
M  V30 2543 H 264.448 -6.27371 1.58159 0
M  V30 2544 N 264.58 -0.43555 -1.51462 0
M  V30 2545 C 265.829 0.133007 -2.01261 0
M  V30 2546 C 266.142 1.43942 -1.32439 0
M  V30 2547 O 267.348 2.09081 -1.73198 0
M  V30 2548 C 265.804 0.287581 -3.58749 0
M  V30 2549 C 265.412 -1.00829 -4.36506 0
M  V30 2550 C 267.156 0.810004 -4.167 0
M  V30 2551 C 265.063 -0.819454 -5.85695 0
M  V30 2552 H 263.993 0.0534822 -0.752101 0
M  V30 2553 H 266.644 -0.565038 -1.74584 0
M  V30 2554 H 265.026 1.04859 -3.81865 0
M  V30 2555 H 266.2 -1.77749 -4.25138 0
M  V30 2556 H 264.515 -1.45911 -3.89999 0
M  V30 2557 H 267.112 0.967743 -5.2587 0
M  V30 2558 H 267.455 1.79196 -3.75758 0
M  V30 2559 H 267.988 0.107357 -3.97655 0
M  V30 2560 H 264.727 -1.77374 -6.31046 0
M  V30 2561 H 264.247 -0.0900208 -5.99732 0
M  V30 2562 H 265.926 -0.471949 -6.45276 0
M  V30 2563 N 266.058 1.56714 -0.166846 0
M  V30 2564 C 266.988 2.20754 0.760913 0
M  V30 2565 C 267.969 1.16178 1.24244 0
M  V30 2566 O 269.154 1.44592 1.29641 0
M  V30 2567 C 266.284 2.84478 1.99223 0
M  V30 2568 C 265.238 3.95053 1.64672 0
M  V30 2569 C 264.564 4.45805 2.95232 0
M  V30 2570 C 265.864 5.14865 0.878155 0
M  V30 2571 H 267.558 2.98537 0.22713 0
M  V30 2572 H 265.104 1.43596 0.107805 0
M  V30 2573 H 267.057 3.27951 2.64624 0
M  V30 2574 H 265.781 2.04056 2.55007 0
M  V30 2575 H 264.44 3.52228 1.01641 0
M  V30 2576 H 264.088 3.62181 3.49047 0
M  V30 2577 H 263.788 5.204 2.7287 0
M  V30 2578 H 265.312 4.91962 3.6167 0
M  V30 2579 H 266.726 5.55059 1.43466 0
M  V30 2580 H 265.123 5.95348 0.753738 0
M  V30 2581 H 266.193 4.84735 -0.126377 0
M  V30 2582 N 267.536 -0.106894 1.57237 0
M  V30 2583 C 268.466 -1.13148 2.04254 0
M  V30 2584 C 269.447 -1.42476 0.929224 0
M  V30 2585 O 270.632 -1.52709 1.19973 0
M  V30 2586 C 267.762 -2.4545 2.45706 0
M  V30 2587 C 266.716 -2.30558 3.60592 0
M  V30 2588 C 266.042 -3.67931 3.87983 0
M  V30 2589 C 267.342 -1.75597 4.91897 0
M  V30 2590 H 269.036 -0.740374 2.90101 0
M  V30 2591 H 266.582 -0.354696 1.39563 0
M  V30 2592 H 268.535 -3.17389 2.77205 0
M  V30 2593 H 267.259 -2.86475 1.56843 0
M  V30 2594 H 265.918 -1.61067 3.29322 0
M  V30 2595 H 265.566 -4.06462 2.96306 0
M  V30 2596 H 265.266 -3.58817 4.65322 0
M  V30 2597 H 266.79 -4.41356 4.21945 0
M  V30 2598 H 268.204 -2.37364 5.21854 0
M  V30 2599 H 266.601 -1.77272 5.73319 0
M  V30 2600 H 267.671 -0.714451 4.79608 0
M  V30 2601 N 269.014 -1.53014 -0.377408 0
M  V30 2602 C 270.262 -1.6829 -1.11906 0
M  V30 2603 C 270.583 -0.431206 -1.90173 0
M  V30 2604 O 269.853 0.554595 -1.87886 0
M  V30 2605 H 268.433 -0.620371 -0.416112 0
M  V30 2606 H 271.095 -1.90167 -0.426893 0
M  V30 2607 H 270.191 -2.53862 -1.8155 0
M  V30 2608 N 270.492 0.636531 -1.44174 0
M  V30 2609 C 271.422 1.76003 -1.53444 0
M  V30 2610 C 272.403 1.65619 -0.387841 0
M  V30 2611 O 273.588 1.84461 -0.607257 0
M  V30 2612 C 270.718 3.14511 -1.4731 0
M  V30 2613 C 269.672 3.39677 -2.60391 0
M  V30 2614 C 268.998 4.78159 -2.39308 0
M  V30 2615 C 270.298 3.32772 -4.02567 0
M  V30 2616 H 271.992 1.68501 -2.47483 0
M  V30 2617 H 269.538 0.809237 -1.19111 0
M  V30 2618 H 271.491 3.92878 -1.52397 0
M  V30 2619 H 270.215 3.22783 -0.49785 0
M  V30 2620 H 268.874 2.63688 -2.54684 0
M  V30 2621 H 268.522 4.83128 -1.39988 0
M  V30 2622 H 268.222 4.95956 -3.15122 0
M  V30 2623 H 269.746 5.58762 -2.46205 0
M  V30 2624 H 271.16 4.01051 -4.09672 0
M  V30 2625 H 269.557 3.62104 -4.7854 0
M  V30 2626 H 270.627 2.30669 -4.2652 0
M  V30 2627 N 271.97 1.30982 0.876444 0
M  V30 2628 C 273.219 1.19658 1.62373 0
M  V30 2629 C 273.532 -0.245636 1.94052 0
M  V30 2630 O 274.738 -0.48049 2.67214 0
M  V30 2631 C 273.194 2.09433 2.92687 0
M  V30 2632 C 272.802 3.58613 2.68516 0
M  V30 2633 C 274.546 2.06893 3.70669 0
M  V30 2634 C 272.453 4.40416 3.94699 0
M  V30 2635 H 271.383 0.444268 0.609214 0
M  V30 2636 H 274.034 1.55791 0.969605 0
M  V30 2637 H 272.416 1.66191 3.59439 0
M  V30 2638 H 273.59 4.10058 2.10212 0
M  V30 2639 H 271.905 3.63063 2.03898 0
M  V30 2640 H 274.502 2.65258 4.64265 0
M  V30 2641 H 274.845 1.05448 4.02724 0
M  V30 2642 H 275.378 2.48301 3.10792 0
M  V30 2643 H 272.117 5.42591 3.67798 0
M  V30 2644 H 271.637 3.93731 4.52477 0
M  V30 2645 H 273.316 4.52294 4.62644 0
M  V30 2646 N 273.449 -1.08991 1.13837 0
M  V30 2647 C 274.698 -1.80631 0.897509 0
M  V30 2648 C 275.011 -1.86872 -0.57777 0
M  V30 2649 O 276.217 -2.54866 -0.935701 0
M  V30 2650 C 274.673 -3.24517 1.55618 0
M  V30 2651 C 274.281 -3.26529 3.0673 0
M  V30 2652 C 276.025 -4.00882 1.3962 0
M  V30 2653 C 273.932 -4.64965 3.65461 0
M  V30 2654 H 272.862 -0.67691 0.332129 0
M  V30 2655 H 275.513 -1.2246 1.3666 0
M  V30 2656 H 273.895 -3.82778 1.01476 0
M  V30 2657 H 275.069 -2.78008 3.67489 0
M  V30 2658 H 273.384 -2.63656 3.22296 0
M  V30 2659 H 275.981 -5.03167 1.80906 0
M  V30 2660 H 276.324 -4.14896 0.341578 0
M  V30 2661 H 276.857 -3.49075 1.90766 0
M  V30 2662 H 273.596 -4.56153 4.70749 0
M  V30 2663 H 273.116 -5.13792 3.09481 0
M  V30 2664 H 274.795 -5.3394 3.654 0
M  V30 2665 N 274.927 -0.932562 -1.27047 0
M  V30 2666 C 276.173 -0.576412 -1.94436 0
M  V30 2667 C 276.506 0.880891 -1.73072 0
M  V30 2668 O 275.781 1.62905 -1.06264 0
M  V30 2669 C 276.064 -0.909031 -3.48437 0
M  V30 2670 C 275.917 -2.42044 -3.79123 0
M  V30 2671 C 277.236 -0.418341 -4.38107 0
M  V30 2672 H 274.355 -0.210888 -0.706184 0
M  V30 2673 H 276.997 -1.16522 -1.50075 0
M  V30 2674 H 275.147 -0.407947 -3.86352 0
M  V30 2675 H 276.819 -2.99359 -3.50973 0
M  V30 2676 H 275.062 -2.86758 -3.25503 0
M  V30 2677 H 275.733 -2.6037 -4.86736 0
M  V30 2678 H 278.209 -0.847856 -4.0737 0
M  V30 2679 H 277.085 -0.679981 -5.44672 0
M  V30 2680 H 277.346 0.681642 -4.36814 0
M  V30 2681 N 276.405 1.4127 -0.698611 0
M  V30 2682 C 277.635 2.05205 -0.239644 0
M  V30 2683 C 278.043 1.52684 1.11733 0
M  V30 2684 O 277.386 0.671222 1.70998 0
M  V30 2685 C 277.448 3.59289 -0.123126 0
M  V30 2686 C 277.112 4.34619 -1.41263 0
M  V30 2687 C 278.109 4.63701 -2.35111 0
M  V30 2688 C 275.794 4.73837 -1.66684 0
M  V30 2689 C 277.788 5.30966 -3.52639 0
M  V30 2690 C 275.475 5.40837 -2.84498 0
M  V30 2691 C 276.473 5.69329 -3.77298 0
M  V30 2692 O 276.161 6.34949 -4.93047 0
M  V30 2693 H 275.893 0.66723 -0.108537 0
M  V30 2694 H 278.447 1.81974 -0.952602 0
M  V30 2695 H 276.677 3.81272 0.645628 0
M  V30 2696 H 278.366 4.04797 0.299056 0
M  V30 2697 H 279.132 4.33882 -2.16729 0
M  V30 2698 H 275.011 4.51039 -0.953135 0
M  V30 2699 H 278.555 5.53121 -4.25091 0
M  V30 2700 H 274.452 5.70075 -3.02795 0
M  V30 2701 H 275.22 6.53445 -4.92902 0
M  V30 2702 N 277.883 0.443576 1.51229 0
M  V30 2703 C 278.833 -0.382787 2.24764 0
M  V30 2704 C 279.817 -0.984836 1.27239 0
M  V30 2705 O 281.009 -0.901943 1.52296 0
M  V30 2706 C 278.138 -1.47989 3.09765 0
M  V30 2707 C 277.224 -0.886931 4.14722 0
M  V30 2708 N 277.615 -0.0237103 5.05794 0
M  V30 2709 C 275.913 -1.15385 4.30816 0
M  V30 2710 C 276.614 0.309971 5.80874 0
M  V30 2711 N 275.59 -0.307989 5.42727 0
M  V30 2712 H 279.392 0.282624 2.92538 0
M  V30 2713 H 276.906 0.256027 1.60369 0
M  V30 2714 H 278.903 -2.08482 3.61027 0
M  V30 2715 H 277.563 -2.14758 2.43535 0
M  V30 2716 H 278.574 0.34318 5.16762 0
M  V30 2717 H 275.251 -1.81857 3.75812 0
M  V30 2718 H 276.641 1.01279 6.64223 0
M  V30 2719 N 279.361 -1.56624 0.175154 0
M  V30 2720 C 280.324 -2.16934 -0.739738 0
M  V30 2721 C 281.324 -1.11842 -1.15533 0
M  V30 2722 O 282.514 -1.37335 -1.07167 0
M  V30 2723 C 279.646 -2.75531 -2.00738 0
M  V30 2724 H 280.839 -2.99131 -0.214639 0
M  V30 2725 H 278.392 -1.56123 -0.0744197 0
M  V30 2726 H 279.127 -1.97078 -2.57548 0
M  V30 2727 H 278.912 -3.52444 -1.71831 0
M  V30 2728 H 280.402 -3.21904 -2.66021 0
M  V30 2729 N 280.839 0.0985539 -1.57292 0
M  V30 2730 C 282.255 0.45267 -1.53046 0
M  V30 2731 C 282.455 1.80713 -0.891342 0
M  V30 2732 O 281.511 2.4785 -0.482375 0
M  V30 2733 C 282.824 0.418341 -2.97776 0
M  V30 2734 C 284.372 0.500443 -3.08973 0
M  V30 2735 C 284.847 0.496297 -4.55303 0
M  V30 2736 N 286.338 0.557151 -4.59837 0
M  V30 2737 C 287.073 0.575726 -5.70502 0
M  V30 2738 N 286.569 0.550714 -6.90608 0
M  V30 2739 N 288.362 0.620277 -5.58667 0
M  V30 2740 H 280.513 -0.788673 -1.97215 0
M  V30 2741 H 282.776 -0.293188 -0.901524 0
M  V30 2742 H 282.482 -0.509659 -3.47988 0
M  V30 2743 H 282.356 1.2386 -3.56284 0
M  V30 2744 H 284.743 1.41886 -2.58751 0
M  V30 2745 H 284.824 -0.347894 -2.53423 0
M  V30 2746 H 284.468 -0.418162 -5.06176 0
M  V30 2747 H 284.398 1.3618 -5.08687 0
M  V30 2748 H 286.889 0.581816 -3.73394 0
M  V30 2749 H 287.202 0.568075 -7.70709 0
M  V30 2750 H 285.547 0.517816 -6.93068 0
M  V30 2751 H 288.738 0.637322 -4.63741 0
M  V30 2752 H 288.911 0.631283 -6.44918 0
M  V30 2753 N 282.317 1.53212 0.369288 0
M  V30 2754 C 283.227 1.82342 1.47609 0
M  V30 2755 C 284.243 0.711532 1.58787 0
M  V30 2756 O 285.419 1.0012 1.74751 0
M  V30 2757 C 282.484 2.00393 2.8292 0
M  V30 2758 C 281.545 3.24297 2.81301 0
M  V30 2759 C 280.778 3.41478 4.10157 0
M  V30 2760 O 281.001 2.63033 5.06132 0
M  V30 2761 O 279.935 4.34817 4.16194 0
M  V30 2762 H 283.761 2.76366 1.25918 0
M  V30 2763 H 281.346 1.38547 0.559034 0
M  V30 2764 H 283.228 2.13859 3.63101 0
M  V30 2765 H 281.903 1.09559 3.04596 0
M  V30 2766 H 280.81 3.16257 1.99831 0
M  V30 2767 H 282.143 4.15041 2.64578 0
M  V30 2768 N 283.795 -0.628877 1.44509 0
M  V30 2769 C 285.044 -1.38437 1.4669 0
M  V30 2770 C 285.357 -1.95322 0.104272 0
M  V30 2771 O 286.563 -2.715 0.00362163 0
M  V30 2772 C 285.019 -2.50659 2.5826 0
M  V30 2773 C 284.627 -2.00277 4.0074 0
M  V30 2774 C 286.371 -3.27844 2.69664 0
M  V30 2775 C 284.278 -3.09854 5.0373 0
M  V30 2776 H 283.208 -0.520245 0.545766 0
M  V30 2777 H 285.859 -0.676313 1.70582 0
M  V30 2778 H 284.241 -3.2405 2.27612 0
M  V30 2779 H 285.415 -1.33736 4.40966 0
M  V30 2780 H 283.73 -1.35901 3.93599 0
M  V30 2781 H 286.327 -4.09534 3.43781 0
M  V30 2782 H 286.67 -3.77471 1.75559 0
M  V30 2783 H 287.203 -2.61543 2.99733 0
M  V30 2784 H 283.942 -2.65168 5.99472 0
M  V30 2785 H 283.462 -3.7503 4.68095 0
M  V30 2786 H 285.141 -3.74592 5.27532 0
M  V30 2787 N 285.273 -1.31445 -0.869486 0
M  V30 2788 C 286.205 -1.14955 -1.98287 0
M  V30 2789 C 287.218 -0.0885037 -1.62559 0
M  V30 2790 O 288.407 -0.336044 -1.75308 0
M  V30 2791 C 285.507 -0.734255 -3.3085 0
M  V30 2792 C 284.68 -1.88042 -3.94917 0
M  V30 2793 C 283.739 -1.4511 -5.05796 0
M  V30 2794 O 282.765 -2.16082 -5.2659 0
M  V30 2795 N 283.967 -0.338763 -5.79511 0
M  V30 2796 H 286.732 -2.10856 -2.12979 0
M  V30 2797 H 284.293 -1.23786 -1.04349 0
M  V30 2798 H 286.285 -0.42975 -4.02412 0
M  V30 2799 H 284.855 0.133158 -3.12316 0
M  V30 2800 H 284.075 -2.35222 -3.1633 0
M  V30 2801 H 285.363 -2.6481 -4.34457 0
M  V30 2802 H 284.761 0.252274 -5.65137 0
M  V30 2803 H 283.318 -0.0937925 -6.51733 0
M  V30 2804 N 286.751 1.08385 -1.14413 0
M  V30 2805 C 287.681 2.17321 -0.854044 0
M  V30 2806 C 288.662 1.69024 0.191049 0
M  V30 2807 O 289.847 1.94141 0.0476779 0
M  V30 2808 C 286.977 3.45719 -0.330983 0
M  V30 2809 C 285.931 4.07409 -1.31155 0
M  V30 2810 C 285.257 5.30762 -0.64778 0
M  V30 2811 C 286.557 4.48665 -2.67388 0
M  V30 2812 H 288.251 2.41845 -1.76498 0
M  V30 2813 H 285.797 1.16233 -0.850051 0
M  V30 2814 H 287.75 4.21241 -0.115645 0
M  V30 2815 H 286.474 3.2075 0.615381 0
M  V30 2816 H 285.133 3.33919 -1.51306 0
M  V30 2817 H 284.781 5.02078 0.304398 0
M  V30 2818 H 284.481 5.72992 -1.30207 0
M  V30 2819 H 286.005 6.08998 -0.441972 0
M  V30 2820 H 287.419 5.15364 -2.51143 0
M  V30 2821 H 285.816 5.01814 -3.29093 0
M  V30 2822 H 286.886 3.60543 -3.24248 0
M  V30 2823 N 288.23 0.939286 1.26551 0
M  V30 2824 C 289.477 0.585847 1.9384 0
M  V30 2825 C 289.805 -0.874784 1.73718 0
M  V30 2826 O 289.06 -1.64092 1.06642 0
M  V30 2827 C 289.359 0.872106 3.46596 0
M  V30 2828 C 289.025 2.31632 3.86856 0
M  V30 2829 C 287.687 2.71111 3.97558 0
M  V30 2830 C 290.039 3.25494 4.07066 0
M  V30 2831 C 287.367 4.03553 4.25866 0
M  V30 2832 C 289.719 4.57531 4.36862 0
M  V30 2833 C 288.383 4.96828 4.45778 0
M  V30 2834 H 287.653 0.214377 0.709312 0
M  V30 2835 H 290.3 1.18544 1.50398 0
M  V30 2836 H 288.605 0.18996 3.91339 0
M  V30 2837 H 290.302 0.577442 3.96821 0
M  V30 2838 H 286.892 2.00008 3.79071 0
M  V30 2839 H 291.076 2.9619 3.98227 0
M  V30 2840 H 286.332 4.33665 4.30981 0
M  V30 2841 H 290.506 5.30254 4.51446 0
M  V30 2842 H 288.133 5.99482 4.67468 0
M  V30 2843 N 289.708 -1.40897 0.706093 0
M  V30 2844 C 290.641 -2.282 -0.00328781 0
M  V30 2845 C 291.619 -1.42816 -0.77732 0
M  V30 2846 O 292.803 -1.72237 -0.765944 0
M  V30 2847 C 289.93 -3.23226 -1.01205 0
M  V30 2848 C 288.976 -4.25222 -0.329955 0
M  V30 2849 S 289.809 -5.27269 0.935298 0
M  V30 2850 C 290.965 -6.25859 -0.0716061 0
M  V30 2851 H 291.198 -2.88016 0.737143 0
M  V30 2852 H 288.731 -1.46191 0.496756 0
M  V30 2853 H 290.689 -3.78503 -1.58888 0
M  V30 2854 H 289.35 -2.62485 -1.72513 0
M  V30 2855 H 288.543 -4.92023 -1.09221 0
M  V30 2856 H 288.145 -3.73595 0.174069 0
M  V30 2857 H 290.437 -6.71204 -0.921521 0
M  V30 2858 H 291.38 -7.0586 0.562765 0
M  V30 2859 H 291.788 -5.62852 -0.431088 0
M  V30 2860 N 291.186 -0.45159 -1.50991 0
M  V30 2861 C 292.432 0.110237 -2.025 0
M  V30 2862 C 292.765 1.41109 -1.33424 0
M  V30 2863 O 292.04 1.89135 -0.453659 0
M  V30 2864 C 292.323 0.314271 -3.58726 0
M  V30 2865 C 292.176 -1.00623 -4.38401 0
M  V30 2866 C 293.495 1.07767 -4.26702 0
M  V30 2867 H 290.614 0.0385897 -0.735989 0
M  V30 2868 H 293.256 -0.593374 -1.80497 0
M  V30 2869 H 291.406 0.913601 -3.77605 0
M  V30 2870 H 293.078 -1.64064 -4.31139 0
M  V30 2871 H 291.321 -1.6075 -4.02917 0
M  V30 2872 H 291.992 -0.817341 -5.45915 0
M  V30 2873 H 294.468 0.56986 -4.12179 0
M  V30 2874 H 293.344 1.18921 -5.35863 0
M  V30 2875 H 293.605 2.10939 -3.88532 0
M  V30 2876 N 292.664 1.56529 -0.183458 0
M  V30 2877 C 293.941 1.88959 0.50536 0
M  V30 2878 C 294.321 1.09523 1.80466 0
M  V30 2879 O 293.669 0.19278 2.27685 0
M  V30 2880 C 293.879 3.41162 0.73547 0
M  V30 2881 C 295.227 4.11155 1.06005 0
M  V30 2882 O 296.251 3.46548 0.823594 0
M  V30 2883 O 295.11 5.25318 1.50675 0
M  V30 2884 H 292.204 0.78441 0.261973 0
M  V30 2885 H 294.75 1.68231 -0.222802 0
M  V30 2886 H 293.522 3.90874 -0.182561 0
M  V30 2887 H 293.145 3.67543 1.51651 0
M  V30 2888 N 294.142 -0.090211 1.57342 0
M  V30 2889 C 295.09 -1.12792 2.03422 0
M  V30 2890 C 296.084 -1.41182 0.936166 0
M  V30 2891 O 297.29 -1.40805 1.12133 0
M  V30 2892 H 293.665 -0.380986 0.648347 0
M  V30 2893 H 295.636 -0.71299 2.89757 0
M  V30 2894 C 294.385 -2.43855 2.47851 0
M  V30 2895 H 293.708 -2.22855 3.31927 0
M  V30 2896 H 295.148 -3.14955 2.83865 0
M  V30 2897 C 293.607 -3.08503 1.3538 0
M  V30 2898 O 294.137 -3.95805 0.685641 0
M  V30 2899 N 292.343 -2.68831 1.10355 0
M  V30 2900 H 291.89 -1.97929 1.64869 0
M  V30 2901 H 291.848 -3.12412 0.353031 0
M  V30 2902 N 295.62 -1.53406 -0.361157 0
M  V30 2903 C 296.868 -1.69467 -1.10115 0
M  V30 2904 C 297.189 -0.451352 -1.89705 0
M  V30 2905 O 296.459 0.534636 -1.88463 0
M  V30 2906 H 295.039 -0.624749 -0.409508 0
M  V30 2907 H 297.701 -1.90609 -0.406699 0
M  V30 2908 H 296.797 -2.55774 -1.78847 0
M  V30 2909 N 297.098 0.621204 -1.44841 0
M  V30 2910 C 298.061 1.71459 -1.521 0
M  V30 2911 C 299.061 1.55696 -0.401933 0
M  V30 2912 O 300.251 1.61011 -0.664925 0
M  V30 2913 C 297.383 3.10624 -1.40447 0
M  V30 2914 H 298.576 1.66394 -2.49506 0
M  V30 2915 H 296.129 0.835745 -1.3208 0
M  V30 2916 H 296.864 3.21277 -0.441737 0
M  V30 2917 H 296.649 3.23473 -2.21602 0
M  V30 2918 H 298.139 3.90293 -1.4853 0
M  V30 2919 N 298.576 1.31904 0.862503 0
M  V30 2920 C 299.853 1.12644 1.59908 0
M  V30 2921 C 300.233 -0.316104 2.0872 0
M  V30 2922 O 299.581 -1.31145 1.87118 0
M  V30 2923 C 299.791 2.1472 2.7513 0
M  V30 2924 C 301.139 2.47637 3.44907 0
M  V30 2925 O 302.163 2.13205 2.85346 0
M  V30 2926 O 301.022 3.06632 4.52371 0
M  V30 2927 H 298.116 0.43416 0.703871 0
M  V30 2928 H 300.662 1.43408 0.907314 0
M  V30 2929 H 299.434 3.1172 2.3653 0
M  V30 2930 H 299.057 1.84905 3.51989 0
M  V30 2931 N 300.054 -1.07777 1.14986 0
M  V30 2932 C 301.331 -1.7699 0.832695 0
M  V30 2933 C 301.711 -2.001 -0.672561 0
M  V30 2934 O 301.059 -1.61598 -1.6155 0
M  V30 2935 C 301.269 -3.08139 1.63863 0
M  V30 2936 C 302.617 -3.8256 1.84208 0
M  V30 2937 O 303.641 -3.17939 1.60603 0
M  V30 2938 O 302.5 -4.98612 2.23714 0
M  V30 2939 H 299.594 -0.768389 0.305791 0
M  V30 2940 H 302.14 -1.14182 1.25541 0
M  V30 2941 H 300.912 -2.86909 2.6608 0
M  V30 2942 H 300.535 -3.78678 1.21197 0
M  V30 2943 N 301.532 -0.945985 -1.26051 0
M  V30 2944 C 302.778 -0.606539 -1.94146 0
M  V30 2945 C 303.133 0.84586 -1.72809 0
M  V30 2946 O 302.426 1.59781 -1.05738 0
M  V30 2947 C 302.62 -0.890475 -3.46129 0
M  V30 2948 C 302.449 -2.36892 -3.82246 0
M  V30 2949 C 301.219 -3.02494 -4.04753 0
M  V30 2950 C 303.417 -3.34772 -3.90425 0
M  V30 2951 N 301.399 -4.40302 -4.27794 0
M  V30 2952 C 302.77 -4.57855 -4.18054 0
M  V30 2953 C 304.825 -3.2973 -3.73072 0
M  V30 2954 C 303.528 -5.76522 -4.30134 0
M  V30 2955 C 305.554 -4.47727 -3.86386 0
M  V30 2956 C 304.916 -5.69593 -4.14419 0
M  V30 2957 H 301.015 -0.272407 -0.73302 0
M  V30 2958 H 303.599 -1.21638 -1.52027 0
M  V30 2959 H 301.77 -0.309638 -3.87164 0
M  V30 2960 H 303.502 -0.51181 -4.01451 0
M  V30 2961 H 300.257 -2.53095 -4.003 0
M  V30 2962 H 300.681 -5.11646 -4.43337 0
M  V30 2963 H 305.323 -2.36565 -3.50424 0
M  V30 2964 H 303.041 -6.70136 -4.51601 0
M  V30 2965 H 306.627 -4.45363 -3.74356 0
M  V30 2966 H 305.507 -6.59375 -4.24493 0
M  V30 2967 N 303.011 1.40521 -0.713556 0
M  V30 2968 C 304.427 1.54839 -0.386907 0
M  V30 2969 C 304.627 1.68532 1.1045 0
M  V30 2970 O 303.683 1.67377 1.89053 0
M  V30 2971 C 304.996 2.77792 -1.15118 0
M  V30 2972 C 306.544 2.91607 -1.13729 0
M  V30 2973 C 307.019 4.1747 -1.88368 0
M  V30 2974 N 308.51 4.24466 -1.85427 0
M  V30 2975 C 309.245 5.20755 -2.40004 0
M  V30 2976 N 308.741 6.22965 -3.03129 0
M  V30 2977 N 310.534 5.1282 -2.30158 0
M  V30 2978 H 302.685 1.29879 -1.68063 0
M  V30 2979 H 304.948 0.627896 -0.710247 0
M  V30 2980 H 304.654 2.73944 -2.20561 0
M  V30 2981 H 304.528 3.6984 -0.741477 0
M  V30 2982 H 306.915 2.94959 -0.0910608 0
M  V30 2983 H 306.996 2.00682 -1.5862 0
M  V30 2984 H 306.64 4.1488 -2.9298 0
M  V30 2985 H 306.57 5.074 -1.40898 0
M  V30 2986 H 309.061 3.51241 -1.3942 0
M  V30 2987 H 309.374 6.92859 -3.42295 0
M  V30 2988 H 307.719 6.23415 -3.07212 0
M  V30 2989 H 310.91 4.31899 -1.80501 0
M  V30 2990 H 311.083 5.87689 -2.72993 0
M  V30 2991 N 304.489 0.459591 1.5075 0
M  V30 2992 C 305.738 -0.100971 2.01447 0
M  V30 2993 C 306.051 -1.41816 1.34713 0
M  V30 2994 O 307.257 -2.06299 1.76502 0
M  V30 2995 C 305.713 -0.23047 3.59161 0
M  V30 2996 C 305.321 1.0776 4.34847 0
M  V30 2997 C 307.065 -0.743608 4.17936 0
M  V30 2998 C 304.972 0.91253 5.84317 0
M  V30 2999 H 303.902 -0.0415102 0.752856 0
M  V30 3000 H 306.553 0.592742 1.73663 0
M  V30 3001 H 304.935 -0.987703 3.83485 0
M  V30 3002 H 306.109 1.8449 4.22256 0
M  V30 3003 H 304.424 1.52097 3.87628 0
M  V30 3004 H 307.021 -0.883959 5.27343 0
M  V30 3005 H 307.364 -1.73196 3.78562 0
M  V30 3006 H 307.897 -0.04408 3.97776 0
M  V30 3007 H 304.636 1.87391 6.28144 0
M  V30 3008 H 304.156 0.185422 5.99513 0
M  V30 3009 H 305.835 0.574547 6.44444 0
M  V30 3010 N 305.967 -1.56429 0.191757 0
M  V30 3011 C 306.93 -2.17707 -0.716688 0
M  V30 3012 C 307.93 -1.13061 -1.14341 0
M  V30 3013 O 309.12 -1.38464 -1.05704 0
M  V30 3014 C 306.252 -2.77644 -1.97804 0
M  V30 3015 H 307.445 -2.99342 -0.1829 0
M  V30 3016 H 304.998 -1.56193 -0.0578566 0
M  V30 3017 H 305.733 -1.99799 -2.55443 0
M  V30 3018 H 305.518 -3.54246 -1.68083 0
M  V30 3019 H 307.008 -3.24708 -2.62592 0
M  V30 3020 N 307.445 0.0818655 -1.57387 0
M  V30 3021 C 308.378 1.12986 -1.98266 0
M  V30 3022 C 309.356 1.38123 -0.857954 0
M  V30 3023 O 310.54 1.51663 -1.1194 0
M  V30 3024 C 307.667 2.47632 -2.31076 0
M  V30 3025 C 306.713 2.38693 -3.53452 0
M  V30 3026 S 307.546 1.79071 -5.04672 0
M  V30 3027 C 308.702 3.15316 -5.40673 0
M  V30 3028 H 308.935 0.781435 -2.86846 0
M  V30 3029 H 306.468 0.290034 -1.51651 0
M  V30 3030 H 308.426 3.25089 -2.50654 0
M  V30 3031 H 307.087 2.79638 -1.43043 0
M  V30 3032 H 306.28 3.37964 -3.73893 0
M  V30 3033 H 305.882 1.69369 -3.33452 0
M  V30 3034 H 308.174 4.11613 -5.38127 0
M  V30 3035 H 309.117 2.99664 -6.41566 0
M  V30 3036 H 309.525 3.15457 -4.68132 0
M  V30 3037 N 308.923 1.53595 0.353017 0
M  V30 3038 C 310.151 1.74311 1.1146 0
M  V30 3039 C 310.566 0.477854 1.82653 0
M  V30 3040 O 309.923 -0.549977 1.74016 0
M  V30 3041 C 309.974 2.91694 2.13534 0
M  V30 3042 O 309.695 4.13325 1.45238 0
M  V30 3043 C 311.196 3.24384 3.02142 0
M  V30 3044 H 308.416 0.582669 0.332773 0
M  V30 3045 H 310.96 2.00386 0.408107 0
M  V30 3046 H 309.115 2.67977 2.79763 0
M  V30 3047 H 309.529 4.79148 2.13349 0
M  V30 3048 H 311.003 4.09893 3.69718 0
M  V30 3049 H 311.48 2.40282 3.67643 0
M  V30 3050 H 312.086 3.50073 2.41514 0
M  V30 3051 N 310.401 -0.613514 1.45168 0
M  V30 3052 C 311.631 -1.39743 1.52169 0
M  V30 3053 C 312.039 -1.88596 0.151086 0
M  V30 3054 O 311.382 -1.6251 -0.856521 0
M  V30 3055 C 311.444 -2.64035 2.43979 0
M  V30 3056 C 311.108 -2.36861 3.90827 0
M  V30 3057 C 312.105 -1.97591 4.80889 0
M  V30 3058 C 309.79 -2.49956 4.35692 0
M  V30 3059 C 311.784 -1.71768 6.1382 0
M  V30 3060 C 309.471 -2.23747 5.68665 0
M  V30 3061 C 310.469 -1.84714 6.57548 0
M  V30 3062 O 310.157 -1.58809 7.88058 0
M  V30 3063 H 309.889 -0.434382 0.517966 0
M  V30 3064 H 312.443 -0.75587 1.90986 0
M  V30 3065 H 310.673 -3.3089 2.00122 0
M  V30 3066 H 312.362 -3.26069 2.41731 0
M  V30 3067 H 313.128 -1.87015 4.47493 0
M  V30 3068 H 309.007 -2.79305 3.66756 0
M  V30 3069 H 312.551 -1.41227 6.83155 0
M  V30 3070 H 308.448 -2.33938 6.01617 0
M  V30 3071 H 309.216 -1.7291 8.00028 0
M  V30 3072 N 311.879 -1.3236 -0.855495 0
M  V30 3073 C 312.789 -1.23221 -1.99634 0
M  V30 3074 C 313.805 -0.145983 -1.73387 0
M  V30 3075 O 314.981 -0.366502 -1.98037 0
M  V30 3076 C 312.046 -0.954782 -3.33294 0
M  V30 3077 C 311.107 -2.12937 -3.72769 0
M  V30 3078 C 310.34 -1.86508 -5.00051 0
M  V30 3079 O 310.563 -0.807231 -5.64659 0
M  V30 3080 O 309.497 -2.72591 -5.36636 0
M  V30 3081 H 313.323 -2.19126 -2.1028 0
M  V30 3082 H 310.908 -1.12241 -0.986018 0
M  V30 3083 H 312.79 -0.816519 -4.13414 0
M  V30 3084 H 311.465 -0.0258854 -3.2369 0
M  V30 3085 H 310.372 -2.3231 -2.93228 0
M  V30 3086 H 311.705 -3.04102 -3.87018 0
M  V30 3087 N 313.357 1.07166 -1.15556 0
M  V30 3088 C 314.773 1.31899 -0.898603 0
M  V30 3089 C 314.973 1.96333 0.453383 0
M  V30 3090 O 314.029 2.22438 1.19489 0
M  V30 3091 C 315.342 2.20826 -2.04099 0
M  V30 3092 C 316.89 2.34269 -2.07574 0
M  V30 3093 C 317.365 3.26546 -3.21141 0
M  V30 3094 N 318.856 3.34127 -3.20801 0
M  V30 3095 C 319.591 4.05595 -4.05315 0
M  V30 3096 N 319.087 4.79661 -4.99897 0
M  V30 3097 N 320.88 4.01555 -3.93332 0
M  V30 3098 H 313.031 0.637302 -2.02613 0
M  V30 3099 H 315.294 0.343468 -0.883591 0
M  V30 3100 H 315 1.80744 -3.01703 0
M  V30 3101 H 314.874 3.21364 -1.97496 0
M  V30 3102 H 317.261 2.73603 -1.10568 0
M  V30 3103 H 317.342 1.33429 -2.18244 0
M  V30 3104 H 316.986 2.87931 -4.184 0
M  V30 3105 H 316.916 4.27345 -3.07708 0
M  V30 3106 H 319.407 2.81336 -2.52306 0
M  V30 3107 H 319.72 5.31694 -5.60822 0
M  V30 3108 H 318.065 4.78671 -5.03884 0
M  V30 3109 H 321.256 3.42806 -3.18751 0
M  V30 3110 H 321.429 4.56987 -4.5942 0
M  V30 3111 N 314.835 0.952656 1.25548 0
M  V30 3112 C 316.084 0.602053 1.92505 0
M  V30 3113 C 316.397 -0.864663 1.75451 0
M  V30 3114 O 317.603 -1.32514 2.36965 0
M  V30 3115 C 316.059 1.02607 3.44963 0
M  V30 3116 C 315.667 2.51519 3.70732 0
M  V30 3117 C 317.411 0.747905 4.1786 0
M  V30 3118 C 315.318 2.87732 5.16686 0
M  V30 3119 H 314.248 0.22146 0.720744 0
M  V30 3120 H 316.899 1.15684 1.42441 0
M  V30 3121 H 315.281 0.399712 3.93978 0
M  V30 3122 H 316.455 3.19157 3.32378 0
M  V30 3123 H 314.77 2.76786 3.11092 0
M  V30 3124 H 317.367 0.994647 5.25367 0
M  V30 3125 H 317.71 -0.315629 4.15102 0
M  V30 3126 H 318.243 1.33452 3.74747 0
M  V30 3127 H 314.982 3.93095 5.24554 0
M  V30 3128 H 314.502 2.24765 5.56094 0
M  V30 3129 H 316.181 2.76817 5.84792 0
M  V30 3130 N 316.313 -1.40141 0.720998 0
M  V30 3131 C 317.56 -2.00787 0.262842 0
M  V30 3132 C 317.888 -1.5718 -1.14563 0
M  V30 3133 O 317.143 -0.785391 -1.79249 0
M  V30 3134 C 317.442 -3.56165 0.296892 0
M  V30 3135 C 317.108 -4.19373 1.65641 0
M  V30 3136 C 315.77 -4.36352 2.02855 0
M  V30 3137 C 318.122 -4.54578 2.54968 0
M  V30 3138 C 315.45 -4.8582 3.28931 0
M  V30 3139 C 317.802 -5.05447 3.80402 0
M  V30 3140 C 316.466 -5.20635 4.17726 0
M  V30 3141 H 315.736 -0.734731 0.0961807 0
M  V30 3142 H 318.383 -1.67673 0.925093 0
M  V30 3143 H 316.688 -3.8922 -0.448932 0
M  V30 3144 H 318.385 -4.00929 -0.0755208 0
M  V30 3145 H 314.975 -4.06549 1.35704 0
M  V30 3146 H 319.159 -4.41091 2.27491 0
M  V30 3147 H 314.415 -4.95764 3.57811 0
M  V30 3148 H 318.589 -5.31663 4.49786 0
M  V30 3149 H 316.216 -5.58728 5.15487 0
M  V30 3150 N 317.792 -0.46758 -1.50504 0
M  V30 3151 C 319.039 0.0886219 -2.02306 0
M  V30 3152 C 319.367 1.40037 -1.34981 0
M  V30 3153 O 318.622 1.90136 -0.463318 0
M  V30 3154 C 318.921 0.323995 -3.55928 0
M  V30 3155 C 318.587 -0.905618 -4.41712 0
M  V30 3156 C 317.249 -1.24275 -4.64875 0
M  V30 3157 C 319.601 -1.72448 -4.91845 0
M  V30 3158 C 316.929 -2.39888 -5.35417 0
M  V30 3159 C 319.281 -2.87185 -5.63656 0
M  V30 3160 C 317.945 -3.21317 -5.85074 0
M  V30 3161 H 317.215 0.0324291 -0.74029 0
M  V30 3162 H 319.862 -0.620945 -1.81153 0
M  V30 3163 H 318.167 1.11577 -3.75577 0
M  V30 3164 H 319.864 0.76826 -3.93572 0
M  V30 3165 H 316.454 -0.632956 -4.239 0
M  V30 3166 H 320.638 -1.4772 -4.73806 0
M  V30 3167 H 315.894 -2.66611 -5.50208 0
M  V30 3168 H 320.068 -3.50985 -6.01484 0
M  V30 3169 H 317.695 -4.1101 -6.39511 0
M  V30 3170 N 319.27 1.56325 -0.20005 0
M  V30 3171 C 320.519 1.96895 0.437652 0
M  V30 3172 C 320.832 1.08999 1.62415 0
M  V30 3173 O 322.038 1.39372 2.32997 0
M  V30 3174 C 320.494 3.50198 0.830025 0
M  V30 3175 C 320.102 4.46765 -0.332461 0
M  V30 3176 C 321.846 3.99526 1.43453 0
M  V30 3177 C 319.753 5.91344 0.0811468 0
M  V30 3178 H 318.683 0.735209 0.167282 0
M  V30 3179 H 321.334 1.81148 -0.292853 0
M  V30 3180 H 319.716 3.61467 1.61734 0
M  V30 3181 H 320.89 4.47231 -1.11 0
M  V30 3182 H 319.205 4.07657 -0.848789 0
M  V30 3183 H 321.802 5.05025 1.75652 0
M  V30 3184 H 322.145 3.44122 2.34277 0
M  V30 3185 H 322.678 3.91393 0.71109 0
M  V30 3186 H 319.417 6.50685 -0.793033 0
M  V30 3187 H 318.937 5.94121 0.823445 0
M  V30 3188 H 320.616 6.44945 0.515252 0
M  V30 3189 N 320.748 -0.0735177 1.57428 0
M  V30 3190 C 321.988 -0.778363 1.89 0
M  V30 3191 C 322.352 -1.7483 0.793634 0
M  V30 3192 O 323.553 -2.49811 0.992367 0
M  V30 3193 C 321.824 -1.46929 3.25802 0
M  V30 3194 S 323.383 -2.20943 3.79117 0
M  V30 3195 H 320.201 -0.258874 0.662197 0
M  V30 3196 H 322.803 -0.0345338 1.95469 0
M  V30 3197 H 321.507 -0.749532 4.03497 0
M  V30 3198 H 321.038 -2.25258 3.22525 0
M  V30 3199 H 323.053 -3.47435 3.54265 0
M  V30 3200 N 322.226 -1.5378 -0.344866 0
M  V30 3201 C 323.156 -1.84662 -1.42906 0
M  V30 3202 C 324.137 -0.701648 -1.54955 0
M  V30 3203 O 325.322 -0.953438 -1.69184 0
M  V30 3204 C 322.452 -2.05503 -2.79974 0
M  V30 3205 C 321.406 -3.21318 -2.82734 0
M  V30 3206 C 320.732 -3.2749 -4.22675 0
M  V30 3207 C 322.032 -4.59456 -2.48389 0
M  V30 3208 H 323.726 -2.75461 -1.17311 0
M  V30 3209 H 321.272 -1.32542 -0.562896 0
M  V30 3210 H 323.225 -2.25691 -3.55867 0
M  V30 3211 H 321.949 -1.11434 -3.07002 0
M  V30 3212 H 320.608 -3.00984 -2.09294 0
M  V30 3213 H 320.256 -2.31019 -4.4681 0
M  V30 3214 H 319.956 -4.05316 -4.25433 0
M  V30 3215 H 321.48 -3.49887 -5.00412 0
M  V30 3216 H 322.894 -4.79667 -3.13995 0
M  V30 3217 H 321.291 -5.39675 -2.62432 0
M  V30 3218 H 322.361 -4.63155 -1.4358 0
M  V30 3219 N 323.704 0.605807 -1.45491 0
M  V30 3220 C 324.614 1.74466 -1.56839 0
M  V30 3221 C 325.63 1.68006 -0.452772 0
M  V30 3222 O 326.806 1.8833 -0.713708 0
M  V30 3223 C 323.871 3.10931 -1.53371 0
M  V30 3224 C 322.932 3.28832 -2.75986 0
M  V30 3225 C 322.165 4.58787 -2.72673 0
M  V30 3226 O 322.388 5.4122 -1.80102 0
M  V30 3227 O 321.322 4.79438 -3.63899 0
M  V30 3228 H 325.148 1.67843 -2.53106 0
M  V30 3229 H 322.733 0.770108 -1.28022 0
M  V30 3230 H 324.615 3.92233 -1.54051 0
M  V30 3231 H 323.29 3.18042 -0.602572 0
M  V30 3232 H 322.197 2.47112 -2.80867 0
M  V30 3233 H 323.53 3.26599 -3.68231 0
M  V30 3234 N 325.182 1.32811 0.848464 0
M  V30 3235 C 326.431 1.23075 1.59798 0
M  V30 3236 C 326.744 -0.204419 1.94529 0
M  V30 3237 O 327.95 -0.423701 2.68173 0
M  V30 3238 C 326.406 2.15594 2.88179 0
M  V30 3239 C 326.014 3.64228 2.60849 0
M  V30 3240 C 327.758 2.14709 3.66197 0
M  V30 3241 C 325.665 4.48689 3.85269 0
M  V30 3242 H 324.595 0.457091 0.599653 0
M  V30 3243 H 327.246 1.57813 0.936342 0
M  V30 3244 H 325.628 1.73778 3.55833 0
M  V30 3245 H 326.802 4.14424 2.01467 0
M  V30 3246 H 325.117 3.67306 1.96151 0
M  V30 3247 H 327.714 2.75046 4.58534 0
M  V30 3248 H 328.057 1.13966 4.00397 0
M  V30 3249 H 328.59 2.54837 3.05455 0
M  V30 3250 H 325.329 5.5027 3.56207 0
M  V30 3251 H 324.849 4.03241 4.44024 0
M  V30 3252 H 326.528 4.62006 4.52946 0
M  V30 3253 N 326.66 -1.06551 1.16123 0
M  V30 3254 C 327.59 -2.15935 0.88851 0
M  V30 3255 C 328.571 -1.69306 -0.164135 0
M  V30 3256 O 329.756 -1.94193 -0.0167857 0
M  V30 3257 C 326.886 -3.45149 0.385942 0
M  V30 3258 C 325.84 -4.05271 1.3762 0
M  V30 3259 C 325.166 -5.29664 0.732137 0
M  V30 3260 C 326.466 -4.44355 2.74493 0
M  V30 3261 H 328.16 -2.39006 1.80323 0
M  V30 3262 H 325.706 -1.14866 0.868435 0
M  V30 3263 H 327.659 -4.21004 0.182647 0
M  V30 3264 H 326.383 -3.21689 -0.564274 0
M  V30 3265 H 325.042 -3.3147 1.56599 0
M  V30 3266 H 324.69 -5.02499 -0.224483 0
M  V30 3267 H 324.39 -5.70848 1.39307 0
M  V30 3268 H 325.914 -6.08218 0.538802 0
M  V30 3269 H 327.328 -5.11303 2.59311 0
M  V30 3270 H 325.725 -4.96515 3.37035 0
M  V30 3271 H 326.795 -3.55339 3.29943 0
M  V30 3272 N 328.138 -0.959301 -1.25041 0
M  V30 3273 C 329.384 -0.617525 -1.9317 0
M  V30 3274 C 329.717 0.843981 -1.74902 0
M  V30 3275 O 328.992 1.60615 -1.09696 0
M  V30 3276 C 329.275 -0.982736 -3.46431 0
M  V30 3277 C 329.128 -2.50032 -3.73904 0
M  V30 3278 C 330.447 -0.511176 -4.37121 0
M  V30 3279 H 327.566 -0.22582 -0.701552 0
M  V30 3280 H 330.208 -1.19679 -1.4757 0
M  V30 3281 H 328.358 -0.489806 -3.854 0
M  V30 3282 H 330.03 -3.06737 -3.44544 0
M  V30 3283 H 328.273 -2.93598 -3.19348 0
M  V30 3284 H 328.944 -2.70635 -4.81103 0
M  V30 3285 H 331.42 -0.934075 -4.0548 0
M  V30 3286 H 330.296 -0.795361 -5.43107 0
M  V30 3287 H 330.557 0.588834 -4.38161 0
M  V30 3288 N 329.616 1.39756 -0.72842 0
M  V30 3289 C 330.856 2.025 -0.278078 0
M  V30 3290 C 331.22 1.5654 1.11173 0
M  V30 3291 O 332.421 2.11435 1.65978 0
M  V30 3292 C 330.692 3.55489 -0.369139 0
M  V30 3293 S 332.251 4.388 0.00232983 0
M  V30 3294 H 329.069 0.702534 -0.109391 0
M  V30 3295 H 331.671 1.70672 -0.95348 0
M  V30 3296 H 330.375 3.86429 -1.38204 0
M  V30 3297 H 329.906 3.92061 0.324308 0
M  V30 3298 H 331.921 4.80954 1.22055 0
M  V30 3299 N 331.094 0.475555 1.50254 0
M  V30 3300 C 332.057 -0.305016 2.27161 0
M  V30 3301 C 333.057 -0.916519 1.32123 0
M  V30 3302 O 334.247 -0.785003 1.5551 0
M  V30 3303 C 331.379 -1.43496 3.09227 0
M  V30 3304 H 332.572 0.369511 2.97615 0
M  V30 3305 H 330.125 0.229747 1.54602 0
M  V30 3306 H 330.86 -2.14441 2.43281 0
M  V30 3307 H 330.645 -1.00223 3.79075 0
M  V30 3308 H 332.135 -1.98548 3.67381 0
M  V30 3309 N 332.573 -1.56217 0.208337 0
M  V30 3310 C 333.822 -1.97124 -0.427204 0
M  V30 3311 C 334.135 -1.09859 -1.61835 0
M  V30 3312 O 335.341 -1.40606 -2.32255 0
M  V30 3313 C 333.797 -3.50633 -0.811442 0
M  V30 3314 C 333.405 -4.46582 0.35615 0
M  V30 3315 C 335.149 -4.00282 -1.41332 0
M  V30 3316 C 333.056 -5.91379 -0.0497852 0
M  V30 3317 H 331.986 -0.736086 -0.163381 0
M  V30 3318 H 334.637 -1.8099 0.302456 0
M  V30 3319 H 333.019 -3.62319 -1.59815 0
M  V30 3320 H 334.193 -4.46636 1.1337 0
M  V30 3321 H 332.508 -4.07202 0.870396 0
M  V30 3322 H 335.105 -5.0595 -1.72972 0
M  V30 3323 H 335.448 -3.45359 -2.32449 0
M  V30 3324 H 335.981 -3.91764 -0.690323 0
M  V30 3325 H 332.72 -6.50255 0.827529 0
M  V30 3326 H 332.24 -5.94549 -0.791926 0
M  V30 3327 H 333.919 -6.45209 -0.481042 0
M  V30 3328 N 334.051 0.0651679 -1.57465 0
M  V30 3329 C 335.001 1.0838 -2.00594 0
M  V30 3330 C 335.985 1.34106 -0.889071 0
M  V30 3331 O 337.177 1.34295 -1.15299 0
M  V30 3332 C 334.306 2.39565 -2.45894 0
M  V30 3333 C 333.392 2.17085 -3.64328 0
M  V30 3334 N 333.783 1.64553 -4.78285 0
M  V30 3335 C 332.081 2.4753 -3.71006 0
M  V30 3336 C 332.782 1.57042 -5.60101 0
M  V30 3337 N 331.758 2.03328 -5.04141 0
M  V30 3338 H 335.56 0.671062 -2.86136 0
M  V30 3339 H 333.074 0.27213 -1.60104 0
M  V30 3340 H 335.071 3.13308 -2.75034 0
M  V30 3341 H 333.731 2.81549 -1.61741 0
M  V30 3342 H 334.742 1.33323 -5.00445 0
M  V30 3343 H 331.419 2.92835 -2.9758 0
M  V30 3344 H 332.809 1.17223 -6.61595 0
M  V30 3345 N 335.529 1.53961 0.336706 0
M  V30 3346 C 336.94 1.62914 0.911925 0
M  V30 3347 C 337.291 0.514795 1.89326 0
M  V30 3348 O 336.416 -0.354395 2.13478 0
M  V30 3349 C 337.011 2.95304 1.66076 0
M  V30 3350 C 335.57 3.06496 2.18489 0
M  V30 3351 C 334.717 2.58403 1.00613 0
M  V30 3352 H 337.668 1.58285 0.114649 0
M  V30 3353 H 337.689 2.84727 2.5241 0
M  V30 3354 H 337.201 3.76387 0.946276 0
M  V30 3355 H 335.302 2.3006 2.93092 0
M  V30 3356 H 335.415 4.1208 2.44391 0
M  V30 3357 H 333.779 2.13977 1.38152 0
M  V30 3358 H 334.562 3.41932 0.306179 0
M  V30 3359 N 337.007 -0.598083 1.45811 0
M  V30 3360 C 338.256 -1.35295 1.49594 0
M  V30 3361 C 338.569 -1.95057 0.145679 0
M  V30 3362 O 339.775 -2.71431 0.0612099 0
M  V30 3363 C 338.231 -2.45124 2.63519 0
M  V30 3364 C 337.839 -1.91732 4.04899 0
M  V30 3365 C 339.583 -3.2205 2.76558 0
M  V30 3366 C 337.49 -2.991 5.1019 0
M  V30 3367 H 336.42 -0.508552 0.556679 0
M  V30 3368 H 339.071 -0.639977 1.71978 0
M  V30 3369 H 337.453 -3.19149 2.34435 0
M  V30 3370 H 338.627 -1.24352 4.43704 0
M  V30 3371 H 336.942 -1.27522 3.96393 0
M  V30 3372 H 339.539 -4.0215 3.52391 0
M  V30 3373 H 339.882 -3.73663 1.83526 0
M  V30 3374 H 340.415 -2.55127 3.05213 0
M  V30 3375 H 337.154 -2.52393 6.04961 0
M  V30 3376 H 336.674 -3.65017 4.75944 0
M  V30 3377 H 338.353 -3.63318 5.35359 0
M  V30 3378 N 338.485 -1.33259 -0.841409 0
M  V30 3379 C 339.896 -1.22066 -1.41269 0
M  V30 3380 C 340.247 0.161479 -1.95534 0
M  V30 3381 O 339.372 1.06094 -1.88608 0
M  V30 3382 C 339.967 -2.20996 -2.568 0
M  V30 3383 C 338.526 -2.13649 -3.09888 0
M  V30 3384 C 337.673 -2.08623 -1.82679 0
M  V30 3385 H 340.624 -1.44895 -0.647395 0
M  V30 3386 H 340.645 -1.81621 -3.34356 0
M  V30 3387 H 340.157 -3.2158 -2.17274 0
M  V30 3388 H 338.258 -1.16359 -3.53965 0
M  V30 3389 H 338.371 -3.04079 -3.70234 0
M  V30 3390 H 336.735 -1.54061 -2.02824 0
M  V30 3391 H 337.518 -3.1101 -1.45353 0
M  V30 3392 N 339.963 1.05934 -1.16686 0
M  V30 3393 C 341.211 1.78447 -0.948744 0
M  V30 3394 C 341.532 1.87813 0.524523 0
M  V30 3395 O 340.802 1.38945 1.38098 0
M  V30 3396 H 339.382 0.660971 -0.348033 0
M  V30 3397 H 342.044 1.27947 -1.47022 0
M  V30 3398 H 341.14 2.80394 -1.37061 0
M  V30 3399 N 341.441 0.965919 1.2453 0
M  V30 3400 C 342.389 0.486506 2.27455 0
M  V30 3401 C 343.383 -0.449041 1.6334 0
M  V30 3402 O 344.589 -0.324527 1.7705 0
M  V30 3403 H 340.964 0.138857 0.739069 0
M  V30 3404 H 342.935 1.3666 2.65267 0
M  V30 3405 C 341.684 -0.209481 3.47068 0
M  V30 3406 H 341.007 0.50129 3.96645 0
M  V30 3407 H 342.447 -0.508775 4.20936 0
M  V30 3408 C 340.906 -1.43586 3.0477 0
M  V30 3409 O 341.436 -2.53299 3.11773 0
M  V30 3410 N 339.642 -1.30126 2.59838 0
M  V30 3411 H 339.189 -0.408583 2.54339 0
M  V30 3412 H 339.147 -2.12294 2.31902 0
M  V30 3413 N 342.919 -1.39368 0.735821 0
M  V30 3414 C 344.149 -2.04498 0.293967 0
M  V30 3415 C 344.557 -1.55593 -1.07645 0
M  V30 3416 O 343.9 -0.716324 -1.69158 0
M  V30 3417 C 343.962 -3.58836 0.218342 0
M  V30 3418 C 343.626 -4.30721 1.52736 0
M  V30 3419 C 344.623 -4.57305 2.47322 0
M  V30 3420 C 342.308 -4.69251 1.79189 0
M  V30 3421 C 344.302 -5.21429 3.66593 0
M  V30 3422 C 341.989 -5.33104 2.98737 0
M  V30 3423 C 342.987 -5.59125 3.9226 0
M  V30 3424 O 342.675 -6.21653 5.09708 0
M  V30 3425 H 342.407 -0.664118 0.126189 0
M  V30 3426 H 344.961 -1.79385 1.00051 0
M  V30 3427 H 343.191 -3.8285 -0.544314 0
M  V30 3428 H 344.88 -4.05447 -0.191626 0
M  V30 3429 H 345.646 -4.27983 2.28156 0
M  V30 3430 H 341.525 -4.48354 1.07239 0
M  V30 3431 H 345.069 -5.41656 4.39607 0
M  V30 3432 H 340.966 -5.61846 3.17803 0
M  V30 3433 H 341.734 -6.40146 5.10054 0
M  V30 3434 N 344.397 -0.483516 -1.5 0
M  V30 3435 C 345.625 0.0644831 -2.06799 0
M  V30 3436 C 346.04 1.32399 -1.34596 0
M  V30 3437 O 345.397 1.77626 -0.418946 0
M  V30 3438 C 345.448 0.339927 -3.59898 0
M  V30 3439 O 345.169 -0.869635 -4.29382 0
M  V30 3440 C 346.67 0.933515 -4.33359 0
M  V30 3441 H 343.89 -0.0126333 -0.670881 0
M  V30 3442 H 346.434 -0.675864 -1.93009 0
M  V30 3443 H 344.589 1.03022 -3.7345 0
M  V30 3444 H 345.003 -0.62179 -5.20801 0
M  V30 3445 H 346.477 1.07593 -5.41413 0
M  V30 3446 H 346.954 1.92685 -3.94676 0
M  V30 3447 H 347.56 0.281221 -4.24369 0
M  V30 3448 N 345.875 1.56104 -0.216619 0
M  V30 3449 C 347.122 1.98172 0.416416 0
M  V30 3450 C 347.45 1.10413 1.60122 0
M  V30 3451 O 346.705 0.147967 1.9514 0
M  V30 3452 C 347.004 3.45923 0.898464 0
M  V30 3453 C 346.67 4.50559 -0.175288 0
M  V30 3454 C 345.332 4.78897 -0.470271 0
M  V30 3455 C 347.684 5.1334 -0.901728 0
M  V30 3456 C 345.012 5.67299 -1.4963 0
M  V30 3457 C 347.364 6.02853 -1.91705 0
M  V30 3458 C 346.028 6.29537 -2.21901 0
M  V30 3459 H 345.298 0.725164 0.152377 0
M  V30 3460 H 347.945 1.88839 -0.318103 0
M  V30 3461 H 346.25 3.52434 1.71165 0
M  V30 3462 H 347.947 3.75841 1.39803 0
M  V30 3463 H 344.537 4.28551 0.0647806 0
M  V30 3464 H 348.721 4.91521 -0.687072 0
M  V30 3465 H 343.977 5.86239 -1.73592 0
M  V30 3466 H 348.151 6.50552 -2.48505 0
M  V30 3467 H 345.778 6.97835 -3.01548 0
M  V30 3468 N 347.353 -0.0568162 1.57498 0
M  V30 3469 C 348.581 -0.765626 1.92213 0
M  V30 3470 C 348.996 -1.70353 0.813961 0
M  V30 3471 O 348.353 -1.81268 -0.211701 0
M  V30 3472 C 348.404 -1.5465 3.2675 0
M  V30 3473 O 348.125 -0.646278 4.33307 0
M  V30 3474 C 349.626 -2.35497 3.75574 0
M  V30 3475 H 346.846 -0.216835 0.634999 0
M  V30 3476 H 349.39 -0.0226146 2.04487 0
M  V30 3477 H 347.545 -2.24165 3.15957 0
M  V30 3478 H 347.959 -1.19093 5.108 0
M  V30 3479 H 349.433 -2.85722 4.72299 0
M  V30 3480 H 349.91 -3.15692 3.05344 0
M  V30 3481 H 350.516 -1.7111 3.8936 0
M  V30 3482 N 348.832 -1.54138 -0.328536 0
M  V30 3483 C 350.078 -1.73297 -1.06488 0
M  V30 3484 C 350.433 -0.497958 -1.85844 0
M  V30 3485 O 349.726 0.509591 -1.84699 0
M  V30 3486 C 349.92 -2.9457 -2.02393 0
M  V30 3487 C 349.749 -4.29747 -1.32467 0
M  V30 3488 C 348.519 -4.93987 -1.06324 0
M  V30 3489 C 350.717 -5.08903 -0.743137 0
M  V30 3490 N 348.699 -6.13005 -0.331359 0
M  V30 3491 C 350.07 -6.19836 -0.142602 0
M  V30 3492 C 352.125 -4.93699 -0.64546 0
M  V30 3493 C 350.828 -7.17224 0.546125 0
M  V30 3494 C 352.854 -5.91393 0.0295558 0
M  V30 3495 C 352.216 -7.01674 0.619056 0
M  V30 3496 H 348.315 -0.687017 -0.373539 0
M  V30 3497 H 350.899 -1.91589 -0.346659 0
M  V30 3498 H 349.07 -2.77752 -2.71493 0
M  V30 3499 H 350.802 -3.0238 -2.68977 0
M  V30 3500 H 347.557 -4.53824 -1.35428 0
M  V30 3501 H 347.981 -6.76997 0.0202939 0
M  V30 3502 H 352.623 -4.08589 -1.08695 0
M  V30 3503 H 350.341 -8.01896 0.999459 0
M  V30 3504 H 353.927 -5.81706 0.104705 0
M  V30 3505 H 352.807 -7.75971 1.13309 0
M  V30 3506 N 350.31 0.590341 -1.46126 0
M  V30 3507 C 351.538 1.37504 -1.54597 0
M  V30 3508 C 351.953 1.87897 -0.184447 0
M  V30 3509 O 351.31 1.63192 0.816984 0
M  V30 3510 C 351.361 2.56779 -2.54454 0
M  V30 3511 O 351.082 2.08476 -3.85317 0
M  V30 3512 C 352.583 3.49427 -2.72792 0
M  V30 3513 H 349.803 0.420325 -0.523037 0
M  V30 3514 H 352.347 0.718383 -1.91467 0
M  V30 3515 H 350.502 3.1845 -2.20609 0
M  V30 3516 H 350.916 2.86097 -4.396 0
M  V30 3517 H 352.39 4.29619 -3.466 0
M  V30 3518 H 352.867 4.00876 -1.79429 0
M  V30 3519 H 353.473 2.93598 -3.07702 0
M  V30 3520 N 351.788 1.33704 0.83433 0
M  V30 3521 C 352.751 1.24244 1.92603 0
M  V30 3522 C 353.751 0.160383 1.59998 0
M  V30 3523 O 354.941 0.412228 1.69252 0
M  V30 3524 C 352.073 0.91555 3.28376 0
M  V30 3525 H 353.266 2.21287 2.02416 0
M  V30 3526 H 350.819 1.17827 1.02696 0
M  V30 3527 H 351.554 -0.0521886 3.24258 0
M  V30 3528 H 351.339 1.69811 3.53422 0
M  V30 3529 H 352.829 0.874231 4.08347 0
M  V30 3530 N 353.266 -1.05314 1.17247 0
M  V30 3531 C 354.682 -1.30452 0.919473 0
M  V30 3532 C 354.882 -1.9703 -0.42209 0
M  V30 3533 O 353.938 -2.24311 -1.15935 0
M  V30 3534 C 355.251 -2.17551 2.07586 0
M  V30 3535 C 356.799 -2.30937 2.11275 0
M  V30 3536 C 357.274 -3.21396 3.26296 0
M  V30 3537 N 358.765 -3.28981 3.26076 0
M  V30 3538 C 359.5 -3.99095 4.11716 0
M  V30 3539 N 358.996 -4.71648 5.07465 0
M  V30 3540 N 360.789 -3.95247 3.9967 0
M  V30 3541 H 352.94 -0.604988 2.03602 0
M  V30 3542 H 355.203 -0.329368 0.888944 0
M  V30 3543 H 354.909 -1.75921 3.0454 0
M  V30 3544 H 354.783 -3.18182 2.02584 0
M  V30 3545 H 357.17 -2.71809 1.14907 0
M  V30 3546 H 357.251 -1.2994 2.20339 0
M  V30 3547 H 356.895 -2.81238 4.22927 0
M  V30 3548 H 356.825 -4.22395 3.14467 0
M  V30 3549 H 359.316 -2.77286 2.5675 0
M  V30 3550 H 359.629 -5.22705 5.6921 0
M  V30 3551 H 357.974 -4.70594 5.11435 0
M  V30 3552 H 361.165 -3.37691 3.24164 0
M  V30 3553 H 361.338 -4.4962 4.66632 0
M  V30 3554 N 354.744 -0.972509 -1.24016 0
M  V30 3555 C 355.674 -0.525548 -2.27509 0
M  V30 3556 C 356.655 0.437262 -1.64384 0
M  V30 3557 O 357.84 0.332343 -1.91335 0
M  V30 3558 C 354.97 0.180448 -3.46831 0
M  V30 3559 C 353.924 -0.698859 -4.22256 0
M  V30 3560 C 353.25 0.138903 -5.3452 0
M  V30 3561 C 354.55 -1.98582 -4.83076 0
M  V30 3562 H 356.244 -1.39058 -2.65148 0
M  V30 3563 H 353.79 -0.67009 -1.27459 0
M  V30 3564 H 355.743 0.504387 -4.18371 0
M  V30 3565 H 354.467 1.07987 -3.08231 0
M  V30 3566 H 353.126 -1.00614 -3.52523 0
M  V30 3567 H 352.774 1.03862 -4.9216 0
M  V30 3568 H 352.474 -0.446259 -5.85903 0
M  V30 3569 H 353.998 0.457404 -6.08884 0
M  V30 3570 H 355.412 -1.72715 -5.46665 0
M  V30 3571 H 353.809 -2.5181 -5.44713 0
M  V30 3572 H 354.879 -2.67769 -4.04262 0
M  V30 3573 N 356.222 1.38976 -0.743202 0
M  V30 3574 C 357.185 2.28901 -0.117014 0
M  V30 3575 C 358.185 1.46698 0.658503 0
M  V30 3576 O 359.375 1.67274 0.486305 0
M  V30 3577 C 356.507 3.30309 0.84315 0
M  V30 3578 H 357.7 2.8578 -0.909373 0
M  V30 3579 H 355.253 1.47761 -0.509547 0
M  V30 3580 H 355.988 2.785 1.66157 0
M  V30 3581 H 355.773 3.91029 0.289594 0
M  V30 3582 H 357.263 3.97577 1.2776 0
M  V30 3583 N 357.7 0.491464 1.49741 0
M  V30 3584 C 358.947 -0.0564256 2.02421 0
M  V30 3585 C 359.275 -1.37872 1.37192 0
M  V30 3586 O 358.53 -1.89375 0.493508 0
M  V30 3587 C 358.829 -0.267329 3.56399 0
M  V30 3588 C 358.495 0.975775 4.40215 0
M  V30 3589 C 357.157 1.31655 4.62839 0
M  V30 3590 C 359.509 1.80251 4.89039 0
M  V30 3591 C 356.837 2.48375 5.31532 0
M  V30 3592 C 359.189 2.96116 5.59015 0
M  V30 3593 C 357.853 3.30585 5.79888 0
M  V30 3594 H 357.123 -0.0206476 0.740712 0
M  V30 3595 H 359.77 0.649686 1.80143 0
M  V30 3596 H 358.075 -1.05588 3.77304 0
M  V30 3597 H 359.772 -0.705549 3.94744 0
M  V30 3598 H 356.362 0.700315 4.2284 0
M  V30 3599 H 360.546 1.55239 4.71396 0
M  V30 3600 H 355.802 2.7533 5.45897 0
M  V30 3601 H 359.976 3.60509 5.95824 0
M  V30 3602 H 357.603 4.21132 6.32892 0
M  V30 3603 N 359.178 -1.55987 0.224894 0
M  V30 3604 C 360.403 -2.03232 -0.41369 0
M  V30 3605 C 360.828 -1.10359 -1.52323 0
M  V30 3606 O 360.186 -0.092395 -1.81064 0
M  V30 3607 C 360.234 -3.48682 -0.919405 0
M  V30 3608 O 359.338 -3.58947 -2.03054 0
M  V30 3609 H 358.679 -0.657428 -0.0931903 0
M  V30 3610 H 361.209 -2.01679 0.34451 0
M  V30 3611 H 361.219 -3.8907 -1.22835 0
M  V30 3612 H 359.894 -4.15761 -0.107339 0
M  V30 3613 H 358.471 -3.30448 -1.72796 0
M  V30 3614 N 360.656 0.0484629 -1.57525 0
M  V30 3615 C 361.886 0.754326 -1.92337 0
M  V30 3616 C 362.294 1.70443 -0.82132 0
M  V30 3617 O 361.637 1.82466 0.21254 0
M  V30 3618 C 361.699 1.58231 -3.22805 0
M  V30 3619 C 361.363 0.799074 -4.4996 0
M  V30 3620 C 362.36 0.1079 -5.19788 0
M  V30 3621 C 360.045 0.759345 -4.96527 0
M  V30 3622 C 362.039 -0.612516 -6.3445 0
M  V30 3623 C 359.726 0.0351713 -6.1109 0
M  V30 3624 C 360.724 -0.649537 -6.79904 0
M  V30 3625 O 360.412 -1.36199 -7.92278 0
M  V30 3626 H 360.144 0.218257 -0.639797 0
M  V30 3627 H 362.698 0.0159295 -2.05394 0
M  V30 3628 H 360.928 2.36406 -3.06021 0
M  V30 3629 H 362.617 2.16898 -3.43089 0
M  V30 3630 H 363.383 0.129748 -4.84826 0
M  V30 3631 H 359.262 1.28177 -4.42822 0
M  V30 3632 H 362.806 -1.14751 -6.88097 0
M  V30 3633 H 358.703 0.0113314 -6.45499 0
M  V30 3634 H 359.471 -1.27366 -8.0853 0
M  V30 3635 N 362.134 1.5431 0.320358 0
M  V30 3636 C 363.097 1.83195 1.3774 0
M  V30 3637 C 364.097 0.703906 1.44575 0
M  V30 3638 O 365.287 0.972214 1.44546 0
M  V30 3639 C 362.419 1.99487 2.76438 0
M  V30 3640 H 363.612 2.77642 1.1338 0
M  V30 3641 H 361.165 1.46076 0.556012 0
M  V30 3642 H 361.9 1.07262 3.06048 0
M  V30 3643 H 361.685 2.81575 2.7287 0
M  V30 3644 H 363.175 2.23271 3.52902 0
M  V30 3645 N 363.613 -0.582584 1.46437 0
M  V30 3646 C 365.024 -1.1647 1.45916 0
M  V30 3647 C 365.375 -1.95177 0.200077 0
M  V30 3648 O 364.5 -2.04874 -0.696819 0
M  V30 3649 C 365.095 -2.11885 2.64367 0
M  V30 3650 C 363.654 -2.65421 2.66887 0
M  V30 3651 C 362.801 -1.41294 2.38603 0
M  V30 3652 H 365.752 -0.370514 1.54314 0
M  V30 3653 H 365.773 -2.9535 2.39892 0
M  V30 3654 H 365.285 -1.54573 3.5599 0
M  V30 3655 H 363.386 -3.26602 1.79338 0
M  V30 3656 H 363.499 -3.08147 3.66854 0
M  V30 3657 H 361.863 -1.71109 1.88663 0
M  V30 3658 H 362.646 -0.858125 3.32402 0
M  V30 3659 N 365.091 -1.34144 -0.827227 0
M  V30 3660 C 366.316 -1.29476 -1.62021 0
M  V30 3661 C 366.741 0.129292 -1.87655 0
M  V30 3662 O 366.099 1.08967 -1.449 0
M  V30 3663 C 366.147 -2.08702 -2.94068 0
M  V30 3664 O 365.251 -1.45359 -3.85933 0
M  V30 3665 H 364.592 -0.444881 -0.492927 0
M  V30 3666 H 367.122 -1.76882 -1.02829 0
M  V30 3667 H 367.132 -2.19898 -3.43669 0
M  V30 3668 H 365.807 -3.12241 -2.74734 0
M  V30 3669 H 364.384 -1.42879 -3.44442 0
M  V30 3670 N 366.569 1.04691 -1.17803 0
M  V30 3671 C 367.797 1.81446 -0.99423 0
M  V30 3672 C 368.212 1.83174 0.457459 0
M  V30 3673 O 367.569 1.26265 1.31771 0
M  V30 3674 C 367.62 3.27334 -1.5341 0
M  V30 3675 O 367.341 3.25798 -2.92895 0
M  V30 3676 C 368.842 4.20759 -1.39559 0
M  V30 3677 H 366.062 0.571599 -0.351447 0
M  V30 3678 H 368.606 1.31982 -1.56208 0
M  V30 3679 H 366.761 3.74052 -1.00815 0
M  V30 3680 H 367.175 4.17144 -3.17949 0
M  V30 3681 H 368.649 5.21084 -1.82141 0
M  V30 3682 H 369.126 4.37856 -0.343394 0
M  V30 3683 H 369.732 3.79901 -1.91195 0
M  V30 3684 N 368.047 0.979072 1.23499 0
M  V30 3685 C 369.275 0.665202 1.95915 0
M  V30 3686 C 369.69 -0.767571 1.72493 0
M  V30 3687 O 369.047 -1.51635 1.01554 0
M  V30 3688 C 369.098 0.944438 3.48945 0
M  V30 3689 O 368.819 2.3209 3.71572 0
M  V30 3690 C 370.32 0.646336 4.38563 0
M  V30 3691 H 367.54 0.247218 0.623798 0
M  V30 3692 H 370.084 1.31009 1.57025 0
M  V30 3693 H 368.239 0.345575 3.85856 0
M  V30 3694 H 368.653 2.40957 4.65876 0
M  V30 3695 H 370.127 0.892091 5.44744 0
M  V30 3696 H 370.604 -0.419575 4.37191 0
M  V30 3697 H 371.21 1.22562 4.07258 0
M  V30 3698 N 369.525 -1.3858 0.750561 0
M  V30 3699 C 370.753 -2.04471 0.316098 0
M  V30 3700 C 371.168 -1.56606 -1.05452 0
M  V30 3701 O 370.525 -0.737784 -1.66922 0
M  V30 3702 C 370.576 -3.60025 0.326275 0
M  V30 3703 O 370.297 -4.06133 1.6428 0
M  V30 3704 C 371.798 -4.43131 -0.122429 0
M  V30 3705 H 369.018 -0.65717 0.135528 0
M  V30 3706 H 371.562 -1.77329 1.01857 0
M  V30 3707 H 369.717 -3.86014 -0.327431 0
M  V30 3708 H 370.131 -5.00547 1.56693 0
M  V30 3709 H 371.605 -5.51963 -0.0641473 0
M  V30 3710 H 372.082 -4.23333 -1.16988 0
M  V30 3711 H 372.688 -4.22323 0.50229 0
M  V30 3712 N 371.003 -0.499398 -1.49478 0
M  V30 3713 C 371.966 0.268838 -2.27618 0
M  V30 3714 C 372.966 0.895383 -1.33565 0
M  V30 3715 O 374.156 0.760164 -1.56739 0
M  V30 3716 C 371.288 1.38559 -3.11471 0
M  V30 3717 H 372.481 -0.416812 -2.96989 0
M  V30 3718 H 370.034 -0.254313 -1.54217 0
M  V30 3719 H 370.769 2.10544 -2.46661 0
M  V30 3720 H 370.554 0.941797 -3.80621 0
M  V30 3721 H 372.044 1.92678 -3.70493 0
M  V30 3722 N 372.481 1.55866 -0.233164 0
M  V30 3723 C 373.758 1.90471 0.444988 0
M  V30 3724 C 374.138 1.15209 1.7689 0
M  V30 3725 O 373.486 0.265119 2.26957 0
M  V30 3726 C 373.696 3.4333 0.626559 0
M  V30 3727 C 375.044 4.14319 0.92871 0
M  V30 3728 O 376.068 3.48993 0.712926 0
M  V30 3729 O 374.927 5.29846 1.33887 0
M  V30 3730 H 372.021 0.792347 0.236885 0
M  V30 3731 H 374.567 1.67437 -0.276211 0
M  V30 3732 H 373.339 3.90095 -0.306822 0
M  V30 3733 H 372.962 3.72181 1.39881 0
M  V30 3734 N 373.959 -0.0401083 1.57549 0
M  V30 3735 C 375.205 -0.734211 1.89043 0
M  V30 3736 C 375.538 -1.75591 0.829535 0
M  V30 3737 O 374.813 -1.93868 -0.156706 0
M  V30 3738 C 375.096 -1.41374 3.31188 0
M  V30 3739 C 374.949 -0.406299 4.47961 0
M  V30 3740 C 376.268 -2.35061 3.72068 0
M  V30 3741 H 373.387 -0.265447 0.687537 0
M  V30 3742 H 376.029 0.00294087 1.9 0
M  V30 3743 H 374.179 -2.04206 3.30503 0
M  V30 3744 H 375.851 0.219255 4.60779 0
M  V30 3745 H 374.094 0.275485 4.32924 0
M  V30 3746 H 374.765 -0.920022 5.44279 0
M  V30 3747 H 377.241 -1.82282 3.74049 0
M  V30 3748 H 376.117 -2.79593 4.72355 0
M  V30 3749 H 376.378 -3.21258 3.0372 0
M  V30 3750 N 375.437 -1.54477 -0.31217 0
M  V30 3751 C 376.714 -1.63891 -1.06767 0
M  V30 3752 C 377.094 -0.480028 -2.0557 0
M  V30 3753 O 376.442 0.524487 -2.22399 0
M  V30 3754 C 376.652 -3.01402 -1.75948 0
M  V30 3755 C 378 -3.57838 -2.28554 0
M  V30 3756 O 379.024 -3.03782 -1.85998 0
M  V30 3757 O 377.883 -4.52462 -3.06497 0
M  V30 3758 H 374.977 -0.664125 -0.492816 0
M  V30 3759 H 377.523 -1.66823 -0.311149 0
M  V30 3760 H 376.295 -3.77187 -1.04144 0
M  V30 3761 H 375.918 -3.02199 -2.58383 0
M  V30 3762 N 376.915 0.57481 -1.46744 0
M  V30 3763 C 378.164 1.32898 -1.51727 0
M  V30 3764 C 378.477 1.948 -0.176692 0
M  V30 3765 O 379.683 2.71299 -0.104385 0
M  V30 3766 C 378.139 2.40901 -2.67385 0
M  V30 3767 C 377.747 1.85266 -4.07898 0
M  V30 3768 C 379.491 3.17609 -2.81646 0
M  V30 3769 C 377.398 2.90945 -5.14883 0
M  V30 3770 H 376.328 0.499631 -0.564699 0
M  V30 3771 H 378.979 0.612536 -1.72975 0
M  V30 3772 H 377.361 3.15379 -2.39483 0
M  V30 3773 H 378.535 1.17278 -4.45626 0
M  V30 3774 H 376.85 1.21199 -3.98371 0
M  V30 3775 H 379.447 3.96493 -3.58744 0
M  V30 3776 H 379.79 3.70696 -1.89448 0
M  V30 3777 H 380.323 2.50239 -3.09233 0
M  V30 3778 H 377.062 2.42736 -6.089 0
M  V30 3779 H 376.582 3.57398 -4.81691 0
M  V30 3780 H 378.261 3.54755 -5.41071 0
M  V30 3781 N 378.394 1.34581 0.820102 0
M  V30 3782 C 379.643 1.26437 1.57151 0
M  V30 3783 C 379.956 -0.163111 1.94919 0
M  V30 3784 O 381.162 -0.366722 2.69012 0
M  V30 3785 C 379.618 2.21658 2.83541 0
M  V30 3786 C 379.226 3.69679 2.53065 0
M  V30 3787 C 380.97 2.22428 3.61561 0
M  V30 3788 C 378.877 4.56761 3.75664 0
M  V30 3789 H 377.807 0.469707 0.589823 0
M  V30 3790 H 380.458 1.59763 0.902656 0
M  V30 3791 H 378.84 1.81287 3.52067 0
M  V30 3792 H 380.014 4.18605 1.92631 0
M  V30 3793 H 378.329 3.71384 1.88316 0
M  V30 3794 H 380.926 2.8471 4.52597 0
M  V30 3795 H 381.269 1.22434 3.97889 0
M  V30 3796 H 381.802 2.61259 2.99981 0
M  V30 3797 H 378.541 5.57702 3.44454 0
M  V30 3798 H 378.061 4.12568 4.35371 0
M  V30 3799 H 379.74 4.71509 4.43044 0
M  V30 3800 N 379.872 -1.04064 1.18357 0
M  V30 3801 C 380.802 -2.14001 0.934113 0
M  V30 3802 C 381.783 -1.69616 -0.128186 0
M  V30 3803 O 382.968 -1.94185 0.0244093 0
M  V30 3804 C 380.098 -3.44253 0.459066 0
M  V30 3805 C 379.052 -4.02261 1.46185 0
M  V30 3806 C 378.378 -5.27992 0.844322 0
M  V30 3807 C 379.678 -4.38432 2.83856 0
M  V30 3808 H 381.372 -2.35127 1.85352 0
M  V30 3809 H 378.918 -1.12998 0.892604 0
M  V30 3810 H 380.871 -4.20522 0.271907 0
M  V30 3811 H 379.595 -3.22813 -0.495912 0
M  V30 3812 H 378.254 -3.28074 1.63595 0
M  V30 3813 H 377.902 -5.02862 -0.117845 0
M  V30 3814 H 377.602 -5.67765 1.51384 0
M  V30 3815 H 379.126 -6.06938 0.667693 0
M  V30 3816 H 380.54 -5.05688 2.70098 0
M  V30 3817 H 378.937 -4.89254 3.47491 0
M  V30 3818 H 380.007 -3.4826 3.37406 0
M  V30 3819 N 381.35 -0.985608 -1.22978 0
M  V30 3820 C 382.575 -0.675254 -1.961 0
M  V30 3821 C 383 0.752154 -1.72407 0
M  V30 3822 O 382.358 1.5131 -0.998751 0
M  V30 3823 C 382.406 -0.977899 -3.47087 0
M  V30 3824 O 381.51 -0.072685 -4.12336 0
M  V30 3825 H 380.851 -0.253443 -0.613728 0
M  V30 3826 H 383.381 -1.32061 -1.56272 0
M  V30 3827 H 383.391 -0.916739 -3.97567 0
M  V30 3828 H 382.066 -2.01807 -3.63657 0
M  V30 3829 H 380.643 -0.188703 -3.72422 0
M  V30 3830 N 382.828 1.3818 -0.7579 0
M  V30 3831 C 384.077 1.99261 -0.312744 0
M  V30 3832 C 384.39 1.60846 1.11301 0
M  V30 3833 O 385.596 2.14929 1.65885 0
M  V30 3834 C 384.052 3.56294 -0.50821 0
M  V30 3835 C 383.66 4.03657 -1.94333 0
M  V30 3836 C 385.404 4.24313 -0.125982 0
M  V30 3837 C 383.311 5.53347 -2.08712 0
M  V30 3838 H 382.241 0.745456 -0.113185 0
M  V30 3839 H 384.892 1.57889 -0.935056 0
M  V30 3840 H 383.274 3.95575 0.183353 0
M  V30 3841 H 384.448 3.75655 -2.66871 0
M  V30 3842 H 382.763 3.48376 -2.28086 0
M  V30 3843 H 385.36 5.34279 -0.212125 0
M  V30 3844 H 385.703 4.05962 0.921964 0
M  V30 3845 H 386.236 3.90285 -0.769563 0
M  V30 3846 H 382.975 5.76607 -3.11777 0
M  V30 3847 H 382.495 5.83078 -1.4064 0
M  V30 3848 H 384.174 6.19111 -1.87912 0
M  V30 3849 N 384.306 0.507319 1.49211 0
M  V30 3850 C 385.717 0.0611118 1.866 0
M  V30 3851 C 386.068 -1.35488 1.41907 0
M  V30 3852 O 385.193 -2.0108 0.799726 0
M  V30 3853 C 385.788 0.104125 3.3864 0
M  V30 3854 C 384.347 -0.28677 3.75306 0
M  V30 3855 C 383.494 0.473893 2.73221 0
M  V30 3856 H 386.445 0.719775 1.41439 0
M  V30 3857 H 386.466 -0.689672 3.74198 0
M  V30 3858 H 385.978 1.13482 3.71138 0
M  V30 3859 H 384.079 -1.32046 3.48417 0
M  V30 3860 H 384.192 0.0370745 4.79086 0
M  V30 3861 H 382.556 -0.0770644 2.54583 0
M  V30 3862 H 383.339 1.50478 3.08563 0
M  V30 3863 N 385.784 -1.5574 0.241426 0
M  V30 3864 C 386.717 -2.17168 -0.700935 0
M  V30 3865 C 387.695 -1.12206 -1.1768 0
M  V30 3866 O 388.879 -1.40565 -1.25593 0
M  V30 3867 C 386.006 -2.76796 -1.95196 0
M  V30 3868 C 385.052 -3.94764 -1.61442 0
M  V30 3869 S 385.885 -5.30613 -0.72182 0
M  V30 3870 C 387.041 -5.93691 -1.98197 0
M  V30 3871 H 387.274 -2.96761 -0.178882 0
M  V30 3872 H 384.807 -1.54378 0.0259299 0
M  V30 3873 H 386.765 -3.11787 -2.67019 0
M  V30 3874 H 385.426 -1.9716 -2.44514 0
M  V30 3875 H 384.619 -4.35057 -2.54443 0
M  V30 3876 H 384.221 -3.61022 -0.976672 0
M  V30 3877 H 386.513 -6.10874 -2.92983 0
M  V30 3878 H 387.456 -6.89258 -1.62262 0
M  V30 3879 H 387.864 -5.22709 -2.13156 0
M  V30 3880 N 387.262 0.0317525 -1.57568 0
M  V30 3881 C 388.509 0.723104 -1.89149 0
M  V30 3882 C 388.837 1.75504 -0.838377 0
M  V30 3883 O 388.092 1.95037 0.160982 0
M  V30 3884 C 388.391 1.43167 -3.27472 0
M  V30 3885 C 388.057 0.535972 -4.47703 0
M  V30 3886 C 386.719 0.289262 -4.8033 0
M  V30 3887 C 389.071 -0.0826125 -5.21135 0
M  V30 3888 C 386.399 -0.584853 -5.83778 0
M  V30 3889 C 388.751 -0.944414 -6.25511 0
M  V30 3890 C 387.415 -1.20061 -6.56614 0
M  V30 3891 H 386.685 0.264602 -0.692146 0
M  V30 3892 H 389.332 -0.0169496 -1.91492 0
M  V30 3893 H 387.637 2.24497 -3.21105 0
M  V30 3894 H 389.334 1.97209 -3.49155 0
M  V30 3895 H 385.924 0.738414 -4.22191 0
M  V30 3896 H 390.108 0.0950302 -4.96209 0
M  V30 3897 H 385.364 -0.79168 -6.06253 0
M  V30 3898 H 389.538 -1.43026 -6.81554 0
M  V30 3899 H 387.165 -1.87967 -7.36595 0
M  V30 3900 N 388.74 1.54641 0.303973 0
M  V30 3901 C 389.67 1.88386 1.3796 0
M  V30 3902 C 390.651 0.742485 1.5304 0
M  V30 3903 O 391.836 0.997959 1.66597 0
M  V30 3904 C 388.966 2.12854 2.74427 0
M  V30 3905 C 387.92 3.28702 2.74115 0
M  V30 3906 C 387.246 3.38582 4.13844 0
M  V30 3907 C 388.546 4.65881 2.3612 0
M  V30 3908 H 390.24 2.78474 1.09966 0
M  V30 3909 H 387.786 1.33988 0.527556 0
M  V30 3910 H 389.739 2.35047 3.49758 0
M  V30 3911 H 388.463 1.19535 3.03939 0
M  V30 3912 H 387.122 3.06428 2.0124 0
M  V30 3913 H 386.77 2.42784 4.40528 0
M  V30 3914 H 386.47 4.16453 4.14537 0
M  V30 3915 H 387.994 3.63031 4.90959 0
M  V30 3916 H 389.408 4.87823 3.01167 0
M  V30 3917 H 387.805 5.46444 2.48031 0
M  V30 3918 H 388.875 4.66799 1.3125 0
M  V30 3919 N 390.218 -0.567019 1.47046 0
M  V30 3920 C 391.634 -0.891975 1.32348 0
M  V30 3921 C 391.834 -1.99154 0.306616 0
M  V30 3922 O 390.89 -2.50883 -0.28532 0
M  V30 3923 C 392.203 -1.29449 2.7141 0
M  V30 3924 C 393.751 -1.40646 2.79621 0
M  V30 3925 C 394.226 -1.84257 4.19301 0
M  V30 3926 N 395.717 -1.91424 4.21795 0
M  V30 3927 C 396.452 -2.26476 5.26779 0
M  V30 3928 N 395.948 -2.60211 6.42077 0
M  V30 3929 N 397.741 -2.27166 5.14152 0
M  V30 3930 H 389.892 0.159074 2.11803 0
M  V30 3931 H 392.155 0.00849752 0.947962 0
M  V30 3932 H 391.861 -0.560448 3.47206 0
M  V30 3933 H 391.735 -2.25273 3.02542 0
M  V30 3934 H 394.122 -2.13133 2.04104 0
M  V30 3935 H 394.203 -0.430339 2.52154 0
M  V30 3936 H 393.847 -1.12343 4.95319 0
M  V30 3937 H 393.777 -2.82855 4.44185 0
M  V30 3938 H 396.268 -1.6778 3.38612 0
M  V30 3939 H 396.581 -2.85956 7.17948 0
M  V30 3940 H 394.926 -2.57813 6.45413 0
M  V30 3941 H 398.117 -2.00244 4.23107 0
M  V30 3942 H 398.29 -2.54154 5.96079 0
M  V30 3943 N 391.696 -1.35014 -0.812953 0
M  V30 3944 C 392.626 -1.30069 -1.93919 0
M  V30 3945 C 393.607 -0.176275 -1.69184 0
M  V30 3946 O 394.792 -0.370227 -1.90638 0
M  V30 3947 C 391.922 -1.06547 -3.30552 0
M  V30 3948 C 390.876 -2.15561 -3.69753 0
M  V30 3949 C 390.202 -1.77214 -5.04479 0
M  V30 3950 C 391.502 -3.57476 -3.808 0
M  V30 3951 H 393.196 -2.24303 -1.98314 0
M  V30 3952 H 390.742 -1.07977 -0.952736 0
M  V30 3953 H 392.695 -1.01729 -4.08937 0
M  V30 3954 H 391.419 -0.0875719 -3.26483 0
M  V30 3955 H 390.078 -2.19466 -2.9365 0
M  V30 3956 H 389.726 -0.780589 -4.96906 0
M  V30 3957 H 389.426 -2.50184 -5.31678 0
M  V30 3958 H 390.95 -1.7391 -5.8531 0
M  V30 3959 H 392.364 -3.55929 -4.4943 0
M  V30 3960 H 390.761 -4.29152 -4.19462 0
M  V30 3961 H 391.831 -3.94091 -2.82525 0
M  V30 3962 N 393.175 1.03435 -1.18907 0
M  V30 3963 C 394.405 1.8012 -1.01195 0
M  V30 3964 C 394.813 1.8395 0.442613 0
M  V30 3965 O 394.156 1.27836 1.31923 0
M  V30 3966 C 394.218 3.26792 -1.49823 0
M  V30 3967 C 393.882 3.46609 -2.97844 0
M  V30 3968 C 394.879 3.37278 -3.95651 0
M  V30 3969 C 392.564 3.73001 -3.36416 0
M  V30 3970 C 394.558 3.54054 -5.30023 0
M  V30 3971 C 392.245 3.89423 -4.70949 0
M  V30 3972 C 393.243 3.79951 -5.67562 0
M  V30 3973 O 392.931 3.95895 -6.99659 0
M  V30 3974 H 392.663 0.573865 -0.357289 0
M  V30 3975 H 395.217 1.31207 -1.58031 0
M  V30 3976 H 393.447 3.76703 -0.873578 0
M  V30 3977 H 395.136 3.85055 -1.28404 0
M  V30 3978 H 395.902 3.16846 -3.67197 0
M  V30 3979 H 391.781 3.79469 -2.61772 0
M  V30 3980 H 395.325 3.46577 -6.05417 0
M  V30 3981 H 391.222 4.09351 -4.99101 0
M  V30 3982 H 391.99 4.13019 -7.06653 0
M  V30 3983 N 394.653 0.992116 1.22453 0
M  V30 3984 C 395.583 0.561677 2.26644 0
M  V30 3985 C 396.564 -0.411055 1.65059 0
M  V30 3986 O 397.749 -0.301861 1.9184 0
M  V30 3987 C 394.879 -0.125247 3.47074 0
M  V30 3988 C 393.833 0.765948 4.21091 0
M  V30 3989 C 393.159 -0.0538484 5.34673 0
M  V30 3990 C 394.459 2.06242 4.79856 0
M  V30 3991 H 396.153 1.43259 2.62902 0
M  V30 3992 H 393.699 0.690283 1.26377 0
M  V30 3993 H 395.652 -0.437764 4.1912 0
M  V30 3994 H 394.376 -1.03069 3.0991 0
M  V30 3995 H 393.035 1.0621 3.50878 0
M  V30 3996 H 392.683 -0.960188 4.9375 0
M  V30 3997 H 392.383 0.539415 5.85119 0
M  V30 3998 H 393.907 -0.360477 6.09535 0
M  V30 3999 H 395.321 1.8139 5.43848 0
M  V30 4000 H 393.718 2.60444 5.40638 0
M  V30 4001 H 394.788 2.74167 3.99951 0
M  V30 4002 N 396.131 -1.37776 0.765217 0
M  V30 4003 C 397.38 -1.99092 0.323307 0
M  V30 4004 C 397.693 -1.61434 -1.10446 0
M  V30 4005 O 398.899 -2.15805 -1.64743 0
M  V30 4006 C 397.355 -3.56019 0.527098 0
M  V30 4007 C 396.963 -4.0262 1.96471 0
M  V30 4008 C 398.707 -4.2424 0.148483 0
M  V30 4009 C 396.614 -5.52233 2.11644 0
M  V30 4010 H 395.544 -0.744846 0.117137 0
M  V30 4011 H 398.195 -1.57391 0.943417 0
M  V30 4012 H 396.577 -3.95667 -0.162372 0
M  V30 4013 H 397.751 -3.74234 2.68859 0
M  V30 4014 H 396.066 -3.47161 2.29931 0
M  V30 4015 H 398.663 -5.34159 0.240456 0
M  V30 4016 H 399.006 -4.06446 -0.900422 0
M  V30 4017 H 399.539 -3.89872 0.79025 0
M  V30 4018 H 396.278 -5.74945 3.1483 0
M  V30 4019 H 395.798 -5.82324 1.4373 0
M  V30 4020 H 397.477 -6.18106 1.91193 0
M  V30 4021 N 397.609 -0.515225 -1.4894 0
M  V30 4022 C 398.572 0.244681 -2.2789 0
M  V30 4023 C 399.572 0.881166 -1.34507 0
M  V30 4024 O 400.762 0.743497 -1.57537 0
M  V30 4025 C 397.894 1.35247 -3.12923 0
M  V30 4026 H 399.087 -0.448289 -2.96531 0
M  V30 4027 H 396.64 -0.270656 -1.53939 0
M  V30 4028 H 397.375 2.07916 -2.48881 0
M  V30 4029 H 397.16 0.901374 -3.81599 0
M  V30 4030 H 398.65 1.88737 -3.72516 0
M  V30 4031 N 399.087 1.5561 -0.249682 0
M  V30 4032 C 400.503 1.59254 0.105103 0
M  V30 4033 C 400.703 1.26685 1.56694 0
M  V30 4034 O 399.759 1.0155 2.31179 0
M  V30 4035 C 401.072 2.99687 -0.246592 0
M  V30 4036 C 402.62 3.12416 -0.191118 0
M  V30 4037 C 403.095 4.55074 -0.516885 0
M  V30 4038 N 404.586 4.60835 -0.467489 0
M  V30 4039 C 405.321 5.69201 -0.69268 0
M  V30 4040 N 404.817 6.85817 -0.981146 0
M  V30 4041 N 406.61 5.58635 -0.623198 0
M  V30 4042 H 398.761 1.75049 -1.20298 0
M  V30 4043 H 401.024 0.815003 -0.484225 0
M  V30 4044 H 400.73 3.28267 -1.26228 0
M  V30 4045 H 400.604 3.74798 0.424962 0
M  V30 4046 H 402.991 2.83615 0.815247 0
M  V30 4047 H 403.072 2.39573 -0.896563 0
M  V30 4048 H 402.716 4.84596 -1.52082 0
M  V30 4049 H 402.646 5.26181 0.210068 0
M  V30 4050 H 405.137 3.7705 -0.253373 0
M  V30 4051 H 405.45 7.64341 -1.14032 0
M  V30 4052 H 403.795 6.87494 -1.01865 0
M  V30 4053 H 406.986 4.66406 -0.397863 0
M  V30 4054 H 407.159 6.43017 -0.802093 0
M  V30 4055 N 400.565 -0.0233959 1.57583 0
M  V30 4056 C 401.811 -0.714119 1.89811 0
M  V30 4057 C 402.144 -1.74702 0.848113 0
M  V30 4058 O 401.419 -1.94023 -0.136135 0
M  V30 4059 C 401.702 -1.37853 3.32669 0
M  V30 4060 C 401.555 -0.358764 4.48367 0
M  V30 4061 C 402.874 -2.31101 3.7454 0
M  V30 4062 H 399.993 -0.25814 0.690314 0
M  V30 4063 H 402.635 0.0230927 1.89986 0
M  V30 4064 H 400.785 -2.00689 3.3265 0
M  V30 4065 H 402.457 0.268115 4.6052 0
M  V30 4066 H 400.7 0.321387 4.32608 0
M  V30 4067 H 401.371 -0.862242 5.45224 0
M  V30 4068 H 403.847 -1.78304 3.75961 0
M  V30 4069 H 402.723 -2.74567 4.75294 0
M  V30 4070 H 402.984 -3.18018 3.0711 0
M  V30 4071 N 402.043 -1.548 -0.295768 0
M  V30 4072 C 402.976 -1.81003 -1.38972 0
M  V30 4073 C 403.954 -0.661544 -1.48534 0
M  V30 4074 O 405.138 -0.902074 -1.65514 0
M  V30 4075 C 402.265 -1.95141 -2.76835 0
M  V30 4076 C 401.311 -3.17592 -2.84671 0
M  V30 4077 S 402.144 -4.75531 -2.46232 0
M  V30 4078 C 403.3 -4.92613 -3.86114 0
M  V30 4079 H 403.533 -2.73507 -1.16537 0
M  V30 4080 H 401.066 -1.46278 -0.494168 0
M  V30 4081 H 403.024 -2.03972 -3.56238 0
M  V30 4082 H 401.685 -1.03565 -2.96535 0
M  V30 4083 H 400.878 -3.24303 -3.85803 0
M  V30 4084 H 400.48 -3.07235 -2.13267 0
M  V30 4085 H 402.772 -4.76957 -4.81164 0
M  V30 4086 H 403.715 -5.94698 -3.8437 0
M  V30 4087 H 404.123 -4.2073 -3.76359 0
M  V30 4088 N 403.521 0.559213 -1.47345 0
M  V30 4089 C 404.451 1.67622 -1.62558 0
M  V30 4090 C 405.432 1.63331 -0.475087 0
M  V30 4091 O 406.617 1.80983 -0.704182 0
M  V30 4092 C 403.747 3.0626 -1.63774 0
M  V30 4093 C 402.701 3.25397 -2.7803 0
M  V30 4094 C 402.027 4.64801 -2.64318 0
M  V30 4095 C 403.327 3.10965 -4.19641 0
M  V30 4096 H 405.021 1.55146 -2.56067 0
M  V30 4097 H 402.567 0.744961 -1.23233 0
M  V30 4098 H 404.52 3.84247 -1.73008 0
M  V30 4099 H 403.244 3.1969 -0.66825 0
M  V30 4100 H 401.903 2.49817 -2.68304 0
M  V30 4101 H 401.551 4.75028 -1.65401 0
M  V30 4102 H 401.251 4.78555 -3.40968 0
M  V30 4103 H 402.775 5.44926 -2.75478 0
M  V30 4104 H 404.189 3.78772 -4.30354 0
M  V30 4105 H 402.586 3.36229 -4.97062 0
M  V30 4106 H 403.656 2.07736 -4.38148 0
M  V30 4107 N 404.999 1.35443 0.805782 0
M  V30 4108 C 405.929 1.31095 1.93226 0
M  V30 4109 C 406.91 0.185244 1.69088 0
M  V30 4110 O 408.095 0.380332 1.90439 0
M  V30 4111 C 405.225 1.08299 3.29983 0
M  V30 4112 C 404.179 2.17519 3.68605 0
M  V30 4113 C 403.505 1.79887 5.03532 0
M  V30 4114 C 404.805 3.5949 3.78898 0
M  V30 4115 H 406.499 2.25352 1.97122 0
M  V30 4116 H 404.045 1.0848 0.946996 0
M  V30 4117 H 405.998 1.03897 4.08391 0
M  V30 4118 H 404.722 0.104885 3.26432 0
M  V30 4119 H 403.381 2.2102 2.92482 0
M  V30 4120 H 403.029 0.80693 4.96485 0
M  V30 4121 H 402.729 2.53001 5.30344 0
M  V30 4122 H 404.253 1.77011 5.84379 0
M  V30 4123 H 405.667 3.58307 4.47536 0
M  V30 4124 H 404.064 4.31371 4.1718 0
M  V30 4125 H 405.134 3.95584 2.80431 0
M  V30 4126 N 406.477 -1.02803 1.19454 0
M  V30 4127 C 407.427 -2.0945 0.900827 0
M  V30 4128 C 408.411 -1.60335 -0.134715 0
M  V30 4129 O 409.603 -1.76857 0.0710924 0
M  V30 4130 C 406.732 -3.4044 0.442229 0
M  V30 4131 C 405.818 -3.96286 1.51056 0
M  V30 4132 N 406.209 -4.25785 2.73021 0
M  V30 4133 C 404.507 -4.24307 1.37404 0
M  V30 4134 C 405.208 -4.70654 3.41848 0
M  V30 4135 N 404.184 -4.72238 2.69243 0
M  V30 4136 H 407.986 -2.3015 1.82779 0
M  V30 4137 H 405.5 -1.20672 1.08683 0
M  V30 4138 H 407.497 -4.16354 0.21326 0
M  V30 4139 H 406.157 -3.21159 -0.478238 0
M  V30 4140 H 407.168 -4.15041 3.09776 0
M  V30 4141 H 403.845 -4.14285 0.517103 0
M  V30 4142 H 405.235 -5.02392 4.46152 0
M  V30 4143 N 407.956 -0.998596 -1.21925 0
M  V30 4144 C 409.181 -0.696015 -1.95372 0
M  V30 4145 C 409.606 0.733826 -1.73195 0
M  V30 4146 O 408.964 1.50242 -1.01474 0
M  V30 4147 C 409.012 -1.01466 -3.4603 0
M  V30 4148 O 408.116 -0.116415 -4.12236 0
M  V30 4149 H 407.457 -0.259938 -0.611006 0
M  V30 4150 H 409.987 -1.33711 -1.54863 0
M  V30 4151 H 409.997 -0.958855 -3.96573 0
M  V30 4152 H 408.672 -2.05653 -3.61497 0
M  V30 4153 H 407.249 -0.228193 -3.72201 0
M  V30 4154 N 409.434 1.37368 -0.772513 0
M  V30 4155 C 410.381 2.30262 -0.157488 0
M  V30 4156 C 411.351 1.51137 0.688965 0
M  V30 4157 O 412.536 1.79704 0.641168 0
M  V30 4158 C 409.676 3.37611 0.715045 0
M  V30 4159 C 408.789 4.31746 -0.148098 0
M  V30 4160 C 407.924 5.26171 0.729213 0
M  V30 4161 C 406.963 6.11948 -0.136418 0
M  V30 4162 N 406.1 6.98613 0.698914 0
M  V30 4163 H 410.94 2.82277 -0.955179 0
M  V30 4164 H 408.477 1.38957 -0.482631 0
M  V30 4165 H 410.435 3.98479 1.23575 0
M  V30 4166 H 409.065 2.86959 1.47833 0
M  V30 4167 H 408.117 3.72178 -0.786613 0
M  V30 4168 H 409.429 4.92084 -0.81579 0
M  V30 4169 H 408.583 5.92247 1.31637 0
M  V30 4170 H 407.322 4.66246 1.43059 0
M  V30 4171 H 406.327 5.4485 -0.736102 0
M  V30 4172 H 407.552 6.73945 -0.835134 0
M  V30 4173 H 405.498 6.41215 1.38489 0
M  V30 4174 H 405.415 7.55948 0.0885358 0
M  V30 4175 H 406.683 7.69077 1.27044 0
M  V30 4176 N 410.912 0.523116 1.48665 0
M  V30 4177 C 411.842 -0.23231 2.32342 0
M  V30 4178 C 412.823 -0.941637 1.41659 0
M  V30 4179 O 414.008 -0.928751 1.70552 0
M  V30 4180 C 411.138 -1.28387 3.22698 0
M  V30 4181 C 410.092 -0.693098 4.22351 0
M  V30 4182 C 409.418 -1.8468 5.01794 0
M  V30 4183 C 410.718 0.33063 5.21252 0
M  V30 4184 H 412.412 0.466192 2.95748 0
M  V30 4185 H 409.958 0.225643 1.42221 0
M  V30 4186 H 411.911 -1.82024 3.80059 0
M  V30 4187 H 410.635 -2.01186 2.57278 0
M  V30 4188 H 409.294 -0.178299 3.66166 0
M  V30 4189 H 408.942 -2.56301 4.32804 0
M  V30 4190 H 408.642 -1.45747 5.69238 0
M  V30 4191 H 410.166 -2.38709 5.62006 0
M  V30 4192 H 411.58 -0.118407 5.73178 0
M  V30 4193 H 409.977 0.636974 5.9671 0
M  V30 4194 H 411.047 1.23883 4.68808 0
M  V30 4195 N 412.39 -1.55475 0.257931 0
M  V30 4196 C 413.637 -1.99207 -0.363728 0
M  V30 4197 C 413.965 -1.1462 -1.57139 0
M  V30 4198 O 413.22 -0.199653 -1.94679 0
M  V30 4199 C 413.519 -3.48183 -0.806433 0
M  V30 4200 C 413.185 -4.49936 0.294684 0
M  V30 4201 C 411.847 -4.77481 0.597076 0
M  V30 4202 C 414.199 -5.10769 1.03751 0
M  V30 4203 C 411.527 -5.63132 1.64618 0
M  V30 4204 C 413.879 -5.97558 2.07622 0
M  V30 4205 C 412.543 -6.23432 2.38514 0
M  V30 4206 H 411.813 -0.728949 -0.133097 0
M  V30 4207 H 414.46 -1.8793 0.368059 0
M  V30 4208 H 412.765 -3.56848 -1.61761 0
M  V30 4209 H 414.462 -3.79415 -1.29789 0
M  V30 4210 H 411.052 -4.28572 0.0488649 0
M  V30 4211 H 415.236 -4.89527 0.817149 0
M  V30 4212 H 410.492 -5.8143 1.89074 0
M  V30 4213 H 414.666 -6.43735 2.65666 0
M  V30 4214 H 412.293 -6.89594 3.19943 0
M  V30 4215 N 413.868 0.0150385 -1.57593 0
M  V30 4216 C 415.096 0.714395 -1.94175 0
M  V30 4217 C 415.511 1.68135 -0.858841 0
M  V30 4218 O 414.868 1.81766 0.163567 0
M  V30 4219 C 414.919 1.45933 -3.30735 0
M  V30 4220 O 414.64 0.531167 -4.34868 0
M  V30 4221 C 416.141 2.25456 -3.81686 0
M  V30 4222 H 413.361 0.199923 -0.640525 0
M  V30 4223 H 415.905 -0.0316096 -2.04476 0
M  V30 4224 H 414.06 2.15709 -3.21789 0
M  V30 4225 H 414.474 1.05509 -5.13778 0
M  V30 4226 H 415.948 2.731 -4.79709 0
M  V30 4227 H 416.425 3.07485 -3.13607 0
M  V30 4228 H 417.031 1.60727 -3.9376 0
M  V30 4229 N 415.346 1.54954 0.287554 0
M  V30 4230 C 416.623 1.65569 1.04146 0
M  V30 4231 C 417.003 0.512672 2.0478 0
M  V30 4232 O 416.351 -0.489038 2.23205 0
M  V30 4233 C 416.561 3.04163 1.71131 0
M  V30 4234 C 417.909 3.61429 2.22832 0
M  V30 4235 O 418.933 3.06702 1.81141 0
M  V30 4236 O 417.792 4.57281 2.9926 0
M  V30 4237 H 414.886 0.671881 0.482188 0
M  V30 4238 H 417.432 1.67297 0.28457 0
M  V30 4239 H 416.204 3.78796 0.981303 0
M  V30 4240 H 415.827 3.06271 2.53543 0
M  V30 4241 N 416.824 -0.551391 1.4764 0
M  V30 4242 C 417.787 -1.64007 1.60107 0
M  V30 4243 C 418.787 -1.53601 0.47576 0
M  V30 4244 O 419.977 -1.57655 0.740988 0
M  V30 4245 C 417.109 -3.03569 1.55108 0
M  V30 4246 H 418.302 -1.543 2.57161 0
M  V30 4247 H 415.855 -0.771776 1.35917 0
M  V30 4248 H 416.59 -3.18804 0.594519 0
M  V30 4249 H 416.375 -3.12532 2.36783 0
M  V30 4250 H 417.865 -3.82762 1.66982 0
M  V30 4251 N 418.302 -1.35869 -0.798587 0
M  V30 4252 C 419.527 -1.32883 -1.59238 0
M  V30 4253 C 419.952 0.0894587 -1.87887 0
M  V30 4254 O 419.31 1.05869 -1.47178 0
M  V30 4255 C 419.358 -2.14892 -2.89575 0
M  V30 4256 O 418.462 -1.53512 -3.82763 0
M  V30 4257 H 417.803 -0.455236 -0.48338 0
M  V30 4258 H 420.333 -1.79024 -0.990539 0
M  V30 4259 H 420.343 -2.27139 -3.38928 0
M  V30 4260 H 419.018 -3.17998 -2.68049 0
M  V30 4261 H 417.595 -1.50153 -3.41334 0
M  V30 4262 N 419.78 1.02168 -1.19998 0
M  V30 4263 C 421.005 1.79833 -1.03319 0
M  V30 4264 C 421.43 1.83504 0.413281 0
M  V30 4265 O 420.788 1.26635 1.29743 0
M  V30 4266 C 420.836 3.22396 -1.61533 0
M  V30 4267 O 419.94 4.03555 -0.849519 0
M  V30 4268 H 419.281 0.554872 -0.364709 0
M  V30 4269 H 421.811 1.28542 -1.59179 0
M  V30 4270 H 421.821 3.73124 -1.65054 0
M  V30 4271 H 420.496 3.19039 -2.66809 0
M  V30 4272 H 419.073 3.62169 -0.888129 0
M  V30 4273 N 421.258 1.00505 1.21394 0
M  V30 4274 C 422.674 0.717873 1.42544 0
M  V30 4275 C 422.874 -0.706936 1.88692 0
M  V30 4276 O 421.93 -1.47627 2.04847 0
M  V30 4277 C 423.243 1.73377 2.45684 0
M  V30 4278 C 424.791 1.75059 2.59467 0
M  V30 4279 C 425.266 2.75545 3.6584 0
M  V30 4280 N 426.757 2.74213 3.73311 0
M  V30 4281 C 427.492 3.48626 4.55245 0
M  V30 4282 N 426.988 4.32678 5.41075 0
M  V30 4283 N 428.781 3.37276 4.49668 0
M  V30 4284 H 420.932 1.92506 0.897503 0
M  V30 4285 H 423.195 0.830919 0.456375 0
M  V30 4286 H 422.901 2.75395 2.18748 0
M  V30 4287 H 422.775 1.53647 3.44489 0
M  V30 4288 H 425.162 0.737337 2.8574 0
M  V30 4289 H 425.243 1.98861 1.60897 0
M  V30 4290 H 424.887 3.77028 3.40313 0
M  V30 4291 H 424.817 2.49009 4.64007 0
M  V30 4292 H 427.308 2.13234 3.11993 0
M  V30 4293 H 427.621 4.86253 6.00648 0
M  V30 4294 H 425.966 4.3676 5.40616 0
M  V30 4295 H 429.157 2.71043 3.81646 0
M  V30 4296 H 429.33 3.95524 5.13288 0
M  V30 4297 N 422.737 -1.36956 0.779787 0
M  V30 4298 C 423.962 -2.04283 0.358224 0
M  V30 4299 C 424.387 -1.58422 -1.01411 0
M  V30 4300 O 423.745 -0.748179 -1.65142 0
M  V30 4301 C 423.793 -3.58152 0.419479 0
M  V30 4302 O 422.897 -4.08342 -0.577142 0
M  V30 4303 H 422.238 -0.645967 0.153698 0
M  V30 4304 H 424.768 -1.75108 1.05822 0
M  V30 4305 H 424.778 -4.07041 0.279636 0
M  V30 4306 H 423.453 -3.90886 1.42061 0
M  V30 4307 H 422.03 -3.70751 -0.399755 0
M  V30 4308 N 424.215 -0.530993 -1.48385 0
M  V30 4309 C 425.464 0.00474348 -2.01699 0
M  V30 4310 C 425.777 1.35227 -1.41325 0
M  V30 4311 O 426.983 1.97643 -1.86144 0
M  V30 4312 C 425.439 0.0588473 -3.59852 0
M  V30 4313 C 425.047 -1.28385 -4.2921 0
M  V30 4314 C 426.791 0.543358 -4.21008 0
M  V30 4315 C 424.698 -1.19028 -5.79298 0
M  V30 4316 H 423.628 0.00554317 -0.75398 0
M  V30 4317 H 426.279 -0.674924 -1.70637 0
M  V30 4318 H 424.661 0.803612 -3.8776 0
M  V30 4319 H 425.835 -2.04426 -4.12973 0
M  V30 4320 H 424.15 -1.70418 -3.7993 0
M  V30 4321 H 426.747 0.631351 -5.3096 0
M  V30 4322 H 427.09 1.54937 -3.86394 0
M  V30 4323 H 427.623 -0.145754 -3.97533 0
M  V30 4324 H 424.362 -2.17147 -6.18488 0
M  V30 4325 H 423.882 -0.471246 -5.97946 0
M  V30 4326 H 425.561 -0.881365 -6.40969 0
M  V30 4327 N 425.693 1.55336 -0.266172 0
M  V30 4328 C 426.941 1.99003 0.35246 0
M  V30 4329 C 427.262 1.15591 1.57047 0
M  V30 4330 O 426.532 0.243268 1.94384 0
M  V30 4331 H 425.112 0.735025 0.133217 0
M  V30 4332 H 427.774 1.91367 -0.369434 0
M  V30 4333 H 426.87 3.05289 0.648453 0
M  V30 4334 N 427.171 -0.0066808 1.57599 0
M  V30 4335 C 428.134 -0.985035 2.06953 0
M  V30 4336 C 429.134 -1.27663 0.977687 0
M  V30 4337 O 430.324 -1.22293 1.24057 0
M  V30 4338 C 427.456 -2.3118 2.50536 0
M  V30 4339 H 428.649 -0.558255 2.94658 0
M  V30 4340 H 426.202 -0.254011 1.54222 0
M  V30 4341 H 426.937 -2.78561 1.66054 0
M  V30 4342 H 426.722 -2.11338 3.3027 0
M  V30 4343 H 428.212 -3.01377 2.8907 0
M  V30 4344 N 428.649 -1.55105 -0.279332 0
M  V30 4345 C 429.579 -1.90557 -1.34945 0
M  V30 4346 C 430.56 -0.766738 -1.51839 0
M  V30 4347 O 431.745 -1.02434 -1.64988 0
M  V30 4348 C 428.875 -2.17193 -2.71006 0
M  V30 4349 C 427.829 -3.33021 -2.68851 0
M  V30 4350 C 427.155 -3.45123 -4.08405 0
M  V30 4351 C 428.455 -4.69578 -2.28678 0
M  V30 4352 H 430.149 -2.80188 -1.05522 0
M  V30 4353 H 427.695 -1.34811 -0.506173 0
M  V30 4354 H 429.648 -2.40581 -3.45975 0
M  V30 4355 H 428.372 -1.24355 -3.01999 0
M  V30 4356 H 427.031 -3.0959 -1.9634 0
M  V30 4357 H 426.679 -2.49762 -4.3661 0
M  V30 4358 H 426.379 -4.22995 -4.07859 0
M  V30 4359 H 427.903 -3.70796 -4.85121 0
M  V30 4360 H 429.317 -4.92553 -2.93368 0
M  V30 4361 H 427.714 -5.5032 -2.39306 0
M  V30 4362 H 428.784 -4.68828 -1.23807 0
M  V30 4363 N 430.127 0.543554 -1.4793 0
M  V30 4364 C 431.075 1.67039 -1.61866 0
M  V30 4365 C 432.069 1.62294 -0.48549 0
M  V30 4366 O 433.275 1.67315 -0.66376 0
M  V30 4367 H 429.65 0.552954 -0.509652 0
M  V30 4368 H 431.621 1.52426 -2.56533 0
M  V30 4369 C 430.37 3.05357 -1.6629 0
M  V30 4370 H 429.693 3.09696 -2.5284 0
M  V30 4371 H 431.133 3.83855 -1.80088 0
M  V30 4372 C 429.592 3.34531 -0.398861 0
M  V30 4373 O 430.122 3.98649 0.494162 0
M  V30 4374 N 428.328 2.89299 -0.2747 0
M  V30 4375 H 427.875 2.37298 -1.00236 0
M  V30 4376 H 427.833 3.09188 0.570075 0
M  V30 4377 N 431.605 1.3629 0.791371 0
M  V30 4378 C 432.552 1.30458 1.90393 0
M  V30 4379 C 433.522 0.173632 1.6519 0
M  V30 4380 O 434.707 0.35983 1.87376 0
M  V30 4381 C 431.847 1.09777 3.27174 0
M  V30 4382 C 430.96 2.31929 3.64462 0
M  V30 4383 C 430.095 2.04276 4.90352 0
M  V30 4384 C 429.134 3.224 5.20312 0
M  V30 4385 N 428.271 2.94424 6.37385 0
M  V30 4386 H 433.111 2.25589 1.94714 0
M  V30 4387 H 430.648 1.12122 0.952216 0
M  V30 4388 H 432.606 0.958133 4.06049 0
M  V30 4389 H 431.236 0.183014 3.22281 0
M  V30 4390 H 430.288 2.56703 2.80727 0
M  V30 4391 H 431.6 3.20085 3.82553 0
M  V30 4392 H 430.754 1.87231 5.77087 0
M  V30 4393 H 429.493 1.13428 4.74326 0
M  V30 4394 H 428.498 3.40005 4.32061 0
M  V30 4395 H 429.723 4.14071 5.38258 0
M  V30 4396 H 427.669 2.06185 6.22755 0
M  V30 4397 H 427.586 3.76118 6.55798 0
M  V30 4398 H 428.854 2.80953 7.27108 0
M  V30 4399 N 433.083 -1.0153 1.20538 0
M  V30 4400 C 434.332 -1.74558 1.01057 0
M  V30 4401 C 434.645 -1.90168 -0.457756 0
M  V30 4402 O 435.851 -2.60301 -0.771722 0
M  V30 4403 C 434.307 -3.13963 1.75941 0
M  V30 4404 C 433.915 -3.06361 3.26875 0
M  V30 4405 C 435.659 -3.91191 1.64832 0
M  V30 4406 C 433.566 -4.40782 3.94291 0
M  V30 4407 H 432.496 -0.654417 0.374505 0
M  V30 4408 H 435.147 -1.13521 1.44171 0
M  V30 4409 H 433.529 -3.75549 1.25614 0
M  V30 4410 H 434.703 -2.54074 3.84425 0
M  V30 4411 H 433.018 -2.42625 3.38411 0
M  V30 4412 H 435.615 -4.90644 2.12539 0
M  V30 4413 H 435.958 -4.11884 0.604745 0
M  V30 4414 H 436.491 -3.36236 2.12579 0
M  V30 4415 H 433.23 -4.25292 4.98805 0
M  V30 4416 H 432.75 -4.9307 3.41529 0
M  V30 4417 H 434.429 -5.09621 3.98617 0
M  V30 4418 N 434.561 -1.01147 -1.20859 0
M  V30 4419 C 435.509 -0.57059 -2.25493 0
M  V30 4420 C 436.503 0.388109 -1.64894 0
M  V30 4421 O 437.709 0.258592 -1.78133 0
M  V30 4422 H 434.084 -0.166191 -0.733406 0
M  V30 4423 H 436.055 -1.46411 -2.60012 0
M  V30 4424 C 434.804 0.0805241 -3.47607 0
M  V30 4425 H 434.127 -0.648156 -3.94511 0
M  V30 4426 H 435.567 0.352197 -4.22535 0
M  V30 4427 C 434.026 1.32175 -3.09889 0
M  V30 4428 O 434.556 2.41553 -3.20959 0
M  V30 4429 N 432.762 1.20392 -2.64488 0
M  V30 4430 H 432.309 0.313905 -2.5568 0
M  V30 4431 H 432.267 2.03541 -2.39621 0
M  V30 4432 N 436.039 1.36541 -0.78704 0
M  V30 4433 C 437.286 1.99304 -0.358341 0
M  V30 4434 C 437.614 1.62467 1.06933 0
M  V30 4435 O 436.869 0.870019 1.75297 0
M  V30 4436 C 437.168 3.54343 -0.466485 0
M  V30 4437 C 436.834 4.10993 -1.85461 0
M  V30 4438 C 435.496 4.26177 -2.23443 0
M  V30 4439 C 437.848 4.41895 -2.76366 0
M  V30 4440 C 435.176 4.69573 -3.51736 0
M  V30 4441 C 437.528 4.86722 -4.04084 0
M  V30 4442 C 436.192 5.00112 -4.42091 0
M  V30 4443 H 435.462 0.729306 -0.131126 0
M  V30 4444 H 438.109 1.63068 -1.00404 0
M  V30 4445 H 436.414 3.90918 0.262719 0
M  V30 4446 H 438.111 4.00833 -0.115854 0
M  V30 4447 H 434.701 3.99612 -1.54946 0
M  V30 4448 H 438.885 4.29735 -2.48277 0
M  V30 4449 H 434.141 4.78127 -3.81057 0
M  V30 4450 H 438.315 5.09598 -4.7464 0
M  V30 4451 H 435.942 5.33498 -5.41557 0
M  V30 4452 N 437.518 0.538854 1.48102 0
M  V30 4453 C 438.466 -0.232325 2.31437 0
M  V30 4454 C 439.46 -0.927004 1.41785 0
M  V30 4455 O 440.666 -0.850378 1.58646 0
M  V30 4456 H 437.041 -0.0937916 0.746128 0
M  V30 4457 H 439.012 0.489986 2.9435 0
M  V30 4458 C 437.761 -1.26074 3.24038 0
M  V30 4459 H 437.084 -0.735609 3.92974 0
M  V30 4460 H 438.524 -1.77157 3.85216 0
M  V30 4461 C 436.983 -2.29902 2.46265 0
M  V30 4462 O 437.513 -3.36502 2.19384 0
M  V30 4463 N 435.719 -2.03348 2.07601 0
M  V30 4464 H 435.266 -1.16675 2.29662 0
M  V30 4465 H 435.224 -2.73038 1.55877 0
M  V30 4466 N 438.996 -1.55193 0.274407 0
M  V30 4467 C 440.224 -2.03987 -0.345943 0
M  V30 4468 C 440.639 -1.15279 -1.4952 0
M  V30 4469 O 439.996 -0.172759 -1.8168 0
M  V30 4470 C 440.047 -3.51898 -0.827631 0
M  V30 4471 O 439.768 -4.37231 0.275855 0
M  V30 4472 C 441.269 -4.16577 -1.51587 0
M  V30 4473 H 438.489 -0.666335 -0.0789892 0
M  V30 4474 H 441.033 -2.00423 0.406294 0
M  V30 4475 H 439.188 -3.55909 -1.52996 0
M  V30 4476 H 439.602 -5.24415 -0.0943638 0
M  V30 4477 H 441.076 -5.21678 -1.80433 0
M  V30 4478 H 441.553 -3.64707 -2.44716 0
M  V30 4479 H 442.159 -4.16568 -0.857409 0
M  V30 4480 N 440.474 -0.00167713 -1.576 0
M  V30 4481 C 441.89 0.354422 -1.55615 0
M  V30 4482 C 442.09 1.74679 -1.00447 0
M  V30 4483 O 441.146 2.4428 -0.639022 0
M  V30 4484 C 442.459 0.22812 -2.99833 0
M  V30 4485 C 444.007 0.302934 -3.11531 0
M  V30 4486 C 444.482 0.205737 -4.57538 0
M  V30 4487 N 445.973 0.263584 -4.62449 0
M  V30 4488 C 446.708 0.211742 -5.73009 0
M  V30 4489 N 446.204 0.110399 -6.92712 0
M  V30 4490 N 447.997 0.263729 -5.61481 0
M  V30 4491 H 440.148 -0.912498 -1.918 0
M  V30 4492 H 442.411 -0.349928 -0.881053 0
M  V30 4493 H 442.117 -0.729934 -3.44042 0
M  V30 4494 H 441.991 1.00951 -3.6344 0
M  V30 4495 H 444.378 1.25143 -2.67251 0
M  V30 4496 H 444.459 -0.508357 -2.50698 0
M  V30 4497 H 444.103 -0.739225 -5.02492 0
M  V30 4498 H 444.033 1.03554 -5.16318 0
M  V30 4499 H 446.524 0.343173 -3.76339 0
M  V30 4500 H 446.837 0.0767828 -7.72762 0
M  V30 4501 H 445.182 0.0760025 -6.94958 0
M  V30 4502 H 448.373 0.34111 -4.66855 0
M  V30 4503 H 448.546 0.219862 -6.47627 0
M  V30 4504 N 441.952 1.55251 0.271103 0
M  V30 4505 C 443.199 1.75946 1.00245 0
M  V30 4506 C 443.527 0.561611 1.86215 0
M  V30 4507 O 442.782 -0.455832 1.90317 0
M  V30 4508 C 443.081 3.01879 1.91321 0
M  V30 4509 C 442.747 4.34337 1.21086 0
M  V30 4510 C 441.409 4.70338 1.01666 0
M  V30 4511 C 443.761 5.16325 0.71119 0
M  V30 4512 C 441.089 5.8588 0.310099 0
M  V30 4513 C 443.441 6.32597 0.0182157 0
M  V30 4514 C 442.105 6.67236 -0.18768 0
M  V30 4515 H 441.375 0.643833 0.366824 0
M  V30 4516 H 444.022 1.89521 0.27458 0
M  V30 4517 H 442.327 2.83212 2.70736 0
M  V30 4518 H 444.024 3.15088 2.48033 0
M  V30 4519 H 440.614 4.06043 1.37213 0
M  V30 4520 H 444.798 4.88987 0.848844 0
M  V30 4521 H 440.054 6.1124 0.139873 0
M  V30 4522 H 444.228 6.9538 -0.376711 0
M  V30 4523 H 441.855 7.56618 -0.73715 0
M  V30 4524 N 443.43 -0.535701 1.48216 0
M  V30 4525 C 444.676 -1.29375 1.56173 0
M  V30 4526 C 445.009 -1.92804 0.232429 0
M  V30 4527 O 444.284 -1.78992 -0.761048 0
M  V30 4528 C 444.567 -2.38747 2.69577 0
M  V30 4529 C 444.42 -1.80046 4.12193 0
M  V30 4530 C 445.739 -3.40551 2.78771 0
M  V30 4531 H 442.858 -0.469027 0.568491 0
M  V30 4532 H 445.5 -0.597358 1.80365 0
M  V30 4533 H 443.65 -2.98147 2.4908 0
M  V30 4534 H 445.322 -1.24742 4.44114 0
M  V30 4535 H 443.565 -1.10609 4.19462 0
M  V30 4536 H 444.236 -2.59212 4.87353 0
M  V30 4537 H 446.712 -2.91099 2.97322 0
M  V30 4538 H 445.588 -4.1448 3.59857 0
M  V30 4539 H 445.849 -4.00746 1.86696 0
M  V30 4540 N 444.908 -1.36708 -0.784132 0
M  V30 4541 C 445.841 -1.25827 -1.90375 0
M  V30 4542 C 446.819 -0.141331 -1.61985 0
M  V30 4543 O 448.003 -0.313389 -1.85877 0
M  V30 4544 C 445.13 -0.942621 -3.25319 0
M  V30 4545 C 444.176 -2.07474 -3.72635 0
M  V30 4546 S 445.009 -3.69317 -3.8777 0
M  V30 4547 C 446.165 -3.39876 -5.25581 0
M  V30 4548 H 446.398 -2.20593 -1.99314 0
M  V30 4549 H 443.931 -1.22186 -0.943926 0
M  V30 4550 H 445.889 -0.767321 -4.03265 0
M  V30 4551 H 444.55 -0.0126566 -3.14097 0
M  V30 4552 H 443.743 -1.80858 -4.70432 0
M  V30 4553 H 443.345 -2.20953 -3.01754 0
M  V30 4554 H 445.637 -2.94097 -6.10339 0
M  V30 4555 H 446.58 -4.36956 -5.57203 0
M  V30 4556 H 446.988 -2.75098 -4.92931 0
M  V30 4557 N 446.386 1.0089 -1.21074 0
M  V30 4558 C 447.333 2.09588 -0.966512 0
M  V30 4559 C 448.303 1.65761 0.106089 0
M  V30 4560 O 449.488 1.90758 -0.0402287 0
M  V30 4561 C 446.628 3.40958 -0.533058 0
M  V30 4562 C 445.741 3.9822 -1.67467 0
M  V30 4563 C 444.876 5.17682 -1.19076 0
M  V30 4564 C 443.915 5.67043 -2.30496 0
M  V30 4565 N 443.052 6.77759 -1.83267 0
M  V30 4566 H 447.892 2.29815 -1.89708 0
M  V30 4567 H 445.429 1.12689 -0.945489 0
M  V30 4568 H 447.387 4.1637 -0.263019 0
M  V30 4569 H 446.017 3.20781 0.360505 0
M  V30 4570 H 445.069 3.1983 -2.05944 0
M  V30 4571 H 446.381 4.3085 -2.51336 0
M  V30 4572 H 445.535 6.00326 -0.877151 0
M  V30 4573 H 444.274 4.86635 -0.322066 0
M  V30 4574 H 443.279 4.82999 -2.62664 0
M  V30 4575 H 444.504 6.00121 -3.17855 0
M  V30 4576 H 442.45 6.48527 -0.987356 0
M  V30 4577 H 442.367 7.09624 -2.60711 0
M  V30 4578 H 443.635 7.63949 -1.54928 0
M  V30 4579 N 447.864 1.01787 1.20321 0
M  V30 4580 C 449.092 0.727194 1.937 0
M  V30 4581 C 449.507 -0.712305 1.74848 0
M  V30 4582 O 448.864 -1.48327 1.06327 0
M  V30 4583 C 448.915 1.05497 3.45764 0
M  V30 4584 O 448.636 2.43794 3.64 0
M  V30 4585 C 450.137 0.785534 4.36285 0
M  V30 4586 H 447.357 0.266939 0.615617 0
M  V30 4587 H 449.901 1.35939 1.52777 0
M  V30 4588 H 448.056 0.468158 3.84561 0
M  V30 4589 H 448.47 2.55656 4.57974 0
M  V30 4590 H 449.944 1.06495 5.4163 0
M  V30 4591 H 450.421 -0.280273 4.38305 0
M  V30 4592 H 451.027 1.35456 4.03152 0
M  V30 4593 N 449.342 -1.36122 0.79427 0
M  V30 4594 C 450.272 -2.32551 0.210328 0
M  V30 4595 C 451.253 -1.56884 -0.657386 0
M  V30 4596 O 452.438 -1.85014 -0.590207 0
M  V30 4597 C 449.568 -3.41128 -0.651819 0
M  V30 4598 C 448.522 -4.27842 0.116395 0
M  V30 4599 C 447.848 -5.2763 -0.86666 0
M  V30 4600 C 449.148 -5.05647 1.30837 0
M  V30 4601 H 450.842 -2.81636 1.01594 0
M  V30 4602 H 448.388 -1.35407 0.489981 0
M  V30 4603 H 450.341 -4.07581 -1.07031 0
M  V30 4604 H 449.065 -2.90622 -1.49019 0
M  V30 4605 H 447.724 -3.62952 0.515915 0
M  V30 4606 H 447.372 -4.73395 -1.70019 0
M  V30 4607 H 447.072 -5.86514 -0.35705 0
M  V30 4608 H 448.596 -5.96955 -1.28361 0
M  V30 4609 H 450.01 -5.65113 0.965393 0
M  V30 4610 H 448.407 -5.73967 1.75161 0
M  V30 4611 H 449.477 -4.37006 2.10128 0
M  V30 4612 N 450.82 -0.546701 -1.47814 0
M  V30 4613 C 451.753 0.254472 -2.26777 0
M  V30 4614 C 452.731 0.929809 -1.33392 0
M  V30 4615 O 453.915 0.950889 -1.62759 0
M  V30 4616 C 451.042 1.36171 -3.10121 0
M  V30 4617 C 450.088 0.796038 -4.19005 0
M  V30 4618 S 450.921 -0.349191 -5.3436 0
M  V30 4619 C 452.077 0.760122 -6.21267 0
M  V30 4620 H 452.31 -0.415612 -2.94381 0
M  V30 4621 H 449.843 -0.332809 -1.5077 0
M  V30 4622 H 451.801 1.99588 -3.58713 0
M  V30 4623 H 450.462 2.00359 -2.41899 0
M  V30 4624 H 449.655 1.62719 -4.7701 0
M  V30 4625 H 449.257 0.238246 -3.7324 0
M  V30 4626 H 451.549 1.65479 -6.5698 0
M  V30 4627 H 452.492 0.217673 -7.07765 0
M  V30 4628 H 452.9 1.04806 -5.54685 0
M  V30 4629 N 452.299 1.55045 -0.282633 0
M  V30 4630 C 453.527 2.04168 0.33512 0
M  V30 4631 C 453.942 1.16071 1.48906 0
M  V30 4632 O 453.299 0.182391 1.81586 0
M  V30 4633 C 453.35 3.52332 0.808957 0
M  V30 4634 O 453.071 4.37078 -0.299038 0
M  V30 4635 C 454.572 4.17375 1.49375 0
M  V30 4636 H 451.792 0.666744 0.0754543 0
M  V30 4637 H 454.336 2.00205 -0.416918 0
M  V30 4638 H 452.491 3.56715 1.51106 0
M  V30 4639 H 452.905 5.24458 0.0665514 0
M  V30 4640 H 454.379 5.22627 1.77664 0
M  V30 4641 H 454.856 3.65999 2.42778 0
M  V30 4642 H 455.462 4.17016 0.835305 0
M  V30 4643 N 453.777 0.010035 1.57597 0
M  V30 4644 C 455.026 -0.671945 1.90178 0
M  V30 4645 C 455.339 -1.74376 0.886131 0
M  V30 4646 O 456.545 -2.48107 1.10252 0
M  V30 4647 C 455.001 -1.24636 3.3763 0
M  V30 4648 C 454.609 -0.208838 4.47513 0
M  V30 4649 C 456.353 -1.90595 3.79307 0
M  V30 4650 C 454.26 -0.793814 5.86048 0
M  V30 4651 H 453.19 -0.25474 0.709665 0
M  V30 4652 H 455.841 0.0722206 1.83358 0
M  V30 4653 H 454.223 -2.04152 3.3932 0
M  V30 4654 H 455.397 0.562463 4.57354 0
M  V30 4655 H 453.712 0.350889 4.14919 0
M  V30 4656 H 456.309 -2.35284 4.80151 0
M  V30 4657 H 456.652 -2.74074 3.13352 0
M  V30 4658 H 457.185 -1.17798 3.79958 0
M  V30 4659 H 453.924 0.00240855 6.555 0
M  V30 4660 H 453.444 -1.53404 5.79851 0
M  V30 4661 H 455.123 -1.2894 6.34022 0
M  V30 4662 N 455.255 -1.55392 -0.262866 0
M  V30 4663 C 456.495 -1.78231 -1.00064 0
M  V30 4664 C 456.859 -0.576966 -1.83126 0
M  V30 4665 O 458.06 -0.683809 -2.59957 0
M  V30 4666 C 456.331 -3.05701 -1.85153 0
M  V30 4667 S 457.89 -3.49699 -2.65058 0
M  V30 4668 H 454.708 -0.626138 -0.336856 0
M  V30 4669 H 457.31 -1.93626 -0.27005 0
M  V30 4670 H 456.014 -3.91511 -1.23074 0
M  V30 4671 H 455.545 -2.93 -2.62515 0
M  V30 4672 H 457.56 -3.09772 -3.87629 0
M  V30 4673 N 456.733 0.527833 -1.48498 0
M  V30 4674 C 458.144 1.10975 -1.50138 0
M  V30 4675 C 458.495 1.943 -0.272378 0
M  V30 4676 O 457.62 2.07319 0.620301 0
M  V30 4677 C 458.215 2.01927 -2.72049 0
M  V30 4678 C 456.774 2.55332 -2.76554 0
M  V30 4679 C 455.921 1.32341 -2.43683 0
M  V30 4680 H 458.872 0.312986 -1.55583 0
M  V30 4681 H 458.893 2.86244 -2.50689 0
M  V30 4682 H 458.405 1.41254 -3.61481 0
M  V30 4683 H 456.506 3.19721 -1.91336 0
M  V30 4684 H 456.619 2.94319 -3.78038 0
M  V30 4685 H 454.983 1.63989 -1.94884 0
M  V30 4686 H 455.766 0.734165 -3.35358 0
M  V30 4687 N 458.211 1.37122 0.776871 0
M  V30 4688 C 459.459 1.31787 1.53221 0
M  V30 4689 C 459.78 -0.0987589 1.9475 0
M  V30 4690 O 459.05 -1.0417 1.65908 0
M  V30 4691 H 457.63 0.484839 0.568278 0
M  V30 4692 H 460.292 1.71556 0.924917 0
M  V30 4693 H 459.388 1.95355 2.43398 0
M  V30 4694 N 459.689 -1.00246 1.21608 0
M  V30 4695 C 460.917 -1.77631 1.06089 0
M  V30 4696 C 461.332 -1.84746 -0.38916 0
M  V30 4697 O 460.689 -1.31068 -1.26994 0
M  V30 4698 C 460.74 -3.21415 1.65453 0
M  V30 4699 O 460.461 -3.14703 3.04785 0
M  V30 4700 C 461.962 -4.15289 1.55079 0
M  V30 4701 H 459.182 -0.558162 0.37242 0
M  V30 4702 H 461.726 -1.26093 1.60999 0
M  V30 4703 H 459.881 -3.70053 1.14629 0
M  V30 4704 H 460.295 -4.05056 3.33212 0
M  V30 4705 H 461.769 -5.13965 2.01355 0
M  V30 4706 H 462.246 -4.36279 0.505665 0
M  V30 4707 H 462.852 -3.72543 2.05163 0
M  V30 4708 N 461.167 -1.02423 -1.1978 0
M  V30 4709 C 462.413 -0.719051 -1.89625 0
M  V30 4710 C 462.746 0.750083 -1.7913 0
M  V30 4711 O 462.021 1.54574 -1.18056 0
M  V30 4712 C 462.304 -1.16499 -3.40735 0
M  V30 4713 C 462.157 -2.695 -3.60125 0
M  V30 4714 C 463.476 -0.742166 -4.33797 0
M  V30 4715 H 460.595 -0.26269 -0.688595 0
M  V30 4716 H 463.237 -1.27333 -1.41018 0
M  V30 4717 H 461.387 -0.69341 -3.82262 0
M  V30 4718 H 463.059 -3.24569 -3.278 0
M  V30 4719 H 461.302 -3.10113 -3.03336 0
M  V30 4720 H 461.973 -2.95757 -4.66081 0
M  V30 4721 H 464.449 -1.1477 -3.99959 0
M  V30 4722 H 463.325 -1.08213 -5.38127 0
M  V30 4723 H 463.586 0.355747 -4.40666 0
M  V30 4724 N 462.645 1.35699 -0.801477 0
M  V30 4725 C 463.575 2.32436 -0.222658 0
M  V30 4726 C 464.556 1.5723 0.649057 0
M  V30 4727 O 465.741 1.85324 0.580387 0
M  V30 4728 C 462.871 3.41469 0.633719 0
M  V30 4729 C 461.825 4.27774 -0.139083 0
M  V30 4730 C 461.151 5.28082 0.838666 0
M  V30 4731 C 462.451 5.04946 -1.33517 0
M  V30 4732 H 464.145 2.81094 -1.03086 0
M  V30 4733 H 461.691 1.35146 -0.497155 0
M  V30 4734 H 463.644 4.08143 1.04868 0
M  V30 4735 H 462.368 2.91408 1.47475 0
M  V30 4736 H 461.027 3.62673 -0.535156 0
M  V30 4737 H 460.675 4.7429 1.67506 0
M  V30 4738 H 460.375 5.86695 0.32594 0
M  V30 4739 H 461.899 5.97628 1.25194 0
M  V30 4740 H 463.313 5.64593 -0.995349 0
M  V30 4741 H 461.71 5.7303 -1.78202 0
M  V30 4742 H 462.78 4.35886 -2.12442 0
M  V30 4743 N 464.123 0.554532 1.47522 0
M  V30 4744 C 465.053 -0.182974 2.32782 0
M  V30 4745 C 466.034 -0.911377 1.43624 0
M  V30 4746 O 467.219 -0.892366 1.72483 0
M  V30 4747 C 464.349 -1.21513 3.25349 0
M  V30 4748 C 463.303 -0.603355 4.23726 0
M  V30 4749 C 462.629 -1.73995 5.05598 0
M  V30 4750 C 463.929 0.441121 5.20434 0
M  V30 4751 H 465.623 0.52882 2.94693 0
M  V30 4752 H 463.169 0.255759 1.41711 0
M  V30 4753 H 465.122 -1.73922 3.83835 0
M  V30 4754 H 463.846 -1.95683 2.61487 0
M  V30 4755 H 462.505 -0.10059 3.66462 0
M  V30 4756 H 462.153 -2.47063 4.38143 0
M  V30 4757 H 461.853 -1.3364 5.72201 0
M  V30 4758 H 463.377 -2.26735 5.66942 0
M  V30 4759 H 464.791 0.00319931 5.733 0
M  V30 4760 H 463.188 0.763402 5.95224 0
M  V30 4761 H 464.258 1.33799 4.66075 0
M  V30 4762 N 465.601 -1.54893 0.290851 0
M  V30 4763 C 466.847 -2.0023 -0.321867 0
M  V30 4764 C 467.18 -1.179 -1.54316 0
M  V30 4765 O 466.455 -0.25293 -1.92848 0
M  V30 4766 C 466.738 -3.53456 -0.688515 0
M  V30 4767 C 466.591 -4.46532 0.541209 0
M  V30 4768 C 467.91 -4.13057 -1.51895 0
M  V30 4769 H 465.029 -0.727891 -0.115515 0
M  V30 4770 H 467.671 -1.85722 0.400931 0
M  V30 4771 H 465.821 -3.6595 -1.30433 0
M  V30 4772 H 467.493 -4.4596 1.17973 0
M  V30 4773 H 465.736 -4.17545 1.17636 0
M  V30 4774 H 466.407 -5.51475 0.240675 0
M  V30 4775 H 468.883 -4.03937 -0.99872 0
M  V30 4776 H 467.759 -5.20448 -1.74429 0
M  V30 4777 H 468.02 -3.64284 -2.50498 0
M  V30 4778 N 467.08 -0.0183926 -1.57589 0
M  V30 4779 C 468.327 0.662562 -1.91354 0
M  V30 4780 C 468.655 1.72747 -0.893788 0
M  V30 4781 O 467.91 1.9545 0.0988509 0
M  V30 4782 C 468.209 1.32676 -3.31861 0
M  V30 4783 C 467.875 0.393267 -4.49182 0
M  V30 4784 C 466.537 0.136302 -4.81007 0
M  V30 4785 C 468.889 -0.248366 -5.20608 0
M  V30 4786 C 466.217 -0.770282 -5.81621 0
M  V30 4787 C 468.569 -1.14294 -6.22189 0
M  V30 4788 C 467.233 -1.4089 -6.52462 0
M  V30 4789 H 466.503 0.242448 -0.700214 0
M  V30 4790 H 469.15 -0.0778629 -1.91342 0
M  V30 4791 H 467.455 2.14168 -3.28084 0
M  V30 4792 H 469.152 1.86001 -3.55253 0
M  V30 4793 H 465.742 0.603723 -4.24327 0
M  V30 4794 H 469.926 -0.062883 -4.9626 0
M  V30 4795 H 465.182 -0.984154 -6.03427 0
M  V30 4796 H 469.356 -1.64637 -6.76659 0
M  V30 4797 H 466.983 -2.11306 -7.30242 0
M  V30 4798 N 468.558 1.5553 0.254621 0
M  V30 4799 C 469.783 1.81383 1.00573 0
M  V30 4800 C 470.208 0.594419 1.78461 0
M  V30 4801 O 469.566 -0.456403 1.75461 0
M  V30 4802 C 469.614 3.04892 1.92545 0
M  V30 4803 O 468.718 2.81266 3.01601 0
M  V30 4804 H 468.059 0.598969 0.286587 0
M  V30 4805 H 470.589 2.02703 0.277952 0
M  V30 4806 H 470.599 3.34119 2.34155 0
M  V30 4807 H 469.274 3.93287 1.3527 0
M  V30 4808 H 467.851 2.63185 2.64174 0
M  V30 4809 N 470.036 -0.519951 1.48776 0
M  V30 4810 C 471.285 -1.27175 1.56555 0
M  V30 4811 C 471.598 -1.9401 0.248869 0
M  V30 4812 O 472.804 -2.70725 0.205004 0
M  V30 4813 C 471.26 -2.30811 2.76142 0
M  V30 4814 C 470.868 -1.7 4.14493 0
M  V30 4815 C 472.612 -3.06937 2.9324 0
M  V30 4816 C 470.519 -2.71635 5.25327 0
M  V30 4817 H 469.449 -0.478329 0.582853 0
M  V30 4818 H 472.1 -0.547916 1.75129 0
M  V30 4819 H 470.482 -3.06274 2.51023 0
M  V30 4820 H 471.656 -1.00658 4.49672 0
M  V30 4821 H 469.971 -1.06331 4.02595 0
M  V30 4822 H 472.568 -3.82905 3.73213 0
M  V30 4823 H 472.911 -3.63409 2.03075 0
M  V30 4824 H 473.444 -2.38589 3.18308 0
M  V30 4825 H 470.183 -2.1997 6.1749 0
M  V30 4826 H 469.703 -3.39275 4.94624 0
M  V30 4827 H 471.382 -3.34429 5.53865 0
M  V30 4828 N 471.514 -1.37532 -0.769588 0
M  V30 4829 C 472.739 -1.36231 -1.56384 0
M  V30 4830 C 473.164 0.0495849 -1.88035 0
M  V30 4831 O 472.522 1.02723 -1.49391 0
M  V30 4832 C 472.57 -2.20986 -2.84952 0
M  V30 4833 O 471.674 -1.61597 -3.79421 0
M  V30 4834 H 471.015 -0.465387 -0.473615 0
M  V30 4835 H 473.545 -1.81085 -0.952342 0
M  V30 4836 H 473.555 -2.34277 -3.34034 0
M  V30 4837 H 472.23 -3.23612 -2.61243 0
M  V30 4838 H 470.807 -1.57359 -3.38072 0
M  V30 4839 N 472.992 0.995999 -1.22138 0
M  V30 4840 C 473.922 2.10387 -1.01289 0
M  V30 4841 C 474.903 1.69975 0.0651454 0
M  V30 4842 O 476.088 1.9396 -0.0964628 0
M  V30 4843 C 473.218 3.42312 -0.586517 0
M  V30 4844 C 472.172 3.96558 -1.61014 0
M  V30 4845 C 471.498 5.24494 -1.0397 0
M  V30 4846 C 472.798 4.27595 -2.99933 0
M  V30 4847 H 474.492 2.28086 -1.93951 0
M  V30 4848 H 472.038 1.09607 -0.933928 0
M  V30 4849 H 473.991 4.19223 -0.427793 0
M  V30 4850 H 472.715 3.24431 0.375761 0
M  V30 4851 H 471.374 3.21776 -1.75658 0
M  V30 4852 H 471.022 5.02953 -0.0688703 0
M  V30 4853 H 470.722 5.61755 -1.72352 0
M  V30 4854 H 472.246 6.04042 -0.892494 0
M  V30 4855 H 473.66 4.95315 -2.8868 0
M  V30 4856 H 472.057 4.76021 -3.6541 0
M  V30 4857 H 473.127 3.35498 -3.50099 0
M  V30 4858 N 474.47 1.03057 1.19235 0
M  V30 4859 C 475.716 0.738841 1.89506 0
M  V30 4860 C 476.071 -0.724807 1.78225 0
M  V30 4861 O 475.364 -1.52118 1.16494 0
M  V30 4862 C 475.558 1.1268 3.39172 0
M  V30 4863 C 475.387 2.62662 3.65019 0
M  V30 4864 C 474.157 3.29658 3.82954 0
M  V30 4865 C 476.355 3.60873 3.66436 0
M  V30 4866 N 474.337 4.68726 3.96446 0
M  V30 4867 C 475.708 4.85566 3.8552 0
M  V30 4868 C 477.763 3.54647 3.49471 0
M  V30 4869 C 476.466 6.04783 3.89397 0
M  V30 4870 C 478.492 4.73281 3.54625 0
M  V30 4871 C 477.854 5.96789 3.74196 0
M  V30 4872 H 473.953 0.322256 0.712513 0
M  V30 4873 H 476.537 1.31822 1.43287 0
M  V30 4874 H 474.708 0.575612 3.84111 0
M  V30 4875 H 476.44 0.787145 3.96971 0
M  V30 4876 H 473.195 2.8007 3.81913 0
M  V30 4877 H 473.619 5.40971 4.07037 0
M  V30 4878 H 478.261 2.60143 3.33295 0
M  V30 4879 H 475.979 6.99654 4.04364 0
M  V30 4880 H 479.565 4.70094 3.42787 0
M  V30 4881 H 478.445 6.87051 3.78061 0
M  V30 4882 N 475.948 -1.35272 0.808662 0
M  V30 4883 C 477.197 -1.97963 0.386483 0
M  V30 4884 C 477.51 -1.64866 -1.05255 0
M  V30 4885 O 478.716 -2.20937 -1.57794 0
M  V30 4886 C 477.172 -3.54162 0.640096 0
M  V30 4887 C 476.78 -3.96166 2.0918 0
M  V30 4888 C 478.524 -4.23553 0.283376 0
M  V30 4889 C 476.431 -5.4522 2.29106 0
M  V30 4890 H 475.361 -0.740742 0.140774 0
M  V30 4891 H 478.012 -1.5431 0.993012 0
M  V30 4892 H 476.394 -3.95983 -0.0364117 0
M  V30 4893 H 477.568 -3.65491 2.80629 0
M  V30 4894 H 475.883 -3.3967 2.40859 0
M  V30 4895 H 478.48 -5.33124 0.410273 0
M  V30 4896 H 478.823 -4.09105 -0.770659 0
M  V30 4897 H 479.356 -3.8716 0.913884 0
M  V30 4898 H 476.095 -5.64638 3.32962 0
M  V30 4899 H 475.615 -5.77457 1.62184 0
M  V30 4900 H 477.294 -6.1171 2.1076 0
M  V30 4901 N 477.426 -0.562348 -1.47226 0
M  V30 4902 C 478.675 -0.038041 -2.01664 0
M  V30 4903 C 478.988 1.32199 -1.44162 0
M  V30 4904 O 480.194 1.9365 -1.90294 0
M  V30 4905 C 478.65 -0.0174958 -3.59896 0
M  V30 4906 C 478.258 -1.3746 -4.2639 0
M  V30 4907 C 480.002 0.453934 -4.22066 0
M  V30 4908 C 477.909 -1.31289 -5.76643 0
M  V30 4909 H 476.839 -0.0104511 -0.753928 0
M  V30 4910 H 479.49 -0.710966 -1.69167 0
M  V30 4911 H 477.872 0.721182 -3.89378 0
M  V30 4912 H 479.046 -2.1314 -4.08544 0
M  V30 4913 H 477.361 -1.78438 -3.7623 0
M  V30 4914 H 479.958 0.518584 -5.32179 0
M  V30 4915 H 480.301 1.46706 -3.89594 0
M  V30 4916 H 480.834 -0.230044 -3.97134 0
M  V30 4917 H 477.573 -2.30217 -6.13743 0
M  V30 4918 H 477.093 -0.597973 -5.96812 0
M  V30 4919 H 478.772 -1.01713 -6.38955 0
M  V30 4920 N 478.904 1.54736 -0.299062 0
M  V30 4921 C 479.867 2.22127 0.565012 0
M  V30 4922 C 480.867 1.20669 1.06281 0
M  V30 4923 O 482.057 1.45417 0.959145 0
M  V30 4924 C 479.189 2.90611 1.78208 0
M  V30 4925 H 480.382 2.99891 -0.0237448 0
M  V30 4926 H 477.935 1.5622 -0.0498788 0
M  V30 4927 H 478.67 2.16921 2.41072 0
M  V30 4928 H 478.455 3.64984 1.43281 0
M  V30 4929 H 479.945 3.42026 2.396 0
M  V30 4930 N 480.382 0.0267497 1.57577 0
M  V30 4931 C 481.345 -0.940916 2.08996 0
M  V30 4932 C 482.345 -1.25561 1.00455 0
M  V30 4933 O 483.535 -1.19634 1.26623 0
M  V30 4934 C 480.667 -2.25814 2.55384 0
M  V30 4935 H 481.86 -0.495628 2.95776 0
M  V30 4936 H 479.413 -0.221241 1.54726 0
M  V30 4937 H 480.148 -2.74976 1.71926 0
M  V30 4938 H 479.933 -2.04285 3.34679 0
M  V30 4939 H 481.423 -2.95178 2.95398 0
M  V30 4940 N 481.861 -1.55662 -0.24637 0
M  V30 4941 C 483.107 -1.78698 -0.971525 0
M  V30 4942 C 483.462 -0.59577 -1.82944 0
M  V30 4943 O 482.755 0.41097 -1.87141 0
M  V30 4944 C 482.949 -3.04885 -1.86494 0
M  V30 4945 C 482.778 -4.36165 -1.09501 0
M  V30 4946 C 481.548 -4.98929 -0.799895 0
M  V30 4947 C 483.746 -5.12126 -0.472334 0
M  V30 4948 N 481.728 -6.139 -0.00595299 0
M  V30 4949 C 483.099 -6.1972 0.18616 0
M  V30 4950 C 485.154 -4.96426 -0.382854 0
M  V30 4951 C 483.857 -7.13321 0.925542 0
M  V30 4952 C 485.883 -5.90405 0.342999 0
M  V30 4953 C 485.245 -6.97407 0.990128 0
M  V30 4954 H 481.344 -0.705852 -0.336597 0
M  V30 4955 H 483.928 -1.93157 -0.244615 0
M  V30 4956 H 482.099 -2.91753 -2.56388 0
M  V30 4957 H 483.831 -3.16212 -2.5257 0
M  V30 4958 H 480.586 -4.60365 -1.11181 0
M  V30 4959 H 481.01 -6.75938 0.379127 0
M  V30 4960 H 485.652 -4.13777 -0.868834 0
M  V30 4961 H 483.37 -7.9547 1.42312 0
M  V30 4962 H 486.956 -5.80333 0.412907 0
M  V30 4963 H 485.836 -7.68874 1.54282 0
M  V30 4964 N 483.339 0.512053 -1.4905 0
M  V30 4965 C 484.567 1.29116 -1.61669 0
M  V30 4966 C 484.982 1.86655 -0.283787 0
M  V30 4967 O 484.339 1.67293 0.729331 0
M  V30 4968 C 484.39 2.4293 -2.67707 0
M  V30 4969 O 484.111 1.87758 -3.95826 0
M  V30 4970 C 485.612 3.34476 -2.90931 0
M  V30 4971 H 482.832 0.392009 -0.544583 0
M  V30 4972 H 485.376 0.615881 -1.95006 0
M  V30 4973 H 483.531 3.06308 -2.37179 0
M  V30 4974 H 483.945 2.62393 -4.54148 0
M  V30 4975 H 485.419 4.10642 -3.68886 0
M  V30 4976 H 485.896 3.90801 -2.00427 0
M  V30 4977 H 486.502 2.76874 -3.22832 0
M  V30 4978 N 484.817 1.37938 0.762283 0
M  V30 4979 C 486.063 1.33866 1.52341 0
M  V30 4980 C 486.396 -0.0738961 1.94059 0
M  V30 4981 O 485.671 -1.03326 1.64785 0
M  V30 4982 C 485.954 2.28644 2.78197 0
M  V30 4983 C 485.807 3.78722 2.42672 0
M  V30 4984 C 487.126 2.21702 3.80179 0
M  V30 4985 H 484.245 0.487593 0.55265 0
M  V30 4986 H 486.887 1.68717 0.873767 0
M  V30 4987 H 485.037 1.99055 3.33631 0
M  V30 4988 H 486.709 4.18948 1.93081 0
M  V30 4989 H 484.952 3.96827 1.75244 0
M  V30 4990 H 485.623 4.40486 3.3268 0
M  V30 4991 H 488.099 2.47805 3.34263 0
M  V30 4992 H 486.975 2.90143 4.65949 0
M  V30 4993 H 487.236 1.21301 4.25133 0
M  V30 4994 N 486.295 -0.989507 1.22664 0
M  V30 4995 C 487.711 -1.25395 0.987331 0
M  V30 4996 C 487.911 -1.9899 -0.317056 0
M  V30 4997 O 486.967 -2.30141 -1.03882 0
M  V30 4998 C 488.28 -2.06242 2.18826 0
M  V30 4999 C 489.828 -2.19413 2.23219 0
M  V30 5000 C 490.303 -3.03648 3.42873 0
M  V30 5001 N 491.794 -3.11234 3.43056 0
M  V30 5002 C 492.529 -3.7671 4.32293 0
M  V30 5003 N 492.025 -4.44085 5.31752 0
M  V30 5004 N 493.818 -3.73505 4.2006 0
M  V30 5005 H 485.969 -0.496212 2.06522 0
M  V30 5006 H 488.232 -0.281784 0.905153 0
M  V30 5007 H 487.938 -1.59531 3.13437 0
M  V30 5008 H 487.812 -3.06996 2.19165 0
M  V30 5009 H 490.199 -2.65336 1.29154 0
M  V30 5010 H 490.28 -1.18078 2.26917 0
M  V30 5011 H 489.924 -2.58424 4.37241 0
M  V30 5012 H 489.854 -4.05132 3.36416 0
M  V30 5013 H 492.345 -2.63287 2.71088 0
M  V30 5014 H 492.658 -4.91797 5.96117 0
M  V30 5015 H 491.003 -4.42822 5.35662 0
M  V30 5016 H 494.194 -3.20033 3.41609 0
M  V30 5017 H 494.367 -4.24253 4.8981 0
M  V30 5018 N 487.773 -1.03688 -1.18687 0
M  V30 5019 C 488.736 -0.629115 -2.20397 0
M  V30 5020 C 489.736 0.311495 -1.57754 0
M  V30 5021 O 490.926 0.0974107 -1.73927 0
M  V30 5022 C 488.058 0.0782231 -3.4081 0
M  V30 5023 H 489.251 -1.52915 -2.57987 0
M  V30 5024 H 486.804 -0.828988 -1.32505 0
M  V30 5025 H 487.539 0.992233 -3.08748 0
M  V30 5026 H 487.324 -0.597776 -3.87517 0
M  V30 5027 H 488.814 0.350156 -4.16129 0
M  V30 5028 N 489.251 1.34841 -0.815825 0
M  V30 5029 C 490.491 2.00321 -0.406297 0
M  V30 5030 C 490.855 1.63293 1.00992 0
M  V30 5031 O 492.056 2.21563 1.52195 0
M  V30 5032 C 490.327 3.52421 -0.594469 0
M  V30 5033 S 491.886 4.37926 -0.276735 0
M  V30 5034 H 488.704 0.694155 -0.153848 0
M  V30 5035 H 491.306 1.64263 -1.06009 0
M  V30 5036 H 490.01 3.76858 -1.625 0
M  V30 5037 H 489.541 3.9333 0.0743157 0
M  V30 5038 H 491.556 4.87743 0.912215 0
M  V30 5039 N 490.729 0.570148 1.46925 0
M  V30 5040 C 491.639 -0.173061 2.33961 0
M  V30 5041 C 492.655 -0.898825 1.48987 0
M  V30 5042 O 493.831 -0.864825 1.81887 0
M  V30 5043 C 490.896 -1.18177 3.25937 0
M  V30 5044 C 489.957 -0.462041 4.26806 0
M  V30 5045 C 489.19 -1.4227 5.14388 0
M  V30 5046 O 489.413 -2.65842 5.04662 0
M  V30 5047 O 488.347 -0.940127 5.94513 0
M  V30 5048 H 492.173 0.541216 2.98839 0
M  V30 5049 H 489.758 0.330647 1.45695 0
M  V30 5050 H 491.64 -1.76372 3.82715 0
M  V30 5051 H 490.315 -1.87774 2.63671 0
M  V30 5052 H 489.222 0.161429 3.73752 0
M  V30 5053 H 490.555 0.192719 4.91823 0
M  V30 5054 N 492.207 -1.54576 0.307264 0
M  V30 5055 C 493.623 -1.59534 -0.0459251 0
M  V30 5056 C 493.823 -1.32414 -1.51884 0
M  V30 5057 O 492.879 -1.1006 -2.27251 0
M  V30 5058 C 494.192 -2.98566 0.357649 0
M  V30 5059 C 495.74 -3.11491 0.306937 0
M  V30 5060 C 496.215 -4.52842 0.685427 0
M  V30 5061 N 497.706 -4.58782 0.638203 0
M  V30 5062 C 498.441 -5.66238 0.903458 0
M  V30 5063 N 497.937 -6.81703 1.23501 0
M  V30 5064 N 499.73 -5.55937 0.830102 0
M  V30 5065 H 491.881 -1.70464 1.26712 0
M  V30 5066 H 494.144 -0.79647 0.514139 0
M  V30 5067 H 493.85 -3.23356 1.38325 0
M  V30 5068 H 493.724 -3.76117 -0.285565 0
M  V30 5069 H 496.111 -2.86446 -0.709424 0
M  V30 5070 H 496.192 -2.36081 0.984861 0
M  V30 5071 H 495.836 -4.78618 1.69963 0
M  V30 5072 H 495.766 -5.26598 -0.0146346 0
M  V30 5073 H 498.257 -3.75849 0.393138 0
M  V30 5074 H 498.57 -7.59582 1.42322 0
M  V30 5075 H 496.915 -6.8324 1.27311 0
M  V30 5076 H 500.106 -4.64608 0.570693 0
M  V30 5077 H 500.279 -6.39597 1.04019 0
M  V30 5078 N 493.685 -0.035106 -1.57561 0
M  V30 5079 C 494.915 0.651312 -1.96065 0
M  V30 5080 C 495.323 1.6585 -0.910514 0
M  V30 5081 O 494.666 1.83336 0.11552 0
M  V30 5082 C 494.728 1.40897 -3.30739 0
M  V30 5083 C 494.392 0.559436 -4.53563 0
M  V30 5084 C 495.389 -0.16778 -5.19629 0
M  V30 5085 C 493.074 0.495079 -4.99854 0
M  V30 5086 C 495.068 -0.947963 -6.30311 0
M  V30 5087 C 492.755 -0.288804 -6.10417 0
M  V30 5088 C 493.753 -1.00903 -6.75505 0
M  V30 5089 O 493.441 -1.78005 -7.83945 0
M  V30 5090 H 493.173 0.184036 -0.650467 0
M  V30 5091 H 495.727 -0.0929677 -2.05189 0
M  V30 5092 H 493.957 2.19852 -3.18123 0
M  V30 5093 H 495.646 1.98407 -3.54104 0
M  V30 5094 H 496.412 -0.12743 -4.84833 0
M  V30 5095 H 492.291 1.04524 -4.48994 0
M  V30 5096 H 495.835 -1.51064 -6.81047 0
M  V30 5097 H 491.732 -0.33085 -6.44652 0
M  V30 5098 H 492.5 -1.70046 -8.00641 0
M  V30 5099 N 495.163 1.55791 0.238111 0
M  V30 5100 C 496.113 1.87444 1.29803 0
M  V30 5101 C 497.097 0.736043 1.43078 0
M  V30 5102 O 498.289 0.998146 1.46171 0
M  V30 5103 C 495.418 2.18028 2.65177 0
M  V30 5104 C 494.504 3.38217 2.55871 0
M  V30 5105 N 494.895 4.57264 2.16202 0
M  V30 5106 C 493.193 3.41502 2.86866 0
M  V30 5107 C 493.894 5.3941 2.17744 0
M  V30 5108 N 492.87 4.78695 2.57589 0
M  V30 5109 H 496.672 2.7701 0.981965 0
M  V30 5110 H 494.186 1.56135 0.44672 0
M  V30 5111 H 496.183 2.38873 3.4168 0
M  V30 5112 H 494.843 1.29765 2.97643 0
M  V30 5113 H 495.854 4.82727 1.87602 0
M  V30 5114 H 492.531 2.63536 3.23813 0
M  V30 5115 H 493.921 6.44671 1.89339 0
M  V30 5116 N 496.642 -0.504142 1.49319 0
M  V30 5117 C 497.919 -1.26548 1.49147 0
M  V30 5118 C 498.299 -2.09977 0.21744 0
M  V30 5119 O 497.647 -2.14028 -0.800269 0
M  V30 5120 C 497.857 -2.12489 2.76857 0
M  V30 5121 C 499.205 -2.7178 3.26222 0
M  V30 5122 O 500.229 -2.22758 2.77952 0
M  V30 5123 O 499.088 -3.61015 4.10281 0
M  V30 5124 H 496.182 -0.572495 0.596806 0
M  V30 5125 H 498.728 -0.51867 1.61579 0
M  V30 5126 H 497.5 -1.50796 3.61077 0
M  V30 5127 H 497.123 -2.94368 2.6727 0
M  V30 5128 N 498.12 -1.38341 -0.754957 0
M  V30 5129 C 499.052 -1.31347 -1.87831 0
M  V30 5130 C 500.065 -0.225955 -1.61224 0
M  V30 5131 O 501.254 -0.48341 -1.7183 0
M  V30 5132 C 498.354 -1.01201 -3.23437 0
M  V30 5133 C 497.527 -2.20834 -3.77559 0
M  V30 5134 C 496.586 -1.87454 -4.91678 0
M  V30 5135 O 495.612 -2.59934 -5.06382 0
M  V30 5136 N 496.814 -0.828682 -5.74555 0
M  V30 5137 H 499.579 -2.28147 -1.94342 0
M  V30 5138 H 497.14 -1.32184 -0.934828 0
M  V30 5139 H 499.132 -0.769249 -3.97322 0
M  V30 5140 H 497.702 -0.132011 -3.12321 0
M  V30 5141 H 496.922 -2.61184 -2.95256 0
M  V30 5142 H 498.21 -3.00678 -4.10451 0
M  V30 5143 H 497.608 -0.227591 -5.65242 0
M  V30 5144 H 496.165 -0.645802 -6.48593 0
M  V30 5145 N 499.598 0.982988 -1.23187 0
M  V30 5146 C 500.53 2.07729 -0.968572 0
M  V30 5147 C 501.543 1.62702 0.0564821 0
M  V30 5148 O 502.732 1.77603 -0.178733 0
M  V30 5149 C 499.832 3.36071 -0.436974 0
M  V30 5150 C 499.005 4.10081 -1.52159 0
M  V30 5151 C 498.064 5.16701 -0.99532 0
M  V30 5152 O 497.09 5.43727 -1.68373 0
M  V30 5153 N 498.292 5.80226 0.178192 0
M  V30 5154 H 501.057 2.30894 -1.9107 0
M  V30 5155 H 498.618 1.14949 -1.1401 0
M  V30 5156 H 500.61 4.04639 -0.0700051 0
M  V30 5157 H 499.18 3.09893 0.410509 0
M  V30 5158 H 498.4 3.36004 -2.06144 0
M  V30 5159 H 499.688 4.56295 -2.25105 0
M  V30 5160 H 499.086 5.60651 0.754096 0
M  V30 5161 H 497.643 6.49982 0.486449 0
M  V30 5162 N 501.076 1.04316 1.18135 0
M  V30 5163 C 502.353 0.662166 1.84051 0
M  V30 5164 C 502.733 -0.858169 1.9287 0
M  V30 5165 O 502.081 -1.76062 1.45652 0
M  V30 5166 C 502.291 1.3409 3.22212 0
M  V30 5167 C 503.639 1.4733 3.9822 0
M  V30 5168 O 504.663 1.29921 3.31661 0
M  V30 5169 O 503.522 1.75722 5.17479 0
M  V30 5170 H 500.616 0.232005 0.79379 0
M  V30 5171 H 503.162 1.1422 1.25506 0
M  V30 5172 H 501.934 2.37853 3.10711 0
M  V30 5173 H 501.557 0.849649 3.88416 0
M  V30 5174 N 502.554 -1.34406 0.822964 0
M  V30 5175 C 503.8 -1.98578 0.411666 0
M  V30 5176 C 504.133 -1.65093 -1.02264 0
M  V30 5177 O 503.408 -0.92258 -1.71227 0
M  V30 5178 C 503.691 -3.54823 0.614235 0
M  V30 5179 C 503.544 -3.9805 2.09466 0
M  V30 5180 C 504.863 -4.40071 0.050221 0
M  V30 5181 H 501.982 -0.721355 0.151047 0
M  V30 5182 H 504.624 -1.59301 1.03554 0
M  V30 5183 H 502.774 -3.88411 0.0831774 0
M  V30 5184 H 504.446 -3.74795 2.68936 0
M  V30 5185 H 502.689 -3.4836 2.5851 0
M  V30 5186 H 503.36 -5.06819 2.18721 0
M  V30 5187 H 505.836 -4.13037 0.503953 0
M  V30 5188 H 504.712 -5.48452 0.221759 0
M  V30 5189 H 504.973 -4.29576 -1.04482 0
M  V30 5190 N 504.032 -0.577932 -1.46621 0
M  V30 5191 C 505.26 -0.0671642 -2.06791 0
M  V30 5192 C 505.675 1.23571 -1.42743 0
M  V30 5193 O 505.032 1.74602 -0.531062 0
M  V30 5194 C 505.083 0.110357 -3.61332 0
M  V30 5195 O 504.804 -1.14095 -4.22982 0
M  V30 5196 C 506.305 0.656025 -4.38419 0
M  V30 5197 H 503.525 -0.0552732 -0.66872 0
M  V30 5198 H 506.069 -0.797242 -1.8832 0
M  V30 5199 H 504.224 0.790637 -3.79246 0
M  V30 5200 H 504.638 -0.951742 -5.15793 0
M  V30 5201 H 506.112 0.729438 -5.47159 0
M  V30 5202 H 506.589 1.67195 -4.06131 0
M  V30 5203 H 507.195 0.0107692 -4.25299 0
M  V30 5204 N 505.51 1.54411 -0.315457 0
M  V30 5205 C 506.735 2.05299 0.294496 0
M  V30 5206 C 507.16 1.19052 1.4563 0
M  V30 5207 O 506.518 0.197804 1.80218 0
M  V30 5208 C 506.566 3.5345 0.714549 0
M  V30 5209 O 505.67 3.70175 1.81781 0
M  V30 5210 H 505.011 0.661743 0.0547019 0
M  V30 5211 H 507.541 1.99327 -0.461508 0
M  V30 5212 H 507.551 3.9557 0.999426 0
M  V30 5213 H 506.226 4.1568 -0.135244 0
M  V30 5214 H 504.803 3.3996 1.53236 0
M  V30 5215 N 506.988 0.0434614 1.5754 0
M  V30 5216 C 507.936 -0.951465 2.1225 0
M  V30 5217 C 508.93 -1.3274 1.05245 0
M  V30 5218 O 510.136 -1.30795 1.23663 0
M  V30 5219 H 506.511 -0.324667 0.678303 0
M  V30 5220 H 508.482 -0.464855 2.94757 0
M  V30 5221 C 507.231 -2.21972 2.67626 0
M  V30 5222 H 506.554 -1.93923 3.4962 0
M  V30 5223 H 507.994 -2.89765 3.09536 0
M  V30 5224 C 506.453 -2.95919 1.61038 0
M  V30 5225 O 506.983 -3.8857 1.01862 0
M  V30 5226 N 505.189 -2.58511 1.32741 0
M  V30 5227 H 504.736 -1.83244 1.81051 0
M  V30 5228 H 504.694 -3.08296 0.616531 0
M  V30 5229 N 508.466 -1.55915 -0.229846 0
M  V30 5230 C 509.713 -1.78542 -0.955452 0
M  V30 5231 C 510.041 -0.610785 -1.84661 0
M  V30 5232 O 509.296 0.405213 -1.91459 0
M  V30 5233 C 509.595 -3.06845 -1.8325 0
M  V30 5234 C 509.261 -4.37395 -1.09528 0
M  V30 5235 C 507.923 -4.72868 -0.891598 0
M  V30 5236 C 510.275 -5.18029 -0.574046 0
M  V30 5237 C 507.603 -5.86496 -0.154655 0
M  V30 5238 C 509.955 -6.32423 0.149513 0
M  V30 5239 C 508.619 -6.66504 0.364519 0
M  V30 5240 H 507.889 -0.653333 -0.349625 0
M  V30 5241 H 510.536 -1.90183 -0.224235 0
M  V30 5242 H 508.841 -2.90291 -2.63132 0
M  V30 5243 H 510.538 -3.21553 -2.39592 0
M  V30 5244 H 507.128 -4.09538 -1.26399 0
M  V30 5245 H 511.312 -4.91066 -0.718899 0
M  V30 5246 H 506.568 -6.11396 0.0222356 0
M  V30 5247 H 510.742 -6.94137 0.560947 0
M  V30 5248 H 508.369 -7.54397 0.937495 0
M  V30 5249 N 509.944 0.496216 -1.49584 0
M  V30 5250 C 510.874 1.60576 -1.69521 0
M  V30 5251 C 511.855 1.61169 -0.543933 0
M  V30 5252 O 513.04 1.77834 -0.78031 0
M  V30 5253 C 510.17 2.99038 -1.76616 0
M  V30 5254 C 509.124 3.13312 -2.91581 0
M  V30 5255 C 508.45 4.53172 -2.83794 0
M  V30 5256 C 509.75 2.92886 -4.32452 0
M  V30 5257 H 511.444 1.44146 -2.62416 0
M  V30 5258 H 508.99 0.692024 -1.26282 0
M  V30 5259 H 510.943 3.76564 -1.8915 0
M  V30 5260 H 509.667 3.16568 -0.80324 0
M  V30 5261 H 508.326 2.38213 -2.78658 0
M  V30 5262 H 507.974 4.67585 -1.854 0
M  V30 5263 H 507.674 4.63662 -3.60958 0
M  V30 5264 H 509.198 5.32752 -2.98342 0
M  V30 5265 H 510.612 3.60178 -4.46032 0
M  V30 5266 H 509.009 3.14844 -5.10875 0
M  V30 5267 H 510.079 1.88966 -4.46565 0
M  V30 5268 N 511.423 1.38739 0.74761 0
M  V30 5269 C 512.671 1.35007 1.50391 0
M  V30 5270 C 512.992 -0.0574274 1.94915 0
M  V30 5271 O 512.262 -1.00628 1.6808 0
M  V30 5272 H 510.842 0.496784 0.557866 0
M  V30 5273 H 513.504 1.73479 0.888319 0
M  V30 5274 H 512.6 2.00474 2.392 0
M  V30 5275 N 512.901 -0.976442 1.23707 0
M  V30 5276 C 513.864 -2.0511 1.02287 0
M  V30 5277 C 514.864 -1.60791 -0.0167195 0
M  V30 5278 O 516.054 -1.72761 0.223408 0
M  V30 5279 C 513.186 -3.36458 0.548507 0
M  V30 5280 H 514.379 -2.25545 1.9766 0
M  V30 5281 H 511.932 -1.15042 1.05806 0
M  V30 5282 H 512.667 -3.21713 -0.408818 0
M  V30 5283 H 512.452 -3.69967 1.29874 0
M  V30 5284 H 513.942 -4.15489 0.419406 0
M  V30 5285 N 514.379 -1.04941 -1.1758 0
M  V30 5286 C 515.312 -0.592518 -2.20373 0
M  V30 5287 C 516.29 0.377561 -1.58156 0
M  V30 5288 O 517.474 0.28978 -1.86259 0
M  V30 5289 C 514.601 0.133215 -3.38438 0
M  V30 5290 C 513.647 -0.791484 -4.19092 0
M  V30 5291 S 514.48 -2.27925 -4.84572 0
M  V30 5292 C 515.636 -1.56462 -6.06028 0
M  V30 5293 H 515.869 -1.46342 -2.58788 0
M  V30 5294 H 513.402 -0.861148 -1.28155 0
M  V30 5295 H 515.36 0.545746 -4.06856 0
M  V30 5296 H 514.021 0.980124 -2.98416 0
M  V30 5297 H 513.214 -0.230039 -5.03475 0
M  V30 5298 H 512.816 -1.14326 -3.56098 0
M  V30 5299 H 515.108 -0.862539 -6.71987 0
M  V30 5300 H 516.051 -2.38583 -6.66696 0
M  V30 5301 H 516.459 -1.05313 -5.5459 0
M  V30 5302 N 515.857 1.33968 -0.830081 0
M  V30 5303 C 517.103 1.98773 -0.431394 0
M  V30 5304 C 517.458 1.64598 0.99626 0
M  V30 5305 O 516.751 0.911022 1.68555 0
M  V30 5306 C 516.945 3.52679 -0.57898 0
M  V30 5307 C 516.774 4.01807 -2.01943 0
M  V30 5308 C 515.544 4.30062 -2.65282 0
M  V30 5309 C 517.742 4.18663 -2.98707 0
M  V30 5310 N 515.724 4.65272 -4.00493 0
M  V30 5311 C 517.095 4.57133 -4.18843 0
M  V30 5312 C 519.15 4.00929 -2.95229 0
M  V30 5313 C 517.853 4.79723 -5.35965 0
M  V30 5314 C 519.879 4.2469 -4.11573 0
M  V30 5315 C 519.241 4.63454 -5.30462 0
M  V30 5316 H 515.34 0.75435 -0.206107 0
M  V30 5317 H 517.924 1.62247 -1.07629 0
M  V30 5318 H 516.095 3.88383 0.0360632 0
M  V30 5319 H 517.827 4.04412 -0.152596 0
M  V30 5320 H 514.582 4.21231 -2.16475 0
M  V30 5321 H 515.006 4.87101 -4.70172 0
M  V30 5322 H 519.648 3.70082 -2.04448 0
M  V30 5323 H 517.366 5.09434 -6.27297 0
M  V30 5324 H 520.952 4.12497 -4.10289 0
M  V30 5325 H 519.832 4.81476 -6.18992 0
M  V30 5326 N 517.335 0.585699 1.46312 0
M  V30 5327 C 518.265 -0.133556 2.33118 0
M  V30 5328 C 519.246 -0.880707 1.45525 0
M  V30 5329 O 520.431 -0.855579 1.74337 0
M  V30 5330 C 517.561 -1.14585 3.27853 0
M  V30 5331 C 516.515 -0.513341 4.2491 0
M  V30 5332 C 515.841 -1.63231 5.09175 0
M  V30 5333 C 517.141 0.551413 5.19381 0
M  V30 5334 H 518.835 0.59121 2.93505 0
M  V30 5335 H 516.381 0.285761 1.41136 0
M  V30 5336 H 518.334 -1.65741 3.87438 0
M  V30 5337 H 517.058 -1.90093 2.65579 0
M  V30 5338 H 515.717 -0.0228349 3.66593 0
M  V30 5339 H 515.365 -2.37713 4.43285 0
M  V30 5340 H 515.065 -1.21473 5.74907 0
M  V30 5341 H 516.589 -2.14658 5.71624 0
M  V30 5342 H 518.003 0.124804 5.73164 0
M  V30 5343 H 516.4 0.889486 5.93471 0
M  V30 5344 H 517.47 1.43655 4.63132 0
M  V30 5345 N 518.813 -1.54241 0.323641 0
M  V30 5346 C 520.062 -1.9975 -0.279806 0
M  V30 5347 C 520.375 -1.2156 -1.5324 0
M  V30 5348 O 521.581 -1.57447 -2.21185 0
M  V30 5349 C 520.037 -3.55686 -0.549115 0
M  V30 5350 C 519.645 -4.4271 0.686432 0
M  V30 5351 C 521.389 -4.09663 -1.11251 0
M  V30 5352 C 519.296 -5.90119 0.389022 0
M  V30 5353 H 518.226 -0.746177 -0.10833 0
M  V30 5354 H 520.877 -1.78248 0.435877 0
M  V30 5355 H 519.259 -3.73176 -1.32499 0
M  V30 5356 H 520.433 -4.36996 1.46188 0
M  V30 5357 H 518.748 -3.99623 1.17005 0
M  V30 5358 H 521.345 -5.17386 -1.34965 0
M  V30 5359 H 521.688 -3.61651 -2.06191 0
M  V30 5360 H 522.221 -3.95806 -0.39782 0
M  V30 5361 H 518.96 -6.42326 1.30759 0
M  V30 5362 H 518.48 -5.98785 -0.348722 0
M  V30 5363 H 520.159 -6.47 -0.0011164 0
M  V30 5364 N 520.291 -0.0518155 -1.57515 0
M  V30 5365 C 521.516 0.634896 -1.97443 0
M  V30 5366 C 521.941 1.63546 -0.929207 0
M  V30 5367 O 521.299 1.80981 0.107484 0
M  V30 5368 C 521.347 1.29765 -3.36442 0
M  V30 5369 O 520.451 2.41333 -3.34413 0
M  V30 5370 H 519.792 0.164994 -0.643174 0
M  V30 5371 H 522.322 -0.120407 -2.04245 0
M  V30 5372 H 522.332 1.64918 -3.73184 0
M  V30 5373 H 521.007 0.564361 -4.12053 0
M  V30 5374 H 519.584 2.08122 -3.09418 0
M  V30 5375 N 521.769 1.56035 0.221574 0
M  V30 5376 C 523.018 1.78245 0.944016 0
M  V30 5377 C 523.331 0.620371 1.85501 0
M  V30 5378 O 524.537 0.726103 2.6161 0
M  V30 5379 C 522.993 3.15659 1.7288 0
M  V30 5380 C 522.601 4.39591 0.863942 0
M  V30 5381 C 524.345 3.47195 2.44246 0
M  V30 5382 C 522.252 5.6803 1.64607 0
M  V30 5383 H 521.182 0.664547 0.356222 0
M  V30 5384 H 523.833 1.8243 0.197904 0
M  V30 5385 H 522.215 3.0565 2.51781 0
M  V30 5386 H 523.389 4.60655 0.115464 0
M  V30 5387 H 521.704 4.15572 0.262407 0
M  V30 5388 H 524.301 4.40381 3.03263 0
M  V30 5389 H 524.644 2.69693 3.1713 0
M  V30 5390 H 525.177 3.58533 1.72334 0
M  V30 5391 H 521.916 6.48425 0.960507 0
M  V30 5392 H 521.436 5.51027 2.36917 0
M  V30 5393 H 523.115 6.08203 2.20675 0
M  V30 5394 N 523.247 -0.488276 1.49845 0
M  V30 5395 C 524.475 -1.26527 1.63702 0
M  V30 5396 C 524.89 -1.8618 0.313447 0
M  V30 5397 O 524.247 -1.68432 -0.702624 0
M  V30 5398 C 524.298 -2.3864 2.71538 0
M  V30 5399 O 524.019 -1.81437 3.98763 0
M  V30 5400 C 525.52 -3.29805 2.96215 0
M  V30 5401 H 522.74 -0.383295 0.55075 0
M  V30 5402 H 525.284 -0.584779 1.95961 0
M  V30 5403 H 523.439 -3.02496 2.42023 0
M  V30 5404 H 523.853 -2.55135 4.58265 0
M  V30 5405 H 525.327 -4.04722 3.75372 0
M  V30 5406 H 525.804 -3.87563 2.06619 0
M  V30 5407 H 526.41 -2.71703 3.27196 0
M  V30 5408 N 524.725 -1.39134 -0.740242 0
M  V30 5409 C 525.972 -1.36071 -1.49969 0
M  V30 5410 C 526.3 0.0450245 -1.94448 0
M  V30 5411 O 525.555 1.02482 -1.66721 0
M  V30 5412 C 525.854 -2.27457 -2.75678 0
M  V30 5413 C 525.52 -3.75185 -2.50094 0
M  V30 5414 C 524.182 -4.15439 -2.42825 0
M  V30 5415 C 526.534 -4.68643 -2.28086 0
M  V30 5416 C 523.862 -5.4722 -2.11584 0
M  V30 5417 C 526.214 -6.00695 -1.98363 0
M  V30 5418 C 524.878 -6.40018 -1.8956 0
M  V30 5419 H 524.148 -0.497921 -0.548777 0
M  V30 5420 H 526.795 -1.71599 -0.85007 0
M  V30 5421 H 525.1 -1.8503 -3.45356 0
M  V30 5422 H 526.797 -2.22384 -3.33686 0
M  V30 5423 H 523.387 -3.43279 -2.56627 0
M  V30 5424 H 527.571 -4.3838 -2.32672 0
M  V30 5425 H 522.827 -5.76615 -2.03287 0
M  V30 5426 H 527.001 -6.72644 -1.80341 0
M  V30 5427 H 524.628 -7.42051 -1.65117 0
M  V30 5428 N 526.204 0.969867 -1.24223 0
M  V30 5429 C 527.134 2.08191 -1.05729 0
M  V30 5430 C 528.115 1.70075 0.0290765 0
M  V30 5431 O 529.3 1.93712 -0.137583 0
M  V30 5432 C 526.43 3.40991 -0.658995 0
M  V30 5433 C 525.384 3.93054 -1.69389 0
M  V30 5434 C 524.71 5.22171 -1.15072 0
M  V30 5435 C 526.01 4.21137 -3.08935 0
M  V30 5436 H 527.704 2.23921 -1.98746 0
M  V30 5437 H 525.25 1.07602 -0.956967 0
M  V30 5438 H 527.203 4.18221 -0.51662 0
M  V30 5439 H 525.927 3.25155 0.30686 0
M  V30 5440 H 524.586 3.17977 -1.82444 0
M  V30 5441 H 524.234 5.02694 -0.175539 0
M  V30 5442 H 523.934 5.57973 -1.84229 0
M  V30 5443 H 525.458 6.02013 -1.02042 0
M  V30 5444 H 526.872 4.8908 -2.99121 0
M  V30 5445 H 525.269 4.68163 -3.75425 0
M  V30 5446 H 526.339 3.27996 -3.57137 0
M  V30 5447 N 527.682 1.05563 1.17022 0
M  V30 5448 C 528.907 0.788437 1.91829 0
M  V30 5449 C 529.332 -0.650356 1.76499 0
M  V30 5450 O 528.69 -1.45229 1.08527 0
M  V30 5451 C 528.738 1.1786 3.40795 0
M  V30 5452 O 527.842 0.312965 4.11211 0
M  V30 5453 H 527.183 0.288794 0.597908 0
M  V30 5454 H 529.713 1.40948 1.48307 0
M  V30 5455 H 529.723 1.14697 3.91546 0
M  V30 5456 H 528.398 2.22666 3.51273 0
M  V30 5457 H 526.975 0.405515 3.70689 0
M  V30 5458 N 529.16 -1.33526 0.837174 0
M  V30 5459 C 530.409 -1.97098 0.428387 0
M  V30 5460 C 530.722 -1.67062 -1.01734 0
M  V30 5461 O 531.928 -2.24235 -1.53072 0
M  V30 5462 C 530.384 -3.52725 0.715075 0
M  V30 5463 C 529.992 -3.9164 2.17537 0
M  V30 5464 C 531.736 -4.22857 0.373154 0
M  V30 5465 C 529.643 -5.40237 2.40619 0
M  V30 5466 H 528.573 -0.737589 0.156455 0
M  V30 5467 H 531.224 -1.52169 1.02552 0
M  V30 5468 H 529.606 -3.95971 0.0475904 0
M  V30 5469 H 530.78 -3.59456 2.88319 0
M  V30 5470 H 529.095 -3.34485 2.4801 0
M  V30 5471 H 531.692 -5.32133 0.523264 0
M  V30 5472 H 532.035 -4.10647 -0.683708 0
M  V30 5473 H 532.568 -3.85135 0.995801 0
M  V30 5474 H 529.307 -5.57449 3.44864 0
M  V30 5475 H 528.827 -5.73887 1.74396 0
M  V30 5476 H 530.506 -6.07102 2.23688 0
M  V30 5477 N 530.638 -0.59345 -1.46 0
M  V30 5478 C 531.886 -0.082988 -2.0193 0
M  V30 5479 C 532.207 1.28569 -1.46612 0
M  V30 5480 O 531.477 1.84629 -0.654909 0
M  V30 5481 H 530.057 -0.0276882 -0.746487 0
M  V30 5482 H 532.719 -0.771657 -1.78973 0
M  V30 5483 H 531.815 -0.022079 -3.12092 0
M  V30 5484 N 532.116 1.54067 -0.331816 0
M  V30 5485 C 533.346 2.04833 0.269605 0
M  V30 5486 C 533.754 1.20714 1.45687 0
M  V30 5487 O 533.097 0.232539 1.82222 0
M  V30 5488 C 533.159 3.51386 0.759499 0
M  V30 5489 C 532.823 4.55971 -0.306557 0
M  V30 5490 C 533.82 5.07126 -1.14538 0
M  V30 5491 C 531.505 5.00216 -0.457116 0
M  V30 5492 C 533.499 6.01096 -2.12042 0
M  V30 5493 C 531.186 5.93999 -1.43556 0
M  V30 5494 C 532.184 6.44326 -2.26568 0
M  V30 5495 O 531.872 7.36267 -3.22749 0
M  V30 5496 H 531.604 0.673509 0.0579763 0
M  V30 5497 H 534.158 1.99748 -0.478521 0
M  V30 5498 H 532.388 3.53896 1.55867 0
M  V30 5499 H 534.077 3.85184 1.28017 0
M  V30 5500 H 534.843 4.73716 -1.04009 0
M  V30 5501 H 530.722 4.60652 0.179142 0
M  V30 5502 H 534.266 6.40302 -2.76873 0
M  V30 5503 H 530.163 6.26825 -1.54146 0
M  V30 5504 H 530.931 7.54165 -3.18083 0
M  V30 5505 N 533.594 0.0601682 1.57485 0
M  V30 5506 C 534.842 -0.610386 1.92662 0
M  V30 5507 C 535.163 -1.70849 0.939981 0
M  V30 5508 O 534.433 -1.95895 -0.0137455 0
M  V30 5509 H 533.013 -0.228457 0.711208 0
M  V30 5510 H 535.675 0.115288 1.94559 0
M  V30 5511 H 534.771 -1.0432 2.94149 0
M  V30 5512 N 535.072 -1.5615 -0.213296 0
M  V30 5513 C 536.349 -1.70349 -0.961281 0
M  V30 5514 C 536.729 -0.609791 -2.02101 0
M  V30 5515 O 536.077 0.381987 -2.25285 0
M  V30 5516 C 536.287 -3.11982 -1.56424 0
M  V30 5517 C 537.635 -3.71649 -2.05334 0
M  V30 5518 O 538.659 -3.14995 -1.66302 0
M  V30 5519 O 537.518 -4.71038 -2.77102 0
M  V30 5520 H 534.612 -0.694121 -0.449582 0
M  V30 5521 H 537.158 -1.68464 -0.204426 0
M  V30 5522 H 535.93 -3.83046 -0.799457 0
M  V30 5523 H 535.553 -3.18019 -2.38641 0
M  V30 5524 N 536.55 0.480323 -1.50102 0
M  V30 5525 C 537.483 1.59789 -1.62919 0
M  V30 5526 C 538.461 1.55429 -0.477557 0
M  V30 5527 O 539.645 1.75186 -0.695851 0
M  V30 5528 C 536.772 2.98351 -1.60325 0
M  V30 5529 C 535.818 3.20899 -2.80938 0
M  V30 5530 S 536.651 3.01791 -4.4236 0
M  V30 5531 C 537.807 4.42712 -4.42444 0
M  V30 5532 H 538.04 1.48676 -2.57454 0
M  V30 5533 H 535.573 0.666996 -1.3925 0
M  V30 5534 H 537.531 3.7824 -1.59514 0
M  V30 5535 H 536.192 3.06862 -0.670419 0
M  V30 5536 H 535.385 4.22102 -2.75401 0
M  V30 5537 H 534.987 2.48768 -2.79268 0
M  V30 5538 H 537.279 5.3518 -4.15438 0
M  V30 5539 H 538.222 4.53294 -5.43995 0
M  V30 5540 H 538.63 4.24359 -3.72263 0
M  V30 5541 N 538.028 1.39524 0.732853 0
M  V30 5542 C 539.274 1.37068 1.49467 0
M  V30 5543 C 539.607 -0.0327166 1.94172 0
M  V30 5544 O 538.882 -0.998071 1.66939 0
M  V30 5545 C 539.165 2.34494 2.73285 0
M  V30 5546 C 539.018 3.83784 2.34585 0
M  V30 5547 C 540.337 2.29717 3.75391 0
M  V30 5548 H 537.456 0.499206 0.542183 0
M  V30 5549 H 540.098 1.70532 0.837783 0
M  V30 5550 H 538.248 2.06087 3.29333 0
M  V30 5551 H 539.92 4.22949 1.84151 0
M  V30 5552 H 538.163 4.00455 1.66787 0
M  V30 5553 H 538.834 4.47444 3.23262 0
M  V30 5554 H 541.31 2.54839 3.28932 0
M  V30 5555 H 540.186 2.99962 4.59689 0
M  V30 5556 H 540.447 1.30291 4.22465 0
M  V30 5557 N 539.506 -0.963266 1.24736 0
M  V30 5558 C 540.917 -1.52145 1.08207 0
M  V30 5559 C 541.268 -1.93142 -0.345061 0
M  V30 5560 O 540.393 -1.77769 -1.23399 0
M  V30 5561 C 540.988 -2.76486 1.95808 0
M  V30 5562 C 539.547 -3.28646 1.8349 0
M  V30 5563 C 538.694 -2.01529 1.90476 0
M  V30 5564 H 541.645 -0.781083 1.38148 0
M  V30 5565 H 541.666 -3.49986 1.49297 0
M  V30 5566 H 541.178 -2.46617 2.99669 0
M  V30 5567 H 539.279 -3.63357 0.824787 0
M  V30 5568 H 539.392 -3.97246 2.67829 0
M  V30 5569 H 537.756 -2.16442 1.34258 0
M  V30 5570 H 538.539 -1.7402 2.95926 0
M  V30 5571 N 540.985 -1.06182 -1.16461 0
M  V30 5572 C 541.933 -0.665716 -2.2287 0
M  V30 5573 C 542.927 0.317822 -1.66392 0
M  V30 5574 O 544.133 0.182807 -1.79069 0
M  V30 5575 H 540.508 -0.197148 -0.725697 0
M  V30 5576 H 542.479 -1.57307 -2.53569 0
M  V30 5577 C 541.228 -0.0669803 -3.47635 0
M  V30 5578 H 540.551 -0.814899 -3.91407 0
M  V30 5579 H 541.991 0.172669 -4.23648 0
M  V30 5580 C 540.45 1.18913 -3.15216 0
M  V30 5581 O 540.98 2.27723 -3.30916 0
M  V30 5582 N 539.186 1.09066 -2.69357 0
M  V30 5583 H 538.733 0.20518 -2.56782 0
M  V30 5584 H 538.691 1.93195 -2.48039 0
M  V30 5585 N 542.463 1.3308 -0.844243 0
M  V30 5586 C 543.691 2.01808 -0.456203 0
M  V30 5587 C 544.106 1.63498 0.944131 0
M  V30 5588 O 543.463 0.85102 1.61443 0
M  V30 5589 C 543.514 3.56922 -0.573513 0
M  V30 5590 O 543.235 3.93851 -1.91868 0
M  V30 5591 C 544.736 4.42922 -0.183125 0
M  V30 5592 H 541.956 0.646273 -0.180477 0
M  V30 5593 H 544.5 1.69891 -1.1383 0
M  V30 5594 H 542.655 3.87352 0.0607367 0
M  V30 5595 H 543.069 4.88564 -1.90802 0
M  V30 5596 H 544.543 5.51093 -0.316241 0
M  V30 5597 H 545.02 4.30386 0.875477 0
M  V30 5598 H 545.626 4.1786 -0.792027 0
M  V30 5599 N 543.941 0.601185 1.45683 0
M  V30 5600 C 545.171 0.0999093 2.06358 0
M  V30 5601 C 545.579 -1.21831 1.44754 0
M  V30 5602 O 544.922 -1.75157 0.553695 0
M  V30 5603 C 544.984 -0.12085 3.59297 0
M  V30 5604 C 544.648 1.11459 4.432 0
M  V30 5605 C 545.645 2.03118 4.7858 0
M  V30 5606 C 543.33 1.34162 4.84051 0
M  V30 5607 C 545.324 3.15814 5.53661 0
M  V30 5608 C 543.011 2.4716 5.58888 0
M  V30 5609 C 544.009 3.37814 5.93608 0
M  V30 5610 O 543.697 4.48846 6.66928 0
M  V30 5611 H 543.429 0.0630316 0.673055 0
M  V30 5612 H 545.983 0.826982 1.88016 0
M  V30 5613 H 544.213 -0.902744 3.76015 0
M  V30 5614 H 545.902 -0.572925 4.01836 0
M  V30 5615 H 546.668 1.86801 4.47583 0
M  V30 5616 H 542.547 0.645018 4.56465 0
M  V30 5617 H 546.091 3.86596 5.8068 0
M  V30 5618 H 541.988 2.63432 5.89299 0
M  V30 5619 H 542.756 4.47446 6.85371 0
M  V30 5620 N 545.419 -1.53889 0.339982 0
M  V30 5621 C 546.659 -2.02765 -0.258011 0
M  V30 5622 C 547.023 -1.22249 -1.48051 0
M  V30 5623 O 548.224 -1.61007 -2.15245 0
M  V30 5624 C 546.495 -3.5286 -0.567872 0
M  V30 5625 S 548.054 -4.23647 -1.14318 0
M  V30 5626 H 544.872 -0.706814 -0.0770389 0
M  V30 5627 H 547.474 -1.89594 0.476917 0
M  V30 5628 H 546.178 -4.09073 0.329745 0
M  V30 5629 H 545.709 -3.70144 -1.33256 0
M  V30 5630 H 547.724 -4.32676 -2.42911 0
M  V30 5631 N 546.897 -0.0685191 -1.57451 0
M  V30 5632 C 548.145 0.60016 -1.92983 0
M  V30 5633 C 548.466 1.70348 -0.949028 0
M  V30 5634 O 547.736 1.959 0.00335647 0
M  V30 5635 H 546.316 0.224682 -0.712409 0
M  V30 5636 H 548.978 -0.125605 -1.94495 0
M  V30 5637 H 548.074 1.02759 -2.94698 0
M  V30 5638 N 548.375 1.56261 0.205012 0
M  V30 5639 C 549.322 1.93754 1.25411 0
M  V30 5640 C 550.292 0.796826 1.45739 0
M  V30 5641 O 551.477 1.05414 1.59036 0
M  V30 5642 C 548.617 2.27383 2.59598 0
M  V30 5643 C 547.73 3.5447 2.46931 0
M  V30 5644 C 546.865 3.77468 3.73753 0
M  V30 5645 C 545.904 4.98014 3.55877 0
M  V30 5646 N 545.041 5.17316 4.74688 0
M  V30 5647 H 549.881 2.83203 0.92737 0
M  V30 5648 H 547.418 1.40158 0.446574 0
M  V30 5649 H 549.376 2.44895 3.37761 0
M  V30 5650 H 548.006 1.41088 2.90335 0
M  V30 5651 H 547.058 3.45061 1.60116 0
M  V30 5652 H 548.37 4.42789 2.29651 0
M  V30 5653 H 547.524 3.95165 4.60358 0
M  V30 5654 H 546.263 2.87461 3.93976 0
M  V30 5655 H 545.268 4.80249 2.67657 0
M  V30 5656 H 546.493 5.8952 3.37109 0
M  V30 5657 H 544.439 4.30255 4.95194 0
M  V30 5658 H 544.356 5.99796 4.60197 0
M  V30 5659 H 545.624 5.39463 5.62672 0
M  V30 5660 N 549.853 -0.472356 1.50355 0
M  V30 5661 C 551.101 -1.22211 1.60962 0
M  V30 5662 C 551.422 -1.92497 0.311439 0
M  V30 5663 O 550.692 -1.8405 -0.671002 0
M  V30 5664 H 549.272 -0.454092 0.593135 0
M  V30 5665 H 551.934 -0.544977 1.87126 0
M  V30 5666 H 551.03 -1.9707 2.42012 0
M  V30 5667 N 551.331 -1.39911 -0.725443 0
M  V30 5668 C 552.577 -1.37858 -1.48738 0
M  V30 5669 C 552.91 0.0224187 -1.94187 0
M  V30 5670 O 552.185 0.989204 -1.67466 0
M  V30 5671 C 552.468 -2.3594 -2.72038 0
M  V30 5672 C 552.321 -3.85023 -2.32546 0
M  V30 5673 C 553.64 -2.31704 -3.74167 0
M  V30 5674 H 550.759 -0.502074 -0.539528 0
M  V30 5675 H 553.401 -1.70974 -0.828728 0
M  V30 5676 H 551.551 -2.0783 -3.28236 0
M  V30 5677 H 553.223 -4.2392 -1.81905 0
M  V30 5678 H 551.466 -4.01334 -1.64661 0
M  V30 5679 H 552.137 -4.49152 -3.20884 0
M  V30 5680 H 554.613 -2.5658 -3.27576 0
M  V30 5681 H 553.489 -3.02395 -4.58092 0
M  V30 5682 H 553.75 -1.3253 -4.21768 0
M  V30 5683 N 552.809 0.956637 -1.25245 0
M  V30 5684 C 554.049 1.71585 -1.11076 0
M  V30 5685 C 554.413 1.88916 0.34277 0
M  V30 5686 O 555.614 2.61875 0.606227 0
M  V30 5687 C 553.885 3.06267 -1.84215 0
M  V30 5688 S 555.444 3.97469 -1.85914 0
M  V30 5689 H 552.262 0.589803 -0.397055 0
M  V30 5690 H 554.864 1.14114 -1.58739 0
M  V30 5691 H 553.568 2.91322 -2.89067 0
M  V30 5692 H 553.099 3.688 -1.36931 0
M  V30 5693 H 555.114 4.87316 -0.93474 0
M  V30 5694 N 554.287 1.06798 1.15896 0
M  V30 5695 C 555.217 0.704677 2.22613 0
M  V30 5696 C 556.198 -0.305252 1.67339 0
M  V30 5697 O 557.383 -0.179247 1.93371 0
M  V30 5698 C 554.513 0.0957325 3.47168 0
M  V30 5699 C 553.467 1.0322 4.15367 0
M  V30 5700 C 552.793 0.286293 5.33933 0
M  V30 5701 C 554.093 2.36341 4.65768 0
M  V30 5702 H 555.787 1.59688 2.53259 0
M  V30 5703 H 553.333 0.769257 1.21731 0
M  V30 5704 H 555.286 -0.170333 4.21056 0
M  V30 5705 H 554.01 -0.831516 3.15838 0
M  V30 5706 H 552.669 1.28309 3.43413 0
M  V30 5707 H 552.317 -0.644237 4.98857 0
M  V30 5708 H 552.017 0.910436 5.80504 0
M  V30 5709 H 553.541 0.0278938 6.10594 0
M  V30 5710 H 554.955 2.1561 5.31211 0
M  V30 5711 H 553.352 2.94299 5.2298 0
M  V30 5712 H 554.422 2.99047 3.81705 0
M  V30 5713 N 555.766 -1.3263 0.851289 0
M  V30 5714 C 556.696 -2.31449 0.308771 0
M  V30 5715 C 557.677 -1.59531 -0.590255 0
M  V30 5716 O 558.862 -1.87351 -0.511205 0
M  V30 5717 C 555.992 -3.43586 -0.506548 0
M  V30 5718 C 554.946 -4.26963 0.297753 0
M  V30 5719 C 554.272 -5.30831 -0.642094 0
M  V30 5720 C 555.572 -4.99643 1.52166 0
M  V30 5721 H 557.266 -2.77074 1.13447 0
M  V30 5722 H 554.812 -1.33207 0.546971 0
M  V30 5723 H 556.765 -4.11754 -0.896474 0
M  V30 5724 H 555.489 -2.96681 -1.36558 0
M  V30 5725 H 554.148 -3.60437 0.669391 0
M  V30 5726 H 553.796 -4.8018 -1.49788 0
M  V30 5727 H 553.496 -5.87501 -0.107968 0
M  V30 5728 H 555.02 -6.01862 -1.02927 0
M  V30 5729 H 556.434 -5.6051 1.20421 0
M  V30 5730 H 554.831 -5.66022 1.99347 0
M  V30 5731 H 555.901 -4.27701 2.28474 0
M  V30 5732 N 557.244 -0.608902 -1.45362 0
M  V30 5733 C 558.472 -0.111013 -2.06602 0
M  V30 5734 C 558.887 1.20516 -1.45332 0
M  V30 5735 O 558.244 1.73437 -0.567978 0
M  V30 5736 C 558.295 0.033688 -3.61484 0
M  V30 5737 O 558.016 -1.23041 -4.20467 0
M  V30 5738 C 559.517 0.562882 -4.39712 0
M  V30 5739 H 556.737 -0.0694453 -0.667397 0
M  V30 5740 H 559.281 -0.837008 -1.86586 0
M  V30 5741 H 557.436 0.710016 -3.80838 0
M  V30 5742 H 557.85 -1.06094 -5.13658 0
M  V30 5743 H 559.324 0.613213 -5.48583 0
M  V30 5744 H 559.801 1.58543 -4.09586 0
M  V30 5745 H 560.407 -0.0794454 -4.25226 0
M  V30 5746 N 558.722 1.53707 -0.348139 0
M  V30 5747 C 559.97 2.00591 0.246478 0
M  V30 5748 C 560.291 1.23753 1.50699 0
M  V30 5749 O 559.561 0.345964 1.92821 0
M  V30 5750 H 558.141 0.741053 0.0940679 0
M  V30 5751 H 560.803 1.89139 -0.470354 0
M  V30 5752 H 559.899 3.08297 0.485714 0
M  V30 5753 N 560.2 0.0768682 1.57412 0
M  V30 5754 C 561.449 -0.590679 1.92857 0
M  V30 5755 C 561.762 -1.70461 0.959293 0
M  V30 5756 O 562.968 -2.43207 1.20675 0
M  V30 5757 C 561.424 -1.10204 3.42612 0
M  V30 5758 C 561.032 -0.0188447 4.47996 0
M  V30 5759 C 562.776 -1.74336 3.87049 0
M  V30 5760 C 560.683 -0.544536 5.88888 0
M  V30 5761 H 559.613 -0.224411 0.71983 0
M  V30 5762 H 562.264 0.149924 1.82887 0
M  V30 5763 H 560.646 -1.89577 3.47673 0
M  V30 5764 H 561.82 0.755936 4.54557 0
M  V30 5765 H 560.135 0.526555 4.13057 0
M  V30 5766 H 562.732 -2.14708 4.89699 0
M  V30 5767 H 563.075 -2.60537 3.24694 0
M  V30 5768 H 563.608 -1.01577 3.84613 0
M  V30 5769 H 560.347 0.280426 6.549 0
M  V30 5770 H 559.867 -1.28673 5.85836 0
M  V30 5771 H 561.546 -1.01933 6.3892 0
M  V30 5772 N 561.678 -1.56367 -0.196722 0
M  V30 5773 C 562.611 -1.89475 -1.2718 0
M  V30 5774 C 563.589 -0.754667 -1.44026 0
M  V30 5775 O 564.773 -1.00551 -1.59442 0
M  V30 5776 C 561.9 -2.12352 -2.63864 0
M  V30 5777 C 560.946 -3.35053 -2.63897 0
M  V30 5778 S 561.779 -4.90228 -2.15492 0
M  V30 5779 C 562.935 -5.16171 -3.54004 0
M  V30 5780 H 563.168 -2.80365 -0.989075 0
M  V30 5781 H 560.701 -1.49125 -0.40014 0
M  V30 5782 H 562.659 -2.26214 -3.42545 0
M  V30 5783 H 561.32 -1.22214 -2.89349 0
M  V30 5784 H 560.513 -3.48182 -3.64397 0
M  V30 5785 H 560.115 -3.20176 -1.93296 0
M  V30 5786 H 562.407 -5.06591 -4.49857 0
M  V30 5787 H 563.35 -6.17938 -3.45771 0
M  V30 5788 H 563.758 -4.43814 -3.48841 0
M  V30 5789 N 563.156 0.464375 -1.50603 0
M  V30 5790 C 564.404 1.21356 -1.61608 0
M  V30 5791 C 564.725 1.92329 -0.321643 0
M  V30 5792 O 563.995 1.84403 0.661232 0
M  V30 5793 H 562.575 0.45094 -0.595535 0
M  V30 5794 H 565.237 0.535046 -1.87412 0
M  V30 5795 H 564.333 1.95783 -2.43054 0
M  V30 5796 N 564.634 1.40294 0.718013 0
M  V30 5797 C 565.597 1.4012 1.81381 0
M  V30 5798 C 566.597 0.295405 1.58063 0
M  V30 5799 O 567.787 0.554187 1.6515 0
M  V30 5800 C 564.919 1.19056 3.19435 0
M  V30 5801 H 566.112 2.37645 1.82933 0
M  V30 5802 H 563.665 1.26107 0.923405 0
M  V30 5803 H 564.4 0.222809 3.23534 0
M  V30 5804 H 564.185 1.99152 3.37758 0
M  V30 5805 H 565.675 1.21716 3.99468 0
M  V30 5806 N 566.112 -0.949982 1.2575 0
M  V30 5807 C 567.36 -1.6918 1.10555 0
M  V30 5808 C 567.681 -1.91773 -0.353298 0
M  V30 5809 O 566.951 -1.50814 -1.25027 0
M  V30 5810 H 565.531 -0.626952 0.406129 0
M  V30 5811 H 568.193 -1.1419 1.57945 0
M  V30 5812 H 567.289 -2.66915 1.61749 0
M  V30 5813 N 567.59 -1.07411 -1.15328 0
M  V30 5814 C 568.83 -0.807011 -1.87794 0
M  V30 5815 C 569.194 0.654987 -1.80482 0
M  V30 5816 O 570.395 1.03716 -2.47985 0
M  V30 5817 C 568.666 -1.30198 -3.32841 0
M  V30 5818 S 570.225 -1.16564 -4.23034 0
M  V30 5819 H 567.043 -0.292429 -0.648079 0
M  V30 5820 H 569.645 -1.37334 -1.39139 0
M  V30 5821 H 568.349 -2.3607 -3.35707 0
M  V30 5822 H 567.88 -0.730881 -3.86551 0
M  V30 5823 H 569.895 -0.103557 -4.96092 0
M  V30 5824 N 569.068 1.32177 -0.85831 0
M  V30 5825 C 570.296 2.01313 -0.477582 0
M  V30 5826 C 570.711 1.6449 0.926736 0
M  V30 5827 O 570.068 0.868096 1.60531 0
M  V30 5828 C 570.119 3.56293 -0.611337 0
M  V30 5829 O 569.84 3.91794 -1.96034 0
M  V30 5830 C 571.341 4.42702 -0.230093 0
M  V30 5831 H 568.561 0.644323 -0.187322 0
M  V30 5832 H 571.105 1.68674 -1.15626 0
M  V30 5833 H 569.26 3.87395 0.0196494 0
M  V30 5834 H 569.674 4.86513 -1.95973 0
M  V30 5835 H 571.148 5.50727 -0.374674 0
M  V30 5836 H 571.625 4.3129 0.829779 0
M  V30 5837 H 572.231 4.16997 -0.836302 0
M  V30 5838 N 570.547 0.616602 1.45037 0
M  V30 5839 C 571.51 -0.0871112 2.29034 0
M  V30 5840 C 572.51 -0.786414 1.40258 0
M  V30 5841 O 573.7 -0.633207 1.62284 0
M  V30 5842 C 570.832 -1.13369 3.21497 0
M  V30 5843 H 572.025 0.651497 2.92738 0
M  V30 5844 H 569.578 0.376058 1.51709 0
M  V30 5845 H 570.313 -1.90277 2.62612 0
M  V30 5846 H 570.098 -0.636358 3.86902 0
M  V30 5847 H 571.588 -1.62627 3.84633 0
M  V30 5848 N 572.025 -1.5352 0.356285 0
M  V30 5849 C 572.955 -2.28372 -0.486661 0
M  V30 5850 C 573.936 -1.30432 -1.09185 0
M  V30 5851 O 575.121 -1.59291 -1.11085 0
M  V30 5852 C 572.251 -3.06604 -1.63129 0
M  V30 5853 C 571.205 -4.12154 -1.15381 0
M  V30 5854 C 570.531 -4.78415 -2.38796 0
M  V30 5855 C 571.831 -5.21724 -0.245179 0
M  V30 5856 H 573.525 -2.99083 0.137797 0
M  V30 5857 H 571.071 -1.43841 0.0677134 0
M  V30 5858 H 573.024 -3.57712 -2.22755 0
M  V30 5859 H 571.748 -2.33568 -2.28284 0
M  V30 5860 H 570.407 -3.61978 -0.580294 0
M  V30 5861 H 570.055 -4.01959 -3.02387 0
M  V30 5862 H 569.755 -5.49734 -2.07524 0
M  V30 5863 H 571.279 -5.32313 -2.99125 0
M  V30 5864 H 572.693 -5.68391 -0.748646 0
M  V30 5865 H 571.09 -6.00095 -0.0237608 0
M  V30 5866 H 572.16 -4.79596 0.715229 0
M  V30 5867 N 573.503 -0.0852151 -1.57369 0
M  V30 5868 C 574.749 0.581666 -1.94279 0
M  V30 5869 C 575.082 1.68444 -0.966446 0
M  V30 5870 O 574.357 1.945 0.00215277 0
M  V30 5871 C 574.64 1.14609 -3.41375 0
M  V30 5872 C 574.493 0.0490414 -4.49773 0
M  V30 5873 C 575.812 2.04751 -3.8957 0
M  V30 5874 H 572.931 0.209972 -0.706456 0
M  V30 5875 H 575.573 -0.153915 -1.89376 0
M  V30 5876 H 573.723 1.77297 -3.45685 0
M  V30 5877 H 575.395 -0.584721 -4.57579 0
M  V30 5878 H 573.638 -0.618638 -4.29366 0
M  V30 5879 H 574.309 0.484601 -5.49869 0
M  V30 5880 H 576.785 1.51981 -3.87351 0
M  V30 5881 H 575.661 2.41173 -4.93079 0
M  V30 5882 H 575.922 2.96107 -3.28288 0
M  V30 5883 N 574.981 1.5647 0.188427 0
M  V30 5884 C 576.227 1.81281 0.909124 0
M  V30 5885 C 576.56 0.66034 1.82628 0
M  V30 5886 O 575.835 -0.338737 1.91528 0
M  V30 5887 C 576.118 3.16388 1.7196 0
M  V30 5888 C 575.971 4.42137 0.826714 0
M  V30 5889 C 577.29 3.48256 2.69083 0
M  V30 5890 H 574.409 0.659457 0.329068 0
M  V30 5891 H 577.051 1.89182 0.176156 0
M  V30 5892 H 575.201 3.09784 2.34448 0
M  V30 5893 H 576.873 4.60794 0.216025 0
M  V30 5894 H 575.116 4.33594 0.133792 0
M  V30 5895 H 575.787 5.33184 1.42893 0
M  V30 5896 H 578.263 3.55203 2.16726 0
M  V30 5897 H 577.139 4.43899 3.2287 0
M  V30 5898 H 577.4 2.72088 3.48455 0
M  V30 5899 N 576.459 -0.456382 1.50847 0
M  V30 5900 C 577.422 -1.53493 1.70213 0
M  V30 5901 C 578.422 -1.50264 0.572481 0
M  V30 5902 O 579.612 -1.52623 0.839751 0
M  V30 5903 C 576.744 -2.93091 1.741 0
M  V30 5904 H 577.937 -1.37633 2.66453 0
M  V30 5905 H 575.49 -0.683776 1.4055 0
M  V30 5906 H 576.225 -3.14378 0.796063 0
M  V30 5907 H 576.01 -2.9684 2.5618 0
M  V30 5908 H 577.5 -3.71368 1.90987 0
M  V30 5909 N 577.937 -1.40673 -0.710563 0
M  V30 5910 C 579.183 -1.39428 -1.47267 0
M  V30 5911 C 579.516 0.00182129 -1.942 0
M  V30 5912 O 578.791 0.971387 -1.68506 0
M  V30 5913 C 579.074 -2.38812 -2.6952 0
M  V30 5914 C 578.927 -3.87467 -2.28449 0
M  V30 5915 C 580.246 -2.3566 -3.71689 0
M  V30 5916 H 577.365 -0.507768 -0.534173 0
M  V30 5917 H 580.007 -1.71843 -0.810547 0
M  V30 5918 H 578.157 -2.113 -3.26013 0
M  V30 5919 H 579.829 -4.25825 -1.77399 0
M  V30 5920 H 578.072 -4.03058 -1.60395 0
M  V30 5921 H 578.743 -4.5253 -3.16103 0
M  V30 5922 H 581.219 -2.6004 -3.24836 0
M  V30 5923 H 580.095 -3.07237 -4.54859 0
M  V30 5924 H 580.356 -1.36996 -4.20339 0
M  V30 5925 N 579.415 0.9433 -1.26252 0
M  V30 5926 C 580.661 1.69175 -1.11837 0
M  V30 5927 C 580.994 1.91238 0.337891 0
M  V30 5928 O 580.269 1.49152 1.24836 0
M  V30 5929 C 580.552 3.06783 -1.88563 0
M  V30 5930 C 580.405 2.9206 -3.42083 0
M  V30 5931 C 581.724 4.06865 -1.67776 0
M  V30 5932 H 578.843 0.61399 -0.407658 0
M  V30 5933 H 581.485 1.09572 -1.55222 0
M  V30 5934 H 579.635 3.57663 -1.51689 0
M  V30 5935 H 581.307 2.48419 -3.88698 0
M  V30 5936 H 579.55 2.27731 -3.69217 0
M  V30 5937 H 580.221 3.89651 -3.90994 0
M  V30 5938 H 582.697 3.64939 -1.99897 0
M  V30 5939 H 581.573 5.01168 -2.23879 0
M  V30 5940 H 581.834 4.37705 -0.621816 0
M  V30 5941 N 580.893 1.08022 1.14757 0
M  V30 5942 C 581.856 0.71048 2.1791 0
M  V30 5943 C 582.856 -0.252731 1.58801 0
M  V30 5944 O 584.046 -0.0327915 1.74169 0
M  V30 5945 C 581.178 0.0483203 3.40866 0
M  V30 5946 H 582.371 1.62384 2.52134 0
M  V30 5947 H 579.924 0.877595 1.29337 0
M  V30 5948 H 580.659 -0.876959 3.12218 0
M  V30 5949 H 580.444 0.741189 3.85031 0
M  V30 5950 H 581.934 -0.195471 4.17142 0
M  V30 5951 N 582.371 -1.3172 0.865308 0
M  V30 5952 C 583.787 -1.4958 0.556596 0
M  V30 5953 C 583.987 -1.79763 -0.910353 0
M  V30 5954 O 583.043 -1.87351 -1.6928 0
M  V30 5955 C 584.356 -2.63277 1.45279 0
M  V30 5956 C 585.904 -2.77161 1.45433 0
M  V30 5957 C 586.379 -3.93949 2.33598 0
M  V30 5958 N 587.87 -4.01228 2.31453 0
M  V30 5959 C 588.605 -4.90855 2.96393 0
M  V30 5960 N 588.101 -5.85416 3.70486 0
M  V30 5961 N 589.894 -4.84063 2.85726 0
M  V30 5962 H 582.045 -1.10396 1.81456 0
M  V30 5963 H 584.308 -0.54507 0.775631 0
M  V30 5964 H 584.014 -2.47734 2.49641 0
M  V30 5965 H 583.888 -3.59309 1.14792 0
M  V30 5966 H 586.275 -2.9212 0.41831 0
M  V30 5967 H 586.356 -1.8181 1.79941 0
M  V30 5968 H 586 -3.79748 3.37274 0
M  V30 5969 H 585.93 -4.88598 1.96417 0
M  V30 5970 H 588.421 -3.3357 1.77593 0
M  V30 5971 H 588.734 -6.50525 4.17178 0
M  V30 5972 H 587.079 -5.85409 3.74594 0
M  V30 5973 H 590.27 -4.09163 2.27384 0
M  V30 5974 H 590.443 -5.53708 3.36617 0
M  V30 5975 N 583.85 -0.624285 -1.44708 0
M  V30 5976 C 584.797 0.0847135 -2.30644 0
M  V30 5977 C 585.767 0.843575 -1.43084 0
M  V30 5978 O 586.952 0.825982 -1.71995 0
M  V30 5979 C 584.091 1.06495 -3.28257 0
M  V30 5980 C 583.205 0.305224 -4.3092 0
M  V30 5981 C 582.34 1.27667 -5.1563 0
M  V30 5982 C 581.379 0.505706 -6.10007 0
M  V30 5983 N 580.516 1.42727 -6.8744 0
M  V30 5984 H 585.356 -0.654068 -2.90733 0
M  V30 5985 H 582.893 -0.334334 -1.4325 0
M  V30 5986 H 584.851 1.64658 -3.83332 0
M  V30 5987 H 583.481 1.77094 -2.69884 0
M  V30 5988 H 582.533 -0.392207 -3.78373 0
M  V30 5989 H 583.845 -0.295553 -4.97924 0
M  V30 5990 H 582.999 1.92984 -5.75189 0
M  V30 5991 H 581.738 1.91137 -4.48685 0
M  V30 5992 H 580.743 -0.160999 -5.49564 0
M  V30 5993 H 581.968 -0.124183 -6.78986 0
M  V30 5994 H 579.913 2.04931 -6.23169 0
M  V30 5995 H 579.831 0.880345 -7.50857 0
M  V30 5996 H 581.099 2.0695 -7.51526 0
M  V30 5997 N 585.328 1.53329 -0.364422 0
M  V30 5998 C 586.258 2.28627 0.474543 0
M  V30 5999 C 587.239 1.31009 1.08492 0
M  V30 6000 O 588.424 1.59878 1.10239 0
M  V30 6001 C 585.554 3.07465 1.61501 0
M  V30 6002 C 584.508 4.1276 1.13194 0
M  V30 6003 C 583.834 4.79674 2.36255 0
M  V30 6004 C 585.134 5.21847 0.217507 0
M  V30 6005 H 586.828 2.99005 -0.153656 0
M  V30 6006 H 584.374 1.43803 -0.0753406 0
M  V30 6007 H 586.327 3.58889 2.20855 0
M  V30 6008 H 585.051 2.34775 2.27042 0
M  V30 6009 H 583.71 3.62281 0.56109 0
M  V30 6010 H 583.358 4.03557 3.00251 0
M  V30 6011 H 583.058 5.50827 2.04606 0
M  V30 6012 H 584.582 5.33892 2.96297 0
M  V30 6013 H 585.996 5.6878 0.718493 0
M  V30 6014 H 584.393 6.00099 -0.00806408 0
M  V30 6015 H 585.463 4.7921 -0.740653 0
M  V30 6016 N 586.806 0.0935595 1.57322 0
M  V30 6017 C 587.716 -0.880192 2.17462 0
M  V30 6018 C 588.732 -1.31135 1.14366 0
M  V30 6019 O 589.908 -1.37958 1.46729 0
M  V30 6020 C 586.973 -2.12184 2.74188 0
M  V30 6021 C 586.034 -1.74503 3.92234 0
M  V30 6022 C 585.267 -2.92748 4.46245 0
M  V30 6023 O 585.49 -4.07427 3.99198 0
M  V30 6024 O 584.424 -2.71303 5.37288 0
M  V30 6025 H 588.25 -0.398516 3.01074 0
M  V30 6026 H 585.835 -0.130707 1.48827 0
M  V30 6027 H 587.717 -2.84953 3.10451 0
M  V30 6028 H 586.392 -2.59407 1.93623 0
M  V30 6029 H 585.299 -0.989186 3.60785 0
M  V30 6030 H 586.632 -1.32044 4.74157 0
M  V30 6031 N 588.284 -1.56567 -0.180126 0
M  V30 6032 C 589.214 -1.98753 -1.22553 0
M  V30 6033 C 590.195 -0.86175 -1.46656 0
M  V30 6034 O 591.38 -1.12719 -1.58139 0
M  V30 6035 C 588.51 -2.33988 -2.56645 0
M  V30 6036 C 587.464 -3.49445 -2.47128 0
M  V30 6037 C 586.79 -3.70397 -3.8563 0
M  V30 6038 C 588.09 -4.83171 -1.98352 0
M  V30 6039 H 589.784 -2.86332 -0.874896 0
M  V30 6040 H 587.33 -1.37757 -0.419414 0
M  V30 6041 H 589.283 -2.62097 -3.29974 0
M  V30 6042 H 588.007 -1.43309 -2.93479 0
M  V30 6043 H 586.666 -3.2145 -1.76254 0
M  V30 6044 H 586.314 -2.77023 -4.19842 0
M  V30 6045 H 586.014 -4.48077 -3.80132 0
M  V30 6046 H 587.538 -4.00897 -4.60558 0
M  V30 6047 H 588.952 -5.10213 -2.61449 0
M  V30 6048 H 587.349 -5.64425 -2.03823 0
M  V30 6049 H 588.419 -4.75753 -0.937402 0
M  V30 6050 N 589.762 0.448376 -1.51087 0
M  V30 6051 C 590.99 1.22143 -1.66999 0
M  V30 6052 C 591.405 1.85283 -0.362699 0
M  V30 6053 O 590.762 1.70236 0.65772 0
M  V30 6054 C 590.813 2.31357 -2.7777 0
M  V30 6055 O 590.534 1.70801 -4.03434 0
M  V30 6056 C 592.035 3.21836 -3.04855 0
M  V30 6057 H 589.255 0.368558 -0.560719 0
M  V30 6058 H 591.799 0.532618 -1.97442 0
M  V30 6059 H 589.954 2.95973 -2.49958 0
M  V30 6060 H 590.368 2.42895 -4.64868 0
M  V30 6061 H 591.842 3.94627 -3.85971 0
M  V30 6062 H 592.319 3.81949 -2.16821 0
M  V30 6063 H 592.925 2.62933 -3.34285 0
M  V30 6064 N 591.24 1.41047 0.703093 0
M  V30 6065 C 592.187 1.42302 1.81711 0
M  V30 6066 C 593.157 0.278336 1.63751 0
M  V30 6067 O 594.342 0.478266 1.84709 0
M  V30 6068 C 591.482 1.30362 3.19531 0
M  V30 6069 C 590.595 2.54638 3.48975 0
M  V30 6070 C 589.73 2.35047 4.76368 0
M  V30 6071 C 588.769 3.54837 4.98756 0
M  V30 6072 N 587.906 3.34363 6.1737 0
M  V30 6073 H 592.746 2.37516 1.79973 0
M  V30 6074 H 590.283 1.1795 0.878983 0
M  V30 6075 H 592.241 1.21443 3.99134 0
M  V30 6076 H 590.871 0.387602 3.20464 0
M  V30 6077 H 589.923 2.74037 2.63833 0
M  V30 6078 H 591.235 3.43766 3.61423 0
M  V30 6079 H 590.389 2.23552 5.64012 0
M  V30 6080 H 589.128 1.43363 4.66153 0
M  V30 6081 H 588.133 3.66795 4.09563 0
M  V30 6082 H 589.358 4.47464 5.10835 0
M  V30 6083 H 587.304 2.45373 6.08382 0
M  V30 6084 H 587.221 4.17063 6.30551 0
M  V30 6085 H 588.489 3.26626 7.07768 0
M  V30 6086 N 592.718 -0.936591 1.26751 0
M  V30 6087 C 593.681 -2.01752 1.08761 0
M  V30 6088 C 594.681 -1.60763 0.0344435 0
M  V30 6089 O 595.871 -1.71963 0.278258 0
M  V30 6090 C 593.003 -3.34543 0.655271 0
M  V30 6091 H 594.196 -2.19143 2.04735 0
M  V30 6092 H 591.749 -1.11618 1.09413 0
M  V30 6093 H 592.484 -3.22851 -0.30626 0
M  V30 6094 H 592.269 -3.65647 1.41578 0
M  V30 6095 H 593.759 -4.13944 0.551378 0
M  V30 6096 N 594.196 -1.08629 -1.14182 0
M  V30 6097 C 595.106 -0.730126 -2.22949 0
M  V30 6098 C 596.122 0.26436 -1.7198 0
M  V30 6099 O 597.298 0.107742 -2.01112 0
M  V30 6100 C 594.363 -0.147227 -3.46387 0
M  V30 6101 C 593.424 -1.19662 -4.12286 0
M  V30 6102 C 592.657 -0.641437 -5.29831 0
M  V30 6103 O 592.88 0.538351 -5.67854 0
M  V30 6104 O 591.814 -1.39257 -5.85569 0
M  V30 6105 H 595.64 -1.63753 -2.55771 0
M  V30 6106 H 593.225 -0.860118 -1.22157 0
M  V30 6107 H 595.107 0.174923 -4.21037 0
M  V30 6108 H 593.782 0.733304 -3.15285 0
M  V30 6109 H 592.689 -1.57133 -3.395 0
M  V30 6110 H 594.022 -2.0495 -4.475 0
M  V30 6111 N 595.674 1.31259 -0.872281 0
M  V30 6112 C 596.621 2.28459 -0.327857 0
M  V30 6113 C 597.591 1.55831 0.574957 0
M  V30 6114 O 598.776 1.83965 0.506101 0
M  V30 6115 C 595.916 3.41985 0.462644 0
M  V30 6116 C 595.029 4.29458 -0.467949 0
M  V30 6117 C 594.164 5.30131 0.336903 0
M  V30 6118 C 593.203 6.0925 -0.58997 0
M  V30 6119 N 592.34 7.01872 0.178775 0
M  V30 6120 H 597.18 2.74414 -1.16193 0
M  V30 6121 H 594.717 1.34994 -0.584376 0
M  V30 6122 H 596.675 4.06547 0.936759 0
M  V30 6123 H 595.305 2.97134 1.2614 0
M  V30 6124 H 594.357 3.65318 -1.06052 0
M  V30 6125 H 595.669 4.84677 -1.17856 0
M  V30 6126 H 594.823 6.0038 0.873427 0
M  V30 6127 H 593.562 4.75573 1.08079 0
M  V30 6128 H 592.567 5.37889 -1.13823 0
M  V30 6129 H 593.792 6.65894 -1.33275 0
M  V30 6130 H 591.738 6.49721 0.905435 0
M  V30 6131 H 591.655 7.54522 -0.472452 0
M  V30 6132 H 592.923 7.76382 0.696454 0
M  V30 6133 N 597.152 0.631951 1.44375 0
M  V30 6134 C 598.102 -0.0943862 2.27805 0
M  V30 6135 C 599.086 -0.815359 1.38711 0
M  V30 6136 O 600.278 -0.701331 1.62513 0
M  V30 6137 C 597.407 -1.07472 3.26044 0
M  V30 6138 C 596.493 -0.353329 4.22626 0
M  V30 6139 N 596.884 0.618512 5.02004 0
M  V30 6140 C 595.182 -0.597662 4.41977 0
M  V30 6141 C 595.883 1.0448 5.7224 0
M  V30 6142 N 594.859 0.383413 5.42246 0
M  V30 6143 H 598.661 0.651672 2.86584 0
M  V30 6144 H 596.175 0.45752 1.55822 0
M  V30 6145 H 598.172 -1.60969 3.84571 0
M  V30 6146 H 596.832 -1.82107 2.68825 0
M  V30 6147 H 597.843 0.996356 5.08226 0
M  V30 6148 H 594.52 -1.32682 3.95856 0
M  V30 6149 H 595.91 1.84773 6.45994 0
M  V30 6150 N 598.631 -1.53133 0.372548 0
M  V30 6151 C 599.877 -2.01654 -0.215277 0
M  V30 6152 C 600.21 -1.25914 -1.47849 0
M  V30 6153 O 599.485 -0.3548 -1.91237 0
M  V30 6154 C 599.768 -3.56609 -0.500187 0
M  V30 6155 C 599.621 -4.43036 0.777145 0
M  V30 6156 C 600.94 -4.20528 -1.29786 0
M  V30 6157 H 598.059 -0.732991 -0.0767686 0
M  V30 6158 H 600.701 -1.83335 0.498814 0
M  V30 6159 H 598.851 -3.7235 -1.10852 0
M  V30 6160 H 600.523 -4.39079 1.41447 0
M  V30 6161 H 598.766 -4.10723 1.39604 0
M  V30 6162 H 599.437 -5.49424 0.532662 0
M  V30 6163 H 601.913 -4.08663 -0.783198 0
M  V30 6164 H 600.789 -5.28962 -1.46596 0
M  V30 6165 H 601.05 -3.77051 -2.30836 0
M  V30 6166 N 600.109 -0.101901 -1.5727 0
M  V30 6167 C 601.059 0.865346 -2.1094 0
M  V30 6168 C 602.043 1.2394 -1.02605 0
M  V30 6169 O 603.235 1.21334 -1.28868 0
M  V30 6170 C 600.364 2.12187 -2.69874 0
M  V30 6171 C 599.45 1.77295 -3.85263 0
M  V30 6172 N 599.841 1.12993 -4.93017 0
M  V30 6173 C 598.139 2.06862 -3.95126 0
M  V30 6174 C 598.84 0.968631 -5.73579 0
M  V30 6175 N 597.816 1.48814 -5.22834 0
M  V30 6176 H 601.618 0.364368 -2.91633 0
M  V30 6177 H 599.132 0.101104 -1.62085 0
M  V30 6178 H 601.129 2.82431 -3.06657 0
M  V30 6179 H 599.789 2.62844 -1.90639 0
M  V30 6180 H 600.8 0.795935 -5.11747 0
M  V30 6181 H 597.477 2.59686 -3.26909 0
M  V30 6182 H 598.867 0.465231 -6.70287 0
M  V30 6183 N 601.587 1.56661 0.17182 0
M  V30 6184 C 602.535 1.97289 1.23207 0
M  V30 6185 C 603.529 0.861566 1.45854 0
M  V30 6186 O 604.735 1.04668 1.4644 0
M  V30 6187 H 601.11 0.627681 0.41415 0
M  V30 6188 H 603.081 2.85662 0.862542 0
M  V30 6189 C 601.83 2.34849 2.564 0
M  V30 6190 H 601.153 3.19903 2.39797 0
M  V30 6191 H 602.593 2.67121 3.29276 0
M  V30 6192 C 601.052 1.19172 3.15119 0
M  V30 6193 O 601.582 0.479113 3.98833 0
M  V30 6194 N 599.788 0.962415 2.74201 0
M  V30 6195 H 599.335 1.54365 2.06226 0
M  V30 6196 H 599.293 0.190272 3.13824 0
M  V30 6197 N 603.065 -0.440357 1.51323 0
M  V30 6198 C 604.312 -1.19004 1.63842 0
M  V30 6199 C 604.64 -1.91266 0.35321 0
M  V30 6200 O 603.895 -1.84143 -0.662565 0
M  V30 6201 C 604.194 -2.2339 2.78984 0
M  V30 6202 C 603.86 -1.68162 4.18369 0
M  V30 6203 C 602.522 -1.52823 4.56288 0
M  V30 6204 C 604.874 -1.27524 5.05358 0
M  V30 6205 C 602.202 -0.953157 5.78906 0
M  V30 6206 C 604.554 -0.714474 6.28552 0
M  V30 6207 C 603.218 -0.547961 6.65247 0
M  V30 6208 H 602.488 -0.435468 0.59954 0
M  V30 6209 H 605.135 -0.481538 1.85347 0
M  V30 6210 H 603.44 -3.00267 2.51688 0
M  V30 6211 H 605.137 -2.81211 2.85869 0
M  V30 6212 H 601.727 -1.81077 3.8847 0
M  V30 6213 H 605.911 -1.38197 4.76671 0
M  V30 6214 H 601.167 -0.811882 6.05986 0
M  V30 6215 H 605.341 -0.391059 6.95301 0
M  V30 6216 H 602.968 -0.100222 7.60134 0
M  V30 6217 N 604.543 -1.41418 -0.695603 0
M  V30 6218 C 605.476 -1.3768 -1.81988 0
M  V30 6219 C 606.454 -0.244061 -1.60758 0
M  V30 6220 O 607.638 -0.430965 -1.83507 0
M  V30 6221 C 604.765 -1.1476 -3.18666 0
M  V30 6222 C 603.811 -2.30752 -3.58686 0
M  V30 6223 S 604.644 -3.9323 -3.63498 0
M  V30 6224 C 605.8 -3.72613 -5.02902 0
M  V30 6225 H 606.033 -2.32822 -1.84882 0
M  V30 6226 H 603.566 -1.27942 -0.86431 0
M  V30 6227 H 605.524 -1.02223 -3.97569 0
M  V30 6228 H 604.185 -0.212385 -3.13381 0
M  V30 6229 H 603.378 -2.10409 -4.57978 0
M  V30 6230 H 602.98 -2.39696 -2.87092 0
M  V30 6231 H 605.272 -3.32317 -5.904 0
M  V30 6232 H 606.215 -4.71507 -5.28286 0
M  V30 6233 H 606.623 -3.0589 -4.74438 0
M  V30 6234 N 606.021 0.929856 -1.27246 0
M  V30 6235 C 606.954 2.03069 -1.04106 0
M  V30 6236 C 607.932 1.62556 0.0378417 0
M  V30 6237 O 609.116 1.88197 -0.106869 0
M  V30 6238 C 606.243 3.33718 -0.578778 0
M  V30 6239 C 605.289 3.93209 -1.65193 0
M  V30 6240 S 606.122 4.26068 -3.24386 0
M  V30 6241 C 607.278 5.598 -2.79954 0
M  V30 6242 H 607.511 2.22386 -1.97311 0
M  V30 6243 H 605.044 1.07269 -1.11053 0
M  V30 6244 H 607.002 4.09261 -0.31874 0
M  V30 6245 H 605.663 3.12328 0.333182 0
M  V30 6246 H 604.856 4.87482 -1.27973 0
M  V30 6247 H 604.458 3.24243 -1.86393 0
M  V30 6248 H 606.75 6.39004 -2.25123 0
M  V30 6249 H 607.693 6.01917 -3.72963 0
M  V30 6250 H 608.101 5.20219 -2.19164 0
M  V30 6251 N 607.499 1.09233 1.13605 0
M  V30 6252 C 608.776 0.739633 1.81077 0
M  V30 6253 C 609.156 -0.775595 1.96336 0
M  V30 6254 O 608.504 -1.69726 1.52988 0
M  V30 6255 C 608.714 1.47636 3.16235 0
M  V30 6256 C 610.062 1.64087 3.91613 0
M  V30 6257 O 611.086 1.43871 3.25852 0
M  V30 6258 O 609.945 1.97511 5.0956 0
M  V30 6259 H 607.039 0.265464 0.783236 0
M  V30 6260 H 609.585 1.19441 1.20549 0
M  V30 6261 H 608.357 2.50818 3.00344 0
M  V30 6262 H 607.98 1.01362 3.84462 0
M  V30 6263 N 608.977 -1.30795 0.87923 0
M  V30 6264 C 610.205 -2.00527 0.509548 0
M  V30 6265 C 610.62 -1.65944 -0.90045 0
M  V30 6266 O 609.977 -0.893525 -1.5913 0
M  V30 6267 C 610.028 -3.55276 0.667943 0
M  V30 6268 O 609.749 -3.88625 2.02242 0
M  V30 6269 C 611.25 -4.4228 0.300494 0
M  V30 6270 H 608.47 -0.641261 0.197549 0
M  V30 6271 H 611.014 -1.66813 1.18295 0
M  V30 6272 H 609.169 -3.87377 0.0419843 0
M  V30 6273 H 609.583 -4.83334 2.03688 0
M  V30 6274 H 611.057 -5.50061 0.462242 0
M  V30 6275 H 611.534 -4.32556 -0.76106 0
M  V30 6276 H 612.14 -4.15613 0.902536 0
M  V30 6277 N 610.455 -0.639598 -1.44038 0
M  V30 6278 C 611.387 0.0987684 -2.28987 0
M  V30 6279 C 612.4 0.80058 -1.41755 0
M  V30 6280 O 613.589 0.660611 -1.65826 0
M  V30 6281 C 610.689 1.16242 -3.18341 0
M  V30 6282 C 609.862 0.541447 -4.34036 0
M  V30 6283 C 608.921 1.50017 -5.04362 0
M  V30 6284 O 607.947 1.01403 -5.60095 0
M  V30 6285 N 609.149 2.83441 -5.06598 0
M  V30 6286 H 611.914 -0.630305 -2.92997 0
M  V30 6287 H 609.475 -0.481376 -1.54578 0
M  V30 6288 H 611.467 1.80429 -3.62253 0
M  V30 6289 H 610.037 1.79362 -2.56024 0
M  V30 6290 H 609.257 -0.27923 -3.9321 0
M  V30 6291 H 610.545 0.107379 -5.08687 0
M  V30 6292 H 609.943 3.2551 -4.62666 0
M  V30 6293 H 608.5 3.42966 -5.54272 0
M  V30 6294 N 611.933 1.52934 -0.380664 0
M  V30 6295 C 612.863 2.29118 0.450268 0
M  V30 6296 C 613.844 1.32153 1.07096 0
M  V30 6297 O 615.029 1.61038 1.08537 0
M  V30 6298 C 612.159 3.09161 1.58231 0
M  V30 6299 C 611.113 4.13938 1.0881 0
M  V30 6300 C 610.439 4.82153 2.31155 0
M  V30 6301 C 611.739 5.22048 0.162146 0
M  V30 6302 H 613.433 2.98826 -0.185361 0
M  V30 6303 H 610.979 1.43715 -0.0905886 0
M  V30 6304 H 612.932 3.61211 2.17036 0
M  V30 6305 H 611.656 2.3717 2.2454 0
M  V30 6306 H 610.315 3.62855 0.522633 0
M  V30 6307 H 609.963 4.06719 2.95953 0
M  V30 6308 H 609.663 5.52966 1.98752 0
M  V30 6309 H 611.187 5.37004 2.90618 0
M  V30 6310 H 612.601 5.6951 0.658126 0
M  V30 6311 H 610.998 6.00057 -0.0717122 0
M  V30 6312 H 612.068 4.78398 -0.791438 0
M  V30 6313 N 613.412 0.11024 1.57214 0
M  V30 6314 C 614.64 -0.557834 1.99238 0
M  V30 6315 C 615.055 -1.60778 0.989734 0
M  V30 6316 O 614.412 -1.82491 -0.0186092 0
M  V30 6317 C 614.463 -1.19189 3.41286 0
M  V30 6318 O 614.184 -0.183919 4.37714 0
M  V30 6319 C 615.685 -1.94413 3.98395 0
M  V30 6320 H 612.905 -0.148392 0.654386 0
M  V30 6321 H 615.449 0.193996 2.03578 0
M  V30 6322 H 613.604 -1.89456 3.37913 0
M  V30 6323 H 614.018 -0.643475 5.20538 0
M  V30 6324 H 615.492 -2.34116 4.99894 0
M  V30 6325 H 615.969 -2.81592 3.3705 0
M  V30 6326 H 616.575 -1.28928 4.05287 0
M  V30 6327 N 614.89 -1.56749 -0.16351 0
M  V30 6328 C 615.837 -1.97011 -1.2023 0
M  V30 6329 C 616.807 -0.835186 -1.43575 0
M  V30 6330 O 617.992 -1.09594 -1.56185 0
M  V30 6331 C 615.132 -2.34186 -2.53478 0
M  V30 6332 C 614.245 -3.60893 -2.37446 0
M  V30 6333 C 613.38 -3.87245 -3.63614 0
M  V30 6334 C 612.419 -5.07274 -3.42548 0
M  V30 6335 N 611.556 -5.29719 -4.60806 0
M  V30 6336 H 616.396 -2.85562 -0.851958 0
M  V30 6337 H 613.933 -1.41292 -0.409257 0
M  V30 6338 H 615.891 -2.53764 -3.31149 0
M  V30 6339 H 614.521 -1.48736 -2.86492 0
M  V30 6340 H 613.573 -3.49185 -1.50911 0
M  V30 6341 H 614.885 -4.48722 -2.1783 0
M  V30 6342 H 614.039 -4.07232 -4.49719 0
M  V30 6343 H 612.778 -2.97806 -3.86216 0
M  V30 6344 H 611.783 -4.87177 -2.5483 0
M  V30 6345 H 613.008 -5.98251 -3.2136 0
M  V30 6346 H 610.954 -4.43233 -4.83612 0
M  V30 6347 H 610.871 -6.11786 -4.44132 0
M  V30 6348 H 612.139 -5.54192 -5.48171 0
M  V30 6349 N 616.368 0.432326 -1.51554 0
M  V30 6350 C 617.784 0.769195 -1.39841 0
M  V30 6351 C 617.984 1.95584 -0.484675 0
M  V30 6352 O 617.04 2.52433 0.0582829 0
M  V30 6353 C 618.353 1.04487 -2.81963 0
M  V30 6354 C 619.901 1.149 -2.91148 0
M  V30 6355 C 620.376 1.45758 -4.34187 0
M  V30 6356 N 621.867 1.52671 -4.37317 0
M  V30 6357 C 622.602 1.78129 -5.4503 0
M  V30 6358 N 622.098 2.01345 -6.62897 0
M  V30 6359 N 623.891 1.79953 -5.32516 0
M  V30 6360 H 616.042 -0.349122 -2.09511 0
M  V30 6361 H 618.305 -0.0938113 -0.943347 0
M  V30 6362 H 618.011 0.24557 -3.50842 0
M  V30 6363 H 617.885 1.97119 -3.21596 0
M  V30 6364 H 620.272 1.93891 -2.22464 0
M  V30 6365 H 620.353 0.201568 -2.55005 0
M  V30 6366 H 619.997 0.672917 -5.03423 0
M  V30 6367 H 619.927 2.41715 -4.67848 0
M  V30 6368 H 622.418 1.36612 -3.52343 0
M  V30 6369 H 622.731 2.20155 -7.40778 0
M  V30 6370 H 621.076 1.98657 -6.66003 0
M  V30 6371 H 624.267 1.61337 -4.39418 0
M  V30 6372 H 624.44 1.99455 -6.1654 0
M  V30 6373 N 617.846 1.41785 0.688094 0
M  V30 6374 C 619.092 1.41753 1.4503 0
M  V30 6375 C 619.425 0.0290745 1.94178 0
M  V30 6376 O 618.7 -0.944456 1.7003 0
M  V30 6377 C 618.983 2.43069 2.65686 0
M  V30 6378 C 618.836 3.91053 2.22256 0
M  V30 6379 C 620.155 2.41543 3.67893 0
M  V30 6380 H 617.274 0.516202 0.526027 0
M  V30 6381 H 619.916 1.73111 0.783105 0
M  V30 6382 H 618.066 2.1646 3.2261 0
M  V30 6383 H 619.738 4.28594 1.70602 0
M  V30 6384 H 617.981 4.05559 1.53963 0
M  V30 6385 H 618.652 4.57501 3.08863 0
M  V30 6386 H 621.128 2.65175 3.20658 0
M  V30 6387 H 620.004 3.14434 4.49914 0
M  V30 6388 H 620.265 1.43666 4.18106 0
M  V30 6389 N 619.324 -0.923095 1.27737 0
M  V30 6390 C 620.271 -2.02432 1.1086 0
M  V30 6391 C 621.241 -1.66098 0.00835195 0
M  V30 6392 O 622.426 -1.90027 0.171542 0
M  V30 6393 C 619.566 -3.36476 0.766671 0
M  V30 6394 C 618.679 -3.85737 1.94501 0
M  V30 6395 C 617.814 -5.08249 1.54455 0
M  V30 6396 C 616.853 -5.49818 2.6901 0
M  V30 6397 N 615.99 -6.63524 2.29521 0
M  V30 6398 H 620.83 -2.16201 2.05089 0
M  V30 6399 H 618.367 -1.05909 1.02087 0
M  V30 6400 H 620.325 -4.13569 0.549223 0
M  V30 6401 H 618.955 -3.22502 -0.13867 0
M  V30 6402 H 618.007 -3.04883 2.27487 0
M  V30 6403 H 619.319 -4.12513 2.80419 0
M  V30 6404 H 618.473 -5.92857 1.28862 0
M  V30 6405 H 617.212 -4.83261 0.656534 0
M  V30 6406 H 616.217 -4.63757 2.95313 0
M  V30 6407 H 617.442 -5.76799 3.5844 0
M  V30 6408 H 615.388 -6.40185 1.43177 0
M  V30 6409 H 615.305 -6.89978 3.08977 0
M  V30 6410 H 616.573 -7.51461 2.07187 0
M  V30 6411 N 620.802 -1.09834 -1.13024 0
M  V30 6412 C 621.75 -0.736283 -2.20639 0
M  V30 6413 C 622.744 0.264725 -1.67319 0
M  V30 6414 O 623.95 0.125745 -1.7956 0
M  V30 6415 H 620.325 -0.220136 -0.719058 0
M  V30 6416 H 622.296 -1.65295 -2.48436 0
M  V30 6417 C 621.045 -0.177544 -3.47246 0
M  V30 6418 H 620.368 -0.939009 -3.88616 0
M  V30 6419 H 621.808 0.0378007 -4.23983 0
M  V30 6420 C 620.267 1.08824 -3.1884 0
M  V30 6421 O 620.797 2.1708 -3.37993 0
M  V30 6422 N 619.003 1.00442 -2.7269 0
M  V30 6423 H 618.55 0.123383 -2.57304 0
M  V30 6424 H 618.508 1.85206 -2.5406 0
M  V30 6425 N 622.28 1.30327 -0.886154 0
M  V30 6426 C 623.243 2.26376 -0.358687 0
M  V30 6427 C 624.243 1.52845 0.499498 0
M  V30 6428 O 625.433 1.71483 0.306485 0
M  V30 6429 C 622.565 3.37379 0.488726 0
M  V30 6430 H 623.758 2.74547 -1.20681 0
M  V30 6431 H 621.311 1.41536 -0.663113 0
M  V30 6432 H 622.046 2.94526 1.35739 0
M  V30 6433 H 621.831 3.91897 -0.126003 0
M  V30 6434 H 623.321 4.08868 0.84952 0
M  V30 6435 N 623.758 0.647228 1.43697 0
M  V30 6436 C 624.721 -0.0385101 2.29168 0
M  V30 6437 C 625.721 -0.756487 1.41894 0
M  V30 6438 O 626.911 -0.598641 1.63591 0
M  V30 6439 C 624.043 -1.06524 3.23829 0
M  V30 6440 H 625.236 0.713445 2.9129 0
M  V30 6441 H 622.789 0.408153 1.50877 0
M  V30 6442 H 623.524 -1.84664 2.66589 0
M  V30 6443 H 623.309 -0.554147 3.88164 0
M  V30 6444 H 624.799 -1.54432 3.87996 0
M  V30 6445 N 625.236 -1.5273 0.388769 0
M  V30 6446 C 626.199 -2.25043 -0.434544 0
M  V30 6447 C 627.199 -1.26661 -0.990644 0
M  V30 6448 O 628.389 -1.50762 -0.872731 0
M  V30 6449 C 625.521 -3.00507 -1.60961 0
M  V30 6450 H 626.714 -2.99242 0.198549 0
M  V30 6451 H 624.267 -1.55664 0.140875 0
M  V30 6452 H 625.002 -2.30607 -2.28015 0
M  V30 6453 H 624.787 -3.72716 -1.21757 0
M  V30 6454 H 626.277 -3.55413 -2.19251 0
M  V30 6455 N 626.714 -0.118576 -1.57153 0
M  V30 6456 C 627.662 0.849114 -2.16547 0
M  V30 6457 C 628.656 1.27567 -1.11458 0
M  V30 6458 O 629.862 1.24746 -1.29763 0
M  V30 6459 H 626.237 0.291935 -0.693021 0
M  V30 6460 H 628.208 0.323693 -2.96639 0
M  V30 6461 C 626.957 2.08951 -2.77912 0
M  V30 6462 H 626.28 1.77021 -3.58474 0
M  V30 6463 H 627.72 2.74666 -3.23008 0
M  V30 6464 C 626.179 2.87899 -1.74974 0
M  V30 6465 O 626.709 3.83268 -1.20285 0
M  V30 6466 N 624.915 2.51884 -1.44924 0
M  V30 6467 H 624.462 1.74397 -1.89587 0
M  V30 6468 H 624.42 3.05003 -0.762921 0
M  V30 6469 N 628.193 1.56834 0.155195 0
M  V30 6470 C 629.439 1.83169 0.870467 0
M  V30 6471 C 629.772 0.698929 1.81187 0
M  V30 6472 O 629.047 -0.298035 1.92203 0
M  V30 6473 C 629.33 3.19965 1.65211 0
M  V30 6474 C 629.183 4.43792 0.732744 0
M  V30 6475 C 630.502 3.53885 2.61636 0
M  V30 6476 H 627.621 0.666288 0.315006 0
M  V30 6477 H 630.263 1.89513 0.135988 0
M  V30 6478 H 628.413 3.14687 2.27825 0
M  V30 6479 H 630.085 4.61148 0.118236 0
M  V30 6480 H 628.328 4.3378 0.0417906 0
M  V30 6481 H 628.999 5.36095 1.31552 0
M  V30 6482 H 631.475 3.5972 2.09143 0
M  V30 6483 H 630.351 4.50648 3.13381 0
M  V30 6484 H 630.612 2.79418 3.42605 0
M  V30 6485 N 629.671 -0.424282 1.51781 0
M  V30 6486 C 630.601 -1.52305 1.7699 0
M  V30 6487 C 631.582 -1.5839 0.620209 0
M  V30 6488 O 632.767 -1.73908 0.864268 0
M  V30 6489 C 629.897 -2.90271 1.90683 0
M  V30 6490 C 628.851 -2.99043 3.06198 0
M  V30 6491 C 628.177 -4.39116 3.05092 0
M  V30 6492 C 629.477 -2.7192 4.45934 0
M  V30 6493 H 631.171 -1.31461 2.68995 0
M  V30 6494 H 628.717 -0.630985 1.29439 0
M  V30 6495 H 630.67 -3.6711 2.06901 0
M  V30 6496 H 629.394 -3.12376 0.953365 0
M  V30 6497 H 628.053 -2.24646 2.89706 0
M  V30 6498 H 627.701 -4.58207 2.07498 0
M  V30 6499 H 627.401 -4.45912 3.82669 0
M  V30 6500 H 628.925 -5.17911 3.2342 0
M  V30 6501 H 630.339 -3.38487 4.62709 0
M  V30 6502 H 628.736 -2.90111 5.25315 0
M  V30 6503 H 629.806 -1.67445 4.55072 0
M  V30 6504 N 631.149 -1.42148 -0.680565 0
M  V30 6505 C 632.565 -1.24947 -0.992995 0
M  V30 6506 C 632.765 -0.149527 -2.00944 0
M  V30 6507 O 631.821 0.481145 -2.47873 0
M  V30 6508 C 633.134 -2.60426 -1.5033 0
M  V30 6509 C 634.682 -2.67733 -1.62137 0
M  V30 6510 C 635.157 -4.03564 -2.16565 0
M  V30 6511 N 636.648 -4.05488 -2.23905 0
M  V30 6512 C 637.383 -5.07401 -2.67081 0
M  V30 6513 N 636.879 -6.19698 -3.09751 0
M  V30 6514 N 638.672 -4.94758 -2.66778 0
M  V30 6515 H 630.823 -2.12399 -0.0074788 0
M  V30 6516 H 633.086 -0.94571 -0.0658529 0
M  V30 6517 H 632.792 -3.41743 -0.830947 0
M  V30 6518 H 632.666 -2.83949 -2.483 0
M  V30 6519 H 635.053 -1.86765 -2.2848 0
M  V30 6520 H 635.134 -2.48004 -0.626713 0
M  V30 6521 H 634.778 -4.84987 -1.50833 0
M  V30 6522 H 634.708 -4.20641 -3.1681 0
M  V30 6523 H 637.199 -3.24415 -1.93812 0
M  V30 6524 H 637.512 -6.93318 -3.41365 0
M  V30 6525 H 635.857 -6.23212 -3.07623 0
M  V30 6526 H 639.048 -4.06105 -2.32801 0
M  V30 6527 H 639.221 -5.74317 -3.00107 0
M  V30 6528 N 632.627 0.916307 -1.28225 0
M  V30 6529 C 633.537 2.05165 -1.13775 0
M  V30 6530 C 634.553 1.73879 -0.0649418 0
M  V30 6531 O 635.729 1.99531 -0.273722 0
M  V30 6532 C 632.794 3.37385 -0.798267 0
M  V30 6533 C 631.855 3.82296 -1.95316 0
M  V30 6534 C 631.088 5.08206 -1.62978 0
M  V30 6535 O 631.311 5.6781 -0.542948 0
M  V30 6536 O 630.245 5.48768 -2.47261 0
M  V30 6537 H 634.071 2.20273 -2.09078 0
M  V30 6538 H 631.656 1.0373 -1.07519 0
M  V30 6539 H 633.538 4.16773 -0.62278 0
M  V30 6540 H 632.213 3.23458 0.125139 0
M  V30 6541 H 631.12 3.03746 -2.18378 0
M  V30 6542 H 632.453 4.00782 -2.85718 0
M  V30 6543 N 634.105 1.10431 1.1244 0
M  V30 6544 C 635.333 0.868872 1.87772 0
M  V30 6545 C 635.748 -0.580645 1.7965 0
M  V30 6546 O 635.105 -1.40031 1.17036 0
M  V30 6547 C 635.156 1.30855 3.36986 0
M  V30 6548 O 634.877 2.70123 3.44914 0
M  V30 6549 C 636.378 1.107 4.29256 0
M  V30 6550 H 633.598 0.311868 0.59412 0
M  V30 6551 H 636.142 1.46897 1.42273 0
M  V30 6552 H 634.297 0.752126 3.80029 0
M  V30 6553 H 634.711 2.88923 4.37748 0
M  V30 6554 H 636.185 1.46378 5.32238 0
M  V30 6555 H 636.662 0.0456228 4.39176 0
M  V30 6556 H 637.268 1.64988 3.91994 0
M  V30 6557 N 635.583 -1.29855 0.893053 0
M  V30 6558 C 636.829 -1.96488 0.52574 0
M  V30 6559 C 637.184 -1.69164 -0.916594 0
M  V30 6560 O 636.477 -0.990405 -1.64017 0
M  V30 6561 C 636.671 -3.49515 0.746588 0
M  V30 6562 C 636.5 -3.91715 2.20884 0
M  V30 6563 C 635.27 -4.16915 2.85499 0
M  V30 6564 C 637.468 -4.03934 3.18342 0
M  V30 6565 N 635.45 -4.45634 4.22236 0
M  V30 6566 C 636.821 -4.36629 4.40176 0
M  V30 6567 C 638.876 -3.86387 3.14021 0
M  V30 6568 C 637.579 -4.53605 5.58243 0
M  V30 6569 C 639.605 -4.04569 4.31367 0
M  V30 6570 C 638.967 -4.37617 5.5197 0
M  V30 6571 H 635.066 -0.743657 0.241863 0
M  V30 6572 H 637.65 -1.56927 1.15248 0
M  V30 6573 H 635.821 -3.88113 0.149281 0
M  V30 6574 H 637.553 -4.03224 0.345372 0
M  V30 6575 H 634.308 -4.10423 2.36326 0
M  V30 6576 H 634.732 -4.64114 4.92876 0
M  V30 6577 H 639.374 -3.59906 2.21873 0
M  V30 6578 H 637.092 -4.78925 6.50889 0
M  V30 6579 H 640.678 -3.92452 4.29503 0
M  V30 6580 H 639.558 -4.51395 6.41258 0
M  V30 6581 N 637.061 -0.65484 -1.43351 0
M  V30 6582 C 637.991 0.0221809 -2.33489 0
M  V30 6583 C 638.972 0.810272 -1.49561 0
M  V30 6584 O 640.157 0.771426 -1.78221 0
M  V30 6585 C 637.287 0.988117 -3.32947 0
M  V30 6586 C 636.241 0.310026 -4.26876 0
M  V30 6587 C 635.567 1.38752 -5.16384 0
M  V30 6588 C 636.867 -0.798589 -5.16159 0
M  V30 6589 H 638.561 -0.730571 -2.9035 0
M  V30 6590 H 636.107 -0.352773 -1.39612 0
M  V30 6591 H 638.06 1.47067 -3.94904 0
M  V30 6592 H 636.784 1.77205 -2.74346 0
M  V30 6593 H 635.443 -0.152097 -3.66284 0
M  V30 6594 H 635.091 2.16293 -4.54121 0
M  V30 6595 H 634.791 0.939051 -5.80048 0
M  V30 6596 H 636.315 1.87141 -5.81215 0
M  V30 6597 H 637.729 -0.398126 -5.71916 0
M  V30 6598 H 636.126 -1.17163 -5.88552 0
M  V30 6599 H 637.196 -1.65588 -4.55751 0
M  V30 6600 N 638.539 1.52521 -0.396863 0
M  V30 6601 C 639.788 2.00857 0.184184 0
M  V30 6602 C 640.101 1.28733 1.47265 0
M  V30 6603 O 641.307 1.67821 2.13421 0
M  V30 6604 C 639.763 3.57901 0.378787 0
M  V30 6605 C 639.371 4.38931 -0.896873 0
M  V30 6606 C 641.115 4.14504 0.915789 0
M  V30 6607 C 639.022 5.87591 -0.670133 0
M  V30 6608 H 637.952 0.750496 0.0726055 0
M  V30 6609 H 640.603 1.75965 -0.520425 0
M  V30 6610 H 638.985 3.79072 1.14543 0
M  V30 6611 H 640.159 4.29524 -1.66872 0
M  V30 6612 H 638.474 3.93586 -1.35938 0
M  V30 6613 H 641.071 5.23236 1.10126 0
M  V30 6614 H 641.414 3.71076 1.88701 0
M  V30 6615 H 641.947 3.97253 0.208523 0
M  V30 6616 H 638.686 6.35355 -1.61257 0
M  V30 6617 H 638.206 5.99767 0.0626368 0
M  V30 6618 H 639.885 6.46268 -0.307577 0
M  V30 6619 N 640.017 0.126909 1.57088 0
M  V30 6620 C 641.247 -0.535892 1.99529 0
M  V30 6621 C 641.655 -1.60259 1.00566 0
M  V30 6622 O 640.998 -1.83698 -0.00843269 0
M  V30 6623 C 641.06 -1.21374 3.38391 0
M  V30 6624 C 640.724 -0.294044 4.56053 0
M  V30 6625 C 641.721 0.470454 5.17767 0
M  V30 6626 C 639.406 -0.202808 5.0189 0
M  V30 6627 C 641.4 1.31384 6.23712 0
M  V30 6628 C 639.087 0.644203 6.07695 0
M  V30 6629 C 640.085 1.40115 6.68473 0
M  V30 6630 O 639.773 2.23408 7.72233 0
M  V30 6631 H 639.505 -0.145799 0.66009 0
M  V30 6632 H 642.059 0.212441 2.04298 0
M  V30 6633 H 640.289 -2.00931 3.30399 0
M  V30 6634 H 641.978 -1.77424 3.65069 0
M  V30 6635 H 642.744 0.409884 4.83265 0
M  V30 6636 H 638.623 -0.781688 4.54324 0
M  V30 6637 H 642.167 1.90514 6.71081 0
M  V30 6638 H 638.064 0.706137 6.41626 0
M  V30 6639 H 638.832 2.16436 7.89365 0
M  V30 6640 N 641.495 -1.56914 -0.146875 0
M  V30 6641 C 642.442 -1.98275 -1.18134 0
M  V30 6642 C 643.412 -0.850367 -1.42681 0
M  V30 6643 O 644.597 -1.11244 -1.55014 0
M  V30 6644 C 641.737 -2.36861 -2.5098 0
M  V30 6645 C 640.85 -3.63391 -2.33605 0
M  V30 6646 C 639.985 -3.91079 -3.59486 0
M  V30 6647 C 639.024 -5.10879 -3.37149 0
M  V30 6648 N 638.161 -5.34577 -4.55161 0
M  V30 6649 H 643.001 -2.8645 -0.821622 0
M  V30 6650 H 640.538 -1.41718 -0.394248 0
M  V30 6651 H 642.496 -2.57262 -3.28439 0
M  V30 6652 H 641.126 -1.51766 -2.84898 0
M  V30 6653 H 640.178 -3.50766 -1.47199 0
M  V30 6654 H 641.49 -4.51007 -2.13059 0
M  V30 6655 H 640.644 -4.11979 -4.45374 0
M  V30 6656 H 639.383 -3.01885 -3.83036 0
M  V30 6657 H 638.388 -4.89853 -2.49649 0
M  V30 6658 H 639.613 -6.01626 -3.14997 0
M  V30 6659 H 637.559 -4.48337 -4.78884 0
M  V30 6660 H 637.476 -6.16463 -4.37618 0
M  V30 6661 H 638.744 -5.59975 -5.42263 0
M  V30 6662 N 642.974 0.416227 -1.52004 0
M  V30 6663 C 643.922 1.5272 -1.7544 0
M  V30 6664 C 644.916 1.57596 -0.621289 0
M  V30 6665 O 646.122 1.61087 -0.803172 0
M  V30 6666 H 642.497 0.507772 -0.554682 0
M  V30 6667 H 644.468 1.30136 -2.68528 0
M  V30 6668 C 643.217 2.90165 -1.91571 0
M  V30 6669 H 642.54 2.87154 -2.78178 0
M  V30 6670 H 643.98 3.67211 -2.11972 0
M  V30 6671 C 642.439 3.29947 -0.680942 0
M  V30 6672 O 642.969 4.01403 0.154527 0
M  V30 6673 N 641.175 2.8593 -0.518894 0
M  V30 6674 H 640.722 2.2795 -1.19986 0
M  V30 6675 H 640.68 3.12907 0.305985 0
M  V30 6676 N 644.452 1.42507 0.673017 0
M  V30 6677 C 645.68 1.46473 1.46128 0
M  V30 6678 C 646.095 0.0765912 1.88645 0
M  V30 6679 O 645.452 -0.909057 1.58248 0
M  V30 6680 C 645.503 2.39339 2.70923 0
M  V30 6681 O 645.224 3.72752 2.3019 0
M  V30 6682 C 646.725 2.52343 3.64469 0
M  V30 6683 H 643.945 0.49812 0.449575 0
M  V30 6684 H 646.489 1.87041 0.826802 0
M  V30 6685 H 644.644 2.02019 3.30556 0
M  V30 6686 H 645.058 4.22503 3.10791 0
M  V30 6687 H 646.532 3.2144 4.48754 0
M  V30 6688 H 647.009 1.56189 4.1049 0
M  V30 6689 H 647.615 2.90392 3.10729 0
M  V30 6690 N 645.93 -0.909495 1.28709 0
M  V30 6691 C 646.877 -2.01245 1.13 0
M  V30 6692 C 647.847 -1.6608 0.0259684 0
M  V30 6693 O 649.032 -1.89835 0.191687 0
M  V30 6694 C 646.172 -3.35644 0.802315 0
M  V30 6695 C 645.285 -3.83653 1.98582 0
M  V30 6696 C 644.42 -5.06582 1.59837 0
M  V30 6697 C 643.459 -5.46934 2.74827 0
M  V30 6698 N 642.596 -6.61053 2.36546 0
M  V30 6699 H 647.436 -2.14013 2.0737 0
M  V30 6700 H 644.973 -1.0482 1.03205 0
M  V30 6701 H 646.931 -4.12963 0.593057 0
M  V30 6702 H 645.561 -3.22631 -0.104457 0
M  V30 6703 H 644.613 -3.02454 2.30708 0
M  V30 6704 H 645.925 -4.09515 2.84779 0
M  V30 6705 H 645.079 -5.91457 1.35143 0
M  V30 6706 H 643.818 -4.82537 0.707753 0
M  V30 6707 H 642.823 -4.60599 3.00215 0
M  V30 6708 H 644.048 -5.72965 3.64538 0
M  V30 6709 H 641.994 -6.3863 1.49959 0
M  V30 6710 H 641.911 -6.86662 3.16277 0
M  V30 6711 H 643.179 -7.49221 2.15146 0
M  V30 6712 N 647.408 -1.11026 -1.11852 0
M  V30 6713 C 648.338 -0.786812 -2.19844 0
M  V30 6714 C 649.319 0.242935 -1.68356 0
M  V30 6715 O 650.504 0.107355 -1.93903 0
M  V30 6716 C 647.634 -0.224516 -3.46574 0
M  V30 6717 C 646.588 -1.18564 -4.1125 0
M  V30 6718 C 645.914 -0.484261 -5.32503 0
M  V30 6719 C 647.214 -2.53465 -4.56676 0
M  V30 6720 H 648.908 -1.68978 -2.47158 0
M  V30 6721 H 646.454 -0.813906 -1.18792 0
M  V30 6722 H 648.407 0.0139435 -4.21398 0
M  V30 6723 H 647.131 0.713722 -3.18706 0
M  V30 6724 H 645.79 -1.40966 -3.38414 0
M  V30 6725 H 645.438 0.458646 -5.00905 0
M  V30 6726 H 645.138 -1.12526 -5.76725 0
M  V30 6727 H 646.662 -0.254492 -6.10069 0
M  V30 6728 H 648.076 -2.35177 -5.22843 0
M  V30 6729 H 646.473 -3.13507 -5.11697 0
M  V30 6730 H 647.543 -3.13008 -3.70343 0
M  V30 6731 N 648.886 1.2938 -0.899927 0
M  V30 6732 C 650.132 1.9584 -0.526742 0
M  V30 6733 C 650.465 1.70774 0.924651 0
M  V30 6734 O 649.74 1.02084 1.65557 0
M  V30 6735 C 650.023 3.50638 -0.820062 0
M  V30 6736 C 649.876 3.85161 -2.32317 0
M  V30 6737 C 651.195 4.3903 -0.30671 0
M  V30 6738 H 648.314 0.711322 -0.192848 0
M  V30 6739 H 650.956 1.52992 -1.12665 0
M  V30 6740 H 649.106 3.87265 -0.309491 0
M  V30 6741 H 650.778 3.58477 -2.9033 0
M  V30 6742 H 649.021 3.32696 -2.78381 0
M  V30 6743 H 649.692 4.93204 -2.47898 0
M  V30 6744 H 652.168 4.09396 -0.743908 0
M  V30 6745 H 651.044 5.46226 -0.541144 0
M  V30 6746 H 651.305 4.34937 0.792588 0
M  V30 6747 N 650.364 0.662433 1.43002 0
M  V30 6748 C 651.311 -0.0235324 2.30788 0
M  V30 6749 C 652.281 -0.805342 1.4527 0
M  V30 6750 O 653.466 -0.78009 1.74124 0
M  V30 6751 C 650.606 -0.977545 3.30965 0
M  V30 6752 C 649.719 -0.190865 4.31578 0
M  V30 6753 C 648.854 -1.13951 5.18834 0
M  V30 6754 C 647.893 -0.343796 6.11134 0
M  V30 6755 N 647.03 -1.2445 6.90982 0
M  V30 6756 H 651.87 0.730921 2.88897 0
M  V30 6757 H 649.407 0.372197 1.42313 0
M  V30 6758 H 651.365 -1.54437 3.87563 0
M  V30 6759 H 649.995 -1.69877 2.74484 0
M  V30 6760 H 649.047 0.492388 3.772 0
M  V30 6761 H 650.359 0.427464 4.96965 0
M  V30 6762 H 649.513 -1.77666 5.80103 0
M  V30 6763 H 648.252 -1.79174 4.53595 0
M  V30 6764 H 647.257 0.30665 5.48944 0
M  V30 6765 H 648.482 0.304161 6.78419 0
M  V30 6766 H 646.428 -1.88336 6.28383 0
M  V30 6767 H 646.345 -0.680959 7.52927 0
M  V30 6768 H 647.613 -1.86952 7.56749 0
M  V30 6769 N 651.842 -1.52309 0.404946 0
M  V30 6770 C 652.789 -2.26898 -0.422597 0
M  V30 6771 C 653.759 -1.2914 -1.04461 0
M  V30 6772 O 654.944 -1.57996 -1.06967 0
M  V30 6773 C 652.084 -3.09053 -1.53559 0
M  V30 6774 C 651.197 -4.21762 -0.934908 0
M  V30 6775 C 650.332 -4.91283 -2.02025 0
M  V30 6776 C 649.371 -5.95962 -1.39628 0
M  V30 6777 N 648.508 -6.59017 -2.42159 0
M  V30 6778 H 653.348 -2.97188 0.219903 0
M  V30 6779 H 650.885 -1.46607 0.120282 0
M  V30 6780 H 652.843 -3.54987 -2.19181 0
M  V30 6781 H 651.473 -2.40942 -2.14818 0
M  V30 6782 H 650.525 -3.80029 -0.167854 0
M  V30 6783 H 651.837 -4.96864 -0.439073 0
M  V30 6784 H 650.991 -5.40601 -2.75383 0
M  V30 6785 H 649.73 -4.15741 -2.54973 0
M  V30 6786 H 648.735 -5.45968 -0.648023 0
M  V30 6787 H 649.96 -6.73445 -0.874553 0
M  V30 6788 H 647.906 -5.86306 -2.94247 0
M  V30 6789 H 647.823 -7.2978 -1.97376 0
M  V30 6790 H 649.091 -7.12974 -3.15099 0
M  V30 6791 N 653.32 -0.135238 -1.57019 0
M  V30 6792 C 654.569 0.518694 -1.94917 0
M  V30 6793 C 654.882 1.66783 -1.0219 0
M  V30 6794 O 656.088 2.38561 -1.29619 0
M  V30 6795 C 654.544 0.974123 -3.46466 0
M  V30 6796 C 654.152 -0.147439 -4.47757 0
M  V30 6797 C 655.896 1.59851 -3.93253 0
M  V30 6798 C 653.803 0.325599 -5.90503 0
M  V30 6799 H 652.733 0.19754 -0.727663 0
M  V30 6800 H 655.384 -0.217698 -1.82204 0
M  V30 6801 H 653.766 1.76542 -3.5447 0
M  V30 6802 H 654.94 -0.924122 -4.51438 0
M  V30 6803 H 653.255 -0.679496 -4.10818 0
M  V30 6804 H 655.852 1.96385 -4.9733 0
M  V30 6805 H 656.195 2.48306 -3.3414 0
M  V30 6806 H 656.728 0.872323 -3.88118 0
M  V30 6807 H 653.467 -0.523295 -6.53408 0
M  V30 6808 H 652.987 1.06841 -5.90208 0
M  V30 6809 H 654.666 0.781498 -6.42263 0
M  V30 6810 N 654.798 1.5699 0.138552 0
M  V30 6811 C 656.075 1.74741 0.87891 0
M  V30 6812 C 656.455 0.705522 1.98961 0
M  V30 6813 O 655.803 -0.274066 2.2685 0
M  V30 6814 C 656.013 3.1909 1.4136 0
M  V30 6815 C 657.361 3.81023 1.87368 0
M  V30 6816 O 658.385 3.22571 1.51084 0
M  V30 6817 O 657.244 4.83722 2.54312 0
M  V30 6818 H 654.338 0.714781 0.415953 0
M  V30 6819 H 656.884 1.69248 0.123817 0
M  V30 6820 H 655.656 3.86424 0.61579 0
M  V30 6821 H 655.279 3.29043 2.23196 0
M  V30 6822 N 656.276 -0.40816 1.52223 0
M  V30 6823 C 657.226 -1.49648 1.72016 0
M  V30 6824 C 658.21 -1.50311 0.574069 0
M  V30 6825 O 659.402 -1.56271 0.831173 0
M  V30 6826 C 656.531 -2.87566 1.87512 0
M  V30 6827 C 655.617 -2.91547 3.07995 0
M  V30 6828 N 656.008 -2.65225 4.30685 0
M  V30 6829 C 654.306 -3.22715 3.07849 0
M  V30 6830 C 655.007 -2.75799 5.12162 0
M  V30 6831 N 653.983 -3.08719 4.4743 0
M  V30 6832 H 657.785 -1.28093 2.64517 0
M  V30 6833 H 655.299 -0.61588 1.50269 0
M  V30 6834 H 657.296 -3.65899 1.99809 0
M  V30 6835 H 655.956 -3.10118 0.962114 0
M  V30 6836 H 656.967 -2.39601 4.59142 0
M  V30 6837 H 653.644 -3.50856 2.26289 0
M  V30 6838 H 655.034 -2.59155 6.1991 0
M  V30 6839 N 657.755 -1.42862 -0.66545 0
M  V30 6840 C 658.718 -1.46756 -1.76055 0
M  V30 6841 C 659.718 -0.353866 -1.56858 0
M  V30 6842 O 660.908 -0.615099 -1.62979 0
M  V30 6843 C 658.04 -1.30829 -3.14796 0
M  V30 6844 H 659.233 -2.44271 -1.73987 0
M  V30 6845 H 656.786 -1.29447 -0.875965 0
M  V30 6846 H 657.521 -0.342733 -3.22484 0
M  V30 6847 H 657.306 -2.11551 -3.30134 0
M  V30 6848 H 658.796 -1.36458 -3.94676 0
M  V30 6849 N 659.233 0.902656 -1.29189 0
M  V30 6850 C 660.18 2.00643 -1.14066 0
M  V30 6851 C 661.15 1.66064 -0.0347756 0
M  V30 6852 O 662.335 1.8973 -0.201752 0
M  V30 6853 C 659.475 3.35214 -0.820104 0
M  V30 6854 C 658.588 3.82594 -2.00614 0
M  V30 6855 C 657.723 5.05727 -1.62522 0
M  V30 6856 C 656.762 5.45469 -2.77724 0
M  V30 6857 N 655.899 6.59789 -2.40048 0
M  V30 6858 H 660.739 2.1291 -2.08502 0
M  V30 6859 H 658.276 1.04271 -1.03759 0
M  V30 6860 H 660.234 4.12643 -0.614949 0
M  V30 6861 H 658.864 3.22682 0.0873452 0
M  V30 6862 H 657.916 3.01226 -2.32308 0
M  V30 6863 H 659.228 4.07999 -2.86946 0
M  V30 6864 H 658.382 5.90732 -1.38277 0
M  V30 6865 H 657.121 4.82155 -0.733333 0
M  V30 6866 H 656.126 4.59 -3.02653 0
M  V30 6867 H 657.351 5.71024 -3.67572 0
M  V30 6868 H 655.297 6.37826 -1.53343 0
M  V30 6869 H 655.214 6.84975 -3.19914 0
M  V30 6870 H 656.482 7.4807 -2.19116 0
M  V30 6871 N 660.711 1.11618 1.11262 0
M  V30 6872 C 661.957 0.867463 1.83311 0
M  V30 6873 C 662.29 -0.605366 1.84524 0
M  V30 6874 O 661.565 -1.44704 1.29965 0
M  V30 6875 C 661.848 1.43207 3.30399 0
M  V30 6876 C 661.701 2.97265 3.3757 0
M  V30 6877 C 663.02 1.08454 4.26528 0
M  V30 6878 H 660.139 0.316578 0.665543 0
M  V30 6879 H 662.781 1.38137 1.30454 0
M  V30 6880 H 660.931 0.994982 3.75543 0
M  V30 6881 H 662.603 3.49591 3.00971 0
M  V30 6882 H 660.846 3.33237 2.77733 0
M  V30 6883 H 661.517 3.31859 4.41105 0
M  V30 6884 H 663.993 1.4619 3.89574 0
M  V30 6885 H 662.869 1.50633 5.27826 0
M  V30 6886 H 663.13 -0.00444568 4.421 0
M  V30 6887 N 662.189 -1.289 0.906776 0
M  V30 6888 C 663.605 -1.47733 0.603902 0
M  V30 6889 C 663.805 -1.82568 -0.852702 0
M  V30 6890 O 662.861 -1.92642 -1.63234 0
M  V30 6891 C 664.174 -2.58522 1.53581 0
M  V30 6892 C 665.722 -2.72394 1.54177 0
M  V30 6893 C 666.197 -3.86318 2.46013 0
M  V30 6894 N 667.688 -3.93661 2.441 0
M  V30 6895 C 668.423 -4.81177 3.11859 0
M  V30 6896 N 667.919 -5.73333 3.88923 0
M  V30 6897 N 669.712 -4.74728 3.00981 0
M  V30 6898 H 661.863 -1.04567 1.84877 0
M  V30 6899 H 664.126 -0.520118 0.792579 0
M  V30 6900 H 663.832 -2.39667 2.57396 0
M  V30 6901 H 663.706 -3.55475 1.26165 0
M  V30 6902 H 666.093 -2.90641 0.511034 0
M  V30 6903 H 666.174 -1.75993 1.85634 0
M  V30 6904 H 665.818 -3.68826 3.49185 0
M  V30 6905 H 665.748 -4.82102 2.11862 0
M  V30 6906 H 668.239 -3.27751 1.88115 0
M  V30 6907 H 668.552 -6.36923 4.37663 0
M  V30 6908 H 666.897 -5.73196 3.93029 0
M  V30 6909 H 670.088 -4.01722 2.40286 0
M  V30 6910 H 670.261 -5.42719 3.54062 0
M  V30 6911 N 663.667 -0.670007 -1.42649 0
M  V30 6912 C 664.614 0.0112928 -2.30797 0
M  V30 6913 C 665.584 0.797627 -1.45695 0
M  V30 6914 O 666.769 0.770845 -1.74535 0
M  V30 6915 C 663.909 0.95998 -3.31479 0
M  V30 6916 C 663.022 0.167975 -4.31673 0
M  V30 6917 C 662.157 1.11198 -5.19431 0
M  V30 6918 C 661.196 0.311381 -6.11307 0
M  V30 6919 N 660.333 1.20784 -6.91633 0
M  V30 6920 H 665.173 -0.746231 -2.88505 0
M  V30 6921 H 662.71 -0.379739 -1.42114 0
M  V30 6922 H 664.668 1.52379 -3.88377 0
M  V30 6923 H 663.298 1.68419 -2.75382 0
M  V30 6924 H 662.35 -0.512385 -3.76933 0
M  V30 6925 H 663.662 -0.453814 -4.96731 0
M  V30 6926 H 662.816 1.74587 -5.81037 0
M  V30 6927 H 661.555 1.76766 -4.54538 0
M  V30 6928 H 660.56 -0.335758 -5.48774 0
M  V30 6929 H 661.785 -0.340135 -6.78248 0
M  V30 6930 H 659.731 1.85001 -6.29373 0
M  V30 6931 H 659.648 0.64102 -7.53277 0
M  V30 6932 H 660.916 1.82936 -7.5773 0
M  V30 6933 N 665.145 1.52092 -0.413018 0
M  V30 6934 C 666.095 2.23947 0.427993 0
M  V30 6935 C 667.079 1.25229 1.01027 0
M  V30 6936 O 668.271 1.50448 0.932444 0
M  V30 6937 C 665.4 3.0672 1.542 0
M  V30 6938 C 664.486 4.12851 0.970307 0
M  V30 6939 N 664.877 5.05644 0.125611 0
M  V30 6940 C 663.175 4.28404 1.24042 0
M  V30 6941 C 663.876 5.8138 -0.192876 0
M  V30 6942 N 662.852 5.41996 0.417273 0
M  V30 6943 H 666.654 2.93048 -0.223628 0
M  V30 6944 H 664.168 1.60852 -0.223664 0
M  V30 6945 H 666.165 3.56754 2.15714 0
M  V30 6946 H 664.825 2.39159 2.19621 0
M  V30 6947 H 665.836 5.17348 -0.238995 0
M  V30 6948 H 662.513 3.72071 1.89391 0
M  V30 6949 H 663.903 6.66129 -0.878762 0
M  V30 6950 N 666.623 0.143563 1.56945 0
M  V30 6951 C 667.555 -0.828353 2.13708 0
M  V30 6952 C 668.568 -1.21313 1.08568 0
M  V30 6953 O 669.757 -1.1578 1.35857 0
M  V30 6954 C 666.857 -2.12248 2.64204 0
M  V30 6955 C 666.03 -1.90561 3.93707 0
M  V30 6956 C 665.089 -3.03931 4.29549 0
M  V30 6957 O 664.115 -2.75772 4.97934 0
M  V30 6958 N 665.317 -4.31016 3.88852 0
M  V30 6959 H 668.082 -0.343242 2.97728 0
M  V30 6960 H 665.643 -0.0401152 1.6185 0
M  V30 6961 H 667.635 -2.87132 2.85197 0
M  V30 6962 H 666.205 -2.52033 1.84928 0
M  V30 6963 H 665.425 -0.997327 3.81375 0
M  V30 6964 H 666.713 -1.73405 4.78339 0
M  V30 6965 H 666.111 -4.56762 3.33743 0
M  V30 6966 H 664.668 -5.02691 4.14903 0
M  V30 6967 N 668.101 -1.57061 -0.130224 0
M  V30 6968 C 669.517 -1.52103 -0.483413 0
M  V30 6969 C 669.717 -0.854752 -1.82473 0
M  V30 6970 O 668.773 -0.432342 -2.48771 0
M  V30 6971 C 670.086 -2.96872 -0.47825 0
M  V30 6972 C 671.634 -3.07902 -0.562592 0
M  V30 6973 C 672.109 -4.54211 -0.587929 0
M  V30 6974 N 673.6 -4.58621 -0.649684 0
M  V30 6975 C 674.335 -5.69227 -0.690551 0
M  V30 6976 N 673.831 -6.89358 -0.689743 0
M  V30 6977 N 675.624 -5.57304 -0.732708 0
M  V30 6978 H 667.775 -1.98764 0.748779 0
M  V30 6979 H 670.038 -0.907248 0.274965 0
M  V30 6980 H 669.744 -3.48944 0.439444 0
M  V30 6981 H 669.618 -3.53716 -1.31013 0
M  V30 6982 H 672.005 -2.5584 -1.47071 0
M  V30 6983 H 672.086 -2.54073 0.296764 0
M  V30 6984 H 671.73 -5.06915 0.316096 0
M  V30 6985 H 671.66 -5.0584 -1.46401 0
M  V30 6986 H 674.151 -3.72146 -0.656927 0
M  V30 6987 H 674.464 -7.69408 -0.723239 0
M  V30 6988 H 672.809 -6.91884 -0.657347 0
M  V30 6989 H 676 -4.62363 -0.730625 0
M  V30 6990 H 676.173 -6.43515 -0.76109 0
M  V30 6991 N 669.579 0.400081 -1.52437 0
M  V30 6992 C 670.526 1.48803 -1.76426 0
M  V30 6993 C 671.496 1.5461 -0.607032 0
M  V30 6994 O 672.681 1.71041 -0.845563 0
M  V30 6995 C 669.821 2.86156 -1.92896 0
M  V30 6996 C 668.934 2.89587 -3.20567 0
M  V30 6997 C 668.069 4.18296 -3.27417 0
M  V30 6998 C 667.108 4.15736 -4.49255 0
M  V30 6999 N 666.245 5.36032 -4.53447 0
M  V30 7000 H 671.085 1.27649 -2.69276 0
M  V30 7001 H 668.622 0.619451 -1.33421 0
M  V30 7002 H 670.58 3.65901 -2.00429 0
M  V30 7003 H 669.21 3.05785 -1.03418 0
M  V30 7004 H 668.262 2.02278 -3.22161 0
M  V30 7005 H 669.574 2.83562 -4.10358 0
M  V30 7006 H 668.728 5.06439 -3.34072 0
M  V30 7007 H 667.467 4.27028 -2.35581 0
M  V30 7008 H 666.472 3.25982 -4.42737 0
M  V30 7009 H 667.697 4.08636 -5.42396 0
M  V30 7010 H 665.643 5.45415 -3.64498 0
M  V30 7011 H 665.56 5.32038 -5.37096 0
M  V30 7012 H 666.828 6.26104 -4.64343 0
M  V30 7013 N 671.057 1.43213 0.657864 0
M  V30 7014 C 672.304 1.44584 1.41781 0
M  V30 7015 C 672.632 0.0684208 1.9438 0
M  V30 7016 O 671.887 -0.925872 1.72413 0
M  V30 7017 C 672.186 2.43143 2.61947 0
M  V30 7018 C 671.852 3.89128 2.27794 0
M  V30 7019 C 670.514 4.28889 2.18191 0
M  V30 7020 C 672.866 4.81144 2.00375 0
M  V30 7021 C 670.194 5.58625 1.79319 0
M  V30 7022 C 672.546 6.11239 1.63003 0
M  V30 7023 C 671.21 6.49981 1.51922 0
M  V30 7024 H 670.48 0.529069 0.518813 0
M  V30 7025 H 673.127 1.76263 0.748577 0
M  V30 7026 H 671.432 2.04851 3.33981 0
M  V30 7027 H 673.129 2.4146 3.20153 0
M  V30 7028 H 669.719 3.57657 2.36176 0
M  V30 7029 H 673.903 4.512 2.06718 0
M  V30 7030 H 669.159 5.87486 1.69323 0
M  V30 7031 H 673.333 6.82014 1.40817 0
M  V30 7032 H 670.96 7.50416 1.21572 0
M  V30 7033 N 672.536 -0.895792 1.29666 0
M  V30 7034 C 673.466 -2.01673 1.17688 0
M  V30 7035 C 674.447 -1.69955 0.0701317 0
M  V30 7036 O 675.632 -1.9258 0.250289 0
M  V30 7037 C 672.762 -3.36568 0.856681 0
M  V30 7038 C 671.716 -3.82509 1.92017 0
M  V30 7039 C 671.042 -5.14574 1.4532 0
M  V30 7040 C 672.342 -4.02409 3.32963 0
M  V30 7041 H 674.036 -2.11953 2.11463 0
M  V30 7042 H 671.582 -1.01839 1.01807 0
M  V30 7043 H 673.535 -4.14498 0.759577 0
M  V30 7044 H 672.259 -3.26391 -0.116763 0
M  V30 7045 H 670.918 -3.068 2.00673 0
M  V30 7046 H 670.566 -5.00815 0.468325 0
M  V30 7047 H 670.266 -5.46283 2.16447 0
M  V30 7048 H 671.79 -5.9504 1.36968 0
M  V30 7049 H 673.204 -4.70808 3.27127 0
M  V30 7050 H 671.601 -4.45478 4.02082 0
M  V30 7051 H 672.671 -3.06616 3.75652 0
M  V30 7052 N 674.014 -1.12206 -1.10668 0
M  V30 7053 C 674.946 -0.74552 -2.16736 0
M  V30 7054 C 675.959 0.226696 -1.61214 0
M  V30 7055 O 677.148 0.0083936 -1.78498 0
M  V30 7056 C 674.248 -0.0823368 -3.388 0
M  V30 7057 C 673.421 -1.08341 -4.2377 0
M  V30 7058 C 672.48 -0.448292 -5.24287 0
M  V30 7059 O 671.506 -1.10458 -5.58379 0
M  V30 7060 N 672.708 0.785336 -5.75163 0
M  V30 7061 H 675.473 -1.65818 -2.49649 0
M  V30 7062 H 673.034 -1.01335 -1.26265 0
M  V30 7063 H 675.026 0.354476 -4.03145 0
M  V30 7064 H 673.596 0.733041 -3.03884 0
M  V30 7065 H 672.816 -1.69792 -3.55759 0
M  V30 7066 H 674.104 -1.76042 -4.77375 0
M  V30 7067 H 673.502 1.33755 -5.4966 0
M  V30 7068 H 672.059 1.16501 -6.41304 0
M  V30 7069 N 675.492 1.28418 -0.913599 0
M  V30 7070 C 676.455 2.25564 -0.406624 0
M  V30 7071 C 677.455 1.5387 0.466965 0
M  V30 7072 O 678.645 1.72094 0.270042 0
M  V30 7073 C 675.777 3.38339 0.417053 0
M  V30 7074 H 676.97 2.71926 -1.26477 0
M  V30 7075 H 674.523 1.40098 -0.692986 0
M  V30 7076 H 675.258 2.97339 1.29461 0
M  V30 7077 H 675.043 3.91542 -0.209102 0
M  V30 7078 H 676.533 4.10578 0.762602 0
M  V30 7079 N 676.97 0.677563 1.42291 0
M  V30 7080 C 678.219 0.198173 2.00724 0
M  V30 7081 C 678.532 -1.20325 1.54211 0
M  V30 7082 O 679.738 -1.77916 2.05081 0
M  V30 7083 C 678.194 0.303432 3.58619 0
M  V30 7084 C 677.802 1.70909 4.14119 0
M  V30 7085 C 679.546 -0.117103 4.24338 0
M  V30 7086 C 677.453 1.76696 5.64387 0
M  V30 7087 H 676.383 0.070329 0.750713 0
M  V30 7088 H 679.034 0.843147 1.62982 0
M  V30 7089 H 677.416 -0.409482 3.93877 0
M  V30 7090 H 678.59 2.44931 3.90315 0
M  V30 7091 H 676.905 2.07771 3.6086 0
M  V30 7092 H 679.502 -0.0940471 5.34617 0
M  V30 7093 H 679.845 -1.15283 4.00019 0
M  V30 7094 H 680.378 0.5449 3.9405 0
M  V30 7095 H 677.117 2.7826 5.93508 0
M  V30 7096 H 676.637 1.07034 5.90173 0
M  V30 7097 H 678.316 1.52166 6.28852 0
M  V30 7098 N 678.448 -1.51871 0.421078 0
M  V30 7099 C 679.398 -2.24171 -0.416111 0
M  V30 7100 C 680.382 -1.25763 -1.00362 0
M  V30 7101 O 681.574 -1.5094 -0.924452 0
M  V30 7102 C 678.703 -3.07533 -1.52571 0
M  V30 7103 C 677.789 -4.1336 -0.948399 0
M  V30 7104 N 678.18 -5.05704 -0.0987933 0
M  V30 7105 C 676.478 -4.29055 -1.21768 0
M  V30 7106 C 677.179 -5.8127 0.223705 0
M  V30 7107 N 676.155 -5.4221 -0.388524 0
M  V30 7108 H 679.957 -2.92925 0.239166 0
M  V30 7109 H 677.471 -1.60732 0.232191 0
M  V30 7110 H 679.468 -3.57893 -2.13819 0
M  V30 7111 H 678.128 -2.4032 -2.18349 0
M  V30 7112 H 679.139 -5.17214 0.266428 0
M  V30 7113 H 675.816 -3.73071 -1.87416 0
M  V30 7114 H 677.206 -6.65653 0.914076 0
M  V30 7115 N 679.926 -0.151884 -1.56866 0
M  V30 7116 C 680.858 0.817008 -2.14144 0
M  V30 7117 C 681.871 1.20735 -1.0921 0
M  V30 7118 O 683.06 1.15058 -1.36469 0
M  V30 7119 C 680.16 2.10844 -2.65326 0
M  V30 7120 C 679.333 1.88471 -3.94712 0
M  V30 7121 C 678.392 3.01649 -4.31155 0
M  V30 7122 O 677.418 2.73127 -4.9939 0
M  V30 7123 N 678.62 4.28947 -3.91132 0
M  V30 7124 H 681.385 0.327448 -2.97906 0
M  V30 7125 H 678.946 0.0315313 -1.61869 0
M  V30 7126 H 680.938 2.85616 -2.86715 0
M  V30 7127 H 679.508 2.51049 -1.86262 0
M  V30 7128 H 678.728 0.977088 -3.81899 0
M  V30 7129 H 680.016 1.70866 -4.79252 0
M  V30 7130 H 679.414 4.54986 -3.36161 0
M  V30 7131 H 677.971 5.00484 -4.17563 0
M  V30 7132 N 681.404 1.57128 0.121893 0
M  V30 7133 C 682.334 2.03165 1.15092 0
M  V30 7134 C 683.315 0.915587 1.43356 0
M  V30 7135 O 684.5 1.1851 1.53847 0
M  V30 7136 C 681.63 2.43352 2.47784 0
M  V30 7137 C 680.584 3.58376 2.33989 0
M  V30 7138 C 679.91 3.84454 3.71617 0
M  V30 7139 C 681.21 4.90199 1.80283 0
M  V30 7140 H 682.904 2.89382 0.768023 0
M  V30 7141 H 680.45 1.39218 0.367998 0
M  V30 7142 H 682.403 2.74163 3.20019 0
M  V30 7143 H 681.127 1.54103 2.87958 0
M  V30 7144 H 679.786 3.2777 1.64202 0
M  V30 7145 H 679.434 2.92414 4.09271 0
M  V30 7146 H 679.134 4.61877 3.6324 0
M  V30 7147 H 680.658 4.17714 4.45362 0
M  V30 7148 H 682.072 5.19565 2.42333 0
M  V30 7149 H 680.469 5.71601 1.82735 0
M  V30 7150 H 681.539 4.78904 0.760184 0
M  V30 7151 N 682.882 -0.391992 1.52647 0
M  V30 7152 C 684.298 -0.731848 1.41831 0
M  V30 7153 C 684.498 -1.9423 0.536361 0
M  V30 7154 O 683.554 -2.52499 0.00866571 0
M  V30 7155 C 684.867 -0.969743 2.84634 0
M  V30 7156 C 686.415 -1.0714 2.94092 0
M  V30 7157 C 686.89 -1.34195 4.37899 0
M  V30 7158 N 688.381 -1.41023 4.41211 0
M  V30 7159 C 689.116 -1.63616 5.49561 0
M  V30 7160 N 688.612 -1.83699 6.68002 0
M  V30 7161 N 690.405 -1.65771 5.371 0
M  V30 7162 H 682.556 0.404547 2.08512 0
M  V30 7163 H 684.819 0.11879 0.940528 0
M  V30 7164 H 684.525 -0.152465 3.51369 0
M  V30 7165 H 684.399 -1.88523 3.26709 0
M  V30 7166 H 686.786 -1.87925 2.27526 0
M  V30 7167 H 686.867 -0.133887 2.55449 0
M  V30 7168 H 686.511 -0.539207 5.0503 0
M  V30 7169 H 686.441 -2.29226 4.74092 0
M  V30 7170 H 688.932 -1.27223 3.55841 0
M  V30 7171 H 689.245 -2.00437 7.46354 0
M  V30 7172 H 687.59 -1.8093 6.71036 0
M  V30 7173 H 690.781 -1.4963 4.43541 0
M  V30 7174 H 690.954 -1.83038 6.21612 0
M  V30 7175 N 684.36 -1.4356 -0.65026 0
M  V30 7176 C 685.585 -1.48995 -1.44275 0
M  V30 7177 C 686.01 -0.109954 -1.87778 0
M  V30 7178 O 685.368 0.896926 -1.57559 0
M  V30 7179 C 685.416 -2.44341 -2.65198 0
M  V30 7180 O 684.52 -1.93172 -3.6436 0
M  V30 7181 H 683.861 -0.503852 -0.432469 0
M  V30 7182 H 686.391 -1.88504 -0.795446 0
M  V30 7183 H 686.401 -2.61743 -3.12977 0
M  V30 7184 H 685.076 -3.44588 -2.32877 0
M  V30 7185 H 683.653 -1.85445 -3.23519 0
M  V30 7186 N 685.838 0.888903 -1.30139 0
M  V30 7187 C 687.084 1.6428 -1.18912 0
M  V30 7188 C 687.417 1.92499 0.256477 0
M  V30 7189 O 686.692 1.54312 1.18397 0
M  V30 7190 C 686.975 2.9851 -2.01405 0
M  V30 7191 C 686.828 2.77288 -3.54163 0
M  V30 7192 C 688.147 3.99383 -1.84882 0
M  V30 7193 H 685.266 0.596148 -0.433333 0
M  V30 7194 H 687.908 1.0289 -1.5973 0
M  V30 7195 H 686.058 3.50907 -1.66722 0
M  V30 7196 H 687.73 2.31709 -3.98884 0
M  V30 7197 H 685.973 2.11867 -3.78543 0
M  V30 7198 H 686.644 3.72717 -4.07168 0
M  V30 7199 H 689.12 3.56132 -2.15196 0
M  V30 7200 H 687.996 4.91222 -2.44934 0
M  V30 7201 H 688.257 4.34674 -0.806902 0
M  V30 7202 N 687.317 1.12792 1.10072 0
M  V30 7203 C 688.264 0.79921 2.16521 0
M  V30 7204 C 689.234 -0.235726 1.64419 0
M  V30 7205 O 690.419 -0.109457 1.90486 0
M  V30 7206 C 687.559 0.264091 3.44088 0
M  V30 7207 C 686.672 1.35729 4.10124 0
M  V30 7208 C 685.807 0.781212 5.25424 0
M  V30 7209 C 684.846 1.85327 5.8337 0
M  V30 7210 N 683.983 1.29564 6.90042 0
M  V30 7211 H 688.823 1.71105 2.43981 0
M  V30 7212 H 686.36 0.854225 1.19756 0
M  V30 7213 H 688.318 -0.0642423 4.17151 0
M  V30 7214 H 686.948 -0.610901 3.16967 0
M  V30 7215 H 686 1.80234 3.34993 0
M  V30 7216 H 687.312 2.16782 4.4923 0
M  V30 7217 H 686.466 0.403769 6.05355 0
M  V30 7218 H 685.205 -0.0604686 4.87663 0
M  V30 7219 H 684.21 2.23986 5.02106 0
M  V30 7220 H 685.435 2.69824 6.23195 0
M  V30 7221 H 683.381 0.475844 6.54272 0
M  V30 7222 H 683.298 2.04271 7.2788 0
M  V30 7223 H 684.566 0.945545 7.73744 0
M  V30 7224 N 688.795 -1.27931 0.920396 0
M  V30 7225 C 689.728 -2.2537 0.358285 0
M  V30 7226 C 690.706 -1.53328 -0.541242 0
M  V30 7227 O 691.89 -1.82196 -0.483399 0
M  V30 7228 C 689.017 -3.35178 -0.487193 0
M  V30 7229 C 688.063 -4.25079 0.347881 0
M  V30 7230 S 688.896 -5.05792 1.75883 0
M  V30 7231 C 690.052 -6.19089 0.920832 0
M  V30 7232 H 690.285 -2.72701 1.18413 0
M  V30 7233 H 687.818 -1.36474 0.722088 0
M  V30 7234 H 689.776 -3.98895 -0.96916 0
M  V30 7235 H 688.437 -2.865 -1.28749 0
M  V30 7236 H 687.63 -5.03113 -0.298912 0
M  V30 7237 H 687.232 -3.66119 0.763748 0
M  V30 7238 H 689.524 -6.77326 0.15349 0
M  V30 7239 H 690.467 -6.8803 1.67394 0
M  V30 7240 H 690.875 -5.62573 0.466069 0
M  V30 7241 N 690.273 -0.685099 -1.4193 0
M  V30 7242 C 691.183 -0.013404 -2.34596 0
M  V30 7243 C 692.199 0.777589 -1.55658 0
M  V30 7244 O 693.375 0.717553 -1.88184 0
M  V30 7245 C 690.44 0.919031 -3.34297 0
M  V30 7246 C 689.501 0.121417 -4.29128 0
M  V30 7247 C 688.734 1.00944 -5.24067 0
M  V30 7248 O 688.957 2.24898 -5.24192 0
M  V30 7249 O 687.891 0.464724 -6.00103 0
M  V30 7250 H 691.717 -0.776978 -2.93593 0
M  V30 7251 H 689.302 -0.445379 -1.42607 0
M  V30 7252 H 691.184 1.45402 -3.9552 0
M  V30 7253 H 689.859 1.66228 -2.77759 0
M  V30 7254 H 688.766 -0.45792 -3.71287 0
M  V30 7255 H 690.099 -0.582937 -4.88736 0
M  V30 7256 N 691.751 1.51645 -0.429126 0
M  V30 7257 C 692.683 2.25279 0.422124 0
M  V30 7258 C 693.696 1.28986 0.993299 0
M  V30 7259 O 694.885 1.54797 0.888836 0
M  V30 7260 C 691.985 2.98666 1.60162 0
M  V30 7261 C 691.158 4.2199 1.15078 0
M  V30 7262 C 690.217 4.78028 2.19946 0
M  V30 7263 O 689.243 5.40084 1.79716 0
M  V30 7264 N 690.445 4.61342 3.5234 0
M  V30 7265 H 693.21 2.98971 -0.208931 0
M  V30 7266 H 690.771 1.59838 -0.257568 0
M  V30 7267 H 692.763 3.33044 2.29922 0
M  V30 7268 H 691.333 2.28036 2.13818 0
M  V30 7269 H 690.553 3.932 0.280552 0
M  V30 7270 H 691.841 5.02037 0.826831 0
M  V30 7271 H 691.239 4.11894 3.87763 0
M  V30 7272 H 689.796 5.00104 4.18019 0
M  V30 7273 N 693.229 0.160201 1.56784 0
M  V30 7274 C 694.645 -0.196089 1.58391 0
M  V30 7275 C 694.845 -1.63689 1.17508 0
M  V30 7276 O 693.901 -2.36613 0.881506 0
M  V30 7277 C 695.214 0.0746449 3.00607 0
M  V30 7278 C 696.762 0.0119762 3.12998 0
M  V30 7279 C 697.237 0.255551 4.57286 0
M  V30 7280 N 698.728 0.202938 4.62755 0
M  V30 7281 C 699.463 0.365731 5.72232 0
M  V30 7282 N 698.959 0.586972 6.90309 0
M  V30 7283 N 700.752 0.302411 5.61286 0
M  V30 7284 H 692.903 1.1008 1.81648 0
M  V30 7285 H 695.166 0.436779 0.841384 0
M  V30 7286 H 694.872 1.07231 3.34954 0
M  V30 7287 H 694.746 -0.638802 3.71751 0
M  V30 7288 H 697.133 -0.976254 2.78484 0
M  V30 7289 H 697.214 0.75796 2.44313 0
M  V30 7290 H 696.858 1.24094 4.92507 0
M  V30 7291 H 696.788 -0.510912 5.24116 0
M  V30 7292 H 699.279 0.0371328 3.77882 0
M  V30 7293 H 699.592 0.700941 7.69615 0
M  V30 7294 H 697.937 0.623453 6.92198 0
M  V30 7295 H 701.128 0.130238 4.67919 0
M  V30 7296 H 701.301 0.432712 6.46554 0
M  V30 7297 N 694.707 -1.5719 -0.113559 0
M  V30 7298 C 695.654 -2.00736 -1.13901 0
M  V30 7299 C 696.624 -0.88044 -1.40846 0
M  V30 7300 O 697.809 -1.14507 -1.5262 0
M  V30 7301 C 694.949 -2.42132 -2.45899 0
M  V30 7302 C 694.062 -3.68264 -2.25844 0
M  V30 7303 C 693.197 -3.98617 -3.5111 0
M  V30 7304 C 692.236 -5.17915 -3.26236 0
M  V30 7305 N 691.373 -5.44111 -4.4372 0
M  V30 7306 H 696.213 -2.88128 -0.760677 0
M  V30 7307 H 693.75 -1.42523 -0.364099 0
M  V30 7308 H 695.708 -2.6417 -3.22908 0
M  V30 7309 H 694.338 -1.57775 -2.81615 0
M  V30 7310 H 693.39 -3.53809 -1.39726 0
M  V30 7311 H 694.702 -4.55425 -2.03444 0
M  V30 7312 H 693.856 -4.21333 -4.36536 0
M  V30 7313 H 692.595 -3.09942 -3.76546 0
M  V30 7314 H 691.6 -4.95038 -2.39202 0
M  V30 7315 H 692.825 -6.08172 -3.02165 0
M  V30 7316 H 690.771 -4.58394 -4.69266 0
M  V30 7317 H 690.688 -6.25606 -4.24444 0
M  V30 7318 H 691.956 -5.71351 -5.30263 0
M  V30 7319 N 696.185 0.383891 -1.52853 0
M  V30 7320 C 697.115 1.47559 -1.80965 0
M  V30 7321 C 698.096 1.5669 -0.661986 0
M  V30 7322 O 699.281 1.71556 -0.910072 0
M  V30 7323 C 696.411 2.85114 -1.98312 0
M  V30 7324 C 695.365 2.9082 -3.14019 0
M  V30 7325 C 694.691 4.30873 -3.16627 0
M  V30 7326 C 695.991 2.60001 -4.52986 0
M  V30 7327 H 697.685 1.24283 -2.72386 0
M  V30 7328 H 695.231 0.596445 -1.31067 0
M  V30 7329 H 697.184 3.61496 -2.16561 0
M  V30 7330 H 695.908 3.09738 -1.03585 0
M  V30 7331 H 694.567 2.16886 -2.9556 0
M  V30 7332 H 694.215 4.52545 -2.19573 0
M  V30 7333 H 693.915 4.3561 -3.94357 0
M  V30 7334 H 695.439 5.09154 -3.37038 0
M  V30 7335 H 696.853 3.261 -4.71521 0
M  V30 7336 H 695.25 2.76081 -5.32822 0
M  V30 7337 H 696.32 1.5532 -4.59351 0
M  V30 7338 N 697.663 1.43903 0.642637 0
M  V30 7339 C 698.611 1.50164 1.77634 0
M  V30 7340 C 699.605 0.374294 1.65213 0
M  V30 7341 O 700.811 0.548748 1.71431 0
M  V30 7342 H 697.186 0.470974 0.586249 0
M  V30 7343 H 699.157 2.45603 1.69474 0
M  V30 7344 C 697.906 1.45196 3.15933 0
M  V30 7345 H 697.229 2.31253 3.26132 0
M  V30 7346 H 698.669 1.53638 3.95185 0
M  V30 7347 C 697.128 0.171043 3.36466 0
M  V30 7348 O 697.658 -0.763413 3.94379 0
M  V30 7349 N 695.864 0.077847 2.90496 0
M  V30 7350 H 695.411 0.8391 2.43551 0
M  V30 7351 H 695.369 -0.778473 3.0461 0
M  V30 7352 N 699.141 -0.881989 1.30609 0
M  V30 7353 C 700.418 -1.61563 1.10258 0
M  V30 7354 C 700.798 -2.08228 -0.347053 0
M  V30 7355 O 700.146 -1.85151 -1.33908 0
M  V30 7356 C 700.356 -2.78287 2.10612 0
M  V30 7357 C 701.704 -3.48545 2.4249 0
M  V30 7358 O 702.728 -2.88479 2.08945 0
M  V30 7359 O 701.587 -4.56873 2.99883 0
M  V30 7360 H 698.681 -0.710238 0.423663 0
M  V30 7361 H 701.227 -0.928503 1.42045 0
M  V30 7362 H 699.999 -2.41131 3.08174 0
M  V30 7363 H 699.622 -3.54695 1.79659 0
M  V30 7364 N 700.619 -1.13374 -1.09472 0
M  V30 7365 C 701.551 -0.768466 -2.15933 0
M  V30 7366 C 702.564 0.209585 -1.61445 0
M  V30 7367 O 703.753 -0.010539 -1.78497 0
M  V30 7368 C 700.853 -0.118266 -3.38694 0
M  V30 7369 C 700.026 -1.12829 -4.22597 0
M  V30 7370 C 699.085 -0.503875 -5.23782 0
M  V30 7371 O 698.111 -1.16374 -5.57177 0
M  V30 7372 N 699.313 0.724288 -5.75964 0
M  V30 7373 H 702.078 -1.68457 -2.47876 0
M  V30 7374 H 699.639 -1.02668 -1.25183 0
M  V30 7375 H 701.631 0.311698 -4.03498 0
M  V30 7376 H 700.201 0.700769 -3.04644 0
M  V30 7377 H 699.421 -1.73556 -3.53938 0
M  V30 7378 H 700.709 -1.81095 -4.75481 0
M  V30 7379 H 700.107 1.27918 -5.51048 0
M  V30 7380 H 698.664 1.09692 -6.42504 0
M  V30 7381 N 702.098 1.27442 -0.927168 0
M  V30 7382 C 703.061 2.2512 -0.430525 0
M  V30 7383 C 704.061 1.54357 0.450619 0
M  V30 7384 O 705.251 1.72371 0.251774 0
M  V30 7385 C 702.383 3.38763 0.381144 0
M  V30 7386 H 703.576 2.70569 -1.29354 0
M  V30 7387 H 701.129 1.39355 -0.707806 0
M  V30 7388 H 701.864 2.98695 1.263 0
M  V30 7389 H 701.649 3.91298 -0.250618 0
M  V30 7390 H 703.139 4.11364 0.719012 0
M  V30 7391 N 703.576 0.692616 1.41565 0
M  V30 7392 C 704.524 0.0139952 2.32596 0
M  V30 7393 C 705.518 -0.771691 1.50802 0
M  V30 7394 O 706.724 -0.677646 1.66757 0
M  V30 7395 H 703.099 -0.0142745 0.751865 0
M  V30 7396 H 705.07 0.798851 2.87508 0
M  V30 7397 C 703.819 -0.910602 3.35564 0
M  V30 7398 H 703.142 -0.315446 3.98554 0
M  V30 7399 H 704.582 -1.3538 4.01806 0
M  V30 7400 C 703.041 -2.02539 2.6922 0
M  V30 7401 O 703.571 -3.11386 2.53775 0
M  V30 7402 N 701.777 -1.80227 2.27962 0
M  V30 7403 H 701.324 -0.917054 2.40724 0
M  V30 7404 H 701.282 -2.55001 1.83907 0
M  V30 7405 N 705.054 -1.51416 0.437162 0
M  V30 7406 C 706.282 -2.06503 -0.128045 0
M  V30 7407 C 706.697 -1.30461 -1.36475 0
M  V30 7408 O 706.054 -0.364127 -1.78831 0
M  V30 7409 C 706.105 -3.58683 -0.450437 0
M  V30 7410 O 705.826 -4.31853 0.737186 0
M  V30 7411 C 707.327 -4.30284 -1.06633 0
M  V30 7412 H 704.547 -0.670952 -0.00800269 0
M  V30 7413 H 707.091 -1.94996 0.616193 0
M  V30 7414 H 705.246 -3.70106 -1.14457 0
M  V30 7415 H 705.66 -5.22467 0.461347 0
M  V30 7416 H 707.134 -5.37848 -1.24191 0
M  V30 7417 H 707.611 -3.88564 -2.0473 0
M  V30 7418 H 708.217 -4.23304 -0.411585 0
M  V30 7419 N 706.532 -0.168513 -1.56696 0
M  V30 7420 C 707.462 0.758563 -2.20835 0
M  V30 7421 C 708.443 1.24121 -1.1631 0
M  V30 7422 O 709.628 1.29487 -1.4473 0
M  V30 7423 C 706.758 1.9892 -2.8469 0
M  V30 7424 C 705.712 1.64252 -3.95228 0
M  V30 7425 C 705.038 2.94757 -4.46119 0
M  V30 7426 C 706.338 0.872675 -5.14958 0
M  V30 7427 H 708.032 0.223953 -2.98561 0
M  V30 7428 H 705.578 0.106277 -1.43607 0
M  V30 7429 H 707.531 2.64275 -3.28233 0
M  V30 7430 H 706.255 2.5479 -2.04327 0
M  V30 7431 H 704.914 1.01266 -3.52336 0
M  V30 7432 H 704.562 3.48662 -3.62552 0
M  V30 7433 H 704.262 2.72316 -5.2069 0
M  V30 7434 H 705.786 3.61147 -4.92347 0
M  V30 7435 H 707.2 1.42875 -5.55211 0
M  V30 7436 H 705.597 0.747402 -5.95428 0
M  V30 7437 H 706.667 -0.131535 -4.84722 0
M  V30 7438 N 708.01 1.57248 0.105221 0
M  V30 7439 C 709.256 1.85845 0.811753 0
M  V30 7440 C 709.589 0.756219 1.78871 0
M  V30 7441 O 708.864 -0.236736 1.93054 0
M  V30 7442 C 709.147 3.25059 1.54947 0
M  V30 7443 C 709 4.45898 0.591185 0
M  V30 7444 C 710.319 3.6203 2.50245 0
M  V30 7445 H 707.438 0.675973 0.293649 0
M  V30 7446 H 710.08 1.89849 0.0756269 0
M  V30 7447 H 708.23 3.21776 2.17698 0
M  V30 7448 H 709.902 4.61291 -0.0285352 0
M  V30 7449 H 708.145 4.33693 -0.0962343 0
M  V30 7450 H 708.816 5.40009 1.1443 0
M  V30 7451 H 711.292 3.66192 1.97593 0
M  V30 7452 H 710.168 4.60389 2.98886 0
M  V30 7453 H 710.429 2.90176 3.33542 0
M  V30 7454 N 709.488 -0.375779 1.53054 0
M  V30 7455 C 710.765 -1.13453 1.59336 0
M  V30 7456 C 711.145 -2.07379 0.394614 0
M  V30 7457 O 710.493 -2.2004 -0.616 0
M  V30 7458 C 710.703 -1.8826 2.93869 0
M  V30 7459 C 712.051 -2.43155 3.48081 0
M  V30 7460 O 713.075 -1.984 2.95831 0
M  V30 7461 O 711.934 -3.24944 4.39401 0
M  V30 7462 H 709.028 -0.519856 0.643179 0
M  V30 7463 H 711.574 -0.379865 1.65394 0
M  V30 7464 H 710.346 -1.19652 3.72558 0
M  V30 7465 H 709.969 -2.70658 2.91256 0
M  V30 7466 N 710.966 -1.44241 -0.634997 0
M  V30 7467 C 711.896 -1.53632 -1.7584 0
M  V30 7468 C 712.877 -0.389603 -1.65578 0
M  V30 7469 O 714.062 -0.609219 -1.84397 0
M  V30 7470 C 711.192 -1.47644 -3.14354 0
M  V30 7471 C 710.146 -2.60752 -3.394 0
M  V30 7472 C 709.472 -2.39817 -4.77904 0
M  V30 7473 C 710.772 -4.02921 -3.32343 0
M  V30 7474 H 712.466 -2.47662 -1.68238 0
M  V30 7475 H 710.012 -1.19197 -0.807969 0
M  V30 7476 H 711.965 -1.52815 -3.92716 0
M  V30 7477 H 710.689 -0.501284 -3.2273 0
M  V30 7478 H 709.348 -2.54965 -2.63417 0
M  V30 7479 H 708.996 -1.40502 -4.82978 0
M  V30 7480 H 708.696 -3.15649 -4.9562 0
M  V30 7481 H 710.22 -2.46799 -5.585 0
M  V30 7482 H 711.634 -4.10098 -4.00615 0
M  V30 7483 H 710.031 -4.78925 -3.61595 0
M  V30 7484 H 711.101 -4.26766 -2.30215 0
M  V30 7485 N 712.444 0.87505 -1.31075 0
M  V30 7486 C 713.407 1.96333 -1.18263 0
M  V30 7487 C 714.407 1.60416 -0.111106 0
M  V30 7488 O 715.597 1.7044 -0.359987 0
M  V30 7489 C 712.729 3.31036 -0.81414 0
M  V30 7490 H 713.922 2.09125 -2.14958 0
M  V30 7491 H 711.475 1.06271 -1.14614 0
M  V30 7492 H 712.21 3.23944 0.151875 0
M  V30 7493 H 711.995 3.58476 -1.58862 0
M  V30 7494 H 713.485 4.10842 -0.748249 0
M  V30 7495 N 713.922 1.13953 1.08869 0
M  V30 7496 C 714.869 0.82213 2.15661 0
M  V30 7497 C 715.839 -0.218274 1.6466 0
M  V30 7498 O 717.024 -0.0892475 1.90591 0
M  V30 7499 C 714.164 0.300572 3.43789 0
M  V30 7500 C 713.277 1.40071 4.08661 0
M  V30 7501 C 712.412 0.836897 5.24566 0
M  V30 7502 C 711.451 1.91504 5.81371 0
M  V30 7503 N 710.588 1.36875 6.88629 0
M  V30 7504 H 715.428 1.73683 2.42153 0
M  V30 7505 H 712.965 0.866879 1.18843 0
M  V30 7506 H 714.923 -0.0199943 4.17195 0
M  V30 7507 H 713.553 -0.577248 3.17597 0
M  V30 7508 H 712.605 1.83776 3.33062 0
M  V30 7509 H 713.917 2.21534 4.46905 0
M  V30 7510 H 713.071 0.467953 6.04893 0
M  V30 7511 H 711.81 -0.00874207 4.87699 0
M  V30 7512 H 710.815 2.29299 4.99702 0
M  V30 7513 H 712.04 2.76419 6.20298 0
M  V30 7514 H 709.986 0.545211 6.5373 0
M  V30 7515 H 709.903 2.1198 7.25672 0
M  V30 7516 H 711.171 1.02756 7.72698 0
M  V30 7517 N 715.4 -1.26948 0.933913 0
M  V30 7518 C 716.628 -1.98186 0.59414 0
M  V30 7519 C 717.043 -1.69614 -0.829257 0
M  V30 7520 O 716.4 -0.960213 -1.55197 0
M  V30 7521 C 716.451 -3.52123 0.818026 0
M  V30 7522 O 716.172 -3.79698 2.18543 0
M  V30 7523 C 717.673 -4.40608 0.48781 0
M  V30 7524 H 714.893 -0.632305 0.224569 0
M  V30 7525 H 717.437 -1.61646 1.25263 0
M  V30 7526 H 715.592 -3.86851 0.206246 0
M  V30 7527 H 716.006 -4.7426 2.24005 0
M  V30 7528 H 717.48 -5.47606 0.695126 0
M  V30 7529 H 717.957 -4.35394 -0.576913 0
M  V30 7530 H 718.563 -4.11411 1.078 0
M  V30 7531 N 716.879 -0.700114 -1.41195 0
M  V30 7532 C 717.811 0.00155823 -2.292 0
M  V30 7533 C 718.824 0.739736 -1.45023 0
M  V30 7534 O 720.013 0.589684 -1.68478 0
M  V30 7535 C 717.113 1.02635 -3.22985 0
M  V30 7536 C 716.286 0.356871 -4.35942 0
M  V30 7537 C 715.345 1.28491 -5.10271 0
M  V30 7538 O 714.371 0.775562 -5.63892 0
M  V30 7539 N 715.573 2.61699 -5.18164 0
M  V30 7540 H 718.338 -0.754008 -2.9006 0
M  V30 7541 H 715.899 -0.546504 -1.52397 0
M  V30 7542 H 717.891 1.64902 -3.6958 0
M  V30 7543 H 716.461 1.68341 -2.63401 0
M  V30 7544 H 715.681 -0.445753 -3.91672 0
M  V30 7545 H 716.969 -0.108469 -5.08684 0
M  V30 7546 H 716.367 3.05594 -4.76056 0
M  V30 7547 H 714.924 3.19149 -5.6832 0
M  V30 7548 N 718.357 1.51182 -0.445186 0
M  V30 7549 C 719.305 2.29531 0.376597 0
M  V30 7550 C 720.299 1.35711 1.01385 0
M  V30 7551 O 721.505 1.53018 0.947922 0
M  V30 7552 H 717.88 0.738803 0.140267 0
M  V30 7553 H 719.851 2.96838 -0.304958 0
M  V30 7554 C 718.6 3.1552 1.4609 0
M  V30 7555 H 717.923 3.87605 0.979912 0
M  V30 7556 H 719.363 3.73384 2.009 0
M  V30 7557 C 717.822 2.31406 2.44852 0
M  V30 7558 O 718.352 1.97912 3.49562 0
M  V30 7559 N 716.558 1.94478 2.15932 0
M  V30 7560 H 716.105 2.21917 1.30808 0
M  V30 7561 H 716.063 1.38498 2.82251 0
M  V30 7562 N 719.835 0.176821 1.56605 0
M  V30 7563 C 721.084 -0.466833 1.96223 0
M  V30 7564 C 721.397 -1.64015 1.06576 0
M  V30 7565 O 722.603 -2.3504 1.35898 0
M  V30 7566 C 721.059 -0.881921 3.48927 0
M  V30 7567 C 720.667 0.266102 4.47209 0
M  V30 7568 C 722.411 -1.49368 3.97353 0
M  V30 7569 C 720.318 -0.168923 5.91159 0
M  V30 7570 H 719.248 -0.178178 0.732645 0
M  V30 7571 H 721.899 0.265929 1.81563 0
M  V30 7572 H 720.281 -1.67082 3.59026 0
M  V30 7573 H 721.455 1.04349 4.4883 0
M  V30 7574 H 719.77 0.788178 4.08872 0
M  V30 7575 H 722.367 -1.8313 5.02362 0
M  V30 7576 H 722.71 -2.3936 3.40606 0
M  V30 7577 H 723.243 -0.769114 3.90294 0
M  V30 7578 H 719.982 0.696351 6.51791 0
M  V30 7579 H 719.502 -0.911552 5.92833 0
M  V30 7580 H 721.181 -0.610938 6.44109 0
M  V30 7581 N 721.313 -1.57302 -0.09688 0
M  V30 7582 C 722.246 -1.97179 -1.14872 0
M  V30 7583 C 723.224 -0.844734 -1.38935 0
M  V30 7584 O 724.408 -1.10487 -1.52725 0
M  V30 7585 C 721.535 -2.28703 -2.49826 0
M  V30 7586 C 720.581 -3.51158 -2.42054 0
M  V30 7587 S 721.414 -5.0294 -1.83879 0
M  V30 7588 C 722.57 -5.37639 -3.2046 0
M  V30 7589 H 722.803 -2.86088 -0.808771 0
M  V30 7590 H 720.336 -1.51368 -0.304492 0
M  V30 7591 H 722.294 -2.47541 -3.27466 0
M  V30 7592 H 720.955 -1.40368 -2.8099 0
M  V30 7593 H 720.148 -3.70651 -3.41517 0
M  V30 7594 H 719.75 -3.31821 -1.72543 0
M  V30 7595 H 722.042 -5.34175 -4.16729 0
M  V30 7596 H 722.985 -6.38677 -3.05773 0
M  V30 7597 H 723.393 -4.651 -3.19909 0
M  V30 7598 N 722.791 0.367657 -1.53252 0
M  V30 7599 C 724.021 1.12955 -1.72988 0
M  V30 7600 C 724.429 1.8358 -0.457708 0
M  V30 7601 O 723.772 1.74336 0.579006 0
M  V30 7602 C 723.834 2.20545 -2.83902 0
M  V30 7603 C 723.498 1.69704 -4.24323 0
M  V30 7604 C 724.495 1.16223 -5.06743 0
M  V30 7605 C 722.18 1.7528 -4.70725 0
M  V30 7606 C 724.174 0.689935 -6.33655 0
M  V30 7607 C 721.861 1.27662 -5.97617 0
M  V30 7608 C 722.859 0.746083 -6.78913 0
M  V30 7609 O 722.547 0.276925 -8.03423 0
M  V30 7610 H 722.279 0.343753 -0.582074 0
M  V30 7611 H 724.833 0.433106 -2.00782 0
M  V30 7612 H 723.063 2.93676 -2.51577 0
M  V30 7613 H 724.752 2.82111 -2.91836 0
M  V30 7614 H 725.518 1.11256 -4.72067 0
M  V30 7615 H 721.397 2.15515 -4.07522 0
M  V30 7616 H 724.941 0.275164 -6.97057 0
M  V30 7617 H 720.838 1.32322 -6.31792 0
M  V30 7618 H 721.606 0.396445 -8.17539 0
M  V30 7619 N 724.269 1.44576 0.627338 0
M  V30 7620 C 725.546 1.38033 1.38586 0
M  V30 7621 C 725.926 0.0409468 2.1106 0
M  V30 7622 O 725.274 -0.976582 2.0658 0
M  V30 7623 C 725.484 2.58102 2.34913 0
M  V30 7624 C 726.832 3.02332 2.98129 0
M  V30 7625 O 727.856 2.58334 2.45238 0
M  V30 7626 O 726.715 3.78628 3.94085 0
M  V30 7627 H 723.809 0.546801 0.620434 0
M  V30 7628 H 726.355 1.56672 0.652077 0
M  V30 7629 H 725.127 3.4719 1.80485 0
M  V30 7630 H 724.75 2.41696 3.15703 0
M  V30 7631 N 725.747 -0.868086 1.31537 0
M  V30 7632 C 726.68 -1.97871 1.13676 0
M  V30 7633 C 727.658 -1.62551 0.0397589 0
M  V30 7634 O 728.842 -1.87473 0.196539 0
M  V30 7635 C 725.969 -3.30577 0.73734 0
M  V30 7636 C 725.015 -3.8488 1.83765 0
M  V30 7637 S 725.848 -4.10106 3.44345 0
M  V30 7638 C 727.004 -5.45806 3.06344 0
M  V30 7639 H 727.237 -2.12719 2.07697 0
M  V30 7640 H 724.77 -1.01849 1.16044 0
M  V30 7641 H 726.728 -4.07274 0.513641 0
M  V30 7642 H 725.389 -3.13562 -0.183787 0
M  V30 7643 H 724.582 -4.80821 1.51085 0
M  V30 7644 H 724.184 -3.14981 2.01651 0
M  V30 7645 H 726.476 -6.27535 2.55354 0
M  V30 7646 H 727.419 -5.83437 4.01257 0
M  V30 7647 H 727.827 -5.0917 2.43734 0
M  V30 7648 N 727.225 -1.14528 -1.08264 0
M  V30 7649 C 728.474 -0.908992 -1.80056 0
M  V30 7650 C 728.787 0.565859 -1.87236 0
M  V30 7651 O 729.993 0.919454 -2.55457 0
M  V30 7652 C 728.449 -1.57681 -3.23519 0
M  V30 7653 C 728.057 -3.08803 -3.24569 0
M  V30 7654 C 729.801 -1.4217 -3.99985 0
M  V30 7655 C 727.708 -3.68414 -4.62629 0
M  V30 7656 H 726.638 -0.336432 -0.674781 0
M  V30 7657 H 729.289 -1.37437 -1.21587 0
M  V30 7658 H 727.671 -1.03911 -3.82124 0
M  V30 7659 H 728.845 -3.69252 -2.75663 0
M  V30 7660 H 727.16 -3.23968 -2.61598 0
M  V30 7661 H 729.757 -1.84106 -5.02005 0
M  V30 7662 H 730.1 -0.367989 -4.1467 0
M  V30 7663 H 730.633 -1.92984 -3.47853 0
M  V30 7664 H 727.372 -4.73644 -4.53147 0
M  V30 7665 H 726.892 -3.12746 -5.11811 0
M  V30 7666 H 728.571 -3.68793 -5.31602 0
M  V30 7667 N 728.703 1.26451 -0.940633 0
M  V30 7668 C 729.928 1.98407 -0.60412 0
M  V30 7669 C 730.353 1.69584 0.81382 0
M  V30 7670 O 729.711 0.943553 1.54812 0
M  V30 7671 C 729.759 3.50387 -0.852136 0
M  V30 7672 O 728.863 4.1233 0.076013 0
M  V30 7673 H 728.204 0.622466 -0.231153 0
M  V30 7674 H 730.734 1.60932 -1.26342 0
M  V30 7675 H 730.744 4.00614 -0.772816 0
M  V30 7676 H 729.419 3.70696 -1.88566 0
M  V30 7677 H 727.996 3.7286 -0.0543187 0
M  V30 7678 N 730.181 0.707592 1.40822 0
M  V30 7679 C 731.458 0.171172 1.9485 0
M  V30 7680 C 731.838 -1.32143 1.64625 0
M  V30 7681 O 731.186 -2.07372 0.959647 0
M  V30 7682 C 731.396 0.475334 3.45748 0
M  V30 7683 C 732.744 0.409625 4.22619 0
M  V30 7684 O 733.768 0.410934 3.53822 0
M  V30 7685 O 732.627 0.380185 5.45176 0
M  V30 7686 H 729.721 0.022015 0.826707 0
M  V30 7687 H 732.267 0.784577 1.50474 0
M  V30 7688 H 731.039 1.50801 3.61075 0
M  V30 7689 H 730.662 -0.168439 3.97243 0
M  V30 7690 N 731.66 -1.50943 0.453197 0
M  V30 7691 C 732.59 -2.31005 -0.34044 0
M  V30 7692 C 733.571 -1.37112 -1.00669 0
M  V30 7693 O 734.756 -1.66033 -1.0073 0
M  V30 7694 C 731.886 -3.16358 -1.433 0
M  V30 7695 C 730.84 -4.18658 -0.889363 0
M  V30 7696 C 730.166 -4.92633 -2.07887 0
M  V30 7697 C 731.466 -5.22227 0.0871142 0
M  V30 7698 H 733.16 -2.97601 0.327723 0
M  V30 7699 H 730.706 -1.43119 0.159054 0
M  V30 7700 H 732.659 -3.71155 -1.99555 0
M  V30 7701 H 731.383 -2.47613 -2.12968 0
M  V30 7702 H 730.042 -3.64936 -0.348915 0
M  V30 7703 H 729.69 -4.20376 -2.76211 0
M  V30 7704 H 729.39 -5.61819 -1.72143 0
M  V30 7705 H 730.914 -5.50258 -2.64666 0
M  V30 7706 H 732.328 -5.72001 -0.385656 0
M  V30 7707 H 730.725 -5.99032 0.357926 0
M  V30 7708 H 731.795 -4.74077 1.01879 0
M  V30 7709 N 733.138 -0.185124 -1.56509 0
M  V30 7710 C 734.086 0.756505 -2.19954 0
M  V30 7711 C 735.08 1.22725 -1.16769 0
M  V30 7712 O 736.286 1.1913 -1.34937 0
M  V30 7713 H 732.661 0.262279 -0.704779 0
M  V30 7714 H 734.632 0.197587 -2.97745 0
M  V30 7715 C 733.381 1.96975 -2.86524 0
M  V30 7716 H 732.704 1.61658 -3.65659 0
M  V30 7717 H 734.144 2.60719 -3.34367 0
M  V30 7718 C 732.603 2.80219 -1.87027 0
M  V30 7719 O 733.133 3.77821 -1.36433 0
M  V30 7720 N 731.339 2.4551 -1.55477 0
M  V30 7721 H 730.886 1.66199 -1.96813 0
M  V30 7722 H 730.844 3.01493 -0.891597 0
M  V30 7723 N 734.616 1.57351 0.0885366 0
M  V30 7724 C 735.526 2.05858 1.12516 0
M  V30 7725 C 736.542 0.984758 1.43452 0
M  V30 7726 O 737.718 1.29836 1.53963 0
M  V30 7727 C 734.783 2.47882 2.42395 0
M  V30 7728 C 733.844 3.69487 2.18582 0
M  V30 7729 C 733.077 4.09497 3.42268 0
M  V30 7730 O 733.3 3.49536 4.50755 0
M  V30 7731 O 732.234 5.02406 3.31469 0
M  V30 7732 H 736.06 2.94467 0.743146 0
M  V30 7733 H 733.645 1.46326 0.301507 0
M  V30 7734 H 735.527 2.75509 3.18862 0
M  V30 7735 H 734.202 1.62408 2.8001 0
M  V30 7736 H 733.109 3.46967 1.39875 0
M  V30 7737 H 734.442 4.55761 1.85857 0
M  V30 7738 N 736.094 -0.359525 1.53444 0
M  V30 7739 C 737.51 -0.701599 1.43352 0
M  V30 7740 C 737.71 -1.93049 0.577439 0
M  V30 7741 O 736.766 -2.52423 0.0622224 0
M  V30 7742 C 738.079 -0.90915 2.86627 0
M  V30 7743 C 739.627 -1.00878 2.96298 0
M  V30 7744 C 740.102 -1.24876 4.40647 0
M  V30 7745 N 741.593 -1.31632 4.44103 0
M  V30 7746 C 742.328 -1.51922 5.52908 0
M  V30 7747 N 741.824 -1.69489 6.71748 0
M  V30 7748 N 743.617 -1.54341 5.40496 0
M  V30 7749 H 735.768 0.448685 2.07607 0
M  V30 7750 H 738.031 0.138713 0.937797 0
M  V30 7751 H 737.737 -0.0778997 3.51614 0
M  V30 7752 H 737.611 -1.81551 3.30634 0
M  V30 7753 H 739.998 -1.83057 2.31461 0
M  V30 7754 H 740.079 -0.0796721 2.55676 0
M  V30 7755 H 739.723 -0.431961 5.0606 0
M  V30 7756 H 739.653 -2.19118 4.78848 0
M  V30 7757 H 742.144 -1.19646 3.5846 0
M  V30 7758 H 742.457 -1.84561 7.50438 0
M  V30 7759 H 740.802 -1.66655 6.74723 0
M  V30 7760 H 743.993 -1.40188 4.46615 0
M  V30 7761 H 744.166 -1.69812 6.25354 0
M  V30 7762 N 737.572 -1.44907 -0.619662 0
M  V30 7763 C 738.797 -1.52021 -1.41083 0
M  V30 7764 C 739.222 -0.14976 -1.87503 0
M  V30 7765 O 738.58 0.863303 -1.59426 0
M  V30 7766 C 738.628 -2.49911 -2.59955 0
M  V30 7767 O 737.732 -2.00857 -3.60181 0
M  V30 7768 H 737.073 -0.512912 -0.421684 0
M  V30 7769 H 739.603 -1.90149 -0.755282 0
M  V30 7770 H 739.613 -2.68323 -3.07354 0
M  V30 7771 H 738.288 -3.4945 -2.25516 0
M  V30 7772 H 736.865 -1.92265 -3.19513 0
M  V30 7773 N 739.05 0.861098 -1.31996 0
M  V30 7774 C 739.96 2.00154 -1.22374 0
M  V30 7775 C 740.976 1.73447 -0.138631 0
M  V30 7776 O 742.152 1.98191 -0.358104 0
M  V30 7777 C 739.217 3.33696 -0.940645 0
M  V30 7778 C 738.278 3.73668 -2.11355 0
M  V30 7779 C 737.511 5.00837 -1.84386 0
M  V30 7780 O 737.734 5.64996 -0.783287 0
M  V30 7781 O 736.668 5.37787 -2.70313 0
M  V30 7782 H 740.494 2.11207 -2.18233 0
M  V30 7783 H 738.079 0.990768 -1.11822 0
M  V30 7784 H 739.961 4.13756 -0.798987 0
M  V30 7785 H 738.636 3.23698 -0.0121636 0
M  V30 7786 H 737.543 2.94211 -2.31065 0
M  V30 7787 H 738.876 3.88303 -3.02459 0
M  V30 7788 N 740.528 1.15101 1.07655 0
M  V30 7789 C 741.805 0.834578 1.76902 0
M  V30 7790 C 742.185 -0.670431 2.00171 0
M  V30 7791 O 741.533 -1.61378 1.6177 0
M  V30 7792 C 741.743 1.64191 3.07965 0
M  V30 7793 C 743.091 1.84615 3.82364 0
M  V30 7794 O 744.115 1.60941 3.17768 0
M  V30 7795 O 742.974 2.24244 4.98374 0
M  V30 7796 H 740.068 0.306608 0.768063 0
M  V30 7797 H 742.614 1.25663 1.14048 0
M  V30 7798 H 741.386 2.66386 2.86626 0
M  V30 7799 H 741.009 1.216 3.78549 0
M  V30 7800 N 742.006 -1.2595 0.947325 0
M  V30 7801 C 743.253 -1.93463 0.598178 0
M  V30 7802 C 743.581 -1.74271 -0.863705 0
M  V30 7803 O 742.836 -1.07684 -1.63409 0
M  V30 7804 C 743.135 -3.46034 0.894158 0
M  V30 7805 C 742.801 -3.85373 2.3409 0
M  V30 7806 C 741.463 -3.95823 2.73637 0
M  V30 7807 C 743.815 -4.04986 3.2808 0
M  V30 7808 C 741.143 -4.23288 4.06257 0
M  V30 7809 C 743.495 -4.3394 4.60303 0
M  V30 7810 C 742.159 -4.42606 4.99656 0
M  V30 7811 H 741.429 -0.707933 0.218889 0
M  V30 7812 H 744.076 -1.4964 1.19499 0
M  V30 7813 H 742.381 -3.9121 0.214874 0
M  V30 7814 H 744.078 -3.96445 0.602698 0
M  V30 7815 H 740.668 -3.7779 2.02417 0
M  V30 7816 H 744.852 -3.96333 2.9872 0
M  V30 7817 H 740.108 -4.28211 4.36401 0
M  V30 7818 H 744.282 -4.48061 5.33118 0
M  V30 7819 H 741.909 -4.63641 6.02446 0
M  V30 7820 N 743.484 -0.715051 -1.40445 0
M  V30 7821 C 744.394 -0.0631624 -2.34515 0
M  V30 7822 C 745.41 0.744397 -1.57273 0
M  V30 7823 O 746.586 0.677475 -1.89663 0
M  V30 7824 C 743.651 0.847915 -3.36172 0
M  V30 7825 C 742.712 0.0303655 -4.29289 0
M  V30 7826 C 741.945 0.898051 -5.2609 0
M  V30 7827 O 742.168 2.13729 -5.28844 0
M  V30 7828 O 741.102 0.337328 -6.00954 0
M  V30 7829 H 744.928 -0.839078 -2.91879 0
M  V30 7830 H 742.513 -0.475527 -1.4163 0
M  V30 7831 H 744.395 1.3698 -3.98515 0
M  V30 7832 H 743.07 1.60299 -2.81222 0
M  V30 7833 H 741.977 -0.536573 -3.70232 0
M  V30 7834 H 743.31 -0.686474 -4.87389 0
M  V30 7835 N 744.962 1.50701 -0.461195 0
M  V30 7836 C 745.909 2.2831 0.338094 0
M  V30 7837 C 746.879 1.32928 0.995957 0
M  V30 7838 O 748.064 1.61857 1.0103 0
M  V30 7839 C 745.204 3.14539 1.41983 0
M  V30 7840 C 744.317 4.24942 0.77773 0
M  V30 7841 C 743.452 4.98443 1.83652 0
M  V30 7842 C 742.491 6.00733 1.17413 0
M  V30 7843 N 741.628 6.6755 2.17533 0
M  V30 7844 H 746.468 2.96167 -0.330051 0
M  V30 7845 H 744.005 1.4606 -0.174611 0
M  V30 7846 H 745.963 3.62877 2.05855 0
M  V30 7847 H 744.593 2.48749 2.05727 0
M  V30 7848 H 743.645 3.80391 0.0266924 0
M  V30 7849 H 744.957 4.98151 0.254362 0
M  V30 7850 H 744.111 5.50449 2.55129 0
M  V30 7851 H 742.85 4.24917 2.39367 0
M  V30 7852 H 741.855 5.47997 0.444944 0
M  V30 7853 H 743.08 6.76227 0.624006 0
M  V30 7854 H 741.026 5.96823 2.72284 0
M  V30 7855 H 740.943 7.36603 1.70154 0
M  V30 7856 H 742.211 7.24178 2.88421 0
M  V30 7857 N 746.441 0.193421 1.56409 0
M  V30 7858 C 747.857 -0.162447 1.58771 0
M  V30 7859 C 748.057 -1.6116 1.20954 0
M  V30 7860 O 747.113 -2.3469 0.931497 0
M  V30 7861 C 748.426 0.138391 3.00381 0
M  V30 7862 C 749.974 0.0783649 3.12902 0
M  V30 7863 C 750.449 0.352491 4.56642 0
M  V30 7864 N 751.94 0.30105 4.62221 0
M  V30 7865 C 752.675 0.487028 5.71328 0
M  V30 7866 N 752.171 0.733265 6.88909 0
M  V30 7867 N 753.964 0.4214 5.60518 0
M  V30 7868 H 746.115 1.13909 1.79272 0
M  V30 7869 H 748.378 0.454528 0.83193 0
M  V30 7870 H 748.084 1.14312 3.32604 0
M  V30 7871 H 747.958 -0.559804 3.73023 0
M  V30 7872 H 750.345 -0.916963 2.80492 0
M  V30 7873 H 750.426 0.809611 2.4265 0
M  V30 7874 H 750.07 1.34513 4.89764 0
M  V30 7875 H 750 -0.399624 5.25081 0
M  V30 7876 H 752.491 0.117279 3.77718 0
M  V30 7877 H 752.804 0.86403 7.67955 0
M  V30 7878 H 751.149 0.770138 6.9072 0
M  V30 7879 H 754.34 0.229461 4.67537 0
M  V30 7880 H 754.513 0.569758 6.4549 0
M  V30 7881 N 747.919 -1.57396 -0.0801906 0
M  V30 7882 C 749.168 -1.8602 -0.779702 0
M  V30 7883 C 749.481 -0.784864 -1.79163 0
M  V30 7884 O 750.687 -0.958691 -2.54011 0
M  V30 7885 C 749.143 -3.29942 -1.43758 0
M  V30 7886 C 748.751 -4.45584 -0.464654 0
M  V30 7887 C 750.495 -3.67775 -2.11995 0
M  V30 7888 C 748.402 -5.80544 -1.12797 0
M  V30 7889 H 747.332 -0.69392 -0.294943 0
M  V30 7890 H 749.983 -1.83471 -0.0328527 0
M  V30 7891 H 748.365 -3.27078 -2.2324 0
M  V30 7892 H 749.539 -4.59824 0.299749 0
M  V30 7893 H 747.854 -4.16247 0.112813 0
M  V30 7894 H 750.451 -4.65896 -2.62383 0
M  V30 7895 H 750.794 -2.9715 -2.91561 0
M  V30 7896 H 751.327 -3.72593 -1.39354 0
M  V30 7897 H 748.066 -6.54439 -0.372807 0
M  V30 7898 H 747.586 -5.70119 -1.86344 0
M  V30 7899 H 749.265 -6.25602 -1.6502 0
M  V30 7900 N 749.397 0.351382 -1.53633 0
M  V30 7901 C 750.643 1.09411 -1.70754 0
M  V30 7902 C 750.976 1.88544 -0.465293 0
M  V30 7903 O 750.251 1.86923 0.537608 0
M  V30 7904 C 750.534 2.04173 -2.96623 0
M  V30 7905 C 750.387 1.28556 -4.31038 0
M  V30 7906 C 751.706 3.04102 -3.18136 0
M  V30 7907 H 748.825 0.396373 -0.621335 0
M  V30 7908 H 751.467 0.373464 -1.86293 0
M  V30 7909 H 749.617 2.65625 -2.83506 0
M  V30 7910 H 751.289 0.697786 -4.55992 0
M  V30 7911 H 749.532 0.587498 -4.29803 0
M  V30 7912 H 750.203 1.97989 -5.15271 0
M  V30 7913 H 752.679 2.5276 -3.30532 0
M  V30 7914 H 751.555 3.67616 -4.07615 0
M  V30 7915 H 751.816 3.75053 -2.34068 0
M  V30 7916 N 750.875 1.45233 0.611969 0
M  V30 7917 C 752.103 1.52539 1.39784 0
M  V30 7918 C 752.518 0.156533 1.8815 0
M  V30 7919 O 751.875 -0.84112 1.61961 0
M  V30 7920 C 751.926 2.50614 2.60528 0
M  V30 7921 O 751.647 3.8218 2.14173 0
M  V30 7922 C 753.148 2.67574 3.53439 0
M  V30 7923 H 750.368 0.51674 0.428043 0
M  V30 7924 H 752.912 1.90379 0.746727 0
M  V30 7925 H 751.067 2.15858 3.2169 0
M  V30 7926 H 751.481 4.35305 2.92592 0
M  V30 7927 H 752.955 3.40184 4.34717 0
M  V30 7928 H 753.432 1.73458 4.03496 0
M  V30 7929 H 754.038 3.0331 2.98133 0
M  V30 7930 N 752.353 -0.854086 1.3245 0
M  V30 7931 C 753.283 -1.97827 1.24044 0
M  V30 7932 C 754.264 -1.69646 0.124166 0
M  V30 7933 O 755.449 -1.91687 0.31143 0
M  V30 7934 C 752.579 -3.33673 0.963324 0
M  V30 7935 C 751.533 -3.76207 2.04089 0
M  V30 7936 C 750.859 -5.0969 1.61618 0
M  V30 7937 C 752.159 -3.91612 3.45597 0
M  V30 7938 H 753.853 -2.05118 2.18099 0
M  V30 7939 H 751.399 -0.985489 1.04996 0
M  V30 7940 H 753.352 -4.11871 0.891061 0
M  V30 7941 H 752.076 -3.26597 -0.0128649 0
M  V30 7942 H 750.735 -3.0026 2.10332 0
M  V30 7943 H 750.383 -4.99072 0.627418 0
M  V30 7944 H 750.083 -5.3912 2.33717 0
M  V30 7945 H 751.607 -5.90381 1.55829 0
M  V30 7946 H 753.021 -4.60163 3.4194 0
M  V30 7947 H 751.418 -4.3246 4.16051 0
M  V30 7948 H 752.488 -2.9451 3.85217 0
M  V30 7949 N 753.831 -1.1567 -1.07043 0
M  V30 7950 C 754.741 -0.870435 -2.17855 0
M  V30 7951 C 755.757 0.154452 -1.73313 0
M  V30 7952 O 756.933 -0.0203759 -2.0139 0
M  V30 7953 C 753.998 -0.367219 -3.4475 0
M  V30 7954 C 753.059 -1.45639 -4.03841 0
M  V30 7955 C 752.292 -0.977092 -5.2468 0
M  V30 7956 O 752.515 0.176127 -5.70128 0
M  V30 7957 O 751.449 -1.76215 -5.75527 0
M  V30 7958 H 755.275 -1.79687 -2.44839 0
M  V30 7959 H 752.86 -0.936064 -1.1644 0
M  V30 7960 H 754.742 -0.0931947 -4.21297 0
M  V30 7961 H 753.417 0.53131 -3.1931 0
M  V30 7962 H 752.324 -1.78406 -3.28819 0
M  V30 7963 H 753.657 -2.32995 -4.3356 0
M  V30 7964 N 755.309 1.25446 -0.953992 0
M  V30 7965 C 756.537 1.97215 -0.625595 0
M  V30 7966 C 756.952 1.70911 0.802168 0
M  V30 7967 O 756.309 0.984782 1.5365 0
M  V30 7968 C 756.36 3.50777 -0.873943 0
M  V30 7969 O 756.081 3.76173 -2.24556 0
M  V30 7970 C 757.582 4.39776 -0.557845 0
M  V30 7971 H 754.802 0.628652 -0.2346 0
M  V30 7972 H 757.346 1.59632 -1.27819 0
M  V30 7973 H 755.501 3.86474 -0.267765 0
M  V30 7974 H 755.915 4.70636 -2.31522 0
M  V30 7975 H 757.389 5.46431 -0.782157 0
M  V30 7976 H 757.866 4.36257 0.507573 0
M  V30 7977 H 758.472 4.09644 -1.14332 0
M  V30 7978 N 756.787 0.722489 1.40064 0
M  V30 7979 C 757.734 0.0743738 2.3068 0
M  V30 7980 C 758.704 -0.743004 1.48555 0
M  V30 7981 O 759.889 -0.705536 1.77276 0
M  V30 7982 C 757.029 -0.836292 3.34814 0
M  V30 7983 C 756.142 -0.00764663 4.31999 0
M  V30 7984 C 755.277 -0.918428 5.232 0
M  V30 7985 C 754.316 -0.0842838 6.12042 0
M  V30 7986 N 753.453 -0.950316 6.95639 0
M  V30 7987 H 758.293 0.852794 2.85537 0
M  V30 7988 H 755.83 0.432222 1.40607 0
M  V30 7989 H 757.788 -1.3786 3.93765 0
M  V30 7990 H 756.418 -1.58082 2.81443 0
M  V30 7991 H 755.47 0.651928 3.74772 0
M  V30 7992 H 756.782 0.63786 4.94705 0
M  V30 7993 H 755.936 -1.52902 5.87116 0
M  V30 7994 H 754.675 -1.59774 4.60786 0
M  V30 7995 H 753.68 0.5392 5.4715 0
M  V30 7996 H 754.905 0.591628 6.76518 0
M  V30 7997 H 752.851 -1.61515 6.35806 0
M  V30 7998 H 752.768 -0.361004 7.55138 0
M  V30 7999 H 754.036 -1.54687 7.63997 0
M  V30 8000 N 758.265 -1.50454 0.469181 0
M  V30 8001 C 759.195 -2.31353 -0.31592 0
M  V30 8002 C 760.176 -1.38172 -0.992094 0
M  V30 8003 O 761.361 -1.67093 -0.989633 0
M  V30 8004 C 758.491 -3.1786 -1.39937 0
M  V30 8005 C 757.445 -4.19578 -0.844909 0
M  V30 8006 C 756.771 -4.9481 -2.0265 0
M  V30 8007 C 758.071 -5.22106 0.142499 0
M  V30 8008 H 759.765 -2.97237 0.359269 0
M  V30 8009 H 757.311 -1.42942 0.174224 0
M  V30 8010 H 759.264 -3.7325 -1.95607 0
M  V30 8011 H 757.988 -2.49858 -2.1033 0
M  V30 8012 H 756.647 -3.65285 -0.310189 0
M  V30 8013 H 756.295 -4.23282 -2.71737 0
M  V30 8014 H 755.995 -5.63613 -1.66174 0
M  V30 8015 H 757.519 -5.53035 -2.58815 0
M  V30 8016 H 758.933 -5.72378 -0.324966 0
M  V30 8017 H 757.33 -5.98618 0.421441 0
M  V30 8018 H 758.4 -4.7297 1.06901 0
M  V30 8019 N 759.743 -0.201713 -1.56304 0
M  V30 8020 C 760.653 0.728296 -2.23009 0
M  V30 8021 C 761.669 1.22945 -1.23128 0
M  V30 8022 O 762.845 1.27523 -1.55884 0
M  V30 8023 C 759.91 1.92792 -2.88153 0
M  V30 8024 C 758.971 1.47068 -4.03323 0
M  V30 8025 C 758.204 2.61312 -4.65351 0
M  V30 8026 O 758.427 3.7896 -4.26317 0
M  V30 8027 O 757.361 2.33646 -5.54701 0
M  V30 8028 H 761.187 0.190166 -3.03104 0
M  V30 8029 H 758.772 0.0278725 -1.49374 0
M  V30 8030 H 760.654 2.6289 -3.29343 0
M  V30 8031 H 759.329 2.45452 -2.11033 0
M  V30 8032 H 758.236 0.738299 -3.66742 0
M  V30 8033 H 759.569 0.990666 -4.82127 0
M  V30 8034 N 761.222 1.57436 0.0718424 0
M  V30 8035 C 762.45 1.91474 0.783932 0
M  V30 8036 C 762.865 0.797669 1.71122 0
M  V30 8037 O 762.222 -0.228989 1.81058 0
M  V30 8038 C 762.273 3.25259 1.57761 0
M  V30 8039 O 761.994 4.3267 0.687596 0
M  V30 8040 C 763.495 3.7331 2.3907 0
M  V30 8041 H 760.715 0.632901 0.222885 0
M  V30 8042 H 763.259 2.04457 0.0421262 0
M  V30 8043 H 761.414 3.13804 2.27169 0
M  V30 8044 H 761.828 5.09641 1.23962 0
M  V30 8045 H 763.302 4.69551 2.90216 0
M  V30 8046 H 763.779 3.02318 3.18591 0
M  V30 8047 H 764.385 3.8771 1.74818 0
M  V30 8048 N 762.7 -0.34323 1.53817 0
M  V30 8049 C 763.63 -1.42709 1.84814 0
M  V30 8050 C 764.611 -1.5488 0.703297 0
M  V30 8051 O 765.796 -1.69082 0.955237 0
M  V30 8052 C 762.926 -2.79756 2.05801 0
M  V30 8053 C 761.88 -2.82392 3.21619 0
M  V30 8054 C 761.206 -4.22326 3.2794 0
M  V30 8055 C 762.506 -2.479 4.59721 0
M  V30 8056 H 764.2 -1.17018 2.75585 0
M  V30 8057 H 761.746 -0.561485 1.32602 0
M  V30 8058 H 763.699 -3.55627 2.26069 0
M  V30 8059 H 762.423 -3.06883 1.11761 0
M  V30 8060 H 761.082 -2.08974 3.01207 0
M  V30 8061 H 760.73 -4.46564 2.31494 0
M  V30 8062 H 760.43 -4.25001 4.05768 0
M  V30 8063 H 761.954 -5.00039 3.50419 0
M  V30 8064 H 763.368 -3.13484 4.80001 0
M  V30 8065 H 761.765 -2.61857 5.39954 0
M  V30 8066 H 762.835 -1.43087 4.63308 0
M  V30 8067 N 764.178 -1.45556 -0.604258 0
M  V30 8068 C 765.427 -1.49019 -1.35928 0
M  V30 8069 C 765.74 -0.137409 -1.95117 0
M  V30 8070 O 766.946 -0.0497032 -2.71455 0
M  V30 8071 C 765.402 -2.62477 -2.46239 0
M  V30 8072 C 765.01 -4.04082 -1.93447 0
M  V30 8073 C 766.754 -2.7519 -3.23219 0
M  V30 8074 C 764.661 -5.08917 -3.0126 0
M  V30 8075 H 763.591 -0.554518 -0.510907 0
M  V30 8076 H 766.242 -1.71705 -0.647262 0
M  V30 8077 H 764.624 -2.3308 -3.2014 0
M  V30 8078 H 765.798 -4.43173 -1.26232 0
M  V30 8079 H 764.113 -3.95849 -1.29201 0
M  V30 8080 H 766.71 -3.50683 -4.0364 0
M  V30 8081 H 767.053 -1.81941 -3.74437 0
M  V30 8082 H 767.586 -3.04129 -2.56418 0
M  V30 8083 H 764.325 -6.03886 -2.54955 0
M  V30 8084 H 763.845 -4.74393 -3.67031 0
M  V30 8085 H 765.524 -5.33814 -3.65584 0
M  V30 8086 N 765.656 0.84705 -1.32902 0
M  V30 8087 C 766.904 1.5986 -1.2365 0
M  V30 8088 C 767.225 1.93974 0.199789 0
M  V30 8089 O 766.495 1.60273 1.12648 0
M  V30 8090 H 765.075 0.592696 -0.454665 0
M  V30 8091 H 767.737 1.01278 -1.66519 0
M  V30 8092 H 766.833 2.53218 -1.82448 0
M  V30 8093 N 767.134 1.16236 1.06428 0
M  V30 8094 C 768.359 0.967688 1.83441 0
M  V30 8095 C 768.784 -0.479167 1.81894 0
M  V30 8096 O 768.142 -1.34224 1.21875 0
M  V30 8097 C 768.19 1.49806 3.2801 0
M  V30 8098 O 767.294 0.703481 4.06356 0
M  V30 8099 H 766.635 0.344468 0.56766 0
M  V30 8100 H 769.165 1.54442 1.34197 0
M  V30 8101 H 769.175 1.51495 3.78831 0
M  V30 8102 H 767.85 2.55133 3.2845 0
M  V30 8103 H 766.427 0.756986 3.65136 0
M  V30 8104 N 768.612 -1.24939 0.960631 0
M  V30 8105 C 769.861 -1.92118 0.614298 0
M  V30 8106 C 770.174 -1.75998 -0.853474 0
M  V30 8107 O 771.38 -2.37804 -1.31003 0
M  V30 8108 C 769.836 -3.44303 1.04801 0
M  V30 8109 C 769.444 -3.69123 2.53875 0
M  V30 8110 C 771.188 -4.17375 0.774497 0
M  V30 8111 C 769.095 -5.14843 2.91016 0
M  V30 8112 H 768.025 -0.719319 0.226045 0
M  V30 8113 H 770.676 -1.41701 1.16589 0
M  V30 8114 H 769.058 -3.93715 0.42479 0
M  V30 8115 H 770.232 -3.30339 3.21267 0
M  V30 8116 H 768.547 -3.09323 2.78762 0
M  V30 8117 H 771.144 -5.24723 1.02808 0
M  V30 8118 H 771.487 -4.15294 -0.289192 0
M  V30 8119 H 772.02 -3.7389 1.35835 0
M  V30 8120 H 768.759 -5.2204 3.96427 0
M  V30 8121 H 768.279 -5.54652 2.28302 0
M  V30 8122 H 769.958 -5.83017 2.80535 0
M  V30 8123 N 770.09 -0.729906 -1.39679 0
M  V30 8124 C 771.04 -0.0627678 -2.27914 0
M  V30 8125 C 772.024 0.717867 -1.43998 0
M  V30 8126 O 773.216 0.587713 -1.66958 0
M  V30 8127 C 770.345 0.847564 -3.32673 0
M  V30 8128 C 769.431 0.0613515 -4.24056 0
M  V30 8129 N 769.822 -0.962863 -4.96551 0
M  V30 8130 C 768.12 0.291773 -4.45045 0
M  V30 8131 C 768.821 -1.43652 -5.63683 0
M  V30 8132 N 767.797 -0.756044 -5.38317 0
M  V30 8133 H 771.599 -0.847545 -2.81414 0
M  V30 8134 H 769.113 -0.563776 -1.523 0
M  V30 8135 H 771.11 1.34094 -3.94746 0
M  V30 8136 H 769.77 1.63156 -2.80732 0
M  V30 8137 H 770.781 -1.34409 -5.00154 0
M  V30 8138 H 767.458 1.05097 -4.04056 0
M  V30 8139 H 768.848 -2.28835 -6.31731 0
M  V30 8140 N 771.568 1.50203 -0.477153 0
M  V30 8141 C 772.531 2.27194 0.302599 0
M  V30 8142 C 773.531 1.32221 0.915112 0
M  V30 8143 O 774.721 1.55593 0.783348 0
M  V30 8144 C 771.853 3.0938 1.43167 0
M  V30 8145 H 773.046 2.97575 -0.372678 0
M  V30 8146 H 770.599 1.54578 -0.231392 0
M  V30 8147 H 771.334 2.43509 2.14182 0
M  V30 8148 H 771.119 3.79181 0.998197 0
M  V30 8149 H 772.609 3.67592 1.98157 0
M  V30 8150 N 773.046 0.209999 1.56195 0
M  V30 8151 C 773.976 -0.699746 2.22769 0
M  V30 8152 C 774.957 -1.20993 1.1956 0
M  V30 8153 O 776.142 -1.25605 1.48112 0
M  V30 8154 C 773.272 -1.91302 2.89863 0
M  V30 8155 C 772.226 -1.53715 3.99444 0
M  V30 8156 C 771.552 -2.82826 4.53777 0
M  V30 8157 C 772.852 -0.735836 5.17091 0
M  V30 8158 H 774.546 -0.144716 2.9905 0
M  V30 8159 H 772.092 -0.0681645 1.43839 0
M  V30 8160 H 774.045 -2.5548 3.35124 0
M  V30 8161 H 772.769 -2.49283 2.11011 0
M  V30 8162 H 771.428 -0.918892 3.54897 0
M  V30 8163 H 771.076 -3.38927 3.71669 0
M  V30 8164 H 770.776 -2.58415 5.27727 0
M  V30 8165 H 772.3 -3.47966 5.01749 0
M  V30 8166 H 773.714 -1.28105 5.58804 0
M  V30 8167 H 772.111 -0.589272 5.972 0
M  V30 8168 H 773.181 0.260004 4.84202 0
M  V30 8169 N 774.524 -1.57472 -0.0634922 0
M  V30 8170 C 775.935 -1.76303 -0.614337 0
M  V30 8171 C 776.286 -0.836578 -1.77471 0
M  V30 8172 O 775.411 -0.0227184 -2.16388 0
M  V30 8173 C 776.006 -3.19709 -1.12122 0
M  V30 8174 C 774.565 -3.39856 -1.61786 0
M  V30 8175 C 773.712 -2.71975 -0.540845 0
M  V30 8176 H 776.663 -1.57864 0.162702 0
M  V30 8177 H 776.684 -3.24326 -1.98979 0
M  V30 8178 H 776.196 -3.87114 -0.276472 0
M  V30 8179 H 774.297 -2.77578 -2.48558 0
M  V30 8180 H 774.41 -4.48338 -1.68908 0
M  V30 8181 H 772.774 -2.34763 -0.987854 0
M  V30 8182 H 773.557 -3.4204 0.293856 0
M  V30 8183 N 776.003 0.335068 -1.53997 0
M  V30 8184 C 777.251 1.07223 -1.71312 0
M  V30 8185 C 777.572 1.88911 -0.483486 0
M  V30 8186 O 776.842 1.89344 0.50257 0
M  V30 8187 H 775.422 0.398846 -0.63161 0
M  V30 8188 H 778.084 0.374288 -1.91272 0
M  V30 8189 H 777.18 1.7448 -2.58772 0
M  V30 8190 N 777.481 1.45874 0.596531 0
M  V30 8191 C 778.411 1.5824 1.71705 0
M  V30 8192 C 779.392 0.433366 1.64487 0
M  V30 8193 O 780.577 0.657895 1.82717 0
M  V30 8194 C 777.707 1.55927 3.10329 0
M  V30 8195 C 776.661 2.69659 3.32367 0
M  V30 8196 C 775.987 2.52403 4.71377 0
M  V30 8197 C 777.287 4.11591 3.21544 0
M  V30 8198 H 778.981 2.52035 1.61613 0
M  V30 8199 H 776.527 1.21297 0.776082 0
M  V30 8200 H 778.48 1.63173 3.88526 0
M  V30 8201 H 777.204 0.586674 3.21288 0
M  V30 8202 H 775.863 2.61859 2.56564 0
M  V30 8203 H 775.511 1.53258 4.79083 0
M  V30 8204 H 775.211 3.28679 4.87077 0
M  V30 8205 H 776.735 2.6152 5.5176 0
M  V30 8206 H 778.149 4.20576 3.89601 0
M  V30 8207 H 776.546 4.88344 3.4877 0
M  V30 8208 H 777.616 4.32719 2.1882 0
M  V30 8209 N 778.959 -0.83999 1.33349 0
M  V30 8210 C 780.208 -1.59011 1.2409 0
M  V30 8211 C 780.521 -1.94655 -0.192029 0
M  V30 8212 O 781.727 -2.68438 -0.406617 0
M  V30 8213 C 780.183 -2.86801 2.17425 0
M  V30 8214 C 779.791 -2.58525 3.65881 0
M  V30 8215 C 781.535 -3.64823 2.17036 0
M  V30 8216 C 779.442 -3.82404 4.51133 0
M  V30 8217 H 778.372 -0.596731 0.460899 0
M  V30 8218 H 781.023 -0.926274 1.58406 0
M  V30 8219 H 779.405 -3.54719 1.7604 0
M  V30 8220 H 780.579 -1.98824 4.15699 0
M  V30 8221 H 778.894 -1.93808 3.68548 0
M  V30 8222 H 781.491 -4.56774 2.7796 0
M  V30 8223 H 781.834 -3.99663 1.16513 0
M  V30 8224 H 782.367 -3.03826 2.56777 0
M  V30 8225 H 779.106 -3.52696 5.52527 0
M  V30 8226 H 778.626 -4.41447 4.0606 0
M  V30 8227 H 780.305 -4.49995 4.6488 0
M  V30 8228 N 780.437 -1.16799 -1.0581 0
M  V30 8229 C 781.662 -0.977402 -1.82925 0
M  V30 8230 C 782.087 0.469514 -1.82146 0
M  V30 8231 O 781.445 1.33576 -1.22585 0
M  V30 8232 C 781.493 -1.51543 -3.27211 0
M  V30 8233 O 780.597 -0.725021 -4.05977 0
M  V30 8234 H 779.938 -0.347474 -0.565825 0
M  V30 8235 H 782.468 -1.55151 -1.33376 0
M  V30 8236 H 782.478 -1.53502 -3.78023 0
M  V30 8237 H 781.153 -2.56872 -3.27093 0
M  V30 8238 H 779.73 -0.77634 -3.64729 0
M  V30 8239 N 781.915 1.24427 -0.967243 0
M  V30 8240 C 782.847 2.24641 -0.454856 0
M  V30 8241 C 783.86 1.56849 0.436152 0
M  V30 8242 O 785.049 1.76846 0.242401 0
M  V30 8243 C 782.149 3.36954 0.362672 0
M  V30 8244 C 781.322 4.34318 -0.518324 0
M  V30 8245 C 780.381 5.25638 0.243122 0
M  V30 8246 O 779.407 5.68043 -0.362791 0
M  V30 8247 N 780.609 5.59897 1.53282 0
M  V30 8248 H 783.374 2.69238 -1.31648 0
M  V30 8249 H 780.935 1.38464 -0.839015 0
M  V30 8250 H 782.927 3.95014 0.880094 0
M  V30 8251 H 781.497 2.91646 1.12522 0
M  V30 8252 H 780.717 3.74953 -1.21672 0
M  V30 8253 H 782.005 4.96338 -1.11919 0
M  V30 8254 H 781.403 5.27373 2.04682 0
M  V30 8255 H 779.96 6.20488 1.99594 0
M  V30 8256 N 783.393 0.737304 1.3929 0
M  V30 8257 C 784.621 0.296573 2.04763 0
M  V30 8258 C 785.036 -1.06941 1.55592 0
M  V30 8259 O 784.393 -1.67619 0.721822 0
M  V30 8260 C 784.444 0.291906 3.6032 0
M  V30 8261 O 784.165 1.60397 4.07682 0
M  V30 8262 C 785.666 -0.164708 4.42994 0
M  V30 8263 H 782.886 0.129251 0.658434 0
M  V30 8264 H 785.43 1.0016 1.78293 0
M  V30 8265 H 783.585 -0.364251 3.85684 0
M  V30 8266 H 783.999 1.51909 5.0202 0
M  V30 8267 H 785.473 -0.116814 5.51876 0
M  V30 8268 H 785.95 -1.21022 4.22197 0
M  V30 8269 H 786.556 0.461968 4.22784 0
M  V30 8270 N 784.871 -1.49948 0.485112 0
M  V30 8271 C 786.12 -2.01589 -0.066765 0
M  V30 8272 C 786.433 -1.371 -1.39509 0
M  V30 8273 O 787.639 -1.79978 -2.03274 0
M  V30 8274 C 786.095 -3.59501 -0.169476 0
M  V30 8275 C 785.703 -4.32955 1.15126 0
M  V30 8276 C 787.447 -4.19138 -0.672564 0
M  V30 8277 C 785.354 -5.82684 1.01158 0
M  V30 8278 H 784.284 -0.753453 -0.0287259 0
M  V30 8279 H 786.935 -1.72632 0.622132 0
M  V30 8280 H 785.317 -3.85106 -0.922471 0
M  V30 8281 H 786.491 -4.19064 1.9163 0
M  V30 8282 H 784.806 -3.84991 1.58654 0
M  V30 8283 H 787.403 -5.28767 -0.794325 0
M  V30 8284 H 787.746 -3.81447 -1.66745 0
M  V30 8285 H 788.279 -3.97793 0.0234415 0
M  V30 8286 H 785.018 -6.24873 1.98025 0
M  V30 8287 H 784.538 -5.99112 0.287151 0
M  V30 8288 H 786.217 -6.43376 0.683847 0
M  V30 8289 N 786.349 -0.21828 -1.56081 0
M  V30 8290 C 787.765 0.137168 -1.59009 0
M  V30 8291 C 787.965 1.59215 -1.23503 0
M  V30 8292 O 787.021 2.33178 -0.968716 0
M  V30 8293 C 788.334 -0.186162 -3.00123 0
M  V30 8294 C 789.882 -0.128135 -3.12738 0
M  V30 8295 C 790.357 -0.425094 -4.56023 0
M  V30 8296 N 791.848 -0.374547 -4.61683 0
M  V30 8297 C 792.583 -0.57786 -5.70481 0
M  V30 8298 N 792.079 -0.842771 -6.87655 0
M  V30 8299 N 793.872 -0.510521 -5.59777 0
M  V30 8300 H 786.023 -1.16746 -1.77437 0
M  V30 8301 H 788.286 -0.467706 -0.824594 0
M  V30 8302 H 787.992 -1.19589 -3.30744 0
M  V30 8303 H 787.866 0.500388 -3.73866 0
M  V30 8304 H 790.253 0.872224 -2.81915 0
M  V30 8305 H 790.334 -0.848112 -2.41331 0
M  V30 8306 H 789.978 -1.42288 -4.87562 0
M  V30 8307 H 789.908 0.316038 -5.25651 0
M  V30 8308 H 792.399 -0.177356 -3.77484 0
M  V30 8309 H 792.712 -0.986095 -7.66483 0
M  V30 8310 H 791.057 -0.879929 -6.89407 0
M  V30 8311 H 794.248 -0.303813 -4.67113 0
M  V30 8312 H 794.421 -0.672378 -6.44502 0
M  V30 8313 N 787.827 1.57504 0.0551401 0
M  V30 8314 C 788.759 2.0158 1.09078 0
M  V30 8315 C 789.772 0.92434 1.34014 0
M  V30 8316 O 790.961 1.20202 1.31961 0
M  V30 8317 C 788.061 2.35385 2.43818 0
M  V30 8318 C 787.234 3.66588 2.38605 0
M  V30 8319 C 786.293 3.87874 3.55585 0
M  V30 8320 O 785.319 4.59259 3.36258 0
M  V30 8321 N 786.521 3.31503 4.76536 0
M  V30 8322 H 789.286 2.91039 0.71529 0
M  V30 8323 H 786.847 1.60058 0.243532 0
M  V30 8324 H 788.839 2.46784 3.20749 0
M  V30 8325 H 787.409 1.51731 2.73307 0
M  V30 8326 H 786.629 3.65787 1.46947 0
M  V30 8327 H 787.917 4.52706 2.32239 0
M  V30 8328 H 787.315 2.73592 4.9514 0
M  V30 8329 H 785.872 3.48324 5.50921 0
M  V30 8330 N 789.305 -0.326896 1.54172 0
M  V30 8331 C 790.237 -1.42319 1.79661 0
M  V30 8332 C 791.25 -1.47989 0.678456 0
M  V30 8333 O 792.439 -1.50773 0.955503 0
M  V30 8334 C 789.539 -2.80876 1.89636 0
M  V30 8335 C 788.712 -2.98449 3.19761 0
M  V30 8336 C 787.771 -4.17347 3.2048 0
M  V30 8337 O 786.797 -4.10667 3.94134 0
M  V30 8338 N 787.999 -5.26717 2.44027 0
M  V30 8339 H 790.764 -1.20819 2.74268 0
M  V30 8340 H 788.325 -0.516866 1.53428 0
M  V30 8341 H 790.317 -3.58619 1.87549 0
M  V30 8342 H 788.887 -2.95442 1.02141 0
M  V30 8343 H 788.107 -2.08035 3.34836 0
M  V30 8344 H 789.395 -3.07083 4.05681 0
M  V30 8345 H 788.793 -5.35019 1.8377 0
M  V30 8346 H 787.35 -6.02891 2.47721 0
M  V30 8347 N 790.784 -1.46188 -0.588786 0
M  V30 8348 C 791.716 -1.52319 -1.71265 0
M  V30 8349 C 792.729 -0.412096 -1.57498 0
M  V30 8350 O 793.918 -0.680146 -1.65034 0
M  V30 8351 C 791.018 -1.38164 -3.09458 0
M  V30 8352 C 790.191 -2.63284 -3.49286 0
M  V30 8353 C 789.25 -2.43415 -4.66514 0
M  V30 8354 O 788.276 -3.17113 -4.72682 0
M  V30 8355 N 789.478 -1.49187 -5.61002 0
M  V30 8356 H 792.243 -2.49219 -1.66463 0
M  V30 8357 H 789.804 -1.42167 -0.774601 0
M  V30 8358 H 791.796 -1.22653 -3.85666 0
M  V30 8359 H 790.366 -0.494678 -3.08661 0
M  V30 8360 H 789.586 -2.93779 -2.62845 0
M  V30 8361 H 790.874 -3.46413 -3.7266 0
M  V30 8362 H 790.272 -0.884027 -5.5875 0
M  V30 8363 H 788.829 -1.39642 -6.36666 0
M  V30 8364 N 792.262 0.832906 -1.33792 0
M  V30 8365 C 793.678 1.1245 -1.13257 0
M  V30 8366 C 793.878 2.01369 0.0725832 0
M  V30 8367 O 792.934 2.41071 0.751082 0
M  V30 8368 C 794.247 1.78084 -2.42294 0
M  V30 8369 C 795.795 1.90624 -2.48257 0
M  V30 8370 C 796.27 2.59673 -3.77271 0
M  V30 8371 N 797.761 2.67181 -3.78376 0
M  V30 8372 C 798.496 3.21313 -4.74916 0
M  V30 8373 N 797.992 3.76086 -5.81835 0
M  V30 8374 N 799.785 3.19621 -4.62384 0
M  V30 8375 H 791.936 0.241244 -2.11026 0
M  V30 8376 H 794.199 0.169557 -0.932713 0
M  V30 8377 H 793.905 1.20209 -3.30519 0
M  V30 8378 H 793.779 2.78049 -2.5489 0
M  V30 8379 H 796.166 2.4765 -1.60478 0
M  V30 8380 H 796.247 0.89591 -2.39598 0
M  V30 8381 H 795.891 2.03304 -4.65435 0
M  V30 8382 H 795.821 3.61189 -3.8321 0
M  V30 8383 H 798.312 2.28346 -3.01108 0
M  V30 8384 H 798.625 4.15612 -6.51526 0
M  V30 8385 H 796.97 3.74357 -5.85561 0
M  V30 8386 H 800.161 2.76091 -3.7801 0
M  V30 8387 H 800.334 3.61504 -5.37791 0
M  V30 8388 N 793.74 1.17359 1.05189 0
M  V30 8389 C 795.017 0.871914 1.75091 0
M  V30 8390 C 795.397 -0.627821 2.01548 0
M  V30 8391 O 794.745 -1.5791 1.65156 0
M  V30 8392 C 794.955 1.70687 3.04413 0
M  V30 8393 C 796.303 1.92684 3.78362 0
M  V30 8394 O 797.327 1.67645 3.14282 0
M  V30 8395 O 796.186 2.34765 4.93505 0
M  V30 8396 H 793.28 0.322831 0.761386 0
M  V30 8397 H 795.826 1.28054 1.11357 0
M  V30 8398 H 794.598 2.72405 2.80911 0
M  V30 8399 H 794.221 1.29602 3.75884 0
M  V30 8400 N 795.218 -1.23913 0.973828 0
M  V30 8401 C 796.465 -1.92151 0.639079 0
M  V30 8402 C 796.793 -1.76064 -0.826545 0
M  V30 8403 O 796.048 -1.11126 -1.61088 0
M  V30 8404 C 796.347 -3.4406 0.967356 0
M  V30 8405 C 796.013 -3.80321 2.42212 0
M  V30 8406 C 794.675 -3.8993 2.81971 0
M  V30 8407 C 797.027 -3.97935 3.36596 0
M  V30 8408 C 794.355 -4.14575 4.15144 0
M  V30 8409 C 796.707 -4.24079 4.69404 0
M  V30 8410 C 795.371 -4.31908 5.08932 0
M  V30 8411 H 794.641 -0.70313 0.233856 0
M  V30 8412 H 797.288 -1.47072 1.22646 0
M  V30 8413 H 795.593 -3.90667 0.297807 0
M  V30 8414 H 797.29 -3.95077 0.686654 0
M  V30 8415 H 793.88 -3.73411 2.10385 0
M  V30 8416 H 798.064 -3.89908 3.07059 0
M  V30 8417 H 793.32 -4.18858 4.45385 0
M  V30 8418 H 797.494 -4.36652 5.42502 0
M  V30 8419 H 795.121 -4.50758 6.12145 0
M  V30 8420 N 796.696 -0.74468 -1.38897 0
M  V30 8421 C 797.945 -0.293716 -1.9955 0
M  V30 8422 C 798.258 1.12831 -1.59777 0
M  V30 8423 O 799.464 1.67929 -2.13336 0
M  V30 8424 C 797.92 -0.474188 -3.56762 0
M  V30 8425 C 797.528 -1.90472 -4.05493 0
M  V30 8426 C 799.272 -0.0854875 -4.24414 0
M  V30 8427 C 797.179 -2.03423 -5.55314 0
M  V30 8428 H 796.109 -0.106066 -0.746502 0
M  V30 8429 H 798.76 -0.919948 -1.58774 0
M  V30 8430 H 797.142 0.221092 -3.95382 0
M  V30 8431 H 798.316 -2.63274 -3.78184 0
M  V30 8432 H 796.631 -2.24752 -3.50536 0
M  V30 8433 H 799.228 -0.161133 -5.34457 0
M  V30 8434 H 799.571 0.96066 -4.05064 0
M  V30 8435 H 800.104 -0.732286 -3.91002 0
M  V30 8436 H 796.843 -3.0626 -5.79556 0
M  V30 8437 H 796.363 -1.3507 -5.84394 0
M  V30 8438 H 798.042 -1.81996 -6.20876 0
M  V30 8439 N 798.174 1.49689 -0.493057 0
M  V30 8440 C 799.084 2.32746 0.294358 0
M  V30 8441 C 800.1 1.44117 0.975003 0
M  V30 8442 O 801.276 1.77149 0.958138 0
M  V30 8443 C 798.341 3.19358 1.34949 0
M  V30 8444 C 797.402 4.2383 0.683122 0
M  V30 8445 C 796.635 5.06303 1.68798 0
M  V30 8446 O 796.858 4.90172 2.91698 0
M  V30 8447 O 795.792 5.88826 1.24768 0
M  V30 8448 H 799.618 3.01247 -0.385254 0
M  V30 8449 H 797.203 1.47216 -0.254519 0
M  V30 8450 H 799.085 3.73037 1.96014 0
M  V30 8451 H 797.76 2.53561 2.01217 0
M  V30 8452 H 796.667 3.74086 0.0329351 0
M  V30 8453 H 798 4.9216 0.0630192 0
M  V30 8454 N 799.652 0.226554 1.55963 0
M  V30 8455 C 800.615 -0.668015 2.19249 0
M  V30 8456 C 801.615 -1.11794 1.1558 0
M  V30 8457 O 802.805 -1.02593 1.40784 0
M  V30 8458 C 799.937 -1.91571 2.81981 0
M  V30 8459 H 801.13 -0.116175 2.99675 0
M  V30 8460 H 798.683 -0.0230497 1.56283 0
M  V30 8461 H 799.418 -2.50929 2.05439 0
M  V30 8462 H 799.203 -1.6015 3.57903 0
M  V30 8463 H 800.693 -2.55294 3.30477 0
M  V30 8464 N 801.13 -1.57531 -0.0467866 0
M  V30 8465 C 802.062 -2.02156 -1.08007 0
M  V30 8466 C 803.075 -0.931434 -1.33522 0
M  V30 8467 O 804.264 -1.209 -1.31321 0
M  V30 8468 C 801.364 -2.36675 -2.42566 0
M  V30 8469 C 800.537 -3.67848 -2.36658 0
M  V30 8470 C 799.596 -3.89754 -3.53523 0
M  V30 8471 O 798.622 -4.61036 -3.33818 0
M  V30 8472 N 799.824 -3.34025 -4.74771 0
M  V30 8473 H 802.589 -2.91414 -0.699845 0
M  V30 8474 H 800.15 -1.60185 -0.235041 0
M  V30 8475 H 802.142 -2.48482 -3.19435 0
M  V30 8476 H 800.712 -1.53178 -2.72498 0
M  V30 8477 H 799.932 -3.66561 -1.45005 0
M  V30 8478 H 801.22 -4.53931 -2.29835 0
M  V30 8479 H 800.618 -2.76214 -4.93683 0
M  V30 8480 H 799.175 -3.51241 -5.49066 0
M  V30 8481 N 802.608 0.318715 -1.54344 0
M  V30 8482 C 803.541 1.41644 -1.7892 0
M  V30 8483 C 804.519 1.495 -0.639421 0
M  V30 8484 O 805.703 1.66835 -0.877404 0
M  V30 8485 C 802.83 2.79701 -1.9101 0
M  V30 8486 C 801.876 2.89354 -3.13331 0
M  V30 8487 S 802.709 2.53264 -4.71824 0
M  V30 8488 C 803.865 3.93384 -4.86826 0
M  V30 8489 H 804.098 1.20585 -2.71747 0
M  V30 8490 H 801.631 0.515828 -1.45529 0
M  V30 8491 H 803.589 3.59227 -1.98661 0
M  V30 8492 H 802.25 2.9804 -0.991516 0
M  V30 8493 H 801.443 3.90574 -3.1854 0
M  V30 8494 H 801.045 2.17805 -3.04035 0
M  V30 8495 H 803.337 4.88191 -4.69761 0
M  V30 8496 H 804.28 3.93156 -5.88926 0
M  V30 8497 H 804.688 3.82564 -4.15097 0
M  V30 8498 N 804.086 1.46499 0.581025 0
M  V30 8499 C 804.996 1.59778 1.71779 0
M  V30 8500 C 806.012 0.481223 1.67213 0
M  V30 8501 O 807.188 0.74557 1.87091 0
M  V30 8502 C 804.253 1.58626 3.08283 0
M  V30 8503 C 803.314 2.81527 3.241 0
M  V30 8504 C 802.547 2.80421 4.54092 0
M  V30 8505 O 802.77 1.89262 5.38085 0
M  V30 8506 O 801.704 3.71984 4.73193 0
M  V30 8507 H 805.53 2.55918 1.63523 0
M  V30 8508 H 803.115 1.29311 0.748267 0
M  V30 8509 H 804.997 1.60686 3.89561 0
M  V30 8510 H 803.672 0.656467 3.16973 0
M  V30 8511 H 802.579 2.85021 2.42309 0
M  V30 8512 H 803.912 3.73721 3.20302 0
M  V30 8513 N 805.565 -0.825799 1.34232 0
M  V30 8514 C 806.79 -1.61883 1.29648 0
M  V30 8515 C 807.215 -1.87669 -0.127295 0
M  V30 8516 O 806.573 -1.45016 -1.08813 0
M  V30 8517 C 806.621 -2.93846 2.09014 0
M  V30 8518 O 805.725 -3.85778 1.4577 0
M  V30 8519 H 805.066 -0.492454 0.445405 0
M  V30 8520 H 807.596 -1.02641 1.76992 0
M  V30 8521 H 807.606 -3.43435 2.20264 0
M  V30 8522 H 806.281 -2.74401 3.12533 0
M  V30 8523 H 804.858 -3.4429 1.43245 0
M  V30 8524 N 807.043 -1.17915 -1.04565 0
M  V30 8525 C 808.273 -0.994716 -1.81077 0
M  V30 8526 C 808.681 0.460146 -1.83519 0
M  V30 8527 O 808.024 1.33136 -1.26572 0
M  V30 8528 C 808.086 -1.46698 -3.28207 0
M  V30 8529 C 807.75 -2.94523 -3.49436 0
M  V30 8530 C 808.747 -3.92414 -3.41038 0
M  V30 8531 C 806.432 -3.32841 -3.76194 0
M  V30 8532 C 808.426 -5.2662 -3.59096 0
M  V30 8533 C 806.113 -4.67212 -3.93899 0
M  V30 8534 C 807.111 -5.6391 -3.8535 0
M  V30 8535 O 806.799 -6.95849 -4.02554 0
M  V30 8536 H 806.531 -0.351797 -0.577248 0
M  V30 8537 H 809.085 -1.56772 -1.32709 0
M  V30 8538 H 807.315 -0.837592 -3.7752 0
M  V30 8539 H 809.004 -1.24724 -3.86263 0
M  V30 8540 H 809.77 -3.64157 -3.20336 0
M  V30 8541 H 805.649 -2.58139 -3.81949 0
M  V30 8542 H 809.193 -6.02082 -3.52339 0
M  V30 8543 H 805.09 -4.95172 -4.14095 0
M  V30 8544 H 805.858 -7.02679 -4.19743 0
M  V30 8545 N 808.521 1.23394 -0.980386 0
M  V30 8546 C 809.798 1.87242 -0.565667 0
M  V30 8547 C 810.178 1.88151 0.957197 0
M  V30 8548 O 809.526 1.36309 1.8339 0
M  V30 8549 C 809.736 3.28743 -1.17172 0
M  V30 8550 C 811.084 4.05335 -1.26446 0
M  V30 8551 O 812.108 3.37962 -1.12517 0
M  V30 8552 O 810.967 5.25908 -1.48604 0
M  V30 8553 H 808.061 0.80477 -0.190459 0
M  V30 8554 H 810.607 1.3127 -1.07547 0
M  V30 8555 H 809.379 3.22647 -2.21392 0
M  V30 8556 H 809.002 3.92305 -0.646739 0
M  V30 8557 N 809.999 0.752036 1.385 0
M  V30 8558 C 810.946 0.123288 2.3047 0
M  V30 8559 C 811.916 -0.711326 1.50098 0
M  V30 8560 O 813.101 -0.667775 1.78733 0
M  V30 8561 C 810.241 -0.765085 3.36512 0
M  V30 8562 C 809.354 0.0839885 4.31918 0
M  V30 8563 C 808.489 -0.807243 5.25031 0
M  V30 8564 C 807.528 0.0455583 6.12083 0
M  V30 8565 N 806.665 -0.802547 6.97498 0
M  V30 8566 H 811.505 0.913169 2.83664 0
M  V30 8567 H 809.042 0.46195 1.39658 0
M  V30 8568 H 811 -1.29476 3.966 0
M  V30 8569 H 809.63 -1.52077 2.84732 0
M  V30 8570 H 808.682 0.731276 3.73305 0
M  V30 8571 H 809.994 0.74265 4.9324 0
M  V30 8572 H 809.148 -1.40414 5.90228 0
M  V30 8573 H 807.887 -1.49964 4.64071 0
M  V30 8574 H 806.892 0.655137 5.45883 0
M  V30 8575 H 808.117 0.734994 6.75111 0
M  V30 8576 H 806.063 -1.47992 6.39089 0
M  V30 8577 H 805.98 -0.200747 7.55733 0
M  V30 8578 H 807.248 -1.38447 7.67107 0
M  V30 8579 N 811.477 -1.49425 0.500989 0
M  V30 8580 C 812.427 -2.26061 -0.296698 0
M  V30 8581 C 813.411 -1.30906 -0.935541 0
M  V30 8582 O 814.603 -1.55628 -0.843142 0
M  V30 8583 C 811.732 -3.15189 -1.36055 0
M  V30 8584 C 810.818 -4.17806 -0.727952 0
M  V30 8585 N 811.209 -5.05516 0.169408 0
M  V30 8586 C 809.507 -4.34907 -0.988535 0
M  V30 8587 C 810.208 -5.79267 0.531509 0
M  V30 8588 N 809.184 -5.43507 -0.100564 0
M  V30 8589 H 812.986 -2.91246 0.394103 0
M  V30 8590 H 810.5 -1.59275 0.317065 0
M  V30 8591 H 812.497 -3.68724 -1.94547 0
M  V30 8592 H 811.157 -2.51556 -2.05303 0
M  V30 8593 H 812.168 -5.15075 0.540218 0
M  V30 8594 H 808.845 -3.82481 -1.67376 0
M  V30 8595 H 810.235 -6.59872 1.26564 0
M  V30 8596 N 812.955 -0.234822 -1.55841 0
M  V30 8597 C 814.201 0.393843 -1.98939 0
M  V30 8598 C 814.534 1.58466 -1.1226 0
M  V30 8599 O 813.809 1.93635 -0.183242 0
M  V30 8600 C 814.092 0.815492 -3.50745 0
M  V30 8601 C 813.945 -0.379878 -4.48193 0
M  V30 8602 C 815.264 1.66687 -4.07312 0
M  V30 8603 H 812.383 0.141681 -0.723253 0
M  V30 8604 H 815.025 -0.333716 -1.87046 0
M  V30 8605 H 813.175 1.43541 -3.6101 0
M  V30 8606 H 814.847 -1.0182 -4.49923 0
M  V30 8607 H 813.09 -1.02507 -4.21515 0
M  V30 8608 H 813.761 -0.0417069 -5.51984 0
M  V30 8609 H 816.237 1.14369 -4.00074 0
M  V30 8610 H 815.113 1.93078 -5.13821 0
M  V30 8611 H 815.374 2.63468 -3.55017 0
M  V30 8612 N 814.433 1.57553 0.0384317 0
M  V30 8613 C 815.661 1.93093 0.743141 0
M  V30 8614 C 816.076 0.833787 1.69391 0
M  V30 8615 O 815.433 -0.190532 1.81503 0
M  V30 8616 C 815.484 3.28533 1.50826 0
M  V30 8617 O 815.205 4.34032 0.595665 0
M  V30 8618 C 816.706 3.78297 2.31098 0
M  V30 8619 H 813.926 0.637486 0.20941 0
M  V30 8620 H 816.47 2.045 -0.00125154 0
M  V30 8621 H 814.625 3.18552 2.20462 0
M  V30 8622 H 815.039 5.12155 1.13124 0
M  V30 8623 H 816.513 4.75602 2.80191 0
M  V30 8624 H 816.99 3.09008 3.12107 0
M  V30 8625 H 817.596 3.91331 1.66555 0
M  V30 8626 N 815.911 -0.310526 1.54511 0
M  V30 8627 C 817.141 -1.06456 1.77061 0
M  V30 8628 C 817.549 -1.81755 0.525528 0
M  V30 8629 O 816.892 -1.76365 -0.513904 0
M  V30 8630 C 816.954 -2.09856 2.91892 0
M  V30 8631 C 816.618 -1.53838 4.30329 0
M  V30 8632 C 817.615 -0.973358 5.10707 0
M  V30 8633 C 815.3 -1.57688 4.76906 0
M  V30 8634 C 817.294 -0.454283 6.35779 0
M  V30 8635 C 814.981 -1.05393 6.01943 0
M  V30 8636 C 815.979 -0.493595 6.81214 0
M  V30 8637 O 815.667 0.0214506 8.03897 0
M  V30 8638 H 815.399 -0.321913 0.594431 0
M  V30 8639 H 817.953 -0.358289 2.02251 0
M  V30 8640 H 816.183 -2.84137 2.62304 0
M  V30 8641 H 817.872 -2.71085 3.02106 0
M  V30 8642 H 818.638 -0.936588 4.75871 0
M  V30 8643 H 814.517 -2.00242 4.1524 0
M  V30 8644 H 818.061 -0.0162657 6.97598 0
M  V30 8645 H 813.958 -1.08782 6.36268 0
M  V30 8646 H 814.726 -0.0927478 8.18447 0
M  V30 8647 N 817.389 -1.46805 -0.573248 0
M  V30 8648 C 818.337 -1.58468 -1.70267 0
M  V30 8649 C 819.331 -0.452694 -1.63239 0
M  V30 8650 O 820.537 -0.629915 -1.68618 0
M  V30 8651 H 816.912 -0.498408 -0.56311 0
M  V30 8652 H 818.883 -2.5341 -1.57563 0
M  V30 8653 C 817.632 -1.60104 -3.08645 0
M  V30 8654 H 816.955 -2.4655 -3.14727 0
M  V30 8655 H 818.395 -1.72318 -3.87405 0
M  V30 8656 C 816.854 -0.33138 -3.35266 0
M  V30 8657 O 817.384 0.57438 -3.97572 0
M  V30 8658 N 815.59 -0.216358 -2.89793 0
M  V30 8659 H 815.137 -0.954345 -2.3927 0
M  V30 8660 H 815.095 0.632253 -3.07977 0
M  V30 8661 N 818.867 0.818669 -1.34668 0
M  V30 8662 C 819.83 1.9114 -1.26483 0
M  V30 8663 C 820.83 1.598 -0.179044 0
M  V30 8664 O 822.02 1.6876 -0.431952 0
M  V30 8665 C 819.152 3.27285 -0.95381 0
M  V30 8666 H 820.345 1.9982 -2.23634 0
M  V30 8667 H 817.898 1.01314 -1.19018 0
M  V30 8668 H 818.633 3.24297 0.0143428 0
M  V30 8669 H 818.418 3.51416 -1.73924 0
M  V30 8670 H 819.908 4.07299 -0.921827 0
M  V30 8671 N 820.346 1.18468 1.03938 0
M  V30 8672 C 821.256 0.927889 2.1547 0
M  V30 8673 C 822.272 -0.108447 1.73662 0
M  V30 8674 O 823.448 0.0737636 2.01265 0
M  V30 8675 C 820.513 0.458494 3.43655 0
M  V30 8676 C 819.574 1.56295 3.99838 0
M  V30 8677 C 818.807 1.11586 5.21904 0
M  V30 8678 O 819.03 -0.0249057 5.70395 0
M  V30 8679 O 817.964 1.91412 5.70653 0
M  V30 8680 H 821.79 1.86116 2.39989 0
M  V30 8681 H 819.375 0.966607 1.13917 0
M  V30 8682 H 821.257 0.204861 4.20902 0
M  V30 8683 H 819.932 -0.446464 3.20606 0
M  V30 8684 H 818.839 1.87061 3.23974 0
M  V30 8685 H 820.172 2.44408 4.2723 0
M  V30 8686 N 821.824 -1.22873 0.986916 0
M  V30 8687 C 823.24 -1.43594 0.696633 0
M  V30 8688 C 823.44 -1.87622 -0.734869 0
M  V30 8689 O 822.496 -2.02633 -1.50652 0
M  V30 8690 C 823.809 -2.48231 1.69711 0
M  V30 8691 C 825.357 -2.62037 1.71188 0
M  V30 8692 C 825.832 -3.6989 2.70084 0
M  V30 8693 N 827.323 -3.77341 2.68641 0
M  V30 8694 C 828.058 -4.6037 3.41829 0
M  V30 8695 N 827.554 -5.47438 4.24598 0
M  V30 8696 N 829.347 -4.54626 3.30563 0
M  V30 8697 H 821.498 -0.925982 1.91153 0
M  V30 8698 H 823.761 -0.46866 0.824052 0
M  V30 8699 H 823.467 -2.22812 2.72117 0
M  V30 8700 H 823.341 -3.46731 1.48516 0
M  V30 8701 H 825.728 -2.86803 0.694837 0
M  V30 8702 H 825.809 -1.63831 1.96451 0
M  V30 8703 H 825.453 -3.45872 3.71934 0
M  V30 8704 H 825.383 -4.67652 2.42093 0
M  V30 8705 H 827.874 -3.15124 2.08578 0
M  V30 8706 H 828.187 -6.078 4.77283 0
M  V30 8707 H 826.532 -5.4704 4.28687 0
M  V30 8708 H 829.723 -3.85627 2.65347 0
M  V30 8709 H 829.896 -5.19103 3.8786 0
M  V30 8710 N 823.302 -0.75937 -1.38099 0
M  V30 8711 C 824.527 -0.327859 -2.04792 0
M  V30 8712 C 824.952 1.03752 -1.56899 0
M  V30 8713 O 824.31 1.66235 -0.723581 0
M  V30 8714 C 824.358 -0.366264 -3.58735 0
M  V30 8715 O 823.462 0.637697 -4.0744 0
M  V30 8716 H 822.803 -0.144092 -0.648177 0
M  V30 8717 H 825.333 -1.03211 -1.7666 0
M  V30 8718 H 825.343 -0.219179 -4.07411 0
M  V30 8719 H 824.018 -1.36243 -3.92951 0
M  V30 8720 H 822.595 0.454749 -3.70117 0
M  V30 8721 N 824.78 1.49157 -0.508906 0
M  V30 8722 C 826.196 1.58741 -0.165372 0
M  V30 8723 C 826.396 1.5133 1.33047 0
M  V30 8724 O 825.452 1.39135 2.10707 0
M  V30 8725 C 826.765 2.91217 -0.749194 0
M  V30 8726 C 828.313 3.047 -0.716015 0
M  V30 8727 C 828.788 4.39807 -1.27804 0
M  V30 8728 N 830.279 4.46319 -1.23908 0
M  V30 8729 C 831.014 5.49325 -1.64406 0
M  V30 8730 N 830.51 6.59395 -2.12534 0
M  V30 8731 N 832.303 5.40084 -1.55773 0
M  V30 8732 H 824.454 1.52217 -1.48134 0
M  V30 8733 H 826.717 0.721514 -0.614915 0
M  V30 8734 H 826.423 3.02233 -1.79856 0
M  V30 8735 H 826.297 3.76592 -0.214144 0
M  V30 8736 H 828.684 2.9331 0.324535 0
M  V30 8737 H 828.765 2.2099 -1.2883 0
M  V30 8738 H 828.409 4.5195 -2.31741 0
M  V30 8739 H 828.339 5.2217 -0.681623 0
M  V30 8740 H 830.83 3.67354 -0.886537 0
M  V30 8741 H 831.143 7.34102 -2.41485 0
M  V30 8742 H 829.488 6.60414 -2.16513 0
M  V30 8743 H 832.679 4.52986 -1.17987 0
M  V30 8744 H 832.852 6.20233 -1.87657 0
M  V30 8745 N 826.258 0.243083 1.55714 0
M  V30 8746 C 827.483 -0.389944 2.03701 0
M  V30 8747 C 827.908 -1.51025 1.12129 0
M  V30 8748 O 827.266 -1.80944 0.11352 0
M  V30 8749 C 827.314 -0.878649 3.49731 0
M  V30 8750 O 826.418 -1.98851 3.61292 0
M  V30 8751 H 825.759 -0.0855115 0.658471 0
M  V30 8752 H 828.289 0.368023 2.01263 0
M  V30 8753 H 828.299 -1.18287 3.90477 0
M  V30 8754 H 826.974 -0.0588107 4.15858 0
M  V30 8755 H 825.551 -1.68928 3.32442 0
M  V30 8756 N 827.736 -1.57571 -0.0300757 0
M  V30 8757 C 828.961 -1.93879 -0.736601 0
M  V30 8758 C 829.386 -0.842998 -1.68152 0
M  V30 8759 O 828.744 0.20135 -1.80178 0
M  V30 8760 C 828.792 -3.29247 -1.47066 0
M  V30 8761 O 827.896 -3.21426 -2.58378 0
M  V30 8762 H 827.237 -0.633735 -0.198181 0
M  V30 8763 H 829.767 -2.04595 0.0141485 0
M  V30 8764 H 829.777 -3.64113 -1.84081 0
M  V30 8765 H 828.452 -4.08565 -0.77764 0
M  V30 8766 H 827.029 -2.98189 -2.23914 0
M  V30 8767 N 829.214 0.302327 -1.54673 0
M  V30 8768 C 830.439 1.06103 -1.78205 0
M  V30 8769 C 830.864 1.80204 -0.53926 0
M  V30 8770 O 830.222 1.73975 0.510142 0
M  V30 8771 C 830.27 2.01829 -2.98827 0
M  V30 8772 O 829.374 3.10108 -2.71858 0
M  V30 8773 H 828.715 0.30487 -0.589873 0
M  V30 8774 H 831.245 0.340153 -2.01753 0
M  V30 8775 H 831.255 2.44319 -3.2676 0
M  V30 8776 H 829.93 1.473 -3.88942 0
M  V30 8777 H 828.507 2.72142 -2.54937 0
M  V30 8778 N 830.692 1.47107 0.565454 0
M  V30 8779 C 832.108 1.32443 0.890566 0
M  V30 8780 C 832.308 0.308735 1.99121 0
M  V30 8781 O 831.364 -0.28265 2.50913 0
M  V30 8782 C 832.677 2.71548 1.2916 0
M  V30 8783 C 834.225 2.7977 1.40349 0
M  V30 8784 C 834.7 4.19497 1.83811 0
M  V30 8785 N 836.191 4.21998 1.90975 0
M  V30 8786 C 836.926 5.2702 2.25916 0
M  V30 8787 N 836.422 6.42353 2.59527 0
M  V30 8788 N 838.215 5.14393 2.26619 0
M  V30 8789 H 830.366 2.11786 -0.161328 0
M  V30 8790 H 832.629 0.947952 -0.00950631 0
M  V30 8791 H 832.335 3.47265 0.556753 0
M  V30 8792 H 832.209 3.02782 2.24951 0
M  V30 8793 H 834.596 2.0433 2.12916 0
M  V30 8794 H 834.677 2.522 0.427655 0
M  V30 8795 H 834.321 4.95439 1.11816 0
M  V30 8796 H 834.251 4.44486 2.82382 0
M  V30 8797 H 836.742 3.38791 1.6742 0
M  V30 8798 H 837.055 7.18252 2.85191 0
M  V30 8799 H 835.4 6.45687 2.57126 0
M  V30 8800 H 838.591 4.2332 1.99794 0
M  V30 8801 H 838.764 5.96349 2.5352 0
M  V30 8802 N 832.17 -0.811516 1.35101 0
M  V30 8803 C 833.586 -1.10634 1.15031 0
M  V30 8804 C 833.786 -2.01459 -0.0405379 0
M  V30 8805 O 832.842 -2.42235 -0.712635 0
M  V30 8806 C 834.155 -1.74207 2.45097 0
M  V30 8807 C 835.703 -1.8665 2.51258 0
M  V30 8808 C 836.178 -2.53638 3.81355 0
M  V30 8809 N 837.669 -2.61128 3.82579 0
M  V30 8810 C 838.404 -3.13717 4.79968 0
M  V30 8811 N 837.9 -3.66782 5.87744 0
M  V30 8812 N 839.693 -3.12224 4.67411 0
M  V30 8813 H 831.844 -0.207641 2.11383 0
M  V30 8814 H 834.107 -0.154697 0.935293 0
M  V30 8815 H 833.813 -1.14936 3.32389 0
M  V30 8816 H 833.687 -2.73958 2.59281 0
M  V30 8817 H 836.074 -2.45066 1.64398 0
M  V30 8818 H 836.155 -0.857678 2.40993 0
M  V30 8819 H 835.799 -1.95873 4.68611 0
M  V30 8820 H 835.729 -3.55047 3.88907 0
M  V30 8821 H 838.22 -2.23527 3.04703 0
M  V30 8822 H 838.533 -4.05194 6.58056 0
M  V30 8823 H 836.878 -3.64994 5.91443 0
M  V30 8824 H 840.069 -2.70042 3.82354 0
M  V30 8825 H 840.242 -3.52903 5.43474 0
M  V30 8826 N 833.648 -1.19017 -1.03309 0
M  V30 8827 C 835.064 -0.941483 -1.28873 0
M  V30 8828 C 835.264 0.388587 -1.97718 0
M  V30 8829 O 834.32 1.12111 -2.26246 0
M  V30 8830 C 835.633 -2.11249 -2.13996 0
M  V30 8831 C 837.181 -2.15164 -2.27318 0
M  V30 8832 C 837.656 -3.31704 -3.15811 0
M  V30 8833 N 839.147 -3.31613 -3.23399 0
M  V30 8834 C 839.882 -4.18431 -3.9205 0
M  V30 8835 N 839.378 -5.15397 -4.62966 0
M  V30 8836 N 841.171 -4.06321 -3.88406 0
M  V30 8837 H 833.322 -2.04599 -0.570343 0
M  V30 8838 H 835.585 -0.894406 -0.314232 0
M  V30 8839 H 835.291 -3.07482 -1.70727 0
M  V30 8840 H 835.165 -2.07955 -3.14697 0
M  V30 8841 H 837.552 -1.19504 -2.6982 0
M  V30 8842 H 837.633 -2.22513 -1.26182 0
M  V30 8843 H 837.277 -4.2764 -2.74019 0
M  V30 8844 H 837.207 -3.21592 -4.16997 0
M  V30 8845 H 839.698 -2.6142 -2.72888 0
M  V30 8846 H 840.011 -5.78 -5.12968 0
M  V30 8847 H 838.356 -5.19349 -4.61846 0
M  V30 8848 H 841.547 -3.29849 -3.3214 0
M  V30 8849 H 841.72 -4.74196 -4.41635 0
M  V30 8850 N 835.127 1.22348 -0.993418 0
M  V30 8851 C 836.543 1.43222 -0.704238 0
M  V30 8852 C 836.743 1.88009 0.724909 0
M  V30 8853 O 835.799 2.03429 1.49575 0
M  V30 8854 C 837.112 2.47328 -1.71025 0
M  V30 8855 C 838.66 2.61126 -1.72576 0
M  V30 8856 C 839.135 3.68453 -2.72041 0
M  V30 8857 N 840.626 3.75911 -2.70639 0
M  V30 8858 C 841.361 4.58551 -3.44266 0
M  V30 8859 N 840.857 5.45179 -4.27495 0
M  V30 8860 N 842.65 4.52866 -3.32969 0
M  V30 8861 H 834.801 0.915832 -1.91641 0
M  V30 8862 H 837.064 0.464283 -0.826526 0
M  V30 8863 H 836.77 2.21366 -2.73295 0
M  V30 8864 H 836.644 3.45939 -1.50353 0
M  V30 8865 H 839.031 2.86431 -0.710037 0
M  V30 8866 H 839.112 1.62787 -1.97317 0
M  V30 8867 H 838.756 3.43895 -3.73763 0
M  V30 8868 H 838.686 4.66362 -2.4457 0
M  V30 8869 H 841.177 3.14014 -2.10247 0
M  V30 8870 H 841.49 6.0526 -4.80499 0
M  V30 8871 H 839.835 5.44759 -4.31582 0
M  V30 8872 H 843.026 3.84215 -2.67389 0
M  V30 8873 H 843.199 5.17039 -3.90608 0
M  V30 8874 N 836.605 0.766683 1.37694 0
M  V30 8875 C 837.83 0.338715 2.04615 0
M  V30 8876 C 838.255 -1.02918 1.57447 0
M  V30 8877 O 837.613 -1.65849 0.732386 0
M  V30 8878 C 837.661 0.385284 3.58536 0
M  V30 8879 O 836.765 -0.616081 4.07772 0
M  V30 8880 H 836.106 0.147527 0.647404 0
M  V30 8881 H 838.636 1.04146 1.7611 0
M  V30 8882 H 838.646 0.240782 4.07289 0
M  V30 8883 H 837.321 1.38325 3.92223 0
M  V30 8884 H 835.898 -0.435115 3.70353 0
M  V30 8885 N 838.083 -1.48885 0.516809 0
M  V30 8886 C 839.308 -2.0739 -0.0205201 0
M  V30 8887 C 839.733 -1.37259 -1.28614 0
M  V30 8888 O 839.091 -0.434304 -1.76021 0
M  V30 8889 C 839.139 -3.59793 -0.24104 0
M  V30 8890 O 838.243 -3.90957 -1.31251 0
M  V30 8891 H 837.584 -0.663167 0.0332564 0
M  V30 8892 H 840.114 -1.91477 0.720956 0
M  V30 8893 H 840.124 -4.0531 -0.467737 0
M  V30 8894 H 838.799 -4.10244 0.68356 0
M  V30 8895 H 837.376 -3.57234 -1.06951 0
M  V30 8896 N 839.561 -0.251338 -1.55583 0
M  V30 8897 C 840.786 0.379136 -2.03905 0
M  V30 8898 C 841.211 1.50428 -1.12929 0
M  V30 8899 O 840.569 1.80882 -0.123114 0
M  V30 8900 C 840.617 0.86009 -3.50193 0
M  V30 8901 O 839.721 1.96932 -3.62342 0
M  V30 8902 H 839.062 0.0820183 -0.658915 0
M  V30 8903 H 841.592 -0.378692 -2.01065 0
M  V30 8904 H 841.602 1.16214 -3.91099 0
M  V30 8905 H 840.277 0.0367559 -4.15884 0
M  V30 8906 H 838.854 1.67163 -3.33333 0
M  V30 8907 N 841.039 1.57585 0.0217189 0
M  V30 8908 C 842.267 1.93871 0.722619 0
M  V30 8909 C 842.682 0.851706 1.68498 0
M  V30 8910 O 842.039 -0.17127 1.81695 0
M  V30 8911 C 842.09 3.30114 1.47333 0
M  V30 8912 O 841.811 4.34639 0.549597 0
M  V30 8913 C 843.312 3.80727 2.27072 0
M  V30 8914 H 840.532 0.639671 0.202637 0
M  V30 8915 H 843.076 2.04487 -0.0229414 0
M  V30 8916 H 841.231 3.20872 2.17071 0
M  V30 8917 H 841.645 5.13326 1.07686 0
M  V30 8918 H 843.119 4.78547 2.75131 0
M  V30 8919 H 843.596 3.12301 3.08812 0
M  V30 8920 H 844.202 3.93075 1.62395 0
M  V30 8921 N 842.517 -0.29412 1.54831 0
M  V30 8922 C 843.48 -1.3461 1.85507 0
M  V30 8923 C 844.48 -1.43359 0.728343 0
M  V30 8924 O 845.67 -1.42875 0.996609 0
M  V30 8925 C 842.802 -2.73012 2.0415 0
M  V30 8926 H 843.995 -1.08651 2.79526 0
M  V30 8927 H 841.548 -0.531138 1.46999 0
M  V30 8928 H 842.283 -3.04183 1.12441 0
M  V30 8929 H 842.068 -2.68051 2.86166 0
M  V30 8930 H 843.558 -3.49061 2.29229 0
M  V30 8931 N 843.995 -1.47404 -0.557645 0
M  V30 8932 C 845.406 -1.47872 -1.13977 0
M  V30 8933 C 845.757 -0.233176 -1.94809 0
M  V30 8934 O 844.882 0.661945 -2.06027 0
M  V30 8935 C 845.477 -2.67926 -2.07368 0
M  V30 8936 C 844.036 -2.71354 -2.60852 0
M  V30 8937 C 843.183 -2.40967 -1.37223 0
M  V30 8938 H 846.134 -1.54921 -0.344268 0
M  V30 8939 H 846.155 -2.44871 -2.91236 0
M  V30 8940 H 845.667 -3.58562 -1.48509 0
M  V30 8941 H 843.768 -1.84855 -3.23511 0
M  V30 8942 H 843.881 -3.72032 -3.01876 0
M  V30 8943 H 842.245 -1.91541 -1.67882 0
M  V30 8944 H 843.028 -3.33811 -0.801583 0
M  V30 8945 N 845.473 0.80434 -1.35529 0
M  V30 8946 C 846.884 1.37849 -1.25915 0
M  V30 8947 C 847.235 1.95905 0.107495 0
M  V30 8948 O 846.36 1.91462 1.00852 0
M  V30 8949 C 846.955 2.50608 -2.27994 0
M  V30 8950 C 845.514 3.03879 -2.22114 0
M  V30 8951 C 844.661 1.76856 -2.13582 0
M  V30 8952 H 847.612 0.607192 -1.46625 0
M  V30 8953 H 847.633 3.29221 -1.90772 0
M  V30 8954 H 847.145 2.08323 -3.27449 0
M  V30 8955 H 845.246 3.50622 -1.26077 0
M  V30 8956 H 845.359 3.61707 -3.14173 0
M  V30 8957 H 843.723 1.98498 -1.59595 0
M  V30 8958 H 844.506 1.36721 -3.14901 0
M  V30 8959 N 846.951 1.19563 1.02676 0
M  V30 8960 C 848.179 1.02488 1.79732 0
M  V30 8961 C 848.594 -0.426302 1.83924 0
M  V30 8962 O 847.951 -1.29609 1.28483 0
M  V30 8963 C 848.002 1.58944 3.24683 0
M  V30 8964 O 847.723 2.98382 3.2078 0
M  V30 8965 C 849.224 1.46681 4.1833 0
M  V30 8966 H 846.444 0.361098 0.565552 0
M  V30 8967 H 848.988 1.58426 1.29311 0
M  V30 8968 H 847.143 1.0715 3.72287 0
M  V30 8969 H 847.557 3.24983 4.11687 0
M  V30 8970 H 849.031 1.90959 5.17918 0
M  V30 8971 H 849.508 0.417663 4.3721 0
M  V30 8972 H 850.114 1.97616 3.76601 0
M  V30 8973 N 848.429 -1.21819 0.999893 0
M  V30 8974 C 849.654 -1.95298 0.698094 0
M  V30 8975 C 850.079 -1.73273 -0.731982 0
M  V30 8976 O 849.437 -1.01634 -1.50134 0
M  V30 8977 C 849.485 -3.45922 1.01834 0
M  V30 8978 O 848.589 -4.12223 0.120801 0
M  V30 8979 H 847.93 -0.610729 0.260588 0
M  V30 8980 H 850.46 -1.5472 1.33876 0
M  V30 8981 H 850.47 -3.96471 0.963074 0
M  V30 8982 H 849.145 -3.61278 2.06037 0
M  V30 8983 H 847.722 -3.72177 0.232153 0
M  V30 8984 N 849.908 -0.773975 -1.37286 0
M  V30 8985 C 851.133 -0.349561 -2.04433 0
M  V30 8986 C 851.558 1.02082 -1.5799 0
M  V30 8987 O 850.916 1.65458 -0.741172 0
M  V30 8988 C 850.964 -0.404292 -3.58326 0
M  V30 8989 O 850.068 0.594447 -4.08093 0
M  V30 8990 H 849.409 -0.150959 -0.646612 0
M  V30 8991 H 851.939 -1.05079 -1.75555 0
M  V30 8992 H 851.949 -0.262378 -4.07155 0
M  V30 8993 H 850.624 -1.40403 -3.91484 0
M  V30 8994 H 849.201 0.415468 -3.70578 0
M  V30 8995 N 851.386 1.48609 -0.524698 0
M  V30 8996 C 852.296 2.33318 0.244923 0
M  V30 8997 C 853.312 1.46153 0.944214 0
M  V30 8998 O 854.488 1.79141 0.920347 0
M  V30 8999 C 851.553 3.22149 1.28144 0
M  V30 9000 C 850.614 4.25184 0.593068 0
M  V30 9001 C 849.847 5.0977 1.5802 0
M  V30 9002 O 850.07 4.96249 2.81235 0
M  V30 9003 O 849.004 5.9134 1.1225 0
M  V30 9004 H 852.83 3.00362 -0.449066 0
M  V30 9005 H 850.415 1.46643 -0.285689 0
M  V30 9006 H 852.297 3.77111 1.88057 0
M  V30 9007 H 850.972 2.57772 1.95793 0
M  V30 9008 H 849.879 3.74071 -0.0464214 0
M  V30 9009 H 851.212 4.92183 -0.0413893 0
M  V30 9010 N 852.864 0.259585 1.55447 0
M  V30 9011 C 854.089 -0.368317 2.04103 0
M  V30 9012 C 854.514 -1.49827 1.13725 0
M  V30 9013 O 853.872 -1.80814 0.132705 0
M  V30 9014 C 853.92 -0.841506 3.50644 0
M  V30 9015 O 853.024 -1.95008 3.63381 0
M  V30 9016 H 852.365 -0.0785227 0.659341 0
M  V30 9017 H 854.895 0.389349 2.00861 0
M  V30 9018 H 854.905 -1.14138 3.9171 0
M  V30 9019 H 853.58 -0.0147001 4.15897 0
M  V30 9020 H 852.157 -1.65393 3.34215 0
M  V30 9021 N 854.342 -1.57594 -0.0133615 0
M  V30 9022 C 855.567 -1.94649 -0.715996 0
M  V30 9023 C 855.992 -0.860786 -1.67249 0
M  V30 9024 O 855.35 0.182228 -1.80382 0
M  V30 9025 C 855.398 -3.30789 -1.43566 0
M  V30 9026 O 854.502 -3.24148 -2.54955 0
M  V30 9027 H 853.843 -0.635801 -0.191449 0
M  V30 9028 H 856.373 -2.04569 0.0358478 0
M  V30 9029 H 856.383 -3.66045 -1.80208 0
M  V30 9030 H 855.058 -4.09367 -0.734263 0
M  V30 9031 H 853.635 -3.00548 -2.20739 0
M  V30 9032 O 855.859 0.155898 -1.60746 0
M  V30 9033 H 856.55 0.791038 -1.76811 0
M  V30 END ATOM
M  V30 BEGIN BOND
M  V30 END BOND
M  V30 END CTAB
M  END
$$$$
