drugbank_target|P78362 SRSF protein kinase 2 (DB00173; DB02733; DB04395)
 OpenBabel12092120513D

  0  0  0     0  0            999 V3000
M  V30 BEGIN CTAB
M  V30 COUNTS 10711 10847 0 0 0
M  V30 BEGIN ATOM
M  V30 1 H -0.908 1.98254 -0.117106 0
M  V30 2 N 0 1.576 0 0
M  V30 3 C 0.933 2.03868 1.02534 0
M  V30 4 C 1.911 0.928543 1.3348 0
M  V30 5 O 3.095 1.19667 1.45644 0
M  V30 6 C 0.222 2.43627 2.35294 0
M  V30 7 C -0.732 3.65373 2.2001 0
M  V30 8 S 0.101 5.13292 1.52614 0
M  V30 9 C 1.257 5.56322 2.86805 0
M  V30 10 H 1.49 2.90518 0.631377 0
M  V30 11 H -0.977 1.52953 0.210867 0
M  V30 12 H 0.981 2.67203 3.11629 0
M  V30 13 H -0.358 1.57376 2.7183 0
M  V30 14 H -1.165 3.90944 3.18086 0
M  V30 15 H -1.563 3.418 1.51819 0
M  V30 16 H 0.729 5.58782 3.83104 0
M  V30 17 H 1.672 6.56266 2.65933 0
M  V30 18 H 2.08 4.83886 2.90714 0
M  V30 19 N 1.4781 -0.272755 1.55222 0
M  V30 20 C 2.7031 -1.02683 1.80197 0
M  V30 21 C 3.1281 -1.79142 0.573551 0
M  V30 22 O 2.4861 -1.74917 -0.476849 0
M  V30 23 C 2.5341 -1.9609 3.02624 0
M  V30 24 O 1.6381 -3.04863 2.77727 0
M  V30 25 H 0.9791 -0.293557 0.595584 0
M  V30 26 H 3.5091 -0.30159 2.02365 0
M  V30 27 H 3.5191 -2.38039 3.31363 0
M  V30 28 H 2.1941 -1.39851 3.91682 0
M  V30 29 H 0.7711 -2.67228 2.60084 0
M  V30 30 N 2.9562 -1.48159 -0.537278 0
M  V30 31 C 4.2022 -1.56035 -1.29541 0
M  V30 32 C 4.5352 -0.230377 -1.92829 0
M  V30 33 O 3.8102 0.762952 -1.78911 0
M  V30 34 C 4.0932 -2.69323 -2.39034 0
M  V30 35 C 3.9462 -4.12002 -1.80485 0
M  V30 36 C 5.2652 -2.78408 -3.40847 0
M  V30 37 H 2.3842 -0.567992 -0.469632 0
M  V30 38 H 5.0262 -1.80302 -0.599277 0
M  V30 39 H 3.1762 -2.48763 -2.98412 0
M  V30 40 H 4.8482 -4.43981 -1.25215 0
M  V30 41 H 3.0912 -4.19344 -1.11055 0
M  V30 42 H 3.7622 -4.87077 -2.59731 0
M  V30 43 H 6.2382 -2.97012 -2.91416 0
M  V30 44 H 5.1142 -3.59416 -4.14863 0
M  V30 45 H 5.3752 -1.86269 -4.00944 0
M  V30 46 N 4.4343 0.785586 -1.36625 0
M  V30 47 C 5.3823 1.91978 -1.31329 0
M  V30 48 C 6.3763 1.68162 -0.204416 0
M  V30 49 O 7.5823 1.76122 -0.371645 0
M  V30 50 H 3.9573 0.631087 -0.408942 0
M  V30 51 H 5.9283 1.93562 -2.27104 0
M  V30 52 C 4.6773 3.29055 -1.12329 0
M  V30 53 H 4.0003 3.4795 -1.96903 0
M  V30 54 H 5.4403 4.08756 -1.12671 0
M  V30 55 C 3.8993 3.36461 0.171861 0
M  V30 56 O 4.4293 3.84576 1.16035 0
M  V30 57 N 2.6353 2.89782 0.217846 0
M  V30 58 H 2.1823 2.50819 -0.587183 0
M  V30 59 H 2.1403 2.95119 1.08408 0
M  V30 60 N 5.9124 1.20967 1.01018 0
M  V30 61 C 7.1374 1.0503 1.78839 0
M  V30 62 C 7.5624 -0.395752 1.8389 0
M  V30 63 O 6.9204 -1.28529 1.27867 0
M  V30 64 C 6.9684 1.64602 3.2084 0
M  V30 65 O 6.0724 0.887988 4.02726 0
M  V30 66 H 5.4134 0.369987 0.551367 0
M  V30 67 H 7.9434 1.60399 1.27018 0
M  V30 68 H 7.9534 1.68607 3.71532 0
M  V30 69 H 6.6284 2.69841 3.16479 0
M  V30 70 H 5.2054 0.922648 3.61305 0
M  V30 71 N 7.3905 -1.2043 1.01659 0
M  V30 72 C 8.3005 -2.2689 0.596484 0
M  V30 73 C 9.3165 -1.70107 -0.36599 0
M  V30 74 O 10.4925 -2.00117 -0.226942 0
M  V30 75 C 7.5575 -3.4665 -0.0586659 0
M  V30 76 C 6.6185 -4.18662 0.949751 0
M  V30 77 C 5.8515 -5.32705 0.32577 0
M  V30 78 O 6.0745 -5.63656 -0.874509 0
M  V30 79 O 5.0085 -5.92803 1.04249 0
M  V30 80 H 8.8345 -2.65041 1.4828 0
M  V30 81 H 6.4195 -1.27048 0.786082 0
M  V30 82 H 8.3015 -4.19256 -0.424564 0
M  V30 83 H 6.9765 -3.10375 -0.91918 0
M  V30 84 H 5.8835 -3.48229 1.36702 0
M  V30 85 H 7.2165 -4.58878 1.78023 0
M  V30 86 N 8.8686 -0.792821 -1.36206 0
M  V30 87 C 9.8156 -0.191653 -2.30003 0
M  V30 88 C 10.7856 0.666453 -1.52143 0
M  V30 89 O 11.9706 0.61442 -1.80636 0
M  V30 90 C 9.1106 0.664848 -3.38635 0
M  V30 91 C 8.2236 -0.212175 -4.31479 0
M  V30 92 C 7.3586 0.651022 -5.27196 0
M  V30 93 C 6.3976 -0.227247 -6.11678 0
M  V30 94 N 5.5346 0.595127 -6.99573 0
M  V30 95 H 10.3746 -0.996978 -2.80828 0
M  V30 96 H 7.9116 -0.503206 -1.38225 0
M  V30 97 H 9.8696 1.17645 -4.00269 0
M  V30 98 H 8.4996 1.43557 -2.89122 0
M  V30 99 H 7.5516 -0.841777 -3.70969 0
M  V30 100 H 8.8636 -0.888751 -4.90818 0
M  V30 101 H 8.0176 1.2283 -5.94136 0
M  V30 102 H 6.7566 1.36121 -4.68319 0
M  V30 103 H 5.7616 -0.816904 -5.43697 0
M  V30 104 H 6.9866 -0.93509 -6.72631 0
M  V30 105 H 4.9326 1.28955 -6.432 0
M  V30 106 H 4.8496 -0.0236952 -7.55996 0
M  V30 107 H 6.1176 1.15613 -7.70879 0
M  V30 108 N 10.3467 1.47872 -0.545128 0
M  V30 109 C 11.5717 2.07391 -0.0190611 0
M  V30 110 C 11.9967 1.39688 1.25971 0
M  V30 111 O 11.3547 0.467816 1.7516 0
M  V30 112 C 11.4027 3.60188 0.172335 0
M  V30 113 O 10.5067 3.9339 1.23766 0
M  V30 114 H 9.8477 0.662411 -0.0459059 0
M  V30 115 H 12.3777 1.90066 -0.757365 0
M  V30 116 H 12.3877 4.06129 0.390305 0
M  V30 117 H 11.0627 4.08865 -0.761725 0
M  V30 118 H 9.6397 3.5921 1.00114 0
M  V30 119 N 11.8248 0.280983 1.55075 0
M  V30 120 C 13.0498 -0.340154 2.04592 0
M  V30 121 C 13.4748 -1.48246 1.15779 0
M  V30 122 O 12.8328 -1.80614 0.15761 0
M  V30 123 C 12.8808 -0.793104 3.5177 0
M  V30 124 O 11.9848 -1.89981 3.66034 0
M  V30 125 H 11.3258 -0.0694289 0.66036 0
M  V30 126 H 13.8558 0.416993 2.00306 0
M  V30 127 H 13.8658 -1.08729 3.93245 0
M  V30 128 H 12.5408 0.0426163 4.15878 0
M  V30 129 H 11.1178 -1.60771 3.36463 0
M  V30 130 N 13.3029 -1.57598 0.00835791 0
M  V30 131 C 14.5279 -1.95617 -0.689103 0
M  V30 132 C 14.9529 -0.883753 -1.66046 0
M  V30 133 O 14.3109 0.157352 -1.80616 0
M  V30 134 C 14.3589 -3.32736 -1.38994 0
M  V30 135 O 13.4629 -3.27631 -2.50463 0
M  V30 136 H 12.8039 -0.638379 -0.182668 0
M  V30 137 H 15.3339 -2.045 0.064036 0
M  V30 138 H 15.3439 -3.68494 -1.75147 0
M  V30 139 H 14.0189 -4.1034 -0.677778 0
M  V30 140 H 12.5959 -3.03561 -2.16576 0
M  V30 141 N 14.781 0.264519 -1.55364 0
M  V30 142 C 16.006 1.01726 -1.80739 0
M  V30 143 C 16.431 1.78836 -0.583044 0
M  V30 144 O 15.789 1.75167 0.467566 0
M  V30 145 C 15.837 1.94482 -3.03659 0
M  V30 146 O 14.941 3.03386 -2.7934 0
M  V30 147 H 14.282 0.290395 -0.597132 0
M  V30 148 H 16.812 0.290854 -2.02522 0
M  V30 149 H 16.822 2.36278 -3.32621 0
M  V30 150 H 15.497 1.37772 -3.92418 0
M  V30 151 H 14.074 2.65844 -2.61498 0
M  V30 152 N 16.2591 1.48442 0.529413 0
M  V30 153 C 17.1691 1.6569 1.66084 0
M  V30 154 C 18.1851 0.539432 1.65427 0
M  V30 155 O 19.3611 0.810572 1.84368 0
M  V30 156 C 16.4261 1.69315 3.02545 0
M  V30 157 C 15.4871 2.92694 3.14052 0
M  V30 158 C 14.7201 2.96137 4.44003 0
M  V30 159 O 14.9431 2.07973 5.31134 0
M  V30 160 O 13.8771 3.88312 4.59888 0
M  V30 161 H 17.7031 2.61483 1.54469 0
M  V30 162 H 15.2881 1.3185 0.702567 0
M  V30 163 H 17.1701 1.74217 3.83701 0
M  V30 164 H 15.8451 0.766966 3.14483 0
M  V30 165 H 14.7521 2.93324 2.32189 0
M  V30 166 H 16.0851 3.84699 3.0703 0
M  V30 167 N 17.7372 -0.778329 1.37039 0
M  V30 168 C 19.1532 -1.07796 1.17695 0
M  V30 169 C 19.3532 -2.01498 0.00860115 0
M  V30 170 O 18.4092 -2.43901 -0.653352 0
M  V30 171 C 19.7222 -1.68178 2.49272 0
M  V30 172 C 21.2702 -1.80467 2.55735 0
M  V30 173 C 21.7452 -2.44263 3.87427 0
M  V30 174 N 23.2362 -2.51721 3.88833 0
M  V30 175 C 23.9712 -3.01919 4.87476 0
M  V30 176 N 23.4672 -3.5234 5.96513 0
M  V30 177 N 25.2602 -3.00733 4.74885 0
M  V30 178 H 17.4112 -0.156032 2.11826 0
M  V30 179 H 19.6742 -0.131844 0.938787 0
M  V30 180 H 19.3802 -1.06796 3.35093 0
M  V30 181 H 19.2542 -2.67554 2.65885 0
M  V30 182 H 21.6412 -2.40984 1.70325 0
M  V30 183 H 21.7222 -0.798656 2.43013 0
M  V30 184 H 21.3662 -1.84388 4.73248 0
M  V30 185 H 21.2962 -3.45458 3.9745 0
M  V30 186 H 23.7872 -2.1603 3.10063 0
M  V30 187 H 24.1002 -3.89027 6.67741 0
M  V30 188 H 22.4452 -3.50462 6.00168 0
M  V30 189 H 25.6362 -2.60638 3.88826 0
M  V30 190 H 25.8092 -3.39545 5.51918 0
M  V30 191 N 19.2153 -1.21501 -1.00376 0
M  V30 192 C 20.6263 -1.03146 -1.55621 0
M  V30 193 C 20.9773 0.408375 -1.91903 0
M  V30 194 O 20.1023 1.29177 -1.73616 0
M  V30 195 C 20.6973 -1.86612 -2.82775 0
M  V30 196 C 19.2563 -1.72586 -3.34501 0
M  V30 197 C 18.4033 -1.83747 -2.07683 0
M  V30 198 H 21.3543 -1.35505 -0.826081 0
M  V30 199 H 21.3753 -1.3771 -3.54706 0
M  V30 200 H 20.8873 -2.91399 -2.56336 0
M  V30 201 H 18.9883 -0.704877 -3.65872 0
M  V30 202 H 19.1013 -2.54623 -4.05837 0
M  V30 203 H 17.4653 -1.27069 -2.20739 0
M  V30 204 H 18.2483 -2.90044 -1.83655 0
M  V30 205 N 20.6934 1.19889 -1.02296 0
M  V30 206 C 21.6034 2.26571 -0.608508 0
M  V30 207 C 22.6194 1.70299 0.356964 0
M  V30 208 O 23.7954 2.00235 0.216326 0
M  V30 209 C 20.8604 3.46677 0.0402814 0
M  V30 210 C 19.9214 4.18153 -0.97194 0
M  V30 211 C 19.1544 5.32525 -0.354016 0
M  V30 212 O 19.3774 5.64112 0.844604 0
M  V30 213 O 18.3114 5.92242 -1.07391 0
M  V30 214 H 22.1374 2.64251 -1.49684 0
M  V30 215 H 19.7224 1.26629 -0.792809 0
M  V30 216 H 21.6044 4.19475 0.402324 0
M  V30 217 H 20.2794 3.10858 0.902707 0
M  V30 218 H 19.1864 3.47499 -1.38546 0
M  V30 219 H 20.5194 4.57927 -1.80454 0
M  V30 220 N 22.1715 0.800033 1.35784 0
M  V30 221 C 23.5825 0.439142 1.81462 0
M  V30 222 C 23.9335 -1.03813 1.66485 0
M  V30 223 O 23.0585 -1.80626 1.19177 0
M  V30 224 C 23.6535 0.790314 3.29453 0
M  V30 225 C 22.2125 0.482111 3.733 0
M  V30 226 C 21.3595 1.01938 2.57883 0
M  V30 227 H 24.3105 0.992254 1.23855 0
M  V30 228 H 24.3315 0.0853677 3.80404 0
M  V30 229 H 23.8435 1.86554 3.40322 0
M  V30 230 H 21.9445 -0.584652 3.67984 0
M  V30 231 H 22.0575 1.01015 4.6833 0
M  V30 232 H 20.4215 0.442043 2.50835 0
M  V30 233 H 21.2045 2.10059 2.71533 0
M  V30 234 N 23.6496 -1.47581 0.552962 0
M  V30 235 C 24.5816 -2.27997 -0.234533 0
M  V30 236 C 25.5946 -1.36753 -0.883321 0
M  V30 237 O 26.7836 -1.61612 -0.757889 0
M  V30 238 C 23.8836 -3.10879 -1.34935 0
M  V30 239 C 23.0566 -4.30056 -0.798158 0
M  V30 240 C 22.1156 -4.94567 -1.79694 0
M  V30 241 O 21.1416 -5.53087 -1.34474 0
M  V30 242 N 22.3436 -4.88878 -3.13015 0
M  V30 243 H 25.1086 -2.96222 0.455255 0
M  V30 244 H 22.6696 -1.57163 0.388761 0
M  V30 245 H 24.6616 -3.50903 -2.01616 0
M  V30 246 H 23.2316 -2.44924 -1.94244 0
M  V30 247 H 22.4516 -3.94174 0.0453079 0
M  V30 248 H 23.7396 -5.07152 -0.409173 0
M  V30 249 H 23.1376 -4.42526 -3.52402 0
M  V30 250 H 21.6946 -5.32934 -3.75266 0
M  V30 251 N 25.1277 -0.289203 -1.54924 0
M  V30 252 C 26.0597 0.625583 -2.20497 0
M  V30 253 C 27.0727 1.10667 -1.19402 0
M  V30 254 O 28.2617 1.02615 -1.46056 0
M  V30 255 C 25.3617 1.86702 -2.82835 0
M  V30 256 C 24.5347 1.5304 -4.09753 0
M  V30 257 C 23.5937 2.62576 -4.56005 0
M  V30 258 O 22.6197 2.28167 -5.21468 0
M  V30 259 N 23.8217 3.92901 -4.27328 0
M  V30 260 H 26.5867 0.0642801 -2.99631 0
M  V30 261 H 24.1477 -0.110896 -1.6152 0
M  V30 262 H 26.1397 2.59304 -3.10715 0
M  V30 263 H 24.7097 2.33702 -2.07611 0
M  V30 264 H 23.9297 0.637564 -3.8901 0
M  V30 265 H 25.2177 1.28072 -4.92418 0
M  V30 266 H 24.6157 4.23671 -3.74859 0
M  V30 267 H 23.1727 4.61837 -4.59946 0
M  V30 268 N 26.6058 1.57591 -0.0167156 0
M  V30 269 C 27.5528 2.09462 0.969251 0
M  V30 270 C 28.5228 0.99381 1.33089 0
M  V30 271 O 29.7078 1.26726 1.42636 0
M  V30 272 C 26.8478 2.61622 2.25051 0
M  V30 273 C 25.9608 3.85666 1.94642 0
M  V30 274 C 25.0958 4.26266 3.16972 0
M  V30 275 C 24.1348 5.43101 2.82326 0
M  V30 276 N 23.2718 5.78915 3.97243 0
M  V30 277 H 28.1118 2.93428 0.519997 0
M  V30 278 H 25.6488 1.45044 0.245087 0
M  V30 279 H 27.6068 2.89949 2.99976 0
M  V30 280 H 26.2368 1.80505 2.67615 0
M  V30 281 H 25.2888 3.64145 1.10013 0
M  V30 282 H 26.6008 4.70678 1.65117 0
M  V30 283 H 25.7548 4.55963 4.00228 0
M  V30 284 H 24.4938 3.39996 3.49648 0
M  V30 285 H 23.4988 5.1311 1.97479 0
M  V30 286 H 24.7238 6.3106 2.50879 0
M  V30 287 H 22.6698 4.95602 4.29785 0
M  V30 288 H 22.5868 6.58539 3.71299 0
M  V30 289 H 23.8548 6.13212 4.81239 0
M  V30 290 N 28.0839 -0.256276 1.55502 0
M  V30 291 C 29.0469 -1.30047 1.88734 0
M  V30 292 C 30.0469 -1.4154 0.763086 0
M  V30 293 O 31.2369 -1.40403 1.03115 0
M  V30 294 C 28.3689 -2.67953 2.10747 0
M  V30 295 H 29.5619 -1.01802 2.82093 0
M  V30 296 H 27.1149 -0.495134 1.4825 0
M  V30 297 H 27.8499 -3.01351 1.19825 0
M  V30 298 H 27.6349 -2.60993 2.92617 0
M  V30 299 H 29.1249 -3.43368 2.37673 0
M  V30 300 N 29.562 -1.4872 -0.521534 0
M  V30 301 C 30.973 -1.50607 -1.10337 0
M  V30 302 C 31.324 -0.280612 -1.94183 0
M  V30 303 O 30.449 0.611507 -2.0758 0
M  V30 304 C 31.044 -2.72903 -2.00772 0
M  V30 305 C 29.603 -2.77634 -2.54158 0
M  V30 306 C 28.75 -2.44241 -1.31307 0
M  V30 307 H 31.701 -1.55714 -0.306388 0
M  V30 308 H 31.722 -2.519 -2.85178 0
M  V30 309 H 31.234 -3.62077 -1.39721 0
M  V30 310 H 29.335 -1.92689 -3.18907 0
M  V30 311 H 29.448 -3.79283 -2.92714 0
M  V30 312 H 27.812 -1.95577 -1.63161 0
M  V30 313 H 28.595 -3.35666 -0.719943 0
M  V30 314 N 31.0401 0.771051 -1.3745 0
M  V30 315 C 31.9701 1.89827 -1.3597 0
M  V30 316 C 32.9511 1.68562 -0.228216 0
M  V30 317 O 34.1361 1.8941 -0.428675 0
M  V30 318 C 31.2661 3.2712 -1.16662 0
M  V30 319 C 30.2201 3.6295 -2.2683 0
M  V30 320 C 29.5461 4.98791 -1.92644 0
M  V30 321 C 30.8461 3.69627 -3.69017 0
M  V30 322 H 32.5401 1.91323 -2.30295 0
M  V30 323 H 30.0861 0.919082 -1.10855 0
M  V30 324 H 32.0391 4.05615 -1.14256 0
M  V30 325 H 30.7631 3.26059 -0.187926 0
M  V30 326 H 29.4221 2.86763 -2.28392 0
M  V30 327 H 29.0701 4.94271 -0.933021 0
M  V30 328 H 28.7701 5.23733 -2.66416 0
M  V30 329 H 30.2941 5.79685 -1.91826 0
M  V30 330 H 31.7081 4.38273 -3.69581 0
M  V30 331 H 30.1051 4.06067 -4.41848 0
M  V30 332 H 31.1751 2.70273 -4.02592 0
M  V30 333 N 32.5182 1.22032 0.997298 0
M  V30 334 C 33.7642 1.04376 1.73878 0
M  V30 335 C 34.0972 -0.420716 1.89588 0
M  V30 336 O 33.3722 -1.31202 1.43583 0
M  V30 337 C 33.6552 1.75047 3.14691 0
M  V30 338 C 33.5082 3.29062 3.06656 0
M  V30 339 C 34.8272 1.49928 4.13775 0
M  V30 340 H 31.9462 0.380578 0.631133 0
M  V30 341 H 34.5882 1.50312 1.16217 0
M  V30 342 H 32.7382 1.35996 3.63919 0
M  V30 343 H 34.4102 3.7753 2.65083 0
M  V30 344 H 32.6532 3.58967 2.43568 0
M  V30 345 H 33.3242 3.73683 4.06282 0
M  V30 346 H 35.8002 1.83842 3.73285 0
M  V30 347 H 34.6762 2.01878 5.10428 0
M  V30 348 H 34.9372 0.430929 4.39995 0
M  V30 349 N 33.9963 -1.19345 1.0293 0
M  V30 350 C 35.4073 -1.70725 0.755633 0
M  V30 351 C 35.7583 -1.82326 -0.724676 0
M  V30 352 O 34.8833 -1.49471 -1.56484 0
M  V30 353 C 35.4783 -3.10084 1.36503 0
M  V30 354 C 34.0373 -3.58723 1.13994 0
M  V30 355 C 33.1843 -2.35577 1.46283 0
M  V30 356 H 36.1353 -1.0418 1.19718 0
M  V30 357 H 36.1563 -3.72787 0.762217 0
M  V30 358 H 35.6683 -3.01609 2.44241 0
M  V30 359 H 33.7693 -3.72512 0.0807901 0
M  V30 360 H 33.8823 -4.42816 1.82894 0
M  V30 361 H 32.2463 -2.38935 0.88217 0
M  V30 362 H 33.0293 -2.29731 2.55105 0
M  V30 363 N 35.4744 -0.807222 -1.35358 0
M  V30 364 C 36.8854 -0.44876 -1.81226 0
M  V30 365 C 37.2364 1.02929 -1.67033 0
M  V30 366 O 36.3614 1.79991 -1.20133 0
M  V30 367 C 36.9564 -0.807774 -3.2903 0
M  V30 368 C 35.5154 -0.501901 -3.73039 0
M  V30 369 C 34.6624 -1.03304 -2.57339 0
M  V30 370 H 37.6134 -0.998808 -1.23327 0
M  V30 371 H 37.6344 -0.10554 -3.80354 0
M  V30 372 H 37.1464 -1.88357 -3.39328 0
M  V30 373 H 35.2474 0.565128 -3.68289 0
M  V30 374 H 35.3604 -1.03497 -4.67787 0
M  V30 375 H 33.7244 -0.455339 -2.50597 0
M  V30 376 H 34.5074 -2.11496 -2.70415 0
M  V30 377 N 36.9525 1.47285 -0.560781 0
M  V30 378 C 38.3635 1.86258 -0.128343 0
M  V30 379 C 38.7145 1.46699 1.30284 0
M  V30 380 O 37.8395 0.871698 1.98067 0
M  V30 381 C 38.4345 3.38044 -0.22614 0
M  V30 382 C 36.9935 3.76096 0.151283 0
M  V30 383 C 36.1405 2.71335 -0.572084 0
M  V30 384 H 39.0915 1.38752 -0.770297 0
M  V30 385 H 39.1125 3.76441 0.554322 0
M  V30 386 H 38.6245 3.66806 -1.26788 0
M  V30 387 H 36.7255 3.52951 1.19399 0
M  V30 388 H 36.8385 4.78641 -0.209765 0
M  V30 389 H 35.2025 2.54696 -0.0147653 0
M  V30 390 H 35.9855 3.02938 -1.61504 0
M  V30 391 N 38.4306 0.297415 1.54768 0
M  V30 392 C 39.8416 -0.195947 1.85669 0
M  V30 393 C 40.1926 -1.53707 1.21937 0
M  V30 394 O 39.3176 -2.10164 0.515754 0
M  V30 395 C 39.9126 -0.362318 3.36857 0
M  V30 396 C 38.4716 -0.799901 3.67802 0
M  V30 397 C 37.6186 0.0938578 2.77141 0
M  V30 398 H 40.5696 0.518538 1.4999 0
M  V30 399 H 40.5906 -1.19745 3.61167 0
M  V30 400 H 40.1026 0.613921 3.83214 0
M  V30 401 H 38.2036 -1.78682 3.26961 0
M  V30 402 H 38.3166 -0.621773 4.75048 0
M  V30 403 H 36.6806 -0.426254 2.51108 0
M  V30 404 H 37.4636 1.06639 3.26318 0
M  V30 405 N 39.9087 -1.5758 0.0250728 0
M  V30 406 C 41.3197 -1.79476 -0.514323 0
M  V30 407 C 41.6707 -0.934956 -1.72491 0
M  V30 408 O 40.7957 -0.144245 -2.15919 0
M  V30 409 C 41.3907 -3.25503 -0.939842 0
M  V30 410 C 39.9497 -3.48408 -1.42438 0
M  V30 411 C 39.0967 -2.74583 -0.387201 0
M  V30 412 H 42.0477 -1.567 0.25113 0
M  V30 413 H 42.0687 -3.34992 -1.80445 0
M  V30 414 H 41.5807 -3.88056 -0.0585628 0
M  V30 415 H 39.6817 -2.91103 -2.32572 0
M  V30 416 H 39.7947 -4.57119 -1.43455 0
M  V30 417 H 38.1587 -2.39942 -0.854409 0
M  V30 418 H 38.9417 -3.39849 0.485543 0
M  V30 419 N 41.3868 0.248026 -1.55636 0
M  V30 420 C 42.7978 0.817177 -1.67866 0
M  V30 421 C 43.1488 1.86069 -0.622322 0
M  V30 422 O 42.2738 2.15157 0.231618 0
M  V30 423 C 42.8688 1.489 -3.04326 0
M  V30 424 C 41.4278 2.00587 -3.185 0
M  V30 425 C 40.5748 0.856573 -2.63739 0
M  V30 426 H 43.5258 0.0238579 -1.58682 0
M  V30 427 H 43.5468 2.35698 -2.98708 0
M  V30 428 H 43.0588 0.729279 -3.81186 0
M  V30 429 H 41.1598 2.79443 -2.4646 0
M  V30 430 H 41.2728 2.20402 -4.25393 0
M  V30 431 H 39.6368 1.25678 -2.21534 0
M  V30 432 H 40.4198 0.109953 -3.43124 0
M  V30 433 N 42.8649 1.48995 0.513639 0
M  V30 434 C 44.2759 1.5119 1.09537 0
M  V30 435 C 44.6269 0.290906 1.94031 0
M  V30 436 O 43.7519 -0.60049 2.07902 0
M  V30 437 C 44.3469 2.73964 1.99322 0
M  V30 438 C 42.9059 2.78978 2.52682 0
M  V30 439 C 42.0529 2.44934 1.30009 0
M  V30 440 H 45.0039 1.55875 0.298125 0
M  V30 441 H 45.0249 2.53409 2.83838 0
M  V30 442 H 44.5369 3.62813 1.37799 0
M  V30 443 H 42.6379 1.94378 3.1788 0
M  V30 444 H 42.7509 3.8083 2.90698 0
M  V30 445 H 41.1149 1.9644 1.62122 0
M  V30 446 H 41.8979 3.36043 0.702131 0
M  V30 447 N 44.343 -0.763751 1.37857 0
M  V30 448 C 45.754 -1.3405 1.29952 0
M  V30 449 C 46.105 -1.96138 -0.0492898 0
M  V30 450 O 45.23 -1.94372 -0.951239 0
M  V30 451 C 45.825 -2.43729 2.35333 0
M  V30 452 C 44.384 -2.97151 2.31037 0
M  V30 453 C 43.531 -1.70438 2.18738 0
M  V30 454 H 46.482 -0.563396 1.48363 0
M  V30 455 H 46.503 -3.23412 2.00462 0
M  V30 456 H 46.015 -1.9851 3.33489 0
M  V30 457 H 44.116 -3.46724 1.3643 0
M  V30 458 H 44.229 -3.52221 3.24772 0
M  V30 459 H 42.593 -1.93673 1.65418 0
M  V30 460 H 43.376 -1.27312 3.18821 0
M  V30 461 N 45.8211 -1.22559 -0.990812 0
M  V30 462 C 47.2321 -1.04791 -1.54518 0
M  V30 463 C 47.5831 0.387998 -1.92325 0
M  V30 464 O 46.7081 1.27328 -1.74976 0
M  V30 465 C 47.3031 -1.896 -2.80779 0
M  V30 466 C 45.8621 -1.76124 -3.32652 0
M  V30 467 C 45.0091 -1.8594 -2.05722 0
M  V30 468 H 47.9601 -1.36374 -0.811662 0
M  V30 469 H 47.9811 -1.41464 -3.53225 0
M  V30 470 H 47.4931 -2.94101 -2.53231 0
M  V30 471 H 45.5941 -0.743643 -3.65104 0
M  V30 472 H 45.7071 -2.58913 -4.03114 0
M  V30 473 H 44.0711 -1.29403 -2.19379 0
M  V30 474 H 44.8541 -2.91976 -1.80568 0
M  V30 475 N 47.2992 1.18797 -1.03562 0
M  V30 476 C 48.7102 1.70322 -0.764676 0
M  V30 477 C 49.0612 1.82708 0.714996 0
M  V30 478 O 48.1862 1.50299 1.55689 0
M  V30 479 C 48.7812 3.09356 -1.38145 0
M  V30 480 C 47.3402 3.58114 -1.15895 0
M  V30 481 C 46.4872 2.34798 -1.4753 0
M  V30 482 H 49.4382 1.03543 -1.20268 0
M  V30 483 H 49.4592 3.72378 -0.781977 0
M  V30 484 H 48.9712 3.00309 -2.45837 0
M  V30 485 H 47.0722 3.72464 -0.100544 0
M  V30 486 H 47.1852 4.4184 -1.8524 0
M  V30 487 H 45.5492 2.38464 -0.894829 0
M  V30 488 H 46.3322 2.28375 -2.56319 0
M  V30 489 N 48.7773 0.814389 1.34928 0
M  V30 490 C 50.1883 0.458364 1.80986 0
M  V30 491 C 50.5393 -1.02042 1.67577 0
M  V30 492 O 49.6643 -1.79352 1.21086 0
M  V30 493 C 50.2593 0.825212 3.28597 0
M  V30 494 C 48.8183 0.521677 3.72767 0
M  V30 495 C 47.9653 1.04668 2.56788 0
M  V30 496 H 50.9163 1.00533 1.22795 0
M  V30 497 H 50.9373 0.12571 3.80292 0
M  V30 498 H 50.4493 1.90154 3.38324 0
M  V30 499 H 48.5503 -0.545589 3.68584 0
M  V30 500 H 48.6633 1.05977 4.67232 0
M  V30 501 H 47.0273 0.468622 2.50352 0
M  V30 502 H 47.8103 2.12927 2.6929 0
M  V30 503 N 50.2554 -1.46986 0.568584 0
M  V30 504 C 51.6664 -1.86188 0.138219 0
M  V30 505 C 52.0174 -1.47388 -1.29504 0
M  V30 506 O 51.1424 -0.88219 -1.97602 0
M  V30 507 C 51.7374 -3.3792 0.244065 0
M  V30 508 C 50.2964 -3.76171 -0.131335 0
M  V30 509 C 49.4434 -2.71027 0.586465 0
M  V30 510 H 52.3944 -1.38342 0.777645 0
M  V30 511 H 52.4154 -3.76729 -0.534351 0
M  V30 512 H 51.9274 -3.66128 1.28731 0
M  V30 513 H 50.0284 -3.5358 -1.17526 0
M  V30 514 H 50.1414 -4.78523 0.235146 0
M  V30 515 H 48.5054 -2.54684 0.0282722 0
M  V30 516 H 49.2884 -3.02077 1.63109 0
M  V30 517 N 51.7335 -0.305618 -1.54608 0
M  V30 518 C 53.1445 0.186098 -1.8577 0
M  V30 519 C 53.4955 1.53058 -1.22751 0
M  V30 520 O 52.6205 2.09888 -0.526893 0
M  V30 521 C 53.2155 0.344449 -3.37044 0
M  V30 522 C 51.7745 0.780384 -3.68221 0
M  V30 523 C 50.9215 -0.108554 -2.77087 0
M  V30 524 H 53.8725 -0.526485 -1.49712 0
M  V30 525 H 53.8935 1.17828 -3.61796 0
M  V30 526 H 53.4055 -0.634235 -3.82883 0
M  V30 527 H 51.5065 1.76945 -3.27904 0
M  V30 528 H 51.6195 0.596572 -4.75371 0
M  V30 529 H 49.9835 0.412931 -2.5133 0
M  V30 530 H 50.7665 -1.08368 -3.25747 0
M  V30 531 N 53.2116 1.57565 -0.0334293 0
M  V30 532 C 54.1416 2.13511 0.945265 0
M  V30 533 C 55.1226 1.05231 1.33643 0
M  V30 534 O 56.3076 1.33084 1.41429 0
M  V30 535 C 53.4376 2.6657 2.22616 0
M  V30 536 C 52.3916 3.79676 1.97561 0
M  V30 537 C 51.7176 4.1918 3.31952 0
M  V30 538 C 53.0176 5.0557 1.31135 0
M  V30 539 H 54.7116 2.95538 0.479325 0
M  V30 540 H 52.2576 1.42166 0.229115 0
M  V30 541 H 54.2106 3.04344 2.91466 0
M  V30 542 H 52.9346 1.8171 2.71384 0
M  V30 543 H 51.5936 3.42347 1.31127 0
M  V30 544 H 51.2416 3.31296 3.78487 0
M  V30 545 H 50.9416 4.95402 3.15992 0
M  V30 546 H 52.4656 4.59541 4.02063 0
M  V30 547 H 53.8796 5.40903 1.89992 0
M  V30 548 H 52.2766 5.86818 1.25559 0
M  V30 549 H 53.3466 4.84062 0.284894 0
M  V30 550 N 54.6897 -0.239769 1.55765 0
M  V30 551 C 56.1007 -0.808263 1.68297 0
M  V30 552 C 56.4517 -1.85736 0.632181 0
M  V30 553 O 55.5767 -2.15277 -0.220204 0
M  V30 554 C 56.1717 -1.47284 3.05111 0
M  V30 555 C 54.7307 -1.98895 3.19559 0
M  V30 556 C 53.8777 -0.842575 2.64189 0
M  V30 557 H 56.8287 -0.0154422 1.58692 0
M  V30 558 H 56.8497 -2.34111 2.99954 0
M  V30 559 H 56.3617 -0.709053 3.81568 0
M  V30 560 H 54.4627 -2.78132 2.47938 0
M  V30 561 H 54.5757 -2.18143 4.26556 0
M  V30 562 H 52.9397 -1.24501 2.22197 0
M  V30 563 H 53.7227 -0.0917552 3.43177 0
M  V30 564 N 56.1678 -1.49265 -0.50573 0
M  V30 565 C 57.4448 -1.49012 -1.26707 0
M  V30 566 C 57.8248 -0.215205 -2.1 0
M  V30 567 O 57.1728 0.802547 -2.13943 0
M  V30 568 C 57.3828 -2.7663 -2.12783 0
M  V30 569 C 58.7308 -3.25932 -2.72127 0
M  V30 570 O 59.7548 -2.77715 -2.23054 0
M  V30 571 O 58.6138 -4.09897 -3.61451 0
M  V30 572 H 55.7078 -0.596197 -0.57313 0
M  V30 573 H 58.2538 -1.61524 -0.52039 0
M  V30 574 H 57.0258 -3.60916 -1.5118 0
M  V30 575 H 56.6488 -2.66956 -2.94653 0
M  V30 576 N 57.6459 0.756429 -1.3826 0
M  V30 577 C 59.0569 1.33359 -1.30661 0
M  V30 578 C 59.4079 1.96161 0.0388875 0
M  V30 579 O 58.5329 1.94874 0.940918 0
M  V30 580 C 59.1279 2.42477 -2.36622 0
M  V30 581 C 57.6869 2.95922 -2.3261 0
M  V30 582 C 56.8339 1.69275 -2.19639 0
M  V30 583 H 59.7849 0.55552 -1.4866 0
M  V30 584 H 59.8059 3.22345 -2.02174 0
M  V30 585 H 59.3179 1.96739 -3.34538 0
M  V30 586 H 57.4189 3.45996 -1.38267 0
M  V30 587 H 57.5319 3.50494 -3.26636 0
M  V30 588 H 55.8959 1.92793 -1.66442 0
M  V30 589 H 56.6789 1.25619 -3.19491 0
M  V30 590 N 59.124 1.23083 0.984299 0
M  V30 591 C 60.352 1.08714 1.76037 0
M  V30 592 C 60.767 -0.361691 1.85303 0
M  V30 593 O 60.124 -1.25034 1.32939 0
M  V30 594 C 60.175 1.70206 3.18923 0
M  V30 595 O 59.896 3.09423 3.10144 0
M  V30 596 C 61.397 1.61227 4.12941 0
M  V30 597 H 58.617 0.380664 0.552572 0
M  V30 598 H 61.161 1.62853 1.23689 0
M  V30 599 H 59.316 1.20109 3.6831 0
M  V30 600 H 59.73 3.39188 4.00065 0
M  V30 601 H 61.204 2.08962 5.10919 0
M  V30 602 H 61.681 0.570375 4.35481 0
M  V30 603 H 62.287 2.10671 3.69456 0
M  V30 604 N 60.6021 -1.18246 1.0419 0
M  V30 605 C 62.0131 -1.69914 0.773698 0
M  V30 606 C 62.3641 -1.83085 -0.705297 0
M  V30 607 O 61.4891 -1.51123 -1.5489 0
M  V30 608 C 62.0841 -3.08619 1.39784 0
M  V30 609 C 60.6431 -3.57494 1.17792 0
M  V30 610 C 59.7901 -2.34013 1.48773 0
M  V30 611 H 62.7411 -1.02904 1.20816 0
M  V30 612 H 62.7621 -3.71958 0.801714 0
M  V30 613 H 62.2741 -2.99001 2.47426 0
M  V30 614 H 60.3751 -3.72406 0.120295 0
M  V30 615 H 60.4881 -4.40852 1.87581 0
M  V30 616 H 58.8521 -2.37986 0.907463 0
M  V30 617 H 59.6351 -2.27013 2.57527 0
M  V30 618 N 62.0802 -0.821533 -1.34494 0
M  V30 619 C 63.4912 -0.467956 -1.8074 0
M  V30 620 C 63.8422 1.01151 -1.68116 0
M  V30 621 O 62.9672 1.78707 -1.22036 0
M  V30 622 C 63.5622 -0.842627 -3.28154 0
M  V30 623 C 62.1212 -0.541439 -3.72485 0
M  V30 624 C 61.2682 -1.06028 -2.56229 0
M  V30 625 H 64.2192 -1.01183 -1.22261 0
M  V30 626 H 64.2402 -0.145876 -3.8022 0
M  V30 627 H 63.7522 -1.91945 -3.37311 0
M  V30 628 H 61.8532 0.526034 -3.68868 0
M  V30 629 H 61.9662 -1.08453 -4.66663 0
M  V30 630 H 60.3302 -0.481892 -2.501 0
M  V30 631 H 61.1132 -2.14352 -2.68157 0
M  V30 632 N 63.5583 1.46682 -0.576371 0
M  V30 633 C 64.4683 2.34032 0.163141 0
M  V30 634 C 65.4843 1.49367 0.892501 0
M  V30 635 O 66.6603 1.82252 0.857106 0
M  V30 636 C 63.7253 3.26435 1.16795 0
M  V30 637 C 62.7863 4.26998 0.443944 0
M  V30 638 C 62.0193 5.14986 1.40088 0
M  V30 639 O 62.2423 5.05785 2.637 0
M  V30 640 O 61.1763 5.94906 0.914917 0
M  V30 641 H 65.0023 2.98607 -0.55388 0
M  V30 642 H 62.5873 1.45554 -0.336821 0
M  V30 643 H 64.4693 3.83459 1.74748 0
M  V30 644 H 63.1443 2.64465 1.86655 0
M  V30 645 H 62.0513 3.7368 -0.177271 0
M  V30 646 H 63.3843 4.91736 -0.213566 0
M  V30 647 N 65.0364 0.313813 1.54444 0
M  V30 648 C 66.4474 -0.176243 1.85866 0
M  V30 649 C 66.7984 -1.52405 1.23561 0
M  V30 650 O 65.9234 -2.09605 0.538016 0
M  V30 651 C 66.5184 -0.32657 3.37222 0
M  V30 652 C 65.0774 -0.760846 3.6863 0
M  V30 653 C 64.2244 0.123247 2.77026 0
M  V30 654 H 67.1754 0.534418 1.49431 0
M  V30 655 H 67.1964 -1.15908 3.62416 0
M  V30 656 H 66.7084 0.654531 3.82541 0
M  V30 657 H 64.8094 -1.75204 3.28838 0
M  V30 658 H 64.9224 -0.571353 4.75681 0
M  V30 659 H 63.2864 -0.399597 2.51546 0
M  V30 660 H 64.0694 1.10094 3.25168 0
M  V30 661 N 66.5145 -1.57545 0.0417849 0
M  V30 662 C 67.4245 -2.14451 -0.951213 0
M  V30 663 C 68.4405 -1.09992 -1.34825 0
M  V30 664 O 69.6165 -1.42114 -1.42708 0
M  V30 665 C 66.6815 -2.67063 -2.21084 0
M  V30 666 C 65.7425 -3.86284 -1.87304 0
M  V30 667 C 64.9755 -4.36378 -3.07261 0
M  V30 668 O 65.1985 -3.85587 -4.20332 0
M  V30 669 O 64.1325 -5.28077 -2.88822 0
M  V30 670 H 67.9585 -2.99601 -0.497287 0
M  V30 671 H 65.5435 -1.48317 -0.179567 0
M  V30 672 H 67.4255 -3.00914 -2.95006 0
M  V30 673 H 66.1005 -1.84989 -2.65633 0
M  V30 674 H 65.0075 -3.57338 -1.10727 0
M  V30 675 H 66.3405 -4.6956 -1.47562 0
M  V30 676 N 67.9926 0.231505 -1.5589 0
M  V30 677 C 68.9026 1.308 -1.94752 0
M  V30 678 C 69.9186 1.51826 -0.849989 0
M  V30 679 O 71.0946 1.6515 -1.15271 0
M  V30 680 C 68.1596 2.63968 -2.24771 0
M  V30 681 C 67.2206 2.51331 -3.48039 0
M  V30 682 C 66.4536 3.78148 -3.76616 0
M  V30 683 O 66.6766 4.80722 -3.07022 0
M  V30 684 O 65.6106 3.75857 -4.70123 0
M  V30 685 H 69.4366 1.0083 -2.86474 0
M  V30 686 H 67.0216 0.433547 -1.42971 0
M  V30 687 H 68.9036 3.42633 -2.45318 0
M  V30 688 H 67.5786 2.9364 -1.36225 0
M  V30 689 H 66.4856 1.709 -3.32782 0
M  V30 690 H 67.8186 2.26601 -4.36936 0
M  V30 691 N 69.4707 1.49531 0.497807 0
M  V30 692 C 70.3807 1.69176 1.62532 0
M  V30 693 C 71.3967 0.5744 1.64246 0
M  V30 694 O 72.5727 0.849497 1.82608 0
M  V30 695 C 69.6377 1.75695 2.98885 0
M  V30 696 C 68.6987 2.9929 3.07773 0
M  V30 697 C 67.9317 3.05488 4.37622 0
M  V30 698 O 68.1547 2.19192 5.26603 0
M  V30 699 O 67.0887 3.9798 4.51548 0
M  V30 700 H 70.9147 2.647 1.48887 0
M  V30 701 H 68.4997 1.3331 0.674441 0
M  V30 702 H 70.3817 1.82317 3.79919 0
M  V30 703 H 69.0567 0.8335 3.12785 0
M  V30 704 H 67.9637 2.98183 2.25915 0
M  V30 705 H 69.2967 3.91125 2.98801 0
M  V30 706 N 70.9488 -0.749086 1.3866 0
M  V30 707 C 72.1978 -1.50371 1.3443 0
M  V30 708 C 72.5108 -1.95503 -0.0616397 0
M  V30 709 O 73.7168 -2.70554 -0.226489 0
M  V30 710 C 72.1728 -2.71644 2.36088 0
M  V30 711 C 71.7808 -2.3352 3.82325 0
M  V30 712 C 73.5248 -3.49518 2.40909 0
M  V30 713 C 71.4318 -3.51431 4.75658 0
M  V30 714 H 70.3618 -0.564628 0.499712 0
M  V30 715 H 73.0128 -0.818449 1.64237 0
M  V30 716 H 71.3948 -3.42175 1.9933 0
M  V30 717 H 72.5688 -1.70627 4.28046 0
M  V30 718 H 70.8838 -1.6877 3.80665 0
M  V30 719 H 73.4808 -4.37197 3.07836 0
M  V30 720 H 73.8238 -3.90992 1.42937 0
M  V30 721 H 74.3568 -2.86005 2.76489 0
M  V30 722 H 71.0958 -3.15019 5.74842 0
M  V30 723 H 70.6158 -4.13352 4.34627 0
M  V30 724 H 72.2948 -4.17953 4.93887 0
M  V30 725 N 72.4269 -1.23603 -0.977757 0
M  V30 726 C 73.3569 -1.04401 -2.0886 0
M  V30 727 C 74.3379 0.0399052 -1.70053 0
M  V30 728 O 75.5229 -0.125246 -1.93796 0
M  V30 729 C 72.6529 -0.637269 -3.41403 0
M  V30 730 C 71.6069 -1.66883 -3.94124 0
M  V30 731 C 70.9329 -1.11745 -5.22893 0
M  V30 732 C 72.2329 -3.06247 -4.23096 0
M  V30 733 H 73.9269 -1.97316 -2.25182 0
M  V30 734 H 71.4729 -0.950096 -1.08209 0
M  V30 735 H 73.4259 -0.48998 -4.18542 0
M  V30 736 H 72.1499 0.327557 -3.24953 0
M  V30 737 H 70.8089 -1.80416 -3.19133 0
M  V30 738 H 70.4569 -0.143527 -5.02795 0
M  V30 739 H 70.1569 -1.80672 -5.59134 0
M  V30 740 H 71.6809 -0.982067 -6.02651 0
M  V30 741 H 73.0949 -2.96001 -4.90975 0
M  V30 742 H 71.4919 -3.72436 -4.70544 0
M  V30 743 H 72.5619 -3.55041 -3.30263 0
M  V30 744 N 73.905 1.17692 -1.04816 0
M  V30 745 C 75.153 1.87488 -0.754497 0
M  V30 746 C 75.474 1.81205 0.720407 0
M  V30 747 O 74.744 1.23544 1.52032 0
M  V30 748 H 73.324 0.694101 -0.276102 0
M  V30 749 H 75.986 1.42793 -1.32651 0
M  V30 750 H 75.082 2.93328 -1.06606 0
M  V30 751 N 75.3831 0.828654 1.34056 0
M  V30 752 C 76.6081 0.431637 2.02859 0
M  V30 753 C 77.0331 -0.956339 1.61975 0
M  V30 754 O 76.3911 -1.62338 0.807228 0
M  V30 755 C 76.4391 0.548323 3.56407 0
M  V30 756 O 75.5431 -0.429556 4.10157 0
M  V30 757 H 74.8841 0.176886 0.640006 0
M  V30 758 H 77.4141 1.12066 1.71179 0
M  V30 759 H 77.4241 0.426196 4.05768 0
M  V30 760 H 76.0991 1.5606 3.8551 0
M  V30 761 H 74.6761 -0.265836 3.71951 0
M  V30 762 N 76.8612 -1.46375 0.584142 0
M  V30 763 C 78.1382 -1.956 0.0033388 0
M  V30 764 C 78.5182 -1.52679 -1.45782 0
M  V30 765 O 77.8662 -0.77816 -2.14842 0
M  V30 766 C 78.0762 -3.48551 0.176891 0
M  V30 767 C 79.4242 -4.24576 0.0454609 0
M  V30 768 O 80.4482 -3.56043 0.105801 0
M  V30 769 O 79.3072 -5.46427 -0.0890376 0
M  V30 770 H 76.4012 -0.825547 -0.0490066 0
M  V30 771 H 78.9472 -1.56652 0.65256 0
M  V30 772 H 77.7192 -3.72683 1.1926 0
M  V30 773 H 77.3422 -3.94332 -0.508695 0
M  V30 774 N 78.3393 -0.321999 -1.54275 0
M  V30 775 C 79.6163 0.335232 -1.92706 0
M  V30 776 C 79.9963 1.70006 -1.25145 0
M  V30 777 O 79.3443 2.25067 -0.394596 0
M  V30 778 C 79.5543 0.429008 -3.46353 0
M  V30 779 C 80.9023 0.690029 -4.18956 0
M  V30 780 O 81.9263 0.511992 -3.52501 0
M  V30 781 O 80.7853 1.03338 -5.36641 0
M  V30 782 H 77.8793 0.191143 -0.804608 0
M  V30 783 H 80.4253 -0.3716 -1.65581 0
M  V30 784 H 79.1973 -0.529611 -3.87699 0
M  V30 785 H 78.8203 1.18348 -3.79578 0
M  V30 786 N 79.8174 1.5752 -0.0501392 0
M  V30 787 C 80.7274 2.14952 0.939827 0
M  V30 788 C 81.7434 1.10706 1.34239 0
M  V30 789 O 82.9194 1.42869 1.41952 0
M  V30 790 C 79.9844 2.68232 2.19665 0
M  V30 791 C 79.0454 3.87272 1.85253 0
M  V30 792 C 78.2784 4.38002 3.04943 0
M  V30 793 O 78.5014 3.87811 4.18281 0
M  V30 794 O 77.4354 5.29602 2.86017 0
M  V30 795 H 81.2614 2.9986 0.481392 0
M  V30 796 H 78.8464 1.4841 0.171699 0
M  V30 797 H 80.7284 3.02475 2.93406 0
M  V30 798 H 79.4034 1.86395 2.64648 0
M  V30 799 H 78.3104 3.5792 1.0883 0
M  V30 800 H 79.6434 4.70336 1.4507 0
M  V30 801 N 81.2955 -0.223234 1.56011 0
M  V30 802 C 82.2055 -1.29766 1.95443 0
M  V30 803 C 83.2215 -1.51373 0.858028 0
M  V30 804 O 84.3975 -1.64536 1.16146 0
M  V30 805 C 81.4625 -2.62772 2.26167 0
M  V30 806 C 80.5235 -2.49482 3.49367 0
M  V30 807 C 79.7565 -3.76145 3.78616 0
M  V30 808 O 79.9795 -4.79087 3.09568 0
M  V30 809 O 78.9135 -3.73358 4.72109 0
M  V30 810 H 82.7395 -0.99309 2.87004 0
M  V30 811 H 80.3245 -0.425958 1.43199 0
M  V30 812 H 82.2065 -3.41327 2.47131 0
M  V30 813 H 80.8815 -2.92913 1.37781 0
M  V30 814 H 79.7885 -1.69133 3.33684 0
M  V30 815 H 81.1215 -2.2428 4.38131 0
M  V30 816 N 82.7736 -1.49793 -0.48987 0
M  V30 817 C 83.7056 -1.63413 -1.60713 0
M  V30 818 C 84.7186 -0.516329 -1.54395 0
M  V30 819 O 85.9076 -0.788812 -1.60125 0
M  V30 820 C 83.0076 -1.58516 -2.99543 0
M  V30 821 C 82.1806 -2.86016 -3.30928 0
M  V30 822 C 81.2396 -2.74018 -4.49222 0
M  V30 823 O 80.2656 -3.47964 -4.50455 0
M  V30 824 N 81.4676 -1.86309 -5.4979 0
M  V30 825 H 84.2326 -2.59777 -1.49452 0
M  V30 826 H 81.7936 -1.47022 -0.677955 0
M  V30 827 H 83.7856 -1.48128 -3.76617 0
M  V30 828 H 82.3556 -0.69965 -3.0467 0
M  V30 829 H 81.5756 -3.10672 -2.42645 0
M  V30 830 H 82.8636 -3.70521 -3.487 0
M  V30 831 H 82.2616 -1.2551 -5.51601 0
M  V30 832 H 80.8186 -1.81837 -6.25922 0
M  V30 833 N 84.2517 0.741722 -1.39055 0
M  V30 834 C 85.1617 1.88621 -1.39496 0
M  V30 835 C 86.1777 1.71557 -0.290578 0
M  V30 836 O 87.3537 1.94275 -0.530954 0
M  V30 837 C 84.4187 3.24134 -1.23037 0
M  V30 838 C 83.4797 3.5364 -2.43387 0
M  V30 839 C 82.7127 4.82687 -2.27703 0
M  V30 840 O 82.9357 5.55922 -1.27696 0
M  V30 841 O 81.8697 5.1194 -3.16545 0
M  V30 842 H 85.6957 1.91203 -2.35956 0
M  V30 843 H 83.2807 0.888625 -1.20099 0
M  V30 844 H 85.1627 4.0513 -1.15964 0
M  V30 845 H 83.8377 3.22337 -0.296691 0
M  V30 846 H 82.7447 2.72758 -2.56035 0
M  V30 847 H 84.0777 3.60209 -3.35425 0
M  V30 848 N 85.7298 1.2412 0.971189 0
M  V30 849 C 87.0068 0.986867 1.6888 0
M  V30 850 C 87.3868 -0.491857 2.0529 0
M  V30 851 O 86.7348 -1.46531 1.75331 0
M  V30 852 C 86.9448 1.9063 2.92338 0
M  V30 853 C 88.2928 2.17515 3.64654 0
M  V30 854 O 89.3168 1.88254 3.02388 0
M  V30 855 O 88.1758 2.6719 4.7673 0
M  V30 856 H 85.2698 0.372944 0.738134 0
M  V30 857 H 87.8158 1.35203 1.02559 0
M  V30 858 H 86.5878 2.90552 2.62097 0
M  V30 859 H 86.2108 1.54408 3.66393 0
M  V30 860 N 87.2079 -1.17134 1.05439 0
M  V30 861 C 88.6189 -1.69084 0.791676 0
M  V30 862 C 88.9699 -1.83822 -0.685839 0
M  V30 863 O 88.0949 -1.52757 -1.53278 0
M  V30 864 C 88.6899 -3.07119 1.4305 0
M  V30 865 C 87.2489 -3.56225 1.21577 0
M  V30 866 C 86.3959 -2.32421 1.51247 0
M  V30 867 H 89.3469 -1.01617 1.219 0
M  V30 868 H 89.3679 -3.71087 0.84112 0
M  V30 869 H 88.8799 -2.9636 2.50584 0
M  V30 870 H 86.9809 -3.72257 0.159787 0
M  V30 871 H 87.0939 -4.38837 1.92246 0
M  V30 872 H 85.4579 -2.3701 0.932653 0
M  V30 873 H 86.2409 -2.24268 2.5992 0
M  V30 874 N 88.686 -0.835752 -1.33615 0
M  V30 875 C 89.649 -0.272 -2.2758 0
M  V30 876 C 90.649 0.557487 -1.50827 0
M  V30 877 O 91.839 0.37173 -1.70188 0
M  V30 878 C 88.971 0.617173 -3.35267 0
M  V30 879 H 90.164 -1.10111 -2.78954 0
M  V30 880 H 87.717 -0.608594 -1.43965 0
M  V30 881 H 88.452 1.46884 -2.89129 0
M  V30 882 H 88.237 0.0237066 -3.92093 0
M  V30 883 H 89.727 1.005 -4.05326 0
M  V30 884 N 90.1641 1.46063 -0.591896 0
M  V30 885 C 91.4411 1.95595 -0.0137119 0
M  V30 886 C 91.8211 1.5345 1.4497 0
M  V30 887 O 91.1691 0.789543 2.14426 0
M  V30 888 C 91.3791 3.48453 -0.195373 0
M  V30 889 C 92.7271 4.24546 -0.0679765 0
M  V30 890 O 93.7511 3.55982 -0.124681 0
M  V30 891 O 92.6101 5.46467 0.0600579 0
M  V30 892 H 89.7041 0.825795 0.0446279 0
M  V30 893 H 92.2501 1.56303 -0.660859 0
M  V30 894 H 91.0221 3.72045 -1.21235 0
M  V30 895 H 90.6451 3.94597 0.487775 0
M  V30 896 N 91.6422 0.330177 1.54103 0
M  V30 897 C 92.8722 -0.271784 2.04805 0
M  V30 898 C 93.2802 -1.45816 1.20559 0
M  V30 899 O 92.6232 -1.82247 0.2306 0
M  V30 900 C 92.6852 -0.763238 3.51305 0
M  V30 901 C 92.3492 0.301705 4.56003 0
M  V30 902 C 93.3462 1.13999 5.07248 0
M  V30 903 C 91.0312 0.451793 5.00264 0
M  V30 904 C 93.0252 2.11402 6.01322 0
M  V30 905 C 90.7122 1.42924 5.94151 0
M  V30 906 C 91.7102 2.25882 6.44567 0
M  V30 907 O 91.3982 3.21965 7.3661 0
M  V30 908 H 91.1302 -0.058693 0.673447 0
M  V30 909 H 93.6842 0.476395 1.99799 0
M  V30 910 H 91.9142 -1.56244 3.5373 0
M  V30 911 H 93.6032 -1.28427 3.85047 0
M  V30 912 H 94.3692 1.03505 4.73827 0
M  V30 913 H 90.2482 -0.184044 4.60632 0
M  V30 914 H 93.7922 2.76192 6.40596 0
M  V30 915 H 89.6892 1.53479 6.26988 0
M  V30 916 H 90.4572 3.17281 7.54503 0
M  V30 917 N 93.1203 -1.57491 0.0584922 0
M  V30 918 C 94.3603 -1.94851 -0.617458 0
M  V30 919 C 94.7243 -0.937165 -1.67575 0
M  V30 920 O 95.9253 -1.19795 -2.40629 0
M  V30 921 C 94.1963 -3.36955 -1.19147 0
M  V30 922 S 95.7553 -3.96277 -1.8844 0
M  V30 923 H 92.5733 -0.681539 -0.202547 0
M  V30 924 H 95.1753 -1.95073 0.129176 0
M  V30 925 H 93.8793 -4.08355 -0.409215 0
M  V30 926 H 93.4103 -3.40245 -1.97476 0
M  V30 927 H 95.4253 -3.82099 -3.16568 0
M  V30 928 N 94.5984 0.214957 -1.56127 0
M  V30 929 C 95.5454 1.26642 -1.92952 0
M  V30 930 C 96.5154 1.46244 -0.78753 0
M  V30 931 O 97.7004 1.59704 -1.04399 0
M  V30 932 C 94.8404 2.6104 -2.25726 0
M  V30 933 C 93.9534 2.49183 -3.52891 0
M  V30 934 C 93.0884 3.76149 -3.7508 0
M  V30 935 C 92.1274 3.59041 -4.95738 0
M  V30 936 N 91.2644 4.77972 -5.14283 0
M  V30 937 H 96.1044 0.945384 -2.82607 0
M  V30 938 H 93.6414 0.455489 -1.3987 0
M  V30 939 H 95.5994 3.39313 -2.42739 0
M  V30 940 H 94.2294 2.91227 -1.39236 0
M  V30 941 H 93.2814 1.6231 -3.44034 0
M  V30 942 H 94.5934 2.32466 -4.41318 0
M  V30 943 H 93.7474 4.62865 -3.92226 0
M  V30 944 H 92.4864 3.95799 -2.84947 0
M  V30 945 H 91.4914 2.7071 -4.78535 0
M  V30 946 H 92.7164 3.40856 -5.87362 0
M  V30 947 H 90.6624 4.97923 -4.27093 0
M  V30 948 H 90.5794 4.64006 -5.96853 0
M  V30 949 H 91.8474 5.66096 -5.35869 0
M  V30 950 N 96.0765 1.50051 0.48192 0
M  V30 951 C 97.3245 1.60181 1.23234 0
M  V30 952 C 97.6455 0.299176 1.92691 0
M  V30 953 O 96.9155 -0.682708 1.83619 0
M  V30 954 H 95.4955 0.590232 0.457859 0
M  V30 955 H 98.1575 1.86775 0.556881 0
M  V30 956 H 97.2535 2.40753 1.98607 0
M  V30 957 N 97.5546 -0.734337 1.39446 0
M  V30 958 C 98.8026 -1.49096 1.36436 0
M  V30 959 C 99.1236 -1.94961 -0.0388255 0
M  V30 960 O 98.3936 -1.69033 -0.990191 0
M  V30 961 H 96.9736 -0.5531 0.502085 0
M  V30 962 H 99.6356 -0.871725 1.74319 0
M  V30 963 H 98.7316 -2.37276 2.02747 0
M  V30 964 N 99.0327 -1.24633 -0.964593 0
M  V30 965 C 100.263 -1.11339 -1.74032 0
M  V30 966 C 100.671 0.336593 -1.86182 0
M  V30 967 O 100.014 1.24389 -1.35178 0
M  V30 968 C 100.076 -1.68284 -3.1768 0
M  V30 969 C 99.7397 -3.17196 -3.28992 0
M  V30 970 C 100.737 -4.14308 -3.14078 0
M  V30 971 C 98.4217 -3.57215 -3.53133 0
M  V30 972 C 100.416 -5.4942 -3.23135 0
M  V30 973 C 98.1027 -4.92468 -3.61827 0
M  V30 974 C 99.1007 -5.8838 -3.46841 0
M  V30 975 O 98.7887 -7.21173 -3.55197 0
M  V30 976 H 98.5207 -0.389551 -0.552472 0
M  V30 977 H 101.075 -1.65282 -1.21946 0
M  V30 978 H 99.3047 -1.08777 -3.71085 0
M  V30 979 H 100.994 -1.50234 -3.77074 0
M  V30 980 H 101.76 -3.84731 -2.95308 0
M  V30 981 H 97.6387 -2.83063 -3.63863 0
M  V30 982 H 101.183 -6.24263 -3.11355 0
M  V30 983 H 97.0797 -5.21714 -3.80111 0
M  V30 984 H 97.8477 -7.29135 -3.71892 0
M  V30 985 N 100.511 1.16574 -1.06058 0
M  V30 986 C 101.461 2.18854 -0.63929 0
M  V30 987 C 102.445 1.57505 0.328798 0
M  V30 988 O 103.637 1.76408 0.144623 0
M  V30 989 C 100.766 3.43291 -0.0247203 0
M  V30 990 C 99.8518 4.11722 -1.01716 0
M  V30 991 N 100.243 4.55841 -2.19186 0
M  V30 992 C 98.5408 4.37872 -0.847569 0
M  V30 993 C 99.2418 5.08751 -2.82042 0
M  V30 994 N 98.2178 5.01489 -2.09784 0
M  V30 995 H 102.02 2.5068 -1.53417 0
M  V30 996 H 99.5338 1.32999 -0.931935 0
M  V30 997 H 101.531 4.15856 0.294915 0
M  V30 998 H 100.191 3.12954 0.865448 0
M  V30 999 H 101.202 4.49649 -2.56975 0
M  V30 1000 H 97.8788 4.17499 -0.00918848 0
M  V30 1001 H 99.2688 5.52944 -3.81709 0
M  V30 1002 N 101.989 0.842826 1.3317 0
M  V30 1003 C 103.4 0.496651 1.79973 0
M  V30 1004 C 103.751 -0.984641 1.69703 0
M  V30 1005 O 102.876 -1.76743 1.24863 0
M  V30 1006 C 103.471 0.894727 3.26772 0
M  V30 1007 C 102.03 0.600629 3.71577 0
M  V30 1008 C 101.177 1.10091 2.5451 0
M  V30 1009 H 104.128 1.03116 1.20635 0
M  V30 1010 H 104.149 0.206347 3.7994 0
M  V30 1011 H 103.661 1.97287 3.34215 0
M  V30 1012 H 101.762 -0.467284 3.69658 0
M  V30 1013 H 101.875 1.15863 4.64879 0
M  V30 1014 H 100.239 0.52162 2.49301 0
M  V30 1015 H 101.022 2.18591 2.64713 0
M  V30 1016 N 103.467 -1.45747 0.599634 0
M  V30 1017 C 104.713 -2.02592 0.0918643 0
M  V30 1018 C 105.046 -1.46806 -1.27128 0
M  V30 1019 O 104.321 -0.639658 -1.83681 0
M  V30 1020 C 104.604 -3.60073 0.0443398 0
M  V30 1021 C 104.457 -4.26208 1.43759 0
M  V30 1022 C 105.776 -4.35309 -0.647608 0
M  V30 1023 H 102.895 -0.736175 0.034857 0
M  V30 1024 H 105.537 -1.73694 0.770081 0
M  V30 1025 H 103.687 -3.84823 -0.533224 0
M  V30 1026 H 105.359 -4.12668 2.06162 0
M  V30 1027 H 103.602 -3.84916 2.00056 0
M  V30 1028 H 104.273 -5.35069 1.35665 0
M  V30 1029 H 106.749 -4.15805 -0.156776 0
M  V30 1030 H 105.625 -5.45038 -0.649942 0
M  V30 1031 H 105.886 -4.07598 -1.71219 0
M  V30 1032 N 104.945 -0.338344 -1.53925 0
M  V30 1033 C 105.892 0.520845 -2.24846 0
M  V30 1034 C 106.862 1.09976 -1.24477 0
M  V30 1035 O 108.047 1.13735 -1.53196 0
M  V30 1036 C 105.187 1.6685 -3.02084 0
M  V30 1037 C 104.3 1.11739 -4.17299 0
M  V30 1038 C 103.435 2.23193 -4.82036 0
M  V30 1039 C 102.474 1.65407 -5.89328 0
M  V30 1040 N 101.611 2.70582 -6.47866 0
M  V30 1041 H 106.451 -0.0904881 -2.97863 0
M  V30 1042 H 103.988 -0.0564282 -1.46992 0
M  V30 1043 H 105.946 2.34407 -3.45122 0
M  V30 1044 H 104.576 2.2509 -2.31375 0
M  V30 1045 H 103.628 0.332919 -3.7894 0
M  V30 1046 H 104.94 0.654677 -4.94485 0
M  V30 1047 H 104.094 2.98626 -5.28117 0
M  V30 1048 H 102.833 2.72807 -4.04262 0
M  V30 1049 H 101.838 0.884779 -5.42634 0
M  V30 1050 H 103.063 1.16652 -6.69006 0
M  V30 1051 H 101.009 3.1946 -5.72959 0
M  V30 1052 H 100.926 2.28917 -7.20509 0
M  V30 1053 H 102.194 3.45799 -6.98601 0
M  V30 1054 N 106.423 1.57458 -0.0668435 0
M  V30 1055 C 107.672 1.92477 0.602947 0
M  V30 1056 C 107.985 0.948419 1.71068 0
M  V30 1057 O 109.191 1.19124 2.43971 0
M  V30 1058 C 107.647 3.41903 1.12383 0
M  V30 1059 C 107.255 4.47975 0.04737 0
M  V30 1060 C 108.999 3.85931 1.76797 0
M  V30 1061 C 106.906 5.88529 0.582022 0
M  V30 1062 H 105.836 0.718387 0.22899 0
M  V30 1063 H 108.487 1.82978 -0.138276 0
M  V30 1064 H 106.869 3.46459 1.91787 0
M  V30 1065 H 108.043 4.55029 -0.726978 0
M  V30 1066 H 106.358 4.13384 -0.500243 0
M  V30 1067 H 108.955 4.88322 2.17821 0
M  V30 1068 H 109.298 3.23029 2.62599 0
M  V30 1069 H 109.831 3.83958 1.04024 0
M  V30 1070 H 106.57 6.55065 -0.238721 0
M  V30 1071 H 106.09 5.85004 1.324 0
M  V30 1072 H 107.769 6.38258 1.05999 0
M  V30 1073 N 107.901 -0.206675 1.56239 0
M  V30 1074 C 109.149 -0.927007 1.79586 0
M  V30 1075 C 109.47 -1.8427 0.637929 0
M  V30 1076 O 108.74 -1.92849 -0.344398 0
M  V30 1077 H 107.32 -0.345292 0.662407 0
M  V30 1078 H 109.982 -0.21496 1.93711 0
M  V30 1079 H 109.078 -1.52501 2.72305 0
M  V30 1080 N 109.379 -1.50304 -0.473955 0
M  V30 1081 C 110.656 -1.51667 -1.23518 0
M  V30 1082 C 111.036 -0.259701 -2.09496 0
M  V30 1083 O 110.384 0.756986 -2.15597 0
M  V30 1084 C 110.594 -2.81082 -2.06868 0
M  V30 1085 C 111.942 -3.31631 -2.65153 0
M  V30 1086 O 112.966 -2.82384 -2.17113 0
M  V30 1087 O 111.825 -4.17471 -3.52675 0
M  V30 1088 H 108.919 -0.60822 -0.560355 0
M  V30 1089 H 111.465 -1.62592 -0.486011 0
M  V30 1090 H 110.237 -3.64041 -1.4349 0
M  V30 1091 H 109.86 -2.73146 -2.88924 0
M  V30 1092 N 110.857 0.726932 -1.39834 0
M  V30 1093 C 111.787 1.85405 -1.41941 0
M  V30 1094 C 112.768 1.67751 -0.281728 0
M  V30 1095 O 113.953 1.8795 -0.488717 0
M  V30 1096 C 111.083 3.23243 -1.2701 0
M  V30 1097 C 110.037 3.55549 -2.38262 0
M  V30 1098 C 109.363 4.9241 -2.08415 0
M  V30 1099 C 110.663 3.577 -3.80589 0
M  V30 1100 H 112.357 1.83899 -2.36266 0
M  V30 1101 H 109.903 0.883349 -1.13723 0
M  V30 1102 H 111.856 4.01775 -1.27103 0
M  V30 1103 H 110.58 3.25296 -0.291564 0
M  V30 1104 H 109.239 2.79351 -2.37399 0
M  V30 1105 H 108.887 4.91052 -1.0898 0
M  V30 1106 H 108.587 5.14992 -2.82943 0
M  V30 1107 H 110.111 5.73289 -2.10171 0
M  V30 1108 H 111.525 4.26293 -3.83337 0
M  V30 1109 H 109.922 3.91804 -4.54543 0
M  V30 1110 H 110.992 2.57328 -4.10987 0
M  V30 1111 N 112.336 1.25143 0.95797 0
M  V30 1112 C 113.583 1.09692 1.70217 0
M  V30 1113 C 113.911 -0.362654 1.91089 0
M  V30 1114 O 113.166 -1.28386 1.47701 0
M  V30 1115 C 113.465 1.79272 3.09187 0
M  V30 1116 C 113.131 3.29196 3.08125 0
M  V30 1117 C 111.793 3.70096 3.07543 0
M  V30 1118 C 114.145 4.24995 3.0171 0
M  V30 1119 C 111.473 5.05213 2.9829 0
M  V30 1120 C 113.825 5.60132 2.93999 0
M  V30 1121 C 112.489 6.00365 2.9175 0
M  V30 1122 H 111.759 0.401393 0.622868 0
M  V30 1123 H 114.406 1.55372 1.11945 0
M  V30 1124 H 112.711 1.26014 3.70982 0
M  V30 1125 H 114.408 1.64773 3.65583 0
M  V30 1126 H 110.998 2.96651 3.09348 0
M  V30 1127 H 115.182 3.9439 3.01281 0
M  V30 1128 H 110.438 5.35569 2.94916 0
M  V30 1129 H 114.612 6.3406 2.87996 0
M  V30 1130 H 112.239 7.05023 2.84336 0
M  V30 1131 N 113.814 -1.1601 1.06675 0
M  V30 1132 C 114.762 -2.22586 0.675157 0
M  V30 1133 C 115.756 -1.66525 -0.310766 0
M  V30 1134 O 116.962 -1.79145 -0.175215 0
M  V30 1135 H 113.337 -0.724855 0.200223 0
M  V30 1136 H 115.308 -2.52899 1.58381 0
M  V30 1137 C 114.057 -3.47604 0.0817162 0
M  V30 1138 H 113.38 -3.91058 0.831484 0
M  V30 1139 H 114.82 -4.23718 -0.154708 0
M  V30 1140 C 113.279 -3.15718 -1.17576 0
M  V30 1141 O 113.809 -3.31878 -2.26318 0
M  V30 1142 N 112.015 -2.69816 -1.07923 0
M  V30 1143 H 111.562 -2.56866 -0.194293 0
M  V30 1144 H 111.52 -2.48855 -1.92141 0
M  V30 1145 N 115.292 -0.849877 -1.32721 0
M  V30 1146 C 116.54 -0.450032 -1.97026 0
M  V30 1147 C 116.861 0.996604 -1.67609 0
M  V30 1148 O 116.131 1.6958 -0.980786 0
M  V30 1149 H 114.711 -0.163426 -0.728904 0
M  V30 1150 H 117.373 -1.08526 -1.6189 0
M  V30 1151 H 116.469 -0.591146 -3.0645 0
M  V30 1152 N 116.77 1.45427 -0.607355 0
M  V30 1153 C 118.186 1.57283 -0.270985 0
M  V30 1154 C 118.386 1.59875 1.22647 0
M  V30 1155 O 117.442 1.52893 2.00948 0
M  V30 1156 C 118.755 2.85566 -0.941952 0
M  V30 1157 C 120.303 2.9924 -0.917849 0
M  V30 1158 C 120.778 4.30293 -1.56882 0
M  V30 1159 N 122.269 4.37051 -1.5343 0
M  V30 1160 C 123.004 5.37123 -2.00715 0
M  V30 1161 N 122.5 6.43734 -2.56084 0
M  V30 1162 N 124.293 5.28479 -1.91484 0
M  V30 1163 H 116.444 1.41988 -1.57966 0
M  V30 1164 H 118.707 0.67885 -0.661715 0
M  V30 1165 H 118.413 2.8955 -1.99633 0
M  V30 1166 H 118.287 3.74322 -0.465096 0
M  V30 1167 H 120.674 2.94822 0.127984 0
M  V30 1168 H 120.755 2.11895 -1.43297 0
M  V30 1169 H 120.399 4.35469 -2.61398 0
M  V30 1170 H 120.329 5.16454 -1.02873 0
M  V30 1171 H 122.82 3.60615 -1.12982 0
M  V30 1172 H 123.133 7.16341 -2.89958 0
M  V30 1173 H 121.478 6.44485 -2.60122 0
M  V30 1174 H 124.669 4.44098 -1.47967 0
M  V30 1175 H 124.842 6.0632 -2.28648 0
M  V30 1176 N 118.248 0.346503 1.53744 0
M  V30 1177 C 119.478 -0.250047 2.05081 0
M  V30 1178 C 119.886 -1.44529 1.22098 0
M  V30 1179 O 119.229 -1.81992 0.249917 0
M  V30 1180 C 119.291 -0.725934 3.52094 0
M  V30 1181 C 118.955 0.350053 4.55657 0
M  V30 1182 C 119.952 1.19372 5.0601 0
M  V30 1183 C 117.637 0.504827 4.99757 0
M  V30 1184 C 119.631 2.17768 5.99046 0
M  V30 1185 C 117.318 1.49218 5.92602 0
M  V30 1186 C 118.316 2.32706 6.42135 0
M  V30 1187 O 118.004 3.2976 7.33153 0
M  V30 1188 H 117.736 -0.0515469 0.674032 0
M  V30 1189 H 120.29 0.497559 1.99282 0
M  V30 1190 H 118.52 -1.52483 3.55367 0
M  V30 1191 H 120.209 -1.24336 3.86388 0
M  V30 1192 H 120.975 1.08525 4.72702 0
M  V30 1193 H 116.854 -0.135178 4.60802 0
M  V30 1194 H 120.398 2.82971 6.37631 0
M  V30 1195 H 116.295 1.6012 6.25325 0
M  V30 1196 H 117.063 3.25265 7.51096 0
M  V30 1197 N 119.726 -1.57421 0.075193 0
M  V30 1198 C 120.676 -2.09441 -0.901025 0
M  V30 1199 C 121.66 -1.00486 -1.25663 0
M  V30 1200 O 122.852 -1.2679 -1.23504 0
M  V30 1201 C 119.981 -2.66233 -2.16737 0
M  V30 1202 C 119.067 -3.82198 -1.83808 0
M  V30 1203 N 119.458 -4.91028 -1.21345 0
M  V30 1204 C 117.756 -3.91558 -2.13538 0
M  V30 1205 C 118.457 -5.71852 -1.06585 0
M  V30 1206 N 117.433 -5.20233 -1.57667 0
M  V30 1207 H 121.235 -2.90972 -0.413815 0
M  V30 1208 H 118.749 -1.6189 -0.128601 0
M  V30 1209 H 120.746 -3.01819 -2.87595 0
M  V30 1210 H 119.406 -1.8615 -2.66042 0
M  V30 1211 H 120.417 -5.10323 -0.88268 0
M  V30 1212 H 117.094 -3.22454 -2.65197 0
M  V30 1213 H 118.484 -6.69401 -0.578933 0
M  V30 1214 N 121.204 0.198386 -1.56346 0
M  V30 1215 C 122.45 0.920648 -1.80698 0
M  V30 1216 C 122.783 1.83045 -0.648697 0
M  V30 1217 O 122.058 1.91308 0.350925 0
M  V30 1218 C 122.341 1.73971 -3.15287 0
M  V30 1219 C 122.194 0.85485 -4.41602 0
M  V30 1220 C 123.513 2.71296 -3.46535 0
M  V30 1221 H 120.632 0.333261 -0.657348 0
M  V30 1222 H 123.274 0.188198 -1.89066 0
M  V30 1223 H 121.424 2.36416 -3.08285 0
M  V30 1224 H 123.096 0.245362 -4.60647 0
M  V30 1225 H 121.339 0.161398 -4.335 0
M  V30 1226 H 122.01 1.46286 -5.32264 0
M  V30 1227 H 124.486 2.18983 -3.53816 0
M  V30 1228 H 123.362 3.2569 -4.41834 0
M  V30 1229 H 123.623 3.5018 -2.69864 0
M  V30 1230 N 122.682 1.50554 0.465978 0
M  V30 1231 C 123.931 1.61038 1.21448 0
M  V30 1232 C 124.244 0.31865 1.92987 0
M  V30 1233 O 125.45 0.302469 2.6981 0
M  V30 1234 C 123.906 2.84283 2.20706 0
M  V30 1235 C 123.514 4.20352 1.54946 0
M  V30 1236 C 125.258 3.04115 2.96166 0
M  V30 1237 C 123.165 5.34778 2.5252 0
M  V30 1238 H 122.095 0.599718 0.457005 0
M  V30 1239 H 124.746 1.7699 0.484424 0
M  V30 1240 H 123.128 2.61901 2.97025 0
M  V30 1241 H 124.302 4.53008 0.843811 0
M  V30 1242 H 122.617 4.06167 0.917475 0
M  V30 1243 H 125.214 3.86774 3.69202 0
M  V30 1244 H 125.557 2.16045 3.55852 0
M  V30 1245 H 126.09 3.26702 2.26959 0
M  V30 1246 H 122.829 6.25018 1.97566 0
M  V30 1247 H 122.349 5.06534 3.21222 0
M  V30 1248 H 124.028 5.65561 3.14245 0
M  V30 1249 N 124.16 -0.719506 1.40217 0
M  V30 1250 C 125.576 -1.02707 1.22161 0
M  V30 1251 C 125.776 -2.0128 0.0940557 0
M  V30 1252 O 124.832 -2.46452 -0.549318 0
M  V30 1253 C 126.145 -1.57454 2.56181 0
M  V30 1254 C 127.693 -1.69458 2.63159 0
M  V30 1255 C 128.168 -2.27611 3.97438 0
M  V30 1256 N 129.659 -2.35002 3.99159 0
M  V30 1257 C 130.394 -2.80972 4.99842 0
M  V30 1258 N 129.89 -3.26723 6.10921 0
M  V30 1259 N 131.683 -2.80321 4.87213 0
M  V30 1260 H 123.834 -0.0660492 2.12297 0
M  V30 1261 H 126.097 -0.0919077 0.943534 0
M  V30 1262 H 125.803 -0.924873 3.39321 0
M  V30 1263 H 125.677 -2.56036 2.76993 0
M  V30 1264 H 128.064 -2.33543 1.80393 0
M  V30 1265 H 128.145 -0.694867 2.46181 0
M  V30 1266 H 127.789 -1.6415 4.80643 0
M  V30 1267 H 127.719 -3.2829 4.11744 0
M  V30 1268 H 130.21 -2.02685 3.18947 0
M  V30 1269 H 130.523 -3.60355 6.8364 0
M  V30 1270 H 128.868 -3.24692 6.14492 0
M  V30 1271 H 132.059 -2.43912 3.9953 0
M  V30 1272 H 132.232 -3.15831 5.65822 0
M  V30 1273 N 125.638 -1.25649 -0.95132 0
M  V30 1274 C 126.585 -1.06323 -2.04851 0
M  V30 1275 C 127.555 0.0286491 -1.66075 0
M  V30 1276 O 128.74 -0.12917 -1.90362 0
M  V30 1277 C 125.88 -0.691529 -3.381 0
M  V30 1278 C 124.993 -1.85861 -3.89974 0
M  V30 1279 C 124.128 -1.43096 -5.11563 0
M  V30 1280 C 123.167 -2.56696 -5.55674 0
M  V30 1281 N 122.304 -2.14684 -6.68472 0
M  V30 1282 H 127.144 -2.00222 -2.20715 0
M  V30 1283 H 124.681 -0.997027 -1.08156 0
M  V30 1284 H 126.639 -0.456963 -4.1469 0
M  V30 1285 H 125.269 0.210474 -3.22113 0
M  V30 1286 H 124.321 -2.20639 -3.09875 0
M  V30 1287 H 125.633 -2.71161 -4.18657 0
M  V30 1288 H 124.787 -1.15624 -5.9558 0
M  V30 1289 H 123.526 -0.548722 -4.84603 0
M  V30 1290 H 122.531 -2.84909 -4.7022 0
M  V30 1291 H 123.756 -3.45503 -5.8464 0
M  V30 1292 H 121.702 -1.28881 -6.43215 0
M  V30 1293 H 121.619 -2.9353 -6.96689 0
M  V30 1294 H 122.887 -1.90397 -7.5589 0
M  V30 1295 N 127.117 1.15442 -1.07289 0
M  V30 1296 C 128.047 2.22312 -0.714107 0
M  V30 1297 C 129.028 1.67467 0.298155 0
M  V30 1298 O 130.213 1.93445 0.171048 0
M  V30 1299 C 127.343 3.47124 -0.110448 0
M  V30 1300 C 126.297 4.14926 -1.04979 0
M  V30 1301 C 125.623 5.33807 -0.308924 0
M  V30 1302 C 126.923 4.64762 -2.38314 0
M  V30 1303 H 128.617 2.5258 -1.6076 0
M  V30 1304 H 126.163 1.21404 -0.77441 0
M  V30 1305 H 128.116 4.21124 0.152482 0
M  V30 1306 H 126.84 3.16187 0.81812 0
M  V30 1307 H 125.499 3.42866 -1.29764 0
M  V30 1308 H 125.147 4.99126 0.623084 0
M  V30 1309 H 124.847 5.80113 -0.935036 0
M  V30 1310 H 126.371 6.10576 -0.0537771 0
M  V30 1311 H 127.785 5.30292 -2.1786 0
M  V30 1312 H 126.182 5.21728 -2.96514 0
M  V30 1313 H 127.252 3.80434 -3.00663 0
M  V30 1314 N 128.595 0.856903 1.32268 0
M  V30 1315 C 129.843 0.460474 1.96784 0
M  V30 1316 C 130.164 -0.987701 1.68135 0
M  V30 1317 O 129.434 -1.69058 0.989765 0
M  V30 1318 H 128.014 0.167289 0.728027 0
M  V30 1319 H 130.676 1.09383 1.61312 0
M  V30 1320 H 129.772 0.60739 3.06133 0
M  V30 1321 N 130.073 -1.45103 0.615059 0
M  V30 1322 C 131.319 -2.03035 0.121804 0
M  V30 1323 C 131.674 -1.47393 -1.23665 0
M  V30 1324 O 130.967 -0.642061 -1.80522 0
M  V30 1325 C 131.161 -3.57386 0.0318797 0
M  V30 1326 C 130.99 -4.28 1.38007 0
M  V30 1327 C 129.76 -4.65624 1.9627 0
M  V30 1328 C 131.958 -4.5948 2.31047 0
M  V30 1329 N 129.94 -5.21132 3.24492 0
M  V30 1330 C 131.311 -5.159 3.43872 0
M  V30 1331 C 133.366 -4.41423 2.30326 0
M  V30 1332 C 132.069 -5.56165 4.5615 0
M  V30 1333 C 134.095 -4.82726 3.41658 0
M  V30 1334 C 133.457 -5.39245 4.53205 0
M  V30 1335 H 129.556 -0.77702 0.0881159 0
M  V30 1336 H 132.14 -1.76819 0.815044 0
M  V30 1337 H 130.311 -3.83247 -0.630599 0
M  V30 1338 H 132.043 -4.01976 -0.468721 0
M  V30 1339 H 128.798 -4.49421 1.49392 0
M  V30 1340 H 129.222 -5.53377 3.90004 0
M  V30 1341 H 133.864 -3.97033 1.45343 0
M  V30 1342 H 131.582 -5.99517 5.41854 0
M  V30 1343 H 135.168 -4.7048 3.42257 0
M  V30 1344 H 134.048 -5.70616 5.37929 0
M  V30 1345 N 131.551 -0.354651 -1.53558 0
M  V30 1346 C 132.799 0.237972 -2.00694 0
M  V30 1347 C 133.12 1.50173 -1.24391 0
M  V30 1348 O 132.39 1.92673 -0.354135 0
M  V30 1349 H 130.97 0.0909256 -0.741446 0
M  V30 1350 H 133.632 -0.478368 -1.88938 0
M  V30 1351 H 132.728 0.47264 -3.085 0
M  V30 1352 N 133.029 1.57378 -0.0835403 0
M  V30 1353 C 133.979 2.09916 0.889905 0
M  V30 1354 C 134.963 1.01151 1.25129 0
M  V30 1355 O 136.155 1.27443 1.2283 0
M  V30 1356 C 133.284 2.67379 2.15322 0
M  V30 1357 C 132.37 3.83167 1.81779 0
M  V30 1358 N 132.761 4.91665 1.18739 0
M  V30 1359 C 131.059 3.92685 2.11459 0
M  V30 1360 C 131.76 5.72409 1.0355 0
M  V30 1361 N 130.736 5.21062 1.54906 0
M  V30 1362 H 134.538 2.91188 0.398378 0
M  V30 1363 H 132.052 1.61956 0.120013 0
M  V30 1364 H 134.049 3.0334 2.8599 0
M  V30 1365 H 132.709 1.87558 2.65051 0
M  V30 1366 H 133.72 5.10784 0.855604 0
M  V30 1367 H 130.397 3.23856 2.63483 0
M  V30 1368 H 131.787 6.69699 0.543425 0
M  V30 1369 N 134.507 -0.190092 1.56449 0
M  V30 1370 C 135.754 -0.909705 1.80916 0
M  V30 1371 C 136.082 -1.83047 0.657583 0
M  V30 1372 O 135.337 -1.92428 -0.356356 0
M  V30 1373 C 135.636 -1.75382 3.1141 0
M  V30 1374 C 135.302 -0.983606 4.40041 0
M  V30 1375 C 133.964 -0.770967 4.74984 0
M  V30 1376 C 136.316 -0.442024 5.19322 0
M  V30 1377 C 133.644 -0.0053448 5.867 0
M  V30 1378 C 135.996 0.310412 6.31838 0
M  V30 1379 C 134.66 0.534023 6.6536 0
M  V30 1380 H 133.93 -0.332885 0.662019 0
M  V30 1381 H 136.577 -0.175762 1.90692 0
M  V30 1382 H 134.882 -2.55659 2.96893 0
M  V30 1383 H 136.579 -2.31331 3.27547 0
M  V30 1384 H 133.169 -1.15936 4.12622 0
M  V30 1385 H 137.353 -0.593693 4.92736 0
M  V30 1386 H 132.609 0.177825 6.11141 0
M  V30 1387 H 136.783 0.737419 6.92485 0
M  V30 1388 H 134.41 1.12918 7.51767 0
M  V30 1389 N 135.985 -1.50799 -0.457987 0
M  V30 1390 C 137.21 -1.66496 -1.23668 0
M  V30 1391 C 137.635 -0.353288 -1.84752 0
M  V30 1392 O 136.993 0.684346 -1.67888 0
M  V30 1393 C 137.041 -2.76763 -2.3116 0
M  V30 1394 O 136.145 -2.38928 -3.36136 0
M  V30 1395 H 135.486 -0.555828 -0.363252 0
M  V30 1396 H 138.016 -1.9725 -0.543474 0
M  V30 1397 H 138.026 -3.00232 -2.76269 0
M  V30 1398 H 136.701 -3.71954 -1.86073 0
M  V30 1399 H 135.278 -2.25953 -2.96647 0
M  V30 1400 N 137.463 0.71206 -1.40597 0
M  V30 1401 C 138.691 1.50111 -1.42388 0
M  V30 1402 C 139.106 1.88784 -0.0245395 0
M  V30 1403 O 138.463 1.55681 0.952351 0
M  V30 1404 C 138.514 2.7742 -2.31776 0
M  V30 1405 O 138.235 2.40382 -3.66262 0
M  V30 1406 C 139.736 3.7129 -2.42196 0
M  V30 1407 H 136.956 0.46314 -0.485533 0
M  V30 1408 H 139.5 0.878068 -1.8469 0
M  V30 1409 H 137.655 3.36001 -1.92827 0
M  V30 1410 H 138.069 3.22324 -4.13772 0
M  V30 1411 H 139.543 4.57448 -3.08943 0
M  V30 1412 H 140.02 4.14641 -1.44809 0
M  V30 1413 H 140.626 3.18619 -2.81712 0
M  V30 1414 N 138.941 1.26152 0.944643 0
M  V30 1415 C 140.187 1.11657 1.69294 0
M  V30 1416 C 140.52 -0.339926 1.91202 0
M  V30 1417 O 139.795 -1.24994 1.49019 0
M  V30 1418 C 140.078 1.88236 3.06984 0
M  V30 1419 C 139.931 3.41772 2.92424 0
M  V30 1420 C 141.25 1.67343 4.07043 0
M  V30 1421 H 138.369 0.407004 0.614424 0
M  V30 1422 H 141.011 1.55106 1.09737 0
M  V30 1423 H 139.161 1.51308 3.57824 0
M  V30 1424 H 140.833 3.88433 2.48832 0
M  V30 1425 H 139.076 3.68974 2.28124 0
M  V30 1426 H 139.747 3.90579 3.90067 0
M  V30 1427 H 142.223 1.99509 3.65151 0
M  V30 1428 H 141.099 2.23346 5.01406 0
M  V30 1429 H 141.36 0.617158 4.37771 0
M  V30 1430 N 140.419 -1.14872 1.07899 0
M  V30 1431 C 141.665 -1.86289 0.81657 0
M  V30 1432 C 142.02 -1.8107 -0.65049 0
M  V30 1433 O 141.313 -1.22684 -1.47171 0
M  V30 1434 C 141.507 -3.34223 1.26609 0
M  V30 1435 C 141.336 -3.53846 2.77531 0
M  V30 1436 C 140.106 -3.68995 3.45212 0
M  V30 1437 C 142.304 -3.51201 3.75716 0
M  V30 1438 N 140.286 -3.76725 4.84718 0
M  V30 1439 C 141.657 -3.65112 5.01092 0
M  V30 1440 C 143.712 -3.34507 3.68794 0
M  V30 1441 C 142.415 -3.64056 6.20368 0
M  V30 1442 C 144.441 -3.34752 4.8754 0
M  V30 1443 C 143.803 -3.49199 6.11751 0
M  V30 1444 H 139.902 -0.698579 0.351443 0
M  V30 1445 H 142.486 -1.37713 1.37634 0
M  V30 1446 H 140.657 -3.81402 0.73395 0
M  V30 1447 H 142.389 -3.93377 0.95062 0
M  V30 1448 H 139.144 -3.70006 2.95622 0
M  V30 1449 H 139.568 -3.8432 5.5734 0
M  V30 1450 H 144.21 -3.22253 2.73702 0
M  V30 1451 H 141.928 -3.75087 7.15776 0
M  V30 1452 H 145.514 -3.23055 4.83866 0
M  V30 1453 H 144.394 -3.49328 7.02097 0
M  V30 1454 N 141.898 -0.863906 -1.31812 0
M  V30 1455 C 142.828 -0.330843 -2.31144 0
M  V30 1456 C 143.809 0.575005 -1.60087 0
M  V30 1457 O 144.994 0.493304 -1.8783 0
M  V30 1458 C 142.124 0.47374 -3.44054 0
M  V30 1459 C 141.078 -0.338481 -4.26659 0
M  V30 1460 C 140.404 0.591412 -5.31419 0
M  V30 1461 C 141.704 -1.56926 -4.98168 0
M  V30 1462 H 143.398 -1.16086 -2.75979 0
M  V30 1463 H 140.944 -0.559657 -1.32679 0
M  V30 1464 H 142.897 0.857143 -4.12591 0
M  V30 1465 H 141.621 1.33721 -2.9797 0
M  V30 1466 H 140.28 -0.703754 -3.59782 0
M  V30 1467 H 139.928 1.45199 -4.81587 0
M  V30 1468 H 139.628 0.0519022 -5.87577 0
M  V30 1469 H 141.152 0.97179 -6.02817 0
M  V30 1470 H 142.566 -1.25764 -5.59336 0
M  V30 1471 H 140.963 -2.04739 -5.64094 0
M  V30 1472 H 142.033 -2.32544 -4.25501 0
M  V30 1473 N 143.376 1.44774 -0.622745 0
M  V30 1474 C 144.616 2.04004 -0.127102 0
M  V30 1475 C 144.98 1.47862 1.22478 0
M  V30 1476 O 146.181 1.98541 1.81204 0
M  V30 1477 C 144.452 3.57247 -0.104429 0
M  V30 1478 S 146.011 4.37574 0.327814 0
M  V30 1479 H 142.829 0.708713 -0.0569776 0
M  V30 1480 H 145.431 1.77275 -0.824253 0
M  V30 1481 H 144.135 3.95616 -1.09159 0
M  V30 1482 H 143.666 3.88575 0.614236 0
M  V30 1483 H 145.681 4.70575 1.57395 0
M  V30 1484 N 144.854 0.36279 1.53368 0
M  V30 1485 C 146.1 -0.220702 2.02199 0
M  V30 1486 C 146.455 -1.46649 1.24546 0
M  V30 1487 O 145.748 -1.88737 0.32996 0
M  V30 1488 C 145.942 -0.568417 3.52851 0
M  V30 1489 C 145.771 0.642126 4.45092 0
M  V30 1490 C 144.541 1.15335 4.91961 0
M  V30 1491 C 146.739 1.50649 4.91741 0
M  V30 1492 N 144.721 2.3242 5.68202 0
M  V30 1493 C 146.092 2.52404 5.66297 0
M  V30 1494 C 148.147 1.52969 4.73819 0
M  V30 1495 C 146.85 3.56331 6.24836 0
M  V30 1496 C 148.876 2.55789 5.33222 0
M  V30 1497 C 148.238 3.56268 6.07662 0
M  V30 1498 H 144.337 -0.0435508 0.780786 0
M  V30 1499 H 146.921 0.506704 1.87991 0
M  V30 1500 H 145.092 -1.2649 3.67226 0
M  V30 1501 H 146.824 -1.13676 3.88407 0
M  V30 1502 H 143.579 0.718412 4.68119 0
M  V30 1503 H 144.003 2.91591 6.10986 0
M  V30 1504 H 148.645 0.766418 4.15795 0
M  V30 1505 H 146.363 4.33543 6.81958 0
M  V30 1506 H 149.949 2.58435 5.21251 0
M  V30 1507 H 148.829 4.34524 6.52808 0
M  V30 1508 N 146.332 -1.57332 0.0918853 0
M  V30 1509 C 147.609 -1.85691 -0.614668 0
M  V30 1510 C 147.989 -0.988146 -1.86545 0
M  V30 1511 O 147.337 -0.0597055 -2.28422 0
M  V30 1512 C 147.547 -3.36294 -0.933126 0
M  V30 1513 C 148.895 -4.04275 -1.29796 0
M  V30 1514 O 149.919 -3.41157 -1.02424 0
M  V30 1515 O 148.778 -5.1564 -1.81047 0
M  V30 1516 H 145.872 -0.767802 -0.307261 0
M  V30 1517 H 148.418 -1.69244 0.12434 0
M  V30 1518 H 147.19 -3.91273 -0.0456404 0
M  V30 1519 H 146.813 -3.58076 -1.72822 0
M  V30 1520 N 147.81 0.181792 -1.56548 0
M  V30 1521 C 148.743 1.25366 -1.90679 0
M  V30 1522 C 149.721 1.43299 -0.768376 0
M  V30 1523 O 150.905 1.58475 -1.02068 0
M  V30 1524 C 148.032 2.61826 -2.1486 0
M  V30 1525 C 147.078 2.60688 -3.37556 0
M  V30 1526 S 147.911 2.10804 -4.92262 0
M  V30 1527 C 149.067 3.49062 -5.19525 0
M  V30 1528 H 149.3 0.962277 -2.81296 0
M  V30 1529 H 146.833 0.385892 -1.495 0
M  V30 1530 H 148.791 3.40371 -2.29473 0
M  V30 1531 H 147.452 2.88169 -1.24969 0
M  V30 1532 H 146.645 3.61058 -3.51643 0
M  V30 1533 H 146.247 1.90232 -3.22006 0
M  V30 1534 H 148.539 4.45003 -5.10861 0
M  V30 1535 H 149.482 3.39859 -6.2121 0
M  V30 1536 H 149.89 3.4459 -4.47122 0
M  V30 1537 N 149.288 1.51039 0.449983 0
M  V30 1538 C 150.22 1.67617 1.56324 0
M  V30 1539 C 151.233 0.557083 1.52972 0
M  V30 1540 O 152.422 0.830989 1.57977 0
M  V30 1541 C 149.522 1.66402 2.95235 0
M  V30 1542 C 148.695 2.9469 3.23229 0
M  V30 1543 C 147.754 2.85832 4.41799 0
M  V30 1544 O 146.78 3.59785 4.41071 0
M  V30 1545 N 147.982 2.00821 5.44657 0
M  V30 1546 H 150.747 2.63648 1.42512 0
M  V30 1547 H 148.308 1.48767 0.638737 0
M  V30 1548 H 150.3 1.58062 3.72557 0
M  V30 1549 H 148.87 0.780182 3.02708 0
M  V30 1550 H 148.09 3.16996 2.34323 0
M  V30 1551 H 149.378 3.79636 3.38754 0
M  V30 1552 H 148.776 1.40091 5.48079 0
M  V30 1553 H 147.333 1.98368 6.20881 0
M  V30 1554 N 150.766 -0.704594 1.40972 0
M  V30 1555 C 152.014 -1.46169 1.39568 0
M  V30 1556 C 152.335 -1.95 0.00253745 0
M  V30 1557 O 151.605 -1.71095 -0.954114 0
M  V30 1558 H 150.185 -0.542326 0.513704 0
M  V30 1559 H 152.847 -0.834553 1.76128 0
M  V30 1560 H 151.943 -2.32922 2.07735 0
M  V30 1561 N 152.244 -1.26651 -0.937939 0
M  V30 1562 C 153.191 -1.0849 -2.03712 0
M  V30 1563 C 154.161 0.011033 -1.66096 0
M  V30 1564 O 155.346 -0.149353 -1.90215 0
M  V30 1565 C 152.486 -0.72735 -3.37348 0
M  V30 1566 C 151.599 -1.89986 -3.87981 0
M  V30 1567 C 150.734 -1.48513 -5.10017 0
M  V30 1568 C 149.773 -2.62575 -5.5292 0
M  V30 1569 N 148.91 -2.21762 -6.66158 0
M  V30 1570 H 153.75 -2.02551 -2.18579 0
M  V30 1571 H 151.287 -1.00844 -1.07093 0
M  V30 1572 H 153.245 -0.50092 -4.14182 0
M  V30 1573 H 151.875 0.176298 -3.22318 0
M  V30 1574 H 150.927 -2.23913 -3.07518 0
M  V30 1575 H 152.239 -2.75586 -4.15757 0
M  V30 1576 H 151.393 -1.21934 -5.94321 0
M  V30 1577 H 150.132 -0.60009 -4.83994 0
M  V30 1578 H 149.137 -2.8988 -4.67172 0
M  V30 1579 H 150.362 -3.51685 -5.80943 0
M  V30 1580 H 148.308 -1.35696 -6.41812 0
M  V30 1581 H 148.225 -3.00903 -6.93537 0
M  V30 1582 H 149.493 -1.98403 -7.53828 0
M  V30 1583 N 153.722 1.14298 -1.08507 0
M  V30 1584 C 155.138 1.37347 -0.812901 0
M  V30 1585 C 155.338 1.93052 0.577325 0
M  V30 1586 O 154.394 2.14389 1.33393 0
M  V30 1587 C 155.707 2.33359 -1.89642 0
M  V30 1588 C 157.255 2.46996 -1.92255 0
M  V30 1589 C 157.73 3.46309 -2.99724 0
M  V30 1590 N 159.221 3.53853 -2.98902 0
M  V30 1591 C 159.956 4.3055 -3.787 0
M  V30 1592 N 159.452 5.10482 -4.6838 0
M  V30 1593 N 161.245 4.25757 -3.66998 0
M  V30 1594 H 153.396 0.764867 -1.9815 0
M  V30 1595 H 155.659 0.398966 -0.859959 0
M  V30 1596 H 155.365 1.99565 -2.89597 0
M  V30 1597 H 155.239 3.33274 -1.76659 0
M  V30 1598 H 157.626 2.80081 -0.929445 0
M  V30 1599 H 157.707 1.47039 -2.09316 0
M  V30 1600 H 157.351 3.13957 -3.99241 0
M  V30 1601 H 157.281 4.46049 -2.79907 0
M  V30 1602 H 159.772 2.96812 -2.33904 0
M  V30 1603 H 160.085 5.66284 -5.25873 0
M  V30 1604 H 158.43 5.09747 -4.72422 0
M  V30 1605 H 161.621 3.62383 -2.96304 0
M  V30 1606 H 161.794 4.85279 -4.29427 0
M  V30 1607 N 155.201 0.870884 1.31352 0
M  V30 1608 C 156.448 0.482273 1.96673 0
M  V30 1609 C 156.776 -0.965638 1.68836 0
M  V30 1610 O 156.031 -1.69514 0.977937 0
M  V30 1611 C 156.33 0.687157 3.50732 0
M  V30 1612 C 155.996 2.108 3.9859 0
M  V30 1613 C 154.658 2.49656 4.1137 0
M  V30 1614 C 157.01 3.03459 4.23748 0
M  V30 1615 C 154.338 3.80412 4.46659 0
M  V30 1616 C 156.69 4.3373 4.60501 0
M  V30 1617 C 155.354 4.725 4.71487 0
M  V30 1618 H 154.624 0.176476 0.719679 0
M  V30 1619 H 157.271 1.10405 1.56471 0
M  V30 1620 H 155.576 -0.0177476 3.91796 0
M  V30 1621 H 157.273 0.366284 3.99324 0
M  V30 1622 H 153.863 1.79633 3.8914 0
M  V30 1623 H 158.047 2.74665 4.13368 0
M  V30 1624 H 153.303 4.1021 4.53362 0
M  V30 1625 H 157.477 5.05578 4.78919 0
M  V30 1626 H 155.104 5.73859 4.98588 0
M  V30 1627 N 156.679 -1.44442 0.630414 0
M  V30 1628 C 157.925 -2.02351 0.134816 0
M  V30 1629 C 158.258 -1.4947 -1.23986 0
M  V30 1630 O 157.533 -0.678475 -1.82283 0
M  V30 1631 C 157.816 -3.59898 0.120707 0
M  V30 1632 C 157.669 -4.23063 1.52767 0
M  V30 1633 C 158.988 -4.36585 -0.555127 0
M  V30 1634 H 156.107 -0.73527 0.0504646 0
M  V30 1635 H 158.749 -1.72022 0.806751 0
M  V30 1636 H 156.899 -3.85868 -0.451477 0
M  V30 1637 H 158.571 -4.08202 2.14869 0
M  V30 1638 H 156.814 -3.80586 2.08175 0
M  V30 1639 H 157.485 -5.32071 1.46984 0
M  V30 1640 H 159.961 -4.16044 -0.0685429 0
M  V30 1641 H 158.837 -5.46294 -0.534185 0
M  V30 1642 H 159.098 -4.11138 -1.62535 0
M  V30 1643 N 158.157 -0.370918 -1.53173 0
M  V30 1644 C 159.12 0.460778 -2.24521 0
M  V30 1645 C 160.12 1.00536 -1.25496 0
M  V30 1646 O 161.31 0.890266 -1.49733 0
M  V30 1647 C 158.442 1.64457 -2.98608 0
M  V30 1648 H 159.635 -0.163613 -2.99453 0
M  V30 1649 H 157.188 -0.122699 -1.55818 0
M  V30 1650 H 157.923 2.30691 -2.2793 0
M  V30 1651 H 157.708 1.26099 -3.7127 0
M  V30 1652 H 159.198 2.23384 -3.5283 0
M  V30 1653 N 159.635 1.57281 -0.100228 0
M  V30 1654 C 160.568 2.09976 0.893612 0
M  V30 1655 C 161.546 1.01155 1.27304 0
M  V30 1656 O 162.73 1.28687 1.37739 0
M  V30 1657 C 159.857 2.58098 2.19324 0
M  V30 1658 C 158.903 3.78626 1.96328 0
M  V30 1659 S 159.736 5.21959 1.19662 0
M  V30 1660 C 160.892 5.73435 2.50844 0
M  V30 1661 H 161.125 2.93946 0.44534 0
M  V30 1662 H 158.658 1.53985 0.113167 0
M  V30 1663 H 160.616 2.8648 2.94005 0
M  V30 1664 H 159.277 1.74344 2.61272 0
M  V30 1665 H 158.47 4.10382 2.92579 0
M  V30 1666 H 158.072 3.50763 1.29775 0
M  V30 1667 H 160.364 5.82015 3.46792 0
M  V30 1668 H 161.307 6.7185 2.23659 0
M  V30 1669 H 161.715 5.01395 2.59352 0
M  V30 1670 N 161.113 -0.173488 1.56642 0
M  V30 1671 C 162.06 -1.21482 1.96242 0
M  V30 1672 C 163.03 -1.44104 0.826027 0
M  V30 1673 O 164.215 -1.5688 1.08597 0
M  V30 1674 C 161.355 -2.54964 2.32567 0
M  V30 1675 C 160.468 -2.39739 3.59373 0
M  V30 1676 C 159.603 -3.66072 3.84921 0
M  V30 1677 C 158.642 -3.45771 5.05083 0
M  V30 1678 N 157.779 -4.64169 5.26775 0
M  V30 1679 H 162.619 -0.870123 2.85014 0
M  V30 1680 H 160.156 -0.418245 1.41029 0
M  V30 1681 H 162.114 -3.32758 2.5165 0
M  V30 1682 H 160.744 -2.87433 1.46908 0
M  V30 1683 H 159.796 -1.53131 3.48217 0
M  V30 1684 H 161.108 -2.20683 4.47326 0
M  V30 1685 H 160.262 -4.52303 4.0436 0
M  V30 1686 H 159.001 -3.88105 2.9534 0
M  V30 1687 H 158.006 -2.57927 4.85545 0
M  V30 1688 H 159.231 -3.25163 5.96193 0
M  V30 1689 H 157.177 -4.86425 4.40144 0
M  V30 1690 H 157.094 -4.48019 6.08946 0
M  V30 1691 H 158.362 -5.51689 5.5069 0
M  V30 1692 N 162.591 -1.51276 -0.441967 0
M  V30 1693 C 163.837 -1.63958 -1.19355 0
M  V30 1694 C 164.17 -0.352543 -1.90973 0
M  V30 1695 O 163.445 0.647627 -1.83401 0
M  V30 1696 C 163.728 -2.83979 -2.21422 0
M  V30 1697 C 163.581 -4.22646 -1.53918 0
M  V30 1698 C 164.9 -2.99521 -3.22451 0
M  V30 1699 H 162.019 -0.596709 -0.432559 0
M  V30 1700 H 164.661 -1.83748 -0.483398 0
M  V30 1701 H 162.811 -2.67237 -2.81987 0
M  V30 1702 H 164.483 -4.51045 -0.967256 0
M  V30 1703 H 162.726 -4.25558 -0.841615 0
M  V30 1704 H 163.397 -5.02609 -2.28229 0
M  V30 1705 H 165.873 -3.14944 -2.71937 0
M  V30 1706 H 164.749 -3.85072 -3.91166 0
M  V30 1707 H 165.01 -2.11391 -3.88287 0
M  V30 1708 N 164.069 0.697108 -1.41344 0
M  V30 1709 C 165.315 1.4593 -1.40827 0
M  V30 1710 C 165.648 1.94193 -0.0167098 0
M  V30 1711 O 164.923 1.69425 0.955263 0
M  V30 1712 C 165.206 2.67229 -2.41373 0
M  V30 1713 C 165.059 2.24741 -3.8963 0
M  V30 1714 C 166.378 3.69423 -2.39196 0
M  V30 1715 H 163.497 0.529303 -0.512842 0
M  V30 1716 H 166.139 0.794112 -1.72609 0
M  V30 1717 H 164.289 3.23982 -2.14401 0
M  V30 1718 H 165.961 1.73327 -4.27499 0
M  V30 1719 H 164.204 1.56542 -4.0457 0
M  V30 1720 H 164.875 3.1177 -4.55525 0
M  V30 1721 H 167.351 3.2234 -2.63128 0
M  V30 1722 H 166.227 4.51907 -3.11563 0
M  V30 1723 H 166.488 4.19012 -1.41001 0
M  V30 1724 N 165.547 1.27147 0.931209 0
M  V30 1725 C 166.494 1.09568 2.03134 0
M  V30 1726 C 167.464 -0.00222433 1.661 0
M  V30 1727 O 168.649 0.159439 1.90133 0
M  V30 1728 C 165.789 0.745231 3.36957 0
M  V30 1729 C 164.902 1.92041 3.86968 0
M  V30 1730 C 164.037 1.51216 5.09222 0
M  V30 1731 C 163.076 2.65504 5.5152 0
M  V30 1732 N 162.213 2.25291 6.64972 0
M  V30 1733 H 167.053 2.03708 2.17502 0
M  V30 1734 H 164.59 1.01411 1.06556 0
M  V30 1735 H 166.548 0.522878 4.1391 0
M  V30 1736 H 165.178 -0.159202 3.22407 0
M  V30 1737 H 164.23 2.25541 3.06326 0
M  V30 1738 H 165.542 2.77787 4.1429 0
M  V30 1739 H 164.696 1.25084 5.93666 0
M  V30 1740 H 163.435 0.625749 4.83669 0
M  V30 1741 H 162.44 2.92354 4.65628 0
M  V30 1742 H 163.665 3.54761 5.7907 0
M  V30 1743 H 161.611 1.39098 6.41083 0
M  V30 1744 H 161.528 3.04577 6.91931 0
M  V30 1745 H 162.796 2.02398 7.52765 0
M  V30 1746 N 167.025 -1.13721 1.09112 0
M  V30 1747 C 168.25 -1.89314 0.847053 0
M  V30 1748 C 168.675 -1.78416 -0.595774 0
M  V30 1749 O 168.033 -1.12942 -1.41823 0
M  V30 1750 C 168.081 -3.3701 1.28284 0
M  V30 1751 O 167.185 -4.10054 0.439267 0
M  V30 1752 H 166.526 -0.588745 0.307044 0
M  V30 1753 H 169.056 -1.43902 1.45442 0
M  V30 1754 H 169.066 -3.87834 1.26683 0
M  V30 1755 H 167.741 -3.4426 2.33363 0
M  V30 1756 H 166.318 -3.69266 0.519312 0
M  V30 1757 N 168.503 -0.877838 -1.30888 0
M  V30 1758 C 169.466 -0.344265 -2.266 0
M  V30 1759 C 170.466 0.50922 -1.52524 0
M  V30 1760 O 171.656 0.317398 -1.71284 0
M  V30 1761 C 168.788 0.510198 -3.37061 0
M  V30 1762 H 169.981 -1.1893 -2.7531 0
M  V30 1763 H 167.534 -0.654088 -1.41956 0
M  V30 1764 H 168.269 1.37612 -2.93655 0
M  V30 1765 H 168.054 -0.101047 -3.9197 0
M  V30 1766 H 169.544 0.875537 -4.08319 0
M  V30 1767 N 169.982 1.44106 -0.638065 0
M  V30 1768 C 170.914 2.28976 0.101205 0
M  V30 1769 C 171.927 1.4167 0.802088 0
M  V30 1770 O 173.116 1.65755 0.662375 0
M  V30 1771 C 170.216 3.18217 1.16581 0
M  V30 1772 C 169.389 4.33978 0.546066 0
M  V30 1773 C 168.448 5.04202 1.50554 0
M  V30 1774 O 167.474 5.59986 1.01999 0
M  V30 1775 N 168.676 5.06296 2.8398 0
M  V30 1776 H 171.441 2.93064 -0.627186 0
M  V30 1777 H 169.002 1.54629 -0.479731 0
M  V30 1778 H 170.994 3.62061 1.80815 0
M  V30 1779 H 169.564 2.55833 1.79634 0
M  V30 1780 H 168.784 3.93239 -0.275046 0
M  V30 1781 H 170.072 5.08675 0.112793 0
M  V30 1782 H 169.47 4.62319 3.26002 0
M  V30 1783 H 168.027 5.53907 3.43556 0
M  V30 1784 N 171.46 0.379036 1.52974 0
M  V30 1785 C 172.41 -0.477772 2.22938 0
M  V30 1786 C 173.394 -1.03792 1.22948 0
M  V30 1787 O 174.586 -0.965725 1.48333 0
M  V30 1788 C 171.715 -1.60994 3.03209 0
M  V30 1789 C 170.801 -1.06203 4.10587 0
M  V30 1790 N 171.192 -0.238214 5.05239 0
M  V30 1791 C 169.49 -1.33554 4.25534 0
M  V30 1792 C 170.191 0.0633235 5.81666 0
M  V30 1793 N 169.167 -0.537901 5.40932 0
M  V30 1794 H 172.969 0.158295 2.93473 0
M  V30 1795 H 170.483 0.187778 1.61311 0
M  V30 1796 H 172.48 -2.23607 3.5186 0
M  V30 1797 H 171.14 -2.24893 2.34207 0
M  V30 1798 H 172.151 0.123695 5.17752 0
M  V30 1799 H 168.828 -1.97632 3.6776 0
M  V30 1800 H 170.218 0.730161 6.67921 0
M  V30 1801 N 172.938 -1.57226 0.108567 0
M  V30 1802 C 174.168 -1.9889 -0.559142 0
M  V30 1803 C 174.576 -0.986889 -1.61422 0
M  V30 1804 O 173.919 0.0298705 -1.83676 0
M  V30 1805 C 173.981 -3.36952 -1.25315 0
M  V30 1806 C 173.645 -4.55679 -0.347248 0
M  V30 1807 C 174.642 -5.18281 0.409996 0
M  V30 1808 C 172.327 -5.0162 -0.261367 0
M  V30 1809 C 174.321 -6.25203 1.24096 0
M  V30 1810 C 172.008 -6.08405 0.573238 0
M  V30 1811 C 173.006 -6.70063 1.32304 0
M  V30 1812 O 172.694 -7.74788 2.14381 0
M  V30 1813 H 172.426 -0.658343 -0.153492 0
M  V30 1814 H 174.98 -2.04532 0.188584 0
M  V30 1815 H 173.21 -3.28032 -2.04773 0
M  V30 1816 H 174.899 -3.62974 -1.81673 0
M  V30 1817 H 175.665 -4.8371 0.353457 0
M  V30 1818 H 171.544 -4.53381 -0.834656 0
M  V30 1819 H 175.088 -6.73259 1.82669 0
M  V30 1820 H 170.985 -6.42406 0.631208 0
M  V30 1821 H 171.753 -7.91837 2.07209 0
M  V30 1822 N 174.416 0.165178 -1.56732 0
M  V30 1823 C 175.644 0.896218 -1.86482 0
M  V30 1824 C 176.059 1.75555 -0.694675 0
M  V30 1825 O 175.416 1.79379 0.33607 0
M  V30 1826 C 175.467 1.76792 -3.1532 0
M  V30 1827 O 175.188 0.943239 -4.27825 0
M  V30 1828 C 176.689 2.6081 -3.58459 0
M  V30 1829 H 173.909 0.260064 -0.618553 0
M  V30 1830 H 176.453 0.163428 -2.03846 0
M  V30 1831 H 174.608 2.45398 -2.99764 0
M  V30 1832 H 175.022 1.53998 -5.01383 0
M  V30 1833 H 176.496 3.17579 -4.51495 0
M  V30 1834 H 176.973 3.35977 -2.82872 0
M  V30 1835 H 177.579 1.97526 -3.76648 0
M  V30 1836 N 175.894 1.51508 0.433938 0
M  V30 1837 C 176.804 1.75917 1.5521 0
M  V30 1838 C 177.82 0.643545 1.61662 0
M  V30 1839 O 178.996 0.926183 1.7884 0
M  V30 1840 C 176.061 1.88213 2.91164 0
M  V30 1841 C 175.122 3.12074 2.94802 0
M  V30 1842 C 174.355 3.23774 4.24271 0
M  V30 1843 O 174.578 2.4133 5.16833 0
M  V30 1844 O 173.512 4.16774 4.34262 0
M  V30 1845 H 177.338 2.70777 1.37527 0
M  V30 1846 H 174.923 1.36051 0.617293 0
M  V30 1847 H 176.805 1.98267 3.71845 0
M  V30 1848 H 175.48 0.965413 3.08968 0
M  V30 1849 H 174.387 3.07497 2.13065 0
M  V30 1850 H 175.72 4.03446 2.81943 0
M  V30 1851 N 177.372 -0.689602 1.41712 0
M  V30 1852 C 178.6 -1.47827 1.44758 0
M  V30 1853 C 179.015 -1.88721 0.0545703 0
M  V30 1854 O 178.372 -1.57176 -0.927463 0
M  V30 1855 C 178.423 -2.73698 2.3616 0
M  V30 1856 O 178.144 -2.34524 3.7004 0
M  V30 1857 C 179.645 -3.67389 2.48072 0
M  V30 1858 H 176.865 -0.455357 0.49284 0
M  V30 1859 H 179.409 -0.848574 1.86063 0
M  V30 1860 H 177.564 -3.32891 1.98148 0
M  V30 1861 H 177.978 -3.15701 4.18847 0
M  V30 1862 H 179.452 -4.52475 3.16181 0
M  V30 1863 H 179.929 -4.12284 1.51388 0
M  V30 1864 H 180.535 -3.14097 2.86746 0
M  V30 1865 N 178.85 -1.27639 -0.924453 0
M  V30 1866 C 179.813 -1.10681 -2.00705 0
M  V30 1867 C 180.813 -0.0497823 -1.60723 0
M  V30 1868 O 182.003 -0.294654 -1.7169 0
M  V30 1869 C 179.135 -0.687164 -3.33902 0
M  V30 1870 H 180.328 -2.06817 -2.17179 0
M  V30 1871 H 177.881 -1.10473 -1.10569 0
M  V30 1872 H 178.616 0.275439 -3.23128 0
M  V30 1873 H 178.401 -1.45061 -3.6428 0
M  V30 1874 H 179.891 -0.590853 -4.13399 0
M  V30 1875 N 180.328 1.1314 -1.09713 0
M  V30 1876 C 181.258 2.20748 -0.761102 0
M  V30 1877 C 182.239 1.68061 0.262566 0
M  V30 1878 O 183.424 1.93765 0.129977 0
M  V30 1879 C 180.554 3.46812 -0.184054 0
M  V30 1880 C 179.508 4.12606 -1.13757 0
M  V30 1881 C 178.834 5.33031 -0.422083 0
M  V30 1882 C 180.134 4.59603 -2.48118 0
M  V30 1883 H 181.828 2.49113 -1.66082 0
M  V30 1884 H 179.374 1.19734 -0.799987 0
M  V30 1885 H 181.327 4.21353 0.0631215 0
M  V30 1886 H 180.051 3.17851 0.750868 0
M  V30 1887 H 178.71 3.40036 -1.37007 0
M  V30 1888 H 178.358 5.00335 0.517072 0
M  V30 1889 H 178.058 5.77999 -1.05788 0
M  V30 1890 H 179.582 6.10325 -0.183277 0
M  V30 1891 H 180.996 5.25552 -2.29059 0
M  V30 1892 H 179.393 5.15321 -3.07514 0
M  V30 1893 H 180.463 3.73971 -3.08665 0
M  V30 1894 N 181.806 0.884767 1.30421 0
M  V30 1895 C 183.083 0.423185 1.90967 0
M  V30 1896 C 183.463 -1.09605 1.80416 0
M  V30 1897 O 182.811 -1.93126 1.22125 0
M  V30 1898 C 183.021 0.921056 3.36627 0
M  V30 1899 C 184.369 0.955903 4.137 0
M  V30 1900 O 185.393 0.867706 3.4547 0
M  V30 1901 O 184.252 1.08614 5.35598 0
M  V30 1902 H 181.346 0.129369 0.816819 0
M  V30 1903 H 183.892 0.973653 1.3899 0
M  V30 1904 H 182.664 1.96489 3.3839 0
M  V30 1905 H 182.287 0.349741 3.96059 0
M  V30 1906 N 183.284 -1.43765 0.645699 0
M  V30 1907 C 184.194 -2.34544 -0.0512957 0
M  V30 1908 C 185.21 -1.53455 -0.82022 0
M  V30 1909 O 186.386 -1.86133 -0.769176 0
M  V30 1910 C 183.451 -3.31636 -1.01087 0
M  V30 1911 C 182.512 -4.2863 -0.239712 0
M  V30 1912 C 181.745 -5.21084 -1.15358 0
M  V30 1913 O 181.968 -5.1779 -2.39269 0
M  V30 1914 O 180.902 -5.98593 -0.630038 0
M  V30 1915 H 184.728 -2.95624 0.695718 0
M  V30 1916 H 182.313 -1.43781 0.405882 0
M  V30 1917 H 184.195 -3.9136 -1.56254 0
M  V30 1918 H 182.87 -2.73069 -1.73824 0
M  V30 1919 H 181.777 -3.72408 0.355356 0
M  V30 1920 H 183.11 -4.90157 0.447936 0
M  V30 1921 N 184.763 -0.387143 -1.52771 0
M  V30 1922 C 186.012 0.19697 -2.00736 0
M  V30 1923 C 186.325 1.48082 -1.27793 0
M  V30 1924 O 187.531 2.14485 -1.66458 0
M  V30 1925 C 185.987 0.401568 -3.57653 0
M  V30 1926 C 185.595 -0.868907 -4.39493 0
M  V30 1927 C 187.339 0.942164 -4.13912 0
M  V30 1928 C 185.246 -0.632705 -5.88006 0
M  V30 1929 H 184.176 0.0773827 -0.750019 0
M  V30 1930 H 186.827 -0.50921 -1.76293 0
M  V30 1931 H 185.209 1.16954 -3.78335 0
M  V30 1932 H 186.383 -1.64133 -4.30577 0
M  V30 1933 H 184.698 -1.33429 -3.94443 0
M  V30 1934 H 187.295 1.13455 -5.22525 0
M  V30 1935 H 187.638 1.9106 -3.69867 0
M  V30 1936 H 188.171 0.233814 -3.97112 0
M  V30 1937 H 184.91 -1.57208 -6.36369 0
M  V30 1938 H 184.43 0.100825 -5.99715 0
M  V30 1939 H 186.109 -0.26642 -6.46451 0
M  V30 1940 N 186.241 1.57166 -0.116904 0
M  V30 1941 C 187.188 2.15202 0.83408 0
M  V30 1942 C 188.158 1.07644 1.26499 0
M  V30 1943 O 189.343 1.35541 1.34288 0
M  V30 1944 C 186.483 2.75405 2.07957 0
M  V30 1945 C 185.596 3.97264 1.69721 0
M  V30 1946 C 184.731 4.45561 2.89221 0
M  V30 1947 C 183.77 5.59956 2.47215 0
M  V30 1948 N 182.907 6.03006 3.59622 0
M  V30 1949 H 187.747 2.96141 0.332335 0
M  V30 1950 H 185.284 1.46309 0.152349 0
M  V30 1951 H 187.242 3.08439 2.80929 0
M  V30 1952 H 185.872 1.97159 2.55594 0
M  V30 1953 H 184.924 3.70404 0.866316 0
M  V30 1954 H 186.236 4.80226 1.34849 0
M  V30 1955 H 185.39 4.80493 3.7042 0
M  V30 1956 H 184.129 3.61544 3.27318 0
M  V30 1957 H 183.134 5.2463 1.64448 0
M  V30 1958 H 184.359 6.45738 2.10238 0
M  V30 1959 H 182.305 5.21931 3.97396 0
M  V30 1960 H 182.222 6.80819 3.28667 0
M  V30 1961 H 183.49 6.42576 4.41267 0
M  V30 1962 N 187.719 -0.156864 1.56817 0
M  V30 1963 C 188.649 -1.19589 2.00551 0
M  V30 1964 C 189.63 -1.4536 0.883426 0
M  V30 1965 O 190.815 -1.56449 1.15054 0
M  V30 1966 C 187.945 -2.53143 2.37773 0
M  V30 1967 C 186.899 -2.41913 3.53075 0
M  V30 1968 C 186.225 -3.80088 3.76081 0
M  V30 1969 C 187.525 -1.91157 4.86062 0
M  V30 1970 H 189.219 -0.832293 2.87599 0
M  V30 1971 H 186.765 -0.398918 1.38364 0
M  V30 1972 H 188.718 -3.26047 2.66967 0
M  V30 1973 H 187.442 -2.91319 1.4765 0
M  V30 1974 H 186.101 -1.71462 3.24031 0
M  V30 1975 H 185.749 -4.15683 2.83225 0
M  V30 1976 H 185.449 -3.73439 4.53671 0
M  V30 1977 H 186.973 -4.54556 4.0769 0
M  V30 1978 H 188.387 -2.53846 5.14038 0
M  V30 1979 H 186.784 -1.95422 5.67389 0
M  V30 1980 H 187.854 -0.866673 4.77092 0
M  V30 1981 N 189.197 -1.51736 -0.425897 0
M  V30 1982 C 190.127 -1.76827 -1.52494 0
M  V30 1983 C 191.108 -0.618524 -1.58456 0
M  V30 1984 O 192.293 -0.862416 -1.74 0
M  V30 1985 C 189.423 -1.90374 -2.90474 0
M  V30 1986 C 188.377 -3.0588 -2.99369 0
M  V30 1987 C 187.703 -3.04625 -4.3944 0
M  V30 1988 C 189.003 -4.45644 -2.72394 0
M  V30 1989 H 190.697 -2.68855 -1.31748 0
M  V30 1990 H 188.243 -1.29372 -0.632362 0
M  V30 1991 H 190.196 -2.0651 -3.6733 0
M  V30 1992 H 188.92 -0.95004 -3.12477 0
M  V30 1993 H 187.579 -2.89467 -2.24954 0
M  V30 1994 H 187.227 -2.0701 -4.58428 0
M  V30 1995 H 186.927 -3.82195 -4.46319 0
M  V30 1996 H 188.451 -3.22869 -5.18255 0
M  V30 1997 H 189.865 -4.62348 -3.38979 0
M  V30 1998 H 188.262 -5.25006 -2.9067 0
M  V30 1999 H 189.332 -4.54893 -1.67929 0
M  V30 2000 N 190.675 0.682077 -1.42076 0
M  V30 2001 C 191.622 1.79578 -1.44984 0
M  V30 2002 C 192.592 1.6332 -0.302614 0
M  V30 2003 O 193.777 1.83978 -0.505633 0
M  V30 2004 C 190.917 3.1756 -1.35091 0
M  V30 2005 C 190.03 3.45156 -2.59791 0
M  V30 2006 C 189.165 4.72826 -2.42093 0
M  V30 2007 C 188.204 4.93433 -3.62202 0
M  V30 2008 N 187.341 6.12338 -3.43491 0
M  V30 2009 H 192.181 1.76427 -2.40161 0
M  V30 2010 H 189.718 0.861376 -1.19242 0
M  V30 2011 H 191.676 3.97287 -1.27354 0
M  V30 2012 H 190.306 3.19854 -0.435133 0
M  V30 2013 H 189.358 2.59736 -2.77923 0
M  V30 2014 H 190.67 3.5628 -3.49094 0
M  V30 2015 H 189.824 5.60631 -2.319 0
M  V30 2016 H 188.563 4.63973 -1.50268 0
M  V30 2017 H 187.568 4.04073 -3.72834 0
M  V30 2018 H 188.793 5.04136 -4.54998 0
M  V30 2019 H 186.739 6.04672 -2.54377 0
M  V30 2020 H 186.656 6.2429 -4.26377 0
M  V30 2021 H 187.924 7.02841 -3.37097 0
M  V30 2022 N 192.153 1.28127 0.917671 0
M  V30 2023 C 193.393 1.163 1.68088 0
M  V30 2024 C 193.757 -0.284515 1.8988 0
M  V30 2025 O 194.958 -0.525413 2.63615 0
M  V30 2026 C 193.229 1.93546 3.00457 0
M  V30 2027 S 194.788 1.98048 3.91564 0
M  V30 2028 H 191.606 0.415005 0.577315 0
M  V30 2029 H 194.208 1.62173 1.09179 0
M  V30 2030 H 192.912 2.97888 2.82295 0
M  V30 2031 H 192.443 1.48207 3.64415 0
M  V30 2032 H 194.458 1.08415 4.84211 0
M  V30 2033 N 193.631 -1.12557 1.10312 0
M  V30 2034 C 194.877 -1.84311 0.846011 0
M  V30 2035 C 195.21 -1.83805 -0.626859 0
M  V30 2036 O 194.485 -1.28268 -1.46211 0
M  V30 2037 C 194.768 -3.32048 1.39341 0
M  V30 2038 C 194.621 -3.41016 2.93305 0
M  V30 2039 C 195.94 -4.27764 1.03468 0
M  V30 2040 H 193.059 -0.669192 0.30879 0
M  V30 2041 H 195.701 -1.32057 1.36605 0
M  V30 2042 H 193.851 -3.76678 0.951087 0
M  V30 2043 H 195.523 -3.05031 3.46055 0
M  V30 2044 H 193.766 -2.81603 3.29973 0
M  V30 2045 H 194.437 -4.44948 3.26689 0
M  V30 2046 H 196.913 -3.91253 1.41633 0
M  V30 2047 H 195.789 -5.29549 1.44463 0
M  V30 2048 H 196.05 -4.42064 -0.0560404 0
M  V30 2049 N 195.109 -0.891671 -1.2995 0
M  V30 2050 C 196.525 -0.58662 -1.48428 0
M  V30 2051 C 196.725 0.873951 -1.81561 0
M  V30 2052 O 195.781 1.65471 -1.90724 0
M  V30 2053 C 197.094 -1.50553 -2.60296 0
M  V30 2054 C 198.642 -1.50988 -2.74175 0
M  V30 2055 C 199.117 -2.41488 -3.89163 0
M  V30 2056 N 200.608 -2.39489 -3.96483 0
M  V30 2057 C 201.343 -3.06223 -4.84784 0
M  V30 2058 N 200.839 -3.82206 -5.77833 0
M  V30 2059 N 202.632 -2.95421 -4.78208 0
M  V30 2060 H 194.783 -1.83644 -1.06718 0
M  V30 2061 H 197.046 -0.786455 -0.529332 0
M  V30 2062 H 196.752 -2.54581 -2.42654 0
M  V30 2063 H 196.626 -1.22008 -3.56923 0
M  V30 2064 H 199.013 -0.47708 -2.91218 0
M  V30 2065 H 199.094 -1.83567 -1.78148 0
M  V30 2066 H 198.738 -3.44857 -3.72876 0
M  V30 2067 H 198.668 -2.06222 -4.84541 0
M  V30 2068 H 201.159 -1.84278 -3.29924 0
M  V30 2069 H 201.472 -4.302 -6.41988 0
M  V30 2070 H 199.817 -3.86313 -5.77743 0
M  V30 2071 H 203.008 -2.35581 -4.04499 0
M  V30 2072 H 203.181 -3.47704 -5.46814 0
M  V30 2073 N 196.587 1.43421 -0.653314 0
M  V30 2074 C 197.497 2.34568 0.0388565 0
M  V30 2075 C 198.513 1.53888 0.81207 0
M  V30 2076 O 199.689 1.86539 0.759294 0
M  V30 2077 C 196.754 3.32167 0.993269 0
M  V30 2078 C 195.815 4.28751 0.216977 0
M  V30 2079 C 195.048 5.21688 1.12593 0
M  V30 2080 O 195.271 5.19052 2.36519 0
M  V30 2081 O 194.205 5.98919 0.598284 0
M  V30 2082 H 198.031 2.95251 -0.711386 0
M  V30 2083 H 195.616 1.43564 -0.413502 0
M  V30 2084 H 197.498 3.92183 1.54176 0
M  V30 2085 H 196.173 2.73987 1.72374 0
M  V30 2086 H 195.08 3.72215 -0.375101 0
M  V30 2087 H 196.413 4.89913 -0.473924 0
M  V30 2088 N 198.065 0.39524 1.52563 0
M  V30 2089 C 199.29 -0.187456 2.06551 0
M  V30 2090 C 199.715 -1.39249 1.26457 0
M  V30 2091 O 199.073 -1.78947 0.291151 0
M  V30 2092 C 199.121 -0.529985 3.56684 0
M  V30 2093 O 198.225 -1.62307 3.79118 0
M  V30 2094 H 197.566 -0.0202537 0.663691 0
M  V30 2095 H 200.096 0.564426 1.96661 0
M  V30 2096 H 200.106 -0.792598 4.00227 0
M  V30 2097 H 198.781 0.350987 4.14416 0
M  V30 2098 H 197.358 -1.3537 3.47461 0
M  V30 2099 N 199.544 -1.57102 0.125237 0
M  V30 2100 C 200.821 -1.86953 -0.575142 0
M  V30 2101 C 201.201 -1.02749 -1.84407 0
M  V30 2102 O 200.549 -0.108144 -2.28244 0
M  V30 2103 C 200.759 -3.38198 -0.861583 0
M  V30 2104 C 202.107 -4.06937 -1.21192 0
M  V30 2105 O 203.131 -3.43252 -0.951645 0
M  V30 2106 O 201.99 -5.19364 -1.70068 0
M  V30 2107 H 199.084 -0.774147 -0.290906 0
M  V30 2108 H 201.63 -1.68942 0.160211 0
M  V30 2109 H 200.402 -3.91282 0.0373647 0
M  V30 2110 H 200.025 -3.61661 -1.65188 0
M  V30 2111 N 201.022 0.148545 -1.56898 0
M  V30 2112 C 202.433 0.708766 -1.72723 0
M  V30 2113 C 202.784 1.81734 -0.739395 0
M  V30 2114 O 201.909 2.16194 0.0943169 0
M  V30 2115 C 202.504 1.29245 -3.13179 0
M  V30 2116 C 201.063 1.79925 -3.30611 0
M  V30 2117 C 200.21 0.687111 -2.68652 0
M  V30 2118 H 203.161 -0.0771063 -1.58513 0
M  V30 2119 H 203.182 2.16224 -3.13093 0
M  V30 2120 H 202.694 0.485382 -3.85053 0
M  V30 2121 H 200.795 2.63203 -2.63732 0
M  V30 2122 H 200.908 1.92903 -4.38549 0
M  V30 2123 H 199.272 1.11335 -2.29078 0
M  V30 2124 H 200.055 -0.108483 -3.43129 0
M  V30 2125 N 202.5 1.5196 0.417844 0
M  V30 2126 C 203.725 1.69717 1.1921 0
M  V30 2127 C 204.15 0.402148 1.83751 0
M  V30 2128 O 203.508 -0.639593 1.69643 0
M  V30 2129 C 203.556 2.82794 2.2374 0
M  V30 2130 O 202.66 2.47756 3.29683 0
M  V30 2131 H 202.001 0.565263 0.348387 0
M  V30 2132 H 204.531 1.98621 0.490985 0
M  V30 2133 H 204.541 3.07452 2.68212 0
M  V30 2134 H 203.216 3.76756 1.76146 0
M  V30 2135 H 201.793 2.33739 2.90552 0
M  V30 2136 N 203.978 -0.674533 1.42435 0
M  V30 2137 C 205.255 -1.4305 1.33402 0
M  V30 2138 C 205.635 -2.11081 -0.0284674 0
M  V30 2139 O 204.983 -2.03257 -1.04397 0
M  V30 2140 C 205.193 -2.43272 2.50239 0
M  V30 2141 C 206.541 -3.07907 2.92367 0
M  V30 2142 O 207.565 -2.53599 2.50132 0
M  V30 2143 O 206.424 -4.0632 3.65467 0
M  V30 2144 H 203.518 -0.638076 0.526106 0
M  V30 2145 H 206.064 -0.703235 1.54443 0
M  V30 2146 H 204.836 -1.91803 3.41068 0
M  V30 2147 H 204.459 -3.23479 2.31186 0
M  V30 2148 N 205.456 -1.28612 -0.910864 0
M  V30 2149 C 206.867 -1.14406 -1.47541 0
M  V30 2150 C 207.218 0.264901 -1.94403 0
M  V30 2151 O 206.343 1.15942 -1.82719 0
M  V30 2152 C 206.938 -2.07073 -2.68153 0
M  V30 2153 C 205.497 -1.96923 -3.20778 0
M  V30 2154 C 204.644 -1.98646 -1.93481 0
M  V30 2155 H 207.595 -1.41259 -0.723291 0
M  V30 2156 H 207.616 -1.63642 -3.43514 0
M  V30 2157 H 207.128 -3.09611 -2.34015 0
M  V30 2158 H 205.229 -0.97433 -3.59635 0
M  V30 2159 H 205.342 -2.84026 -3.85832 0
M  V30 2160 H 203.706 -1.43093 -2.10705 0
M  V30 2161 H 204.489 -3.02868 -1.61634 0
M  V30 2162 N 206.934 1.1197 -1.10907 0
M  V30 2163 C 207.882 2.19927 -0.757303 0
M  V30 2164 C 208.876 1.67564 0.248747 0
M  V30 2165 O 210.082 1.79672 0.108605 0
M  V30 2166 H 206.457 0.716925 -0.226987 0
M  V30 2167 H 208.428 2.46847 -1.67658 0
M  V30 2168 C 207.177 3.47061 -0.210671 0
M  V30 2169 H 206.5 3.87703 -0.976049 0
M  V30 2170 H 207.94 4.24 -0.0026584 0
M  V30 2171 C 206.399 3.19864 1.05777 0
M  V30 2172 O 206.929 3.40049 2.13845 0
M  V30 2173 N 205.135 2.73636 0.978349 0
M  V30 2174 H 204.682 2.5741 0.0988246 0
M  V30 2175 H 204.64 2.55815 1.82773 0
M  V30 2176 N 208.412 0.89855 1.29475 0
M  V30 2177 C 209.359 0.373819 2.27753 0
M  V30 2178 C 210.329 -0.543444 1.56958 0
M  V30 2179 O 211.514 -0.468934 1.84948 0
M  V30 2180 C 208.654 -0.393648 3.42848 0
M  V30 2181 C 207.767 0.554379 4.28428 0
M  V30 2182 C 206.902 -0.230026 5.30702 0
M  V30 2183 C 205.941 0.712599 6.07938 0
M  V30 2184 N 205.078 -0.0373283 7.0209 0
M  V30 2185 H 209.918 1.21699 2.72017 0
M  V30 2186 H 207.455 0.611456 1.33789 0
M  V30 2187 H 209.413 -0.85466 4.08352 0
M  V30 2188 H 208.043 -1.20128 2.99615 0
M  V30 2189 H 207.095 1.13391 3.63107 0
M  V30 2190 H 208.407 1.27597 4.82204 0
M  V30 2191 H 207.561 -0.752288 6.02018 0
M  V30 2192 H 206.3 -0.984758 4.77654 0
M  V30 2193 H 205.305 1.24637 5.35486 0
M  V30 2194 H 206.53 1.46664 6.63074 0
M  V30 2195 H 204.476 -0.774348 6.51414 0
M  V30 2196 H 204.393 0.624374 7.53417 0
M  V30 2197 H 205.661 -0.539891 7.77628 0
M  V30 2198 N 209.89 -1.43072 0.660911 0
M  V30 2199 C 211.167 -1.95307 0.107017 0
M  V30 2200 C 211.547 -1.60192 -1.37484 0
M  V30 2201 O 210.895 -0.890949 -2.10415 0
M  V30 2202 C 211.105 -3.47124 0.361402 0
M  V30 2203 C 212.453 -4.23738 0.270455 0
M  V30 2204 O 213.477 -3.54981 0.294382 0
M  V30 2205 O 212.336 -5.46131 0.200737 0
M  V30 2206 H 209.43 -0.826984 -0.00517729 0
M  V30 2207 H 211.976 -1.52972 0.734681 0
M  V30 2208 H 210.748 -3.65837 1.38848 0
M  V30 2209 H 210.371 -3.96475 -0.298953 0
M  V30 2210 N 211.368 -0.403325 -1.52352 0
M  V30 2211 C 212.301 0.469463 -2.23319 0
M  V30 2212 C 213.279 1.05272 -1.23922 0
M  V30 2213 O 214.463 1.10169 -1.52954 0
M  V30 2214 C 211.59 1.6511 -2.9573 0
M  V30 2215 C 210.636 1.19178 -4.0951 0
M  V30 2216 S 211.469 0.161718 -5.35256 0
M  V30 2217 C 212.625 1.34882 -6.11194 0
M  V30 2218 H 212.858 -0.133134 -2.97002 0
M  V30 2219 H 210.391 -0.187588 -1.53256 0
M  V30 2220 H 212.349 2.3287 -3.38056 0
M  V30 2221 H 211.01 2.22503 -2.21701 0
M  V30 2222 H 210.203 2.07444 -4.59329 0
M  V30 2223 H 209.805 0.592911 -3.6927 0
M  V30 2224 H 212.097 2.27345 -6.38217 0
M  V30 2225 H 213.04 0.89128 -7.02468 0
M  V30 2226 H 213.448 1.57198 -5.42171 0
M  V30 2227 N 212.846 1.57033 -0.133567 0
M  V30 2228 C 214.092 1.95976 0.521649 0
M  V30 2229 C 214.425 1.01779 1.65393 0
M  V30 2230 O 213.7 0.0576581 1.94415 0
M  V30 2231 C 213.983 3.44738 1.04057 0
M  V30 2232 C 213.836 4.49711 -0.0892897 0
M  V30 2233 C 215.155 3.95682 1.92675 0
M  V30 2234 H 212.274 0.712579 0.188149 0
M  V30 2235 H 214.916 1.88813 -0.212076 0
M  V30 2236 H 213.066 3.50973 1.66583 0
M  V30 2237 H 214.738 4.55565 -0.725152 0
M  V30 2238 H 212.981 4.27261 -0.750378 0
M  V30 2239 H 213.652 5.51099 0.315284 0
M  V30 2240 H 216.128 3.91841 1.39998 0
M  V30 2241 H 215.004 5.00262 2.25897 0
M  V30 2242 H 215.265 3.37239 2.85872 0
M  V30 2243 N 214.325 -0.140222 1.56975 0
M  V30 2244 C 215.571 -0.852949 1.83991 0
M  V30 2245 C 215.904 -1.80512 0.716187 0
M  V30 2246 O 215.179 -1.92479 -0.279681 0
M  V30 2247 C 215.462 -1.6215 3.21527 0
M  V30 2248 C 215.315 -0.690363 4.4447 0
M  V30 2249 C 216.634 -2.58247 3.56366 0
M  V30 2250 H 213.753 -0.308634 0.669264 0
M  V30 2251 H 216.395 -0.117898 1.89634 0
M  V30 2252 H 214.545 -2.24812 3.16847 0
M  V30 2253 H 216.217 -0.0742264 4.6124 0
M  V30 2254 H 214.46 -0.000396433 4.338 0
M  V30 2255 H 215.131 -1.2643 5.37326 0
M  V30 2256 H 217.607 -2.05701 3.61699 0
M  V30 2257 H 216.483 -3.09067 4.53617 0
M  V30 2258 H 216.744 -3.39923 2.82674 0
M  V30 2259 N 215.803 -1.52179 -0.40978 0
M  V30 2260 C 216.735 -1.71703 -1.51825 0
M  V30 2261 C 217.748 -0.597445 -1.51441 0
M  V30 2262 O 218.937 -0.872582 -1.55719 0
M  V30 2263 C 216.037 -1.74171 -2.90719 0
M  V30 2264 C 215.21 -3.03156 -3.15302 0
M  V30 2265 C 214.269 -2.97445 -4.34065 0
M  V30 2266 O 213.295 -3.71352 -4.31377 0
M  V30 2267 N 214.497 -2.15191 -5.39141 0
M  V30 2268 H 217.262 -2.67334 -1.35472 0
M  V30 2269 H 214.823 -1.50409 -0.599069 0
M  V30 2270 H 216.815 -1.67884 -3.68235 0
M  V30 2271 H 215.385 -0.860166 -3.00533 0
M  V30 2272 H 214.605 -3.23097 -2.25836 0
M  V30 2273 H 215.893 -3.88484 -3.28569 0
M  V30 2274 H 215.291 -1.54573 -5.44173 0
M  V30 2275 H 213.848 -2.1476 -6.15403 0
M  V30 2276 N 217.281 0.66697 -1.42791 0
M  V30 2277 C 218.211 1.79218 -1.49677 0
M  V30 2278 C 219.192 1.66405 -0.352623 0
M  V30 2279 O 220.377 1.85708 -0.567993 0
M  V30 2280 C 217.507 3.17565 -1.40605 0
M  V30 2281 C 216.461 3.45124 -2.53127 0
M  V30 2282 C 215.787 4.83127 -2.29112 0
M  V30 2283 C 217.087 3.41236 -3.95418 0
M  V30 2284 H 218.781 1.73713 -2.43853 0
M  V30 2285 H 216.327 0.83432 -1.17367 0
M  V30 2286 H 218.28 3.96022 -1.44029 0
M  V30 2287 H 217.004 3.23767 -0.429271 0
M  V30 2288 H 215.663 2.69031 -2.49034 0
M  V30 2289 H 215.311 4.85988 -1.29709 0
M  V30 2290 H 215.011 5.02528 -3.04531 0
M  V30 2291 H 216.535 5.63859 -2.34297 0
M  V30 2292 H 217.949 4.09651 -4.01073 0
M  V30 2293 H 216.346 3.72173 -4.70752 0
M  V30 2294 H 217.416 2.39665 -4.21532 0
M  V30 2295 N 218.759 1.29093 0.90403 0
M  V30 2296 C 220.008 1.16187 1.64874 0
M  V30 2297 C 220.321 -0.286742 1.93487 0
M  V30 2298 O 221.527 -0.537062 2.66135 0
M  V30 2299 C 219.983 2.03177 2.97064 0
M  V30 2300 C 219.591 3.52836 2.76062 0
M  V30 2301 C 221.335 1.98984 3.74974 0
M  V30 2302 C 219.242 4.31945 4.03952 0
M  V30 2303 H 218.172 0.431246 0.618501 0
M  V30 2304 H 220.823 1.53699 1.00243 0
M  V30 2305 H 219.205 1.5853 3.62883 0
M  V30 2306 H 220.379 4.05507 2.18863 0
M  V30 2307 H 218.694 3.58656 2.11553 0
M  V30 2308 H 221.291 2.55351 4.69787 0
M  V30 2309 H 221.634 0.968815 4.0487 0
M  V30 2310 H 222.167 2.41652 3.15989 0
M  V30 2311 H 218.906 5.34667 3.79225 0
M  V30 2312 H 218.426 3.84045 4.60727 0
M  V30 2313 H 220.105 4.42379 4.72133 0
M  V30 2314 N 220.237 -1.11381 1.11499 0
M  V30 2315 C 221.514 -1.7955 0.775965 0
M  V30 2316 C 221.894 -1.97859 -0.73588 0
M  V30 2317 O 221.242 -1.56376 -1.66609 0
M  V30 2318 C 221.452 -3.13196 1.53977 0
M  V30 2319 C 222.8 -3.88227 1.71944 0
M  V30 2320 O 223.824 -3.22887 1.50407 0
M  V30 2321 O 222.683 -5.05477 2.07738 0
M  V30 2322 H 219.777 -0.777728 0.28119 0
M  V30 2323 H 222.323 -1.18118 1.21845 0
M  V30 2324 H 221.095 -2.95229 2.56818 0
M  V30 2325 H 220.718 -3.82342 1.09088 0
M  V30 2326 N 221.715 -0.905404 -1.28997 0
M  V30 2327 C 222.992 -0.453513 -1.9027 0
M  V30 2328 C 223.372 1.06721 -1.82137 0
M  V30 2329 O 222.72 1.91159 -1.25182 0
M  V30 2330 C 222.93 -0.974494 -3.35119 0
M  V30 2331 C 224.278 -1.0216 -4.12127 0
M  V30 2332 O 225.302 -0.922557 -3.44046 0
M  V30 2333 O 224.161 -1.17121 -5.33802 0
M  V30 2334 H 221.255 -0.142347 -0.814657 0
M  V30 2335 H 223.801 -0.995642 -1.37423 0
M  V30 2336 H 222.573 -2.01848 -3.35221 0
M  V30 2337 H 222.196 -0.412706 -3.95452 0
M  V30 2338 N 223.193 1.4272 -0.668489 0
M  V30 2339 C 224.44 2.01624 -0.18814 0
M  V30 2340 C 224.768 1.5282 1.20317 0
M  V30 2341 O 224.023 0.718323 1.8204 0
M  V30 2342 C 224.322 3.57021 -0.164499 0
M  V30 2343 C 223.988 4.25232 -1.49962 0
M  V30 2344 C 222.65 4.4358 -1.8652 0
M  V30 2345 C 225.002 4.63727 -2.37921 0
M  V30 2346 C 222.33 4.97694 -3.10674 0
M  V30 2347 C 224.682 5.19218 -3.6138 0
M  V30 2348 C 223.346 5.3578 -3.98115 0
M  V30 2349 H 222.616 0.737795 -0.0688454 0
M  V30 2350 H 225.263 1.70991 -0.862225 0
M  V30 2351 H 223.568 3.87285 0.593079 0
M  V30 2352 H 225.265 4.00372 0.224271 0
M  V30 2353 H 221.855 4.11306 -1.20522 0
M  V30 2354 H 226.039 4.4923 -2.10964 0
M  V30 2355 H 221.295 5.08702 -3.39164 0
M  V30 2356 H 225.469 5.4799 -4.29743 0
M  V30 2357 H 223.096 5.77475 -4.94395 0
M  V30 2358 N 224.671 0.411399 1.52136 0
M  V30 2359 C 225.618 -0.412975 2.27075 0
M  V30 2360 C 226.588 -1.03912 1.29582 0
M  V30 2361 O 227.773 -1.06296 1.58448 0
M  V30 2362 C 224.913 -1.52247 3.09701 0
M  V30 2363 C 224.026 -0.917021 4.22155 0
M  V30 2364 C 223.161 -1.9994 4.92135 0
M  V30 2365 C 222.2 -1.37101 5.96548 0
M  V30 2366 N 221.337 -2.39364 6.60038 0
M  V30 2367 H 226.177 0.232499 2.97092 0
M  V30 2368 H 223.714 0.126496 1.46555 0
M  V30 2369 H 225.672 -2.17674 3.55913 0
M  V30 2370 H 224.302 -2.13794 2.41851 0
M  V30 2371 H 223.354 -0.151742 3.80097 0
M  V30 2372 H 224.666 -0.418006 4.97045 0
M  V30 2373 H 223.82 -2.73088 5.41763 0
M  V30 2374 H 222.559 -2.53208 4.16818 0
M  V30 2375 H 221.564 -0.624873 5.46237 0
M  V30 2376 H 222.789 -0.845998 6.7381 0
M  V30 2377 H 220.735 -2.91759 5.87548 0
M  V30 2378 H 220.652 -1.9428 7.3061 0
M  V30 2379 H 221.92 -3.12074 7.14304 0
M  V30 2380 N 226.149 -1.5696 0.141893 0
M  V30 2381 C 227.398 -1.95135 -0.510427 0
M  V30 2382 C 227.711 -1.02896 -1.66348 0
M  V30 2383 O 228.917 -1.30629 -2.38009 0
M  V30 2384 C 227.373 -3.46876 -0.959427 0
M  V30 2385 C 226.981 -4.47691 0.166419 0
M  V30 2386 C 228.725 -3.93927 -1.58183 0
M  V30 2387 C 226.632 -5.90636 -0.300565 0
M  V30 2388 H 225.562 -0.728494 -0.194454 0
M  V30 2389 H 228.213 -1.8211 0.22542 0
M  V30 2390 H 226.595 -3.55215 -1.75038 0
M  V30 2391 H 227.769 -4.51043 0.94325 0
M  V30 2392 H 226.084 -4.10527 0.696905 0
M  V30 2393 H 228.681 -4.98158 -1.94275 0
M  V30 2394 H 229.024 -3.3519 -2.46888 0
M  V30 2395 H 229.557 -3.88484 -0.855863 0
M  V30 2396 H 226.296 -6.5318 0.550989 0
M  V30 2397 H 225.816 -5.90655 -1.04338 0
M  V30 2398 H 227.495 -6.42588 -0.754265 0
M  V30 2399 N 227.627 0.131896 -1.57047 0
M  V30 2400 C 228.852 0.860418 -1.8871 0
M  V30 2401 C 229.277 1.73251 -0.73251 0
M  V30 2402 O 228.635 1.785 0.317429 0
M  V30 2403 C 228.683 1.68047 -3.19049 0
M  V30 2404 O 227.787 2.7862 -3.04047 0
M  V30 2405 H 227.128 0.238743 -0.619595 0
M  V30 2406 H 229.658 0.118169 -2.04258 0
M  V30 2407 H 229.668 2.07238 -3.51449 0
M  V30 2408 H 228.343 1.04018 -4.02682 0
M  V30 2409 H 226.92 2.42726 -2.83088 0
M  V30 2410 N 229.106 1.52395 0.401703 0
M  V30 2411 C 230.354 1.66488 1.14569 0
M  V30 2412 C 230.675 0.400897 1.90835 0
M  V30 2413 O 229.945 -0.584415 1.8698 0
M  V30 2414 H 228.525 0.613672 0.425929 0
M  V30 2415 H 231.187 1.89464 0.457093 0
M  V30 2416 H 230.283 2.50942 1.85566 0
M  V30 2417 N 230.584 -0.659388 1.43143 0
M  V30 2418 C 231.517 -1.78425 1.42267 0
M  V30 2419 C 232.495 -1.60085 0.284894 0
M  V30 2420 O 233.679 -1.82351 0.477527 0
M  V30 2421 C 230.806 -3.15642 1.22833 0
M  V30 2422 C 229.852 -3.52698 2.39806 0
M  V30 2423 S 230.685 -3.53372 4.02353 0
M  V30 2424 C 231.841 -4.93256 3.85291 0
M  V30 2425 H 232.074 -1.78897 2.37452 0
M  V30 2426 H 229.607 -0.831469 1.301 0
M  V30 2427 H 231.565 -3.94838 1.12308 0
M  V30 2428 H 230.226 -3.12739 0.29207 0
M  V30 2429 H 229.419 -4.52475 2.21996 0
M  V30 2430 H 229.021 -2.80899 2.46925 0
M  V30 2431 H 231.313 -5.81751 3.47235 0
M  V30 2432 H 232.256 -5.16115 4.84799 0
M  V30 2433 H 232.664 -4.665 3.17865 0
M  V30 2434 N 232.062 -1.29571 -0.897171 0
M  V30 2435 C 233.01 -1.14802 -2.02295 0
M  V30 2436 C 234.004 -0.0629637 -1.69283 0
M  V30 2437 O 235.21 -0.222945 -1.78614 0
M  V30 2438 H 231.585 -0.354692 -0.663097 0
M  V30 2439 H 233.556 -2.10108 -2.11889 0
M  V30 2440 C 232.305 -0.843966 -3.37302 0
M  V30 2441 H 231.628 -1.67093 -3.63208 0
M  V30 2442 H 233.068 -0.780672 -4.16751 0
M  V30 2443 C 231.527 0.452843 -3.33843 0
M  V30 2444 O 232.057 1.47813 -3.73516 0
M  V30 2445 N 230.263 0.459601 -2.86943 0
M  V30 2446 H 229.81 -0.375213 -2.54853 0
M  V30 2447 H 229.768 1.32726 -2.85011 0
M  V30 2448 N 233.54 1.10788 -1.12088 0
M  V30 2449 C 234.788 1.8231 -0.872205 0
M  V30 2450 C 235.109 1.85419 0.603709 0
M  V30 2451 O 234.379 1.32963 1.43867 0
M  V30 2452 H 232.959 0.675137 -0.319686 0
M  V30 2453 H 235.621 1.34068 -1.41463 0
M  V30 2454 H 234.717 2.85955 -1.25045 0
M  V30 2455 N 235.018 0.912232 1.28515 0
M  V30 2456 C 236.267 0.540504 1.94323 0
M  V30 2457 C 236.58 -0.920044 1.72611 0
M  V30 2458 O 237.786 -1.39986 2.32629 0
M  V30 2459 C 236.242 0.915803 3.48053 0
M  V30 2460 C 235.85 2.39598 3.78546 0
M  V30 2461 C 237.594 0.614588 4.20027 0
M  V30 2462 C 235.501 2.71148 5.25578 0
M  V30 2463 H 234.431 0.198418 0.727424 0
M  V30 2464 H 237.082 1.11094 1.46049 0
M  V30 2465 H 235.464 0.274168 3.9505 0
M  V30 2466 H 236.638 3.08422 3.42364 0
M  V30 2467 H 234.953 2.66749 3.1974 0
M  V30 2468 H 237.55 0.827002 5.28266 0
M  V30 2469 H 237.893 -0.447531 4.13887 0
M  V30 2470 H 238.426 1.21462 3.78803 0
M  V30 2471 H 235.165 3.76207 5.36794 0
M  V30 2472 H 234.685 2.0696 5.62963 0
M  V30 2473 H 236.364 2.58072 5.93302 0
M  V30 2474 N 236.496 -1.42363 0.676048 0
M  V30 2475 C 237.446 -2.27987 -0.0242903 0
M  V30 2476 C 238.43 -1.41153 -0.772319 0
M  V30 2477 O 239.622 -1.64592 -0.651025 0
M  V30 2478 C 236.751 -3.29195 -0.973953 0
M  V30 2479 C 235.837 -4.23512 -0.223202 0
M  V30 2480 N 236.228 -4.99865 0.772589 0
M  V30 2481 C 234.526 -4.43606 -0.461469 0
M  V30 2482 C 235.227 -5.68757 1.22027 0
M  V30 2483 N 234.203 -5.40811 0.549975 0
M  V30 2484 H 238.005 -2.84445 0.73949 0
M  V30 2485 H 235.519 -1.54341 0.50522 0
M  V30 2486 H 237.516 -3.89339 -1.49067 0
M  V30 2487 H 236.176 -2.74298 -1.73755 0
M  V30 2488 H 237.187 -5.04921 1.15217 0
M  V30 2489 H 233.864 -3.99749 -1.20446 0
M  V30 2490 H 235.254 -6.40007 2.0455 0
M  V30 2491 N 237.974 -0.419461 -1.51915 0
M  V30 2492 C 239.22 0.153166 -2.02221 0
M  V30 2493 C 239.553 1.43907 -1.30401 0
M  V30 2494 O 238.828 1.90055 -0.413438 0
M  V30 2495 C 239.111 0.390291 -3.57979 0
M  V30 2496 C 238.964 -0.913014 -4.40436 0
M  V30 2497 C 240.283 1.16794 -4.2432 0
M  V30 2498 H 237.402 0.0541924 -0.735005 0
M  V30 2499 H 240.044 -0.554955 -1.81715 0
M  V30 2500 H 238.194 0.993491 -3.75582 0
M  V30 2501 H 239.866 -1.54882 -4.34522 0
M  V30 2502 H 238.109 -1.52168 -4.06236 0
M  V30 2503 H 238.78 -0.701361 -5.47526 0
M  V30 2504 H 241.256 0.657161 -4.10878 0
M  V30 2505 H 240.132 1.3026 -5.3322 0
M  V30 2506 H 240.393 2.19132 -3.83971 0
M  V30 2507 N 239.452 1.56882 -0.150215 0
M  V30 2508 C 240.692 1.98119 0.502804 0
M  V30 2509 C 241.056 1.03327 1.61826 0
M  V30 2510 O 242.257 1.33621 2.33236 0
M  V30 2511 C 240.528 3.43329 0.992988 0
M  V30 2512 S 242.087 4.0659 1.65015 0
M  V30 2513 H 238.905 0.692189 0.162467 0
M  V30 2514 H 241.507 1.93988 -0.242689 0
M  V30 2515 H 240.211 4.10046 0.170436 0
M  V30 2516 H 239.742 3.5118 1.77303 0
M  V30 2517 H 241.757 3.99906 2.93752 0
M  V30 2518 N 240.93 -0.123565 1.57115 0
M  V30 2519 C 241.863 -1.18202 1.95201 0
M  V30 2520 C 242.841 -1.40349 0.821031 0
M  V30 2521 O 244.025 -1.54578 1.07879 0
M  V30 2522 C 241.152 -2.53671 2.24429 0
M  V30 2523 C 240.198 -2.4798 3.46999 0
M  V30 2524 S 241.031 -1.92389 4.99747 0
M  V30 2525 C 242.187 -3.2954 5.32123 0
M  V30 2526 H 242.42 -0.857212 2.84674 0
M  V30 2527 H 239.953 -0.33014 1.50829 0
M  V30 2528 H 241.911 -3.3162 2.41947 0
M  V30 2529 H 240.572 -2.83332 1.35579 0
M  V30 2530 H 239.765 -3.47758 3.64801 0
M  V30 2531 H 239.367 -1.7815 3.28844 0
M  V30 2532 H 241.659 -4.25736 5.27025 0
M  V30 2533 H 242.602 -3.16569 6.33395 0
M  V30 2534 H 243.01 -3.27758 4.59603 0
M  V30 2535 N 242.408 -1.52605 -0.393616 0
M  V30 2536 C 243.654 -1.67672 -1.14079 0
M  V30 2537 C 243.987 -0.413121 -1.89755 0
M  V30 2538 O 243.262 0.588952 -1.85369 0
M  V30 2539 C 243.545 -2.9088 -2.12276 0
M  V30 2540 C 243.398 -4.27329 -1.40394 0
M  V30 2541 C 244.717 -3.09628 -3.12759 0
M  V30 2542 H 241.836 -0.610168 -0.413356 0
M  V30 2543 H 244.478 -1.85193 -0.424696 0
M  V30 2544 H 242.628 -2.76073 -2.73342 0
M  V30 2545 H 244.3 -4.53894 -0.82327 0
M  V30 2546 H 242.543 -4.2802 -0.705801 0
M  V30 2547 H 243.214 -5.09615 -2.12123 0
M  V30 2548 H 245.69 -3.23436 -2.61779 0
M  V30 2549 H 244.566 -3.97322 -3.78717 0
M  V30 2550 H 244.827 -2.23637 -3.81365 0
M  V30 2551 N 243.887 0.651787 -1.4349 0
M  V30 2552 C 245.134 1.41167 -1.45183 0
M  V30 2553 C 245.462 1.94349 -0.0766601 0
M  V30 2554 O 244.717 1.72804 0.918555 0
M  V30 2555 C 245.016 2.60914 -2.44251 0
M  V30 2556 C 244.682 2.26142 -3.9009 0
M  V30 2557 C 243.344 2.16371 -4.2981 0
M  V30 2558 C 245.696 1.98334 -4.81989 0
M  V30 2559 C 243.024 1.7695 -5.5938 0
M  V30 2560 C 245.376 1.6041 -6.11924 0
M  V30 2561 C 244.04 1.49166 -6.5062 0
M  V30 2562 H 243.31 0.516566 -0.531263 0
M  V30 2563 H 245.957 0.741099 -1.76579 0
M  V30 2564 H 244.262 3.3311 -2.06265 0
M  V30 2565 H 245.959 3.19127 -2.42815 0
M  V30 2566 H 242.549 2.34658 -3.58655 0
M  V30 2567 H 246.733 2.04803 -4.52072 0
M  V30 2568 H 241.989 1.66831 -5.88198 0
M  V30 2569 H 246.163 1.37925 -6.82605 0
M  V30 2570 H 243.79 1.1839 -7.50925 0
M  V30 2571 N 245.365 1.30045 0.890287 0
M  V30 2572 C 246.275 1.17885 2.02831 0
M  V30 2573 C 247.291 0.0999609 1.73713 0
M  V30 2574 O 248.467 0.313867 1.98939 0
M  V30 2575 C 245.532 0.866079 3.35708 0
M  V30 2576 C 244.593 2.02979 3.78283 0
M  V30 2577 C 243.826 1.73184 5.0482 0
M  V30 2578 O 244.049 0.657237 5.66601 0
M  V30 2579 O 242.983 2.58267 5.43674 0
M  V30 2580 H 246.809 2.13474 2.16015 0
M  V30 2581 H 244.394 1.09587 1.01543 0
M  V30 2582 H 246.276 0.706623 4.15433 0
M  V30 2583 H 244.951 -0.0599443 3.23644 0
M  V30 2584 H 243.858 2.24454 2.99285 0
M  V30 2585 H 245.191 2.93734 3.94944 0
M  V30 2586 N 246.843 -1.10192 1.12674 0
M  V30 2587 C 248.089 -1.82475 0.884915 0
M  V30 2588 C 248.422 -1.85093 -0.58773 0
M  V30 2589 O 247.697 -1.3134 -1.43457 0
M  V30 2590 C 247.98 -3.29018 1.46353 0
M  V30 2591 C 247.833 -3.34718 3.00473 0
M  V30 2592 C 249.152 -4.25473 1.12519 0
M  V30 2593 H 246.271 -0.662492 0.322915 0
M  V30 2594 H 248.913 -1.2913 1.39375 0
M  V30 2595 H 247.063 -3.74576 1.03077 0
M  V30 2596 H 248.735 -2.97622 3.52447 0
M  V30 2597 H 246.978 -2.74541 3.35872 0
M  V30 2598 H 247.649 -4.37918 3.36053 0
M  V30 2599 H 250.125 -3.88161 1.499 0
M  V30 2600 H 249.001 -5.26365 1.55663 0
M  V30 2601 H 249.262 -4.42084 0.0377407 0
M  V30 2602 N 248.321 -0.919034 -1.28029 0
M  V30 2603 C 249.251 -0.428581 -2.29533 0
M  V30 2604 C 250.232 0.50659 -1.62381 0
M  V30 2605 O 251.417 0.413195 -1.89753 0
M  V30 2606 C 248.547 0.327388 -3.45753 0
M  V30 2607 C 247.501 -0.519137 -4.2484 0
M  V30 2608 C 246.827 0.365486 -5.33449 0
M  V30 2609 C 248.127 -1.77914 -4.91064 0
M  V30 2610 H 249.821 -1.27687 -2.70807 0
M  V30 2611 H 247.367 -0.615428 -1.30186 0
M  V30 2612 H 249.32 0.681378 -4.15855 0
M  V30 2613 H 248.044 1.20963 -3.03374 0
M  V30 2614 H 246.703 -0.855717 -3.56473 0
M  V30 2615 H 246.351 1.24642 -4.87312 0
M  V30 2616 H 246.051 -0.197356 -5.87268 0
M  V30 2617 H 247.575 0.715241 -6.06396 0
M  V30 2618 H 248.989 -1.49374 -5.53498 0
M  V30 2619 H 247.386 -2.2848 -5.54903 0
M  V30 2620 H 248.456 -2.50382 -4.15255 0
M  V30 2621 N 249.799 1.42003 -0.683588 0
M  V30 2622 C 251.047 2.01015 -0.209101 0
M  V30 2623 C 251.368 1.54365 1.19149 0
M  V30 2624 O 250.638 0.769083 1.80172 0
M  V30 2625 H 249.218 0.743294 -0.074315 0
M  V30 2626 H 251.88 1.73798 -0.882066 0
M  V30 2627 H 250.976 3.11343 -0.2172 0
M  V30 2628 N 251.277 0.427512 1.51691 0
M  V30 2629 C 252.227 -0.406604 2.24345 0
M  V30 2630 C 253.211 -0.998276 1.26187 0
M  V30 2631 O 254.403 -0.918045 1.51331 0
M  V30 2632 C 251.532 -1.51266 3.08177 0
M  V30 2633 C 250.618 -0.930868 4.13758 0
M  V30 2634 N 251.009 -0.0773552 5.05741 0
M  V30 2635 C 249.307 -1.19948 4.29568 0
M  V30 2636 C 250.008 0.248344 5.8117 0
M  V30 2637 N 248.984 -0.365535 5.4237 0
M  V30 2638 H 252.786 0.251581 2.92821 0
M  V30 2639 H 250.3 0.239003 1.60632 0
M  V30 2640 H 252.297 -2.123 3.58796 0
M  V30 2641 H 250.957 -2.17328 2.41244 0
M  V30 2642 H 251.968 0.288351 5.17097 0
M  V30 2643 H 248.645 -1.85832 3.73862 0
M  V30 2644 H 250.035 0.942286 6.6526 0
M  V30 2645 N 252.755 -1.56801 0.158532 0
M  V30 2646 C 253.705 -2.13923 -0.788738 0
M  V30 2647 C 254.689 -1.07006 -1.2016 0
M  V30 2648 O 255.881 -1.33159 -1.1661 0
M  V30 2649 C 253.01 -2.77348 -2.02319 0
M  V30 2650 C 252.096 -3.91404 -1.6329 0
M  V30 2651 N 252.487 -4.9677 -0.951463 0
M  V30 2652 C 250.785 -4.02326 -1.92482 0
M  V30 2653 C 251.486 -5.76698 -0.761221 0
M  V30 2654 N 250.462 -5.27859 -1.29869 0
M  V30 2655 H 254.264 -2.92757 -0.258995 0
M  V30 2656 H 251.778 -1.62344 -0.0426055 0
M  V30 2657 H 253.775 -3.16639 -2.71192 0
M  V30 2658 H 252.435 -1.99991 -2.558 0
M  V30 2659 H 253.446 -5.14284 -0.610928 0
M  V30 2660 H 250.123 -3.36059 -2.47732 0
M  V30 2661 H 251.513 -6.71529 -0.223284 0
M  V30 2662 N 254.233 0.115231 -1.57178 0
M  V30 2663 C 255.163 1.1423 -2.03651 0
M  V30 2664 C 256.144 1.42967 -0.921655 0
M  V30 2665 O 257.329 1.53343 -1.19162 0
M  V30 2666 C 254.459 2.4675 -2.44401 0
M  V30 2667 C 253.413 2.32467 -3.59365 0
M  V30 2668 C 252.739 3.69984 -3.86026 0
M  V30 2669 C 254.039 1.78203 -4.90959 0
M  V30 2670 H 255.733 0.755749 -2.89705 0
M  V30 2671 H 253.279 0.362093 -1.39373 0
M  V30 2672 H 255.232 3.18854 -2.75517 0
M  V30 2673 H 253.956 2.87302 -1.55322 0
M  V30 2674 H 252.615 1.62811 -3.28463 0
M  V30 2675 H 252.263 4.08028 -2.94147 0
M  V30 2676 H 251.963 3.61279 -4.63412 0
M  V30 2677 H 253.487 4.43587 -4.19599 0
M  V30 2678 H 254.901 2.40128 -5.20587 0
M  V30 2679 H 253.298 1.8031 -5.72371 0
M  V30 2680 H 254.368 0.739876 -4.79222 0
M  V30 2681 N 255.711 1.52812 0.385517 0
M  V30 2682 C 256.641 1.80808 1.47752 0
M  V30 2683 C 257.622 0.660318 1.5676 0
M  V30 2684 O 258.807 0.908246 1.71652 0
M  V30 2685 C 255.937 1.98008 2.85324 0
M  V30 2686 C 254.891 3.13709 2.91154 0
M  V30 2687 C 254.217 3.16169 4.31209 0
M  V30 2688 C 255.517 4.52709 2.60483 0
M  V30 2689 H 257.211 2.72253 1.24573 0
M  V30 2690 H 254.757 1.31003 0.597839 0
M  V30 2691 H 256.71 2.16176 3.61726 0
M  V30 2692 H 255.434 1.03255 3.09848 0
M  V30 2693 H 254.093 2.95329 2.17201 0
M  V30 2694 H 253.741 2.19092 4.52778 0
M  V30 2695 H 253.441 3.93894 4.36029 0
M  V30 2696 H 254.965 3.36496 5.09512 0
M  V30 2697 H 256.379 4.71173 3.26602 0
M  V30 2698 H 254.776 5.32528 2.76648 0
M  V30 2699 H 255.846 4.59186 1.55809 0
M  V30 2700 N 257.189 -0.644168 1.43834 0
M  V30 2701 C 258.136 -1.75671 1.49694 0
M  V30 2702 C 259.106 -1.6246 0.345809 0
M  V30 2703 O 260.291 -1.82573 0.554234 0
M  V30 2704 C 257.431 -3.13867 1.43463 0
M  V30 2705 C 256.544 -3.38147 2.6885 0
M  V30 2706 C 255.679 -4.66241 2.54544 0
M  V30 2707 C 254.718 -4.83657 3.75157 0
M  V30 2708 N 253.855 -6.03016 3.59605 0
M  V30 2709 H 258.695 -1.69998 2.44754 0
M  V30 2710 H 256.232 -0.829458 1.21484 0
M  V30 2711 H 258.19 -3.9377 1.37843 0
M  V30 2712 H 256.82 -3.18588 0.519783 0
M  V30 2713 H 255.872 -2.52276 2.84712 0
M  V30 2714 H 257.184 -3.46899 3.58417 0
M  V30 2715 H 256.338 -5.54285 2.46683 0
M  V30 2716 H 255.077 -4.59826 1.62516 0
M  V30 2717 H 254.082 -3.94046 3.83416 0
M  V30 2718 H 255.307 -4.91896 4.68204 0
M  V30 2719 H 253.253 -5.97715 2.7032 0
M  V30 2720 H 253.17 -6.12766 4.42779 0
M  V30 2721 H 254.438 -6.93657 3.55613 0
M  V30 2722 N 258.668 -1.30515 -0.883378 0
M  V30 2723 C 259.914 -1.20617 -1.63778 0
M  V30 2724 C 260.269 0.236469 -1.90941 0
M  V30 2725 O 259.562 1.16596 -1.52039 0
M  V30 2726 C 259.756 -1.96994 -2.98209 0
M  V30 2727 C 259.585 -3.48537 -2.84169 0
M  V30 2728 C 258.355 -4.17893 -2.84067 0
M  V30 2729 C 260.553 -4.43738 -2.60001 0
M  V30 2730 N 258.535 -5.55685 -2.60936 0
M  V30 2731 C 259.906 -5.69105 -2.46007 0
M  V30 2732 C 261.961 -4.33316 -2.45239 0
M  V30 2733 C 260.664 -6.8523 -2.18752 0
M  V30 2734 C 262.69 -5.4921 -2.19369 0
M  V30 2735 C 262.052 -6.73558 -2.06153 0
M  V30 2736 H 258.151 -0.496434 -0.604216 0
M  V30 2737 H 260.735 -1.64544 -1.04083 0
M  V30 2738 H 258.906 -1.55455 -3.55933 0
M  V30 2739 H 260.638 -1.79225 -3.62851 0
M  V30 2740 H 257.393 -3.69739 -2.95956 0
M  V30 2741 H 257.817 -6.28199 -2.52378 0
M  V30 2742 H 262.459 -3.37856 -2.54191 0
M  V30 2743 H 260.177 -7.80729 -2.08537 0
M  V30 2744 H 263.763 -5.43054 -2.08766 0
M  V30 2745 H 262.643 -7.61721 -1.86416 0
M  V30 2746 N 260.146 1.09593 -1.13257 0
M  V30 2747 C 261.395 1.81105 -0.887917 0
M  V30 2748 C 261.708 1.86563 0.587672 0
M  V30 2749 O 262.914 2.54367 0.949204 0
M  V30 2750 C 261.37 3.25338 -1.53895 0
M  V30 2751 C 260.978 3.28151 -3.04994 0
M  V30 2752 C 262.722 4.01617 -1.37492 0
M  V30 2753 C 260.629 4.66897 -3.6299 0
M  V30 2754 H 259.559 0.678661 -0.328534 0
M  V30 2755 H 262.21 1.23183 -1.36008 0
M  V30 2756 H 260.592 3.8331 -0.994446 0
M  V30 2757 H 261.766 2.79953 -3.66009 0
M  V30 2758 H 260.081 2.65361 -3.20893 0
M  V30 2759 H 262.678 5.04119 -1.78235 0
M  V30 2760 H 263.021 4.15072 -0.31957 0
M  V30 2761 H 263.554 3.50082 -1.88912 0
M  V30 2762 H 260.293 4.58643 -4.68323 0
M  V30 2763 H 259.813 5.15426 -3.06752 0
M  V30 2764 H 261.492 5.3587 -3.62563 0
M  V30 2765 N 261.624 0.925811 1.2754 0
M  V30 2766 C 262.873 0.561084 1.93739 0
M  V30 2767 C 263.186 -0.901685 1.73577 0
M  V30 2768 O 264.392 -1.37511 2.34101 0
M  V30 2769 C 262.848 0.952668 3.47062 0
M  V30 2770 C 262.456 2.43599 3.75983 0
M  V30 2771 C 264.2 0.659103 4.19352 0
M  V30 2772 C 262.107 2.76707 5.22673 0
M  V30 2773 H 261.037 0.206122 0.725279 0
M  V30 2774 H 263.688 1.12637 1.44863 0
M  V30 2775 H 262.07 0.316053 3.94737 0
M  V30 2776 H 263.244 3.12035 3.39073 0
M  V30 2777 H 261.559 2.70125 3.16893 0
M  V30 2778 H 264.156 0.882985 5.27359 0
M  V30 2779 H 264.499 -0.403607 4.14339 0
M  V30 2780 H 265.032 1.25473 3.77494 0
M  V30 2781 H 261.771 3.8188 5.32774 0
M  V30 2782 H 261.291 2.12919 5.60737 0
M  V30 2783 H 262.97 2.6435 5.90532 0
M  V30 2784 N 263.102 -1.41638 0.69111 0
M  V30 2785 C 264.049 -2.30789 0.0229705 0
M  V30 2786 C 265.019 -1.46863 -0.775911 0
M  V30 2787 O 266.204 -1.75661 -0.74485 0
M  V30 2788 C 263.344 -3.32868 -0.910666 0
M  V30 2789 C 262.457 -4.31875 -0.103874 0
M  V30 2790 C 261.592 -5.21024 -1.03475 0
M  V30 2791 C 260.631 -6.11702 -0.220598 0
M  V30 2792 N 259.768 -6.93349 -1.10504 0
M  V30 2793 H 264.608 -2.87366 0.788978 0
M  V30 2794 H 262.145 -1.41535 0.400794 0
M  V30 2795 H 264.103 -3.90596 -1.46597 0
M  V30 2796 H 262.733 -2.77851 -1.64312 0
M  V30 2797 H 261.785 -3.76131 0.568285 0
M  V30 2798 H 263.097 -4.96003 0.527504 0
M  V30 2799 H 262.251 -5.83565 -1.65943 0
M  V30 2800 H 260.99 -4.57112 -1.69999 0
M  V30 2801 H 259.995 -5.48215 0.417187 0
M  V30 2802 H 261.22 -6.77668 0.440784 0
M  V30 2803 H 259.166 -6.3205 -1.75638 0
M  V30 2804 H 259.083 -7.54146 -0.529125 0
M  V30 2805 H 260.351 -7.60362 -1.71667 0
M  V30 2806 N 264.58 -0.43555 -1.51462 0
M  V30 2807 C 265.805 0.132627 -2.06976 0
M  V30 2808 C 266.23 1.35848 -1.30104 0
M  V30 2809 O 265.588 1.78112 -0.338493 0
M  V30 2810 C 265.636 0.43523 -3.57964 0
M  V30 2811 O 264.74 1.52198 -3.83288 0
M  V30 2812 H 264.081 0.00265 -0.663995 0
M  V30 2813 H 266.611 -0.616369 -1.95095 0
M  V30 2814 H 266.621 0.686206 -4.02188 0
M  V30 2815 H 265.296 -0.460739 -4.1334 0
M  V30 2816 H 263.873 1.2611 -3.50928 0
M  V30 2817 N 266.058 1.56714 -0.166846 0
M  V30 2818 C 267.006 2.19056 0.782123 0
M  V30 2819 C 268 1.15328 1.24079 0
M  V30 2820 O 269.206 1.33537 1.20697 0
M  V30 2821 H 265.581 0.70167 0.270486 0
M  V30 2822 H 267.552 2.97494 0.232322 0
M  V30 2823 C 266.301 2.84206 2.00306 0
M  V30 2824 H 265.624 3.63748 1.65914 0
M  V30 2825 H 267.064 3.31302 2.64604 0
M  V30 2826 C 265.523 1.83744 2.82382 0
M  V30 2827 O 266.053 1.32014 3.79388 0
M  V30 2828 N 264.259 1.52601 2.47308 0
M  V30 2829 H 263.806 1.9486 1.68485 0
M  V30 2830 H 263.764 0.856351 3.02513 0
M  V30 2831 N 267.536 -0.106894 1.57237 0
M  V30 2832 C 268.766 -0.825191 1.89405 0
M  V30 2833 C 269.174 -1.73374 0.757496 0
M  V30 2834 O 268.517 -1.81552 -0.280115 0
M  V30 2835 C 268.579 -1.70102 3.1671 0
M  V30 2836 C 268.243 -0.965523 4.46684 0
M  V30 2837 C 269.24 -0.300741 5.19029 0
M  V30 2838 C 266.925 -0.943105 4.93367 0
M  V30 2839 C 268.919 0.376622 6.36286 0
M  V30 2840 C 266.606 -0.261949 6.10538 0
M  V30 2841 C 267.604 0.396748 6.81847 0
M  V30 2842 O 267.292 1.06701 7.96787 0
M  V30 2843 H 267.024 -0.241852 0.631255 0
M  V30 2844 H 269.578 -0.0921491 2.05193 0
M  V30 2845 H 267.808 -2.47601 2.97036 0
M  V30 2846 H 269.497 -2.29483 3.34802 0
M  V30 2847 H 270.263 -0.309599 4.84011 0
M  V30 2848 H 266.142 -1.44524 4.3776 0
M  V30 2849 H 269.686 0.891334 6.91882 0
M  V30 2850 H 265.583 -0.250896 6.45012 0
M  V30 2851 H 266.351 0.972707 8.127 0
M  V30 2852 N 269.014 -1.53014 -0.377408 0
M  V30 2853 C 269.946 -1.74884 -1.48149 0
M  V30 2854 C 270.959 -0.629433 -1.5014 0
M  V30 2855 O 272.148 -0.905416 -1.53833 0
M  V30 2856 C 269.248 -1.80299 -2.86959 0
M  V30 2857 C 268.421 -3.09776 -3.08801 0
M  V30 2858 C 267.48 -3.06586 -4.27658 0
M  V30 2859 O 266.506 -3.80419 -4.23403 0
M  V30 2860 N 267.708 -2.26578 -5.34455 0
M  V30 2861 H 270.473 -2.70147 -1.29771 0
M  V30 2862 H 268.034 -1.51646 -0.56703 0
M  V30 2863 H 270.026 -1.75657 -3.64591 0
M  V30 2864 H 268.596 -0.92372 -2.98641 0
M  V30 2865 H 267.816 -3.27815 -2.18931 0
M  V30 2866 H 269.104 -3.95366 -3.20255 0
M  V30 2867 H 268.502 -1.66081 -5.40771 0
M  V30 2868 H 267.059 -2.27766 -6.10709 0
M  V30 2869 N 270.492 0.636531 -1.44174 0
M  V30 2870 C 271.74 1.39343 -1.46383 0
M  V30 2871 C 272.061 1.94766 -0.0955715 0
M  V30 2872 O 271.331 1.75452 0.871395 0
M  V30 2873 H 269.911 0.517199 -0.538994 0
M  V30 2874 H 272.573 0.74957 -1.7991 0
M  V30 2875 H 271.669 2.22746 -2.18611 0
M  V30 2876 N 271.97 1.30982 0.876444 0
M  V30 2877 C 272.9 1.20668 1.99903 0
M  V30 2878 C 273.881 0.095354 1.69833 0
M  V30 2879 O 275.066 0.27885 1.92188 0
M  V30 2880 C 272.196 0.90655 3.3526 0
M  V30 2881 C 271.15 1.97675 3.79617 0
M  V30 2882 C 270.476 1.52943 5.1236 0
M  V30 2883 C 271.776 3.389 3.97422 0
M  V30 2884 H 273.47 2.14586 2.0879 0
M  V30 2885 H 271.016 1.03308 1.00317 0
M  V30 2886 H 272.969 0.821025 4.13324 0
M  V30 2887 H 271.693 -0.0682969 3.26529 0
M  V30 2888 H 270.352 2.05205 3.03787 0
M  V30 2889 H 270 0.54262 5.00065 0
M  V30 2890 H 269.7 2.24532 5.43009 0
M  V30 2891 H 271.224 1.45786 5.92941 0
M  V30 2892 H 272.638 3.34081 4.659 0
M  V30 2893 H 271.035 4.0865 4.3946 0
M  V30 2894 H 272.105 3.80163 3.01006 0
M  V30 2895 N 273.449 -1.08991 1.13837 0
M  V30 2896 C 274.86 -1.62746 0.914917 0
M  V30 2897 C 275.211 -1.88403 -0.547594 0
M  V30 2898 O 274.336 -1.63706 -1.41525 0
M  V30 2899 C 274.931 -2.95662 1.65437 0
M  V30 2900 C 273.49 -3.46225 1.47666 0
M  V30 2901 C 272.637 -2.20562 1.6807 0
M  V30 2902 H 275.588 -0.922946 1.29102 0
M  V30 2903 H 275.609 -3.63825 1.11407 0
M  V30 2904 H 275.121 -2.76956 2.71877 0
M  V30 2905 H 273.222 -3.70046 0.435478 0
M  V30 2906 H 273.335 -4.23368 2.24268 0
M  V30 2907 H 271.699 -2.29439 1.10589 0
M  V30 2908 H 272.482 -2.0437 2.7584 0
M  V30 2909 N 274.927 -0.932562 -1.27047 0
M  V30 2910 C 276.173 -0.576412 -1.94436 0
M  V30 2911 C 276.506 0.880891 -1.73072 0
M  V30 2912 O 275.781 1.62905 -1.06264 0
M  V30 2913 C 276.064 -0.909031 -3.48437 0
M  V30 2914 C 275.917 -2.42044 -3.79123 0
M  V30 2915 C 277.236 -0.418341 -4.38107 0
M  V30 2916 H 274.355 -0.210888 -0.706184 0
M  V30 2917 H 276.997 -1.16522 -1.50075 0
M  V30 2918 H 275.147 -0.407947 -3.86352 0
M  V30 2919 H 276.819 -2.99359 -3.50973 0
M  V30 2920 H 275.062 -2.86758 -3.25503 0
M  V30 2921 H 275.733 -2.6037 -4.86736 0
M  V30 2922 H 278.209 -0.847856 -4.0737 0
M  V30 2923 H 277.085 -0.679981 -5.44672 0
M  V30 2924 H 277.346 0.681642 -4.36814 0
M  V30 2925 N 276.405 1.4127 -0.698611 0
M  V30 2926 C 277.821 1.55241 -0.370462 0
M  V30 2927 C 278.021 1.67351 1.12231 0
M  V30 2928 O 277.077 1.65363 1.90818 0
M  V30 2929 C 278.39 2.78997 -1.12165 0
M  V30 2930 C 279.938 2.92797 -1.1063 0
M  V30 2931 C 280.413 4.19445 -1.8393 0
M  V30 2932 N 281.904 4.26409 -1.80914 0
M  V30 2933 C 282.639 5.23271 -2.34467 0
M  V30 2934 N 282.135 6.26145 -2.96504 0
M  V30 2935 N 283.928 5.15232 -2.24706 0
M  V30 2936 H 276.079 1.31654 -1.66676 0
M  V30 2937 H 278.342 0.635393 -0.703548 0
M  V30 2938 H 278.048 2.76268 -2.17644 0
M  V30 2939 H 277.922 3.70606 -0.702209 0
M  V30 2940 H 280.309 2.95039 -0.0597713 0
M  V30 2941 H 280.39 2.02353 -1.56483 0
M  V30 2942 H 280.034 4.17964 -2.88563 0
M  V30 2943 H 279.964 5.08866 -1.35509 0
M  V30 2944 H 282.455 3.527 -1.35687 0
M  V30 2945 H 282.768 6.96451 -3.34927 0
M  V30 2946 H 281.113 6.26638 -3.00583 0
M  V30 2947 H 284.304 4.33789 -1.7591 0
M  V30 2948 H 284.477 5.90552 -2.66745 0
M  V30 2949 N 277.883 0.443576 1.51229 0
M  V30 2950 C 279.123 -0.119889 2.04048 0
M  V30 2951 C 279.487 -1.39418 1.32009 0
M  V30 2952 O 280.688 -2.03829 1.75235 0
M  V30 2953 C 278.959 -0.327233 3.55899 0
M  V30 2954 S 280.518 -0.853208 4.30425 0
M  V30 2955 H 277.336 -0.028921 0.710412 0
M  V30 2956 H 279.938 0.604413 1.85922 0
M  V30 2957 H 278.642 0.606445 4.05895 0
M  V30 2958 H 278.173 -1.07844 3.7833 0
M  V30 2959 H 280.188 -2.13005 4.48155 0
M  V30 2960 N 279.361 -1.56624 0.175154 0
M  V30 2961 C 280.607 -1.9729 -0.469506 0
M  V30 2962 C 280.94 -1.06128 -1.62636 0
M  V30 2963 O 280.215 -0.109183 -1.94193 0
M  V30 2964 C 280.498 -3.47375 -0.948804 0
M  V30 2965 C 280.351 -4.49317 0.208491 0
M  V30 2966 C 281.67 -4.00652 -1.82116 0
M  V30 2967 H 278.789 -0.717317 -0.16919 0
M  V30 2968 H 281.431 -1.88184 0.262062 0
M  V30 2969 H 279.581 -3.55267 -1.57219 0
M  V30 2970 H 281.253 -4.53482 0.845682 0
M  V30 2971 H 279.496 -4.25121 0.863395 0
M  V30 2972 H 280.167 -5.51741 -0.169059 0
M  V30 2973 H 282.643 -3.95416 -1.2956 0
M  V30 2974 H 281.519 -5.06075 -2.12554 0
M  V30 2975 H 281.78 -3.44699 -2.7683 0
M  V30 2976 N 280.839 0.0985539 -1.57292 0
M  V30 2977 C 281.786 1.11981 -2.01814 0
M  V30 2978 C 282.756 1.39999 -0.89384 0
M  V30 2979 O 283.941 1.5152 -1.15958 0
M  V30 2980 C 281.081 2.43577 -2.44467 0
M  V30 2981 C 280.194 2.2232 -3.70402 0
M  V30 2982 C 279.329 3.4729 -4.01949 0
M  V30 2983 C 278.368 3.2128 -5.21005 0
M  V30 2984 N 277.505 4.38507 -5.48321 0
M  V30 2985 H 282.345 0.733149 -2.88841 0
M  V30 2986 H 279.882 0.350482 -1.42864 0
M  V30 2987 H 281.84 3.20373 -2.6724 0
M  V30 2988 H 280.47 2.80097 -1.60455 0
M  V30 2989 H 279.522 1.36343 -3.55126 0
M  V30 2990 H 280.834 1.99089 -4.57345 0
M  V30 2991 H 279.988 4.32495 -4.25479 0
M  V30 2992 H 278.727 3.73572 -3.13521 0
M  V30 2993 H 277.732 2.34468 -4.97298 0
M  V30 2994 H 278.957 2.96348 -6.11028 0
M  V30 2995 H 276.903 4.64871 -4.62851 0
M  V30 2996 H 276.82 4.18455 -6.29628 0
M  V30 2997 H 278.088 5.24787 -5.76385 0
M  V30 2998 N 282.317 1.53212 0.369288 0
M  V30 2999 C 283.542 1.73423 1.1375 0
M  V30 3000 C 283.967 0.460404 1.82378 0
M  V30 3001 O 283.325 -0.585298 1.71592 0
M  V30 3002 C 283.373 2.89769 2.1463 0
M  V30 3003 O 282.477 2.58119 3.21634 0
M  V30 3004 H 281.818 0.576061 0.330227 0
M  V30 3005 H 284.348 2.00083 0.427547 0
M  V30 3006 H 284.358 3.15829 2.58294 0
M  V30 3007 H 283.033 3.8217 1.64071 0
M  V30 3008 H 281.61 2.42864 2.82969 0
M  V30 3009 N 283.795 -0.628877 1.44509 0
M  V30 3010 C 285.044 -1.38437 1.4669 0
M  V30 3011 C 285.357 -1.95322 0.104272 0
M  V30 3012 O 286.563 -2.715 0.00362163 0
M  V30 3013 C 285.019 -2.50659 2.5826 0
M  V30 3014 C 284.627 -2.00277 4.0074 0
M  V30 3015 C 286.371 -3.27844 2.69664 0
M  V30 3016 C 284.278 -3.09854 5.0373 0
M  V30 3017 H 283.208 -0.520245 0.545766 0
M  V30 3018 H 285.859 -0.676313 1.70582 0
M  V30 3019 H 284.241 -3.2405 2.27612 0
M  V30 3020 H 285.415 -1.33736 4.40966 0
M  V30 3021 H 283.73 -1.35901 3.93599 0
M  V30 3022 H 286.327 -4.09534 3.43781 0
M  V30 3023 H 286.67 -3.77471 1.75559 0
M  V30 3024 H 287.203 -2.61543 2.99733 0
M  V30 3025 H 283.942 -2.65168 5.99472 0
M  V30 3026 H 283.462 -3.7503 4.68095 0
M  V30 3027 H 285.141 -3.74592 5.27532 0
M  V30 3028 N 285.273 -1.31445 -0.869486 0
M  V30 3029 C 286.522 -1.20517 -1.61736 0
M  V30 3030 C 286.835 0.235341 -1.94179 0
M  V30 3031 O 288.041 0.466312 -2.67465 0
M  V30 3032 C 286.497 -2.10982 -2.91573 0
M  V30 3033 C 286.105 -3.60032 -2.66611 0
M  V30 3034 C 287.849 -2.08856 -3.69567 0
M  V30 3035 C 285.756 -4.42503 -3.92358 0
M  V30 3036 H 284.686 -0.447493 -0.606849 0
M  V30 3037 H 287.337 -1.56303 -0.96133 0
M  V30 3038 H 285.719 -1.68095 -3.58553 0
M  V30 3039 H 286.893 -4.11167 -2.08035 0
M  V30 3040 H 285.208 -3.64139 -2.0197 0
M  V30 3041 H 287.805 -2.67716 -4.62852 0
M  V30 3042 H 288.148 -1.07582 -4.02159 0
M  V30 3043 H 288.681 -2.49945 -3.09471 0
M  V30 3044 H 285.42 -5.44533 -3.64916 0
M  V30 3045 H 284.94 -3.96125 -4.50383 0
M  V30 3046 H 286.619 -4.54741 -4.60238 0
M  V30 3047 N 286.751 1.08385 -1.14413 0
M  V30 3048 C 288.167 1.32844 -0.884563 0
M  V30 3049 C 288.367 1.95841 0.474181 0
M  V30 3050 O 287.423 2.21158 1.21842 0
M  V30 3051 C 288.736 2.22978 -2.01745 0
M  V30 3052 C 290.284 2.36458 -2.05077 0
M  V30 3053 C 290.759 3.29934 -3.1766 0
M  V30 3054 N 292.25 3.37511 -3.17239 0
M  V30 3055 C 292.985 4.09871 -4.0099 0
M  V30 3056 N 292.481 4.84936 -4.94781 0
M  V30 3057 N 294.274 4.05704 -3.89051 0
M  V30 3058 H 286.425 0.658756 -2.01926 0
M  V30 3059 H 288.688 0.352821 -0.879899 0
M  V30 3060 H 288.394 1.83934 -2.99769 0
M  V30 3061 H 288.268 3.23441 -1.94077 0
M  V30 3062 H 290.655 2.7476 -1.0766 0
M  V30 3063 H 290.736 1.35736 -2.16816 0
M  V30 3064 H 290.38 2.92352 -4.15322 0
M  V30 3065 H 290.31 4.30584 -3.03158 0
M  V30 3066 H 292.801 2.83996 -2.49308 0
M  V30 3067 H 293.114 5.37612 -5.55151 0
M  V30 3068 H 291.459 4.83988 -4.98779 0
M  V30 3069 H 294.65 3.46167 -3.15097 0
M  V30 3070 H 294.823 4.61834 -4.54547 0
M  V30 3071 N 288.23 0.939286 1.26551 0
M  V30 3072 C 289.162 0.404704 2.25599 0
M  V30 3073 C 290.175 -0.470983 1.55838 0
M  V30 3074 O 291.364 -0.281734 1.76263 0
M  V30 3075 C 288.464 -0.43764 3.36062 0
M  V30 3076 C 287.637 0.421449 4.35365 0
M  V30 3077 C 286.696 -0.36015 5.24966 0
M  V30 3078 O 285.722 0.236167 5.6871 0
M  V30 3079 N 286.924 -1.65715 5.56344 0
M  V30 3080 H 289.689 1.25618 2.72103 0
M  V30 3081 H 287.25 0.807963 1.40298 0
M  V30 3082 H 289.242 -0.967866 3.92956 0
M  V30 3083 H 287.812 -1.18991 2.89067 0
M  V30 3084 H 287.032 1.1329 3.7757 0
M  V30 3085 H 288.32 1.00835 4.98708 0
M  V30 3086 H 287.718 -2.16378 5.22682 0
M  V30 3087 H 286.275 -2.13366 6.15888 0
M  V30 3088 N 289.708 -1.40897 0.706093 0
M  V30 3089 C 290.954 -2.01352 0.241889 0
M  V30 3090 C 291.287 -1.55832 -1.15888 0
M  V30 3091 O 290.562 -0.774145 -1.7843 0
M  V30 3092 C 290.845 -3.58752 0.311311 0
M  V30 3093 C 290.698 -4.1437 1.74978 0
M  V30 3094 C 292.017 -4.38914 -0.322922 0
M  V30 3095 H 289.136 -0.731562 0.0893687 0
M  V30 3096 H 291.778 -1.67504 0.896802 0
M  V30 3097 H 289.928 -3.87718 -0.246302 0
M  V30 3098 H 291.6 -3.96239 2.36205 0
M  V30 3099 H 289.843 -3.69016 2.28057 0
M  V30 3100 H 290.514 -5.23532 1.74981 0
M  V30 3101 H 292.99 -4.15822 0.152089 0
M  V30 3102 H 291.866 -5.48358 -0.243855 0
M  V30 3103 H 292.127 -4.19176 -1.40513 0
M  V30 3104 N 291.186 -0.45159 -1.50991 0
M  V30 3105 C 292.116 0.342898 -2.30969 0
M  V30 3106 C 293.097 1.00815 -1.37005 0
M  V30 3107 O 294.282 1.00907 -1.65926 0
M  V30 3108 C 291.412 1.43637 -3.16205 0
M  V30 3109 C 290.366 0.893818 -4.18563 0
M  V30 3110 C 289.692 2.08411 -4.92411 0
M  V30 3111 C 290.992 -0.0815568 -5.22236 0
M  V30 3112 H 292.686 -0.324556 -2.97636 0
M  V30 3113 H 290.232 -0.157531 -1.43136 0
M  V30 3114 H 292.185 1.9995 -3.70942 0
M  V30 3115 H 290.909 2.13232 -2.47386 0
M  V30 3116 H 289.568 0.352798 -3.64898 0
M  V30 3117 H 289.216 2.76658 -4.20082 0
M  V30 3118 H 288.916 1.72741 -5.61636 0
M  V30 3119 H 290.44 2.65251 -5.49976 0
M  V30 3120 H 291.854 0.391742 -5.7196 0
M  V30 3121 H 290.251 -0.351551 -5.99069 0
M  V30 3122 H 291.321 -1.01374 -4.74185 0
M  V30 3123 N 292.664 1.56529 -0.183458 0
M  V30 3124 C 293.596 2.15747 0.773697 0
M  V30 3125 C 294.609 1.1162 1.1851 0
M  V30 3126 O 295.798 1.3876 1.12285 0
M  V30 3127 C 292.898 2.6952 2.05456 0
M  V30 3128 C 292.071 3.98429 1.8048 0
M  V30 3129 C 291.13 4.37145 2.92901 0
M  V30 3130 O 290.156 5.04791 2.6301 0
M  V30 3131 N 291.358 3.99695 4.2098 0
M  V30 3132 H 294.123 2.98505 0.26736 0
M  V30 3133 H 291.684 1.619 -0.0010878 0
M  V30 3134 H 293.676 2.92412 2.79781 0
M  V30 3135 H 292.246 1.91282 2.47245 0
M  V30 3136 H 291.466 3.8379 0.899947 0
M  V30 3137 H 292.754 4.82597 1.61175 0
M  V30 3138 H 292.152 3.4526 4.48121 0
M  V30 3139 H 290.709 4.27562 4.9197 0
M  V30 3140 N 294.142 -0.090211 1.57342 0
M  V30 3141 C 295.39 -0.791241 1.85967 0
M  V30 3142 C 295.711 -1.7903 0.772859 0
M  V30 3143 O 294.981 -1.94872 -0.200398 0
M  V30 3144 H 293.561 -0.295205 0.686195 0
M  V30 3145 H 296.223 -0.0706782 1.94772 0
M  V30 3146 H 295.319 -1.31882 2.82867 0
M  V30 3147 N 295.62 -1.53406 -0.361157 0
M  V30 3148 C 296.55 -1.83136 -1.44857 0
M  V30 3149 C 297.531 -0.685174 -1.5569 0
M  V30 3150 O 298.716 -0.93544 -1.70186 0
M  V30 3151 C 295.846 -2.02522 -2.82138 0
M  V30 3152 C 294.8 -3.18302 -2.86126 0
M  V30 3153 C 294.126 -3.22989 -4.26125 0
M  V30 3154 C 295.426 -4.56796 -2.53248 0
M  V30 3155 H 297.12 -2.74201 -1.20226 0
M  V30 3156 H 294.666 -1.31938 -0.576922 0
M  V30 3157 H 296.619 -2.21904 -3.58241 0
M  V30 3158 H 295.343 -1.08172 -3.08166 0
M  V30 3159 H 294.002 -2.98747 -2.12475 0
M  V30 3160 H 293.65 -2.26267 -4.49235 0
M  V30 3161 H 293.35 -4.00781 -4.29708 0
M  V30 3162 H 294.874 -3.44559 -5.04094 0
M  V30 3163 H 296.288 -4.7631 -3.19064 0
M  V30 3164 H 294.685 -5.36862 -2.68141 0
M  V30 3165 H 295.755 -4.61606 -1.48484 0
M  V30 3166 N 297.098 0.621204 -1.44841 0
M  V30 3167 C 298.375 1.38 -1.38619 0
M  V30 3168 C 298.755 2.11041 -0.0498935 0
M  V30 3169 O 298.103 2.06992 0.967816 0
M  V30 3170 C 298.313 2.33817 -2.59096 0
M  V30 3171 C 299.661 2.96844 -3.03593 0
M  V30 3172 O 300.685 2.44141 -2.59371 0
M  V30 3173 O 299.544 3.92476 -3.80296 0
M  V30 3174 H 296.638 0.61811 -0.549426 0
M  V30 3175 H 299.184 0.645429 -1.56947 0
M  V30 3176 H 297.956 1.79012 -3.47952 0
M  V30 3177 H 297.579 3.14676 -2.43032 0
M  V30 3178 N 298.576 1.31904 0.862503 0
M  V30 3179 C 299.806 1.24817 1.64634 0
M  V30 3180 C 300.214 -0.187579 1.88268 0
M  V30 3181 O 299.557 -1.13253 1.44635 0
M  V30 3182 C 299.619 1.92996 3.03303 0
M  V30 3183 C 299.283 3.42336 3.02746 0
M  V30 3184 C 300.28 4.37956 2.80162 0
M  V30 3185 C 297.965 3.84147 3.2363 0
M  V30 3186 C 299.959 5.73361 2.78453 0
M  V30 3187 C 297.646 5.19663 3.21549 0
M  V30 3188 C 298.644 6.14081 2.98988 0
M  V30 3189 O 298.332 7.47118 2.96766 0
M  V30 3190 H 298.064 0.432222 0.519769 0
M  V30 3191 H 300.618 1.7445 1.08427 0
M  V30 3192 H 298.848 1.37922 3.61268 0
M  V30 3193 H 300.537 1.79723 3.63943 0
M  V30 3194 H 301.303 4.06981 2.63802 0
M  V30 3195 H 297.182 3.11083 3.40218 0
M  V30 3196 H 300.726 6.4703 2.60763 0
M  V30 3197 H 296.623 5.5027 3.37451 0
M  V30 3198 H 297.391 7.56382 3.12775 0
M  V30 3199 N 300.054 -1.07777 1.14986 0
M  V30 3200 C 300.984 -2.16865 0.865557 0
M  V30 3201 C 301.965 -1.69123 -0.182083 0
M  V30 3202 O 303.15 -1.94164 -0.0373815 0
M  V30 3203 C 300.28 -3.45539 0.349313 0
M  V30 3204 C 299.234 -4.06708 1.33313 0
M  V30 3205 C 298.56 -5.30411 0.675918 0
M  V30 3206 C 299.86 -4.47241 2.69764 0
M  V30 3207 H 301.554 -2.40905 1.77778 0
M  V30 3208 H 299.1 -1.15781 0.856203 0
M  V30 3209 H 301.053 -4.21174 0.137983 0
M  V30 3210 H 299.777 -3.21072 -0.598362 0
M  V30 3211 H 298.436 -3.33112 1.53075 0
M  V30 3212 H 298.084 -5.02232 -0.277767 0
M  V30 3213 H 297.784 -5.72293 1.33244 0
M  V30 3214 H 299.308 -6.08755 0.474262 0
M  V30 3215 H 300.722 -5.14025 2.53873 0
M  V30 3216 H 299.119 -5.00062 3.3175 0
M  V30 3217 H 300.189 -3.58818 3.26156 0
M  V30 3218 N 301.532 -0.945985 -1.26051 0
M  V30 3219 C 302.482 -0.430164 -2.23905 0
M  V30 3220 C 303.466 0.47579 -1.53704 0
M  V30 3221 O 304.658 0.310252 -1.7426 0
M  V30 3222 C 301.787 0.298957 -3.41996 0
M  V30 3223 C 300.873 -0.624566 -4.19476 0
M  V30 3224 N 301.264 -1.75245 -4.74471 0
M  V30 3225 C 299.562 -0.431082 -4.43912 0
M  V30 3226 C 300.263 -2.32834 -5.3307 0
M  V30 3227 N 299.239 -1.61583 -5.1903 0
M  V30 3228 H 303.041 -1.29107 -2.64024 0
M  V30 3229 H 300.555 -0.802428 -1.41191 0
M  V30 3230 H 302.552 0.685565 -4.11225 0
M  V30 3231 H 301.212 1.15657 -3.03403 0
M  V30 3232 H 302.223 -2.13449 -4.71868 0
M  V30 3233 H 298.9 0.384364 -4.15727 0
M  V30 3234 H 300.29 -3.27893 -5.86461 0
M  V30 3235 N 303.011 1.40521 -0.713556 0
M  V30 3236 C 304.236 2.05759 -0.26035 0
M  V30 3237 C 304.661 1.53403 1.08854 0
M  V30 3238 O 304.019 0.668535 1.68524 0
M  V30 3239 C 304.067 3.59745 -0.248122 0
M  V30 3240 O 303.171 4.05123 0.77131 0
M  V30 3241 H 302.512 0.652564 -0.122703 0
M  V30 3242 H 305.042 1.79958 -0.973467 0
M  V30 3243 H 305.052 4.07911 -0.0851129 0
M  V30 3244 H 303.727 3.97218 -1.2325 0
M  V30 3245 H 302.304 3.68422 0.57619 0
M  V30 3246 N 304.489 0.459591 1.5075 0
M  V30 3247 C 305.436 -0.340524 2.28274 0
M  V30 3248 C 306.406 -0.997371 1.32822 0
M  V30 3249 O 307.591 -1.01202 1.61749 0
M  V30 3250 C 304.731 -1.42317 3.14388 0
M  V30 3251 C 303.844 -0.782251 4.24859 0
M  V30 3252 C 302.979 -1.84182 4.98247 0
M  V30 3253 C 302.018 -1.18053 6.00608 0
M  V30 3254 N 301.155 -2.18244 6.67319 0
M  V30 3255 H 305.995 0.326899 2.96202 0
M  V30 3256 H 303.532 0.173057 1.46078 0
M  V30 3257 H 305.49 -2.06241 3.62658 0
M  V30 3258 H 304.12 -2.05992 2.4853 0
M  V30 3259 H 303.172 -0.0307404 3.80388 0
M  V30 3260 H 304.484 -0.259663 4.98124 0
M  V30 3261 H 303.638 -2.55714 5.50177 0
M  V30 3262 H 302.377 -2.39819 4.24662 0
M  V30 3263 H 301.382 -0.450776 5.47949 0
M  V30 3264 H 302.607 -0.631202 6.7616 0
M  V30 3265 H 300.553 -2.72919 5.96533 0
M  V30 3266 H 300.47 -1.70938 7.36421 0
M  V30 3267 H 301.738 -2.89191 7.23871 0
M  V30 3268 N 305.967 -1.56429 0.191757 0
M  V30 3269 C 307.207 -1.99383 -0.450099 0
M  V30 3270 C 307.571 -1.07581 -1.59029 0
M  V30 3271 O 308.772 -1.39758 -2.29611 0
M  V30 3272 C 307.043 -3.45841 -0.901611 0
M  V30 3273 S 308.602 -4.10822 -1.54177 0
M  V30 3274 H 305.42 -0.696253 -0.144057 0
M  V30 3275 H 308.022 -1.93276 0.294036 0
M  V30 3276 H 306.726 -4.10354 -0.0616596 0
M  V30 3277 H 306.257 -3.55757 -1.67929 0
M  V30 3278 H 308.272 -4.07553 -2.83046 0
M  V30 3279 N 307.445 0.0818655 -1.57387 0
M  V30 3280 C 308.392 1.09834 -2.0299 0
M  V30 3281 C 309.362 1.39043 -0.908639 0
M  V30 3282 O 310.547 1.50282 -1.17559 0
M  V30 3283 C 307.687 2.40971 -2.47037 0
M  V30 3284 C 306.8 2.18379 -3.7274 0
M  V30 3285 C 305.935 3.43008 -4.0561 0
M  V30 3286 C 304.974 3.15736 -5.24383 0
M  V30 3287 N 304.111 4.32667 -5.52941 0
M  V30 3288 H 308.951 0.702472 -2.89602 0
M  V30 3289 H 306.488 0.33531 -1.43227 0
M  V30 3290 H 308.446 3.1752 -2.70623 0
M  V30 3291 H 307.076 2.78379 -1.63417 0
M  V30 3292 H 306.128 1.32569 -3.56552 0
M  V30 3293 H 307.44 1.94227 -4.59431 0
M  V30 3294 H 306.594 4.27958 -4.30043 0
M  V30 3295 H 305.333 3.70225 -3.17466 0
M  V30 3296 H 304.338 2.2918 -4.99757 0
M  V30 3297 H 305.563 2.8985 -6.14136 0
M  V30 3298 H 303.509 4.59935 -4.67756 0
M  V30 3299 H 303.426 4.11753 -6.34031 0
M  V30 3300 H 304.694 5.18644 -5.81918 0
M  V30 3301 N 308.923 1.53595 0.353017 0
M  V30 3302 C 310.172 1.69603 1.09168 0
M  V30 3303 C 310.485 0.460925 1.90092 0
M  V30 3304 O 311.691 0.501774 2.66823 0
M  V30 3305 C 310.147 2.99872 1.9901 0
M  V30 3306 C 309.755 4.30687 1.23339 0
M  V30 3307 C 311.499 3.25246 2.72792 0
M  V30 3308 C 309.406 5.52036 2.12156 0
M  V30 3309 H 308.336 0.631966 0.411261 0
M  V30 3310 H 310.987 1.80096 0.351802 0
M  V30 3311 H 309.369 2.83212 2.7678 0
M  V30 3312 H 310.543 4.58019 0.505456 0
M  V30 3313 H 308.858 4.11853 0.613663 0
M  V30 3314 H 311.455 4.13095 3.39495 0
M  V30 3315 H 311.798 2.41846 3.38846 0
M  V30 3316 H 312.331 3.42638 2.021 0
M  V30 3317 H 309.07 6.37951 1.50659 0
M  V30 3318 H 308.59 5.28966 2.82764 0
M  V30 3319 H 310.269 5.87313 2.71427 0
M  V30 3320 N 310.401 -0.613514 1.45168 0
M  V30 3321 C 311.65 -1.36874 1.4815 0
M  V30 3322 C 311.963 -1.952 0.124982 0
M  V30 3323 O 313.169 -2.71481 0.0324176 0
M  V30 3324 C 311.625 -2.47905 2.60904 0
M  V30 3325 C 311.233 -1.96016 4.02842 0
M  V30 3326 C 312.977 -3.24965 2.73126 0
M  V30 3327 C 310.884 -3.04494 5.06988 0
M  V30 3328 H 309.814 -0.514428 0.551253 0
M  V30 3329 H 312.465 -0.658182 1.7129 0
M  V30 3330 H 310.847 -3.21618 2.31037 0
M  V30 3331 H 312.021 -1.29051 4.4236 0
M  V30 3332 H 310.336 -1.31719 3.95018 0
M  V30 3333 H 312.933 -4.05865 3.48106 0
M  V30 3334 H 313.276 -3.75588 1.79553 0
M  V30 3335 H 313.809 -2.5835 3.0249 0
M  V30 3336 H 310.548 -2.58795 6.0225 0
M  V30 3337 H 310.068 -3.70044 4.72046 0
M  V30 3338 H 311.747 -3.68976 5.31475 0
M  V30 3339 N 311.879 -1.3236 -0.855495 0
M  V30 3340 C 312.829 -1.17809 -1.95205 0
M  V30 3341 C 313.813 -0.0852319 -1.60674 0
M  V30 3342 O 315.005 -0.311651 -1.74235 0
M  V30 3343 C 312.134 -0.902437 -3.31226 0
M  V30 3344 C 311.22 -2.03695 -3.7198 0
M  V30 3345 N 311.611 -3.28544 -3.84568 0
M  V30 3346 C 309.909 -1.93993 -4.016 0
M  V30 3347 C 310.61 -4.02847 -4.19629 0
M  V30 3348 N 309.586 -3.31138 -4.31102 0
M  V30 3349 H 313.388 -2.12462 -2.0307 0
M  V30 3350 H 310.902 -1.24127 -1.0472 0
M  V30 3351 H 312.899 -0.77915 -4.09554 0
M  V30 3352 H 311.559 0.0357267 -3.2468 0
M  V30 3353 H 312.57 -3.6349 -3.68911 0
M  V30 3354 H 309.247 -1.07733 -4.03361 0
M  V30 3355 H 310.637 -5.10506 -4.36845 0
M  V30 3356 N 313.357 1.07166 -1.15556 0
M  V30 3357 C 314.585 1.83514 -0.955519 0
M  V30 3358 C 315 1.82163 0.49621 0
M  V30 3359 O 314.357 1.23441 1.34419 0
M  V30 3360 C 314.408 3.30515 -1.46432 0
M  V30 3361 O 314.129 3.31937 -2.85918 0
M  V30 3362 C 315.63 4.23625 -1.30603 0
M  V30 3363 H 312.85 0.578926 -0.339244 0
M  V30 3364 H 315.394 1.35265 -1.53374 0
M  V30 3365 H 313.549 3.76106 -0.928584 0
M  V30 3366 H 313.963 4.23794 -3.09029 0
M  V30 3367 H 315.437 5.24831 -1.71047 0
M  V30 3368 H 315.914 4.38485 -0.250441 0
M  V30 3369 H 316.52 3.83871 -1.83094 0
M  V30 3370 N 314.835 0.952656 1.25548 0
M  V30 3371 C 316.112 0.523818 1.88456 0
M  V30 3372 C 316.492 -0.998871 1.85973 0
M  V30 3373 O 315.84 -1.86381 1.3219 0
M  V30 3374 C 316.05 1.0982 3.31271 0
M  V30 3375 C 317.398 1.17385 4.08051 0
M  V30 3376 O 318.422 1.04961 3.40384 0
M  V30 3377 O 317.281 1.36852 5.29088 0
M  V30 3378 H 314.375 0.172485 0.808813 0
M  V30 3379 H 316.921 1.04596 1.33633 0
M  V30 3380 H 315.693 2.1415 3.27499 0
M  V30 3381 H 315.316 0.559191 3.93648 0
M  V30 3382 N 316.313 -1.40141 0.720998 0
M  V30 3383 C 317.562 -2.0002 0.259804 0
M  V30 3384 C 317.875 -1.57839 -1.15526 0
M  V30 3385 O 319.081 -2.10455 -1.71525 0
M  V30 3386 C 317.537 -3.57516 0.413566 0
M  V30 3387 C 317.145 -4.08667 1.83562 0
M  V30 3388 C 318.889 -4.24498 0.0134387 0
M  V30 3389 C 316.796 -5.58686 1.93968 0
M  V30 3390 H 315.726 -0.748195 0.0933806 0
M  V30 3391 H 318.377 -1.60313 0.892866 0
M  V30 3392 H 316.759 -3.9495 -0.288169 0
M  V30 3393 H 317.933 -3.82598 2.56817 0
M  V30 3394 H 316.248 -3.543 2.1877 0
M  V30 3395 H 318.845 -5.34654 0.0703954 0
M  V30 3396 H 319.188 -4.03375 -1.02927 0
M  V30 3397 H 319.721 -3.92188 0.665815 0
M  V30 3398 H 316.46 -5.8467 2.96379 0
M  V30 3399 H 315.98 -5.86602 1.25131 0
M  V30 3400 H 317.659 -6.23875 1.71431 0
M  V30 3401 N 317.792 -0.46758 -1.50504 0
M  V30 3402 C 318.739 0.328413 -2.28452 0
M  V30 3403 C 319.709 0.990313 -1.33349 0
M  V30 3404 O 320.894 1.00343 -1.62284 0
M  V30 3405 C 318.034 1.40648 -3.15138 0
M  V30 3406 C 317.147 0.759709 -4.25267 0
M  V30 3407 C 316.282 1.81537 -4.99217 0
M  V30 3408 C 315.321 1.14866 -6.01226 0
M  V30 3409 N 314.458 2.14702 -6.68467 0
M  V30 3410 H 319.298 -0.342603 -2.96024 0
M  V30 3411 H 316.835 -0.180801 -1.45985 0
M  V30 3412 H 318.793 2.04315 -3.63746 0
M  V30 3413 H 317.423 2.04671 -2.49619 0
M  V30 3414 H 316.475 0.0105671 -3.80399 0
M  V30 3415 H 317.787 0.233243 -4.98254 0
M  V30 3416 H 316.941 2.52793 -5.51526 0
M  V30 3417 H 315.68 2.37564 -4.25928 0
M  V30 3418 H 314.685 0.42171 -5.4818 0
M  V30 3419 H 315.91 0.595334 -6.76485 0
M  V30 3420 H 313.856 2.69752 -5.97972 0
M  V30 3421 H 313.773 1.6703 -7.37317 0
M  V30 3422 H 315.041 2.85348 -7.25394 0
M  V30 3423 N 319.27 1.56325 -0.20005 0
M  V30 3424 C 320.681 1.8408 0.31167 0
M  V30 3425 C 321.032 1.12087 1.61031 0
M  V30 3426 O 320.157 0.38332 2.12978 0
M  V30 3427 C 320.752 3.33932 0.57226 0
M  V30 3428 C 319.311 3.6208 1.02834 0
M  V30 3429 C 318.458 2.77186 0.079634 0
M  V30 3430 H 321.409 1.52939 -0.423729 0
M  V30 3431 H 321.43 3.52971 1.42096 0
M  V30 3432 H 320.942 3.86303 -0.37308 0
M  V30 3433 H 319.043 3.15147 1.98778 0
M  V30 3434 H 319.156 4.7023 0.917624 0
M  V30 3435 H 317.52 2.47951 0.582448 0
M  V30 3436 H 318.303 3.32347 -0.860238 0
M  V30 3437 N 320.748 -0.0735177 1.57428 0
M  V30 3438 C 321.658 -1.10547 2.06922 0
M  V30 3439 C 322.674 -1.42506 0.998402 0
M  V30 3440 O 323.85 -1.52717 1.31299 0
M  V30 3441 C 320.915 -2.40019 2.50184 0
M  V30 3442 C 319.976 -2.15046 3.71556 0
M  V30 3443 C 319.209 -3.38345 4.12745 0
M  V30 3444 O 319.432 -4.47399 3.53822 0
M  V30 3445 O 318.366 -3.2666 5.05546 0
M  V30 3446 H 322.192 -0.715013 2.95163 0
M  V30 3447 H 319.777 -0.287531 1.46607 0
M  V30 3448 H 321.659 -3.16218 2.78539 0
M  V30 3449 H 320.334 -2.78447 1.65072 0
M  V30 3450 H 319.241 -1.36558 3.48285 0
M  V30 3451 H 320.574 -1.81499 4.57514 0
M  V30 3452 N 322.226 -1.5378 -0.344866 0
M  V30 3453 C 323.174 -1.82373 -1.4437 0
M  V30 3454 C 324.168 -0.694128 -1.54526 0
M  V30 3455 O 325.374 -0.877442 -1.57165 0
M  V30 3456 H 321.749 -0.577765 -0.481344 0
M  V30 3457 H 323.72 -2.74306 -1.17468 0
M  V30 3458 C 322.469 -2.04898 -2.80913 0
M  V30 3459 H 321.792 -2.9127 -2.73865 0
M  V30 3460 H 323.232 -2.28871 -3.56923 0
M  V30 3461 C 321.691 -0.834116 -3.26411 0
M  V30 3462 O 322.221 -0.0328885 -4.01687 0
M  V30 3463 N 320.427 -0.65171 -2.83198 0
M  V30 3464 H 319.974 -1.30489 -2.22104 0
M  V30 3465 H 319.932 0.159686 -3.13994 0
M  V30 3466 N 323.704 0.605807 -1.45491 0
M  V30 3467 C 324.953 1.36086 -1.48874 0
M  V30 3468 C 325.266 1.95131 -0.135333 0
M  V30 3469 O 326.472 2.7146 -0.0468144 0
M  V30 3470 C 324.928 2.46518 -2.62215 0
M  V30 3471 C 324.536 1.93877 -4.03876 0
M  V30 3472 C 326.28 3.23512 -2.74846 0
M  V30 3473 C 324.187 3.01801 -5.08596 0
M  V30 3474 H 323.117 0.511497 -0.553974 0
M  V30 3475 H 325.768 0.649089 -1.71636 0
M  V30 3476 H 324.15 3.20388 -2.32739 0
M  V30 3477 H 325.324 1.26704 -4.43038 0
M  V30 3478 H 323.639 1.29622 -3.95711 0
M  V30 3479 H 326.236 4.04013 -3.50253 0
M  V30 3480 H 326.579 3.74631 -1.81542 0
M  V30 3481 H 327.112 2.56742 -3.03856 0
M  V30 3482 H 323.851 2.55597 -6.03614 0
M  V30 3483 H 323.371 3.67535 -4.74002 0
M  V30 3484 H 325.05 3.66152 -5.33424 0
M  V30 3485 N 325.182 1.32811 0.848464 0
M  V30 3486 C 326.112 1.24882 1.97299 0
M  V30 3487 C 327.093 0.131357 1.69592 0
M  V30 3488 O 328.278 0.319553 1.91553 0
M  V30 3489 C 325.408 0.97746 3.33261 0
M  V30 3490 C 324.362 2.05682 3.75338 0
M  V30 3491 C 323.688 1.63777 5.09 0
M  V30 3492 C 324.988 3.47254 3.90144 0
M  V30 3493 H 326.682 2.18966 2.04191 0
M  V30 3494 H 324.228 1.05413 0.981029 0
M  V30 3495 H 326.181 0.908513 4.1149 0
M  V30 3496 H 324.905 0.000980011 3.266 0
M  V30 3497 H 323.564 2.11603 2.99366 0
M  V30 3498 H 323.212 0.648569 4.98801 0
M  V30 3499 H 322.912 2.36 5.38124 0
M  V30 3500 H 324.436 1.5833 5.89715 0
M  V30 3501 H 325.85 3.43888 4.58709 0
M  V30 3502 H 324.247 4.1788 4.30693 0
M  V30 3503 H 325.317 3.86462 2.92874 0
M  V30 3504 N 326.66 -1.06551 1.16123 0
M  V30 3505 C 327.593 -2.13382 0.80892 0
M  V30 3506 C 328.571 -1.61128 -0.21827 0
M  V30 3507 O 329.755 -1.88219 -0.102952 0
M  V30 3508 C 326.882 -3.38083 0.204303 0
M  V30 3509 C 325.928 -4.09133 1.20469 0
M  V30 3510 S 326.761 -4.5948 2.75024 0
M  V30 3511 C 327.917 -5.87446 2.16005 0
M  V30 3512 H 328.15 -2.42937 1.71373 0
M  V30 3513 H 325.683 -1.18947 0.984428 0
M  V30 3514 H 327.641 -4.10268 -0.138081 0
M  V30 3515 H 326.302 -3.0669 -0.678234 0
M  V30 3516 H 325.495 -4.98685 0.730019 0
M  V30 3517 H 325.097 -3.4295 1.49202 0
M  V30 3518 H 327.389 -6.60065 1.5271 0
M  V30 3519 H 328.332 -6.39639 3.03756 0
M  V30 3520 H 328.74 -5.41354 1.59989 0
M  V30 3521 N 328.138 -0.959301 -1.25041 0
M  V30 3522 C 329.378 -0.624343 -1.94631 0
M  V30 3523 C 329.742 0.82403 -1.73418 0
M  V30 3524 O 330.943 1.26881 -2.3697 0
M  V30 3525 C 329.214 -0.978805 -3.43736 0
M  V30 3526 S 330.773 -0.757127 -4.32219 0
M  V30 3527 H 327.591 -0.229327 -0.673001 0
M  V30 3528 H 330.193 -1.23447 -1.51595 0
M  V30 3529 H 328.897 -2.02997 -3.56679 0
M  V30 3530 H 328.428 -0.359117 -3.91757 0
M  V30 3531 H 330.443 0.369759 -4.9482 0
M  V30 3532 N 329.616 1.39756 -0.72842 0
M  V30 3533 C 330.862 2.00942 -0.273892 0
M  V30 3534 C 331.195 1.57656 1.13394 0
M  V30 3535 O 330.47 0.802434 1.77176 0
M  V30 3536 C 330.753 3.58211 -0.368346 0
M  V30 3537 C 330.606 4.11534 -1.81548 0
M  V30 3538 C 331.925 4.39372 0.253054 0
M  V30 3539 H 329.044 0.730047 -0.100996 0
M  V30 3540 H 331.686 1.66056 -0.923337 0
M  V30 3541 H 329.836 3.88061 0.184588 0
M  V30 3542 H 331.508 3.92431 -2.42478 0
M  V30 3543 H 329.751 3.65341 -2.33898 0
M  V30 3544 H 330.422 5.20682 -1.83288 0
M  V30 3545 H 332.898 4.15527 -0.218224 0
M  V30 3546 H 331.774 5.48677 0.156585 0
M  V30 3547 H 332.035 4.21358 1.33826 0
M  V30 3548 N 331.094 0.475555 1.50254 0
M  V30 3549 C 332.371 -0.139685 1.95101 0
M  V30 3550 C 332.751 -1.56555 1.41611 0
M  V30 3551 O 332.099 -2.19956 0.618993 0
M  V30 3552 C 332.309 -0.0784298 3.48912 0
M  V30 3553 C 333.657 -0.265095 4.23772 0
M  V30 3554 O 334.681 -0.154808 3.55863 0
M  V30 3555 O 333.54 -0.488327 5.44314 0
M  V30 3556 H 330.634 -0.109236 0.819754 0
M  V30 3557 H 333.18 0.536276 1.61004 0
M  V30 3558 H 331.952 0.916918 3.80405 0
M  V30 3559 H 331.575 -0.795655 3.89558 0
M  V30 3560 N 332.573 -1.56217 0.208337 0
M  V30 3561 C 333.85 -1.89739 -0.475234 0
M  V30 3562 C 334.23 -1.1238 -1.78701 0
M  V30 3563 O 333.578 -0.228979 -2.2735 0
M  V30 3564 C 333.788 -3.42289 -0.681101 0
M  V30 3565 C 335.136 -4.12789 -0.994507 0
M  V30 3566 O 336.16 -3.47814 -0.768357 0
M  V30 3567 O 335.019 -5.27649 -1.42299 0
M  V30 3568 H 332.113 -0.788478 -0.249461 0
M  V30 3569 H 334.659 -1.67855 0.249538 0
M  V30 3570 H 333.431 -3.90534 0.244722 0
M  V30 3571 H 333.054 -3.69909 -1.45785 0
M  V30 3572 N 334.051 0.0651679 -1.57465 0
M  V30 3573 C 335.014 1.06117 -2.03155 0
M  V30 3574 C 336.014 1.31204 -0.929632 0
M  V30 3575 O 337.204 1.26813 -1.19432 0
M  V30 3576 C 334.336 2.4032 -2.41783 0
M  V30 3577 H 335.529 0.667231 -2.92383 0
M  V30 3578 H 333.082 0.311075 -1.53173 0
M  V30 3579 H 333.817 2.84532 -1.55601 0
M  V30 3580 H 333.602 2.23451 -3.22199 0
M  V30 3581 H 335.092 3.11898 -2.77685 0
M  V30 3582 N 335.529 1.53961 0.336706 0
M  V30 3583 C 336.759 1.75229 1.09446 0
M  V30 3584 C 337.167 0.494602 1.82621 0
M  V30 3585 O 336.51 -0.543764 1.75468 0
M  V30 3586 C 336.572 2.88288 2.1478 0
M  V30 3587 C 336.236 4.27656 1.6112 0
M  V30 3588 C 337.233 5.08981 1.0599 0
M  V30 3589 C 334.918 4.74161 1.6576 0
M  V30 3590 C 336.912 6.34916 0.562129 0
M  V30 3591 C 334.599 6.00067 1.15595 0
M  V30 3592 C 335.597 6.80278 0.609147 0
M  V30 3593 O 335.285 8.03818 0.114999 0
M  V30 3594 H 335.017 0.588881 0.331956 0
M  V30 3595 H 337.571 2.01614 0.392566 0
M  V30 3596 H 335.801 2.57443 2.88548 0
M  V30 3597 H 337.49 2.97461 2.76174 0
M  V30 3598 H 338.256 4.74213 1.01722 0
M  V30 3599 H 334.135 4.11781 2.07261 0
M  V30 3600 H 337.679 6.9747 0.134668 0
M  V30 3601 H 333.576 6.3433 1.19566 0
M  V30 3602 H 334.344 8.18172 0.231651 0
M  V30 3603 N 337.007 -0.598083 1.45811 0
M  V30 3604 C 338.253 -1.35882 1.50545 0
M  V30 3605 C 338.586 -1.93616 0.150445 0
M  V30 3606 O 337.861 -1.75604 -0.83628 0
M  V30 3607 C 338.144 -2.49966 2.59208 0
M  V30 3608 C 337.997 -1.97367 4.04186 0
M  V30 3609 C 339.316 -3.52068 2.64076 0
M  V30 3610 H 336.435 -0.492717 0.548087 0
M  V30 3611 H 339.077 -0.673319 1.77669 0
M  V30 3612 H 337.227 -3.08443 2.3621 0
M  V30 3613 H 338.899 -1.43466 4.38423 0
M  V30 3614 H 337.142 -1.283 4.14393 0
M  V30 3615 H 337.813 -2.79649 4.75921 0
M  V30 3616 H 340.289 -3.03448 2.84708 0
M  V30 3617 H 339.165 -4.2937 3.41954 0
M  V30 3618 H 339.426 -4.08304 1.69531 0
M  V30 3619 N 338.485 -1.33259 -0.841409 0
M  V30 3620 C 339.901 -1.12538 -1.13169 0
M  V30 3621 C 340.101 0.0854037 -2.01319 0
M  V30 3622 O 339.157 0.766417 -2.40587 0
M  V30 3623 C 340.47 -2.41156 -1.79623 0
M  V30 3624 C 342.018 -2.47038 -1.922 0
M  V30 3625 C 342.493 -3.7561 -2.6207 0
M  V30 3626 N 343.984 -3.76667 -2.69585 0
M  V30 3627 C 344.719 -4.72861 -3.2433 0
M  V30 3628 N 344.215 -5.79428 -3.79783 0
M  V30 3629 N 346.008 -4.6034 -3.22558 0
M  V30 3630 H 338.159 -2.10868 -0.254676 0
M  V30 3631 H 340.422 -0.931615 -0.175493 0
M  V30 3632 H 340.128 -3.29747 -1.22311 0
M  V30 3633 H 340.002 -2.53114 -2.79666 0
M  V30 3634 H 342.389 -1.58898 -2.48667 0
M  V30 3635 H 342.47 -2.39022 -0.911148 0
M  V30 3636 H 342.114 -4.64131 -2.06263 0
M  V30 3637 H 342.044 -3.80902 -3.63622 0
M  V30 3638 H 344.535 -2.99648 -2.30259 0
M  V30 3639 H 344.848 -6.48867 -4.19752 0
M  V30 3640 H 343.193 -5.83166 -3.78078 0
M  V30 3641 H 346.384 -3.76244 -2.78492 0
M  V30 3642 H 346.557 -5.35478 -3.64921 0
M  V30 3643 N 339.963 1.05934 -1.16686 0
M  V30 3644 C 341.379 1.30938 -0.912542 0
M  V30 3645 C 341.579 1.96803 0.432533 0
M  V30 3646 O 340.635 2.23693 1.17123 0
M  V30 3647 C 341.948 2.18649 -2.06429 0
M  V30 3648 C 343.496 2.32055 -2.10047 0
M  V30 3649 C 343.971 3.23122 -3.24586 0
M  V30 3650 N 345.462 3.30706 -3.24327 0
M  V30 3651 C 346.197 4.01273 -4.09594 0
M  V30 3652 N 345.693 4.74332 -5.04956 0
M  V30 3653 N 347.486 3.97361 -3.97569 0
M  V30 3654 H 339.637 0.615777 -2.03278 0
M  V30 3655 H 341.9 0.334077 -0.887185 0
M  V30 3656 H 341.606 1.77534 -3.03603 0
M  V30 3657 H 341.48 3.19252 -2.00894 0
M  V30 3658 H 343.867 2.72415 -1.13464 0
M  V30 3659 H 343.948 1.31107 -2.19647 0
M  V30 3660 H 343.592 2.83477 -4.2143 0
M  V30 3661 H 343.522 4.24057 -3.12223 0
M  V30 3662 H 346.013 2.78644 -2.55276 0
M  V30 3663 H 346.326 5.25716 -5.6643 0
M  V30 3664 H 344.671 4.733 -5.08933 0
M  V30 3665 H 347.862 3.39405 -3.22369 0
M  V30 3666 H 348.035 4.52089 -4.64241 0
M  V30 3667 N 341.441 0.965919 1.2453 0
M  V30 3668 C 342.374 0.4393 2.23932 0
M  V30 3669 C 343.352 -0.485615 1.55179 0
M  V30 3670 O 344.536 -0.417402 1.83821 0
M  V30 3671 C 341.663 -0.366042 3.36716 0
M  V30 3672 C 340.709 0.5009 4.23548 0
M  V30 3673 S 341.542 1.94002 4.99123 0
M  V30 3674 C 342.698 1.14342 6.15367 0
M  V30 3675 H 342.931 1.28167 2.68254 0
M  V30 3676 H 340.464 0.770819 1.33782 0
M  V30 3677 H 342.422 -0.824724 4.0213 0
M  V30 3678 H 341.083 -1.18337 2.90956 0
M  V30 3679 H 340.276 -0.117341 5.03863 0
M  V30 3680 H 339.878 0.89524 3.63127 0
M  V30 3681 H 342.17 0.397572 6.76332 0
M  V30 3682 H 343.113 1.92089 6.81548 0
M  V30 3683 H 343.521 0.668579 5.60527 0
M  V30 3684 N 342.919 -1.39368 0.735821 0
M  V30 3685 C 343.882 -2.2896 0.104874 0
M  V30 3686 C 344.882 -1.46347 -0.666274 0
M  V30 3687 O 346.072 -1.67014 -0.49517 0
M  V30 3688 C 343.204 -3.29857 -0.860656 0
M  V30 3689 H 344.397 -2.86259 0.894205 0
M  V30 3690 H 341.95 -1.48029 0.501704 0
M  V30 3691 H 342.685 -2.77615 -1.67631 0
M  V30 3692 H 342.47 -3.9087 -0.310327 0
M  V30 3693 H 343.96 -3.96893 -1.29867 0
M  V30 3694 N 344.397 -0.483516 -1.5 0
M  V30 3695 C 345.36 0.292965 -2.2732 0
M  V30 3696 C 346.36 0.909499 -1.32608 0
M  V30 3697 O 347.55 0.776745 -1.55924 0
M  V30 3698 C 344.682 1.41854 -3.09984 0
M  V30 3699 H 345.875 -0.385289 -2.97415 0
M  V30 3700 H 343.428 -0.237942 -1.54478 0
M  V30 3701 H 344.163 2.13148 -2.44414 0
M  V30 3702 H 343.948 0.982114 -3.79601 0
M  V30 3703 H 345.438 1.96597 -3.68429 0
M  V30 3704 N 345.875 1.56104 -0.216619 0
M  V30 3705 C 346.785 2.23694 0.706982 0
M  V30 3706 C 347.801 1.24295 1.21765 0
M  V30 3707 O 348.977 1.57094 1.2603 0
M  V30 3708 C 346.042 2.8998 1.90033 0
M  V30 3709 C 345.103 4.04708 1.43213 0
M  V30 3710 C 344.336 4.67824 2.56859 0
M  V30 3711 O 344.559 4.29913 3.74874 0
M  V30 3712 O 343.493 5.56905 2.28343 0
M  V30 3713 H 347.319 3.03272 0.161235 0
M  V30 3714 H 344.904 1.49394 0.0136177 0
M  V30 3715 H 346.786 3.31837 2.59735 0
M  V30 3716 H 345.461 2.13365 2.43428 0
M  V30 3717 H 344.368 3.6743 0.70327 0
M  V30 3718 H 345.701 4.83051 0.944615 0
M  V30 3719 N 347.353 -0.0568162 1.57498 0
M  V30 3720 C 348.316 -1.05038 2.03715 0
M  V30 3721 C 349.316 -1.30709 0.936577 0
M  V30 3722 O 350.506 -1.26178 1.20103 0
M  V30 3723 C 347.638 -2.39034 2.43055 0
M  V30 3724 H 348.831 -0.651715 2.92733 0
M  V30 3725 H 346.384 -0.302947 1.53336 0
M  V30 3726 H 347.119 -2.83703 1.57108 0
M  V30 3727 H 346.904 -2.21739 3.2338 0
M  V30 3728 H 348.394 -3.10421 2.79336 0
M  V30 3729 N 348.832 -1.54138 -0.328536 0
M  V30 3730 C 350.06 -1.76062 -1.08673 0
M  V30 3731 C 350.475 -0.506852 -1.81869 0
M  V30 3732 O 349.832 0.522223 -1.74869 0
M  V30 3733 C 349.883 -2.95054 -2.08866 0
M  V30 3734 O 349.604 -4.15583 -1.38644 0
M  V30 3735 C 351.105 -3.2915 -2.96943 0
M  V30 3736 H 348.325 -0.587889 -0.323461 0
M  V30 3737 H 350.869 -2.0101 -0.376175 0
M  V30 3738 H 349.024 -2.72394 -2.75464 0
M  V30 3739 H 349.438 -4.82481 -2.05699 0
M  V30 3740 H 350.912 -4.15723 -3.63151 0
M  V30 3741 H 351.389 -2.461 -3.63774 0
M  V30 3742 H 351.995 -3.53871 -2.35914 0
M  V30 3743 N 350.31 0.590341 -1.46126 0
M  V30 3744 C 351.22 1.72793 -1.58681 0
M  V30 3745 C 352.236 1.67516 -0.470566 0
M  V30 3746 O 353.412 1.87562 -0.733642 0
M  V30 3747 C 350.477 3.09287 -1.5666 0
M  V30 3748 C 349.538 3.25886 -2.79458 0
M  V30 3749 C 348.771 4.55869 -2.77524 0
M  V30 3750 O 348.994 5.3928 -1.85832 0
M  V30 3751 O 347.928 4.75552 -3.68964 0
M  V30 3752 H 351.754 1.65149 -2.54872 0
M  V30 3753 H 349.339 0.756486 -1.28832 0
M  V30 3754 H 351.221 3.90577 -1.58202 0
M  V30 3755 H 349.896 3.17385 -0.636271 0
M  V30 3756 H 348.803 2.44119 -2.83472 0
M  V30 3757 H 350.136 3.22675 -3.71674 0
M  V30 3758 N 351.788 1.33704 0.83433 0
M  V30 3759 C 353.034 1.26612 1.59188 0
M  V30 3760 C 353.389 -0.165439 1.91687 0
M  V30 3761 O 352.682 -1.10873 1.56262 0
M  V30 3762 C 352.876 2.07926 2.90692 0
M  V30 3763 C 352.705 3.58844 2.71038 0
M  V30 3764 C 351.475 4.28148 2.68361 0
M  V30 3765 C 353.673 4.53082 2.43353 0
M  V30 3766 N 351.655 5.64987 2.40132 0
M  V30 3767 C 353.026 5.77843 2.24716 0
M  V30 3768 C 355.081 4.42119 2.28987 0
M  V30 3769 C 353.784 6.92877 1.9317 0
M  V30 3770 C 355.81 5.56973 1.98835 0
M  V30 3771 C 355.172 6.80745 1.81012 0
M  V30 3772 H 351.271 0.518517 0.585375 0
M  V30 3773 H 353.855 1.68294 0.979044 0
M  V30 3774 H 352.026 1.68558 3.49918 0
M  V30 3775 H 353.758 1.92568 3.55949 0
M  V30 3776 H 350.513 3.80469 2.82029 0
M  V30 3777 H 350.937 6.37133 2.28889 0
M  V30 3778 H 355.579 3.47058 2.41477 0
M  V30 3779 H 353.297 7.87931 1.79418 0
M  V30 3780 H 356.883 5.50428 1.88468 0
M  V30 3781 H 355.763 7.68115 1.58017 0
M  V30 3782 N 353.266 -1.05314 1.17247 0
M  V30 3783 C 354.198 -2.13023 0.845812 0
M  V30 3784 C 355.211 -1.62096 -0.151246 0
M  V30 3785 O 356.4 -1.78343 0.0748818 0
M  V30 3786 C 353.5 -3.38047 0.240292 0
M  V30 3787 C 352.673 -4.18255 1.27991 0
M  V30 3788 C 351.732 -5.21625 0.692375 0
M  V30 3789 O 350.758 -5.52619 1.36385 0
M  V30 3790 N 351.96 -5.78201 -0.516178 0
M  V30 3791 H 354.725 -2.41642 1.77283 0
M  V30 3792 H 352.286 -1.21401 1.07115 0
M  V30 3793 H 354.278 -4.04359 -0.16603 0
M  V30 3794 H 352.848 -3.06972 -0.590487 0
M  V30 3795 H 352.068 -3.47451 1.86203 0
M  V30 3796 H 353.356 -4.68643 1.98119 0
M  V30 3797 H 352.754 -5.55301 -1.07969 0
M  V30 3798 H 351.311 -6.4604 -0.86458 0
M  V30 3799 N 354.744 -0.972509 -1.24016 0
M  V30 3800 C 355.691 -0.505969 -2.25186 0
M  V30 3801 C 356.661 0.451009 -1.5986 0
M  V30 3802 O 357.846 0.360307 -1.87367 0
M  V30 3803 C 354.986 0.193089 -3.44559 0
M  V30 3804 C 354.099 -0.803222 -4.24467 0
M  V30 3805 C 353.234 -0.0797793 -5.3114 0
M  V30 3806 C 352.273 -1.06583 -6.02749 0
M  V30 3807 N 351.41 -0.372074 -7.01113 0
M  V30 3808 H 356.25 -1.37351 -2.64459 0
M  V30 3809 H 353.787 -0.688419 -1.29997 0
M  V30 3810 H 355.745 0.615125 -4.1264 0
M  V30 3811 H 354.375 1.02455 -3.06109 0
M  V30 3812 H 353.427 -1.34368 -3.55878 0
M  V30 3813 H 354.739 -1.55494 -4.73944 0
M  V30 3814 H 353.893 0.400015 -6.0538 0
M  V30 3815 H 352.632 0.704597 -4.82583 0
M  V30 3816 H 351.637 -1.55645 -5.27309 0
M  V30 3817 H 352.862 -1.85074 -6.53395 0
M  V30 3818 H 350.808 0.393238 -6.5482 0
M  V30 3819 H 350.725 -1.06258 -7.48495 0
M  V30 3820 H 351.993 0.0855932 -7.79453 0
M  V30 3821 N 356.222 1.38976 -0.743202 0
M  V30 3822 C 357.185 2.28901 -0.117014 0
M  V30 3823 C 358.185 1.46698 0.658503 0
M  V30 3824 O 359.375 1.67274 0.486305 0
M  V30 3825 C 356.507 3.30309 0.84315 0
M  V30 3826 H 357.7 2.8578 -0.909373 0
M  V30 3827 H 355.253 1.47761 -0.509547 0
M  V30 3828 H 355.988 2.785 1.66157 0
M  V30 3829 H 355.773 3.91029 0.289594 0
M  V30 3830 H 357.263 3.97577 1.2776 0
M  V30 3831 N 357.7 0.491464 1.49741 0
M  V30 3832 C 358.948 -0.0563141 2.02022 0
M  V30 3833 C 359.269 -1.38363 1.37407 0
M  V30 3834 O 358.539 -1.88702 0.526166 0
M  V30 3835 H 357.119 -0.0238014 0.746621 0
M  V30 3836 H 359.781 0.646533 1.83864 0
M  V30 3837 H 358.877 -0.192967 3.11503 0
M  V30 3838 N 359.178 -1.55987 0.224894 0
M  V30 3839 C 360.141 -2.19178 -0.670348 0
M  V30 3840 C 361.141 -1.15461 -1.11917 0
M  V30 3841 O 362.331 -1.40675 -1.02743 0
M  V30 3842 C 359.463 -2.81777 -1.9187 0
M  V30 3843 H 360.656 -2.99662 -0.119364 0
M  V30 3844 H 358.209 -1.5628 -0.0247128 0
M  V30 3845 H 358.944 -2.05172 -2.51147 0
M  V30 3846 H 358.729 -3.57732 -1.60531 0
M  V30 3847 H 360.219 -3.30205 -2.55645 0
M  V30 3848 N 360.656 0.0484629 -1.57525 0
M  V30 3849 C 362.067 0.597486 -1.76881 0
M  V30 3850 C 362.418 1.76664 -0.853475 0
M  V30 3851 O 361.543 2.16357 -0.0433656 0
M  V30 3852 C 362.138 1.09066 -3.20765 0
M  V30 3853 C 360.697 1.58535 -3.41385 0
M  V30 3854 C 359.844 0.514868 -2.72478 0
M  V30 3855 H 362.795 -0.177758 -1.57701 0
M  V30 3856 H 362.816 1.95875 -3.2621 0
M  V30 3857 H 362.328 0.239521 -3.8736 0
M  V30 3858 H 360.429 2.45898 -2.79937 0
M  V30 3859 H 360.542 1.64622 -4.49929 0
M  V30 3860 H 358.906 0.965407 -2.35695 0
M  V30 3861 H 359.689 -0.32648 -3.41744 0
M  V30 3862 N 362.134 1.5431 0.320358 0
M  V30 3863 C 363.545 1.63872 0.894594 0
M  V30 3864 C 363.896 0.534847 1.88769 0
M  V30 3865 O 363.021 -0.331732 2.13842 0
M  V30 3866 C 363.616 2.97049 1.62934 0
M  V30 3867 C 362.175 3.08796 2.15226 0
M  V30 3868 C 361.322 2.59456 0.978671 0
M  V30 3869 H 364.273 1.58398 0.0978544 0
M  V30 3870 H 364.294 2.87388 2.49376 0
M  V30 3871 H 363.806 3.7737 0.906302 0
M  V30 3872 H 361.907 2.33156 2.90636 0
M  V30 3873 H 362.02 4.14649 2.40006 0
M  V30 3874 H 360.384 2.1543 1.35875 0
M  V30 3875 H 361.167 3.42237 0.269895 0
M  V30 3876 N 363.613 -0.582584 1.46437 0
M  V30 3877 C 365.024 -1.1647 1.45916 0
M  V30 3878 C 365.375 -1.95177 0.200077 0
M  V30 3879 O 364.5 -2.04874 -0.696819 0
M  V30 3880 C 365.095 -2.11885 2.64367 0
M  V30 3881 C 363.654 -2.65421 2.66887 0
M  V30 3882 C 362.801 -1.41294 2.38603 0
M  V30 3883 H 365.752 -0.370514 1.54314 0
M  V30 3884 H 365.773 -2.9535 2.39892 0
M  V30 3885 H 365.285 -1.54573 3.5599 0
M  V30 3886 H 363.386 -3.26602 1.79338 0
M  V30 3887 H 363.499 -3.08147 3.66854 0
M  V30 3888 H 361.863 -1.71109 1.88663 0
M  V30 3889 H 362.646 -0.858125 3.32402 0
M  V30 3890 N 365.091 -1.34144 -0.827227 0
M  V30 3891 C 366.316 -1.29476 -1.62021 0
M  V30 3892 C 366.741 0.129292 -1.87655 0
M  V30 3893 O 366.099 1.08967 -1.449 0
M  V30 3894 C 366.147 -2.08702 -2.94068 0
M  V30 3895 O 365.251 -1.45359 -3.85933 0
M  V30 3896 H 364.592 -0.444881 -0.492927 0
M  V30 3897 H 367.122 -1.76882 -1.02829 0
M  V30 3898 H 367.132 -2.19898 -3.43669 0
M  V30 3899 H 365.807 -3.12241 -2.74734 0
M  V30 3900 H 364.384 -1.42879 -3.44442 0
M  V30 3901 N 366.569 1.04691 -1.17803 0
M  V30 3902 C 367.817 1.7743 -0.967617 0
M  V30 3903 C 368.138 1.88359 0.504574 0
M  V30 3904 O 367.408 1.40402 1.36617 0
M  V30 3905 H 365.988 0.657242 -0.355024 0
M  V30 3906 H 368.65 1.2638 -1.48371 0
M  V30 3907 H 367.746 2.78924 -1.40027 0
M  V30 3908 N 368.047 0.979072 1.23499 0
M  V30 3909 C 369.272 0.664845 1.96455 0
M  V30 3910 C 369.697 -0.761287 1.72006 0
M  V30 3911 O 369.055 -1.51837 0.990713 0
M  V30 3912 C 369.103 0.959479 3.47601 0
M  V30 3913 O 368.207 0.0508168 4.12369 0
M  V30 3914 H 367.548 0.250185 0.615064 0
M  V30 3915 H 370.078 1.31231 1.5697 0
M  V30 3916 H 370.088 0.895642 3.98048 0
M  V30 3917 H 368.763 1.99876 3.64723 0
M  V30 3918 H 367.34 0.16895 3.72517 0
M  V30 3919 N 369.525 -1.3858 0.750561 0
M  V30 3920 C 370.488 -2.28836 0.129152 0
M  V30 3921 C 371.488 -1.47045 -0.650714 0
M  V30 3922 O 372.678 -1.6753 -0.477428 0
M  V30 3923 C 369.81 -3.30751 -0.825622 0
M  V30 3924 H 371.003 -2.85294 0.924516 0
M  V30 3925 H 368.556 -1.47489 0.517376 0
M  V30 3926 H 369.291 -2.79378 -1.64677 0
M  V30 3927 H 369.076 -3.91177 -0.268852 0
M  V30 3928 H 370.566 -3.98249 -1.2565 0
M  V30 3929 N 371.003 -0.499398 -1.49478 0
M  V30 3930 C 372.249 0.0457576 -2.02748 0
M  V30 3931 C 372.582 1.36793 -1.37846 0
M  V30 3932 O 371.857 1.87596 -0.513601 0
M  V30 3933 C 372.14 0.199986 -3.59544 0
M  V30 3934 C 371.993 -1.1452 -4.34977 0
M  V30 3935 C 373.312 0.94137 -4.29914 0
M  V30 3936 H 370.431 0.0151552 -0.736844 0
M  V30 3937 H 373.073 -0.650498 -1.78518 0
M  V30 3938 H 371.223 0.793007 -3.8032 0
M  V30 3939 H 372.895 -1.77697 -4.25701 0
M  V30 3940 H 371.138 -1.73488 -3.97598 0
M  V30 3941 H 371.809 -0.990607 -5.43039 0
M  V30 3942 H 374.285 0.43844 -4.13784 0
M  V30 3943 H 373.161 1.01812 -5.39375 0
M  V30 3944 H 373.422 1.98471 -3.95046 0
M  V30 3945 N 372.481 1.55866 -0.233164 0
M  V30 3946 C 373.706 2.03449 0.402906 0
M  V30 3947 C 374.131 1.11166 1.51736 0
M  V30 3948 O 373.489 0.101996 1.81013 0
M  V30 3949 C 373.537 3.49165 0.9009 0
M  V30 3950 O 372.641 3.60019 2.01147 0
M  V30 3951 H 371.982 0.657913 0.0897025 0
M  V30 3952 H 374.512 2.01493 -0.355201 0
M  V30 3953 H 374.522 3.89716 1.2077 0
M  V30 3954 H 373.197 4.15813 0.0852889 0
M  V30 3955 H 371.774 3.3136 1.71042 0
M  V30 3956 N 373.959 -0.0401083 1.57549 0
M  V30 3957 C 375.187 -0.745196 1.93014 0
M  V30 3958 C 375.602 -1.6948 0.831984 0
M  V30 3959 O 374.959 -1.81482 -0.192463 0
M  V30 3960 C 375.01 -1.51176 3.28372 0
M  V30 3961 O 374.731 -0.600284 4.33968 0
M  V30 3962 C 376.232 -2.315 3.78051 0
M  V30 3963 H 373.452 -0.210088 0.637263 0
M  V30 3964 H 375.996 -0.000924689 2.045 0
M  V30 3965 H 374.151 -2.20801 3.18317 0
M  V30 3966 H 374.565 -1.13669 5.12035 0
M  V30 3967 H 376.039 -2.80697 4.75303 0
M  V30 3968 H 376.516 -3.12436 3.08675 0
M  V30 3969 H 377.122 -1.66971 3.91153 0
M  V30 3970 N 375.437 -1.54477 -0.31217 0
M  V30 3971 C 376.4 -1.83923 -1.36766 0
M  V30 3972 C 377.4 -0.711563 -1.44199 0
M  V30 3973 O 378.59 -0.979866 -1.44029 0
M  V30 3974 C 375.722 -2.0095 -2.75376 0
M  V30 3975 H 376.915 -2.78239 -1.11906 0
M  V30 3976 H 374.468 -1.46369 -0.548257 0
M  V30 3977 H 375.203 -1.08883 -3.05475 0
M  V30 3978 H 374.988 -2.83018 -2.71373 0
M  V30 3979 H 376.478 -2.2514 -3.51713 0
M  V30 3980 N 376.915 0.57481 -1.46744 0
M  V30 3981 C 378.326 1.15695 -1.46532 0
M  V30 3982 C 378.677 1.95068 -0.210425 0
M  V30 3983 O 377.802 2.05241 0.685944 0
M  V30 3984 C 378.397 2.1048 -2.65487 0
M  V30 3985 C 376.956 2.64002 -2.68291 0
M  V30 3986 C 376.103 1.40026 -2.39349 0
M  V30 3987 H 379.054 0.362325 -1.54509 0
M  V30 3988 H 379.075 2.94074 -2.41455 0
M  V30 3989 H 378.587 1.52683 -3.56805 0
M  V30 3990 H 376.688 3.25646 -1.81067 0
M  V30 3991 H 376.801 3.06197 -3.68483 0
M  V30 3992 H 375.165 1.70106 -1.89568 0
M  V30 3993 H 375.948 0.840485 -3.32852 0
M  V30 3994 N 378.394 1.34581 0.820102 0
M  V30 3995 C 379.326 1.22236 1.93884 0
M  V30 3996 C 380.339 0.148776 1.62119 0
M  V30 3997 O 381.528 0.400877 1.7394 0
M  V30 3998 C 378.628 0.856542 3.27897 0
M  V30 3999 C 377.801 2.02569 3.87666 0
M  V30 4000 C 376.86 1.63782 5.00062 0
M  V30 4001 O 375.886 2.35477 5.18208 0
M  V30 4002 N 377.088 0.553611 5.77854 0
M  V30 4003 H 379.853 2.18615 2.05006 0
M  V30 4004 H 377.414 1.27573 0.99683 0
M  V30 4005 H 379.406 0.578806 4.0054 0
M  V30 4006 H 377.976 -0.0171518 3.12595 0
M  V30 4007 H 377.196 2.468 3.07382 0
M  V30 4008 H 378.484 2.80752 4.24329 0
M  V30 4009 H 377.882 -0.0423528 5.65684 0
M  V30 4010 H 376.439 0.335614 6.50935 0
M  V30 4011 N 379.872 -1.04064 1.18357 0
M  V30 4012 C 380.804 -2.12114 0.868358 0
M  V30 4013 C 381.817 -1.62247 -0.134045 0
M  V30 4014 O 383.006 -1.78253 0.0937933 0
M  V30 4015 C 380.106 -3.37773 0.276132 0
M  V30 4016 C 379.279 -4.16874 1.3242 0
M  V30 4017 C 378.338 -5.20861 0.747662 0
M  V30 4018 O 377.364 -5.51141 1.42239 0
M  V30 4019 N 378.566 -5.78715 -0.454823 0
M  V30 4020 H 381.331 -2.39748 1.79836 0
M  V30 4021 H 378.892 -1.20258 1.08396 0
M  V30 4022 H 380.884 -4.04513 -0.123133 0
M  V30 4023 H 379.454 -3.07581 -0.557895 0
M  V30 4024 H 378.674 -3.45456 1.89878 0
M  V30 4025 H 379.962 -4.66516 2.03078 0
M  V30 4026 H 379.36 -5.56415 -1.02073 0
M  V30 4027 H 377.917 -6.46921 -0.79601 0
M  V30 4028 N 381.35 -0.985608 -1.22978 0
M  V30 4029 C 382.297 -0.529825 -2.24636 0
M  V30 4030 C 383.267 0.434028 -1.60329 0
M  V30 4031 O 384.452 0.340414 -1.87739 0
M  V30 4032 C 381.592 0.156533 -3.44745 0
M  V30 4033 C 380.705 -0.848197 -4.23591 0
M  V30 4034 C 379.84 -0.136109 -5.31026 0
M  V30 4035 C 378.879 -1.1297 -6.01585 0
M  V30 4036 N 378.016 -0.446415 -7.00679 0
M  V30 4037 H 382.856 -1.40148 -2.62988 0
M  V30 4038 H 380.393 -0.702168 -1.29259 0
M  V30 4039 H 382.351 0.571324 -4.1327 0
M  V30 4040 H 380.981 0.992025 -3.07179 0
M  V30 4041 H 380.033 -1.38135 -3.54433 0
M  V30 4042 H 381.345 -1.60512 -4.72268 0
M  V30 4043 H 380.499 0.335784 -6.0577 0
M  V30 4044 H 379.238 0.653373 -4.83304 0
M  V30 4045 H 378.243 -1.6123 -5.25628 0
M  V30 4046 H 379.468 -1.91993 -6.51395 0
M  V30 4047 H 377.414 0.323763 -6.55201 0
M  V30 4048 H 377.331 -1.1419 -7.47326 0
M  V30 4049 H 378.599 0.00291697 -7.795 0
M  V30 4050 N 382.828 1.3818 -0.7579 0
M  V30 4051 C 384.239 1.82726 -0.383134 0
M  V30 4052 C 384.59 1.63214 1.08884 0
M  V30 4053 O 383.715 1.13566 1.84205 0
M  V30 4054 C 384.31 3.31728 -0.688631 0
M  V30 4055 C 382.869 3.74606 -0.367091 0
M  V30 4056 C 382.016 2.60896 -0.939599 0
M  V30 4057 H 384.967 1.26847 -0.953699 0
M  V30 4058 H 384.988 3.80487 0.0316492 0
M  V30 4059 H 384.5 3.45898 -1.76001 0
M  V30 4060 H 382.601 3.66013 0.697532 0
M  V30 4061 H 382.714 4.71215 -0.865658 0
M  V30 4062 H 381.078 2.52075 -0.3647 0
M  V30 4063 H 381.861 2.77864 -2.0161 0
M  V30 4064 N 384.306 0.507319 1.49211 0
M  V30 4065 C 385.555 -0.0368315 2.01666 0
M  V30 4066 C 385.868 -1.37459 1.39156 0
M  V30 4067 O 387.074 -2.00579 1.82976 0
M  V30 4068 C 385.53 -0.116089 3.59713 0
M  V30 4069 C 385.138 1.2154 4.31198 0
M  V30 4070 C 386.882 -0.610268 4.2009 0
M  V30 4071 C 384.789 1.09796 5.81119 0
M  V30 4072 H 383.719 -0.0175376 0.753796 0
M  V30 4073 H 386.37 0.647691 1.71689 0
M  V30 4074 H 384.752 -0.8652 3.86433 0
M  V30 4075 H 385.926 1.9783 4.16173 0
M  V30 4076 H 384.241 1.64352 3.82593 0
M  V30 4077 H 386.838 -0.715742 5.29888 0
M  V30 4078 H 387.181 -1.61064 3.8388 0
M  V30 4079 H 387.714 0.0824916 3.97714 0
M  V30 4080 H 384.453 2.0728 6.21864 0
M  V30 4081 H 383.973 0.376058 5.9862 0
M  V30 4082 H 385.652 0.779281 6.4229 0
M  V30 4083 N 385.784 -1.5574 0.241426 0
M  V30 4084 C 387.032 -1.98417 -0.384075 0
M  V30 4085 C 387.353 -1.13078 -1.58866 0
M  V30 4086 O 386.623 -0.212312 -1.94746 0
M  V30 4087 H 385.203 -0.732813 -0.144894 0
M  V30 4088 H 387.865 -1.9193 0.338943 0
M  V30 4089 H 386.961 -3.04219 -0.696939 0
M  V30 4090 N 387.262 0.0317525 -1.57568 0
M  V30 4091 C 388.209 1.0332 -2.06382 0
M  V30 4092 C 389.179 1.36082 -0.952414 0
M  V30 4093 O 390.364 1.46466 -1.2228 0
M  V30 4094 C 387.504 2.32989 -2.54578 0
M  V30 4095 C 386.617 2.0641 -3.79498 0
M  V30 4096 C 385.752 3.2993 -4.16317 0
M  V30 4097 C 384.791 2.98893 -5.34162 0
M  V30 4098 N 383.928 4.14857 -5.66426 0
M  V30 4099 H 388.768 0.609982 -2.9169 0
M  V30 4100 H 386.305 0.289573 -1.44222 0
M  V30 4101 H 388.263 3.0875 -2.80587 0
M  V30 4102 H 386.893 2.73039 -1.7219 0
M  V30 4103 H 385.945 1.21158 -3.6059 0
M  V30 4104 H 387.257 1.79513 -4.65378 0
M  V30 4105 H 386.411 4.1406 -4.4344 0
M  V30 4106 H 385.15 3.59938 -3.29083 0
M  V30 4107 H 384.155 2.13164 -5.06795 0
M  V30 4108 H 385.38 2.70165 -6.23047 0
M  V30 4109 H 383.326 4.44821 -4.82151 0
M  V30 4110 H 383.243 3.91374 -6.4681 0
M  V30 4111 H 384.511 4.99868 -5.98124 0
M  V30 4112 N 388.74 1.54641 0.303973 0
M  V30 4113 C 389.989 1.7299 1.03717 0
M  V30 4114 C 390.302 0.521168 1.88529 0
M  V30 4115 O 391.508 0.586408 2.65092 0
M  V30 4116 C 389.964 3.06051 1.89369 0
M  V30 4117 C 389.572 4.34393 1.09574 0
M  V30 4118 C 391.316 3.3376 2.62306 0
M  V30 4119 C 389.223 5.58506 1.94486 0
M  V30 4120 H 388.153 0.64473 0.390947 0
M  V30 4121 H 390.804 1.81124 0.294328 0
M  V30 4122 H 389.186 2.91874 2.67629 0
M  V30 4123 H 390.36 4.59396 0.359485 0
M  V30 4124 H 388.675 4.13597 0.482324 0
M  V30 4125 H 391.272 4.23687 3.26181 0
M  V30 4126 H 391.615 2.52503 3.3098 0
M  V30 4127 H 392.148 3.48894 1.91097 0
M  V30 4128 H 388.887 6.42422 1.30287 0
M  V30 4129 H 388.407 5.37694 2.65792 0
M  V30 4130 H 390.086 5.95651 2.52605 0
M  V30 4131 N 390.218 -0.567019 1.47046 0
M  V30 4132 C 391.443 -1.3551 1.57009 0
M  V30 4133 C 391.868 -1.86841 0.217259 0
M  V30 4134 O 391.226 -1.62435 -0.805268 0
M  V30 4135 C 391.274 -2.50777 2.5912 0
M  V30 4136 O 390.378 -3.52706 2.13711 0
M  V30 4137 H 389.719 -0.402919 0.52778 0
M  V30 4138 H 392.249 -0.686241 1.92748 0
M  V30 4139 H 392.259 -2.97481 2.79229 0
M  V30 4140 H 390.934 -2.12771 3.57353 0
M  V30 4141 H 389.511 -3.12374 2.03659 0
M  V30 4142 N 391.696 -1.35014 -0.812953 0
M  V30 4143 C 392.643 -1.27412 -1.92444 0
M  V30 4144 C 393.613 -0.14733 -1.65445 0
M  V30 4145 O 394.798 -0.329974 -1.87925 0
M  V30 4146 C 391.938 -1.04558 -3.28879 0
M  V30 4147 C 391.051 -2.26101 -3.68106 0
M  V30 4148 C 390.186 -1.96449 -4.9354 0
M  V30 4149 C 389.225 -3.14081 -5.25376 0
M  V30 4150 N 388.362 -2.84246 -6.41988 0
M  V30 4151 H 393.202 -2.22463 -1.98278 0
M  V30 4152 H 390.739 -1.10593 -0.969933 0
M  V30 4153 H 392.697 -0.893413 -4.07522 0
M  V30 4154 H 391.327 -0.131719 -3.22531 0
M  V30 4155 H 390.379 -2.52204 -2.84775 0
M  V30 4156 H 391.691 -3.13959 -3.87597 0
M  V30 4157 H 390.845 -1.78026 -5.79993 0
M  V30 4158 H 389.584 -1.05867 -4.76071 0
M  V30 4159 H 388.589 -3.33089 -4.37415 0
M  V30 4160 H 389.814 -4.05455 -5.44778 0
M  V30 4161 H 387.76 -1.96252 -6.25956 0
M  V30 4162 H 387.677 -3.65637 -6.61699 0
M  V30 4163 H 388.945 -2.6935 -7.31485 0
M  V30 4164 N 393.175 1.03435 -1.18907 0
M  V30 4165 C 394.123 2.13703 -0.918353 0
M  V30 4166 C 395.117 1.68947 0.123767 0
M  V30 4167 O 396.323 1.79983 -0.0249701 0
M  V30 4168 H 392.698 0.698112 -0.279542 0
M  V30 4169 H 394.669 2.33731 -1.85506 0
M  V30 4170 C 393.418 3.44542 -0.467532 0
M  V30 4171 H 392.741 3.79394 -1.26095 0
M  V30 4172 H 394.181 4.22812 -0.317164 0
M  V30 4173 C 392.64 3.26829 0.817588 0
M  V30 4174 O 393.17 3.54975 1.88031 0
M  V30 4175 N 391.376 2.80139 0.772677 0
M  V30 4176 H 390.923 2.57434 -0.0923883 0
M  V30 4177 H 390.881 2.68668 1.63294 0
M  V30 4178 N 394.653 0.992116 1.22453 0
M  V30 4179 C 395.6 0.541731 2.24352 0
M  V30 4180 C 396.57 -0.425519 1.60557 0
M  V30 4181 O 397.755 -0.330453 1.87917 0
M  V30 4182 C 394.895 -0.138248 3.44823 0
M  V30 4183 C 394.008 0.870649 4.23136 0
M  V30 4184 C 393.143 0.164269 5.30946 0
M  V30 4185 C 392.182 1.16159 6.00977 0
M  V30 4186 N 391.319 0.483568 7.00433 0
M  V30 4187 H 396.159 1.41541 2.62241 0
M  V30 4188 H 393.696 0.709013 1.28885 0
M  V30 4189 H 395.654 -0.5494 4.13567 0
M  V30 4190 H 394.284 -0.975721 3.077 0
M  V30 4191 H 393.336 1.40013 3.53696 0
M  V30 4192 H 394.648 1.63014 4.7141 0
M  V30 4193 H 393.802 -0.303653 6.0594 0
M  V30 4194 H 392.541 -0.627733 4.83643 0
M  V30 4195 H 391.546 1.64015 5.24766 0
M  V30 4196 H 392.771 1.95445 6.50368 0
M  V30 4197 H 390.717 -0.289012 6.55363 0
M  V30 4198 H 390.634 1.18152 7.4671 0
M  V30 4199 H 391.902 0.0384219 7.79491 0
M  V30 4200 N 396.131 -1.37776 0.765217 0
M  V30 4201 C 397.078 -2.30342 0.145274 0
M  V30 4202 C 398.048 -1.5077 -0.696971 0
M  V30 4203 O 399.233 -1.79362 -0.650689 0
M  V30 4204 C 396.373 -3.37227 -0.732939 0
M  V30 4205 C 395.486 -4.31819 0.125199 0
M  V30 4206 C 394.621 -5.25777 -0.757107 0
M  V30 4207 C 393.66 -6.12012 0.103963 0
M  V30 4208 N 392.797 -6.98232 -0.735953 0
M  V30 4209 H 397.637 -2.8278 0.940195 0
M  V30 4210 H 395.174 -1.39211 0.475255 0
M  V30 4211 H 397.132 -3.97818 -1.25686 0
M  V30 4212 H 395.762 -2.86171 -1.49353 0
M  V30 4213 H 394.814 -3.7259 0.766865 0
M  V30 4214 H 396.126 -4.92509 0.789683 0
M  V30 4215 H 395.28 -5.91541 -1.34776 0
M  V30 4216 H 394.019 -4.65481 -1.45529 0
M  V30 4217 H 393.024 -5.45233 0.707197 0
M  V30 4218 H 394.249 -6.74379 0.799381 0
M  V30 4219 H 392.195 -6.40472 -1.41887 0
M  V30 4220 H 392.112 -7.55891 -0.128624 0
M  V30 4221 H 393.38 -7.68393 -1.31121 0
M  V30 4222 N 397.609 -0.515225 -1.4894 0
M  V30 4223 C 398.556 0.255567 -2.29381 0
M  V30 4224 C 399.526 0.947387 -1.36432 0
M  V30 4225 O 400.711 0.951288 -1.65394 0
M  V30 4226 C 397.851 1.30551 -3.19453 0
M  V30 4227 C 396.964 0.624029 -4.27469 0
M  V30 4228 C 396.099 1.65563 -5.0474 0
M  V30 4229 C 395.138 0.956802 -6.04576 0
M  V30 4230 N 394.275 1.93326 -6.74959 0
M  V30 4231 H 399.115 -0.436607 -2.94784 0
M  V30 4232 H 396.652 -0.227154 -1.45336 0
M  V30 4233 H 398.61 1.92639 -3.70062 0
M  V30 4234 H 397.24 1.96626 -2.56004 0
M  V30 4235 H 396.292 -0.110459 -3.8024 0
M  V30 4236 H 397.604 0.0746092 -4.98744 0
M  V30 4237 H 396.758 2.35119 -5.59289 0
M  V30 4238 H 395.497 2.23893 -4.3327 0
M  V30 4239 H 394.502 0.247097 -5.49244 0
M  V30 4240 H 395.727 0.379814 -6.78037 0
M  V30 4241 H 393.673 2.50591 -6.06251 0
M  V30 4242 H 393.59 1.43489 -7.42258 0
M  V30 4243 H 394.858 2.62126 -7.34105 0
M  V30 4244 N 399.087 1.5561 -0.249682 0
M  V30 4245 C 400.034 2.21496 0.648694 0
M  V30 4246 C 401.004 1.17977 1.16921 0
M  V30 4247 O 402.189 1.46434 1.22318 0
M  V30 4248 C 399.329 2.92039 1.83868 0
M  V30 4249 C 398.442 4.10219 1.35442 0
M  V30 4250 C 397.577 4.6847 2.50419 0
M  V30 4251 C 396.616 5.78893 1.98869 0
M  V30 4252 N 395.753 6.31315 3.07223 0
M  V30 4253 H 400.593 2.97892 0.0801582 0
M  V30 4254 H 398.13 1.47074 0.0278031 0
M  V30 4255 H 400.088 3.31138 2.53778 0
M  V30 4256 H 398.718 2.18111 2.37965 0
M  V30 4257 H 397.77 3.76413 0.54928 0
M  V30 4258 H 399.082 4.89927 0.936649 0
M  V30 4259 H 398.236 5.10158 3.28366 0
M  V30 4260 H 396.975 3.87984 2.95499 0
M  V30 4261 H 395.98 5.3668 1.19393 0
M  V30 4262 H 397.205 6.61232 1.54755 0
M  V30 4263 H 395.151 5.53733 3.51732 0
M  V30 4264 H 395.068 7.06224 2.69784 0
M  V30 4265 H 396.336 6.77662 3.8522 0
M  V30 4266 N 400.565 -0.0233959 1.57583 0
M  V30 4267 C 401.495 -1.02162 2.09965 0
M  V30 4268 C 402.476 -1.3735 1.00344 0
M  V30 4269 O 403.661 -1.46135 1.27899 0
M  V30 4270 C 400.791 -2.32081 2.58371 0
M  V30 4271 C 399.745 -2.1112 3.72307 0
M  V30 4272 C 399.071 -3.46848 4.06941 0
M  V30 4273 C 400.371 -1.49276 5.00514 0
M  V30 4274 H 402.065 -0.585557 2.93618 0
M  V30 4275 H 399.611 -0.280218 1.41247 0
M  V30 4276 H 401.564 -3.02249 2.93639 0
M  V30 4277 H 400.288 -2.77758 1.71808 0
M  V30 4278 H 398.947 -1.43384 3.37397 0
M  V30 4279 H 398.595 -3.90184 3.17436 0
M  V30 4280 H 398.295 -3.33646 4.83688 0
M  V30 4281 H 399.819 -4.18369 4.44747 0
M  V30 4282 H 401.233 -2.09368 5.33702 0
M  V30 4283 H 399.63 -1.46632 5.8191 0
M  V30 4284 H 400.7 -0.459217 4.82721 0
M  V30 4285 N 402.043 -1.548 -0.295768 0
M  V30 4286 C 402.99 -1.86113 -1.36494 0
M  V30 4287 C 403.96 -0.7105 -1.50137 0
M  V30 4288 O 405.145 -0.959626 -1.64912 0
M  V30 4289 C 402.285 -2.11861 -2.72413 0
M  V30 4290 C 401.398 -3.39471 -2.67177 0
M  V30 4291 C 400.533 -3.55035 -3.95125 0
M  V30 4292 C 399.572 -4.76418 -3.84308 0
M  V30 4293 N 398.709 -4.8876 -5.04042 0
M  V30 4294 H 403.549 -2.77314 -1.09091 0
M  V30 4295 H 401.086 -1.37315 -0.52753 0
M  V30 4296 H 403.044 -2.24786 -3.51464 0
M  V30 4297 H 401.674 -1.2392 -2.98066 0
M  V30 4298 H 400.726 -3.35139 -1.79962 0
M  V30 4299 H 402.038 -4.28646 -2.55076 0
M  V30 4300 H 401.192 -3.67653 -4.82614 0
M  V30 4301 H 399.931 -2.64002 -4.10066 0
M  V30 4302 H 398.936 -4.63827 -2.95202 0
M  V30 4303 H 400.161 -5.68863 -3.70906 0
M  V30 4304 H 398.107 -4.00652 -5.19436 0
M  V30 4305 H 398.024 -5.71945 -4.94384 0
M  V30 4306 H 399.292 -5.0574 -5.93167 0
M  V30 4307 N 403.521 0.559213 -1.47345 0
M  V30 4308 C 404.468 1.66645 -1.59682 0
M  V30 4309 C 405.438 1.60168 -0.43994 0
M  V30 4310 O 406.623 1.79031 -0.659736 0
M  V30 4311 C 403.763 3.04969 -1.61518 0
M  V30 4312 C 402.876 3.21897 -2.88108 0
M  V30 4313 C 402.011 4.50608 -2.81294 0
M  V30 4314 C 401.05 4.60961 -4.02717 0
M  V30 4315 N 400.187 5.81024 -3.94151 0
M  V30 4316 H 405.027 1.55439 -2.54249 0
M  V30 4317 H 402.564 0.757219 -1.26113 0
M  V30 4318 H 404.522 3.85064 -1.60566 0
M  V30 4319 H 403.152 3.15015 -0.704645 0
M  V30 4320 H 402.204 2.35248 -2.98936 0
M  V30 4321 H 403.516 3.25412 -3.78032 0
M  V30 4322 H 402.67 5.3896 -2.7858 0
M  V30 4323 H 401.409 4.49568 -1.89049 0
M  V30 4324 H 400.414 3.71021 -4.05738 0
M  V30 4325 H 401.639 4.63761 -4.96087 0
M  V30 4326 H 399.585 5.80938 -3.04708 0
M  V30 4327 H 399.502 5.85909 -4.77752 0
M  V30 4328 H 400.77 6.71744 -3.9545 0
M  V30 4329 N 404.999 1.35443 0.805782 0
M  V30 4330 C 405.946 1.28431 1.91766 0
M  V30 4331 C 406.916 0.156102 1.65365 0
M  V30 4332 O 408.101 0.339936 1.87747 0
M  V30 4333 C 405.241 1.06301 3.2832 0
M  V30 4334 C 404.354 2.2805 3.66902 0
M  V30 4335 C 403.489 1.99064 4.92491 0
M  V30 4336 C 402.528 3.16863 5.23703 0
M  V30 4337 N 401.665 2.87647 6.40471 0
M  V30 4338 H 406.505 2.23511 1.97096 0
M  V30 4339 H 404.042 1.11105 0.964054 0
M  V30 4340 H 406 0.915012 4.07042 0
M  V30 4341 H 404.63 0.148822 3.22457 0
M  V30 4342 H 403.682 2.53711 2.83434 0
M  V30 4343 H 404.994 3.1601 3.85927 0
M  V30 4344 H 404.148 1.81099 5.7904 0
M  V30 4345 H 402.887 1.0839 4.75503 0
M  V30 4346 H 401.892 3.35404 4.35642 0
M  V30 4347 H 403.117 4.08339 5.4262 0
M  V30 4348 H 401.063 1.99568 6.24907 0
M  V30 4349 H 400.98 3.69141 6.59751 0
M  V30 4350 H 402.248 2.73226 7.30047 0
M  V30 4351 N 406.477 -1.02803 1.19454 0
M  V30 4352 C 407.409 -2.11181 0.890807 0
M  V30 4353 C 408.422 -1.6238 -0.116829 0
M  V30 4354 O 409.611 -1.78144 0.112694 0
M  V30 4355 C 406.711 -3.37461 0.311942 0
M  V30 4356 C 405.884 -4.15446 1.36834 0
M  V30 4357 C 404.943 -5.20039 0.802864 0
M  V30 4358 O 403.969 -5.49602 1.48077 0
M  V30 4359 N 405.171 -5.79165 -0.393417 0
M  V30 4360 H 407.936 -2.37827 1.82369 0
M  V30 4361 H 405.497 -1.19101 1.09666 0
M  V30 4362 H 407.489 -4.0462 -0.0802225 0
M  V30 4363 H 406.059 -3.08156 -0.52524 0
M  V30 4364 H 405.279 -3.43423 1.93531 0
M  V30 4365 H 406.567 -4.64335 2.08015 0
M  V30 4366 H 405.965 -5.57466 -0.961658 0
M  V30 4367 H 404.522 -6.47729 -0.727351 0
M  V30 4368 N 407.956 -0.998596 -1.21925 0
M  V30 4369 C 408.903 -0.553621 -2.24062 0
M  V30 4370 C 409.873 0.416999 -1.6078 0
M  V30 4371 O 411.058 0.320482 -1.88089 0
M  V30 4372 C 408.198 0.119959 -3.44891 0
M  V30 4373 C 407.311 -0.893077 -4.22668 0
M  V30 4374 C 406.446 -0.192424 -5.30851 0
M  V30 4375 C 405.485 -1.19344 -6.00353 0
M  V30 4376 N 404.622 -0.520707 -7.00166 0
M  V30 4377 H 409.462 -1.4293 -2.61486 0
M  V30 4378 H 406.999 -0.715838 -1.28507 0
M  V30 4379 H 408.957 0.527459 -4.13852 0
M  V30 4380 H 407.587 0.959389 -3.08214 0
M  V30 4381 H 406.639 -1.41886 -3.52948 0
M  V30 4382 H 407.951 -1.65512 -4.70539 0
M  V30 4383 H 407.105 0.271515 -6.06092 0
M  V30 4384 H 405.844 0.602075 -4.83969 0
M  V30 4385 H 404.849 -1.66795 -5.23889 0
M  V30 4386 H 406.074 -1.98891 -6.49322 0
M  V30 4387 H 404.02 0.254252 -6.55507 0
M  V30 4388 H 403.937 -1.2211 -7.46073 0
M  V30 4389 H 405.205 -0.0797596 -7.79459 0
M  V30 4390 N 409.434 1.37368 -0.772513 0
M  V30 4391 C 410.85 1.53059 -0.452231 0
M  V30 4392 C 411.05 1.73065 1.03203 0
M  V30 4393 O 410.106 1.75245 1.81784 0
M  V30 4394 C 411.419 2.72659 -1.26797 0
M  V30 4395 C 412.967 2.86521 -1.25995 0
M  V30 4396 C 413.442 4.09105 -2.05905 0
M  V30 4397 N 414.933 4.16219 -2.03263 0
M  V30 4398 C 415.668 5.10107 -2.61875 0
M  V30 4399 N 415.164 6.09547 -3.29278 0
M  V30 4400 N 416.957 5.02596 -2.51701 0
M  V30 4401 H 409.108 1.22634 -1.7342 0
M  V30 4402 H 411.371 0.597206 -0.736239 0
M  V30 4403 H 411.077 2.64343 -2.31982 0
M  V30 4404 H 410.951 3.66363 -0.897672 0
M  V30 4405 H 413.338 2.94308 -0.216081 0
M  V30 4406 H 413.419 1.93774 -1.66989 0
M  V30 4407 H 413.063 4.0208 -3.10313 0
M  V30 4408 H 412.993 5.00968 -1.62292 0
M  V30 4409 H 415.484 3.45012 -1.54192 0
M  V30 4410 H 415.797 6.77718 -3.71374 0
M  V30 4411 H 414.142 6.09824 -3.33377 0
M  V30 4412 H 417.333 4.23855 -1.98657 0
M  V30 4413 H 417.506 5.75582 -2.97673 0
M  V30 4414 N 410.912 0.523116 1.48665 0
M  V30 4415 C 411.844 -0.280421 2.27478 0
M  V30 4416 C 412.857 -0.910694 1.34945 0
M  V30 4417 O 414.046 -0.790295 1.60052 0
M  V30 4418 C 411.146 -1.41171 3.08097 0
M  V30 4419 C 410.319 -0.884642 4.28361 0
M  V30 4420 C 409.378 -1.89622 4.90846 0
M  V30 4421 O 408.404 -1.4559 5.50265 0
M  V30 4422 N 409.606 -3.22801 4.82472 0
M  V30 4423 H 412.371 0.395481 2.97079 0
M  V30 4424 H 409.932 0.357018 1.57915 0
M  V30 4425 H 411.924 -2.08645 3.4677 0
M  V30 4426 H 410.494 -1.99139 2.40961 0
M  V30 4427 H 409.714 -0.0341177 3.94185 0
M  V30 4428 H 411.002 -0.511268 5.06225 0
M  V30 4429 H 410.4 -3.61246 4.35336 0
M  V30 4430 H 408.957 -3.85927 5.25265 0
M  V30 4431 N 412.39 -1.55475 0.257931 0
M  V30 4432 C 413.353 -2.20551 -0.623706 0
M  V30 4433 C 414.353 -1.17809 -1.09443 0
M  V30 4434 O 415.543 -1.42823 -0.997362 0
M  V30 4435 C 412.675 -2.85784 -1.8585 0
M  V30 4436 H 413.868 -2.99848 -0.0557743 0
M  V30 4437 H 411.421 -1.56298 0.0084422 0
M  V30 4438 H 412.156 -2.10453 -2.46739 0
M  V30 4439 H 411.941 -3.61057 -1.52907 0
M  V30 4440 H 413.431 -3.35553 -2.48584 0
M  V30 4441 N 413.868 0.0150385 -1.57593 0
M  V30 4442 C 414.778 1.02791 -2.10882 0
M  V30 4443 C 415.794 1.38702 -1.0506 0
M  V30 4444 O 416.97 1.47739 -1.36877 0
M  V30 4445 C 414.035 2.30568 -2.58919 0
M  V30 4446 C 413.096 2.01108 -3.79281 0
M  V30 4447 C 412.329 3.22794 -4.25018 0
M  V30 4448 O 412.552 4.33959 -3.70183 0
M  V30 4449 O 411.486 3.07672 -5.17322 0
M  V30 4450 H 415.312 0.604973 -2.97613 0
M  V30 4451 H 412.897 0.23292 -1.47573 0
M  V30 4452 H 414.779 3.05662 -2.90084 0
M  V30 4453 H 413.454 2.72129 -1.75293 0
M  V30 4454 H 412.361 1.23537 -3.53114 0
M  V30 4455 H 413.694 1.64394 -4.63935 0
M  V30 4456 N 415.346 1.54954 0.287554 0
M  V30 4457 C 416.276 1.89839 1.35954 0
M  V30 4458 C 417.257 0.758675 1.52244 0
M  V30 4459 O 418.442 1.01557 1.65529 0
M  V30 4460 C 415.572 2.15753 2.72154 0
M  V30 4461 C 414.526 3.3159 2.70614 0
M  V30 4462 C 413.852 3.42952 4.10229 0
M  V30 4463 C 415.152 4.68359 2.31165 0
M  V30 4464 H 416.846 2.79625 1.07007 0
M  V30 4465 H 414.392 1.3454 0.513316 0
M  V30 4466 H 416.345 2.38743 3.47246 0
M  V30 4467 H 415.069 1.22752 3.02654 0
M  V30 4468 H 413.728 3.08545 1.97979 0
M  V30 4469 H 413.376 2.47443 4.37928 0
M  V30 4470 H 413.076 4.20826 4.10097 0
M  V30 4471 H 414.6 3.68218 4.87081 0
M  V30 4472 H 416.014 4.9099 2.95976 0
M  V30 4473 H 414.411 5.49044 2.42221 0
M  V30 4474 H 415.481 4.68165 1.26291 0
M  V30 4475 N 416.824 -0.551391 1.4764 0
M  V30 4476 C 417.754 -1.66757 1.63445 0
M  V30 4477 C 418.735 -1.63077 0.483742 0
M  V30 4478 O 419.92 -1.80607 0.71377 0
M  V30 4479 C 417.05 -3.05387 1.65396 0
M  V30 4480 C 416.004 -3.23918 2.79752 0
M  V30 4481 C 415.33 -4.63393 2.66779 0
M  V30 4482 C 416.63 -3.08735 4.21284 0
M  V30 4483 H 418.324 -1.53786 2.56886 0
M  V30 4484 H 415.87 -0.738415 1.23626 0
M  V30 4485 H 417.823 -3.83325 1.75043 0
M  V30 4486 H 416.547 -3.19332 0.685195 0
M  V30 4487 H 415.206 -2.48391 2.69625 0
M  V30 4488 H 414.854 -4.74144 1.67918 0
M  V30 4489 H 414.554 -4.7674 3.43501 0
M  V30 4490 H 416.078 -5.43458 2.78364 0
M  V30 4491 H 417.492 -3.76484 4.32357 0
M  V30 4492 H 415.889 -3.33588 4.98838 0
M  V30 4493 H 416.959 -2.0541 4.39243 0
M  V30 4494 N 418.302 -1.35869 -0.798587 0
M  V30 4495 C 419.212 -1.31578 -1.94228 0
M  V30 4496 C 420.228 -0.21939 -1.72611 0
M  V30 4497 O 421.404 -0.450167 -1.96305 0
M  V30 4498 C 418.469 -1.09528 -3.28944 0
M  V30 4499 C 417.53 -2.28556 -3.63402 0
M  V30 4500 C 416.763 -2.07549 -4.9169 0
M  V30 4501 O 416.986 -1.046 -5.60727 0
M  V30 4502 O 415.92 -2.95106 -5.24591 0
M  V30 4503 H 419.746 -2.27847 -2.00796 0
M  V30 4504 H 417.331 -1.16322 -0.937526 0
M  V30 4505 H 419.213 -0.991127 -4.09579 0
M  V30 4506 H 417.888 -0.16315 -3.23289 0
M  V30 4507 H 416.795 -2.44538 -2.83112 0
M  V30 4508 H 418.128 -3.20244 -3.73771 0
M  V30 4509 N 419.78 1.02168 -1.19998 0
M  V30 4510 C 420.727 2.10601 -0.944228 0
M  V30 4511 C 421.697 1.65639 0.123664 0
M  V30 4512 O 422.882 1.9079 -0.0199941 0
M  V30 4513 C 420.022 3.41504 -0.496865 0
M  V30 4514 C 419.135 3.99973 -1.63234 0
M  V30 4515 C 418.27 5.18915 -1.13579 0
M  V30 4516 C 417.309 5.69456 -2.24468 0
M  V30 4517 N 416.446 6.79665 -1.76068 0
M  V30 4518 H 421.286 2.31814 -1.8726 0
M  V30 4519 H 418.823 1.13686 -0.933483 0
M  V30 4520 H 420.781 4.16626 -0.218843 0
M  V30 4521 H 419.411 3.2038 0.394508 0
M  V30 4522 H 418.463 3.21997 -2.0254 0
M  V30 4523 H 419.775 4.33492 -2.46752 0
M  V30 4524 H 418.929 6.01222 -0.813429 0
M  V30 4525 H 417.668 4.8695 -0.270434 0
M  V30 4526 H 416.673 4.85757 -2.57526 0
M  V30 4527 H 417.898 6.03459 -3.11472 0
M  V30 4528 H 415.844 6.49538 -0.918516 0
M  V30 4529 H 415.761 7.12349 -2.5317 0
M  V30 4530 H 417.029 7.65549 -1.46817 0
M  V30 4531 N 421.258 1.00505 1.21394 0
M  V30 4532 C 422.674 0.717873 1.42544 0
M  V30 4533 C 422.874 -0.706936 1.88692 0
M  V30 4534 O 421.93 -1.47627 2.04847 0
M  V30 4535 C 423.243 1.73377 2.45684 0
M  V30 4536 C 424.791 1.75059 2.59467 0
M  V30 4537 C 425.266 2.75545 3.6584 0
M  V30 4538 N 426.757 2.74213 3.73311 0
M  V30 4539 C 427.492 3.48626 4.55245 0
M  V30 4540 N 426.988 4.32678 5.41075 0
M  V30 4541 N 428.781 3.37276 4.49668 0
M  V30 4542 H 420.932 1.92506 0.897503 0
M  V30 4543 H 423.195 0.830919 0.456375 0
M  V30 4544 H 422.901 2.75395 2.18748 0
M  V30 4545 H 422.775 1.53647 3.44489 0
M  V30 4546 H 425.162 0.737337 2.8574 0
M  V30 4547 H 425.243 1.98861 1.60897 0
M  V30 4548 H 424.887 3.77028 3.40313 0
M  V30 4549 H 424.817 2.49009 4.64007 0
M  V30 4550 H 427.308 2.13234 3.11993 0
M  V30 4551 H 427.621 4.86253 6.00648 0
M  V30 4552 H 425.966 4.3676 5.40616 0
M  V30 4553 H 429.157 2.71043 3.81646 0
M  V30 4554 H 429.33 3.95524 5.13288 0
M  V30 4555 N 422.737 -1.36956 0.779787 0
M  V30 4556 C 423.667 -2.32761 0.185651 0
M  V30 4557 C 424.648 -1.56177 -0.673989 0
M  V30 4558 O 425.833 -1.84378 -0.609797 0
M  V30 4559 C 422.963 -3.40418 -0.687964 0
M  V30 4560 C 421.917 -4.27941 0.0710102 0
M  V30 4561 C 421.243 -5.26681 -0.922573 0
M  V30 4562 C 422.543 -5.07006 1.25467 0
M  V30 4563 H 424.237 -2.82698 0.986008 0
M  V30 4564 H 421.783 -1.3592 0.475592 0
M  V30 4565 H 423.736 -4.06423 -1.11348 0
M  V30 4566 H 422.46 -2.89025 -1.52093 0
M  V30 4567 H 421.119 -3.63478 0.47739 0
M  V30 4568 H 420.767 -4.71565 -1.7503 0
M  V30 4569 H 420.467 -5.86103 -0.419237 0
M  V30 4570 H 421.991 -5.9556 -1.34686 0
M  V30 4571 H 423.405 -5.66105 0.905401 0
M  V30 4572 H 421.802 -5.75793 1.69063 0
M  V30 4573 H 422.872 -4.3921 2.05481 0
M  V30 4574 N 424.215 -0.530993 -1.48385 0
M  V30 4575 C 425.147 0.268353 -2.27624 0
M  V30 4576 C 426.16 0.903525 -1.35426 0
M  V30 4577 O 427.349 0.781796 -1.60469 0
M  V30 4578 C 424.449 1.39535 -3.08842 0
M  V30 4579 C 423.622 0.861913 -4.28824 0
M  V30 4580 C 422.681 1.87016 -4.91845 0
M  V30 4581 O 421.707 1.4267 -5.5103 0
M  V30 4582 N 422.909 3.20238 -4.84178 0
M  V30 4583 H 425.674 -0.41123 -2.96865 0
M  V30 4584 H 423.235 -0.365387 -1.57723 0
M  V30 4585 H 425.227 2.06803 -3.47871 0
M  V30 4586 H 423.797 1.97859 -2.42014 0
M  V30 4587 H 423.017 0.0132126 -3.94198 0
M  V30 4588 H 424.305 0.484415 -5.06489 0
M  V30 4589 H 423.703 3.58932 -4.37246 0
M  V30 4590 H 422.26 3.83136 -5.27305 0
M  V30 4591 N 425.693 1.55336 -0.266172 0
M  V30 4592 C 426.603 2.2583 0.635458 0
M  V30 4593 C 427.619 1.28106 1.17749 0
M  V30 4594 O 428.795 1.61024 1.20968 0
M  V30 4595 C 425.86 2.95879 1.80712 0
M  V30 4596 C 424.921 4.09059 1.30265 0
M  V30 4597 C 424.154 4.75759 2.41846 0
M  V30 4598 O 424.377 4.41622 3.61007 0
M  V30 4599 O 423.311 5.63888 2.1051 0
M  V30 4600 H 427.137 3.03631 0.0646693 0
M  V30 4601 H 424.722 1.49361 -0.0339177 0
M  V30 4602 H 426.604 3.39932 2.49047 0
M  V30 4603 H 425.279 2.21002 2.36516 0
M  V30 4604 H 424.186 3.69482 0.586019 0
M  V30 4605 H 425.519 4.85811 0.790458 0
M  V30 4606 N 427.171 -0.0066808 1.57599 0
M  V30 4607 C 428.42 -0.692078 1.89455 0
M  V30 4608 C 428.733 -1.75306 0.867586 0
M  V30 4609 O 429.939 -2.49262 1.07614 0
M  V30 4610 C 428.395 -1.2821 3.36289 0
M  V30 4611 C 428.003 -0.256291 4.47266 0
M  V30 4612 C 429.747 -1.94608 3.77264 0
M  V30 4613 C 427.654 -0.855927 5.85173 0
M  V30 4614 H 426.584 -0.262252 0.706923 0
M  V30 4615 H 429.235 0.052769 1.83424 0
M  V30 4616 H 427.617 -2.0774 3.37135 0
M  V30 4617 H 428.791 0.513923 4.57925 0
M  V30 4618 H 427.106 0.306862 4.15268 0
M  V30 4619 H 429.703 -2.40364 4.77629 0
M  V30 4620 H 430.046 -2.77382 3.10427 0
M  V30 4621 H 430.579 -1.21822 3.78688 0
M  V30 4622 H 427.318 -0.0671161 6.55466 0
M  V30 4623 H 426.838 -1.59546 5.78191 0
M  V30 4624 H 428.517 -1.35658 6.32618 0
M  V30 4625 N 428.649 -1.55105 -0.279332 0
M  V30 4626 C 429.559 -1.90638 -1.36727 0
M  V30 4627 C 430.575 -0.802899 -1.54368 0
M  V30 4628 O 431.751 -1.10138 -1.68616 0
M  V30 4629 C 428.816 -2.16547 -2.70755 0
M  V30 4630 C 427.877 -3.40146 -2.61915 0
M  V30 4631 C 427.11 -3.6481 -3.8955 0
M  V30 4632 O 427.333 -2.92095 -4.89935 0
M  V30 4633 O 426.267 -4.58343 -3.90135 0
M  V30 4634 H 430.093 -2.83237 -1.09591 0
M  V30 4635 H 427.678 -1.4157 -0.477306 0
M  V30 4636 H 429.56 -2.34665 -3.50014 0
M  V30 4637 H 428.235 -1.27131 -2.9769 0
M  V30 4638 H 427.142 -3.2737 -1.81052 0
M  V30 4639 H 428.475 -4.29761 -2.3993 0
M  V30 4640 N 430.127 0.543554 -1.4793 0
M  V30 4641 C 431.037 1.67657 -1.64098 0
M  V30 4642 C 432.053 1.65934 -0.523622 0
M  V30 4643 O 433.229 1.85133 -0.792943 0
M  V30 4644 C 430.294 3.04146 -1.66421 0
M  V30 4645 C 429.355 3.16831 -2.89684 0
M  V30 4646 C 428.588 4.46809 -2.91886 0
M  V30 4647 O 428.811 5.33095 -2.02895 0
M  V30 4648 O 427.745 4.63573 -3.83906 0
M  V30 4649 H 431.571 1.56957 -2.59997 0
M  V30 4650 H 429.156 0.715116 -1.31173 0
M  V30 4651 H 431.038 3.85346 -1.70548 0
M  V30 4652 H 429.713 3.152 -0.736923 0
M  V30 4653 H 428.62 2.34977 -2.91095 0
M  V30 4654 H 429.953 3.10687 -3.81752 0
M  V30 4655 N 431.605 1.3629 0.791371 0
M  V30 4656 C 432.535 1.33137 1.91825 0
M  V30 4657 C 433.516 0.203168 1.68882 0
M  V30 4658 O 434.701 0.400509 1.90025 0
M  V30 4659 C 431.831 1.11793 3.28816 0
M  V30 4660 C 430.785 2.21417 3.66277 0
M  V30 4661 C 430.111 1.85218 5.01596 0
M  V30 4662 C 431.411 3.63489 3.75064 0
M  V30 4663 H 433.105 2.2743 1.9472 0
M  V30 4664 H 430.651 1.09479 0.935437 0
M  V30 4665 H 432.604 1.08222 4.07266 0
M  V30 4666 H 431.328 0.139501 3.26302 0
M  V30 4667 H 429.987 2.2411 2.90121 0
M  V30 4668 H 429.635 0.859544 4.95602 0
M  V30 4669 H 429.335 2.58611 5.27631 0
M  V30 4670 H 430.859 1.832 5.82469 0
M  V30 4671 H 432.273 3.63034 4.43711 0
M  V30 4672 H 430.67 4.35771 4.12582 0
M  V30 4673 H 431.74 3.98536 2.76219 0
M  V30 4674 N 433.083 -1.0153 1.20538 0
M  V30 4675 C 433.993 -2.13557 0.971113 0
M  V30 4676 C 435.009 -1.73845 -0.0734366 0
M  V30 4677 O 436.185 -2.01075 0.114299 0
M  V30 4678 C 433.25 -3.42661 0.527639 0
M  V30 4679 C 432.311 -3.96608 1.64319 0
M  V30 4680 C 431.544 -5.1955 1.22078 0
M  V30 4681 O 431.767 -5.70329 0.0900198 0
M  V30 4682 O 430.701 -5.66681 2.02871 0
M  V30 4683 H 434.527 -2.3619 1.90913 0
M  V30 4684 H 432.112 -1.11946 0.989362 0
M  V30 4685 H 433.994 -4.20404 0.289621 0
M  V30 4686 H 432.669 -3.21441 -0.381779 0
M  V30 4687 H 431.576 -3.20139 1.93551 0
M  V30 4688 H 432.909 -4.22219 2.52966 0
M  V30 4689 N 434.561 -1.01147 -1.20859 0
M  V30 4690 C 435.977 -0.725422 -1.42161 0
M  V30 4691 C 436.177 0.696919 -1.89064 0
M  V30 4692 O 435.233 1.46539 -2.05627 0
M  V30 4693 C 436.546 -1.74678 -2.44761 0
M  V30 4694 C 438.094 -1.76433 -2.58535 0
M  V30 4695 C 438.569 -2.77481 -3.64374 0
M  V30 4696 N 440.06 -2.76189 -3.71852 0
M  V30 4697 C 440.795 -3.51035 -4.53389 0
M  V30 4698 N 440.291 -4.35541 -5.38773 0
M  V30 4699 N 442.084 -3.39655 -4.47873 0
M  V30 4700 H 434.235 -1.92979 -0.887282 0
M  V30 4701 H 436.498 -0.833327 -0.451962 0
M  V30 4702 H 436.204 -2.76551 -2.17285 0
M  V30 4703 H 436.078 -1.55472 -3.43669 0
M  V30 4704 H 438.465 -0.75248 -2.85345 0
M  V30 4705 H 438.546 -1.99712 -1.5984 0
M  V30 4706 H 438.19 -3.78827 -3.38308 0
M  V30 4707 H 438.12 -2.51466 -4.6268 0
M  V30 4708 H 440.611 -2.14885 -3.10858 0
M  V30 4709 H 440.924 -4.89432 -5.98061 0
M  V30 4710 H 439.269 -4.39621 -5.38292 0
M  V30 4711 H 442.46 -2.73063 -3.80203 0
M  V30 4712 H 442.633 -3.9824 -5.11184 0
M  V30 4713 N 436.039 1.36541 -0.78704 0
M  V30 4714 C 436.949 2.3387 -0.184896 0
M  V30 4715 C 437.965 1.60927 0.661697 0
M  V30 4716 O 439.141 1.92927 0.57804 0
M  V30 4717 C 436.206 3.40122 0.672145 0
M  V30 4718 C 435.267 4.28867 -0.19267 0
M  V30 4719 C 434.5 5.30045 0.623561 0
M  V30 4720 O 434.723 5.39232 1.8597 0
M  V30 4721 O 433.657 6.01895 0.0247068 0
M  V30 4722 H 437.483 2.87126 -0.989562 0
M  V30 4723 H 435.068 1.38969 -0.548455 0
M  V30 4724 H 436.95 4.05093 1.16094 0
M  V30 4725 H 435.625 2.89169 1.45474 0
M  V30 4726 H 434.532 3.66945 -0.728166 0
M  V30 4727 H 435.865 4.83165 -0.938722 0
M  V30 4728 N 437.518 0.538854 1.48102 0
M  V30 4729 C 438.481 -0.208395 2.28251 0
M  V30 4730 C 439.481 -0.859656 1.35892 0
M  V30 4731 O 440.671 -0.71834 1.58699 0
M  V30 4732 C 437.803 -1.30252 3.15035 0
M  V30 4733 H 438.996 0.495407 2.9578 0
M  V30 4734 H 436.549 0.295112 1.53489 0
M  V30 4735 H 437.284 -2.0393 2.52157 0
M  V30 4736 H 437.069 -0.840551 3.82985 0
M  V30 4737 H 438.559 -1.82787 3.75471 0
M  V30 4738 N 438.996 -1.55193 0.274407 0
M  V30 4739 C 439.906 -2.26164 -0.623473 0
M  V30 4740 C 440.922 -1.28729 -1.17068 0
M  V30 4741 O 442.098 -1.61663 -1.20112 0
M  V30 4742 C 439.163 -2.96833 -1.7914 0
M  V30 4743 C 438.224 -4.09745 -1.28093 0
M  V30 4744 C 437.457 -4.77034 -2.3932 0
M  V30 4745 O 437.68 -4.4353 -3.5866 0
M  V30 4746 O 436.614 -5.64996 -2.07516 0
M  V30 4747 H 440.44 -3.03661 -0.0485661 0
M  V30 4748 H 438.025 -1.49341 0.0418382 0
M  V30 4749 H 439.907 -3.41248 -2.4724 0
M  V30 4750 H 438.582 -2.22253 -2.35341 0
M  V30 4751 H 437.489 -3.69787 -0.566416 0
M  V30 4752 H 438.822 -4.86224 -0.764683 0
M  V30 4753 N 440.474 -0.00167713 -1.576 0
M  V30 4754 C 441.89 0.354422 -1.55615 0
M  V30 4755 C 442.09 1.74679 -1.00447 0
M  V30 4756 O 441.146 2.4428 -0.639022 0
M  V30 4757 C 442.459 0.22812 -2.99833 0
M  V30 4758 C 444.007 0.302934 -3.11531 0
M  V30 4759 C 444.482 0.205737 -4.57538 0
M  V30 4760 N 445.973 0.263584 -4.62449 0
M  V30 4761 C 446.708 0.211742 -5.73009 0
M  V30 4762 N 446.204 0.110399 -6.92712 0
M  V30 4763 N 447.997 0.263729 -5.61481 0
M  V30 4764 H 440.148 -0.912498 -1.918 0
M  V30 4765 H 442.411 -0.349928 -0.881053 0
M  V30 4766 H 442.117 -0.729934 -3.44042 0
M  V30 4767 H 441.991 1.00951 -3.6344 0
M  V30 4768 H 444.378 1.25143 -2.67251 0
M  V30 4769 H 444.459 -0.508357 -2.50698 0
M  V30 4770 H 444.103 -0.739225 -5.02492 0
M  V30 4771 H 444.033 1.03554 -5.16318 0
M  V30 4772 H 446.524 0.343173 -3.76339 0
M  V30 4773 H 446.837 0.0767828 -7.72762 0
M  V30 4774 H 445.182 0.0760025 -6.94958 0
M  V30 4775 H 448.373 0.34111 -4.66855 0
M  V30 4776 H 448.546 0.219862 -6.47627 0
M  V30 4777 N 441.952 1.55251 0.271103 0
M  V30 4778 C 442.899 1.88261 1.33516 0
M  V30 4779 C 443.869 0.734296 1.48988 0
M  V30 4780 O 445.054 0.985741 1.63364 0
M  V30 4781 C 442.194 2.16168 2.69008 0
M  V30 4782 C 441.307 3.43678 2.61743 0
M  V30 4783 C 440.442 3.61276 3.89427 0
M  V30 4784 C 439.481 4.82472 3.7668 0
M  V30 4785 N 438.618 4.96717 4.96202 0
M  V30 4786 H 443.458 2.79015 1.04665 0
M  V30 4787 H 440.995 1.38137 0.505618 0
M  V30 4788 H 442.953 2.30349 3.47844 0
M  V30 4789 H 441.583 1.28646 2.96057 0
M  V30 4790 H 440.635 3.37959 1.74607 0
M  V30 4791 H 441.947 4.3265 2.48224 0
M  V30 4792 H 441.101 3.75284 4.76704 0
M  V30 4793 H 439.84 2.70492 4.05814 0
M  V30 4794 H 438.845 4.68465 2.87786 0
M  V30 4795 H 440.07 5.74692 3.61809 0
M  V30 4796 H 438.016 4.08865 5.12997 0
M  V30 4797 H 437.933 5.79738 4.85222 0
M  V30 4798 H 439.201 5.15113 5.85046 0
M  V30 4799 N 443.43 -0.535701 1.48216 0
M  V30 4800 C 444.679 -1.28828 1.55197 0
M  V30 4801 C 444.992 -1.94263 0.228278 0
M  V30 4802 O 446.198 -2.70927 0.176278 0
M  V30 4803 C 444.654 -2.33727 2.73678 0
M  V30 4804 C 444.262 -1.74386 4.12666 0
M  V30 4805 C 446.006 -3.1003 2.89968 0
M  V30 4806 C 443.913 -2.77192 5.22416 0
M  V30 4807 H 442.843 -0.484484 0.577747 0
M  V30 4808 H 445.494 -0.56646 1.74538 0
M  V30 4809 H 443.876 -3.08919 2.4776 0
M  V30 4810 H 445.05 -1.05421 4.48579 0
M  V30 4811 H 443.365 -1.10595 4.01445 0
M  V30 4812 H 445.962 -3.86842 3.6913 0
M  V30 4813 H 446.305 -3.65542 1.9921 0
M  V30 4814 H 446.838 -2.41952 3.15759 0
M  V30 4815 H 443.577 -2.26507 6.15122 0
M  V30 4816 H 443.097 -3.44502 4.90998 0
M  V30 4817 H 444.776 -3.40285 5.50286 0
M  V30 4818 N 444.908 -1.36708 -0.784132 0
M  V30 4819 C 446.157 -1.30559 -1.53744 0
M  V30 4820 C 446.47 0.111374 -1.95283 0
M  V30 4821 O 447.676 0.29527 -2.6989 0
M  V30 4822 C 446.132 -2.29098 -2.77565 0
M  V30 4823 C 445.74 -3.76258 -2.43174 0
M  V30 4824 C 447.484 -2.31936 -3.55536 0
M  V30 4825 C 445.391 -4.6656 -3.63422 0
M  V30 4826 H 444.321 -0.48518 -0.577162 0
M  V30 4827 H 446.972 -1.62101 -0.859981 0
M  V30 4828 H 445.354 -1.90557 -3.47137 0
M  V30 4829 H 446.528 -4.23565 -1.81465 0
M  V30 4830 H 444.843 -3.76246 -1.78403 0
M  V30 4831 H 447.44 -2.9661 -4.44889 0
M  V30 4832 H 447.783 -1.3294 -3.94503 0
M  V30 4833 H 448.316 -2.6912 -2.92949 0
M  V30 4834 H 445.055 -5.66638 -3.29547 0
M  V30 4835 H 444.575 -4.23966 -4.24279 0
M  V30 4836 H 446.254 -4.8309 -4.30387 0
M  V30 4837 N 446.386 1.0089 -1.21074 0
M  V30 4838 C 447.296 2.13039 -0.982425 0
M  V30 4839 C 448.312 1.73881 0.0642161 0
M  V30 4840 O 449.488 2.01012 -0.12496 0
M  V30 4841 C 446.553 3.42377 -0.545803 0
M  V30 4842 C 445.614 3.95731 -1.6642 0
M  V30 4843 C 444.847 5.18896 -1.24832 0
M  V30 4844 O 445.07 5.70273 -0.120265 0
M  V30 4845 O 444.004 5.65597 -2.05873 0
M  V30 4846 H 447.83 2.35175 -1.92163 0
M  V30 4847 H 445.415 1.1142 -0.995285 0
M  V30 4848 H 447.297 4.20244 -0.311912 0
M  V30 4849 H 445.972 3.21639 0.364727 0
M  V30 4850 H 444.879 3.19108 -1.95246 0
M  V30 4851 H 446.212 4.20872 -2.55201 0
M  V30 4852 N 447.864 1.01787 1.20321 0
M  V30 4853 C 448.774 0.598898 2.26827 0
M  V30 4854 C 449.79 -0.36418 1.70146 0
M  V30 4855 O 450.966 -0.224812 2.00141 0
M  V30 4856 C 448.031 -0.0549769 3.46656 0
M  V30 4857 C 447.092 0.954205 4.18561 0
M  V30 4858 C 446.325 0.331439 5.3267 0
M  V30 4859 O 446.548 -0.86851 5.63749 0
M  V30 4860 O 445.482 1.0488 5.92692 0
M  V30 4861 H 449.308 1.48562 2.64883 0
M  V30 4862 H 446.893 0.787434 1.26964 0
M  V30 4863 H 448.775 -0.420102 4.19301 0
M  V30 4864 H 447.45 -0.915876 3.10473 0
M  V30 4865 H 446.357 1.37072 3.48083 0
M  V30 4866 H 447.69 1.78511 4.58688 0
M  V30 4867 N 449.342 -1.36122 0.79427 0
M  V30 4868 C 450.29 -2.31871 0.184023 0
M  V30 4869 C 451.284 -1.56041 -0.659365 0
M  V30 4870 O 452.49 -1.71266 -0.553906 0
M  V30 4871 H 448.865 -0.750896 0.0407373 0
M  V30 4872 H 450.836 -2.80898 1.00693 0
M  V30 4873 C 449.585 -3.41324 -0.662813 0
M  V30 4874 H 448.908 -3.99793 -0.0231944 0
M  V30 4875 H 450.348 -4.10629 -1.05639 0
M  V30 4876 C 448.807 -2.83308 -1.82313 0
M  V30 4877 O 449.337 -2.75863 -2.91997 0
M  V30 4878 N 447.543 -2.40529 -1.63077 0
M  V30 4879 H 447.09 -2.46785 -0.738591 0
M  V30 4880 H 447.048 -2.02059 -2.40872 0
M  V30 4881 N 450.82 -0.546701 -1.47814 0
M  V30 4882 C 452.069 -0.0166497 -2.01693 0
M  V30 4883 C 452.382 1.33721 -1.42752 0
M  V30 4884 O 453.588 1.95658 -1.8823 0
M  V30 4885 C 452.044 0.0206769 -3.59894 0
M  V30 4886 C 451.652 -1.3293 -4.27824 0
M  V30 4887 C 453.396 0.498674 -4.21561 0
M  V30 4888 C 451.303 -1.25165 -5.78003 0
M  V30 4889 H 450.233 -0.0024541 -0.753996 0
M  V30 4890 H 452.884 -0.692984 -1.69912 0
M  V30 4891 H 451.266 0.76244 -3.88591 0
M  V30 4892 H 452.44 -2.08795 -4.10781 0
M  V30 4893 H 450.755 -1.74438 -3.78101 0
M  V30 4894 H 453.352 0.575 -5.31599 0
M  V30 4895 H 453.695 1.5083 -3.88016 0
M  V30 4896 H 454.228 -0.18791 -3.97356 0
M  V30 4897 H 450.967 -2.23695 -6.1615 0
M  V30 4898 H 450.487 -0.53464 -5.97412 0
M  V30 4899 H 452.166 -0.949299 -6.39998 0
M  V30 4900 N 452.299 1.55045 -0.282633 0
M  V30 4901 C 453.527 2.04168 0.33512 0
M  V30 4902 C 453.942 1.16071 1.48906 0
M  V30 4903 O 453.299 0.182391 1.81586 0
M  V30 4904 C 453.35 3.52332 0.808957 0
M  V30 4905 O 453.071 4.37078 -0.299038 0
M  V30 4906 C 454.572 4.17375 1.49375 0
M  V30 4907 H 451.792 0.666744 0.0754543 0
M  V30 4908 H 454.336 2.00205 -0.416918 0
M  V30 4909 H 452.491 3.56715 1.51106 0
M  V30 4910 H 452.905 5.24458 0.0665514 0
M  V30 4911 H 454.379 5.22627 1.77664 0
M  V30 4912 H 454.856 3.65999 2.42778 0
M  V30 4913 H 455.462 4.17016 0.835305 0
M  V30 4914 N 453.777 0.010035 1.57597 0
M  V30 4915 C 455.002 -0.687021 1.95691 0
M  V30 4916 C 455.427 -1.65952 0.885519 0
M  V30 4917 O 454.785 -1.80633 -0.15543 0
M  V30 4918 C 454.833 -1.3864 3.32884 0
M  V30 4919 O 453.937 -2.50115 3.27897 0
M  V30 4920 H 453.278 -0.181989 0.638573 0
M  V30 4921 H 455.808 0.0662122 2.04493 0
M  V30 4922 H 455.818 -1.74754 3.6868 0
M  V30 4923 H 454.493 -0.673411 4.10412 0
M  V30 4924 H 453.07 -2.16253 3.03791 0
M  V30 4925 N 455.255 -1.55392 -0.262866 0
M  V30 4926 C 456.218 -1.88181 -1.30846 0
M  V30 4927 C 457.218 -0.757079 -1.41862 0
M  V30 4928 O 458.408 -1.02519 -1.40838 0
M  V30 4929 C 455.54 -2.09609 -2.68844 0
M  V30 4930 H 456.733 -2.81659 -1.02997 0
M  V30 4931 H 454.286 -1.48039 -0.501414 0
M  V30 4932 H 455.021 -1.18547 -3.01856 0
M  V30 4933 H 454.806 -2.91508 -2.62231 0
M  V30 4934 H 456.296 -2.36215 -3.44372 0
M  V30 4935 N 456.733 0.527833 -1.48498 0
M  V30 4936 C 457.696 1.61439 -1.62696 0
M  V30 4937 C 458.696 1.52824 -0.500136 0
M  V30 4938 O 459.886 1.56456 -0.765976 0
M  V30 4939 C 457.018 3.01063 -1.59918 0
M  V30 4940 H 458.211 1.50189 -2.59583 0
M  V30 4941 H 455.764 0.750055 -1.37127 0
M  V30 4942 H 456.499 3.17818 -0.645163 0
M  V30 4943 H 456.284 3.08725 -2.41726 0
M  V30 4944 H 457.774 3.80057 -1.73051 0
M  V30 4945 N 458.211 1.37122 0.776871 0
M  V30 4946 C 459.622 1.28667 1.35284 0
M  V30 4947 C 459.973 -0.0680035 1.96082 0
M  V30 4948 O 459.098 -0.969743 1.93455 0
M  V30 4949 C 459.693 2.32997 2.45963 0
M  V30 4950 C 458.252 2.28191 2.99342 0
M  V30 4951 C 457.399 2.17101 1.72517 0
M  V30 4952 H 460.35 1.47819 0.577527 0
M  V30 4953 H 460.371 1.97366 3.2531 0
M  V30 4954 H 459.883 3.3158 2.01684 0
M  V30 4955 H 457.984 1.33115 3.4801 0
M  V30 4956 H 458.097 3.21397 3.55304 0
M  V30 4957 H 456.461 1.63562 1.95242 0
M  V30 4958 H 457.244 3.17591 1.30348 0
M  V30 4959 N 459.689 -1.00246 1.21608 0
M  V30 4960 C 460.914 -1.78167 1.06167 0
M  V30 4961 C 461.339 -1.84138 -0.384035 0
M  V30 4962 O 460.697 -1.28683 -1.27712 0
M  V30 4963 C 460.745 -3.19786 1.66642 0
M  V30 4964 O 459.849 -4.02153 0.913613 0
M  V30 4965 H 459.19 -0.549 0.37349 0
M  V30 4966 H 461.72 -1.25994 1.61204 0
M  V30 4967 H 461.73 -3.70451 1.70969 0
M  V30 4968 H 460.405 -3.14754 2.7185 0
M  V30 4969 H 458.982 -3.60711 0.945635 0
M  V30 4970 N 461.167 -1.02423 -1.1978 0
M  V30 4971 C 462.115 -0.594474 -2.24875 0
M  V30 4972 C 463.109 0.370598 -1.65296 0
M  V30 4973 O 464.315 0.239684 -1.78397 0
M  V30 4974 H 460.69 -0.173961 -0.731602 0
M  V30 4975 H 462.661 -1.4916 -2.58445 0
M  V30 4976 C 461.41 0.0436512 -3.47673 0
M  V30 4977 H 460.733 -0.689963 -3.93801 0
M  V30 4978 H 462.173 0.307362 -4.22884 0
M  V30 4979 C 460.632 1.28881 -3.11274 0
M  V30 4980 O 461.162 2.38135 -3.23503 0
M  V30 4981 N 459.368 1.1758 -2.6575 0
M  V30 4982 H 458.915 0.286769 -2.55999 0
M  V30 4983 H 458.873 2.00988 -2.41767 0
M  V30 4984 N 462.645 1.35699 -0.801477 0
M  V30 4985 C 463.922 1.9324 -0.302937 0
M  V30 4986 C 464.302 1.73209 1.20672 0
M  V30 4987 O 463.65 1.09809 2.00385 0
M  V30 4988 C 463.86 3.41728 -0.708747 0
M  V30 4989 C 465.208 4.18868 -0.695328 0
M  V30 4990 O 466.232 3.5022 -0.649971 0
M  V30 4991 O 465.091 5.41342 -0.749081 0
M  V30 4992 H 462.185 0.82331 -0.0780367 0
M  V30 4993 H 464.731 1.44806 -0.884832 0
M  V30 4994 H 463.503 3.50015 -1.74944 0
M  V30 4995 H 463.126 3.97471 -0.101384 0
M  V30 4996 N 464.123 0.554532 1.47522 0
M  V30 4997 C 465.055 -0.232106 2.28022 0
M  V30 4998 C 466.068 -0.881865 1.36847 0
M  V30 4999 O 467.257 -0.756168 1.61692 0
M  V30 5000 C 464.357 -1.34604 3.11022 0
M  V30 5001 C 463.53 -0.793582 4.30141 0
M  V30 5002 C 462.589 -1.79168 4.94758 0
M  V30 5003 O 461.615 -1.33886 5.5323 0
M  V30 5004 N 462.817 -3.12495 4.89211 0
M  V30 5005 H 465.582 0.458407 2.96173 0
M  V30 5006 H 463.143 0.390433 1.57122 0
M  V30 5007 H 465.135 -2.01243 3.51118 0
M  V30 5008 H 463.705 -1.93983 2.45131 0
M  V30 5009 H 462.925 0.0495025 3.94169 0
M  V30 5010 H 464.213 -0.403776 5.07195 0
M  V30 5011 H 463.611 -3.51931 4.42901 0
M  V30 5012 H 462.168 -3.74698 5.33333 0
M  V30 5013 N 465.601 -1.54893 0.290851 0
M  V30 5014 C 466.878 -1.91991 -0.373989 0
M  V30 5015 C 467.258 -1.21694 -1.72493 0
M  V30 5016 O 466.606 -0.34917 -2.25816 0
M  V30 5017 C 466.816 -3.45419 -0.498703 0
M  V30 5018 C 468.164 -4.1748 -0.774298 0
M  V30 5019 O 469.188 -3.51398 -0.582908 0
M  V30 5020 O 468.047 -5.3445 -1.14129 0
M  V30 5021 H 465.141 -0.800593 -0.207315 0
M  V30 5022 H 467.687 -1.66297 0.338164 0
M  V30 5023 H 466.459 -3.88688 0.451392 0
M  V30 5024 H 466.082 -3.77117 -1.25972 0
M  V30 5025 N 467.08 -0.0183926 -1.57589 0
M  V30 5026 C 468.328 0.661253 -1.90976 0
M  V30 5027 C 468.649 1.73281 -0.894353 0
M  V30 5028 O 467.919 1.9579 0.0656788 0
M  V30 5029 H 466.499 0.247233 -0.704901 0
M  V30 5030 H 469.161 -0.0636639 -1.94796 0
M  V30 5031 H 468.257 1.12083 -2.9128 0
M  V30 5032 N 468.558 1.5553 0.254621 0
M  V30 5033 C 469.468 1.92789 1.33677 0
M  V30 5034 C 470.484 0.827356 1.53071 0
M  V30 5035 O 471.66 1.12807 1.66843 0
M  V30 5036 C 468.725 2.20827 2.67275 0
M  V30 5037 C 467.786 3.4427 2.5647 0
M  V30 5038 C 467.019 3.70961 3.83697 0
M  V30 5039 O 467.242 2.99852 4.85227 0
M  V30 5040 O 466.176 4.64491 3.82794 0
M  V30 5041 H 470.002 2.84945 1.05071 0
M  V30 5042 H 467.587 1.42312 0.454723 0
M  V30 5043 H 469.469 2.40204 3.46237 0
M  V30 5044 H 468.144 1.31851 2.9563 0
M  V30 5045 H 467.051 3.30209 1.75821 0
M  V30 5046 H 468.384 4.33524 2.33062 0
M  V30 5047 N 470.036 -0.519951 1.48776 0
M  V30 5048 C 471.266 -1.29783 1.60748 0
M  V30 5049 C 471.674 -1.87253 0.27072 0
M  V30 5050 O 471.017 -1.67628 -0.751438 0
M  V30 5051 C 471.079 -2.47984 2.60277 0
M  V30 5052 C 470.743 -2.11526 4.051 0
M  V30 5053 C 471.74 -1.66608 4.92481 0
M  V30 5054 C 469.425 -2.21742 4.50706 0
M  V30 5055 C 471.419 -1.32384 6.23501 0
M  V30 5056 C 469.106 -1.87129 5.81744 0
M  V30 5057 C 470.104 -1.42523 6.67964 0
M  V30 5058 O 469.792 -1.0837 7.96562 0
M  V30 5059 H 469.524 -0.400562 0.544542 0
M  V30 5060 H 472.078 -0.632879 1.95407 0
M  V30 5061 H 470.308 -3.17493 2.2076 0
M  V30 5062 H 471.997 -3.10036 2.61978 0
M  V30 5063 H 472.763 -1.58178 4.58481 0
M  V30 5064 H 468.642 -2.55415 3.83776 0
M  V30 5065 H 472.186 -0.974949 6.90754 0
M  V30 5066 H 468.083 -1.95204 6.15277 0
M  V30 5067 H 468.851 -1.21681 8.09405 0
M  V30 5068 N 471.514 -1.37532 -0.769588 0
M  V30 5069 C 472.754 -1.34261 -1.54122 0
M  V30 5070 C 473.118 0.0717222 -1.91866 0
M  V30 5071 O 474.319 0.22918 -2.67821 0
M  V30 5072 C 472.59 -2.2574 -2.77086 0
M  V30 5073 S 474.149 -2.40339 -3.67127 0
M  V30 5074 H 470.967 -0.476595 -0.527615 0
M  V30 5075 H 473.569 -1.73303 -0.90479 0
M  V30 5076 H 472.273 -3.27417 -2.4744 0
M  V30 5077 H 471.804 -1.87789 -3.45686 0
M  V30 5078 H 473.819 -1.61558 -4.69163 0
M  V30 5079 N 472.992 0.995999 -1.22138 0
M  V30 5080 C 474.403 1.54961 -1.04135 0
M  V30 5081 C 474.754 1.92159 0.396147 0
M  V30 5082 O 473.879 1.74435 1.28069 0
M  V30 5083 C 474.474 2.81581 -1.88408 0
M  V30 5084 C 473.033 3.33396 -1.74712 0
M  V30 5085 C 472.18 2.06509 -1.85066 0
M  V30 5086 H 475.131 0.817436 -1.36028 0
M  V30 5087 H 475.152 3.53822 -1.39966 0
M  V30 5088 H 474.664 2.54476 -2.93025 0
M  V30 5089 H 472.765 3.65416 -0.728159 0
M  V30 5090 H 472.878 4.04208 -2.57202 0
M  V30 5091 H 471.242 2.19925 -1.28472 0
M  V30 5092 H 472.025 1.81804 -2.91208 0
M  V30 5093 N 474.47 1.03057 1.19235 0
M  V30 5094 C 475.38 0.622922 2.26179 0
M  V30 5095 C 476.396 -0.346113 1.70523 0
M  V30 5096 O 477.572 -0.203572 2.00369 0
M  V30 5097 C 474.637 -0.0182063 3.46695 0
M  V30 5098 C 473.698 0.998546 4.17526 0
M  V30 5099 C 472.931 0.387917 5.32288 0
M  V30 5100 O 473.154 -0.808668 5.64639 0
M  V30 5101 O 472.088 1.1116 5.91546 0
M  V30 5102 H 475.914 1.51363 2.63292 0
M  V30 5103 H 473.499 0.800856 1.26122 0
M  V30 5104 H 475.381 -0.375606 4.19723 0
M  V30 5105 H 474.056 -0.882895 3.11427 0
M  V30 5106 H 472.963 1.40756 3.4661 0
M  V30 5107 H 474.296 1.83366 4.56769 0
M  V30 5108 N 475.948 -1.35272 0.808662 0
M  V30 5109 C 477.194 -1.99003 0.390581 0
M  V30 5110 C 477.527 -1.63999 -1.0401 0
M  V30 5111 O 476.802 -0.904368 -1.72196 0
M  V30 5112 C 477.085 -3.55454 0.576566 0
M  V30 5113 C 476.938 -4.00249 2.05233 0
M  V30 5114 C 478.257 -4.401 0.00354277 0
M  V30 5115 H 475.376 -0.722917 0.143388 0
M  V30 5116 H 478.018 -1.6039 1.01858 0
M  V30 5117 H 476.168 -3.88477 0.0419766 0
M  V30 5118 H 477.84 -3.77626 2.64946 0
M  V30 5119 H 476.083 -3.51082 2.54801 0
M  V30 5120 H 476.754 -5.0911 2.13333 0
M  V30 5121 H 479.23 -4.13548 0.460117 0
M  V30 5122 H 478.106 -5.48656 0.163575 0
M  V30 5123 H 478.367 -4.28444 -1.09032 0
M  V30 5124 N 477.426 -0.562348 -1.47226 0
M  V30 5125 C 478.373 0.182461 -2.30078 0
M  V30 5126 C 479.343 0.903503 -1.39377 0
M  V30 5127 O 480.528 0.898188 -1.68337 0
M  V30 5128 C 477.668 1.20322 -3.23445 0
M  V30 5129 C 476.781 0.487717 -4.29238 0
M  V30 5130 C 475.916 1.49422 -5.09752 0
M  V30 5131 C 474.955 0.763976 -6.07314 0
M  V30 5132 N 474.092 1.71755 -6.80768 0
M  V30 5133 H 478.932 -0.530169 -2.93246 0
M  V30 5134 H 476.469 -0.273276 -1.44539 0
M  V30 5135 H 478.427 1.80768 -3.76004 0
M  V30 5136 H 477.057 1.88382 -2.6213 0
M  V30 5137 H 476.109 -0.231374 -3.79696 0
M  V30 5138 H 477.421 -0.0841003 -4.98729 0
M  V30 5139 H 476.575 2.17206 -5.66486 0
M  V30 5140 H 475.314 2.09995 -4.40174 0
M  V30 5141 H 474.319 0.0722344 -5.49753 0
M  V30 5142 H 475.544 0.16391 -6.78902 0
M  V30 5143 H 473.49 2.31177 -6.13916 0
M  V30 5144 H 473.407 1.19802 -7.46447 0
M  V30 5145 H 474.675 2.38638 -7.42073 0
M  V30 5146 N 478.904 1.54736 -0.299062 0
M  V30 5147 C 479.834 2.26409 0.571085 0
M  V30 5148 C 480.815 1.2629 1.13951 0
M  V30 5149 O 482 1.55059 1.16921 0
M  V30 5150 C 479.13 3.00338 1.74396 0
M  V30 5151 C 478.084 4.07588 1.30599 0
M  V30 5152 C 477.41 4.69222 2.56387 0
M  V30 5153 C 478.71 5.20455 0.438645 0
M  V30 5154 H 480.404 2.99388 -0.0266991 0
M  V30 5155 H 477.95 1.43993 -0.0142812 0
M  V30 5156 H 479.903 3.49198 2.35878 0
M  V30 5157 H 478.627 2.24934 2.36796 0
M  V30 5158 H 477.286 3.59575 0.71424 0
M  V30 5159 H 476.934 3.9046 3.17097 0
M  V30 5160 H 476.634 5.41653 2.27784 0
M  V30 5161 H 478.158 5.20844 3.18675 0
M  V30 5162 H 479.572 5.65221 0.959085 0
M  V30 5163 H 477.969 5.99594 0.246466 0
M  V30 5164 H 479.039 4.8192 -0.536738 0
M  V30 5165 N 480.382 0.0267497 1.57577 0
M  V30 5166 C 481.329 -0.955894 2.10075 0
M  V30 5167 C 482.299 -1.32453 1.00226 0
M  V30 5168 O 483.484 -1.41826 1.27632 0
M  V30 5169 C 480.624 -2.2338 2.6305 0
M  V30 5170 C 479.737 -1.92183 3.86898 0
M  V30 5171 C 478.872 -3.14251 4.28275 0
M  V30 5172 C 477.911 -2.78862 5.44888 0
M  V30 5173 N 477.048 -3.93548 5.81433 0
M  V30 5174 H 481.888 -0.501303 2.93753 0
M  V30 5175 H 479.425 -0.235847 1.45197 0
M  V30 5176 H 481.383 -2.98124 2.91853 0
M  V30 5177 H 480.013 -2.6646 1.82205 0
M  V30 5178 H 479.065 -1.07692 3.64838 0
M  V30 5179 H 480.377 -1.62117 4.7172 0
M  V30 5180 H 479.531 -3.97317 4.58502 0
M  V30 5181 H 478.27 -3.47476 3.42215 0
M  V30 5182 H 477.275 -1.94208 5.14357 0
M  V30 5183 H 478.5 -2.46855 6.32645 0
M  V30 5184 H 476.446 -4.2662 4.98328 0
M  V30 5185 H 476.363 -3.67098 6.6089 0
M  V30 5186 H 477.631 -4.77325 6.16264 0
M  V30 5187 N 481.861 -1.55662 -0.24637 0
M  V30 5188 C 483.089 -1.81575 -0.991876 0
M  V30 5189 C 483.504 -0.602545 -1.78927 0
M  V30 5190 O 482.861 0.428795 -1.77391 0
M  V30 5191 C 482.912 -3.05711 -1.92933 0
M  V30 5192 O 482.633 -4.22348 -1.1642 0
M  V30 5193 C 484.134 -3.44428 -2.79078 0
M  V30 5194 H 481.354 -0.604209 -0.291844 0
M  V30 5195 H 483.898 -2.02722 -0.269095 0
M  V30 5196 H 482.053 -2.86612 -2.60638 0
M  V30 5197 H 482.467 -4.92706 -1.79835 0
M  V30 5198 H 483.941 -4.34388 -3.40603 0
M  V30 5199 H 484.418 -2.65037 -3.50217 0
M  V30 5200 H 485.024 -3.65879 -2.16824 0
M  V30 5201 N 483.339 0.512053 -1.4905 0
M  V30 5202 C 484.567 1.29116 -1.61669 0
M  V30 5203 C 484.982 1.86655 -0.283787 0
M  V30 5204 O 484.339 1.67293 0.729331 0
M  V30 5205 C 484.39 2.4293 -2.67707 0
M  V30 5206 O 484.111 1.87758 -3.95826 0
M  V30 5207 C 485.612 3.34476 -2.90931 0
M  V30 5208 H 482.832 0.392009 -0.544583 0
M  V30 5209 H 485.376 0.615881 -1.95006 0
M  V30 5210 H 483.531 3.06308 -2.37179 0
M  V30 5211 H 483.945 2.62393 -4.54148 0
M  V30 5212 H 485.419 4.10642 -3.68886 0
M  V30 5213 H 485.896 3.90801 -2.00427 0
M  V30 5214 H 486.502 2.76874 -3.22832 0
M  V30 5215 N 484.817 1.37938 0.762283 0
M  V30 5216 C 486.065 1.33404 1.51815 0
M  V30 5217 C 486.386 -0.0780975 1.94844 0
M  V30 5218 O 485.656 -1.02405 1.67003 0
M  V30 5219 H 484.236 0.490839 0.563104 0
M  V30 5220 H 486.898 1.72527 0.906669 0
M  V30 5221 H 485.994 1.97926 2.41313 0
M  V30 5222 N 486.295 -0.989507 1.22664 0
M  V30 5223 C 487.225 -2.09847 1.02404 0
M  V30 5224 C 488.206 -1.70007 -0.0561303 0
M  V30 5225 O 489.391 -1.93906 0.106748 0
M  V30 5226 C 486.521 -3.41996 0.604663 0
M  V30 5227 C 485.475 -3.95699 1.63115 0
M  V30 5228 C 484.801 -5.23936 1.0675 0
M  V30 5229 C 486.101 -4.25999 3.02196 0
M  V30 5230 H 487.795 -2.27054 1.95158 0
M  V30 5231 H 485.341 -1.09111 0.939727 0
M  V30 5232 H 487.294 -4.1899 0.45002 0
M  V30 5233 H 486.018 -3.24626 -0.35855 0
M  V30 5234 H 484.677 -3.2084 1.77362 0
M  V30 5235 H 484.325 -5.02909 0.0955422 0
M  V30 5236 H 484.025 -5.60833 1.75328 0
M  V30 5237 H 485.549 -6.0356 0.924516 0
M  V30 5238 H 486.963 -4.93777 2.91303 0
M  V30 5239 H 485.36 -4.74076 3.67929 0
M  V30 5240 H 486.43 -3.33636 3.51873 0
M  V30 5241 N 487.773 -1.03688 -1.18687 0
M  V30 5242 C 488.683 -0.634908 -2.25845 0
M  V30 5243 C 489.699 0.337065 -1.70704 0
M  V30 5244 O 490.875 0.192943 -2.00474 0
M  V30 5245 C 487.94 -0.000180054 -3.467 0
M  V30 5246 C 487.001 -1.02067 -4.1699 0
M  V30 5247 C 486.234 -0.41614 -5.32075 0
M  V30 5248 O 486.457 0.778712 -5.65059 0
M  V30 5249 O 485.391 -1.14296 -5.90948 0
M  V30 5250 H 489.217 -1.52757 -2.62486 0
M  V30 5251 H 486.802 -0.807533 -1.25695 0
M  V30 5252 H 488.684 0.353342 -4.19916 0
M  V30 5253 H 487.359 0.866367 -3.11891 0
M  V30 5254 H 486.266 -1.42592 -3.45859 0
M  V30 5255 H 487.599 -1.85786 -4.5579 0
M  V30 5256 N 489.251 1.34841 -0.815825 0
M  V30 5257 C 490.161 2.33425 -0.234462 0
M  V30 5258 C 491.177 1.62295 0.627413 0
M  V30 5259 O 492.353 1.94109 0.536987 0
M  V30 5260 C 489.418 3.41471 0.599849 0
M  V30 5261 C 488.479 4.28362 -0.283596 0
M  V30 5262 C 487.712 5.31248 0.51099 0
M  V30 5263 O 487.935 5.43056 1.7449 0
M  V30 5264 O 486.869 6.01812 -0.10297 0
M  V30 5265 H 490.695 2.84962 -1.05024 0
M  V30 5266 H 488.28 1.37774 -0.577809 0
M  V30 5267 H 490.162 4.07464 1.07475 0
M  V30 5268 H 488.837 2.9219 1.39308 0
M  V30 5269 H 487.744 3.65318 -0.805836 0
M  V30 5270 H 489.077 4.81066 -1.041 0
M  V30 5271 N 490.729 0.570148 1.46925 0
M  V30 5272 C 491.692 -0.159933 2.28641 0
M  V30 5273 C 492.692 -0.830638 1.37685 0
M  V30 5274 O 493.882 -0.684516 1.60187 0
M  V30 5275 C 491.014 -1.2354 3.17727 0
M  V30 5276 H 492.207 0.558035 2.94662 0
M  V30 5277 H 489.76 0.327603 1.52828 0
M  V30 5278 H 490.495 -1.98535 2.56426 0
M  V30 5279 H 490.28 -0.759125 3.84681 0
M  V30 5280 H 491.77 -1.74782 3.79264 0
M  V30 5281 N 492.207 -1.54576 0.307264 0
M  V30 5282 C 493.17 -2.22423 -0.553224 0
M  V30 5283 C 494.17 -1.21231 -1.05639 0
M  V30 5284 O 495.36 -1.45923 -0.951419 0
M  V30 5285 C 492.492 -2.91552 -1.76664 0
M  V30 5286 H 493.685 -2.99874 0.0396484 0
M  V30 5287 H 491.238 -1.56192 0.0581629 0
M  V30 5288 H 491.973 -2.18196 -2.39918 0
M  V30 5289 H 491.758 -3.65738 -1.41343 0
M  V30 5290 H 493.248 -3.43292 -2.37783 0
M  V30 5291 N 493.685 -0.035106 -1.57561 0
M  V30 5292 C 494.595 0.960295 -2.14046 0
M  V30 5293 C 495.611 1.3529 -1.0942 0
M  V30 5294 O 496.787 1.43309 -1.41508 0
M  V30 5295 C 493.852 2.22214 -2.66124 0
M  V30 5296 C 492.913 1.8894 -3.85487 0
M  V30 5297 C 492.146 3.09109 -4.35072 0
M  V30 5298 O 492.369 4.21963 -3.83802 0
M  V30 5299 O 491.303 2.91058 -5.26848 0
M  V30 5300 H 495.129 0.509983 -2.99387 0
M  V30 5301 H 492.714 0.185853 -1.48239 0
M  V30 5302 H 494.596 2.96279 -2.99661 0
M  V30 5303 H 493.271 2.66414 -1.83862 0
M  V30 5304 H 492.178 1.12241 -3.56865 0
M  V30 5305 H 493.511 1.49551 -4.6893 0
M  V30 5306 N 495.163 1.55791 0.238111 0
M  V30 5307 C 496.126 1.90239 1.27835 0
M  V30 5308 C 497.126 0.779552 1.4064 0
M  V30 5309 O 498.316 1.04747 1.3919 0
M  V30 5310 C 495.448 2.13859 2.65475 0
M  V30 5311 H 496.641 2.83262 0.985034 0
M  V30 5312 H 494.194 1.48818 0.477799 0
M  V30 5313 H 494.929 1.23334 2.99932 0
M  V30 5314 H 494.714 2.95643 2.57561 0
M  V30 5315 H 496.204 2.41664 3.40571 0
M  V30 5316 N 496.642 -0.504142 1.49319 0
M  V30 5317 C 497.552 -1.63248 1.68486 0
M  V30 5318 C 498.568 -1.64488 0.567432 0
M  V30 5319 O 499.744 -1.82966 0.841749 0
M  V30 5320 C 496.809 -2.99627 1.74426 0
M  V30 5321 C 495.87 -3.09039 2.97982 0
M  V30 5322 C 495.103 -4.38913 3.0363 0
M  V30 5323 O 495.326 -5.27528 2.16958 0
M  V30 5324 O 494.26 -4.53231 3.96062 0
M  V30 5325 H 498.086 -1.50008 2.64067 0
M  V30 5326 H 495.671 -0.680086 1.33023 0
M  V30 5327 H 497.553 -3.80689 1.80705 0
M  V30 5328 H 496.228 -3.13136 0.820233 0
M  V30 5329 H 495.135 -2.27177 2.97223 0
M  V30 5330 H 496.468 -3.00456 3.89855 0
M  V30 5331 N 498.12 -1.38341 -0.754957 0
M  V30 5332 C 499.348 -1.37704 -1.54419 0
M  V30 5333 C 499.763 0.0335243 -1.8877 0
M  V30 5334 O 499.12 0.999773 -1.52679 0
M  V30 5335 C 499.171 -2.23136 -2.84416 0
M  V30 5336 O 498.892 -3.58697 -2.51531 0
M  V30 5337 C 500.393 -2.30664 -3.78562 0
M  V30 5338 H 497.613 -0.471061 -0.477852 0
M  V30 5339 H 500.157 -1.81902 -0.934446 0
M  V30 5340 H 498.312 -1.82403 -3.41772 0
M  V30 5341 H 498.726 -4.03665 -3.34896 0
M  V30 5342 H 500.2 -2.9473 -4.66732 0
M  V30 5343 H 500.677 -1.3199 -4.18898 0
M  V30 5344 H 501.283 -2.71781 -3.27131 0
M  V30 5345 N 499.598 0.982988 -1.23187 0
M  V30 5346 C 500.561 2.05649 -1.01198 0
M  V30 5347 C 501.561 1.6078 0.0252464 0
M  V30 5348 O 502.751 1.72878 -0.214243 0
M  V30 5349 C 499.883 3.36744 -0.530656 0
M  V30 5350 H 501.076 2.2659 -1.96461 0
M  V30 5351 H 498.629 1.15602 -1.05195 0
M  V30 5352 H 499.364 3.21492 0.425873 0
M  V30 5353 H 499.149 3.7065 -1.2791 0
M  V30 5354 H 500.639 4.15705 -0.397366 0
M  V30 5355 N 501.076 1.04316 1.18135 0
M  V30 5356 C 502.023 0.636398 2.21853 0
M  V30 5357 C 502.993 -0.357039 1.62217 0
M  V30 5358 O 504.178 -0.250453 1.89149 0
M  V30 5359 C 501.318 0.00812779 3.45099 0
M  V30 5360 C 500.431 1.04933 4.19062 0
M  V30 5361 C 499.566 0.389313 5.29771 0
M  V30 5362 C 498.605 1.41544 5.9551 0
M  V30 5363 N 497.742 0.78021 6.97751 0
M  V30 5364 H 502.582 1.52536 2.56002 0
M  V30 5365 H 500.119 0.76304 1.25762 0
M  V30 5366 H 502.077 -0.373497 4.15525 0
M  V30 5367 H 500.707 -0.844336 3.11562 0
M  V30 5368 H 499.759 1.54888 3.47439 0
M  V30 5369 H 501.071 1.82862 4.64072 0
M  V30 5370 H 500.225 -0.0463805 6.06682 0
M  V30 5371 H 498.964 -0.422038 4.8587 0
M  V30 5372 H 497.969 1.86124 5.17337 0
M  V30 5373 H 499.194 2.22854 6.41493 0
M  V30 5374 H 497.14 -0.0107899 6.55999 0
M  V30 5375 H 497.057 1.49716 7.41027 0
M  V30 5376 H 498.325 0.368996 7.78626 0
M  V30 5377 N 502.554 -1.34406 0.822964 0
M  V30 5378 C 503.831 -1.92733 0.333641 0
M  V30 5379 C 504.211 -1.75107 -1.17901 0
M  V30 5380 O 503.559 -1.12983 -1.98613 0
M  V30 5381 C 503.769 -3.40557 0.763023 0
M  V30 5382 C 505.117 -4.17709 0.761879 0
M  V30 5383 O 506.141 -3.49141 0.705606 0
M  V30 5384 O 505 -5.40082 0.835109 0
M  V30 5385 H 502.094 -0.821964 0.0911249 0
M  V30 5386 H 504.64 -1.4338 0.907757 0
M  V30 5387 H 503.412 -3.47187 1.8049 0
M  V30 5388 H 503.035 -3.97259 0.164605 0
M  V30 5389 N 504.032 -0.577932 -1.46621 0
M  V30 5390 C 504.98 0.170882 -2.31971 0
M  V30 5391 C 505.974 0.889086 -1.44193 0
M  V30 5392 O 507.18 0.808017 -1.60845 0
M  V30 5393 H 503.555 0.0739763 -0.748353 0
M  V30 5394 H 505.526 -0.567856 -2.92947 0
M  V30 5395 C 504.275 1.17438 -3.27267 0
M  V30 5396 H 503.598 0.63116 -3.94787 0
M  V30 5397 H 505.038 1.66882 -3.89778 0
M  V30 5398 C 503.497 2.23292 -2.52274 0
M  V30 5399 O 504.027 3.30567 -2.28229 0
M  V30 5400 N 502.233 1.97772 -2.12919 0
M  V30 5401 H 501.78 1.10545 -2.32675 0
M  V30 5402 H 501.738 2.68809 -1.63062 0
M  V30 5403 N 505.51 1.54411 -0.315457 0
M  V30 5404 C 506.758 2.00023 0.288971 0
M  V30 5405 C 507.079 1.20529 1.5329 0
M  V30 5406 O 506.349 0.304986 1.93511 0
M  V30 5407 H 504.929 0.738891 0.109766 0
M  V30 5408 H 507.591 1.90094 -0.430129 0
M  V30 5409 H 506.687 3.07198 0.550999 0
M  V30 5410 N 506.988 0.0434614 1.5754 0
M  V30 5411 C 507.898 -0.94893 2.14552 0
M  V30 5412 C 508.914 -1.34707 1.10136 0
M  V30 5413 O 510.09 -1.42557 1.42266 0
M  V30 5414 C 507.155 -2.208 2.67298 0
M  V30 5415 C 506.216 -1.86893 3.86484 0
M  V30 5416 C 505.449 -3.06797 4.36705 0
M  V30 5417 O 505.672 -4.19921 3.86034 0
M  V30 5418 O 504.606 -2.8826 5.28384 0
M  V30 5419 H 508.432 -0.494099 2.99654 0
M  V30 5420 H 506.017 -0.177989 1.48336 0
M  V30 5421 H 507.899 -2.94686 3.01228 0
M  V30 5422 H 506.574 -2.65436 1.85272 0
M  V30 5423 H 505.481 -1.10347 3.57455 0
M  V30 5424 H 506.814 -1.47062 4.69716 0
M  V30 5425 N 508.466 -1.55915 -0.229846 0
M  V30 5426 C 509.429 -1.90914 -1.26824 0
M  V30 5427 C 510.429 -0.786999 -1.40225 0
M  V30 5428 O 511.619 -1.05484 -1.38632 0
M  V30 5429 C 508.751 -2.15264 -2.64337 0
M  V30 5430 H 509.944 -2.8378 -0.969998 0
M  V30 5431 H 507.497 -1.49069 -0.4699 0
M  V30 5432 H 508.232 -1.24923 -2.99274 0
M  V30 5433 H 508.017 -2.97005 -2.55989 0
M  V30 5434 H 509.507 -2.43467 -3.39284 0
M  V30 5435 N 509.944 0.496216 -1.49584 0
M  V30 5436 C 510.854 1.62352 -1.69349 0
M  V30 5437 C 511.87 1.64184 -0.576147 0
M  V30 5438 O 513.046 1.82517 -0.85144 0
M  V30 5439 C 510.111 2.98698 -1.76013 0
M  V30 5440 C 509.172 3.07454 -2.99617 0
M  V30 5441 C 508.405 4.37296 -3.05953 0
M  V30 5442 O 508.628 5.2637 -2.19752 0
M  V30 5443 O 507.562 4.51124 -3.9846 0
M  V30 5444 H 511.388 1.48606 -2.64859 0
M  V30 5445 H 508.973 0.673022 -1.33382 0
M  V30 5446 H 510.855 3.79725 -1.82721 0
M  V30 5447 H 509.53 3.12696 -0.836828 0
M  V30 5448 H 508.437 2.25597 -2.98424 0
M  V30 5449 H 509.77 2.98385 -3.91443 0
M  V30 5450 N 511.423 1.38739 0.74761 0
M  V30 5451 C 512.7 1.25791 1.49786 0
M  V30 5452 C 513.08 -0.138075 2.10648 0
M  V30 5453 O 512.428 -1.14815 1.9756 0
M  V30 5454 C 512.638 2.37265 2.55942 0
M  V30 5455 C 513.986 2.75978 3.22679 0
M  V30 5456 O 515.01 2.36621 2.6625 0
M  V30 5457 O 513.869 3.43867 4.24756 0
M  V30 5458 H 510.963 0.492251 0.664543 0
M  V30 5459 H 513.509 1.50582 0.782511 0
M  V30 5460 H 512.281 3.30644 2.0926 0
M  V30 5461 H 511.904 2.14071 3.35051 0
M  V30 5462 N 512.901 -0.976442 1.23707 0
M  V30 5463 C 513.833 -2.07212 0.979574 0
M  V30 5464 C 514.846 -1.6273 -0.0478528 0
M  V30 5465 O 516.035 -1.77506 0.18815 0
M  V30 5466 C 513.135 -3.35835 0.45479 0
M  V30 5467 C 512.308 -4.09268 1.54331 0
M  V30 5468 C 511.367 -5.16166 1.02271 0
M  V30 5469 O 510.393 -5.42827 1.71254 0
M  V30 5470 N 511.595 -5.80313 -0.147419 0
M  V30 5471 H 514.36 -2.29878 1.92292 0
M  V30 5472 H 511.921 -1.14343 1.14618 0
M  V30 5473 H 513.913 -4.04597 0.0914631 0
M  V30 5474 H 512.483 -3.10106 -0.394068 0
M  V30 5475 H 511.703 -3.34906 2.07923 0
M  V30 5476 H 512.991 -4.55095 2.27522 0
M  V30 5477 H 512.389 -5.61043 -0.724353 0
M  V30 5478 H 510.946 -6.50231 -0.451972 0
M  V30 5479 N 514.379 -1.04941 -1.1758 0
M  V30 5480 C 515.289 -0.658826 -2.25159 0
M  V30 5481 C 516.305 0.318941 -1.71052 0
M  V30 5482 O 517.481 0.171669 -2.00667 0
M  V30 5483 C 514.546 -0.0369522 -3.4668 0
M  V30 5484 C 513.607 -1.06484 -4.15884 0
M  V30 5485 C 512.84 -0.472551 -5.31604 0
M  V30 5486 O 513.063 0.718736 -5.65854 0
M  V30 5487 O 511.997 -1.20557 -5.89703 0
M  V30 5488 H 515.823 -1.55533 -2.60851 0
M  V30 5489 H 513.408 -0.820819 -1.24832 0
M  V30 5490 H 515.29 0.308784 -4.20267 0
M  V30 5491 H 513.965 0.833238 -3.12792 0
M  V30 5492 H 512.872 -1.46253 -3.44327 0
M  V30 5493 H 514.205 -1.9061 -4.53794 0
M  V30 5494 N 515.857 1.33968 -0.830081 0
M  V30 5495 C 516.767 2.33164 -0.259207 0
M  V30 5496 C 517.783 1.62951 0.610164 0
M  V30 5497 O 518.959 1.94668 0.516369 0
M  V30 5498 C 516.024 3.42088 0.563598 0
M  V30 5499 C 515.085 4.28037 -0.329014 0
M  V30 5500 C 514.318 5.3176 0.454616 0
M  V30 5501 O 514.541 5.44876 1.6872 0
M  V30 5502 O 513.475 6.01669 -0.166794 0
M  V30 5503 H 517.301 2.83832 -1.08041 0
M  V30 5504 H 514.886 1.37154 -0.59239 0
M  V30 5505 H 516.768 4.08581 1.03147 0
M  V30 5506 H 515.443 2.93651 1.36201 0
M  V30 5507 H 514.35 3.64443 -0.844538 0
M  V30 5508 H 515.683 4.79934 -1.09196 0
M  V30 5509 N 517.335 0.585699 1.46312 0
M  V30 5510 C 518.282 -0.145835 2.30339 0
M  V30 5511 C 519.252 -0.881215 1.40797 0
M  V30 5512 O 520.437 -0.871293 1.69744 0
M  V30 5513 C 517.577 -1.15161 3.25318 0
M  V30 5514 C 516.69 -0.419367 4.2996 0
M  V30 5515 C 515.825 -1.41293 5.12064 0
M  V30 5516 C 514.864 -0.667261 6.08452 0
M  V30 5517 N 514.001 -1.60903 6.83414 0
M  V30 5518 H 518.841 0.576755 2.92365 0
M  V30 5519 H 516.378 0.296237 1.44086 0
M  V30 5520 H 518.336 -1.74763 3.78832 0
M  V30 5521 H 516.966 -1.84188 2.65094 0
M  V30 5522 H 516.018 0.291751 3.7928 0
M  V30 5523 H 517.33 0.163433 4.98532 0
M  V30 5524 H 516.484 -2.08167 5.6987 0
M  V30 5525 H 515.223 -2.02966 4.43459 0
M  V30 5526 H 514.228 0.0152356 5.49798 0
M  V30 5527 H 515.453 -0.0558817 6.79077 0
M  V30 5528 H 513.399 -2.21381 6.17516 0
M  V30 5529 H 513.316 -1.07911 7.48259 0
M  V30 5530 H 514.584 -2.26802 7.45775 0
M  V30 5531 N 518.813 -1.54241 0.323641 0
M  V30 5532 C 519.723 -2.28033 -0.551205 0
M  V30 5533 C 520.739 -1.32388 -1.12913 0
M  V30 5534 O 521.915 -1.65403 -1.14908 0
M  V30 5535 C 518.98 -3.02382 -1.69606 0
M  V30 5536 C 518.041 -4.13612 -1.14993 0
M  V30 5537 C 517.274 -4.84407 -2.24022 0
M  V30 5538 O 517.497 -4.54716 -3.44368 0
M  V30 5539 O 516.431 -5.71312 -1.89436 0
M  V30 5540 H 520.257 -3.03662 0.048066 0
M  V30 5541 H 517.842 -1.49133 0.0893289 0
M  V30 5542 H 519.724 -3.48941 -2.36259 0
M  V30 5543 H 518.399 -2.29628 -2.28151 0
M  V30 5544 H 517.306 -3.71402 -0.448484 0
M  V30 5545 H 518.639 -4.8841 -0.609608 0
M  V30 5546 N 520.291 -0.0518155 -1.57515 0
M  V30 5547 C 521.568 0.661727 -1.84067 0
M  V30 5548 C 521.948 1.88999 -0.940351 0
M  V30 5549 O 521.296 2.285 -0.00155404 0
M  V30 5550 C 521.506 1.01841 -3.3381 0
M  V30 5551 C 522.854 1.40043 -4.00841 0
M  V30 5552 O 523.878 1.11073 -3.38439 0
M  V30 5553 O 522.737 1.94111 -5.10865 0
M  V30 5554 H 519.831 0.326702 -0.759733 0
M  V30 5555 H 522.377 -0.0812277 -1.69505 0
M  V30 5556 H 521.149 0.145202 -3.91031 0
M  V30 5557 H 520.772 1.81879 -3.53562 0
M  V30 5558 N 521.769 1.56035 0.221574 0
M  V30 5559 C 522.732 1.91584 1.2581 0
M  V30 5560 C 523.732 0.794425 1.39805 0
M  V30 5561 O 524.922 1.06217 1.38071 0
M  V30 5562 C 522.054 2.16663 2.63192 0
M  V30 5563 H 523.247 2.8429 0.954935 0
M  V30 5564 H 520.8 1.49316 0.461988 0
M  V30 5565 H 521.535 1.26508 2.98607 0
M  V30 5566 H 521.32 2.98358 2.5441 0
M  V30 5567 H 522.81 2.45262 3.37988 0
M  V30 5568 N 523.247 -0.488276 1.49845 0
M  V30 5569 C 524.157 -1.61451 1.70207 0
M  V30 5570 C 525.173 -1.63877 0.584846 0
M  V30 5571 O 526.349 -1.82063 0.861107 0
M  V30 5572 C 523.414 -2.9776 1.77594 0
M  V30 5573 C 522.475 -3.05861 3.01243 0
M  V30 5574 C 521.708 -4.35668 3.08268 0
M  V30 5575 O 521.931 -5.25197 2.22541 0
M  V30 5576 O 520.865 -4.49005 4.00847 0
M  V30 5577 H 524.691 -1.47199 2.65643 0
M  V30 5578 H 522.276 -0.665939 1.33737 0
M  V30 5579 H 524.158 -3.7875 1.84732 0
M  V30 5580 H 522.833 -3.12248 0.8534 0
M  V30 5581 H 521.74 -2.24012 2.99616 0
M  V30 5582 H 523.073 -2.96304 3.9302 0
M  V30 5583 N 524.725 -1.39134 -0.740242 0
M  V30 5584 C 525.672 -1.37434 -1.8542 0
M  V30 5585 C 526.642 -0.234822 -1.64432 0
M  V30 5586 O 527.827 -0.429125 -1.85912 0
M  V30 5587 C 524.967 -1.21844 -3.22875 0
M  V30 5588 C 524.08 -2.45296 -3.55603 0
M  V30 5589 C 523.215 -2.22334 -4.82432 0
M  V30 5590 C 522.254 -3.41488 -5.07988 0
M  V30 5591 N 521.391 -3.17877 -6.26018 0
M  V30 5592 H 526.231 -2.3266 -1.86207 0
M  V30 5593 H 523.768 -1.15578 -0.909946 0
M  V30 5594 H 525.726 -1.10818 -4.02213 0
M  V30 5595 H 524.356 -0.3025 -3.21379 0
M  V30 5596 H 523.408 -2.66945 -2.71006 0
M  V30 5597 H 524.72 -3.34063 -3.7041 0
M  V30 5598 H 523.874 -2.0852 -5.69741 0
M  V30 5599 H 522.613 -1.30954 -4.6979 0
M  V30 5600 H 521.618 -3.55807 -4.19144 0
M  V30 5601 H 522.843 -4.33763 -5.22519 0
M  V30 5602 H 520.789 -2.29156 -6.14673 0
M  V30 5603 H 520.706 -4.00198 -6.41387 0
M  V30 5604 H 521.974 -3.07746 -7.16179 0
M  V30 5605 N 526.204 0.969867 -1.24223 0
M  V30 5606 C 527.114 2.09806 -1.0497 0
M  V30 5607 C 528.13 1.73998 0.00886455 0
M  V30 5608 O 529.306 2.00513 -0.188848 0
M  V30 5609 C 526.371 3.40467 -0.654452 0
M  V30 5610 C 525.432 3.90236 -1.78926 0
M  V30 5611 C 524.665 5.14662 -1.41277 0
M  V30 5612 O 524.888 5.69602 -0.301632 0
M  V30 5613 O 523.822 5.58761 -2.23763 0
M  V30 5614 H 527.648 2.28942 -1.99548 0
M  V30 5615 H 525.233 1.08197 -1.03023 0
M  V30 5616 H 527.115 4.19039 -0.445452 0
M  V30 5617 H 525.79 3.22636 0.262216 0
M  V30 5618 H 524.697 3.12735 -2.05299 0
M  V30 5619 H 526.03 4.1254 -2.68462 0
M  V30 5620 N 527.682 1.05563 1.17022 0
M  V30 5621 C 528.63 0.653887 2.2322 0
M  V30 5622 C 529.624 -0.326642 1.66221 0
M  V30 5623 O 530.83 -0.192301 1.7897 0
M  V30 5624 H 527.205 0.193297 0.726733 0
M  V30 5625 H 529.176 1.5596 2.54399 0
M  V30 5626 C 527.925 0.0485434 3.47666 0
M  V30 5627 H 527.248 0.79413 3.91834 0
M  V30 5628 H 528.688 -0.195133 4.23551 0
M  V30 5629 C 527.147 -1.20583 3.14581 0
M  V30 5630 O 527.677 -2.29475 3.29703 0
M  V30 5631 N 525.883 -1.10493 2.68774 0
M  V30 5632 H 525.43 -0.218795 2.56669 0
M  V30 5633 H 525.388 -1.94507 2.47011 0
M  V30 5634 N 529.16 -1.33526 0.837174 0
M  V30 5635 C 530.409 -1.97098 0.428387 0
M  V30 5636 C 530.722 -1.67062 -1.01734 0
M  V30 5637 O 531.928 -2.24235 -1.53072 0
M  V30 5638 C 530.384 -3.52725 0.715075 0
M  V30 5639 C 529.992 -3.9164 2.17537 0
M  V30 5640 C 531.736 -4.22857 0.373154 0
M  V30 5641 C 529.643 -5.40237 2.40619 0
M  V30 5642 H 528.573 -0.737589 0.156455 0
M  V30 5643 H 531.224 -1.52169 1.02552 0
M  V30 5644 H 529.606 -3.95971 0.0475904 0
M  V30 5645 H 530.78 -3.59456 2.88319 0
M  V30 5646 H 529.095 -3.34485 2.4801 0
M  V30 5647 H 531.692 -5.32133 0.523264 0
M  V30 5648 H 532.035 -4.10647 -0.683708 0
M  V30 5649 H 532.568 -3.85135 0.995801 0
M  V30 5650 H 529.307 -5.57449 3.44864 0
M  V30 5651 H 528.827 -5.73887 1.74396 0
M  V30 5652 H 530.506 -6.07102 2.23688 0
M  V30 5653 N 530.638 -0.59345 -1.46 0
M  V30 5654 C 531.548 0.135817 -2.34207 0
M  V30 5655 C 532.564 0.875008 -1.50398 0
M  V30 5656 O 533.74 0.835778 -1.83239 0
M  V30 5657 C 530.805 1.12977 -3.27776 0
M  V30 5658 C 529.866 0.394081 -4.27487 0
M  V30 5659 C 529.099 1.34068 -5.16586 0
M  V30 5660 O 529.322 2.5778 -5.08828 0
M  V30 5661 O 528.256 0.845426 -5.95933 0
M  V30 5662 H 532.082 -0.588691 -2.9794 0
M  V30 5663 H 529.667 -0.353784 -1.45151 0
M  V30 5664 H 531.549 1.70261 -3.85473 0
M  V30 5665 H 530.224 1.83556 -2.66625 0
M  V30 5666 H 529.131 -0.220869 -3.73447 0
M  V30 5667 H 530.464 -0.270939 -4.91454 0
M  V30 5668 N 532.116 1.54067 -0.331816 0
M  V30 5669 C 533.063 2.24623 0.530372 0
M  V30 5670 C 534.033 1.24009 1.10503 0
M  V30 5671 O 535.218 1.52712 1.14384 0
M  V30 5672 C 532.358 3.01374 1.68129 0
M  V30 5673 C 531.471 4.16821 1.13507 0
M  V30 5674 C 530.606 4.81085 2.25234 0
M  V30 5675 C 529.645 5.88621 1.67903 0
M  V30 5676 N 528.782 6.46713 2.73326 0
M  V30 5677 H 533.622 2.97898 -0.0778607 0
M  V30 5678 H 531.159 1.47014 -0.0501965 0
M  V30 5679 H 533.117 3.44125 2.35868 0
M  V30 5680 H 531.747 2.30419 2.26069 0
M  V30 5681 H 530.799 3.78796 0.348979 0
M  V30 5682 H 532.111 4.94203 0.675633 0
M  V30 5683 H 531.265 5.26846 3.00862 0
M  V30 5684 H 530.004 4.03102 2.74518 0
M  V30 5685 H 529.009 5.42254 0.907773 0
M  V30 5686 H 530.234 6.68506 1.19487 0
M  V30 5687 H 528.18 5.71599 3.21886 0
M  V30 5688 H 528.097 7.19532 2.3197 0
M  V30 5689 H 529.365 6.97129 3.48758 0
M  V30 5690 N 533.594 0.0601682 1.57485 0
M  V30 5691 C 534.871 -0.651956 1.84415 0
M  V30 5692 C 535.251 -1.88498 0.950361 0
M  V30 5693 O 534.599 -2.28496 0.0136719 0
M  V30 5694 C 534.809 -1.00069 3.34346 0
M  V30 5695 C 536.157 -1.37915 4.01578 0
M  V30 5696 O 537.181 -1.09277 3.39024 0
M  V30 5697 O 536.04 -1.91399 5.11887 0
M  V30 5698 H 533.134 -0.322668 0.761455 0
M  V30 5699 H 535.68 0.0902159 1.6946 0
M  V30 5700 H 534.452 -0.124463 3.91102 0
M  V30 5701 H 534.075 -1.80001 3.54521 0
M  V30 5702 N 535.072 -1.5615 -0.213296 0
M  V30 5703 C 535.982 -1.96265 -1.28519 0
M  V30 5704 C 536.998 -0.86765 -1.50824 0
M  V30 5705 O 538.174 -1.17191 -1.63793 0
M  V30 5706 C 535.239 -2.27836 -2.61327 0
M  V30 5707 C 534.3 -3.50949 -2.47252 0
M  V30 5708 C 533.533 -3.81004 -3.73727 0
M  V30 5709 O 533.756 -3.12612 -4.77106 0
M  V30 5710 O 532.69 -4.74477 -3.70344 0
M  V30 5711 H 536.516 -2.87631 -0.974795 0
M  V30 5712 H 534.101 -1.43467 -0.416832 0
M  V30 5713 H 535.983 -2.49299 -3.39747 0
M  V30 5714 H 534.658 -1.39643 -2.9203 0
M  V30 5715 H 533.565 -3.34754 -1.67004 0
M  V30 5716 H 534.898 -4.39551 -2.21486 0
M  V30 5717 N 536.55 0.480323 -1.50102 0
M  V30 5718 C 537.827 1.24159 -1.51142 0
M  V30 5719 C 538.207 2.09605 -0.250818 0
M  V30 5720 O 537.555 2.15274 0.766118 0
M  V30 5721 C 537.765 2.08057 -2.80202 0
M  V30 5722 C 539.113 2.66556 -3.30504 0
M  V30 5723 O 540.137 2.18308 -2.81461 0
M  V30 5724 O 538.996 3.54442 -4.15973 0
M  V30 5725 H 536.09 0.562928 -0.605839 0
M  V30 5726 H 538.636 0.492899 -1.62384 0
M  V30 5727 H 537.408 1.45032 -3.6343 0
M  V30 5728 H 537.031 2.90079 -2.71919 0
M  V30 5729 N 538.028 1.39524 0.732853 0
M  V30 5730 C 539.305 1.27373 1.48444 0
M  V30 5731 C 539.685 -0.115725 2.10783 0
M  V30 5732 O 539.033 -1.12713 1.98766 0
M  V30 5733 C 539.243 2.39966 2.53412 0
M  V30 5734 C 540.591 2.79384 3.19733 0
M  V30 5735 O 541.615 2.39431 2.63725 0
M  V30 5736 O 540.474 3.48353 4.21085 0
M  V30 5737 H 537.568 0.499272 0.659285 0
M  V30 5738 H 540.114 1.51403 0.766496 0
M  V30 5739 H 538.886 3.32845 2.05742 0
M  V30 5740 H 538.509 2.17612 3.32762 0
M  V30 5741 N 539.506 -0.963266 1.24736 0
M  V30 5742 C 540.752 -1.70933 1.09131 0
M  V30 5743 C 541.085 -1.90676 -0.368273 0
M  V30 5744 O 540.36 -1.47147 -1.27193 0
M  V30 5745 C 540.643 -3.09744 1.83658 0
M  V30 5746 C 540.496 -2.97465 3.37394 0
M  V30 5747 C 541.815 -4.09483 1.61282 0
M  V30 5748 H 538.934 -0.620398 0.397838 0
M  V30 5749 H 541.576 -1.12028 1.53459 0
M  V30 5750 H 539.726 -3.60031 1.4598 0
M  V30 5751 H 541.398 -2.54571 3.84696 0
M  V30 5752 H 539.641 -2.33576 3.65547 0
M  V30 5753 H 540.312 -3.95822 3.84745 0
M  V30 5754 H 542.788 -3.68073 1.94066 0
M  V30 5755 H 541.664 -5.04666 2.15878 0
M  V30 5756 H 541.925 -4.38639 0.552102 0
M  V30 5757 N 540.985 -1.06182 -1.16461 0
M  V30 5758 C 542.262 -0.691364 -1.82974 0
M  V30 5759 C 542.642 0.827377 -1.9421 0
M  V30 5760 O 541.99 1.73723 -1.48434 0
M  V30 5761 C 542.2 -1.39199 -3.20038 0
M  V30 5762 C 543.548 -1.53647 -3.95825 0
M  V30 5763 O 544.572 -1.35181 -3.29552 0
M  V30 5764 O 543.431 -1.83932 -5.14618 0
M  V30 5765 H 540.525 -0.244605 -0.789998 0
M  V30 5766 H 543.071 -1.16203 -1.23673 0
M  V30 5767 H 541.843 -2.42766 -3.06888 0
M  V30 5768 H 541.466 -0.911335 -3.87015 0
M  V30 5769 N 542.463 1.3308 -0.844243 0
M  V30 5770 C 543.395 2.27954 -0.238671 0
M  V30 5771 C 544.408 1.51978 0.583665 0
M  V30 5772 O 545.597 1.73731 0.409857 0
M  V30 5773 C 542.697 3.31963 0.682185 0
M  V30 5774 C 541.87 4.37281 -0.101998 0
M  V30 5775 C 540.929 5.20928 0.743022 0
M  V30 5776 O 539.955 5.68914 0.180285 0
M  V30 5777 N 541.157 5.42738 2.0595 0
M  V30 5778 H 543.922 2.8056 -1.05386 0
M  V30 5779 H 541.483 1.4583 -0.70322 0
M  V30 5780 H 543.475 3.84828 1.25259 0
M  V30 5781 H 542.045 2.79594 1.39808 0
M  V30 5782 H 541.265 3.84843 -0.853802 0
M  V30 5783 H 542.553 5.04746 -0.641015 0
M  V30 5784 H 541.951 5.05463 2.54016 0
M  V30 5785 H 540.508 5.98639 2.57827 0
M  V30 5786 N 543.941 0.601185 1.45683 0
M  V30 5787 C 544.851 -0.123395 2.34275 0
M  V30 5788 C 545.867 -0.86702 1.5086 0
M  V30 5789 O 547.043 -0.826049 1.8368 0
M  V30 5790 C 544.108 -1.11237 3.2837 0
M  V30 5791 C 543.169 -0.371405 4.2769 0
M  V30 5792 C 542.402 -1.31327 5.1729 0
M  V30 5793 O 542.625 -2.55078 5.10188 0
M  V30 5794 O 541.559 -0.813811 5.96373 0
M  V30 5795 H 545.385 0.604483 2.97623 0
M  V30 5796 H 542.97 0.361477 1.44961 0
M  V30 5797 H 544.852 -1.68214 3.8637 0
M  V30 5798 H 543.527 -1.82139 2.67595 0
M  V30 5799 H 542.434 0.24067 3.73325 0
M  V30 5800 H 543.767 0.296998 4.91303 0
M  V30 5801 N 545.419 -1.53889 0.339982 0
M  V30 5802 C 546.349 -2.27843 -0.510856 0
M  V30 5803 C 547.33 -1.29267 -1.10563 0
M  V30 5804 O 548.515 -1.58104 -1.12768 0
M  V30 5805 C 545.645 -3.04857 -1.66372 0
M  V30 5806 C 544.599 -4.10907 -1.19746 0
M  V30 5807 C 543.925 -4.75855 -2.43857 0
M  V30 5808 C 545.225 -5.21435 -0.300501 0
M  V30 5809 H 546.919 -2.99212 0.106067 0
M  V30 5810 H 544.465 -1.43904 0.0524533 0
M  V30 5811 H 546.418 -3.5533 -2.26537 0
M  V30 5812 H 545.142 -2.31133 -2.30749 0
M  V30 5813 H 543.801 -3.61342 -0.618654 0
M  V30 5814 H 543.449 -3.9873 -3.06633 0
M  V30 5815 H 543.149 -5.47502 -2.13343 0
M  V30 5816 H 544.673 -5.2911 -3.04754 0
M  V30 5817 H 546.087 -5.67565 -0.80889 0
M  V30 5818 H 544.484 -6.00036 -0.0874076 0
M  V30 5819 H 545.554 -4.80328 0.664321 0
M  V30 5820 N 546.897 -0.0685191 -1.57451 0
M  V30 5821 C 547.86 0.885173 -2.11417 0
M  V30 5822 C 548.86 1.22853 -1.03748 0
M  V30 5823 O 550.05 1.16235 -1.2975 0
M  V30 5824 C 547.182 2.18964 -2.61281 0
M  V30 5825 H 548.375 0.417034 -2.96986 0
M  V30 5826 H 545.928 0.18014 -1.55258 0
M  V30 5827 H 546.663 2.70321 -1.79156 0
M  V30 5828 H 546.448 1.9534 -3.39977 0
M  V30 5829 H 547.938 2.87242 -3.0312 0
M  V30 5830 N 548.375 1.56261 0.205012 0
M  V30 5831 C 549.323 1.94631 1.27364 0
M  V30 5832 C 550.317 0.830434 1.47649 0
M  V30 5833 O 551.523 1.01538 1.48627 0
M  V30 5834 H 547.898 0.618755 0.427371 0
M  V30 5835 H 549.869 2.83768 0.922941 0
M  V30 5836 C 548.618 2.29358 2.61324 0
M  V30 5837 H 547.941 3.14744 2.46528 0
M  V30 5838 H 549.381 2.60076 3.34868 0
M  V30 5839 C 547.84 1.12461 3.17575 0
M  V30 5840 O 548.37 0.394407 3.99759 0
M  V30 5841 N 546.576 0.904036 2.7618 0
M  V30 5842 H 546.123 1.49956 2.09454 0
M  V30 5843 H 546.081 0.123662 3.14157 0
M  V30 5844 N 549.853 -0.472356 1.50355 0
M  V30 5845 C 551.102 -1.2213 1.60522 0
M  V30 5846 C 551.415 -1.9312 0.310466 0
M  V30 5847 O 552.621 -2.69936 0.291029 0
M  V30 5848 C 551.077 -2.21909 2.83345 0
M  V30 5849 C 550.685 -1.56727 4.19691 0
M  V30 5850 C 552.429 -2.97453 3.02856 0
M  V30 5851 C 550.336 -2.54785 5.33703 0
M  V30 5852 H 549.266 -0.459543 0.597776 0
M  V30 5853 H 551.917 -0.491922 1.76783 0
M  V30 5854 H 550.299 -2.98133 2.60639 0
M  V30 5855 H 551.473 -0.863007 4.52646 0
M  V30 5856 H 549.788 -0.934685 4.05774 0
M  V30 5857 H 552.385 -3.70838 3.85205 0
M  V30 5858 H 552.728 -3.56764 2.14534 0
M  V30 5859 H 553.261 -2.28342 3.25737 0
M  V30 5860 H 550 -2.00214 6.24175 0
M  V30 5861 H 549.52 -3.23367 5.05167 0
M  V30 5862 H 551.199 -3.16639 5.64224 0
M  V30 5863 N 551.331 -1.39911 -0.725443 0
M  V30 5864 C 552.608 -1.28158 -1.47766 0
M  V30 5865 C 552.988 0.104545 -2.10841 0
M  V30 5866 O 552.336 1.11657 -1.99361 0
M  V30 5867 C 552.546 -2.41306 -2.52135 0
M  V30 5868 C 553.894 -2.81076 -3.18247 0
M  V30 5869 O 554.918 -2.40827 -2.62452 0
M  V30 5870 O 553.777 -3.50581 -4.19231 0
M  V30 5871 H 550.871 -0.502761 -0.656628 0
M  V30 5872 H 553.417 -1.51808 -0.758456 0
M  V30 5873 H 552.189 -3.33932 -2.03974 0
M  V30 5874 H 551.812 -2.19374 -3.31603 0
M  V30 5875 N 552.809 0.956637 -1.25245 0
M  V30 5876 C 554.22 1.51569 -1.09012 0
M  V30 5877 C 554.571 1.93322 0.334813 0
M  V30 5878 O 553.696 1.78421 1.22454 0
M  V30 5879 C 554.291 2.75444 -1.97271 0
M  V30 5880 C 552.85 3.27669 -1.8523 0
M  V30 5881 C 551.997 2.00517 -1.91542 0
M  V30 5882 H 554.948 0.773746 -1.3856 0
M  V30 5883 H 554.969 3.4919 -1.51151 0
M  V30 5884 H 554.481 2.45024 -3.00973 0
M  V30 5885 H 552.582 3.62914 -0.844045 0
M  V30 5886 H 552.695 3.9582 -2.69932 0
M  V30 5887 H 551.059 2.15727 -1.35404 0
M  V30 5888 H 551.842 1.72448 -2.96844 0
M  V30 5889 N 554.287 1.06798 1.15896 0
M  V30 5890 C 555.515 0.808694 1.90441 0
M  V30 5891 C 555.93 -0.637506 1.77711 0
M  V30 5892 O 555.287 -1.43684 1.12522 0
M  V30 5893 C 555.338 1.20068 3.40978 0
M  V30 5894 O 555.059 2.59013 3.53333 0
M  V30 5895 C 556.56 0.96987 4.3256 0
M  V30 5896 H 553.78 0.292809 0.603742 0
M  V30 5897 H 556.324 1.42296 1.46874 0
M  V30 5898 H 554.479 0.630842 3.82229 0
M  V30 5899 H 554.893 2.7485 4.46719 0
M  V30 5900 H 556.367 1.29371 5.36626 0
M  V30 5901 H 556.844 -0.0941209 4.39099 0
M  V30 5902 H 557.45 1.52433 3.97044 0
M  V30 5903 N 555.766 -1.3263 0.851289 0
M  V30 5904 C 557.012 -1.98061 0.462963 0
M  V30 5905 C 557.367 -1.66162 -0.969948 0
M  V30 5906 O 556.66 -0.937723 -1.67085 0
M  V30 5907 C 556.854 -3.51713 0.635015 0
M  V30 5908 C 556.683 -3.98544 2.0831 0
M  V30 5909 C 555.453 -4.25787 2.72091 0
M  V30 5910 C 557.651 -4.13858 3.0533 0
M  V30 5911 N 555.633 -4.58842 4.07845 0
M  V30 5912 C 557.004 -4.50412 4.26063 0
M  V30 5913 C 559.059 -3.96182 3.0157 0
M  V30 5914 C 557.762 -4.71136 5.43529 0
M  V30 5915 C 559.788 -4.18088 4.18278 0
M  V30 5916 C 559.15 -4.54956 5.37768 0
M  V30 5917 H 555.249 -0.750976 0.218082 0
M  V30 5918 H 557.833 -1.60514 1.10197 0
M  V30 5919 H 556.004 -3.88391 0.0257298 0
M  V30 5920 H 557.736 -4.04118 0.216915 0
M  V30 5921 H 554.491 -4.17734 2.23149 0
M  V30 5922 H 554.915 -4.7956 4.77862 0
M  V30 5923 H 559.557 -3.66783 2.1031 0
M  V30 5924 H 557.275 -4.9939 6.35323 0
M  V30 5925 H 560.861 -4.05918 4.168 0
M  V30 5926 H 559.741 -4.71567 6.26573 0
M  V30 5927 N 557.244 -0.608902 -1.45362 0
M  V30 5928 C 558.493 -0.10218 -2.01441 0
M  V30 5929 C 558.806 1.27546 -1.48295 0
M  V30 5930 O 560.012 1.87498 -1.96359 0
M  V30 5931 C 558.468 -0.131985 -3.59658 0
M  V30 5932 C 558.076 -1.50956 -4.21801 0
M  V30 5933 C 559.82 0.319427 -4.23296 0
M  V30 5934 C 557.727 -1.49568 -5.72174 0
M  V30 5935 H 556.657 -0.0344314 -0.753213 0
M  V30 5936 H 559.308 -0.764426 -1.6682 0
M  V30 5937 H 557.69 0.596939 -3.91475 0
M  V30 5938 H 558.864 -2.26029 -4.01556 0
M  V30 5939 H 557.179 -1.90318 -3.70362 0
M  V30 5940 H 559.776 0.349013 -5.3356 0
M  V30 5941 H 560.119 1.34237 -3.94064 0
M  V30 5942 H 560.652 -0.356273 -3.96201 0
M  V30 5943 H 557.391 -2.49626 -6.06108 0
M  V30 5944 H 556.911 -0.787542 -5.94607 0
M  V30 5945 H 558.59 -1.21989 -6.35396 0
M  V30 5946 N 558.722 1.53707 -0.348139 0
M  V30 5947 C 559.632 2.28881 0.514857 0
M  V30 5948 C 560.648 1.34168 1.10793 0
M  V30 5949 O 561.824 1.6721 1.12262 0
M  V30 5950 C 558.889 3.05042 1.64774 0
M  V30 5951 C 557.95 4.15389 1.08398 0
M  V30 5952 C 557.183 4.87909 2.16287 0
M  V30 5953 O 557.406 4.60137 3.3709 0
M  V30 5954 O 556.34 5.74254 1.80323 0
M  V30 5955 H 560.166 3.03547 -0.0963699 0
M  V30 5956 H 557.751 1.48972 -0.113043 0
M  V30 5957 H 559.633 3.52656 2.30677 0
M  V30 5958 H 558.308 2.33228 2.24469 0
M  V30 5959 H 557.215 3.72068 0.389341 0
M  V30 5960 H 558.548 4.89318 0.531829 0
M  V30 5961 N 560.2 0.0768682 1.57412 0
M  V30 5962 C 561.425 -0.603404 1.98428 0
M  V30 5963 C 561.85 -1.62047 0.955108 0
M  V30 5964 O 561.208 -1.81129 -0.0786778 0
M  V30 5965 C 561.256 -1.24396 3.38464 0
M  V30 5966 O 560.36 -2.35982 3.3821 0
M  V30 5967 H 559.701 -0.154741 0.645718 0
M  V30 5968 H 562.231 0.152885 2.04028 0
M  V30 5969 H 562.241 -1.5896 3.7576 0
M  V30 5970 H 560.916 -0.498735 4.12899 0
M  V30 5971 H 559.493 -2.03173 3.1269 0
M  V30 5972 N 561.678 -1.56367 -0.196722 0
M  V30 5973 C 563.089 -1.70462 -0.761545 0
M  V30 5974 C 563.44 -0.683161 -1.83922 0
M  V30 5975 O 562.565 0.160753 -2.15802 0
M  V30 5976 C 563.16 -3.09057 -1.38814 0
M  V30 5977 C 561.719 -3.24922 -1.90007 0
M  V30 5978 C 560.866 -2.66412 -0.769399 0
M  V30 5979 H 563.817 -1.58675 0.0283263 0
M  V30 5980 H 563.838 -3.06296 -2.2575 0
M  V30 5981 H 563.35 -3.83378 -0.603559 0
M  V30 5982 H 561.451 -2.55514 -2.71189 0
M  V30 5983 H 561.564 -4.3241 -2.06297 0
M  V30 5984 H 559.928 -2.25546 -1.18326 0
M  V30 5985 H 560.711 -3.433 0.00291773 0
M  V30 5986 N 563.156 0.464375 -1.50603 0
M  V30 5987 C 564.103 1.56152 -1.69956 0
M  V30 5988 C 565.073 1.57046 -0.54091 0
M  V30 5989 O 566.258 1.74473 -0.772258 0
M  V30 5990 C 563.398 2.94079 -1.80586 0
M  V30 5991 C 562.511 3.02923 -3.07996 0
M  V30 5992 C 561.646 4.31806 -3.09382 0
M  V30 5993 C 560.685 4.34417 -4.31218 0
M  V30 5994 N 559.822 5.54782 -4.30304 0
M  V30 5995 H 564.662 1.38955 -2.6362 0
M  V30 5996 H 562.199 0.675482 -1.30674 0
M  V30 5997 H 564.157 3.74073 -1.8473 0
M  V30 5998 H 562.787 3.09896 -0.903556 0
M  V30 5999 H 561.839 2.1576 -3.13292 0
M  V30 6000 H 563.151 3.00712 -3.97962 0
M  V30 6001 H 562.305 5.20153 -3.12292 0
M  V30 6002 H 561.044 4.36636 -2.17257 0
M  V30 6003 H 560.049 3.44467 -4.28512 0
M  V30 6004 H 561.274 4.31273 -5.24576 0
M  V30 6005 H 559.22 5.60384 -3.41037 0
M  V30 6006 H 559.137 5.54339 -5.14047 0
M  V30 6007 H 560.405 6.45235 -4.3737 0
M  V30 6008 N 564.634 1.40294 0.718013 0
M  V30 6009 C 565.862 1.4175 1.50714 0
M  V30 6010 C 566.277 0.0165366 1.88793 0
M  V30 6011 O 565.634 -0.958942 1.55276 0
M  V30 6012 C 565.685 2.30598 2.784 0
M  V30 6013 O 565.406 3.6524 2.41932 0
M  V30 6014 C 566.907 2.4062 3.72313 0
M  V30 6015 H 564.127 0.483565 0.465194 0
M  V30 6016 H 566.671 1.84316 0.885889 0
M  V30 6017 H 564.826 1.91401 3.36815 0
M  V30 6018 H 565.24 4.12402 3.24076 0
M  V30 6019 H 566.714 3.07001 4.58753 0
M  V30 6020 H 567.191 1.4305 4.15251 0
M  V30 6021 H 567.797 2.80359 3.19811 0
M  V30 6022 N 566.112 -0.949982 1.2575 0
M  V30 6023 C 567.06 -2.06869 1.06339 0
M  V30 6024 C 568.054 -1.69399 -0.00708901 0
M  V30 6025 O 569.26 -1.79383 0.148897 0
M  V30 6026 H 565.635 -0.677197 0.326969 0
M  V30 6027 H 567.606 -2.20396 2.01167 0
M  V30 6028 C 566.355 -3.40503 0.703769 0
M  V30 6029 H 565.678 -3.69807 1.51931 0
M  V30 6030 H 567.118 -4.19623 0.607677 0
M  V30 6031 C 565.577 -3.31685 -0.5905 0
M  V30 6032 O 566.107 -3.67085 -1.63131 0
M  V30 6033 N 564.313 -2.84797 -0.577859 0
M  V30 6034 H 563.86 -2.56186 0.26951 0
M  V30 6035 H 563.818 -2.79279 -1.44398 0
M  V30 6036 N 567.59 -1.07411 -1.15328 0
M  V30 6037 C 568.838 -0.796073 -1.85761 0
M  V30 6038 C 569.159 0.679864 -1.82764 0
M  V30 6039 O 568.429 1.49242 -1.269 0
M  V30 6040 H 567.009 -0.291495 -0.687779 0
M  V30 6041 H 569.671 -1.35799 -1.39802 0
M  V30 6042 H 568.767 -1.13114 -2.90881 0
M  V30 6043 N 569.068 1.32177 -0.85831 0
M  V30 6044 C 570.018 2.26307 -0.277307 0
M  V30 6045 C 571.002 1.50123 0.578946 0
M  V30 6046 O 572.194 1.71754 0.427731 0
M  V30 6047 C 569.323 3.39181 0.530232 0
M  V30 6048 C 568.409 4.22746 -0.338613 0
M  V30 6049 N 568.8 4.85265 -1.4266 0
M  V30 6050 C 567.098 4.45813 -0.129 0
M  V30 6051 C 567.799 5.47634 -1.96142 0
M  V30 6052 N 566.775 5.28794 -1.26007 0
M  V30 6053 H 570.577 2.72173 -1.10902 0
M  V30 6054 H 568.091 1.46308 -0.704816 0
M  V30 6055 H 570.088 4.05628 0.962904 0
M  V30 6056 H 568.748 2.9486 1.35969 0
M  V30 6057 H 569.759 4.85259 -1.80953 0
M  V30 6058 H 566.436 4.12163 0.665451 0
M  V30 6059 H 567.826 6.0735 -2.8736 0
M  V30 6060 N 570.547 0.616602 1.45037 0
M  V30 6061 C 571.796 0.112861 2.01384 0
M  V30 6062 C 572.109 -1.26758 1.48969 0
M  V30 6063 O 573.315 -1.86454 1.9735 0
M  V30 6064 C 571.771 0.151057 3.59583 0
M  V30 6065 C 571.379 1.53191 4.20995 0
M  V30 6066 C 573.123 -0.296974 4.2346 0
M  V30 6067 C 571.03 1.526 5.71373 0
M  V30 6068 H 569.96 0.0384254 0.75302 0
M  V30 6069 H 572.611 0.773262 1.66412 0
M  V30 6070 H 570.993 -0.57617 3.91786 0
M  V30 6071 H 572.167 2.28156 4.00352 0
M  V30 6072 H 570.482 1.92279 3.69348 0
M  V30 6073 H 573.079 -0.320712 5.33737 0
M  V30 6074 H 573.422 -1.32145 3.9477 0
M  V30 6075 H 573.955 0.377279 3.96007 0
M  V30 6076 H 570.694 2.52837 6.04776 0
M  V30 6077 H 570.214 0.819064 5.94181 0
M  V30 6078 H 571.893 1.25357 6.3474 0
M  V30 6079 N 572.025 -1.5352 0.356285 0
M  V30 6080 C 572.935 -2.29151 -0.502712 0
M  V30 6081 C 573.951 -1.34753 -1.1008 0
M  V30 6082 O 575.127 -1.67803 -1.11374 0
M  V30 6083 C 572.192 -3.05911 -1.63154 0
M  V30 6084 C 571.253 -4.15958 -1.06194 0
M  V30 6085 C 570.486 -4.8905 -2.13696 0
M  V30 6086 O 570.709 -4.61919 -3.34645 0
M  V30 6087 O 569.643 -5.75202 -1.77275 0
M  V30 6088 H 573.469 -3.03492 0.112466 0
M  V30 6089 H 571.054 -1.4891 0.120942 0
M  V30 6090 H 572.936 -3.53874 -2.28804 0
M  V30 6091 H 571.611 -2.34415 -2.23229 0
M  V30 6092 H 570.518 -3.7227 -0.369603 0
M  V30 6093 H 571.851 -4.89593 -0.505872 0
M  V30 6094 N 573.503 -0.0852151 -1.57369 0
M  V30 6095 C 574.451 0.894856 -2.14698 0
M  V30 6096 C 575.445 1.29903 -1.08727 0
M  V30 6097 O 576.651 1.27471 -1.27088 0
M  V30 6098 H 573.026 0.306569 -0.686673 0
M  V30 6099 H 574.997 0.386542 -2.95886 0
M  V30 6100 C 573.746 2.14798 -2.73417 0
M  V30 6101 H 573.069 1.84585 -3.54638 0
M  V30 6102 H 574.509 2.81456 -3.1711 0
M  V30 6103 C 572.968 2.91546 -1.68828 0
M  V30 6104 O 573.498 3.85733 -1.12129 0
M  V30 6105 N 571.704 2.54901 -1.39549 0
M  V30 6106 H 571.251 1.7838 -1.85845 0
M  V30 6107 H 571.209 3.06553 -0.698054 0
M  V30 6108 N 574.981 1.5647 0.188427 0
M  V30 6109 C 576.229 1.80655 0.905986 0
M  V30 6110 C 576.55 0.659391 1.83513 0
M  V30 6111 O 575.82 -0.321868 1.93238 0
M  V30 6112 H 574.4 0.666391 0.337538 0
M  V30 6113 H 577.062 1.93949 0.192339 0
M  V30 6114 H 576.158 2.74066 1.49313 0
M  V30 6115 N 576.459 -0.456382 1.50847 0
M  V30 6116 C 577.87 -1.03685 1.55262 0
M  V30 6117 C 578.221 -1.92779 0.364771 0
M  V30 6118 O 577.346 -2.10043 -0.52068 0
M  V30 6119 C 577.941 -1.88718 2.81374 0
M  V30 6120 C 576.5 -2.41847 2.88422 0
M  V30 6121 C 575.647 -1.20564 2.49719 0
M  V30 6122 H 578.598 -0.238399 1.56899 0
M  V30 6123 H 578.619 -2.73957 2.6406 0
M  V30 6124 H 578.131 -1.23847 3.67809 0
M  V30 6125 H 576.232 -3.10228 2.06372 0
M  V30 6126 H 576.345 -2.75947 3.9165 0
M  V30 6127 H 574.709 -1.54504 2.02486 0
M  V30 6128 H 575.492 -0.573326 3.38479 0
M  V30 6129 N 577.937 -1.40673 -0.710563 0
M  V30 6130 C 579.184 -1.39222 -1.47049 0
M  V30 6131 C 579.512 0.0037691 -1.945 0
M  V30 6132 O 578.767 0.989224 -1.68857 0
M  V30 6133 C 579.066 -2.33253 -2.70791 0
M  V30 6134 C 578.732 -3.80406 -2.42079 0
M  V30 6135 C 577.394 -4.20496 -2.33959 0
M  V30 6136 C 579.746 -4.73375 -2.18094 0
M  V30 6137 C 577.074 -5.51584 -1.99929 0
M  V30 6138 C 579.426 -6.04768 -1.85576 0
M  V30 6139 C 578.09 -6.43895 -1.75941 0
M  V30 6140 H 577.36 -0.509449 -0.538092 0
M  V30 6141 H 580.007 -1.73363 -0.81348 0
M  V30 6142 H 578.312 -1.92314 -3.41354 0
M  V30 6143 H 580.009 -2.29412 -3.28894 0
M  V30 6144 H 576.599 -3.48645 -2.49288 0
M  V30 6145 H 580.783 -4.43217 -2.23321 0
M  V30 6146 H 576.039 -5.80797 -1.91011 0
M  V30 6147 H 580.213 -6.76318 -1.66033 0
M  V30 6148 H 577.84 -7.45387 -1.4934 0
M  V30 6149 N 579.415 0.9433 -1.26252 0
M  V30 6150 C 580.64 1.72898 -1.14547 0
M  V30 6151 C 581.065 1.85761 0.295743 0
M  V30 6152 O 580.423 1.3463 1.21427 0
M  V30 6153 C 580.471 3.11471 -1.8171 0
M  V30 6154 O 579.575 3.97336 -1.10445 0
M  V30 6155 H 578.916 0.530555 -0.399259 0
M  V30 6156 H 581.446 1.18159 -1.67032 0
M  V30 6157 H 581.456 3.61872 -1.88449 0
M  V30 6158 H 580.131 3.01425 -2.86558 0
M  V30 6159 H 578.708 3.55788 -1.11666 0
M  V30 6160 N 580.893 1.08022 1.14757 0
M  V30 6161 C 581.823 0.728248 2.21853 0
M  V30 6162 C 582.804 -0.287486 1.67653 0
M  V30 6163 O 583.989 -0.158727 1.9355 0
M  V30 6164 C 581.119 0.132549 3.47047 0
M  V30 6165 C 580.073 1.07619 4.14249 0
M  V30 6166 C 579.399 0.342907 5.33599 0
M  V30 6167 C 580.699 2.41268 4.63235 0
M  V30 6168 H 582.393 1.62365 2.51551 0
M  V30 6169 H 579.939 0.782125 1.20908 0
M  V30 6170 H 581.892 -0.125665 4.21213 0
M  V30 6171 H 580.616 -0.797971 3.16702 0
M  V30 6172 H 579.275 1.31944 3.42033 0
M  V30 6173 H 578.923 -0.59129 4.99513 0
M  V30 6174 H 578.623 0.971955 5.79506 0
M  V30 6175 H 580.147 0.0926538 6.1053 0
M  V30 6176 H 581.561 2.21232 5.28894 0
M  V30 6177 H 579.958 2.9983 5.19829 0
M  V30 6178 H 581.028 3.03079 3.78512 0
M  V30 6179 N 582.371 -1.3172 0.865308 0
M  V30 6180 C 583.281 -2.32394 0.320935 0
M  V30 6181 C 584.297 -1.64511 -0.566746 0
M  V30 6182 O 585.473 -1.95969 -0.464575 0
M  V30 6183 C 582.538 -3.43462 -0.472701 0
M  V30 6184 C 581.599 -4.27015 0.442385 0
M  V30 6185 C 580.832 -5.32779 -0.313469 0
M  V30 6186 O 581.055 -5.49158 -1.54214 0
M  V30 6187 O 579.989 -6.01015 0.326257 0
M  V30 6188 H 583.815 -2.80868 1.15528 0
M  V30 6189 H 581.4 -1.35535 0.628545 0
M  V30 6190 H 583.282 -4.11172 -0.922781 0
M  V30 6191 H 581.957 -2.97159 -1.28367 0
M  V30 6192 H 580.864 -3.62075 0.940866 0
M  V30 6193 H 582.197 -4.76871 1.21882 0
M  V30 6194 N 583.85 -0.624285 -1.44708 0
M  V30 6195 C 584.782 0.12305 -2.28869 0
M  V30 6196 C 585.795 0.81557 -1.40898 0
M  V30 6197 O 586.984 0.678162 -1.65116 0
M  V30 6198 C 584.084 1.19612 -3.1709 0
M  V30 6199 C 583.257 0.587452 -4.33437 0
M  V30 6200 C 582.316 1.55358 -5.02743 0
M  V30 6201 O 581.341 1.07338 -5.58988 0
M  V30 6202 N 582.543 2.88798 -5.03563 0
M  V30 6203 H 585.308 -0.599193 -2.93649 0
M  V30 6204 H 582.87 -0.464954 -1.5508 0
M  V30 6205 H 584.861 1.84261 -3.60319 0
M  V30 6206 H 583.432 1.82067 -2.54107 0
M  V30 6207 H 582.652 -0.237509 -3.93484 0
M  V30 6208 H 583.94 0.161326 -5.08544 0
M  V30 6209 H 583.338 3.30399 -4.59188 0
M  V30 6210 H 581.894 3.48826 -5.50603 0
M  V30 6211 N 585.328 1.53329 -0.364422 0
M  V30 6212 C 586.26 2.23286 0.517293 0
M  V30 6213 C 587.273 1.24657 1.04711 0
M  V30 6214 O 588.462 1.50887 0.95369 0
M  V30 6215 C 585.562 2.91604 1.72685 0
M  V30 6216 C 584.735 4.1673 1.32873 0
M  V30 6217 C 583.794 4.68269 2.40022 0
M  V30 6218 O 582.82 5.31976 2.02461 0
M  V30 6219 N 584.022 4.45983 3.7159 0
M  V30 6220 H 586.787 2.99588 -0.0819391 0
M  V30 6221 H 584.348 1.60787 -0.189544 0
M  V30 6222 H 586.34 3.22992 2.4384 0
M  V30 6223 H 584.91 2.18763 2.23297 0
M  V30 6224 H 584.13 3.91657 0.447069 0
M  V30 6225 H 585.418 4.98078 1.03902 0
M  V30 6226 H 584.816 3.95077 4.04883 0
M  V30 6227 H 583.373 4.81924 4.38854 0
M  V30 6228 N 586.806 0.0935595 1.57322 0
M  V30 6229 C 587.736 -0.863062 2.16964 0
M  V30 6230 C 588.717 -1.29528 1.10256 0
M  V30 6231 O 589.902 -1.36245 1.38387 0
M  V30 6232 C 587.032 -2.12276 2.74875 0
M  V30 6233 C 585.986 -1.82921 3.86942 0
M  V30 6234 C 585.312 -3.15707 4.31548 0
M  V30 6235 C 586.612 -1.11737 5.10208 0
M  V30 6236 H 588.306 -0.366145 2.97153 0
M  V30 6237 H 585.852 -0.174673 1.42937 0
M  V30 6238 H 587.805 -2.79634 3.1525 0
M  V30 6239 H 586.529 -2.64248 1.91938 0
M  V30 6240 H 585.188 -1.17961 3.47103 0
M  V30 6241 H 584.836 -3.65563 3.45504 0
M  V30 6242 H 584.536 -2.96849 5.07104 0
M  V30 6243 H 586.06 -3.84226 4.74555 0
M  V30 6244 H 587.474 -1.69203 5.47762 0
M  V30 6245 H 585.871 -1.03064 5.91183 0
M  V30 6246 H 586.941 -0.0998818 4.84797 0
M  V30 6247 N 588.284 -1.56567 -0.180126 0
M  V30 6248 C 589.561 -1.7235 -0.924931 0
M  V30 6249 C 589.941 -0.652523 -2.00762 0
M  V30 6250 O 589.289 0.334115 -2.26044 0
M  V30 6251 C 589.499 -3.1523 -1.49771 0
M  V30 6252 C 590.847 -3.75921 -1.97405 0
M  V30 6253 O 591.871 -3.18452 -1.59583 0
M  V30 6254 O 590.73 -4.7681 -2.67048 0
M  V30 6255 H 587.824 -0.703502 -0.434758 0
M  V30 6256 H 590.37 -1.6886 -0.168647 0
M  V30 6257 H 589.142 -3.84656 -0.718027 0
M  V30 6258 H 588.765 -3.23009 -2.31842 0
M  V30 6259 N 589.762 0.448376 -1.51087 0
M  V30 6260 C 591.039 1.20926 -1.53741 0
M  V30 6261 C 591.419 2.09025 -0.295222 0
M  V30 6262 O 590.767 2.16851 0.720283 0
M  V30 6263 C 590.977 2.02067 -2.84552 0
M  V30 6264 C 592.325 2.59486 -3.36084 0
M  V30 6265 O 593.349 2.12289 -2.86028 0
M  V30 6266 O 592.208 3.45539 -4.23397 0
M  V30 6267 H 589.302 0.549951 -0.617643 0
M  V30 6268 H 591.848 0.458344 -1.63393 0
M  V30 6269 H 590.62 1.37291 -3.66425 0
M  V30 6270 H 590.243 2.84246 -2.78011 0
M  V30 6271 N 591.24 1.41047 0.703093 0
M  V30 6272 C 592.15 1.44645 1.84703 0
M  V30 6273 C 593.166 0.337778 1.7069 0
M  V30 6274 O 594.342 0.584327 1.92737 0
M  V30 6275 C 591.407 1.31928 3.20618 0
M  V30 6276 C 590.468 2.53047 3.46794 0
M  V30 6277 C 589.701 2.40927 4.76224 0
M  V30 6278 O 589.924 1.42978 5.5219 0
M  V30 6279 O 588.858 3.30543 5.03016 0
M  V30 6280 H 592.684 2.41139 1.84624 0
M  V30 6281 H 590.269 1.22504 0.855167 0
M  V30 6282 H 592.151 1.27092 4.01778 0
M  V30 6283 H 590.826 0.385469 3.21397 0
M  V30 6284 H 589.733 2.6346 2.65593 0
M  V30 6285 H 591.066 3.45231 3.50822 0
M  V30 6286 N 592.718 -0.936591 1.26751 0
M  V30 6287 C 593.995 -1.66094 1.03306 0
M  V30 6288 C 594.375 -2.06568 -0.435058 0
M  V30 6289 O 593.723 -1.79305 -1.41641 0
M  V30 6290 C 593.933 -2.86969 1.98619 0
M  V30 6291 C 595.281 -3.58516 2.27489 0
M  V30 6292 O 596.305 -2.97082 1.96522 0
M  V30 6293 O 595.164 -4.69181 2.80235 0
M  V30 6294 H 592.258 -0.727568 0.393158 0
M  V30 6295 H 594.804 -0.987914 1.3798 0
M  V30 6296 H 593.576 -2.53985 2.9767 0
M  V30 6297 H 593.199 -3.61996 1.64454 0
M  V30 6298 N 594.196 -1.08629 -1.14182 0
M  V30 6299 C 595.473 -0.73002 -1.81466 0
M  V30 6300 C 595.853 0.785996 -1.95922 0
M  V30 6301 O 595.201 1.70535 -1.52086 0
M  V30 6302 C 595.411 -1.45957 -3.17014 0
M  V30 6303 C 596.759 -1.62008 -3.92477 0
M  V30 6304 O 597.783 -1.42141 -3.26611 0
M  V30 6305 O 596.642 -1.94806 -5.106 0
M  V30 6306 H 593.736 -0.261307 -0.784632 0
M  V30 6307 H 596.282 -1.188 -1.2118 0
M  V30 6308 H 595.054 -2.49221 -3.01669 0
M  V30 6309 H 594.677 -0.993222 -3.84995 0
M  V30 6310 N 595.674 1.31259 -0.872281 0
M  V30 6311 C 596.951 1.91362 -0.404943 0
M  V30 6312 C 597.331 1.79362 1.11321 0
M  V30 6313 O 596.679 1.20277 1.94283 0
M  V30 6314 C 596.889 3.3749 -0.888893 0
M  V30 6315 C 598.237 4.14593 -0.916384 0
M  V30 6316 O 599.261 3.46282 -0.834701 0
M  V30 6317 O 598.12 5.3661 -1.03498 0
M  V30 6318 H 595.214 0.818016 -0.121569 0
M  V30 6319 H 597.76 1.39912 -0.960346 0
M  V30 6320 H 596.532 3.40249 -1.93251 0
M  V30 6321 H 596.155 3.96375 -0.311932 0
M  V30 6322 N 597.152 0.631951 1.44375 0
M  V30 6323 C 598.062 -0.073674 2.34484 0
M  V30 6324 C 599.078 -0.834825 1.52665 0
M  V30 6325 O 600.254 -0.786902 1.85391 0
M  V30 6326 C 597.319 -1.04247 3.30656 0
M  V30 6327 C 596.38 -0.280602 4.28382 0
M  V30 6328 C 595.613 -1.20325 5.19959 0
M  V30 6329 O 595.836 -2.44199 5.15484 0
M  V30 6330 O 594.77 -0.687128 5.97965 0
M  V30 6331 H 598.596 0.667477 2.96274 0
M  V30 6332 H 596.181 0.392144 1.44162 0
M  V30 6333 H 598.063 -1.59981 3.89851 0
M  V30 6334 H 596.738 -1.76422 2.71398 0
M  V30 6335 H 595.645 0.319804 3.72731 0
M  V30 6336 H 596.978 0.401144 4.90563 0
M  V30 6337 N 598.631 -1.53133 0.372548 0
M  V30 6338 C 599.541 -2.29671 -0.478379 0
M  V30 6339 C 600.557 -1.35913 -1.08644 0
M  V30 6340 O 601.733 -1.68975 -1.09588 0
M  V30 6341 C 598.798 -3.07625 -1.599 0
M  V30 6342 C 597.859 -4.17061 -1.01776 0
M  V30 6343 C 597.092 -4.91289 -2.08497 0
M  V30 6344 O 597.315 -4.65442 -3.29727 0
M  V30 6345 O 596.249 -5.7705 -1.71164 0
M  V30 6346 H 600.075 -3.03355 0.144649 0
M  V30 6347 H 597.66 -1.48773 0.136729 0
M  V30 6348 H 599.542 -3.56281 -2.25038 0
M  V30 6349 H 598.217 -2.3677 -2.2073 0
M  V30 6350 H 597.124 -3.72641 -0.330098 0
M  V30 6351 H 598.457 -4.90102 -0.453915 0
M  V30 6352 N 600.109 -0.101901 -1.5727 0
M  V30 6353 C 601.386 0.602832 -1.86079 0
M  V30 6354 C 601.766 1.85912 -1 0
M  V30 6355 O 601.114 2.28379 -0.0742488 0
M  V30 6356 C 601.324 0.911694 -3.36881 0
M  V30 6357 C 602.672 1.2722 -4.05093 0
M  V30 6358 O 603.696 1.0025 -3.41802 0
M  V30 6359 O 602.555 1.7776 -5.16782 0
M  V30 6360 H 599.649 0.302366 -0.769743 0
M  V30 6361 H 602.195 -0.135113 -1.69161 0
M  V30 6362 H 600.967 0.0207256 -3.91295 0
M  V30 6363 H 600.59 1.70538 -3.59169 0
M  V30 6364 N 601.587 1.56661 0.17182 0
M  V30 6365 C 602.827 1.83762 0.895029 0
M  V30 6366 C 603.191 0.682752 1.79451 0
M  V30 6367 O 604.392 0.834208 2.55528 0
M  V30 6368 C 602.663 3.15976 1.67015 0
M  V30 6369 S 604.222 3.64558 2.44219 0
M  V30 6370 H 601.04 0.644713 0.299778 0
M  V30 6371 H 603.642 1.94871 0.156701 0
M  V30 6372 H 602.346 3.98021 1.00039 0
M  V30 6373 H 601.877 3.07807 2.44986 0
M  V30 6374 H 603.892 3.31845 3.68909 0
M  V30 6375 N 603.065 -0.440357 1.51323 0
M  V30 6376 C 604.476 -1.02032 1.56353 0
M  V30 6377 C 604.827 -1.92382 0.385197 0
M  V30 6378 O 603.952 -2.10583 -0.498373 0
M  V30 6379 C 604.547 -1.85723 2.83359 0
M  V30 6380 C 603.106 -2.38774 2.90971 0
M  V30 6381 C 602.253 -1.17908 2.50984 0
M  V30 6382 H 605.204 -0.221744 1.57143 0
M  V30 6383 H 605.225 -2.71141 2.66951 0
M  V30 6384 H 604.737 -1.19939 3.69102 0
M  V30 6385 H 602.838 -3.08021 2.09651 0
M  V30 6386 H 602.951 -2.71778 3.94555 0
M  V30 6387 H 601.315 -1.52347 2.04114 0
M  V30 6388 H 602.098 -0.537393 3.39068 0
M  V30 6389 N 604.543 -1.41418 -0.695603 0
M  V30 6390 C 605.491 -1.43467 -1.83084 0
M  V30 6391 C 606.485 -0.312719 -1.66489 0
M  V30 6392 O 607.691 -0.484744 -1.7335 0
M  V30 6393 H 604.066 -0.448891 -0.603325 0
M  V30 6394 H 606.037 -2.39144 -1.78473 0
M  V30 6395 C 604.786 -1.3337 -3.21104 0
M  V30 6396 H 604.109 -2.18989 -3.3449 0
M  V30 6397 H 605.549 -1.38865 -4.00615 0
M  V30 6398 C 604.008 -0.0460484 -3.36869 0
M  V30 6399 O 604.538 0.909258 -3.91274 0
M  V30 6400 N 602.744 0.0300222 -2.90584 0
M  V30 6401 H 602.291 -0.748129 -2.46497 0
M  V30 6402 H 602.249 0.890991 -3.01511 0
M  V30 6403 N 606.021 0.929856 -1.27246 0
M  V30 6404 C 607.432 1.49223 -1.12203 0
M  V30 6405 C 607.783 1.93989 0.293731 0
M  V30 6406 O 606.908 1.80978 1.18642 0
M  V30 6407 C 607.503 2.71198 -2.0307 0
M  V30 6408 C 606.062 3.23666 -1.92139 0
M  V30 6409 C 605.209 1.96409 -1.95752 0
M  V30 6410 H 608.16 0.744181 -1.4017 0
M  V30 6411 H 608.181 3.45905 -1.58524 0
M  V30 6412 H 607.693 2.38585 -3.06102 0
M  V30 6413 H 605.794 3.61042 -0.920834 0
M  V30 6414 H 605.907 3.90006 -2.78267 0
M  V30 6415 H 604.271 2.12806 -1.39949 0
M  V30 6416 H 605.054 1.66113 -3.00436 0
M  V30 6417 N 607.499 1.09233 1.13605 0
M  V30 6418 C 608.409 0.741939 2.22559 0
M  V30 6419 C 609.425 -0.255236 1.72118 0
M  V30 6420 O 610.601 -0.0970747 2.01166 0
M  V30 6421 C 607.666 0.165595 3.46304 0
M  V30 6422 C 606.727 1.21846 4.11645 0
M  V30 6423 C 605.96 0.669526 5.29484 0
M  V30 6424 O 606.183 -0.508228 5.68131 0
M  V30 6425 O 605.117 1.42361 5.84822 0
M  V30 6426 H 608.943 1.65107 2.54899 0
M  V30 6427 H 606.528 0.866584 1.21699 0
M  V30 6428 H 608.41 -0.152592 4.21124 0
M  V30 6429 H 607.085 -0.716573 3.15669 0
M  V30 6430 H 605.992 1.58931 3.38662 0
M  V30 6431 H 607.325 2.07321 4.46407 0
M  V30 6432 N 608.977 -1.30795 0.87923 0
M  V30 6433 C 609.887 -2.32041 0.345565 0
M  V30 6434 C 610.903 -1.65103 -0.549265 0
M  V30 6435 O 612.079 -1.9645 -0.443763 0
M  V30 6436 C 609.144 -3.43944 -0.436245 0
M  V30 6437 C 608.205 -4.26521 0.48765 0
M  V30 6438 C 607.438 -5.33081 -0.256943 0
M  V30 6439 O 607.661 -5.50762 -1.48381 0
M  V30 6440 O 606.595 -6.00635 0.389985 0
M  V30 6441 H 610.421 -2.79627 1.18501 0
M  V30 6442 H 608.006 -1.3486 0.642885 0
M  V30 6443 H 609.888 -4.12128 -0.879119 0
M  V30 6444 H 608.563 -2.98504 -1.25208 0
M  V30 6445 H 607.47 -3.61057 0.979216 0
M  V30 6446 H 608.803 -4.75551 1.26933 0
M  V30 6447 N 610.455 -0.639598 -1.44038 0
M  V30 6448 C 611.685 -0.154586 -2.06021 0
M  V30 6449 C 612.093 1.17951 -1.47933 0
M  V30 6450 O 611.436 1.73627 -0.59994 0
M  V30 6451 C 611.498 0.0255459 -3.59491 0
M  V30 6452 C 611.162 -1.2317 -4.40089 0
M  V30 6453 C 612.159 -2.15735 -4.73027 0
M  V30 6454 C 609.844 -1.46949 -4.80324 0
M  V30 6455 C 611.838 -3.30382 -5.45093 0
M  V30 6456 C 609.525 -2.61891 -5.52138 0
M  V30 6457 C 610.523 -3.53433 -5.84443 0
M  V30 6458 O 610.211 -4.6637 -6.54793 0
M  V30 6459 H 609.943 -0.0808543 -0.671147 0
M  V30 6460 H 612.497 -0.876541 -1.85758 0
M  V30 6461 H 610.727 0.802733 -3.78276 0
M  V30 6462 H 612.416 0.466184 -4.03214 0
M  V30 6463 H 613.182 -1.98602 -4.42473 0
M  V30 6464 H 609.061 -0.765815 -4.54595 0
M  V30 6465 H 612.605 -4.01856 -5.70226 0
M  V30 6466 H 608.502 -2.78964 -5.82108 0
M  V30 6467 H 609.27 -4.6546 -6.73267 0
M  V30 6468 N 611.933 1.52934 -0.380664 0
M  V30 6469 C 612.881 2.27727 0.47361 0
M  V30 6470 C 613.875 1.31288 1.0705 0
M  V30 6471 O 615.081 1.4886 1.01197 0
M  V30 6472 H 611.456 0.732189 0.171475 0
M  V30 6473 H 613.427 2.97864 -0.178785 0
M  V30 6474 C 612.176 3.0904 1.59341 0
M  V30 6475 H 611.499 3.831 1.14343 0
M  V30 6476 H 612.939 3.64527 2.16555 0
M  V30 6477 C 611.398 2.20813 2.54447 0
M  V30 6478 O 611.928 1.82907 3.57642 0
M  V30 6479 N 610.134 1.85145 2.23986 0
M  V30 6480 H 609.681 2.16169 1.40103 0
M  V30 6481 H 609.639 1.26402 2.87871 0
M  V30 6482 N 613.412 0.11024 1.57214 0
M  V30 6483 C 614.342 -0.840002 2.17867 0
M  V30 6484 C 615.323 -1.28352 1.11624 0
M  V30 6485 O 616.508 -1.3477 1.39824 0
M  V30 6486 C 613.638 -2.09349 2.77111 0
M  V30 6487 C 612.592 -1.78807 3.8886 0
M  V30 6488 C 611.918 -3.11112 4.34872 0
M  V30 6489 C 613.218 -1.0632 5.11364 0
M  V30 6490 H 614.912 -0.334608 2.97524 0
M  V30 6491 H 612.458 -0.159502 1.43114 0
M  V30 6492 H 614.411 -2.76275 3.18198 0
M  V30 6493 H 613.135 -2.62198 1.9473 0
M  V30 6494 H 611.794 -1.14273 3.48335 0
M  V30 6495 H 611.442 -3.61877 3.49362 0
M  V30 6496 H 611.142 -2.91453 5.10224 0
M  V30 6497 H 612.666 -3.79171 4.78604 0
M  V30 6498 H 614.08 -1.63383 5.49526 0
M  V30 6499 H 612.477 -0.967876 5.92243 0
M  V30 6500 H 613.547 -0.0484569 4.84876 0
M  V30 6501 N 614.89 -1.56749 -0.16351 0
M  V30 6502 C 616.167 -1.73321 -0.906599 0
M  V30 6503 C 616.547 -0.673779 -2.00059 0
M  V30 6504 O 615.895 0.310121 -2.26386 0
M  V30 6505 C 616.105 -3.168 -1.46419 0
M  V30 6506 C 617.453 -3.77993 -1.93407 0
M  V30 6507 O 618.477 -3.20127 -1.56196 0
M  V30 6508 O 617.336 -4.79615 -2.61976 0
M  V30 6509 H 614.43 -0.708073 -0.427272 0
M  V30 6510 H 616.976 -1.69029 -0.150727 0
M  V30 6511 H 615.748 -3.85396 -0.677189 0
M  V30 6512 H 615.371 -3.2545 -2.28403 0
M  V30 6513 N 616.368 0.432326 -1.51554 0
M  V30 6514 C 617.278 1.55023 -1.76082 0
M  V30 6515 C 618.294 1.61593 -0.645265 0
M  V30 6516 O 619.47 1.78742 -0.928086 0
M  V30 6517 C 616.535 2.90964 -1.88523 0
M  V30 6518 C 615.596 2.9447 -3.12388 0
M  V30 6519 C 614.829 4.23926 -3.24225 0
M  V30 6520 O 615.052 5.16576 -2.4188 0
M  V30 6521 O 613.986 4.33818 -4.17235 0
M  V30 6522 H 617.812 1.37238 -2.70923 0
M  V30 6523 H 615.397 0.615845 -1.36117 0
M  V30 6524 H 617.279 3.71633 -1.98662 0
M  V30 6525 H 615.954 3.08865 -0.9687 0
M  V30 6526 H 614.861 2.12737 -3.07723 0
M  V30 6527 H 616.194 2.81514 -4.03746 0
M  V30 6528 N 617.846 1.41785 0.688094 0
M  V30 6529 C 619.257 1.3701 1.26828 0
M  V30 6530 C 619.608 0.056835 1.96118 0
M  V30 6531 O 618.733 -0.84475 1.99231 0
M  V30 6532 C 619.328 2.48168 2.30648 0
M  V30 6533 C 617.887 2.46766 2.84224 0
M  V30 6534 C 617.034 2.27633 1.58361 0
M  V30 6535 H 619.985 1.51192 0.482351 0
M  V30 6536 H 620.006 2.17655 3.121 0
M  V30 6537 H 619.518 3.43735 1.80188 0
M  V30 6538 H 617.619 1.54978 3.3884 0
M  V30 6539 H 617.732 3.43342 3.34145 0
M  V30 6540 H 616.096 1.75648 1.84445 0
M  V30 6541 H 616.879 3.25238 1.09887 0
M  V30 6542 N 619.324 -0.923095 1.27737 0
M  V30 6543 C 620.272 -2.04567 1.10703 0
M  V30 6544 C 621.266 -1.69375 0.0288445 0
M  V30 6545 O 622.472 -1.79027 0.186913 0
M  V30 6546 H 618.847 -0.670109 0.34126 0
M  V30 6547 H 620.818 -2.1608 2.05796 0
M  V30 6548 C 619.567 -3.38934 0.775837 0
M  V30 6549 H 618.89 -3.66501 1.59741 0
M  V30 6550 H 620.33 -4.18239 0.696548 0
M  V30 6551 C 618.789 -3.32863 -0.520012 0
M  V30 6552 O 619.319 -3.70462 -1.55308 0
M  V30 6553 N 617.525 -2.85958 -0.51732 0
M  V30 6554 H 617.072 -2.55557 0.32379 0
M  V30 6555 H 617.03 -2.82279 -1.38441 0
M  V30 6556 N 620.802 -1.09834 -1.13024 0
M  V30 6557 C 621.765 -0.745058 -2.16752 0
M  V30 6558 C 622.765 0.227435 -1.59183 0
M  V30 6559 O 623.955 0.0050786 -1.74199 0
M  V30 6560 C 621.087 -0.102543 -3.40746 0
M  V30 6561 H 622.28 -1.66375 -2.49518 0
M  V30 6562 H 619.833 -0.898061 -1.27924 0
M  V30 6563 H 620.568 0.827177 -3.13573 0
M  V30 6564 H 620.353 -0.80235 -3.83803 0
M  V30 6565 H 621.843 0.129082 -4.174 0
M  V30 6566 N 622.28 1.30327 -0.886154 0
M  V30 6567 C 623.19 2.31854 -0.357866 0
M  V30 6568 C 624.206 1.65392 0.540502 0
M  V30 6569 O 625.382 1.96683 0.433339 0
M  V30 6570 C 622.447 3.44171 0.417999 0
M  V30 6571 C 621.508 4.26257 -0.510263 0
M  V30 6572 C 620.741 5.3321 0.228669 0
M  V30 6573 O 620.964 5.51542 1.45458 0
M  V30 6574 O 619.898 6.0042 -0.421832 0
M  V30 6575 H 623.724 2.78995 -1.19982 0
M  V30 6576 H 621.309 1.34518 -0.650028 0
M  V30 6577 H 623.191 4.12588 0.857251 0
M  V30 6578 H 621.866 2.99164 1.23623 0
M  V30 6579 H 620.773 3.60533 -0.99835 0
M  V30 6580 H 622.106 4.74871 -1.29454 0
M  V30 6581 N 623.758 0.647228 1.43697 0
M  V30 6582 C 624.983 0.164083 2.0675 0
M  V30 6583 C 625.408 -1.15892 1.48158 0
M  V30 6584 O 624.766 -1.71459 0.589194 0
M  V30 6585 C 624.814 0.0800368 3.60511 0
M  V30 6586 O 623.918 -0.959453 4.01084 0
M  V30 6587 H 623.259 0.0921288 0.657578 0
M  V30 6588 H 625.789 0.88846 1.84303 0
M  V30 6589 H 625.799 -0.105263 4.07864 0
M  V30 6590 H 624.474 1.04586 4.02535 0
M  V30 6591 H 623.051 -0.747425 3.65333 0
M  V30 6592 N 625.236 -1.5273 0.388769 0
M  V30 6593 C 626.513 -1.93981 -0.251133 0
M  V30 6594 C 626.893 -1.32418 -1.64404 0
M  V30 6595 O 626.241 -0.492074 -2.23139 0
M  V30 6596 C 626.451 -3.47891 -0.27802 0
M  V30 6597 C 627.799 -4.21559 -0.507229 0
M  V30 6598 O 628.823 -3.54394 -0.358252 0
M  V30 6599 O 627.682 -5.40626 -0.799094 0
M  V30 6600 H 624.776 -0.812157 -0.15598 0
M  V30 6601 H 627.322 -1.63809 0.443237 0
M  V30 6602 H 626.094 -3.8503 0.697669 0
M  V30 6603 H 625.717 -3.84364 -1.01733 0
M  V30 6604 N 626.714 -0.118576 -1.57153 0
M  V30 6605 C 627.944 0.546466 -1.99242 0
M  V30 6606 C 628.352 1.60791 -0.997148 0
M  V30 6607 O 627.695 1.83691 0.0181745 0
M  V30 6608 C 627.757 1.23167 -3.37743 0
M  V30 6609 C 627.421 0.318226 -4.55891 0
M  V30 6610 C 628.418 -0.442988 -5.18009 0
M  V30 6611 C 626.103 0.229421 -5.01776 0
M  V30 6612 C 628.097 -1.28074 -6.244 0
M  V30 6613 C 625.784 -0.611966 -6.08028 0
M  V30 6614 C 626.782 -1.36568 -6.69207 0
M  V30 6615 O 626.47 -2.1931 -7.73407 0
M  V30 6616 H 626.202 0.149297 -0.659307 0
M  V30 6617 H 628.756 -0.201603 -2.04408 0
M  V30 6618 H 626.986 2.0268 -3.29329 0
M  V30 6619 H 628.675 1.79358 -3.64123 0
M  V30 6620 H 629.441 -0.38425 -4.83475 0
M  V30 6621 H 625.32 0.805771 -4.53903 0
M  V30 6622 H 628.864 -1.86952 -6.72082 0
M  V30 6623 H 624.761 -0.6721 -6.41991 0
M  V30 6624 H 625.529 -2.12247 -7.90502 0
M  V30 6625 N 628.193 1.56834 0.155195 0
M  V30 6626 C 629.421 1.87049 0.884326 0
M  V30 6627 C 629.836 0.705839 1.7511 0
M  V30 6628 O 629.193 -0.324641 1.79589 0
M  V30 6629 C 629.244 3.1644 1.74781 0
M  V30 6630 O 628.965 4.28417 0.915978 0
M  V30 6631 C 630.466 3.60113 2.58522 0
M  V30 6632 H 627.686 0.620196 0.25612 0
M  V30 6633 H 630.23 2.03946 0.150445 0
M  V30 6634 H 628.385 3.01321 2.43484 0
M  V30 6635 H 628.799 5.02353 1.50803 0
M  V30 6636 H 630.273 4.53508 3.14698 0
M  V30 6637 H 630.75 2.85005 3.34169 0
M  V30 6638 H 631.356 3.77898 1.95124 0
M  V30 6639 N 629.671 -0.424282 1.51781 0
M  V30 6640 C 630.901 -1.19297 1.68677 0
M  V30 6641 C 631.309 -1.85152 0.389258 0
M  V30 6642 O 630.652 -1.72067 -0.643311 0
M  V30 6643 C 630.714 -2.30929 2.75521 0
M  V30 6644 C 630.378 -1.85335 4.17732 0
M  V30 6645 C 631.375 -1.34951 5.0208 0
M  V30 6646 C 629.06 -1.92629 4.63896 0
M  V30 6647 C 631.054 -0.924636 6.30658 0
M  V30 6648 C 628.741 -1.49754 5.92467 0
M  V30 6649 C 629.739 -0.997543 6.75676 0
M  V30 6650 O 629.427 -0.57492 8.01842 0
M  V30 6651 H 629.159 -0.36512 0.568914 0
M  V30 6652 H 631.713 -0.507327 1.99036 0
M  V30 6653 H 629.943 -3.02811 2.40505 0
M  V30 6654 H 631.632 -2.92748 2.81165 0
M  V30 6655 H 632.398 -1.287 4.67612 0
M  V30 6656 H 628.277 -2.30491 3.99243 0
M  V30 6657 H 631.821 -0.533682 6.95556 0
M  V30 6658 H 627.718 -1.55679 6.26446 0
M  V30 6659 H 628.486 -0.699597 8.15505 0
M  V30 6660 N 631.149 -1.42148 -0.680565 0
M  V30 6661 C 632.374 -1.45901 -1.47403 0
M  V30 6662 C 632.799 -0.0700985 -1.87969 0
M  V30 6663 O 632.157 0.930145 -1.55621 0
M  V30 6664 C 632.205 -2.38661 -2.70321 0
M  V30 6665 O 631.309 -1.85399 -3.68376 0
M  V30 6666 H 630.65 -0.494565 -0.443059 0
M  V30 6667 H 633.18 -1.86774 -0.835251 0
M  V30 6668 H 633.19 -2.55046 -3.18458 0
M  V30 6669 H 631.865 -3.39571 -2.40134 0
M  V30 6670 H 630.442 -1.78541 -3.2738 0
M  V30 6671 N 632.627 0.916307 -1.28225 0
M  V30 6672 C 633.852 1.7043 -1.18188 0
M  V30 6673 C 634.277 1.86346 0.256274 0
M  V30 6674 O 633.635 1.37175 1.18544 0
M  V30 6675 C 633.683 3.07546 -1.88275 0
M  V30 6676 O 632.787 3.94904 -1.18848 0
M  V30 6677 H 632.128 0.521967 -0.410423 0
M  V30 6678 H 634.658 1.14589 -1.69501 0
M  V30 6679 H 634.668 3.57793 -1.96082 0
M  V30 6680 H 633.343 2.95279 -2.92887 0
M  V30 6681 H 631.92 3.53339 -1.19187 0
M  V30 6682 N 634.105 1.10431 1.1244 0
M  V30 6683 C 635.33 0.869089 1.88313 0
M  V30 6684 C 635.755 -0.574912 1.79099 0
M  V30 6685 O 635.113 -1.40496 1.14589 0
M  V30 6686 C 635.161 1.32208 3.3549 0
M  V30 6687 O 634.265 0.487092 4.09513 0
M  V30 6688 H 633.606 0.313894 0.585121 0
M  V30 6689 H 636.136 1.47111 1.42195 0
M  V30 6690 H 636.146 1.31201 3.86329 0
M  V30 6691 H 634.821 2.37364 3.41513 0
M  V30 6692 H 633.398 0.562372 3.68635 0
M  V30 6693 N 635.583 -1.29855 0.893053 0
M  V30 6694 C 636.813 -1.99686 0.530019 0
M  V30 6695 C 637.221 -1.67066 -0.888012 0
M  V30 6696 O 636.564 -0.908366 -1.5967 0
M  V30 6697 C 636.626 -3.53855 0.63457 0
M  V30 6698 C 636.29 -4.10013 2.01837 0
M  V30 6699 C 637.287 -4.25406 2.98874 0
M  V30 6700 C 634.972 -4.45202 2.32595 0
M  V30 6701 C 636.966 -4.7521 4.24799 0
M  V30 6702 C 634.653 -4.94704 3.58763 0
M  V30 6703 C 635.651 -5.09662 4.5468 0
M  V30 6704 O 635.339 -5.58093 5.78608 0
M  V30 6705 H 635.071 -0.644913 0.20264 0
M  V30 6706 H 637.625 -1.66518 1.20253 0
M  V30 6707 H 635.855 -3.86583 -0.0949477 0
M  V30 6708 H 637.544 -4.04922 0.281648 0
M  V30 6709 H 638.31 -3.98515 2.76425 0
M  V30 6710 H 634.189 -4.32822 1.58701 0
M  V30 6711 H 637.733 -4.86801 4.99671 0
M  V30 6712 H 633.63 -5.21032 3.81046 0
M  V30 6713 H 634.398 -5.7642 5.81104 0
M  V30 6714 N 637.061 -0.65484 -1.43351 0
M  V30 6715 C 637.971 0.0363603 -2.34572 0
M  V30 6716 C 638.987 0.810432 -1.53974 0
M  V30 6717 O 640.163 0.757308 -1.86619 0
M  V30 6718 C 637.228 0.989733 -3.32273 0
M  V30 6719 C 636.289 0.212414 -4.28774 0
M  V30 6720 C 635.522 1.12038 -5.21808 0
M  V30 6721 O 635.745 2.35967 -5.19303 0
M  V30 6722 O 634.679 0.59191 -5.98982 0
M  V30 6723 H 638.505 -0.714527 -2.95175 0
M  V30 6724 H 636.09 -0.415029 -1.4352 0
M  V30 6725 H 637.972 1.53759 -3.92347 0
M  V30 6726 H 636.647 1.72082 -2.74171 0
M  V30 6727 H 635.554 -0.379062 -3.72175 0
M  V30 6728 H 636.887 -0.479138 -4.89862 0
M  V30 6729 N 638.539 1.52521 -0.396863 0
M  V30 6730 C 639.471 2.24333 0.469814 0
M  V30 6731 C 640.484 1.2685 1.02043 0
M  V30 6732 O 641.673 1.52876 0.92147 0
M  V30 6733 C 638.773 2.95202 1.66461 0
M  V30 6734 C 637.946 4.19454 1.24003 0
M  V30 6735 C 637.005 4.73255 2.30036 0
M  V30 6736 O 636.031 5.36151 1.91131 0
M  V30 6737 N 637.233 4.53765 3.62047 0
M  V30 6738 H 639.998 2.99347 -0.145468 0
M  V30 6739 H 637.559 1.60348 -0.223606 0
M  V30 6740 H 639.551 3.28092 2.36934 0
M  V30 6741 H 638.121 2.2345 2.18607 0
M  V30 6742 H 637.341 3.92517 0.363892 0
M  V30 6743 H 638.629 5.0017 0.933135 0
M  V30 6744 H 638.027 4.03576 3.96412 0
M  V30 6745 H 636.584 4.91124 4.28533 0
M  V30 6746 N 640.017 0.126909 1.57088 0
M  V30 6747 C 641.264 -0.529168 1.95464 0
M  V30 6748 C 641.592 -1.6618 1.01067 0
M  V30 6749 O 640.847 -1.95667 0.0360254 0
M  V30 6750 C 641.146 -1.095 3.40212 0
M  V30 6751 C 640.812 -0.0829015 4.50824 0
M  V30 6752 C 639.474 0.195377 4.80803 0
M  V30 6753 C 641.826 0.606411 5.1766 0
M  V30 6754 C 639.154 1.16912 5.74933 0
M  V30 6755 C 641.506 1.56884 6.12838 0
M  V30 6756 C 640.17 1.85502 6.41206 0
M  V30 6757 H 639.44 -0.193636 0.715252 0
M  V30 6758 H 642.087 0.209489 1.90351 0
M  V30 6759 H 640.392 -1.91058 3.42059 0
M  V30 6760 H 642.089 -1.61087 3.67222 0
M  V30 6761 H 638.679 -0.309979 4.27478 0
M  V30 6762 H 642.863 0.404597 4.94648 0
M  V30 6763 H 638.119 1.3975 5.95214 0
M  V30 6764 H 642.293 2.10859 6.6371 0
M  V30 6765 H 639.92 2.61109 7.13951 0
M  V30 6766 N 641.495 -1.56914 -0.146875 0
M  V30 6767 C 642.443 -1.99224 -1.20053 0
M  V30 6768 C 643.437 -0.884661 -1.44465 0
M  V30 6769 O 644.643 -1.06984 -1.44756 0
M  V30 6770 H 641.018 -0.634191 -0.404112 0
M  V30 6771 H 642.989 -2.86998 -0.816987 0
M  V30 6772 C 641.738 -2.38899 -2.52632 0
M  V30 6773 H 641.061 -3.23677 -2.34677 0
M  V30 6774 H 642.501 -2.72326 -3.24984 0
M  V30 6775 C 640.96 -1.2417 -3.13183 0
M  V30 6776 O 641.49 -0.542503 -3.9802 0
M  V30 6777 N 639.696 -1.00592 -2.72635 0
M  V30 6778 H 639.243 -1.57627 -2.03744 0
M  V30 6779 H 639.201 -0.240174 -3.13481 0
M  V30 6780 N 642.974 0.416227 -1.52004 0
M  V30 6781 C 644.222 1.16153 -1.65387 0
M  V30 6782 C 644.543 1.91208 -0.382669 0
M  V30 6783 O 643.813 1.86413 0.602231 0
M  V30 6784 H 642.393 0.431765 -0.60958 0
M  V30 6785 H 645.055 0.475151 -1.89019 0
M  V30 6786 H 644.151 1.87952 -2.4916 0
M  V30 6787 N 644.452 1.42507 0.673017 0
M  V30 6788 C 645.362 1.4853 1.81593 0
M  V30 6789 C 646.378 0.373907 1.69935 0
M  V30 6790 O 647.554 0.625078 1.91454 0
M  V30 6791 C 644.619 1.387 3.17747 0
M  V30 6792 C 643.68 2.60346 3.41348 0
M  V30 6793 C 642.913 2.50975 4.71007 0
M  V30 6794 O 643.136 1.54659 5.49033 0
M  V30 6795 O 642.07 3.41138 4.95892 0
M  V30 6796 H 645.896 2.45001 1.79467 0
M  V30 6797 H 643.481 1.2429 0.82899 0
M  V30 6798 H 645.363 1.35586 3.98992 0
M  V30 6799 H 644.038 0.453555 3.20507 0
M  V30 6800 H 642.945 2.69034 2.59945 0
M  V30 6801 H 644.278 3.52595 3.43421 0
M  V30 6802 N 645.93 -0.909495 1.28709 0
M  V30 6803 C 646.86 -2.0291 1.15542 0
M  V30 6804 C 647.841 -1.7002 0.0521017 0
M  V30 6805 O 649.026 -1.92835 0.229849 0
M  V30 6806 C 646.156 -3.37458 0.820935 0
M  V30 6807 C 645.11 -3.84524 1.87949 0
M  V30 6808 C 644.436 -5.16086 1.39854 0
M  V30 6809 C 645.736 -4.05918 3.28676 0
M  V30 6810 H 647.43 -2.14183 2.09203 0
M  V30 6811 H 644.976 -1.02913 1.00722 0
M  V30 6812 H 646.929 -4.1528 0.715571 0
M  V30 6813 H 645.653 -3.26249 -0.151374 0
M  V30 6814 H 644.312 -3.08911 1.97408 0
M  V30 6815 H 643.96 -5.01284 0.41518 0
M  V30 6816 H 643.66 -5.48547 2.1064 0
M  V30 6817 H 645.184 -5.96459 1.30649 0
M  V30 6818 H 646.598 -4.74252 3.22115 0
M  V30 6819 H 644.995 -4.49717 3.97334 0
M  V30 6820 H 646.065 -3.10583 3.72379 0
M  V30 6821 N 647.408 -1.11026 -1.11852 0
M  V30 6822 C 648.819 -0.873203 -1.65021 0
M  V30 6823 C 649.17 0.595364 -1.86949 0
M  V30 6824 O 648.295 1.45645 -1.60051 0
M  V30 6825 C 648.89 -1.57859 -2.99777 0
M  V30 6826 C 647.449 -1.38807 -3.49871 0
M  V30 6827 C 646.596 -1.62403 -2.24768 0
M  V30 6828 H 649.547 -1.26712 -0.955503 0
M  V30 6829 H 649.568 -1.02111 -3.66543 0
M  V30 6830 H 649.08 -2.6474 -2.83786 0
M  V30 6831 H 647.181 -0.341163 -3.71035 0
M  V30 6832 H 647.294 -2.13421 -4.28938 0
M  V30 6833 H 645.658 -1.04714 -2.32179 0
M  V30 6834 H 646.441 -2.70549 -2.11324 0
M  V30 6835 N 648.886 1.2938 -0.899927 0
M  V30 6836 C 649.834 2.29675 -0.367698 0
M  V30 6837 C 650.828 1.60787 0.533282 0
M  V30 6838 O 652.034 1.75126 0.416058 0
M  V30 6839 H 648.409 0.745284 -0.100279 0
M  V30 6840 H 650.38 2.72008 -1.22696 0
M  V30 6841 C 649.129 3.45512 0.389483 0
M  V30 6842 H 648.452 3.98713 -0.294575 0
M  V30 6843 H 649.892 4.17725 0.726744 0
M  V30 6844 C 648.351 2.969 1.59223 0
M  V30 6845 O 648.881 2.98195 2.69152 0
M  V30 6846 N 647.087 2.52728 1.43447 0
M  V30 6847 H 646.634 2.51873 0.540148 0
M  V30 6848 H 646.592 2.20561 2.24054 0
M  V30 6849 N 650.364 0.662433 1.43002 0
M  V30 6850 C 651.612 0.179237 2.01304 0
M  V30 6851 C 651.933 -1.21428 1.52579 0
M  V30 6852 O 651.203 -1.81294 0.742252 0
M  V30 6853 H 649.783 0.0632725 0.744316 0
M  V30 6854 H 652.445 0.856169 1.75088 0
M  V30 6855 H 651.541 0.170957 3.11631 0
M  V30 6856 N 651.842 -1.52309 0.404946 0
M  V30 6857 C 653.258 -1.59503 0.0556255 0
M  V30 6858 C 653.458 -1.41805 -1.43156 0
M  V30 6859 O 652.514 -1.2429 -2.19792 0
M  V30 6860 C 653.827 -2.95687 0.546801 0
M  V30 6861 C 655.375 -3.08909 0.504413 0
M  V30 6862 C 655.85 -4.47566 0.97203 0
M  V30 6863 N 657.341 -4.53795 0.928679 0
M  V30 6864 C 658.076 -5.59346 1.26174 0
M  V30 6865 N 657.572 -6.72469 1.66604 0
M  V30 6866 N 659.365 -5.49532 1.18198 0
M  V30 6867 H 651.516 -1.6206 1.37296 0
M  V30 6868 H 653.779 -0.762161 0.563751 0
M  V30 6869 H 653.485 -3.13905 1.58609 0
M  V30 6870 H 653.359 -3.77172 -0.0457905 0
M  V30 6871 H 655.746 -2.90378 -0.525819 0
M  V30 6872 H 655.827 -2.2934 1.13301 0
M  V30 6873 H 655.471 -4.6684 2.00057 0
M  V30 6874 H 655.401 -5.25625 0.320292 0
M  V30 6875 H 657.892 -3.72588 0.631369 0
M  V30 6876 H 658.205 -7.48993 1.9034 0
M  V30 6877 H 656.55 -6.73761 1.70504 0
M  V30 6878 H 659.741 -4.60038 0.865011 0
M  V30 6879 H 659.914 -6.31687 1.44485 0
M  V30 6880 N 653.32 -0.135238 -1.57019 0
M  V30 6881 C 654.27 0.820408 -2.12728 0
M  V30 6882 C 655.254 1.21735 -1.05211 0
M  V30 6883 O 656.446 1.18574 -1.31413 0
M  V30 6884 C 653.575 2.06414 -2.74314 0
M  V30 6885 C 652.661 1.69083 -3.88937 0
M  V30 6886 N 653.052 1.0251 -4.95303 0
M  V30 6887 C 651.35 1.98434 -3.99425 0
M  V30 6888 C 652.051 0.846749 -5.75504 0
M  V30 6889 N 651.027 1.3769 -5.25873 0
M  V30 6890 H 654.829 0.302426 -2.9234 0
M  V30 6891 H 652.343 0.0667009 -1.62263 0
M  V30 6892 H 654.34 2.75863 -3.12579 0
M  V30 6893 H 653 2.58741 -1.96171 0
M  V30 6894 H 654.011 0.687207 -5.1332 0
M  V30 6895 H 650.688 2.52693 -3.32344 0
M  V30 6896 H 652.078 0.322949 -6.71123 0
M  V30 6897 N 654.798 1.5699 0.138552 0
M  V30 6898 C 655.745 1.98899 1.17081 0
M  V30 6899 C 656.715 0.857922 1.42228 0
M  V30 6900 O 657.9 1.12065 1.54422 0
M  V30 6901 C 655.04 2.38189 2.4972 0
M  V30 6902 C 654.153 3.64624 2.31674 0
M  V30 6903 C 653.288 3.9298 3.57407 0
M  V30 6904 C 652.327 5.1266 3.34435 0
M  V30 6905 N 651.464 5.36983 4.5232 0
M  V30 6906 H 656.304 2.86881 0.80642 0
M  V30 6907 H 653.841 1.41925 0.386727 0
M  V30 6908 H 655.799 2.59 3.2707 0
M  V30 6909 H 654.429 1.53275 2.84089 0
M  V30 6910 H 653.481 3.51542 1.45337 0
M  V30 6911 H 654.793 4.52131 2.10664 0
M  V30 6912 H 653.947 4.14335 4.43183 0
M  V30 6913 H 652.686 3.03912 3.8143 0
M  V30 6914 H 651.691 4.9117 2.47048 0
M  V30 6915 H 652.916 6.03288 3.11802 0
M  V30 6916 H 650.862 4.50871 4.76499 0
M  V30 6917 H 650.779 6.18775 4.34343 0
M  V30 6918 H 652.047 5.62842 5.39285 0
M  V30 6919 N 656.276 -0.40816 1.52223 0
M  V30 6920 C 657.525 -1.15212 1.65557 0
M  V30 6921 C 657.838 -1.9163 0.392096 0
M  V30 6922 O 659.044 -2.68458 0.405256 0
M  V30 6923 C 657.5 -2.09691 2.92502 0
M  V30 6924 C 657.108 -1.38785 4.25961 0
M  V30 6925 C 658.852 -2.8434 3.152 0
M  V30 6926 C 656.759 -2.31919 5.44029 0
M  V30 6927 H 655.689 -0.433776 0.616729 0
M  V30 6928 H 658.34 -0.4165 1.78711 0
M  V30 6929 H 656.722 -2.8681 2.7305 0
M  V30 6930 H 657.896 -0.670248 4.55899 0
M  V30 6931 H 656.211 -0.761741 4.09373 0
M  V30 6932 H 658.808 -3.54166 4.00587 0
M  V30 6933 H 659.151 -3.47344 2.29473 0
M  V30 6934 H 659.684 -2.14321 3.35129 0
M  V30 6935 H 656.423 -1.7356 6.32105 0
M  V30 6936 H 655.943 -3.0165 5.18428 0
M  V30 6937 H 657.622 -2.92424 5.77146 0
M  V30 6938 N 657.755 -1.42862 -0.66545 0
M  V30 6939 C 659.166 -1.3901 -1.24632 0
M  V30 6940 C 659.517 -0.0880285 -1.96002 0
M  V30 6941 O 658.642 0.812947 -2.0055 0
M  V30 6942 C 659.237 -2.51806 -2.2667 0
M  V30 6943 C 657.796 -2.51257 -2.80262 0
M  V30 6944 C 656.943 -2.30124 -1.5472 0
M  V30 6945 H 659.894 -1.5194 -0.458237 0
M  V30 6946 H 659.915 -2.22593 -3.08598 0
M  V30 6947 H 659.427 -3.46558 -1.74697 0
M  V30 6948 H 657.528 -1.60349 -3.36332 0
M  V30 6949 H 657.641 -3.48614 -3.28641 0
M  V30 6950 H 656.005 -1.7856 -1.81627 0
M  V30 6951 H 656.788 -3.26945 -1.04699 0
M  V30 6952 N 659.233 0.902656 -1.29189 0
M  V30 6953 C 660.143 2.03946 -1.15944 0
M  V30 6954 C 661.159 1.738 -0.0833803 0
M  V30 6955 O 662.335 1.9923 -0.29487 0
M  V30 6956 C 659.4 3.36519 -0.834006 0
M  V30 6957 C 658.461 3.80203 -1.9936 0
M  V30 6958 C 657.694 5.06449 -1.68359 0
M  V30 6959 O 657.917 5.67202 -0.603141 0
M  V30 6960 O 656.851 5.46114 -2.53067 0
M  V30 6961 H 660.677 2.18043 -2.11403 0
M  V30 6962 H 658.262 1.02584 -1.08613 0
M  V30 6963 H 660.144 4.16089 -0.666949 0
M  V30 6964 H 658.819 3.23573 0.0908245 0
M  V30 6965 H 657.726 3.01413 -2.21588 0
M  V30 6966 H 659.059 3.97729 -2.89952 0
M  V30 6967 N 660.711 1.11618 1.11262 0
M  V30 6968 C 661.936 0.889013 1.8738 0
M  V30 6969 C 662.361 -0.555884 1.79698 0
M  V30 6970 O 661.719 -1.39272 1.16073 0
M  V30 6971 C 661.767 1.35759 3.34069 0
M  V30 6972 O 660.871 0.530499 4.08974 0
M  V30 6973 H 660.212 0.320082 0.581759 0
M  V30 6974 H 662.742 1.48611 1.40627 0
M  V30 6975 H 662.752 1.35291 3.84916 0
M  V30 6976 H 661.427 2.40973 3.38976 0
M  V30 6977 H 660.004 0.601439 3.68018 0
M  V30 6978 N 662.189 -1.289 0.906776 0
M  V30 6979 C 663.121 -2.26556 0.347159 0
M  V30 6980 C 664.134 -1.54589 -0.51049 0
M  V30 6981 O 665.323 -1.75489 -0.326501 0
M  V30 6982 C 662.423 -3.3484 -0.523024 0
M  V30 6983 C 661.596 -4.36296 0.310515 0
M  V30 6984 C 660.655 -5.23879 -0.493634 0
M  V30 6985 O 659.681 -5.69127 0.0913569 0
M  V30 6986 N 660.883 -5.51946 -1.7982 0
M  V30 6987 H 663.648 -2.75212 1.18652 0
M  V30 6988 H 661.209 -1.42309 0.771996 0
M  V30 6989 H 663.201 -3.90366 -1.06756 0
M  V30 6990 H 661.771 -2.85946 -1.26309 0
M  V30 6991 H 660.991 -3.80331 1.03644 0
M  V30 6992 H 662.279 -5.01113 0.881106 0
M  V30 6993 H 661.677 -5.17006 -2.2961 0
M  V30 6994 H 660.234 -6.10258 -2.28971 0
M  V30 6995 N 663.667 -0.670007 -1.42649 0
M  V30 6996 C 664.914 -0.190286 -2.01604 0
M  V30 6997 C 665.242 1.20155 -1.52948 0
M  V30 6998 O 664.497 1.81964 -0.72026 0
M  V30 6999 C 664.796 -0.168298 -3.57004 0
M  V30 7000 C 664.462 -1.50415 -4.25072 0
M  V30 7001 C 663.124 -1.86992 -4.43382 0
M  V30 7002 C 665.476 -2.38414 -4.63474 0
M  V30 7003 C 662.804 -3.11203 -4.97363 0
M  V30 7004 C 665.156 -3.61933 -5.18833 0
M  V30 7005 C 663.82 -3.98685 -5.35356 0
M  V30 7006 H 663.09 -0.0696305 -0.737721 0
M  V30 7007 H 665.737 -0.864044 -1.70899 0
M  V30 7008 H 664.042 0.588958 -3.87348 0
M  V30 7009 H 665.739 0.22001 -4.00396 0
M  V30 7010 H 662.329 -1.20959 -4.11177 0
M  V30 7011 H 666.513 -2.11442 -4.49006 0
M  V30 7012 H 661.769 -3.39705 -5.08341 0
M  V30 7013 H 665.943 -4.30326 -5.47533 0
M  V30 7014 H 663.57 -4.95009 -5.76949 0
M  V30 7015 N 665.145 1.52092 -0.413018 0
M  V30 7016 C 666.556 1.86617 0.0556967 0
M  V30 7017 C 666.907 1.33156 1.44097 0
M  V30 7018 O 666.032 0.672417 2.05688 0
M  V30 7019 C 666.627 3.38628 0.107844 0
M  V30 7020 C 665.186 3.72778 0.520904 0
M  V30 7021 C 664.333 2.75649 -0.302109 0
M  V30 7022 H 667.284 1.45663 -0.629919 0
M  V30 7023 H 667.305 3.69152 0.922324 0
M  V30 7024 H 666.817 3.77508 -0.900506 0
M  V30 7025 H 664.918 3.39478 1.53575 0
M  V30 7026 H 665.031 4.7838 0.262591 0
M  V30 7027 H 663.395 2.53603 0.236115 0
M  V30 7028 H 664.178 3.17369 -1.30888 0
M  V30 7029 N 666.623 0.143563 1.56945 0
M  V30 7030 C 667.533 -0.810562 2.20152 0
M  V30 7031 C 668.549 -1.27431 1.1848 0
M  V30 7032 O 669.725 -1.33221 1.51044 0
M  V30 7033 C 666.79 -2.03353 2.80799 0
M  V30 7034 C 665.851 -1.61936 3.97587 0
M  V30 7035 C 665.084 -2.78403 4.55332 0
M  V30 7036 O 665.307 -3.94521 4.11958 0
M  V30 7037 O 664.241 -2.54073 5.45647 0
M  V30 7038 H 668.067 -0.30253 3.02189 0
M  V30 7039 H 665.652 -0.0832925 1.49168 0
M  V30 7040 H 667.534 -2.74932 3.19359 0
M  V30 7041 H 666.209 -2.53116 2.01777 0
M  V30 7042 H 665.116 -0.873904 3.6375 0
M  V30 7043 H 666.449 -1.16892 4.78118 0
M  V30 7044 N 668.101 -1.57061 -0.130224 0
M  V30 7045 C 669.348 -1.84257 -0.839972 0
M  V30 7046 C 669.676 -0.726986 -1.80403 0
M  V30 7047 O 668.931 0.282632 -1.93648 0
M  V30 7048 C 669.23 -3.17878 -1.63365 0
M  V30 7049 C 668.896 -4.43475 -0.814891 0
M  V30 7050 C 667.558 -4.77581 -0.589066 0
M  V30 7051 C 669.91 -5.20631 -0.243437 0
M  V30 7052 C 667.238 -5.86292 0.218648 0
M  V30 7053 C 669.59 -6.30192 0.551408 0
M  V30 7054 C 668.254 -6.62837 0.787653 0
M  V30 7055 H 667.524 -0.674245 -0.307367 0
M  V30 7056 H 670.171 -1.91224 -0.102832 0
M  V30 7057 H 668.476 -3.06437 -2.44138 0
M  V30 7058 H 670.173 -3.3614 -2.18658 0
M  V30 7059 H 666.763 -4.16747 -1.00098 0
M  V30 7060 H 670.947 -4.94644 -0.405145 0
M  V30 7061 H 666.203 -6.10017 0.411016 0
M  V30 7062 H 670.377 -6.89165 1.00126 0
M  V30 7063 H 668.004 -7.46908 1.41537 0
M  V30 7064 N 669.579 0.400081 -1.52437 0
M  V30 7065 C 670.804 1.17221 -1.71096 0
M  V30 7066 C 671.229 1.83269 -0.423565 0
M  V30 7067 O 670.587 1.70378 0.619751 0
M  V30 7068 C 670.635 2.20425 -2.85386 0
M  V30 7069 O 669.739 3.26769 -2.51586 0
M  V30 7070 H 669.08 0.341766 -0.569291 0
M  V30 7071 H 671.61 0.467772 -1.99181 0
M  V30 7072 H 671.62 2.64605 -3.10561 0
M  V30 7073 H 670.295 1.71737 -3.78786 0
M  V30 7074 H 668.872 2.87804 -2.37114 0
M  V30 7075 N 671.057 1.43213 0.657864 0
M  V30 7076 C 672.285 1.48015 1.44566 0
M  V30 7077 C 672.7 0.0965951 1.88553 0
M  V30 7078 O 672.057 -0.892221 1.59203 0
M  V30 7079 C 672.108 2.42199 2.68369 0
M  V30 7080 O 671.829 3.75173 2.26223 0
M  V30 7081 C 673.33 2.56195 3.61772 0
M  V30 7082 H 670.55 0.502861 0.444266 0
M  V30 7083 H 673.094 1.87907 0.806917 0
M  V30 7084 H 671.249 2.05514 3.28394 0
M  V30 7085 H 671.663 4.25776 3.06293 0
M  V30 7086 H 673.137 3.26182 4.4532 0
M  V30 7087 H 673.614 1.60534 4.0881 0
M  V30 7088 H 674.22 2.93671 3.07632 0
M  V30 7089 N 672.536 -0.895792 1.29666 0
M  V30 7090 C 673.761 -1.68528 1.20885 0
M  V30 7091 C 674.186 -1.8673 -0.226595 0
M  V30 7092 O 673.544 -1.39044 -1.16347 0
M  V30 7093 C 673.592 -3.04512 1.93144 0
M  V30 7094 O 672.696 -3.92963 1.25115 0
M  V30 7095 H 672.037 -0.515371 0.418675 0
M  V30 7096 H 674.567 -1.11878 1.71302 0
M  V30 7097 H 674.577 -3.54628 2.0175 0
M  V30 7098 H 673.252 -2.90582 2.97548 0
M  V30 7099 H 671.829 -3.51399 1.24794 0
M  V30 7100 N 674.014 -1.12206 -1.10668 0
M  V30 7101 C 674.944 -0.810086 -2.18997 0
M  V30 7102 C 675.925 0.225065 -1.68604 0
M  V30 7103 O 677.11 0.086783 -1.94006 0
M  V30 7104 C 674.24 -0.261262 -3.46316 0
M  V30 7105 C 673.194 -1.2292 -4.09969 0
M  V30 7106 C 672.52 -0.540713 -5.31959 0
M  V30 7107 C 673.82 -2.58295 -4.53962 0
M  V30 7108 H 675.514 -1.7159 -2.45352 0
M  V30 7109 H 673.06 -0.82646 -1.17922 0
M  V30 7110 H 675.013 -0.0307522 -4.21389 0
M  V30 7111 H 673.737 0.679879 -3.19445 0
M  V30 7112 H 672.396 -1.44548 -3.369 0
M  V30 7113 H 672.044 0.405492 -5.01363 0
M  V30 7114 H 671.744 -1.18637 -5.75499 0
M  V30 7115 H 673.268 -0.319184 -6.09765 0
M  V30 7116 H 674.682 -2.40709 -5.20319 0
M  V30 7117 H 673.079 -3.18916 -5.08343 0
M  V30 7118 H 674.149 -3.16918 -3.67002 0
M  V30 7119 N 675.492 1.28418 -0.913599 0
M  V30 7120 C 676.739 1.94981 -0.546674 0
M  V30 7121 C 677.067 1.7192 0.909606 0
M  V30 7122 O 676.322 1.03314 1.66207 0
M  V30 7123 C 676.621 3.48283 -0.802099 0
M  V30 7124 C 676.287 3.91444 -2.2379 0
M  V30 7125 C 674.949 4.02939 -2.63046 0
M  V30 7126 C 677.301 4.13542 -3.17227 0
M  V30 7127 C 674.629 4.3391 -3.94891 0
M  V30 7128 C 676.981 4.45992 -4.48636 0
M  V30 7129 C 675.645 4.55698 -4.87746 0
M  V30 7130 H 674.915 0.713487 -0.200042 0
M  V30 7131 H 677.562 1.52756 -1.15489 0
M  V30 7132 H 675.867 3.91643 -0.111076 0
M  V30 7133 H 677.564 3.97903 -0.497375 0
M  V30 7134 H 674.154 3.83024 -1.9233 0
M  V30 7135 H 678.338 4.04114 -2.88107 0
M  V30 7136 H 673.594 4.39631 -4.24894 0
M  V30 7137 H 677.768 4.62038 -5.21051 0
M  V30 7138 H 675.395 4.79451 -5.89942 0
M  V30 7139 N 676.97 0.677563 1.42291 0
M  V30 7140 C 678.195 0.207901 2.06355 0
M  V30 7141 C 678.62 -1.12723 1.50583 0
M  V30 7142 O 677.978 -1.70171 0.62543 0
M  V30 7143 C 678.026 0.156489 3.6026 0
M  V30 7144 O 677.13 -0.874162 4.03029 0
M  V30 7145 H 676.471 0.106056 0.655475 0
M  V30 7146 H 679.001 0.927354 1.82377 0
M  V30 7147 H 679.011 -0.0187258 4.07996 0
M  V30 7148 H 677.686 1.13101 4.00226 0
M  V30 7149 H 676.263 -0.669764 3.66836 0
M  V30 7150 N 678.448 -1.51871 0.421078 0
M  V30 7151 C 679.696 -2.01539 -0.150492 0
M  V30 7152 C 680.017 -1.30803 -1.44623 0
M  V30 7153 O 679.287 -0.437568 -1.90951 0
M  V30 7154 H 677.867 -0.744698 -0.0586041 0
M  V30 7155 H 680.529 -1.8668 0.560059 0
M  V30 7156 H 679.625 -3.10264 -0.338068 0
M  V30 7157 N 679.926 -0.151884 -1.56866 0
M  V30 7158 C 681.151 0.508044 -2.01081 0
M  V30 7159 C 681.576 1.57306 -1.03134 0
M  V30 7160 O 680.934 1.81298 -0.0078309 0
M  V30 7161 C 680.982 1.08106 -3.44014 0
M  V30 7162 O 680.086 2.19577 -3.49084 0
M  V30 7163 H 679.427 0.123757 -0.652365 0
M  V30 7164 H 681.957 -0.250055 -2.03066 0
M  V30 7165 H 681.967 1.40851 -3.82916 0
M  V30 7166 H 680.642 0.301168 -4.14808 0
M  V30 7167 H 679.219 1.88023 -3.22027 0
M  V30 7168 N 681.404 1.57128 0.121893 0
M  V30 7169 C 682.334 2.03165 1.15092 0
M  V30 7170 C 683.315 0.915587 1.43356 0
M  V30 7171 O 684.5 1.1851 1.53847 0
M  V30 7172 C 681.63 2.43352 2.47784 0
M  V30 7173 C 680.584 3.58376 2.33989 0
M  V30 7174 C 679.91 3.84454 3.71617 0
M  V30 7175 C 681.21 4.90199 1.80283 0
M  V30 7176 H 682.904 2.89382 0.768023 0
M  V30 7177 H 680.45 1.39218 0.367998 0
M  V30 7178 H 682.403 2.74163 3.20019 0
M  V30 7179 H 681.127 1.54103 2.87958 0
M  V30 7180 H 679.786 3.2777 1.64202 0
M  V30 7181 H 679.434 2.92414 4.09271 0
M  V30 7182 H 679.134 4.61877 3.6324 0
M  V30 7183 H 680.658 4.17714 4.45362 0
M  V30 7184 H 682.072 5.19565 2.42333 0
M  V30 7185 H 680.469 5.71601 1.82735 0
M  V30 7186 H 681.539 4.78904 0.760184 0
M  V30 7187 N 682.882 -0.391992 1.52647 0
M  V30 7188 C 683.792 -1.503 1.80131 0
M  V30 7189 C 684.808 -1.59825 0.687882 0
M  V30 7190 O 685.984 -1.76218 0.975149 0
M  V30 7191 C 683.049 -2.85863 1.96171 0
M  V30 7192 C 682.11 -2.86084 3.20085 0
M  V30 7193 C 681.343 -4.15181 3.35351 0
M  V30 7194 O 681.566 -5.09981 2.55491 0
M  V30 7195 O 680.5 -4.22603 4.28591 0
M  V30 7196 H 684.326 -1.30007 2.74466 0
M  V30 7197 H 681.911 -0.579539 1.37701 0
M  V30 7198 H 683.793 -3.66236 2.08445 0
M  V30 7199 H 682.468 -3.06189 1.05025 0
M  V30 7200 H 681.375 -2.04504 3.13256 0
M  V30 7201 H 682.708 -2.7071 4.11068 0
M  V30 7202 N 684.36 -1.4356 -0.65026 0
M  V30 7203 C 685.771 -1.40324 -1.2315 0
M  V30 7204 C 686.122 -0.108812 -1.95898 0
M  V30 7205 O 685.247 0.79163 -2.01401 0
M  V30 7206 C 685.842 -2.54195 -2.23987 0
M  V30 7207 C 684.401 -2.54215 -2.77582 0
M  V30 7208 C 683.548 -2.31752 -1.5227 0
M  V30 7209 H 686.499 -1.52418 -0.442095 0
M  V30 7210 H 686.52 -2.25854 -3.0622 0
M  V30 7211 H 686.032 -3.48392 -1.71011 0
M  V30 7212 H 684.133 -1.63907 -3.34612 0
M  V30 7213 H 684.246 -3.52081 -3.24925 0
M  V30 7214 H 682.61 -1.80476 -1.79723 0
M  V30 7215 H 683.393 -3.28037 -1.01225 0
M  V30 7216 N 685.838 0.888903 -1.30139 0
M  V30 7217 C 687.084 1.6428 -1.18912 0
M  V30 7218 C 687.417 1.92499 0.256477 0
M  V30 7219 O 686.692 1.54312 1.18397 0
M  V30 7220 C 686.975 2.9851 -2.01405 0
M  V30 7221 C 686.828 2.77288 -3.54163 0
M  V30 7222 C 688.147 3.99383 -1.84882 0
M  V30 7223 H 685.266 0.596148 -0.433333 0
M  V30 7224 H 687.908 1.0289 -1.5973 0
M  V30 7225 H 686.058 3.50907 -1.66722 0
M  V30 7226 H 687.73 2.31709 -3.98884 0
M  V30 7227 H 685.973 2.11867 -3.78543 0
M  V30 7228 H 686.644 3.72717 -4.07168 0
M  V30 7229 H 689.12 3.56132 -2.15196 0
M  V30 7230 H 687.996 4.91222 -2.44934 0
M  V30 7231 H 688.257 4.34674 -0.806902 0
M  V30 7232 N 687.317 1.12792 1.10072 0
M  V30 7233 C 688.28 0.802264 2.14701 0
M  V30 7234 C 689.28 -0.18515 1.59731 0
M  V30 7235 O 690.47 0.041109 1.74151 0
M  V30 7236 C 687.602 0.19285 3.40354 0
M  V30 7237 H 688.795 1.72932 2.45019 0
M  V30 7238 H 686.348 0.931662 1.25498 0
M  V30 7239 H 687.083 -0.743748 3.15656 0
M  V30 7240 H 686.868 0.903827 3.81541 0
M  V30 7241 H 688.358 -0.0183704 4.17596 0
M  V30 7242 N 688.795 -1.27931 0.920396 0
M  V30 7243 C 690.035 -1.96459 0.564198 0
M  V30 7244 C 690.399 -1.70802 -0.876967 0
M  V30 7245 O 691.6 -2.32956 -1.34107 0
M  V30 7246 C 689.871 -3.46583 0.872641 0
M  V30 7247 S 691.43 -4.34343 0.623859 0
M  V30 7248 H 688.248 -0.679735 0.208523 0
M  V30 7249 H 690.85 -1.55319 1.18727 0
M  V30 7250 H 689.554 -3.62753 1.91933 0
M  V30 7251 H 689.085 -3.92677 0.238479 0
M  V30 7252 H 691.1 -4.93449 -0.521744 0
M  V30 7253 N 690.273 -0.685099 -1.4193 0
M  V30 7254 C 691.521 -0.21124 -2.00993 0
M  V30 7255 C 691.842 1.18985 -1.54491 0
M  V30 7256 O 691.112 1.8009 -0.771 0
M  V30 7257 H 689.692 -0.0751059 -0.743215 0
M  V30 7258 H 692.354 -0.883915 -1.73704 0
M  V30 7259 H 691.45 -0.220513 -3.1132 0
M  V30 7260 N 691.751 1.51645 -0.429126 0
M  V30 7261 C 692.976 2.06917 0.141399 0
M  V30 7262 C 693.401 1.29527 1.36398 0
M  V30 7263 O 692.759 0.33094 1.78254 0
M  V30 7264 C 692.807 3.57776 0.4504 0
M  V30 7265 O 691.911 3.82639 1.53821 0
M  V30 7266 H 691.252 0.663978 0.0054647 0
M  V30 7267 H 693.782 1.95355 -0.608093 0
M  V30 7268 H 693.792 4.01894 0.703249 0
M  V30 7269 H 692.467 4.13532 -0.443213 0
M  V30 7270 H 691.044 3.5039 1.27597 0
M  V30 7271 N 693.229 0.160201 1.56784 0
M  V30 7272 C 694.475 -0.48831 1.96833 0
M  V30 7273 C 694.808 -1.63641 1.04571 0
M  V30 7274 O 694.083 -1.94289 0.0906481 0
M  V30 7275 C 694.366 -0.981908 3.46454 0
M  V30 7276 C 694.219 0.165607 4.49495 0
M  V30 7277 C 695.538 -1.85931 3.98896 0
M  V30 7278 H 692.657 -0.176027 0.71567 0
M  V30 7279 H 695.299 0.244093 1.88426 0
M  V30 7280 H 693.449 -1.60602 3.5375 0
M  V30 7281 H 695.121 0.802372 4.54268 0
M  V30 7282 H 693.364 0.822789 4.25926 0
M  V30 7283 H 694.035 -0.221699 5.51555 0
M  V30 7284 H 696.511 -1.33327 3.94161 0
M  V30 7285 H 695.387 -2.17373 5.04024 0
M  V30 7286 H 695.648 -2.80106 3.42042 0
M  V30 7287 N 694.707 -1.5719 -0.113559 0
M  V30 7288 C 695.637 -2.03772 -1.14013 0
M  V30 7289 C 696.618 -0.923176 -1.42869 0
M  V30 7290 O 697.803 -1.19325 -1.53216 0
M  V30 7291 C 694.933 -2.44663 -2.4649 0
M  V30 7292 C 693.887 -3.59612 -2.32085 0
M  V30 7293 C 693.213 -3.8642 -3.69573 0
M  V30 7294 C 694.513 -4.91149 -1.7768 0
M  V30 7295 H 696.207 -2.89785 -0.752665 0
M  V30 7296 H 693.753 -1.39412 -0.360609 0
M  V30 7297 H 695.706 -2.75857 -3.18561 0
M  V30 7298 H 694.43 -1.55628 -2.87137 0
M  V30 7299 H 693.089 -3.28636 -1.62461 0
M  V30 7300 H 692.737 -2.94581 -4.07715 0
M  V30 7301 H 692.437 -4.63797 -3.60786 0
M  V30 7302 H 693.961 -4.2007 -4.4314 0
M  V30 7303 H 695.375 -5.20843 -2.39574 0
M  V30 7304 H 693.772 -5.72562 -1.79701 0
M  V30 7305 H 694.842 -4.79301 -0.734776 0
M  V30 7306 N 696.185 0.383891 -1.52853 0
M  V30 7307 C 697.41 1.154 -1.7233 0
M  V30 7308 C 697.835 1.82809 -0.44298 0
M  V30 7309 O 697.193 1.71026 0.601645 0
M  V30 7310 C 697.241 2.17386 -2.87708 0
M  V30 7311 O 696.345 3.24082 -2.55038 0
M  V30 7312 H 695.686 0.335709 -0.572883 0
M  V30 7313 H 698.216 0.44662 -1.99666 0
M  V30 7314 H 698.226 2.61296 -3.1335 0
M  V30 7315 H 696.901 1.6771 -3.80587 0
M  V30 7316 H 695.478 2.85273 -2.40153 0
M  V30 7317 N 697.663 1.43903 0.642637 0
M  V30 7318 C 698.573 1.52349 1.78401 0
M  V30 7319 C 699.589 0.409869 1.69104 0
M  V30 7320 O 700.765 0.665548 1.90085 0
M  V30 7321 C 697.83 1.45408 3.14734 0
M  V30 7322 C 696.891 2.67528 3.35749 0
M  V30 7323 C 696.124 2.60909 4.65577 0
M  V30 7324 O 696.347 1.6627 5.45628 0
M  V30 7325 O 695.281 3.5158 4.88544 0
M  V30 7326 H 699.107 2.48752 1.7423 0
M  V30 7327 H 696.692 1.26021 0.802439 0
M  V30 7328 H 698.574 1.44019 3.96026 0
M  V30 7329 H 697.249 0.521437 3.19473 0
M  V30 7330 H 696.156 2.74487 2.5418 0
M  V30 7331 H 697.489 3.598 3.35864 0
M  V30 7332 N 699.141 -0.881989 1.30609 0
M  V30 7333 C 700.389 -1.63082 1.19368 0
M  V30 7334 C 700.71 -1.93376 -0.251147 0
M  V30 7335 O 699.98 -1.5723 -1.16857 0
M  V30 7336 H 698.56 -0.604542 0.438791 0
M  V30 7337 H 701.222 -1.05658 1.63776 0
M  V30 7338 H 700.318 -2.57966 1.7567 0
M  V30 7339 N 700.619 -1.13374 -1.09472 0
M  V30 7340 C 701.844 -0.918711 -1.85942 0
M  V30 7341 C 702.269 0.527225 -1.8056 0
M  V30 7342 O 701.627 1.37408 -1.18274 0
M  V30 7343 C 701.675 -1.41056 -3.31867 0
M  V30 7344 O 700.779 -0.595496 -4.08078 0
M  V30 7345 H 700.12 -0.329297 -0.576593 0
M  V30 7346 H 702.65 -1.50829 -1.38245 0
M  V30 7347 H 702.66 -1.41398 -3.82715 0
M  V30 7348 H 701.335 -2.46335 -3.35099 0
M  V30 7349 H 699.912 -0.659911 -3.67014 0
M  V30 7350 N 702.098 1.27442 -0.927168 0
M  V30 7351 C 703.509 1.76385 -0.611979 0
M  V30 7352 C 703.86 1.75715 0.872853 0
M  V30 7353 O 702.985 1.3603 1.683 0
M  V30 7354 C 703.58 3.20303 -1.10414 0
M  V30 7355 C 702.139 3.66916 -0.839628 0
M  V30 7356 C 701.286 2.46859 -1.26317 0
M  V30 7357 H 704.237 1.13716 -1.107 0
M  V30 7358 H 704.258 3.77811 -0.451578 0
M  V30 7359 H 703.77 3.20759 -2.18484 0
M  V30 7360 H 701.871 3.71906 0.227292 0
M  V30 7361 H 701.984 4.56415 -1.45679 0
M  V30 7362 H 700.348 2.45407 -0.681723 0
M  V30 7363 H 701.131 2.50025 -2.3525 0
M  V30 7364 N 703.576 0.692616 1.41565 0
M  V30 7365 C 704.506 0.0397325 2.33466 0
M  V30 7366 C 705.487 -0.770334 1.51657 0
M  V30 7367 O 706.672 -0.723903 1.80203 0
M  V30 7368 C 703.802 -0.899495 3.3545 0
M  V30 7369 C 702.756 -0.196738 4.27548 0
M  V30 7370 C 702.082 -1.25012 5.19881 0
M  V30 7371 C 703.382 0.935158 5.1386 0
M  V30 7372 H 705.076 0.807296 2.88311 0
M  V30 7373 H 702.622 0.389665 1.38628 0
M  V30 7374 H 704.575 -1.36545 3.98665 0
M  V30 7375 H 703.299 -1.69869 2.78948 0
M  V30 7376 H 701.958 0.249158 3.65752 0
M  V30 7377 H 701.606 -2.04177 4.59696 0
M  V30 7378 H 701.306 -0.784931 5.82334 0
M  V30 7379 H 702.83 -1.71665 5.85972 0
M  V30 7380 H 704.244 0.549619 5.70659 0
M  V30 7381 H 702.641 1.32726 5.85238 0
M  V30 7382 H 703.711 1.77613 4.512 0
M  V30 7383 N 705.054 -1.51416 0.437162 0
M  V30 7384 C 706.282 -2.06503 -0.128045 0
M  V30 7385 C 706.697 -1.30461 -1.36475 0
M  V30 7386 O 706.054 -0.364127 -1.78831 0
M  V30 7387 C 706.105 -3.58683 -0.450437 0
M  V30 7388 O 705.826 -4.31853 0.737186 0
M  V30 7389 C 707.327 -4.30284 -1.06633 0
M  V30 7390 H 704.547 -0.670952 -0.00800269 0
M  V30 7391 H 707.091 -1.94996 0.616193 0
M  V30 7392 H 705.246 -3.70106 -1.14457 0
M  V30 7393 H 705.66 -5.22467 0.461347 0
M  V30 7394 H 707.134 -5.37848 -1.24191 0
M  V30 7395 H 707.611 -3.88564 -2.0473 0
M  V30 7396 H 708.217 -4.23304 -0.411585 0
M  V30 7397 N 706.532 -0.168513 -1.56696 0
M  V30 7398 C 707.442 0.775435 -2.21414 0
M  V30 7399 C 708.458 1.25529 -1.20492 0
M  V30 7400 O 709.634 1.30801 -1.53144 0
M  V30 7401 C 706.699 1.9886 -2.83999 0
M  V30 7402 C 705.76 1.5559 -4.00113 0
M  V30 7403 C 704.993 2.71124 -4.59704 0
M  V30 7404 O 705.216 3.87917 -4.18182 0
M  V30 7405 O 704.15 2.4536 -5.4962 0
M  V30 7406 H 707.976 0.254416 -3.02632 0
M  V30 7407 H 705.561 0.0595507 -1.49281 0
M  V30 7408 H 707.443 2.69816 -3.23693 0
M  V30 7409 H 706.118 2.49874 -2.05779 0
M  V30 7410 H 705.025 0.815924 -3.65094 0
M  V30 7411 H 706.358 1.09271 -4.79917 0
M  V30 7412 N 708.01 1.57248 0.105221 0
M  V30 7413 C 708.942 1.98008 1.15436 0
M  V30 7414 C 709.955 0.881236 1.36887 0
M  V30 7415 O 711.144 1.15943 1.35718 0
M  V30 7416 C 708.244 2.27509 2.51183 0
M  V30 7417 C 707.417 3.58811 2.50147 0
M  V30 7418 C 706.476 3.76365 3.67745 0
M  V30 7419 O 705.502 4.48329 3.50699 0
M  V30 7420 N 706.704 3.16174 4.86841 0
M  V30 7421 H 709.469 2.88616 0.807519 0
M  V30 7422 H 707.03 1.59202 0.29433 0
M  V30 7423 H 709.022 2.36455 3.28438 0
M  V30 7424 H 707.592 1.42959 2.77995 0
M  V30 7425 H 706.812 3.60927 1.5851 0
M  V30 7426 H 708.1 4.45088 2.46524 0
M  V30 7427 H 707.498 2.57701 5.03594 0
M  V30 7428 H 706.055 3.30621 5.61723 0
M  V30 7429 N 709.488 -0.375779 1.53054 0
M  V30 7430 C 710.398 -1.48381 1.81715 0
M  V30 7431 C 711.414 -1.59087 0.704795 0
M  V30 7432 O 712.59 -1.75174 0.993785 0
M  V30 7433 C 709.655 -2.83767 1.99192 0
M  V30 7434 C 708.716 -2.82673 3.23102 0
M  V30 7435 C 707.949 -4.11601 3.39736 0
M  V30 7436 O 708.172 -5.07243 2.60885 0
M  V30 7437 O 707.106 -4.18034 4.33049 0
M  V30 7438 H 710.932 -1.27089 2.7583 0
M  V30 7439 H 708.517 -0.564902 1.38308 0
M  V30 7440 H 710.399 -3.64004 2.12318 0
M  V30 7441 H 709.074 -3.05057 1.08267 0
M  V30 7442 H 707.981 -2.0117 3.15407 0
M  V30 7443 H 709.314 -2.66335 4.13916 0
M  V30 7444 N 710.966 -1.44241 -0.634997 0
M  V30 7445 C 711.876 -1.53293 -1.77591 0
M  V30 7446 C 712.892 -0.418831 -1.68884 0
M  V30 7447 O 714.068 -0.675619 -1.8973 0
M  V30 7448 C 711.133 -1.47075 -3.13958 0
M  V30 7449 C 710.194 -2.69304 -3.34326 0
M  V30 7450 C 709.427 -2.63374 -4.64187 0
M  V30 7451 O 709.65 -1.69161 -5.44739 0
M  V30 7452 O 708.584 -3.54166 -4.86673 0
M  V30 7453 H 712.41 -2.49673 -1.72908 0
M  V30 7454 H 709.995 -1.26445 -0.795745 0
M  V30 7455 H 711.877 -1.46117 -3.95257 0
M  V30 7456 H 710.552 -0.538373 -3.19192 0
M  V30 7457 H 709.459 -2.75831 -2.52721 0
M  V30 7458 H 710.792 -3.61576 -3.33951 0
M  V30 7459 N 712.444 0.87505 -1.31075 0
M  V30 7460 C 713.669 1.66583 -1.23551 0
M  V30 7461 C 714.094 1.87067 0.19686 0
M  V30 7462 O 713.452 1.40877 1.1412 0
M  V30 7463 C 713.5 3.01401 -1.97965 0
M  V30 7464 O 712.604 3.90923 -1.31351 0
M  V30 7465 H 711.945 0.508645 -0.426821 0
M  V30 7466 H 714.475 1.09139 -1.7306 0
M  V30 7467 H 714.485 3.51374 -2.07366 0
M  V30 7468 H 713.16 2.85812 -3.02133 0
M  V30 7469 H 711.737 3.49369 -1.30368 0
M  V30 7470 N 713.922 1.13953 1.08869 0
M  V30 7471 C 715.147 0.928559 1.85452 0
M  V30 7472 C 715.572 -0.517642 1.80837 0
M  V30 7473 O 714.93 -1.36779 1.19001 0
M  V30 7474 C 714.978 1.42814 3.31114 0
M  V30 7475 O 714.082 0.617129 4.07756 0
M  V30 7476 H 713.423 0.33235 0.574839 0
M  V30 7477 H 715.953 1.5156 1.37443 0
M  V30 7478 H 715.963 1.43425 3.8196 0
M  V30 7479 H 714.638 2.48109 3.33788 0
M  V30 7480 H 713.215 0.679365 3.66659 0
M  V30 7481 N 715.4 -1.26948 0.933913 0
M  V30 7482 C 716.811 -1.76058 0.621324 0
M  V30 7483 C 717.162 -1.76175 -0.863522 0
M  V30 7484 O 716.287 -1.36921 -1.67576 0
M  V30 7485 C 716.882 -3.19713 1.12111 0
M  V30 7486 C 715.441 -3.66465 0.859074 0
M  V30 7487 C 714.588 -2.46186 1.27624 0
M  V30 7488 H 717.539 -1.13127 1.11301 0
M  V30 7489 H 717.56 -3.77566 0.471608 0
M  V30 7490 H 717.072 -3.19596 2.20182 0
M  V30 7491 H 715.173 -3.72021 -0.207566 0
M  V30 7492 H 715.286 -4.55636 1.48098 0
M  V30 7493 H 713.65 -2.45042 0.694727 0
M  V30 7494 H 714.433 -2.48774 2.36572 0
M  V30 7495 N 716.879 -0.700114 -1.41195 0
M  V30 7496 C 718.104 -0.240704 -2.05998 0
M  V30 7497 C 718.529 1.10313 -1.52357 0
M  V30 7498 O 717.887 1.69154 -0.652424 0
M  V30 7499 C 717.935 -0.213783 -3.59966 0
M  V30 7500 O 717.039 0.809933 -4.04368 0
M  V30 7501 H 716.38 -0.116471 -0.653705 0
M  V30 7502 H 718.91 -0.956251 -1.80878 0
M  V30 7503 H 718.92 -0.0461852 -4.07974 0
M  V30 7504 H 717.595 -1.19454 -3.98376 0
M  V30 7505 H 716.172 0.611319 -3.67855 0
M  V30 7506 N 718.357 1.51182 -0.445186 0
M  V30 7507 C 719.307 2.24804 0.380394 0
M  V30 7508 C 720.291 1.27344 0.983482 0
M  V30 7509 O 721.483 1.52392 0.900322 0
M  V30 7510 C 718.612 3.09922 1.4766 0
M  V30 7511 C 717.698 4.14816 0.882517 0
M  V30 7512 N 718.089 5.05797 0.0183278 0
M  V30 7513 C 716.387 4.30938 1.14927 0
M  V30 7514 C 717.088 5.8084 -0.316152 0
M  V30 7515 N 716.064 5.42759 0.302214 0
M  V30 7516 H 719.866 2.92508 -0.285737 0
M  V30 7517 H 717.38 1.60342 -0.257733 0
M  V30 7518 H 719.377 3.61249 2.08098 0
M  V30 7519 H 718.037 2.43763 2.14498 0
M  V30 7520 H 719.048 5.16725 -0.348679 0
M  V30 7521 H 715.725 3.76005 1.81457 0
M  V30 7522 H 717.115 6.64115 -1.01986 0
M  V30 7523 N 719.835 0.176821 1.56605 0
M  V30 7524 C 721.112 -0.513365 1.88743 0
M  V30 7525 C 721.492 -1.80929 1.08757 0
M  V30 7526 O 720.84 -2.27765 0.183127 0
M  V30 7527 C 721.05 -0.749925 3.40848 0
M  V30 7528 C 722.398 -1.07747 4.10701 0
M  V30 7529 O 723.422 -0.838277 3.46196 0
M  V30 7530 O 722.281 -1.52901 5.24675 0
M  V30 7531 H 719.375 -0.265296 0.783292 0
M  V30 7532 H 721.921 0.215669 1.68324 0
M  V30 7533 H 720.693 0.16599 3.90948 0
M  V30 7534 H 720.316 -1.53208 3.66897 0
M  V30 7535 N 721.313 -1.57302 -0.09688 0
M  V30 7536 C 722.729 -1.53094 -0.451041 0
M  V30 7537 C 722.929 -0.893265 -1.80618 0
M  V30 7538 O 721.985 -0.485013 -2.47798 0
M  V30 7539 C 723.298 -2.9782 -0.415172 0
M  V30 7540 C 724.846 -3.09026 -0.497155 0
M  V30 7541 C 725.321 -4.55356 -0.491452 0
M  V30 7542 N 726.812 -4.59896 -0.552258 0
M  V30 7543 C 727.547 -5.70563 -0.569654 0
M  V30 7544 N 727.043 -6.90666 -0.543365 0
M  V30 7545 N 728.836 -5.58733 -0.614331 0
M  V30 7546 H 720.987 -1.97131 0.790771 0
M  V30 7547 H 723.25 -0.901211 0.294147 0
M  V30 7548 H 722.956 -3.47933 0.513362 0
M  V30 7549 H 722.83 -3.56416 -1.23481 0
M  V30 7550 H 725.217 -2.58902 -1.41611 0
M  V30 7551 H 725.298 -2.53386 0.35059 0
M  V30 7552 H 724.942 -5.06131 0.423549 0
M  V30 7553 H 724.872 -5.08832 -1.35639 0
M  V30 7554 H 727.363 -3.73456 -0.577842 0
M  V30 7555 H 727.676 -7.70769 -0.559873 0
M  V30 7556 H 726.021 -6.93123 -0.510441 0
M  V30 7557 H 729.212 -4.63809 -0.632387 0
M  V30 7558 H 729.385 -6.44984 -0.62442 0
M  V30 7559 N 722.791 0.367657 -1.53252 0
M  V30 7560 C 724.016 1.13566 -1.73544 0
M  V30 7561 C 724.441 1.82329 -0.462344 0
M  V30 7562 O 723.799 1.71655 0.583472 0
M  V30 7563 C 723.847 2.14322 -2.89997 0
M  V30 7564 O 722.951 3.21359 -2.58461 0
M  V30 7565 H 722.292 0.329614 -0.576412 0
M  V30 7566 H 724.822 0.425417 -2.00128 0
M  V30 7567 H 724.832 2.57958 -3.16104 0
M  V30 7568 H 723.507 1.63664 -3.82344 0
M  V30 7569 H 722.084 2.8271 -2.43165 0
M  V30 7570 N 724.269 1.44576 0.627338 0
M  V30 7571 C 725.685 1.28546 0.945938 0
M  V30 7572 C 725.885 0.224003 2.00251 0
M  V30 7573 O 724.941 -0.388817 2.49488 0
M  V30 7574 C 726.254 2.65825 1.40561 0
M  V30 7575 C 727.802 2.73566 1.52088 0
M  V30 7576 C 728.277 4.11323 2.01438 0
M  V30 7577 N 729.768 4.13519 2.08702 0
M  V30 7578 C 730.503 5.16964 2.48065 0
M  V30 7579 N 729.999 6.30768 2.86538 0
M  V30 7580 N 731.792 5.04319 2.48232 0
M  V30 7581 H 723.943 2.1228 -0.0713567 0
M  V30 7582 H 726.206 0.947503 0.0307081 0
M  V30 7583 H 725.912 3.44591 0.703539 0
M  V30 7584 H 725.786 2.92969 2.37591 0
M  V30 7585 H 728.173 1.95116 2.21391 0
M  V30 7586 H 728.254 2.50159 0.534237 0
M  V30 7587 H 727.898 4.9025 1.32729 0
M  V30 7588 H 727.828 4.32109 3.0098 0
M  V30 7589 H 730.319 3.31385 1.81638 0
M  V30 7590 H 730.632 7.0551 3.15398 0
M  V30 7591 H 728.977 6.342 2.84281 0
M  V30 7592 H 732.168 4.14465 2.17569 0
M  V30 7593 H 732.341 5.85059 2.78585 0
M  V30 7594 N 725.747 -0.868086 1.31537 0
M  V30 7595 C 726.975 -1.65402 1.24298 0
M  V30 7596 C 727.39 -1.87827 -0.191389 0
M  V30 7597 O 726.747 -1.43776 -1.12404 0
M  V30 7598 C 726.798 -3.02093 1.9855 0
M  V30 7599 O 726.519 -2.80668 3.36388 0
M  V30 7600 C 728.02 -3.96538 1.98173 0
M  V30 7601 H 725.24 -0.515598 0.429417 0
M  V30 7602 H 727.784 -1.0834 1.73444 0
M  V30 7603 H 725.939 -3.55838 1.53161 0
M  V30 7604 H 726.353 -3.67504 3.74221 0
M  V30 7605 H 727.827 -4.8976 2.54635 0
M  V30 7606 H 728.304 -4.28474 0.964697 0
M  V30 7607 H 728.91 -3.48729 2.4345 0
M  V30 7608 N 727.225 -1.14528 -1.08264 0
M  V30 7609 C 728.471 -0.91576 -1.80947 0
M  V30 7610 C 728.804 0.55623 -1.86064 0
M  V30 7611 O 728.079 1.41207 -1.33756 0
M  V30 7612 C 728.362 -1.51917 -3.26486 0
M  V30 7613 C 728.215 -3.06111 -3.2957 0
M  V30 7614 C 729.534 -1.19724 -4.23502 0
M  V30 7615 H 726.653 -0.334113 -0.656915 0
M  V30 7616 H 729.295 -1.41547 -1.26746 0
M  V30 7617 H 727.445 -1.0942 -3.72773 0
M  V30 7618 H 729.117 -3.57448 -2.91597 0
M  V30 7619 H 727.36 -3.40483 -2.688 0
M  V30 7620 H 728.031 -3.43438 -4.32151 0
M  V30 7621 H 730.507 -1.56467 -3.85561 0
M  V30 7622 H 729.383 -1.64575 -5.23647 0
M  V30 7623 H 729.644 -0.112771 -4.41956 0
M  V30 7624 N 728.703 1.26451 -0.940633 0
M  V30 7625 C 729.928 1.98407 -0.60412 0
M  V30 7626 C 730.353 1.69584 0.81382 0
M  V30 7627 O 729.711 0.943553 1.54812 0
M  V30 7628 C 729.759 3.50387 -0.852136 0
M  V30 7629 O 728.863 4.1233 0.076013 0
M  V30 7630 H 728.204 0.622466 -0.231153 0
M  V30 7631 H 730.734 1.60932 -1.26342 0
M  V30 7632 H 730.744 4.00614 -0.772816 0
M  V30 7633 H 729.419 3.70696 -1.88566 0
M  V30 7634 H 727.996 3.7286 -0.0543187 0
M  V30 7635 N 730.181 0.707592 1.40822 0
M  V30 7636 C 731.144 0.0587224 2.29125 0
M  V30 7637 C 732.144 -0.695624 1.44975 0
M  V30 7638 O 733.334 -0.528718 1.65983 0
M  V30 7639 C 730.466 -0.926939 3.28056 0
M  V30 7640 H 731.659 0.836349 2.88002 0
M  V30 7641 H 729.212 0.471778 1.4901 0
M  V30 7642 H 729.947 -1.7319 2.74182 0
M  V30 7643 H 729.732 -0.389015 3.90165 0
M  V30 7644 H 731.222 -1.37837 3.94196 0
M  V30 7645 N 731.66 -1.50943 0.453197 0
M  V30 7646 C 732.885 -2.07116 -0.108463 0
M  V30 7647 C 733.31 -1.31681 -1.3432 0
M  V30 7648 O 732.668 -0.359256 -1.77705 0
M  V30 7649 C 732.716 -3.58447 -0.393424 0
M  V30 7650 O 731.82 -3.85038 -1.47714 0
M  V30 7651 H 731.161 -0.66398 0.0050993 0
M  V30 7652 H 733.691 -1.94362 0.639095 0
M  V30 7653 H 733.701 -4.02961 -0.639222 0
M  V30 7654 H 732.376 -4.12774 0.508946 0
M  V30 7655 H 730.953 -3.52376 -1.22006 0
M  V30 7656 N 733.138 -0.185124 -1.56509 0
M  V30 7657 C 734.363 0.465278 -2.02114 0
M  V30 7658 C 734.788 1.55083 -1.06447 0
M  V30 7659 O 734.146 1.81241 -0.0462852 0
M  V30 7660 C 734.194 1.00784 -3.46229 0
M  V30 7661 O 733.298 2.12123 -3.53663 0
M  V30 7662 H 732.639 0.109891 -0.654843 0
M  V30 7663 H 735.169 -0.293072 -2.0249 0
M  V30 7664 H 735.179 1.32697 -3.85818 0
M  V30 7665 H 733.854 0.213113 -4.15354 0
M  V30 7666 H 732.431 1.8115 -3.25943 0
M  V30 7667 N 734.616 1.57351 0.0885366 0
M  V30 7668 C 735.844 1.90631 0.804196 0
M  V30 7669 C 736.259 0.779474 1.71958 0
M  V30 7670 O 735.616 -0.248179 1.80805 0
M  V30 7671 C 735.667 3.23568 1.61202 0
M  V30 7672 O 735.388 4.31917 0.733447 0
M  V30 7673 C 736.889 3.70753 2.43016 0
M  V30 7674 H 734.109 0.630501 0.229585 0
M  V30 7675 H 736.653 2.044 0.0638092 0
M  V30 7676 H 734.808 3.11377 2.30485 0
M  V30 7677 H 735.222 5.08297 1.29361 0
M  V30 7678 H 736.696 4.66447 2.9518 0
M  V30 7679 H 737.173 2.98922 3.2178 0
M  V30 7680 H 737.779 3.85834 1.7892 0
M  V30 7681 N 736.094 -0.359525 1.53444 0
M  V30 7682 C 737.342 -1.09935 1.69584 0
M  V30 7683 C 737.663 -1.89656 0.453371 0
M  V30 7684 O 736.933 -1.8852 -0.53263 0
M  V30 7685 H 735.513 -0.408843 0.625185 0
M  V30 7686 H 738.175 -0.40467 1.90653 0
M  V30 7687 H 737.271 -1.78575 2.55964 0
M  V30 7688 N 737.572 -1.44907 -0.619662 0
M  V30 7689 C 738.849 -1.38766 -1.37852 0
M  V30 7690 C 739.229 -0.0521393 -2.11036 0
M  V30 7691 O 738.577 0.965613 -2.07095 0
M  V30 7692 C 738.787 -2.59344 -2.33541 0
M  V30 7693 C 740.135 -3.03909 -2.96521 0
M  V30 7694 O 741.159 -2.59631 -2.43865 0
M  V30 7695 O 740.018 -3.80713 -3.92071 0
M  V30 7696 H 737.112 -0.550083 -0.617525 0
M  V30 7697 H 739.658 -1.57015 -0.643759 0
M  V30 7698 H 738.43 -3.48142 -1.78642 0
M  V30 7699 H 738.053 -2.43367 -3.14417 0
M  V30 7700 N 739.05 0.861098 -1.31996 0
M  V30 7701 C 739.98 1.98482 -1.22993 0
M  V30 7702 C 740.961 1.6971 -0.115168 0
M  V30 7703 O 742.146 1.91849 -0.30126 0
M  V30 7704 C 739.276 3.34179 -0.945615 0
M  V30 7705 C 738.23 3.77284 -2.02091 0
M  V30 7706 C 737.556 5.1054 -1.58912 0
M  V30 7707 C 738.856 3.93439 -3.43515 0
M  V30 7708 H 740.55 2.06271 -2.17008 0
M  V30 7709 H 738.096 0.991043 -1.04472 0
M  V30 7710 H 740.049 4.12338 -0.869206 0
M  V30 7711 H 738.773 3.26586 0.0301849 0
M  V30 7712 H 737.432 3.01371 -2.08737 0
M  V30 7713 H 737.08 4.99397 -0.600942 0
M  V30 7714 H 736.78 5.40352 -2.30854 0
M  V30 7715 H 738.304 5.91199 -1.52696 0
M  V30 7716 H 739.718 4.6197 -3.39495 0
M  V30 7717 H 738.115 4.34661 -4.13751 0
M  V30 7718 H 739.185 2.96548 -3.8365 0
M  V30 7719 N 740.528 1.15101 1.07655 0
M  V30 7720 C 741.939 0.933848 1.61667 0
M  V30 7721 C 742.29 -0.525569 1.8903 0
M  V30 7722 O 741.415 -1.39605 1.65346 0
M  V30 7723 C 742.01 1.68876 2.93711 0
M  V30 7724 C 740.569 1.51697 3.44478 0
M  V30 7725 C 739.716 1.70633 2.18586 0
M  V30 7726 H 742.667 1.30171 0.907816 0
M  V30 7727 H 742.688 1.15645 3.625 0
M  V30 7728 H 742.2 2.7509 2.73764 0
M  V30 7729 H 740.301 0.478635 3.69513 0
M  V30 7730 H 740.414 2.29194 4.20722 0
M  V30 7731 H 738.778 1.13259 2.28132 0
M  V30 7732 H 739.561 2.78206 2.01137 0
M  V30 7733 N 742.006 -1.2595 0.947325 0
M  V30 7734 C 742.953 -2.26159 0.460497 0
M  V30 7735 C 743.923 -1.58919 -0.483125 0
M  V30 7736 O 745.108 -1.86603 -0.397983 0
M  V30 7737 C 742.248 -3.441 -0.26247 0
M  V30 7738 C 741.361 -4.25999 0.717539 0
M  V30 7739 C 740.496 -5.31193 -0.0272486 0
M  V30 7740 C 739.535 -6.04774 0.944177 0
M  V30 7741 N 738.672 -7.01721 0.230741 0
M  V30 7742 H 743.512 -2.67173 1.31995 0
M  V30 7743 H 741.049 -1.31358 0.662088 0
M  V30 7744 H 743.007 -4.11317 -0.698137 0
M  V30 7745 H 741.637 -3.03983 -1.08602 0
M  V30 7746 H 740.689 -3.58513 1.27171 0
M  V30 7747 H 742.001 -4.76981 1.45913 0
M  V30 7748 H 741.155 -6.04451 -0.521903 0
M  V30 7749 H 739.894 -4.81066 -0.801682 0
M  V30 7750 H 738.899 -5.30338 1.4499 0
M  V30 7751 H 740.124 -6.56991 1.71872 0
M  V30 7752 H 738.07 -6.53895 -0.525088 0
M  V30 7753 H 737.987 -7.50484 0.911556 0
M  V30 7754 H 739.255 -7.79122 -0.242616 0
M  V30 7755 N 743.484 -0.715051 -1.40445 0
M  V30 7756 C 744.447 -0.0708726 -2.2909 0
M  V30 7757 C 745.447 0.687926 -1.45342 0
M  V30 7758 O 746.637 0.519908 -1.66261 0
M  V30 7759 C 743.769 0.909528 -3.28543 0
M  V30 7760 H 744.962 -0.851611 -2.87555 0
M  V30 7761 H 742.515 -0.479674 -1.48758 0
M  V30 7762 H 743.25 1.71734 -2.75096 0
M  V30 7763 H 743.035 0.368318 -3.90366 0
M  V30 7764 H 744.525 1.35744 -3.94922 0
M  V30 7765 N 744.962 1.50701 -0.461195 0
M  V30 7766 C 745.909 2.2831 0.338094 0
M  V30 7767 C 746.879 1.32928 0.995957 0
M  V30 7768 O 748.064 1.61857 1.0103 0
M  V30 7769 C 745.204 3.14539 1.41983 0
M  V30 7770 C 744.317 4.24942 0.77773 0
M  V30 7771 C 743.452 4.98443 1.83652 0
M  V30 7772 C 742.491 6.00733 1.17413 0
M  V30 7773 N 741.628 6.6755 2.17533 0
M  V30 7774 H 746.468 2.96167 -0.330051 0
M  V30 7775 H 744.005 1.4606 -0.174611 0
M  V30 7776 H 745.963 3.62877 2.05855 0
M  V30 7777 H 744.593 2.48749 2.05727 0
M  V30 7778 H 743.645 3.80391 0.0266924 0
M  V30 7779 H 744.957 4.98151 0.254362 0
M  V30 7780 H 744.111 5.50449 2.55129 0
M  V30 7781 H 742.85 4.24917 2.39367 0
M  V30 7782 H 741.855 5.47997 0.444944 0
M  V30 7783 H 743.08 6.76227 0.624006 0
M  V30 7784 H 741.026 5.96823 2.72284 0
M  V30 7785 H 740.943 7.36603 1.70154 0
M  V30 7786 H 742.211 7.24178 2.88421 0
M  V30 7787 N 746.441 0.193421 1.56409 0
M  V30 7788 C 747.669 -0.451438 2.01915 0
M  V30 7789 C 748.084 -1.55306 1.07357 0
M  V30 7790 O 747.441 -1.82333 0.0781512 0
M  V30 7791 C 747.492 -1.00931 3.47124 0
M  V30 7792 O 747.213 0.0483623 4.38073 0
M  V30 7793 C 748.714 -1.73021 4.0814 0
M  V30 7794 H 745.934 -0.113495 0.661332 0
M  V30 7795 H 748.478 0.301636 2.02263 0
M  V30 7796 H 746.633 -1.71277 3.47481 0
M  V30 7797 H 747.047 -0.366644 5.23217 0
M  V30 7798 H 748.521 -2.07289 5.11601 0
M  V30 7799 H 748.998 -2.6333 3.51502 0
M  V30 7800 H 749.604 -1.07264 4.11551 0
M  V30 7801 N 747.919 -1.57396 -0.0801906 0
M  V30 7802 C 749.335 -1.53564 -0.434778 0
M  V30 7803 C 749.535 -0.912372 -1.79661 0
M  V30 7804 O 748.591 -0.511268 -2.4727 0
M  V30 7805 C 749.904 -2.98244 -0.383561 0
M  V30 7806 C 751.452 -3.09536 -0.46435 0
M  V30 7807 C 751.927 -4.55851 -0.443128 0
M  V30 7808 N 753.418 -4.60456 -0.503448 0
M  V30 7809 C 754.153 -5.71135 -0.509106 0
M  V30 7810 N 753.649 -6.91203 -0.47008 0
M  V30 7811 N 755.442 -5.59353 -0.555035 0
M  V30 7812 H 747.593 -1.96281 0.811635 0
M  V30 7813 H 749.856 -0.898041 0.303689 0
M  V30 7814 H 749.562 -3.47369 0.550236 0
M  V30 7815 H 749.436 -3.57705 -1.19694 0
M  V30 7816 H 751.823 -2.6039 -1.38857 0
M  V30 7817 H 751.904 -2.53 0.377445 0
M  V30 7818 H 751.548 -5.05653 0.477207 0
M  V30 7819 H 751.478 -5.10242 -1.30234 0
M  V30 7820 H 753.969 -3.74048 -0.538199 0
M  V30 7821 H 754.282 -7.7132 -0.478091 0
M  V30 7822 H 752.627 -6.93625 -0.436897 0
M  V30 7823 H 755.818 -4.64453 -0.583158 0
M  V30 7824 H 755.991 -6.4561 -0.555976 0
M  V30 7825 N 749.397 0.351382 -1.53633 0
M  V30 7826 C 750.36 1.41403 -1.80383 0
M  V30 7827 C 751.36 1.45963 -0.674635 0
M  V30 7828 O 752.55 1.46476 -0.942895 0
M  V30 7829 C 749.682 2.80401 -1.93876 0
M  V30 7830 H 750.875 1.18951 -2.75301 0
M  V30 7831 H 748.428 0.58533 -1.44926 0
M  V30 7832 H 749.163 3.08147 -1.01074 0
M  V30 7833 H 748.948 2.78488 -2.7602 0
M  V30 7834 H 750.438 3.57329 -2.16116 0
M  V30 7835 N 750.875 1.45233 0.611969 0
M  V30 7836 C 751.838 1.53189 1.70487 0
M  V30 7837 C 752.838 0.411839 1.55437 0
M  V30 7838 O 754.028 0.675164 1.60584 0
M  V30 7839 C 751.16 1.42422 3.09723 0
M  V30 7840 H 752.353 2.5056 1.64802 0
M  V30 7841 H 749.906 1.32609 0.827318 0
M  V30 7842 H 750.641 0.462185 3.2099 0
M  V30 7843 H 750.426 2.23658 3.22055 0
M  V30 7844 H 751.916 1.51012 3.89339 0
M  V30 7845 N 752.353 -0.854086 1.3245 0
M  V30 7846 C 753.63 -1.59188 1.1366 0
M  V30 7847 C 754.01 -2.08917 -0.302807 0
M  V30 7848 O 753.358 -1.8795 -1.29951 0
M  V30 7849 C 753.568 -2.73757 2.16467 0
M  V30 7850 C 754.916 -3.43323 2.49829 0
M  V30 7851 O 755.94 -2.83983 2.15017 0
M  V30 7852 O 754.799 -4.50409 3.09506 0
M  V30 7853 H 751.893 -0.701092 0.438633 0
M  V30 7854 H 754.439 -0.898165 1.43983 0
M  V30 7855 H 753.211 -2.3454 3.1322 0
M  V30 7856 H 752.834 -3.50804 1.87142 0
M  V30 7857 N 753.831 -1.1567 -1.07043 0
M  V30 7858 C 754.761 -0.879348 -2.16309 0
M  V30 7859 C 755.742 0.171311 -1.69235 0
M  V30 7860 O 756.927 0.0250175 -1.94184 0
M  V30 7861 C 754.057 -0.371307 -3.45309 0
M  V30 7862 C 753.011 -1.359 -4.05851 0
M  V30 7863 C 752.337 -0.709678 -5.29969 0
M  V30 7864 C 753.637 -2.72606 -4.45514 0
M  V30 7865 H 755.331 -1.79308 -2.39768 0
M  V30 7866 H 752.877 -0.863558 -1.15233 0
M  V30 7867 H 754.83 -0.164798 -4.21078 0
M  V30 7868 H 753.554 0.577906 -3.21446 0
M  V30 7869 H 752.213 -1.55193 -3.32131 0
M  V30 7870 H 751.861 0.245782 -5.02399 0
M  V30 7871 H 751.561 -1.36886 -5.71433 0
M  V30 7872 H 753.085 -0.513015 -6.08441 0
M  V30 7873 H 754.499 -2.57141 -5.12398 0
M  V30 7874 H 752.896 -3.34927 -4.97939 0
M  V30 7875 H 753.966 -3.28434 -3.56734 0
M  V30 7876 N 755.309 1.25446 -0.953992 0
M  V30 7877 C 756.239 2.28264 -0.491717 0
M  V30 7878 C 757.22 1.63717 0.461617 0
M  V30 7879 O 758.405 1.90821 0.36071 0
M  V30 7880 C 755.535 3.46525 0.231915 0
M  V30 7881 C 754.489 4.23247 -0.636098 0
M  V30 7882 C 753.815 5.34254 0.218238 0
M  V30 7883 C 755.115 4.85971 -1.91389 0
M  V30 7884 H 756.809 2.67183 -1.35106 0
M  V30 7885 H 754.355 1.2844 -0.651095 0
M  V30 7886 H 756.308 4.17576 0.566439 0
M  V30 7887 H 755.032 3.06594 1.12551 0
M  V30 7888 H 753.691 3.53978 -0.953696 0
M  V30 7889 H 753.339 4.90564 1.11156 0
M  V30 7890 H 753.039 5.86501 -0.359232 0
M  V30 7891 H 754.563 6.08138 0.547743 0
M  V30 7892 H 755.977 5.49168 -1.64581 0
M  V30 7893 H 754.374 5.48391 -2.43696 0
M  V30 7894 H 755.444 4.08192 -2.61738 0
M  V30 7895 N 756.787 0.722489 1.40064 0
M  V30 7896 C 758.033 0.265371 2.01056 0
M  V30 7897 C 758.366 -1.14062 1.57174 0
M  V30 7898 O 757.641 -1.77514 0.794916 0
M  V30 7899 C 757.924 0.353157 3.58364 0
M  V30 7900 C 757.777 1.79802 4.123 0
M  V30 7901 C 759.096 -0.271677 4.39261 0
M  V30 7902 H 756.215 0.0979002 0.730469 0
M  V30 7903 H 758.857 0.916289 1.66446 0
M  V30 7904 H 757.007 -0.201037 3.87979 0
M  V30 7905 H 758.679 2.40813 3.93455 0
M  V30 7906 H 756.922 2.32348 3.66329 0
M  V30 7907 H 757.593 1.81079 5.21454 0
M  V30 7908 H 760.069 0.200607 4.15616 0
M  V30 7909 H 758.945 -0.179843 5.48605 0
M  V30 7910 H 759.206 -1.35611 4.20787 0
M  V30 7911 N 758.265 -1.50454 0.469181 0
M  V30 7912 C 759.213 -2.30101 -0.340033 0
M  V30 7913 C 760.207 -1.37306 -0.992135 0
M  V30 7914 O 761.413 -1.54506 -0.923458 0
M  V30 7915 H 757.788 -0.740941 -0.128495 0
M  V30 7916 H 759.759 -2.96315 0.352144 0
M  V30 7917 C 758.508 -3.17804 -1.41052 0
M  V30 7918 H 757.831 -3.89115 -0.918124 0
M  V30 7919 H 759.271 -3.76533 -1.94934 0
M  V30 7920 C 757.73 -2.35272 -2.4114 0
M  V30 7921 O 758.26 -2.03448 -3.4637 0
M  V30 7922 N 756.466 -1.97889 -2.1281 0
M  V30 7923 H 756.013 -2.2397 -1.27261 0
M  V30 7924 H 755.971 -1.42971 -2.80012 0
M  V30 7925 N 759.743 -0.201713 -1.56304 0
M  V30 7926 C 761.154 0.309711 -1.84113 0
M  V30 7927 C 761.505 1.60912 -1.12258 0
M  V30 7928 O 760.63 2.12937 -0.385587 0
M  V30 7929 C 761.225 0.568706 -3.33993 0
M  V30 7930 C 759.784 1.02448 -3.6219 0
M  V30 7931 C 758.931 0.0766842 -2.77194 0
M  V30 7932 H 761.882 -0.425356 -1.52893 0
M  V30 7933 H 761.903 1.41721 -3.53122 0
M  V30 7934 H 761.415 -0.37719 -3.86263 0
M  V30 7935 H 759.516 1.98443 -3.15359 0
M  V30 7936 H 759.629 0.912619 -4.70328 0
M  V30 7937 H 757.993 0.579809 -2.48013 0
M  V30 7938 H 758.776 -0.863774 -3.32256 0
M  V30 7939 N 761.222 1.57436 0.0718424 0
M  V30 7940 C 762.152 2.06724 1.08571 0
M  V30 7941 C 763.133 0.960731 1.40371 0
M  V30 7942 O 764.318 1.23345 1.49999 0
M  V30 7943 C 761.448 2.51112 2.39916 0
M  V30 7944 C 760.402 3.65639 2.22469 0
M  V30 7945 C 759.728 3.96082 3.59198 0
M  V30 7946 C 761.028 4.95687 1.64596 0
M  V30 7947 H 762.722 2.91679 0.675569 0
M  V30 7948 H 760.268 1.40319 0.32352 0
M  V30 7949 H 762.221 2.84206 3.11135 0
M  V30 7950 H 760.945 1.63186 2.8291 0
M  V30 7951 H 759.604 3.32828 1.53691 0
M  V30 7952 H 759.252 3.05287 3.99761 0
M  V30 7953 H 758.952 4.73199 3.48362 0
M  V30 7954 H 760.476 4.31672 4.31847 0
M  V30 7955 H 761.89 5.27011 2.25681 0
M  V30 7956 H 760.287 5.77126 1.64457 0
M  V30 7957 H 761.357 4.8108 0.60744 0
M  V30 7958 N 762.7 -0.34323 1.53817 0
M  V30 7959 C 763.977 -1.10047 1.61706 0
M  V30 7960 C 764.357 -2.06495 0.438514 0
M  V30 7961 O 763.705 -2.21297 -0.569188 0
M  V30 7962 C 763.915 -1.81985 2.97796 0
M  V30 7963 C 765.263 -2.35717 3.53161 0
M  V30 7964 O 766.287 -1.9208 2.99973 0
M  V30 7965 O 765.146 -3.15551 4.46195 0
M  V30 7966 H 762.24 -0.506096 0.654061 0
M  V30 7967 H 764.786 -0.344697 1.66162 0
M  V30 7968 H 763.558 -1.11722 3.75012 0
M  V30 7969 H 763.181 -2.64419 2.96931 0
M  V30 7970 N 764.178 -1.45556 -0.604258 0
M  V30 7971 C 765.589 -1.44171 -1.18624 0
M  V30 7972 C 765.94 -0.171081 -1.95453 0
M  V30 7973 O 765.065 0.727156 -2.03817 0
M  V30 7974 C 765.66 -2.61193 -2.15786 0
M  V30 7975 C 764.219 -2.62918 -2.69353 0
M  V30 7976 C 763.366 -2.36479 -1.4482 0
M  V30 7977 H 766.317 -1.53747 -0.393381 0
M  V30 7978 H 766.338 -2.35481 -2.98879 0
M  V30 7979 H 765.85 -3.53656 -1.59841 0
M  V30 7980 H 763.951 -1.7447 -3.29228 0
M  V30 7981 H 764.064 -3.6224 -3.13559 0
M  V30 7982 H 762.428 -1.86103 -1.73891 0
M  V30 7983 H 763.211 -3.31091 -0.907376 0
M  V30 7984 N 765.656 0.84705 -1.32902 0
M  V30 7985 C 767.072 1.13645 -1.12058 0
M  V30 7986 C 767.272 2.01281 0.093937 0
M  V30 7987 O 766.328 2.4026 0.776608 0
M  V30 7988 C 767.641 1.80644 -2.40392 0
M  V30 7989 C 769.189 1.93246 -2.46221 0
M  V30 7990 C 769.664 2.6366 -3.74496 0
M  V30 7991 N 771.155 2.71179 -3.75521 0
M  V30 7992 C 771.89 3.26332 -4.71482 0
M  V30 7993 N 771.386 3.82236 -5.77813 0
M  V30 7994 N 773.179 3.24507 -4.58968 0
M  V30 7995 H 765.33 0.263612 -2.10758 0
M  V30 7996 H 767.593 0.17944 -0.930863 0
M  V30 7997 H 767.299 1.23708 -3.29225 0
M  V30 7998 H 767.173 2.80736 -2.51926 0
M  V30 7999 H 769.56 2.49338 -1.57843 0
M  V30 8000 H 769.641 0.921272 -2.38634 0
M  V30 8001 H 769.285 2.08229 -4.63253 0
M  V30 8002 H 769.215 3.65234 -3.79357 0
M  V30 8003 H 771.706 2.31527 -2.9867 0
M  V30 8004 H 772.019 4.22499 -6.47082 0
M  V30 8005 H 770.364 3.80546 -5.81558 0
M  V30 8006 H 773.555 2.80085 -3.7506 0
M  V30 8007 H 773.728 3.67188 -5.33926 0
M  V30 8008 N 767.134 1.16236 1.06428 0
M  V30 8009 C 768.082 0.863669 2.15971 0
M  V30 8010 C 769.076 -0.166723 1.68578 0
M  V30 8011 O 770.282 -0.0208425 1.79988 0
M  V30 8012 H 766.657 0.261684 0.705 0
M  V30 8013 H 768.628 1.79498 2.38376 0
M  V30 8014 C 767.377 0.379697 3.45621 0
M  V30 8015 H 766.7 1.16399 3.82481 0
M  V30 8016 H 768.14 0.209458 4.23482 0
M  V30 8017 C 766.599 -0.900499 3.24642 0
M  V30 8018 O 767.129 -1.97004 3.50074 0
M  V30 8019 N 765.335 -0.843721 2.78082 0
M  V30 8020 H 764.882 0.0268429 2.57586 0
M  V30 8021 H 764.84 -1.70078 2.64425 0
M  V30 8022 N 768.612 -1.24939 0.960631 0
M  V30 8023 C 769.575 -2.239 0.49006 0
M  V30 8024 C 770.575 -1.55497 -0.409535 0
M  V30 8025 O 771.765 -1.72978 -0.205984 0
M  V30 8026 C 768.897 -3.39654 -0.291193 0
M  V30 8027 H 770.09 -2.67044 1.36482 0
M  V30 8028 H 767.643 -1.37429 0.744505 0
M  V30 8029 H 768.378 -3.01939 -1.18336 0
M  V30 8030 H 768.163 -3.90496 0.354276 0
M  V30 8031 H 769.653 -4.13125 -0.609693 0
M  V30 8032 N 770.09 -0.729906 -1.39679 0
M  V30 8033 C 771.367 -0.202149 -1.94553 0
M  V30 8034 C 771.747 1.29507 -1.66707 0
M  V30 8035 O 771.095 2.05819 -0.992517 0
M  V30 8036 C 771.305 -0.530279 -3.44948 0
M  V30 8037 C 772.653 -0.476808 -4.21914 0
M  V30 8038 O 773.677 -0.467171 -3.53123 0
M  V30 8039 O 772.536 -0.466869 -5.44502 0
M  V30 8040 H 769.63 -0.0351644 -0.826252 0
M  V30 8041 H 772.176 -0.808417 -1.49207 0
M  V30 8042 H 770.948 -1.56526 -3.5863 0
M  V30 8043 H 770.571 0.10522 -3.97461 0
M  V30 8044 N 771.568 1.50203 -0.477153 0
M  V30 8045 C 772.515 2.28656 0.31386 0
M  V30 8046 C 773.485 1.33977 0.981802 0
M  V30 8047 O 774.67 1.62919 0.993072 0
M  V30 8048 C 771.81 3.16027 1.38639 0
M  V30 8049 C 770.923 4.25743 0.732615 0
M  V30 8050 C 770.058 5.00363 1.78355 0
M  V30 8051 C 769.097 6.01945 1.11035 0
M  V30 8052 N 768.234 6.6982 2.10441 0
M  V30 8053 H 773.074 2.958 -0.361445 0
M  V30 8054 H 770.611 1.45867 -0.190093 0
M  V30 8055 H 772.569 3.6504 2.01994 0
M  V30 8056 H 771.199 2.50917 2.03077 0
M  V30 8057 H 770.251 3.80398 -0.0136546 0
M  V30 8058 H 771.563 4.98393 0.201513 0
M  V30 8059 H 770.717 5.53124 2.49276 0
M  V30 8060 H 769.456 4.27432 2.34847 0
M  V30 8061 H 768.461 5.48438 0.386797 0
M  V30 8062 H 769.686 6.76851 0.552248 0
M  V30 8063 H 767.632 5.99677 2.65939 0
M  V30 8064 H 767.549 7.38366 1.62332 0
M  V30 8065 H 768.817 7.27196 2.80724 0
M  V30 8066 N 773.046 0.209999 1.56195 0
M  V30 8067 C 774.295 -0.425106 1.97169 0
M  V30 8068 C 774.608 -1.61718 1.10031 0
M  V30 8069 O 775.814 -2.32105 1.40853 0
M  V30 8070 C 774.27 -0.80771 3.50719 0
M  V30 8071 C 773.878 0.360902 4.46544 0
M  V30 8072 C 775.622 -1.40906 4.00432 0
M  V30 8073 C 773.529 -0.0434919 5.91384 0
M  V30 8074 H 772.459 -0.162598 0.736259 0
M  V30 8075 H 775.11 0.304382 1.80958 0
M  V30 8076 H 773.492 -1.59429 3.62489 0
M  V30 8077 H 774.666 1.13846 4.46515 0
M  V30 8078 H 772.981 0.874729 4.07109 0
M  V30 8079 H 775.578 -1.72433 5.06133 0
M  V30 8080 H 775.921 -2.32081 3.45607 0
M  V30 8081 H 776.454 -0.686154 3.91838 0
M  V30 8082 H 773.193 0.834448 6.50167 0
M  V30 8083 H 772.713 -0.785598 5.94633 0
M  V30 8084 H 774.392 -0.474176 6.4526 0
M  V30 8085 N 774.524 -1.57472 -0.0634922 0
M  V30 8086 C 775.94 -1.54016 -0.418466 0
M  V30 8087 C 776.14 -0.931376 -1.78683 0
M  V30 8088 O 775.196 -0.537465 -2.46714 0
M  V30 8089 C 776.509 -2.98634 -0.351906 0
M  V30 8090 C 778.057 -3.10012 -0.431494 0
M  V30 8091 C 778.532 -4.56296 -0.394754 0
M  V30 8092 N 780.023 -4.60964 -0.454583 0
M  V30 8093 C 780.758 -5.71643 -0.448501 0
M  V30 8094 N 780.254 -6.91663 -0.396742 0
M  V30 8095 N 782.047 -5.5991 -0.495677 0
M  V30 8096 H 774.198 -1.95409 0.832408 0
M  V30 8097 H 776.461 -0.894769 0.313197 0
M  V30 8098 H 776.167 -3.46766 0.587048 0
M  V30 8099 H 776.041 -3.58955 -1.15893 0
M  V30 8100 H 778.428 -2.61848 -1.36087 0
M  V30 8101 H 778.509 -2.52585 0.404258 0
M  V30 8102 H 778.153 -5.05119 0.530811 0
M  V30 8103 H 778.083 -5.11594 -1.24815 0
M  V30 8104 H 780.574 -3.74598 -0.498496 0
M  V30 8105 H 780.887 -7.71783 -0.396256 0
M  V30 8106 H 779.232 -6.9405 -0.363304 0
M  V30 8107 H 782.423 -4.65046 -0.533864 0
M  V30 8108 H 782.596 -6.46164 -0.487469 0
M  V30 8109 N 776.003 0.335068 -1.53997 0
M  V30 8110 C 777.249 1.07594 -1.71905 0
M  V30 8111 C 777.582 1.88039 -0.485264 0
M  V30 8112 O 776.857 1.87482 0.517752 0
M  V30 8113 C 777.14 2.01016 -2.98772 0
M  V30 8114 C 776.993 1.23977 -4.32377 0
M  V30 8115 C 778.312 3.0071 -3.21343 0
M  V30 8116 H 775.431 0.38976 -0.625505 0
M  V30 8117 H 778.073 0.353684 -1.86679 0
M  V30 8118 H 776.223 2.62603 -2.86307 0
M  V30 8119 H 777.895 0.649383 -4.56706 0
M  V30 8120 H 776.138 0.541878 -4.30402 0
M  V30 8121 H 776.809 1.92512 -5.17342 0
M  V30 8122 H 779.285 2.4924 -3.33194 0
M  V30 8123 H 778.161 3.63272 -4.11491 0
M  V30 8124 H 778.422 3.72549 -2.38033 0
M  V30 8125 N 777.481 1.45874 0.596531 0
M  V30 8126 C 778.428 1.55389 1.70655 0
M  V30 8127 C 779.398 0.399036 1.61236 0
M  V30 8128 O 780.583 0.61396 1.80652 0
M  V30 8129 C 777.723 1.53705 3.0898 0
M  V30 8130 C 776.836 2.79823 3.29125 0
M  V30 8131 C 775.971 2.69735 4.5762 0
M  V30 8132 C 775.01 3.90856 4.71061 0
M  V30 8133 N 774.147 3.79237 5.90867 0
M  V30 8134 H 778.987 2.50211 1.61859 0
M  V30 8135 H 776.524 1.24146 0.789069 0
M  V30 8136 H 778.482 1.50715 3.89026 0
M  V30 8137 H 777.112 0.624247 3.16706 0
M  V30 8138 H 776.164 2.92852 2.42779 0
M  V30 8139 H 777.476 3.69628 3.34927 0
M  V30 8140 H 776.63 2.64773 5.45875 0
M  V30 8141 H 775.369 1.77547 4.54234 0
M  V30 8142 H 774.374 3.96164 3.81227 0
M  V30 8143 H 775.599 4.84124 4.76236 0
M  V30 8144 H 773.545 2.89825 5.88504 0
M  V30 8145 H 773.462 4.62686 5.97877 0
M  V30 8146 H 774.73 3.78227 6.8159 0
M  V30 8147 N 778.959 -0.83999 1.33349 0
M  V30 8148 C 780.208 -1.59011 1.2409 0
M  V30 8149 C 780.521 -1.94655 -0.192029 0
M  V30 8150 O 781.727 -2.68438 -0.406617 0
M  V30 8151 C 780.183 -2.86801 2.17425 0
M  V30 8152 C 779.791 -2.58525 3.65881 0
M  V30 8153 C 781.535 -3.64823 2.17036 0
M  V30 8154 C 779.442 -3.82404 4.51133 0
M  V30 8155 H 778.372 -0.596731 0.460899 0
M  V30 8156 H 781.023 -0.926274 1.58406 0
M  V30 8157 H 779.405 -3.54719 1.7604 0
M  V30 8158 H 780.579 -1.98824 4.15699 0
M  V30 8159 H 778.894 -1.93808 3.68548 0
M  V30 8160 H 781.491 -4.56774 2.7796 0
M  V30 8161 H 781.834 -3.99663 1.16513 0
M  V30 8162 H 782.367 -3.03826 2.56777 0
M  V30 8163 H 779.106 -3.52696 5.52527 0
M  V30 8164 H 778.626 -4.41447 4.0606 0
M  V30 8165 H 780.305 -4.49995 4.6488 0
M  V30 8166 N 780.437 -1.16799 -1.0581 0
M  V30 8167 C 781.4 -0.881396 -2.11575 0
M  V30 8168 C 782.4 0.12574 -1.60308 0
M  V30 8169 O 783.59 -0.105716 -1.73879 0
M  V30 8170 C 780.722 -0.319037 -3.39404 0
M  V30 8171 H 781.915 -1.81907 -2.38432 0
M  V30 8172 H 779.468 -0.977597 -1.21954 0
M  V30 8173 H 780.203 0.626082 -3.18199 0
M  V30 8174 H 779.988 -1.04481 -3.77923 0
M  V30 8175 H 781.478 -0.13663 -4.17376 0
M  V30 8176 N 781.915 1.24427 -0.967243 0
M  V30 8177 C 783.192 1.87831 -0.545776 0
M  V30 8178 C 783.572 1.87126 0.977099 0
M  V30 8179 O 782.92 1.34357 1.84826 0
M  V30 8180 C 783.13 3.29967 -1.13679 0
M  V30 8181 C 784.478 4.06654 -1.22139 0
M  V30 8182 O 785.502 3.39136 -1.08926 0
M  V30 8183 O 784.361 5.27455 -1.43017 0
M  V30 8184 H 781.455 0.806745 -0.181912 0
M  V30 8185 H 784.001 1.32403 -1.06148 0
M  V30 8186 H 782.773 3.24977 -2.17958 0
M  V30 8187 H 782.396 3.92969 -0.605093 0
M  V30 8188 N 783.393 0.737304 1.3929 0
M  V30 8189 C 784.323 0.113988 2.33222 0
M  V30 8190 C 785.304 -0.721695 1.54031 0
M  V30 8191 O 786.489 -0.666206 1.82415 0
M  V30 8192 C 783.619 -0.792319 3.38141 0
M  V30 8193 C 782.573 -0.0606178 4.27957 0
M  V30 8194 C 781.899 -1.08409 5.23595 0
M  V30 8195 C 783.199 1.09817 5.10625 0
M  V30 8196 H 784.893 0.898611 2.85596 0
M  V30 8197 H 782.439 0.433571 1.37318 0
M  V30 8198 H 784.392 -1.23793 4.02807 0
M  V30 8199 H 783.116 -1.60908 2.84211 0
M  V30 8200 H 781.775 0.365393 3.64775 0
M  V30 8201 H 781.423 -1.89449 4.6596 0
M  V30 8202 H 781.123 -0.599269 5.84536 0
M  V30 8203 H 782.647 -1.52936 5.91137 0
M  V30 8204 H 784.061 0.730892 5.68622 0
M  V30 8205 H 782.458 1.51278 5.80719 0
M  V30 8206 H 783.528 1.91878 4.45321 0
M  V30 8207 N 784.871 -1.49948 0.485112 0
M  V30 8208 C 786.119 -2.01996 -0.0648775 0
M  V30 8209 C 786.44 -1.36819 -1.38945 0
M  V30 8210 O 785.71 -0.518163 -1.88923 0
M  V30 8211 H 784.29 -0.746513 -0.0269662 0
M  V30 8212 H 786.952 -1.84136 0.638733 0
M  V30 8213 H 786.048 -3.11418 -0.20617 0
M  V30 8214 N 786.349 -0.21828 -1.56081 0
M  V30 8215 C 787.297 0.709679 -2.21509 0
M  V30 8216 C 788.291 1.20221 -1.19346 0
M  V30 8217 O 789.497 1.16241 -1.37433 0
M  V30 8218 H 785.872 0.247271 -0.710184 0
M  V30 8219 H 787.843 0.134386 -2.98097 0
M  V30 8220 C 786.592 1.90853 -2.90638 0
M  V30 8221 H 785.915 1.53865 -3.69006 0
M  V30 8222 H 787.355 2.53568 -3.39822 0
M  V30 8223 C 785.814 2.76189 -1.92929 0
M  V30 8224 O 786.344 3.74842 -1.44416 0
M  V30 8225 N 784.55 2.42157 -1.6065 0
M  V30 8226 H 784.097 1.61987 -2.00294 0
M  V30 8227 H 784.055 2.99534 -0.955347 0
M  V30 8228 N 787.827 1.57504 0.0551401 0
M  V30 8229 C 788.79 2.03826 1.04821 0
M  V30 8230 C 789.79 0.937968 1.30609 0
M  V30 8231 O 790.98 1.20237 1.2605 0
M  V30 8232 C 788.112 2.43309 2.38775 0
M  V30 8233 H 789.305 2.92802 0.6486 0
M  V30 8234 H 786.858 1.53368 0.301315 0
M  V30 8235 H 787.593 1.5741 2.83536 0
M  V30 8236 H 787.378 3.23615 2.21395 0
M  V30 8237 H 788.868 2.79666 3.10124 0
M  V30 8238 N 789.305 -0.326896 1.54172 0
M  V30 8239 C 790.545 -1.07349 1.73941 0
M  V30 8240 C 790.909 -1.85355 0.50075 0
M  V30 8241 O 792.11 -2.62562 0.575731 0
M  V30 8242 C 790.381 -1.97636 2.97783 0
M  V30 8243 S 791.94 -2.79292 3.3844 0
M  V30 8244 H 788.758 -0.362459 0.611673 0
M  V30 8245 H 791.36 -0.349884 1.92344 0
M  V30 8246 H 790.064 -1.39158 3.86087 0
M  V30 8247 H 789.595 -2.74406 2.81895 0
M  V30 8248 H 791.61 -4.00106 2.93478 0
M  V30 8249 N 790.784 -1.46188 -0.588786 0
M  V30 8250 C 792.03 -1.52396 -1.34711 0
M  V30 8251 C 792.385 -0.170846 -1.9164 0
M  V30 8252 O 791.678 0.819714 -1.7318 0
M  V30 8253 C 791.872 -2.55364 -2.50048 0
M  V30 8254 C 791.701 -4.00554 -2.04417 0
M  V30 8255 C 790.471 -4.68334 -1.89715 0
M  V30 8256 C 792.669 -4.88533 -1.60747 0
M  V30 8257 N 790.651 -5.98167 -1.38091 0
M  V30 8258 C 792.022 -6.08143 -1.20672 0
M  V30 8259 C 794.077 -4.75236 -1.4851 0
M  V30 8260 C 792.78 -7.15927 -0.695782 0
M  V30 8261 C 794.806 -5.83085 -0.988196 0
M  V30 8262 C 794.168 -7.01864 -0.59719 0
M  V30 8263 H 790.267 -0.61252 -0.486151 0
M  V30 8264 H 792.851 -1.8277 -0.671063 0
M  V30 8265 H 791.022 -2.2691 -3.15225 0
M  V30 8266 H 792.754 -2.51603 -3.16983 0
M  V30 8267 H 789.509 -4.23763 -2.11476 0
M  V30 8268 H 789.933 -6.67254 -1.14458 0
M  V30 8269 H 794.575 -3.83801 -1.7736 0
M  V30 8270 H 792.293 -8.07135 -0.394857 0
M  V30 8271 H 795.879 -5.74836 -0.897504 0
M  V30 8272 H 794.759 -7.83895 -0.218621 0
M  V30 8273 N 792.262 0.832906 -1.33792 0
M  V30 8274 C 793.508 1.59089 -1.25772 0
M  V30 8275 C 793.841 1.93414 0.174601 0
M  V30 8276 O 793.116 1.59195 1.11746 0
M  V30 8277 C 793.399 2.89699 -2.13885 0
M  V30 8278 C 793.252 2.62017 -3.65605 0
M  V30 8279 C 794.571 3.91182 -2.01654 0
M  V30 8280 H 791.69 0.577232 -0.458227 0
M  V30 8281 H 794.332 0.960227 -1.6395 0
M  V30 8282 H 792.482 3.4352 -1.81456 0
M  V30 8283 H 794.154 2.14582 -4.08353 0
M  V30 8284 H 792.397 1.95621 -3.87189 0
M  V30 8285 H 793.068 3.55112 -4.2261 0
M  V30 8286 H 795.544 3.46684 -2.30107 0
M  V30 8287 H 794.42 4.80391 -2.65548 0
M  V30 8288 H 794.681 4.30861 -0.990536 0
M  V30 8289 N 793.74 1.17359 1.05189 0
M  V30 8290 C 794.69 0.858445 2.11222 0
M  V30 8291 C 795.674 -0.166991 1.60031 0
M  V30 8292 O 796.866 0.0354456 1.76965 0
M  V30 8293 C 793.995 0.373549 3.41262 0
M  V30 8294 C 793.081 1.43041 3.99249 0
M  V30 8295 N 793.472 2.64387 4.312 0
M  V30 8296 C 791.77 1.28828 4.26989 0
M  V30 8297 C 792.471 3.32296 4.77446 0
M  V30 8298 N 791.447 2.59674 4.77567 0
M  V30 8299 H 795.249 1.78104 2.33786 0
M  V30 8300 H 792.763 1.0623 1.22837 0
M  V30 8301 H 794.76 0.129331 4.16699 0
M  V30 8302 H 793.42 -0.542847 3.2013 0
M  V30 8303 H 794.431 3.01351 4.21198 0
M  V30 8304 H 791.108 0.43353 4.15243 0
M  V30 8305 H 792.498 4.35939 5.11279 0
M  V30 8306 N 795.218 -1.23913 0.973828 0
M  V30 8307 C 796.165 -2.25132 0.508366 0
M  V30 8308 C 797.135 -1.59908 -0.449307 0
M  V30 8309 O 798.32 -1.87405 -0.358313 0
M  V30 8310 C 795.46 -3.4458 -0.189422 0
M  V30 8311 C 794.573 -4.24381 0.807738 0
M  V30 8312 C 793.708 -5.31131 0.0854315 0
M  V30 8313 C 792.747 -6.02635 1.07225 0
M  V30 8314 N 791.884 -7.01073 0.379535 0
M  V30 8315 H 796.724 -2.64313 1.37632 0
M  V30 8316 H 794.261 -1.29924 0.689802 0
M  V30 8317 H 796.219 -4.12706 -0.610733 0
M  V30 8318 H 794.849 -3.06218 -1.02129 0
M  V30 8319 H 793.901 -3.55735 1.34747 0
M  V30 8320 H 795.213 -4.73778 1.55998 0
M  V30 8321 H 794.367 -6.05422 -0.393572 0
M  V30 8322 H 793.106 -4.82658 -0.699461 0
M  V30 8323 H 792.111 -5.27143 1.56207 0
M  V30 8324 H 793.336 -6.53197 1.85769 0
M  V30 8325 H 791.282 -6.54862 -0.386269 0
M  V30 8326 H 791.199 -7.48382 1.07054 0
M  V30 8327 H 792.467 -7.79462 -0.0772984 0
M  V30 8328 N 796.696 -0.74468 -1.38897 0
M  V30 8329 C 797.646 -0.0869375 -2.27834 0
M  V30 8330 C 798.63 0.702553 -1.44751 0
M  V30 8331 O 799.822 0.569972 -1.67572 0
M  V30 8332 C 796.951 0.812232 -3.33553 0
M  V30 8333 C 796.037 0.0163713 -4.24097 0
M  V30 8334 N 796.428 -1.01547 -4.95502 0
M  V30 8335 C 794.726 0.244554 -4.45329 0
M  V30 8336 C 795.427 -1.49622 -5.62128 0
M  V30 8337 N 794.403 -0.813097 -5.37485 0
M  V30 8338 H 798.205 -0.877345 -2.80499 0
M  V30 8339 H 795.719 -0.579898 -1.51694 0
M  V30 8340 H 797.716 1.299 -3.96146 0
M  V30 8341 H 796.376 1.60169 -2.82446 0
M  V30 8342 H 797.387 -1.39707 -4.98701 0
M  V30 8343 H 794.064 1.00806 -4.05147 0
M  V30 8344 H 795.454 -2.35523 -6.29268 0
M  V30 8345 N 798.174 1.49689 -0.493057 0
M  V30 8346 C 799.421 2.02427 0.0542714 0
M  V30 8347 C 799.749 1.37339 1.37725 0
M  V30 8348 O 799.004 0.495523 1.89323 0
M  V30 8349 C 799.303 3.56427 0.263536 0
M  V30 8350 C 798.969 4.40111 -0.98046 0
M  V30 8351 C 797.631 4.62699 -1.32148 0
M  V30 8352 C 799.983 4.88847 -1.80771 0
M  V30 8353 C 797.311 5.31268 -2.48941 0
M  V30 8354 C 799.663 5.587 -2.96711 0
M  V30 8355 C 798.327 5.79536 -3.31202 0
M  V30 8356 H 797.597 0.740734 0.0198593 0
M  V30 8357 H 800.244 1.80073 -0.651603 0
M  V30 8358 H 798.549 3.77416 1.05186 0
M  V30 8359 H 800.246 3.94819 0.701348 0
M  V30 8360 H 796.836 4.22765 -0.704814 0
M  V30 8361 H 801.02 4.71231 -1.55741 0
M  V30 8362 H 796.276 5.45603 -2.75911 0
M  V30 8363 H 800.45 5.9544 -3.61143 0
M  V30 8364 H 798.077 6.32443 -4.21805 0
M  V30 8365 N 799.652 0.226554 1.55963 0
M  V30 8366 C 800.88 -0.408507 2.02827 0
M  V30 8367 C 801.295 -1.52994 1.10627 0
M  V30 8368 O 800.652 -1.82126 0.116809 0
M  V30 8369 C 800.703 -0.93545 3.49187 0
M  V30 8370 O 800.424 0.141273 4.37872 0
M  V30 8371 C 801.925 -1.64325 4.11719 0
M  V30 8372 H 799.145 -0.099442 0.66359 0
M  V30 8373 H 801.689 0.344471 2.01578 0
M  V30 8374 H 799.844 -1.63868 3.51036 0
M  V30 8375 H 800.258 -0.25558 5.23877 0
M  V30 8376 H 801.732 -1.9639 5.15883 0
M  V30 8377 H 802.209 -2.55815 3.57009 0
M  V30 8378 H 802.815 -0.9851 4.13734 0
M  V30 8379 N 801.13 -1.57531 -0.0467866 0
M  V30 8380 C 802.04 -2.08768 -1.07018 0
M  V30 8381 C 803.056 -1.02245 -1.40791 0
M  V30 8382 O 804.232 -1.33873 -1.50466 0
M  V30 8383 C 801.297 -2.54221 -2.35738 0
M  V30 8384 C 800.358 -3.75152 -2.08709 0
M  V30 8385 C 799.591 -4.18428 -3.31291 0
M  V30 8386 O 799.814 -3.61365 -4.4133 0
M  V30 8387 O 798.748 -5.11018 -3.18032 0
M  V30 8388 H 802.574 -2.96334 -0.664812 0
M  V30 8389 H 800.159 -1.47074 -0.262605 0
M  V30 8390 H 802.041 -2.83866 -3.11445 0
M  V30 8391 H 800.716 -1.69774 -2.75605 0
M  V30 8392 H 799.623 -3.50553 -1.30627 0
M  V30 8393 H 800.956 -4.60528 -1.73708 0
M  V30 8394 N 802.608 0.318715 -1.54344 0
M  V30 8395 C 803.885 1.07461 -1.63437 0
M  V30 8396 C 804.265 2.05771 -0.47131 0
M  V30 8397 O 803.613 2.22175 0.53391 0
M  V30 8398 C 803.823 1.77224 -3.00654 0
M  V30 8399 C 805.171 2.30069 -3.56866 0
M  V30 8400 O 806.195 1.87284 -3.0299 0
M  V30 8401 O 805.054 3.08412 -4.51159 0
M  V30 8402 H 802.148 0.495627 -0.66203 0
M  V30 8403 H 804.694 0.318218 -1.6669 0
M  V30 8404 H 803.466 1.05742 -3.76742 0
M  V30 8405 H 803.089 2.59662 -3.01101 0
M  V30 8406 N 804.086 1.46499 0.581025 0
M  V30 8407 C 805.335 1.51162 1.3354 0
M  V30 8408 C 805.648 0.168433 1.94873 0
M  V30 8409 O 806.854 0.092883 2.71341 0
M  V30 8410 C 805.31 2.66362 2.42032 0
M  V30 8411 C 804.918 4.07109 1.86994 0
M  V30 8412 C 806.662 2.80297 3.188 0
M  V30 8413 C 804.569 5.13645 2.93125 0
M  V30 8414 H 803.499 0.562576 0.502021 0
M  V30 8415 H 806.15 1.72713 0.619863 0
M  V30 8416 H 804.532 2.38143 3.16392 0
M  V30 8417 H 805.706 4.45125 1.19166 0
M  V30 8418 H 804.021 3.97854 1.22887 0
M  V30 8419 H 806.618 3.5706 3.9801 0
M  V30 8420 H 806.961 1.87875 3.71495 0
M  V30 8421 H 807.494 3.0817 2.51547 0
M  V30 8422 H 804.233 6.07866 2.45315 0
M  V30 8423 H 803.753 4.80172 3.59437 0
M  V30 8424 H 805.432 5.39562 3.57046 0
M  V30 8425 N 805.565 -0.825799 1.34232 0
M  V30 8426 C 806.497 -1.94401 1.21413 0
M  V30 8427 C 807.51 -1.6218 0.141902 0
M  V30 8428 O 808.699 -1.74109 0.3935 0
M  V30 8429 C 805.799 -3.28257 0.842635 0
M  V30 8430 C 804.972 -3.88521 2.00924 0
M  V30 8431 C 804.031 -5.00752 1.61661 0
M  V30 8432 O 803.057 -5.19201 2.33279 0
M  V30 8433 N 804.259 -5.78084 0.52911 0
M  V30 8434 H 807.024 -2.05931 2.17744 0
M  V30 8435 H 804.585 -1.00223 1.27149 0
M  V30 8436 H 806.577 -4.00781 0.561822 0
M  V30 8437 H 805.147 -3.12585 -0.0304029 0
M  V30 8438 H 804.367 -3.08425 2.45495 0
M  V30 8439 H 805.655 -4.25516 2.78951 0
M  V30 8440 H 805.053 -5.65661 -0.0663322 0
M  V30 8441 H 803.61 -6.51072 0.308017 0
M  V30 8442 N 807.043 -1.17915 -1.04565 0
M  V30 8443 C 808.271 -0.99616 -1.8134 0
M  V30 8444 C 808.686 0.455509 -1.83223 0
M  V30 8445 O 808.043 1.31636 -1.26405 0
M  V30 8446 C 808.094 -1.53758 -3.27171 0
M  V30 8447 O 807.815 -2.93241 -3.25486 0
M  V30 8448 C 809.316 -1.40007 -4.2061 0
M  V30 8449 H 806.536 -0.352055 -0.571225 0
M  V30 8450 H 809.08 -1.56349 -1.31815 0
M  V30 8451 H 807.235 -1.01213 -3.73945 0
M  V30 8452 H 807.649 -3.18392 -4.16805 0
M  V30 8453 H 809.123 -1.82695 -5.2089 0
M  V30 8454 H 809.6 -0.348054 -4.37819 0
M  V30 8455 H 810.206 -1.916 -3.79697 0
M  V30 8456 N 808.521 1.23394 -0.980386 0
M  V30 8457 C 809.937 1.43961 -0.689008 0
M  V30 8458 C 810.137 1.87229 0.744809 0
M  V30 8459 O 809.193 2.01831 1.51725 0
M  V30 8460 C 810.506 2.49128 -1.68392 0
M  V30 8461 C 812.054 2.62941 -1.69796 0
M  V30 8462 C 812.529 3.71317 -2.68118 0
M  V30 8463 N 814.02 3.7876 -2.66636 0
M  V30 8464 C 814.755 4.62176 -3.39383 0
M  V30 8465 N 814.251 5.49682 -4.21688 0
M  V30 8466 N 816.044 4.56372 -3.28147 0
M  V30 8467 H 808.195 0.936106 -1.90659 0
M  V30 8468 H 810.458 0.473023 -0.821555 0
M  V30 8469 H 810.164 2.24252 -2.70931 0
M  V30 8470 H 810.038 3.47514 -1.46675 0
M  V30 8471 H 812.425 2.87168 -0.679617 0
M  V30 8472 H 812.506 1.64871 -1.95579 0
M  V30 8473 H 812.15 3.4784 -3.70095 0
M  V30 8474 H 812.08 4.68929 -2.3961 0
M  V30 8475 H 814.571 3.16226 -2.06904 0
M  V30 8476 H 814.884 6.10323 -4.74053 0
M  V30 8477 H 813.229 5.49306 -4.25779 0
M  V30 8478 H 816.42 3.87029 -2.63299 0
M  V30 8479 H 816.593 5.21153 -3.85102 0
M  V30 8480 N 809.999 0.752036 1.385 0
M  V30 8481 C 810.931 0.0835089 2.29048 0
M  V30 8482 C 811.944 -0.685402 1.47669 0
M  V30 8483 O 813.133 -0.526748 1.70551 0
M  V30 8484 C 810.233 -0.905772 3.26572 0
M  V30 8485 C 809.406 -0.194828 4.36966 0
M  V30 8486 C 808.465 -1.09464 5.14688 0
M  V30 8487 O 807.491 -0.565743 5.66381 0
M  V30 8488 N 808.693 -2.42287 5.2752 0
M  V30 8489 H 811.458 0.861142 2.87062 0
M  V30 8490 H 809.019 0.602689 1.50264 0
M  V30 8491 H 811.011 -1.51072 3.75446 0
M  V30 8492 H 809.581 -1.58449 2.69467 0
M  V30 8493 H 808.801 0.590812 3.89747 0
M  V30 8494 H 810.089 0.297189 5.07931 0
M  V30 8495 H 809.487 -2.87715 4.8707 0
M  V30 8496 H 808.044 -2.97836 5.79773 0
M  V30 8497 N 811.477 -1.49425 0.500989 0
M  V30 8498 C 812.707 -2.06561 -0.0402858 0
M  V30 8499 C 813.115 -1.36157 -1.31369 0
M  V30 8500 O 812.458 -0.433618 -1.78509 0
M  V30 8501 C 812.52 -3.5765 -0.364269 0
M  V30 8502 C 812.184 -4.49739 0.811417 0
M  V30 8503 C 813.181 -4.91255 1.7019 0
M  V30 8504 C 810.866 -4.92036 1.01022 0
M  V30 8505 C 812.86 -5.73806 2.77534 0
M  V30 8506 C 810.547 -5.74364 2.08683 0
M  V30 8507 C 811.545 -6.15154 2.96774 0
M  V30 8508 O 811.233 -6.95836 4.02577 0
M  V30 8509 H 810.965 -0.67578 0.0172357 0
M  V30 8510 H 813.519 -1.93193 0.697553 0
M  V30 8511 H 811.749 -3.69026 -1.1557 0
M  V30 8512 H 813.438 -3.97025 -0.844156 0
M  V30 8513 H 814.204 -4.59222 1.56013 0
M  V30 8514 H 810.083 -4.59789 0.333929 0
M  V30 8515 H 813.627 -6.05564 3.4632 0
M  V30 8516 H 809.524 -6.0581 2.22855 0
M  V30 8517 H 810.292 -7.14142 3.9993 0
M  V30 8518 N 812.955 -0.234822 -1.55841 0
M  V30 8519 C 814.371 0.120295 -1.59146 0
M  V30 8520 C 814.571 1.57896 -1.25184 0
M  V30 8521 O 813.627 2.32138 -0.993393 0
M  V30 8522 C 814.94 -0.217984 -2.99909 0
M  V30 8523 C 816.488 -0.161298 -3.12584 0
M  V30 8524 C 816.963 -0.473438 -4.55546 0
M  V30 8525 N 818.454 -0.423494 -4.6126 0
M  V30 8526 C 819.189 -0.638334 -5.69836 0
M  V30 8527 N 818.685 -0.915659 -6.86722 0
M  V30 8528 N 820.478 -0.569864 -5.59204 0
M  V30 8529 H 812.629 -1.18622 -1.76189 0
M  V30 8530 H 814.892 -0.476426 -0.819587 0
M  V30 8531 H 814.598 -1.2309 -3.29457 0
M  V30 8532 H 814.472 0.460707 -3.74376 0
M  V30 8533 H 816.859 0.842274 -2.82825 0
M  V30 8534 H 816.94 -0.873661 -2.40418 0
M  V30 8535 H 816.584 -1.47451 -4.86025 0
M  V30 8536 H 816.514 0.260268 -5.25956 0
M  V30 8537 H 819.005 -0.217383 -3.77274 0
M  V30 8538 H 819.318 -1.06734 -7.65394 0
M  V30 8539 H 817.663 -0.953 -6.88435 0
M  V30 8540 H 820.854 -0.35334 -4.66765 0
M  V30 8541 H 821.027 -0.740698 -6.43753 0
M  V30 8542 N 814.433 1.57553 0.0384317 0
M  V30 8543 C 815.658 1.93485 0.746872 0
M  V30 8544 C 816.083 0.834069 1.68597 0
M  V30 8545 O 815.441 -0.210902 1.80069 0
M  V30 8546 C 815.489 3.28463 1.4881 0
M  V30 8547 O 814.593 3.20051 2.60079 0
M  V30 8548 H 813.934 0.632675 0.201539 0
M  V30 8549 H 816.464 2.046 -0.00329815 0
M  V30 8550 H 816.474 3.63132 1.86009 0
M  V30 8551 H 815.149 4.08147 0.799297 0
M  V30 8552 H 813.726 2.96998 2.25492 0
M  V30 8553 N 815.911 -0.310526 1.54511 0
M  V30 8554 C 817.16 -1.0445 1.72549 0
M  V30 8555 C 817.473 -1.88748 0.513172 0
M  V30 8556 O 818.679 -2.65338 0.575165 0
M  V30 8557 C 817.135 -1.90665 3.05246 0
M  V30 8558 C 816.743 -1.11415 4.33925 0
M  V30 8559 C 818.487 -2.63719 3.32645 0
M  V30 8560 C 816.394 -1.96852 5.57677 0
M  V30 8561 H 815.324 -0.393676 0.643067 0
M  V30 8562 H 817.975 -0.302003 1.80998 0
M  V30 8563 H 816.357 -2.68864 2.90737 0
M  V30 8564 H 817.531 -0.378956 4.59239 0
M  V30 8565 H 815.846 -0.499853 4.13389 0
M  V30 8566 H 818.443 -3.27974 4.223 0
M  V30 8567 H 818.786 -3.32047 2.51098 0
M  V30 8568 H 819.319 -1.92574 3.48081 0
M  V30 8569 H 816.058 -1.33009 6.41864 0
M  V30 8570 H 815.578 -2.68069 5.36562 0
M  V30 8571 H 817.257 -2.55127 5.94575 0
M  V30 8572 N 817.389 -1.46805 -0.573248 0
M  V30 8573 C 818.299 -1.60687 -1.70929 0
M  V30 8574 C 819.315 -0.490084 -1.66956 0
M  V30 8575 O 820.491 -0.755482 -1.86693 0
M  V30 8576 C 817.556 -1.60259 -3.07438 0
M  V30 8577 C 816.617 -2.83242 -3.22603 0
M  V30 8578 C 815.85 -2.82825 -4.52599 0
M  V30 8579 O 816.073 -1.92113 -5.37074 0
M  V30 8580 O 815.007 -3.74489 -4.71213 0
M  V30 8581 H 818.833 -2.56782 -1.62163 0
M  V30 8582 H 816.418 -1.29706 -0.741399 0
M  V30 8583 H 818.3 -1.6275 -3.88704 0
M  V30 8584 H 816.975 -0.673268 -3.16621 0
M  V30 8585 H 815.882 -2.86302 -2.40794 0
M  V30 8586 H 817.215 -3.75415 -3.18315 0
M  V30 8587 N 818.867 0.818669 -1.34668 0
M  V30 8588 C 820.113 1.57746 -1.27453 0
M  V30 8589 C 820.446 1.93588 0.154077 0
M  V30 8590 O 819.721 1.60371 1.10051 0
M  V30 8591 C 820.004 2.87414 -2.16945 0
M  V30 8592 C 819.857 2.58125 -3.68363 0
M  V30 8593 C 821.176 3.89021 -2.05792 0
M  V30 8594 H 818.295 0.572339 -0.464324 0
M  V30 8595 H 820.937 0.942784 -1.64959 0
M  V30 8596 H 819.087 3.41576 -1.85089 0
M  V30 8597 H 820.759 2.10239 -4.10606 0
M  V30 8598 H 819.002 1.91503 -3.89242 0
M  V30 8599 H 819.673 3.5061 -4.26353 0
M  V30 8600 H 822.149 3.44224 -2.33771 0
M  V30 8601 H 821.025 4.77548 -2.70628 0
M  V30 8602 H 821.286 4.29786 -1.03618 0
M  V30 8603 N 820.346 1.18468 1.03938 0
M  V30 8604 C 821.276 0.936389 2.13902 0
M  V30 8605 C 822.257 -0.126381 1.6963 0
M  V30 8606 O 823.442 0.0264757 1.94182 0
M  V30 8607 C 820.572 0.462729 3.44204 0
M  V30 8608 C 819.526 1.46613 4.02105 0
M  V30 8609 C 818.852 0.84994 5.27902 0
M  V30 8610 C 820.152 2.84323 4.3813 0
M  V30 8611 H 821.846 1.85602 2.3493 0
M  V30 8612 H 819.392 0.893806 1.12903 0
M  V30 8613 H 821.345 0.276382 4.20493 0
M  V30 8614 H 820.069 -0.492477 3.22866 0
M  V30 8615 H 818.728 1.63944 3.27899 0
M  V30 8616 H 818.376 -0.112493 5.02874 0
M  V30 8617 H 818.076 1.51988 5.67603 0
M  V30 8618 H 819.6 0.674152 6.06867 0
M  V30 8619 H 821.014 2.70636 5.054 0
M  V30 8620 H 819.411 3.48012 4.88884 0
M  V30 8621 H 820.481 3.37776 3.47901 0
M  V30 8622 N 821.824 -1.22873 0.986916 0
M  V30 8623 C 823.073 -1.90772 0.654911 0
M  V30 8624 C 823.386 -1.77768 -0.81595 0
M  V30 8625 O 824.592 -2.40529 -1.25929 0
M  V30 8626 C 823.048 -3.42003 1.12081 0
M  V30 8627 C 822.656 -3.63655 2.61647 0
M  V30 8628 C 824.4 -4.15638 0.862854 0
M  V30 8629 C 822.307 -5.08555 3.01871 0
M  V30 8630 H 821.237 -0.714362 0.241252 0
M  V30 8631 H 823.888 -1.39196 1.19568 0
M  V30 8632 H 822.27 -3.92725 0.508207 0
M  V30 8633 H 823.444 -3.2345 3.28202 0
M  V30 8634 H 821.759 -3.03341 2.8526 0
M  V30 8635 H 824.356 -5.22425 1.13915 0
M  V30 8636 H 824.699 -4.15814 -0.201036 0
M  V30 8637 H 825.232 -3.70924 1.43736 0
M  V30 8638 H 821.971 -5.13514 4.07411 0
M  V30 8639 H 821.491 -5.49684 2.40015 0
M  V30 8640 H 823.17 -5.76936 2.92839 0
M  V30 8641 N 823.302 -0.75937 -1.38099 0
M  V30 8642 C 824.55 -0.317485 -1.99591 0
M  V30 8643 C 824.871 1.10628 -1.60581 0
M  V30 8644 O 824.141 1.7575 -0.865378 0
M  V30 8645 H 822.721 -0.114397 -0.738189 0
M  V30 8646 H 825.383 -0.974749 -1.68774 0
M  V30 8647 H 824.479 -0.385227 -3.09713 0
M  V30 8648 N 824.78 1.49157 -0.508906 0
M  V30 8649 C 825.743 2.27784 0.25434 0
M  V30 8650 C 826.743 1.34132 0.88686 0
M  V30 8651 O 827.933 1.5722 0.750168 0
M  V30 8652 C 825.065 3.12347 1.36573 0
M  V30 8653 H 826.258 2.96718 -0.435714 0
M  V30 8654 H 823.811 1.54052 -0.264128 0
M  V30 8655 H 824.546 2.47997 2.08969 0
M  V30 8656 H 824.331 3.81213 0.917543 0
M  V30 8657 H 825.821 3.71712 1.90315 0
M  V30 8658 N 826.258 0.243083 1.55714 0
M  V30 8659 C 827.506 -0.381964 1.98458 0
M  V30 8660 C 827.827 -1.58745 1.13247 0
M  V30 8661 O 827.097 -1.94723 0.214384 0
M  V30 8662 H 825.677 -0.144114 0.732967 0
M  V30 8663 H 828.339 0.340985 1.91894 0
M  V30 8664 H 827.435 -0.693702 3.04293 0
M  V30 8665 N 827.736 -1.57571 -0.0300757 0
M  V30 8666 C 828.966 -1.93204 -0.731828 0
M  V30 8667 C 829.374 -0.841156 -1.69473 0
M  V30 8668 O 828.717 0.191231 -1.82702 0
M  V30 8669 C 828.779 -3.2463 -1.54453 0
M  V30 8670 C 828.443 -4.50862 -0.746507 0
M  V30 8671 C 829.44 -5.19879 -0.0472309 0
M  V30 8672 C 827.125 -4.9738 -0.701347 0
M  V30 8673 C 829.119 -6.33692 0.686518 0
M  V30 8674 C 826.806 -6.11089 0.036148 0
M  V30 8675 C 827.804 -6.791 0.728841 0
M  V30 8676 O 827.492 -7.90635 1.45436 0
M  V30 8677 H 827.224 -0.6423 -0.210775 0
M  V30 8678 H 829.778 -2.05398 0.00804194 0
M  V30 8679 H 828.008 -3.0876 -2.32818 0
M  V30 8680 H 829.697 -3.45597 -2.1288 0
M  V30 8681 H 830.463 -4.84945 -0.0731582 0
M  V30 8682 H 826.342 -4.44288 -1.23001 0
M  V30 8683 H 829.886 -6.86711 1.22773 0
M  V30 8684 H 825.783 -6.45468 0.064002 0
M  V30 8685 H 826.551 -8.06988 1.36794 0
M  V30 8686 N 829.214 0.302327 -1.54673 0
M  V30 8687 C 830.439 1.06103 -1.78205 0
M  V30 8688 C 830.864 1.80204 -0.53926 0
M  V30 8689 O 830.222 1.73975 0.510142 0
M  V30 8690 C 830.27 2.01829 -2.98827 0
M  V30 8691 O 829.374 3.10108 -2.71858 0
M  V30 8692 H 828.715 0.30487 -0.589873 0
M  V30 8693 H 831.245 0.340153 -2.01753 0
M  V30 8694 H 831.255 2.44319 -3.2676 0
M  V30 8695 H 829.93 1.473 -3.88942 0
M  V30 8696 H 828.507 2.72142 -2.54937 0
M  V30 8697 N 830.692 1.47107 0.565454 0
M  V30 8698 C 831.92 1.56909 1.3486 0
M  V30 8699 C 832.335 0.216312 1.87557 0
M  V30 8700 O 831.692 -0.789168 1.64555 0
M  V30 8701 C 831.743 2.58776 2.52423 0
M  V30 8702 O 831.464 3.888 2.01906 0
M  V30 8703 C 832.965 2.78683 3.44747 0
M  V30 8704 H 830.185 0.530096 0.411387 0
M  V30 8705 H 832.729 1.92658 0.685782 0
M  V30 8706 H 830.884 2.25983 3.1466 0
M  V30 8707 H 831.298 4.44393 2.78595 0
M  V30 8708 H 832.772 3.53842 4.23674 0
M  V30 8709 H 833.249 1.86208 3.97773 0
M  V30 8710 H 833.855 3.12641 2.88333 0
M  V30 8711 N 832.17 -0.811516 1.35101 0
M  V30 8712 C 833.581 -1.38515 1.25182 0
M  V30 8713 C 833.932 -1.95846 -0.117883 0
M  V30 8714 O 833.057 -1.90925 -1.01866 0
M  V30 8715 C 833.652 -2.51813 2.26662 0
M  V30 8716 C 832.211 -3.05052 2.20499 0
M  V30 8717 C 831.358 -1.77987 2.12641 0
M  V30 8718 H 834.309 -0.614959 1.46301 0
M  V30 8719 H 834.33 -3.30228 1.89023 0
M  V30 8720 H 833.842 -2.10057 3.2634 0
M  V30 8721 H 831.943 -3.51285 1.24215 0
M  V30 8722 H 832.056 -3.63368 3.1225 0
M  V30 8723 H 830.42 -1.99342 1.5854 0
M  V30 8724 H 831.203 -1.38389 3.14171 0
M  V30 8725 N 833.648 -1.19017 -1.03309 0
M  V30 8726 C 834.611 -0.926076 -2.09658 0
M  V30 8727 C 835.611 0.0917077 -1.60538 0
M  V30 8728 O 836.801 -0.142574 -1.73616 0
M  V30 8729 C 833.933 -0.390958 -3.38651 0
M  V30 8730 H 835.126 -1.86923 -2.3452 0
M  V30 8731 H 832.679 -1.00325 -1.19853 0
M  V30 8732 H 833.414 0.558446 -3.19456 0
M  V30 8733 H 833.199 -1.12474 -3.75622 0
M  V30 8734 H 834.689 -0.225131 -4.16993 0
M  V30 8735 N 835.127 1.22348 -0.993418 0
M  V30 8736 C 836.404 1.86632 -0.585495 0
M  V30 8737 C 836.784 1.89156 0.937187 0
M  V30 8738 O 836.132 1.38247 1.81934 0
M  V30 8739 C 836.342 3.27481 -1.20652 0
M  V30 8740 C 837.69 4.03971 -1.30738 0
M  V30 8741 O 838.714 3.3675 -1.16096 0
M  V30 8742 O 837.573 5.24302 -1.54173 0
M  V30 8743 H 834.667 0.802704 -0.198984 0
M  V30 8744 H 837.213 1.30122 -1.08933 0
M  V30 8745 H 835.985 3.20281 -2.24802 0
M  V30 8746 H 835.608 3.91597 -0.688312 0
M  V30 8747 N 836.605 0.766683 1.37694 0
M  V30 8748 C 837.854 0.325425 1.99057 0
M  V30 8749 C 838.167 -1.10275 1.61551 0
M  V30 8750 O 839.373 -1.64513 2.1598 0
M  V30 8751 C 837.829 0.530886 3.55963 0
M  V30 8752 C 837.437 1.96899 4.02411 0
M  V30 8753 C 839.181 0.152997 4.24224 0
M  V30 8754 C 837.088 2.12232 5.52007 0
M  V30 8755 H 836.018 0.117929 0.744721 0
M  V30 8756 H 838.669 0.945091 1.5729 0
M  V30 8757 H 837.051 -0.158162 3.95684 0
M  V30 8758 H 838.225 2.69258 3.73948 0
M  V30 8759 H 836.54 2.303 3.46916 0
M  V30 8760 H 839.137 0.24614 5.34133 0
M  V30 8761 H 839.48 -0.896096 4.06541 0
M  V30 8762 H 840.013 0.794398 3.89787 0
M  V30 8763 H 836.752 3.15442 5.7461 0
M  V30 8764 H 836.272 1.4435 5.82171 0
M  V30 8765 H 837.951 1.9185 6.17902 0
M  V30 8766 N 838.083 -1.48885 0.516809 0
M  V30 8767 C 839.329 -2.03395 -0.0140225 0
M  V30 8768 C 839.684 -1.38808 -1.33229 0
M  V30 8769 O 838.977 -0.520104 -1.84406 0
M  V30 8770 C 839.171 -3.56801 -0.206798 0
M  V30 8771 C 839 -4.36259 1.09124 0
M  V30 8772 C 837.77 -4.77689 1.64745 0
M  V30 8773 C 839.968 -4.73881 1.99854 0
M  V30 8774 N 837.95 -5.41634 2.88975 0
M  V30 8775 C 839.321 -5.37707 3.08661 0
M  V30 8776 C 841.376 -4.55816 2.00341 0
M  V30 8777 C 840.079 -5.85379 4.18001 0
M  V30 8778 C 842.105 -5.04459 3.08666 0
M  V30 8779 C 841.467 -5.68299 4.16191 0
M  V30 8780 H 837.566 -0.781169 0.036042 0
M  V30 8781 H 840.15 -1.81867 0.695173 0
M  V30 8782 H 838.321 -3.78181 -0.885064 0
M  V30 8783 H 840.053 -3.9795 -0.736053 0
M  V30 8784 H 836.808 -4.58392 1.19054 0
M  V30 8785 H 837.232 -5.78181 3.52187 0
M  V30 8786 H 841.874 -4.05851 1.18511 0
M  V30 8787 H 839.592 -6.34356 5.00618 0
M  V30 8788 H 843.178 -4.92281 3.10082 0
M  V30 8789 H 842.058 -6.05257 4.98631 0
M  V30 8790 N 839.561 -0.251338 -1.55583 0
M  V30 8791 C 840.786 0.379136 -2.03905 0
M  V30 8792 C 841.211 1.50428 -1.12929 0
M  V30 8793 O 840.569 1.80882 -0.123114 0
M  V30 8794 C 840.617 0.86009 -3.50193 0
M  V30 8795 O 839.721 1.96932 -3.62342 0
M  V30 8796 H 839.062 0.0820183 -0.658915 0
M  V30 8797 H 841.592 -0.378692 -2.01065 0
M  V30 8798 H 841.602 1.16214 -3.91099 0
M  V30 8799 H 840.277 0.0367559 -4.15884 0
M  V30 8800 H 838.854 1.67163 -3.33333 0
M  V30 8801 N 841.039 1.57585 0.0217189 0
M  V30 8802 C 842.267 1.93871 0.722619 0
M  V30 8803 C 842.682 0.851706 1.68498 0
M  V30 8804 O 842.039 -0.17127 1.81695 0
M  V30 8805 C 842.09 3.30114 1.47333 0
M  V30 8806 O 841.811 4.34639 0.549597 0
M  V30 8807 C 843.312 3.80727 2.27072 0
M  V30 8808 H 840.532 0.639671 0.202637 0
M  V30 8809 H 843.076 2.04487 -0.0229414 0
M  V30 8810 H 841.231 3.20872 2.17071 0
M  V30 8811 H 841.645 5.13326 1.07686 0
M  V30 8812 H 843.119 4.78547 2.75131 0
M  V30 8813 H 843.596 3.12301 3.08812 0
M  V30 8814 H 844.202 3.93075 1.62395 0
M  V30 8815 N 842.517 -0.29412 1.54831 0
M  V30 8816 C 843.48 -1.3461 1.85507 0
M  V30 8817 C 844.48 -1.43359 0.728343 0
M  V30 8818 O 845.67 -1.42875 0.996609 0
M  V30 8819 C 842.802 -2.73012 2.0415 0
M  V30 8820 H 843.995 -1.08651 2.79526 0
M  V30 8821 H 841.548 -0.531138 1.46999 0
M  V30 8822 H 842.283 -3.04183 1.12441 0
M  V30 8823 H 842.068 -2.68051 2.86166 0
M  V30 8824 H 843.558 -3.49061 2.29229 0
M  V30 8825 N 843.995 -1.47404 -0.557645 0
M  V30 8826 C 845.235 -1.55585 -1.32562 0
M  V30 8827 C 845.599 -0.212926 -1.90816 0
M  V30 8828 O 846.8 -0.169574 -2.68265 0
M  V30 8829 C 845.071 -2.64249 -2.40639 0
M  V30 8830 S 846.63 -2.9201 -3.2753 0
M  V30 8831 H 843.448 -0.549409 -0.451298 0
M  V30 8832 H 846.05 -1.84782 -0.638438 0
M  V30 8833 H 844.754 -3.60421 -1.96277 0
M  V30 8834 H 844.285 -2.36866 -3.14099 0
M  V30 8835 H 846.3 -2.29191 -4.40098 0
M  V30 8836 N 845.473 0.80434 -1.35529 0
M  V30 8837 C 846.406 1.92222 -1.22987 0
M  V30 8838 C 847.384 1.62177 -0.117269 0
M  V30 8839 O 848.568 1.86321 -0.285761 0
M  V30 8840 C 845.695 3.26682 -0.894223 0
M  V30 8841 C 844.741 3.75674 -2.01919 0
M  V30 8842 S 845.574 3.93209 -3.6352 0
M  V30 8843 C 846.73 5.30568 -3.32037 0
M  V30 8844 H 846.963 2.02567 -2.1761 0
M  V30 8845 H 844.496 0.961961 -1.20771 0
M  V30 8846 H 846.454 4.04359 -0.707371 0
M  V30 8847 H 845.115 3.14082 0.0339729 0
M  V30 8848 H 844.308 4.73065 -1.73854 0
M  V30 8849 H 843.91 3.05001 -2.16449 0
M  V30 8850 H 846.202 6.14637 -2.85004 0
M  V30 8851 H 847.145 5.63628 -4.28636 0
M  V30 8852 H 847.553 4.96961 -2.6775 0
M  V30 8853 N 846.951 1.19563 1.02676 0
M  V30 8854 C 847.914 0.937182 2.09164 0
M  V30 8855 C 848.914 -0.0831927 1.60585 0
M  V30 8856 O 850.104 0.15178 1.73538 0
M  V30 8857 C 847.236 0.408912 3.38439 0
M  V30 8858 H 848.429 1.88164 2.33526 0
M  V30 8859 H 845.982 1.00959 1.19319 0
M  V30 8860 H 846.717 -0.541497 3.19747 0
M  V30 8861 H 846.502 1.14464 3.7502 0
M  V30 8862 H 847.992 0.247242 4.16867 0
M  V30 8863 N 848.429 -1.21819 0.999893 0
M  V30 8864 C 849.676 -1.90752 0.679694 0
M  V30 8865 C 850.004 -1.77777 -0.789014 0
M  V30 8866 O 849.259 -1.14518 -1.58695 0
M  V30 8867 C 849.558 -3.4193 1.04012 0
M  V30 8868 C 849.224 -3.75098 2.50225 0
M  V30 8869 C 847.886 -3.83861 2.90179 0
M  V30 8870 C 850.238 -3.90706 3.44961 0
M  V30 8871 C 847.566 -4.05676 4.23844 0
M  V30 8872 C 849.918 -4.14027 4.78294 0
M  V30 8873 C 848.582 -4.21016 5.17979 0
M  V30 8874 H 847.852 -0.698012 0.248718 0
M  V30 8875 H 850.499 -1.44437 1.25738 0
M  V30 8876 H 848.804 -3.89947 0.380606 0
M  V30 8877 H 850.501 -3.93532 0.770301 0
M  V30 8878 H 847.091 -3.68865 2.18258 0
M  V30 8879 H 851.275 -3.83307 3.15261 0
M  V30 8880 H 846.531 -4.09316 4.5417 0
M  V30 8881 H 850.705 -4.25046 5.51642 0
M  V30 8882 H 848.332 -4.37672 6.21568 0
M  V30 8883 N 849.908 -0.773975 -1.37286 0
M  V30 8884 C 850.818 -0.162571 -2.34036 0
M  V30 8885 C 851.834 0.677022 -1.60289 0
M  V30 8886 O 853.01 0.596423 -1.92366 0
M  V30 8887 C 850.075 0.70457 -3.39465 0
M  V30 8888 C 849.136 -0.151738 -4.29032 0
M  V30 8889 C 848.369 0.674111 -5.29426 0
M  V30 8890 O 848.592 1.91107 -5.37433 0
M  V30 8891 O 847.526 0.0821398 -6.01844 0
M  V30 8892 H 851.352 -0.962119 -2.88057 0
M  V30 8893 H 848.937 -0.53517 -1.39486 0
M  V30 8894 H 850.819 1.19954 -4.03967 0
M  V30 8895 H 849.494 1.48227 -2.87768 0
M  V30 8896 H 848.401 -0.693118 -3.67623 0
M  V30 8897 H 849.734 -0.892575 -4.84039 0
M  V30 8898 N 851.386 1.48609 -0.524698 0
M  V30 8899 C 852.316 2.32366 0.229837 0
M  V30 8900 C 853.297 1.41759 0.940129 0
M  V30 8901 O 854.482 1.7065 0.926936 0
M  V30 8902 C 851.612 3.22835 1.28043 0
M  V30 8903 C 850.566 4.22424 0.688603 0
M  V30 8904 C 849.892 5.0199 1.84146 0
M  V30 8905 C 851.192 5.21217 -0.336176 0
M  V30 8906 H 852.886 2.95698 -0.469339 0
M  V30 8907 H 850.432 1.42197 -0.227156 0
M  V30 8908 H 852.385 3.80253 1.8162 0
M  V30 8909 H 851.109 2.57492 2.00912 0
M  V30 8910 H 849.768 3.66185 0.174402 0
M  V30 8911 H 849.416 4.33076 2.5584 0
M  V30 8912 H 849.116 5.69392 1.45142 0
M  V30 8913 H 850.64 5.62259 2.38111 0
M  V30 8914 H 852.054 5.7319 0.112307 0
M  V30 8915 H 850.451 5.96642 -0.643324 0
M  V30 8916 H 851.521 4.68676 -1.24381 0
M  V30 8917 N 852.864 0.259585 1.55447 0
M  V30 8918 C 853.827 -0.621359 2.20617 0
M  V30 8919 C 854.827 -1.09317 1.17925 0
M  V30 8920 O 856.017 -0.995842 1.42929 0
M  V30 8921 C 853.149 -1.85546 2.85982 0
M  V30 8922 H 854.342 -0.0525833 2.99854 0
M  V30 8923 H 851.895 0.0101055 1.56297 0
M  V30 8924 H 852.63 -2.46515 2.10715 0
M  V30 8925 H 852.415 -1.52523 3.61219 0
M  V30 8926 H 853.905 -2.48227 3.35817 0
M  V30 8927 N 854.342 -1.57594 -0.0133615 0
M  V30 8928 C 855.57 -1.94251 -0.712328 0
M  V30 8929 C 855.985 -0.86063 -1.68043 0
M  V30 8930 O 855.342 0.161632 -1.81783 0
M  V30 8931 C 855.393 -3.30891 -1.45581 0
M  V30 8932 O 855.114 -4.34924 -0.526539 0
M  V30 8933 C 856.615 -3.81926 -2.2505 0
M  V30 8934 H 853.835 -0.640737 -0.199241 0
M  V30 8935 H 856.379 -2.04472 0.0337855 0
M  V30 8936 H 854.534 -3.22019 -2.15366 0
M  V30 8937 H 854.948 -5.1389 -1.04962 0
M  V30 8938 H 856.422 -4.79999 -2.72589 0
M  V30 8939 H 856.899 -3.13934 -3.07152 0
M  V30 8940 H 857.505 -3.93931 -1.60308 0
M  V30 8941 N 855.82 0.285905 -1.54985 0
M  V30 8942 C 857.068 1.01718 -1.74636 0
M  V30 8943 C 857.389 1.87277 -0.543342 0
M  V30 8944 O 856.659 1.90847 0.442078 0
M  V30 8945 H 855.239 0.378549 -0.643979 0
M  V30 8946 H 857.901 0.313247 -1.92366 0
M  V30 8947 H 856.997 1.66159 -2.64192 0
M  V30 8948 N 857.298 1.47698 0.54982 0
M  V30 8949 C 858.575 1.45185 1.31075 0
M  V30 8950 C 858.955 0.152768 2.10547 0
M  V30 8951 O 858.303 -0.865706 2.11466 0
M  V30 8952 C 858.513 2.70192 2.20902 0
M  V30 8953 C 859.861 3.1771 2.81683 0
M  V30 8954 O 860.885 2.70971 2.312 0
M  V30 8955 O 859.744 3.98986 3.7346 0
M  V30 8956 H 856.838 0.57892 0.590577 0
M  V30 8957 H 859.384 1.59908 0.568112 0
M  V30 8958 H 858.156 3.56269 1.61828 0
M  V30 8959 H 857.779 2.58091 3.02448 0
M  V30 8960 N 858.776 -0.797141 1.35954 0
M  V30 8961 C 860.006 -1.5835 1.32698 0
M  V30 8962 C 860.414 -1.88959 -0.0955298 0
M  V30 8963 O 859.757 -1.49987 -1.06064 0
M  V30 8964 C 859.819 -2.93529 2.0756 0
M  V30 8965 C 859.483 -2.85688 3.56695 0
M  V30 8966 C 860.48 -2.58467 4.51099 0
M  V30 8967 C 858.165 -3.04508 3.99475 0
M  V30 8968 C 860.159 -2.50157 5.8626 0
M  V30 8969 C 857.846 -2.9582 5.34728 0
M  V30 8970 C 858.844 -2.68681 6.27933 0
M  V30 8971 O 858.532 -2.59973 7.60703 0
M  V30 8972 H 858.264 -0.49807 0.457059 0
M  V30 8973 H 860.818 -0.997889 1.79531 0
M  V30 8974 H 859.048 -3.54111 1.55378 0
M  V30 8975 H 860.737 -3.54744 1.9726 0
M  V30 8976 H 861.503 -2.43638 4.19363 0
M  V30 8977 H 857.382 -3.24641 3.27306 0
M  V30 8978 H 860.926 -2.28894 6.58979 0
M  V30 8979 H 856.823 -3.10211 5.66074 0
M  V30 8980 H 857.591 -2.75511 7.70737 0
M  V30 8981 N 860.254 -1.20106 -1.0204 0
M  V30 8982 C 861.184 -0.970301 -2.12385 0
M  V30 8983 C 862.165 0.099378 -1.69809 0
M  V30 8984 O 863.35 -0.057365 -1.94115 0
M  V30 8985 C 860.48 -0.517431 -3.43424 0
M  V30 8986 C 859.434 -1.52992 -3.99722 0
M  V30 8987 C 858.76 -0.933817 -5.26483 0
M  V30 8988 C 860.06 -2.91257 -4.33551 0
M  V30 8989 H 861.754 -1.89316 -2.31948 0
M  V30 8990 H 859.3 -0.911655 -1.11467 0
M  V30 8991 H 861.253 -0.343243 -4.2 0
M  V30 8992 H 859.977 0.441049 -3.23608 0
M  V30 8993 H 858.636 -1.6914 -3.2525 0
M  V30 8994 H 858.284 0.0324763 -5.0299 0
M  V30 8995 H 857.984 -1.60999 -5.65113 0
M  V30 8996 H 859.508 -0.770614 -6.05718 0
M  V30 8997 H 860.922 -2.78642 -5.0103 0
M  V30 8998 H 859.319 -3.55745 -4.83286 0
M  V30 8999 H 860.389 -3.43269 -3.42483 0
M  V30 9000 N 861.732 1.21287 -1.00634 0
M  V30 9001 C 862.979 1.90389 -0.6898 0
M  V30 9002 C 863.307 1.78193 0.779574 0
M  V30 9003 O 862.562 1.15358 1.58085 0
M  V30 9004 C 862.861 3.41374 -1.05824 0
M  V30 9005 C 862.527 3.73766 -2.5221 0
M  V30 9006 C 861.189 3.82317 -2.92211 0
M  V30 9007 C 863.541 3.88871 -3.47028 0
M  V30 9008 C 860.869 4.03423 -4.2599 0
M  V30 9009 C 863.221 4.11484 -4.80483 0
M  V30 9010 C 861.885 4.18263 -5.20204 0
M  V30 9011 H 861.155 0.696683 -0.252416 0
M  V30 9012 H 863.802 1.43769 -1.26502 0
M  V30 9013 H 862.107 3.8974 -0.401281 0
M  V30 9014 H 863.804 3.93118 -0.79116 0
M  V30 9015 H 860.394 3.67702 -2.20212 0
M  V30 9016 H 864.578 3.8163 -3.17289 0
M  V30 9017 H 859.834 4.06902 -4.56334 0
M  V30 9018 H 864.008 4.22115 -5.53888 0
M  V30 9019 H 861.635 4.34369 -6.23881 0
M  V30 9020 N 863.21 0.781244 1.36873 0
M  V30 9021 C 864.12 0.174981 2.33947 0
M  V30 9022 C 865.136 -0.668512 1.60645 0
M  V30 9023 O 866.312 -0.586213 1.9268 0
M  V30 9024 C 863.377 -0.686557 3.39834 0
M  V30 9025 C 862.438 0.174489 4.28945 0
M  V30 9026 C 861.671 -0.646024 5.29776 0
M  V30 9027 O 861.894 -1.88254 5.38439 0
M  V30 9028 O 860.828 -0.0502214 6.01879 0
M  V30 9029 H 864.654 0.977382 2.87543 0
M  V30 9030 H 862.239 0.542559 1.392 0
M  V30 9031 H 864.121 -1.1781 4.04597 0
M  V30 9032 H 862.796 -1.46699 2.8855 0
M  V30 9033 H 861.703 0.712604 3.6725 0
M  V30 9034 H 863.036 0.918232 4.83559 0
M  V30 9035 N 864.689 -1.48329 0.532571 0
M  V30 9036 C 866.1 -1.86469 0.0927749 0
M  V30 9037 C 866.451 -1.44186 -1.3306 0
M  V30 9038 O 865.576 -0.833741 -1.99694 0
M  V30 9039 C 866.171 -3.38414 0.161588 0
M  V30 9040 C 864.73 -3.75739 -0.223028 0
M  V30 9041 C 863.877 -2.72377 0.520199 0
M  V30 9042 H 866.828 -1.40197 0.743678 0
M  V30 9043 H 866.849 -3.75314 -0.626059 0
M  V30 9044 H 866.361 -3.69159 1.19765 0
M  V30 9045 H 864.462 -3.50608 -1.26113 0
M  V30 9046 H 864.575 -4.78954 0.118385 0
M  V30 9047 H 862.939 -2.54678 -0.0338425 0
M  V30 9048 H 863.722 -3.05965 1.55694 0
M  V30 9049 N 866.167 -0.267825 -1.55308 0
M  V30 9050 C 867.117 0.637168 -2.18916 0
M  V30 9051 C 868.101 1.12381 -1.15149 0
M  V30 9052 O 869.293 1.0701 -1.40989 0
M  V30 9053 C 866.422 1.82423 -2.90821 0
M  V30 9054 C 865.508 1.35512 -4.01867 0
M  V30 9055 N 865.899 0.601644 -5.02209 0
M  V30 9056 C 864.197 1.63868 -4.14805 0
M  V30 9057 C 864.898 0.35596 -5.8061 0
M  V30 9058 N 863.874 0.926271 -5.3565 0
M  V30 9059 H 867.676 0.0535787 -2.93851 0
M  V30 9060 H 865.19 -0.0710577 -1.62244 0
M  V30 9061 H 867.187 2.48379 -3.34834 0
M  V30 9062 H 865.847 2.41185 -2.17394 0
M  V30 9063 H 866.858 0.249693 -5.17298 0
M  V30 9064 H 863.535 2.23618 -3.52564 0
M  V30 9065 H 864.925 -0.246994 -6.71446 0
M  V30 9066 N 867.645 1.57599 0.00500368 0
M  V30 9067 C 868.87 1.95026 0.705663 0
M  V30 9068 C 869.295 0.869643 1.6679 0
M  V30 9069 O 868.653 -0.172659 1.80476 0
M  V30 9070 C 868.701 3.31545 1.4181 0
M  V30 9071 O 867.805 3.25495 2.53232 0
M  V30 9072 H 867.146 0.636808 0.188074 0
M  V30 9073 H 869.676 2.04547 -0.046696 0
M  V30 9074 H 869.686 3.66996 1.78265 0
M  V30 9075 H 868.361 4.09751 0.712543 0
M  V30 9076 H 866.938 3.01714 2.19142 0
M  V30 9077 N 869.123 -0.277682 1.55134 0
M  V30 9078 C 870.371 -1.00791 1.75173 0
M  V30 9079 C 870.692 -1.86987 0.553266 0
M  V30 9080 O 869.962 -1.91079 -0.43195 0
M  V30 9081 H 868.542 -0.375129 0.645978 0
M  V30 9082 H 871.204 -0.303041 1.9253 0
M  V30 9083 H 870.3 -1.64756 2.6507 0
M  V30 9084 N 870.601 -1.47988 -0.541979 0
M  V30 9085 C 871.511 -1.64276 -1.67483 0
M  V30 9086 C 872.527 -0.525387 -1.65879 0
M  V30 9087 O 873.703 -0.794912 -1.85049 0
M  V30 9088 C 870.768 -1.66744 -3.03969 0
M  V30 9089 C 869.829 -2.90021 -3.16522 0
M  V30 9090 C 869.062 -2.92362 -4.46498 0
M  V30 9091 O 869.285 -2.03462 -5.32878 0
M  V30 9092 O 868.219 -3.84399 -4.63164 0
M  V30 9093 H 872.045 -2.60164 -1.5668 0
M  V30 9094 H 869.63 -1.31249 -0.71372 0
M  V30 9095 H 871.512 -1.70958 -3.85164 0
M  V30 9096 H 870.187 -0.740277 -3.15122 0
M  V30 9097 H 869.094 -2.91345 -2.34667 0
M  V30 9098 H 870.427 -3.82082 -3.10281 0
M  V30 9099 N 872.079 0.78992 -1.36375 0
M  V30 9100 C 873.356 1.53584 -1.21126 0
M  V30 9101 C 873.736 2.10124 0.202785 0
M  V30 9102 O 873.084 1.93936 1.20835 0
M  V30 9103 C 873.294 2.63117 -2.29282 0
M  V30 9104 C 874.642 3.31013 -2.65924 0
M  V30 9105 O 875.666 2.734 -2.28321 0
M  V30 9106 O 874.525 4.35129 -3.30643 0
M  V30 9107 H 871.619 0.679366 -0.471583 0
M  V30 9108 H 874.165 0.828446 -1.48104 0
M  V30 9109 H 872.937 2.19329 -3.24053 0
M  V30 9110 H 872.56 3.41476 -2.03666 0
M  V30 9111 N 873.557 1.20646 1.01402 0
M  V30 9112 C 874.787 1.04238 1.78376 0
M  V30 9113 C 875.195 -0.411327 1.84675 0
M  V30 9114 O 874.538 -1.29734 1.30057 0
M  V30 9115 C 874.6 1.55349 3.24202 0
M  V30 9116 C 874.264 3.03684 3.41504 0
M  V30 9117 C 875.261 4.01318 3.30514 0
M  V30 9118 C 872.946 3.42698 3.67237 0
M  V30 9119 C 874.94 5.35956 3.45007 0
M  V30 9120 C 872.627 4.77491 3.81373 0
M  V30 9121 C 873.625 5.73929 3.70263 0
M  V30 9122 O 873.313 7.06277 3.83963 0
M  V30 9123 H 873.045 0.366978 0.567718 0
M  V30 9124 H 875.599 1.60235 1.28506 0
M  V30 9125 H 873.829 0.93739 3.75166 0
M  V30 9126 H 875.518 1.34921 3.8282 0
M  V30 9127 H 876.284 3.72522 3.10568 0
M  V30 9128 H 872.163 2.68175 3.74971 0
M  V30 9129 H 875.707 6.11212 3.36252 0
M  V30 9130 H 871.604 5.05977 4.00821 0
M  V30 9131 H 872.372 7.13561 4.00965 0
M  V30 9132 N 875.035 -1.20752 1.01276 0
M  V30 9133 C 876.26 -1.94547 0.718769 0
M  V30 9134 C 876.685 -1.7404 -0.713563 0
M  V30 9135 O 876.043 -1.03221 -1.49047 0
M  V30 9136 C 876.091 -3.44823 1.05497 0
M  V30 9137 O 875.195 -4.12072 0.164516 0
M  V30 9138 H 874.536 -0.607931 0.267051 0
M  V30 9139 H 877.066 -1.53292 1.35509 0
M  V30 9140 H 877.076 -3.95427 1.00507 0
M  V30 9141 H 875.751 -3.59072 2.09858 0
M  V30 9142 H 874.328 -3.71909 0.271615 0
M  V30 9143 N 876.513 -0.788492 -1.36457 0
M  V30 9144 C 877.929 -0.470063 -1.52521 0
M  V30 9145 C 878.129 1.01176 -1.74258 0
M  V30 9146 O 877.185 1.79726 -1.77355 0
M  V30 9147 C 878.498 -1.2997 -2.71161 0
M  V30 9148 C 880.046 -1.2933 -2.85031 0
M  V30 9149 C 880.521 -2.10665 -4.06674 0
M  V30 9150 N 882.012 -2.08107 -4.13819 0
M  V30 9151 C 882.747 -2.6781 -5.07016 0
M  V30 9152 N 882.243 -3.36369 -6.05663 0
M  V30 9153 N 884.036 -2.57549 -4.99625 0
M  V30 9154 H 876.187 -1.7484 -1.20602 0
M  V30 9155 H 878.45 -0.743159 -0.588574 0
M  V30 9156 H 878.156 -2.35051 -2.61618 0
M  V30 9157 H 878.03 -0.940367 -3.6529 0
M  V30 9158 H 880.417 -0.250414 -2.94036 0
M  V30 9159 H 880.498 -1.69239 -1.91812 0
M  V30 9160 H 880.142 -3.14984 -3.98431 0
M  V30 9161 H 880.072 -1.68128 -4.9904 0
M  V30 9162 H 882.563 -1.58208 -3.43189 0
M  V30 9163 H 882.876 -3.79258 -6.73338 0
M  V30 9164 H 881.221 -3.40471 -6.05891 0
M  V30 9165 H 884.412 -2.0359 -4.21508 0
M  V30 9166 H 884.585 -3.0437 -5.72069 0
M  V30 9167 N 877.991 1.48044 -0.54043 0
M  V30 9168 C 879.268 1.95523 0.0547302 0
M  V30 9169 C 879.648 1.48284 1.5025 0
M  V30 9170 O 878.996 0.714037 2.17057 0
M  V30 9171 C 879.206 3.48923 -0.0733393 0
M  V30 9172 C 880.554 4.24523 0.0806026 0
M  V30 9173 O 881.578 3.562 -5.58687e-05 0
M  V30 9174 O 880.437 5.45922 0.251216 0
M  V30 9175 H 877.531 0.823728 0.073493 0
M  V30 9176 H 880.077 1.5852 -0.605768 0
M  V30 9177 H 878.849 3.76059 -1.08144 0
M  V30 9178 H 878.472 3.92648 0.625536 0
M  V30 9179 N 879.47 0.276058 1.55163 0
M  V30 9180 C 880.38 -0.621066 2.2623 0
M  V30 9181 C 881.396 -1.16931 1.28853 0
M  V30 9182 O 882.572 -1.1994 1.61791 0
M  V30 9183 C 879.637 -1.78824 2.97023 0
M  V30 9184 C 878.698 -1.27657 4.09881 0
M  V30 9185 C 877.931 -2.38812 4.77289 0
M  V30 9186 O 878.154 -3.58188 4.43912 0
M  V30 9187 O 877.088 -2.06915 5.65217 0
M  V30 9188 H 880.914 -0.0453346 3.03666 0
M  V30 9189 H 878.499 0.0434275 1.49337 0
M  V30 9190 H 880.381 -2.46877 3.41511 0
M  V30 9191 H 879.056 -2.35104 2.22503 0
M  V30 9192 H 877.963 -0.56248 3.69847 0
M  V30 9193 H 879.296 -0.759509 4.86305 0
M  V30 9194 N 880.948 -1.576 0.00335426 0
M  V30 9195 C 882.225 -1.81945 -0.718015 0
M  V30 9196 C 882.605 -0.881788 -1.91801 0
M  V30 9197 O 881.953 0.0687118 -2.28397 0
M  V30 9198 C 882.163 -3.30521 -1.12058 0
M  V30 9199 C 883.511 -3.96345 -1.52303 0
M  V30 9200 O 884.535 -3.34864 -1.21428 0
M  V30 9201 O 883.394 -5.04655 -2.09728 0
M  V30 9202 H 880.488 -0.749328 -0.34991 0
M  V30 9203 H 883.034 -1.69675 0.0290654 0
M  V30 9204 H 881.806 -3.90399 -0.265378 0
M  V30 9205 H 881.429 -3.47802 -1.92665 0
M  V30 9206 N 882.426 0.269451 -1.5528 0
M  V30 9207 C 883.376 1.33553 -1.84791 0
M  V30 9208 C 884.36 1.44532 -0.707067 0
M  V30 9209 O 885.552 1.48153 -0.968493 0
M  V30 9210 C 882.681 2.69516 -2.12641 0
M  V30 9211 C 881.767 2.62633 -3.32993 0
M  V30 9212 N 882.158 2.25371 -4.52815 0
M  V30 9213 C 880.456 2.93688 -3.35654 0
M  V30 9214 C 881.157 2.28567 -5.34913 0
M  V30 9215 N 880.133 2.67181 -4.73408 0
M  V30 9216 H 883.935 1.03758 -2.74976 0
M  V30 9217 H 881.449 0.478087 -1.55203 0
M  V30 9218 H 883.446 3.46424 -2.3194 0
M  V30 9219 H 882.106 3.00197 -1.23742 0
M  V30 9220 H 883.117 1.9729 -4.7885 0
M  V30 9221 H 879.794 3.29057 -2.56958 0
M  V30 9222 H 881.184 2.02289 -6.40725 0
M  V30 9223 N 883.904 1.48273 0.534124 0
M  V30 9224 C 885.153 1.55334 1.28663 0
M  V30 9225 C 885.466 0.230345 1.94239 0
M  V30 9226 O 886.672 0.179161 2.70908 0
M  V30 9227 C 885.128 2.73927 2.33435 0
M  V30 9228 C 884.736 4.12852 1.73947 0
M  V30 9229 C 886.48 2.90298 3.09722 0
M  V30 9230 C 884.387 5.22711 2.76636 0
M  V30 9231 H 883.317 0.578262 0.483869 0
M  V30 9232 H 885.968 1.74598 0.564602 0
M  V30 9233 H 884.35 2.48089 3.08655 0
M  V30 9234 H 885.524 4.48691 1.04944 0
M  V30 9235 H 883.839 4.01562 1.10167 0
M  V30 9236 H 886.436 3.69542 3.86449 0
M  V30 9237 H 886.779 1.99598 3.6533 0
M  V30 9238 H 887.312 3.16017 2.41616 0
M  V30 9239 H 884.051 6.15362 2.25852 0
M  V30 9240 H 883.571 4.91364 3.43979 0
M  V30 9241 H 885.25 5.50648 3.39699 0
M  V30 9242 N 885.382 -0.782676 1.36792 0
M  V30 9243 C 886.345 -1.8772 1.31507 0
M  V30 9244 C 887.345 -1.59269 0.221349 0
M  V30 9245 O 888.535 -1.67555 0.476544 0
M  V30 9246 C 885.667 -3.24641 1.04025 0
M  V30 9247 H 886.86 -1.9382 2.28853 0
M  V30 9248 H 884.413 -0.981226 1.21662 0
M  V30 9249 H 885.148 -3.24221 0.0716439 0
M  V30 9250 H 884.933 -3.46681 1.8318 0
M  V30 9251 H 886.423 -4.04711 1.02949 0
M  V30 9252 N 886.86 -1.21182 -1.00761 0
M  V30 9253 C 887.81 -0.936247 -2.0789 0
M  V30 9254 C 888.794 0.107482 -1.60541 0
M  V30 9255 O 889.986 -0.1011 -1.76711 0
M  V30 9256 C 887.115 -0.499949 -3.3964 0
M  V30 9257 C 886.201 -1.5776 -3.93666 0
M  V30 9258 N 886.592 -2.80208 -4.2109 0
M  V30 9259 C 884.89 -1.44586 -4.21913 0
M  V30 9260 C 885.591 -3.49787 -4.64784 0
M  V30 9261 N 884.567 -2.7722 -4.676 0
M  V30 9262 H 888.369 -1.86659 -2.27015 0
M  V30 9263 H 885.883 -1.10716 -1.1881 0
M  V30 9264 H 887.88 -0.283897 -4.15932 0
M  V30 9265 H 886.54 0.423659 -3.21924 0
M  V30 9266 H 887.551 -3.16776 -4.09724 0
M  V30 9267 H 884.228 -0.587346 -4.13348 0
M  V30 9268 H 885.618 -4.54615 -4.94747 0
M  V30 9269 N 888.338 1.20213 -1.01915 0
M  V30 9270 C 889.587 1.88968 -0.705261 0
M  V30 9271 C 889.9 1.79869 0.768531 0
M  V30 9272 O 891.106 2.43783 1.19508 0
M  V30 9273 C 889.562 3.38911 -1.21109 0
M  V30 9274 C 889.17 3.5659 -2.71197 0
M  V30 9275 C 890.914 4.13204 -0.97275 0
M  V30 9276 C 888.821 5.00372 -3.15248 0
M  V30 9277 H 887.751 0.707715 -0.260107 0
M  V30 9278 H 890.402 1.35977 -1.23217 0
M  V30 9279 H 888.784 3.9124 -0.612152 0
M  V30 9280 H 889.958 3.14635 -3.36662 0
M  V30 9281 H 888.273 2.95671 -2.93202 0
M  V30 9282 H 890.87 5.19221 -1.27726 0
M  V30 9283 H 891.213 4.16201 0.09072 0
M  V30 9284 H 891.746 3.66983 -1.5352 0
M  V30 9285 H 888.485 5.02532 -4.20882 0
M  V30 9286 H 888.005 5.43127 -2.54505 0
M  V30 9287 H 889.684 5.68969 -3.08032 0
M  V30 9288 N 889.816 0.795718 1.36037 0
M  V30 9289 C 891.065 0.367575 1.98322 0
M  V30 9290 C 891.378 -1.06823 1.63854 0
M  V30 9291 O 892.584 -1.59895 2.19421 0
M  V30 9292 C 891.04 0.606272 3.54757 0
M  V30 9293 C 890.648 2.0539 3.98144 0
M  V30 9294 C 892.392 0.242947 4.23804 0
M  V30 9295 C 890.299 2.23893 5.47381 0
M  V30 9296 H 889.229 0.133699 0.742052 0
M  V30 9297 H 891.88 0.978242 1.5525 0
M  V30 9298 H 890.262 -0.0741957 3.9593 0
M  V30 9299 H 891.436 2.77129 3.68152 0
M  V30 9300 H 889.751 2.37607 3.41953 0
M  V30 9301 H 892.348 0.359382 5.33491 0
M  V30 9302 H 892.691 -0.809661 4.08351 0
M  V30 9303 H 893.224 0.876899 3.88015 0
M  V30 9304 H 889.963 3.27559 5.6779 0
M  V30 9305 H 889.483 1.56666 5.78978 0
M  V30 9306 H 891.162 2.04914 6.13693 0
M  V30 9307 N 891.294 -1.47756 0.548274 0
M  V30 9308 C 892.204 -2.33678 -0.207773 0
M  V30 9309 C 893.22 -1.47636 -0.920843 0
M  V30 9310 O 894.396 -1.80583 -0.89173 0
M  V30 9311 C 891.461 -3.24147 -1.23003 0
M  V30 9312 C 890.522 -4.26073 -0.52535 0
M  V30 9313 C 889.755 -5.12219 -1.4989 0
M  V30 9314 O 889.978 -5.0066 -2.73305 0
M  V30 9315 O 888.912 -5.93051 -1.02828 0
M  V30 9316 H 892.738 -2.99609 0.496794 0
M  V30 9317 H 890.323 -1.4617 0.308982 0
M  V30 9318 H 892.205 -3.80055 -1.82034 0
M  V30 9319 H 890.88 -2.60855 -1.91668 0
M  V30 9320 H 889.787 -3.7395 0.105927 0
M  V30 9321 H 891.12 -4.92054 0.119686 0
M  V30 9322 N 892.772 -0.284283 -1.55015 0
M  V30 9323 C 893.702 0.592663 -2.25853 0
M  V30 9324 C 894.683 1.15151 -1.25197 0
M  V30 9325 O 895.868 1.18395 -1.53936 0
M  V30 9326 C 892.998 1.77254 -2.98661 0
M  V30 9327 C 891.952 1.34482 -4.06323 0
M  V30 9328 C 891.278 2.60853 -4.66754 0
M  V30 9329 C 892.578 0.488288 -5.20013 0
M  V30 9330 H 894.272 0.00187041 -2.994 0
M  V30 9331 H 891.818 -0.000540402 -1.44 0
M  V30 9332 H 893.771 2.39199 -3.46932 0
M  V30 9333 H 892.495 2.38931 -2.22664 0
M  V30 9334 H 891.154 0.748519 -3.58877 0
M  V30 9335 H 890.802 3.20808 -3.87416 0
M  V30 9336 H 890.502 2.32942 -5.39455 0
M  V30 9337 H 892.026 3.23631 -5.1778 0
M  V30 9338 H 893.44 1.01298 -5.6428 0
M  V30 9339 H 891.837 0.303669 -5.99331 0
M  V30 9340 H 892.907 -0.490727 -4.8241 0
M  V30 9341 N 894.251 1.57596 -0.0117121 0
M  V30 9342 C 895.181 2.12188 0.9746 0
M  V30 9343 C 896.162 1.03379 1.35081 0
M  V30 9344 O 897.347 1.31123 1.4325 0
M  V30 9345 C 894.477 2.63477 2.26268 0
M  V30 9346 C 893.431 3.76917 2.02774 0
M  V30 9347 C 892.757 4.14566 3.37697 0
M  V30 9348 C 894.057 5.03715 1.38089 0
M  V30 9349 H 895.751 2.9485 0.520007 0
M  V30 9350 H 893.297 1.41836 0.248685 0
M  V30 9351 H 895.25 3.00299 2.95633 0
M  V30 9352 H 893.974 1.77953 2.73862 0
M  V30 9353 H 892.633 3.40507 1.35832 0
M  V30 9354 H 892.281 3.26048 3.83016 0
M  V30 9355 H 891.981 4.91 3.22789 0
M  V30 9356 H 893.505 4.53956 4.08358 0
M  V30 9357 H 894.919 5.38233 1.97428 0
M  V30 9358 H 893.316 5.85032 1.33634 0
M  V30 9359 H 894.386 4.83624 0.351575 0
M  V30 9360 N 895.729 -0.261212 1.5542 0
M  V30 9361 C 896.977 -0.989272 1.76232 0
M  V30 9362 C 897.298 -1.86389 0.573067 0
M  V30 9363 O 896.568 -1.91526 -0.41166 0
M  V30 9364 H 895.148 -0.368256 0.64992 0
M  V30 9365 H 897.81 -0.282603 1.9284 0
M  V30 9366 H 896.906 -1.61935 2.66802 0
M  V30 9367 N 897.207 -1.48554 -0.526253 0
M  V30 9368 C 898.432 -1.60686 -1.31129 0
M  V30 9369 C 898.857 -0.268701 -1.86171 0
M  V30 9370 O 898.215 0.760167 -1.64594 0
M  V30 9371 C 898.263 -2.65938 -2.43536 0
M  V30 9372 O 897.367 -2.23356 -3.46678 0
M  V30 9373 H 896.708 -0.538691 -0.388211 0
M  V30 9374 H 899.238 -1.94567 -0.632826 0
M  V30 9375 H 899.248 -2.87327 -2.89668 0
M  V30 9376 H 897.923 -3.63085 -2.02835 0
M  V30 9377 H 896.5 -2.12196 -3.06639 0
M  V30 9378 N 898.685 0.775411 -1.37205 0
M  V30 9379 C 899.934 1.52909 -1.31536 0
M  V30 9380 C 900.247 1.9535 0.0989374 0
M  V30 9381 O 901.453 2.70072 0.278079 0
M  V30 9382 C 899.909 2.761 -2.30861 0
M  V30 9383 C 899.517 2.40773 -3.77799 0
M  V30 9384 C 901.261 3.54052 -2.34195 0
M  V30 9385 C 899.168 3.60444 -4.68865 0
M  V30 9386 H 898.098 0.574061 -0.488845 0
M  V30 9387 H 900.749 0.849642 -1.62645 0
M  V30 9388 H 899.131 3.45916 -1.92764 0
M  V30 9389 H 900.305 1.78764 -4.24712 0
M  V30 9390 H 898.62 1.76004 -3.77375 0
M  V30 9391 H 901.217 4.42992 -2.99437 0
M  V30 9392 H 901.56 3.93649 -1.35449 0
M  V30 9393 H 902.093 2.91229 -2.7098 0
M  V30 9394 H 898.832 3.25932 -5.68725 0
M  V30 9395 H 898.352 4.21571 -4.26659 0
M  V30 9396 H 900.031 4.27302 -4.85821 0
M  V30 9397 N 900.163 1.21714 1.00117 0
M  V30 9398 C 901.574 1.03477 1.55401 0
M  V30 9399 C 901.925 -0.40429 1.91989 0
M  V30 9400 O 901.05 -1.28807 1.7389 0
M  V30 9401 C 901.645 1.87213 2.82377 0
M  V30 9402 C 900.204 1.73297 3.34133 0
M  V30 9403 C 899.351 1.84189 2.07291 0
M  V30 9404 H 902.302 1.3568 0.823195 0
M  V30 9405 H 902.323 1.38465 3.54412 0
M  V30 9406 H 901.835 2.91944 2.55715 0
M  V30 9407 H 899.936 0.712662 3.65721 0
M  V30 9408 H 900.049 2.55486 4.05294 0
M  V30 9409 H 898.413 1.27538 2.20468 0
M  V30 9410 H 899.196 2.90435 1.83037 0
M  V30 9411 N 901.641 -1.19671 1.02551 0
M  V30 9412 C 903.057 -1.41305 0.741963 0
M  V30 9413 C 903.257 -1.89865 -0.674807 0
M  V30 9414 O 902.313 -2.07323 -1.44129 0
M  V30 9415 C 903.626 -2.42706 1.77522 0
M  V30 9416 C 905.174 -2.56458 1.79438 0
M  V30 9417 C 905.649 -3.61111 2.81715 0
M  V30 9418 N 907.14 -3.68603 2.8051 0
M  V30 9419 C 907.875 -4.49262 3.56302 0
M  V30 9420 N 907.371 -5.33653 4.41799 0
M  V30 9421 N 909.164 -4.43879 3.44859 0
M  V30 9422 H 901.315 -0.8647 1.94002 0
M  V30 9423 H 903.578 -0.442206 0.838545 0
M  V30 9424 H 903.284 -2.14042 2.79068 0
M  V30 9425 H 903.158 -3.41831 1.59472 0
M  V30 9426 H 905.545 -2.84447 0.78573 0
M  V30 9427 H 905.626 -1.57499 2.01563 0
M  V30 9428 H 905.27 -3.33864 3.82749 0
M  V30 9429 H 905.2 -4.59713 2.56849 0
M  V30 9430 H 907.691 -3.08329 2.18498 0
M  V30 9431 H 908.004 -5.92308 4.96378 0
M  V30 9432 H 906.349 -5.33125 4.45873 0
M  V30 9433 H 909.54 -3.7699 2.77482 0
M  V30 9434 H 909.713 -5.06501 4.04179 0
M  V30 9435 N 903.119 -0.802921 -1.35613 0
M  V30 9436 C 904.069 -0.183492 -2.2726 0
M  V30 9437 C 905.053 0.640527 -1.47601 0
M  V30 9438 O 906.245 0.498386 -1.69838 0
M  V30 9439 C 903.374 0.67003 -3.36698 0
M  V30 9440 C 902.46 -0.163517 -4.23785 0
M  V30 9441 N 902.851 -1.22472 -4.90749 0
M  V30 9442 C 901.149 0.0554547 -4.45966 0
M  V30 9443 C 901.85 -1.73329 -5.55276 0
M  V30 9444 N 900.826 -1.04033 -5.33552 0
M  V30 9445 H 904.628 -0.995525 -2.76526 0
M  V30 9446 H 902.142 -0.643714 -1.49098 0
M  V30 9447 H 904.139 1.12981 -4.01299 0
M  V30 9448 H 902.799 1.48045 -2.88986 0
M  V30 9449 H 903.81 -1.60733 -4.92327 0
M  V30 9450 H 900.487 0.835312 -4.09058 0
M  V30 9451 H 901.877 -2.62 -6.18713 0
M  V30 9452 N 904.597 1.47463 -0.556102 0
M  V30 9453 C 905.844 2.02475 -0.0316337 0
M  V30 9454 C 906.172 1.43057 1.31777 0
M  V30 9455 O 905.427 0.575376 1.87051 0
M  V30 9456 C 905.726 3.57224 0.112126 0
M  V30 9457 C 905.392 4.35557 -1.16624 0
M  V30 9458 C 904.054 4.56678 -1.51654 0
M  V30 9459 C 906.406 4.8074 -2.01342 0
M  V30 9460 C 903.734 5.20231 -2.7125 0
M  V30 9461 C 906.086 5.45613 -3.2014 0
M  V30 9462 C 904.75 5.64967 -3.55484 0
M  V30 9463 H 904.02 0.74091 -0.0115756 0
M  V30 9464 H 906.667 1.77148 -0.727392 0
M  V30 9465 H 904.972 3.81538 0.890842 0
M  V30 9466 H 906.669 3.97438 0.533261 0
M  V30 9467 H 903.259 4.19395 -0.883489 0
M  V30 9468 H 907.443 4.64201 -1.75587 0
M  V30 9469 H 902.699 5.3341 -2.98804 0
M  V30 9470 H 906.873 5.79587 -3.86073 0
M  V30 9471 H 904.5 6.13984 -4.4825 0
M  V30 9472 N 906.075 0.2925 1.54862 0
M  V30 9473 C 907.038 -0.574423 2.21885 0
M  V30 9474 C 908.038 -1.06791 1.20218 0
M  V30 9475 O 909.228 -0.9653 1.45009 0
M  V30 9476 C 906.36 -1.79438 2.89853 0
M  V30 9477 H 907.553 0.0110319 2.99898 0
M  V30 9478 H 905.106 0.043256 1.5624 0
M  V30 9479 H 905.841 -2.4199 2.15897 0
M  V30 9480 H 905.626 -1.44827 3.64373 0
M  V30 9481 H 907.116 -2.41048 3.41007 0
M  V30 9482 N 907.553 -1.57587 0.0200696 0
M  V30 9483 C 908.483 -2.12702 -0.963333 0
M  V30 9484 C 909.464 -1.04094 -1.34531 0
M  V30 9485 O 910.649 -1.31881 -1.42552 0
M  V30 9486 C 907.779 -2.64673 -2.24868 0
M  V30 9487 C 906.733 -3.77987 -2.00772 0
M  V30 9488 C 906.059 -4.16351 -3.35494 0
M  V30 9489 C 907.359 -5.0444 -1.35416 0
M  V30 9490 H 909.053 -2.95121 -0.504363 0
M  V30 9491 H 906.599 -1.41966 -0.24116 0
M  V30 9492 H 908.552 -3.01862 -2.94036 0
M  V30 9493 H 907.276 -1.79403 -2.72914 0
M  V30 9494 H 905.935 -3.41223 -1.34025 0
M  V30 9495 H 905.583 -3.28075 -3.81282 0
M  V30 9496 H 905.283 -4.92705 -3.20181 0
M  V30 9497 H 906.807 -4.56115 -4.05945 0
M  V30 9498 H 908.221 -5.39273 -1.94571 0
M  V30 9499 H 906.618 -5.85732 -1.30529 0
M  V30 9500 H 907.688 -4.83803 -0.325923 0
M  V30 9501 N 909.032 0.252966 -1.55557 0
M  V30 9502 C 910.257 1.0038 -1.8149 0
M  V30 9503 C 910.682 1.78397 -0.596318 0
M  V30 9504 O 910.04 1.7551 0.454535 0
M  V30 9505 C 910.088 1.9222 -3.05096 0
M  V30 9506 O 909.192 3.01302 -2.81587 0
M  V30 9507 H 908.533 0.285949 -0.599274 0
M  V30 9508 H 911.063 0.275795 -2.02733 0
M  V30 9509 H 911.073 2.338 -3.34368 0
M  V30 9510 H 909.748 1.34852 -3.93431 0
M  V30 9511 H 908.325 2.63894 -2.63466 0
M  V30 9512 N 910.51 1.48831 0.518367 0
M  V30 9513 C 911.758 1.57128 1.27103 0
M  V30 9514 C 912.079 0.252098 1.93364 0
M  V30 9515 O 911.349 -0.727281 1.819 0
M  V30 9516 H 909.929 0.578891 0.472116 0
M  V30 9517 H 912.591 1.85361 0.602262 0
M  V30 9518 H 911.687 2.35838 2.04418 0
M  V30 9519 N 911.988 -0.768124 1.37614 0
M  V30 9520 C 912.935 -1.88151 1.33671 0
M  V30 9521 C 913.905 -1.64871 0.201645 0
M  V30 9522 O 915.09 -1.86739 0.391582 0
M  V30 9523 C 912.23 -3.25264 1.15314 0
M  V30 9524 C 911.343 -3.60473 2.38082 0
M  V30 9525 C 910.478 -4.86814 2.12569 0
M  V30 9526 C 909.517 -5.14765 3.31184 0
M  V30 9527 N 908.654 -6.32295 3.052 0
M  V30 9528 H 913.494 -1.90857 2.28862 0
M  V30 9529 H 911.031 -0.933048 1.13722 0
M  V30 9530 H 912.989 -4.04364 1.02691 0
M  V30 9531 H 911.619 -3.21924 0.237689 0
M  V30 9532 H 910.671 -2.7633 2.61431 0
M  V30 9533 H 911.983 -3.77065 3.26532 0
M  V30 9534 H 911.137 -5.73826 1.96999 0
M  V30 9535 H 909.876 -4.72333 1.21462 0
M  V30 9536 H 908.881 -4.26227 3.4729 0
M  V30 9537 H 910.106 -5.31153 4.23147 0
M  V30 9538 H 908.052 -6.19166 2.16726 0
M  V30 9539 H 907.969 -6.4932 3.87195 0
M  V30 9540 H 909.237 -7.22234 2.93254 0
M  V30 9541 N 913.466 -1.22244 -0.994698 0
M  V30 9542 C 914.696 -1.07062 -1.76695 0
M  V30 9543 C 915.104 0.381895 -1.85306 0
M  V30 9544 O 914.447 1.27648 -1.32105 0
M  V30 9545 C 914.509 -1.60487 -3.2169 0
M  V30 9546 C 914.173 -3.09079 -3.36629 0
M  V30 9547 C 915.17 -4.06526 -3.24088 0
M  V30 9548 C 912.855 -3.48497 -3.61739 0
M  V30 9549 C 914.849 -5.41377 -3.36437 0
M  V30 9550 C 912.536 -4.83498 -3.73729 0
M  V30 9551 C 913.534 -5.79747 -3.61086 0
M  V30 9552 O 913.222 -7.12297 -3.72678 0
M  V30 9553 H 912.954 -0.375963 -0.561807 0
M  V30 9554 H 915.508 -1.62259 -1.25941 0
M  V30 9555 H 913.738 -0.996957 -3.73628 0
M  V30 9556 H 915.427 -1.40994 -3.80625 0
M  V30 9557 H 916.193 -3.77415 -3.04602 0
M  V30 9558 H 912.072 -2.74106 -3.70657 0
M  V30 9559 H 915.616 -6.16485 -3.26485 0
M  V30 9560 H 911.513 -5.1229 -3.92721 0
M  V30 9561 H 912.281 -7.1985 -3.89562 0
M  V30 9562 N 914.944 1.19125 -1.03184 0
M  V30 9563 C 916.169 1.93379 -0.749628 0
M  V30 9564 C 916.594 1.75153 0.685785 0
M  V30 9565 O 915.952 1.05579 1.47386 0
M  V30 9566 C 916 3.43101 -1.1097 0
M  V30 9567 O 915.104 4.11758 -0.230053 0
M  V30 9568 H 914.445 0.603605 -0.276689 0
M  V30 9569 H 916.975 1.51116 -1.37931 0
M  V30 9570 H 916.985 3.93778 -1.06785 0
M  V30 9571 H 915.66 3.55688 -2.15544 0
M  V30 9572 H 914.237 3.7143 -0.330748 0
M  V30 9573 N 916.422 0.810101 1.35185 0
M  V30 9574 C 917.838 0.494269 1.51754 0
M  V30 9575 C 918.038 -0.983907 1.75845 0
M  V30 9576 O 917.094 -1.76882 1.80191 0
M  V30 9577 C 918.407 1.34268 2.69059 0
M  V30 9578 C 919.955 1.33848 2.82938 0
M  V30 9579 C 920.43 2.17109 4.03271 0
M  V30 9580 N 921.921 2.14664 4.10456 0
M  V30 9581 C 922.656 2.75843 5.02691 0
M  V30 9582 N 922.152 3.45962 6.00235 0
M  V30 9583 N 923.945 2.65465 4.95464 0
M  V30 9584 H 916.096 1.76736 1.17805 0
M  V30 9585 H 918.359 0.752429 0.576676 0
M  V30 9586 H 918.065 2.39183 2.57845 0
M  V30 9587 H 917.939 0.998362 3.63748 0
M  V30 9588 H 920.326 0.29716 2.936 0
M  V30 9589 H 920.407 1.72269 1.89095 0
M  V30 9590 H 920.051 3.21283 3.93369 0
M  V30 9591 H 919.981 1.76046 4.96302 0
M  V30 9592 H 922.472 1.63648 3.40628 0
M  V30 9593 H 922.785 3.89922 6.67219 0
M  V30 9594 H 921.13 3.50067 6.00398 0
M  V30 9595 H 924.321 2.1027 4.18215 0
M  V30 9596 H 924.494 3.13433 5.67154 0
M  V30 9597 N 917.9 -1.47166 0.563914 0
M  V30 9598 C 918.81 -2.33885 -0.182977 0
M  V30 9599 C 919.826 -1.48605 -0.905132 0
M  V30 9600 O 921.002 -1.81518 -0.872527 0
M  V30 9601 C 918.067 -3.25433 -1.19558 0
M  V30 9602 C 917.128 -4.26607 -0.480129 0
M  V30 9603 C 916.361 -5.1378 -1.44449 0
M  V30 9604 O 916.584 -5.03531 -2.67979 0
M  V30 9605 O 915.518 -5.94109 -0.965321 0
M  V30 9606 H 919.344 -2.99065 0.528544 0
M  V30 9607 H 916.929 -1.45834 0.324468 0
M  V30 9608 H 918.811 -3.81964 -1.77993 0
M  V30 9609 H 917.486 -2.62873 -1.8889 0
M  V30 9610 H 916.393 -3.73817 0.145583 0
M  V30 9611 H 917.726 -4.919 0.171868 0
M  V30 9612 N 919.378 -0.300708 -1.54705 0
M  V30 9613 C 920.625 0.308654 -2.00134 0
M  V30 9614 C 920.953 1.53918 -1.1891 0
M  V30 9615 O 920.208 1.94054 -0.253263 0
M  V30 9616 C 920.507 0.710108 -3.50275 0
M  V30 9617 C 920.173 -0.418651 -4.48952 0
M  V30 9618 C 918.835 -0.728524 -4.75653 0
M  V30 9619 C 921.187 -1.17797 -5.07714 0
M  V30 9620 C 918.515 -1.80085 -5.58378 0
M  V30 9621 C 920.867 -2.24022 -5.91606 0
M  V30 9622 C 919.531 -2.55616 -6.16617 0
M  V30 9623 H 918.801 0.112945 -0.732342 0
M  V30 9624 H 921.448 -0.419744 -1.86843 0
M  V30 9625 H 919.753 1.51859 -3.61173 0
M  V30 9626 H 921.45 1.19277 -3.8285 0
M  V30 9627 H 918.04 -0.167034 -4.28274 0
M  V30 9628 H 922.224 -0.951835 -4.87087 0
M  V30 9629 H 917.48 -2.05036 -5.75995 0
M  V30 9630 H 921.654 -2.83317 -6.36164 0
M  V30 9631 H 919.281 -3.38839 -6.80509 0
M  V30 9632 N 920.856 1.57574 -0.0284266 0
M  V30 9633 C 922.103 1.91772 0.650364 0
M  V30 9634 C 922.431 0.904769 1.72175 0
M  V30 9635 O 921.686 -0.0864038 1.95509 0
M  V30 9636 C 921.985 3.32699 1.3056 0
M  V30 9637 C 921.651 4.49423 0.364658 0
M  V30 9638 C 920.313 4.81084 0.105672 0
M  V30 9639 C 922.665 5.20439 -0.28151 0
M  V30 9640 C 919.993 5.81119 -0.8073 0
M  V30 9641 C 922.345 6.21449 -1.18253 0
M  V30 9642 C 921.009 6.51551 -1.45042 0
M  V30 9643 H 920.279 0.701744 0.237985 0
M  V30 9644 H 922.926 1.91288 -0.0900448 0
M  V30 9645 H 921.231 3.29441 2.12075 0
M  V30 9646 H 922.928 3.5643 1.83736 0
M  V30 9647 H 919.518 4.24703 0.576692 0
M  V30 9648 H 923.702 4.9621 -0.0944806 0
M  V30 9649 H 918.958 6.02788 -1.02256 0
M  V30 9650 H 923.132 6.75597 -1.68942 0
M  V30 9651 H 920.759 7.28882 -2.15951 0
M  V30 9652 N 922.334 -0.244713 1.55689 0
M  V30 9653 C 923.282 -1.32276 1.91326 0
M  V30 9654 C 924.276 -1.49714 0.792589 0
M  V30 9655 O 925.482 -1.51163 0.977227 0
M  V30 9656 H 921.857 -0.442979 0.607679 0
M  V30 9657 H 923.828 -0.99486 2.81327 0
M  V30 9658 C 922.577 -2.67077 2.22633 0
M  V30 9659 H 921.9 -2.54458 3.08368 0
M  V30 9660 H 923.34 -3.41378 2.5147 0
M  V30 9661 C 921.799 -3.20335 1.04342 0
M  V30 9662 O 922.329 -4.00633 0.292543 0
M  V30 9663 N 920.535 -2.78392 0.833457 0
M  V30 9664 H 920.082 -2.13202 1.44577 0
M  V30 9665 H 920.04 -3.1437 0.0436713 0
M  V30 9666 N 923.813 -1.49104 -0.510467 0
M  V30 9667 C 925.229 -1.35657 -0.840797 0
M  V30 9668 C 925.429 -0.382425 -1.97838 0
M  V30 9669 O 924.485 0.189331 -2.51789 0
M  V30 9670 C 925.798 -2.76155 -1.18992 0
M  V30 9671 C 927.346 -2.84786 -1.29868 0
M  V30 9672 C 927.821 -4.2603 -1.68115 0
M  V30 9673 N 929.312 -4.28796 -1.75181 0
M  V30 9674 C 930.047 -5.35041 -2.062 0
M  V30 9675 N 929.543 -6.51543 -2.35508 0
M  V30 9676 N 931.336 -5.2245 -2.07371 0
M  V30 9677 H 923.487 -2.11042 0.23982 0
M  V30 9678 H 925.75 -0.946946 0.0446824 0
M  V30 9679 H 925.456 -3.49092 -0.427484 0
M  V30 9680 H 925.33 -3.10922 -2.13558 0
M  V30 9681 H 927.717 -2.12092 -2.05186 0
M  V30 9682 H 927.798 -2.53613 -0.333758 0
M  V30 9683 H 927.442 -4.99247 -0.933512 0
M  V30 9684 H 927.372 -4.5466 -2.65691 0
M  V30 9685 H 929.863 -3.44771 -1.5473 0
M  V30 9686 H 930.176 -7.28342 -2.58337 0
M  V30 9687 H 928.521 -6.54785 -2.32985 0
M  V30 9688 H 931.712 -4.30444 -1.83945 0
M  V30 9689 H 931.885 -6.05347 -2.31212 0
M  V30 9690 N 925.291 0.760815 -1.38019 0
M  V30 9691 C 926.707 1.06289 -1.19058 0
M  V30 9692 C 926.907 2.01471 -0.0342603 0
M  V30 9693 O 925.963 2.44713 0.62224 0
M  V30 9694 C 927.276 1.6499 -2.51394 0
M  V30 9695 C 928.824 1.77196 -2.58013 0
M  V30 9696 C 929.299 2.3931 -3.90506 0
M  V30 9697 N 930.79 2.46749 -3.92007 0
M  V30 9698 C 931.525 2.95687 -4.91281 0
M  V30 9699 N 931.021 3.44715 -6.00952 0
M  V30 9700 N 932.814 2.94661 -4.78677 0
M  V30 9701 H 924.965 0.129045 -2.12008 0
M  V30 9702 H 927.228 0.119878 -0.94039 0
M  V30 9703 H 926.934 1.0252 -3.36426 0
M  V30 9704 H 926.808 2.64146 -2.6927 0
M  V30 9705 H 929.195 2.38796 -1.7338 0
M  V30 9706 H 929.276 0.767645 -2.4401 0
M  V30 9707 H 928.92 1.78346 -4.75558 0
M  V30 9708 H 928.85 3.40369 -4.01817 0
M  V30 9709 H 931.341 2.12064 -3.12789 0
M  V30 9710 H 931.654 3.80492 -6.72641 0
M  V30 9711 H 929.999 3.42791 -6.04582 0
M  V30 9712 H 933.19 2.55665 -3.92113 0
M  V30 9713 H 933.363 3.32489 -5.56197 0
M  V30 9714 N 926.769 1.22769 0.988202 0
M  V30 9715 C 928.017 1.05301 1.725 0
M  V30 9716 C 928.338 -0.412103 1.90596 0
M  V30 9717 O 927.608 -1.29606 1.46898 0
M  V30 9718 H 926.188 0.386658 0.639144 0
M  V30 9719 H 928.85 1.54359 1.18993 0
M  V30 9720 H 927.946 1.53465 2.71763 0
M  V30 9721 N 928.247 -1.18576 1.03814 0
M  V30 9722 C 929.157 -2.25778 0.637311 0
M  V30 9723 C 930.173 -1.7074 -0.335248 0
M  V30 9724 O 931.349 -2.00494 -0.19081 0
M  V30 9725 C 928.414 -3.467 0.00386953 0
M  V30 9726 C 927.475 -4.16881 1.02511 0
M  V30 9727 C 926.708 -5.32031 0.421802 0
M  V30 9728 O 926.931 -5.65142 -0.772699 0
M  V30 9729 O 925.865 -5.90826 1.14925 0
M  V30 9730 H 929.691 -2.62323 1.53037 0
M  V30 9731 H 927.276 -1.25609 0.80887 0
M  V30 9732 H 929.158 -4.19953 -0.348873 0
M  V30 9733 H 927.833 -3.11983 -0.863047 0
M  V30 9734 H 926.74 -3.45707 1.4296 0
M  V30 9735 H 928.073 -4.55592 1.86271 0
M  V30 9736 N 929.725 -0.817259 -1.34754 0
M  V30 9737 C 930.655 -0.249769 -2.3216 0
M  V30 9738 C 931.636 0.630663 -1.57977 0
M  V30 9739 O 932.821 0.558719 -1.85989 0
M  V30 9740 C 929.951 0.593825 -3.42186 0
M  V30 9741 C 928.905 -0.188997 -4.27583 0
M  V30 9742 C 928.231 0.776979 -5.29025 0
M  V30 9743 C 929.531 -1.39401 -5.03354 0
M  V30 9744 H 931.225 -1.06359 -2.79872 0
M  V30 9745 H 928.771 -0.512894 -1.34556 0
M  V30 9746 H 930.724 1.00097 -4.09339 0
M  V30 9747 H 929.448 1.44064 -2.93109 0
M  V30 9748 H 928.107 -0.577445 -3.62024 0
M  V30 9749 H 927.755 1.61959 -4.76212 0
M  V30 9750 H 927.455 0.257448 -5.87036 0
M  V30 9751 H 928.979 1.18211 -5.99048 0
M  V30 9752 H 930.393 -1.06117 -5.63393 0
M  V30 9753 H 928.79 -1.84878 -5.70912 0
M  V30 9754 H 929.86 -2.17515 -4.33377 0
M  V30 9755 N 931.203 1.46865 -0.571711 0
M  V30 9756 C 932.619 1.57897 -0.23255 0
M  V30 9757 C 932.819 1.56836 1.26509 0
M  V30 9758 O 931.875 1.47947 2.04617 0
M  V30 9759 C 933.188 2.87778 -0.872036 0
M  V30 9760 C 934.736 3.01389 -0.844605 0
M  V30 9761 C 935.211 4.33991 -1.46343 0
M  V30 9762 N 936.702 4.40662 -1.42727 0
M  V30 9763 C 937.437 5.41858 -1.87557 0
M  V30 9764 N 936.933 6.49787 -2.4031 0
M  V30 9765 N 938.726 5.32992 -1.7854 0
M  V30 9766 H 930.877 1.45798 -1.54457 0
M  V30 9767 H 933.14 0.694785 -0.644964 0
M  V30 9768 H 932.846 2.94332 -1.92513 0
M  V30 9769 H 932.72 3.75345 -0.373677 0
M  V30 9770 H 935.107 2.94423 0.19984 0
M  V30 9771 H 935.188 2.15327 -1.38087 0
M  V30 9772 H 934.832 4.41714 -2.50701 0
M  V30 9773 H 934.762 5.18809 -0.902479 0
M  V30 9774 H 937.253 3.63263 -1.04155 0
M  V30 9775 H 937.566 7.23199 -2.72403 0
M  V30 9776 H 935.911 6.50637 -2.44329 0
M  V30 9777 H 939.102 4.47575 -1.37093 0
M  V30 9778 H 939.275 6.11716 -2.13794 0
M  V30 9779 N 932.681 0.308908 1.54543 0
M  V30 9780 C 933.631 -0.578902 2.20528 0
M  V30 9781 C 934.615 -1.09288 1.18088 0
M  V30 9782 O 935.807 -1.03234 1.43777 0
M  V30 9783 C 932.936 -1.74649 2.95555 0
M  V30 9784 C 932.022 -1.24809 4.05319 0
M  V30 9785 N 932.413 -0.46828 5.03628 0
M  V30 9786 C 930.711 -1.52813 4.19004 0
M  V30 9787 C 931.412 -0.201896 5.8135 0
M  V30 9788 N 930.388 -0.783927 5.37918 0
M  V30 9789 H 934.19 0.0243496 2.9389 0
M  V30 9790 H 931.704 0.114049 1.61999 0
M  V30 9791 H 933.701 -2.39414 3.41301 0
M  V30 9792 H 932.361 -2.35336 2.23712 0
M  V30 9793 H 933.372 -0.112453 5.17778 0
M  V30 9794 H 930.049 -2.14191 3.58369 0
M  V30 9795 H 931.439 0.424929 6.70555 0
M  V30 9796 N 934.159 -1.57557 0.0367827 0
M  V30 9797 C 935.408 -1.91291 -0.639569 0
M  V30 9798 C 935.721 -0.915601 -1.72847 0
M  V30 9799 O 936.927 -1.14447 -2.46199 0
M  V30 9800 C 935.383 -3.39697 -1.18888 0
M  V30 9801 C 934.991 -4.47803 -0.132851 0
M  V30 9802 C 936.735 -3.82487 -1.8413 0
M  V30 9803 C 934.642 -5.87311 -0.694229 0
M  V30 9804 H 933.572 -0.713886 -0.242658 0
M  V30 9805 H 936.223 -1.83209 0.103332 0
M  V30 9806 H 934.605 -3.42736 -1.98363 0
M  V30 9807 H 935.779 -4.56334 0.640009 0
M  V30 9808 H 934.094 -4.14264 0.421264 0
M  V30 9809 H 936.691 -4.84076 -2.27101 0
M  V30 9810 H 937.034 -3.17959 -2.68716 0
M  V30 9811 H 937.567 -3.81903 -1.11332 0
M  V30 9812 H 934.306 -6.55401 0.113667 0
M  V30 9813 H 933.826 -5.82371 -1.4354 0
M  V30 9814 H 935.505 -6.36119 -1.1816 0
M  V30 9815 N 935.637 0.236453 -1.55816 0
M  V30 9816 C 936.865 0.980295 -1.82203 0
M  V30 9817 C 937.28 1.7854 -0.613926 0
M  V30 9818 O 936.637 1.77661 0.417491 0
M  V30 9819 C 936.688 1.90982 -3.06933 0
M  V30 9820 O 936.409 1.13728 -4.23081 0
M  V30 9821 C 937.91 2.76879 -3.46198 0
M  V30 9822 H 935.13 0.28799 -0.606055 0
M  V30 9823 H 937.674 0.256182 -2.02889 0
M  V30 9824 H 935.829 2.58808 -2.88266 0
M  V30 9825 H 936.243 1.76694 -4.93842 0
M  V30 9826 H 937.717 3.37831 -4.36548 0
M  V30 9827 H 938.194 3.48522 -2.67262 0
M  V30 9828 H 938.8 2.1449 -3.67252 0
M  V30 9829 N 937.115 1.49373 0.502552 0
M  V30 9830 C 938.062 1.65927 1.60427 0
M  V30 9831 C 939.032 0.500768 1.58371 0
M  V30 9832 O 940.217 0.727606 1.76382 0
M  V30 9833 C 937.357 1.73043 2.9858 0
M  V30 9834 C 936.47 3.00187 3.10663 0
M  V30 9835 C 935.605 2.98292 4.3954 0
M  V30 9836 C 934.644 4.20022 4.4525 0
M  V30 9837 N 933.781 4.16046 5.65553 0
M  V30 9838 H 938.621 2.59998 1.45619 0
M  V30 9839 H 936.158 1.28912 0.708519 0
M  V30 9840 H 938.116 1.7515 3.78653 0
M  V30 9841 H 936.746 0.824397 3.12095 0
M  V30 9842 H 935.798 3.07699 2.23663 0
M  V30 9843 H 937.11 3.9018 3.10742 0
M  V30 9844 H 936.264 2.98953 5.27932 0
M  V30 9845 H 935.003 2.06075 4.42023 0
M  V30 9846 H 934.008 4.19607 3.5526 0
M  V30 9847 H 935.233 5.13431 4.44484 0
M  V30 9848 H 933.179 3.26665 5.68881 0
M  V30 9849 H 933.096 4.99773 5.67242 0
M  V30 9850 H 934.364 4.20807 6.56156 0
M  V30 9851 N 938.594 -0.753485 1.38421 0
M  V30 9852 C 939.524 -1.8808 1.38377 0
M  V30 9853 C 940.505 -1.68258 0.249664 0
M  V30 9854 O 941.69 -1.88848 0.45276 0
M  V30 9855 C 938.82 -3.25608 1.20818 0
M  V30 9856 C 937.774 -3.60032 2.31433 0
M  V30 9857 C 937.1 -4.96297 1.9898 0
M  V30 9858 C 938.4 -3.64898 3.73694 0
M  V30 9859 H 940.094 -1.88375 2.32713 0
M  V30 9860 H 937.64 -0.90489 1.12017 0
M  V30 9861 H 939.593 -4.04127 1.19412 0
M  V30 9862 H 938.317 -3.25793 0.229433 0
M  V30 9863 H 936.976 -2.83831 2.32025 0
M  V30 9864 H 936.624 -4.93043 0.995889 0
M  V30 9865 H 936.324 -5.20298 2.73063 0
M  V30 9866 H 937.848 -5.77196 1.99193 0
M  V30 9867 H 939.262 -4.33531 3.75132 0
M  V30 9868 H 937.659 -4.00407 4.46983 0
M  V30 9869 H 938.729 -2.65124 4.06002 0
M  V30 9870 N 940.072 -1.23292 -0.981677 0
M  V30 9871 C 941.019 -1.01296 -2.07383 0
M  V30 9872 C 941.989 0.069139 -1.65956 0
M  V30 9873 O 943.174 -0.0827108 -1.90621 0
M  V30 9874 C 940.314 -0.608876 -3.39686 0
M  V30 9875 C 939.427 -1.76296 -3.9439 0
M  V30 9876 C 938.562 -1.30578 -5.14901 0
M  V30 9877 C 937.601 -2.4307 -5.61768 0
M  V30 9878 N 936.738 -1.98319 -6.73509 0
M  V30 9879 H 941.578 -1.9478 -2.25532 0
M  V30 9880 H 939.115 -0.970356 -1.10555 0
M  V30 9881 H 941.073 -0.355702 -4.15681 0
M  V30 9882 H 939.703 0.288961 -3.21504 0
M  V30 9883 H 938.755 -2.13017 -3.15163 0
M  V30 9884 H 940.067 -2.60871 -4.25145 0
M  V30 9885 H 939.221 -1.01066 -5.98223 0
M  V30 9886 H 937.96 -0.430386 -4.85797 0
M  V30 9887 H 936.965 -2.73358 -4.77028 0
M  V30 9888 H 938.19 -3.31144 -5.92892 0
M  V30 9889 H 936.136 -1.13157 -6.46167 0
M  V30 9890 H 936.053 -2.76454 -7.0364 0
M  V30 9891 H 937.321 -1.71907 -7.60308 0
M  V30 9892 N 941.55 1.18024 -1.04442 0
M  V30 9893 C 942.961 1.69749 -0.777312 0
M  V30 9894 C 943.312 1.83234 0.701399 0
M  V30 9895 O 942.437 1.51452 1.54568 0
M  V30 9896 C 943.032 3.08321 -1.40441 0
M  V30 9897 C 941.591 3.57243 -1.18553 0
M  V30 9898 C 940.738 2.33695 -1.49271 0
M  V30 9899 H 943.689 1.02647 -1.21035 0
M  V30 9900 H 943.71 3.71787 -0.809628 0
M  V30 9901 H 943.222 2.98474 -2.48062 0
M  V30 9902 H 941.323 3.72379 -0.128221 0
M  V30 9903 H 941.436 4.40451 -1.88519 0
M  V30 9904 H 939.8 2.37792 -0.912526 0
M  V30 9905 H 940.583 2.26464 -2.5801 0
M  V30 9906 N 943.028 0.824394 1.34319 0
M  V30 9907 C 944.274 0.422964 1.98954 0
M  V30 9908 C 944.629 -1.00323 1.64174 0
M  V30 9909 O 943.922 -1.6894 0.903869 0
M  V30 9910 C 944.116 0.564024 3.52921 0
M  V30 9911 C 943.945 2.00238 4.0266 0
M  V30 9912 C 942.715 2.63457 4.31183 0
M  V30 9913 C 944.913 2.9693 4.19925 0
M  V30 9914 N 942.895 3.98518 4.66966 0
M  V30 9915 C 944.266 4.16901 4.58904 0
M  V30 9916 C 946.321 2.93527 4.02177 0
M  V30 9917 C 945.024 5.33926 4.81991 0
M  V30 9918 C 947.05 4.09769 4.26431 0
M  V30 9919 C 946.412 5.28493 4.65698 0
M  V30 9920 H 942.511 0.202907 0.755217 0
M  V30 9921 H 945.095 1.0694 1.62702 0
M  V30 9922 H 943.266 -0.0525268 3.88364 0
M  V30 9923 H 944.998 0.135451 4.04473 0
M  V30 9924 H 941.753 2.14688 4.22145 0
M  V30 9925 H 942.177 4.68103 4.8909 0
M  V30 9926 H 946.819 2.02878 3.70945 0
M  V30 9927 H 944.537 6.25132 5.12089 0
M  V30 9928 H 948.123 4.08537 4.14233 0
M  V30 9929 H 947.003 6.16945 4.84096 0
M  V30 9930 N 944.506 -1.46559 0.579492 0
M  V30 9931 C 945.731 -2.0729 0.0674595 0
M  V30 9932 C 946.156 -1.4259 -1.22677 0
M  V30 9933 O 945.514 -0.50857 -1.74021 0
M  V30 9934 C 945.562 -3.60492 -0.0882227 0
M  V30 9935 O 944.666 -3.96172 -1.14551 0
M  V30 9936 H 944.007 -0.661159 0.0613536 0
M  V30 9937 H 946.537 -1.88247 0.801519 0
M  V30 9938 H 946.547 -4.06929 -0.295411 0
M  V30 9939 H 945.222 -4.06976 0.856943 0
M  V30 9940 H 943.799 -3.61448 -0.917033 0
M  V30 9941 N 945.984 -0.3171 -1.54377 0
M  V30 9942 C 946.914 0.544623 -2.2706 0
M  V30 9943 C 947.895 1.12469 -1.27611 0
M  V30 9944 O 949.08 1.15103 -1.56413 0
M  V30 9945 C 946.21 1.70879 -3.02353 0
M  V30 9946 C 945.164 1.25833 -4.09084 0
M  V30 9947 C 944.49 2.50894 -4.72182 0
M  V30 9948 C 945.79 0.377876 -5.20931 0
M  V30 9949 H 947.484 -0.0616372 -2.99337 0
M  V30 9950 H 945.03 -0.0310848 -1.43966 0
M  V30 9951 H 946.983 2.31787 -3.51927 0
M  V30 9952 H 945.707 2.34155 -2.27682 0
M  V30 9953 H 944.366 0.672228 -3.60384 0
M  V30 9954 H 944.014 3.12518 -3.94134 0
M  V30 9955 H 943.714 2.21447 -5.44275 0
M  V30 9956 H 945.238 3.12575 -5.24528 0
M  V30 9957 H 946.652 0.893056 -5.66302 0
M  V30 9958 H 945.049 0.176474 -5.9984 0
M  V30 9959 H 946.119 -0.592943 -4.81261 0
M  V30 9960 N 947.462 1.57535 -0.0451378 0
M  V30 9961 C 948.709 1.92451 0.629987 0
M  V30 9962 C 949.037 0.92298 1.71206 0
M  V30 9963 O 948.292 -0.0656626 1.9559 0
M  V30 9964 C 948.591 3.34065 1.27024 0
M  V30 9965 C 948.257 4.49785 0.316971 0
M  V30 9966 C 946.919 4.81169 0.0546406 0
M  V30 9967 C 949.271 5.20111 -0.336693 0
M  V30 9968 C 946.599 5.8023 -0.86889 0
M  V30 9969 C 948.951 6.2016 -1.24838 0
M  V30 9970 C 947.615 6.49976 -1.51944 0
M  V30 9971 H 946.885 0.704228 0.230529 0
M  V30 9972 H 949.532 1.91182 -0.110328 0
M  V30 9973 H 947.837 3.31672 2.08568 0
M  V30 9974 H 949.534 3.58359 1.79945 0
M  V30 9975 H 946.124 4.2529 0.531614 0
M  V30 9976 H 950.308 4.96082 -0.147105 0
M  V30 9977 H 945.564 6.0167 -1.08643 0
M  V30 9978 H 949.738 6.73767 -1.76098 0
M  V30 9979 H 947.365 7.26551 -2.2367 0
M  V30 9980 N 948.94 -0.228186 1.55939 0
M  V30 9981 C 950.217 -0.977492 1.69424 0
M  V30 9982 C 950.597 -2.02674 0.590479 0
M  V30 9983 O 949.945 -2.2491 -0.403467 0
M  V30 9984 C 950.155 -1.59394 3.10475 0
M  V30 9985 C 951.503 -2.08871 3.69673 0
M  V30 9986 O 952.527 -1.693 3.13394 0
M  V30 9987 O 951.386 -2.81584 4.68372 0
M  V30 9988 H 948.48 -0.456185 0.6898 0
M  V30 9989 H 951.026 -0.220492 1.68261 0
M  V30 9990 H 949.798 -0.835971 3.82266 0
M  V30 9991 H 949.421 -2.41665 3.15727 0
M  V30 9992 N 950.418 -1.49637 -0.494624 0
M  V30 9993 C 951.664 -1.59681 -1.25019 0
M  V30 9994 C 951.997 -0.285511 -1.9209 0
M  V30 9995 O 951.272 0.711398 -1.81023 0
M  V30 9996 C 951.555 -2.76058 -2.31222 0
M  V30 9997 C 951.408 -4.17002 -1.68611 0
M  V30 9998 C 952.727 -2.88056 -3.32734 0
M  V30 9999 H 949.846 -0.581209 -0.453172 0
M  V30 10000 H 952.488 -1.81944 -0.547391 0
M  V30 10001 H 950.638 -2.57207 -2.91164 0
M  V30 10002 H 952.31 -4.47385 -1.12447 0
M  V30 10003 H 950.553 -4.22352 -0.989991 0
M  V30 10004 H 951.224 -4.94316 -2.45674 0
M  V30 10005 H 953.7 -3.05237 -2.82789 0
M  V30 10006 H 952.576 -3.71151 -4.04399 0
M  V30 10007 H 952.837 -1.97676 -3.95445 0
M  V30 10008 N 951.896 0.746133 -1.38819 0
M  V30 10009 C 952.826 1.87344 -1.39372 0
M  V30 10010 C 953.807 1.68123 -0.258583 0
M  V30 10011 O 954.992 1.88606 -0.462769 0
M  V30 10012 C 952.122 3.24962 -1.22543 0
M  V30 10013 C 951.076 3.58799 -2.33339 0
M  V30 10014 C 950.402 4.95235 -2.01609 0
M  V30 10015 C 951.702 3.62911 -3.75624 0
M  V30 10016 H 953.396 1.87138 -2.33709 0
M  V30 10017 H 950.942 0.898937 -1.12495 0
M  V30 10018 H 952.895 4.03488 -1.21554 0
M  V30 10019 H 951.619 3.25667 -0.246707 0
M  V30 10020 H 950.278 2.82596 -2.33527 0
M  V30 10021 H 949.926 4.92508 -1.02202 0
M  V30 10022 H 949.626 5.18843 -2.75819 0
M  V30 10023 H 951.15 5.76131 -2.02251 0
M  V30 10024 H 952.564 4.31535 -3.77426 0
M  V30 10025 H 950.961 3.98031 -4.491 0
M  V30 10026 H 952.031 2.62967 -4.07402 0
M  V30 10027 N 953.375 1.23811 0.975125 0
M  V30 10028 C 954.621 1.07495 1.71967 0
M  V30 10029 C 954.954 -0.386451 1.90316 0
M  V30 10030 O 954.229 -1.28591 1.45927 0
M  V30 10031 C 954.512 1.80694 3.11483 0
M  V30 10032 C 954.365 3.3454 3.00671 0
M  V30 10033 C 955.684 1.57367 4.11003 0
M  V30 10034 H 952.803 0.3919 0.624166 0
M  V30 10035 H 955.445 1.52383 1.13487 0
M  V30 10036 H 953.595 1.42538 3.61407 0
M  V30 10037 H 955.267 3.8225 2.5823 0
M  V30 10038 H 953.51 3.63301 2.37054 0
M  V30 10039 H 954.181 3.80951 3.99475 0
M  V30 10040 H 956.657 1.90545 3.69908 0
M  V30 10041 H 955.533 2.11052 5.06703 0
M  V30 10042 H 955.794 0.510221 4.39146 0
M  V30 10043 N 954.853 -1.17469 1.05066 0
M  V30 10044 C 955.763 -2.25089 0.661222 0
M  V30 10045 C 956.779 -1.71086 -0.31712 0
M  V30 10046 O 957.955 -2.00685 -0.169534 0
M  V30 10047 C 955.02 -3.46676 0.0406415 0
M  V30 10048 C 954.081 -4.15771 1.06927 0
M  V30 10049 C 953.314 -5.31553 0.478208 0
M  V30 10050 O 953.537 -5.6593 -0.712714 0
M  V30 10051 O 952.471 -5.89574 1.21185 0
M  V30 10052 H 956.297 -2.60685 1.5581 0
M  V30 10053 H 953.882 -1.24744 0.822147 0
M  V30 10054 H 955.764 -4.203 -0.304312 0
M  V30 10055 H 954.439 -3.1288 -0.829909 0
M  V30 10056 H 953.346 -3.44171 1.46619 0
M  V30 10057 H 954.679 -4.53591 1.91092 0
M  V30 10058 N 956.331 -0.831506 -1.3388 0
M  V30 10059 C 957.278 -0.257449 -2.2936 0
M  V30 10060 C 958.248 0.622604 -1.5399 0
M  V30 10061 O 959.433 0.562432 -1.82322 0
M  V30 10062 C 956.573 0.567587 -3.404 0
M  V30 10063 C 955.686 -0.335666 -4.30694 0
M  V30 10064 C 954.821 0.499762 -5.28844 0
M  V30 10065 C 953.86 -0.402343 -6.10776 0
M  V30 10066 N 952.997 0.39452 -7.00991 0
M  V30 10067 H 957.837 -1.077 -2.77857 0
M  V30 10068 H 955.374 -0.542589 -1.36727 0
M  V30 10069 H 957.332 1.06133 -4.03474 0
M  V30 10070 H 955.962 1.35217 -2.93115 0
M  V30 10071 H 955.014 -0.94768 -3.68406 0
M  V30 10072 H 956.326 -1.02896 -4.88072 0
M  V30 10073 H 955.48 1.05763 -5.9741 0
M  V30 10074 H 954.219 1.22652 -4.72025 0
M  V30 10075 H 953.224 -0.972288 -5.41135 0
M  V30 10076 H 954.449 -1.12735 -6.69677 0
M  V30 10077 H 952.395 1.1048 -6.4663 0
M  V30 10078 H 952.312 -0.240209 -7.55618 0
M  V30 10079 H 953.58 0.934867 -7.73874 0
M  V30 10080 N 957.809 1.4625 -0.587256 0
M  V30 10081 C 959.039 2.06444 -0.0802135 0
M  V30 10082 C 959.447 1.43585 1.23207 0
M  V30 10083 O 958.79 0.536956 1.75677 0
M  V30 10084 C 958.852 3.59165 0.155129 0
M  V30 10085 C 958.516 4.44243 -1.07225 0
M  V30 10086 C 959.513 4.80497 -1.98542 0
M  V30 10087 C 957.198 4.8531 -1.29537 0
M  V30 10088 C 959.192 5.56649 -3.10516 0
M  V30 10089 C 956.879 5.61221 -2.41815 0
M  V30 10090 C 957.877 5.96805 -3.32134 0
M  V30 10091 O 957.565 6.71181 -4.42461 0
M  V30 10092 H 957.297 0.673626 -0.0566063 0
M  V30 10093 H 959.851 1.88797 -0.809004 0
M  V30 10094 H 958.081 3.75137 0.938583 0
M  V30 10095 H 959.77 4.01271 0.611243 0
M  V30 10096 H 960.536 4.49345 -1.82522 0
M  V30 10097 H 956.415 4.5706 -0.601431 0
M  V30 10098 H 959.959 5.84343 -3.81037 0
M  V30 10099 H 955.856 5.91786 -2.57797 0
M  V30 10100 H 956.624 6.8961 -4.40886 0
M  V30 10101 N 959.287 0.325282 1.54207 0
M  V30 10102 C 960.535 -0.276229 2.00203 0
M  V30 10103 C 960.856 -1.52519 1.21503 0
M  V30 10104 O 960.126 -1.93313 0.317302 0
M  V30 10105 H 958.706 -0.105059 0.739575 0
M  V30 10106 H 961.368 0.442225 1.89817 0
M  V30 10107 H 960.464 -0.531427 3.07542 0
M  V30 10108 N 960.765 -1.57509 0.0534917 0
M  V30 10109 C 962.011 -1.93887 -0.614776 0
M  V30 10110 C 962.366 -0.932098 -1.68314 0
M  V30 10111 O 961.659 0.0483848 -1.91539 0
M  V30 10112 C 961.853 -3.34734 -1.25251 0
M  V30 10113 C 961.682 -4.49019 -0.247444 0
M  V30 10114 C 960.452 -5.05042 0.161406 0
M  V30 10115 C 962.65 -5.11784 0.508059 0
M  V30 10116 N 960.632 -6.02858 1.15909 0
M  V30 10117 C 962.003 -6.04928 1.35876 0
M  V30 10118 C 964.058 -4.94671 0.56612 0
M  V30 10119 C 962.761 -6.82797 2.26232 0
M  V30 10120 C 964.787 -5.73168 1.45712 0
M  V30 10121 C 964.149 -6.65946 2.29554 0
M  V30 10122 H 960.248 -0.756899 -0.196538 0
M  V30 10123 H 962.832 -1.94289 0.126365 0
M  V30 10124 H 961.003 -3.35104 -1.96367 0
M  V30 10125 H 962.735 -3.58395 -1.87977 0
M  V30 10126 H 959.49 -4.73098 -0.218025 0
M  V30 10127 H 959.914 -6.56462 1.6549 0
M  V30 10128 H 964.556 -4.22746 -0.0678652 0
M  V30 10129 H 962.274 -7.54012 2.90675 0
M  V30 10130 H 965.86 -5.61953 1.50664 0
M  V30 10131 H 964.74 -7.25627 2.97381 0
M  V30 10132 N 962.243 0.219913 -1.56058 0
M  V30 10133 C 963.654 0.786766 -1.69313 0
M  V30 10134 C 964.005 1.84916 -0.655782 0
M  V30 10135 O 963.13 2.1554 0.192772 0
M  V30 10136 C 963.725 1.43387 -3.06962 0
M  V30 10137 C 962.284 1.94809 -3.22066 0
M  V30 10138 C 961.431 0.808863 -2.65241 0
M  V30 10139 H 964.382 -0.00476777 -1.58699 0
M  V30 10140 H 964.403 2.30272 -3.02911 0
M  V30 10141 H 963.915 0.660405 -3.8244 0
M  V30 10142 H 962.016 2.74952 -2.5146 0
M  V30 10143 H 962.129 2.12694 -4.293 0
M  V30 10144 H 960.493 1.21661 -2.23765 0
M  V30 10145 H 961.276 0.0480458 -3.43266 0
M  V30 10146 N 963.721 1.49897 0.486681 0
M  V30 10147 C 964.671 1.6401 1.58381 0
M  V30 10148 C 965.655 0.495215 1.5309 0
M  V30 10149 O 966.847 0.748876 1.60377 0
M  V30 10150 C 963.976 1.72321 2.96918 0
M  V30 10151 C 963.062 2.92435 3.07152 0
M  V30 10152 N 963.453 4.16326 2.87238 0
M  V30 10153 C 961.751 2.90669 3.38271 0
M  V30 10154 C 962.452 4.97144 3.02031 0
M  V30 10155 N 961.428 4.3079 3.31544 0
M  V30 10156 H 965.23 2.57506 1.41661 0
M  V30 10157 H 962.744 1.46867 0.693106 0
M  V30 10158 H 964.741 1.80532 3.75784 0
M  V30 10159 H 963.401 0.799724 3.14697 0
M  V30 10160 H 964.412 4.46076 2.63128 0
M  V30 10161 H 961.089 2.07758 3.62137 0
M  V30 10162 H 962.479 6.05611 2.91006 0
M  V30 10163 N 965.199 -0.738761 1.39212 0
M  V30 10164 C 966.109 -1.88324 1.39897 0
M  V30 10165 C 967.125 -1.71494 0.294229 0
M  V30 10166 O 968.301 -1.94162 0.535087 0
M  V30 10167 C 965.366 -3.23871 1.23726 0
M  V30 10168 C 964.427 -3.53121 2.44139 0
M  V30 10169 C 963.66 -4.82202 2.2873 0
M  V30 10170 O 963.883 -5.55649 1.28879 0
M  V30 10171 O 962.817 -5.11265 3.17634 0
M  V30 10172 H 966.643 -1.90701 2.36362 0
M  V30 10173 H 964.228 -0.886067 1.20288 0
M  V30 10174 H 966.11 -4.04882 1.16826 0
M  V30 10175 H 964.785 -3.22274 0.303551 0
M  V30 10176 H 963.692 -2.72212 2.56615 0
M  V30 10177 H 965.025 -3.59495 3.36191 0
M  V30 10178 N 966.677 -1.24326 -0.968545 0
M  V30 10179 C 967.954 -0.990459 -1.68669 0
M  V30 10180 C 968.334 0.487487 -2.05394 0
M  V30 10181 O 967.682 1.46158 -1.75642 0
M  V30 10182 C 967.892 -1.91251 -2.91931 0
M  V30 10183 C 969.24 -2.18291 -3.6419 0
M  V30 10184 O 970.264 -1.88897 -3.01987 0
M  V30 10185 O 969.123 -2.68204 -4.76161 0
M  V30 10186 H 966.217 -0.374515 -0.737338 0
M  V30 10187 H 968.763 -1.35421 -1.02271 0
M  V30 10188 H 967.535 -2.9111 -2.61478 0
M  V30 10189 H 967.158 -1.55188 -3.66064 0
M  V30 10190 N 968.156 1.1691 -1.05688 0
M  V30 10191 C 969.119 2.19297 -0.666433 0
M  V30 10192 C 970.119 1.5826 0.284674 0
M  V30 10193 O 971.309 1.74068 0.0678757 0
M  V30 10194 C 968.441 3.40894 0.0203656 0
M  V30 10195 H 969.634 2.55354 -1.57272 0
M  V30 10196 H 967.187 1.31078 -0.851359 0
M  V30 10197 H 967.922 3.10388 0.939686 0
M  V30 10198 H 967.707 3.86446 -0.663464 0
M  V30 10199 H 969.197 4.16664 0.279475 0
M  V30 10200 N 969.634 0.838594 1.33437 0
M  V30 10201 C 970.597 0.276843 2.27522 0
M  V30 10202 C 971.597 -0.554275 1.50945 0
M  V30 10203 O 972.787 -0.368107 1.70266 0
M  V30 10204 C 969.919 -0.610036 3.35397 0
M  V30 10205 H 971.112 1.10705 2.78719 0
M  V30 10206 H 968.665 0.611657 1.43835 0
M  V30 10207 H 969.4 -1.46269 2.89441 0
M  V30 10208 H 969.185 -0.0153615 3.92097 0
M  V30 10209 H 970.675 -0.996368 4.05539 0
M  V30 10210 N 971.112 -1.45937 0.595003 0
M  V30 10211 C 972.044 -2.28575 -0.169137 0
M  V30 10212 C 973.057 -1.39226 -0.843792 0
M  V30 10213 O 974.246 -1.63716 -0.711291 0
M  V30 10214 C 971.346 -3.14616 -1.25976 0
M  V30 10215 C 970.519 -4.32166 -0.67466 0
M  V30 10216 C 969.578 -4.99511 -1.65456 0
M  V30 10217 O 968.604 -5.56712 -1.18578 0
M  V30 10218 N 969.806 -4.97643 -2.98885 0
M  V30 10219 H 972.571 -2.94797 0.539908 0
M  V30 10220 H 970.132 -1.55985 0.433614 0
M  V30 10221 H 972.124 -3.56534 -1.91483 0
M  V30 10222 H 970.694 -2.50387 -1.8715 0
M  V30 10223 H 969.914 -3.93882 0.158184 0
M  V30 10224 H 971.202 -5.08116 -0.263753 0
M  V30 10225 H 970.6 -4.52438 -3.39583 0
M  V30 10226 H 969.157 -5.43463 -3.59848 0
M  V30 10227 N 972.59 -0.333456 -1.54032 0
M  V30 10228 C 973.837 0.266133 -2.00744 0
M  V30 10229 C 974.165 1.51361 -1.22148 0
M  V30 10230 O 973.42 1.93473 -0.294368 0
M  V30 10231 C 973.719 0.63565 -3.51702 0
M  V30 10232 C 973.385 -0.513786 -4.47963 0
M  V30 10233 C 972.047 -0.829253 -4.74001 0
M  V30 10234 C 974.399 -1.2854 -5.05101 0
M  V30 10235 C 971.727 -1.91888 -5.54433 0
M  V30 10236 C 974.079 -2.3652 -5.86721 0
M  V30 10237 C 972.743 -2.68637 -6.11057 0
M  V30 10238 H 972.013 0.097385 -0.734573 0
M  V30 10239 H 974.66 -0.459282 -1.85911 0
M  V30 10240 H 972.965 1.44163 -3.64313 0
M  V30 10241 H 974.662 1.11129 -3.85294 0
M  V30 10242 H 971.252 -0.25784 -4.27824 0
M  V30 10243 H 975.436 -1.05494 -4.84958 0
M  V30 10244 H 970.692 -2.17208 -5.71516 0
M  V30 10245 H 974.866 -2.96747 -6.30011 0
M  V30 10246 H 972.493 -3.53197 -6.73169 0
M  V30 10247 N 974.068 1.57479 -0.061844 0
M  V30 10248 C 975.296 1.97429 0.618837 0
M  V30 10249 C 975.711 0.939826 1.63746 0
M  V30 10250 O 975.068 -0.0747173 1.82347 0
M  V30 10251 C 975.119 3.3746 1.29628 0
M  V30 10252 O 974.84 4.36941 0.318431 0
M  V30 10253 C 976.341 3.92228 2.06572 0
M  V30 10254 H 973.561 0.649513 0.168444 0
M  V30 10255 H 976.105 2.04078 -0.131303 0
M  V30 10256 H 974.26 3.31928 1.99757 0
M  V30 10257 H 974.674 5.18313 0.803239 0
M  V30 10258 H 976.148 4.92458 2.49377 0
M  V30 10259 H 976.625 3.28231 2.91824 0
M  V30 10260 H 977.231 4.01131 1.4133 0
M  V30 10261 N 975.546 -0.211634 1.56173 0
M  V30 10262 C 976.823 -0.959467 1.70451 0
M  V30 10263 C 977.203 -2.02036 0.611942 0
M  V30 10264 O 976.551 -2.25325 -0.37959 0
M  V30 10265 C 976.761 -1.56092 3.12148 0
M  V30 10266 C 978.109 -2.04939 3.71867 0
M  V30 10267 O 979.133 -1.65966 3.15172 0
M  V30 10268 O 977.992 -2.766 4.71333 0
M  V30 10269 H 975.086 -0.448844 0.6946 0
M  V30 10270 H 977.632 -0.202633 1.68486 0
M  V30 10271 H 976.404 -0.79538 3.83131 0
M  V30 10272 H 976.027 -2.38303 3.18273 0
M  V30 10273 N 977.024 -1.50153 -0.478725 0
M  V30 10274 C 978.271 -1.6076 -1.23136 0
M  V30 10275 C 978.599 -0.30442 -1.92103 0
M  V30 10276 O 977.854 0.709213 -1.82397 0
M  V30 10277 C 978.153 -2.73208 -2.30417 0
M  V30 10278 C 977.819 -4.13953 -1.78755 0
M  V30 10279 C 976.481 -4.52251 -1.64386 0
M  V30 10280 C 978.833 -5.01949 -1.40344 0
M  V30 10281 C 976.161 -5.76292 -1.10018 0
M  V30 10282 C 978.513 -6.2653 -0.874206 0
M  V30 10283 C 977.177 -6.63637 -0.717085 0
M  V30 10284 H 976.447 -0.588264 -0.450585 0
M  V30 10285 H 979.094 -1.84061 -0.528551 0
M  V30 10286 H 977.399 -2.43965 -3.06575 0
M  V30 10287 H 979.096 -2.7862 -2.88395 0
M  V30 10288 H 975.686 -3.83736 -1.90904 0
M  V30 10289 H 979.87 -4.73 -1.50283 0
M  V30 10290 H 975.126 -6.03723 -0.965838 0
M  V30 10291 H 979.3 -6.94081 -0.567883 0
M  V30 10292 H 976.927 -7.59633 -0.293639 0
M  V30 10293 N 978.502 0.731368 -1.39602 0
M  V30 10294 C 979.432 1.85855 -1.41351 0
M  V30 10295 C 980.413 1.67839 -0.2764 0
M  V30 10296 O 981.598 1.88104 -0.482747 0
M  V30 10297 C 978.728 3.23644 -1.25983 0
M  V30 10298 C 977.682 3.56304 -2.37132 0
M  V30 10299 C 977.008 4.93069 -2.0685 0
M  V30 10300 C 978.308 3.58906 -3.79452 0
M  V30 10301 H 980.002 1.84648 -2.3568 0
M  V30 10302 H 977.548 0.886955 -1.13442 0
M  V30 10303 H 979.501 4.02176 -1.25826 0
M  V30 10304 H 978.225 3.25387 -0.281234 0
M  V30 10305 H 976.884 2.80104 -2.36511 0
M  V30 10306 H 976.532 4.91396 -1.0742 0
M  V30 10307 H 976.232 5.15888 -2.81306 0
M  V30 10308 H 977.756 5.73953 -2.0835 0
M  V30 10309 H 979.17 4.27508 -3.81982 0
M  V30 10310 H 977.567 3.93246 -4.53297 0
M  V30 10311 H 978.637 2.58631 -4.10168 0
M  V30 10312 N 979.98 1.24838 0.961938 0
M  V30 10313 C 981.229 1.0855 1.69999 0
M  V30 10314 C 981.542 -0.374645 1.91979 0
M  V30 10315 O 982.748 -0.657822 2.6341 0
M  V30 10316 C 981.204 1.89424 3.06017 0
M  V30 10317 C 980.812 3.39885 2.9186 0
M  V30 10318 C 982.556 1.81684 3.83655 0
M  V30 10319 C 980.463 4.13082 4.23223 0
M  V30 10320 H 979.393 0.402603 0.637516 0
M  V30 10321 H 982.044 1.4897 1.07146 0
M  V30 10322 H 980.426 1.41823 3.69733 0
M  V30 10323 H 981.6 3.95108 2.37121 0
M  V30 10324 H 979.915 3.4864 2.27683 0
M  V30 10325 H 982.512 2.3367 4.80939 0
M  V30 10326 H 982.855 0.783247 4.08865 0
M  V30 10327 H 983.388 2.26997 3.26676 0
M  V30 10328 H 980.127 5.16824 4.03204 0
M  V30 10329 H 979.647 3.62644 4.77755 0
M  V30 10330 H 981.326 4.20397 4.91808 0
M  V30 10331 N 981.458 -1.16348 1.06306 0
M  V30 10332 C 982.869 -1.68491 0.80422 0
M  V30 10333 C 983.22 -1.84327 -0.672159 0
M  V30 10334 O 982.345 -1.53892 -1.52139 0
M  V30 10335 C 982.94 -3.06048 1.45328 0
M  V30 10336 C 981.499 -3.55311 1.24221 0
M  V30 10337 C 980.646 -2.31291 1.5297 0
M  V30 10338 H 983.597 -1.00708 1.22652 0
M  V30 10339 H 983.618 -3.70451 0.868674 0
M  V30 10340 H 983.13 -2.9449 2.52779 0
M  V30 10341 H 981.231 -3.72128 0.187447 0
M  V30 10342 H 981.344 -4.37397 1.95502 0
M  V30 10343 H 979.708 -2.3631 0.950241 0
M  V30 10344 H 980.491 -2.22331 2.6158 0
M  V30 10345 N 982.937 -0.845659 -1.3299 0
M  V30 10346 C 983.87 -0.228695 -2.27051 0
M  V30 10347 C 984.848 0.62812 -1.49978 0
M  V30 10348 O 986.032 0.586897 -1.79131 0
M  V30 10349 C 983.159 0.678251 -3.31839 0
M  V30 10350 C 982.205 -0.103994 -4.26373 0
M  V30 10351 S 983.038 -1.46642 -5.1503 0
M  V30 10352 C 984.194 -0.564953 -6.23345 0
M  V30 10353 H 984.427 -1.02609 -2.79032 0
M  V30 10354 H 981.96 -0.642786 -1.40384 0
M  V30 10355 H 983.918 1.1959 -3.92694 0
M  V30 10356 H 982.579 1.44937 -2.78661 0
M  V30 10357 H 981.772 0.586406 -5.00577 0
M  V30 10358 H 981.374 -0.552927 -3.6989 0
M  V30 10359 H 983.666 0.234466 -6.77094 0
M  V30 10360 H 984.609 -1.27736 -6.96483 0
M  V30 10361 H 985.017 -0.143286 -5.64318 0
M  V30 10362 N 984.415 1.45619 -0.602734 0
M  V30 10363 C 985.345 2.33258 0.106342 0
M  V30 10364 C 986.326 1.46543 0.863664 0
M  V30 10365 O 987.511 1.75324 0.835175 0
M  V30 10366 C 984.641 3.29168 1.10751 0
M  V30 10367 C 983.595 4.25481 0.463717 0
M  V30 10368 C 982.921 5.11046 1.57278 0
M  V30 10369 C 984.221 5.18702 -0.61199 0
M  V30 10370 H 985.915 2.92795 -0.625423 0
M  V30 10371 H 983.461 1.40793 -0.302213 0
M  V30 10372 H 985.414 3.89346 1.61208 0
M  V30 10373 H 984.138 2.6778 1.8698 0
M  V30 10374 H 982.797 3.66595 -0.0199496 0
M  V30 10375 H 982.445 4.46029 2.32524 0
M  V30 10376 H 982.145 5.76286 1.14755 0
M  V30 10377 H 983.669 5.74091 2.07972 0
M  V30 10378 H 985.083 5.72979 -0.191686 0
M  V30 10379 H 983.48 5.92393 -0.958686 0
M  V30 10380 H 984.55 4.61424 -1.4905 0
M  V30 10381 N 985.893 0.34162 1.53853 0
M  V30 10382 C 986.803 -0.524555 2.2866 0
M  V30 10383 C 987.819 -1.1136 1.33697 0
M  V30 10384 O 988.995 -1.1297 1.66732 0
M  V30 10385 C 986.06 -1.66065 3.04341 0
M  V30 10386 C 985.121 -1.10158 4.14926 0
M  V30 10387 C 984.354 -2.18353 4.86988 0
M  V30 10388 O 984.577 -3.39038 4.58704 0
M  V30 10389 O 983.511 -1.82756 5.73484 0
M  V30 10390 H 987.337 0.0835014 3.03585 0
M  V30 10391 H 984.922 0.106727 1.49018 0
M  V30 10392 H 986.804 -2.3217 3.51674 0
M  V30 10393 H 985.479 -2.25456 2.32275 0
M  V30 10394 H 984.386 -0.405109 3.719 0
M  V30 10395 H 985.719 -0.552567 4.89088 0
M  V30 10396 N 987.371 -1.57444 0.0701946 0
M  V30 10397 C 988.304 -2.08232 -0.93352 0
M  V30 10398 C 989.282 -0.987073 -1.29212 0
M  V30 10399 O 990.466 -1.26035 -1.40169 0
M  V30 10400 C 987.593 -2.53866 -2.2421 0
M  V30 10401 C 986.639 -3.7481 -2.03518 0
M  V30 10402 S 987.472 -5.1958 -1.29601 0
M  V30 10403 C 988.628 -5.68544 -2.61742 0
M  V30 10404 H 988.861 -2.93042 -0.501354 0
M  V30 10405 H 986.394 -1.53741 -0.142533 0
M  V30 10406 H 988.352 -2.80818 -2.99419 0
M  V30 10407 H 987.013 -1.69327 -2.64551 0
M  V30 10408 H 986.206 -4.04724 -3.00358 0
M  V30 10409 H 985.808 -3.48222 -1.36445 0
M  V30 10410 H 988.1 -5.75291 -3.57836 0
M  V30 10411 H 989.043 -6.67459 -2.3644 0
M  V30 10412 H 989.451 -4.96354 -2.68873 0
M  V30 10413 N 988.849 0.203349 -1.56283 0
M  V30 10414 C 990.095 0.926381 -1.80405 0
M  V30 10415 C 990.428 1.8325 -0.642883 0
M  V30 10416 O 989.703 1.91196 0.356998 0
M  V30 10417 C 989.986 1.74972 -3.14733 0
M  V30 10418 C 989.839 0.868866 -4.41328 0
M  V30 10419 C 991.158 2.72394 -3.45672 0
M  V30 10420 H 988.277 0.335346 -0.656286 0
M  V30 10421 H 990.919 0.1942 -1.89005 0
M  V30 10422 H 989.069 2.37394 -3.07533 0
M  V30 10423 H 990.741 0.259986 -4.60567 0
M  V30 10424 H 988.984 0.175161 -4.33446 0
M  V30 10425 H 989.655 1.47975 -5.31796 0
M  V30 10426 H 992.131 2.20105 -3.53119 0
M  V30 10427 H 991.007 3.27091 -4.40798 0
M  V30 10428 H 991.268 3.51035 -2.6875 0
M  V30 10429 N 990.327 1.50405 0.470755 0
M  V30 10430 C 991.738 1.54266 1.05162 0
M  V30 10431 C 992.089 0.346359 1.93119 0
M  V30 10432 O 991.214 -0.540699 2.09536 0
M  V30 10433 C 991.809 2.7956 1.91394 0
M  V30 10434 C 990.368 2.86101 2.44588 0
M  V30 10435 C 989.515 2.48557 1.22941 0
M  V30 10436 H 992.466 1.56665 0.253359 0
M  V30 10437 H 992.487 2.61434 2.76464 0
M  V30 10438 H 991.999 3.66611 1.27351 0
M  V30 10439 H 990.1 2.03403 3.12183 0
M  V30 10440 H 990.213 3.88999 2.79672 0
M  V30 10441 H 988.577 2.01003 1.56429 0
M  V30 10442 H 989.36 3.37916 0.605598 0
M  V30 10443 N 991.805 -0.723954 1.39988 0
M  V30 10444 C 992.715 -1.86829 1.41887 0
M  V30 10445 C 993.731 -1.71173 0.312401 0
M  V30 10446 O 994.907 -1.93583 0.555651 0
M  V30 10447 C 991.972 -3.22541 1.27154 0
M  V30 10448 C 991.033 -3.50512 2.47871 0
M  V30 10449 C 990.266 -4.79749 2.33831 0
M  V30 10450 O 990.489 -5.54251 1.34765 0
M  V30 10451 O 989.423 -5.07868 3.23039 0
M  V30 10452 H 993.249 -1.88183 2.38371 0
M  V30 10453 H 990.834 -0.873259 1.21221 0
M  V30 10454 H 992.716 -4.0362 1.21114 0
M  V30 10455 H 991.391 -3.21933 0.337715 0
M  V30 10456 H 990.298 -2.69475 2.59488 0
M  V30 10457 H 991.631 -3.55909 3.39985 0
M  V30 10458 N 993.283 -1.25346 -0.955304 0
M  V30 10459 C 994.23 -1.05672 -2.05188 0
M  V30 10460 C 995.2 0.0339217 -1.66065 0
M  V30 10461 O 996.385 -0.123126 -1.90402 0
M  V30 10462 C 993.525 -0.680791 -3.38318 0
M  V30 10463 C 992.638 -1.84622 -3.90562 0
M  V30 10464 C 991.773 -1.41471 -5.12015 0
M  V30 10465 C 990.812 -2.54931 -5.56486 0
M  V30 10466 N 989.949 -2.1256 -6.69151 0
M  V30 10467 H 994.789 -1.9952 -2.2135 0
M  V30 10468 H 992.326 -0.993588 -1.08472 0
M  V30 10469 H 994.284 -0.443794 -4.14833 0
M  V30 10470 H 992.914 0.2207 -3.22045 0
M  V30 10471 H 991.966 -2.19654 -3.10574 0
M  V30 10472 H 993.278 -2.6983 -4.19515 0
M  V30 10473 H 992.432 -1.13732 -5.95945 0
M  V30 10474 H 991.171 -0.533334 -4.84775 0
M  V30 10475 H 990.176 -2.83415 -4.71122 0
M  V30 10476 H 991.401 -3.43645 -5.85734 0
M  V30 10477 H 989.347 -1.26838 -6.43621 0
M  V30 10478 H 989.264 -2.91317 -6.97618 0
M  V30 10479 H 990.532 -1.87996 -7.5649 0
M  V30 10480 N 994.761 1.15782 -1.06922 0
M  V30 10481 C 996.177 1.38454 -0.793896 0
M  V30 10482 C 996.377 1.92238 0.603875 0
M  V30 10483 O 995.433 2.1253 1.36335 0
M  V30 10484 C 996.746 2.3595 -1.86408 0
M  V30 10485 C 998.294 2.49622 -1.88833 0
M  V30 10486 C 998.769 3.50406 -2.94923 0
M  V30 10487 N 1000.26 3.57938 -2.93997 0
M  V30 10488 C 1001 4.35728 -3.72731 0
M  V30 10489 N 1000.49 5.16888 -4.61301 0
M  V30 10490 N 1002.28 4.30774 -3.61096 0
M  V30 10491 H 994.435 0.792101 -1.97077 0
M  V30 10492 H 996.698 0.410779 -0.85438 0
M  V30 10493 H 996.404 2.03537 -2.86819 0
M  V30 10494 H 996.278 3.35677 -1.72049 0
M  V30 10495 H 998.665 2.81335 -0.890759 0
M  V30 10496 H 998.746 1.49909 -2.0727 0
M  V30 10497 H 998.39 3.19429 -3.94877 0
M  V30 10498 H 998.32 4.49864 -2.73734 0
M  V30 10499 H 1000.81 3.00007 -2.29791 0
M  V30 10500 H 1001.12 5.73477 -5.18019 0
M  V30 10501 H 999.469 5.16209 -4.65353 0
M  V30 10502 H 1002.66 3.66432 -2.91282 0
M  V30 10503 H 1002.83 4.91151 -4.22699 0
M  V30 10504 N 996.239 0.8527 1.3254 0
M  V30 10505 C 997.202 0.300959 2.27215 0
M  V30 10506 C 998.202 -0.538235 1.51525 0
M  V30 10507 O 999.392 -0.350027 1.70647 0
M  V30 10508 C 996.524 -0.574428 3.36025 0
M  V30 10509 H 997.717 1.13655 2.77529 0
M  V30 10510 H 995.27 0.626878 1.43178 0
M  V30 10511 H 996.005 -1.43191 2.90976 0
M  V30 10512 H 995.79 0.0262265 3.92091 0
M  V30 10513 H 997.28 -0.9533 4.06573 0
M  V30 10514 N 997.718 -1.45297 0.610449 0
M  V30 10515 C 998.943 -2.07101 0.111414 0
M  V30 10516 C 999.368 -1.45161 -1.19625 0
M  V30 10517 O 998.726 -0.545368 -1.72903 0
M  V30 10518 C 998.774 -3.60598 -0.0117372 0
M  V30 10519 O 997.878 -3.98512 -1.06122 0
M  V30 10520 H 997.219 -0.659709 0.075364 0
M  V30 10521 H 999.749 -1.86504 0.841269 0
M  V30 10522 H 999.759 -4.07464 -0.209028 0
M  V30 10523 H 998.434 -4.05067 0.943076 0
M  V30 10524 H 997.011 -3.63312 -0.840158 0
M  V30 10525 N 999.196 -0.349774 -1.5367 0
M  V30 10526 C 1000.16 0.491676 -2.23864 0
M  V30 10527 C 1001.16 1.02256 -1.24098 0
M  V30 10528 O 1002.35 0.910816 -1.48492 0
M  V30 10529 C 999.481 1.68557 -2.96313 0
M  V30 10530 H 1000.67 -0.12233 -2.9965 0
M  V30 10531 H 998.227 -0.101214 -1.55972 0
M  V30 10532 H 998.962 2.3381 -2.2473 0
M  V30 10533 H 998.747 1.31203 -3.69497 0
M  V30 10534 H 1000.24 2.28225 -3.49718 0
M  V30 10535 N 1000.67 1.57404 -0.0785433 0
M  V30 10536 C 1001.92 1.93361 0.58786 0
M  V30 10537 C 1002.24 0.959856 1.6974 0
M  V30 10538 O 1001.51 0.0091173 1.95898 0
M  V30 10539 H 1000.09 0.713825 0.220141 0
M  V30 10540 H 1002.75 1.94411 -0.137986 0
M  V30 10541 H 1001.85 2.95346 1.00881 0
M  V30 10542 N 1002.15 -0.195058 1.56388 0
M  V30 10543 C 1003.06 -1.26219 1.97752 0
M  V30 10544 C 1004.08 -1.49801 0.885192 0
M  V30 10545 O 1005.25 -1.62415 1.19094 0
M  V30 10546 C 1002.32 -2.5865 2.3087 0
M  V30 10547 C 1001.38 -2.4314 3.5381 0
M  V30 10548 C 1000.61 -3.69255 3.85339 0
M  V30 10549 O 1000.84 -4.73425 3.18159 0
M  V30 10550 O 999.77 -3.64782 4.78767 0
M  V30 10551 H 1003.6 -0.941161 2.88749 0
M  V30 10552 H 1001.18 -0.40006 1.43944 0
M  V30 10553 H 1003.06 -3.36814 2.53247 0
M  V30 10554 H 1001.74 -2.9038 1.43042 0
M  V30 10555 H 1000.64 -1.63086 3.3668 0
M  V30 10556 H 1001.98 -2.16341 4.42105 0
M  V30 10557 N 1003.63 -1.50653 -0.462772 0
M  V30 10558 C 1004.87 -1.637 -1.22399 0
M  V30 10559 C 1005.23 -0.333847 -1.89075 0
M  V30 10560 O 1006.43 -0.339837 -2.66643 0
M  V30 10561 C 1004.71 -2.79018 -2.23347 0
M  V30 10562 S 1006.26 -3.12248 -3.08296 0
M  V30 10563 H 1003.08 -0.576998 -0.415444 0
M  V30 10564 H 1005.68 -1.88468 -0.519631 0
M  V30 10565 H 1004.39 -3.72174 -1.72958 0
M  V30 10566 H 1003.92 -2.56362 -2.98399 0
M  V30 10567 H 1005.93 -2.56716 -4.24631 0
M  V30 10568 N 1005.11 0.71652 -1.4037 0
M  V30 10569 C 1006.04 1.84345 -1.43315 0
M  V30 10570 C 1007.02 1.67537 -0.294186 0
M  V30 10571 O 1008.2 1.87582 -0.502671 0
M  V30 10572 C 1005.33 3.2229 -1.29408 0
M  V30 10573 C 1004.29 3.53769 -2.40897 0
M  V30 10574 C 1003.61 4.90847 -2.12068 0
M  V30 10575 C 1004.91 3.54862 -3.83237 0
M  V30 10576 H 1006.61 1.82138 -2.37626 0
M  V30 10577 H 1004.15 0.874873 -1.14376 0
M  V30 10578 H 1006.11 4.00819 -1.30085 0
M  V30 10579 H 1004.83 3.2507 -0.31573 0
M  V30 10580 H 1003.49 2.77579 -2.39469 0
M  V30 10581 H 1003.14 4.90229 -1.12626 0
M  V30 10582 H 1002.84 5.12875 -2.86762 0
M  V30 10583 H 1004.36 5.71711 -2.14426 0
M  V30 10584 H 1005.78 4.23432 -3.86494 0
M  V30 10585 H 1004.17 3.88416 -4.57442 0
M  V30 10586 H 1005.24 2.54266 -4.12888 0
M  V30 10587 N 1006.59 1.25851 0.948643 0
M  V30 10588 C 1008 1.02802 1.22081 0
M  V30 10589 C 1008.2 -0.251461 1.99925 0
M  V30 10590 O 1007.26 -0.962592 2.33432 0
M  V30 10591 C 1008.57 2.25489 1.98936 0
M  V30 10592 C 1010.12 2.30312 2.11956 0
M  V30 10593 C 1010.59 3.52671 2.92211 0
M  V30 10594 N 1012.09 3.53103 2.99787 0
M  V30 10595 C 1012.82 4.44445 3.62294 0
M  V30 10596 N 1012.32 5.46065 4.26362 0
M  V30 10597 N 1014.11 4.32113 3.59493 0
M  V30 10598 H 1006.26 2.08042 0.428044 0
M  V30 10599 H 1008.52 0.913928 0.251872 0
M  V30 10600 H 1008.23 3.18513 1.4914 0
M  V30 10601 H 1008.1 2.2914 2.99624 0
M  V30 10602 H 1010.49 1.37808 2.60946 0
M  V30 10603 H 1010.57 2.30676 1.10554 0
M  V30 10604 H 1010.22 4.45501 2.43909 0
M  V30 10605 H 1010.15 3.49554 3.93853 0
M  V30 10606 H 1012.64 2.79597 2.54232 0
M  V30 10607 H 1012.95 6.11964 4.71932 0
M  V30 10608 H 1011.29 5.49931 4.24972 0
M  V30 10609 H 1014.49 3.51946 3.08629 0
M  V30 10610 H 1014.66 5.03493 4.0792 0
M  V30 10611 N 1008.06 -1.15214 1.07534 0
M  V30 10612 C 1009.01 -2.18022 0.667108 0
M  V30 10613 C 1010 -1.57911 -0.308714 0
M  V30 10614 O 1011.19 -1.76578 -0.122147 0
M  V30 10615 C 1008.32 -3.43232 0.0684348 0
M  V30 10616 C 1007.41 -4.10393 1.06951 0
M  V30 10617 N 1007.8 -4.53013 2.24973 0
M  V30 10618 C 1006.09 -4.36758 0.903262 0
M  V30 10619 C 1006.8 -5.05118 2.88498 0
M  V30 10620 N 1005.77 -4.98777 2.16153 0
M  V30 10621 H 1009.57 -2.48706 1.56597 0
M  V30 10622 H 1007.09 -1.31801 0.948796 0
M  V30 10623 H 1009.08 -4.16197 -0.241934 0
M  V30 10624 H 1007.74 -3.14031 -0.825525 0
M  V30 10625 H 1008.76 -4.4634 2.6268 0
M  V30 10626 H 1005.43 -4.17453 0.0623543 0
M  V30 10627 H 1006.82 -5.48039 3.8872 0
M  V30 10628 N 1009.54 -0.859717 -1.32086 0
M  V30 10629 C 1010.95 -0.519529 -1.79326 0
M  V30 10630 C 1011.3 0.96295 -1.70944 0
M  V30 10631 O 1010.43 1.75139 -1.27104 0
M  V30 10632 C 1011.02 -0.936267 -3.25606 0
M  V30 10633 C 1009.58 -0.647899 -3.70782 0
M  V30 10634 C 1008.73 -1.13323 -2.53087 0
M  V30 10635 H 1011.68 -1.04643 -1.19312 0
M  V30 10636 H 1011.7 -0.254714 -3.79646 0
M  V30 10637 H 1011.21 -2.01527 -3.31675 0
M  V30 10638 H 1009.32 0.420172 -3.70223 0
M  V30 10639 H 1009.43 -1.21774 -4.63366 0
M  V30 10640 H 1007.79 -0.553325 -2.48617 0
M  V30 10641 H 1008.58 -2.21945 -2.61907 0
M  V30 10642 N 1011.02 1.44971 -0.618145 0
M  V30 10643 C 1012.27 2.03009 -0.126125 0
M  V30 10644 C 1012.62 1.47656 1.23351 0
M  V30 10645 O 1011.91 0.645901 1.80385 0
M  V30 10646 C 1012.11 3.57378 -0.0394861 0
M  V30 10647 C 1011.94 4.27706 -1.38918 0
M  V30 10648 C 1010.71 4.65206 -1.97261 0
M  V30 10649 C 1012.91 4.58987 -2.32024 0
M  V30 10650 N 1010.89 5.2044 -3.256 0
M  V30 10651 C 1012.26 5.15167 -3.44969 0
M  V30 10652 C 1014.31 4.40932 -2.31265 0
M  V30 10653 C 1013.02 5.55193 -4.57333 0
M  V30 10654 C 1015.04 4.81997 -3.42684 0
M  V30 10655 C 1014.4 5.38279 -4.54352 0
M  V30 10656 H 1010.5 0.77683 -0.0897695 0
M  V30 10657 H 1013.09 1.76646 -0.818805 0
M  V30 10658 H 1011.26 3.8338 0.622441 0
M  V30 10659 H 1012.99 4.02075 0.460165 0
M  V30 10660 H 1009.75 4.49102 -1.50348 0
M  V30 10661 H 1010.17 5.52546 -3.9118 0
M  V30 10662 H 1014.81 3.96723 -1.46187 0
M  V30 10663 H 1012.53 5.98362 -5.43128 0
M  V30 10664 H 1016.12 4.69751 -3.43257 0
M  V30 10665 H 1015 5.6947 -5.39142 0
M  V30 10666 N 1012.5 0.357919 1.53482 0
M  V30 10667 C 1013.43 -0.484231 2.28424 0
M  V30 10668 C 1014.41 -1.09046 1.30548 0
M  V30 10669 O 1015.59 -1.10916 1.59409 0
M  V30 10670 C 1012.72 -1.62803 3.06778 0
M  V30 10671 C 1011.68 -1.14943 4.12277 0
M  V30 10672 C 1011 -2.38287 4.78669 0
M  V30 10673 C 1012.3 -0.239627 5.2175 0
M  V30 10674 H 1014 0.140979 2.99068 0
M  V30 10675 H 1011.54 0.069244 1.43833 0
M  V30 10676 H 1013.5 -2.22374 3.57949 0
M  V30 10677 H 1012.22 -2.28036 2.3381 0
M  V30 10678 H 1010.88 -0.576442 3.6204 0
M  V30 10679 H 1010.53 -3.01959 4.02281 0
M  V30 10680 H 1010.23 -2.06939 5.49955 0
M  V30 10681 H 1011.75 -2.98558 5.32631 0
M  V30 10682 H 1013.17 -0.742597 5.6847 0
M  V30 10683 H 1011.56 -0.0173747 6.00097 0
M  V30 10684 H 1012.63 0.720333 4.7952 0
M  V30 10685 N 1013.98 -1.5736 0.0868897 0
M  V30 10686 C 1014.92 -2.14793 -0.892571 0
M  V30 10687 C 1015.92 -1.08866 -1.29787 0
M  V30 10688 O 1017.12 -1.27223 -1.27335 0
M  V30 10689 H 1013.5 -0.686998 -0.305838 0
M  V30 10690 H 1015.47 -2.95927 -0.383393 0
M  V30 10691 C 1014.22 -2.73646 -2.14507 0
M  V30 10692 H 1013.54 -3.54835 -1.84207 0
M  V30 10693 H 1014.98 -3.17409 -2.81118 0
M  V30 10694 C 1013.44 -1.69138 -2.91366 0
M  V30 10695 O 1013.97 -1.12539 -3.85614 0
M  V30 10696 N 1012.18 -1.3982 -2.54752 0
M  V30 10697 H 1011.72 -1.86035 -1.78182 0
M  V30 10698 H 1011.68 -0.701316 -3.06478 0
M  V30 10699 N 1015.45 0.186762 -1.56489 0
M  V30 10700 C 1016.68 0.925916 -1.85584 0
M  V30 10701 C 1017.1 1.75708 -0.671446 0
M  V30 10702 O 1016.46 1.7728 0.379687 0
M  V30 10703 C 1016.51 1.79107 -3.12975 0
M  V30 10704 O 1015.61 2.89088 -2.94112 0
M  V30 10705 H 1014.96 0.260275 -0.610863 0
M  V30 10706 H 1017.49 0.189561 -2.0372 0
M  V30 10707 H 1017.5 2.19408 -3.43983 0
M  V30 10708 H 1016.17 1.18044 -3.98796 0
M  V30 10709 H 1014.75 2.52482 -2.74422 0
M  V30 10710 O 1016.97 1.58053 0.331901 0
M  V30 10711 H 1017.66 1.67029 0.980866 0
M  V30 END ATOM
M  V30 BEGIN BOND
M  V30 END BOND
M  V30 END CTAB
M  END
$$$$
