drugbank_target|P58758 Adenylate dimethylallyltransferase (DB02270)
 OpenBabel12092120463D

  0  0  0     0  0            999 V3000
M  V30 BEGIN CTAB
M  V30 COUNTS 3868 3911 0 0 0
M  V30 BEGIN ATOM
M  V30 1 H -0.908 1.98254 -0.117106 0
M  V30 2 N 0 1.576 0 0
M  V30 3 C 0.933 2.03868 1.02534 0
M  V30 4 C 1.911 0.928543 1.3348 0
M  V30 5 O 3.095 1.19667 1.45644 0
M  V30 6 C 0.222 2.43627 2.35294 0
M  V30 7 C -0.732 3.65373 2.2001 0
M  V30 8 S 0.101 5.13292 1.52614 0
M  V30 9 C 1.257 5.56322 2.86805 0
M  V30 10 H 1.49 2.90518 0.631377 0
M  V30 11 H -0.977 1.52953 0.210867 0
M  V30 12 H 0.981 2.67203 3.11629 0
M  V30 13 H -0.358 1.57376 2.7183 0
M  V30 14 H -1.165 3.90944 3.18086 0
M  V30 15 H -1.563 3.418 1.51819 0
M  V30 16 H 0.729 5.58782 3.83104 0
M  V30 17 H 1.672 6.56266 2.65933 0
M  V30 18 H 2.08 4.83886 2.90714 0
M  V30 19 N 1.4781 -0.272755 1.55222 0
M  V30 20 C 2.4081 -1.34136 1.91127 0
M  V30 21 C 3.3891 -1.51513 0.773168 0
M  V30 22 O 4.5741 -1.64552 1.03132 0
M  V30 23 C 1.7041 -2.70083 2.1834 0
M  V30 24 C 0.6581 -2.67437 3.34158 0
M  V30 25 C -0.0159 -4.06938 3.46851 0
M  V30 26 C 1.2841 -2.26686 4.70543 0
M  V30 27 H 2.9781 -1.04333 2.80633 0
M  V30 28 H 0.5241 -0.500454 1.35024 0
M  V30 29 H 2.4771 -3.44952 2.42046 0
M  V30 30 H 1.2011 -3.01469 1.25634 0
M  V30 31 H -0.1399 -1.95026 3.1042 0
M  V30 32 H -0.4919 -4.35547 2.51611 0
M  V30 33 H -0.7919 -4.06062 4.2472 0
M  V30 34 H 0.7321 -4.83545 3.72849 0
M  V30 35 H 2.1461 -2.91277 4.93792 0
M  V30 36 H 0.5431 -2.36971 5.5133 0
M  V30 37 H 1.6131 -1.21818 4.69349 0
M  V30 38 N 2.9562 -1.48159 -0.537278 0
M  V30 39 C 3.8862 -1.65029 -1.6519 0
M  V30 40 C 4.8672 -0.499281 -1.62607 0
M  V30 41 O 6.0522 -0.730972 -1.79918 0
M  V30 42 C 3.1822 -1.68303 -3.03795 0
M  V30 43 C 2.1362 -2.8283 -3.21234 0
M  V30 44 C 1.4622 -2.71189 -4.60826 0
M  V30 45 C 2.7622 -4.24211 -3.04701 0
M  V30 46 H 4.4562 -2.58341 -1.51328 0
M  V30 47 H 2.0022 -1.24325 -0.726585 0
M  V30 48 H 3.9552 -1.78693 -3.81637 0
M  V30 49 H 2.6792 -0.715635 -3.18663 0
M  V30 50 H 1.3382 -2.71983 -2.45807 0
M  V30 51 H 0.9862 -1.72435 -4.7252 0
M  V30 52 H 0.6862 -3.48035 -4.7344 0
M  V30 53 H 2.2102 -2.83537 -5.40777 0
M  V30 54 H 3.6242 -4.3593 -3.72341 0
M  V30 55 H 2.0212 -5.01998 -3.28813 0
M  V30 56 H 3.0912 -4.41184 -2.01209 0
M  V30 57 N 4.4343 0.785586 -1.36625 0
M  V30 58 C 5.3843 1.88822 -1.27789 0
M  V30 59 C 6.3683 1.60014 -0.168579 0
M  V30 60 O 7.5603 1.72381 -0.401737 0
M  V30 61 C 4.6893 3.26092 -1.07327 0
M  V30 62 C 3.7753 3.60897 -2.22743 0
M  V30 63 N 4.1663 3.66982 -3.48077 0
M  V30 64 C 2.4643 3.90981 -2.14593 0
M  V30 65 C 3.1653 3.98137 -4.24101 0
M  V30 66 N 2.1413 4.13319 -3.53084 0
M  V30 67 H 5.9433 1.91759 -2.22723 0
M  V30 68 H 3.4573 0.981311 -1.29399 0
M  V30 69 H 5.4543 4.04954 -0.990842 0
M  V30 70 H 4.1143 3.24428 -0.132977 0
M  V30 71 H 5.1253 3.49531 -3.82163 0
M  V30 72 H 1.8023 3.9722 -1.2854 0
M  V30 73 H 3.1923 4.09737 -5.32509 0
M  V30 74 N 5.9124 1.20967 1.01018 0
M  V30 75 C 6.8424 0.988272 2.11555 0
M  V30 76 C 7.8234 -0.0849778 1.69888 0
M  V30 77 O 9.0084 0.0738202 1.9406 0
M  V30 78 C 6.1384 0.546528 3.42973 0
M  V30 79 C 5.0924 1.56375 3.9841 0
M  V30 80 C 4.4184 0.97842 5.25672 0
M  V30 81 C 5.7184 2.94922 4.31066 0
M  V30 82 H 7.4124 1.91276 2.30334 0
M  V30 83 H 4.9584 0.921073 1.1069 0
M  V30 84 H 6.9114 0.378839 4.19694 0
M  V30 85 H 5.6354 -0.413598 3.23971 0
M  V30 86 H 4.2944 1.71891 3.23804 0
M  V30 87 H 3.9424 0.0101688 5.02999 0
M  V30 88 H 3.6424 1.65784 5.63728 0
M  V30 89 H 5.1664 0.821939 6.05043 0
M  V30 90 H 6.5804 2.8288 4.9865 0
M  V30 91 H 4.9774 3.5983 4.80253 0
M  V30 92 H 6.0474 3.4616 3.39561 0
M  V30 93 N 7.3905 -1.2043 1.01659 0
M  V30 94 C 8.6395 -1.89118 0.701237 0
M  V30 95 C 8.9525 -1.79705 -0.772358 0
M  V30 96 O 10.1585 -2.43528 -1.20026 0
M  V30 97 C 8.6145 -3.39168 1.20388 0
M  V30 98 C 8.2225 -3.57166 2.70438 0
M  V30 99 C 9.9665 -4.1341 0.963953 0
M  V30 100 C 7.8735 -5.01042 3.14183 0
M  V30 101 H 6.8035 -0.708267 0.2586 0
M  V30 102 H 9.4545 -1.36239 1.22927 0
M  V30 103 H 7.8365 -3.91369 0.603824 0
M  V30 104 H 9.0105 -3.15351 3.35992 0
M  V30 105 H 7.3255 -2.96294 2.92572 0
M  V30 106 H 9.9225 -5.19491 1.26621 0
M  V30 107 H 10.2655 -4.16181 -0.099578 0
M  V30 108 H 10.7985 -3.67309 1.52738 0
M  V30 109 H 7.5375 -5.03426 4.19812 0
M  V30 110 H 7.0575 -5.43668 2.53348 0
M  V30 111 H 8.7365 -5.69623 3.0682 0
M  V30 112 N 8.8686 -0.792821 -1.36206 0
M  V30 113 C 10.0986 -0.378275 -2.03107 0
M  V30 114 C 10.5066 1.01119 -1.59911 0
M  V30 115 O 9.8496 1.66052 -0.785658 0
M  V30 116 C 9.9116 -0.366535 -3.57627 0
M  V30 117 C 9.5756 -1.70416 -4.24037 0
M  V30 118 C 10.5726 -2.6602 -4.46687 0
M  V30 119 C 8.2576 -1.98439 -4.6144 0
M  V30 120 C 10.2516 -3.8784 -5.05825 0
M  V30 121 C 7.9386 -3.20525 -5.20295 0
M  V30 122 C 8.9366 -4.15044 -5.42427 0
M  V30 123 O 8.6246 -5.34978 -6.00045 0
M  V30 124 H 8.3566 -0.153543 -0.658332 0
M  V30 125 H 10.9106 -1.07383 -1.75094 0
M  V30 126 H 9.1406 0.385539 -3.84773 0
M  V30 127 H 10.8296 0.0238088 -4.05893 0
M  V30 128 H 11.5956 -2.45658 -4.18183 0
M  V30 129 H 7.4746 -1.25686 -4.43536 0
M  V30 130 H 11.0186 -4.61628 -5.23015 0
M  V30 131 H 6.9156 -3.40764 -5.48225 0
M  V30 132 H 7.6836 -5.36088 -6.18508 0
M  V30 133 N 10.3467 1.47872 -0.545128 0
M  V30 134 C 11.5947 2.02093 -0.016553 0
M  V30 135 C 11.9157 1.42305 1.3332 0
M  V30 136 O 11.1857 0.593853 1.86682 0
M  V30 137 H 9.7657 0.746993 -0.00313038 0
M  V30 138 H 12.4277 1.81414 -0.712397 0
M  V30 139 H 11.5237 3.11996 0.0805422 0
M  V30 140 N 11.8248 0.280983 1.55075 0
M  V30 141 C 13.2358 -0.215629 1.85451 0
M  V30 142 C 13.5868 -1.54991 1.203 0
M  V30 143 O 12.7118 -2.10699 0.493435 0
M  V30 144 C 13.3068 -0.398026 3.36454 0
M  V30 145 C 11.8658 -0.838866 3.66933 0
M  V30 146 C 11.0128 0.064458 2.77225 0
M  V30 147 H 13.9638 0.502601 1.50531 0
M  V30 148 H 13.9848 -1.23569 3.59876 0
M  V30 149 H 13.4968 0.573241 3.83843 0
M  V30 150 H 11.5978 -1.8214 3.25048 0
M  V30 151 H 11.7108 -0.672123 4.74362 0
M  V30 152 H 10.0748 -0.452863 2.50642 0
M  V30 153 H 10.8578 1.03172 3.2743 0
M  V30 154 N 13.3029 -1.57598 0.00835791 0
M  V30 155 C 14.5309 -1.95214 -0.68549 0
M  V30 156 C 14.9459 -0.883706 -1.66841 0
M  V30 157 O 14.3029 0.136565 -1.81988 0
M  V30 158 C 14.3539 -3.32865 -1.41007 0
M  V30 159 O 14.0749 -4.35609 -0.466552 0
M  V30 160 C 15.5759 -3.84991 -2.19765 0
M  V30 161 H 12.7959 -0.643422 -0.190392 0
M  V30 162 H 15.3399 -2.04406 0.0619607 0
M  V30 163 H 13.4949 -3.24956 -2.10908 0
M  V30 164 H 13.9089 -5.15288 -0.978699 0
M  V30 165 H 15.3829 -4.8371 -2.65948 0
M  V30 166 H 15.8599 -3.18137 -3.02796 0
M  V30 167 H 16.4659 -3.96103 -1.54864 0
M  V30 168 N 14.781 0.264519 -1.55364 0
M  V30 169 C 16.021 1.00254 -1.78125 0
M  V30 170 C 16.385 1.83187 -0.575017 0
M  V30 171 O 17.586 2.60029 -0.681042 0
M  V30 172 C 15.857 1.85478 -3.05504 0
M  V30 173 S 17.416 2.6543 -3.49417 0
M  V30 174 H 14.234 0.337522 -0.625779 0
M  V30 175 H 16.836 0.272111 -1.93597 0
M  V30 176 H 15.54 1.23491 -3.9138 0
M  V30 177 H 15.071 2.62827 -2.92721 0
M  V30 178 H 17.086 3.87958 -3.09359 0
M  V30 179 N 16.2591 1.48442 0.529413 0
M  V30 180 C 17.4841 1.60406 1.31471 0
M  V30 181 C 17.9091 0.264738 1.86228 0
M  V30 182 O 17.2671 -0.763668 1.64432 0
M  V30 183 C 17.3151 2.65419 2.44101 0
M  V30 184 O 16.4191 2.22618 3.47153 0
M  V30 185 H 15.7601 0.537863 0.389357 0
M  V30 186 H 18.2901 1.94432 0.636965 0
M  V30 187 H 18.3001 2.86709 2.90279 0
M  V30 188 H 16.9751 3.62652 2.03608 0
M  V30 189 H 15.5521 2.11543 3.0709 0
M  V30 190 N 17.7372 -0.778329 1.37039 0
M  V30 191 C 18.9852 -1.53361 1.31623 0
M  V30 192 C 19.3062 -1.94739 -0.100831 0
M  V30 193 O 18.5762 -1.65797 -1.04347 0
M  V30 194 H 17.1562 -0.568794 0.484234 0
M  V30 195 H 19.8182 -0.926742 1.71457 0
M  V30 196 H 18.9142 -2.43606 1.95096 0
M  V30 197 N 19.2153 -1.21501 -1.00376 0
M  V30 198 C 20.1623 -0.975387 -2.09177 0
M  V30 199 C 21.1323 0.0990615 -1.65804 0
M  V30 200 O 22.3173 -0.0483147 -1.90739 0
M  V30 201 C 19.4573 -0.547507 -3.40729 0
M  V30 202 C 18.5703 -1.69153 -3.97506 0
M  V30 203 C 17.7053 -1.2127 -5.17172 0
M  V30 204 C 16.7443 -2.32897 -5.66061 0
M  V30 205 N 15.8813 -1.86138 -6.76976 0
M  V30 206 H 20.7213 -1.9068 -2.29009 0
M  V30 207 H 18.2583 -0.950257 -1.12288 0
M  V30 208 H 20.2163 -0.280667 -4.16255 0
M  V30 209 H 18.8463 0.346904 -3.20931 0
M  V30 210 H 17.8983 -2.07298 -3.18954 0
M  V30 211 H 19.2103 -2.5316 -4.29781 0
M  V30 212 H 18.3643 -0.902591 -5.99948 0
M  V30 213 H 17.1033 -0.342692 -4.86495 0
M  V30 214 H 16.1083 -2.64709 -4.81881 0
M  V30 215 H 17.3333 -3.20396 -5.98768 0
M  V30 216 H 15.2793 -1.01484 -6.48103 0
M  V30 217 H 15.1963 -2.63717 -7.08512 0
M  V30 218 H 16.4643 -1.58165 -7.63285 0
M  V30 219 N 20.6934 1.19889 -1.02296 0
M  V30 220 C 21.9214 1.9339 -0.735399 0
M  V30 221 C 22.3364 1.75148 0.704887 0
M  V30 222 O 21.6934 1.06954 1.47875 0
M  V30 223 C 21.7444 3.45313 -1.06962 0
M  V30 224 O 21.4654 3.62964 -2.45334 0
M  V30 225 C 22.9664 4.35948 -0.804021 0
M  V30 226 H 20.1864 0.61448 -0.269546 0
M  V30 227 H 22.7304 1.522 -1.36585 0
M  V30 228 H 20.8854 3.84359 -0.484455 0
M  V30 229 H 21.2994 4.56886 -2.57595 0
M  V30 230 H 22.7734 5.41174 -1.0879 0
M  V30 231 H 23.2504 4.3842 0.261691 0
M  V30 232 H 23.8564 4.02574 -1.37164 0
M  V30 233 N 22.1715 0.800033 1.35784 0
M  V30 234 C 23.4485 0.30088 1.93272 0
M  V30 235 C 23.8285 -1.20857 1.73081 0
M  V30 236 O 23.1765 -2.00502 1.09596 0
M  V30 237 C 23.3865 0.70511 3.41803 0
M  V30 238 C 24.7345 0.690871 4.18942 0
M  V30 239 O 25.7585 0.646244 3.50289 0
M  V30 240 O 24.6175 0.74332 5.41421 0
M  V30 241 H 21.7115 0.0771605 0.823393 0
M  V30 242 H 24.2575 0.88329 1.449 0
M  V30 243 H 23.0295 1.74571 3.50201 0
M  V30 244 H 22.6525 0.0971541 3.97481 0
M  V30 245 N 23.6496 -1.47581 0.552962 0
M  V30 246 C 24.5826 -2.26883 -0.244857 0
M  V30 247 C 25.5606 -1.33784 -0.924147 0
M  V30 248 O 26.7446 -1.6316 -0.943981 0
M  V30 249 C 23.8716 -3.10695 -1.34856 0
M  V30 250 C 22.9176 -4.19339 -0.778268 0
M  V30 251 S 23.7506 -5.34207 0.37184 0
M  V30 252 C 24.9066 -6.21584 -0.733779 0
M  V30 253 H 25.1396 -2.94202 0.428087 0
M  V30 254 H 22.6726 -1.50628 0.339197 0
M  V30 255 H 24.6306 -3.59555 -1.98066 0
M  V30 256 H 23.2916 -2.42746 -1.99332 0
M  V30 257 H 22.4846 -4.77695 -1.60696 0
M  V30 258 H 22.0866 -3.73338 -0.222422 0
M  V30 259 H 24.3786 -6.57676 -1.62692 0
M  V30 260 H 25.3216 -7.07851 -0.187668 0
M  V30 261 H 25.7296 -5.55125 -1.02454 0
M  V30 262 N 25.1277 -0.289203 -1.54924 0
M  V30 263 C 26.0907 0.579144 -2.21762 0
M  V30 264 C 27.0907 1.07047 -1.1999 0
M  V30 265 O 28.2807 0.968384 -1.44803 0
M  V30 266 C 25.4127 1.80055 -2.8947 0
M  V30 267 H 26.6057 -0.00464908 -2.999 0
M  V30 268 H 24.1587 -0.0399306 -1.56249 0
M  V30 269 H 24.8937 2.42449 -2.15381 0
M  V30 270 H 24.6787 1.45602 -3.64064 0
M  V30 271 H 26.1687 2.41773 -3.40493 0
M  V30 272 N 26.6058 1.57591 -0.0167156 0
M  V30 273 C 27.8548 1.90461 0.663877 0
M  V30 274 C 28.1678 0.893515 1.73999 0
M  V30 275 O 29.3738 1.11302 2.47637 0
M  V30 276 C 27.8298 3.38155 1.23204 0
M  V30 277 C 27.4378 4.47597 0.189866 0
M  V30 278 C 29.1818 3.80111 1.88986 0
M  V30 279 C 27.0888 5.86379 0.768964 0
M  V30 280 H 26.0188 0.710738 0.251729 0
M  V30 281 H 28.6698 1.83326 -0.0799926 0
M  V30 282 H 27.0518 3.40182 2.02712 0
M  V30 283 H 28.2258 4.57112 -0.581846 0
M  V30 284 H 26.5408 4.14766 -0.368475 0
M  V30 285 H 29.1378 4.81145 2.33247 0
M  V30 286 H 29.4808 3.14511 2.72743 0
M  V30 287 H 30.0138 3.80454 1.16187 0
M  V30 288 H 26.7528 6.55493 -0.0301957 0
M  V30 289 H 26.2728 5.80496 1.50945 0
M  V30 290 H 27.9518 6.34563 1.26251 0
M  V30 291 N 28.0839 -0.256276 1.55502 0
M  V30 292 C 29.0159 -1.33981 1.85962 0
M  V30 293 C 30.0289 -1.44743 0.745212 0
M  V30 294 O 31.2179 -1.4626 1.02324 0
M  V30 295 C 28.3179 -2.7194 2.02242 0
M  V30 296 C 27.4909 -2.83562 3.33033 0
M  V30 297 C 26.5499 -4.02304 3.39172 0
M  V30 298 O 25.5759 -3.92273 4.12444 0
M  V30 299 N 26.7779 -5.15045 2.67784 0
M  V30 300 H 29.5429 -1.08191 2.7949 0
M  V30 301 H 27.1039 -0.446388 1.55624 0
M  V30 302 H 29.0959 -3.49697 2.03701 0
M  V30 303 H 27.6659 -2.90479 1.15502 0
M  V30 304 H 26.8859 -1.92555 3.43971 0
M  V30 305 H 28.1739 -2.88271 4.19258 0
M  V30 306 H 27.5719 -5.26085 2.07968 0
M  V30 307 H 26.1289 -5.90972 2.74947 0
M  V30 308 N 29.562 -1.4872 -0.521534 0
M  V30 309 C 30.811 -1.56419 -1.27341 0
M  V30 310 C 31.124 -0.246805 -1.94037 0
M  V30 311 O 32.33 -0.202122 -2.70747 0
M  V30 312 C 30.786 -2.75896 -2.31105 0
M  V30 313 C 30.394 -4.14311 -1.70441 0
M  V30 314 C 32.138 -2.92913 -3.07249 0
M  V30 315 C 30.045 -5.25038 -2.72194 0
M  V30 316 H 28.975 -0.582344 -0.478949 0
M  V30 317 H 31.626 -1.75071 -0.549779 0
M  V30 318 H 30.008 -2.50697 -3.06541 0
M  V30 319 H 31.182 -4.49564 -1.01136 0
M  V30 320 H 29.497 -4.02482 -1.06759 0
M  V30 321 H 32.094 -3.72805 -3.83302 0
M  V30 322 H 32.437 -2.02689 -3.63625 0
M  V30 323 H 32.97 -3.18054 -2.38928 0
M  V30 324 H 29.709 -6.17255 -2.20627 0
M  V30 325 H 29.229 -4.94263 -3.39801 0
M  V30 326 H 30.908 -5.53508 -3.35019 0
M  V30 327 N 31.0401 0.771051 -1.3745 0
M  V30 328 C 32.0031 1.86598 -1.33093 0
M  V30 329 C 33.0031 1.59076 -0.234845 0
M  V30 330 O 34.1931 1.67145 -0.490732 0
M  V30 331 C 31.3251 3.23747 -1.06773 0
M  V30 332 H 32.5181 1.91873 -2.30488 0
M  V30 333 H 30.0711 0.970876 -1.2249 0
M  V30 334 H 30.8061 3.24148 -0.099129 0
M  V30 335 H 30.5911 3.45115 -1.86112 0
M  V30 336 H 32.0811 4.03824 -1.06377 0
M  V30 337 N 32.5182 1.22032 0.997298 0
M  V30 338 C 33.4502 0.944263 2.08845 0
M  V30 339 C 34.4632 -0.0754663 1.62625 0
M  V30 340 O 35.6522 0.157994 1.77799 0
M  V30 341 C 32.7522 0.397723 3.36558 0
M  V30 342 C 31.9252 1.47362 4.11829 0
M  V30 343 C 30.9842 0.934951 5.17827 0
M  V30 344 O 30.0102 1.62016 5.45655 0
M  V30 345 N 31.2122 -0.245895 5.79979 0
M  V30 346 H 33.9772 1.88363 2.33109 0
M  V30 347 H 31.5382 1.12661 1.16272 0
M  V30 348 H 33.5302 0.0227771 4.04694 0
M  V30 349 H 32.1002 -0.446646 3.09393 0
M  V30 350 H 31.3202 2.02208 3.38386 0
M  V30 351 H 32.6082 2.19764 4.58891 0
M  V30 352 H 32.0062 -0.819475 5.59733 0
M  V30 353 H 30.5632 -0.562272 6.4937 0
M  V30 354 N 33.9963 -1.19345 1.0293 0
M  V30 355 C 34.9063 -2.26245 0.620515 0
M  V30 356 C 35.9223 -1.70486 -0.347928 0
M  V30 357 O 37.0983 -2.00347 -0.205704 0
M  V30 358 C 34.1633 -3.46693 -0.0218957 0
M  V30 359 C 33.2243 -4.17632 0.994102 0
M  V30 360 C 32.4573 -5.32329 0.382253 0
M  V30 361 O 32.6803 -5.64552 -0.814676 0
M  V30 362 O 31.6143 -5.91664 1.10531 0
M  V30 363 H 35.4403 -2.63453 1.51083 0
M  V30 364 H 33.0253 -1.26207 0.799513 0
M  V30 365 H 34.9073 -4.19683 -0.380072 0
M  V30 366 H 33.5823 -3.11333 -0.886209 0
M  V30 367 H 32.4893 -3.4676 1.40387 0
M  V30 368 H 33.8223 -4.56964 1.8288 0
M  V30 369 N 35.4744 -0.807222 -1.35358 0
M  V30 370 C 36.7024 -0.400377 -2.02989 0
M  V30 371 C 37.1174 0.988859 -1.60832 0
M  V30 372 O 36.4744 1.63729 -0.806175 0
M  V30 373 C 36.5254 -0.474867 -3.58368 0
M  V30 374 O 36.2464 -1.80933 -3.98992 0
M  V30 375 C 37.7474 -0.0609112 -4.43258 0
M  V30 376 H 34.9674 -0.162587 -0.651004 0
M  V30 377 H 37.5114 -1.09102 -1.72965 0
M  V30 378 H 35.6664 0.167534 -3.87038 0
M  V30 379 H 36.0804 -1.77256 -4.9364 0
M  V30 380 H 37.5544 -0.164145 -5.51756 0
M  V30 381 H 38.0314 0.993831 -4.27808 0
M  V30 382 H 38.6374 -0.676492 -4.19885 0
M  V30 383 N 36.9525 1.47285 -0.560781 0
M  V30 384 C 38.2005 2.02064 -0.0379868 0
M  V30 385 C 38.5215 1.43711 1.31803 0
M  V30 386 O 37.7915 0.61362 1.86042 0
M  V30 387 H 36.3715 0.746918 -0.0110531 0
M  V30 388 H 39.0335 1.80648 -0.731598 0
M  V30 389 H 38.1295 3.12064 0.0474463 0
M  V30 390 N 38.4306 0.297415 1.54768 0
M  V30 391 C 39.6766 -0.306263 2.01081 0
M  V30 392 C 40.0316 -1.518 1.18214 0
M  V30 393 O 39.3246 -1.89967 0.249613 0
M  V30 394 C 39.5186 -0.717561 3.50123 0
M  V30 395 C 39.3476 0.45277 4.47415 0
M  V30 396 C 38.1176 0.943651 4.9641 0
M  V30 397 C 40.3156 1.29657 4.97688 0
M  V30 398 N 38.2976 2.08112 5.77549 0
M  V30 399 C 39.6686 2.28158 5.76493 0
M  V30 400 C 41.7236 1.32735 4.79881 0
M  V30 401 C 40.4266 3.29509 6.39387 0
M  V30 402 C 42.4526 2.32943 5.43591 0
M  V30 403 C 41.8146 3.30174 6.22225 0
M  V30 404 H 37.9136 -0.0766274 0.778237 0
M  V30 405 H 40.4976 0.426515 1.89971 0
M  V30 406 H 38.6686 -1.41952 3.6153 0
M  V30 407 H 40.4006 -1.30047 3.83236 0
M  V30 408 H 37.1556 0.51922 4.70745 0
M  V30 409 H 37.5796 2.65414 6.22803 0
M  V30 410 H 42.2216 0.589375 4.18672 0
M  V30 411 H 39.9396 4.04228 6.99732 0
M  V30 412 H 43.5256 2.36094 5.31743 0
M  V30 413 H 42.4056 4.06445 6.7065 0
M  V30 414 N 39.9087 -1.5758 0.0250728 0
M  V30 415 C 41.3197 -1.79476 -0.514323 0
M  V30 416 C 41.6707 -0.934956 -1.72491 0
M  V30 417 O 40.7957 -0.144245 -2.15919 0
M  V30 418 C 41.3907 -3.25503 -0.939842 0
M  V30 419 C 39.9497 -3.48408 -1.42438 0
M  V30 420 C 39.0967 -2.74583 -0.387201 0
M  V30 421 H 42.0477 -1.567 0.25113 0
M  V30 422 H 42.0687 -3.34992 -1.80445 0
M  V30 423 H 41.5807 -3.88056 -0.0585628 0
M  V30 424 H 39.6817 -2.91103 -2.32572 0
M  V30 425 H 39.7947 -4.57119 -1.43455 0
M  V30 426 H 38.1587 -2.39942 -0.854409 0
M  V30 427 H 38.9417 -3.39849 0.485543 0
M  V30 428 N 41.3868 0.248026 -1.55636 0
M  V30 429 C 42.6328 0.97767 -1.77678 0
M  V30 430 C 42.9658 1.85016 -0.590135 0
M  V30 431 O 42.2408 1.90095 0.411611 0
M  V30 432 C 42.5238 1.83914 -3.09593 0
M  V30 433 C 42.3768 0.99491 -4.38659 0
M  V30 434 C 43.6958 2.82183 -3.37729 0
M  V30 435 H 40.8148 0.354005 -0.646413 0
M  V30 436 H 43.4568 0.248253 -1.88371 0
M  V30 437 H 41.6068 2.46104 -3.00608 0
M  V30 438 H 43.2788 0.391789 -4.59633 0
M  V30 439 H 41.5218 0.299231 -4.32767 0
M  V30 440 H 42.1928 1.63145 -5.2734 0
M  V30 441 H 44.6688 2.30129 -3.4667 0
M  V30 442 H 43.5448 3.39582 -4.31249 0
M  V30 443 H 43.8058 3.58588 -2.58586 0
M  V30 444 N 42.8649 1.48995 0.513639 0
M  V30 445 C 44.1109 1.58076 1.27042 0
M  V30 446 C 44.4439 0.261026 1.92438 0
M  V30 447 O 43.7189 -0.734393 1.80103 0
M  V30 448 C 44.0019 2.73091 2.34719 0
M  V30 449 C 43.8549 4.14821 1.73907 0
M  V30 450 C 45.1739 2.83796 3.36375 0
M  V30 451 H 42.2929 0.575391 0.460536 0
M  V30 452 H 44.9349 1.81232 0.570516 0
M  V30 453 H 43.0849 2.53479 2.94416 0
M  V30 454 H 44.7569 4.45917 1.18135 0
M  V30 455 H 42.9999 4.21058 1.0437 0
M  V30 456 H 43.6709 4.91147 2.51949 0
M  V30 457 H 46.1469 3.01611 2.86653 0
M  V30 458 H 45.0229 3.65971 4.09093 0
M  V30 459 H 45.2839 1.92624 3.9793 0
M  V30 460 N 44.343 -0.763751 1.37857 0
M  V30 461 C 45.306 -1.85889 1.34081 0
M  V30 462 C 46.306 -1.58949 0.243277 0
M  V30 463 O 47.496 -1.66882 0.499589 0
M  V30 464 C 44.628 -3.23176 1.08489 0
M  V30 465 H 45.821 -1.90648 2.31502 0
M  V30 466 H 43.374 -0.964367 1.23003 0
M  V30 467 H 44.109 -3.24091 0.116318 0
M  V30 468 H 43.894 -3.44124 1.8794 0
M  V30 469 H 45.384 -4.03254 1.08517 0
M  V30 470 N 45.8211 -1.22559 -0.990812 0
M  V30 471 C 46.7511 -1.0218 -2.09956 0
M  V30 472 C 47.7321 0.0579394 -1.70001 0
M  V30 473 O 48.9171 -0.104684 -1.93918 0
M  V30 474 C 46.0471 -0.601023 -3.4206 0
M  V30 475 C 45.0011 -1.62694 -3.95872 0
M  V30 476 C 44.3271 -1.06193 -5.24049 0
M  V30 477 C 45.6271 -3.01743 -4.2632 0
M  V30 478 H 47.3211 -1.94916 -2.27262 0
M  V30 479 H 44.8671 -0.938566 -1.09211 0
M  V30 480 H 46.8201 -0.445561 -4.19038 0
M  V30 481 H 45.5441 0.362005 -3.24588 0
M  V30 482 H 44.2031 -1.77021 -3.21028 0
M  V30 483 H 43.8511 -0.0901903 -5.02919 0
M  V30 484 H 43.5511 -1.74732 -5.61019 0
M  V30 485 H 45.0751 -0.918092 -6.03658 0
M  V30 486 H 46.4891 -2.90777 -4.94087 0
M  V30 487 H 44.8861 -3.67425 -4.74467 0
M  V30 488 H 45.9561 -3.51518 -3.34011 0
M  V30 489 N 47.2992 1.18797 -1.03562 0
M  V30 490 C 48.5762 1.84469 -0.650434 0
M  V30 491 C 48.9562 1.92319 0.870433 0
M  V30 492 O 48.3042 1.44528 1.76986 0
M  V30 493 C 48.5142 3.2306 -1.32036 0
M  V30 494 C 49.8622 3.9915 -1.44792 0
M  V30 495 O 50.8862 3.32481 -1.27806 0
M  V30 496 O 49.7452 5.18587 -1.72423 0
M  V30 497 H 46.8392 0.795251 -0.226946 0
M  V30 498 H 49.3852 1.26231 -1.13419 0
M  V30 499 H 48.1572 3.1222 -2.3587 0
M  V30 500 H 47.7802 3.88949 -0.8249 0
M  V30 501 N 48.7773 0.814389 1.34928 0
M  V30 502 C 50.1933 0.499084 1.51596 0
M  V30 503 C 50.3933 -0.978319 1.76157 0
M  V30 504 O 49.4493 -1.76309 1.80752 0
M  V30 505 C 50.7623 1.35121 2.68631 0
M  V30 506 C 52.3103 1.34746 2.82511 0
M  V30 507 C 52.7853 2.18388 4.0258 0
M  V30 508 N 54.2763 2.15966 4.09772 0
M  V30 509 C 55.0113 2.77437 5.01813 0
M  V30 510 N 54.5073 3.47866 5.99134 0
M  V30 511 N 56.3003 2.67037 4.94619 0
M  V30 512 H 48.4513 1.7711 1.17243 0
M  V30 513 H 50.7143 0.754256 0.574284 0
M  V30 514 H 50.4203 2.40001 2.57085 0
M  V30 515 H 50.2943 1.00991 3.63429 0
M  V30 516 H 52.6813 0.30648 2.93504 0
M  V30 517 H 52.7623 1.72869 1.88547 0
M  V30 518 H 52.4063 3.2253 3.92347 0
M  V30 519 H 52.3363 1.77621 4.9574 0
M  V30 520 H 54.8273 1.64729 3.40107 0
M  V30 521 H 55.1403 3.92038 6.65977 0
M  V30 522 H 53.4853 3.51972 5.99284 0
M  V30 523 H 56.6763 2.11597 4.17546 0
M  V30 524 H 56.8493 3.15232 5.66156 0
M  V30 525 N 50.2554 -1.46986 0.568584 0
M  V30 526 C 51.5014 -2.02741 0.0488709 0
M  V30 527 C 51.8344 -1.44077 -1.30214 0
M  V30 528 O 51.1094 -0.600552 -1.84996 0
M  V30 529 C 51.3924 -3.60086 -0.032047 0
M  V30 530 C 51.2454 -4.29162 1.34686 0
M  V30 531 C 52.5644 -4.33838 -0.739798 0
M  V30 532 H 49.6834 -0.736749 0.0192338 0
M  V30 533 H 52.3254 -1.75289 0.733065 0
M  V30 534 H 50.4754 -3.83606 -0.61473 0
M  V30 535 H 52.1474 -4.16948 1.97362 0
M  V30 536 H 50.3904 -3.89073 1.91846 0
M  V30 537 H 51.0614 -5.37826 1.24285 0
M  V30 538 H 53.5374 -4.15378 -0.244939 0
M  V30 539 H 52.4134 -5.43537 -0.765406 0
M  V30 540 H 52.6744 -4.03875 -1.79827 0
M  V30 541 N 51.7335 -0.305618 -1.54608 0
M  V30 542 C 52.6655 0.602161 -2.21149 0
M  V30 543 C 53.6785 1.09394 -1.20569 0
M  V30 544 O 54.8675 1.0106 -1.47136 0
M  V30 545 C 51.9675 1.83692 -2.84799 0
M  V30 546 C 51.1405 1.48686 -4.11353 0
M  V30 547 C 50.1995 2.57725 -4.58764 0
M  V30 548 O 49.2255 2.22623 -5.23858 0
M  V30 549 N 50.4275 3.88346 -4.31471 0
M  V30 550 H 53.1925 0.0324966 -2.99682 0
M  V30 551 H 50.7535 -0.128021 -1.61393 0
M  V30 552 H 52.7455 2.55994 -3.13448 0
M  V30 553 H 51.3155 2.31486 -2.10078 0
M  V30 554 H 50.5355 0.596269 -3.89664 0
M  V30 555 H 51.8235 1.22842 -4.93748 0
M  V30 556 H 51.2215 4.19671 -3.79331 0
M  V30 557 H 49.7785 4.56932 -4.64818 0
M  V30 558 N 53.2116 1.57565 -0.0334293 0
M  V30 559 C 54.4516 1.93844 0.648379 0
M  V30 560 C 54.8156 0.910387 1.69044 0
M  V30 561 O 56.0166 1.15952 2.42505 0
M  V30 562 C 54.2876 3.35017 1.24492 0
M  V30 563 S 55.8466 3.93229 1.94721 0
M  V30 564 H 52.6646 0.678231 0.213364 0
M  V30 565 H 55.2666 1.95254 -0.0981253 0
M  V30 566 H 53.9706 4.07652 0.474128 0
M  V30 567 H 53.5016 3.37061 2.02864 0
M  V30 568 H 55.5166 3.77014 3.22606 0
M  V30 569 N 54.6897 -0.239769 1.55765 0
M  V30 570 C 55.9297 -0.974076 1.79697 0
M  V30 571 C 56.2937 -1.82249 0.604088 0
M  V30 572 O 57.4947 -2.58913 0.722324 0
M  V30 573 C 55.7657 -1.80595 3.08416 0
M  V30 574 S 57.3247 -2.59838 3.53596 0
M  V30 575 H 54.1427 -0.327524 0.63107 0
M  V30 576 H 56.7447 -0.241277 1.94005 0
M  V30 577 H 55.4487 -1.17249 3.93295 0
M  V30 578 H 54.9797 -2.58137 2.96865 0
M  V30 579 H 56.9947 -3.82987 3.15492 0
M  V30 580 N 56.1678 -1.49265 -0.50573 0
M  V30 581 C 57.5788 -1.51769 -1.08734 0
M  V30 582 C 57.9298 -0.301192 -1.93874 0
M  V30 583 O 57.0548 0.589456 -2.08217 0
M  V30 584 C 57.6498 -2.75017 -1.97867 0
M  V30 585 C 56.2088 -2.80314 -2.51199 0
M  V30 586 C 55.3558 -2.4562 -1.28709 0
M  V30 587 H 58.3068 -1.56031 -0.289855 0
M  V30 588 H 58.3278 -2.5491 -2.82491 0
M  V30 589 H 57.8398 -3.63539 -1.35873 0
M  V30 590 H 55.9408 -1.96061 -3.16845 0
M  V30 591 H 56.0538 -3.82366 -2.88675 0
M  V30 592 H 54.4178 -1.97297 -1.61078 0
M  V30 593 H 55.2008 -3.36411 -0.6843 0
M  V30 594 N 57.6459 0.756429 -1.3826 0
M  V30 595 C 58.5779 1.87971 -1.31147 0
M  V30 596 C 59.5909 1.61248 -0.224239 0
M  V30 597 O 60.7799 1.71881 -0.481581 0
M  V30 598 C 57.8799 3.23545 -1.00857 0
M  V30 599 C 57.0529 3.77794 -2.20432 0
M  V30 600 C 56.1119 4.91877 -1.86931 0
M  V30 601 O 55.1379 5.06659 -2.59395 0
M  V30 602 N 56.3399 5.74643 -0.822568 0
M  V30 603 H 59.1049 1.94585 -2.2794 0
M  V30 604 H 56.6659 0.936234 -1.32084 0
M  V30 605 H 58.6579 3.97403 -0.765021 0
M  V30 606 H 57.2279 3.12335 -0.128687 0
M  V30 607 H 56.4479 2.95534 -2.6087 0
M  V30 608 H 57.7359 4.10771 -3.00241 0
M  V30 609 H 57.1339 5.65266 -0.221575 0
M  V30 610 H 55.6909 6.48661 -0.638899 0
M  V30 611 N 59.124 1.23083 0.984299 0
M  V30 612 C 60.373 1.05466 1.71929 0
M  V30 613 C 60.686 -0.409211 1.91272 0
M  V30 614 O 61.892 -0.705226 2.62181 0
M  V30 615 C 60.348 1.83874 3.09384 0
M  V30 616 C 59.956 3.34566 2.97943 0
M  V30 617 C 61.7 1.74734 3.8687 0
M  V30 618 C 59.607 4.05381 4.30605 0
M  V30 619 H 58.537 0.391039 0.644674 0
M  V30 620 H 61.188 1.47013 1.09815 0
M  V30 621 H 59.57 1.35131 3.72231 0
M  V30 622 H 60.744 3.90767 2.44209 0
M  V30 623 H 59.059 3.44476 2.33934 0
M  V30 624 H 61.656 2.24957 4.85076 0
M  V30 625 H 61.999 0.709372 4.10212 0
M  V30 626 H 62.532 2.21067 3.30717 0
M  V30 627 H 59.271 5.09467 4.1246 0
M  V30 628 H 58.791 3.53967 4.84218 0
M  V30 629 H 60.47 4.11458 4.99311 0
M  V30 630 N 60.6021 -1.18246 1.0419 0
M  V30 631 C 61.5651 -2.20128 0.638452 0
M  V30 632 C 62.5651 -1.57885 -0.304805 0
M  V30 633 O 63.7551 -1.73967 -0.0900369 0
M  V30 634 C 60.8871 -3.4084 -0.0637751 0
M  V30 635 H 62.0801 -2.57336 1.54007 0
M  V30 636 H 59.6331 -1.32152 0.834598 0
M  V30 637 H 60.3681 -3.09166 -0.979136 0
M  V30 638 H 60.1531 -3.8726 0.614198 0
M  V30 639 H 61.6431 -4.16274 -0.332512 0
M  V30 640 N 62.0802 -0.821533 -1.34494 0
M  V30 641 C 63.3082 -0.421884 -2.02553 0
M  V30 642 C 63.7232 0.971745 -1.61872 0
M  V30 643 O 63.0802 1.62864 -0.823496 0
M  V30 644 C 63.1312 -0.51285 -3.57844 0
M  V30 645 O 62.8522 -1.85155 -3.97051 0
M  V30 646 C 64.3532 -0.107921 -4.43169 0
M  V30 647 H 61.5732 -0.169482 -0.649243 0
M  V30 648 H 64.1172 -1.1093 -1.71798 0
M  V30 649 H 62.2722 0.126474 -3.87193 0
M  V30 650 H 62.6862 -1.82482 -4.91732 0
M  V30 651 H 64.1602 -0.222657 -5.51551 0
M  V30 652 H 64.6372 0.948401 -4.28838 0
M  V30 653 H 65.2432 -0.720989 -4.19144 0
M  V30 654 N 63.5583 1.46682 -0.576371 0
M  V30 655 C 64.8063 2.02013 -0.0594163 0
M  V30 656 C 65.1273 1.45101 1.30271 0
M  V30 657 O 64.3973 0.633317 1.8538 0
M  V30 658 H 62.9773 0.746759 -0.0189745 0
M  V30 659 H 65.6393 1.79862 -0.750717 0
M  V30 660 H 64.7353 3.12097 0.014345 0
M  V30 661 N 65.0364 0.313813 1.54444 0
M  V30 662 C 66.2614 -0.296681 2.05267 0
M  V30 663 C 66.6864 -1.45757 1.18897 0
M  V30 664 O 66.0444 -1.80239 0.195886 0
M  V30 665 C 66.0924 -0.71831 3.53373 0
M  V30 666 O 65.1964 -1.82175 3.69981 0
M  V30 667 H 64.5374 -0.0554061 0.661684 0
M  V30 668 H 67.0674 0.459387 1.99376 0
M  V30 669 H 67.0774 -1.00364 3.95463 0
M  V30 670 H 65.7524 0.130821 4.15694 0
M  V30 671 H 64.3294 -1.53598 3.39797 0
M  V30 672 N 66.5145 -1.57545 0.0417849 0
M  V30 673 C 67.7625 -1.91937 -0.632829 0
M  V30 674 C 68.0835 -0.919978 -1.71934 0
M  V30 675 O 67.3535 0.0366064 -1.95866 0
M  V30 676 H 65.9335 -0.708493 -0.236742 0
M  V30 677 H 68.5955 -1.9468 0.0925745 0
M  V30 678 H 67.6915 -2.92912 -1.07746 0
M  V30 679 N 67.9926 0.231505 -1.5589 0
M  V30 680 C 69.4086 0.580748 -1.48659 0
M  V30 681 C 69.6086 1.87617 -0.73498 0
M  V30 682 O 68.6646 2.51046 -0.270586 0
M  V30 683 C 69.9776 0.669202 -2.93159 0
M  V30 684 C 71.5256 0.760499 -3.03621 0
M  V30 685 C 72.0006 0.880383 -4.49459 0
M  V30 686 N 73.4916 0.944861 -4.53461 0
M  V30 687 C 74.2266 1.05716 -5.63571 0
M  V30 688 N 73.7226 1.13403 -6.83456 0
M  V30 689 N 75.5156 1.09152 -5.514 0
M  V30 690 H 67.6666 -0.618695 -2.03189 0
M  V30 691 H 69.9296 -0.215728 -0.923128 0
M  V30 692 H 69.6356 -0.212904 -3.51055 0
M  V30 693 H 69.5096 1.5361 -3.44505 0
M  V30 694 H 71.8966 1.63305 -2.45796 0
M  V30 695 H 71.9776 -0.131864 -2.5546 0
M  V30 696 H 71.6216 0.0123284 -5.07899 0
M  V30 697 H 71.5516 1.78802 -4.95316 0
M  V30 698 H 74.0426 0.896176 -3.6712 0
M  V30 699 H 74.3556 1.21921 -7.63122 0
M  V30 700 H 72.7006 1.10333 -6.86186 0
M  V30 701 H 75.8916 1.02805 -4.56671 0
M  V30 702 H 76.0646 1.17558 -6.37247 0
M  V30 703 N 69.4707 1.49531 0.497807 0
M  V30 704 C 70.8817 1.52344 1.07927 0
M  V30 705 C 71.2327 0.311469 1.93712 0
M  V30 706 O 70.3577 -0.578405 2.08527 0
M  V30 707 C 70.9527 2.76062 1.96405 0
M  V30 708 C 69.5117 2.81643 2.49709 0
M  V30 709 C 68.6587 2.46299 1.27404 0
M  V30 710 H 71.6097 1.56182 0.281576 0
M  V30 711 H 71.6307 2.56405 2.81135 0
M  V30 712 H 71.1427 3.64254 1.33943 0
M  V30 713 H 69.2437 1.97739 3.15801 0
M  V30 714 H 69.3567 3.83891 2.86643 0
M  V30 715 H 67.7207 1.98148 1.60029 0
M  V30 716 H 68.5037 3.36769 0.66645 0
M  V30 717 N 70.9488 -0.749086 1.3866 0
M  V30 718 C 71.8788 -1.8764 1.38973 0
M  V30 719 C 72.8598 -1.68178 0.255004 0
M  V30 720 O 74.0448 -1.88704 0.458754 0
M  V30 721 C 71.1748 -3.25222 1.21851 0
M  V30 722 C 70.1288 -3.59295 2.32575 0
M  V30 723 C 69.4548 -4.95663 2.00555 0
M  V30 724 C 70.7548 -3.63709 3.7485 0
M  V30 725 H 72.4488 -1.87635 2.3331 0
M  V30 726 H 69.9948 -0.901329 1.12303 0
M  V30 727 H 71.9478 -4.03746 1.20695 0
M  V30 728 H 70.6718 -3.25719 0.239775 0
M  V30 729 H 69.3308 -2.83093 2.32925 0
M  V30 730 H 68.9788 -4.92724 1.01154 0
M  V30 731 H 68.6788 -5.19429 2.74714 0
M  V30 732 H 70.2028 -5.7656 2.01024 0
M  V30 733 H 71.6168 -4.32338 3.76506 0
M  V30 734 H 70.0138 -3.98986 4.48252 0
M  V30 735 H 71.0838 -2.63834 4.06841 0
M  V30 736 N 72.4269 -1.23603 -0.977757 0
M  V30 737 C 73.3369 -1.03632 -2.1047 0
M  V30 738 C 74.3529 0.0199435 -1.73989 0
M  V30 739 O 75.5289 -0.176076 -2.00629 0
M  V30 740 C 72.5939 -0.63276 -3.40877 0
M  V30 741 C 71.6549 -1.76437 -3.91367 0
M  V30 742 C 70.8879 -1.37997 -5.15551 0
M  V30 743 O 71.1109 -0.265357 -5.69782 0
M  V30 744 O 70.0449 -2.20201 -5.60174 0
M  V30 745 H 73.8709 -1.98086 -2.30208 0
M  V30 746 H 71.4559 -1.02332 -1.08851 0
M  V30 747 H 73.3379 -0.418761 -4.19314 0
M  V30 748 H 72.0129 0.282754 -3.22463 0
M  V30 749 H 70.9199 -2.03304 -3.14036 0
M  V30 750 H 72.2529 -2.6583 -4.14241 0
M  V30 751 N 73.905 1.17692 -1.04816 0
M  V30 752 C 75.13 1.92327 -0.776207 0
M  V30 753 C 75.555 1.76082 0.661581 0
M  V30 754 O 74.913 1.076 1.45917 0
M  V30 755 C 74.961 3.41539 -1.15687 0
M  V30 756 O 74.065 4.11402 -0.286775 0
M  V30 757 H 73.406 0.599735 -0.284981 0
M  V30 758 H 75.936 1.49201 -1.4 0
M  V30 759 H 75.946 3.92269 -1.12202 0
M  V30 760 H 74.621 3.52684 -2.20425 0
M  V30 761 H 73.198 3.70939 -0.381903 0
M  V30 762 N 75.3831 0.828654 1.34056 0
M  V30 763 C 76.2931 0.256725 2.33191 0
M  V30 764 C 77.3091 -0.611898 1.62886 0
M  V30 765 O 78.4851 -0.51844 1.94613 0
M  V30 766 C 75.5501 -0.567238 3.42028 0
M  V30 767 C 74.6111 0.324458 4.28072 0
M  V30 768 C 73.8441 -0.460274 5.31712 0
M  V30 769 O 74.0671 -1.693 5.44696 0
M  V30 770 O 73.0011 0.160391 6.01686 0
M  V30 771 H 76.8271 1.07739 2.83947 0
M  V30 772 H 74.4121 0.59093 1.37217 0
M  V30 773 H 76.2941 -1.03582 4.08471 0
M  V30 774 H 74.9691 -1.36513 2.93506 0
M  V30 775 H 73.8761 0.840659 3.64532 0
M  V30 776 H 75.2091 1.08685 4.8005 0
M  V30 777 N 76.8612 -1.46375 0.584142 0
M  V30 778 C 77.7912 -2.33103 -0.136037 0
M  V30 779 C 78.7722 -1.45431 -0.882255 0
M  V30 780 O 79.9572 -1.74246 -0.857434 0
M  V30 781 C 77.0872 -3.27731 -1.14933 0
M  V30 782 C 76.0412 -4.24855 -0.517862 0
M  V30 783 C 75.3672 -5.09001 -1.63773 0
M  V30 784 C 76.6672 -5.19439 0.545886 0
M  V30 785 H 78.3612 -2.93568 0.588086 0
M  V30 786 H 75.9072 -1.41166 0.284259 0
M  V30 787 H 77.8602 -3.87261 -1.66153 0
M  V30 788 H 76.5842 -2.65377 -1.90375 0
M  V30 789 H 75.2432 -3.6659 -0.0267361 0
M  V30 790 H 74.8912 -4.43031 -2.38185 0
M  V30 791 H 74.5912 -5.74777 -1.22085 0
M  V30 792 H 76.1152 -5.71396 -2.15266 0
M  V30 793 H 77.5292 -5.73177 0.118704 0
M  V30 794 H 75.9262 -5.93566 0.88317 0
M  V30 795 H 76.9962 -4.63285 1.43162 0
M  V30 796 N 78.3393 -0.321999 -1.54275 0
M  V30 797 C 79.2713 0.578671 -2.21775 0
M  V30 798 C 80.2843 1.08109 -1.21722 0
M  V30 799 O 81.4733 0.994938 -1.482 0
M  V30 800 C 78.5733 1.80661 -2.86731 0
M  V30 801 C 77.7463 1.44314 -4.12907 0
M  V30 802 C 76.8053 2.52845 -4.61472 0
M  V30 803 O 75.8313 2.17054 -5.2619 0
M  V30 804 N 77.0333 3.83748 -4.35566 0
M  V30 805 H 79.7983 0.000709447 -2.997 0
M  V30 806 H 77.3593 -0.145132 -1.61248 0
M  V30 807 H 79.3513 2.52655 -3.16145 0
M  V30 808 H 77.9213 2.29245 -2.12521 0
M  V30 809 H 77.1413 0.554906 -3.90275 0
M  V30 810 H 78.4293 1.17598 -4.95023 0
M  V30 811 H 77.8273 4.15625 -3.83761 0
M  V30 812 H 76.3843 4.51977 -4.69638 0
M  V30 813 N 79.8174 1.5752 -0.0501392 0
M  V30 814 C 81.0424 1.97376 0.636997 0
M  V30 815 C 81.4674 0.927466 1.63645 0
M  V30 816 O 80.8254 -0.10941 1.8097 0
M  V30 817 C 80.8734 3.36304 1.30123 0
M  V30 818 O 79.9774 3.34156 2.41689 0
M  V30 819 H 79.3184 0.642998 0.165679 0
M  V30 820 H 81.8484 2.04258 -0.118233 0
M  V30 821 H 81.8584 3.73008 1.65315 0
M  V30 822 H 80.5334 4.11993 0.568746 0
M  V30 823 H 79.1104 3.09196 2.08451 0
M  V30 824 N 81.2955 -0.223234 1.56011 0
M  V30 825 C 82.5235 -0.964812 1.83027 0
M  V30 826 C 82.9385 -1.78013 0.62904 0
M  V30 827 O 82.2955 -1.78008 -0.402414 0
M  V30 828 C 82.3465 -1.88373 3.08542 0
M  V30 829 O 82.0675 -1.10137 4.2403 0
M  V30 830 C 83.5685 -2.73934 3.48533 0
M  V30 831 H 80.7885 -0.282842 0.608475 0
M  V30 832 H 83.3325 -0.238971 2.03099 0
M  V30 833 H 81.4875 -2.56354 2.9045 0
M  V30 834 H 81.9015 -1.72501 4.95322 0
M  V30 835 H 83.3755 -3.34117 4.39397 0
M  V30 836 H 83.8525 -3.46244 2.70207 0
M  V30 837 H 84.4585 -2.11369 3.69057 0
M  V30 838 N 82.7736 -1.49793 -0.48987 0
M  V30 839 C 84.1896 -1.36803 -0.822022 0
M  V30 840 C 84.3896 -0.409652 -1.97292 0
M  V30 841 O 83.4456 0.154614 -2.52026 0
M  V30 842 C 84.7586 -2.77768 -1.15175 0
M  V30 843 C 86.3066 -2.86549 -1.25931 0
M  V30 844 C 86.7816 -4.28306 -1.62228 0
M  V30 845 N 88.2726 -4.31169 -1.69256 0
M  V30 846 C 89.0076 -5.37832 -1.98807 0
M  V30 847 N 88.5036 -6.54726 -2.26507 0
M  V30 848 N 90.2966 -5.25258 -2.00152 0
M  V30 849 H 82.4476 -2.10691 0.268881 0
M  V30 850 H 84.7106 -0.946241 0.057728 0
M  V30 851 H 84.4166 -3.49648 -0.379335 0
M  V30 852 H 84.2906 -3.13836 -2.09253 0
M  V30 853 H 86.6776 -2.14899 -2.02243 0
M  V30 854 H 86.7586 -2.54049 -0.298776 0
M  V30 855 H 86.4026 -5.00486 -0.864622 0
M  V30 856 H 86.3326 -4.58279 -2.594 0
M  V30 857 H 88.8236 -3.4687 -1.49965 0
M  V30 858 H 89.1366 -7.31833 -2.48276 0
M  V30 859 H 87.4816 -6.57933 -2.23939 0
M  V30 860 H 90.6726 -4.32938 -1.77996 0
M  V30 861 H 90.8456 -6.08476 -2.22848 0
M  V30 862 N 84.2517 0.741722 -1.39055 0
M  V30 863 C 85.6677 1.04638 -1.20512 0
M  V30 864 C 85.8677 2.01405 -0.0620218 0
M  V30 865 O 84.9237 2.45547 0.588457 0
M  V30 866 C 86.2367 1.6151 -2.53643 0
M  V30 867 C 87.7847 1.73623 -2.6043 0
M  V30 868 C 88.2597 2.33906 -3.93767 0
M  V30 869 N 89.7507 2.41323 -3.9537 0
M  V30 870 C 90.4857 2.88888 -4.95309 0
M  V30 871 N 89.9817 3.36401 -6.05645 0
M  V30 872 N 91.7747 2.88037 -4.82692 0
M  V30 873 H 83.9257 0.0998155 -2.12165 0
M  V30 874 H 86.1887 0.106907 -0.941953 0
M  V30 875 H 85.8947 0.978739 -3.37807 0
M  V30 876 H 85.7687 2.60411 -2.72885 0
M  V30 877 H 88.1557 2.36384 -1.76655 0
M  V30 878 H 88.2367 0.733945 -2.45045 0
M  V30 879 H 87.8807 1.71776 -4.7797 0
M  V30 880 H 87.8107 3.34799 -4.06469 0
M  V30 881 H 90.3017 2.07734 -3.15682 0
M  V30 882 H 90.6147 3.71186 -6.77821 0
M  V30 883 H 88.9597 3.34427 -6.09248 0
M  V30 884 H 92.1507 2.50237 -3.95599 0
M  V30 885 H 92.3237 3.24792 -5.60726 0
M  V30 886 N 85.7298 1.2412 0.971189 0
M  V30 887 C 86.9788 1.07284 1.70801 0
M  V30 888 C 87.2918 -0.388902 1.91695 0
M  V30 889 O 88.4978 -0.677379 2.62914 0
M  V30 890 C 86.9538 1.87145 3.07416 0
M  V30 891 C 86.5618 3.37707 2.94377 0
M  V30 892 C 88.3058 1.78828 3.84995 0
M  V30 893 C 86.2128 4.09925 4.26281 0
M  V30 894 H 85.1428 0.397854 0.64049 0
M  V30 895 H 87.7938 1.4817 1.0825 0
M  V30 896 H 86.1758 1.39071 3.70777 0
M  V30 897 H 87.3498 3.93335 2.4005 0
M  V30 898 H 85.6648 3.46938 2.30267 0
M  V30 899 H 88.2618 2.30089 4.82662 0
M  V30 900 H 88.6048 0.75284 4.09436 0
M  V30 901 H 89.1378 2.24563 3.28354 0
M  V30 902 H 85.8768 5.13813 4.07033 0
M  V30 903 H 85.3968 3.59083 4.80437 0
M  V30 904 H 87.0758 4.1673 4.94919 0
M  V30 905 N 87.2079 -1.17134 1.05439 0
M  V30 906 C 88.4379 -1.91094 0.785274 0
M  V30 907 C 88.8459 -1.77198 -0.663142 0
M  V30 908 O 88.1889 -1.10835 -1.46497 0
M  V30 909 C 88.2509 -3.42594 1.08949 0
M  V30 910 C 87.9149 -3.80274 2.53458 0
M  V30 911 C 88.9119 -3.82912 3.51673 0
M  V30 912 C 86.5969 -4.11162 2.88532 0
M  V30 913 C 88.5909 -4.15913 4.83006 0
M  V30 914 C 86.2779 -4.43831 4.20068 0
M  V30 915 C 87.2759 -4.46185 5.17115 0
M  V30 916 O 86.9639 -4.78083 6.46291 0
M  V30 917 H 86.6959 -0.613073 0.284811 0
M  V30 918 H 89.2499 -1.49461 1.40893 0
M  V30 919 H 87.4799 -3.84534 0.408741 0
M  V30 920 H 89.1689 -3.97817 0.805991 0
M  V30 921 H 89.9349 -3.5917 3.25917 0
M  V30 922 H 85.8139 -4.085 2.13656 0
M  V30 923 H 89.3579 -4.17665 5.5875 0
M  V30 924 H 85.2549 -4.67037 4.45586 0
M  V30 925 H 86.0229 -4.9593 6.51149 0
M  V30 926 N 88.686 -0.835752 -1.33615 0
M  V30 927 C 89.616 -0.281739 -2.31794 0
M  V30 928 C 90.597 0.608833 -1.58831 0
M  V30 929 O 91.782 0.533035 -1.86741 0
M  V30 930 C 88.912 0.546612 -3.42971 0
M  V30 931 C 87.866 -0.247904 -4.27281 0
M  V30 932 C 87.192 0.704001 -5.30045 0
M  V30 933 C 88.492 -1.46324 -5.01385 0
M  V30 934 H 90.186 -1.10206 -2.78379 0
M  V30 935 H 87.732 -0.531388 -1.33837 0
M  V30 936 H 89.685 0.944467 -4.1068 0
M  V30 937 H 88.409 1.40011 -2.95067 0
M  V30 938 H 87.068 -0.627281 -3.61194 0
M  V30 939 H 86.716 1.55381 -4.78399 0
M  V30 940 H 86.416 0.176524 -5.87335 0
M  V30 941 H 87.94 1.09944 -6.0062 0
M  V30 942 H 89.354 -1.13871 -5.61877 0
M  V30 943 H 87.751 -1.92728 -5.6831 0
M  V30 944 H 88.821 -2.23467 -4.30338 0
M  V30 945 N 90.1641 1.46063 -0.591896 0
M  V30 946 C 91.4411 1.95595 -0.0137119 0
M  V30 947 C 91.8211 1.5345 1.4497 0
M  V30 948 O 91.1691 0.789543 2.14426 0
M  V30 949 C 91.3791 3.48453 -0.195373 0
M  V30 950 C 92.7271 4.24546 -0.0679765 0
M  V30 951 O 93.7511 3.55982 -0.124681 0
M  V30 952 O 92.6101 5.46467 0.0600579 0
M  V30 953 H 89.7041 0.825795 0.0446279 0
M  V30 954 H 92.2501 1.56303 -0.660859 0
M  V30 955 H 91.0221 3.72045 -1.21235 0
M  V30 956 H 90.6451 3.94597 0.487775 0
M  V30 957 N 91.6422 0.330177 1.54103 0
M  V30 958 C 92.8672 -0.274893 2.0557 0
M  V30 959 C 93.2922 -1.44487 1.20437 0
M  V30 960 O 92.6502 -1.80021 0.214991 0
M  V30 961 C 92.6982 -0.68079 3.54115 0
M  V30 962 O 91.8022 -1.7824 3.71893 0
M  V30 963 H 91.1432 -0.0483849 0.662235 0
M  V30 964 H 93.6732 0.480508 1.98878 0
M  V30 965 H 93.6832 -0.961635 3.96505 0
M  V30 966 H 92.3582 0.174903 4.15532 0
M  V30 967 H 90.9352 -1.49985 3.41407 0
M  V30 968 N 93.1203 -1.57491 0.0584922 0
M  V30 969 C 94.5363 -1.56792 -0.298091 0
M  V30 970 C 94.7363 -1.06679 -1.70944 0
M  V30 971 O 93.7923 -0.726672 -2.41818 0
M  V30 972 C 95.1053 -3.00461 -0.119879 0
M  V30 973 C 96.6533 -3.1242 -0.190428 0
M  V30 974 C 97.1283 -4.57982 -0.0406567 0
M  V30 975 N 98.6193 -4.63099 -0.0966958 0
M  V30 976 C 99.3543 -5.734 -0.00502943 0
M  V30 977 N 98.8503 -6.9266 0.139402 0
M  V30 978 N 100.643 -5.62067 -0.0611391 0
M  V30 979 H 92.7943 -1.88386 0.98105 0
M  V30 980 H 95.0573 -0.867865 0.381463 0
M  V30 981 H 94.7633 -3.41187 0.85349 0
M  V30 982 H 94.6373 -3.66843 -0.877833 0
M  V30 983 H 97.0243 -2.71589 -1.15427 0
M  V30 984 H 97.1053 -2.48702 0.598405 0
M  V30 985 H 96.7493 -4.995 0.919897 0
M  V30 986 H 96.6793 -5.19715 -0.848727 0
M  V30 987 H 99.1703 -3.77331 -0.207277 0
M  V30 988 H 99.4833 -7.72536 0.201855 0
M  V30 989 H 97.8283 -6.94781 0.174586 0
M  V30 990 H 101.019 -4.67782 -0.172583 0
M  V30 991 H 101.192 -6.47999 0.0137562 0
M  V30 992 N 94.5984 0.214957 -1.56127 0
M  V30 993 C 96.0094 0.781386 -1.69562 0
M  V30 994 C 96.3604 1.84707 -0.66165 0
M  V30 995 O 95.4854 2.156 0.185927 0
M  V30 996 C 96.0804 1.42411 -3.07416 0
M  V30 997 C 94.6394 1.93786 -3.22683 0
M  V30 998 C 93.7864 0.800438 -2.65496 0
M  V30 999 H 96.7374 -0.00980633 -1.58697 0
M  V30 1000 H 96.7584 2.29309 -3.0364 0
M  V30 1001 H 96.2704 0.64826 -3.82648 0
M  V30 1002 H 94.3714 2.74152 -2.52332 0
M  V30 1003 H 94.4844 2.1133 -4.29973 0
M  V30 1004 H 92.8484 1.2095 -2.2415 0
M  V30 1005 H 93.6314 0.0371471 -3.4328 0
M  V30 1006 N 96.0765 1.50051 0.48192 0
M  V30 1007 C 97.0065 1.71046 1.58951 0
M  V30 1008 C 97.9875 0.559288 1.60642 0
M  V30 1009 O 99.1725 0.797243 1.77081 0
M  V30 1010 C 96.3025 1.79462 2.97339 0
M  V30 1011 C 95.2565 2.94558 3.10515 0
M  V30 1012 C 94.5825 2.88105 4.50444 0
M  V30 1013 C 95.8825 4.35227 2.88747 0
M  V30 1014 H 97.5765 2.6378 1.41635 0
M  V30 1015 H 95.1225 1.26936 0.679942 0
M  V30 1016 H 97.0755 1.92734 3.74742 0
M  V30 1017 H 95.7995 0.833412 3.15788 0
M  V30 1018 H 94.4585 2.80918 2.35543 0
M  V30 1019 H 94.1065 1.89853 4.65795 0
M  V30 1020 H 93.8065 3.65366 4.60197 0
M  V30 1021 H 95.3305 3.03412 5.29881 0
M  V30 1022 H 96.7445 4.49449 3.55905 0
M  V30 1023 H 95.1415 5.13856 3.09955 0
M  V30 1024 H 96.2115 4.48347 1.84696 0
M  V30 1025 N 97.5546 -0.734337 1.39446 0
M  V30 1026 C 98.7826 -1.52358 1.39981 0
M  V30 1027 C 99.1976 -1.88799 -0.0054975 0
M  V30 1028 O 98.5546 -1.54146 -0.976998 0
M  V30 1029 C 98.6056 -2.81072 2.27333 0
M  V30 1030 O 98.3266 -2.46178 3.62392 0
M  V30 1031 C 99.8276 -3.75096 2.36259 0
M  V30 1032 H 97.0476 -0.470806 0.478103 0
M  V30 1033 H 99.5916 -0.907339 1.83269 0
M  V30 1034 H 97.7466 -3.39026 1.87457 0
M  V30 1035 H 98.1606 -3.28866 4.08592 0
M  V30 1036 H 99.6346 -4.62305 3.01626 0
M  V30 1037 H 100.112 -4.16892 1.38194 0
M  V30 1038 H 100.718 -3.23061 2.76608 0
M  V30 1039 N 99.0327 -1.24633 -0.964593 0
M  V30 1040 C 99.9427 -1.05859 -2.09359 0
M  V30 1041 C 100.959 0.00148855 -1.74 0
M  V30 1042 O 102.135 -0.197346 -2.00431 0
M  V30 1043 C 99.1997 -0.668879 -3.40187 0
M  V30 1044 C 98.2607 -1.80578 -3.89474 0
M  V30 1045 C 97.4937 -1.43457 -5.14058 0
M  V30 1046 O 97.7167 -0.325775 -5.69469 0
M  V30 1047 O 96.6507 -2.2613 -5.57807 0
M  V30 1048 H 100.477 -2.00516 -2.28094 0
M  V30 1049 H 98.0617 -1.03481 -1.0776 0
M  V30 1050 H 99.9437 -0.463211 -4.18846 0
M  V30 1051 H 98.6187 0.248536 -3.22744 0
M  V30 1052 H 97.5257 -2.06623 -3.11862 0
M  V30 1053 H 98.8587 -2.70208 -4.11398 0
M  V30 1054 N 100.511 1.16574 -1.06058 0
M  V30 1055 C 101.759 1.86677 -0.77434 0
M  V30 1056 C 102.08 1.81959 0.701147 0
M  V30 1057 O 101.35 1.2515 1.50713 0
M  V30 1058 H 99.9298 0.691134 -0.283449 0
M  V30 1059 H 102.592 1.41378 -1.34158 0
M  V30 1060 H 101.688 2.92181 -1.09711 0
M  V30 1061 N 101.989 0.842826 1.3317 0
M  V30 1062 C 103.238 0.436738 1.96915 0
M  V30 1063 C 103.551 -1.01025 1.67491 0
M  V30 1064 O 104.757 -1.5212 2.24881 0
M  V30 1065 C 103.213 0.730021 3.52418 0
M  V30 1066 C 102.821 2.19195 3.90714 0
M  V30 1067 C 104.565 0.391076 4.22695 0
M  V30 1068 C 102.472 2.42907 5.39212 0
M  V30 1069 H 101.402 0.15958 0.736919 0
M  V30 1070 H 104.053 1.03196 1.51733 0
M  V30 1071 H 102.435 0.0643755 3.95948 0
M  V30 1072 H 103.609 2.8984 3.58231 0
M  V30 1073 H 101.924 2.49425 3.33431 0
M  V30 1074 H 104.521 0.545817 5.31907 0
M  V30 1075 H 104.864 -0.666294 4.10933 0
M  V30 1076 H 105.397 1.01212 3.84709 0
M  V30 1077 H 102.136 3.47224 5.55982 0
M  V30 1078 H 101.656 1.76827 5.73142 0
M  V30 1079 H 103.335 2.2626 6.06148 0
M  V30 1080 N 103.467 -1.45747 0.599634 0
M  V30 1081 C 104.397 -2.33235 -0.111306 0
M  V30 1082 C 105.378 -1.46359 -0.866781 0
M  V30 1083 O 106.563 -1.75146 -0.838904 0
M  V30 1084 C 103.693 -3.28932 -1.11451 0
M  V30 1085 C 102.647 -4.25381 -0.472772 0
M  V30 1086 C 101.973 -5.1071 -1.58365 0
M  V30 1087 C 103.273 -5.18831 0.600948 0
M  V30 1088 H 104.967 -2.92927 0.61919 0
M  V30 1089 H 102.513 -1.40857 0.299215 0
M  V30 1090 H 104.466 -3.89002 -1.62036 0
M  V30 1091 H 103.19 -2.67381 -1.8755 0
M  V30 1092 H 101.849 -3.66598 0.0121472 0
M  V30 1093 H 101.497 -4.45533 -2.33473 0
M  V30 1094 H 101.197 -5.7604 -1.15982 0
M  V30 1095 H 102.721 -5.73647 -2.09194 0
M  V30 1096 H 104.135 -5.73019 0.179491 0
M  V30 1097 H 102.532 -5.92595 0.946076 0
M  V30 1098 H 103.602 -4.6174 1.48068 0
M  V30 1099 N 104.945 -0.338344 -1.53925 0
M  V30 1100 C 106.222 0.314774 -1.93051 0
M  V30 1101 C 106.602 1.68669 -1.26941 0
M  V30 1102 O 105.95 2.24636 -0.418445 0
M  V30 1103 C 106.16 0.392249 -3.46789 0
M  V30 1104 C 107.508 0.645554 -4.19664 0
M  V30 1105 O 108.532 0.474575 -3.53024 0
M  V30 1106 O 107.391 0.976408 -5.37707 0
M  V30 1107 H 104.485 0.182598 -0.80659 0
M  V30 1108 H 107.031 -0.389141 -1.65178 0
M  V30 1109 H 105.803 -0.570702 -3.87116 0
M  V30 1110 H 105.426 1.14316 -3.80812 0
M  V30 1111 N 106.423 1.57458 -0.0668435 0
M  V30 1112 C 107.386 2.11323 0.887422 0
M  V30 1113 C 108.386 1.03618 1.22964 0
M  V30 1114 O 109.576 1.29626 1.16373 0
M  V30 1115 C 106.708 2.61048 2.19242 0
M  V30 1116 H 107.901 2.96942 0.420194 0
M  V30 1117 H 105.454 1.55239 0.181793 0
M  V30 1118 H 106.189 1.78868 2.70512 0
M  V30 1119 H 105.974 3.39769 1.95702 0
M  V30 1120 H 107.464 3.02814 2.87565 0
M  V30 1121 N 107.901 -0.206675 1.56239 0
M  V30 1122 C 108.811 -1.27686 1.96808 0
M  V30 1123 C 109.827 -1.50455 0.874035 0
M  V30 1124 O 111.003 -1.63295 1.17884 0
M  V30 1125 C 108.068 -2.60358 2.28942 0
M  V30 1126 C 107.129 -2.45762 3.51994 0
M  V30 1127 C 106.362 -3.72108 3.82585 0
M  V30 1128 O 106.585 -4.75776 3.14631 0
M  V30 1129 O 105.519 -3.6833 4.76043 0
M  V30 1130 H 109.345 -0.962593 2.88041 0
M  V30 1131 H 106.93 -0.410746 1.43643 0
M  V30 1132 H 108.812 -3.38687 2.50737 0
M  V30 1133 H 107.487 -2.91435 1.4088 0
M  V30 1134 H 106.394 -1.65584 3.35459 0
M  V30 1135 H 107.727 -2.19621 4.40486 0
M  V30 1136 N 109.379 -1.50304 -0.473955 0
M  V30 1137 C 110.604 -1.65175 -1.25427 0
M  V30 1138 C 111.029 -0.333673 -1.85117 0
M  V30 1139 O 110.387 0.702114 -1.67153 0
M  V30 1140 C 110.435 -2.74295 -2.34082 0
M  V30 1141 O 109.539 -2.35349 -3.38651 0
M  V30 1142 H 108.88 -0.551944 -0.369126 0
M  V30 1143 H 111.41 -1.96662 -0.564364 0
M  V30 1144 H 111.42 -2.97285 -2.79438 0
M  V30 1145 H 110.095 -3.69959 -1.90008 0
M  V30 1146 H 108.672 -2.22794 -2.99027 0
M  V30 1147 N 110.857 0.726932 -1.39834 0
M  V30 1148 C 111.82 1.82269 -1.38962 0
M  V30 1149 C 112.82 1.58248 -0.285334 0
M  V30 1150 O 114.01 1.65499 -0.54366 0
M  V30 1151 C 111.142 3.20186 -1.17019 0
M  V30 1152 H 112.335 1.84443 -2.36476 0
M  V30 1153 H 109.888 0.931416 -1.25516 0
M  V30 1154 H 110.623 3.23669 -0.202204 0
M  V30 1155 H 110.408 3.3902 -1.96998 0
M  V30 1156 H 111.898 4.00235 -1.1917 0
M  V30 1157 N 112.336 1.25143 0.95797 0
M  V30 1158 C 113.286 1.01924 2.0395 0
M  V30 1159 C 114.27 -0.0427175 1.60843 0
M  V30 1160 O 115.462 0.17221 1.7616 0
M  V30 1161 C 112.591 0.636373 3.3735 0
M  V30 1162 C 111.677 1.73492 3.8699 0
M  V30 1163 N 112.068 2.96945 4.0946 0
M  V30 1164 C 110.366 1.61467 4.15746 0
M  V30 1165 C 111.067 3.68228 4.50315 0
M  V30 1166 N 110.043 2.95833 4.56053 0
M  V30 1167 H 113.845 1.95653 2.19311 0
M  V30 1168 H 111.359 1.15413 1.14253 0
M  V30 1169 H 113.356 0.451233 4.14451 0
M  V30 1170 H 112.016 -0.293621 3.2337 0
M  V30 1171 H 113.027 3.33025 3.96629 0
M  V30 1172 H 109.704 0.753394 4.10646 0
M  V30 1173 H 111.094 4.74178 4.76031 0
M  V30 1174 N 113.814 -1.1601 1.06675 0
M  V30 1175 C 115.23 -1.38622 0.790948 0
M  V30 1176 C 115.43 -1.92109 -0.607965 0
M  V30 1177 O 114.486 -2.12239 -1.36787 0
M  V30 1178 C 115.799 -2.36347 1.85905 0
M  V30 1179 C 117.347 -2.50023 1.88301 0
M  V30 1180 C 117.822 -3.51033 2.94176 0
M  V30 1181 N 119.313 -3.58563 2.93235 0
M  V30 1182 C 120.048 -4.36521 3.71803 0
M  V30 1183 N 119.544 -5.17869 4.602 0
M  V30 1184 N 121.337 -4.31541 3.60178 0
M  V30 1185 H 113.488 -0.796294 1.96908 0
M  V30 1186 H 115.751 -0.412597 0.853503 0
M  V30 1187 H 115.457 -2.04147 2.86386 0
M  V30 1188 H 115.331 -3.36042 1.71334 0
M  V30 1189 H 117.718 -2.81524 0.884769 0
M  V30 1190 H 117.799 -1.5035 2.06951 0
M  V30 1191 H 117.443 -3.20268 3.94196 0
M  V30 1192 H 117.373 -4.50445 2.72776 0
M  V30 1193 H 119.864 -3.00496 2.29152 0
M  V30 1194 H 120.177 -5.74578 5.16797 0
M  V30 1195 H 118.522 -5.17199 4.64253 0
M  V30 1196 H 121.713 -3.67051 2.90502 0
M  V30 1197 H 121.886 -4.9205 4.21653 0
M  V30 1198 N 115.292 -0.849877 -1.32721 0
M  V30 1199 C 116.708 -0.539102 -1.50219 0
M  V30 1200 C 116.908 0.931271 -1.78689 0
M  V30 1201 O 115.964 1.71455 -1.85363 0
M  V30 1202 C 117.277 -1.42196 -2.64954 0
M  V30 1203 C 118.825 -1.42189 -2.78839 0
M  V30 1204 C 119.3 -2.28985 -3.96648 0
M  V30 1205 N 120.791 -2.26754 -4.03902 0
M  V30 1206 C 121.526 -2.90644 -4.94281 0
M  V30 1207 N 121.022 -3.63629 -5.897 0
M  V30 1208 N 122.815 -2.80057 -4.87365 0
M  V30 1209 H 114.966 -1.80156 -1.12506 0
M  V30 1210 H 117.229 -0.769217 -0.554085 0
M  V30 1211 H 116.935 -2.46733 -2.50631 0
M  V30 1212 H 116.809 -1.10591 -3.60624 0
M  V30 1213 H 119.196 -0.38419 -2.92588 0
M  V30 1214 H 119.277 -1.77807 -1.83898 0
M  V30 1215 H 118.921 -3.32819 -3.83658 0
M  V30 1216 H 118.851 -1.90702 -4.90857 0
M  V30 1217 H 121.342 -1.73688 -3.3562 0
M  V30 1218 H 121.655 -4.09558 -6.55349 0
M  V30 1219 H 120 -3.67737 -5.89741 0
M  V30 1220 H 123.191 -2.22593 -4.11789 0
M  V30 1221 H 123.364 -3.30132 -5.57599 0
M  V30 1222 N 116.77 1.45427 -0.607355 0
M  V30 1223 C 117.7 2.3329 0.0989352 0
M  V30 1224 C 118.681 1.46816 0.859007 0
M  V30 1225 O 119.866 1.75588 0.829604 0
M  V30 1226 C 116.996 3.29518 1.09705 0
M  V30 1227 C 115.95 4.25626 0.450206 0
M  V30 1228 C 115.276 5.11542 1.55655 0
M  V30 1229 C 116.576 5.18505 -0.628455 0
M  V30 1230 H 118.27 2.92595 -0.634716 0
M  V30 1231 H 115.816 1.40696 -0.306681 0
M  V30 1232 H 117.769 3.89855 1.59971 0
M  V30 1233 H 116.493 2.68372 1.86129 0
M  V30 1234 H 115.152 3.66586 -0.0315886 0
M  V30 1235 H 114.8 4.46765 2.31107 0
M  V30 1236 H 114.5 5.76647 1.12925 0
M  V30 1237 H 116.024 5.74748 2.06148 0
M  V30 1238 H 117.438 5.72916 -0.209877 0
M  V30 1239 H 115.835 5.92085 -0.977489 0
M  V30 1240 H 116.905 4.60948 -1.50514 0
M  V30 1241 N 118.248 0.346503 1.53744 0
M  V30 1242 C 119.497 -0.250122 2.00143 0
M  V30 1243 C 119.81 -1.51418 1.23822 0
M  V30 1244 O 121.016 -2.18823 1.60713 0
M  V30 1245 C 119.472 -0.496252 3.56462 0
M  V30 1246 C 119.08 0.752077 4.41642 0
M  V30 1247 C 120.824 -1.05157 4.11269 0
M  V30 1248 C 118.731 0.476583 5.89477 0
M  V30 1249 H 117.661 -0.0972409 0.747703 0
M  V30 1250 H 120.312 0.46229 1.77581 0
M  V30 1251 H 118.694 -1.26944 3.75102 0
M  V30 1252 H 119.868 1.5266 4.34778 0
M  V30 1253 H 118.183 1.22925 3.97842 0
M  V30 1254 H 120.78 -1.27269 5.19333 0
M  V30 1255 H 121.123 -2.00799 3.64672 0
M  V30 1256 H 121.656 -0.339019 3.96353 0
M  V30 1257 H 118.395 1.4028 6.40314 0
M  V30 1258 H 117.915 -0.259794 5.99237 0
M  V30 1259 H 119.594 0.0949315 6.4693 0
M  V30 1260 N 119.726 -1.57421 0.075193 0
M  V30 1261 C 120.973 -1.93618 -0.593146 0
M  V30 1262 C 121.301 -0.955484 -1.69413 0
M  V30 1263 O 120.556 0.0283251 -1.9568 0
M  V30 1264 C 120.855 -3.36428 -1.20626 0
M  V30 1265 C 120.521 -4.50307 -0.231078 0
M  V30 1266 C 119.183 -4.81186 0.0371936 0
M  V30 1267 C 121.535 -5.19374 0.435888 0
M  V30 1268 C 118.863 -5.78466 0.979461 0
M  V30 1269 C 121.215 -6.17665 1.3665 0
M  V30 1270 C 119.879 -6.46958 1.6432 0
M  V30 1271 H 119.149 -0.708499 -0.217047 0
M  V30 1272 H 121.796 -1.90937 0.146793 0
M  V30 1273 H 120.101 -3.35592 -2.02201 0
M  V30 1274 H 121.798 -3.61727 -1.73073 0
M  V30 1275 H 118.388 -4.26227 -0.450357 0
M  V30 1276 H 122.572 -4.95711 0.241748 0
M  V30 1277 H 117.828 -5.99487 1.20106 0
M  V30 1278 H 122.002 -6.70284 1.88924 0
M  V30 1279 H 119.629 -7.2215 2.37494 0
M  V30 1280 N 121.204 0.198386 -1.56346 0
M  V30 1281 C 122.114 1.2664 -1.97483 0
M  V30 1282 C 123.13 1.49989 -0.882002 0
M  V30 1283 O 124.306 1.62668 -1.18748 0
M  V30 1284 C 121.371 2.59141 -2.30319 0
M  V30 1285 C 120.432 2.43892 -3.53292 0
M  V30 1286 C 119.665 3.70074 -3.84553 0
M  V30 1287 O 119.888 4.74101 -3.1715 0
M  V30 1288 O 118.822 3.658 -4.7799 0
M  V30 1289 H 122.648 0.947304 -2.88548 0
M  V30 1290 H 120.233 0.403123 -1.43859 0
M  V30 1291 H 122.115 3.37352 -2.5253 0
M  V30 1292 H 120.79 2.90684 -1.42423 0
M  V30 1293 H 119.697 1.63803 -3.36332 0
M  V30 1294 H 121.03 2.17282 -4.41644 0
M  V30 1295 N 122.682 1.50554 0.465978 0
M  V30 1296 C 123.928 1.62038 1.21949 0
M  V30 1297 C 124.261 0.322116 1.9151 0
M  V30 1298 O 123.536 -0.676723 1.82348 0
M  V30 1299 C 123.819 2.80421 2.25912 0
M  V30 1300 C 123.672 4.20144 1.60622 0
M  V30 1301 C 124.991 2.94354 3.27176 0
M  V30 1302 H 122.11 0.589752 0.441998 0
M  V30 1303 H 124.752 1.82956 0.51257 0
M  V30 1304 H 122.902 2.62717 2.86203 0
M  V30 1305 H 124.574 4.49449 1.03889 0
M  V30 1306 H 122.817 4.24165 0.909211 0
M  V30 1307 H 123.488 4.98914 2.36196 0
M  V30 1308 H 125.964 3.10578 2.76913 0
M  V30 1309 H 124.84 3.788 3.97242 0
M  V30 1310 H 125.101 2.05186 3.916 0
M  V30 1311 N 124.16 -0.719506 1.40217 0
M  V30 1312 C 125.437 -1.47221 1.28784 0
M  V30 1313 C 125.817 -2.10883 -0.0956067 0
M  V30 1314 O 125.165 -1.99833 -1.10811 0
M  V30 1315 C 125.375 -2.5111 2.42373 0
M  V30 1316 C 126.723 -3.17053 2.82423 0
M  V30 1317 O 127.747 -2.61429 2.41937 0
M  V30 1318 O 126.606 -4.17742 3.52355 0
M  V30 1319 H 123.7 -0.654491 0.50554 0
M  V30 1320 H 126.246 -0.752014 1.52128 0
M  V30 1321 H 125.018 -2.02556 3.34793 0
M  V30 1322 H 124.641 -3.3067 2.20778 0
M  V30 1323 N 125.638 -1.25649 -0.95132 0
M  V30 1324 C 126.884 -1.11766 -1.69941 0
M  V30 1325 C 127.239 0.33735 -1.89419 0
M  V30 1326 O 126.532 1.24491 -1.45645 0
M  V30 1327 C 126.726 -1.80909 -3.08231 0
M  V30 1328 C 126.555 -3.32984 -3.02245 0
M  V30 1329 C 125.325 -4.02247 -3.05819 0
M  V30 1330 C 127.523 -4.29332 -2.83157 0
M  V30 1331 N 125.505 -5.41072 -2.90024 0
M  V30 1332 C 126.876 -5.55265 -2.75828 0
M  V30 1333 C 128.931 -4.19707 -2.67863 0
M  V30 1334 C 127.634 -6.72671 -2.54767 0
M  V30 1335 C 129.66 -5.36809 -2.48173 0
M  V30 1336 C 129.022 -6.61683 -2.41567 0
M  V30 1337 H 125.121 -0.463708 -0.629682 0
M  V30 1338 H 127.705 -1.58796 -1.12659 0
M  V30 1339 H 125.876 -1.36369 -3.63673 0
M  V30 1340 H 127.608 -1.59739 -3.71841 0
M  V30 1341 H 124.363 -3.53531 -3.15139 0
M  V30 1342 H 124.787 -6.13938 -2.85323 0
M  V30 1343 H 129.429 -3.23907 -2.71743 0
M  V30 1344 H 127.147 -7.68577 -2.49629 0
M  V30 1345 H 130.733 -5.31224 -2.37259 0
M  V30 1346 H 129.613 -7.50768 -2.26531 0
M  V30 1347 N 127.117 1.15442 -1.07289 0
M  V30 1348 C 128.533 1.38201 -0.798288 0
M  V30 1349 C 128.733 1.92429 0.597769 0
M  V30 1350 O 127.789 2.12962 1.3566 0
M  V30 1351 C 129.102 2.35357 -1.87156 0
M  V30 1352 C 130.65 2.49021 -1.89624 0
M  V30 1353 C 131.125 3.49468 -2.96034 0
M  V30 1354 N 132.616 3.57003 -2.95132 0
M  V30 1355 C 133.351 4.34543 -3.74112 0
M  V30 1356 N 132.847 5.15421 -4.6294 0
M  V30 1357 N 134.64 4.29625 -3.62462 0
M  V30 1358 H 126.791 0.78584 -1.97328 0
M  V30 1359 H 129.054 0.408065 -0.855679 0
M  V30 1360 H 128.76 2.02626 -2.87464 0
M  V30 1361 H 128.634 3.35129 -1.73114 0
M  V30 1362 H 131.021 2.81051 -0.899687 0
M  V30 1363 H 131.102 1.4925 -2.07745 0
M  V30 1364 H 130.746 3.18173 -3.95889 0
M  V30 1365 H 130.676 4.48992 -2.75161 0
M  V30 1366 H 133.167 2.99276 -2.30743 0
M  V30 1367 H 133.48 5.7183 -5.19837 0
M  V30 1368 H 131.825 5.14729 -4.66989 0
M  V30 1369 H 135.016 3.65505 -2.92444 0
M  V30 1370 H 135.189 4.89807 -4.24256 0
M  V30 1371 N 128.595 0.856903 1.32268 0
M  V30 1372 C 129.542 0.301172 2.28827 0
M  V30 1373 C 130.512 -0.593104 1.5515 0
M  V30 1374 O 131.697 -0.527537 1.83362 0
M  V30 1375 C 128.837 -0.502523 3.41422 0
M  V30 1376 C 127.95 0.417797 4.29975 0
M  V30 1377 C 127.085 -0.398749 5.29701 0
M  V30 1378 C 126.124 0.518827 6.09897 0
M  V30 1379 N 125.261 -0.260674 7.01616 0
M  V30 1380 H 130.101 1.12983 2.75751 0
M  V30 1381 H 127.638 0.568582 1.35667 0
M  V30 1382 H 129.596 -0.984141 4.05426 0
M  V30 1383 H 128.226 -1.29599 2.95642 0
M  V30 1384 H 127.278 1.01781 3.66531 0
M  V30 1385 H 128.59 1.12191 4.86019 0
M  V30 1386 H 127.744 -0.943435 5.9932 0
M  V30 1387 H 126.483 -1.13622 4.7428 0
M  V30 1388 H 125.488 1.07538 5.39181 0
M  V30 1389 H 126.713 1.25495 6.67404 0
M  V30 1390 H 124.659 -0.981198 6.4862 0
M  V30 1391 H 124.576 0.384364 7.55022 0
M  V30 1392 H 125.844 -0.787014 7.75517 0
M  V30 1393 N 130.073 -1.45103 0.615059 0
M  V30 1394 C 131.298 -2.07064 0.117988 0
M  V30 1395 C 131.723 -1.4554 -1.19163 0
M  V30 1396 O 131.081 -0.550855 -1.72729 0
M  V30 1397 C 131.129 -3.606 -0.000288387 0
M  V30 1398 O 130.233 -3.98847 -1.04856 0
M  V30 1399 H 129.574 -0.659467 0.0774581 0
M  V30 1400 H 132.104 -1.86236 0.847186 0
M  V30 1401 H 132.114 -4.07529 -0.196091 0
M  V30 1402 H 130.789 -4.04765 0.955932 0
M  V30 1403 H 129.366 -3.63577 -0.828619 0
M  V30 1404 N 131.551 -0.354651 -1.53558 0
M  V30 1405 C 132.461 0.50515 -2.29097 0
M  V30 1406 C 133.477 1.10223 -1.34636 0
M  V30 1407 O 134.653 1.11553 -1.67684 0
M  V30 1408 C 131.718 1.63479 -3.05738 0
M  V30 1409 C 130.779 1.06636 -4.15845 0
M  V30 1410 C 130.012 2.14217 -4.88822 0
M  V30 1411 O 130.235 3.35137 -4.61562 0
M  V30 1412 O 129.169 1.77887 -5.75013 0
M  V30 1413 H 132.995 -0.109237 -3.03503 0
M  V30 1414 H 130.58 -0.119357 -1.48922 0
M  V30 1415 H 132.462 2.2918 -3.5363 0
M  V30 1416 H 131.137 2.23478 -2.34178 0
M  V30 1417 H 130.044 0.373565 -3.7223 0
M  V30 1418 H 131.377 0.511081 -4.89539 0
M  V30 1419 N 133.029 1.57378 -0.0835403 0
M  V30 1420 C 133.939 2.16897 0.894021 0
M  V30 1421 C 134.955 1.13528 1.31861 0
M  V30 1422 O 136.131 1.45848 1.3889 0
M  V30 1423 C 133.196 2.72831 2.13925 0
M  V30 1424 C 132.257 3.91115 1.76997 0
M  V30 1425 C 131.49 4.44371 2.95584 0
M  V30 1426 O 131.713 3.96596 4.09961 0
M  V30 1427 O 130.647 5.35549 2.74719 0
M  V30 1428 H 134.473 3.00814 0.417679 0
M  V30 1429 H 132.058 1.48741 0.140181 0
M  V30 1430 H 133.94 3.0863 2.86924 0
M  V30 1431 H 132.615 1.91967 2.60635 0
M  V30 1432 H 131.522 3.60148 1.01214 0
M  V30 1433 H 132.855 4.73307 1.3506 0
M  V30 1434 N 134.507 -0.190092 1.56449 0
M  V30 1435 C 135.755 -0.907908 1.80559 0
M  V30 1436 C 136.076 -1.83583 0.657438 0
M  V30 1437 O 135.346 -1.93203 -0.323924 0
M  V30 1438 H 133.926 -0.338247 0.666032 0
M  V30 1439 H 136.588 -0.194403 1.93928 0
M  V30 1440 H 135.684 -1.49604 2.73907 0
M  V30 1441 N 135.985 -1.50799 -0.457987 0
M  V30 1442 C 136.915 -1.73553 -1.5621 0
M  V30 1443 C 137.896 -0.584774 -1.59732 0
M  V30 1444 O 139.081 -0.825314 -1.7579 0
M  V30 1445 C 136.211 -1.84169 -2.94447 0
M  V30 1446 C 135.165 -2.99461 -3.0579 0
M  V30 1447 C 134.491 -2.95235 -4.45803 0
M  V30 1448 C 135.791 -4.39766 -2.81786 0
M  V30 1449 H 137.485 -2.66 -1.37421 0
M  V30 1450 H 135.031 -1.28002 -0.659662 0
M  V30 1451 H 136.984 -1.98672 -3.71628 0
M  V30 1452 H 135.708 -0.883545 -3.14422 0
M  V30 1453 H 134.367 -2.8463 -2.31044 0
M  V30 1454 H 134.015 -1.97239 -4.62715 0
M  V30 1455 H 133.715 -3.72642 -4.54326 0
M  V30 1456 H 135.239 -3.11803 -5.24987 0
M  V30 1457 H 136.653 -4.55054 -3.4871 0
M  V30 1458 H 135.05 -5.18722 -3.0174 0
M  V30 1459 H 136.12 -4.51229 -1.7754 0
M  V30 1460 N 137.463 0.71206 -1.40597 0
M  V30 1461 C 138.712 1.46754 -1.38369 0
M  V30 1462 C 139.025 1.95598 0.0097839 0
M  V30 1463 O 140.231 2.71059 0.154677 0
M  V30 1464 C 138.687 2.65289 -2.43207 0
M  V30 1465 C 138.295 2.23301 -3.88382 0
M  V30 1466 C 140.039 3.43008 -2.50091 0
M  V30 1467 C 137.946 3.38696 -4.84808 0
M  V30 1468 H 136.876 0.55118 -0.514506 0
M  V30 1469 H 139.527 0.774616 -1.66349 0
M  V30 1470 H 137.909 3.36769 -2.08332 0
M  V30 1471 H 139.083 1.59218 -4.32419 0
M  V30 1472 H 137.398 1.58618 -3.85006 0
M  V30 1473 H 139.995 4.28881 -3.1932 0
M  V30 1474 H 140.338 3.87065 -1.53253 0
M  V30 1475 H 140.871 2.78574 -2.83974 0
M  V30 1476 H 137.61 2.99668 -5.82992 0
M  V30 1477 H 137.13 4.01683 -4.45433 0
M  V30 1478 H 138.809 4.04712 -5.04794 0
M  V30 1479 N 138.941 1.26152 0.944643 0
M  V30 1480 C 139.871 1.09902 2.06019 0
M  V30 1481 C 140.852 0.00519538 1.70099 0
M  V30 1482 O 142.037 0.176583 1.93396 0
M  V30 1483 C 139.167 0.727562 3.39594 0
M  V30 1484 C 138.121 1.77274 3.89561 0
M  V30 1485 C 137.447 1.25569 5.19747 0
M  V30 1486 C 138.747 3.17357 4.14827 0
M  V30 1487 H 140.441 2.03217 2.19871 0
M  V30 1488 H 137.987 0.978452 1.05652 0
M  V30 1489 H 139.94 0.600777 4.17095 0
M  V30 1490 H 138.664 -0.241287 3.25707 0
M  V30 1491 H 137.323 1.88814 3.14237 0
M  V30 1492 H 136.971 0.276783 5.02238 0
M  V30 1493 H 136.671 1.95433 5.54148 0
M  V30 1494 H 138.195 1.1415 5.99835 0
M  V30 1495 H 139.609 3.08914 4.82954 0
M  V30 1496 H 138.006 3.84781 4.60504 0
M  V30 1497 H 139.076 3.63673 3.20734 0
M  V30 1498 N 140.419 -1.14872 1.07899 0
M  V30 1499 C 141.329 -2.2341 0.715915 0
M  V30 1500 C 142.345 -1.71808 -0.275306 0
M  V30 1501 O 143.521 -2.01039 -0.120545 0
M  V30 1502 C 140.586 -3.46474 0.125168 0
M  V30 1503 C 139.647 -4.13039 1.17034 0
M  V30 1504 C 138.88 -5.30229 0.607688 0
M  V30 1505 O 139.103 -5.675 -0.574497 0
M  V30 1506 O 138.037 -5.86444 1.35526 0
M  V30 1507 H 141.863 -2.56808 1.62121 0
M  V30 1508 H 139.448 -1.22702 0.852322 0
M  V30 1509 H 141.33 -4.20917 -0.201729 0
M  V30 1510 H 140.005 -3.14811 -0.753364 0
M  V30 1511 H 138.912 -3.40493 1.54968 0
M  V30 1512 H 140.245 -4.48796 2.02097 0
M  V30 1513 N 141.898 -0.863906 -1.31812 0
M  V30 1514 C 143.146 -0.470904 -1.96537 0
M  V30 1515 C 143.467 0.978771 -1.68657 0
M  V30 1516 O 142.737 1.6853 -0.998717 0
M  V30 1517 H 141.317 -0.171148 -0.72713 0
M  V30 1518 H 143.979 -1.10236 -1.60729 0
M  V30 1519 H 143.075 -0.623616 -3.05806 0
M  V30 1520 N 143.376 1.44774 -0.622745 0
M  V30 1521 C 144.624 2.01721 -0.123655 0
M  V30 1522 C 144.945 1.49172 1.25589 0
M  V30 1523 O 144.215 0.691974 1.83272 0
M  V30 1524 H 142.795 0.745777 -0.0427225 0
M  V30 1525 H 145.457 1.77382 -0.807559 0
M  V30 1526 H 144.553 3.11984 -0.0849534 0
M  V30 1527 N 144.854 0.36279 1.53368 0
M  V30 1528 C 146.079 -0.231226 2.06107 0
M  V30 1529 C 146.504 -1.419 1.23474 0
M  V30 1530 O 145.862 -1.79524 0.253128 0
M  V30 1531 C 145.91 -0.605523 3.5548 0
M  V30 1532 O 145.014 -1.70312 3.7559 0
M  V30 1533 H 144.355 -0.034327 0.663112 0
M  V30 1534 H 146.885 0.522584 1.97814 0
M  V30 1535 H 146.895 -0.877314 3.98456 0
M  V30 1536 H 145.57 0.263004 4.15068 0
M  V30 1537 H 144.147 -1.4271 3.44512 0
M  V30 1538 N 146.332 -1.57332 0.0918853 0
M  V30 1539 C 147.581 -1.93412 -0.572249 0
M  V30 1540 C 147.894 -0.975515 -1.69538 0
M  V30 1541 O 149.1 -1.22991 -2.42045 0
M  V30 1542 C 147.556 -3.43648 -1.0693 0
M  V30 1543 C 147.164 -4.47994 0.0239049 0
M  V30 1544 C 148.908 -3.88695 -1.70635 0
M  V30 1545 C 146.815 -5.89381 -0.488319 0
M  V30 1546 H 145.745 -0.721939 -0.217532 0
M  V30 1547 H 148.396 -1.82735 0.167369 0
M  V30 1548 H 146.778 -3.49466 -1.8625 0
M  V30 1549 H 147.952 -4.53815 0.799277 0
M  V30 1550 H 146.267 -4.12536 0.565946 0
M  V30 1551 H 148.864 -4.91725 -2.10025 0
M  V30 1552 H 149.207 -3.27166 -2.57426 0
M  V30 1553 H 149.74 -3.85564 -0.979023 0
M  V30 1554 H 146.479 -6.54602 0.342906 0
M  V30 1555 H 145.999 -5.87037 -1.23077 0
M  V30 1556 H 147.678 -6.39863 -0.958317 0
M  V30 1557 N 147.81 0.181792 -1.56548 0
M  V30 1558 C 149.035 0.920019 -1.85877 0
M  V30 1559 C 149.46 1.75494 -0.677021 0
M  V30 1560 O 148.818 1.77399 0.374056 0
M  V30 1561 C 148.866 1.78112 -3.13542 0
M  V30 1562 O 147.97 2.88152 -2.95029 0
M  V30 1563 H 147.311 0.258334 -0.611686 0
M  V30 1564 H 149.841 0.183092 -2.03779 0
M  V30 1565 H 149.851 2.18314 -3.44678 0
M  V30 1566 H 148.526 1.16777 -3.99169 0
M  V30 1567 H 147.103 2.51609 -2.75222 0
M  V30 1568 N 149.288 1.51039 0.449983 0
M  V30 1569 C 150.218 1.74379 1.55288 0
M  V30 1570 C 151.199 0.593236 1.5942 0
M  V30 1571 O 152.384 0.834625 1.7535 0
M  V30 1572 C 149.514 1.85728 2.93466 0
M  V30 1573 C 148.468 3.01078 3.04197 0
M  V30 1574 C 147.794 2.97595 4.44231 0
M  V30 1575 C 149.094 4.41254 2.7945 0
M  V30 1576 H 150.788 2.66725 1.36008 0
M  V30 1577 H 148.334 1.2835 0.652864 0
M  V30 1578 H 150.287 2.0064 3.70569 0
M  V30 1579 H 149.011 0.900207 3.13949 0
M  V30 1580 H 147.67 2.85851 2.29531 0
M  V30 1581 H 147.318 1.99691 4.61663 0
M  V30 1582 H 147.018 3.75046 4.52343 0
M  V30 1583 H 148.542 3.14583 5.23326 0
M  V30 1584 H 149.956 4.56897 3.46292 0
M  V30 1585 H 148.353 5.20315 2.98985 0
M  V30 1586 H 149.423 4.52164 1.75144 0
M  V30 1587 N 150.766 -0.704594 1.40972 0
M  V30 1588 C 151.696 -1.83124 1.44872 0
M  V30 1589 C 152.677 -1.67281 0.30838 0
M  V30 1590 O 153.862 -1.87149 0.518556 0
M  V30 1591 C 150.992 -3.21181 1.32136 0
M  V30 1592 C 149.946 -3.51714 2.43888 0
M  V30 1593 C 149.272 -4.89032 2.16222 0
M  V30 1594 C 150.572 -3.516 3.86232 0
M  V30 1595 H 152.266 -1.80117 2.39161 0
M  V30 1596 H 149.812 -0.865145 1.15114 0
M  V30 1597 H 151.765 -3.99702 1.33479 0
M  V30 1598 H 150.489 -3.24791 0.343279 0
M  V30 1599 H 149.148 -2.75539 2.41813 0
M  V30 1600 H 148.796 -4.89256 1.16778 0
M  V30 1601 H 148.496 -5.10426 2.911 0
M  V30 1602 H 150.02 -5.69873 2.19265 0
M  V30 1603 H 151.434 -4.2014 3.9007 0
M  V30 1604 H 149.831 -3.84523 4.60719 0
M  V30 1605 H 150.901 -2.50757 4.15029 0
M  V30 1606 N 152.244 -1.26651 -0.937939 0
M  V30 1607 C 153.192 -1.08308 -2.05845 0
M  V30 1608 C 154.186 -0.0090757 -1.69398 0
M  V30 1609 O 155.392 -0.166007 -1.79233 0
M  V30 1610 H 151.767 -0.333416 -0.674046 0
M  V30 1611 H 153.738 -2.03261 -2.18467 0
M  V30 1612 C 152.487 -0.736229 -3.39816 0
M  V30 1613 H 151.81 -1.55453 -3.6834 0
M  V30 1614 H 153.25 -0.64769 -4.19024 0
M  V30 1615 C 151.709 0.558824 -3.32233 0
M  V30 1616 O 152.239 1.59621 -3.68624 0
M  V30 1617 N 150.445 0.550657 -2.85335 0
M  V30 1618 H 149.992 -0.293943 -2.55917 0
M  V30 1619 H 149.95 1.41726 -2.80644 0
M  V30 1620 N 153.722 1.14298 -1.08507 0
M  V30 1621 C 154.962 1.87016 -0.824894 0
M  V30 1622 C 155.326 1.81099 0.637735 0
M  V30 1623 O 156.527 2.48963 1.01345 0
M  V30 1624 C 154.798 3.31584 -1.33368 0
M  V30 1625 S 156.357 4.21903 -1.20596 0
M  V30 1626 H 153.175 0.645259 -0.2986 0
M  V30 1627 H 155.777 1.37822 -1.38656 0
M  V30 1628 H 154.481 3.33439 -2.39262 0
M  V30 1629 H 154.012 3.85836 -0.767734 0
M  V30 1630 H 156.027 4.95971 -0.150891 0
M  V30 1631 N 155.201 0.870884 1.31352 0
M  V30 1632 C 156.134 0.271983 2.26573 0
M  V30 1633 C 157.112 -0.599385 1.51149 0
M  V30 1634 O 158.296 -0.552605 1.80218 0
M  V30 1635 C 155.423 -0.614801 3.33073 0
M  V30 1636 C 154.469 0.185342 4.26097 0
M  V30 1637 S 155.302 1.56444 5.12138 0
M  V30 1638 C 156.458 0.683807 6.22153 0
M  V30 1639 H 156.691 1.07916 2.77023 0
M  V30 1640 H 154.224 0.669459 1.39132 0
M  V30 1641 H 156.182 -1.12074 3.94905 0
M  V30 1642 H 154.843 -1.39593 2.81376 0
M  V30 1643 H 154.036 -0.490771 5.01605 0
M  V30 1644 H 153.638 0.623415 3.68768 0
M  V30 1645 H 155.93 -0.10521 6.77418 0
M  V30 1646 H 156.873 1.41004 6.93919 0
M  V30 1647 H 157.281 0.250952 5.63942 0
M  V30 1648 N 156.679 -1.44442 0.630414 0
M  V30 1649 C 157.642 -2.29107 -0.0652523 0
M  V30 1650 C 158.642 -1.41002 -0.772995 0
M  V30 1651 O 159.832 -1.62881 -0.617692 0
M  V30 1652 C 156.964 -3.22564 -1.10296 0
M  V30 1653 H 158.157 -2.92103 0.679401 0
M  V30 1654 H 155.71 -1.51343 0.390517 0
M  V30 1655 H 156.445 -2.64416 -1.87762 0
M  V30 1656 H 156.23 -3.87491 -0.59941 0
M  V30 1657 H 157.72 -3.86167 -1.5895 0
M  V30 1658 N 158.157 -0.370918 -1.53173 0
M  V30 1659 C 159.104 0.473035 -2.259 0
M  V30 1660 C 160.074 1.07311 -1.26781 0
M  V30 1661 O 161.259 1.1046 -1.55574 0
M  V30 1662 C 158.399 1.60405 -3.05556 0
M  V30 1663 C 157.512 1.02863 -4.19575 0
M  V30 1664 C 156.647 2.12918 -4.86661 0
M  V30 1665 C 155.686 1.52869 -5.92704 0
M  V30 1666 N 154.823 2.56779 -6.53459 0
M  V30 1667 H 159.663 -0.153649 -2.97604 0
M  V30 1668 H 157.2 -0.0875946 -1.46839 0
M  V30 1669 H 159.158 2.27034 -3.50016 0
M  V30 1670 H 157.788 2.20131 -2.36097 0
M  V30 1671 H 156.84 0.252465 -3.79561 0
M  V30 1672 H 158.152 0.549642 -4.95762 0
M  V30 1673 H 157.306 2.87356 -5.34333 0
M  V30 1674 H 156.045 2.6417 -4.09958 0
M  V30 1675 H 155.05 0.769479 -5.44389 0
M  V30 1676 H 156.275 1.02435 -6.7133 0
M  V30 1677 H 154.221 3.07235 -5.79606 0
M  V30 1678 H 154.138 2.13583 -7.25202 0
M  V30 1679 H 155.406 3.30903 -7.05779 0
M  V30 1680 N 159.635 1.57281 -0.100228 0
M  V30 1681 C 160.86 1.99302 0.573881 0
M  V30 1682 C 161.285 0.979059 1.60611 0
M  V30 1683 O 160.643 -0.0517803 1.81226 0
M  V30 1684 C 160.691 3.40274 1.19358 0
M  V30 1685 O 159.795 3.41676 2.30935 0
M  V30 1686 H 159.136 0.647944 0.145138 0
M  V30 1687 H 161.666 2.03779 -0.183156 0
M  V30 1688 H 161.676 3.78078 1.53365 0
M  V30 1689 H 160.351 4.13594 0.437385 0
M  V30 1690 H 158.928 3.15672 1.98509 0
M  V30 1691 N 161.113 -0.173488 1.56642 0
M  V30 1692 C 162.524 -0.736155 1.71574 0
M  V30 1693 C 162.875 -1.82888 0.710389 0
M  V30 1694 O 162 -2.16017 -0.1287 0
M  V30 1695 C 162.595 -1.34211 3.11083 0
M  V30 1696 C 161.154 -1.85162 3.27707 0
M  V30 1697 C 160.301 -0.729765 2.67525 0
M  V30 1698 H 163.252 0.0518786 1.58615 0
M  V30 1699 H 163.273 -2.21178 3.09613 0
M  V30 1700 H 162.785 -0.546579 3.84232 0
M  V30 1701 H 160.886 -2.67366 2.59512 0
M  V30 1702 H 160.999 -1.99855 4.35425 0
M  V30 1703 H 159.363 -1.14965 2.27278 0
M  V30 1704 H 160.146 0.0538806 3.43258 0
M  V30 1705 N 162.591 -1.51276 -0.441967 0
M  V30 1706 C 163.838 -1.63715 -1.19179 0
M  V30 1707 C 164.166 -0.351175 -1.91303 0
M  V30 1708 O 163.421 0.664524 -1.84072 0
M  V30 1709 C 163.72 -2.78746 -2.23686 0
M  V30 1710 C 163.386 -4.18189 -1.68607 0
M  V30 1711 C 162.048 -4.56125 -1.53308 0
M  V30 1712 C 164.4 -5.05222 -1.28062 0
M  V30 1713 C 161.728 -5.78804 -0.959317 0
M  V30 1714 C 164.08 -6.28476 -0.721162 0
M  V30 1715 C 162.744 -6.65188 -0.55504 0
M  V30 1716 H 162.014 -0.599076 -0.436106 0
M  V30 1717 H 164.661 -1.85296 -0.48351 0
M  V30 1718 H 162.966 -2.51369 -3.00535 0
M  V30 1719 H 164.663 -2.8557 -2.81515 0
M  V30 1720 H 161.253 -3.88277 -1.8149 0
M  V30 1721 H 165.437 -4.76524 -1.38704 0
M  V30 1722 H 160.693 -6.05899 -0.81833 0
M  V30 1723 H 164.867 -6.95259 -0.398458 0
M  V30 1724 H 162.494 -7.60123 -0.108311 0
M  V30 1725 N 164.069 0.697108 -1.41344 0
M  V30 1726 C 165.315 1.45796 -1.41828 0
M  V30 1727 C 165.67 1.92382 -0.0261743 0
M  V30 1728 O 164.963 1.66522 0.947688 0
M  V30 1729 C 165.157 2.68553 -2.35826 0
M  V30 1730 C 164.986 2.33975 -3.84039 0
M  V30 1731 C 163.756 2.24414 -4.52732 0
M  V30 1732 C 165.954 1.97048 -4.75054 0
M  V30 1733 N 163.936 1.82705 -5.86082 0
M  V30 1734 C 165.307 1.66086 -5.9734 0
M  V30 1735 C 167.362 1.83845 -4.62715 0
M  V30 1736 C 166.065 1.23246 -7.08663 0
M  V30 1737 C 168.091 1.4241 -5.73998 0
M  V30 1738 C 167.453 1.12357 -6.95381 0
M  V30 1739 H 163.552 0.530859 -0.574206 0
M  V30 1740 H 166.136 0.806674 -1.77203 0
M  V30 1741 H 164.307 3.31404 -2.02549 0
M  V30 1742 H 166.039 3.35015 -2.2704 0
M  V30 1743 H 162.794 2.4276 -4.0665 0
M  V30 1744 H 163.218 1.64337 -6.56751 0
M  V30 1745 H 167.86 2.05734 -3.69369 0
M  V30 1746 H 165.578 1.00102 -8.01876 0
M  V30 1747 H 169.164 1.32746 -5.66454 0
M  V30 1748 H 168.044 0.807795 -7.80028 0
M  V30 1749 N 165.547 1.27147 0.931209 0
M  V30 1750 C 166.963 1.04475 1.20653 0
M  V30 1751 C 167.163 -0.223885 2.00252 0
M  V30 1752 O 166.219 -0.930332 2.34736 0
M  V30 1753 C 167.532 2.28209 1.95809 0
M  V30 1754 C 169.08 2.33211 2.08762 0
M  V30 1755 C 169.555 3.56665 2.87323 0
M  V30 1756 N 171.046 3.57201 2.94892 0
M  V30 1757 C 171.781 4.49395 3.56134 0
M  V30 1758 N 171.277 5.51889 4.18796 0
M  V30 1759 N 173.07 4.37026 3.53504 0
M  V30 1760 H 165.221 2.08612 0.399333 0
M  V30 1761 H 167.484 0.917312 0.239253 0
M  V30 1762 H 167.19 3.20538 1.44736 0
M  V30 1763 H 167.064 2.33247 2.96438 0
M  V30 1764 H 169.451 1.41391 2.59023 0
M  V30 1765 H 169.532 2.32178 1.07364 0
M  V30 1766 H 169.176 4.4882 2.37746 0
M  V30 1767 H 169.106 3.54948 3.88998 0
M  V30 1768 H 171.597 2.83074 2.50354 0
M  V30 1769 H 171.91 6.18409 4.63454 0
M  V30 1770 H 170.255 5.55735 4.17353 0
M  V30 1771 H 173.446 3.56166 3.03749 0
M  V30 1772 H 173.619 5.09067 4.00942 0
M  V30 1773 N 167.025 -1.13721 1.09112 0
M  V30 1774 C 168.25 -1.89314 0.847053 0
M  V30 1775 C 168.675 -1.78416 -0.595774 0
M  V30 1776 O 168.033 -1.12942 -1.41823 0
M  V30 1777 C 168.081 -3.3701 1.28284 0
M  V30 1778 O 167.185 -4.10054 0.439267 0
M  V30 1779 H 166.526 -0.588745 0.307044 0
M  V30 1780 H 169.056 -1.43902 1.45442 0
M  V30 1781 H 169.066 -3.87834 1.26683 0
M  V30 1782 H 167.741 -3.4426 2.33363 0
M  V30 1783 H 166.318 -3.69266 0.519312 0
M  V30 1784 N 168.503 -0.877838 -1.30888 0
M  V30 1785 C 169.751 -0.491723 -1.96027 0
M  V30 1786 C 170.072 0.960827 -1.69685 0
M  V30 1787 O 169.342 1.67462 -1.01654 0
M  V30 1788 H 167.922 -0.17885 -0.725273 0
M  V30 1789 H 170.584 -1.11935 -1.59551 0
M  V30 1790 H 169.68 -0.656016 -3.05128 0
M  V30 1791 N 169.982 1.44106 -0.638065 0
M  V30 1792 C 171.229 2.01978 -0.14533 0
M  V30 1793 C 171.557 1.50234 1.23532 0
M  V30 1794 O 170.812 0.679548 1.83523 0
M  V30 1795 C 171.111 3.5729 -0.0887327 0
M  V30 1796 C 170.777 4.28317 -1.40909 0
M  V30 1797 C 169.439 4.47437 -1.77069 0
M  V30 1798 C 171.791 4.6867 -2.28031 0
M  V30 1799 C 169.119 5.04171 -3.00047 0
M  V30 1800 C 171.471 5.26766 -3.50286 0
M  V30 1801 C 170.135 5.44104 -3.86661 0
M  V30 1802 H 169.405 0.739089 -0.0531801 0
M  V30 1803 H 172.052 1.72781 -0.825761 0
M  V30 1804 H 170.357 3.8594 0.675095 0
M  V30 1805 H 172.054 3.99807 0.309145 0
M  V30 1806 H 168.644 4.1377 -1.1177 0
M  V30 1807 H 172.828 4.53604 -2.01388 0
M  V30 1808 H 168.084 5.15782 -3.28298 0
M  V30 1809 H 172.258 5.56983 -4.18023 0
M  V30 1810 H 169.885 5.87832 -4.82034 0
M  V30 1811 N 171.46 0.379036 1.52974 0
M  V30 1812 C 172.392 -0.495963 2.2377 0
M  V30 1813 C 173.405 -1.03517 1.25651 0
M  V30 1814 O 174.594 -0.939249 1.51791 0
M  V30 1815 C 171.694 -1.69894 2.93239 0
M  V30 1816 C 170.867 -1.2889 4.17979 0
M  V30 1817 C 169.926 -2.35543 4.70538 0
M  V30 1818 O 168.952 -1.97375 5.33883 0
M  V30 1819 N 170.154 -3.67318 4.49508 0
M  V30 1820 H 172.919 0.110523 2.99496 0
M  V30 1821 H 170.48 0.204878 1.60598 0
M  V30 1822 H 172.472 -2.40747 3.25304 0
M  V30 1823 H 171.042 -2.212 2.20883 0
M  V30 1824 H 170.262 -0.409676 3.92065 0
M  V30 1825 H 171.55 -0.991443 4.99047 0
M  V30 1826 H 170.948 -4.01095 3.98923 0
M  V30 1827 H 169.505 -4.34235 4.8609 0
M  V30 1828 N 172.938 -1.57226 0.108567 0
M  V30 1829 C 174.184 -1.95919 -0.546564 0
M  V30 1830 C 174.539 -0.990417 -1.6495 0
M  V30 1831 O 173.832 -0.0186593 -1.91591 0
M  V30 1832 C 174.026 -3.38911 -1.13463 0
M  V30 1833 C 173.855 -4.4961 -0.0901926 0
M  V30 1834 C 172.625 -5.04168 0.338008 0
M  V30 1835 C 174.823 -5.09693 0.686808 0
M  V30 1836 N 172.805 -5.98434 1.36931 0
M  V30 1837 C 174.176 -5.99804 1.56958 0
M  V30 1838 C 176.231 -4.92388 0.738846 0
M  V30 1839 C 174.934 -6.74463 2.49983 0
M  V30 1840 C 176.96 -5.67719 1.65676 0
M  V30 1841 C 176.322 -6.57507 2.52713 0
M  V30 1842 H 172.421 -0.763312 -0.169936 0
M  V30 1843 H 175.005 -1.93728 0.194264 0
M  V30 1844 H 173.176 -3.41769 -1.84522 0
M  V30 1845 H 174.908 -3.64752 -1.75322 0
M  V30 1846 H 171.663 -4.73571 -0.0523673 0
M  V30 1847 H 172.087 -6.5027 1.88356 0
M  V30 1848 H 176.729 -4.22724 0.080084 0
M  V30 1849 H 174.447 -7.4338 3.16878 0
M  V30 1850 H 178.033 -5.56338 1.70233 0
M  V30 1851 H 176.913 -7.14778 3.22586 0
M  V30 1852 N 174.416 0.165178 -1.56732 0
M  V30 1853 C 175.366 1.20917 -1.93295 0
M  V30 1854 C 176.35 1.39488 -0.801985 0
M  V30 1855 O 177.542 1.41356 -1.06525 0
M  V30 1856 C 174.671 2.54718 -2.3016 0
M  V30 1857 C 173.757 2.39815 -3.49785 0
M  V30 1858 N 174.148 1.94637 -4.66851 0
M  V30 1859 C 172.446 2.70623 -3.54513 0
M  V30 1860 C 173.147 1.92344 -5.4898 0
M  V30 1861 N 172.123 2.34978 -4.9019 0
M  V30 1862 H 175.925 0.851675 -2.81289 0
M  V30 1863 H 173.439 0.373399 -1.58049 0
M  V30 1864 H 175.436 3.30165 -2.54552 0
M  V30 1865 H 174.096 2.91265 -1.43508 0
M  V30 1866 H 175.107 1.6488 -4.90953 0
M  V30 1867 H 171.784 3.11167 -2.78354 0
M  V30 1868 H 173.174 1.5906 -6.52801 0
M  V30 1869 N 175.894 1.51508 0.433938 0
M  V30 1870 C 177.14 1.64588 1.18484 0
M  V30 1871 C 177.473 0.362666 1.90784 0
M  V30 1872 O 176.748 -0.637892 1.83742 0
M  V30 1873 C 177.031 2.85149 2.19913 0
M  V30 1874 C 176.884 4.23456 1.51674 0
M  V30 1875 C 178.203 3.01227 3.20858 0
M  V30 1876 H 175.322 0.598994 0.429389 0
M  V30 1877 H 177.964 1.84002 0.473647 0
M  V30 1878 H 176.114 2.68729 2.80566 0
M  V30 1879 H 177.786 4.51552 0.943322 0
M  V30 1880 H 176.029 4.25998 0.819035 0
M  V30 1881 H 176.7 5.03812 2.2556 0
M  V30 1882 H 179.176 3.16382 2.70263 0
M  V30 1883 H 178.052 3.87141 3.89118 0
M  V30 1884 H 178.313 2.13447 3.8716 0
M  V30 1885 N 177.372 -0.689602 1.41712 0
M  V30 1886 C 178.319 -1.80345 1.44029 0
M  V30 1887 C 179.289 -1.63478 0.293948 0
M  V30 1888 O 180.474 -1.84244 0.495869 0
M  V30 1889 C 177.614 -3.18272 1.33405 0
M  V30 1890 C 176.727 -3.46529 2.57956 0
M  V30 1891 C 175.862 -4.74103 2.39582 0
M  V30 1892 C 174.901 -4.95347 3.5958 0
M  V30 1893 N 174.038 -6.14151 3.40239 0
M  V30 1894 H 178.878 -1.77698 2.39222 0
M  V30 1895 H 176.415 -0.867688 1.18784 0
M  V30 1896 H 178.373 -3.97956 1.25246 0
M  V30 1897 H 177.003 -3.2008 0.418164 0
M  V30 1898 H 176.055 -2.61207 2.76542 0
M  V30 1899 H 177.367 -3.58126 3.47199 0
M  V30 1900 H 176.521 -5.61853 2.28924 0
M  V30 1901 H 175.26 -4.64763 1.47805 0
M  V30 1902 H 174.265 -4.06044 3.70686 0
M  V30 1903 H 175.49 -5.06542 4.52318 0
M  V30 1904 H 173.436 -6.06013 2.51167 0
M  V30 1905 H 173.353 -6.26543 4.23061 0
M  V30 1906 H 174.621 -7.04619 3.33365 0
M  V30 1907 N 178.85 -1.27639 -0.924453 0
M  V30 1908 C 180.266 -1.05113 -1.20097 0
M  V30 1909 C 180.466 0.213262 -2.00368 0
M  V30 1910 O 179.522 0.91787 -2.35226 0
M  V30 1911 C 180.835 -2.29244 -1.94596 0
M  V30 1912 C 182.383 -2.34315 -2.07522 0
M  V30 1913 C 182.858 -3.58183 -2.85427 0
M  V30 1914 N 184.349 -3.5876 -2.92994 0
M  V30 1915 C 185.084 -4.51277 -3.53746 0
M  V30 1916 N 184.58 -5.54102 -4.15863 0
M  V30 1917 N 186.373 -4.38894 -3.51181 0
M  V30 1918 H 178.524 -2.08821 -0.388264 0
M  V30 1919 H 180.787 -0.918568 -0.234385 0
M  V30 1920 H 180.493 -3.21301 -1.43034 0
M  V30 1921 H 180.367 -2.34816 -2.95197 0
M  V30 1922 H 182.754 -1.42762 -2.58269 0
M  V30 1923 H 182.835 -2.32744 -1.06131 0
M  V30 1924 H 182.479 -4.50074 -2.35363 0
M  V30 1925 H 182.409 -3.57006 -3.8711 0
M  V30 1926 H 184.9 -2.84398 -2.4885 0
M  V30 1927 H 185.213 -6.20859 -4.60168 0
M  V30 1928 H 183.558 -5.57941 -4.144 0
M  V30 1929 H 186.749 -3.57772 -3.01856 0
M  V30 1930 H 186.922 -5.11186 -3.98237 0
M  V30 1931 N 180.328 1.1314 -1.09713 0
M  V30 1932 C 181.258 2.20748 -0.761102 0
M  V30 1933 C 182.239 1.68061 0.262566 0
M  V30 1934 O 183.424 1.93765 0.129977 0
M  V30 1935 C 180.554 3.46812 -0.184054 0
M  V30 1936 C 179.508 4.12606 -1.13757 0
M  V30 1937 C 178.834 5.33031 -0.422083 0
M  V30 1938 C 180.134 4.59603 -2.48118 0
M  V30 1939 H 181.828 2.49113 -1.66082 0
M  V30 1940 H 179.374 1.19734 -0.799987 0
M  V30 1941 H 181.327 4.21353 0.0631215 0
M  V30 1942 H 180.051 3.17851 0.750868 0
M  V30 1943 H 178.71 3.40036 -1.37007 0
M  V30 1944 H 178.358 5.00335 0.517072 0
M  V30 1945 H 178.058 5.77999 -1.05788 0
M  V30 1946 H 179.582 6.10325 -0.183277 0
M  V30 1947 H 180.996 5.25552 -2.29059 0
M  V30 1948 H 179.393 5.15321 -3.07514 0
M  V30 1949 H 180.463 3.73971 -3.08665 0
M  V30 1950 N 181.806 0.884767 1.30421 0
M  V30 1951 C 183.222 0.57874 1.48737 0
M  V30 1952 C 183.422 -0.883567 1.81095 0
M  V30 1953 O 182.478 -1.6648 1.89844 0
M  V30 1954 C 183.791 1.49171 2.61091 0
M  V30 1955 C 185.339 1.49532 2.74971 0
M  V30 1956 C 185.814 2.39421 3.90438 0
M  V30 1957 N 187.305 2.37383 3.97748 0
M  V30 1958 C 188.04 3.03647 4.86401 0
M  V30 1959 N 187.536 3.79136 5.79852 0
M  V30 1960 N 189.329 2.9288 4.79768 0
M  V30 1961 H 181.48 1.83075 1.0769 0
M  V30 1962 H 183.743 0.783637 0.533495 0
M  V30 1963 H 183.449 2.53291 2.44001 0
M  V30 1964 H 183.323 1.20113 3.57565 0
M  V30 1965 H 185.71 0.46163 2.91467 0
M  V30 1966 H 185.791 1.8262 1.79119 0
M  V30 1967 H 185.435 3.42874 3.74699 0
M  V30 1968 H 185.365 2.03649 4.85628 0
M  V30 1969 H 187.856 1.82525 3.30897 0
M  V30 1970 H 188.169 4.26789 6.4426 0
M  V30 1971 H 186.514 3.83243 5.79784 0
M  V30 1972 H 189.705 2.33433 4.05742 0
M  V30 1973 H 189.878 3.448 5.4865 0
M  V30 1974 N 183.284 -1.43765 0.645699 0
M  V30 1975 C 184.214 -2.33471 -0.0370477 0
M  V30 1976 C 185.195 -1.49042 -0.819779 0
M  V30 1977 O 186.38 -1.77726 -0.782758 0
M  V30 1978 C 183.51 -3.32311 -1.0093 0
M  V30 1979 C 182.464 -4.2667 -0.337201 0
M  V30 1980 C 181.79 -5.1549 -1.42037 0
M  V30 1981 C 183.09 -5.16657 0.765706 0
M  V30 1982 H 184.784 -2.90809 0.712069 0
M  V30 1983 H 182.33 -1.39834 0.343876 0
M  V30 1984 H 184.283 -3.9396 -1.49578 0
M  V30 1985 H 183.007 -2.73213 -1.78948 0
M  V30 1986 H 181.666 -3.66374 0.128771 0
M  V30 1987 H 181.314 -4.52735 -2.1918 0
M  V30 1988 H 181.014 -5.79438 -0.975966 0
M  V30 1989 H 182.538 -5.80012 -1.90838 0
M  V30 1990 H 183.952 -5.72158 0.361702 0
M  V30 1991 H 182.349 -5.89286 1.13413 0
M  V30 1992 H 183.419 -4.56796 1.62683 0
M  V30 1993 N 184.763 -0.387143 -1.52771 0
M  V30 1994 C 186.011 0.195349 -2.01154 0
M  V30 1995 C 186.332 1.475 -1.27549 0
M  V30 1996 O 185.602 1.91878 -0.394924 0
M  V30 1997 H 184.182 0.075178 -0.743207 0
M  V30 1998 H 186.844 -0.518337 -1.87881 0
M  V30 1999 H 185.94 0.407096 -3.09434 0
M  V30 2000 N 186.241 1.57166 -0.116904 0
M  V30 2001 C 187.518 1.86645 0.585049 0
M  V30 2002 C 187.898 1.0177 1.84949 0
M  V30 2003 O 187.246 0.0960379 2.28298 0
M  V30 2004 C 187.456 3.37736 0.879507 0
M  V30 2005 C 188.804 4.06289 1.23348 0
M  V30 2006 O 189.828 3.42743 0.969836 0
M  V30 2007 O 188.687 5.18455 1.7282 0
M  V30 2008 H 185.781 0.772593 0.295007 0
M  V30 2009 H 188.327 1.69025 -0.151249 0
M  V30 2010 H 187.099 3.91296 -0.0166136 0
M  V30 2011 H 186.722 3.6078 1.67103 0
M  V30 2012 N 187.719 -0.156864 1.56817 0
M  V30 2013 C 188.944 -0.890331 1.87318 0
M  V30 2014 C 189.369 -1.74394 0.704855 0
M  V30 2015 O 188.727 -1.77972 -0.345786 0
M  V30 2016 C 188.775 -1.73102 3.16336 0
M  V30 2017 O 187.879 -2.83422 2.99576 0
M  V30 2018 H 187.22 -0.24857 0.615718 0
M  V30 2019 H 189.75 -0.150649 2.04045 0
M  V30 2020 H 189.76 -2.12803 3.48107 0
M  V30 2021 H 188.435 -1.10412 4.00976 0
M  V30 2022 H 187.012 -2.47199 2.7919 0
M  V30 2023 N 189.197 -1.51736 -0.425897 0
M  V30 2024 C 190.474 -1.55519 -1.1863 0
M  V30 2025 C 190.854 -0.326219 -2.08564 0
M  V30 2026 O 190.202 0.688012 -2.17896 0
M  V30 2027 C 190.412 -2.87521 -1.9782 0
M  V30 2028 C 191.76 -3.39899 -2.54468 0
M  V30 2029 O 192.784 -2.89148 -2.08019 0
M  V30 2030 O 191.643 -4.2848 -3.39215 0
M  V30 2031 H 188.737 -0.625739 -0.540721 0
M  V30 2032 H 191.283 -1.64055 -0.434038 0
M  V30 2033 H 190.055 -3.68422 -1.31836 0
M  V30 2034 H 189.678 -2.822 -2.80088 0
M  V30 2035 N 190.675 0.682077 -1.42076 0
M  V30 2036 C 191.638 1.77756 -1.44691 0
M  V30 2037 C 192.638 1.5726 -0.335535 0
M  V30 2038 O 193.828 1.63686 -0.596037 0
M  V30 2039 C 190.96 3.16301 -1.27146 0
M  V30 2040 H 192.153 1.76826 -2.42224 0
M  V30 2041 H 189.706 0.891012 -1.28416 0
M  V30 2042 H 190.441 3.22862 -0.305075 0
M  V30 2043 H 190.226 3.32581 -2.07683 0
M  V30 2044 H 191.716 3.96241 -1.31843 0
M  V30 2045 N 192.153 1.28127 0.917671 0
M  V30 2046 C 193.4 1.15052 1.66641 0
M  V30 2047 C 193.728 -0.301677 1.92146 0
M  V30 2048 O 192.983 -1.23622 1.51711 0
M  V30 2049 C 193.282 1.89018 3.03327 0
M  V30 2050 C 192.948 3.38832 2.97496 0
M  V30 2051 C 191.61 3.79693 2.95613 0
M  V30 2052 C 193.962 4.34378 2.88036 0
M  V30 2053 C 191.29 5.14447 2.82066 0
M  V30 2054 C 193.642 5.69201 2.7603 0
M  V30 2055 C 192.306 6.09343 2.72502 0
M  V30 2056 H 191.576 0.421006 0.609783 0
M  V30 2057 H 194.223 1.58855 1.06945 0
M  V30 2058 H 192.528 1.37752 3.66785 0
M  V30 2059 H 194.225 1.76321 3.60156 0
M  V30 2060 H 190.815 3.06342 2.99754 0
M  V30 2061 H 194.999 4.03775 2.88581 0
M  V30 2062 H 190.255 5.44681 2.77728 0
M  V30 2063 H 194.429 6.42901 2.67678 0
M  V30 2064 H 192.056 7.13712 2.61762 0
M  V30 2065 N 193.631 -1.12557 1.10312 0
M  V30 2066 C 194.561 -2.20341 0.772798 0
M  V30 2067 C 195.542 -1.68198 -0.25365 0
M  V30 2068 O 196.727 -1.93831 -0.119699 0
M  V30 2069 C 193.857 -3.46709 0.202443 0
M  V30 2070 C 192.811 -4.11996 1.15943 0
M  V30 2071 C 192.137 -5.328 0.450345 0
M  V30 2072 C 193.437 -4.5828 2.50552 0
M  V30 2073 H 195.131 -2.48229 1.674 0
M  V30 2074 H 192.677 -1.19308 0.806326 0
M  V30 2075 H 194.63 -4.2138 -0.0407752 0
M  V30 2076 H 193.354 -3.18245 -0.734001 0
M  V30 2077 H 192.013 -3.39305 1.38808 0
M  V30 2078 H 191.661 -5.00602 -0.490531 0
M  V30 2079 H 191.361 -5.7743 1.08851 0
M  V30 2080 H 192.885 -6.10219 0.215642 0
M  V30 2081 H 194.299 -5.2433 2.31843 0
M  V30 2082 H 192.696 -5.13683 3.10242 0
M  V30 2083 H 193.766 -3.72329 3.10643 0
M  V30 2084 N 195.109 -0.891671 -1.2995 0
M  V30 2085 C 196.337 -0.52866 -2.00032 0
M  V30 2086 C 196.752 0.884574 -1.66795 0
M  V30 2087 O 196.109 1.5827 -0.908669 0
M  V30 2088 C 196.16 -0.701814 -3.54622 0
M  V30 2089 O 195.881 -2.05942 -3.86678 0
M  V30 2090 C 197.382 -0.342683 -4.41973 0
M  V30 2091 H 194.602 -0.203659 -0.639347 0
M  V30 2092 H 197.146 -1.19881 -1.65677 0
M  V30 2093 H 195.301 -0.0789468 -3.8732 0
M  V30 2094 H 195.715 -2.08291 -4.81368 0
M  V30 2095 H 197.189 -0.514709 -5.49595 0
M  V30 2096 H 197.666 0.71975 -4.33262 0
M  V30 2097 H 198.272 -0.942154 -4.14733 0
M  V30 2098 N 196.587 1.43421 -0.653314 0
M  V30 2099 C 198.003 1.56341 -0.320886 0
M  V30 2100 C 198.203 1.63696 1.17499 0
M  V30 2101 O 197.259 1.59208 1.95982 0
M  V30 2102 C 198.572 2.82424 -1.03233 0
M  V30 2103 C 200.12 2.96168 -1.01259 0
M  V30 2104 C 200.595 4.25084 -1.70492 0
M  V30 2105 N 202.086 4.31948 -1.67257 0
M  V30 2106 C 202.821 5.30466 -2.17701 0
M  V30 2107 N 202.317 6.35261 -2.76434 0
M  V30 2108 N 204.11 5.2212 -2.082 0
M  V30 2109 H 196.261 1.3689 -1.62403 0
M  V30 2110 H 198.524 0.657455 -0.682977 0
M  V30 2111 H 198.23 2.83053 -2.08744 0
M  V30 2112 H 198.104 3.72653 -0.583948 0
M  V30 2113 H 200.491 2.9508 0.0341235 0
M  V30 2114 H 200.572 2.07229 -1.49966 0
M  V30 2115 H 200.216 4.26932 -2.7512 0
M  V30 2116 H 200.146 5.1292 -1.19251 0
M  V30 2117 H 202.637 3.56838 -1.24398 0
M  V30 2118 H 202.95 7.06754 -3.12601 0
M  V30 2119 H 201.295 6.35884 -2.80495 0
M  V30 2120 H 204.486 4.39166 -1.62021 0
M  V30 2121 H 204.659 5.98739 -2.47822 0
M  V30 2122 N 198.065 0.39524 1.52563 0
M  V30 2123 C 199.028 -0.425001 2.25225 0
M  V30 2124 C 200.028 -0.985266 1.27079 0
M  V30 2125 O 201.218 -0.866332 1.5113 0
M  V30 2126 C 198.35 -1.59686 3.01186 0
M  V30 2127 H 199.543 0.211233 2.99155 0
M  V30 2128 H 197.096 0.147472 1.55603 0
M  V30 2129 H 197.831 -2.27035 2.31572 0
M  V30 2130 H 197.616 -1.20176 3.73229 0
M  V30 2131 H 199.106 -2.17743 3.5634 0
M  V30 2132 N 199.544 -1.57102 0.125237 0
M  V30 2133 C 200.491 -2.15641 -0.822655 0
M  V30 2134 C 201.461 -1.08313 -1.25927 0
M  V30 2135 O 202.646 -1.36251 -1.33567 0
M  V30 2136 C 199.786 -2.76504 -2.06494 0
M  V30 2137 C 198.899 -3.98158 -1.67612 0
M  V30 2138 C 198.034 -4.47088 -2.86854 0
M  V30 2139 C 197.073 -5.6126 -2.44242 0
M  V30 2140 N 196.21 -6.04905 -3.56419 0
M  V30 2141 H 201.05 -2.96313 -0.316625 0
M  V30 2142 H 198.587 -1.46388 -0.144588 0
M  V30 2143 H 200.545 -3.09925 -2.79289 0
M  V30 2144 H 199.175 -1.98512 -2.54545 0
M  V30 2145 H 198.227 -3.70858 -0.846661 0
M  V30 2146 H 199.539 -4.80934 -1.32301 0
M  V30 2147 H 198.693 -4.82451 -3.67867 0
M  V30 2148 H 197.432 -3.63275 -3.25396 0
M  V30 2149 H 196.437 -5.25495 -1.61663 0
M  V30 2150 H 197.662 -6.46843 -2.0681 0
M  V30 2151 H 195.608 -5.24032 -3.94623 0
M  V30 2152 H 195.525 -6.82552 -3.25051 0
M  V30 2153 H 196.793 -6.44907 -4.37853 0
M  V30 2154 N 201.022 0.148545 -1.56898 0
M  V30 2155 C 201.954 1.20852 -1.9475 0
M  V30 2156 C 202.967 1.39265 -0.843152 0
M  V30 2157 O 204.156 1.38864 -1.12156 0
M  V30 2158 C 201.256 2.57362 -2.20495 0
M  V30 2159 C 200.429 2.59947 -3.51776 0
M  V30 2160 C 199.488 3.77984 -3.6608 0
M  V30 2161 O 198.514 3.62929 -4.38487 0
M  V30 2162 N 199.716 4.95375 -3.02629 0
M  V30 2163 H 202.481 0.886804 -2.86279 0
M  V30 2164 H 200.042 0.338121 -1.5833 0
M  V30 2165 H 202.034 3.34833 -2.27307 0
M  V30 2166 H 200.604 2.81832 -1.35238 0
M  V30 2167 H 199.824 1.68403 -3.56419 0
M  V30 2168 H 201.112 2.58704 -4.38121 0
M  V30 2169 H 200.51 5.10509 -2.43715 0
M  V30 2170 H 199.067 5.70627 -3.15004 0
M  V30 2171 N 202.5 1.5196 0.417844 0
M  V30 2172 C 203.916 1.40569 0.755816 0
M  V30 2173 C 204.116 0.503316 1.95113 0
M  V30 2174 O 203.172 -0.0341925 2.52477 0
M  V30 2175 C 204.485 2.82947 1.01791 0
M  V30 2176 C 206.033 2.92231 1.12116 0
M  V30 2177 C 206.508 4.35559 1.41608 0
M  V30 2178 N 207.999 4.38753 1.48491 0
M  V30 2179 C 208.734 5.46705 1.7292 0
M  V30 2180 N 208.23 6.64788 1.95011 0
M  V30 2181 N 210.023 5.34209 1.74863 0
M  V30 2182 H 202.174 2.09168 -0.369098 0
M  V30 2183 H 204.437 0.942409 -0.102809 0
M  V30 2184 H 204.143 3.5106 0.212081 0
M  V30 2185 H 204.017 3.23462 1.94042 0
M  V30 2186 H 206.404 2.24304 1.9176 0
M  V30 2187 H 206.485 2.55185 0.177225 0
M  V30 2188 H 206.129 5.04042 0.624848 0
M  V30 2189 H 206.059 4.70133 2.37239 0
M  V30 2190 H 208.55 3.5363 1.33244 0
M  V30 2191 H 208.863 7.42845 2.13076 0
M  V30 2192 H 207.208 6.67869 1.92293 0
M  V30 2193 H 210.399 4.40937 1.57137 0
M  V30 2194 H 210.572 6.18415 1.93563 0
M  V30 2195 N 203.978 -0.674533 1.42435 0
M  V30 2196 C 205.224 -1.43671 1.43131 0
M  V30 2197 C 205.557 -1.94142 0.0476021 0
M  V30 2198 O 204.832 -1.70924 -0.928188 0
M  V30 2199 C 205.115 -2.63355 2.45594 0
M  V30 2200 C 204.968 -2.18514 3.93156 0
M  V30 2201 C 206.287 -3.65571 2.45043 0
M  V30 2202 H 203.406 -0.521077 0.521198 0
M  V30 2203 H 206.048 -0.766551 1.7385 0
M  V30 2204 H 204.198 -3.2053 2.19528 0
M  V30 2205 H 205.87 -1.66504 4.30202 0
M  V30 2206 H 204.113 -1.50086 4.07009 0
M  V30 2207 H 204.784 -3.04484 4.60428 0
M  V30 2208 H 207.26 -3.18113 2.68223 0
M  V30 2209 H 206.136 -4.46893 3.18713 0
M  V30 2210 H 206.397 -4.16716 1.47649 0
M  V30 2211 N 205.456 -1.28612 -0.910864 0
M  V30 2212 C 206.419 -1.12803 -1.9952 0
M  V30 2213 C 207.419 -0.0668264 -1.60661 0
M  V30 2214 O 208.609 -0.312847 -1.71368 0
M  V30 2215 C 205.741 -0.72254 -3.33155 0
M  V30 2216 H 206.934 -2.09109 -2.14973 0
M  V30 2217 H 204.487 -1.11639 -1.09391 0
M  V30 2218 H 205.222 0.241152 -3.23402 0
M  V30 2219 H 205.007 -1.48916 -3.62721 0
M  V30 2220 H 206.497 -0.634666 -4.12749 0
M  V30 2221 N 206.934 1.1197 -1.10907 0
M  V30 2222 C 207.844 2.21433 -0.774896 0
M  V30 2223 C 208.86 1.72478 0.229657 0
M  V30 2224 O 210.036 2.01288 0.0672008 0
M  V30 2225 C 207.101 3.4602 -0.216986 0
M  V30 2226 C 206.162 4.09791 -1.27944 0
M  V30 2227 C 205.395 5.28431 -0.748055 0
M  V30 2228 O 205.618 5.68823 0.423833 0
M  V30 2229 O 204.552 5.82644 -1.51027 0
M  V30 2230 H 208.378 2.5242 -1.68873 0
M  V30 2231 H 205.963 1.20399 -0.884555 0
M  V30 2232 H 207.845 4.21304 0.090059 0
M  V30 2233 H 206.52 3.16698 0.669633 0
M  V30 2234 H 205.427 3.36265 -1.63941 0
M  V30 2235 H 206.76 4.4328 -2.13925 0
M  V30 2236 N 208.412 0.89855 1.29475 0
M  V30 2237 C 209.345 0.319981 2.25945 0
M  V30 2238 C 210.323 -0.567189 1.52387 0
M  V30 2239 O 211.507 -0.514254 1.8135 0
M  V30 2240 C 208.634 -0.544013 3.34303 0
M  V30 2241 C 207.68 0.275682 4.25608 0
M  V30 2242 S 208.513 1.67272 5.08704 0
M  V30 2243 C 209.669 0.815621 6.20563 0
M  V30 2244 H 209.902 1.13767 2.74671 0
M  V30 2245 H 207.435 0.69882 1.3768 0
M  V30 2246 H 209.393 -1.03673 3.97193 0
M  V30 2247 H 208.054 -1.33593 2.84274 0
M  V30 2248 H 207.247 -0.384263 5.02533 0
M  V30 2249 H 206.849 0.701496 3.67362 0
M  V30 2250 H 209.141 0.0385042 6.77489 0
M  V30 2251 H 210.084 1.55691 6.90772 0
M  V30 2252 H 210.492 0.370516 5.63283 0
M  V30 2253 N 209.89 -1.43072 0.660911 0
M  V30 2254 C 211.137 -2.01721 0.177445 0
M  V30 2255 C 211.465 -1.5218 -1.21126 0
M  V30 2256 O 210.72 -0.708659 -1.82419 0
M  V30 2257 C 211.019 -3.57103 0.145563 0
M  V30 2258 C 210.685 -4.26021 1.47705 0
M  V30 2259 C 209.347 -4.44563 1.84165 0
M  V30 2260 C 211.699 -4.64983 2.35458 0
M  V30 2261 C 209.027 -4.99334 3.0803 0
M  V30 2262 C 211.379 -5.21127 3.58622 0
M  V30 2263 C 210.043 -5.37884 3.95268 0
M  V30 2264 H 209.313 -0.73815 0.0649317 0
M  V30 2265 H 211.96 -1.71446 0.853144 0
M  V30 2266 H 210.265 -3.86965 -0.61361 0
M  V30 2267 H 211.962 -4.00248 -0.2455 0
M  V30 2268 H 208.552 -4.11939 1.18339 0
M  V30 2269 H 212.736 -4.50343 2.08579 0
M  V30 2270 H 207.992 -5.10493 3.36462 0
M  V30 2271 H 212.166 -5.50262 4.26831 0
M  V30 2272 H 209.793 -5.80089 4.91325 0
M  V30 2273 N 211.368 -0.403325 -1.52352 0
M  V30 2274 C 212.331 0.413051 -2.25447 0
M  V30 2275 C 213.331 0.978513 -1.276 0
M  V30 2276 O 214.521 0.858305 -1.51587 0
M  V30 2277 C 211.653 1.58087 -3.02029 0
M  V30 2278 H 212.846 -0.227094 -2.99039 0
M  V30 2279 H 210.399 -0.155722 -1.55522 0
M  V30 2280 H 211.134 2.25804 -2.32772 0
M  V30 2281 H 210.919 1.18195 -3.73861 0
M  V30 2282 H 212.409 2.1585 -3.57489 0
M  V30 2283 N 212.846 1.57033 -0.133567 0
M  V30 2284 C 214.095 1.94861 0.520768 0
M  V30 2285 C 214.408 1.02012 1.66892 0
M  V30 2286 O 215.614 1.29365 2.38699 0
M  V30 2287 C 214.07 3.46362 0.977809 0
M  V30 2288 C 213.678 4.47773 -0.142674 0
M  V30 2289 C 215.422 3.93083 1.60269 0
M  V30 2290 C 213.329 5.90468 0.331883 0
M  V30 2291 H 212.259 0.727453 0.198315 0
M  V30 2292 H 214.91 1.82227 -0.215759 0
M  V30 2293 H 213.292 3.54282 1.7692 0
M  V30 2294 H 214.466 4.51536 -0.919317 0
M  V30 2295 H 212.781 4.10891 -0.675124 0
M  V30 2296 H 215.378 4.97121 1.96914 0
M  V30 2297 H 215.721 3.33876 2.48662 0
M  V30 2298 H 216.254 3.88025 0.876453 0
M  V30 2299 H 212.993 6.53463 -0.516341 0
M  V30 2300 H 212.513 5.90094 1.07469 0
M  V30 2301 H 214.192 6.42179 0.788332 0
M  V30 2302 N 214.325 -0.140222 1.56975 0
M  V30 2303 C 215.741 -0.493088 1.51792 0
M  V30 2304 C 215.941 -1.83013 0.843116 0
M  V30 2305 O 214.997 -2.49041 0.416493 0
M  V30 2306 C 216.31 -0.497144 2.96562 0
M  V30 2307 C 217.858 -0.582186 3.07538 0
M  V30 2308 C 218.333 -0.616838 4.53827 0
M  V30 2309 N 219.824 -0.678873 4.58198 0
M  V30 2310 C 220.559 -0.726782 5.68775 0
M  V30 2311 N 220.055 -0.733623 6.88905 0
M  V30 2312 N 221.848 -0.768179 5.56826 0
M  V30 2313 H 213.999 0.736108 1.99237 0
M  V30 2314 H 216.262 0.269182 0.90898 0
M  V30 2315 H 215.968 0.417217 3.49217 0
M  V30 2316 H 215.842 -1.33263 3.52875 0
M  V30 2317 H 218.229 -1.48697 2.54899 0
M  V30 2318 H 218.31 0.280581 2.54257 0
M  V30 2319 H 217.954 0.283812 5.07106 0
M  V30 2320 H 217.884 -1.49619 5.04898 0
M  V30 2321 H 220.375 -0.68061 3.7172 0
M  V30 2322 H 220.688 -0.772215 7.68932 0
M  V30 2323 H 219.033 -0.701389 6.91452 0
M  V30 2324 H 222.224 -0.760051 4.61888 0
M  V30 2325 H 222.397 -0.80205 6.43017 0
M  V30 2326 N 215.803 -1.52179 -0.40978 0
M  V30 2327 C 216.713 -1.78364 -1.52392 0
M  V30 2328 C 217.729 -0.669183 -1.60617 0
M  V30 2329 O 218.905 -0.954518 -1.77344 0
M  V30 2330 C 215.97 -1.92822 -2.88133 0
M  V30 2331 C 215.031 -3.16725 -2.898 0
M  V30 2332 C 214.264 -3.30483 -4.19067 0
M  V30 2333 O 214.487 -2.49522 -5.12928 0
M  V30 2334 O 213.421 -4.2363 -4.27576 0
M  V30 2335 H 217.247 -2.72931 -1.33201 0
M  V30 2336 H 214.832 -1.37016 -0.59557 0
M  V30 2337 H 216.714 -2.04157 -3.68643 0
M  V30 2338 H 215.389 -1.01444 -3.07393 0
M  V30 2339 H 214.296 -3.10848 -2.08146 0
M  V30 2340 H 215.629 -4.07881 -2.75489 0
M  V30 2341 N 217.281 0.66697 -1.42791 0
M  V30 2342 C 218.558 1.4234 -1.34159 0
M  V30 2343 C 218.938 2.11093 0.0172729 0
M  V30 2344 O 218.286 2.03808 1.03318 0
M  V30 2345 C 218.496 2.41942 -2.51526 0
M  V30 2346 C 219.844 3.06353 -2.93995 0
M  V30 2347 O 220.868 2.52269 -2.51473 0
M  V30 2348 O 219.727 4.04376 -3.67617 0
M  V30 2349 H 216.821 0.635277 -0.529483 0
M  V30 2350 H 219.367 0.695034 -1.54814 0
M  V30 2351 H 218.139 1.89991 -3.42081 0
M  V30 2352 H 217.762 3.22249 -2.32898 0
M  V30 2353 N 218.759 1.29093 0.90403 0
M  V30 2354 C 220.175 1.07011 1.1841 0
M  V30 2355 C 220.375 -0.181358 2.00682 0
M  V30 2356 O 219.431 -0.880331 2.36657 0
M  V30 2357 C 220.744 2.32311 1.90924 0
M  V30 2358 C 222.292 2.37587 2.03768 0
M  V30 2359 C 222.767 3.62679 2.79693 0
M  V30 2360 N 224.258 3.63376 2.87249 0
M  V30 2361 C 224.993 4.56848 3.46522 0
M  V30 2362 N 224.489 5.60648 4.06996 0
M  V30 2363 N 226.282 4.44426 3.44154 0
M  V30 2364 H 218.433 2.09412 0.354993 0
M  V30 2365 H 220.696 0.922181 0.219742 0
M  V30 2366 H 220.402 3.23536 1.37905 0
M  V30 2367 H 220.276 2.39483 2.91424 0
M  V30 2368 H 222.663 1.46853 2.55965 0
M  V30 2369 H 222.744 2.34403 1.02415 0
M  V30 2370 H 222.388 4.53762 2.28173 0
M  V30 2371 H 222.318 3.63119 3.81381 0
M  V30 2372 H 224.809 2.88321 2.44293 0
M  V30 2373 H 225.122 6.28101 4.50232 0
M  V30 2374 H 223.467 5.64463 4.05471 0
M  V30 2375 H 226.658 3.62529 2.96126 0
M  V30 2376 H 226.831 5.17457 3.90054 0
M  V30 2377 N 220.237 -1.11381 1.11499 0
M  V30 2378 C 221.648 -1.6465 0.880191 0
M  V30 2379 C 221.999 -1.87199 -0.587434 0
M  V30 2380 O 221.124 -1.60667 -1.44966 0
M  V30 2381 C 221.719 -2.99105 1.59128 0
M  V30 2382 C 220.278 -3.49279 1.40289 0
M  V30 2383 C 219.425 -2.24077 1.63354 0
M  V30 2384 H 222.376 -0.950123 1.27116 0
M  V30 2385 H 222.397 -3.66107 1.03664 0
M  V30 2386 H 221.909 -2.82661 2.65941 0
M  V30 2387 H 220.01 -3.70887 0.356888 0
M  V30 2388 H 220.123 -4.2803 2.15238 0
M  V30 2389 H 218.487 -2.31733 1.05698 0
M  V30 2390 H 219.27 -2.10175 2.71443 0
M  V30 2391 N 221.715 -0.905404 -1.28997 0
M  V30 2392 C 222.94 -0.549175 -1.99997 0
M  V30 2393 C 223.365 0.860276 -1.67275 0
M  V30 2394 O 222.723 1.57355 -0.900502 0
M  V30 2395 C 222.771 -0.755185 -3.52604 0
M  V30 2396 O 221.875 0.189692 -4.11964 0
M  V30 2397 H 221.216 -0.213899 -0.628604 0
M  V30 2398 H 223.746 -1.21856 -1.64354 0
M  V30 2399 H 223.756 -0.662045 -4.02593 0
M  V30 2400 H 222.431 -1.78271 -3.75755 0
M  V30 2401 H 221.008 0.0485257 -3.72868 0
M  V30 2402 N 223.193 1.4272 -0.668489 0
M  V30 2403 C 224.123 2.335 -0.000100175 0
M  V30 2404 C 225.104 1.50328 0.795964 0
M  V30 2405 O 226.289 1.78949 0.754385 0
M  V30 2406 C 223.419 3.33874 0.956302 0
M  V30 2407 C 222.373 4.27152 0.269278 0
M  V30 2408 C 221.699 5.17684 1.33818 0
M  V30 2409 C 222.999 5.15373 -0.847805 0
M  V30 2410 H 224.693 2.89639 -0.758244 0
M  V30 2411 H 222.239 1.39269 -0.366079 0
M  V30 2412 H 224.192 3.9629 1.43292 0
M  V30 2413 H 222.916 2.76025 1.74579 0
M  V30 2414 H 221.575 3.66123 -0.187042 0
M  V30 2415 H 221.223 4.56165 2.1195 0
M  V30 2416 H 220.923 5.80918 0.883659 0
M  V30 2417 H 222.447 5.82974 1.81586 0
M  V30 2418 H 223.861 5.7151 -0.452681 0
M  V30 2419 H 222.258 5.87407 -1.22773 0
M  V30 2420 H 223.328 4.5415 -1.69929 0
M  V30 2421 N 224.671 0.411399 1.52136 0
M  V30 2422 C 225.601 -0.404015 2.29978 0
M  V30 2423 C 226.582 -1.04412 1.34284 0
M  V30 2424 O 227.767 -1.0527 1.63192 0
M  V30 2425 C 224.897 -1.5197 3.12286 0
M  V30 2426 C 223.851 -1.00448 4.16046 0
M  V30 2427 C 223.177 -2.21393 4.86712 0
M  V30 2428 C 224.477 -0.0569336 5.22269 0
M  V30 2429 H 226.171 0.245529 2.98392 0
M  V30 2430 H 223.717 0.119525 1.43503 0
M  V30 2431 H 225.67 -2.09715 3.6551 0
M  V30 2432 H 224.394 -2.19716 2.41646 0
M  V30 2433 H 223.053 -0.449421 3.63835 0
M  V30 2434 H 222.701 -2.87699 4.12599 0
M  V30 2435 H 222.401 -1.87571 5.56858 0
M  V30 2436 H 223.925 -2.7974 5.4275 0
M  V30 2437 H 225.339 -0.54325 5.7072 0
M  V30 2438 H 223.736 0.192594 5.99791 0
M  V30 2439 H 224.806 0.887663 4.76706 0
M  V30 2440 N 226.149 -1.5696 0.141893 0
M  V30 2441 C 227.059 -2.20066 -0.812905 0
M  V30 2442 C 228.075 -1.18344 -1.27557 0
M  V30 2443 O 229.251 -1.50902 -1.33381 0
M  V30 2444 C 226.316 -2.80583 -2.03652 0
M  V30 2445 C 225.377 -3.97414 -1.62359 0
M  V30 2446 C 224.61 -4.55036 -2.78887 0
M  V30 2447 O 224.833 -4.11538 -3.94959 0
M  V30 2448 O 223.767 -5.45376 -2.54653 0
M  V30 2449 H 227.593 -3.02157 -0.305746 0
M  V30 2450 H 225.178 -1.49159 -0.0848799 0
M  V30 2451 H 227.06 -3.19067 -2.75272 0
M  V30 2452 H 225.735 -2.01508 -2.5333 0
M  V30 2453 H 224.642 -3.63656 -0.877775 0
M  V30 2454 H 225.975 -4.77994 -1.17401 0
M  V30 2455 N 227.627 0.131896 -1.57047 0
M  V30 2456 C 228.537 1.1815 -2.02676 0
M  V30 2457 C 229.553 1.46113 -0.944824 0
M  V30 2458 O 230.729 1.57485 -1.25541 0
M  V30 2459 C 227.794 2.49139 -2.41103 0
M  V30 2460 C 226.855 2.28688 -3.63318 0
M  V30 2461 C 226.088 3.53431 -3.99903 0
M  V30 2462 O 226.311 4.60223 -3.36973 0
M  V30 2463 O 225.245 3.45198 -4.93074 0
M  V30 2464 H 229.071 0.824069 -2.92306 0
M  V30 2465 H 226.656 0.341745 -1.45439 0
M  V30 2466 H 228.538 3.26338 -2.66611 0
M  V30 2467 H 227.213 2.84382 -1.54624 0
M  V30 2468 H 226.12 1.4939 -3.42977 0
M  V30 2469 H 227.453 1.98355 -4.50462 0
M  V30 2470 N 229.106 1.52395 0.401703 0
M  V30 2471 C 230.036 1.79231 1.49661 0
M  V30 2472 C 231.017 0.643654 1.57452 0
M  V30 2473 O 232.202 0.889989 1.72606 0
M  V30 2474 C 229.332 1.94971 2.87409 0
M  V30 2475 C 228.286 3.10604 2.94465 0
M  V30 2476 C 227.612 3.11577 4.34538 0
M  V30 2477 C 228.912 4.49921 2.6527 0
M  V30 2478 H 230.606 2.70917 1.27454 0
M  V30 2479 H 228.152 1.30362 0.6117 0
M  V30 2480 H 230.105 2.12328 3.63999 0
M  V30 2481 H 228.829 0.999632 3.10926 0
M  V30 2482 H 227.488 2.93009 2.20321 0
M  V30 2483 H 227.136 2.14277 4.55076 0
M  V30 2484 H 226.836 3.89247 4.40183 0
M  V30 2485 H 228.36 3.31073 5.13053 0
M  V30 2486 H 229.774 4.67683 3.31581 0
M  V30 2487 H 228.171 5.29564 2.82281 0
M  V30 2488 H 229.241 4.57507 1.60671 0
M  V30 2489 N 230.584 -0.659388 1.43143 0
M  V30 2490 C 231.547 -1.75432 1.47501 0
M  V30 2491 C 232.547 -1.56707 0.360512 0
M  V30 2492 O 233.737 -1.62717 0.622002 0
M  V30 2493 C 230.869 -3.14239 1.32162 0
M  V30 2494 H 232.062 -1.7295 2.45006 0
M  V30 2495 H 229.615 -0.870469 1.29817 0
M  V30 2496 H 230.35 -3.22336 0.356401 0
M  V30 2497 H 230.135 -3.29235 2.12948 0
M  V30 2498 H 231.625 -3.94094 1.3813 0
M  V30 2499 N 232.062 -1.29571 -0.897171 0
M  V30 2500 C 232.972 -1.16808 -2.03453 0
M  V30 2501 C 233.988 -0.0907471 -1.73763 0
M  V30 2502 O 235.164 -0.303312 -1.99103 0
M  V30 2503 C 232.229 -0.848264 -3.36163 0
M  V30 2504 C 231.29 -2.0097 -3.79354 0
M  V30 2505 C 230.523 -1.70505 -5.05731 0
M  V30 2506 O 230.746 -0.62718 -5.66941 0
M  V30 2507 O 229.68 -2.5538 -5.45036 0
M  V30 2508 H 233.506 -2.12325 -2.17144 0
M  V30 2509 H 231.091 -1.09047 -1.02123 0
M  V30 2510 H 232.973 -0.684581 -4.15802 0
M  V30 2511 H 231.648 0.0771071 -3.23608 0
M  V30 2512 H 230.555 -2.22863 -3.00471 0
M  V30 2513 H 231.888 -2.91636 -3.96496 0
M  V30 2514 N 233.54 1.10788 -1.12088 0
M  V30 2515 C 234.47 2.19083 -0.807755 0
M  V30 2516 C 235.451 1.6858 0.226859 0
M  V30 2517 O 236.636 1.93997 0.0888475 0
M  V30 2518 C 233.766 3.46344 -0.257576 0
M  V30 2519 C 232.72 4.101 -1.22483 0
M  V30 2520 C 232.046 5.32016 -0.535052 0
M  V30 2521 C 233.346 4.54236 -2.57811 0
M  V30 2522 H 235.04 2.45534 -1.71328 0
M  V30 2523 H 232.586 1.1801 -0.825205 0
M  V30 2524 H 234.539 4.21392 -0.0262679 0
M  V30 2525 H 233.263 3.19373 0.683278 0
M  V30 2526 H 231.922 3.37054 -1.44189 0
M  V30 2527 H 231.57 5.01319 0.410827 0
M  V30 2528 H 231.27 5.75625 -1.18024 0
M  V30 2529 H 232.794 6.09799 -0.312695 0
M  V30 2530 H 234.208 5.20575 -2.40155 0
M  V30 2531 H 232.605 5.08682 -3.18375 0
M  V30 2532 H 233.675 3.6734 -3.16528 0
M  V30 2533 N 235.018 0.912232 1.28515 0
M  V30 2534 C 236.264 0.554851 1.95686 0
M  V30 2535 C 236.619 -0.89138 1.70506 0
M  V30 2536 O 235.912 -1.62529 1.01464 0
M  V30 2537 C 236.106 0.798392 3.48368 0
M  V30 2538 C 235.935 2.26674 3.88393 0
M  V30 2539 C 234.705 2.91657 4.12631 0
M  V30 2540 C 236.903 3.24303 3.99164 0
M  V30 2541 N 234.885 4.28805 4.39317 0
M  V30 2542 C 236.256 4.4661 4.30046 0
M  V30 2543 C 238.311 3.19723 3.81683 0
M  V30 2544 C 237.014 5.64915 4.45268 0
M  V30 2545 C 239.04 4.37325 3.98121 0
M  V30 2546 C 238.402 5.58406 4.29375 0
M  V30 2547 H 234.501 0.252876 0.739985 0
M  V30 2548 H 237.085 1.17565 1.55199 0
M  V30 2549 H 235.256 0.20688 3.87849 0
M  V30 2550 H 236.988 0.405193 4.02666 0
M  V30 2551 H 233.743 2.42393 4.06869 0
M  V30 2552 H 234.167 4.99712 4.56746 0
M  V30 2553 H 238.809 2.27191 3.56573 0
M  V30 2554 H 236.527 6.57927 4.6921 0
M  V30 2555 H 240.113 4.35282 3.86033 0
M  V30 2556 H 238.993 6.47889 4.41825 0
M  V30 2557 N 236.496 -1.42363 0.676048 0
M  V30 2558 C 237.444 -2.32596 -0.0131507 0
M  V30 2559 C 238.438 -1.49891 -0.789238 0
M  V30 2560 O 239.644 -1.65955 -0.697061 0
M  V30 2561 H 236.019 -0.751647 -0.0230481 0
M  V30 2562 H 237.99 -2.88421 0.765243 0
M  V30 2563 C 236.739 -3.34479 -0.949702 0
M  V30 2564 H 236.062 -3.98158 -0.361938 0
M  V30 2565 H 237.502 -4.00199 -1.4006 0
M  V30 2566 C 235.961 -2.66838 -2.05667 0
M  V30 2567 O 236.491 -2.50124 -3.14326 0
M  V30 2568 N 234.697 -2.25843 -1.82875 0
M  V30 2569 H 234.244 -2.39637 -0.945085 0
M  V30 2570 H 234.202 -1.80918 -2.5713 0
M  V30 2571 N 237.974 -0.419461 -1.51915 0
M  V30 2572 C 239.204 0.151915 -2.06041 0
M  V30 2573 C 239.612 1.38539 -1.28855 0
M  V30 2574 O 238.955 1.80592 -0.336463 0
M  V30 2575 C 239.017 0.557119 -3.55157 0
M  V30 2576 C 238.681 -0.567054 -4.53468 0
M  V30 2577 C 239.678 -1.43379 -4.99738 0
M  V30 2578 C 237.363 -0.742693 -4.96779 0
M  V30 2579 C 239.357 -2.46102 -5.87973 0
M  V30 2580 C 237.044 -1.77322 -5.84808 0
M  V30 2581 C 238.042 -2.63078 -6.30301 0
M  V30 2582 O 237.73 -3.64364 -7.16585 0
M  V30 2583 H 237.462 0.0193293 -0.675724 0
M  V30 2584 H 240.016 -0.592073 -1.96682 0
M  V30 2585 H 238.246 1.35355 -3.62238 0
M  V30 2586 H 239.935 1.05759 -3.9188 0
M  V30 2587 H 240.701 -1.30954 -4.66986 0
M  V30 2588 H 236.58 -0.0848307 -4.60922 0
M  V30 2589 H 240.124 -3.13071 -6.23404 0
M  V30 2590 H 236.021 -1.89773 -6.16974 0
M  V30 2591 H 236.789 -3.60731 -7.34721 0
M  V30 2592 N 239.452 1.56882 -0.150215 0
M  V30 2593 C 240.863 1.82995 0.370076 0
M  V30 2594 C 241.214 1.06907 1.64515 0
M  V30 2595 O 240.339 0.315369 2.1409 0
M  V30 2596 C 240.934 3.31942 0.678208 0
M  V30 2597 C 239.493 3.58625 1.14301 0
M  V30 2598 C 238.64 2.76792 0.167778 0
M  V30 2599 H 241.591 1.54209 -0.374858 0
M  V30 2600 H 241.612 3.48272 1.53254 0
M  V30 2601 H 241.124 3.87294 -0.249991 0
M  V30 2602 H 239.225 3.08664 2.08704 0
M  V30 2603 H 239.338 4.67073 1.06676 0
M  V30 2604 H 237.702 2.45972 0.661037 0
M  V30 2605 H 238.485 3.34916 -0.754069 0
M  V30 2606 N 240.93 -0.123565 1.57115 0
M  V30 2607 C 241.893 -1.13583 1.99076 0
M  V30 2608 C 242.893 -1.34564 0.880296 0
M  V30 2609 O 244.083 -1.31158 1.14644 0
M  V30 2610 C 241.215 -2.49128 2.32698 0
M  V30 2611 H 242.408 -0.775287 2.89706 0
M  V30 2612 H 239.961 -0.36771 1.51913 0
M  V30 2613 H 240.696 -2.90111 1.44934 0
M  V30 2614 H 240.481 -2.35255 3.13684 0
M  V30 2615 H 241.971 -3.2199 2.65918 0
M  V30 2616 N 242.408 -1.52605 -0.393616 0
M  V30 2617 C 243.371 -1.76415 -1.46323 0
M  V30 2618 C 244.371 -0.634126 -1.47768 0
M  V30 2619 O 245.561 -0.902142 -1.4902 0
M  V30 2620 C 242.693 -1.8607 -2.85641 0
M  V30 2621 H 243.886 -2.71916 -1.26498 0
M  V30 2622 H 241.439 -1.43257 -0.625073 0
M  V30 2623 H 242.174 -0.925378 -3.10817 0
M  V30 2624 H 241.959 -2.68235 -2.85993 0
M  V30 2625 H 243.449 -2.06179 -3.63153 0
M  V30 2626 N 243.887 0.651787 -1.4349 0
M  V30 2627 C 245.303 0.96762 -1.26922 0
M  V30 2628 C 245.503 2.00602 -0.189982 0
M  V30 2629 O 244.559 2.48793 0.431107 0
M  V30 2630 C 245.872 1.45052 -2.63401 0
M  V30 2631 C 247.42 1.5671 -2.70945 0
M  V30 2632 C 247.895 2.0839 -4.07845 0
M  V30 2633 N 249.386 2.1569 -4.09917 0
M  V30 2634 C 250.121 2.56804 -5.12679 0
M  V30 2635 N 249.617 2.97203 -6.25813 0
M  V30 2636 N 251.41 2.56756 -5.00033 0
M  V30 2637 H 243.561 -0.0353158 -2.12371 0
M  V30 2638 H 245.824 0.0467858 -0.946845 0
M  V30 2639 H 245.53 0.761926 -3.43348 0
M  V30 2640 H 245.404 2.42529 -2.88894 0
M  V30 2641 H 247.791 2.2467 -1.9133 0
M  V30 2642 H 247.872 0.57662 -2.49216 0
M  V30 2643 H 247.516 1.41031 -4.87927 0
M  V30 2644 H 247.446 3.08271 -4.26938 0
M  V30 2645 H 249.937 1.87237 -3.28254 0
M  V30 2646 H 250.25 3.27328 -7.00055 0
M  V30 2647 H 248.595 2.95004 -6.29283 0
M  V30 2648 H 251.786 2.24572 -4.10713 0
M  V30 2649 H 251.959 2.88475 -5.80247 0
M  V30 2650 N 245.365 1.30045 0.890287 0
M  V30 2651 C 246.776 1.16738 1.45702 0
M  V30 2652 C 247.127 -0.233939 1.948 0
M  V30 2653 O 246.252 -1.13021 1.84541 0
M  V30 2654 C 246.847 2.11313 2.64825 0
M  V30 2655 C 245.406 2.02001 3.17604 0
M  V30 2656 C 244.553 2.01699 1.90296 0
M  V30 2657 H 247.504 1.42392 0.700726 0
M  V30 2658 H 247.525 1.69086 3.40867 0
M  V30 2659 H 247.037 3.13294 2.2906 0
M  V30 2660 H 245.138 1.03142 3.5804 0
M  V30 2661 H 245.251 2.90128 3.81264 0
M  V30 2662 H 243.615 1.46427 2.08402 0
M  V30 2663 H 244.398 3.05402 1.56795 0
M  V30 2664 N 246.843 -1.10192 1.12674 0
M  V30 2665 C 248.092 -1.81573 0.8783 0
M  V30 2666 C 248.405 -1.86249 -0.597557 0
M  V30 2667 O 249.611 -2.5386 -0.962681 0
M  V30 2668 C 248.067 -3.26149 1.52167 0
M  V30 2669 C 247.675 -3.29763 3.03249 0
M  V30 2670 C 249.419 -4.0234 1.3536 0
M  V30 2671 C 247.326 -4.68815 3.60508 0
M  V30 2672 H 246.256 -0.680394 0.324931 0
M  V30 2673 H 248.907 -1.23902 1.35353 0
M  V30 2674 H 247.289 -3.83832 0.974104 0
M  V30 2675 H 248.463 -2.8189 3.6452 0
M  V30 2676 H 246.778 -2.67059 3.19481 0
M  V30 2677 H 249.375 -5.05058 1.75559 0
M  V30 2678 H 249.718 -4.15235 0.297554 0
M  V30 2679 H 250.251 -3.51079 1.87052 0
M  V30 2680 H 246.99 -4.61121 4.65884 0
M  V30 2681 H 246.51 -5.17045 3.04014 0
M  V30 2682 H 248.189 -5.37785 3.59717 0
M  V30 2683 N 248.321 -0.919034 -1.28029 0
M  V30 2684 C 249.251 -0.428581 -2.29533 0
M  V30 2685 C 250.232 0.50659 -1.62381 0
M  V30 2686 O 251.417 0.413195 -1.89753 0
M  V30 2687 C 248.547 0.327388 -3.45753 0
M  V30 2688 C 247.501 -0.519137 -4.2484 0
M  V30 2689 C 246.827 0.365486 -5.33449 0
M  V30 2690 C 248.127 -1.77914 -4.91064 0
M  V30 2691 H 249.821 -1.27687 -2.70807 0
M  V30 2692 H 247.367 -0.615428 -1.30186 0
M  V30 2693 H 249.32 0.681378 -4.15855 0
M  V30 2694 H 248.044 1.20963 -3.03374 0
M  V30 2695 H 246.703 -0.855717 -3.56473 0
M  V30 2696 H 246.351 1.24642 -4.87312 0
M  V30 2697 H 246.051 -0.197356 -5.87268 0
M  V30 2698 H 247.575 0.715241 -6.06396 0
M  V30 2699 H 248.989 -1.49374 -5.53498 0
M  V30 2700 H 247.386 -2.2848 -5.54903 0
M  V30 2701 H 248.456 -2.50382 -4.15255 0
M  V30 2702 N 249.799 1.42003 -0.683588 0
M  V30 2703 C 250.709 2.34597 -0.0109075 0
M  V30 2704 C 251.725 1.55576 0.779245 0
M  V30 2705 O 252.901 1.88107 0.719555 0
M  V30 2706 C 249.966 3.34199 0.922588 0
M  V30 2707 C 249.027 4.29115 0.125984 0
M  V30 2708 C 248.26 5.23959 1.01502 0
M  V30 2709 O 248.483 5.23952 2.25456 0
M  V30 2710 O 247.417 6.00053 0.47111 0
M  V30 2711 H 251.243 2.93675 -0.773853 0
M  V30 2712 H 248.828 1.42654 -0.443861 0
M  V30 2713 H 250.71 3.95365 1.45823 0
M  V30 2714 H 249.385 2.77582 1.66523 0
M  V30 2715 H 248.292 3.71335 -0.453969 0
M  V30 2716 H 249.625 4.88798 -0.577736 0
M  V30 2717 N 251.277 0.427512 1.51691 0
M  V30 2718 C 252.554 -0.201684 1.94557 0
M  V30 2719 C 252.934 -1.60981 1.36559 0
M  V30 2720 O 252.282 -2.21814 0.548702 0
M  V30 2721 C 252.492 -0.189394 3.48486 0
M  V30 2722 C 253.84 -0.39978 4.22714 0
M  V30 2723 O 254.864 -0.267945 3.55191 0
M  V30 2724 O 253.723 -0.661249 5.42485 0
M  V30 2725 H 250.817 -0.135261 0.815864 0
M  V30 2726 H 253.363 0.484782 1.62628 0
M  V30 2727 H 252.135 0.795431 3.8313 0
M  V30 2728 H 251.758 -0.919187 3.86829 0
M  V30 2729 N 252.755 -1.56801 0.158532 0
M  V30 2730 C 254.004 -1.95665 -0.489702 0
M  V30 2731 C 254.317 -1.04654 -1.65248 0
M  V30 2732 O 255.523 -1.33146 -2.3661 0
M  V30 2733 C 253.979 -3.47874 -0.922582 0
M  V30 2734 C 253.587 -4.47489 0.213893 0
M  V30 2735 C 255.331 -3.95583 -1.53996 0
M  V30 2736 C 253.238 -5.90921 -0.237903 0
M  V30 2737 H 252.168 -0.730516 -0.186716 0
M  V30 2738 H 254.819 -1.81861 0.244722 0
M  V30 2739 H 253.201 -3.57051 -1.71261 0
M  V30 2740 H 254.375 -4.50017 0.991036 0
M  V30 2741 H 252.69 -4.09764 0.740407 0
M  V30 2742 H 255.287 -5.0019 -1.8898 0
M  V30 2743 H 255.63 -3.37789 -2.43319 0
M  V30 2744 H 256.163 -3.8937 -0.814611 0
M  V30 2745 H 252.902 -6.52559 0.620236 0
M  V30 2746 H 252.422 -5.91729 -0.980676 0
M  V30 2747 H 254.101 -6.43352 -0.686067 0
M  V30 2748 N 254.233 0.115231 -1.57178 0
M  V30 2749 C 255.51 0.852873 -1.76027 0
M  V30 2750 C 255.89 1.97892 -0.73498 0
M  V30 2751 O 255.238 2.27232 0.24036 0
M  V30 2752 C 255.448 1.36608 -3.21153 0
M  V30 2753 C 256.796 1.81692 -3.83762 0
M  V30 2754 O 257.82 1.46278 -3.24779 0
M  V30 2755 O 256.679 2.47104 -4.87444 0
M  V30 2756 H 253.773 0.405296 -0.720877 0
M  V30 2757 H 256.319 0.0986785 -1.69413 0
M  V30 2758 H 255.091 0.558357 -3.87296 0
M  V30 2759 H 254.714 2.18287 -3.3232 0
M  V30 2760 N 255.711 1.52812 0.385517 0
M  V30 2761 C 256.959 1.67694 1.12797 0
M  V30 2762 C 257.28 0.421115 1.90399 0
M  V30 2763 O 256.55 -0.564551 1.87589 0
M  V30 2764 H 255.13 0.618155 0.419396 0
M  V30 2765 H 257.792 1.89938 0.436972 0
M  V30 2766 H 256.888 2.52896 1.82894 0
M  V30 2767 N 257.189 -0.644168 1.43834 0
M  V30 2768 C 258.419 -1.42939 1.49171 0
M  V30 2769 C 258.827 -1.88874 0.111048 0
M  V30 2770 O 258.17 -1.60656 -0.8908 0
M  V30 2771 C 258.232 -2.69151 2.38324 0
M  V30 2772 C 257.896 -2.45097 3.85715 0
M  V30 2773 C 258.893 -2.07747 4.76589 0
M  V30 2774 C 256.578 -2.59141 4.30292 0
M  V30 2775 C 258.572 -1.8475 6.10038 0
M  V30 2776 C 256.259 -2.35759 5.63792 0
M  V30 2777 C 257.257 -1.9862 6.53482 0
M  V30 2778 O 256.945 -1.75489 7.84512 0
M  V30 2779 H 256.677 -0.445271 0.508635 0
M  V30 2780 H 259.231 -0.79621 1.8934 0
M  V30 2781 H 257.461 -3.3506 1.93058 0
M  V30 2782 H 259.15 -3.31123 2.3476 0
M  V30 2783 H 259.916 -1.96465 4.43426 0
M  V30 2784 H 255.795 -2.87022 3.60749 0
M  V30 2785 H 259.339 -1.55686 6.80006 0
M  V30 2786 H 255.236 -2.46646 5.9652 0
M  V30 2787 H 256.004 -1.89841 7.9618 0
M  V30 2788 N 258.668 -1.30515 -0.883378 0
M  V30 2789 C 260.084 -1.08881 -1.16692 0
M  V30 2790 C 260.284 0.149409 -2.00945 0
M  V30 2791 O 259.34 0.84257 -2.38027 0
M  V30 2792 C 260.653 -2.35319 -1.87204 0
M  V30 2793 C 262.201 -2.40799 -1.99962 0
M  V30 2794 C 262.676 -3.67083 -2.73887 0
M  V30 2795 N 264.167 -3.679 -2.81432 0
M  V30 2796 C 264.902 -4.62303 -3.3921 0
M  V30 2797 N 264.398 -5.67052 -3.98025 0
M  V30 2798 N 266.191 -4.49845 -3.3704 0
M  V30 2799 H 258.342 -2.09951 -0.321633 0
M  V30 2800 H 260.605 -0.92556 -0.205043 0
M  V30 2801 H 260.311 -3.25689 -1.3274 0
M  V30 2802 H 260.185 -2.44089 -2.87577 0
M  V30 2803 H 262.572 -1.50907 -2.53597 0
M  V30 2804 H 262.653 -2.36003 -0.98673 0
M  V30 2805 H 262.297 -4.57334 -2.20925 0
M  V30 2806 H 262.227 -3.69141 -3.75556 0
M  V30 2807 H 264.718 -2.92171 -2.39676 0
M  V30 2808 H 265.031 -6.35184 -4.40183 0
M  V30 2809 H 263.376 -5.70842 -3.96439 0
M  V30 2810 H 266.567 -3.67194 -2.90321 0
M  V30 2811 H 266.74 -5.23597 -3.81772 0
M  V30 2812 N 260.146 1.09593 -1.13257 0
M  V30 2813 C 261.386 1.83349 -0.903472 0
M  V30 2814 C 261.75 1.83641 0.560351 0
M  V30 2815 O 262.951 2.53037 0.906947 0
M  V30 2816 C 261.222 3.25629 -1.47311 0
M  V30 2817 S 262.781 4.16408 -1.38382 0
M  V30 2818 H 259.599 0.632014 -0.325699 0
M  V30 2819 H 262.201 1.31817 -1.44376 0
M  V30 2820 H 260.905 3.22991 -2.53189 0
M  V30 2821 H 260.436 3.82233 -0.930689 0
M  V30 2822 H 262.451 4.94884 -0.361113 0
M  V30 2823 N 261.624 0.925811 1.2754 0
M  V30 2824 C 262.587 0.428129 2.25166 0
M  V30 2825 C 263.587 -0.452261 1.54309 0
M  V30 2826 O 264.777 -0.253608 1.72344 0
M  V30 2827 C 261.909 -0.384749 3.38722 0
M  V30 2828 H 263.102 1.29066 2.70706 0
M  V30 2829 H 260.655 0.706323 1.3943 0
M  V30 2830 H 261.39 -1.26618 2.98561 0
M  V30 2831 H 261.175 0.246454 3.91325 0
M  V30 2832 H 262.665 -0.723389 4.11287 0
M  V30 2833 N 263.102 -1.41638 0.69111 0
M  V30 2834 C 264.351 -2.00526 0.217318 0
M  V30 2835 C 264.664 -1.55353 -1.18848 0
M  V30 2836 O 265.87 -2.06769 -1.75951 0
M  V30 2837 C 264.326 -3.58313 0.337639 0
M  V30 2838 C 263.934 -4.12469 1.74852 0
M  V30 2839 C 265.678 -4.24431 -0.0766066 0
M  V30 2840 C 263.585 -5.62675 1.82074 0
M  V30 2841 H 262.515 -0.750008 0.0774893 0
M  V30 2842 H 265.166 -1.6217 0.858661 0
M  V30 2843 H 263.548 -3.9425 -0.371879 0
M  V30 2844 H 264.722 -3.8796 2.48644 0
M  V30 2845 H 263.037 -3.58861 2.11205 0
M  V30 2846 H 265.634 -5.34683 -0.0430284 0
M  V30 2847 H 265.977 -4.01101 -1.1146 0
M  V30 2848 H 266.51 -3.93512 0.582476 0
M  V30 2849 H 263.249 -5.90826 2.83911 0
M  V30 2850 H 262.769 -5.89124 1.12661 0
M  V30 2851 H 264.448 -6.27371 1.58159 0
M  V30 2852 N 264.58 -0.43555 -1.51462 0
M  V30 2853 C 265.996 -0.0877501 -1.59359 0
M  V30 2854 C 266.196 1.4027 -1.4466 0
M  V30 2855 O 265.252 2.17243 -1.28693 0
M  V30 2856 C 266.565 -0.606264 -2.94525 0
M  V30 2857 C 268.113 -0.566548 -3.0783 0
M  V30 2858 C 268.588 -1.06201 -4.45517 0
M  V30 2859 N 270.079 -1.01992 -4.51832 0
M  V30 2860 C 270.814 -1.37417 -5.5669 0
M  V30 2861 N 270.31 -1.80119 -6.68976 0
M  V30 2862 N 272.103 -1.29245 -5.47039 0
M  V30 2863 H 264.254 -1.40533 -1.59261 0
M  V30 2864 H 266.517 -0.578992 -0.750648 0
M  V30 2865 H 266.223 -1.64901 -3.10645 0
M  V30 2866 H 266.097 -0.0302097 -3.77188 0
M  V30 2867 H 268.484 0.467208 -2.91378 0
M  V30 2868 H 268.565 -1.17898 -2.2701 0
M  V30 2869 H 268.209 -2.09422 -4.62715 0
M  V30 2870 H 268.139 -0.426127 -5.24873 0
M  V30 2871 H 270.63 -0.706308 -3.71241 0
M  V30 2872 H 270.943 -2.05392 -7.45006 0
M  V30 2873 H 269.288 -1.84044 -6.70189 0
M  V30 2874 H 272.479 -0.957522 -4.58202 0
M  V30 2875 H 272.652 -1.57182 -6.28648 0
M  V30 2876 N 266.058 1.56714 -0.166846 0
M  V30 2877 C 267.305 1.96747 0.479252 0
M  V30 2878 C 267.633 1.05263 1.63554 0
M  V30 2879 O 266.888 0.0858098 1.95512 0
M  V30 2880 C 267.187 3.42889 1.00806 0
M  V30 2881 C 266.853 4.50889 -0.0318574 0
M  V30 2882 C 265.515 4.8015 -0.317675 0
M  V30 2883 C 267.867 5.15949 -0.737956 0
M  V30 2884 C 265.195 5.71772 -1.31506 0
M  V30 2885 C 267.547 6.08647 -1.72429 0
M  V30 2886 C 266.211 6.36277 -2.0176 0
M  V30 2887 H 265.481 0.719949 0.175371 0
M  V30 2888 H 268.128 1.89756 -0.257864 0
M  V30 2889 H 266.433 3.4681 1.82291 0
M  V30 2890 H 268.13 3.71203 1.51689 0
M  V30 2891 H 264.72 4.28128 0.201088 0
M  V30 2892 H 268.904 4.93458 -0.530351 0
M  V30 2893 H 264.16 5.91465 -1.54853 0
M  V30 2894 H 268.334 6.58129 -2.27682 0
M  V30 2895 H 265.961 7.07075 -2.79194 0
M  V30 2896 N 267.536 -0.106894 1.57237 0
M  V30 2897 C 268.499 -1.11466 2.0027 0
M  V30 2898 C 269.499 -1.33623 0.894519 0
M  V30 2899 O 270.689 -1.29935 1.16028 0
M  V30 2900 C 267.821 -2.46646 2.35327 0
M  V30 2901 H 269.014 -0.744516 2.90512 0
M  V30 2902 H 266.567 -0.351576 1.52295 0
M  V30 2903 H 267.302 -2.88558 1.48003 0
M  V30 2904 H 267.087 -2.31915 3.16161 0
M  V30 2905 H 268.577 -3.19151 2.69318 0
M  V30 2906 N 269.014 -1.53014 -0.377408 0
M  V30 2907 C 270.43 -1.42523 -0.718281 0
M  V30 2908 C 270.63 -0.55487 -1.9371 0
M  V30 2909 O 269.686 -0.0327593 -2.52479 0
M  V30 2910 C 270.999 -2.85546 -0.942539 0
M  V30 2911 C 272.547 -2.95101 -1.04329 0
M  V30 2912 C 273.022 -4.3916 -1.3001 0
M  V30 2913 N 274.513 -4.42536 -1.36806 0
M  V30 2914 C 275.248 -5.51097 -1.58364 0
M  V30 2915 N 274.744 -6.69724 -1.77317 0
M  V30 2916 N 276.537 -5.38657 -1.60638 0
M  V30 2917 H 268.688 -2.08116 0.424426 0
M  V30 2918 H 270.951 -0.939352 0.127759 0
M  V30 2919 H 270.657 -3.51499 -0.118929 0
M  V30 2920 H 270.531 -3.28493 -1.85397 0
M  V30 2921 H 272.918 -2.29309 -1.85745 0
M  V30 2922 H 272.999 -2.55566 -0.109505 0
M  V30 2923 H 272.643 -5.05521 -0.490991 0
M  V30 2924 H 272.573 -4.76258 -2.24691 0
M  V30 2925 H 275.064 -3.57039 -1.23821 0
M  V30 2926 H 275.377 -7.48233 -1.93306 0
M  V30 2927 H 273.722 -6.72732 -1.74518 0
M  V30 2928 H 276.913 -4.44948 -1.45391 0
M  V30 2929 H 277.086 -6.2333 -1.77098 0
M  V30 2930 N 270.492 0.636531 -1.44174 0
M  V30 2931 C 271.439 1.74875 -1.50624 0
M  V30 2932 C 272.409 1.62275 -0.35442 0
M  V30 2933 O 273.594 1.82276 -0.563908 0
M  V30 2934 C 270.734 3.13102 -1.45125 0
M  V30 2935 C 269.847 3.36717 -2.7064 0
M  V30 2936 C 268.982 4.64885 -2.57013 0
M  V30 2937 C 268.021 4.8166 -3.77717 0
M  V30 2938 N 267.158 6.01101 -3.62798 0
M  V30 2939 H 271.998 1.68697 -2.45653 0
M  V30 2940 H 269.535 0.823004 -1.21922 0
M  V30 2941 H 271.493 3.93034 -1.39929 0
M  V30 2942 H 270.123 3.18308 -0.536671 0
M  V30 2943 H 269.175 2.50763 -2.86046 0
M  V30 2944 H 270.487 3.44993 -3.60252 0
M  V30 2945 H 269.641 5.52969 -2.49619 0
M  V30 2946 H 268.38 4.58957 -1.64953 0
M  V30 2947 H 267.385 3.92007 -3.85501 0
M  V30 2948 H 268.61 4.89406 -4.70807 0
M  V30 2949 H 266.556 5.96273 -2.73486 0
M  V30 2950 H 266.473 6.10409 -4.46023 0
M  V30 2951 H 267.741 6.91761 -3.59286 0
M  V30 2952 N 271.97 1.30982 0.876444 0
M  V30 2953 C 272.92 1.14688 1.97055 0
M  V30 2954 C 273.904 0.0596593 1.60789 0
M  V30 2955 O 275.096 0.283892 1.74708 0
M  V30 2956 C 272.225 0.849627 3.3262 0
M  V30 2957 C 271.311 1.97752 3.75173 0
M  V30 2958 N 271.702 3.22384 3.89746 0
M  V30 2959 C 270 1.8758 4.04635 0
M  V30 2960 C 270.701 3.96121 4.25985 0
M  V30 2961 N 269.677 3.24237 4.36315 0
M  V30 2962 H 273.479 2.09204 2.06424 0
M  V30 2963 H 270.993 1.22445 1.06682 0
M  V30 2964 H 272.99 0.713895 4.10742 0
M  V30 2965 H 271.65 -0.087376 3.24582 0
M  V30 2966 H 272.661 3.57575 3.74647 0
M  V30 2967 H 269.338 1.01303 4.05024 0
M  V30 2968 H 270.728 5.03491 4.44911 0
M  V30 2969 N 273.449 -1.08991 1.13837 0
M  V30 2970 C 274.726 -1.77863 0.813876 0
M  V30 2971 C 275.106 -1.99375 -0.693746 0
M  V30 2972 O 274.454 -1.59875 -1.63255 0
M  V30 2973 C 274.664 -3.0986 1.60586 0
M  V30 2974 C 276.012 -3.84493 1.8014 0
M  V30 2975 O 277.036 -3.19624 1.57222 0
M  V30 2976 O 275.895 -5.00957 2.18413 0
M  V30 2977 H 272.989 -0.771589 0.297624 0
M  V30 2978 H 275.535 -1.15507 1.24323 0
M  V30 2979 H 274.307 -2.89715 2.63022 0
M  V30 2980 H 273.93 -3.79942 1.17173 0
M  V30 2981 N 274.927 -0.932562 -1.27047 0
M  V30 2982 C 275.857 -0.452902 -2.29066 0
M  V30 2983 C 276.838 0.489338 -1.62909 0
M  V30 2984 O 278.023 0.393046 -1.90181 0
M  V30 2985 C 275.153 0.290698 -3.46081 0
M  V30 2986 C 274.107 -0.564168 -4.24265 0
M  V30 2987 C 273.433 0.308886 -5.33807 0
M  V30 2988 C 274.733 -1.83112 -4.89149 0
M  V30 2989 H 276.427 -1.30552 -2.69437 0
M  V30 2990 H 273.973 -0.629201 -1.29526 0
M  V30 2991 H 275.926 0.637233 -4.16554 0
M  V30 2992 H 274.65 1.17738 -3.0464 0
M  V30 2993 H 273.309 -0.893477 -3.55545 0
M  V30 2994 H 272.957 1.19467 -4.88607 0
M  V30 2995 H 272.657 -0.259633 -5.87026 0
M  V30 2996 H 274.181 0.650884 -6.07121 0
M  V30 2997 H 275.595 -1.55236 -5.51883 0
M  V30 2998 H 273.992 -2.34353 -5.52448 0
M  V30 2999 H 275.062 -2.54772 -4.12576 0
M  V30 3000 N 276.405 1.4127 -0.698611 0
M  V30 3001 C 277.368 2.29158 -0.044132 0
M  V30 3002 C 278.368 1.44529 0.704841 0
M  V30 3003 O 279.558 1.65643 0.539276 0
M  V30 3004 C 276.69 3.27459 0.947809 0
M  V30 3005 H 277.883 2.88529 -0.817994 0
M  V30 3006 H 275.436 1.49307 -0.46228 0
M  V30 3007 H 276.171 2.73073 1.74933 0
M  V30 3008 H 275.956 3.8991 0.41385 0
M  V30 3009 H 277.446 3.93311 1.40344 0
M  V30 3010 N 277.883 0.443576 1.51229 0
M  V30 3011 C 279.132 -0.122332 2.01329 0
M  V30 3012 C 279.445 -1.43237 1.33201 0
M  V30 3013 O 280.651 -2.0816 1.74304 0
M  V30 3014 C 279.107 -0.268551 3.58897 0
M  V30 3015 C 278.715 1.03142 4.35965 0
M  V30 3016 C 280.459 -0.787894 4.17124 0
M  V30 3017 C 278.366 0.850504 5.85252 0
M  V30 3018 H 277.296 -0.0494929 0.752374 0
M  V30 3019 H 279.947 0.574289 1.74282 0
M  V30 3020 H 278.329 -1.02832 3.82415 0
M  V30 3021 H 279.503 1.80001 4.24189 0
M  V30 3022 H 277.818 1.47977 3.89219 0
M  V30 3023 H 280.415 -0.939841 5.26375 0
M  V30 3024 H 280.758 -1.77201 3.76703 0
M  V30 3025 H 281.291 -0.0862669 3.97706 0
M  V30 3026 H 278.03 1.80718 6.30096 0
M  V30 3027 H 277.55 0.121825 5.99676 0
M  V30 3028 H 279.229 0.506163 6.45017 0
M  V30 3029 N 279.361 -1.56624 0.175154 0
M  V30 3030 C 280.586 -2.01813 -0.478137 0
M  V30 3031 C 281.011 -1.05457 -1.55757 0
M  V30 3032 O 280.369 -0.0347439 -1.81267 0
M  V30 3033 C 280.417 -3.45581 -1.02987 0
M  V30 3034 O 279.521 -3.52305 -2.14371 0
M  V30 3035 H 278.862 -0.65413 -0.114059 0
M  V30 3036 H 281.392 -2.02673 0.280173 0
M  V30 3037 H 281.402 -3.84965 -1.35151 0
M  V30 3038 H 280.077 -4.1521 -0.239556 0
M  V30 3039 H 278.654 -3.24783 -1.83222 0
M  V30 3040 N 280.839 0.0985539 -1.57292 0
M  V30 3041 C 281.771 1.14595 -1.98496 0
M  V30 3042 C 282.784 1.36512 -0.887031 0
M  V30 3043 O 283.973 1.35225 -1.16518 0
M  V30 3044 C 281.073 2.50216 -2.28572 0
M  V30 3045 C 280.246 2.48624 -3.59868 0
M  V30 3046 C 279.305 3.66146 -3.7792 0
M  V30 3047 O 278.331 3.48795 -4.49812 0
M  V30 3048 N 279.533 4.85496 -3.18235 0
M  V30 3049 H 282.298 0.795277 -2.88956 0
M  V30 3050 H 279.859 0.287579 -1.59325 0
M  V30 3051 H 281.851 3.27432 -2.37845 0
M  V30 3052 H 280.421 2.77387 -1.44136 0
M  V30 3053 H 279.641 1.56978 -3.61596 0
M  V30 3054 H 280.929 2.44635 -4.46129 0
M  V30 3055 H 280.327 5.02497 -2.59833 0
M  V30 3056 H 278.884 5.60317 -3.32999 0
M  V30 3057 N 282.317 1.53212 0.369288 0
M  V30 3058 C 283.247 1.82365 1.45826 0
M  V30 3059 C 284.228 0.676907 1.56051 0
M  V30 3060 O 285.413 0.926401 1.70679 0
M  V30 3061 C 282.543 2.01023 2.83208 0
M  V30 3062 C 281.497 3.1678 2.8781 0
M  V30 3063 C 280.823 3.20724 4.27832 0
M  V30 3064 C 282.123 4.55447 2.55667 0
M  V30 3065 H 283.817 2.73559 1.21678 0
M  V30 3066 H 281.363 1.3163 0.583911 0
M  V30 3067 H 283.316 2.20001 3.59413 0
M  V30 3068 H 282.04 1.06536 3.08736 0
M  V30 3069 H 280.699 2.97616 2.14056 0
M  V30 3070 H 280.347 2.23882 4.50429 0
M  V30 3071 H 280.047 3.98496 4.31827 0
M  V30 3072 H 281.571 3.41881 5.05915 0
M  V30 3073 H 282.985 4.74611 3.21586 0
M  V30 3074 H 281.382 5.35432 2.70984 0
M  V30 3075 H 282.452 4.60812 1.5093 0
M  V30 3076 N 283.795 -0.628877 1.44509 0
M  V30 3077 C 285.206 -1.21054 1.42137 0
M  V30 3078 C 285.557 -1.95715 0.137881 0
M  V30 3079 O 284.682 -2.02554 -0.761645 0
M  V30 3080 C 285.277 -2.20189 2.57493 0
M  V30 3081 C 283.836 -2.73777 2.58308 0
M  V30 3082 C 282.983 -1.48813 2.33987 0
M  V30 3083 H 285.934 -0.41942 1.53057 0
M  V30 3084 H 285.955 -3.02833 2.30375 0
M  V30 3085 H 285.467 -1.6582 3.50892 0
M  V30 3086 H 283.568 -3.32142 1.68856 0
M  V30 3087 H 283.681 -3.19662 3.56865 0
M  V30 3088 H 282.045 -1.77024 1.83124 0
M  V30 3089 H 282.828 -0.963442 3.29504 0
M  V30 3090 N 285.273 -1.31445 -0.869486 0
M  V30 3091 C 286.221 -1.19067 -1.99814 0
M  V30 3092 C 287.215 -0.0988569 -1.69111 0
M  V30 3093 O 288.421 -0.260781 -1.78101 0
M  V30 3094 H 284.796 -0.368677 -0.655425 0
M  V30 3095 H 286.767 -2.14555 -2.07385 0
M  V30 3096 C 285.516 -0.915323 -3.35436 0
M  V30 3097 H 284.839 -1.74759 -3.59582 0
M  V30 3098 H 286.279 -0.868895 -4.15001 0
M  V30 3099 C 284.738 0.381928 -3.34728 0
M  V30 3100 O 285.268 1.39857 -3.76567 0
M  V30 3101 N 283.474 0.398633 -2.87853 0
M  V30 3102 H 283.021 -0.429186 -2.54 0
M  V30 3103 H 282.979 1.26651 -2.87762 0
M  V30 3104 N 286.751 1.08385 -1.14413 0
M  V30 3105 C 288 1.80153 -0.907076 0
M  V30 3106 C 288.313 1.87176 0.567851 0
M  V30 3107 O 289.519 2.55359 0.922172 0
M  V30 3108 C 287.975 3.23687 -1.57336 0
M  V30 3109 C 287.583 3.24897 -3.08457 0
M  V30 3110 C 289.327 4.00136 -1.41744 0
M  V30 3111 C 287.234 4.6302 -3.67921 0
M  V30 3112 H 286.164 0.675139 -0.335714 0
M  V30 3113 H 288.815 1.21733 -1.37307 0
M  V30 3114 H 287.197 3.82234 -1.03505 0
M  V30 3115 H 288.371 2.76055 -3.68958 0
M  V30 3116 H 286.686 2.61943 -3.2369 0
M  V30 3117 H 289.283 5.02201 -1.83572 0
M  V30 3118 H 289.626 4.14709 -0.363576 0
M  V30 3119 H 290.159 3.48058 -1.92614 0
M  V30 3120 H 286.898 4.5365 -4.73161 0
M  V30 3121 H 286.418 5.12143 -3.12201 0
M  V30 3122 H 288.097 5.31994 -3.68227 0
M  V30 3123 N 288.23 0.939286 1.26551 0
M  V30 3124 C 289.507 0.5038 1.89001 0
M  V30 3125 C 289.887 -1.01854 1.84903 0
M  V30 3126 O 289.235 -1.87773 1.30206 0
M  V30 3127 C 289.445 1.063 3.32417 0
M  V30 3128 C 290.793 1.13051 4.09273 0
M  V30 3129 O 291.817 1.01345 3.41479 0
M  V30 3130 O 290.676 1.31233 5.30509 0
M  V30 3131 H 287.77 0.163897 0.810597 0
M  V30 3132 H 290.316 1.03173 1.34735 0
M  V30 3133 H 289.088 2.10665 3.29752 0
M  V30 3134 H 288.711 0.517408 3.94219 0
M  V30 3135 N 289.708 -1.40897 0.706093 0
M  V30 3136 C 290.671 -2.29131 0.0562841 0
M  V30 3137 C 291.671 -1.44901 -0.697166 0
M  V30 3138 O 292.861 -1.65926 -0.530484 0
M  V30 3139 C 289.993 -3.27957 -0.93043 0
M  V30 3140 H 291.186 -2.88091 0.833284 0
M  V30 3141 H 288.739 -1.4906 0.470192 0
M  V30 3142 H 289.474 -2.73997 -1.73482 0
M  V30 3143 H 289.259 -3.90124 -0.393166 0
M  V30 3144 H 290.749 -3.94049 -1.38256 0
M  V30 3145 N 291.186 -0.45159 -1.50991 0
M  V30 3146 C 292.434 0.109857 -2.01801 0
M  V30 3147 C 292.755 1.41958 -1.3369 0
M  V30 3148 O 292.025 1.9003 -0.475951 0
M  V30 3149 H 290.605 0.0435884 -0.745727 0
M  V30 3150 H 293.267 -0.597557 -1.85514 0
M  V30 3151 H 292.363 0.275489 -3.10882 0
M  V30 3152 N 292.664 1.56529 -0.183458 0
M  V30 3153 C 294.08 1.58664 0.172554 0
M  V30 3154 C 294.28 1.19925 1.61926 0
M  V30 3155 O 293.336 0.916534 2.35278 0
M  V30 3156 C 294.649 3.00463 -0.119262 0
M  V30 3157 C 296.197 3.12945 -0.0584396 0
M  V30 3158 C 296.672 4.56857 -0.323408 0
M  V30 3159 N 298.163 4.62403 -0.271612 0
M  V30 3160 C 298.898 5.71626 -0.450639 0
M  V30 3161 N 298.394 6.89362 -0.689384 0
M  V30 3162 N 300.187 5.60775 -0.385701 0
M  V30 3163 H 292.338 1.79994 -1.12765 0
M  V30 3164 H 294.601 0.834808 -0.449222 0
M  V30 3165 H 294.307 3.33326 -1.12192 0
M  V30 3166 H 294.181 3.72659 0.583544 0
M  V30 3167 H 296.568 2.79902 0.934805 0
M  V30 3168 H 296.649 2.4316 -0.794144 0
M  V30 3169 H 296.293 4.9061 -1.31392 0
M  V30 3170 H 296.223 5.24816 0.43305 0
M  V30 3171 H 298.714 3.77785 -0.0932256 0
M  V30 3172 H 299.027 7.68489 -0.815113 0
M  V30 3173 H 297.372 6.91196 -0.726142 0
M  V30 3174 H 300.563 4.67674 -0.199687 0
M  V30 3175 H 300.736 6.4584 -0.528646 0
M  V30 3176 N 294.142 -0.090211 1.57342 0
M  V30 3177 C 295.092 -1.11557 1.98844 0
M  V30 3178 C 296.076 -1.35503 0.867624 0
M  V30 3179 O 297.268 -1.36113 1.13148 0
M  V30 3180 C 294.397 -2.43446 2.42051 0
M  V30 3181 C 293.483 -2.22853 3.60828 0
M  V30 3182 N 293.874 -1.72141 4.75606 0
M  V30 3183 C 292.172 -2.53401 3.67021 0
M  V30 3184 C 292.873 -1.65932 5.57531 0
M  V30 3185 N 291.849 -2.11323 5.00843 0
M  V30 3186 H 295.651 -0.716499 2.85032 0
M  V30 3187 H 293.165 -0.297567 1.59651 0
M  V30 3188 H 295.162 -3.17644 2.70014 0
M  V30 3189 H 293.822 -2.84087 1.57241 0
M  V30 3190 H 294.833 -1.41268 4.98261 0
M  V30 3191 H 291.51 -2.97532 2.92884 0
M  V30 3192 H 292.9 -1.27733 6.59647 0
M  V30 3193 N 295.62 -1.53406 -0.361157 0
M  V30 3194 C 296.866 -1.70054 -1.10496 0
M  V30 3195 C 297.199 -0.453278 -1.88836 0
M  V30 3196 O 296.474 0.5495 -1.86576 0
M  V30 3197 C 296.757 -2.95317 -2.06058 0
M  V30 3198 C 296.61 -4.3021 -1.31298 0
M  V30 3199 C 297.929 -3.16193 -3.06121 0
M  V30 3200 H 295.048 -0.618799 -0.400321 0
M  V30 3201 H 297.69 -1.86052 -0.385318 0
M  V30 3202 H 295.84 -2.81809 -2.67425 0
M  V30 3203 H 297.512 -4.55538 -0.726807 0
M  V30 3204 H 295.755 -4.29421 -0.614853 0
M  V30 3205 H 296.426 -5.14 -2.01265 0
M  V30 3206 H 298.902 -3.28916 -2.5486 0
M  V30 3207 H 297.778 -4.05266 -3.70204 0
M  V30 3208 H 298.039 -2.31676 -3.76535 0
M  V30 3209 N 297.098 0.621204 -1.44841 0
M  V30 3210 C 298.008 1.7612 -1.5498 0
M  V30 3211 C 299.024 1.68477 -0.434927 0
M  V30 3212 O 300.2 1.89076 -0.693693 0
M  V30 3213 C 297.265 3.1254 -1.50065 0
M  V30 3214 C 296.326 3.31741 -2.72482 0
M  V30 3215 C 295.559 4.61653 -2.67792 0
M  V30 3216 O 295.782 5.431 -1.74352 0
M  V30 3217 O 294.716 4.83271 -3.58794 0
M  V30 3218 H 298.542 1.70518 -2.51311 0
M  V30 3219 H 296.127 0.783643 -1.27198 0
M  V30 3220 H 298.009 3.93844 -1.49882 0
M  V30 3221 H 296.684 3.18663 -0.568806 0
M  V30 3222 H 295.591 2.50077 -2.7823 0
M  V30 3223 H 296.924 3.30486 -3.64746 0
M  V30 3224 N 298.576 1.31904 0.862503 0
M  V30 3225 C 299.506 1.22782 1.98612 0
M  V30 3226 C 300.487 0.113362 1.69722 0
M  V30 3227 O 301.672 0.299218 1.91881 0
M  V30 3228 C 298.802 0.942058 3.34279 0
M  V30 3229 C 297.756 2.0169 3.77499 0
M  V30 3230 C 297.082 1.58369 5.10709 0
M  V30 3231 C 298.382 3.43096 3.93805 0
M  V30 3232 H 300.076 2.16788 2.06502 0
M  V30 3233 H 297.622 1.04366 0.992154 0
M  V30 3234 H 299.575 0.864818 4.1243 0
M  V30 3235 H 298.299 -0.0336603 3.26583 0
M  V30 3236 H 296.958 2.08416 3.01593 0
M  V30 3237 H 296.606 0.595628 4.99461 0
M  V30 3238 H 296.306 2.30279 5.40597 0
M  V30 3239 H 297.83 1.52067 5.91361 0
M  V30 3240 H 299.244 3.39003 4.62331 0
M  V30 3241 H 297.641 4.13288 4.35101 0
M  V30 3242 H 298.711 3.83334 2.96957 0
M  V30 3243 N 300.054 -1.07777 1.14986 0
M  V30 3244 C 301.303 -1.79669 0.916617 0
M  V30 3245 C 301.616 -1.87474 -0.557917 0
M  V30 3246 O 302.822 -2.55845 -0.908617 0
M  V30 3247 C 301.278 -3.22848 1.59051 0
M  V30 3248 C 300.886 -3.23257 3.10176 0
M  V30 3249 C 302.63 -3.99379 1.43864 0
M  V30 3250 C 300.537 -4.61063 3.70372 0
M  V30 3251 H 299.467 -0.673349 0.33929 0
M  V30 3252 H 302.118 -1.21003 1.37951 0
M  V30 3253 H 300.5 -3.8168 1.0553 0
M  V30 3254 H 301.674 -2.74095 3.70417 0
M  V30 3255 H 299.989 -2.60222 3.25074 0
M  V30 3256 H 302.586 -5.0122 1.86232 0
M  V30 3257 H 302.929 -4.14511 0.385564 0
M  V30 3258 H 303.462 -3.47032 1.94457 0
M  V30 3259 H 300.201 -4.51135 4.7556 0
M  V30 3260 H 299.721 -5.1048 3.14913 0
M  V30 3261 H 301.4 -5.30034 3.71043 0
M  V30 3262 N 301.532 -0.945985 -1.26051 0
M  V30 3263 C 302.442 -0.465633 -2.29933 0
M  V30 3264 C 303.458 0.462761 -1.67733 0
M  V30 3265 O 304.634 0.341118 -1.9849 0
M  V30 3266 C 301.699 0.256994 -3.45746 0
M  V30 3267 C 300.76 -0.708549 -4.23412 0
M  V30 3268 C 299.993 -0.0203135 -5.33696 0
M  V30 3269 O 300.216 1.19571 -5.57726 0
M  V30 3270 O 299.15 -0.701459 -5.97799 0
M  V30 3271 H 302.976 -1.32866 -2.73094 0
M  V30 3272 H 300.561 -0.712071 -1.31339 0
M  V30 3273 H 302.443 0.663852 -4.16138 0
M  V30 3274 H 301.118 1.09533 -3.04605 0
M  V30 3275 H 300.025 -1.16545 -3.55483 0
M  V30 3276 H 301.358 -1.51465 -4.68315 0
M  V30 3277 N 303.011 1.40521 -0.713556 0
M  V30 3278 C 303.974 2.29098 -0.0684347 0
M  V30 3279 C 304.974 1.45268 0.689472 0
M  V30 3280 O 306.164 1.66205 0.521677 0
M  V30 3281 C 303.296 3.28446 0.913024 0
M  V30 3282 H 304.489 2.87645 -0.84855 0
M  V30 3283 H 302.042 1.48809 -0.47809 0
M  V30 3284 H 302.777 2.74913 1.72027 0
M  V30 3285 H 302.562 3.90327 0.372472 0
M  V30 3286 H 304.052 3.94777 1.36165 0
M  V30 3287 N 304.489 0.459591 1.5075 0
M  V30 3288 C 305.738 -0.100971 2.01447 0
M  V30 3289 C 306.051 -1.41816 1.34713 0
M  V30 3290 O 307.257 -2.06299 1.76502 0
M  V30 3291 C 305.713 -0.23047 3.59161 0
M  V30 3292 C 305.321 1.0776 4.34847 0
M  V30 3293 C 307.065 -0.743608 4.17936 0
M  V30 3294 C 304.972 0.91253 5.84317 0
M  V30 3295 H 303.902 -0.0415102 0.752856 0
M  V30 3296 H 306.553 0.592742 1.73663 0
M  V30 3297 H 304.935 -0.987703 3.83485 0
M  V30 3298 H 306.109 1.8449 4.22256 0
M  V30 3299 H 304.424 1.52097 3.87628 0
M  V30 3300 H 307.021 -0.883959 5.27343 0
M  V30 3301 H 307.364 -1.73196 3.78562 0
M  V30 3302 H 307.897 -0.04408 3.97776 0
M  V30 3303 H 304.636 1.87391 6.28144 0
M  V30 3304 H 304.156 0.185422 5.99513 0
M  V30 3305 H 305.835 0.574547 6.44444 0
M  V30 3306 N 305.967 -1.56429 0.191757 0
M  V30 3307 C 306.93 -2.17707 -0.716688 0
M  V30 3308 C 307.93 -1.13061 -1.14341 0
M  V30 3309 O 309.12 -1.38464 -1.05704 0
M  V30 3310 C 306.252 -2.77644 -1.97804 0
M  V30 3311 H 307.445 -2.99342 -0.1829 0
M  V30 3312 H 304.998 -1.56193 -0.0578566 0
M  V30 3313 H 305.733 -1.99799 -2.55443 0
M  V30 3314 H 305.518 -3.54246 -1.68083 0
M  V30 3315 H 307.008 -3.24708 -2.62592 0
M  V30 3316 N 307.445 0.0818655 -1.57387 0
M  V30 3317 C 308.393 1.11712 -2.04018 0
M  V30 3318 C 309.387 1.40683 -0.94364 0
M  V30 3319 O 310.593 1.40209 -1.12878 0
M  V30 3320 H 306.968 0.377542 -0.650358 0
M  V30 3321 H 308.939 0.697614 -2.90131 0
M  V30 3322 C 307.688 2.42537 -2.49141 0
M  V30 3323 H 307.011 2.21092 -3.33104 0
M  V30 3324 H 308.451 3.13446 -2.85531 0
M  V30 3325 C 306.91 3.0778 -1.37014 0
M  V30 3326 O 307.44 3.95436 -0.706621 0
M  V30 3327 N 305.646 2.68242 -1.11779 0
M  V30 3328 H 305.193 1.97052 -1.65917 0
M  V30 3329 H 305.151 3.1222 -0.369594 0
M  V30 3330 N 308.923 1.53595 0.353017 0
M  V30 3331 C 309.833 1.83897 1.45667 0
M  V30 3332 C 310.849 0.728334 1.58023 0
M  V30 3333 O 312.025 1.01968 1.73679 0
M  V30 3334 C 309.09 2.03383 2.80778 0
M  V30 3335 C 308.151 3.27262 2.77845 0
M  V30 3336 C 307.384 3.45809 4.06512 0
M  V30 3337 O 307.607 2.68387 5.03314 0
M  V30 3338 O 306.541 4.39207 4.11559 0
M  V30 3339 H 310.367 2.77686 1.2298 0
M  V30 3340 H 307.952 1.39132 0.544308 0
M  V30 3341 H 309.834 2.17698 3.60812 0
M  V30 3342 H 308.509 1.12783 3.03417 0
M  V30 3343 H 307.416 3.18359 1.96465 0
M  V30 3344 H 308.749 4.17824 2.60161 0
M  V30 3345 N 310.401 -0.613514 1.45168 0
M  V30 3346 C 311.631 -1.39743 1.52169 0
M  V30 3347 C 312.039 -1.88596 0.151086 0
M  V30 3348 O 311.382 -1.6251 -0.856521 0
M  V30 3349 C 311.444 -2.64035 2.43979 0
M  V30 3350 C 311.108 -2.36861 3.90827 0
M  V30 3351 C 312.105 -1.97591 4.80889 0
M  V30 3352 C 309.79 -2.49956 4.35692 0
M  V30 3353 C 311.784 -1.71768 6.1382 0
M  V30 3354 C 309.471 -2.23747 5.68665 0
M  V30 3355 C 310.469 -1.84714 6.57548 0
M  V30 3356 O 310.157 -1.58809 7.88058 0
M  V30 3357 H 309.889 -0.434382 0.517966 0
M  V30 3358 H 312.443 -0.75587 1.90986 0
M  V30 3359 H 310.673 -3.3089 2.00122 0
M  V30 3360 H 312.362 -3.26069 2.41731 0
M  V30 3361 H 313.128 -1.87015 4.47493 0
M  V30 3362 H 309.007 -2.79305 3.66756 0
M  V30 3363 H 312.551 -1.41227 6.83155 0
M  V30 3364 H 308.448 -2.33938 6.01617 0
M  V30 3365 H 309.216 -1.7291 8.00028 0
M  V30 3366 N 311.879 -1.3236 -0.855495 0
M  V30 3367 C 312.809 -1.23833 -1.97958 0
M  V30 3368 C 313.79 -0.122361 -1.69659 0
M  V30 3369 O 314.975 -0.30939 -1.9172 0
M  V30 3370 C 312.105 -0.959772 -3.33775 0
M  V30 3371 C 311.059 -2.03689 -3.76424 0
M  V30 3372 C 310.385 -1.61075 -5.09862 0
M  V30 3373 C 311.685 -3.4518 -3.9198 0
M  V30 3374 H 313.379 -2.1788 -2.0535 0
M  V30 3375 H 310.925 -1.04891 -0.986605 0
M  V30 3376 H 312.878 -0.886678 -4.11966 0
M  V30 3377 H 311.602 0.0163404 -3.26596 0
M  V30 3378 H 310.261 -2.10012 -3.00484 0
M  V30 3379 H 309.909 -0.622107 -4.99138 0
M  V30 3380 H 309.609 -2.33143 -5.39368 0
M  V30 3381 H 311.133 -1.55201 -5.90546 0
M  V30 3382 H 312.547 -3.4145 -4.60526 0
M  V30 3383 H 310.944 -4.1559 -4.32903 0
M  V30 3384 H 312.014 -3.84903 -2.94919 0
M  V30 3385 N 313.357 1.07166 -1.15556 0
M  V30 3386 C 314.267 2.17947 -0.868116 0
M  V30 3387 C 315.283 1.73297 0.156297 0
M  V30 3388 O 316.459 2.01392 -0.0182327 0
M  V30 3389 C 313.524 3.44789 -0.36355 0
M  V30 3390 C 312.585 4.03996 -1.45209 0
M  V30 3391 C 311.818 5.24783 -0.971508 0
M  V30 3392 O 312.041 5.70109 0.182194 0
M  V30 3393 O 310.975 5.75715 -1.75603 0
M  V30 3394 H 314.801 2.4503 -1.79427 0
M  V30 3395 H 312.386 1.16539 -0.934824 0
M  V30 3396 H 314.268 4.21307 -0.0887113 0
M  V30 3397 H 312.943 3.19253 0.534708 0
M  V30 3398 H 311.85 3.29009 -1.78056 0
M  V30 3399 H 313.183 4.33808 -2.32533 0
M  V30 3400 N 314.835 0.952656 1.25548 0
M  V30 3401 C 315.785 0.442033 2.23674 0
M  V30 3402 C 316.769 -0.467632 1.53955 0
M  V30 3403 O 317.961 -0.301006 1.74422 0
M  V30 3404 C 315.09 -0.280816 3.4215 0
M  V30 3405 C 314.176 0.646803 4.19139 0
M  V30 3406 N 314.567 1.77759 4.73535 0
M  V30 3407 C 312.865 0.454617 4.43677 0
M  V30 3408 C 313.566 2.35658 5.31827 0
M  V30 3409 N 312.542 1.64333 5.18166 0
M  V30 3410 H 316.344 1.30505 2.63336 0
M  V30 3411 H 313.858 0.809904 1.40763 0
M  V30 3412 H 315.855 -0.663747 4.11582 0
M  V30 3413 H 314.515 -1.14046 3.04012 0
M  V30 3414 H 315.526 2.15949 4.7073 0
M  V30 3415 H 312.203 -0.362312 4.15925 0
M  V30 3416 H 313.593 3.30998 5.84713 0
M  V30 3417 N 316.313 -1.40141 0.720998 0
M  V30 3418 C 317.276 -2.29058 0.0805834 0
M  V30 3419 C 318.276 -1.45632 -0.681758 0
M  V30 3420 O 319.466 -1.6648 -0.512856 0
M  V30 3421 C 316.598 -3.28925 -0.895593 0
M  V30 3422 H 317.791 -2.87191 0.863793 0
M  V30 3423 H 315.344 -1.48553 0.485975 0
M  V30 3424 H 316.079 -2.75822 -1.70566 0
M  V30 3425 H 315.864 -3.90519 -0.351766 0
M  V30 3426 H 317.354 -3.95494 -1.34069 0
M  V30 3427 N 317.792 -0.46758 -1.50504 0
M  V30 3428 C 318.722 0.318381 -2.31319 0
M  V30 3429 C 319.703 0.993564 -1.38066 0
M  V30 3430 O 320.888 0.991411 -1.66987 0
M  V30 3431 C 318.018 1.40275 -3.17711 0
M  V30 3432 C 316.972 0.849373 -4.19487 0
M  V30 3433 C 316.298 2.03177 -4.94594 0
M  V30 3434 C 317.598 -0.136942 -5.2212 0
M  V30 3435 H 319.292 -0.356106 -2.97275 0
M  V30 3436 H 316.838 -0.172703 -1.42961 0
M  V30 3437 H 318.791 1.96004 -3.73042 0
M  V30 3438 H 317.515 2.10596 -2.49634 0
M  V30 3439 H 316.174 0.314076 -3.65252 0
M  V30 3440 H 315.822 2.72187 -4.22993 0
M  V30 3441 H 315.522 1.66774 -5.63436 0
M  V30 3442 H 317.046 2.59403 -5.52759 0
M  V30 3443 H 318.46 0.331056 -5.72343 0
M  V30 3444 H 316.857 -0.41507 -5.98663 0
M  V30 3445 H 317.927 -1.06398 -4.73083 0
M  V30 3446 N 319.27 1.56325 -0.20005 0
M  V30 3447 C 320.495 2.02548 0.44597 0
M  V30 3448 C 320.92 1.07922 1.5406 0
M  V30 3449 O 320.278 0.0635775 1.81188 0
M  V30 3450 C 320.326 3.47175 0.974761 0
M  V30 3451 O 319.43 3.55671 2.08739 0
M  V30 3452 H 318.771 0.655862 0.103638 0
M  V30 3453 H 321.301 2.02201 -0.312381 0
M  V30 3454 H 321.311 3.87067 1.2901 0
M  V30 3455 H 319.986 4.15538 0.17347 0
M  V30 3456 H 318.563 3.27657 1.78032 0
M  V30 3457 N 320.748 -0.0735177 1.57428 0
M  V30 3458 C 321.68 -1.11423 2.00294 0
M  V30 3459 C 322.693 -1.35084 0.908637 0
M  V30 3460 O 323.882 -1.33355 1.18654 0
M  V30 3461 C 320.982 -2.46548 2.32523 0
M  V30 3462 C 320.155 -2.42867 3.63778 0
M  V30 3463 C 319.214 -3.60087 3.83697 0
M  V30 3464 O 318.24 -3.41595 4.55304 0
M  V30 3465 N 319.442 -4.80372 3.25919 0
M  V30 3466 H 322.207 -0.749206 2.90184 0
M  V30 3467 H 319.768 -0.262195 1.59763 0
M  V30 3468 H 321.76 -3.23607 2.43024 0
M  V30 3469 H 320.33 -2.75059 1.48531 0
M  V30 3470 H 319.55 -1.51206 3.64047 0
M  V30 3471 H 320.838 -2.37506 4.49965 0
M  V30 3472 H 320.236 -4.983 2.67795 0
M  V30 3473 H 318.793 -5.54948 3.41871 0
M  V30 3474 N 322.226 -1.5378 -0.344866 0
M  V30 3475 C 323.136 -1.84667 -1.4469 0
M  V30 3476 C 324.152 -0.736704 -1.57635 0
M  V30 3477 O 325.328 -1.02888 -1.73136 0
M  V30 3478 C 322.393 -2.04869 -2.79696 0
M  V30 3479 C 321.454 -3.28731 -2.76106 0
M  V30 3480 C 320.687 -3.4796 -4.04673 0
M  V30 3481 O 320.91 -2.71052 -5.01883 0
M  V30 3482 O 319.844 -4.41383 -4.09224 0
M  V30 3483 H 323.67 -2.78334 -1.21506 0
M  V30 3484 H 321.255 -1.39418 -0.536921 0
M  V30 3485 H 323.137 -2.19609 -3.59652 0
M  V30 3486 H 321.812 -1.14391 -3.02814 0
M  V30 3487 H 320.719 -3.19396 -1.94774 0
M  V30 3488 H 322.052 -4.19198 -2.57941 0
M  V30 3489 N 323.704 0.605807 -1.45491 0
M  V30 3490 C 325.12 0.926751 -1.29936 0
M  V30 3491 C 325.32 1.99896 -0.253706 0
M  V30 3492 O 324.376 2.50038 0.351737 0
M  V30 3493 C 325.689 1.36599 -2.67883 0
M  V30 3494 C 327.237 1.4801 -2.75793 0
M  V30 3495 C 327.712 1.95309 -4.14268 0
M  V30 3496 N 329.203 2.0254 -4.16571 0
M  V30 3497 C 329.938 2.40363 -5.20589 0
M  V30 3498 N 329.434 2.77143 -6.34952 0
M  V30 3499 N 331.227 2.40718 -5.07948 0
M  V30 3500 H 323.378 -0.102862 -2.12151 0
M  V30 3501 H 325.641 0.016639 -0.947854 0
M  V30 3502 H 325.347 0.652306 -3.45598 0
M  V30 3503 H 325.221 2.33215 -2.96463 0
M  V30 3504 H 327.608 2.1847 -1.98381 0
M  V30 3505 H 327.689 0.497041 -2.50925 0
M  V30 3506 H 327.333 1.25436 -4.92167 0
M  V30 3507 H 327.263 2.94532 -4.3653 0
M  V30 3508 H 329.754 1.76699 -3.34045 0
M  V30 3509 H 330.067 3.0489 -7.10114 0
M  V30 3510 H 328.412 2.74834 -6.3835 0
M  V30 3511 H 331.603 2.11392 -4.1765 0
M  V30 3512 H 331.776 2.69869 -5.89131 0
M  V30 3513 N 325.182 1.32811 0.848464 0
M  V30 3514 C 326.459 1.14334 1.58704 0
M  V30 3515 C 326.839 -0.293948 2.09043 0
M  V30 3516 O 326.187 -1.29153 1.88499 0
M  V30 3517 C 326.397 2.17626 2.72837 0
M  V30 3518 C 327.745 2.51282 3.42261 0
M  V30 3519 O 328.769 2.16219 2.83068 0
M  V30 3520 O 327.628 3.11413 4.49093 0
M  V30 3521 H 324.722 0.441601 0.699226 0
M  V30 3522 H 327.268 1.44362 0.892053 0
M  V30 3523 H 326.04 3.14211 2.3321 0
M  V30 3524 H 325.663 1.88628 3.50008 0
M  V30 3525 N 326.66 -1.06551 1.16123 0
M  V30 3526 C 327.907 -1.79302 0.941126 0
M  V30 3527 C 328.235 -1.87105 -0.531235 0
M  V30 3528 O 327.49 -1.35692 -1.41018 0
M  V30 3529 C 327.789 -3.23911 1.51052 0
M  V30 3530 C 327.455 -3.36193 3.00475 0
M  V30 3531 C 326.117 -3.39252 3.41265 0
M  V30 3532 C 328.469 -3.38326 3.96465 0
M  V30 3533 C 325.797 -3.42057 4.76669 0
M  V30 3534 C 328.149 -3.4267 5.31752 0
M  V30 3535 C 326.813 -3.4401 5.72026 0
M  V30 3536 H 326.083 -0.656111 0.344382 0
M  V30 3537 H 328.73 -1.25325 1.44796 0
M  V30 3538 H 327.035 -3.80723 0.925063 0
M  V30 3539 H 328.732 -3.78793 1.31593 0
M  V30 3540 H 325.322 -3.34516 2.6795 0
M  V30 3541 H 329.506 -3.35176 3.6602 0
M  V30 3542 H 324.762 -3.41398 5.07206 0
M  V30 3543 H 328.936 -3.43268 6.05921 0
M  V30 3544 H 326.563 -3.45937 6.76928 0
M  V30 3545 N 328.138 -0.959301 -1.25041 0
M  V30 3546 C 329.549 -0.65667 -1.74771 0
M  V30 3547 C 329.9 0.827852 -1.77879 0
M  V30 3548 O 329.025 1.64783 -1.40269 0
M  V30 3549 C 329.62 -1.1853 -3.1739 0
M  V30 3550 C 328.179 -0.932734 -3.6466 0
M  V30 3551 C 327.326 -1.32558 -2.43564 0
M  V30 3552 H 330.277 -1.13558 -1.10862 0
M  V30 3553 H 330.298 -0.547582 -3.76539 0
M  V30 3554 H 329.81 -2.26576 -3.15095 0
M  V30 3555 H 327.911 0.13257 -3.72364 0
M  V30 3556 H 328.024 -1.57248 -4.52559 0
M  V30 3557 H 326.388 -0.743956 -2.43593 0
M  V30 3558 H 327.171 -2.41537 -2.43957 0
M  V30 3559 N 329.616 1.39756 -0.72842 0
M  V30 3560 C 330.548 2.29157 -0.0446202 0
M  V30 3561 C 331.561 1.46484 0.710367 0
M  V30 3562 O 332.75 1.69632 0.55562 0
M  V30 3563 C 329.85 3.24987 0.961071 0
M  V30 3564 C 329.023 4.36572 0.268967 0
M  V30 3565 C 328.082 5.12756 1.18184 0
M  V30 3566 O 327.108 5.6534 0.661794 0
M  V30 3567 N 328.31 5.23331 2.51206 0
M  V30 3568 H 331.075 2.88482 -0.812295 0
M  V30 3569 H 328.636 1.51265 -0.577098 0
M  V30 3570 H 330.628 3.72827 1.57423 0
M  V30 3571 H 329.198 2.66739 1.63 0
M  V30 3572 H 328.418 3.90694 -0.524574 0
M  V30 3573 H 329.706 5.08363 -0.210934 0
M  V30 3574 H 329.104 4.82116 2.9594 0
M  V30 3575 H 327.661 5.74634 3.07634 0
M  V30 3576 N 331.094 0.475555 1.50254 0
M  V30 3577 C 332.34 -0.0701075 2.03279 0
M  V30 3578 C 332.695 -1.37007 1.35081 0
M  V30 3579 O 331.988 -1.8577 0.469052 0
M  V30 3580 C 332.182 -0.305114 3.56095 0
M  V30 3581 C 332.011 0.970515 4.39103 0
M  V30 3582 C 330.781 1.51509 4.82051 0
M  V30 3583 C 332.979 1.8671 4.79212 0
M  V30 3584 N 330.961 2.73928 5.49397 0
M  V30 3585 C 332.332 2.93715 5.46014 0
M  V30 3586 C 334.387 1.87695 4.61167 0
M  V30 3587 C 333.09 4.01699 5.96683 0
M  V30 3588 C 335.116 2.94637 5.12779 0
M  V30 3589 C 334.478 4.00361 5.79561 0
M  V30 3590 H 330.577 0.014486 0.781866 0
M  V30 3591 H 333.161 0.644755 1.83714 0
M  V30 3592 H 331.332 -0.989019 3.75597 0
M  V30 3593 H 333.064 -0.845516 3.95769 0
M  V30 3594 H 329.819 1.06367 4.61501 0
M  V30 3595 H 330.243 3.36109 5.87673 0
M  V30 3596 H 334.885 1.07273 4.08965 0
M  V30 3597 H 332.603 4.82934 6.4792 0
M  V30 3598 H 336.189 2.96388 5.00645 0
M  V30 3599 H 335.069 4.81751 6.18778 0
M  V30 3600 N 332.573 -1.56217 0.208337 0
M  V30 3601 C 333.984 -1.84243 -0.301904 0
M  V30 3602 C 334.335 -1.12939 -1.60434 0
M  V30 3603 O 333.46 -0.39461 -2.12772 0
M  V30 3604 C 334.055 -3.34231 -0.554543 0
M  V30 3605 C 332.614 -3.62621 -1.00912 0
M  V30 3606 C 331.761 -2.77224 -0.064933 0
M  V30 3607 H 334.712 -1.52712 0.431833 0
M  V30 3608 H 334.733 -3.5372 -1.40223 0
M  V30 3609 H 334.245 -3.86099 0.393561 0
M  V30 3610 H 332.346 -3.16197 -1.97104 0
M  V30 3611 H 332.459 -4.7071 -0.892674 0
M  V30 3612 H 330.823 -2.48256 -0.56929 0
M  V30 3613 H 331.606 -3.31887 0.877851 0
M  V30 3614 N 334.051 0.0651679 -1.57465 0
M  V30 3615 C 334.961 1.09448 -2.07505 0
M  V30 3616 C 335.977 1.41974 -1.00595 0
M  V30 3617 O 337.153 1.52018 -1.32107 0
M  V30 3618 C 334.218 2.38689 -2.51453 0
M  V30 3619 C 333.279 2.13073 -3.72691 0
M  V30 3620 C 332.512 3.36152 -4.14533 0
M  V30 3621 O 332.735 4.45517 -3.56189 0
M  V30 3622 O 331.669 3.23974 -5.07272 0
M  V30 3623 H 335.495 0.69935 -2.95538 0
M  V30 3624 H 333.08 0.279752 -1.46757 0
M  V30 3625 H 334.962 3.14736 -2.80212 0
M  V30 3626 H 333.637 2.77568 -1.66546 0
M  V30 3627 H 332.544 1.34709 -3.49005 0
M  V30 3628 H 333.877 1.79071 -4.5847 0
M  V30 3629 N 335.529 1.53961 0.336706 0
M  V30 3630 C 336.806 1.62171 1.09361 0
M  V30 3631 C 337.186 0.447263 2.06307 0
M  V30 3632 O 336.534 -0.559802 2.21537 0
M  V30 3633 C 336.744 2.98565 1.80721 0
M  V30 3634 C 338.092 3.54157 2.34218 0
M  V30 3635 O 339.116 3.00784 1.90807 0
M  V30 3636 O 337.975 4.47528 3.13657 0
M  V30 3637 H 335.069 0.6562 0.503319 0
M  V30 3638 H 337.615 1.66307 0.33765 0
M  V30 3639 H 336.387 3.75482 1.10132 0
M  V30 3640 H 336.01 2.9805 2.63158 0
M  V30 3641 N 337.007 -0.598083 1.45811 0
M  V30 3642 C 338.255 -1.35413 1.50026 0
M  V30 3643 C 338.576 -1.94444 0.147177 0
M  V30 3644 O 337.846 -1.77701 -0.824571 0
M  V30 3645 H 336.426 -0.502727 0.552517 0
M  V30 3646 H 339.088 -0.701606 1.81834 0
M  V30 3647 H 338.184 -2.16871 2.2444 0
M  V30 3648 N 338.485 -1.33259 -0.841409 0
M  V30 3649 C 339.448 -1.23221 -1.9326 0
M  V30 3650 C 340.448 -0.151895 -1.60081 0
M  V30 3651 O 341.638 -0.403246 -1.69468 0
M  V30 3652 C 338.77 -0.898123 -3.28856 0
M  V30 3653 H 339.963 -2.2021 -2.03587 0
M  V30 3654 H 337.516 -1.17281 -1.03319 0
M  V30 3655 H 338.251 0.0693841 -3.24226 0
M  V30 3656 H 338.036 -1.67934 -3.54317 0
M  V30 3657 H 339.526 -0.852563 -4.08805 0
M  V30 3658 N 339.963 1.05934 -1.16686 0
M  V30 3659 C 341.211 1.78447 -0.948744 0
M  V30 3660 C 341.532 1.87813 0.524523 0
M  V30 3661 O 340.802 1.38945 1.38098 0
M  V30 3662 H 339.382 0.660971 -0.348033 0
M  V30 3663 H 342.044 1.27947 -1.47022 0
M  V30 3664 H 341.14 2.80394 -1.37061 0
M  V30 3665 N 341.441 0.965919 1.2453 0
M  V30 3666 C 342.373 0.452465 2.2469 0
M  V30 3667 C 343.386 -0.437821 1.56802 0
M  V30 3668 O 344.575 -0.244283 1.76821 0
M  V30 3669 C 341.675 -0.366258 3.36915 0
M  V30 3670 C 340.848 0.513701 4.34373 0
M  V30 3671 C 339.907 -0.248716 5.25612 0
M  V30 3672 O 338.933 0.356745 5.68081 0
M  V30 3673 N 340.135 -1.53877 5.59734 0
M  V30 3674 H 342.9 1.31361 2.69378 0
M  V30 3675 H 340.461 0.837541 1.38553 0
M  V30 3676 H 342.453 -0.884297 3.94921 0
M  V30 3677 H 341.023 -1.12832 2.91526 0
M  V30 3678 H 340.243 1.21273 3.75082 0
M  V30 3679 H 341.531 1.11391 4.96457 0
M  V30 3680 H 340.929 -2.05243 5.27154 0
M  V30 3681 H 339.486 -2.00254 6.20275 0
M  V30 3682 N 342.919 -1.39368 0.735821 0
M  V30 3683 C 344.33 -1.83313 0.354015 0
M  V30 3684 C 344.681 -1.61461 -1.11466 0
M  V30 3685 O 343.806 -1.10621 -1.85989 0
M  V30 3686 C 344.401 -3.32781 0.635769 0
M  V30 3687 C 342.96 -3.75142 0.307448 0
M  V30 3688 C 342.107 -2.62358 0.897974 0
M  V30 3689 H 345.058 -1.28349 0.933398 0
M  V30 3690 H 345.079 -3.80388 -0.0921773 0
M  V30 3691 H 344.591 -3.48654 1.70476 0
M  V30 3692 H 342.692 -3.64857 -0.755674 0
M  V30 3693 H 342.805 -4.72532 0.790583 0
M  V30 3694 H 341.169 -2.52624 0.324551 0
M  V30 3695 H 341.952 -2.81036 1.97164 0
M  V30 3696 N 344.397 -0.483516 -1.5 0
M  V30 3697 C 345.643 0.0672592 -2.02688 0
M  V30 3698 C 345.976 1.38247 -1.36387 0
M  V30 3699 O 345.251 1.88131 -0.493675 0
M  V30 3700 C 345.534 0.238109 -3.59312 0
M  V30 3701 C 345.387 -1.099 -4.36168 0
M  V30 3702 C 346.706 0.986916 -4.28892 0
M  V30 3703 H 343.825 0.0229696 -0.736642 0
M  V30 3704 H 346.467 -0.631527 -1.79197 0
M  V30 3705 H 344.617 0.8333 -3.79458 0
M  V30 3706 H 346.289 -1.73172 -4.27562 0
M  V30 3707 H 344.532 -1.69261 -3.99416 0
M  V30 3708 H 345.203 -0.932954 -5.44059 0
M  V30 3709 H 347.679 0.482302 -4.13295 0
M  V30 3710 H 346.555 1.07527 -5.38265 0
M  V30 3711 H 346.816 2.0265 -3.92919 0
M  V30 3712 N 345.875 1.56104 -0.216619 0
M  V30 3713 C 347.115 2.00074 0.418322 0
M  V30 3714 C 347.479 1.10098 1.57297 0
M  V30 3715 O 348.68 1.43393 2.27359 0
M  V30 3716 C 346.951 3.47231 0.846477 0
M  V30 3717 S 348.51 4.13223 1.47622 0
M  V30 3718 H 345.328 0.698457 0.132962 0
M  V30 3719 H 347.93 1.92784 -0.324748 0
M  V30 3720 H 346.634 4.104 -0.0036319 0
M  V30 3721 H 346.165 3.58384 1.62248 0
M  V30 3722 H 348.18 4.12005 2.76526 0
M  V30 3723 N 347.353 -0.0568162 1.57498 0
M  V30 3724 C 348.764 -0.606858 1.76562 0
M  V30 3725 C 349.115 -1.77114 0.844094 0
M  V30 3726 O 348.24 -2.16376 0.0318911 0
M  V30 3727 C 348.835 -1.10766 3.20182 0
M  V30 3728 C 347.394 -1.60344 3.40539 0
M  V30 3729 C 346.541 -0.529311 2.72201 0
M  V30 3730 H 349.492 0.169393 1.57793 0
M  V30 3731 H 349.513 -1.97602 3.25167 0
M  V30 3732 H 349.025 -0.26006 3.87228 0
M  V30 3733 H 347.126 -2.47379 2.78629 0
M  V30 3734 H 347.239 -1.67006 4.4905 0
M  V30 3735 H 345.603 -0.977893 2.35179 0
M  V30 3736 H 346.386 0.308352 3.41912 0
M  V30 3737 N 348.832 -1.54138 -0.328536 0
M  V30 3738 C 350.078 -1.7236 -1.06865 0
M  V30 3739 C 350.411 -0.493231 -1.87832 0
M  V30 3740 O 349.686 0.5098 -1.877 0
M  V30 3741 C 349.969 -2.99621 -1.99747 0
M  V30 3742 C 349.822 -4.32899 -1.22143 0
M  V30 3743 C 351.141 -3.22615 -2.99345 0
M  V30 3744 H 348.26 -0.627151 -0.387105 0
M  V30 3745 H 350.902 -1.86827 -0.345767 0
M  V30 3746 H 349.052 -2.87418 -2.61387 0
M  V30 3747 H 350.724 -4.56978 -0.630017 0
M  V30 3748 H 348.967 -4.30628 -0.523628 0
M  V30 3749 H 349.638 -5.18154 -1.90318 0
M  V30 3750 H 352.114 -3.34248 -2.47826 0
M  V30 3751 H 350.99 -4.13027 -3.61524 0
M  V30 3752 H 351.251 -2.3961 -3.71536 0
M  V30 3753 N 350.31 0.590341 -1.46126 0
M  V30 3754 C 351.538 1.37504 -1.54597 0
M  V30 3755 C 351.953 1.87897 -0.184447 0
M  V30 3756 O 351.31 1.63192 0.816984 0
M  V30 3757 C 351.361 2.56779 -2.54454 0
M  V30 3758 O 351.082 2.08476 -3.85317 0
M  V30 3759 C 352.583 3.49427 -2.72792 0
M  V30 3760 H 349.803 0.420325 -0.523037 0
M  V30 3761 H 352.347 0.718383 -1.91467 0
M  V30 3762 H 350.502 3.1845 -2.20609 0
M  V30 3763 H 350.916 2.86097 -4.396 0
M  V30 3764 H 352.39 4.29619 -3.466 0
M  V30 3765 H 352.867 4.00876 -1.79429 0
M  V30 3766 H 353.473 2.93598 -3.07702 0
M  V30 3767 N 351.788 1.33704 0.83433 0
M  V30 3768 C 352.718 1.26967 1.95963 0
M  V30 3769 C 353.699 0.149337 1.69443 0
M  V30 3770 O 354.884 0.339852 1.91203 0
M  V30 3771 C 352.014 1.01275 3.32206 0
M  V30 3772 C 350.968 2.09652 3.73136 0
M  V30 3773 C 350.294 1.69166 5.07235 0
M  V30 3774 C 351.594 3.51372 3.86439 0
M  V30 3775 H 353.288 2.2112 2.01857 0
M  V30 3776 H 350.834 1.06447 0.969793 0
M  V30 3777 H 352.787 0.952106 4.10503 0
M  V30 3778 H 351.511 0.0356203 3.26581 0
M  V30 3779 H 350.17 2.14766 2.97104 0
M  V30 3780 H 349.818 0.701437 4.98085 0
M  V30 3781 H 349.518 2.41694 5.35591 0
M  V30 3782 H 351.042 1.64576 5.88003 0
M  V30 3783 H 352.456 3.48734 4.55036 0
M  V30 3784 H 350.853 4.22425 4.26236 0
M  V30 3785 H 351.923 3.89546 2.88759 0
M  V30 3786 N 353.266 -1.05314 1.17247 0
M  V30 3787 C 354.494 -1.81971 0.984593 0
M  V30 3788 C 354.909 -1.82929 -0.467166 0
M  V30 3789 O 354.266 -1.25564 -1.32438 0
M  V30 3790 C 354.317 -3.28143 1.51672 0
M  V30 3791 O 354.038 -3.27347 2.91163 0
M  V30 3792 C 355.539 -4.21493 1.37326 0
M  V30 3793 H 352.759 -0.573455 0.348411 0
M  V30 3794 H 355.303 -1.32808 1.55506 0
M  V30 3795 H 353.458 -3.74582 0.988302 0
M  V30 3796 H 353.872 -4.18824 3.15732 0
M  V30 3797 H 355.346 -5.22043 1.79375 0
M  V30 3798 H 355.823 -4.38031 0.320169 0
M  V30 3799 H 356.429 -3.80909 1.89178 0
M  V30 3800 N 354.744 -0.972509 -1.24016 0
M  V30 3801 C 356.16 -0.679827 -1.44397 0
M  V30 3802 C 356.36 0.756716 -1.86751 0
M  V30 3803 O 355.416 1.53007 -2.00861 0
M  V30 3804 C 356.729 -1.66803 -2.50195 0
M  V30 3805 C 358.277 -1.68119 -2.64017 0
M  V30 3806 C 358.752 -2.65748 -3.73017 0
M  V30 3807 N 360.243 -2.64219 -3.8045 0
M  V30 3808 C 360.978 -3.36433 -4.64328 0
M  V30 3809 N 360.474 -4.1818 -5.52356 0
M  V30 3810 N 362.267 -3.25235 -4.58453 0
M  V30 3811 H 354.418 -1.90059 -0.948228 0
M  V30 3812 H 356.681 -0.818527 -0.478245 0
M  V30 3813 H 356.387 -2.69498 -2.25973 0
M  V30 3814 H 356.261 -1.4446 -3.48441 0
M  V30 3815 H 358.648 -0.661319 -2.87594 0
M  V30 3816 H 358.729 -1.94525 -1.66113 0
M  V30 3817 H 358.373 -3.67872 -3.50189 0
M  V30 3818 H 358.303 -2.36619 -4.70446 0
M  V30 3819 H 360.794 -2.04887 -3.17537 0
M  V30 3820 H 361.107 -4.70157 -6.13329 0
M  V30 3821 H 359.452 -4.22273 -5.52006 0
M  V30 3822 H 362.643 -2.60829 -3.88698 0
M  V30 3823 H 362.816 -3.81776 -5.23594 0
M  V30 3824 N 356.222 1.38976 -0.743202 0
M  V30 3825 C 357.471 1.99581 -0.291592 0
M  V30 3826 C 357.784 1.59656 1.13001 0
M  V30 3827 O 358.99 2.13157 1.68156 0
M  V30 3828 C 357.446 3.56813 -0.470391 0
M  V30 3829 C 357.054 4.05695 -1.90041 0
M  V30 3830 C 358.798 4.24423 -0.0809709 0
M  V30 3831 C 356.705 5.5553 -2.02832 0
M  V30 3832 H 355.635 0.746615 -0.105272 0
M  V30 3833 H 358.286 1.58872 -0.918258 0
M  V30 3834 H 356.668 3.95359 0.225299 0
M  V30 3835 H 357.842 3.78464 -2.62872 0
M  V30 3836 H 356.157 3.50775 -2.24379 0
M  V30 3837 H 358.754 5.34474 -0.155445 0
M  V30 3838 H 359.097 4.04962 0.96497 0
M  V30 3839 H 359.63 3.9108 -0.728124 0
M  V30 3840 H 356.369 5.79881 -3.05643 0
M  V30 3841 H 355.889 5.84537 -1.34448 0
M  V30 3842 H 357.568 6.21069 -1.81335 0
M  V30 3843 N 357.7 0.491464 1.49741 0
M  V30 3844 C 359.116 0.146835 1.58923 0
M  V30 3845 C 359.316 -1.34804 1.49767 0
M  V30 3846 O 358.372 -2.12317 1.36667 0
M  V30 3847 C 359.685 0.715157 2.92072 0
M  V30 3848 C 361.233 0.680407 3.05515 0
M  V30 3849 C 361.708 1.22663 4.41269 0
M  V30 3850 N 363.199 1.18691 4.47735 0
M  V30 3851 C 363.934 1.57984 5.51207 0
M  V30 3852 N 363.43 2.04824 6.6183 0
M  V30 3853 N 365.223 1.49459 5.41866 0
M  V30 3854 H 357.374 1.46347 1.53936 0
M  V30 3855 H 359.637 0.606453 0.728642 0
M  V30 3856 H 359.343 1.76317 3.04311 0
M  V30 3857 H 359.217 0.17018 3.76816 0
M  V30 3858 H 361.604 -0.358743 2.92911 0
M  V30 3859 H 361.685 1.26242 2.22478 0
M  V30 3860 H 361.329 2.26451 4.54623 0
M  V30 3861 H 361.259 0.620637 5.2293 0
M  V30 3862 H 363.75 0.843605 3.68364 0
M  V30 3863 H 364.063 2.32901 7.3687 0
M  V30 3864 H 362.408 2.08791 6.62896 0
M  V30 3865 H 365.599 1.12692 4.54333 0
M  V30 3866 H 365.772 1.80406 6.22381 0
M  V30 3867 O 359.217 -1.57286 0.366498 0
M  V30 3868 H 359.908 -1.92825 -0.183877 0
M  V30 END ATOM
M  V30 BEGIN BOND
M  V30 END BOND
M  V30 END CTAB
M  END
$$$$
