drugbank_target|P20273 B-cell receptor CD22 (DB04958; DB05889; DB12688)
 OpenBabel12092119263D

  0  0  0     0  0            999 V3000
M  V30 BEGIN CTAB
M  V30 COUNTS 13239 13417 0 0 0
M  V30 BEGIN ATOM
M  V30 1 H -0.908 1.98254 -0.117106 0
M  V30 2 N 0 1.576 0 0
M  V30 3 C 0.933 2.03868 1.02534 0
M  V30 4 C 1.911 0.928543 1.3348 0
M  V30 5 O 3.095 1.19667 1.45644 0
M  V30 6 C 0.222 2.43627 2.35294 0
M  V30 7 C -0.732 3.65373 2.2001 0
M  V30 8 S 0.101 5.13292 1.52614 0
M  V30 9 C 1.257 5.56322 2.86805 0
M  V30 10 H 1.49 2.90518 0.631377 0
M  V30 11 H -0.977 1.52953 0.210867 0
M  V30 12 H 0.981 2.67203 3.11629 0
M  V30 13 H -0.358 1.57376 2.7183 0
M  V30 14 H -1.165 3.90944 3.18086 0
M  V30 15 H -1.563 3.418 1.51819 0
M  V30 16 H 0.729 5.58782 3.83104 0
M  V30 17 H 1.672 6.56266 2.65933 0
M  V30 18 H 2.08 4.83886 2.90714 0
M  V30 19 N 1.4781 -0.272755 1.55222 0
M  V30 20 C 2.4281 -1.33946 1.84506 0
M  V30 21 C 3.4121 -1.44682 0.70399 0
M  V30 22 O 4.6041 -1.48358 0.965338 0
M  V30 23 C 1.7331 -2.69968 2.12067 0
M  V30 24 C 0.8191 -2.63341 3.32434 0
M  V30 25 N 1.2101 -2.26335 4.52334 0
M  V30 26 C -0.4919 -2.94402 3.35028 0
M  V30 27 C 0.2091 -2.29705 5.34425 0
M  V30 28 N -0.8149 -2.68188 4.72838 0
M  V30 29 H 2.9871 -1.04343 2.74754 0
M  V30 30 H 0.5011 -0.481389 1.55101 0
M  V30 31 H 2.4981 -3.46916 2.31202 0
M  V30 32 H 1.1581 -3.00459 1.23103 0
M  V30 33 H 2.1691 -1.98309 4.78429 0
M  V30 34 H -1.1539 -3.29603 2.56257 0
M  V30 35 H 0.2361 -2.03653 6.40293 0
M  V30 36 N 2.9562 -1.48159 -0.537278 0
M  V30 37 C 3.8862 -1.65029 -1.6519 0
M  V30 38 C 4.8672 -0.499281 -1.62607 0
M  V30 39 O 6.0522 -0.730972 -1.79918 0
M  V30 40 C 3.1822 -1.68303 -3.03795 0
M  V30 41 C 2.1362 -2.8283 -3.21234 0
M  V30 42 C 1.4622 -2.71189 -4.60826 0
M  V30 43 C 2.7622 -4.24211 -3.04701 0
M  V30 44 H 4.4562 -2.58341 -1.51328 0
M  V30 45 H 2.0022 -1.24325 -0.726585 0
M  V30 46 H 3.9552 -1.78693 -3.81637 0
M  V30 47 H 2.6792 -0.715635 -3.18663 0
M  V30 48 H 1.3382 -2.71983 -2.45807 0
M  V30 49 H 0.9862 -1.72435 -4.7252 0
M  V30 50 H 0.6862 -3.48035 -4.7344 0
M  V30 51 H 2.2102 -2.83537 -5.40777 0
M  V30 52 H 3.6242 -4.3593 -3.72341 0
M  V30 53 H 2.0212 -5.01998 -3.28813 0
M  V30 54 H 3.0912 -4.41184 -2.01209 0
M  V30 55 N 4.4343 0.785586 -1.36625 0
M  V30 56 C 5.3643 1.91259 -1.33949 0
M  V30 57 C 6.3453 1.68795 -0.210325 0
M  V30 58 O 7.5303 1.89854 -0.408561 0
M  V30 59 C 4.6603 3.28339 -1.13186 0
M  V30 60 C 3.6143 3.65335 -2.22967 0
M  V30 61 C 2.9403 5.00806 -1.87342 0
M  V30 62 C 4.2403 3.7352 -3.65075 0
M  V30 63 H 5.9343 1.93755 -2.28253 0
M  V30 64 H 3.4803 0.930788 -1.09874 0
M  V30 65 H 5.4333 4.06804 -1.09948 0
M  V30 66 H 4.1573 3.2624 -0.153332 0
M  V30 67 H 2.8163 2.89169 -2.25337 0
M  V30 68 H 2.4643 4.95233 -0.880545 0
M  V30 69 H 2.1643 5.26529 -2.60846 0
M  V30 70 H 3.6883 5.81687 -1.85667 0
M  V30 71 H 5.1023 4.42168 -3.64911 0
M  V30 72 H 3.4993 4.10731 -4.37516 0
M  V30 73 H 4.5693 2.74527 -3.99703 0
M  V30 74 N 5.9124 1.20967 1.01018 0
M  V30 75 C 7.1604 1.02172 1.74371 0
M  V30 76 C 7.4814 -0.446414 1.89821 0
M  V30 77 O 6.7514 -1.32234 1.44537 0
M  V30 78 H 5.3314 0.375066 0.646014 0
M  V30 79 H 7.9934 1.52187 1.21758 0
M  V30 80 H 7.0894 1.48538 2.74487 0
M  V30 81 N 7.3905 -1.2043 1.01659 0
M  V30 82 C 8.8015 -1.71517 0.737482 0
M  V30 83 C 9.1525 -1.81547 -0.743973 0
M  V30 84 O 8.2775 -1.47803 -1.58061 0
M  V30 85 C 8.8725 -3.11515 1.33206 0
M  V30 86 C 7.4315 -3.59912 1.10183 0
M  V30 87 C 6.5785 -2.37116 1.43776 0
M  V30 88 H 9.5295 -1.05444 1.18606 0
M  V30 89 H 9.5505 -3.73575 0.722636 0
M  V30 90 H 9.0625 -3.04182 2.41028 0
M  V30 91 H 7.1635 -3.72577 0.0412756 0
M  V30 92 H 7.2765 -4.44731 1.78188 0
M  V30 93 H 5.6405 -2.39857 0.856778 0
M  V30 94 H 6.4235 -2.32424 2.52654 0
M  V30 95 N 8.8686 -0.792821 -1.36206 0
M  V30 96 C 10.1146 -0.376415 -1.99887 0
M  V30 97 C 10.4696 1.04127 -1.61788 0
M  V30 98 O 9.7626 1.71004 -0.864193 0
M  V30 99 C 9.9566 -0.481501 -3.54142 0
M  V30 100 C 9.7856 -1.90786 -4.07223 0
M  V30 101 C 8.5556 -2.53322 -4.37214 0
M  V30 102 C 10.7536 -2.87048 -4.26741 0
M  V30 103 N 8.7356 -3.8751 -4.7614 0
M  V30 104 C 10.1066 -4.06077 -4.6851 0
M  V30 105 C 12.1616 -2.8406 -4.08918 0
M  V30 106 C 10.8646 -5.22532 -4.94321 0
M  V30 107 C 12.8906 -3.99705 -4.35878 0
M  V30 108 C 12.2526 -5.1748 -4.77906 0
M  V30 109 H 8.3516 -0.185226 -0.759747 0
M  V30 110 H 10.9356 -1.03114 -1.65153 0
M  V30 111 H 9.1066 0.143154 -3.88136 0
M  V30 112 H 10.8386 -0.0410128 -4.04679 0
M  V30 113 H 7.5936 -2.04777 -4.2704 0
M  V30 114 H 8.0176 -4.5656 -4.99882 0
M  V30 115 H 12.6596 -1.94165 -3.75579 0
M  V30 116 H 10.3776 -6.1301 -5.2654 0
M  V30 117 H 13.9636 -3.98758 -4.23655 0
M  V30 118 H 12.8436 -6.05478 -4.98363 0
M  V30 119 N 10.3467 1.47872 -0.545128 0
M  V30 120 C 11.2767 2.32661 0.197793 0
M  V30 121 C 12.2577 1.43041 0.920504 0
M  V30 122 O 13.4427 1.71912 0.90333 0
M  V30 123 C 10.5727 3.24569 1.23582 0
M  V30 124 C 9.5267 4.23333 0.630323 0
M  V30 125 C 8.8527 5.0448 1.77211 0
M  V30 126 C 10.1527 5.20704 -0.407974 0
M  V30 127 H 11.8467 2.95024 -0.510045 0
M  V30 128 H 9.3927 1.4187 -0.246731 0
M  V30 129 H 11.3457 3.8272 1.76362 0
M  V30 130 H 10.0697 2.60236 1.97344 0
M  V30 131 H 8.7287 3.6639 0.123922 0
M  V30 132 H 8.3767 4.36561 2.49847 0
M  V30 133 H 8.0767 5.71339 1.37281 0
M  V30 134 H 9.6007 5.65487 2.3034 0
M  V30 135 H 11.0147 5.7329 0.033305 0
M  V30 136 H 9.4117 5.95699 -0.725486 0
M  V30 137 H 10.4817 4.66917 -1.30828 0
M  V30 138 N 11.8248 0.280983 1.55075 0
M  V30 139 C 12.7548 -0.597469 2.25727 0
M  V30 140 C 13.7358 -1.15417 1.24952 0
M  V30 141 O 14.9208 -1.18722 1.53684 0
M  V30 142 C 12.0508 -1.7789 2.98283 0
M  V30 143 C 11.0048 -1.35347 4.06036 0
M  V30 144 C 10.3308 -2.61846 4.66198 0
M  V30 145 C 11.6308 -0.499354 5.19907 0
M  V30 146 H 13.3248 -0.00824265 2.99399 0
M  V30 147 H 10.8708 -0.0025244 1.44 0
M  V30 148 H 12.8238 -2.39937 3.46422 0
M  V30 149 H 11.5478 -2.39405 2.22155 0
M  V30 150 H 10.2068 -0.756156 3.58717 0
M  V30 151 H 9.8548 -3.21632 3.86732 0
M  V30 152 H 9.5548 -2.3409 5.38958 0
M  V30 153 H 11.0788 -3.24732 5.1709 0
M  V30 154 H 12.4928 -1.02498 5.64063 0
M  V30 155 H 10.8898 -0.316424 5.99265 0
M  V30 156 H 11.9598 0.480459 4.82514 0
M  V30 157 N 13.3029 -1.57598 0.00835791 0
M  V30 158 C 14.2329 -2.1198 -0.979113 0
M  V30 159 C 15.2139 -1.03091 -1.35301 0
M  V30 160 O 16.3989 -1.30818 -1.43528 0
M  V30 161 C 13.5289 -2.62995 -2.26828 0
M  V30 162 C 12.4829 -3.76485 -2.03576 0
M  V30 163 C 11.8089 -4.13846 -3.38579 0
M  V30 164 C 13.1089 -5.0342 -1.39161 0
M  V30 165 H 14.8029 -2.94738 -0.526281 0
M  V30 166 H 12.3489 -1.41783 -0.251704 0
M  V30 167 H 14.3019 -2.99669 -2.96271 0
M  V30 168 H 13.0259 -1.7737 -2.7424 0
M  V30 169 H 11.6849 -3.40217 -1.36557 0
M  V30 170 H 11.3329 -3.25232 -3.83709 0
M  V30 171 H 11.0329 -4.90312 -3.23834 0
M  V30 172 H 12.5569 -4.53086 -4.09323 0
M  V30 173 H 13.9709 -5.37812 -1.98573 0
M  V30 174 H 12.3679 -5.84746 -1.34878 0
M  V30 175 H 13.4379 -4.83548 -0.361868 0
M  V30 176 N 14.781 0.264519 -1.55364 0
M  V30 177 C 15.711 1.33121 -1.91836 0
M  V30 178 C 16.692 1.51101 -0.781192 0
M  V30 179 O 17.877 1.64003 -1.04003 0
M  V30 180 C 15.007 2.68921 -2.19769 0
M  V30 181 C 13.961 2.65661 -3.35571 0
M  V30 182 C 13.287 4.05093 -3.49004 0
M  V30 183 C 14.587 2.24187 -4.71739 0
M  V30 184 H 16.281 1.02844 -2.81182 0
M  V30 185 H 13.827 0.493286 -1.35287 0
M  V30 186 H 15.78 3.43663 -2.43872 0
M  V30 187 H 14.504 3.00799 -1.27231 0
M  V30 188 H 13.163 1.93377 -3.1145 0
M  V30 189 H 12.811 4.34206 -2.53917 0
M  V30 190 H 12.511 4.03804 -4.26868 0
M  V30 191 H 14.035 4.81561 -3.75408 0
M  V30 192 H 15.449 2.88654 -4.9533 0
M  V30 193 H 13.846 2.34044 -5.52579 0
M  V30 194 H 14.916 1.19327 -4.69988 0
M  V30 195 N 16.2591 1.48442 0.529413 0
M  V30 196 C 17.5051 1.5672 1.28711 0
M  V30 197 C 17.8381 0.2406 1.92704 0
M  V30 198 O 17.1131 -0.753454 1.79313 0
M  V30 199 C 17.3961 2.70587 2.37603 0
M  V30 200 C 17.2491 4.12953 1.78297 0
M  V30 201 C 18.5681 2.80212 3.39366 0
M  V30 202 H 15.6871 0.570474 0.466613 0
M  V30 203 H 18.3291 1.80617 0.589706 0
M  V30 204 H 16.4791 2.50342 2.97088 0
M  V30 205 H 18.1511 4.44639 1.22858 0
M  V30 206 H 16.3941 4.19927 1.0883 0
M  V30 207 H 17.0651 4.88448 2.57144 0
M  V30 208 H 19.5411 2.98553 2.89836 0
M  V30 209 H 18.4171 3.61611 4.12951 0
M  V30 210 H 18.6781 1.88393 3.99951 0
M  V30 211 N 17.7372 -0.778329 1.37039 0
M  V30 212 C 18.6672 -1.90546 1.34962 0
M  V30 213 C 19.6482 -1.68681 0.219274 0
M  V30 214 O 20.8332 -1.89634 0.418624 0
M  V30 215 C 17.9632 -3.27734 1.14925 0
M  V30 216 C 16.9172 -3.64147 2.24902 0
M  V30 217 C 16.2432 -4.99806 1.89996 0
M  V30 218 C 17.5432 -3.71579 3.67051 0
M  V30 219 H 19.2372 -1.92541 2.29277 0
M  V30 220 H 16.7832 -0.924948 1.10366 0
M  V30 221 H 18.7362 -4.06215 1.12104 0
M  V30 222 H 17.4602 -3.26154 0.170631 0
M  V30 223 H 16.1192 -2.8797 2.26868 0
M  V30 224 H 15.7672 -4.94759 0.906796 0
M  V30 225 H 15.4672 -5.25139 2.63634 0
M  V30 226 H 16.9912 -5.80694 1.88749 0
M  V30 227 H 18.4052 -4.40227 3.67251 0
M  V30 228 H 16.8022 -4.08405 4.39688 0
M  V30 229 H 17.8722 -2.72404 4.01154 0
M  V30 230 N 19.2153 -1.21501 -1.00376 0
M  V30 231 C 20.1253 -0.991447 -2.12621 0
M  V30 232 C 21.1413 0.0568446 -1.73907 0
M  V30 233 O 22.3173 -0.13348 -2.00957 0
M  V30 234 C 19.3823 -0.560312 -3.42142 0
M  V30 235 C 18.4433 -1.68096 -3.95022 0
M  V30 236 C 17.6763 -1.2703 -5.18362 0
M  V30 237 O 17.8993 -0.144438 -5.70217 0
M  V30 238 O 16.8333 -2.08269 -5.64719 0
M  V30 239 H 20.6593 -1.93158 -2.34358 0
M  V30 240 H 18.2443 -0.999999 -1.10997 0
M  V30 241 H 20.1263 -0.329724 -4.20108 0
M  V30 242 H 18.8013 0.351089 -3.2179 0
M  V30 243 H 17.7083 -1.96597 -3.18278 0
M  V30 244 H 19.0413 -2.56983 -4.19786 0
M  V30 245 N 20.6934 1.19889 -1.02296 0
M  V30 246 C 21.9234 1.93109 -0.734332 0
M  V30 247 C 22.3314 1.75377 0.709889 0
M  V30 248 O 21.6744 1.06912 1.49384 0
M  V30 249 C 21.7364 3.45362 -0.99827 0
M  V30 250 C 21.4004 3.8686 -2.43287 0
M  V30 251 C 22.3974 3.92102 -3.41397 0
M  V30 252 C 20.0824 4.18668 -2.77529 0
M  V30 253 C 22.0764 4.28573 -4.71809 0
M  V30 254 C 19.7634 4.54813 -4.08153 0
M  V30 255 C 20.7614 4.59739 -5.05103 0
M  V30 256 O 20.4494 4.95051 -6.33388 0
M  V30 257 H 20.1814 0.620409 -0.268456 0
M  V30 258 H 22.7354 1.53144 -1.3688 0
M  V30 259 H 20.9654 3.85482 -0.306645 0
M  V30 260 H 22.6544 3.99814 -0.700234 0
M  V30 261 H 23.4204 3.67685 -3.1628 0
M  V30 262 H 19.2994 4.14021 -2.0275 0
M  V30 263 H 22.8434 4.32333 -5.4748 0
M  V30 264 H 18.7404 4.78687 -4.33047 0
M  V30 265 H 19.5084 5.1302 -6.37772 0
M  V30 266 N 22.1715 0.800033 1.35784 0
M  V30 267 C 23.1015 0.220184 2.3246 0
M  V30 268 C 24.0825 -0.65073 1.57161 0
M  V30 269 O 25.2675 -0.582359 1.85263 0
M  V30 270 C 22.3975 -0.637353 3.41402 0
M  V30 271 C 21.3515 0.134531 4.27789 0
M  V30 272 C 20.6775 -0.844285 5.27992 0
M  V30 273 C 21.9775 1.32979 5.05088 0
M  V30 274 H 23.6715 1.02787 2.81203 0
M  V30 275 H 21.2175 0.495717 1.35199 0
M  V30 276 H 23.1705 -1.05302 4.08031 0
M  V30 277 H 21.8945 -1.47785 2.91251 0
M  V30 278 H 20.5535 0.531296 3.6273 0
M  V30 279 H 20.2015 -1.68011 4.74111 0
M  V30 280 H 19.9015 -0.332184 5.8666 0
M  V30 281 H 21.4255 -1.2583 5.97494 0
M  V30 282 H 22.8395 0.98934 5.64699 0
M  V30 283 H 21.2365 1.77593 5.7322 0
M  V30 284 H 22.3065 2.11978 4.36111 0
M  V30 285 N 23.6496 -1.47581 0.552962 0
M  V30 286 C 24.6126 -2.28439 -0.186605 0
M  V30 287 C 25.6126 -1.36706 -0.84665 0
M  V30 288 O 26.8026 -1.59378 -0.703164 0
M  V30 289 C 23.9346 -3.16264 -1.2724 0
M  V30 290 H 25.1276 -2.95294 0.523609 0
M  V30 291 H 22.6806 -1.532 0.309745 0
M  V30 292 H 23.4156 -2.54091 -2.01514 0
M  V30 293 H 23.2006 -3.83769 -0.803968 0
M  V30 294 H 24.6906 -3.77198 -1.79196 0
M  V30 295 N 25.1277 -0.289203 -1.54924 0
M  V30 296 C 26.3747 0.323519 -1.99899 0
M  V30 297 C 26.7027 1.54797 -1.17762 0
M  V30 298 O 25.9577 1.94237 -0.238835 0
M  V30 299 C 26.2567 0.736119 -3.49737 0
M  V30 300 C 25.9227 -0.385276 -4.49251 0
M  V30 301 C 24.5847 -0.693156 -4.76181 0
M  V30 302 C 26.9367 -1.14021 -5.08575 0
M  V30 303 C 24.2647 -1.7593 -5.59701 0
M  V30 304 C 26.6167 -2.19619 -5.93254 0
M  V30 305 C 25.2807 -2.51026 -6.185 0
M  V30 306 H 24.5507 0.118384 -0.731482 0
M  V30 307 H 27.1977 -0.405847 -1.8715 0
M  V30 308 H 25.5027 1.54539 -3.60035 0
M  V30 309 H 27.1997 1.22118 -3.81953 0
M  V30 310 H 23.7897 -0.135202 -4.28387 0
M  V30 311 H 27.9737 -0.915611 -4.87781 0
M  V30 312 H 23.2297 -2.0075 -5.77503 0
M  V30 313 H 27.4037 -2.78581 -6.38252 0
M  V30 314 H 25.0307 -3.33772 -6.83008 0
M  V30 315 N 26.6058 1.57591 -0.0167156 0
M  V30 316 C 27.8308 1.9598 0.67872 0
M  V30 317 C 28.2558 0.892546 1.65575 0
M  V30 318 O 27.6138 -0.147772 1.80697 0
M  V30 319 C 27.6618 3.33468 1.37227 0
M  V30 320 O 26.7658 3.28954 2.48722 0
M  V30 321 H 26.1068 0.639339 0.17928 0
M  V30 322 H 28.6368 2.04463 -0.0748802 0
M  V30 323 H 28.6468 3.69417 1.7319 0
M  V30 324 H 27.3218 4.10694 0.656007 0
M  V30 325 H 25.8988 3.04705 2.14963 0
M  V30 326 N 28.0839 -0.256276 1.55502 0
M  V30 327 C 29.3609 -1.00789 1.67633 0
M  V30 328 C 29.7409 -2.03706 0.553826 0
M  V30 329 O 29.0889 -2.24145 -0.443969 0
M  V30 330 C 29.2989 -1.64968 3.07549 0
M  V30 331 C 30.6469 -2.15505 3.65845 0
M  V30 332 O 31.6709 -1.74925 3.1029 0
M  V30 333 O 30.5299 -2.89986 4.63217 0
M  V30 334 H 27.6239 -0.468553 0.681459 0
M  V30 335 H 30.1699 -0.250806 1.67836 0
M  V30 336 H 28.9419 -0.904785 3.80696 0
M  V30 337 H 28.5649 -2.47321 3.11317 0
M  V30 338 N 29.562 -1.4872 -0.521534 0
M  V30 339 C 30.787 -1.61101 -1.30618 0
M  V30 340 C 31.212 -0.274611 -1.86085 0
M  V30 341 O 30.57 0.754937 -1.64834 0
M  V30 342 C 30.618 -2.66709 -2.4269 0
M  V30 343 O 29.722 -2.24456 -3.45967 0
M  V30 344 H 29.063 -0.539921 -0.386499 0
M  V30 345 H 31.593 -1.94767 -0.626645 0
M  V30 346 H 31.603 -2.88245 -2.88754 0
M  V30 347 H 30.278 -3.63727 -2.01682 0
M  V30 348 H 28.855 -2.13168 -3.05964 0
M  V30 349 N 31.0401 0.771051 -1.3745 0
M  V30 350 C 32.2651 1.56529 -1.36065 0
M  V30 351 C 32.6901 1.88029 0.0515859 0
M  V30 352 O 32.0481 1.49282 1.02882 0
M  V30 353 C 32.0961 2.85187 -2.20683 0
M  V30 354 O 31.2001 3.79593 -1.61193 0
M  V30 355 H 30.5411 0.47411 -0.464883 0
M  V30 356 H 33.0711 0.954269 -1.80983 0
M  V30 357 H 33.0811 3.34283 -2.33921 0
M  V30 358 H 31.7561 2.61588 -3.23334 0
M  V30 359 H 30.3331 3.38239 -1.56999 0
M  V30 360 N 32.5182 1.22032 0.997298 0
M  V30 361 C 33.4652 0.986467 2.08656 0
M  V30 362 C 34.4352 -0.0902671 1.65855 0
M  V30 363 O 35.6202 0.0584294 1.90711 0
M  V30 364 C 32.7602 0.565569 3.40434 0
M  V30 365 C 31.8732 1.71259 3.96604 0
M  V30 366 C 31.0082 1.24011 5.16522 0
M  V30 367 C 30.0472 2.35896 5.64818 0
M  V30 368 N 29.1842 1.89726 6.7598 0
M  V30 369 H 34.0242 1.91892 2.27994 0
M  V30 370 H 31.5612 0.956199 1.11782 0
M  V30 371 H 33.5192 0.302738 4.161 0
M  V30 372 H 32.1492 -0.329879 3.2111 0
M  V30 373 H 31.2012 2.08986 3.17851 0
M  V30 374 H 32.5132 2.55436 4.28432 0
M  V30 375 H 31.6672 0.934395 5.99461 0
M  V30 376 H 30.4062 0.368487 4.86306 0
M  V30 377 H 29.4112 2.67261 4.8047 0
M  V30 378 H 30.6362 3.23567 5.97061 0
M  V30 379 H 28.5822 1.0492 6.47555 0
M  V30 380 H 28.4992 2.67471 7.07103 0
M  V30 381 H 29.7672 1.62211 7.62435 0
M  V30 382 N 33.9963 -1.19345 1.0293 0
M  V30 383 C 35.2423 -1.89585 0.736824 0
M  V30 384 C 35.5973 -1.78148 -0.726703 0
M  V30 385 O 34.8903 -1.16332 -1.52242 0
M  V30 386 C 35.0843 -3.39292 1.12319 0
M  V30 387 C 34.9133 -3.65298 2.62273 0
M  V30 388 C 33.6833 -3.83304 3.29251 0
M  V30 389 C 35.8813 -3.6682 3.60482 0
M  V30 390 N 33.8633 -3.96944 4.68304 0
M  V30 391 C 35.2343 -3.86037 4.85155 0
M  V30 392 C 37.2893 -3.49848 3.54275 0
M  V30 393 C 35.9923 -3.9004 6.04369 0
M  V30 394 C 38.0183 -3.55129 4.72903 0
M  V30 395 C 37.3803 -3.74831 5.9639 0
M  V30 396 H 33.4793 -0.712856 0.321497 0
M  V30 397 H 36.0633 -1.43427 1.31669 0
M  V30 398 H 34.2343 -3.84172 0.571524 0
M  V30 399 H 35.9663 -3.97055 0.78292 0
M  V30 400 H 32.7213 -3.82211 2.79663 0
M  V30 401 H 33.1453 -4.07613 5.40538 0
M  V30 402 H 37.7873 -3.33572 2.59788 0
M  V30 403 H 35.5053 -4.05108 6.99223 0
M  V30 404 H 39.0913 -3.43287 4.69729 0
M  V30 405 H 37.9713 -3.78792 6.86649 0
M  V30 406 N 35.4744 -0.807222 -1.35358 0
M  V30 407 C 36.7204 -0.388463 -1.99045 0
M  V30 408 C 37.0534 1.04184 -1.63888 0
M  V30 409 O 36.3284 1.72292 -0.902535 0
M  V30 410 C 36.6114 -0.572783 -3.55515 0
M  V30 411 C 36.4644 -2.04807 -4.00468 0
M  V30 412 C 37.7834 0.00114064 -4.401 0
M  V30 413 H 34.9024 -0.142619 -0.723069 0
M  V30 414 H 37.5444 -1.01687 -1.60498 0
M  V30 415 H 35.6944 -0.0378425 -3.88482 0
M  V30 416 H 37.3664 -2.64544 -3.77908 0
M  V30 417 H 35.6094 -2.54427 -3.51353 0
M  V30 418 H 36.2804 -2.12792 -5.09337 0
M  V30 419 H 38.7564 -0.455716 -4.13597 0
M  V30 420 H 37.6324 -0.157737 -5.48673 0
M  V30 421 H 37.8934 1.09488 -4.28328 0
M  V30 422 N 36.9525 1.47285 -0.560781 0
M  V30 423 C 38.1995 2.02464 -0.038062 0
M  V30 424 C 38.5275 1.43474 1.31322 0
M  V30 425 O 37.7825 0.581311 1.86867 0
M  V30 426 C 38.0815 3.57258 0.100784 0
M  V30 427 C 37.7475 4.35184 -1.18007 0
M  V30 428 C 36.4095 4.56194 -1.53103 0
M  V30 429 C 38.7615 4.80098 -2.02867 0
M  V30 430 C 36.0895 5.19367 -2.729 0
M  V30 431 C 38.4415 5.44593 -3.21871 0
M  V30 432 C 37.1055 5.63835 -3.57276 0
M  V30 433 H 36.3755 0.740869 -0.0139279 0
M  V30 434 H 39.0225 1.76916 -0.733012 0
M  V30 435 H 37.3275 3.81819 0.878724 0
M  V30 436 H 39.0245 3.97606 0.520639 0
M  V30 437 H 35.6145 4.19113 -0.8968 0
M  V30 438 H 39.7985 4.63642 -1.7706 0
M  V30 439 H 35.0545 5.32459 -3.00496 0
M  V30 440 H 39.2285 5.78358 -3.87911 0
M  V30 441 H 36.8555 6.12557 -4.50197 0
M  V30 442 N 38.4306 0.297415 1.54768 0
M  V30 443 C 39.3406 -0.58983 2.27064 0
M  V30 444 C 40.3566 -1.15144 1.30453 0
M  V30 445 O 41.5326 -1.17699 1.63428 0
M  V30 446 C 38.5976 -1.74714 2.9946 0
M  V30 447 C 37.6586 -1.21997 4.11601 0
M  V30 448 C 36.8916 -2.32212 4.80535 0
M  V30 449 O 37.1146 -3.52036 4.48806 0
M  V30 450 O 36.0486 -1.99106 5.68014 0
M  V30 451 H 39.8746 -0.00348199 3.037 0
M  V30 452 H 37.4596 0.0640035 1.49263 0
M  V30 453 H 39.3416 -2.42147 3.44881 0
M  V30 454 H 38.0166 -2.32016 2.25722 0
M  V30 455 H 36.9236 -0.511458 3.70587 0
M  V30 456 H 38.2566 -0.692419 4.87305 0
M  V30 457 N 39.9087 -1.5758 0.0250728 0
M  V30 458 C 40.8587 -2.06468 -0.967201 0
M  V30 459 C 41.8427 -0.964376 -1.28797 0
M  V30 460 O 43.0347 -1.22797 -1.27475 0
M  V30 461 C 40.1637 -2.59203 -2.25097 0
M  V30 462 C 39.2497 -3.76157 -1.95874 0
M  V30 463 N 39.6407 -4.86919 -1.36905 0
M  V30 464 C 37.9387 -3.84566 -2.25887 0
M  V30 465 C 38.6397 -5.68172 -1.24724 0
M  V30 466 N 37.6157 -5.14953 -1.74138 0
M  V30 467 H 41.4177 -2.89508 -0.506176 0
M  V30 468 H 38.9317 -1.61399 -0.18004 0
M  V30 469 H 40.9287 -2.92517 -2.97052 0
M  V30 470 H 39.5887 -1.77592 -2.71829 0
M  V30 471 H 40.5997 -5.07256 -1.04459 0
M  V30 472 H 37.2767 -3.13854 -2.75321 0
M  V30 473 H 38.6667 -6.67221 -0.791605 0
M  V30 474 N 41.3868 0.248026 -1.55636 0
M  V30 475 C 42.7978 0.817177 -1.67866 0
M  V30 476 C 43.1488 1.86069 -0.622322 0
M  V30 477 O 42.2738 2.15157 0.231618 0
M  V30 478 C 42.8688 1.489 -3.04326 0
M  V30 479 C 41.4278 2.00587 -3.185 0
M  V30 480 C 40.5748 0.856573 -2.63739 0
M  V30 481 H 43.5258 0.0238579 -1.58682 0
M  V30 482 H 43.5468 2.35698 -2.98708 0
M  V30 483 H 43.0588 0.729279 -3.81186 0
M  V30 484 H 41.1598 2.79443 -2.4646 0
M  V30 485 H 41.2728 2.20402 -4.25393 0
M  V30 486 H 39.6368 1.25678 -2.21534 0
M  V30 487 H 40.4198 0.109953 -3.43124 0
M  V30 488 N 42.8649 1.48995 0.513639 0
M  V30 489 C 43.7749 1.67443 1.64317 0
M  V30 490 C 44.7909 0.556947 1.64846 0
M  V30 491 O 45.9669 0.830082 1.83498 0
M  V30 492 C 43.0319 1.72515 3.00732 0
M  V30 493 C 42.0929 2.96009 3.1093 0
M  V30 494 C 41.3259 3.00829 4.40837 0
M  V30 495 O 41.5489 2.13594 5.28898 0
M  V30 496 O 40.4829 3.93168 4.55744 0
M  V30 497 H 44.3089 2.63106 1.51687 0
M  V30 498 H 41.8939 1.32588 0.688543 0
M  V30 499 H 43.7759 1.78277 3.81831 0
M  V30 500 H 42.4509 0.800278 3.13651 0
M  V30 501 H 41.3579 2.9577 2.29065 0
M  V30 502 H 42.6909 3.87934 3.02933 0
M  V30 503 N 44.343 -0.763751 1.37857 0
M  V30 504 C 45.571 -1.55293 1.36718 0
M  V30 505 C 45.986 -1.88745 -0.0455434 0
M  V30 506 O 45.343 -1.52039 -1.00947 0
M  V30 507 C 45.394 -2.85831 2.2132 0
M  V30 508 O 45.115 -2.5381 3.57089 0
M  V30 509 C 46.616 -3.80023 2.28249 0
M  V30 510 H 43.836 -0.480841 0.468009 0
M  V30 511 H 46.38 -0.946009 1.81303 0
M  V30 512 H 44.535 -3.42926 1.80223 0
M  V30 513 H 44.949 -3.37459 4.01524 0
M  V30 514 H 46.423 -4.68599 2.91752 0
M  V30 515 H 46.9 -4.1973 1.2932 0
M  V30 516 H 47.506 -3.28855 2.69693 0
M  V30 517 N 45.8211 -1.22559 -0.990812 0
M  V30 518 C 46.7511 -1.0218 -2.09956 0
M  V30 519 C 47.7321 0.0579394 -1.70001 0
M  V30 520 O 48.9171 -0.104684 -1.93918 0
M  V30 521 C 46.0471 -0.601023 -3.4206 0
M  V30 522 C 45.0011 -1.62694 -3.95872 0
M  V30 523 C 44.3271 -1.06193 -5.24049 0
M  V30 524 C 45.6271 -3.01743 -4.2632 0
M  V30 525 H 47.3211 -1.94916 -2.27262 0
M  V30 526 H 44.8671 -0.938566 -1.09211 0
M  V30 527 H 46.8201 -0.445561 -4.19038 0
M  V30 528 H 45.5441 0.362005 -3.24588 0
M  V30 529 H 44.2031 -1.77021 -3.21028 0
M  V30 530 H 43.8511 -0.0901903 -5.02919 0
M  V30 531 H 43.5511 -1.74732 -5.61019 0
M  V30 532 H 45.0751 -0.918092 -6.03658 0
M  V30 533 H 46.4891 -2.90777 -4.94087 0
M  V30 534 H 44.8861 -3.67425 -4.74467 0
M  V30 535 H 45.9561 -3.51518 -3.34011 0
M  V30 536 N 47.2992 1.18797 -1.03562 0
M  V30 537 C 48.5292 1.92319 -0.754773 0
M  V30 538 C 48.9372 1.7612 0.691248 0
M  V30 539 O 48.2802 1.08491 1.48241 0
M  V30 540 C 48.3422 3.44284 -1.03484 0
M  V30 541 C 48.0062 3.84258 -2.47376 0
M  V30 542 C 49.0032 3.88459 -3.45537 0
M  V30 543 C 46.6882 4.15701 -2.81954 0
M  V30 544 C 48.6822 4.23545 -4.76328 0
M  V30 545 C 46.3692 4.50458 -4.12954 0
M  V30 546 C 47.3672 4.54356 -5.09951 0
M  V30 547 O 47.0552 4.88305 -6.38603 0
M  V30 548 H 46.7872 0.617527 -0.275021 0
M  V30 549 H 49.3412 1.51683 -1.38497 0
M  V30 550 H 47.5712 3.85135 -0.347513 0
M  V30 551 H 49.2602 3.99049 -0.7426 0
M  V30 552 H 50.0262 3.6431 -3.20162 0
M  V30 553 H 45.9052 4.11847 -2.0713 0
M  V30 554 H 49.4492 4.26502 -5.52035 0
M  V30 555 H 45.3462 4.74067 -4.38099 0
M  V30 556 H 46.1142 5.06227 -6.43177 0
M  V30 557 N 48.7773 0.814389 1.34928 0
M  V30 558 C 49.7403 0.235759 2.27984 0
M  V30 559 C 50.7403 -0.581412 1.49921 0
M  V30 560 O 51.9303 -0.398758 1.69575 0
M  V30 561 C 49.0623 -0.670433 3.34242 0
M  V30 562 H 50.2553 1.05659 2.80671 0
M  V30 563 H 47.8083 0.585614 1.44915 0
M  V30 564 H 48.5433 -1.51466 2.86755 0
M  V30 565 H 48.3283 -0.0860822 3.92005 0
M  V30 566 H 49.8183 -1.06935 4.03676 0
M  V30 567 N 50.2554 -1.46986 0.568584 0
M  V30 568 C 51.5014 -2.0332 0.0571487 0
M  V30 569 C 51.8564 -1.43384 -1.28291 0
M  V30 570 O 51.1494 -0.584304 -1.82473 0
M  V30 571 C 51.3434 -3.57306 -0.081836 0
M  V30 572 C 51.1724 -4.32174 1.24321 0
M  V30 573 C 49.9424 -4.71633 1.81358 0
M  V30 574 C 52.1404 -4.66598 2.16312 0
M  V30 575 N 50.1224 -5.31191 3.07748 0
M  V30 576 C 51.4934 -5.26578 3.27285 0
M  V30 577 C 53.5484 -4.48527 2.16166 0
M  V30 578 C 52.2514 -5.70395 4.38226 0
M  V30 579 C 54.2774 -4.93351 3.26127 0
M  V30 580 C 53.6394 -5.5339 4.3582 0
M  V30 581 H 49.7384 -0.77943 0.063351 0
M  V30 582 H 52.3224 -1.79323 0.758378 0
M  V30 583 H 50.4934 -3.81046 -0.752207 0
M  V30 584 H 52.2254 -4.00282 -0.59637 0
M  V30 585 H 48.9804 -4.53946 1.35019 0
M  V30 586 H 49.4044 -5.65505 3.72201 0
M  V30 587 H 54.0464 -4.01456 1.32638 0
M  V30 588 H 51.7644 -6.16452 5.22506 0
M  V30 589 H 55.3504 -4.81131 3.27115 0
M  V30 590 H 54.2304 -5.87441 5.19503 0
M  V30 591 N 51.7335 -0.305618 -1.54608 0
M  V30 592 C 52.6435 0.57778 -2.27374 0
M  V30 593 C 53.6595 1.14451 -1.31061 0
M  V30 594 O 54.8355 1.16831 -1.6405 0
M  V30 595 C 51.9005 1.73123 -3.00382 0
M  V30 596 C 50.9615 1.19812 -4.12242 0
M  V30 597 C 50.1945 2.2966 -4.81759 0
M  V30 598 O 50.4175 3.49651 -4.50666 0
M  V30 599 O 49.3515 1.96091 -5.69062 0
M  V30 600 H 53.1775 -0.012624 -3.03697 0
M  V30 601 H 50.7625 -0.0719184 -1.49227 0
M  V30 602 H 52.6445 2.40315 -3.4616 0
M  V30 603 H 51.3195 2.30815 -2.26949 0
M  V30 604 H 50.2265 0.491798 -3.70853 0
M  V30 605 H 51.5595 0.666566 -4.87666 0
M  V30 606 N 53.2116 1.57565 -0.0334293 0
M  V30 607 C 54.4596 1.91598 0.642999 0
M  V30 608 C 54.7806 0.910847 1.7242 0
M  V30 609 O 54.0506 -0.0469931 1.95844 0
M  V30 610 H 52.6306 0.707228 0.240496 0
M  V30 611 H 55.2926 1.94726 -0.0822488 0
M  V30 612 H 54.3886 2.92336 1.09298 0
M  V30 613 N 54.6897 -0.239769 1.55765 0
M  V30 614 C 55.6527 -1.28038 1.90103 0
M  V30 615 C 56.6527 -1.40723 0.778055 0
M  V30 616 O 57.8427 -1.39301 1.04599 0
M  V30 617 C 54.9747 -2.65702 2.13577 0
M  V30 618 H 56.1677 -0.988048 2.83157 0
M  V30 619 H 53.7207 -0.479382 1.48767 0
M  V30 620 H 54.4557 -3.00063 1.23015 0
M  V30 621 H 54.2407 -2.57875 2.95369 0
M  V30 622 H 55.7307 -3.40828 2.41301 0
M  V30 623 N 56.1678 -1.49265 -0.50573 0
M  V30 624 C 57.4078 -1.60128 -1.27038 0
M  V30 625 C 57.7718 -0.279557 -1.89954 0
M  V30 626 O 58.9728 -0.263329 -2.67507 0
M  V30 627 C 57.2438 -2.72507 -2.31246 0
M  V30 628 S 58.8028 -3.0329 -3.17113 0
M  V30 629 H 55.6208 -0.564863 -0.4318 0
M  V30 630 H 58.2228 -1.86902 -0.573397 0
M  V30 631 H 56.9268 -3.67068 -1.83546 0
M  V30 632 H 56.4578 -2.4771 -3.05619 0
M  V30 633 H 58.4728 -2.44448 -4.31809 0
M  V30 634 N 57.6459 0.756429 -1.3826 0
M  V30 635 C 58.8919 1.51772 -1.34511 0
M  V30 636 C 59.2249 1.94089 0.0656691 0
M  V30 637 O 58.4999 1.65221 1.02626 0
M  V30 638 C 58.7829 2.77226 -2.29821 0
M  V30 639 C 58.6359 2.41065 -3.79747 0
M  V30 640 C 59.9549 3.79236 -2.23312 0
M  V30 641 H 57.0739 0.550578 -0.489931 0
M  V30 642 H 59.7159 0.866607 -1.69086 0
M  V30 643 H 57.8659 3.32784 -2.00467 0
M  V30 644 H 59.5379 1.91303 -4.19763 0
M  V30 645 H 57.7809 1.7356 -3.97567 0
M  V30 646 H 58.4519 3.3081 -4.41892 0
M  V30 647 H 60.9279 3.3321 -2.49219 0
M  V30 648 H 59.8039 4.64714 -2.92116 0
M  V30 649 H 60.0649 4.24615 -1.23102 0
M  V30 650 N 59.124 1.23083 0.984299 0
M  V30 651 C 60.37 1.07221 1.72845 0
M  V30 652 C 60.725 -0.387453 1.88458 0
M  V30 653 O 60.018 -1.28309 1.42293 0
M  V30 654 C 60.212 1.72673 3.1292 0
M  V30 655 C 60.041 3.24853 3.10967 0
M  V30 656 C 58.811 3.93998 3.16376 0
M  V30 657 C 61.009 4.21674 2.94441 0
M  V30 658 N 58.991 5.33192 3.04268 0
M  V30 659 C 60.362 5.47756 2.90453 0
M  V30 660 C 62.417 4.12457 2.78897 0
M  V30 661 C 61.12 6.6568 2.72512 0
M  V30 662 C 63.146 5.3004 2.62319 0
M  V30 663 C 62.508 6.55046 2.59026 0
M  V30 664 H 58.607 0.44685 0.641755 0
M  V30 665 H 61.191 1.55753 1.16829 0
M  V30 666 H 59.362 1.26679 3.67161 0
M  V30 667 H 61.094 1.49824 3.75945 0
M  V30 668 H 57.849 3.45052 3.24401 0
M  V30 669 H 58.273 6.06157 3.015 0
M  V30 670 H 62.915 3.16588 2.80235 0
M  V30 671 H 60.633 7.61689 2.69919 0
M  V30 672 H 64.219 5.24747 2.5126 0
M  V30 673 H 63.099 7.44498 2.46357 0
M  V30 674 N 60.6021 -1.18246 1.0419 0
M  V30 675 C 61.8511 -1.87588 0.741194 0
M  V30 676 C 62.1641 -1.81303 -0.734066 0
M  V30 677 O 63.3701 -2.46019 -1.14834 0
M  V30 678 C 61.8261 -3.36538 1.27555 0
M  V30 679 C 61.4341 -3.51349 2.77953 0
M  V30 680 C 63.1781 -4.11273 1.05143 0
M  V30 681 C 61.0851 -4.94265 3.2474 0
M  V30 682 H 60.0151 -0.702622 0.273565 0
M  V30 683 H 62.6661 -1.33601 1.25789 0
M  V30 684 H 61.0481 -3.9 0.686703 0
M  V30 685 H 62.2221 -3.08153 3.42605 0
M  V30 686 H 60.5371 -2.90022 2.98791 0
M  V30 687 H 63.1341 -5.16689 1.37611 0
M  V30 688 H 63.4771 -4.16298 -0.0112774 0
M  V30 689 H 64.0101 -3.63987 1.60495 0
M  V30 690 H 60.7491 -4.94408 4.30396 0
M  V30 691 H 60.2691 -5.38172 2.64823 0
M  V30 692 H 61.9481 -5.62987 3.18834 0
M  V30 693 N 62.0802 -0.821533 -1.34494 0
M  V30 694 C 63.4912 -0.467956 -1.8074 0
M  V30 695 C 63.8422 1.01151 -1.68116 0
M  V30 696 O 62.9672 1.78707 -1.22036 0
M  V30 697 C 63.5622 -0.842627 -3.28154 0
M  V30 698 C 62.1212 -0.541439 -3.72485 0
M  V30 699 C 61.2682 -1.06028 -2.56229 0
M  V30 700 H 64.2192 -1.01183 -1.22261 0
M  V30 701 H 64.2402 -0.145876 -3.8022 0
M  V30 702 H 63.7522 -1.91945 -3.37311 0
M  V30 703 H 61.8532 0.526034 -3.68868 0
M  V30 704 H 61.9662 -1.08453 -4.66663 0
M  V30 705 H 60.3302 -0.481892 -2.501 0
M  V30 706 H 61.1132 -2.14352 -2.68157 0
M  V30 707 N 63.5583 1.46682 -0.576371 0
M  V30 708 C 64.7983 2.04306 -0.0621356 0
M  V30 709 C 65.1623 1.4389 1.2712 0
M  V30 710 O 66.3633 1.92675 1.87429 0
M  V30 711 C 64.6343 3.57399 0.00927922 0
M  V30 712 S 66.1933 4.36309 0.466859 0
M  V30 713 H 63.0113 0.710167 -0.0344016 0
M  V30 714 H 65.6133 1.79807 -0.767437 0
M  V30 715 H 64.3173 3.98889 -0.965178 0
M  V30 716 H 63.8483 3.86424 0.737547 0
M  V30 717 H 65.8633 4.6533 1.72287 0
M  V30 718 N 65.0364 0.313813 1.54444 0
M  V30 719 C 66.2644 -0.293918 2.04802 0
M  V30 720 C 66.6794 -1.46537 1.19047 0
M  V30 721 O 66.0364 -1.81182 0.218939 0
M  V30 722 C 66.0874 -0.737806 3.53891 0
M  V30 723 O 65.8084 0.387038 4.36387 0
M  V30 724 C 67.3094 -1.40936 4.203 0
M  V30 725 H 64.5294 -0.0620057 0.668129 0
M  V30 726 H 67.0734 0.457169 1.99324 0
M  V30 727 H 65.2284 -1.43889 3.59687 0
M  V30 728 H 65.6424 0.0391274 5.24485 0
M  V30 729 H 67.1164 -1.67099 5.26101 0
M  V30 730 H 67.5934 -2.35355 3.70816 0
M  V30 731 H 68.1994 -0.751117 4.18615 0
M  V30 732 N 66.5145 -1.57545 0.0417849 0
M  V30 733 C 67.7445 -1.96339 -0.642995 0
M  V30 734 C 68.1525 -0.917536 -1.65463 0
M  V30 735 O 67.4955 0.107747 -1.83384 0
M  V30 736 C 67.5575 -3.31333 -1.39494 0
M  V30 737 C 67.2215 -4.53796 -0.540204 0
M  V30 738 C 68.2185 -5.19553 0.189806 0
M  V30 739 C 65.9035 -5.0006 -0.473886 0
M  V30 740 C 67.8975 -6.29904 0.974674 0
M  V30 741 C 65.5845 -6.10289 0.314677 0
M  V30 742 C 66.5825 -6.75072 1.03765 0
M  V30 743 O 66.2705 -7.83183 1.81327 0
M  V30 744 H 66.0025 -0.651241 -0.181277 0
M  V30 745 H 68.5565 -2.05148 0.101665 0
M  V30 746 H 66.7865 -3.19052 -2.18502 0
M  V30 747 H 68.4755 -3.54942 -1.96904 0
M  V30 748 H 69.2415 -4.84774 0.147981 0
M  V30 749 H 65.1205 -4.49433 -1.0262 0
M  V30 750 H 68.6645 -6.80401 1.5395 0
M  V30 751 H 64.5615 -6.44506 0.358174 0
M  V30 752 H 65.3295 -7.99913 1.73438 0
M  V30 753 N 67.9926 0.231505 -1.5589 0
M  V30 754 C 69.4086 0.580748 -1.48659 0
M  V30 755 C 69.6086 1.87617 -0.73498 0
M  V30 756 O 68.6646 2.51046 -0.270586 0
M  V30 757 C 69.9776 0.669202 -2.93159 0
M  V30 758 C 71.5256 0.760499 -3.03621 0
M  V30 759 C 72.0006 0.880383 -4.49459 0
M  V30 760 N 73.4916 0.944861 -4.53461 0
M  V30 761 C 74.2266 1.05716 -5.63571 0
M  V30 762 N 73.7226 1.13403 -6.83456 0
M  V30 763 N 75.5156 1.09152 -5.514 0
M  V30 764 H 67.6666 -0.618695 -2.03189 0
M  V30 765 H 69.9296 -0.215728 -0.923128 0
M  V30 766 H 69.6356 -0.212904 -3.51055 0
M  V30 767 H 69.5096 1.5361 -3.44505 0
M  V30 768 H 71.8966 1.63305 -2.45796 0
M  V30 769 H 71.9776 -0.131864 -2.5546 0
M  V30 770 H 71.6216 0.0123284 -5.07899 0
M  V30 771 H 71.5516 1.78802 -4.95316 0
M  V30 772 H 74.0426 0.896176 -3.6712 0
M  V30 773 H 74.3556 1.21921 -7.63122 0
M  V30 774 H 72.7006 1.10333 -6.86186 0
M  V30 775 H 75.8916 1.02805 -4.56671 0
M  V30 776 H 76.0646 1.17558 -6.37247 0
M  V30 777 N 69.4707 1.49531 0.497807 0
M  V30 778 C 70.4337 1.65916 1.58128 0
M  V30 779 C 71.4337 0.530825 1.51786 0
M  V30 780 O 72.6237 0.797342 1.54881 0
M  V30 781 C 69.7557 1.65951 2.9778 0
M  V30 782 H 70.9487 2.62556 1.44929 0
M  V30 783 H 68.5017 1.38611 0.722275 0
M  V30 784 H 69.2367 0.709065 3.16453 0
M  V30 785 H 69.0217 2.47897 3.03792 0
M  V30 786 H 70.5117 1.80673 3.76493 0
M  V30 787 N 70.9488 -0.749086 1.3866 0
M  V30 788 C 71.8788 -1.8764 1.38973 0
M  V30 789 C 72.8598 -1.68178 0.255004 0
M  V30 790 O 74.0448 -1.88704 0.458754 0
M  V30 791 C 71.1748 -3.25222 1.21851 0
M  V30 792 C 70.1288 -3.59295 2.32575 0
M  V30 793 C 69.4548 -4.95663 2.00555 0
M  V30 794 C 70.7548 -3.63709 3.7485 0
M  V30 795 H 72.4488 -1.87635 2.3331 0
M  V30 796 H 69.9948 -0.901329 1.12303 0
M  V30 797 H 71.9478 -4.03746 1.20695 0
M  V30 798 H 70.6718 -3.25719 0.239775 0
M  V30 799 H 69.3308 -2.83093 2.32925 0
M  V30 800 H 68.9788 -4.92724 1.01154 0
M  V30 801 H 68.6788 -5.19429 2.74714 0
M  V30 802 H 70.2028 -5.7656 2.01024 0
M  V30 803 H 71.6168 -4.32338 3.76506 0
M  V30 804 H 70.0138 -3.98986 4.48252 0
M  V30 805 H 71.0838 -2.63834 4.06841 0
M  V30 806 N 72.4269 -1.23603 -0.977757 0
M  V30 807 C 73.7039 -0.977897 -1.69401 0
M  V30 808 C 74.0839 0.502738 -2.05026 0
M  V30 809 O 73.4319 1.47459 -1.74551 0
M  V30 810 C 73.6419 -1.89077 -2.93345 0
M  V30 811 C 74.9899 -2.15579 -3.65802 0
M  V30 812 O 76.0139 -1.86648 -3.03383 0
M  V30 813 O 74.8729 -2.64658 -4.78141 0
M  V30 814 H 71.9669 -0.369025 -0.740101 0
M  V30 815 H 74.5129 -1.34657 -1.03274 0
M  V30 816 H 73.2849 -2.89158 -2.63634 0
M  V30 817 H 72.9079 -1.52463 -3.67207 0
M  V30 818 N 73.905 1.17692 -1.04816 0
M  V30 819 C 75.153 1.87488 -0.754497 0
M  V30 820 C 75.474 1.81205 0.720407 0
M  V30 821 O 74.744 1.23544 1.52032 0
M  V30 822 H 73.324 0.694101 -0.276102 0
M  V30 823 H 75.986 1.42793 -1.32651 0
M  V30 824 H 75.082 2.93328 -1.06606 0
M  V30 825 N 75.3831 0.828654 1.34056 0
M  V30 826 C 76.6601 0.341809 1.9259 0
M  V30 827 C 77.0401 -1.17158 1.75605 0
M  V30 828 O 76.3881 -1.98132 1.13824 0
M  V30 829 C 76.5981 0.777453 3.4023 0
M  V30 830 C 77.9461 0.779579 4.17382 0
M  V30 831 O 78.9701 0.7204 3.48839 0
M  V30 832 O 77.8291 0.857996 5.39723 0
M  V30 833 H 74.9231 0.0946085 0.821571 0
M  V30 834 H 77.4691 0.913827 1.42994 0
M  V30 835 H 76.2411 1.8196 3.46419 0
M  V30 836 H 75.8641 0.181444 3.97186 0
M  V30 837 N 76.8612 -1.46375 0.584142 0
M  V30 838 C 77.7912 -2.33103 -0.136037 0
M  V30 839 C 78.7722 -1.45431 -0.882255 0
M  V30 840 O 79.9572 -1.74246 -0.857434 0
M  V30 841 C 77.0872 -3.27731 -1.14933 0
M  V30 842 C 76.0412 -4.24855 -0.517862 0
M  V30 843 C 75.3672 -5.09001 -1.63773 0
M  V30 844 C 76.6672 -5.19439 0.545886 0
M  V30 845 H 78.3612 -2.93568 0.588086 0
M  V30 846 H 75.9072 -1.41166 0.284259 0
M  V30 847 H 77.8602 -3.87261 -1.66153 0
M  V30 848 H 76.5842 -2.65377 -1.90375 0
M  V30 849 H 75.2432 -3.6659 -0.0267361 0
M  V30 850 H 74.8912 -4.43031 -2.38185 0
M  V30 851 H 74.5912 -5.74777 -1.22085 0
M  V30 852 H 76.1152 -5.71396 -2.15266 0
M  V30 853 H 77.5292 -5.73177 0.118704 0
M  V30 854 H 75.9262 -5.93566 0.88317 0
M  V30 855 H 76.9962 -4.63285 1.43162 0
M  V30 856 N 78.3393 -0.321999 -1.54275 0
M  V30 857 C 79.2493 0.553631 -2.27974 0
M  V30 858 C 80.2653 1.13054 -1.32268 0
M  V30 859 O 81.4413 1.15084 -1.6528 0
M  V30 860 C 78.5063 1.69927 -3.02201 0
M  V30 861 C 77.5673 1.15433 -4.1349 0
M  V30 862 C 76.8003 2.24537 -4.84168 0
M  V30 863 O 77.0233 3.44852 -4.5435 0
M  V30 864 O 75.9573 1.90044 -5.7111 0
M  V30 865 H 79.7833 -0.0448345 -3.03667 0
M  V30 866 H 77.3683 -0.0877418 -1.49142 0
M  V30 867 H 79.2503 2.3663 -3.48689 0
M  V30 868 H 77.9253 2.28395 -2.29385 0
M  V30 869 H 76.8323 0.452436 -3.71354 0
M  V30 870 H 78.1653 0.614805 -4.88345 0
M  V30 871 N 79.8174 1.5752 -0.0501392 0
M  V30 872 C 81.0424 1.97376 0.636997 0
M  V30 873 C 81.4674 0.927466 1.63645 0
M  V30 874 O 80.8254 -0.10941 1.8097 0
M  V30 875 C 80.8734 3.36304 1.30123 0
M  V30 876 O 79.9774 3.34156 2.41689 0
M  V30 877 H 79.3184 0.642998 0.165679 0
M  V30 878 H 81.8484 2.04258 -0.118233 0
M  V30 879 H 81.8584 3.73008 1.65315 0
M  V30 880 H 80.5334 4.11993 0.568746 0
M  V30 881 H 79.1104 3.09196 2.08451 0
M  V30 882 N 81.2955 -0.223234 1.56011 0
M  V30 883 C 82.5425 -0.947875 1.78946 0
M  V30 884 C 82.8705 -1.844 0.618608 0
M  V30 885 O 82.1255 -1.91629 -0.397093 0
M  V30 886 C 82.4245 -1.81948 3.0762 0
M  V30 887 C 82.0905 -1.07672 4.37856 0
M  V30 888 C 80.7525 -0.871544 4.73242 0
M  V30 889 C 83.1045 -0.552081 5.18268 0
M  V30 890 C 80.4325 -0.129791 5.86556 0
M  V30 891 C 82.7845 0.17632 6.32354 0
M  V30 892 C 81.4485 0.39277 6.66343 0
M  V30 893 H 80.7185 -0.346852 0.654809 0
M  V30 894 H 83.3655 -0.216171 1.90276 0
M  V30 895 H 81.6705 -2.61899 2.91404 0
M  V30 896 H 83.3675 -2.38227 3.22566 0
M  V30 897 H 79.9575 -1.24662 4.1007 0
M  V30 898 H 84.1415 -0.698076 4.91366 0
M  V30 899 H 79.3975 0.048153 6.11381 0
M  V30 900 H 83.5715 0.590367 6.93893 0
M  V30 901 H 81.1985 0.969466 7.53993 0
M  V30 902 N 82.7736 -1.49793 -0.48987 0
M  V30 903 C 84.0226 -1.59085 -1.23995 0
M  V30 904 C 84.3356 -0.287907 -1.9347 0
M  V30 905 O 85.5416 -0.259506 -2.70257 0
M  V30 906 C 83.9976 -2.80736 -2.252 0
M  V30 907 C 83.6056 -4.17833 -1.61614 0
M  V30 908 C 85.3496 -2.99364 -3.00967 0
M  V30 909 C 83.2566 -5.30693 -2.60996 0
M  V30 910 H 82.1866 -0.592372 -0.466488 0
M  V30 911 H 84.8376 -1.76197 -0.51252 0
M  V30 912 H 83.2196 -2.57142 -3.01154 0
M  V30 913 H 84.3936 -4.51608 -0.915774 0
M  V30 914 H 82.7086 -4.04656 -0.981977 0
M  V30 915 H 85.3056 -3.80851 -3.75308 0
M  V30 916 H 85.6486 -2.10356 -3.59244 0
M  V30 917 H 86.1816 -3.2305 -2.32128 0
M  V30 918 H 82.9206 -6.21796 -2.07485 0
M  V30 919 H 82.4406 -5.01359 -3.2924 0
M  V30 920 H 84.1196 -5.6049 -3.23202 0
M  V30 921 N 84.2517 0.741722 -1.39055 0
M  V30 922 C 85.1817 1.869 -1.39966 0
M  V30 923 C 86.1627 1.6804 -0.26392 0
M  V30 924 O 87.3477 1.88458 -0.468755 0
M  V30 925 C 84.4777 3.24572 -1.23574 0
M  V30 926 C 83.4317 3.58056 -2.34477 0
M  V30 927 C 82.7577 4.94593 -2.0318 0
M  V30 928 C 84.0577 3.61716 -3.76774 0
M  V30 929 H 85.7517 1.86395 -2.34302 0
M  V30 930 H 83.2977 0.895361 -1.1278 0
M  V30 931 H 85.2507 4.031 -1.22834 0
M  V30 932 H 83.9747 3.25587 -0.257045 0
M  V30 933 H 82.6337 2.81854 -2.34423 0
M  V30 934 H 82.2817 4.92181 -1.03765 0
M  V30 935 H 81.9817 5.17964 -2.77465 0
M  V30 936 H 83.5057 5.75486 -2.04079 0
M  V30 937 H 84.9197 4.30335 -3.78794 0
M  V30 938 H 83.3167 3.96603 -4.50362 0
M  V30 939 H 84.3867 2.61672 -4.08235 0
M  V30 940 N 85.7298 1.2412 0.971189 0
M  V30 941 C 86.9768 1.07881 1.71371 0
M  V30 942 C 87.3048 -0.382901 1.90694 0
M  V30 943 O 86.5598 -1.29945 1.46331 0
M  V30 944 C 86.8588 1.75983 3.11071 0
M  V30 945 C 86.5248 3.25909 3.11599 0
M  V30 946 C 85.1868 3.66813 3.11451 0
M  V30 947 C 87.5388 4.21771 3.062 0
M  V30 948 C 84.8668 5.02021 3.03631 0
M  V30 949 C 87.2188 5.56982 2.99923 0
M  V30 950 C 85.8828 5.97237 2.98102 0
M  V30 951 H 85.1528 0.394764 0.62709 0
M  V30 952 H 87.7998 1.54176 1.13587 0
M  V30 953 H 86.1048 1.22072 3.72298 0
M  V30 954 H 87.8018 1.60887 3.6731 0
M  V30 955 H 84.3918 2.93353 3.12477 0
M  V30 956 H 88.5758 3.91172 3.05447 0
M  V30 957 H 83.8318 5.32411 3.0058 0
M  V30 958 H 88.0058 6.30969 2.94704 0
M  V30 959 H 85.6328 7.01967 2.91798 0
M  V30 960 N 87.2079 -1.17134 1.05439 0
M  V30 961 C 88.1579 -2.1919 0.627675 0
M  V30 962 C 89.1419 -1.57328 -0.337147 0
M  V30 963 O 90.3339 -1.76329 -0.153976 0
M  V30 964 C 87.4629 -3.43299 0.00651435 0
M  V30 965 C 86.5489 -4.12255 0.995312 0
M  V30 966 N 86.9399 -4.56997 2.16765 0
M  V30 967 C 85.2379 -4.38316 0.824336 0
M  V30 968 C 85.9389 -5.10239 2.7934 0
M  V30 969 N 84.9149 -5.02595 2.07122 0
M  V30 970 H 88.7169 -2.5149 1.52086 0
M  V30 971 H 86.2309 -1.33491 0.924868 0
M  V30 972 H 88.2279 -4.15693 -0.316965 0
M  V30 973 H 86.8879 -3.1249 -0.882033 0
M  V30 974 H 87.8989 -4.51006 2.54587 0
M  V30 975 H 84.5759 -4.17498 -0.0129526 0
M  V30 976 H 85.9659 -5.54961 3.78772 0
M  V30 977 N 88.686 -0.835752 -1.33615 0
M  V30 978 C 89.634 -0.255238 -2.31195 0
M  V30 979 C 90.628 0.61107 -1.57995 0
M  V30 980 O 91.834 0.500979 -1.72888 0
M  V30 981 H 88.209 -0.0638085 -0.749288 0
M  V30 982 H 90.18 -1.09283 -2.77669 0
M  V30 983 C 88.929 0.55754 -3.43201 0
M  V30 984 H 88.252 -0.0997553 -3.99676 0
M  V30 985 H 89.692 0.929622 -4.13683 0
M  V30 986 C 88.151 1.73515 -2.88781 0
M  V30 987 O 88.681 2.83376 -2.84712 0
M  V30 988 N 86.887 1.55603 -2.4543 0
M  V30 989 H 86.434 0.662354 -2.48939 0
M  V30 990 H 86.392 2.34545 -2.09371 0
M  V30 991 N 90.1641 1.46063 -0.591896 0
M  V30 992 C 91.5751 1.85944 -0.167822 0
M  V30 993 C 91.9261 1.49429 1.27143 0
M  V30 994 O 91.0511 0.913515 1.96173 0
M  V30 995 C 91.6461 3.37489 -0.297794 0
M  V30 996 C 90.2051 3.76332 0.0714732 0
M  V30 997 C 89.3521 2.7006 -0.629509 0
M  V30 998 H 92.3031 1.37087 -0.799555 0
M  V30 999 H 92.3241 3.77532 0.474349 0
M  V30 1000 H 91.8361 3.64034 -1.3454 0
M  V30 1001 H 89.9371 3.55405 1.11886 0
M  V30 1002 H 90.0501 4.78088 -0.311245 0
M  V30 1003 H 88.4141 2.54607 -0.0687867 0
M  V30 1004 H 89.1971 2.99444 -1.67894 0
M  V30 1005 N 91.6422 0.330177 1.54103 0
M  V30 1006 C 92.5522 -0.541534 2.28264 0
M  V30 1007 C 93.5682 -1.12351 1.32866 0
M  V30 1008 O 94.7442 -1.14206 1.65888 0
M  V30 1009 C 91.8092 -1.68322 3.03098 0
M  V30 1010 C 90.8702 -1.13238 4.14096 0
M  V30 1011 C 90.1032 -2.21966 4.85352 0
M  V30 1012 O 90.3262 -3.42437 4.56172 0
M  V30 1013 O 89.2602 -1.87013 5.7211 0
M  V30 1014 H 93.0862 0.060938 3.03639 0
M  V30 1015 H 90.6712 0.09565 1.49093 0
M  V30 1016 H 92.5532 -2.34777 3.49939 0
M  V30 1017 H 91.2282 -2.27176 2.30593 0
M  V30 1018 H 90.1352 -0.432736 3.71589 0
M  V30 1019 H 91.4682 -0.588898 4.88664 0
M  V30 1020 N 93.1203 -1.57491 0.0584922 0
M  V30 1021 C 94.3503 -1.9701 -0.622134 0
M  V30 1022 C 94.7583 -0.935034 -1.6448 0
M  V30 1023 O 94.1013 0.0882904 -1.83488 0
M  V30 1024 C 94.1633 -3.32794 -1.35972 0
M  V30 1025 C 93.8273 -4.54343 -0.492043 0
M  V30 1026 C 94.8243 -5.19323 0.244901 0
M  V30 1027 C 92.5093 -5.00534 -0.420821 0
M  V30 1028 C 94.5033 -6.28835 1.04143 0
M  V30 1029 C 92.1903 -6.09921 0.379389 0
M  V30 1030 C 93.1883 -6.73933 1.10919 0
M  V30 1031 O 92.8763 -7.81216 1.89623 0
M  V30 1032 H 92.6083 -0.653127 -0.174359 0
M  V30 1033 H 95.1623 -2.05029 0.123418 0
M  V30 1034 H 93.3923 -3.21351 -2.15105 0
M  V30 1035 H 95.0813 -3.5701 -1.93129 0
M  V30 1036 H 95.8473 -4.8459 0.19939 0
M  V30 1037 H 91.7263 -4.50496 -0.978474 0
M  V30 1038 H 95.2703 -6.7873 1.61157 0
M  V30 1039 H 91.1673 -6.44089 0.426512 0
M  V30 1040 H 91.9353 -7.98029 1.81913 0
M  V30 1041 N 94.5984 0.214957 -1.56127 0
M  V30 1042 C 95.5464 1.28601 -1.93816 0
M  V30 1043 C 96.5404 1.48175 -0.821016 0
M  V30 1044 O 97.7464 1.49271 -1.0059 0
M  V30 1045 H 94.1214 0.431302 -0.616022 0
M  V30 1046 H 96.0924 0.940991 -2.83175 0
M  V30 1047 C 94.8414 2.62779 -2.27689 0
M  V30 1048 H 94.1644 2.48527 -3.13168 0
M  V30 1049 H 95.6044 3.36517 -2.57939 0
M  V30 1050 C 94.0634 3.18285 -1.10436 0
M  V30 1051 O 94.5934 4.00002 -0.368945 0
M  V30 1052 N 92.7994 2.7675 -0.886433 0
M  V30 1053 H 92.3464 2.10404 -1.48619 0
M  V30 1054 H 92.3044 3.14229 -0.103656 0
M  V30 1055 N 96.0765 1.50051 0.48192 0
M  V30 1056 C 97.0235 1.68122 1.58125 0
M  V30 1057 C 97.9935 0.522545 1.57666 0
M  V30 1058 O 99.1785 0.751844 1.75362 0
M  V30 1059 C 96.3185 1.77142 2.96167 0
M  V30 1060 C 95.4315 3.0444 3.06497 0
M  V30 1061 C 94.5665 3.04321 4.35387 0
M  V30 1062 C 93.6055 4.26118 4.3942 0
M  V30 1063 N 92.7425 4.238 5.59766 0
M  V30 1064 H 97.5825 2.6198 1.42022 0
M  V30 1065 H 95.1195 1.29877 0.690687 0
M  V30 1066 H 97.0775 1.80352 3.76203 0
M  V30 1067 H 95.7075 0.867329 3.1093 0
M  V30 1068 H 94.7595 3.10752 2.19402 0
M  V30 1069 H 96.0715 3.94426 3.05336 0
M  V30 1070 H 95.2255 3.062 5.23762 0
M  V30 1071 H 93.9645 2.12147 4.39141 0
M  V30 1072 H 92.9695 4.24463 3.49444 0
M  V30 1073 H 94.1945 5.19507 4.37366 0
M  V30 1074 H 92.1405 3.34474 5.64326 0
M  V30 1075 H 92.0575 5.07542 5.60301 0
M  V30 1076 H 93.3255 4.2981 6.50295 0
M  V30 1077 N 97.5546 -0.734337 1.39446 0
M  V30 1078 C 98.5026 -1.86971 1.38364 0
M  V30 1079 C 99.4966 -1.67288 0.266687 0
M  V30 1080 O 100.703 -1.74621 0.436755 0
M  V30 1081 H 97.0776 -0.615474 0.432082 0
M  V30 1082 H 99.0486 -1.85 2.34132 0
M  V30 1083 C 97.7976 -3.2466 1.24465 0
M  V30 1084 H 97.1206 -3.40402 2.09682 0
M  V30 1085 H 98.5606 -4.04292 1.27764 0
M  V30 1086 C 97.0196 -3.36867 -0.0468674 0
M  V30 1087 O 97.5496 -3.88618 -1.01681 0
M  V30 1088 N 95.7556 -2.90391 -0.110145 0
M  V30 1089 H 95.3026 -2.48466 0.679868 0
M  V30 1090 H 95.2606 -2.98939 -0.973799 0
M  V30 1091 N 99.0327 -1.24633 -0.964593 0
M  V30 1092 C 100.261 -1.11501 -1.74285 0
M  V30 1093 C 100.676 0.332165 -1.85855 0
M  V30 1094 O 100.033 1.22903 -1.34911 0
M  V30 1095 C 100.084 -1.75258 -3.16175 0
M  V30 1096 O 99.8047 -3.14318 -3.05182 0
M  V30 1097 C 101.306 -1.67776 -4.10324 0
M  V30 1098 H 98.5257 -0.389407 -0.546446 0
M  V30 1099 H 101.07 -1.64801 -1.21083 0
M  V30 1100 H 99.2247 -1.25954 -3.66353 0
M  V30 1101 H 99.6387 -3.4551 -3.94618 0
M  V30 1102 H 101.113 -2.17064 -5.0753 0
M  V30 1103 H 101.59 -0.639584 -4.34518 0
M  V30 1104 H 102.196 -2.16522 -3.66058 0
M  V30 1105 N 100.511 1.16574 -1.06058 0
M  V30 1106 C 101.736 1.91493 -0.796562 0
M  V30 1107 C 102.161 1.76773 0.642868 0
M  V30 1108 O 101.519 1.09142 1.44768 0
M  V30 1109 C 101.567 3.40293 -1.19303 0
M  V30 1110 O 100.671 4.11074 -0.330394 0
M  V30 1111 H 100.012 0.596678 -0.291326 0
M  V30 1112 H 102.542 1.47708 -1.41575 0
M  V30 1113 H 102.552 3.91057 -1.16356 0
M  V30 1114 H 101.227 3.50326 -2.24153 0
M  V30 1115 H 99.8038 3.70513 -0.421225 0
M  V30 1116 N 101.989 0.842826 1.3317 0
M  V30 1117 C 102.936 0.276885 2.29133 0
M  V30 1118 C 103.906 -0.609527 1.54512 0
M  V30 1119 O 105.091 -0.546955 1.82792 0
M  V30 1120 C 102.231 -0.538707 3.40869 0
M  V30 1121 C 101.344 0.372169 4.30394 0
M  V30 1122 C 100.479 -0.454908 5.29249 0
M  V30 1123 C 99.5179 0.45411 6.10413 0
M  V30 1124 N 98.6549 -0.335075 7.013 0
M  V30 1125 H 103.495 1.10052 2.76934 0
M  V30 1126 H 101.032 0.554161 1.36262 0
M  V30 1127 H 102.99 -1.02709 4.0436 0
M  V30 1128 H 101.62 -1.32727 2.9425 0
M  V30 1129 H 100.672 0.97888 3.6759 0
M  V30 1130 H 101.984 1.0703 4.87182 0
M  V30 1131 H 101.138 -1.00695 5.98285 0
M  V30 1132 H 99.8769 -1.18646 4.73048 0
M  V30 1133 H 98.8819 1.01813 5.40291 0
M  V30 1134 H 100.107 1.18409 6.68697 0
M  V30 1135 H 98.0529 -1.04994 6.47543 0
M  V30 1136 H 97.9699 0.304262 7.55387 0
M  V30 1137 H 99.2379 -0.869224 7.74638 0
M  V30 1138 N 103.467 -1.45747 0.599634 0
M  V30 1139 C 104.714 -2.02292 0.0917284 0
M  V30 1140 C 105.042 -1.46906 -1.27472 0
M  V30 1141 O 104.297 -0.630652 -1.8526 0
M  V30 1142 C 104.596 -3.57399 -0.00602758 0
M  V30 1143 C 104.262 -4.31902 1.29503 0
M  V30 1144 C 102.924 -4.51974 1.65144 0
M  V30 1145 C 105.276 -4.74551 2.15525 0
M  V30 1146 C 102.604 -5.11949 2.86574 0
M  V30 1147 C 104.956 -5.35868 3.36196 0
M  V30 1148 C 103.62 -5.54165 3.72099 0
M  V30 1149 H 102.89 -0.740239 0.0335658 0
M  V30 1150 H 105.537 -1.7491 0.779661 0
M  V30 1151 H 103.842 -3.84014 -0.777183 0
M  V30 1152 H 105.539 -3.98846 -0.415038 0
M  V30 1153 H 102.129 -4.16588 1.00761 0
M  V30 1154 H 106.313 -4.58784 1.8929 0
M  V30 1155 H 101.569 -5.24305 3.14507 0
M  V30 1156 H 105.743 -5.6787 4.03109 0
M  V30 1157 H 103.37 -6.00406 4.6628 0
M  V30 1158 N 104.945 -0.338344 -1.53925 0
M  V30 1159 C 106.222 0.314774 -1.93051 0
M  V30 1160 C 106.602 1.68669 -1.26941 0
M  V30 1161 O 105.95 2.24636 -0.418445 0
M  V30 1162 C 106.16 0.392249 -3.46789 0
M  V30 1163 C 107.508 0.645554 -4.19664 0
M  V30 1164 O 108.532 0.474575 -3.53024 0
M  V30 1165 O 107.391 0.976408 -5.37707 0
M  V30 1166 H 104.485 0.182598 -0.80659 0
M  V30 1167 H 107.031 -0.389141 -1.65178 0
M  V30 1168 H 105.803 -0.570702 -3.87116 0
M  V30 1169 H 105.426 1.14316 -3.80812 0
M  V30 1170 N 106.423 1.57458 -0.0668435 0
M  V30 1171 C 107.671 1.92919 0.602214 0
M  V30 1172 C 107.992 0.947215 1.70449 0
M  V30 1173 O 107.262 -0.00544117 1.95899 0
M  V30 1174 H 105.842 0.71217 0.22544 0
M  V30 1175 H 108.504 1.94508 -0.123535 0
M  V30 1176 H 107.6 2.94589 1.03073 0
M  V30 1177 N 107.901 -0.206675 1.56239 0
M  V30 1178 C 109.129 -0.945345 1.8404 0
M  V30 1179 C 109.544 -1.77336 0.647885 0
M  V30 1180 O 108.901 -1.78425 -0.383511 0
M  V30 1181 C 108.952 -1.8509 3.10522 0
M  V30 1182 O 108.673 -1.05634 4.25174 0
M  V30 1183 C 110.174 -2.70222 3.51418 0
M  V30 1184 H 107.394 -0.276372 0.61144 0
M  V30 1185 H 109.938 -0.217417 2.03341 0
M  V30 1186 H 108.093 -2.53259 2.93153 0
M  V30 1187 H 108.507 -1.67238 4.97124 0
M  V30 1188 H 109.981 -3.29438 4.42916 0
M  V30 1189 H 110.458 -3.43358 2.73864 0
M  V30 1190 H 111.064 -2.07443 3.71278 0
M  V30 1191 N 109.379 -1.50304 -0.473955 0
M  V30 1192 C 110.795 -1.37667 -0.807466 0
M  V30 1193 C 110.995 -0.430555 -1.96846 0
M  V30 1194 O 110.051 0.127874 -2.52176 0
M  V30 1195 C 111.364 -2.78974 -1.12223 0
M  V30 1196 C 112.912 -2.87868 -1.22885 0
M  V30 1197 C 113.387 -4.30003 -1.57676 0
M  V30 1198 N 114.878 -4.3294 -1.64673 0
M  V30 1199 C 115.613 -5.3991 -1.93091 0
M  V30 1200 N 115.109 -6.57092 -2.1955 0
M  V30 1201 N 116.902 -5.27351 -1.94569 0
M  V30 1202 H 109.053 -2.10394 0.291212 0
M  V30 1203 H 111.316 -0.945575 0.0677609 0
M  V30 1204 H 111.022 -3.50031 -0.342229 0
M  V30 1205 H 110.896 -3.16038 -2.05913 0
M  V30 1206 H 113.283 -2.17032 -1.99953 0
M  V30 1207 H 113.364 -2.54352 -0.271814 0
M  V30 1208 H 113.008 -5.01375 -0.81149 0
M  V30 1209 H 112.938 -4.61004 -2.54525 0
M  V30 1210 H 115.429 -3.48441 -1.46277 0
M  V30 1211 H 115.742 -7.34425 -2.405 0
M  V30 1212 H 114.087 -6.60272 -2.16948 0
M  V30 1213 H 117.278 -4.34801 -1.73394 0
M  V30 1214 H 117.451 -6.10805 -2.16381 0
M  V30 1215 N 110.857 0.726932 -1.39834 0
M  V30 1216 C 111.787 1.85405 -1.41941 0
M  V30 1217 C 112.768 1.67751 -0.281728 0
M  V30 1218 O 113.953 1.8795 -0.488717 0
M  V30 1219 C 111.083 3.23243 -1.2701 0
M  V30 1220 C 110.037 3.55549 -2.38262 0
M  V30 1221 C 109.363 4.9241 -2.08415 0
M  V30 1222 C 110.663 3.577 -3.80589 0
M  V30 1223 H 112.357 1.83899 -2.36266 0
M  V30 1224 H 109.903 0.883349 -1.13723 0
M  V30 1225 H 111.856 4.01775 -1.27103 0
M  V30 1226 H 110.58 3.25296 -0.291564 0
M  V30 1227 H 109.239 2.79351 -2.37399 0
M  V30 1228 H 108.887 4.91052 -1.0898 0
M  V30 1229 H 108.587 5.14992 -2.82943 0
M  V30 1230 H 110.111 5.73289 -2.10171 0
M  V30 1231 H 111.525 4.26293 -3.83337 0
M  V30 1232 H 109.922 3.91804 -4.54543 0
M  V30 1233 H 110.992 2.57328 -4.10987 0
M  V30 1234 N 112.336 1.25143 0.95797 0
M  V30 1235 C 113.566 1.12261 1.73439 0
M  V30 1236 C 113.974 -0.326715 1.86358 0
M  V30 1237 O 113.317 -1.2367 1.35836 0
M  V30 1238 C 113.379 1.69966 3.16784 0
M  V30 1239 C 113.043 3.18936 3.27305 0
M  V30 1240 C 114.04 4.15968 3.11877 0
M  V30 1241 C 111.725 3.59083 3.51234 0
M  V30 1242 C 113.719 5.51126 3.20217 0
M  V30 1243 C 111.406 4.9438 3.5921 0
M  V30 1244 C 112.404 5.90211 3.43716 0
M  V30 1245 O 112.092 7.23046 3.51368 0
M  V30 1246 H 111.824 0.392476 0.550399 0
M  V30 1247 H 114.378 1.65927 1.21068 0
M  V30 1248 H 112.608 1.10744 3.70503 0
M  V30 1249 H 114.297 1.52232 3.76272 0
M  V30 1250 H 115.063 3.86292 2.93264 0
M  V30 1251 H 110.942 2.84989 3.62356 0
M  V30 1252 H 114.486 6.25905 3.0804 0
M  V30 1253 H 110.383 5.23723 3.77339 0
M  V30 1254 H 111.151 7.31097 3.6802 0
M  V30 1255 N 113.814 -1.1601 1.06675 0
M  V30 1256 C 114.724 -2.24156 0.692179 0
M  V30 1257 C 115.74 -1.71507 -0.293513 0
M  V30 1258 O 116.916 -2.009 -0.141861 0
M  V30 1259 C 113.981 -3.46587 0.0884131 0
M  V30 1260 C 113.042 -4.14257 1.12646 0
M  V30 1261 C 112.275 -5.30844 0.551416 0
M  V30 1262 O 112.498 -5.66858 -0.634656 0
M  V30 1263 O 111.432 -5.87848 1.29298 0
M  V30 1264 H 115.258 -2.58513 1.59388 0
M  V30 1265 H 112.843 -1.23599 0.83926 0
M  V30 1266 H 114.725 -4.20679 -0.246361 0
M  V30 1267 H 113.4 -3.13994 -0.786712 0
M  V30 1268 H 112.307 -3.42118 1.51348 0
M  V30 1269 H 113.64 -4.50914 1.97325 0
M  V30 1270 N 115.292 -0.849877 -1.32721 0
M  V30 1271 C 116.517 -0.463856 -2.02146 0
M  V30 1272 C 116.942 0.930449 -1.63476 0
M  V30 1273 O 116.3 1.61033 -0.832952 0
M  V30 1274 C 116.348 -0.604955 -3.55489 0
M  V30 1275 O 115.452 0.36425 -4.10788 0
M  V30 1276 H 114.793 -0.187046 -0.637111 0
M  V30 1277 H 117.323 -1.14775 -1.69375 0
M  V30 1278 H 117.333 -0.490696 -4.05038 0
M  V30 1279 H 116.008 -1.62174 -3.82978 0
M  V30 1280 H 114.585 0.206628 -3.72327 0
M  V30 1281 N 116.77 1.45427 -0.607355 0
M  V30 1282 C 117.998 2.06614 -0.108814 0
M  V30 1283 C 118.413 1.45204 1.2067 0
M  V30 1284 O 117.77 0.566132 1.73497 0
M  V30 1285 C 117.821 3.61481 0.0375347 0
M  V30 1286 O 117.542 4.20598 -1.22593 0
M  V30 1287 C 119.043 4.39652 0.567561 0
M  V30 1288 H 116.263 0.66747 -0.0687351 0
M  V30 1289 H 118.807 1.86675 -0.835022 0
M  V30 1290 H 116.962 3.80762 0.714068 0
M  V30 1291 H 117.376 5.1377 -1.05547 0
M  V30 1292 H 118.85 5.48518 0.61905 0
M  V30 1293 H 119.327 4.09417 1.58978 0
M  V30 1294 H 119.933 4.25234 -0.0749202 0
M  V30 1295 N 118.248 0.346503 1.53744 0
M  V30 1296 C 119.195 -0.508914 2.25119 0
M  V30 1297 C 120.165 -1.09315 1.25058 0
M  V30 1298 O 121.35 -1.12921 1.53797 0
M  V30 1299 C 118.49 -1.65246 3.02965 0
M  V30 1300 C 117.603 -1.09525 4.17886 0
M  V30 1301 C 116.738 -2.20634 4.83212 0
M  V30 1302 C 115.777 -1.62279 5.90196 0
M  V30 1303 N 114.914 -2.67143 6.49291 0
M  V30 1304 H 119.754 0.106283 2.9781 0
M  V30 1305 H 117.291 0.0642227 1.4696 0
M  V30 1306 H 119.249 -2.32574 3.4636 0
M  V30 1307 H 117.879 -2.2386 2.32565 0
M  V30 1308 H 116.931 -0.312818 3.79112 0
M  V30 1309 H 118.243 -0.628444 4.94825 0
M  V30 1310 H 117.397 -2.95821 5.29693 0
M  V30 1311 H 116.136 -2.70659 4.05703 0
M  V30 1312 H 115.141 -0.855989 5.43096 0
M  V30 1313 H 116.366 -1.13102 6.69615 0
M  V30 1314 H 114.312 -3.16417 5.74645 0
M  V30 1315 H 114.229 -2.25093 7.21713 0
M  V30 1316 H 115.497 -3.4209 7.00425 0
M  V30 1317 N 119.726 -1.57421 0.075193 0
M  V30 1318 C 121.003 -1.85029 -0.634329 0
M  V30 1319 C 121.383 -0.968305 -1.87582 0
M  V30 1320 O 120.731 -0.0354749 -2.28472 0
M  V30 1321 C 120.941 -3.35286 -0.968742 0
M  V30 1322 C 122.289 -4.02875 -1.34077 0
M  V30 1323 O 123.313 -3.40051 -1.06037 0
M  V30 1324 O 122.172 -5.13691 -1.86506 0
M  V30 1325 H 119.266 -0.7645 -0.315387 0
M  V30 1326 H 121.812 -1.69366 0.106382 0
M  V30 1327 H 120.584 -3.91203 -0.0871376 0
M  V30 1328 H 120.207 -3.56223 -1.7661 0
M  V30 1329 N 121.204 0.198386 -1.56346 0
M  V30 1330 C 122.452 0.91747 -1.80075 0
M  V30 1331 C 122.773 1.83929 -0.647692 0
M  V30 1332 O 122.043 1.93029 0.334166 0
M  V30 1333 H 120.623 0.341774 -0.664228 0
M  V30 1334 H 123.285 0.204684 -1.93822 0
M  V30 1335 H 122.381 1.51055 -2.7311 0
M  V30 1336 N 122.682 1.50554 0.465978 0
M  V30 1337 C 123.629 1.6979 1.56333 0
M  V30 1338 C 124.599 0.539239 1.57103 0
M  V30 1339 O 125.784 0.770401 1.74555 0
M  V30 1340 C 122.924 1.80273 2.94271 0
M  V30 1341 C 122.037 3.07674 3.0325 0
M  V30 1342 C 121.172 3.08922 4.32135 0
M  V30 1343 C 120.211 4.30755 4.34875 0
M  V30 1344 N 119.348 4.29714 5.55239 0
M  V30 1345 H 124.188 2.63472 1.39235 0
M  V30 1346 H 121.725 1.30602 0.676873 0
M  V30 1347 H 123.683 1.84332 3.74269 0
M  V30 1348 H 122.313 0.900258 3.09992 0
M  V30 1349 H 121.365 3.13062 2.16094 0
M  V30 1350 H 122.677 3.97642 3.01135 0
M  V30 1351 H 121.831 3.11738 5.20485 0
M  V30 1352 H 120.57 2.16792 4.36866 0
M  V30 1353 H 119.575 4.28146 3.44922 0
M  V30 1354 H 120.8 5.24117 4.31831 0
M  V30 1355 H 118.746 3.4044 5.60746 0
M  V30 1356 H 118.663 5.13456 5.54886 0
M  V30 1357 H 119.931 4.36683 6.457 0
M  V30 1358 N 124.16 -0.719506 1.40217 0
M  V30 1359 C 125.406 -1.48152 1.38488 0
M  V30 1360 C 125.739 -1.94195 -0.0141867 0
M  V30 1361 O 125.014 -1.67884 -0.982096 0
M  V30 1362 C 125.297 -2.71035 2.37091 0
M  V30 1363 C 125.15 -2.30912 3.86005 0
M  V30 1364 C 126.469 -3.73182 2.33288 0
M  V30 1365 H 123.588 -0.537395 0.504357 0
M  V30 1366 H 126.23 -0.821472 1.71324 0
M  V30 1367 H 124.38 -3.27352 2.0922 0
M  V30 1368 H 126.052 -1.80107 4.24687 0
M  V30 1369 H 124.295 -1.62958 4.02029 0
M  V30 1370 H 124.966 -3.18978 4.50508 0
M  V30 1371 H 127.442 -3.26485 2.57966 0
M  V30 1372 H 126.318 -4.56806 3.04334 0
M  V30 1373 H 126.579 -4.21202 1.34317 0
M  V30 1374 N 125.638 -1.25649 -0.95132 0
M  V30 1375 C 127.049 -1.09654 -1.51106 0
M  V30 1376 C 127.4 0.326615 -1.93462 0
M  V30 1377 O 126.525 1.21697 -1.78938 0
M  V30 1378 C 127.12 -1.98437 -2.74605 0
M  V30 1379 C 125.679 -1.86618 -3.2688 0
M  V30 1380 C 124.826 -1.9239 -1.99703 0
M  V30 1381 H 127.777 -1.38887 -0.767865 0
M  V30 1382 H 127.798 -1.5263 -3.48546 0
M  V30 1383 H 127.31 -3.02009 -2.43746 0
M  V30 1384 H 125.411 -0.859421 -3.62553 0
M  V30 1385 H 125.524 -2.71607 -3.94673 0
M  V30 1386 H 123.888 -1.36317 -2.15151 0
M  V30 1387 H 124.671 -2.97573 -1.71188 0
M  V30 1388 N 127.117 1.15442 -1.07289 0
M  V30 1389 C 128.342 1.90638 -0.816828 0
M  V30 1390 C 128.767 1.77445 0.624083 0
M  V30 1391 O 128.125 1.10671 1.43602 0
M  V30 1392 C 128.173 3.39008 -1.22906 0
M  V30 1393 O 127.277 4.10701 -0.373975 0
M  V30 1394 H 126.618 0.593555 -0.297638 0
M  V30 1395 H 129.148 1.46198 -1.43134 0
M  V30 1396 H 129.158 3.89801 -1.20497 0
M  V30 1397 H 127.833 3.47929 -2.27856 0
M  V30 1398 H 126.41 3.70046 -0.460499 0
M  V30 1399 N 128.595 0.856903 1.32268 0
M  V30 1400 C 129.505 0.306131 2.32594 0
M  V30 1401 C 130.521 -0.577209 1.64147 0
M  V30 1402 O 131.697 -0.477043 1.95669 0
M  V30 1403 C 128.762 -0.494561 3.43154 0
M  V30 1404 C 127.823 0.415186 4.27288 0
M  V30 1405 C 127.056 -0.347387 5.32568 0
M  V30 1406 O 127.279 -1.57708 5.48165 0
M  V30 1407 O 126.213 0.287982 6.01211 0
M  V30 1408 H 130.039 1.13737 2.81598 0
M  V30 1409 H 127.624 0.619902 1.35932 0
M  V30 1410 H 129.506 -0.948944 4.10576 0
M  V30 1411 H 128.181 -1.30257 2.96336 0
M  V30 1412 H 127.088 0.917793 3.62667 0
M  V30 1413 H 128.421 1.18844 4.77637 0
M  V30 1414 N 130.073 -1.45103 0.615059 0
M  V30 1415 C 131.005 -2.28786 -0.13762 0
M  V30 1416 C 132.018 -1.40376 -0.824525 0
M  V30 1417 O 133.207 -1.64681 -0.688662 0
M  V30 1418 C 130.307 -3.16322 -1.21628 0
M  V30 1419 C 129.48 -4.33054 -0.615039 0
M  V30 1420 C 128.539 -5.01743 -1.58556 0
M  V30 1421 O 127.565 -5.58293 -1.10895 0
M  V30 1422 N 128.767 -5.01714 -2.91998 0
M  V30 1423 H 131.532 -2.94025 0.580483 0
M  V30 1424 H 129.093 -1.55373 0.45507 0
M  V30 1425 H 131.085 -3.59139 -1.86552 0
M  V30 1426 H 129.655 -2.52943 -1.83681 0
M  V30 1427 H 128.875 -3.93627 0.21245 0
M  V30 1428 H 130.163 -5.08431 -0.193704 0
M  V30 1429 H 129.561 -4.57075 -3.33316 0
M  V30 1430 H 128.118 -5.48371 -3.52325 0
M  V30 1431 N 131.551 -0.354651 -1.53558 0
M  V30 1432 C 132.498 0.496968 -2.25386 0
M  V30 1433 C 133.468 1.0865 -1.25636 0
M  V30 1434 O 134.653 1.12104 -1.54394 0
M  V30 1435 C 131.793 1.63637 -3.03837 0
M  V30 1436 C 130.906 1.07307 -4.18461 0
M  V30 1437 C 130.041 2.18068 -4.84376 0
M  V30 1438 C 129.08 1.59147 -5.91049 0
M  V30 1439 N 128.217 2.63695 -6.50699 0
M  V30 1440 H 133.057 -0.122075 -2.9775 0
M  V30 1441 H 130.594 -0.0720154 -1.46924 0
M  V30 1442 H 132.552 2.30734 -3.47589 0
M  V30 1443 H 131.182 2.22623 -2.33749 0
M  V30 1444 H 130.234 0.292708 -3.79272 0
M  V30 1445 H 131.546 0.602193 -4.95152 0
M  V30 1446 H 130.7 2.93007 -5.31255 0
M  V30 1447 H 129.439 2.68504 -4.07133 0
M  V30 1448 H 128.444 0.827175 -5.43542 0
M  V30 1449 H 129.669 1.09549 -6.70206 0
M  V30 1450 H 127.615 3.13365 -5.76315 0
M  V30 1451 H 127.532 2.21263 -7.22896 0
M  V30 1452 H 128.8 3.3837 -7.02229 0
M  V30 1453 N 133.029 1.57378 -0.0835403 0
M  V30 1454 C 134.445 1.57246 0.273109 0
M  V30 1455 C 134.645 1.09385 1.69225 0
M  V30 1456 O 133.701 0.765051 2.40631 0
M  V30 1457 C 135.014 3.00614 0.0720628 0
M  V30 1458 C 136.562 3.12684 0.1407 0
M  V30 1459 C 137.037 4.57989 -0.0322094 0
M  V30 1460 N 138.528 4.63194 0.0230085 0
M  V30 1461 C 139.263 5.73335 -0.0861941 0
M  V30 1462 N 138.759 6.9235 -0.24958 0
M  V30 1463 N 140.552 5.62093 -0.0282886 0
M  V30 1464 H 132.703 1.86801 -1.0109 0
M  V30 1465 H 134.966 0.861687 -0.395222 0
M  V30 1466 H 134.672 3.39786 -0.907662 0
M  V30 1467 H 134.546 3.68193 0.81936 0
M  V30 1468 H 136.933 2.73391 1.11092 0
M  V30 1469 H 137.014 2.47719 -0.637896 0
M  V30 1470 H 136.658 4.97973 -0.999247 0
M  V30 1471 H 136.588 5.21 0.765937 0
M  V30 1472 H 139.079 3.77613 0.14722 0
M  V30 1473 H 139.392 7.72117 -0.324733 0
M  V30 1474 H 137.737 6.94415 -0.285097 0
M  V30 1475 H 140.928 4.67997 0.0981408 0
M  V30 1476 H 141.101 6.47895 -0.116845 0
M  V30 1477 N 134.507 -0.190092 1.56449 0
M  V30 1478 C 135.753 -0.911052 1.81184 0
M  V30 1479 C 136.086 -1.82699 0.658396 0
M  V30 1480 O 135.361 -1.91491 -0.340775 0
M  V30 1481 C 135.644 -1.72297 3.16205 0
M  V30 1482 C 135.497 -0.831419 4.42049 0
M  V30 1483 C 136.816 -2.69454 3.47969 0
M  V30 1484 H 133.935 -0.32977 0.659106 0
M  V30 1485 H 136.577 -0.178169 1.89163 0
M  V30 1486 H 134.727 -2.34778 3.09534 0
M  V30 1487 H 136.399 -0.220929 4.60771 0
M  V30 1488 H 134.642 -0.138406 4.33579 0
M  V30 1489 H 135.313 -1.43461 5.33032 0
M  V30 1490 H 137.789 -2.17104 3.54972 0
M  V30 1491 H 136.665 -3.23342 4.43555 0
M  V30 1492 H 136.926 -3.48744 2.71717 0
M  V30 1493 N 135.985 -1.50799 -0.457987 0
M  V30 1494 C 136.917 -1.66786 -1.57211 0
M  V30 1495 C 137.93 -0.548962 -1.53265 0
M  V30 1496 O 139.119 -0.8226 -1.58416 0
M  V30 1497 C 136.219 -1.64834 -2.96113 0
M  V30 1498 C 135.392 -2.92971 -3.24787 0
M  V30 1499 C 134.451 -2.83485 -4.43309 0
M  V30 1500 O 133.477 -3.5744 -4.42973 0
M  V30 1501 N 134.679 -1.97929 -5.45714 0
M  V30 1502 H 137.444 -2.62889 -1.43909 0
M  V30 1503 H 135.005 -1.48427 -0.646617 0
M  V30 1504 H 136.997 -1.56084 -3.7339 0
M  V30 1505 H 135.567 -0.764118 -3.03117 0
M  V30 1506 H 134.787 -3.15749 -2.36 0
M  V30 1507 H 136.075 -3.77834 -3.40762 0
M  V30 1508 H 135.473 -1.37182 -5.48815 0
M  V30 1509 H 134.03 -1.95073 -6.21924 0
M  V30 1510 N 137.463 0.71206 -1.40597 0
M  V30 1511 C 138.71 1.47197 -1.39065 0
M  V30 1512 C 139.038 1.94499 0.00583891 0
M  V30 1513 O 138.293 1.68752 0.99102 0
M  V30 1514 C 138.592 2.71039 -2.32965 0
M  V30 1515 C 138.258 2.42484 -3.80148 0
M  V30 1516 C 136.92 2.34406 -4.20247 0
M  V30 1517 C 139.272 2.18598 -4.73143 0
M  V30 1518 C 136.6 2.00516 -5.51371 0
M  V30 1519 C 138.952 1.8622 -6.0457 0
M  V30 1520 C 137.616 1.76626 -6.43708 0
M  V30 1521 H 136.886 0.538634 -0.508876 0
M  V30 1522 H 139.533 0.815325 -1.73276 0
M  V30 1523 H 137.838 3.41558 -1.91951 0
M  V30 1524 H 139.535 3.29138 -2.29061 0
M  V30 1525 H 136.125 2.49659 -3.4838 0
M  V30 1526 H 140.309 2.23793 -4.42979 0
M  V30 1527 H 135.565 1.91628 -5.80593 0
M  V30 1528 H 139.739 1.66752 -6.76141 0
M  V30 1529 H 137.366 1.50133 -7.45228 0
M  V30 1530 N 138.941 1.26152 0.944643 0
M  V30 1531 C 139.871 1.09902 2.06019 0
M  V30 1532 C 140.852 0.00519538 1.70099 0
M  V30 1533 O 142.037 0.176583 1.93396 0
M  V30 1534 C 139.167 0.727562 3.39594 0
M  V30 1535 C 138.121 1.77274 3.89561 0
M  V30 1536 C 137.447 1.25569 5.19747 0
M  V30 1537 C 138.747 3.17357 4.14827 0
M  V30 1538 H 140.441 2.03217 2.19871 0
M  V30 1539 H 137.987 0.978452 1.05652 0
M  V30 1540 H 139.94 0.600777 4.17095 0
M  V30 1541 H 138.664 -0.241287 3.25707 0
M  V30 1542 H 137.323 1.88814 3.14237 0
M  V30 1543 H 136.971 0.276783 5.02238 0
M  V30 1544 H 136.671 1.95433 5.54148 0
M  V30 1545 H 138.195 1.1415 5.99835 0
M  V30 1546 H 139.609 3.08914 4.82954 0
M  V30 1547 H 138.006 3.84781 4.60504 0
M  V30 1548 H 139.076 3.63673 3.20734 0
M  V30 1549 N 140.419 -1.14872 1.07899 0
M  V30 1550 C 141.667 -1.85422 0.803941 0
M  V30 1551 C 141.988 -1.83051 -0.67211 0
M  V30 1552 O 141.258 -1.27532 -1.48703 0
M  V30 1553 H 139.838 -0.686537 0.294408 0
M  V30 1554 H 142.5 -1.39226 1.3639 0
M  V30 1555 H 141.596 -2.90399 1.14346 0
M  V30 1556 N 141.898 -0.863906 -1.31812 0
M  V30 1557 C 143.175 -0.39275 -1.91616 0
M  V30 1558 C 143.555 1.12461 -1.7865 0
M  V30 1559 O 142.903 1.95045 -1.19037 0
M  V30 1560 C 143.113 -0.867385 -3.38049 0
M  V30 1561 C 144.461 -0.889966 -4.15168 0
M  V30 1562 O 145.485 -0.812635 -3.46806 0
M  V30 1563 O 144.344 -1.00079 -5.37258 0
M  V30 1564 H 141.438 -0.116358 -0.818773 0
M  V30 1565 H 143.984 -0.951418 -1.40521 0
M  V30 1566 H 142.756 -1.91081 -3.41473 0
M  V30 1567 H 142.379 -0.286687 -3.96565 0
M  V30 1568 N 143.376 1.44774 -0.622745 0
M  V30 1569 C 144.323 2.30635 0.0871679 0
M  V30 1570 C 145.293 1.42994 0.845097 0
M  V30 1571 O 146.478 1.71907 0.827812 0
M  V30 1572 C 143.618 3.28144 1.06844 0
M  V30 1573 C 142.731 4.30888 0.309809 0
M  V30 1574 C 141.866 5.15494 1.28215 0
M  V30 1575 C 140.905 6.09953 0.512198 0
M  V30 1576 N 140.042 6.87287 1.43458 0
M  V30 1577 H 144.882 2.90803 -0.650974 0
M  V30 1578 H 142.419 1.43286 -0.33281 0
M  V30 1579 H 144.377 3.83157 1.65066 0
M  V30 1580 H 143.007 2.69695 1.77382 0
M  V30 1581 H 142.059 3.78414 -0.388181 0
M  V30 1582 H 143.371 4.97955 -0.290254 0
M  V30 1583 H 142.525 5.74983 1.93596 0
M  V30 1584 H 141.264 4.48481 1.91614 0
M  V30 1585 H 140.269 5.49581 -0.155151 0
M  V30 1586 H 141.494 6.78999 -0.116958 0
M  V30 1587 H 139.44 6.2295 2.05594 0
M  V30 1588 H 139.357 7.50763 0.888335 0
M  V30 1589 H 140.625 7.51306 2.07749 0
M  V30 1590 N 144.854 0.36279 1.53368 0
M  V30 1591 C 145.802 -0.500155 2.27159 0
M  V30 1592 C 146.796 -1.08575 1.3003 0
M  V30 1593 O 148.002 -1.02927 1.47668 0
M  V30 1594 H 144.377 -0.180009 0.730138 0
M  V30 1595 H 146.348 0.14401 2.98052 0
M  V30 1596 C 145.097 -1.62937 3.07159 0
M  V30 1597 H 144.42 -1.18806 3.8174 0
M  V30 1598 H 145.86 -2.20795 3.61975 0
M  V30 1599 C 144.319 -2.57007 2.17829 0
M  V30 1600 O 144.849 -3.59752 1.78721 0
M  V30 1601 N 143.055 -2.26131 1.82518 0
M  V30 1602 H 142.602 -1.42616 2.14519 0
M  V30 1603 H 142.56 -2.89327 1.23034 0
M  V30 1604 N 146.332 -1.57332 0.0918853 0
M  V30 1605 C 147.279 -2.13847 -0.868211 0
M  V30 1606 C 148.249 -1.05618 -1.28196 0
M  V30 1607 O 149.434 -1.33387 -1.36427 0
M  V30 1608 C 146.574 -2.72062 -2.12312 0
M  V30 1609 C 145.687 -3.94514 -1.7602 0
M  V30 1610 C 144.822 -4.40903 -2.96273 0
M  V30 1611 C 143.861 -5.55953 -2.56092 0
M  V30 1612 N 142.998 -5.97209 -3.69169 0
M  V30 1613 H 147.838 -2.95575 -0.379406 0
M  V30 1614 H 145.375 -1.46048 -0.175606 0
M  V30 1615 H 147.333 -3.03931 -2.858 0
M  V30 1616 H 145.963 -1.93068 -2.58698 0
M  V30 1617 H 145.015 -3.68979 -0.925135 0
M  V30 1618 H 146.327 -4.7802 -1.42472 0
M  V30 1619 H 145.481 -4.74539 -3.78018 0
M  V30 1620 H 144.22 -3.56291 -3.33029 0
M  V30 1621 H 143.225 -5.21948 -1.72773 0
M  V30 1622 H 144.45 -6.42311 -2.20484 0
M  V30 1623 H 142.396 -5.15543 -4.05649 0
M  V30 1624 H 142.313 -6.75504 -3.39456 0
M  V30 1625 H 143.581 -6.35475 -4.51434 0
M  V30 1626 N 147.81 0.181792 -1.56548 0
M  V30 1627 C 148.758 1.24461 -1.965 0
M  V30 1628 C 149.752 1.464 -0.852261 0
M  V30 1629 O 150.958 1.47103 -1.03733 0
M  V30 1630 H 147.333 0.418138 -0.625031 0
M  V30 1631 H 149.304 0.880714 -2.85107 0
M  V30 1632 C 148.053 2.57891 -2.33212 0
M  V30 1633 H 147.376 2.41829 -3.18369 0
M  V30 1634 H 148.816 3.3097 -2.65019 0
M  V30 1635 C 147.275 3.15871 -1.17163 0
M  V30 1636 O 147.805 3.9913 -0.453708 0
M  V30 1637 N 146.011 2.74808 -0.944936 0
M  V30 1638 H 145.558 2.07205 -1.53049 0
M  V30 1639 H 145.516 3.13939 -0.170286 0
M  V30 1640 N 149.288 1.51039 0.449983 0
M  V30 1641 C 150.528 1.64732 1.21007 0
M  V30 1642 C 150.892 0.349865 1.88785 0
M  V30 1643 O 152.093 0.362431 2.66345 0
M  V30 1644 C 150.364 2.80902 2.20973 0
M  V30 1645 S 151.923 3.14851 3.05638 0
M  V30 1646 H 148.741 0.5805 0.410538 0
M  V30 1647 H 151.343 1.88901 0.503634 0
M  V30 1648 H 150.047 3.73627 1.69796 0
M  V30 1649 H 149.578 2.58882 2.96215 0
M  V30 1650 H 151.593 2.60306 4.22439 0
M  V30 1651 N 150.766 -0.704594 1.40972 0
M  V30 1652 C 151.994 -1.49354 1.43182 0
M  V30 1653 C 152.409 -1.88768 0.0345508 0
M  V30 1654 O 151.766 -1.56184 -0.944081 0
M  V30 1655 C 151.817 -2.76187 2.33244 0
M  V30 1656 O 151.538 -2.38436 3.67532 0
M  V30 1657 C 153.039 -3.7 2.44162 0
M  V30 1658 H 150.259 -0.460559 0.487982 0
M  V30 1659 H 152.803 -0.868261 1.85153 0
M  V30 1660 H 150.958 -3.34974 1.94606 0
M  V30 1661 H 151.372 -3.20126 4.15475 0
M  V30 1662 H 152.846 -4.55803 3.11364 0
M  V30 1663 H 153.323 -4.13867 1.47006 0
M  V30 1664 H 153.929 -3.17121 2.83398 0
M  V30 1665 N 152.244 -1.26651 -0.937939 0
M  V30 1666 C 153.174 -1.10993 -2.05433 0
M  V30 1667 C 154.155 -0.0142161 -1.70094 0
M  V30 1668 O 155.34 -0.186837 -1.93299 0
M  V30 1669 C 152.47 -0.745561 -3.39203 0
M  V30 1670 C 151.424 -1.79337 -3.88616 0
M  V30 1671 C 150.75 -1.28324 -5.19073 0
M  V30 1672 C 152.05 -3.19553 -4.13138 0
M  V30 1673 H 153.744 -2.0438 -2.1879 0
M  V30 1674 H 151.29 -0.984041 -1.05131 0
M  V30 1675 H 153.243 -0.622888 -4.16771 0
M  V30 1676 H 151.967 0.22401 -3.25831 0
M  V30 1677 H 150.626 -1.90477 -3.13231 0
M  V30 1678 H 150.274 -0.303414 -5.02084 0
M  V30 1679 H 149.974 -1.98369 -5.53103 0
M  V30 1680 H 151.498 -1.1733 -5.99221 0
M  V30 1681 H 152.912 -3.11471 -4.81309 0
M  V30 1682 H 151.309 -3.87218 -4.58457 0
M  V30 1683 H 152.379 -3.65368 -3.18801 0
M  V30 1684 N 153.722 1.14298 -1.08507 0
M  V30 1685 C 154.947 1.8976 -0.837001 0
M  V30 1686 C 155.372 1.78097 0.605228 0
M  V30 1687 O 154.73 1.12188 1.4242 0
M  V30 1688 C 154.778 3.37685 -1.26495 0
M  V30 1689 O 153.882 4.10281 -0.417514 0
M  V30 1690 H 153.223 0.590365 -0.303917 0
M  V30 1691 H 155.753 1.44672 -1.44676 0
M  V30 1692 H 155.763 3.88501 -1.24625 0
M  V30 1693 H 154.438 3.45492 -2.31534 0
M  V30 1694 H 153.015 3.69536 -0.499722 0
M  V30 1695 N 155.201 0.870884 1.31352 0
M  V30 1696 C 156.45 0.478408 1.95944 0
M  V30 1697 C 156.763 -0.974493 1.69597 0
M  V30 1698 O 157.969 -1.47316 2.28058 0
M  V30 1699 C 156.425 0.804609 3.50791 0
M  V30 1700 C 156.033 2.27433 3.85977 0
M  V30 1701 C 157.777 0.480648 4.2177 0
M  V30 1702 C 155.684 2.5429 5.33939 0
M  V30 1703 H 154.614 0.175175 0.733369 0
M  V30 1704 H 157.265 1.06391 1.4951 0
M  V30 1705 H 155.647 0.148347 3.95722 0
M  V30 1706 H 156.821 2.97373 3.52002 0
M  V30 1707 H 155.136 2.56442 3.28065 0
M  V30 1708 H 157.733 0.658519 5.30629 0
M  V30 1709 H 158.076 -0.578979 4.12254 0
M  V30 1710 H 158.609 1.09349 3.82476 0
M  V30 1711 H 155.348 3.58939 5.48491 0
M  V30 1712 H 154.868 1.88945 5.69263 0
M  V30 1713 H 156.547 2.39066 6.01212 0
M  V30 1714 N 156.679 -1.44442 0.630414 0
M  V30 1715 C 157.629 -2.27794 -0.0968103 0
M  V30 1716 C 158.613 -1.38624 -0.816834 0
M  V30 1717 O 159.805 -1.62438 -0.70306 0
M  V30 1718 C 156.934 -3.25929 -1.07819 0
M  V30 1719 C 156.02 -4.22588 -0.357826 0
M  V30 1720 N 156.411 -5.0207 0.613169 0
M  V30 1721 C 154.709 -4.41914 -0.602365 0
M  V30 1722 C 155.41 -5.72351 1.03871 0
M  V30 1723 N 154.386 -5.42287 0.377642 0
M  V30 1724 H 158.188 -2.86653 0.648621 0
M  V30 1725 H 155.702 -1.55871 0.455862 0
M  V30 1726 H 157.699 -3.84399 -1.61378 0
M  V30 1727 H 156.359 -2.68631 -1.82393 0
M  V30 1728 H 157.37 -5.08331 0.990947 0
M  V30 1729 H 154.047 -3.95714 -1.33103 0
M  V30 1730 H 155.437 -6.4619 1.84086 0
M  V30 1731 N 158.157 -0.370918 -1.53173 0
M  V30 1732 C 159.568 0.107139 -1.86392 0
M  V30 1733 C 159.919 1.47714 -1.29132 0
M  V30 1734 O 159.044 2.07464 -0.615439 0
M  V30 1735 C 159.639 0.201187 -3.38202 0
M  V30 1736 C 158.198 0.623507 -3.712 0
M  V30 1737 C 157.345 -0.225978 -2.76378 0
M  V30 1738 H 160.296 -0.58951 -1.47345 0
M  V30 1739 H 160.317 1.02377 -3.66468 0
M  V30 1740 H 159.829 -0.796058 -3.79848 0
M  V30 1741 H 157.93 1.62879 -3.35114 0
M  V30 1742 H 158.043 0.394414 -4.77474 0
M  V30 1743 H 156.407 0.305962 -2.52856 0
M  V30 1744 H 157.19 -1.22086 -3.20858 0
M  V30 1745 N 159.635 1.57281 -0.100228 0
M  V30 1746 C 160.881 1.94826 0.563101 0
M  V30 1747 C 161.214 0.982475 1.67514 0
M  V30 1748 O 160.489 0.0164069 1.94493 0
M  V30 1749 C 160.772 3.42453 1.11346 0
M  V30 1750 C 160.625 4.498 0.00612081 0
M  V30 1751 C 161.944 3.91506 2.01024 0
M  V30 1752 H 159.063 0.708428 0.203221 0
M  V30 1753 H 161.705 1.8922 -0.171979 0
M  V30 1754 H 159.855 3.47361 1.7399 0
M  V30 1755 H 161.527 4.57 -0.628357 0
M  V30 1756 H 159.77 4.28756 -0.659581 0
M  V30 1757 H 160.441 5.50306 0.432109 0
M  V30 1758 H 162.917 3.88784 1.48278 0
M  V30 1759 H 161.793 4.95358 2.36457 0
M  V30 1760 H 162.054 3.31099 2.92961 0
M  V30 1761 N 161.113 -0.173488 1.56642 0
M  V30 1762 C 162.063 -1.21941 1.92651 0
M  V30 1763 C 163.047 -1.39912 0.794577 0
M  V30 1764 O 164.239 -1.41919 1.05773 0
M  V30 1765 C 161.368 -2.55935 2.28806 0
M  V30 1766 C 160.454 -2.41667 3.48508 0
M  V30 1767 N 160.845 -1.9711 4.65813 0
M  V30 1768 C 159.143 -2.72499 3.53072 0
M  V30 1769 C 159.844 -1.95253 5.47952 0
M  V30 1770 N 158.82 -2.37575 4.88937 0
M  V30 1771 H 162.622 -0.866581 2.80834 0
M  V30 1772 H 160.136 -0.381776 1.57849 0
M  V30 1773 H 162.133 -3.31511 2.52797 0
M  V30 1774 H 160.793 -2.92022 1.41961 0
M  V30 1775 H 161.804 -1.67481 4.90072 0
M  V30 1776 H 158.481 -3.12639 2.767 0
M  V30 1777 H 159.871 -1.6252 6.51948 0
M  V30 1778 N 162.591 -1.51276 -0.441967 0
M  V30 1779 C 163.521 -1.752 -1.54361 0
M  V30 1780 C 164.502 -0.601682 -1.59103 0
M  V30 1781 O 165.687 -0.843913 -1.74905 0
M  V30 1782 C 162.817 -1.87282 -2.92477 0
M  V30 1783 C 161.771 -3.02687 -3.02596 0
M  V30 1784 C 161.097 -2.99947 -4.42647 0
M  V30 1785 C 162.397 -4.4273 -2.77106 0
M  V30 1786 H 164.091 -2.67442 -1.34592 0
M  V30 1787 H 161.637 -1.28694 -0.646048 0
M  V30 1788 H 163.59 -2.02602 -3.695 0
M  V30 1789 H 162.314 -0.916844 -3.13467 0
M  V30 1790 H 160.973 -2.87065 -2.28012 0
M  V30 1791 H 160.621 -2.02136 -4.60597 0
M  V30 1792 H 160.321 -3.77439 -4.50348 0
M  V30 1793 H 161.845 -3.17354 -5.2165 0
M  V30 1794 H 163.259 -4.58727 -3.43864 0
M  V30 1795 H 161.656 -5.21893 -2.96222 0
M  V30 1796 H 162.726 -4.53087 -1.72744 0
M  V30 1797 N 164.069 0.697108 -1.41344 0
M  V30 1798 C 165.017 1.83237 -1.43272 0
M  V30 1799 C 166.011 1.66522 -0.310947 0
M  V30 1800 O 167.217 1.73402 -0.482899 0
M  V30 1801 H 163.592 0.603802 -0.448249 0
M  V30 1802 H 165.563 1.78727 -2.38954 0
M  V30 1803 C 164.312 3.21245 -1.33029 0
M  V30 1804 H 163.635 3.34723 -2.18633 0
M  V30 1805 H 165.075 4.00763 -1.38439 0
M  V30 1806 C 163.534 3.36873 -0.0424635 0
M  V30 1807 O 164.064 3.91177 0.913421 0
M  V30 1808 N 162.27 2.90581 0.0331145 0
M  V30 1809 H 161.817 2.46577 -0.745506 0
M  V30 1810 H 161.775 3.01416 0.894199 0
M  V30 1811 N 165.547 1.27147 0.931209 0
M  V30 1812 C 166.824 1.0401 1.65654 0
M  V30 1813 C 167.204 -0.426297 2.06751 0
M  V30 1814 O 166.552 -1.40879 1.79904 0
M  V30 1815 C 166.762 1.99834 2.86125 0
M  V30 1816 C 168.11 2.29007 3.57549 0
M  V30 1817 O 169.134 1.97779 2.96246 0
M  V30 1818 O 167.993 2.82222 4.67989 0
M  V30 1819 H 165.087 0.396239 0.725895 0
M  V30 1820 H 167.633 1.38397 0.982056 0
M  V30 1821 H 166.405 2.98744 2.52721 0
M  V30 1822 H 166.028 1.65987 3.61295 0
M  V30 1823 N 167.025 -1.13721 1.09112 0
M  V30 1824 C 168.25 -1.89314 0.847053 0
M  V30 1825 C 168.675 -1.78416 -0.595774 0
M  V30 1826 O 168.033 -1.12942 -1.41823 0
M  V30 1827 C 168.081 -3.3701 1.28284 0
M  V30 1828 O 167.185 -4.10054 0.439267 0
M  V30 1829 H 166.526 -0.588745 0.307044 0
M  V30 1830 H 169.056 -1.43902 1.45442 0
M  V30 1831 H 169.066 -3.87834 1.26683 0
M  V30 1832 H 167.741 -3.4426 2.33363 0
M  V30 1833 H 166.318 -3.69266 0.519312 0
M  V30 1834 N 168.503 -0.877838 -1.30888 0
M  V30 1835 C 169.751 -0.491723 -1.96027 0
M  V30 1836 C 170.072 0.960827 -1.69685 0
M  V30 1837 O 169.342 1.67462 -1.01654 0
M  V30 1838 H 167.922 -0.17885 -0.725273 0
M  V30 1839 H 170.584 -1.11935 -1.59551 0
M  V30 1840 H 169.68 -0.656016 -3.05128 0
M  V30 1841 N 169.982 1.44106 -0.638065 0
M  V30 1842 C 170.914 2.28976 0.101205 0
M  V30 1843 C 171.927 1.4167 0.802088 0
M  V30 1844 O 173.116 1.65755 0.662375 0
M  V30 1845 C 170.216 3.18217 1.16581 0
M  V30 1846 C 169.389 4.33978 0.546066 0
M  V30 1847 C 168.448 5.04202 1.50554 0
M  V30 1848 O 167.474 5.59986 1.01999 0
M  V30 1849 N 168.676 5.06296 2.8398 0
M  V30 1850 H 171.441 2.93064 -0.627186 0
M  V30 1851 H 169.002 1.54629 -0.479731 0
M  V30 1852 H 170.994 3.62061 1.80815 0
M  V30 1853 H 169.564 2.55833 1.79634 0
M  V30 1854 H 168.784 3.93239 -0.275046 0
M  V30 1855 H 170.072 5.08675 0.112793 0
M  V30 1856 H 169.47 4.62319 3.26002 0
M  V30 1857 H 168.027 5.53907 3.43556 0
M  V30 1858 N 171.46 0.379036 1.52974 0
M  V30 1859 C 172.39 -0.452706 2.29069 0
M  V30 1860 C 173.371 -1.07237 1.32039 0
M  V30 1861 O 174.556 -1.08708 1.60923 0
M  V30 1862 C 171.686 -1.5856 3.08992 0
M  V30 1863 C 170.64 -1.0925 4.13822 0
M  V30 1864 C 169.966 -2.31668 4.81907 0
M  V30 1865 C 171.266 -0.167702 5.22031 0
M  V30 1866 H 172.96 0.182181 2.98845 0
M  V30 1867 H 170.506 0.0890592 1.43724 0
M  V30 1868 H 172.459 -2.1742 3.6098 0
M  V30 1869 H 171.183 -2.24792 2.36931 0
M  V30 1870 H 169.842 -0.526494 3.628 0
M  V30 1871 H 169.49 -2.96386 4.06404 0
M  V30 1872 H 169.19 -1.9934 5.52754 0
M  V30 1873 H 170.714 -2.91189 5.36695 0
M  V30 1874 H 172.128 -0.664186 5.6944 0
M  V30 1875 H 170.525 0.0653265 6.00064 0
M  V30 1876 H 171.595 0.786347 4.78482 0
M  V30 1877 N 172.938 -1.57226 0.108567 0
M  V30 1878 C 174.186 -1.94448 -0.550853 0
M  V30 1879 C 174.507 -0.992074 -1.67878 0
M  V30 1880 O 173.777 -0.0465 -1.95845 0
M  V30 1881 H 172.357 -0.717897 -0.206479 0
M  V30 1882 H 175.019 -1.94112 0.175062 0
M  V30 1883 H 174.115 -2.97218 -0.952259 0
M  V30 1884 N 174.416 0.165178 -1.56732 0
M  V30 1885 C 175.346 1.20651 -1.99914 0
M  V30 1886 C 176.327 1.45827 -0.875705 0
M  V30 1887 O 177.512 1.57057 -1.14223 0
M  V30 1888 C 174.642 2.54401 -2.36427 0
M  V30 1889 C 173.596 2.43782 -3.51787 0
M  V30 1890 C 172.922 3.82078 -3.7406 0
M  V30 1891 C 174.222 1.93732 -4.85041 0
M  V30 1892 H 175.916 0.847534 -2.87154 0
M  V30 1893 H 173.462 0.40625 -1.38151 0
M  V30 1894 H 175.415 3.27458 -2.65234 0
M  V30 1895 H 174.139 2.92098 -1.46103 0
M  V30 1896 H 172.798 1.73178 -3.23117 0
M  V30 1897 H 172.446 4.17179 -2.81017 0
M  V30 1898 H 172.146 3.7584 -4.51684 0
M  V30 1899 H 173.67 4.56712 -4.05274 0
M  V30 1900 H 175.084 2.56569 -5.12684 0
M  V30 1901 H 173.481 1.98428 -5.66345 0
M  V30 1902 H 174.551 0.891962 -4.76626 0
M  V30 1903 N 175.894 1.51508 0.433938 0
M  V30 1904 C 177.31 1.39759 0.770682 0
M  V30 1905 C 177.51 0.482594 1.95636 0
M  V30 1906 O 176.566 -0.0609691 2.52426 0
M  V30 1907 C 177.879 2.81851 1.04787 0
M  V30 1908 C 179.427 2.91025 1.1521 0
M  V30 1909 C 179.902 4.34032 1.46219 0
M  V30 1910 N 181.393 4.37154 1.53136 0
M  V30 1911 C 182.128 5.4484 1.78709 0
M  V30 1912 N 181.624 6.62682 2.02051 0
M  V30 1913 N 183.417 5.32324 1.80519 0
M  V30 1914 H 175.568 2.09548 -0.346892 0
M  V30 1915 H 177.831 0.943446 -0.0928074 0
M  V30 1916 H 177.537 3.50815 0.249304 0
M  V30 1917 H 177.411 3.21386 1.97461 0
M  V30 1918 H 179.798 2.22257 1.94128 0
M  V30 1919 H 179.879 2.54983 0.204281 0
M  V30 1920 H 179.523 5.03351 0.678274 0
M  V30 1921 H 179.453 4.6759 2.42212 0
M  V30 1922 H 181.944 3.52197 1.36987 0
M  V30 1923 H 182.257 7.40543 2.20943 0
M  V30 1924 H 180.602 6.65791 1.99366 0
M  V30 1925 H 183.793 4.39246 1.61805 0
M  V30 1926 H 183.966 6.16328 2.00111 0
M  V30 1927 N 177.372 -0.689602 1.41712 0
M  V30 1928 C 178.305 -1.81403 1.3845 0
M  V30 1929 C 179.283 -1.60653 0.250874 0
M  V30 1930 O 180.467 -1.83323 0.43874 0
M  V30 1931 C 177.594 -3.18176 1.1611 0
M  V30 1932 C 176.64 -3.57705 2.3227 0
M  V30 1933 S 177.473 -3.61827 3.94767 0
M  V30 1934 C 178.629 -5.01318 3.74742 0
M  V30 1935 H 178.862 -1.83893 2.33603 0
M  V30 1936 H 176.395 -0.858878 1.28307 0
M  V30 1937 H 178.353 -3.97132 1.03907 0
M  V30 1938 H 177.014 -3.13288 0.225668 0
M  V30 1939 H 176.207 -4.57082 2.12349 0
M  V30 1940 H 175.809 -2.86073 2.40911 0
M  V30 1941 H 178.101 -5.88986 3.34817 0
M  V30 1942 H 179.044 -5.26283 4.73743 0
M  V30 1943 H 179.452 -4.73138 3.07898 0
M  V30 1944 N 178.85 -1.27639 -0.924453 0
M  V30 1945 C 179.76 -1.12466 -2.05885 0
M  V30 1946 C 180.776 -0.053869 -1.73917 0
M  V30 1947 O 181.952 -0.261012 -1.99702 0
M  V30 1948 C 179.017 -0.776768 -3.37886 0
M  V30 1949 C 178.078 -1.92878 -3.83532 0
M  V30 1950 C 177.311 -1.59739 -5.09234 0
M  V30 1951 O 177.534 -0.506782 -5.68144 0
M  V30 1952 O 176.468 -2.43761 -5.50331 0
M  V30 1953 H 180.294 -2.07671 -2.21599 0
M  V30 1954 H 177.879 -1.06857 -1.04413 0
M  V30 1955 H 179.761 -0.596229 -4.17161 0
M  V30 1956 H 178.436 0.145732 -3.23372 0
M  V30 1957 H 177.343 -2.1644 -3.0513 0
M  V30 1958 H 178.676 -2.8316 -4.02593 0
M  V30 1959 N 180.328 1.1314 -1.09713 0
M  V30 1960 C 181.553 1.88862 -0.857081 0
M  V30 1961 C 181.978 1.78729 0.586304 0
M  V30 1962 O 181.336 1.13692 1.41222 0
M  V30 1963 C 181.384 3.36325 -1.30069 0
M  V30 1964 O 180.488 4.09815 -0.461007 0
M  V30 1965 H 179.829 0.587108 -0.310162 0
M  V30 1966 H 182.359 1.43129 -1.46203 0
M  V30 1967 H 182.369 3.87157 -1.28738 0
M  V30 1968 H 181.044 3.43017 -2.35185 0
M  V30 1969 H 179.621 3.68986 -0.538888 0
M  V30 1970 N 181.806 0.884767 1.30421 0
M  V30 1971 C 182.753 0.349642 2.28136 0
M  V30 1972 C 183.723 -0.560061 1.56373 0
M  V30 1973 O 184.908 -0.488524 1.8444 0
M  V30 1974 C 182.048 -0.42999 3.42411 0
M  V30 1975 C 181.161 0.508907 4.28992 0
M  V30 1976 C 180.296 -0.286301 5.30428 0
M  V30 1977 C 179.335 0.648079 6.08659 0
M  V30 1978 N 178.472 -0.111792 7.02011 0
M  V30 1979 H 183.312 1.18807 2.73293 0
M  V30 1980 H 180.849 0.597231 1.3443 0
M  V30 1981 H 182.807 -0.897923 4.07423 0
M  V30 1982 H 181.437 -1.23299 2.98324 0
M  V30 1983 H 180.489 1.09533 3.64289 0
M  V30 1984 H 181.801 1.22475 4.8353 0
M  V30 1985 H 180.955 -0.816098 6.01186 0
M  V30 1986 H 179.694 -1.03536 4.76583 0
M  V30 1987 H 178.699 1.18951 5.36778 0
M  V30 1988 H 179.924 1.39623 6.64592 0
M  V30 1989 H 177.87 -0.843395 6.50556 0
M  V30 1990 H 177.787 0.544429 7.54037 0
M  V30 1991 H 179.055 -0.622339 7.77012 0
M  V30 1992 N 183.284 -1.43765 0.645699 0
M  V30 1993 C 184.512 -2.06253 0.163556 0
M  V30 1994 C 184.927 -1.48352 -1.16778 0
M  V30 1995 O 184.284 -0.611932 -1.71935 0
M  V30 1996 C 184.335 -3.61453 0.0583186 0
M  V30 1997 O 184.056 -4.172 1.33702 0
M  V30 1998 C 185.557 -4.41002 -0.450795 0
M  V30 1999 H 182.777 -0.665413 0.0864077 0
M  V30 2000 H 185.321 -1.84396 0.884222 0
M  V30 2001 H 183.476 -3.82522 -0.612865 0
M  V30 2002 H 183.89 -5.10791 1.19131 0
M  V30 2003 H 185.364 -5.49966 -0.473403 0
M  V30 2004 H 185.841 -4.13488 -1.48068 0
M  V30 2005 H 186.447 -4.24886 0.187637 0
M  V30 2006 N 184.763 -0.387143 -1.52771 0
M  V30 2007 C 185.673 0.456442 -2.30117 0
M  V30 2008 C 186.689 1.07342 -1.36944 0
M  V30 2009 O 187.865 1.07971 -1.70013 0
M  V30 2010 C 184.93 1.56957 -3.09136 0
M  V30 2011 C 183.991 0.977916 -4.18014 0
M  V30 2012 C 183.224 2.038 -4.93256 0
M  V30 2013 O 183.447 3.25271 -4.68567 0
M  V30 2014 O 182.381 1.6565 -5.78657 0
M  V30 2015 H 186.207 -0.17359 -3.03203 0
M  V30 2016 H 183.792 -0.150919 -1.48636 0
M  V30 2017 H 185.674 2.21628 -3.58412 0
M  V30 2018 H 184.349 2.18461 -2.38865 0
M  V30 2019 H 183.256 0.294525 -3.72939 0
M  V30 2020 H 184.589 0.407128 -4.90513 0
M  V30 2021 N 186.241 1.57166 -0.116904 0
M  V30 2022 C 187.188 2.15202 0.83408 0
M  V30 2023 C 188.158 1.07644 1.26499 0
M  V30 2024 O 189.343 1.35541 1.34288 0
M  V30 2025 C 186.483 2.75405 2.07957 0
M  V30 2026 C 185.596 3.97264 1.69721 0
M  V30 2027 C 184.731 4.45561 2.89221 0
M  V30 2028 C 183.77 5.59956 2.47215 0
M  V30 2029 N 182.907 6.03006 3.59622 0
M  V30 2030 H 187.747 2.96141 0.332335 0
M  V30 2031 H 185.284 1.46309 0.152349 0
M  V30 2032 H 187.242 3.08439 2.80929 0
M  V30 2033 H 185.872 1.97159 2.55594 0
M  V30 2034 H 184.924 3.70404 0.866316 0
M  V30 2035 H 186.236 4.80226 1.34849 0
M  V30 2036 H 185.39 4.80493 3.7042 0
M  V30 2037 H 184.129 3.61544 3.27318 0
M  V30 2038 H 183.134 5.2463 1.64448 0
M  V30 2039 H 184.359 6.45738 2.10238 0
M  V30 2040 H 182.305 5.21931 3.97396 0
M  V30 2041 H 182.222 6.80819 3.28667 0
M  V30 2042 H 183.49 6.42576 4.41267 0
M  V30 2043 N 187.719 -0.156864 1.56817 0
M  V30 2044 C 188.965 -0.867645 1.83966 0
M  V30 2045 C 189.32 -1.79233 0.699511 0
M  V30 2046 O 188.613 -1.89186 -0.303176 0
M  V30 2047 C 188.807 -1.68737 3.1506 0
M  V30 2048 C 188.636 -0.843548 4.41718 0
M  V30 2049 C 187.406 -0.512994 5.02689 0
M  V30 2050 C 189.604 -0.178416 5.1399 0
M  V30 2051 N 187.586 0.345456 6.12927 0
M  V30 2052 C 188.957 0.540586 6.17639 0
M  V30 2053 C 191.012 -0.0980696 4.97803 0
M  V30 2054 C 189.715 1.33233 7.06853 0
M  V30 2055 C 191.741 0.680387 5.87473 0
M  V30 2056 C 191.103 1.3877 6.90596 0
M  V30 2057 H 187.202 -0.295642 0.723961 0
M  V30 2058 H 189.786 -0.13365 1.94241 0
M  V30 2059 H 187.957 -2.39268 3.0595 0
M  V30 2060 H 189.689 -2.34056 3.30151 0
M  V30 2061 H 186.444 -0.846476 4.65974 0
M  V30 2062 H 186.868 0.765415 6.72659 0
M  V30 2063 H 191.51 -0.630562 4.18071 0
M  V30 2064 H 189.228 1.87612 7.8602 0
M  V30 2065 H 192.814 0.744415 5.77018 0
M  V30 2066 H 191.694 1.9804 7.58782 0
M  V30 2067 N 189.197 -1.51736 -0.425897 0
M  V30 2068 C 190.13 -1.68574 -1.53812 0
M  V30 2069 C 191.108 -0.53328 -1.53606 0
M  V30 2070 O 192.292 -0.758555 -1.72564 0
M  V30 2071 C 189.419 -1.70977 -2.92377 0
M  V30 2072 C 188.465 -2.92324 -3.10563 0
M  V30 2073 S 189.298 -4.52952 -2.85648 0
M  V30 2074 C 190.454 -4.58117 -4.26474 0
M  V30 2075 H 190.687 -2.62647 -1.39298 0
M  V30 2076 H 188.22 -1.41564 -0.616361 0
M  V30 2077 H 190.178 -1.73047 -3.72243 0
M  V30 2078 H 188.839 -0.78061 -3.04245 0
M  V30 2079 H 188.032 -2.90439 -4.11899 0
M  V30 2080 H 187.634 -2.88055 -2.38538 0
M  V30 2081 H 189.926 -4.34462 -5.19855 0
M  V30 2082 H 190.869 -5.59983 -4.33388 0
M  V30 2083 H 191.277 -3.8732 -4.10662 0
M  V30 2084 N 190.675 0.682077 -1.42076 0
M  V30 2085 C 191.585 1.82535 -1.47371 0
M  V30 2086 C 192.601 1.7017 -0.363079 0
M  V30 2087 O 193.777 1.91848 -0.612875 0
M  V30 2088 C 190.842 3.18624 -1.36674 0
M  V30 2089 C 189.903 3.42999 -2.58167 0
M  V30 2090 C 189.136 4.72595 -2.4797 0
M  V30 2091 O 189.359 5.50006 -1.5116 0
M  V30 2092 O 188.293 4.98054 -3.37974 0
M  V30 2093 H 192.119 1.81023 -2.43853 0
M  V30 2094 H 189.704 0.836887 -1.2376 0
M  V30 2095 H 191.586 3.99847 -1.33043 0
M  V30 2096 H 190.261 3.20789 -0.433138 0
M  V30 2097 H 189.168 2.61653 -2.67373 0
M  V30 2098 H 190.501 3.45659 -3.50401 0
M  V30 2099 N 192.153 1.28127 0.917671 0
M  V30 2100 C 193.569 1.05749 1.19538 0
M  V30 2101 C 193.769 -0.202633 2.00479 0
M  V30 2102 O 192.825 -0.905382 2.3571 0
M  V30 2103 C 194.138 2.30273 1.93378 0
M  V30 2104 C 195.686 2.35412 2.06277 0
M  V30 2105 C 196.161 3.59692 2.83524 0
M  V30 2106 N 197.652 3.60309 2.91087 0
M  V30 2107 C 198.387 4.53147 3.51348 0
M  V30 2108 N 197.883 5.563 4.12919 0
M  V30 2109 N 199.676 4.40751 3.48849 0
M  V30 2110 H 191.827 2.09024 0.377184 0
M  V30 2111 H 194.09 0.919798 0.22951 0
M  V30 2112 H 193.796 3.22055 1.41328 0
M  V30 2113 H 193.67 2.36378 2.93947 0
M  V30 2114 H 196.057 1.4413 2.57508 0
M  V30 2115 H 196.138 2.33304 1.04895 0
M  V30 2116 H 195.782 4.51316 2.32973 0
M  V30 2117 H 195.712 3.59054 3.85211 0
M  V30 2118 H 198.203 2.85714 2.47338 0
M  V30 2119 H 198.516 6.2329 4.56869 0
M  V30 2120 H 196.861 5.60131 4.11435 0
M  V30 2121 H 200.052 3.59367 2.99955 0
M  V30 2122 H 200.225 5.13291 3.9552 0
M  V30 2123 N 193.631 -1.12557 1.10312 0
M  V30 2124 C 194.88 -1.83395 0.839588 0
M  V30 2125 C 195.193 -1.84939 -0.636929 0
M  V30 2126 O 196.399 -2.51761 -1.01631 0
M  V30 2127 C 194.855 -3.29303 1.45215 0
M  V30 2128 C 194.463 -3.36122 2.96186 0
M  V30 2129 C 196.207 -4.05121 1.26796 0
M  V30 2130 C 194.114 -4.76357 3.50483 0
M  V30 2131 H 193.044 -0.687133 0.310425 0
M  V30 2132 H 195.695 -1.26746 1.32694 0
M  V30 2133 H 194.077 -3.85812 0.892469 0
M  V30 2134 H 195.251 -2.89559 3.58458 0
M  V30 2135 H 193.566 -2.73776 3.13745 0
M  V30 2136 H 196.163 -5.08668 1.64806 0
M  V30 2137 H 196.506 -4.15773 0.209409 0
M  V30 2138 H 197.039 -3.54967 1.79563 0
M  V30 2139 H 193.778 -4.70899 4.55998 0
M  V30 2140 H 193.298 -5.23377 2.92978 0
M  V30 2141 H 194.977 -5.45294 3.48228 0
M  V30 2142 N 195.109 -0.891671 -1.2995 0
M  V30 2143 C 196.059 -0.334811 -2.25528 0
M  V30 2144 C 197.043 0.540553 -1.51548 0
M  V30 2145 O 198.235 0.383882 -1.72787 0
M  V30 2146 C 195.364 0.44374 -3.4042 0
M  V30 2147 C 194.45 -0.44609 -4.21747 0
M  V30 2148 N 194.841 -1.54963 -4.81477 0
M  V30 2149 C 193.139 -0.242415 -4.45341 0
M  V30 2150 C 193.84 -2.10015 -5.42465 0
M  V30 2151 N 192.816 -1.39423 -5.25416 0
M  V30 2152 H 196.618 -1.17792 -2.69262 0
M  V30 2153 H 194.132 -0.741822 -1.44467 0
M  V30 2154 H 196.129 0.859362 -4.07947 0
M  V30 2155 H 194.789 1.28421 -2.98225 0
M  V30 2156 H 195.8 -1.93244 -4.80497 0
M  V30 2157 H 192.477 0.560342 -4.13723 0
M  V30 2158 H 193.867 -3.02724 -5.9984 0
M  V30 2159 N 196.587 1.43421 -0.653314 0
M  V30 2160 C 197.517 2.33487 0.0246656 0
M  V30 2161 C 198.498 1.49475 0.811863 0
M  V30 2162 O 199.683 1.78139 0.773322 0
M  V30 2163 C 196.813 3.32841 0.99166 0
M  V30 2164 C 195.767 4.26842 0.314568 0
M  V30 2165 C 195.093 5.16236 1.39302 0
M  V30 2166 C 196.393 5.16243 -0.793095 0
M  V30 2167 H 198.087 2.90427 -0.727481 0
M  V30 2168 H 195.633 1.39649 -0.351287 0
M  V30 2169 H 197.586 3.94747 1.47487 0
M  V30 2170 H 196.31 2.74158 1.77497 0
M  V30 2171 H 194.969 3.663 -0.148199 0
M  V30 2172 H 194.617 4.53891 2.16776 0
M  V30 2173 H 194.317 5.79948 0.945223 0
M  V30 2174 H 195.841 5.81015 1.87759 0
M  V30 2175 H 197.255 5.71958 -0.392039 0
M  V30 2176 H 195.652 5.88676 -1.16536 0
M  V30 2177 H 196.722 4.55927 -1.65103 0
M  V30 2178 N 198.065 0.39524 1.52563 0
M  V30 2179 C 199.013 -0.451859 2.28169 0
M  V30 2180 C 200.007 -1.05792 1.32304 0
M  V30 2181 O 201.213 -0.997718 1.49818 0
M  V30 2182 H 197.588 -0.164481 0.733792 0
M  V30 2183 H 199.559 0.207199 2.9768 0
M  V30 2184 C 198.308 -1.56385 3.10546 0
M  V30 2185 H 197.631 -1.10682 3.84174 0
M  V30 2186 H 199.071 -2.13067 3.66577 0
M  V30 2187 C 197.53 -2.52328 2.23231 0
M  V30 2188 O 198.06 -3.5588 1.86312 0
M  V30 2189 N 196.266 -2.22209 1.87274 0
M  V30 2190 H 195.813 -1.38033 2.17496 0
M  V30 2191 H 195.771 -2.86652 1.29143 0
M  V30 2192 N 199.544 -1.57102 0.125237 0
M  V30 2193 C 200.79 -1.95697 -0.532035 0
M  V30 2194 C 201.123 -1.009 -1.6593 0
M  V30 2195 O 200.398 -0.047347 -1.94442 0
M  V30 2196 C 200.681 -3.44181 -1.05884 0
M  V30 2197 C 200.534 -4.49752 0.0654392 0
M  V30 2198 C 201.853 -3.94655 -1.9477 0
M  V30 2199 H 198.972 -0.711571 -0.191925 0
M  V30 2200 H 201.614 -1.88923 0.20206 0
M  V30 2201 H 199.764 -3.50085 -1.68442 0
M  V30 2202 H 201.436 -4.55943 0.700982 0
M  V30 2203 H 199.679 -4.27653 0.727709 0
M  V30 2204 H 200.35 -5.50924 -0.344505 0
M  V30 2205 H 202.826 -3.91094 -1.42074 0
M  V30 2206 H 201.702 -4.99057 -2.28546 0
M  V30 2207 H 201.963 -3.35718 -2.87656 0
M  V30 2208 N 201.022 0.148545 -1.56898 0
M  V30 2209 C 202.247 0.880385 -1.87787 0
M  V30 2210 C 202.672 1.74018 -0.714093 0
M  V30 2211 O 202.03 1.78153 0.336343 0
M  V30 2212 C 202.078 1.71422 -3.17249 0
M  V30 2213 O 201.182 2.8183 -3.01074 0
M  V30 2214 H 200.523 0.245301 -0.617028 0
M  V30 2215 H 203.053 0.139826 -2.04122 0
M  V30 2216 H 203.063 2.10954 -3.49231 0
M  V30 2217 H 201.738 1.08284 -4.01556 0
M  V30 2218 H 200.315 2.45715 -2.80497 0
M  V30 2219 N 202.5 1.5196 0.417844 0
M  V30 2220 C 203.41 1.77554 1.53336 0
M  V30 2221 C 204.426 0.660655 1.6097 0
M  V30 2222 O 205.602 0.945099 1.77848 0
M  V30 2223 C 202.667 1.91291 2.89152 0
M  V30 2224 C 201.728 3.15183 2.91475 0
M  V30 2225 C 200.961 3.28256 4.20813 0
M  V30 2226 O 201.184 2.46798 5.14244 0
M  V30 2227 O 200.118 4.21356 4.29817 0
M  V30 2228 H 203.944 2.7222 1.34647 0
M  V30 2229 H 201.529 1.36698 0.602828 0
M  V30 2230 H 203.411 2.02199 3.69721 0
M  V30 2231 H 202.086 0.998129 3.07927 0
M  V30 2232 H 200.993 3.09739 2.09791 0
M  V30 2233 H 202.326 4.06414 2.77648 0
M  V30 2234 N 203.978 -0.674533 1.42435 0
M  V30 2235 C 205.394 -0.98769 1.25367 0
M  V30 2236 C 205.594 -2.00879 0.158044 0
M  V30 2237 O 204.65 -2.48075 -0.470633 0
M  V30 2238 C 205.963 -1.49224 2.6106 0
M  V30 2239 C 207.511 -1.61 2.68417 0
M  V30 2240 C 207.986 -2.14852 4.04478 0
M  V30 2241 N 209.477 -2.22185 4.06434 0
M  V30 2242 C 210.212 -2.64928 5.08528 0
M  V30 2243 N 209.708 -3.07121 6.21006 0
M  V30 2244 N 211.501 -2.64679 4.95885 0
M  V30 2245 H 203.652 0.00152503 2.124 0
M  V30 2246 H 205.915 -0.0618434 0.945981 0
M  V30 2247 H 205.621 -0.816453 3.42092 0
M  V30 2248 H 205.495 -2.47094 2.84999 0
M  V30 2249 H 207.882 -2.27686 1.87732 0
M  V30 2250 H 207.963 -0.616195 2.48267 0
M  V30 2251 H 207.607 -1.48775 4.85622 0
M  V30 2252 H 207.537 -3.15024 4.2198 0
M  V30 2253 H 210.028 -1.92435 3.25234 0
M  V30 2254 H 210.341 -3.38423 6.94759 0
M  V30 2255 H 208.686 -3.04978 6.24511 0
M  V30 2256 H 211.877 -2.31078 4.07088 0
M  V30 2257 H 212.05 -2.9767 5.75584 0
M  V30 2258 N 205.456 -1.28612 -0.910864 0
M  V30 2259 C 206.867 -1.14406 -1.47541 0
M  V30 2260 C 207.218 0.264901 -1.94403 0
M  V30 2261 O 206.343 1.15942 -1.82719 0
M  V30 2262 C 206.938 -2.07073 -2.68153 0
M  V30 2263 C 205.497 -1.96923 -3.20778 0
M  V30 2264 C 204.644 -1.98646 -1.93481 0
M  V30 2265 H 207.595 -1.41259 -0.723291 0
M  V30 2266 H 207.616 -1.63642 -3.43514 0
M  V30 2267 H 207.128 -3.09611 -2.34015 0
M  V30 2268 H 205.229 -0.97433 -3.59635 0
M  V30 2269 H 205.342 -2.84026 -3.85832 0
M  V30 2270 H 203.706 -1.43093 -2.10705 0
M  V30 2271 H 204.489 -3.02868 -1.61634 0
M  V30 2272 N 206.934 1.1197 -1.10907 0
M  V30 2273 C 208.181 1.83588 -0.854507 0
M  V30 2274 C 208.509 1.84357 0.6199 0
M  V30 2275 O 207.764 1.28809 1.47332 0
M  V30 2276 C 208.063 3.30749 -1.35425 0
M  V30 2277 C 207.729 3.50146 -2.84093 0
M  V30 2278 C 206.391 3.55148 -3.2469 0
M  V30 2279 C 208.743 3.56857 -3.79872 0
M  V30 2280 C 206.071 3.6441 -4.59806 0
M  V30 2281 C 208.423 3.6765 -5.14797 0
M  V30 2282 C 207.087 3.7091 -5.54961 0
M  V30 2283 H 206.357 0.671795 -0.312686 0
M  V30 2284 H 209.004 1.32091 -1.38652 0
M  V30 2285 H 207.309 3.84703 -0.742361 0
M  V30 2286 H 209.006 3.8464 -1.1337 0
M  V30 2287 H 205.596 3.46919 -2.51685 0
M  V30 2288 H 209.78 3.52258 -3.49611 0
M  V30 2289 H 205.036 3.65208 -4.9034 0
M  V30 2290 H 209.21 3.71786 -5.88853 0
M  V30 2291 H 206.837 3.7784 -6.59652 0
M  V30 2292 N 208.412 0.89855 1.29475 0
M  V30 2293 C 209.823 0.572537 1.77705 0
M  V30 2294 C 210.174 -0.911778 1.73727 0
M  V30 2295 O 209.299 -1.71288 1.32247 0
M  V30 2296 C 209.894 1.03252 3.22683 0
M  V30 2297 C 208.453 0.757687 3.68695 0
M  V30 2298 C 207.6 1.20787 2.49612 0
M  V30 2299 H 210.551 1.08139 1.16153 0
M  V30 2300 H 210.572 0.367307 3.78723 0
M  V30 2301 H 210.084 2.11285 3.25546 0
M  V30 2302 H 208.185 -0.310079 3.71308 0
M  V30 2303 H 208.298 1.35476 4.59547 0
M  V30 2304 H 206.662 0.626888 2.46865 0
M  V30 2305 H 207.445 2.29622 2.55203 0
M  V30 2306 N 209.89 -1.43072 0.660911 0
M  V30 2307 C 211.301 -1.84932 0.256348 0
M  V30 2308 C 211.652 -1.55325 -1.19868 0
M  V30 2309 O 210.777 -1.00607 -1.91591 0
M  V30 2310 C 211.372 -3.35684 0.458475 0
M  V30 2311 C 209.931 -3.76245 0.108161 0
M  V30 2312 C 209.078 -2.66749 0.757641 0
M  V30 2313 H 212.029 -1.33116 0.864051 0
M  V30 2314 H 212.05 -3.79365 -0.293683 0
M  V30 2315 H 211.562 -3.572 1.51755 0
M  V30 2316 H 209.663 -3.60338 -0.948014 0
M  V30 2317 H 209.776 -4.76058 0.538992 0
M  V30 2318 H 208.14 -2.53989 0.190185 0
M  V30 2319 H 208.923 -2.91092 1.81989 0
M  V30 2320 N 211.368 -0.403325 -1.52352 0
M  V30 2321 C 212.318 0.442244 -2.2367 0
M  V30 2322 C 213.302 1.01823 -1.24583 0
M  V30 2323 O 214.494 0.942005 -1.49851 0
M  V30 2324 C 211.623 1.5615 -3.05732 0
M  V30 2325 C 210.709 0.996575 -4.12225 0
M  V30 2326 N 211.1 0.157804 -5.05554 0
M  V30 2327 C 209.398 1.26767 -4.27605 0
M  V30 2328 C 210.099 -0.155853 -5.81491 0
M  V30 2329 N 209.075 0.451775 -5.41719 0
M  V30 2330 H 212.877 -0.204964 -2.93184 0
M  V30 2331 H 210.391 -0.213418 -1.60992 0
M  V30 2332 H 212.388 2.17981 -3.55373 0
M  V30 2333 H 211.048 2.21139 -2.37755 0
M  V30 2334 H 212.059 -0.206049 -5.1749 0
M  V30 2335 H 208.736 1.91757 -3.70858 0
M  V30 2336 H 210.126 -0.836329 -6.66675 0
M  V30 2337 N 212.846 1.57033 -0.133567 0
M  V30 2338 C 214.095 1.94861 0.520768 0
M  V30 2339 C 214.408 1.02012 1.66892 0
M  V30 2340 O 215.614 1.29365 2.38699 0
M  V30 2341 C 214.07 3.46362 0.977809 0
M  V30 2342 C 213.678 4.47773 -0.142674 0
M  V30 2343 C 215.422 3.93083 1.60269 0
M  V30 2344 C 213.329 5.90468 0.331883 0
M  V30 2345 H 212.259 0.727453 0.198315 0
M  V30 2346 H 214.91 1.82227 -0.215759 0
M  V30 2347 H 213.292 3.54282 1.7692 0
M  V30 2348 H 214.466 4.51536 -0.919317 0
M  V30 2349 H 212.781 4.10891 -0.675124 0
M  V30 2350 H 215.378 4.97121 1.96914 0
M  V30 2351 H 215.721 3.33876 2.48662 0
M  V30 2352 H 216.254 3.88025 0.876453 0
M  V30 2353 H 212.993 6.53463 -0.516341 0
M  V30 2354 H 212.513 5.90094 1.07469 0
M  V30 2355 H 214.192 6.42179 0.788332 0
M  V30 2356 N 214.325 -0.140222 1.56975 0
M  V30 2357 C 215.257 -1.19818 1.95388 0
M  V30 2358 C 216.27 -1.38816 0.850525 0
M  V30 2359 O 217.459 -1.38267 1.12891 0
M  V30 2360 C 214.559 -2.56189 2.21857 0
M  V30 2361 C 213.732 -2.58077 3.5315 0
M  V30 2362 C 212.791 -3.76037 3.6808 0
M  V30 2363 O 211.817 -3.60598 4.40406 0
M  V30 2364 N 213.019 -4.93763 3.05251 0
M  V30 2365 H 215.784 -0.871609 2.86746 0
M  V30 2366 H 213.345 -0.32972 1.58507 0
M  V30 2367 H 215.337 -3.33623 2.2908 0
M  V30 2368 H 213.907 -2.81111 1.36731 0
M  V30 2369 H 213.127 -1.6651 3.57307 0
M  V30 2370 H 214.415 -2.56377 4.39486 0
M  V30 2371 H 213.813 -5.09209 2.46419 0
M  V30 2372 H 212.37 -5.68949 3.18026 0
M  V30 2373 N 215.803 -1.52179 -0.40978 0
M  V30 2374 C 216.733 -1.78435 -1.5061 0
M  V30 2375 C 217.714 -0.635295 -1.57791 0
M  V30 2376 O 218.899 -0.880823 -1.73076 0
M  V30 2377 C 216.029 -1.93444 -2.88439 0
M  V30 2378 C 214.983 -3.09038 -2.96108 0
M  V30 2379 C 214.309 -3.09268 -4.36185 0
M  V30 2380 C 215.609 -4.48508 -2.67652 0
M  V30 2381 H 217.303 -2.70237 -1.28889 0
M  V30 2382 H 214.849 -1.30036 -0.618605 0
M  V30 2383 H 216.802 -2.10394 -3.65119 0
M  V30 2384 H 215.526 -0.983129 -3.11452 0
M  V30 2385 H 214.185 -2.91837 -2.21872 0
M  V30 2386 H 213.833 -2.11861 -4.56206 0
M  V30 2387 H 213.533 -3.86907 -4.42241 0
M  V30 2388 H 215.057 -3.28348 -5.14801 0
M  V30 2389 H 216.471 -4.65918 -3.34056 0
M  V30 2390 H 214.868 -5.28059 -2.85085 0
M  V30 2391 H 215.938 -4.56649 -1.63095 0
M  V30 2392 N 217.281 0.66697 -1.42791 0
M  V30 2393 C 218.692 1.2478 -1.38877 0
M  V30 2394 C 219.043 1.96012 -0.0859426 0
M  V30 2395 O 218.168 2.00463 0.815081 0
M  V30 2396 C 218.763 2.26938 -2.51564 0
M  V30 2397 C 217.322 2.80529 -2.50959 0
M  V30 2398 C 216.469 1.54965 -2.29959 0
M  V30 2399 H 219.42 0.459853 -1.51892 0
M  V30 2400 H 219.441 3.08834 -2.22265 0
M  V30 2401 H 218.953 1.75065 -3.46372 0
M  V30 2402 H 217.054 3.36502 -1.59991 0
M  V30 2403 H 217.167 3.29012 -3.48265 0
M  V30 2404 H 215.531 1.81817 -1.78366 0
M  V30 2405 H 216.314 1.05047 -3.26833 0
M  V30 2406 N 218.759 1.29093 0.90403 0
M  V30 2407 C 220.17 1.15186 1.46932 0
M  V30 2408 C 220.521 -0.254587 1.94541 0
M  V30 2409 O 219.646 -1.14972 1.83332 0
M  V30 2410 C 220.241 2.08492 2.67051 0
M  V30 2411 C 218.8 1.98621 3.19729 0
M  V30 2412 C 217.947 1.9967 1.92425 0
M  V30 2413 H 220.898 1.41641 0.715789 0
M  V30 2414 H 220.919 1.65461 3.42641 0
M  V30 2415 H 220.431 3.10847 2.3237 0
M  V30 2416 H 218.532 0.993389 3.59114 0
M  V30 2417 H 218.645 2.86068 3.8432 0
M  V30 2418 H 217.009 1.44208 2.09943 0
M  V30 2419 H 217.792 3.03721 1.60026 0
M  V30 2420 N 220.237 -1.11381 1.11499 0
M  V30 2421 C 221.147 -2.21019 0.786628 0
M  V30 2422 C 222.163 -1.72597 -0.220507 0
M  V30 2423 O 223.339 -2.01321 -0.0565251 0
M  V30 2424 C 220.404 -3.459 0.235333 0
M  V30 2425 C 219.465 -4.09107 1.30115 0
M  V30 2426 C 218.698 -5.28027 0.776068 0
M  V30 2427 O 218.921 -5.6904 -0.393661 0
M  V30 2428 O 217.855 -5.81835 1.54114 0
M  V30 2429 H 221.681 -2.51521 1.70209 0
M  V30 2430 H 219.266 -1.19928 0.890928 0
M  V30 2431 H 221.148 -4.21346 -0.067715 0
M  V30 2432 H 219.823 -3.17049 -0.652828 0
M  V30 2433 H 218.73 -3.35391 1.65722 0
M  V30 2434 H 220.063 -4.42139 2.16273 0
M  V30 2435 N 221.715 -0.905404 -1.28997 0
M  V30 2436 C 222.964 -0.530191 -1.94607 0
M  V30 2437 C 223.277 0.929185 -1.72121 0
M  V30 2438 O 224.483 1.41218 -2.31883 0
M  V30 2439 C 222.939 -0.897333 -3.48534 0
M  V30 2440 C 222.547 -2.37587 -3.79811 0
M  V30 2441 C 224.291 -0.592304 -4.20347 0
M  V30 2442 C 222.198 -2.68357 -5.27009 0
M  V30 2443 H 221.128 -0.194558 -0.728466 0
M  V30 2444 H 223.779 -1.10318 -1.46636 0
M  V30 2445 H 222.161 -0.253214 -3.9519 0
M  V30 2446 H 223.335 -3.06602 -3.43994 0
M  V30 2447 H 221.65 -2.6505 -3.2115 0
M  V30 2448 H 224.247 -0.798975 -5.28697 0
M  V30 2449 H 224.59 0.469474 -4.13644 0
M  V30 2450 H 225.123 -1.19452 -3.79442 0
M  V30 2451 H 221.862 -3.73355 -5.38782 0
M  V30 2452 H 221.382 -2.03971 -5.64053 0
M  V30 2453 H 223.061 -2.54922 -5.94663 0
M  V30 2454 N 223.193 1.4272 -0.668489 0
M  V30 2455 C 224.125 2.2914 0.052613 0
M  V30 2456 C 225.138 1.43339 0.771857 0
M  V30 2457 O 226.327 1.67123 0.627067 0
M  V30 2458 C 223.427 3.20618 1.09804 0
M  V30 2459 C 222.6 4.35039 0.45389 0
M  V30 2460 C 221.659 5.07282 1.39825 0
M  V30 2461 O 220.685 5.62024 0.900978 0
M  V30 2462 N 221.887 5.12206 2.73176 0
M  V30 2463 H 224.652 2.91668 -0.689209 0
M  V30 2464 H 222.213 1.53577 -0.512422 0
M  V30 2465 H 224.205 3.65815 1.73094 0
M  V30 2466 H 222.775 2.59585 1.74167 0
M  V30 2467 H 221.995 3.92567 -0.358396 0
M  V30 2468 H 223.283 5.088 0.00486972 0
M  V30 2469 H 222.681 4.6913 3.16122 0
M  V30 2470 H 221.238 5.61069 3.31729 0
M  V30 2471 N 224.671 0.411399 1.52136 0
M  V30 2472 C 225.581 -0.419774 2.30814 0
M  V30 2473 C 226.597 -1.0515 1.38634 0
M  V30 2474 O 227.773 -1.05252 1.71709 0
M  V30 2475 C 224.838 -1.52019 3.11594 0
M  V30 2476 C 223.899 -0.91129 4.19516 0
M  V30 2477 C 223.132 -1.95927 4.96436 0
M  V30 2478 O 223.355 -3.17775 4.73683 0
M  V30 2479 O 222.289 -1.56423 5.81219 0
M  V30 2480 H 226.115 0.221805 3.02889 0
M  V30 2481 H 223.7 0.174547 1.48377 0
M  V30 2482 H 225.582 -2.15898 3.61892 0
M  V30 2483 H 224.257 -2.14633 2.42311 0
M  V30 2484 H 223.164 -0.235157 3.7336 0
M  V30 2485 H 224.497 -0.32904 4.91099 0
M  V30 2486 N 226.149 -1.5696 0.141893 0
M  V30 2487 C 227.374 -2.00754 -0.520838 0
M  V30 2488 C 227.799 -1.0213 -1.57959 0
M  V30 2489 O 227.157 0.00371324 -1.813 0
M  V30 2490 C 227.205 -3.43318 -1.10294 0
M  V30 2491 O 226.309 -3.47679 -2.21795 0
M  V30 2492 H 225.65 -0.651564 -0.127908 0
M  V30 2493 H 228.18 -2.03221 0.23712 0
M  V30 2494 H 228.19 -3.82012 -1.43287 0
M  V30 2495 H 226.865 -4.14608 -0.327574 0
M  V30 2496 H 225.442 -3.20824 -1.9007 0
M  V30 2497 N 227.627 0.131896 -1.57047 0
M  V30 2498 C 228.559 1.1878 -1.9602 0
M  V30 2499 C 229.572 1.38363 -0.857875 0
M  V30 2500 O 230.761 1.37666 -1.13623 0
M  V30 2501 C 227.861 2.55008 -2.23213 0
M  V30 2502 C 227.034 2.56201 -3.54513 0
M  V30 2503 C 226.093 3.7408 -3.70069 0
M  V30 2504 O 225.119 3.58258 -4.42312 0
M  V30 2505 N 226.321 4.92137 -3.07866 0
M  V30 2506 H 229.086 0.85639 -2.87204 0
M  V30 2507 H 226.647 0.321309 -1.5868 0
M  V30 2508 H 228.639 3.32404 -2.30846 0
M  V30 2509 H 227.209 2.80382 -1.3822 0
M  V30 2510 H 226.429 1.64613 -3.58185 0
M  V30 2511 H 227.717 2.54043 -4.4084 0
M  V30 2512 H 227.115 5.07895 -2.49116 0
M  V30 2513 H 225.672 5.67254 -3.21039 0
M  V30 2514 N 229.106 1.52395 0.401703 0
M  V30 2515 C 230.016 1.7917 1.51444 0
M  V30 2516 C 231.032 0.677691 1.6026 0
M  V30 2517 O 232.208 0.963909 1.76835 0
M  V30 2518 C 229.273 1.94347 2.87107 0
M  V30 2519 C 228.334 3.18257 2.88116 0
M  V30 2520 C 227.567 3.32701 4.17308 0
M  V30 2521 O 227.79 2.52238 5.11598 0
M  V30 2522 O 226.724 4.25891 4.25324 0
M  V30 2523 H 230.55 2.73633 1.31752 0
M  V30 2524 H 228.135 1.3733 0.588296 0
M  V30 2525 H 230.017 2.06109 3.67555 0
M  V30 2526 H 228.692 1.03073 3.06851 0
M  V30 2527 H 227.599 3.11947 2.06494 0
M  V30 2528 H 228.932 4.09336 2.73322 0
M  V30 2529 N 230.584 -0.659388 1.43143 0
M  V30 2530 C 231.83 -1.42145 1.44647 0
M  V30 2531 C 232.163 -1.9408 0.0681907 0
M  V30 2532 O 231.438 -1.71899 -0.910007 0
M  V30 2533 C 231.721 -2.60735 2.48373 0
M  V30 2534 C 231.574 -2.14332 3.95451 0
M  V30 2535 C 232.893 -3.62951 2.48906 0
M  V30 2536 H 230.012 -0.51552 0.526696 0
M  V30 2537 H 232.654 -0.748069 1.74654 0
M  V30 2538 H 230.804 -3.18184 2.22916 0
M  V30 2539 H 232.476 -1.61932 4.31944 0
M  V30 2540 H 230.719 -1.4576 4.08578 0
M  V30 2541 H 231.39 -2.99583 4.63631 0
M  V30 2542 H 233.866 -3.1525 2.71582 0
M  V30 2543 H 232.742 -4.43487 3.23435 0
M  V30 2544 H 233.003 -4.15126 1.52061 0
M  V30 2545 N 232.062 -1.29571 -0.897171 0
M  V30 2546 C 233.29 -1.20583 -1.68129 0
M  V30 2547 C 233.705 0.233181 -1.87354 0
M  V30 2548 O 233.062 1.15579 -1.41236 0
M  V30 2549 C 233.113 -1.91772 -3.06441 0
M  V30 2550 O 232.834 -3.30053 -2.88091 0
M  V30 2551 C 234.335 -1.89291 -4.00854 0
M  V30 2552 H 231.555 -0.417826 -0.525036 0
M  V30 2553 H 234.099 -1.70987 -1.12177 0
M  V30 2554 H 232.254 -1.45196 -3.59161 0
M  V30 2555 H 232.668 -3.65942 -3.75748 0
M  V30 2556 H 234.142 -2.43662 -4.95311 0
M  V30 2557 H 234.619 -0.869014 -4.30517 0
M  V30 2558 H 235.225 -2.35622 -3.54066 0
M  V30 2559 N 233.54 1.10788 -1.12088 0
M  V30 2560 C 234.47 2.19083 -0.807755 0
M  V30 2561 C 235.451 1.6858 0.226859 0
M  V30 2562 O 236.636 1.93997 0.0888475 0
M  V30 2563 C 233.766 3.46344 -0.257576 0
M  V30 2564 C 232.72 4.101 -1.22483 0
M  V30 2565 C 232.046 5.32016 -0.535052 0
M  V30 2566 C 233.346 4.54236 -2.57811 0
M  V30 2567 H 235.04 2.45534 -1.71328 0
M  V30 2568 H 232.586 1.1801 -0.825205 0
M  V30 2569 H 234.539 4.21392 -0.0262679 0
M  V30 2570 H 233.263 3.19373 0.683278 0
M  V30 2571 H 231.922 3.37054 -1.44189 0
M  V30 2572 H 231.57 5.01319 0.410827 0
M  V30 2573 H 231.27 5.75625 -1.18024 0
M  V30 2574 H 232.794 6.09799 -0.312695 0
M  V30 2575 H 234.208 5.20575 -2.40155 0
M  V30 2576 H 232.605 5.08682 -3.18375 0
M  V30 2577 H 233.675 3.6734 -3.16528 0
M  V30 2578 N 235.018 0.912232 1.28515 0
M  V30 2579 C 236.246 0.560416 1.99166 0
M  V30 2580 C 236.661 -0.857927 1.68182 0
M  V30 2581 O 236.018 -1.56805 0.933733 0
M  V30 2582 C 236.069 0.758142 3.53461 0
M  V30 2583 O 235.79 2.12067 3.83352 0
M  V30 2584 C 237.291 0.412954 4.41372 0
M  V30 2585 H 234.511 0.213805 0.636026 0
M  V30 2586 H 237.055 1.22502 1.63749 0
M  V30 2587 H 235.21 0.140556 3.87145 0
M  V30 2588 H 235.624 2.15923 4.77993 0
M  V30 2589 H 237.098 0.60208 5.48707 0
M  V30 2590 H 237.575 -0.65073 4.34353 0
M  V30 2591 H 238.181 1.00802 4.13182 0
M  V30 2592 N 236.496 -1.42363 0.676048 0
M  V30 2593 C 237.736 -2.03392 0.20273 0
M  V30 2594 C 238.1 -1.52306 -1.16906 0
M  V30 2595 O 239.301 -2.05129 -1.73711 0
M  V30 2596 C 237.572 -3.56614 0.236947 0
M  V30 2597 S 239.131 -4.38489 -0.165186 0
M  V30 2598 H 235.949 -0.70611 0.0832418 0
M  V30 2599 H 238.551 -1.74093 0.88948 0
M  V30 2600 H 237.255 -3.91293 1.23767 0
M  V30 2601 H 236.786 -3.90587 -0.469596 0
M  V30 2602 H 238.801 -4.76093 -1.39822 0
M  V30 2603 N 237.974 -0.419461 -1.51915 0
M  V30 2604 C 238.904 0.391813 -2.30189 0
M  V30 2605 C 239.885 1.03699 -1.34836 0
M  V30 2606 O 241.07 1.04403 -1.63748 0
M  V30 2607 C 238.2 1.50312 -3.13087 0
M  V30 2608 C 237.154 0.9824 -4.16573 0
M  V30 2609 C 236.48 2.18809 -4.8788 0
M  V30 2610 C 237.78 0.0292356 -5.22292 0
M  V30 2611 H 239.474 -0.26135 -2.98257 0
M  V30 2612 H 237.02 -0.127134 -1.43438 0
M  V30 2613 H 238.973 2.07773 -3.66617 0
M  V30 2614 H 237.697 2.18431 -2.42807 0
M  V30 2615 H 236.356 0.430119 -3.64068 0
M  V30 2616 H 236.004 2.85507 -4.14119 0
M  V30 2617 H 235.704 1.84615 -5.57845 0
M  V30 2618 H 237.228 2.76858 -5.44226 0
M  V30 2619 H 238.642 0.512976 -5.71 0
M  V30 2620 H 237.039 -0.2244 -5.9968 0
M  V30 2621 H 238.109 -0.912931 -4.76228 0
M  V30 2622 N 239.452 1.56882 -0.150215 0
M  V30 2623 C 240.382 2.19935 0.784284 0
M  V30 2624 C 241.363 1.14854 1.25469 0
M  V30 2625 O 242.548 1.43209 1.31168 0
M  V30 2626 C 239.678 2.82349 2.02229 0
M  V30 2627 C 238.632 3.93285 1.68853 0
M  V30 2628 C 237.958 4.42649 2.99944 0
M  V30 2629 C 239.258 5.13904 0.932714 0
M  V30 2630 H 240.952 2.9828 0.258781 0
M  V30 2631 H 238.498 1.43473 0.123029 0
M  V30 2632 H 240.451 3.25126 2.68088 0
M  V30 2633 H 239.175 2.0134 2.57157 0
M  V30 2634 H 237.834 3.5113 1.05371 0
M  V30 2635 H 237.482 3.58458 3.52869 0
M  V30 2636 H 237.182 5.17476 2.78374 0
M  V30 2637 H 238.706 4.88099 3.66868 0
M  V30 2638 H 240.12 5.53506 1.49345 0
M  V30 2639 H 238.517 5.94515 0.81684 0
M  V30 2640 H 239.587 4.84842 -0.0749568 0
M  V30 2641 N 240.93 -0.123565 1.57115 0
M  V30 2642 C 241.878 -1.17082 2.00984 0
M  V30 2643 C 242.872 -1.43136 0.906009 0
M  V30 2644 O 244.078 -1.43152 1.09121 0
M  V30 2645 H 240.453 -0.394653 0.64012 0
M  V30 2646 H 242.424 -0.774292 2.88179 0
M  V30 2647 C 241.173 -2.49057 2.42623 0
M  V30 2648 H 240.496 -2.29846 3.27125 0
M  V30 2649 H 241.936 -3.20906 2.7712 0
M  V30 2650 C 240.395 -3.11305 1.28805 0
M  V30 2651 O 240.925 -3.97171 0.60153 0
M  V30 2652 N 239.131 -2.71111 1.04628 0
M  V30 2653 H 238.678 -2.01382 1.60634 0
M  V30 2654 H 238.636 -3.1309 0.286685 0
M  V30 2655 N 242.408 -1.52605 -0.393616 0
M  V30 2656 C 243.655 -1.67424 -1.1391 0
M  V30 2657 C 243.983 -0.411859 -1.90089 0
M  V30 2658 O 243.238 0.605626 -1.86093 0
M  V30 2659 C 243.537 -2.85721 -2.14705 0
M  V30 2660 C 243.203 -4.23342 -1.55218 0
M  V30 2661 C 241.865 -4.60771 -1.3872 0
M  V30 2662 C 244.217 -5.09041 -1.11924 0
M  V30 2663 C 241.545 -5.81563 -0.774689 0
M  V30 2664 C 243.897 -6.30452 -0.520853 0
M  V30 2665 C 242.561 -6.66617 -0.343134 0
M  V30 2666 H 241.831 -0.612648 -0.416826 0
M  V30 2667 H 244.478 -1.8674 -0.424315 0
M  V30 2668 H 242.783 -2.60803 -2.92385 0
M  V30 2669 H 244.48 -2.94382 -2.72288 0
M  V30 2670 H 241.07 -3.93855 -1.69045 0
M  V30 2671 H 245.254 -4.80695 -1.23473 0
M  V30 2672 H 240.51 -6.08196 -0.625154 0
M  V30 2673 H 244.684 -6.96175 -0.177065 0
M  V30 2674 H 242.311 -7.60083 0.133571 0
M  V30 2675 N 243.887 0.651787 -1.4349 0
M  V30 2676 C 245.112 1.44434 -1.48841 0
M  V30 2677 C 245.537 1.8779 -0.107955 0
M  V30 2678 O 244.895 1.57464 0.898602 0
M  V30 2679 C 244.943 2.65458 -2.44059 0
M  V30 2680 O 244.047 3.64566 -1.92784 0
M  V30 2681 H 243.388 0.433005 -0.503391 0
M  V30 2682 H 245.918 0.797451 -1.88419 0
M  V30 2683 H 245.928 3.13255 -2.6141 0
M  V30 2684 H 244.603 2.33244 -3.4434 0
M  V30 2685 H 243.18 3.23716 -1.851 0
M  V30 2686 N 245.365 1.30045 0.890287 0
M  V30 2687 C 246.605 1.19839 1.65584 0
M  V30 2688 C 246.969 -0.244175 1.90441 0
M  V30 2689 O 248.17 -0.469378 2.6467 0
M  V30 2690 C 246.441 1.99876 2.96284 0
M  V30 2691 S 248 2.06309 3.87275 0
M  V30 2692 H 244.818 0.427157 0.568382 0
M  V30 2693 H 247.42 1.64453 1.05715 0
M  V30 2694 H 246.124 3.03809 2.75913 0
M  V30 2695 H 245.655 1.55903 3.61189 0
M  V30 2696 H 247.67 1.18661 4.81803 0
M  V30 2697 N 246.843 -1.10192 1.12674 0
M  V30 2698 C 248.073 -1.85713 0.905213 0
M  V30 2699 C 248.481 -1.81056 -0.549108 0
M  V30 2700 O 247.824 -1.19927 -1.39151 0
M  V30 2701 C 247.886 -3.34972 1.30516 0
M  V30 2702 C 247.55 -3.63385 2.77129 0
M  V30 2703 C 248.547 -3.59772 3.75313 0
M  V30 2704 C 246.232 -3.91981 3.14096 0
M  V30 2705 C 248.226 -3.84354 5.08479 0
M  V30 2706 C 245.913 -4.16218 4.47443 0
M  V30 2707 C 246.911 -4.12395 5.44444 0
M  V30 2708 O 246.599 -4.36014 6.75387 0
M  V30 2709 H 246.331 -0.593719 0.323223 0
M  V30 2710 H 248.885 -1.40198 1.50112 0
M  V30 2711 H 247.115 -3.81156 0.652463 0
M  V30 2712 H 248.804 -3.91886 1.05736 0
M  V30 2713 H 249.57 -3.37716 3.48099 0
M  V30 2714 H 245.449 -3.94085 2.39202 0
M  V30 2715 H 248.993 -3.81285 5.84181 0
M  V30 2716 H 244.89 -4.37754 4.74386 0
M  V30 2717 H 245.658 -4.53516 6.8137 0
M  V30 2718 N 248.321 -0.919034 -1.28029 0
M  V30 2719 C 249.569 -0.553838 -1.94363 0
M  V30 2720 C 249.89 0.906357 -1.72656 0
M  V30 2721 O 249.16 1.64143 -1.0693 0
M  V30 2722 H 247.74 -0.201834 -0.719216 0
M  V30 2723 H 250.402 -1.16954 -1.55909 0
M  V30 2724 H 249.498 -0.752758 -3.02886 0
M  V30 2725 N 249.799 1.42003 -0.683588 0
M  V30 2726 C 251.029 2.05448 -0.217866 0
M  V30 2727 C 251.437 1.51491 1.13346 0
M  V30 2728 O 250.78 0.653048 1.717 0
M  V30 2729 C 250.842 3.59399 -0.0850118 0
M  V30 2730 C 250.506 4.36093 -1.36645 0
M  V30 2731 C 251.503 4.66169 -2.30179 0
M  V30 2732 C 249.188 4.75578 -1.61649 0
M  V30 2733 C 251.182 5.34676 -3.46988 0
M  V30 2734 C 248.869 5.43824 -2.78745 0
M  V30 2735 C 249.867 5.73299 -3.71238 0
M  V30 2736 O 249.555 6.40142 -4.86285 0
M  V30 2737 H 249.287 0.668344 -0.101454 0
M  V30 2738 H 251.841 1.82974 -0.933248 0
M  V30 2739 H 250.071 3.80566 0.686031 0
M  V30 2740 H 251.76 4.04457 0.341973 0
M  V30 2741 H 252.526 4.36156 -2.12115 0
M  V30 2742 H 248.405 4.52025 -0.905243 0
M  V30 2743 H 251.949 5.57599 -4.19201 0
M  V30 2744 H 247.846 5.73254 -2.96732 0
M  V30 2745 H 248.614 6.58636 -4.85944 0
M  V30 2746 N 251.277 0.427512 1.51691 0
M  V30 2747 C 252.688 -0.0378867 1.86662 0
M  V30 2748 C 253.039 -1.42819 1.34525 0
M  V30 2749 O 252.164 -2.05037 0.692014 0
M  V30 2750 C 252.759 -0.0755266 3.38716 0
M  V30 2751 C 251.318 -0.485309 3.73258 0
M  V30 2752 C 250.465 0.328399 2.75349 0
M  V30 2753 H 253.416 0.64379 1.45055 0
M  V30 2754 H 253.437 -0.887056 3.70016 0
M  V30 2755 H 252.949 0.936487 3.76632 0
M  V30 2756 H 251.05 -1.50329 3.40928 0
M  V30 2757 H 251.163 -0.21693 4.78609 0
M  V30 2758 H 249.527 -0.211905 2.53817 0
M  V30 2759 H 250.31 1.3391 3.16106 0
M  V30 2760 N 252.755 -1.56801 0.158532 0
M  V30 2761 C 254.004 -1.95665 -0.489702 0
M  V30 2762 C 254.317 -1.04654 -1.65248 0
M  V30 2763 O 255.523 -1.33146 -2.3661 0
M  V30 2764 C 253.979 -3.47874 -0.922582 0
M  V30 2765 C 253.587 -4.47489 0.213893 0
M  V30 2766 C 255.331 -3.95583 -1.53996 0
M  V30 2767 C 253.238 -5.90921 -0.237903 0
M  V30 2768 H 252.168 -0.730516 -0.186716 0
M  V30 2769 H 254.819 -1.81861 0.244722 0
M  V30 2770 H 253.201 -3.57051 -1.71261 0
M  V30 2771 H 254.375 -4.50017 0.991036 0
M  V30 2772 H 252.69 -4.09764 0.740407 0
M  V30 2773 H 255.287 -5.0019 -1.8898 0
M  V30 2774 H 255.63 -3.37789 -2.43319 0
M  V30 2775 H 256.163 -3.8937 -0.814611 0
M  V30 2776 H 252.902 -6.52559 0.620236 0
M  V30 2777 H 252.422 -5.91729 -0.980676 0
M  V30 2778 H 254.101 -6.43352 -0.686067 0
M  V30 2779 N 254.233 0.115231 -1.57178 0
M  V30 2780 C 255.165 1.16694 -1.97269 0
M  V30 2781 C 256.178 1.37445 -0.872502 0
M  V30 2782 O 257.367 1.36454 -1.15077 0
M  V30 2783 C 254.467 2.52627 -2.25905 0
M  V30 2784 C 253.64 2.52427 -3.57211 0
M  V30 2785 C 252.699 3.70134 -3.74016 0
M  V30 2786 O 251.725 3.53546 -4.46087 0
M  V30 2787 N 252.927 4.88844 -3.13068 0
M  V30 2788 H 255.692 0.82588 -2.88096 0
M  V30 2789 H 253.253 0.304461 -1.59011 0
M  V30 2790 H 255.245 3.29937 -2.34359 0
M  V30 2791 H 253.815 2.789 -1.41186 0
M  V30 2792 H 253.035 1.60805 -3.5991 0
M  V30 2793 H 254.323 2.49353 -4.43509 0
M  V30 2794 H 253.721 5.05225 -2.54489 0
M  V30 2795 H 252.278 5.63817 -3.27037 0
M  V30 2796 N 255.711 1.52812 0.385517 0
M  V30 2797 C 256.641 1.80808 1.47752 0
M  V30 2798 C 257.622 0.660318 1.5676 0
M  V30 2799 O 258.807 0.908246 1.71652 0
M  V30 2800 C 255.937 1.98008 2.85324 0
M  V30 2801 C 254.891 3.13709 2.91154 0
M  V30 2802 C 254.217 3.16169 4.31209 0
M  V30 2803 C 255.517 4.52709 2.60483 0
M  V30 2804 H 257.211 2.72253 1.24573 0
M  V30 2805 H 254.757 1.31003 0.597839 0
M  V30 2806 H 256.71 2.16176 3.61726 0
M  V30 2807 H 255.434 1.03255 3.09848 0
M  V30 2808 H 254.093 2.95329 2.17201 0
M  V30 2809 H 253.741 2.19092 4.52778 0
M  V30 2810 H 253.441 3.93894 4.36029 0
M  V30 2811 H 254.965 3.36496 5.09512 0
M  V30 2812 H 256.379 4.71173 3.26602 0
M  V30 2813 H 254.776 5.32528 2.76648 0
M  V30 2814 H 255.846 4.59186 1.55809 0
M  V30 2815 N 257.189 -0.644168 1.43834 0
M  V30 2816 C 258.121 -1.76955 1.45669 0
M  V30 2817 C 259.134 -1.58956 0.351666 0
M  V30 2818 O 260.323 -1.6751 0.616644 0
M  V30 2819 C 257.423 -3.14507 1.26248 0
M  V30 2820 C 256.596 -3.59083 2.49757 0
M  V30 2821 C 255.655 -4.75467 2.25427 0
M  V30 2822 O 254.681 -4.84444 2.98836 0
M  V30 2823 N 255.883 -5.66289 1.27661 0
M  V30 2824 H 258.648 -1.75856 2.42682 0
M  V30 2825 H 256.209 -0.828312 1.39106 0
M  V30 2826 H 258.201 -3.90067 1.0784 0
M  V30 2827 H 256.771 -3.10325 0.376478 0
M  V30 2828 H 255.991 -2.7387 2.8353 0
M  V30 2829 H 257.279 -3.85613 3.31934 0
M  V30 2830 H 256.677 -5.61718 0.670064 0
M  V30 2831 H 255.234 -6.41533 1.15234 0
M  V30 2832 N 258.668 -1.30515 -0.883378 0
M  V30 2833 C 259.914 -1.20617 -1.63778 0
M  V30 2834 C 260.269 0.236469 -1.90941 0
M  V30 2835 O 259.562 1.16596 -1.52039 0
M  V30 2836 C 259.756 -1.96994 -2.98209 0
M  V30 2837 C 259.585 -3.48537 -2.84169 0
M  V30 2838 C 258.355 -4.17893 -2.84067 0
M  V30 2839 C 260.553 -4.43738 -2.60001 0
M  V30 2840 N 258.535 -5.55685 -2.60936 0
M  V30 2841 C 259.906 -5.69105 -2.46007 0
M  V30 2842 C 261.961 -4.33316 -2.45239 0
M  V30 2843 C 260.664 -6.8523 -2.18752 0
M  V30 2844 C 262.69 -5.4921 -2.19369 0
M  V30 2845 C 262.052 -6.73558 -2.06153 0
M  V30 2846 H 258.151 -0.496434 -0.604216 0
M  V30 2847 H 260.735 -1.64544 -1.04083 0
M  V30 2848 H 258.906 -1.55455 -3.55933 0
M  V30 2849 H 260.638 -1.79225 -3.62851 0
M  V30 2850 H 257.393 -3.69739 -2.95956 0
M  V30 2851 H 257.817 -6.28199 -2.52378 0
M  V30 2852 H 262.459 -3.37856 -2.54191 0
M  V30 2853 H 260.177 -7.80729 -2.08537 0
M  V30 2854 H 263.763 -5.43054 -2.08766 0
M  V30 2855 H 262.643 -7.61721 -1.86416 0
M  V30 2856 N 260.146 1.09593 -1.13257 0
M  V30 2857 C 261.076 2.18214 -0.830946 0
M  V30 2858 C 262.057 1.68812 0.208966 0
M  V30 2859 O 263.242 1.9408 0.0682666 0
M  V30 2860 C 260.372 3.46051 -0.294296 0
M  V30 2861 C 259.326 4.08778 -1.26826 0
M  V30 2862 C 258.652 5.31419 -0.591449 0
M  V30 2863 C 259.952 4.51476 -2.62615 0
M  V30 2864 H 261.646 2.43703 -1.73923 0
M  V30 2865 H 259.192 1.17128 -0.837675 0
M  V30 2866 H 261.145 4.2134 -0.0709606 0
M  V30 2867 H 259.869 3.20079 0.649366 0
M  V30 2868 H 258.528 3.35505 -1.47756 0
M  V30 2869 H 258.176 5.01727 0.357633 0
M  V30 2870 H 257.876 5.74341 -1.24123 0
M  V30 2871 H 259.4 6.09433 -0.377355 0
M  V30 2872 H 260.814 5.17999 -2.45663 0
M  V30 2873 H 259.211 5.05277 -3.23752 0
M  V30 2874 H 260.281 3.63962 -3.20406 0
M  V30 2875 N 261.624 0.925811 1.2754 0
M  V30 2876 C 262.554 0.440748 2.29303 0
M  V30 2877 C 263.535 -0.497971 1.62648 0
M  V30 2878 O 264.72 -0.403126 1.8997 0
M  V30 2879 C 261.85 -0.309048 3.45922 0
M  V30 2880 C 260.804 0.54166 4.24559 0
M  V30 2881 C 260.13 -0.337191 5.33636 0
M  V30 2882 C 261.43 1.80516 4.90114 0
M  V30 2883 H 263.124 1.29121 2.70126 0
M  V30 2884 H 260.67 0.622323 1.29858 0
M  V30 2885 H 262.623 -0.659315 4.1621 0
M  V30 2886 H 261.347 -1.19352 3.04011 0
M  V30 2887 H 260.006 0.874609 3.56014 0
M  V30 2888 H 259.654 -1.22056 4.87966 0
M  V30 2889 H 259.354 0.228497 5.87156 0
M  V30 2890 H 260.878 -0.683072 6.06767 0
M  V30 2891 H 262.292 1.52307 5.52698 0
M  V30 2892 H 260.689 2.3142 5.53683 0
M  V30 2893 H 261.759 2.52581 4.13921 0
M  V30 2894 N 263.102 -1.41638 0.69111 0
M  V30 2895 C 264.012 -2.34588 0.0233487 0
M  V30 2896 C 265.028 -1.55987 -0.770984 0
M  V30 2897 O 266.204 -1.88486 -0.709569 0
M  V30 2898 C 263.269 -3.34684 -0.904851 0
M  V30 2899 C 262.33 -4.29176 -0.103225 0
M  V30 2900 C 261.563 -5.2449 -0.987216 0
M  V30 2901 O 261.786 -5.2514 -2.22674 0
M  V30 2902 O 260.72 -6.00295 -0.439281 0
M  V30 2903 H 264.546 -2.93261 0.789416 0
M  V30 2904 H 262.131 -1.42417 0.45142 0
M  V30 2905 H 264.013 -3.96133 -1.43724 0
M  V30 2906 H 262.688 -2.78461 -1.65049 0
M  V30 2907 H 261.595 -3.71089 0.473655 0
M  V30 2908 H 262.928 -4.88484 0.60365 0
M  V30 2909 N 264.58 -0.43555 -1.51462 0
M  V30 2910 C 265.828 0.131254 -2.01673 0
M  V30 2911 C 266.149 1.43368 -1.32177 0
M  V30 2912 O 265.419 1.90524 -0.455769 0
M  V30 2913 H 263.999 0.0514954 -0.745223 0
M  V30 2914 H 266.661 -0.577847 -1.86137 0
M  V30 2915 H 265.757 0.308446 -3.10572 0
M  V30 2916 N 266.058 1.56714 -0.166846 0
M  V30 2917 C 267.304 1.97039 0.479962 0
M  V30 2918 C 267.637 1.05264 1.63197 0
M  V30 2919 O 266.912 0.0988833 1.94248 0
M  V30 2920 C 267.195 3.46867 0.967212 0
M  V30 2921 C 267.048 4.49421 -0.18466 0
M  V30 2922 C 268.367 3.9968 1.84238 0
M  V30 2923 H 265.486 0.71641 0.172992 0
M  V30 2924 H 268.128 1.8832 -0.252079 0
M  V30 2925 H 266.278 3.54428 1.59101 0
M  V30 2926 H 267.95 4.53924 -0.821621 0
M  V30 2927 H 266.193 4.25573 -0.840837 0
M  V30 2928 H 266.864 5.51644 0.198317 0
M  V30 2929 H 269.34 3.94723 1.31655 0
M  V30 2930 H 268.216 5.04941 2.15234 0
M  V30 2931 H 268.477 3.43226 2.78654 0
M  V30 2932 N 267.536 -0.106894 1.57237 0
M  V30 2933 C 268.947 -0.662723 1.74542 0
M  V30 2934 C 269.298 -1.7971 0.787319 0
M  V30 2935 O 268.423 -2.16368 -0.0369636 0
M  V30 2936 C 269.018 -1.20896 3.16496 0
M  V30 2937 C 267.577 -1.71096 3.35266 0
M  V30 2938 C 266.724 -0.615642 2.7038 0
M  V30 2939 H 269.675 0.119106 1.58252 0
M  V30 2940 H 269.696 -2.07847 3.18716 0
M  V30 2941 H 269.208 -0.383122 3.86204 0
M  V30 2942 H 267.309 -2.56119 2.70618 0
M  V30 2943 H 267.422 -1.81208 4.43509 0
M  V30 2944 H 265.786 -1.05222 2.31949 0
M  V30 2945 H 266.569 0.199419 3.4272 0
M  V30 2946 N 269.014 -1.53014 -0.377408 0
M  V30 2947 C 269.947 -1.73382 -1.48371 0
M  V30 2948 C 270.925 -0.581879 -1.51832 0
M  V30 2949 O 272.109 -0.81307 -1.70063 0
M  V30 2950 C 269.236 -1.80192 -2.8679 0
M  V30 2951 C 268.282 -3.02056 -3.01105 0
M  V30 2952 S 269.115 -4.61811 -2.71093 0
M  V30 2953 C 270.271 -4.71453 -4.11683 0
M  V30 2954 H 270.504 -2.66946 -1.30872 0
M  V30 2955 H 268.037 -1.43453 -0.571012 0
M  V30 2956 H 269.995 -1.84802 -3.6655 0
M  V30 2957 H 268.656 -0.877008 -3.01608 0
M  V30 2958 H 267.849 -3.03396 -4.02451 0
M  V30 2959 H 267.451 -2.95498 -2.29253 0
M  V30 2960 H 269.743 -4.50781 -5.0577 0
M  V30 2961 H 270.686 -5.73487 -4.15353 0
M  V30 2962 H 271.094 -4.00189 -3.98132 0
M  V30 2963 N 270.492 0.636531 -1.44174 0
M  V30 2964 C 271.908 0.954104 -1.27941 0
M  V30 2965 C 272.108 2.0039 -0.211248 0
M  V30 2966 O 271.164 2.49236 0.404695 0
M  V30 2967 C 272.477 1.4225 -2.64925 0
M  V30 2968 C 274.025 1.53827 -2.72592 0
M  V30 2969 C 274.5 2.04053 -4.10032 0
M  V30 2970 N 275.991 2.11331 -4.12182 0
M  V30 2971 C 276.726 2.51352 -5.15374 0
M  V30 2972 N 276.222 2.90549 -6.2893 0
M  V30 2973 N 278.015 2.51438 -5.02728 0
M  V30 2974 H 270.166 -0.0578386 -2.12321 0
M  V30 2975 H 272.429 0.0367406 -0.947288 0
M  V30 2976 H 272.135 0.725466 -3.44136 0
M  V30 2977 H 272.009 2.39451 -2.9145 0
M  V30 2978 H 274.396 2.22628 -1.93702 0
M  V30 2979 H 274.477 0.550154 -2.49814 0
M  V30 2980 H 274.121 1.35848 -4.89395 0
M  V30 2981 H 274.051 3.03726 -4.30184 0
M  V30 2982 H 276.542 1.83745 -3.30222 0
M  V30 2983 H 276.855 3.19884 -7.03487 0
M  V30 2984 H 275.2 2.88313 -6.32377 0
M  V30 2985 H 278.391 2.20203 -4.13072 0
M  V30 2986 H 278.564 2.82304 -5.83274 0
M  V30 2987 N 271.97 1.30982 0.876444 0
M  V30 2988 C 272.902 1.13902 1.98894 0
M  V30 2989 C 273.915 0.0798815 1.62604 0
M  V30 2990 O 275.104 0.326743 1.75484 0
M  V30 2991 C 272.204 0.716699 3.31235 0
M  V30 2992 C 271.377 1.85945 3.95908 0
M  V30 2993 C 270.436 1.42426 5.06558 0
M  V30 2994 O 269.462 2.13287 5.27729 0
M  V30 2995 N 270.664 0.308025 5.79682 0
M  V30 2996 H 273.429 2.09724 2.14094 0
M  V30 2997 H 270.99 1.2323 1.05004 0
M  V30 2998 H 272.982 0.408403 4.02634 0
M  V30 2999 H 271.552 -0.149719 3.12241 0
M  V30 3000 H 270.772 2.33541 3.17573 0
M  V30 3001 H 272.06 2.62503 4.35855 0
M  V30 3002 H 271.458 -0.282241 5.64995 0
M  V30 3003 H 270.015 0.0592282 6.51773 0
M  V30 3004 N 273.449 -1.08991 1.13837 0
M  V30 3005 C 274.412 -2.13925 0.822715 0
M  V30 3006 C 275.412 -1.599 -0.1699 0
M  V30 3007 O 276.602 -1.74104 0.0577251 0
M  V30 3008 C 273.734 -3.40155 0.225318 0
M  V30 3009 H 274.927 -2.43358 1.75262 0
M  V30 3010 H 272.48 -1.24603 0.943594 0
M  V30 3011 H 273.215 -3.16352 -0.713594 0
M  V30 3012 H 273 -3.80661 0.940193 0
M  V30 3013 H 274.49 -4.17594 0.0214784 0
M  V30 3014 N 274.927 -0.932562 -1.27047 0
M  V30 3015 C 275.89 -0.440064 -2.24936 0
M  V30 3016 C 276.89 0.444071 -1.54547 0
M  V30 3017 O 278.08 0.244465 -1.72476 0
M  V30 3018 C 275.212 0.36678 -3.38921 0
M  V30 3019 H 276.405 -1.305 -2.70018 0
M  V30 3020 H 273.958 -0.713707 -1.39054 0
M  V30 3021 H 274.693 1.25033 -2.99228 0
M  V30 3022 H 274.478 -0.267204 -3.91188 0
M  V30 3023 H 275.968 0.701567 -4.11665 0
M  V30 3024 N 276.405 1.4127 -0.698611 0
M  V30 3025 C 277.651 2.01478 -0.231207 0
M  V30 3026 C 277.984 1.55215 1.16713 0
M  V30 3027 O 277.259 0.764672 1.78838 0
M  V30 3028 C 277.542 3.58912 -0.292281 0
M  V30 3029 C 277.395 4.15293 -1.72778 0
M  V30 3030 C 278.714 4.38736 0.346194 0
M  V30 3031 H 275.833 0.732025 -0.0854878 0
M  V30 3032 H 278.475 1.67977 -0.887906 0
M  V30 3033 H 276.625 3.87582 0.26686 0
M  V30 3034 H 278.297 3.97486 -2.341 0
M  V30 3035 H 276.54 3.7022 -2.26096 0
M  V30 3036 H 277.211 5.24452 -1.72202 0
M  V30 3037 H 279.687 4.15897 -0.130035 0
M  V30 3038 H 278.563 5.48221 0.272932 0
M  V30 3039 H 278.824 4.18425 1.42734 0
M  V30 3040 N 277.883 0.443576 1.51229 0
M  V30 3041 C 279.111 -0.11929 2.06556 0
M  V30 3042 C 279.526 -1.35921 1.31038 0
M  V30 3043 O 278.883 -1.78675 0.371704 0
M  V30 3044 C 278.934 -0.435228 3.5887 0
M  V30 3045 O 278.655 0.755486 4.31537 0
M  V30 3046 C 280.156 -1.04808 4.30732 0
M  V30 3047 H 277.376 -0.0051584 0.67098 0
M  V30 3048 H 279.92 0.624453 1.94733 0
M  V30 3049 H 278.075 -1.12887 3.70588 0
M  V30 3050 H 278.489 0.483491 5.22267 0
M  V30 3051 H 279.963 -1.2191 5.3837 0
M  V30 3052 H 280.44 -2.03081 3.89429 0
M  V30 3053 H 281.046 -0.393637 4.23474 0
M  V30 3054 N 279.361 -1.56624 0.175154 0
M  V30 3055 C 280.586 -2.01813 -0.478137 0
M  V30 3056 C 281.011 -1.05457 -1.55757 0
M  V30 3057 O 280.369 -0.0347439 -1.81267 0
M  V30 3058 C 280.417 -3.45581 -1.02987 0
M  V30 3059 O 279.521 -3.52305 -2.14371 0
M  V30 3060 H 278.862 -0.65413 -0.114059 0
M  V30 3061 H 281.392 -2.02673 0.280173 0
M  V30 3062 H 281.402 -3.84965 -1.35151 0
M  V30 3063 H 280.077 -4.1521 -0.239556 0
M  V30 3064 H 278.654 -3.24783 -1.83222 0
M  V30 3065 N 280.839 0.0985539 -1.57292 0
M  V30 3066 C 282.067 0.816318 -1.90115 0
M  V30 3067 C 282.482 1.72451 -0.768509 0
M  V30 3068 O 281.839 1.80643 0.259687 0
M  V30 3069 C 281.89 1.63259 -3.22535 0
M  V30 3070 O 281.611 0.760934 -4.31441 0
M  V30 3071 C 283.112 2.45372 -3.69199 0
M  V30 3072 H 280.332 0.233595 -0.629027 0
M  V30 3073 H 282.876 0.0768229 -2.04356 0
M  V30 3074 H 281.031 2.32463 -3.09903 0
M  V30 3075 H 281.445 1.32595 -5.07463 0
M  V30 3076 H 282.919 2.98144 -4.64558 0
M  V30 3077 H 283.396 3.23677 -2.96867 0
M  V30 3078 H 284.002 1.81373 -3.84687 0
M  V30 3079 N 282.317 1.53212 0.369288 0
M  V30 3080 C 283.542 1.73423 1.1375 0
M  V30 3081 C 283.967 0.460404 1.82378 0
M  V30 3082 O 283.325 -0.585298 1.71592 0
M  V30 3083 C 283.373 2.89769 2.1463 0
M  V30 3084 O 282.477 2.58119 3.21634 0
M  V30 3085 H 281.818 0.576061 0.330227 0
M  V30 3086 H 284.348 2.00083 0.427547 0
M  V30 3087 H 284.358 3.15829 2.58294 0
M  V30 3088 H 283.033 3.8217 1.64071 0
M  V30 3089 H 281.61 2.42864 2.82969 0
M  V30 3090 N 283.795 -0.628877 1.44509 0
M  V30 3091 C 284.725 -1.75187 1.54376 0
M  V30 3092 C 285.706 -1.65411 0.396618 0
M  V30 3093 O 286.891 -1.84137 0.617031 0
M  V30 3094 C 284.021 -3.13725 1.48976 0
M  V30 3095 C 282.975 -3.38291 2.62189 0
M  V30 3096 C 282.301 -4.76883 2.41841 0
M  V30 3097 C 283.601 -3.30632 4.04326 0
M  V30 3098 H 285.295 -1.67187 2.48373 0
M  V30 3099 H 282.841 -0.802909 1.19538 0
M  V30 3100 H 284.794 -3.92064 1.54478 0
M  V30 3101 H 283.518 -3.22515 0.514961 0
M  V30 3102 H 282.177 -2.62334 2.56079 0
M  V30 3103 H 281.825 -4.82378 1.42548 0
M  V30 3104 H 281.525 -4.94278 3.17747 0
M  V30 3105 H 283.049 -5.57449 2.49165 0
M  V30 3106 H 284.463 -3.98873 4.11793 0
M  V30 3107 H 282.86 -3.59561 4.80454 0
M  V30 3108 H 283.93 -2.28404 4.27738 0
M  V30 3109 N 285.273 -1.31445 -0.869486 0
M  V30 3110 C 286.501 -1.24122 -1.65534 0
M  V30 3111 C 286.916 0.193387 -1.87807 0
M  V30 3112 O 286.273 1.12557 -1.43656 0
M  V30 3113 C 286.324 -1.98229 -3.02304 0
M  V30 3114 O 286.045 -3.3609 -2.81026 0
M  V30 3115 C 287.546 -1.97751 -3.96749 0
M  V30 3116 H 284.766 -0.428868 -0.516055 0
M  V30 3117 H 287.31 -1.73328 -1.08525 0
M  V30 3118 H 285.465 -1.52782 -3.56001 0
M  V30 3119 H 285.879 -3.7383 -3.67902 0
M  V30 3120 H 287.353 -2.54114 -4.90031 0
M  V30 3121 H 287.83 -0.960137 -4.28577 0
M  V30 3122 H 288.436 -2.43079 -3.48988 0
M  V30 3123 N 286.751 1.08385 -1.14413 0
M  V30 3124 C 288 1.80153 -0.907076 0
M  V30 3125 C 288.313 1.87176 0.567851 0
M  V30 3126 O 289.519 2.55359 0.922172 0
M  V30 3127 C 287.975 3.23687 -1.57336 0
M  V30 3128 C 287.583 3.24897 -3.08457 0
M  V30 3129 C 289.327 4.00136 -1.41744 0
M  V30 3130 C 287.234 4.6302 -3.67921 0
M  V30 3131 H 286.164 0.675139 -0.335714 0
M  V30 3132 H 288.815 1.21733 -1.37307 0
M  V30 3133 H 287.197 3.82234 -1.03505 0
M  V30 3134 H 288.371 2.76055 -3.68958 0
M  V30 3135 H 286.686 2.61943 -3.2369 0
M  V30 3136 H 289.283 5.02201 -1.83572 0
M  V30 3137 H 289.626 4.14709 -0.363576 0
M  V30 3138 H 290.159 3.48058 -1.92614 0
M  V30 3139 H 286.898 4.5365 -4.73161 0
M  V30 3140 H 286.418 5.12143 -3.12201 0
M  V30 3141 H 288.097 5.31994 -3.68227 0
M  V30 3142 N 288.23 0.939286 1.26551 0
M  V30 3143 C 289.177 0.446088 2.26448 0
M  V30 3144 C 290.147 -0.493234 1.58608 0
M  V30 3145 O 291.332 -0.409857 1.86346 0
M  V30 3146 C 288.472 -0.284375 3.43926 0
M  V30 3147 C 287.585 0.690399 4.26448 0
M  V30 3148 C 286.72 -0.0610712 5.31165 0
M  V30 3149 C 285.759 0.905649 6.05363 0
M  V30 3150 N 284.896 0.186055 7.01853 0
M  V30 3151 H 289.736 1.30291 2.68008 0
M  V30 3152 H 287.273 0.65371 1.31776 0
M  V30 3153 H 289.231 -0.724313 4.10864 0
M  V30 3154 H 287.861 -1.10535 3.03285 0
M  V30 3155 H 286.913 1.24885 3.59316 0
M  V30 3156 H 288.225 1.42873 4.779 0
M  V30 3157 H 287.379 -0.56038 6.04106 0
M  V30 3158 H 286.118 -0.832297 4.80546 0
M  V30 3159 H 285.123 1.4161 5.3125 0
M  V30 3160 H 286.348 1.67685 6.58072 0
M  V30 3161 H 284.294 -0.566714 6.53548 0
M  V30 3162 H 284.211 0.863752 7.51049 0
M  V30 3163 H 285.479 -0.292221 7.78952 0
M  V30 3164 N 289.708 -1.40897 0.706093 0
M  V30 3165 C 290.933 -2.05895 0.249435 0
M  V30 3166 C 291.358 -1.52823 -1.09666 0
M  V30 3167 O 290.716 -0.659589 -1.68876 0
M  V30 3168 C 290.764 -3.59872 0.22904 0
M  V30 3169 O 289.868 -4.04708 -0.792784 0
M  V30 3170 H 289.209 -0.653206 0.119241 0
M  V30 3171 H 291.739 -1.80471 0.96391 0
M  V30 3172 H 291.749 -4.07951 0.0634791 0
M  V30 3173 H 290.424 -3.97866 1.21141 0
M  V30 3174 H 289.001 -3.68111 -0.59572 0
M  V30 3175 N 291.186 -0.45159 -1.50991 0
M  V30 3176 C 292.432 0.110237 -2.025 0
M  V30 3177 C 292.765 1.41109 -1.33424 0
M  V30 3178 O 292.04 1.89135 -0.453659 0
M  V30 3179 C 292.323 0.314271 -3.58726 0
M  V30 3180 C 292.176 -1.00623 -4.38401 0
M  V30 3181 C 293.495 1.07767 -4.26702 0
M  V30 3182 H 290.614 0.0385897 -0.735989 0
M  V30 3183 H 293.256 -0.593374 -1.80497 0
M  V30 3184 H 291.406 0.913601 -3.77605 0
M  V30 3185 H 293.078 -1.64064 -4.31139 0
M  V30 3186 H 291.321 -1.6075 -4.02917 0
M  V30 3187 H 291.992 -0.817341 -5.45915 0
M  V30 3188 H 294.468 0.56986 -4.12179 0
M  V30 3189 H 293.344 1.18921 -5.35863 0
M  V30 3190 H 293.605 2.10939 -3.88532 0
M  V30 3191 N 292.664 1.56529 -0.183458 0
M  V30 3192 C 293.911 1.97244 0.458357 0
M  V30 3193 C 294.239 1.06992 1.62428 0
M  V30 3194 O 293.494 0.106542 1.9541 0
M  V30 3195 C 293.793 3.43939 0.971637 0
M  V30 3196 C 293.459 4.5083 -0.0796784 0
M  V30 3197 C 292.121 4.79786 -0.368584 0
M  V30 3198 C 294.473 5.15138 -0.792638 0
M  V30 3199 C 291.801 5.70345 -1.37563 0
M  V30 3200 C 294.153 6.06784 -1.78875 0
M  V30 3201 C 292.817 6.34102 -2.08497 0
M  V30 3202 H 292.087 0.721768 0.167725 0
M  V30 3203 H 294.734 1.89472 -0.277976 0
M  V30 3204 H 293.039 3.48724 1.78602 0
M  V30 3205 H 294.736 3.72791 1.47744 0
M  V30 3206 H 291.326 4.28317 0.155668 0
M  V30 3207 H 295.51 4.92868 -0.582659 0
M  V30 3208 H 290.766 5.89789 -1.61118 0
M  V30 3209 H 294.94 6.55677 -2.3465 0
M  V30 3210 H 292.567 7.04074 -2.86678 0
M  V30 3211 N 294.142 -0.090211 1.57342 0
M  V30 3212 C 295.37 -0.806224 1.90546 0
M  V30 3213 C 295.785 -1.72041 0.777644 0
M  V30 3214 O 295.142 -1.80778 -0.250103 0
M  V30 3215 C 295.193 -1.61546 3.23396 0
M  V30 3216 O 294.914 -0.738043 4.31839 0
M  V30 3217 C 296.415 -2.4341 3.70495 0
M  V30 3218 H 293.635 -0.230256 0.630257 0
M  V30 3219 H 296.179 -0.0659843 2.04394 0
M  V30 3220 H 294.334 -2.30816 3.11131 0
M  V30 3221 H 294.748 -1.29901 5.08159 0
M  V30 3222 H 296.222 -2.95676 4.66133 0
M  V30 3223 H 296.699 -3.22098 2.98579 0
M  V30 3224 H 297.305 -1.79331 3.85643 0
M  V30 3225 N 295.62 -1.53406 -0.361157 0
M  V30 3226 C 297.036 -1.43277 -0.703124 0
M  V30 3227 C 297.236 -0.575384 -1.9311 0
M  V30 3228 O 296.292 -0.0595362 -2.5243 0
M  V30 3229 C 297.605 -2.8653 -0.9122 0
M  V30 3230 C 299.153 -2.96191 -1.01193 0
M  V30 3231 C 299.628 -4.40514 -1.25345 0
M  V30 3232 N 301.119 -4.43962 -1.32105 0
M  V30 3233 C 301.854 -5.52746 -1.5251 0
M  V30 3234 N 301.35 -6.71567 -1.70203 0
M  V30 3235 N 303.143 -5.40331 -1.54916 0
M  V30 3236 H 295.294 -2.07654 0.446475 0
M  V30 3237 H 297.557 -0.937944 0.137715 0
M  V30 3238 H 297.263 -3.51605 -0.0816414 0
M  V30 3239 H 297.137 -3.30441 -1.81903 0
M  V30 3240 H 299.524 -2.31266 -1.83303 0
M  V30 3241 H 299.605 -2.55667 -0.0823929 0
M  V30 3242 H 299.249 -5.06014 -0.437346 0
M  V30 3243 H 299.179 -4.78614 -2.19627 0
M  V30 3244 H 301.67 -3.58332 -1.20028 0
M  V30 3245 H 301.983 -7.50241 -1.85359 0
M  V30 3246 H 300.328 -6.74545 -1.67373 0
M  V30 3247 H 303.519 -4.46465 -1.40663 0
M  V30 3248 H 303.692 -6.25173 -1.70477 0
M  V30 3249 N 297.098 0.621204 -1.44841 0
M  V30 3250 C 298.323 1.41244 -1.51871 0
M  V30 3251 C 298.748 1.87519 -0.147764 0
M  V30 3252 O 298.106 1.59334 0.865 0
M  V30 3253 C 298.154 2.60221 -2.49634 0
M  V30 3254 O 297.258 3.60395 -2.00473 0
M  V30 3255 H 296.599 0.42223 -0.512463 0
M  V30 3256 H 299.129 0.757305 -1.90069 0
M  V30 3257 H 299.139 3.0764 -2.67996 0
M  V30 3258 H 297.814 2.25887 -3.4921 0
M  V30 3259 H 296.391 3.19717 -1.91925 0
M  V30 3260 N 298.576 1.31904 0.862503 0
M  V30 3261 C 299.486 1.22161 2.00285 0
M  V30 3262 C 300.502 0.136785 1.73462 0
M  V30 3263 O 301.678 0.355994 1.98229 0
M  V30 3264 C 298.743 0.937093 3.33796 0
M  V30 3265 C 297.804 2.10957 3.73893 0
M  V30 3266 C 297.037 1.83853 5.01033 0
M  V30 3267 O 297.26 0.777274 5.65079 0
M  V30 3268 O 296.194 2.69741 5.38074 0
M  V30 3269 H 300.02 2.18008 2.11439 0
M  V30 3270 H 297.605 1.11716 0.991957 0
M  V30 3271 H 299.487 0.794583 4.13841 0
M  V30 3272 H 298.162 0.00871894 3.23699 0
M  V30 3273 H 297.069 2.30752 2.94456 0
M  V30 3274 H 298.402 3.02046 3.88625 0
M  V30 3275 N 300.054 -1.07777 1.14986 0
M  V30 3276 C 300.984 -2.16865 0.865557 0
M  V30 3277 C 301.965 -1.69123 -0.182083 0
M  V30 3278 O 303.15 -1.94164 -0.0373815 0
M  V30 3279 C 300.28 -3.45539 0.349313 0
M  V30 3280 C 299.234 -4.06708 1.33313 0
M  V30 3281 C 298.56 -5.30411 0.675918 0
M  V30 3282 C 299.86 -4.47241 2.69764 0
M  V30 3283 H 301.554 -2.40905 1.77778 0
M  V30 3284 H 299.1 -1.15781 0.856203 0
M  V30 3285 H 301.053 -4.21174 0.137983 0
M  V30 3286 H 299.777 -3.21072 -0.598362 0
M  V30 3287 H 298.436 -3.33112 1.53075 0
M  V30 3288 H 298.084 -5.02232 -0.277767 0
M  V30 3289 H 297.784 -5.72293 1.33244 0
M  V30 3290 H 299.308 -6.08755 0.474262 0
M  V30 3291 H 300.722 -5.14025 2.53873 0
M  V30 3292 H 299.119 -5.00062 3.3175 0
M  V30 3293 H 300.189 -3.58818 3.26156 0
M  V30 3294 N 301.532 -0.945985 -1.26051 0
M  V30 3295 C 302.479 -0.45809 -2.26208 0
M  V30 3296 C 303.449 0.484816 -1.58867 0
M  V30 3297 O 304.634 0.399969 -1.86561 0
M  V30 3298 C 301.774 0.266131 -3.44072 0
M  V30 3299 C 300.887 -0.713005 -4.26075 0
M  V30 3300 C 300.022 0.0329013 -5.3119 0
M  V30 3301 C 299.061 -0.93774 -6.04874 0
M  V30 3302 N 298.198 -0.223274 -7.01745 0
M  V30 3303 H 303.038 -1.3171 -2.67313 0
M  V30 3304 H 300.575 -0.66069 -1.31428 0
M  V30 3305 H 302.533 0.702514 -4.11243 0
M  V30 3306 H 301.163 1.08925 -3.03867 0
M  V30 3307 H 300.215 -1.26789 -3.58648 0
M  V30 3308 H 301.527 -1.45406 -4.77136 0
M  V30 3309 H 300.681 0.528335 -6.04395 0
M  V30 3310 H 299.42 0.806801 -4.8098 0
M  V30 3311 H 298.425 -1.44425 -5.30492 0
M  V30 3312 H 299.65 -1.71172 -6.57173 0
M  V30 3313 H 297.596 0.532046 -6.53839 0
M  V30 3314 H 297.513 -0.90357 -7.50581 0
M  V30 3315 H 298.781 0.250907 -7.79096 0
M  V30 3316 N 303.011 1.40521 -0.713556 0
M  V30 3317 C 304.258 2.00923 -0.25219 0
M  V30 3318 C 304.586 1.56571 1.15395 0
M  V30 3319 O 303.841 0.775874 1.79663 0
M  V30 3320 C 304.14 3.56317 -0.278 0
M  V30 3321 C 303.806 4.20246 -1.63415 0
M  V30 3322 C 302.468 4.37422 -2.00538 0
M  V30 3323 C 304.82 4.55923 -2.52554 0
M  V30 3324 C 302.148 4.87558 -3.2635 0
M  V30 3325 C 304.5 5.07458 -3.77716 0
M  V30 3326 C 303.164 5.22843 -4.14959 0
M  V30 3327 H 302.434 0.735231 -0.0922829 0
M  V30 3328 H 305.081 1.68161 -0.916188 0
M  V30 3329 H 303.386 3.88976 0.469567 0
M  V30 3330 H 305.083 4.00883 0.0967819 0
M  V30 3331 H 301.673 4.07263 -1.33546 0
M  V30 3332 H 305.857 4.42291 -2.25149 0
M  V30 3333 H 301.113 4.97654 -3.55176 0
M  V30 3334 H 305.287 5.34041 -4.4696 0
M  V30 3335 H 302.914 5.61454 -5.12516 0
M  V30 3336 N 304.489 0.459591 1.5075 0
M  V30 3337 C 305.714 -0.0996819 2.0716 0
M  V30 3338 C 306.139 -1.33761 1.32249 0
M  V30 3339 O 305.497 -1.77551 0.366786 0
M  V30 3340 C 305.545 -0.378226 3.58611 0
M  V30 3341 O 304.649 -1.46081 3.85661 0
M  V30 3342 H 303.99 0.00791392 0.663953 0
M  V30 3343 H 306.52 0.647329 1.9409 0
M  V30 3344 H 306.53 -0.622135 4.03229 0
M  V30 3345 H 305.205 0.526439 4.12555 0
M  V30 3346 H 303.782 -1.20511 3.5289 0
M  V30 3347 N 305.967 -1.56429 0.191757 0
M  V30 3348 C 307.378 -1.83912 -0.321428 0
M  V30 3349 C 307.729 -1.11231 -1.61623 0
M  V30 3350 O 306.854 -0.37202 -2.13178 0
M  V30 3351 C 307.449 -3.33624 -0.589961 0
M  V30 3352 C 306.008 -3.6153 -1.04753 0
M  V30 3353 C 305.155 -2.7714 -0.0943327 0
M  V30 3354 H 308.106 -1.53161 0.415612 0
M  V30 3355 H 308.127 -3.52213 -1.43966 0
M  V30 3356 H 307.639 -3.86495 0.352588 0
M  V30 3357 H 305.74 -3.14089 -2.00447 0
M  V30 3358 H 305.853 -4.69737 -0.942549 0
M  V30 3359 H 304.217 -2.47638 -0.595589 0
M  V30 3360 H 305 -3.32799 0.842601 0
M  V30 3361 N 307.445 0.0818655 -1.57387 0
M  V30 3362 C 308.377 1.12484 -1.997 0
M  V30 3363 C 309.39 1.35564 -0.90146 0
M  V30 3364 O 310.579 1.33982 -1.17945 0
M  V30 3365 C 307.679 2.47778 -2.31213 0
M  V30 3366 C 306.852 2.44793 -3.62485 0
M  V30 3367 C 305.911 3.62117 -3.81782 0
M  V30 3368 O 304.937 3.44005 -4.53486 0
M  V30 3369 N 306.139 4.82094 -3.23367 0
M  V30 3370 H 308.904 0.764585 -2.89783 0
M  V30 3371 H 306.465 0.270664 -1.59621 0
M  V30 3372 H 308.457 3.24891 -2.41304 0
M  V30 3373 H 307.027 2.75843 -1.4707 0
M  V30 3374 H 306.247 1.53134 -3.6324 0
M  V30 3375 H 307.535 2.39889 -4.48699 0
M  V30 3376 H 306.933 4.99713 -2.65148 0
M  V30 3377 H 305.49 5.56753 -3.38923 0
M  V30 3378 N 308.923 1.53595 0.353017 0
M  V30 3379 C 310.169 1.71581 1.09232 0
M  V30 3380 C 310.524 0.468328 1.86613 0
M  V30 3381 O 309.817 -0.538911 1.83865 0
M  V30 3382 C 310.011 2.91313 2.07054 0
M  V30 3383 C 309.84 4.27585 1.39287 0
M  V30 3384 C 308.61 4.92233 1.1417 0
M  V30 3385 C 310.808 5.07656 0.824005 0
M  V30 3386 N 308.79 6.124 0.428841 0
M  V30 3387 C 310.161 6.19531 0.241195 0
M  V30 3388 C 312.216 4.92609 0.723922 0
M  V30 3389 C 310.919 7.18002 -0.431952 0
M  V30 3390 C 312.945 5.91365 0.0645334 0
M  V30 3391 C 312.307 7.02571 -0.507347 0
M  V30 3392 H 308.406 0.680987 0.384422 0
M  V30 3393 H 310.99 1.91013 0.377096 0
M  V30 3394 H 309.161 2.73398 2.75877 0
M  V30 3395 H 310.893 2.98062 2.73753 0
M  V30 3396 H 307.648 4.51612 1.42631 0
M  V30 3397 H 308.072 6.76944 0.0874131 0
M  V30 3398 H 312.714 4.06808 1.15181 0
M  V30 3399 H 310.432 8.03384 -0.871758 0
M  V30 3400 H 314.018 5.81799 -0.0121469 0
M  V30 3401 H 312.898 7.77675 -1.0095 0
M  V30 3402 N 310.401 -0.613514 1.45168 0
M  V30 3403 C 311.626 -1.40437 1.52618 0
M  V30 3404 C 312.051 -1.87438 0.157707 0
M  V30 3405 O 311.409 -1.59791 -0.856537 0
M  V30 3406 C 311.457 -2.58894 2.51011 0
M  V30 3407 O 310.561 -3.59326 2.02382 0
M  V30 3408 H 309.902 -0.419506 0.514695 0
M  V30 3409 H 312.432 -0.747215 1.90467 0
M  V30 3410 H 312.442 -3.06214 2.69624 0
M  V30 3411 H 311.117 -2.24032 3.50403 0
M  V30 3412 H 309.694 -3.18695 1.93618 0
M  V30 3413 N 311.879 -1.3236 -0.855495 0
M  V30 3414 C 312.829 -1.17809 -1.95205 0
M  V30 3415 C 313.813 -0.0852319 -1.60674 0
M  V30 3416 O 315.005 -0.311651 -1.74235 0
M  V30 3417 C 312.134 -0.902437 -3.31226 0
M  V30 3418 C 311.22 -2.03695 -3.7198 0
M  V30 3419 N 311.611 -3.28544 -3.84568 0
M  V30 3420 C 309.909 -1.93993 -4.016 0
M  V30 3421 C 310.61 -4.02847 -4.19629 0
M  V30 3422 N 309.586 -3.31138 -4.31102 0
M  V30 3423 H 313.388 -2.12462 -2.0307 0
M  V30 3424 H 310.902 -1.24127 -1.0472 0
M  V30 3425 H 312.899 -0.77915 -4.09554 0
M  V30 3426 H 311.559 0.0357267 -3.2468 0
M  V30 3427 H 312.57 -3.6349 -3.68911 0
M  V30 3428 H 309.247 -1.07733 -4.03361 0
M  V30 3429 H 310.637 -5.10506 -4.36845 0
M  V30 3430 N 313.357 1.07166 -1.15556 0
M  V30 3431 C 314.307 2.12649 -0.82247 0
M  V30 3432 C 315.291 1.59725 0.194129 0
M  V30 3433 O 316.483 1.76999 -0.00540402 0
M  V30 3434 C 313.612 3.41847 -0.315572 0
M  V30 3435 C 312.698 4.0162 -1.36244 0
M  V30 3436 N 313.089 4.35625 -2.5703 0
M  V30 3437 C 311.387 4.29114 -1.21562 0
M  V30 3438 C 312.088 4.83017 -3.24144 0
M  V30 3439 N 311.064 4.81906 -2.51531 0
M  V30 3440 H 314.866 2.36776 -1.74111 0
M  V30 3441 H 312.38 1.24622 -1.0413 0
M  V30 3442 H 314.377 4.16859 -0.0585855 0
M  V30 3443 H 313.037 3.19163 0.597105 0
M  V30 3444 H 314.048 4.26253 -2.94158 0
M  V30 3445 H 310.725 4.15919 -0.362988 0
M  V30 3446 H 312.115 5.18605 -4.27198 0
M  V30 3447 N 314.835 0.952656 1.25548 0
M  V30 3448 C 316.083 0.605176 1.92826 0
M  V30 3449 C 316.404 -0.860261 1.74999 0
M  V30 3450 O 315.674 -1.6125 1.11244 0
M  V30 3451 H 314.254 0.220832 0.713612 0
M  V30 3452 H 316.916 1.21047 1.52754 0
M  V30 3453 H 316.012 0.832798 3.00784 0
M  V30 3454 N 316.313 -1.40141 0.720998 0
M  V30 3455 C 317.26 -2.30688 0.071919 0
M  V30 3456 C 318.23 -1.48476 -0.744584 0
M  V30 3457 O 319.415 -1.77201 -0.707423 0
M  V30 3458 C 316.555 -3.34724 -0.839855 0
M  V30 3459 C 315.668 -4.31998 -0.0122438 0
M  V30 3460 C 314.803 -5.23102 -0.923995 0
M  V30 3461 C 313.842 -6.12033 -0.0907969 0
M  V30 3462 N 312.979 -6.95537 -0.957718 0
M  V30 3463 H 317.819 -2.85628 0.849755 0
M  V30 3464 H 315.356 -1.40653 0.430726 0
M  V30 3465 H 317.314 -3.93618 -1.38279 0
M  V30 3466 H 315.944 -2.81274 -1.58381 0
M  V30 3467 H 314.996 -3.74841 0.64794 0
M  V30 3468 H 316.308 -4.94772 0.632595 0
M  V30 3469 H 315.462 -5.86953 -1.53527 0
M  V30 3470 H 314.201 -4.60615 -1.60264 0
M  V30 3471 H 313.206 -5.47207 0.533377 0
M  V30 3472 H 314.431 -6.76581 0.584428 0
M  V30 3473 H 312.377 -6.35633 -1.62192 0
M  V30 3474 H 312.294 -7.55099 -0.36904 0
M  V30 3475 H 313.562 -7.63832 -1.555 0
M  V30 3476 N 317.792 -0.46758 -1.50504 0
M  V30 3477 C 319.041 0.0902868 -2.01498 0
M  V30 3478 C 319.354 1.411 -1.35463 0
M  V30 3479 O 320.56 2.0536 -1.77594 0
M  V30 3480 C 319.016 0.21142 -3.59278 0
M  V30 3481 C 318.624 -1.10065 -4.34269 0
M  V30 3482 C 320.368 0.721433 -4.18325 0
M  V30 3483 C 318.275 -0.943505 -5.83825 0
M  V30 3484 H 317.205 0.037517 -0.753066 0
M  V30 3485 H 319.856 -0.601943 -1.73346 0
M  V30 3486 H 318.238 0.967352 -3.84003 0
M  V30 3487 H 319.412 -1.86726 -4.21272 0
M  V30 3488 H 317.727 -1.5415 -3.86816 0
M  V30 3489 H 320.324 0.85598 -5.27804 0
M  V30 3490 H 320.667 1.71186 -3.79475 0
M  V30 3491 H 321.2 0.0229843 -3.97793 0
M  V30 3492 H 317.939 -1.90719 -6.27141 0
M  V30 3493 H 317.459 -0.217213 -5.99407 0
M  V30 3494 H 319.138 -0.608715 -6.4413 0
M  V30 3495 N 319.27 1.56325 -0.20005 0
M  V30 3496 C 320.516 1.98012 0.438059 0
M  V30 3497 C 320.849 1.08702 1.60927 0
M  V30 3498 O 320.124 0.140064 1.93995 0
M  V30 3499 C 320.407 3.48841 0.893419 0
M  V30 3500 C 320.26 4.48928 -0.279947 0
M  V30 3501 C 321.579 4.03498 1.75719 0
M  V30 3502 H 318.698 0.719918 0.157757 0
M  V30 3503 H 321.34 1.87743 -0.291968 0
M  V30 3504 H 319.49 3.57723 1.51547 0
M  V30 3505 H 321.162 4.52079 -0.91772 0
M  V30 3506 H 319.405 4.23694 -0.930919 0
M  V30 3507 H 320.076 5.5194 0.0812601 0
M  V30 3508 H 322.552 3.97427 1.23253 0
M  V30 3509 H 321.428 5.09393 2.04476 0
M  V30 3510 H 321.689 3.4906 2.71311 0
M  V30 3511 N 320.748 -0.0735177 1.57428 0
M  V30 3512 C 321.976 -0.785969 1.9139 0
M  V30 3513 C 322.391 -1.71207 0.795847 0
M  V30 3514 O 321.748 -1.81033 -0.230915 0
M  V30 3515 C 321.799 -1.58107 3.25091 0
M  V30 3516 O 321.52 -0.6922 4.32597 0
M  V30 3517 C 323.021 -2.39467 3.73055 0
M  V30 3518 H 320.241 -0.223558 0.632663 0
M  V30 3519 H 322.785 -0.044302 2.04452 0
M  V30 3520 H 320.94 -2.27503 3.13562 0
M  V30 3521 H 321.354 -1.24504 5.09508 0
M  V30 3522 H 322.828 -2.90716 4.69242 0
M  V30 3523 H 323.305 -3.18913 3.01979 0
M  V30 3524 H 323.911 -1.7523 3.87523 0
M  V30 3525 N 322.226 -1.5378 -0.344866 0
M  V30 3526 C 323.466 -1.72677 -1.09371 0
M  V30 3527 C 323.83 -0.479084 -1.85927 0
M  V30 3528 O 325.031 -0.54505 -2.63216 0
M  V30 3529 C 323.302 -2.95457 -2.01097 0
M  V30 3530 S 324.861 -3.35158 -2.83222 0
M  V30 3531 H 321.679 -0.607402 -0.369573 0
M  V30 3532 H 324.281 -1.91922 -0.372307 0
M  V30 3533 H 322.985 -3.84437 -1.43655 0
M  V30 3534 H 322.516 -2.78673 -2.77678 0
M  V30 3535 H 324.531 -2.88789 -4.03504 0
M  V30 3536 N 323.704 0.605807 -1.45491 0
M  V30 3537 C 324.636 1.73031 -1.5031 0
M  V30 3538 C 325.649 1.57968 -0.393687 0
M  V30 3539 O 326.838 1.65817 -0.660839 0
M  V30 3540 C 323.938 3.11049 -1.34543 0
M  V30 3541 C 323.111 3.52334 -2.59189 0
M  V30 3542 C 322.17 4.69323 -2.37954 0
M  V30 3543 O 321.196 4.7635 -3.11575 0
M  V30 3544 N 322.398 5.62705 -1.4263 0
M  V30 3545 H 325.163 1.6936 -2.4726 0
M  V30 3546 H 322.724 0.79114 -1.41254 0
M  V30 3547 H 324.716 3.87071 -1.18144 0
M  V30 3548 H 323.286 3.09217 -0.458623 0
M  V30 3549 H 322.506 2.66256 -2.90691 0
M  V30 3550 H 323.794 3.76677 -3.42041 0
M  V30 3551 H 323.192 5.59744 -0.818758 0
M  V30 3552 H 321.749 6.38252 -1.32202 0
M  V30 3553 N 325.182 1.32811 0.848464 0
M  V30 3554 C 326.112 1.24882 1.97299 0
M  V30 3555 C 327.093 0.131357 1.69592 0
M  V30 3556 O 328.278 0.319553 1.91553 0
M  V30 3557 C 325.408 0.97746 3.33261 0
M  V30 3558 C 324.362 2.05682 3.75338 0
M  V30 3559 C 323.688 1.63777 5.09 0
M  V30 3560 C 324.988 3.47254 3.90144 0
M  V30 3561 H 326.682 2.18966 2.04191 0
M  V30 3562 H 324.228 1.05413 0.981029 0
M  V30 3563 H 326.181 0.908513 4.1149 0
M  V30 3564 H 324.905 0.000980011 3.266 0
M  V30 3565 H 323.564 2.11603 2.99366 0
M  V30 3566 H 323.212 0.648569 4.98801 0
M  V30 3567 H 322.912 2.36 5.38124 0
M  V30 3568 H 324.436 1.5833 5.89715 0
M  V30 3569 H 325.85 3.43888 4.58709 0
M  V30 3570 H 324.247 4.1788 4.30693 0
M  V30 3571 H 325.317 3.86462 2.92874 0
M  V30 3572 N 326.66 -1.06551 1.16123 0
M  V30 3573 C 327.592 -2.13908 0.823171 0
M  V30 3574 C 328.605 -1.61926 -0.16843 0
M  V30 3575 O 329.794 -1.78412 0.055962 0
M  V30 3576 C 326.894 -3.38283 0.204424 0
M  V30 3577 C 326.067 -4.19589 1.23548 0
M  V30 3578 C 325.126 -5.2233 0.637011 0
M  V30 3579 O 324.152 -5.54034 1.30516 0
M  V30 3580 N 325.354 -5.77621 -0.577474 0
M  V30 3581 H 328.119 -2.43508 1.74711 0
M  V30 3582 H 325.68 -1.2253 1.05821 0
M  V30 3583 H 327.672 -4.0416 -0.208909 0
M  V30 3584 H 326.242 -3.06329 -0.623012 0
M  V30 3585 H 325.462 -3.49406 1.82507 0
M  V30 3586 H 326.75 -4.70718 1.93137 0
M  V30 3587 H 326.148 -5.54125 -1.13853 0
M  V30 3588 H 324.705 -6.45087 -0.933053 0
M  V30 3589 N 328.138 -0.959301 -1.25041 0
M  V30 3590 C 329.415 -0.533805 -1.88175 0
M  V30 3591 C 329.795 0.988994 -1.865 0
M  V30 3592 O 329.143 1.85677 -1.33177 0
M  V30 3593 C 329.353 -1.11575 -3.30684 0
M  V30 3594 C 330.701 -1.19548 -4.07423 0
M  V30 3595 O 331.725 -1.06765 -3.39823 0
M  V30 3596 O 330.584 -1.39656 -5.28354 0
M  V30 3597 H 327.678 -0.176772 -0.807887 0
M  V30 3598 H 330.224 -1.05303 -1.33076 0
M  V30 3599 H 328.996 -2.15884 -3.26358 0
M  V30 3600 H 328.619 -0.580059 -3.93346 0
M  V30 3601 N 329.616 1.39756 -0.72842 0
M  V30 3602 C 330.579 2.29012 -0.0927297 0
M  V30 3603 C 331.579 1.45992 0.674025 0
M  V30 3604 O 332.769 1.66749 0.50402 0
M  V30 3605 C 329.901 3.29396 0.878137 0
M  V30 3606 H 331.094 2.86729 -0.879011 0
M  V30 3607 H 328.647 1.48293 -0.493847 0
M  V30 3608 H 329.382 2.76722 1.69101 0
M  V30 3609 H 329.167 3.907 0.331051 0
M  V30 3610 H 330.657 3.96199 1.3197 0
M  V30 3611 N 331.094 0.475555 1.50254 0
M  V30 3612 C 332.371 -0.139685 1.95101 0
M  V30 3613 C 332.751 -1.56555 1.41611 0
M  V30 3614 O 332.099 -2.19956 0.618993 0
M  V30 3615 C 332.309 -0.0784298 3.48912 0
M  V30 3616 C 333.657 -0.265095 4.23772 0
M  V30 3617 O 334.681 -0.154808 3.55863 0
M  V30 3618 O 333.54 -0.488327 5.44314 0
M  V30 3619 H 330.634 -0.109236 0.819754 0
M  V30 3620 H 333.18 0.536276 1.61004 0
M  V30 3621 H 331.952 0.916918 3.80405 0
M  V30 3622 H 331.575 -0.795655 3.89558 0
M  V30 3623 N 332.573 -1.56217 0.208337 0
M  V30 3624 C 333.821 -1.97558 -0.426076 0
M  V30 3625 C 334.142 -1.09683 -1.61229 0
M  V30 3626 O 333.412 -0.170956 -1.95153 0
M  V30 3627 H 331.992 -0.729575 -0.160405 0
M  V30 3628 H 334.654 -1.92606 0.298155 0
M  V30 3629 H 333.75 -3.02672 -0.761312 0
M  V30 3630 N 334.051 0.0651679 -1.57465 0
M  V30 3631 C 334.998 1.07675 -2.04144 0
M  V30 3632 C 335.968 1.38071 -0.923335 0
M  V30 3633 O 337.153 1.49026 -1.19146 0
M  V30 3634 C 334.293 2.38337 -2.49579 0
M  V30 3635 C 333.406 2.14413 -3.75035 0
M  V30 3636 C 332.541 3.38686 -4.09225 0
M  V30 3637 C 331.58 3.10156 -5.27702 0
M  V30 3638 N 330.717 4.26778 -5.57499 0
M  V30 3639 H 335.557 0.671716 -2.90331 0
M  V30 3640 H 333.094 0.3201 -1.43575 0
M  V30 3641 H 335.052 3.14632 -2.73975 0
M  V30 3642 H 333.682 2.7663 -1.6636 0
M  V30 3643 H 332.734 1.2878 -3.57939 0
M  V30 3644 H 334.046 1.89344 -4.61466 0
M  V30 3645 H 333.2 4.23373 -4.34558 0
M  V30 3646 H 331.939 3.66837 -3.21374 0
M  V30 3647 H 330.944 2.23866 -5.02159 0
M  V30 3648 H 332.169 2.8332 -6.17176 0
M  V30 3649 H 330.115 4.54948 -4.72608 0
M  V30 3650 H 330.032 4.05005 -6.38362 0
M  V30 3651 H 331.3 5.12443 -5.87386 0
M  V30 3652 N 335.529 1.53961 0.336706 0
M  V30 3653 C 336.776 1.71536 1.07618 0
M  V30 3654 C 337.104 0.482125 1.8843 0
M  V30 3655 O 336.359 -0.536142 1.88213 0
M  V30 3656 C 336.658 2.93493 2.03953 0
M  V30 3657 C 336.324 4.28811 1.39399 0
M  V30 3658 C 334.986 4.65602 1.21523 0
M  V30 3659 C 337.338 5.12844 0.929541 0
M  V30 3660 C 334.666 5.84037 0.558312 0
M  V30 3661 C 337.018 6.31951 0.286505 0
M  V30 3662 C 335.682 6.67432 0.0954869 0
M  V30 3663 H 334.952 0.627696 0.393801 0
M  V30 3664 H 337.599 1.88186 0.354715 0
M  V30 3665 H 335.904 2.71475 2.82504 0
M  V30 3666 H 337.601 3.04285 2.61174 0
M  V30 3667 H 334.191 3.99858 1.54311 0
M  V30 3668 H 338.375 4.84947 1.05548 0
M  V30 3669 H 333.631 6.10097 0.398995 0
M  V30 3670 H 337.805 6.96352 -0.0814376 0
M  V30 3671 H 335.432 7.59063 -0.415579 0
M  V30 3672 N 337.007 -0.598083 1.45811 0
M  V30 3673 C 337.937 -1.71873 1.58057 0
M  V30 3674 C 338.918 -1.64533 0.431615 0
M  V30 3675 O 340.103 -1.82787 0.65595 0
M  V30 3676 C 337.233 -3.10495 1.55597 0
M  V30 3677 C 336.187 -3.32654 2.69305 0
M  V30 3678 C 335.513 -4.71646 2.51902 0
M  V30 3679 C 336.813 -3.21981 4.11248 0
M  V30 3680 H 338.507 -1.61881 2.51863 0
M  V30 3681 H 336.053 -0.777372 1.21214 0
M  V30 3682 H 338.006 -3.88699 1.6276 0
M  V30 3683 H 336.73 -3.2135 0.583255 0
M  V30 3684 H 335.389 -2.56843 2.61586 0
M  V30 3685 H 335.037 -4.79246 1.52748 0
M  V30 3686 H 334.737 -4.87426 3.2816 0
M  V30 3687 H 336.261 -5.52038 2.60933 0
M  V30 3688 H 337.675 -3.90049 4.20161 0
M  V30 3689 H 336.072 -3.49289 4.87972 0
M  V30 3690 H 337.142 -2.1928 4.32486 0
M  V30 3691 N 338.485 -1.33259 -0.841409 0
M  V30 3692 C 339.71 -1.2775 -1.63385 0
M  V30 3693 C 340.135 0.149188 -1.87507 0
M  V30 3694 O 339.493 1.10498 -1.43736 0
M  V30 3695 C 339.541 -2.05571 -2.96265 0
M  V30 3696 O 338.645 -1.41257 -3.87453 0
M  V30 3697 H 337.986 -0.439627 -0.497618 0
M  V30 3698 H 340.516 -1.75782 -1.04699 0
M  V30 3699 H 340.526 -2.16241 -3.45982 0
M  V30 3700 H 339.201 -3.09309 -2.7803 0
M  V30 3701 H 337.778 -1.39217 -3.45938 0
M  V30 3702 N 339.963 1.05934 -1.16686 0
M  V30 3703 C 340.911 2.15603 -0.872817 0
M  V30 3704 C 341.905 1.68647 0.159576 0
M  V30 3705 O 343.111 1.79995 0.0132125 0
M  V30 3706 H 339.486 0.703885 -0.264671 0
M  V30 3707 H 341.457 2.37613 -1.80507 0
M  V30 3708 C 340.206 3.45457 -0.394344 0
M  V30 3709 H 339.529 3.81984 -1.18019 0
M  V30 3710 H 340.969 4.2339 -0.227408 0
M  V30 3711 C 339.428 3.25021 0.88673 0
M  V30 3712 O 339.958 3.50906 1.95519 0
M  V30 3713 N 338.164 2.78437 0.831925 0
M  V30 3714 H 337.711 2.57572 -0.0377619 0
M  V30 3715 H 337.669 2.65144 1.68956 0
M  V30 3716 N 341.441 0.965919 1.2453 0
M  V30 3717 C 342.718 0.543777 1.87889 0
M  V30 3718 C 343.098 -0.97909 1.87021 0
M  V30 3719 O 342.446 -1.84969 1.3416 0
M  V30 3720 C 342.656 1.13327 3.30088 0
M  V30 3721 C 344.004 1.21707 4.06783 0
M  V30 3722 O 345.028 1.08566 3.39252 0
M  V30 3723 O 343.887 1.42456 5.27606 0
M  V30 3724 H 340.981 0.181054 0.806938 0
M  V30 3725 H 343.527 1.06007 1.32516 0
M  V30 3726 H 342.299 2.17612 3.25209 0
M  V30 3727 H 341.922 0.600911 3.93033 0
M  V30 3728 N 342.919 -1.39368 0.735821 0
M  V30 3729 C 344.147 -2.04795 0.294393 0
M  V30 3730 C 344.562 -1.55478 -1.07107 0
M  V30 3731 O 343.919 -0.720038 -1.67695 0
M  V30 3732 C 343.97 -3.6035 0.288071 0
M  V30 3733 O 343.691 -4.07852 1.59963 0
M  V30 3734 C 345.192 -4.42976 -0.169422 0
M  V30 3735 H 342.412 -0.658571 0.128551 0
M  V30 3736 H 344.956 -1.78399 0.999701 0
M  V30 3737 H 343.111 -3.85645 -0.368355 0
M  V30 3738 H 343.525 -5.02181 1.51375 0
M  V30 3739 H 344.999 -5.51864 -0.122687 0
M  V30 3740 H 345.476 -4.22068 -1.21472 0
M  V30 3741 H 346.082 -4.22832 0.457469 0
M  V30 3742 N 344.397 -0.483516 -1.5 0
M  V30 3743 C 345.643 0.0672592 -2.02688 0
M  V30 3744 C 345.976 1.38247 -1.36387 0
M  V30 3745 O 345.251 1.88131 -0.493675 0
M  V30 3746 C 345.534 0.238109 -3.59312 0
M  V30 3747 C 345.387 -1.099 -4.36168 0
M  V30 3748 C 346.706 0.986916 -4.28892 0
M  V30 3749 H 343.825 0.0229696 -0.736642 0
M  V30 3750 H 346.467 -0.631527 -1.79197 0
M  V30 3751 H 344.617 0.8333 -3.79458 0
M  V30 3752 H 346.289 -1.73172 -4.27562 0
M  V30 3753 H 344.532 -1.69261 -3.99416 0
M  V30 3754 H 345.203 -0.932954 -5.44059 0
M  V30 3755 H 347.679 0.482302 -4.13295 0
M  V30 3756 H 346.555 1.07527 -5.38265 0
M  V30 3757 H 346.816 2.0265 -3.92919 0
M  V30 3758 N 345.875 1.56104 -0.216619 0
M  V30 3759 C 346.807 2.17339 0.72776 0
M  V30 3760 C 347.82 1.14109 1.16116 0
M  V30 3761 O 349.009 1.4111 1.09317 0
M  V30 3762 C 346.109 2.73818 1.99693 0
M  V30 3763 C 345.282 4.02168 1.71988 0
M  V30 3764 C 344.341 4.43259 2.83562 0
M  V30 3765 O 343.367 5.10257 2.52244 0
M  V30 3766 N 344.569 4.08535 4.12407 0
M  V30 3767 H 347.334 2.99005 0.203983 0
M  V30 3768 H 344.895 1.61861 -0.0354289 0
M  V30 3769 H 346.887 2.9828 2.73516 0
M  V30 3770 H 345.457 1.96483 2.43132 0
M  V30 3771 H 344.677 3.85612 0.818337 0
M  V30 3772 H 345.965 4.85907 1.50903 0
M  V30 3773 H 345.363 3.54687 4.40696 0
M  V30 3774 H 343.92 4.37901 4.8279 0
M  V30 3775 N 347.353 -0.0568162 1.57498 0
M  V30 3776 C 348.283 -1.06593 2.0775 0
M  V30 3777 C 349.264 -1.39448 0.974082 0
M  V30 3778 O 350.449 -1.48815 1.24771 0
M  V30 3779 C 347.579 -2.37509 2.5339 0
M  V30 3780 C 346.533 -2.1897 3.67745 0
M  V30 3781 C 345.859 -3.55402 3.99492 0
M  V30 3782 C 347.159 -1.59859 4.97235 0
M  V30 3783 H 348.853 -0.647706 2.9231 0
M  V30 3784 H 346.399 -0.310116 1.40621 0
M  V30 3785 H 348.352 -3.08409 2.87162 0
M  V30 3786 H 347.076 -2.8134 1.65878 0
M  V30 3787 H 345.735 -1.50508 3.3428 0
M  V30 3788 H 345.383 -3.9683 3.09088 0
M  V30 3789 H 345.083 -3.43831 4.76502 0
M  V30 3790 H 346.607 -4.27708 4.35773 0
M  V30 3791 H 348.021 -2.20642 5.29141 0
M  V30 3792 H 346.418 -1.58942 5.78669 0
M  V30 3793 H 347.488 -0.561506 4.81638 0
M  V30 3794 N 348.832 -1.54138 -0.328536 0
M  V30 3795 C 349.78 -1.83894 -1.42428 0
M  V30 3796 C 350.774 -0.710478 -1.53781 0
M  V30 3797 O 351.98 -0.894062 -1.56226 0
M  V30 3798 H 348.355 -0.582837 -0.475189 0
M  V30 3799 H 350.326 -2.75537 -1.14552 0
M  V30 3800 C 349.075 -2.07866 -2.78724 0
M  V30 3801 H 348.398 -2.94158 -2.7076 0
M  V30 3802 H 349.838 -2.32644 -3.54476 0
M  V30 3803 C 348.297 -0.868689 -3.25508 0
M  V30 3804 O 348.827 -0.0754908 -4.01629 0
M  V30 3805 N 347.033 -0.681711 -2.82491 0
M  V30 3806 H 346.58 -1.32838 -2.20708 0
M  V30 3807 H 346.538 0.126374 -3.14146 0
M  V30 3808 N 350.31 0.590341 -1.46126 0
M  V30 3809 C 351.556 1.35082 -1.51264 0
M  V30 3810 C 351.889 1.93534 -0.160711 0
M  V30 3811 O 351.164 1.76045 0.826956 0
M  V30 3812 C 351.447 2.48588 -2.6053 0
M  V30 3813 C 351.3 1.95221 -4.05227 0
M  V30 3814 C 352.619 3.50662 -2.6594 0
M  V30 3815 H 349.738 0.489803 -0.550692 0
M  V30 3816 H 352.38 0.663887 -1.78024 0
M  V30 3817 H 350.53 3.07186 -2.37843 0
M  V30 3818 H 352.202 1.41139 -4.39178 0
M  V30 3819 H 350.445 1.26101 -4.15068 0
M  V30 3820 H 351.116 2.77121 -4.77397 0
M  V30 3821 H 353.592 3.01934 -2.86313 0
M  V30 3822 H 352.468 4.27551 -3.44226 0
M  V30 3823 H 352.729 4.07399 -1.71694 0
M  V30 3824 N 351.788 1.33704 0.83433 0
M  V30 3825 C 352.735 1.24335 1.94447 0
M  V30 3826 C 353.705 0.120991 1.65659 0
M  V30 3827 O 354.89 0.300035 1.88426 0
M  V30 3828 C 352.03 0.993124 3.30501 0
M  V30 3829 C 351.143 2.20217 3.71657 0
M  V30 3830 C 350.278 1.88572 4.96602 0
M  V30 3831 C 349.317 3.05683 5.30306 0
M  V30 3832 N 348.454 2.73997 6.46429 0
M  V30 3833 H 353.294 2.1928 2.01792 0
M  V30 3834 H 350.831 1.09035 0.987404 0
M  V30 3835 H 352.789 0.828467 4.08892 0
M  V30 3836 H 351.419 0.0803902 3.227 0
M  V30 3837 H 350.471 2.47642 2.88752 0
M  V30 3838 H 351.783 3.07752 3.92543 0
M  V30 3839 H 350.937 1.68776 5.82752 0
M  V30 3840 H 349.676 0.982799 4.77695 0
M  V30 3841 H 348.681 3.26088 4.42659 0
M  V30 3842 H 349.906 3.96737 5.51159 0
M  V30 3843 H 347.852 1.86268 6.28999 0
M  V30 3844 H 347.769 3.55064 6.67432 0
M  V30 3845 H 349.037 2.57679 7.35678 0
M  V30 3846 N 353.266 -1.05314 1.17247 0
M  V30 3847 C 354.216 -2.11313 0.856196 0
M  V30 3848 C 355.2 -1.60013 -0.168694 0
M  V30 3849 O 356.392 -1.76968 0.0335624 0
M  V30 3850 C 353.521 -3.41301 0.369917 0
M  V30 3851 C 352.607 -3.99401 1.42616 0
M  V30 3852 N 352.998 -4.31481 2.63928 0
M  V30 3853 C 351.296 -4.27126 1.28373 0
M  V30 3854 C 351.997 -4.77799 3.31787 0
M  V30 3855 N 350.973 -4.77843 2.59166 0
M  V30 3856 H 354.775 -2.33976 1.77856 0
M  V30 3857 H 352.289 -1.2295 1.06099 0
M  V30 3858 H 354.286 -4.16713 0.124897 0
M  V30 3859 H 352.946 -3.20072 -0.546253 0
M  V30 3860 H 353.957 -4.21519 3.00902 0
M  V30 3861 H 350.634 -4.15289 0.429111 0
M  V30 3862 H 352.024 -5.11743 4.35395 0
M  V30 3863 N 354.744 -0.972509 -1.24016 0
M  V30 3864 C 355.972 -0.654803 -1.96265 0
M  V30 3865 C 356.387 0.776708 -1.72083 0
M  V30 3866 O 355.744 1.52171 -1.00748 0
M  V30 3867 C 355.795 -0.92592 -3.49441 0
M  V30 3868 O 355.516 -2.30116 -3.72798 0
M  V30 3869 C 357.017 -0.623068 -4.38899 0
M  V30 3870 H 354.237 -0.243907 -0.6251 0
M  V30 3871 H 356.781 -1.30175 -1.57717 0
M  V30 3872 H 354.936 -0.325108 -3.86033 0
M  V30 3873 H 355.35 -2.38483 -4.67147 0
M  V30 3874 H 356.824 -0.863189 -5.45209 0
M  V30 3875 H 357.301 0.442754 -4.36963 0
M  V30 3876 H 357.907 -1.204 -4.07902 0
M  V30 3877 N 356.222 1.38976 -0.743202 0
M  V30 3878 C 357.633 1.83123 -0.363732 0
M  V30 3879 C 357.984 1.6205 1.10609 0
M  V30 3880 O 357.109 1.11606 1.854 0
M  V30 3881 C 357.704 3.32439 -0.653408 0
M  V30 3882 C 356.263 3.74974 -0.327338 0
M  V30 3883 C 355.41 2.61878 -0.911875 0
M  V30 3884 H 358.361 1.27852 -0.940191 0
M  V30 3885 H 358.382 3.80432 0.0720031 0
M  V30 3886 H 357.894 3.47745 -1.72323 0
M  V30 3887 H 355.995 3.65252 0.736314 0
M  V30 3888 H 356.108 4.72106 -0.815631 0
M  V30 3889 H 354.472 2.52448 -0.337944 0
M  V30 3890 H 355.255 2.79987 -1.98651 0
M  V30 3891 N 357.7 0.491464 1.49741 0
M  V30 3892 C 358.647 -0.292027 2.28945 0
M  V30 3893 C 359.617 -0.968973 1.34908 0
M  V30 3894 O 360.802 -0.97748 1.6386 0
M  V30 3895 C 357.942 -1.35617 3.17336 0
M  V30 3896 C 357.055 -0.691957 4.26422 0
M  V30 3897 C 356.19 -1.73572 5.02042 0
M  V30 3898 C 355.229 -1.05286 6.02977 0
M  V30 3899 N 354.366 -2.0404 6.71798 0
M  V30 3900 H 359.206 0.389654 2.95442 0
M  V30 3901 H 356.743 0.204003 1.45679 0
M  V30 3902 H 358.701 -1.98502 3.66951 0
M  V30 3903 H 357.331 -2.00674 2.52844 0
M  V30 3904 H 356.383 0.0499523 3.80367 0
M  V30 3905 H 357.695 -0.153946 4.98562 0
M  V30 3906 H 356.849 -2.43987 5.55478 0
M  V30 3907 H 355.588 -2.30757 4.29654 0
M  V30 3908 H 354.593 -0.334446 5.48782 0
M  V30 3909 H 355.818 -0.487636 6.77347 0
M  V30 3910 H 353.764 -2.60205 6.02187 0
M  V30 3911 H 353.681 -1.55279 7.39881 0
M  V30 3912 H 354.949 -2.73772 7.29842 0
M  V30 3913 N 359.178 -1.55987 0.224894 0
M  V30 3914 C 360.108 -2.23426 -0.678457 0
M  V30 3915 C 361.089 -1.20709 -1.19847 0
M  V30 3916 O 362.274 -1.49304 -1.24186 0
M  V30 3917 C 359.404 -2.91676 -1.88527 0
M  V30 3918 C 358.358 -4.00893 -1.49896 0
M  V30 3919 C 357.684 -4.56455 -2.78483 0
M  V30 3920 C 358.984 -5.17769 -0.686461 0
M  V30 3921 H 360.678 -2.99175 -0.116173 0
M  V30 3922 H 358.224 -1.43897 -0.054436 0
M  V30 3923 H 360.177 -3.37547 -2.5227 0
M  V30 3924 H 358.901 -2.1338 -2.47258 0
M  V30 3925 H 357.56 -3.55758 -0.884985 0
M  V30 3926 H 357.208 -3.74886 -3.35365 0
M  V30 3927 H 356.908 -5.30169 -2.53368 0
M  V30 3928 H 358.432 -5.05047 -3.43162 0
M  V30 3929 H 359.846 -5.60001 -1.22767 0
M  V30 3930 H 358.243 -5.97735 -0.532259 0
M  V30 3931 H 359.313 -4.83932 0.306196 0
M  V30 3932 N 360.656 0.0484629 -1.57525 0
M  V30 3933 C 361.566 1.07241 -2.08654 0
M  V30 3934 C 362.582 1.409 -1.02095 0
M  V30 3935 O 363.758 1.50609 -1.33712 0
M  V30 3936 C 360.823 2.36008 -2.5397 0
M  V30 3937 C 359.884 2.09108 -3.7493 0
M  V30 3938 C 359.117 3.31736 -4.18075 0
M  V30 3939 O 359.34 4.41714 -3.60895 0
M  V30 3940 O 358.274 3.18576 -5.10679 0
M  V30 3941 H 362.1 0.667965 -2.96263 0
M  V30 3942 H 359.685 0.26417 -1.47046 0
M  V30 3943 H 361.567 3.11747 -2.83535 0
M  V30 3944 H 360.242 2.75786 -1.69481 0
M  V30 3945 H 359.149 1.31 -3.50414 0
M  V30 3946 H 360.482 1.74198 -4.60343 0
M  V30 3947 N 362.134 1.5431 0.320358 0
M  V30 3948 C 363.383 1.7188 1.05546 0
M  V30 3949 C 363.696 0.501143 1.89071 0
M  V30 3950 O 364.902 0.558258 2.65699 0
M  V30 3951 C 363.358 3.04025 1.92605 0
M  V30 3952 C 362.966 4.33207 1.14176 0
M  V30 3953 C 364.71 3.30959 2.65832 0
M  V30 3954 C 362.617 5.56412 2.00399 0
M  V30 3955 H 361.547 0.640547 0.397763 0
M  V30 3956 H 364.198 1.80802 0.313522 0
M  V30 3957 H 362.58 2.89019 2.7071 0
M  V30 3958 H 363.754 4.58989 0.40819 0
M  V30 3959 H 362.069 4.13062 0.526165 0
M  V30 3960 H 364.666 4.20203 3.30656 0
M  V30 3961 H 365.009 2.48979 3.33639 0
M  V30 3962 H 365.542 3.46847 1.94787 0
M  V30 3963 H 362.281 6.41004 1.37094 0
M  V30 3964 H 361.801 5.34844 2.7148 0
M  V30 3965 H 363.48 5.92938 2.58908 0
M  V30 3966 N 363.613 -0.582584 1.46437 0
M  V30 3967 C 364.56 -1.69164 1.5701 0
M  V30 3968 C 365.53 -1.60847 0.414403 0
M  V30 3969 O 366.715 -1.80058 0.631171 0
M  V30 3970 C 363.855 -3.075 1.56646 0
M  V30 3971 C 362.968 -3.2644 2.82951 0
M  V30 3972 C 362.103 -4.55026 2.7409 0
M  V30 3973 C 361.142 -4.6731 3.95333 0
M  V30 3974 N 360.279 -5.87221 3.84858 0
M  V30 3975 H 365.119 -1.59464 2.51744 0
M  V30 3976 H 362.656 -0.777186 1.24893 0
M  V30 3977 H 364.614 -3.8757 1.5442 0
M  V30 3978 H 363.244 -3.16096 0.654439 0
M  V30 3979 H 362.296 -2.39974 2.95155 0
M  V30 3980 H 363.608 -3.31385 3.72808 0
M  V30 3981 H 362.762 -5.43324 2.6997 0
M  V30 3982 H 361.501 -4.52519 1.81873 0
M  V30 3983 H 360.506 -3.77429 3.99784 0
M  V30 3984 H 361.731 -4.71595 4.88646 0
M  V30 3985 H 359.677 -5.85712 2.95427 0
M  V30 3986 H 359.594 -5.93435 4.6837 0
M  V30 3987 H 360.862 -6.7795 3.84713 0
M  V30 3988 N 365.091 -1.34144 -0.827227 0
M  V30 3989 C 366.337 -1.26446 -1.58554 0
M  V30 3990 C 366.67 0.1664 -1.93486 0
M  V30 3991 O 365.945 1.1107 -1.59667 0
M  V30 3992 C 366.228 -2.15111 -2.8879 0
M  V30 3993 C 366.081 -3.66712 -2.60465 0
M  V30 3994 C 367.4 -2.03311 -3.90324 0
M  V30 3995 H 364.519 -0.46067 -0.575284 0
M  V30 3996 H 367.161 -1.64356 -0.953269 0
M  V30 3997 H 365.311 -1.8291 -3.42748 0
M  V30 3998 H 366.983 -4.09259 -2.1285 0
M  V30 3999 H 365.226 -3.88014 -1.93978 0
M  V30 4000 H 365.897 -4.24112 -3.53317 0
M  V30 4001 H 368.373 -2.31574 -3.45706 0
M  V30 4002 H 367.249 -2.67582 -4.79261 0
M  V30 4003 H 367.51 -1.00879 -4.30437 0
M  V30 4004 N 366.569 1.04691 -1.17803 0
M  V30 4005 C 367.797 1.81446 -0.99423 0
M  V30 4006 C 368.212 1.83174 0.457459 0
M  V30 4007 O 367.569 1.26265 1.31771 0
M  V30 4008 C 367.62 3.27334 -1.5341 0
M  V30 4009 O 367.341 3.25798 -2.92895 0
M  V30 4010 C 368.842 4.20759 -1.39559 0
M  V30 4011 H 366.062 0.571599 -0.351447 0
M  V30 4012 H 368.606 1.31982 -1.56208 0
M  V30 4013 H 366.761 3.74052 -1.00815 0
M  V30 4014 H 367.175 4.17144 -3.17949 0
M  V30 4015 H 368.649 5.21084 -1.82141 0
M  V30 4016 H 369.126 4.37856 -0.343394 0
M  V30 4017 H 369.732 3.79901 -1.91195 0
M  V30 4018 N 368.047 0.979072 1.23499 0
M  V30 4019 C 369.458 0.684391 1.73704 0
M  V30 4020 C 369.809 -0.799448 1.79174 0
M  V30 4021 O 368.934 -1.62531 1.42873 0
M  V30 4022 C 369.529 1.23564 3.15464 0
M  V30 4023 C 368.088 0.99063 3.6313 0
M  V30 4024 C 367.235 1.36416 2.41425 0
M  V30 4025 H 370.186 1.15307 1.09041 0
M  V30 4026 H 370.207 0.607417 3.7562 0
M  V30 4027 H 369.719 2.31561 3.1145 0
M  V30 4028 H 367.82 -0.0733136 3.72528 0
M  V30 4029 H 367.933 1.64427 4.5 0
M  V30 4030 H 366.297 0.782616 2.42378 0
M  V30 4031 H 367.08 2.45387 2.40083 0
M  V30 4032 N 369.525 -1.3858 0.750561 0
M  V30 4033 C 370.75 -2.04997 0.314812 0
M  V30 4034 C 371.175 -1.56235 -1.04749 0
M  V30 4035 O 370.533 -0.712981 -1.66692 0
M  V30 4036 C 370.581 -3.58961 0.343415 0
M  V30 4037 O 369.685 -4.07025 -0.663628 0
M  V30 4038 H 369.026 -0.649081 0.139962 0
M  V30 4039 H 371.556 -1.77313 1.02084 0
M  V30 4040 H 371.566 -4.07542 0.193233 0
M  V30 4041 H 370.241 -3.93811 1.33738 0
M  V30 4042 H 368.818 -3.6982 -0.478307 0
M  V30 4043 N 371.003 -0.499398 -1.49478 0
M  V30 4044 C 372.28 0.108629 -1.95298 0
M  V30 4045 C 372.66 1.54282 -1.44084 0
M  V30 4046 O 372.008 2.18944 -0.653908 0
M  V30 4047 C 372.218 0.0229111 -3.48992 0
M  V30 4048 C 373.566 0.197643 -4.2414 0
M  V30 4049 O 374.59 0.0981735 -3.56065 0
M  V30 4050 O 373.449 0.401669 -5.45022 0
M  V30 4051 H 370.543 0.096181 -0.821388 0
M  V30 4052 H 373.089 -0.561822 -1.6013 0
M  V30 4053 H 371.861 -0.977321 -3.78899 0
M  V30 4054 H 371.484 0.733579 -3.90774 0
M  V30 4055 N 372.481 1.55866 -0.233164 0
M  V30 4056 C 373.444 2.1953 0.658715 0
M  V30 4057 C 374.444 1.16053 1.11303 0
M  V30 4058 O 375.634 1.41218 1.01996 0
M  V30 4059 C 372.766 2.82791 1.90373 0
M  V30 4060 H 373.959 2.99721 0.10347 0
M  V30 4061 H 371.512 1.56291 0.0164245 0
M  V30 4062 H 372.247 2.06501 2.50056 0
M  V30 4063 H 372.032 3.58578 1.58632 0
M  V30 4064 H 373.522 3.31556 2.53891 0
M  V30 4065 N 373.959 -0.0401083 1.57549 0
M  V30 4066 C 375.208 -0.732108 1.87944 0
M  V30 4067 C 375.521 -1.77107 0.830206 0
M  V30 4068 O 376.727 -2.51488 1.02302 0
M  V30 4069 C 375.183 -1.35315 3.33494 0
M  V30 4070 C 374.791 -0.351105 4.46622 0
M  V30 4071 C 376.535 -2.02566 3.73051 0
M  V30 4072 C 374.442 -0.979859 5.83226 0
M  V30 4073 H 373.372 -0.277188 0.701201 0
M  V30 4074 H 376.023 0.0138501 1.83495 0
M  V30 4075 H 374.405 -2.14844 3.32653 0
M  V30 4076 H 375.579 0.416674 4.58912 0
M  V30 4077 H 373.894 0.218708 4.15825 0
M  V30 4078 H 376.491 -2.50441 4.72423 0
M  V30 4079 H 376.834 -2.83904 3.04474 0
M  V30 4080 H 377.367 -1.29827 3.76018 0
M  V30 4081 H 374.106 -0.206135 6.55176 0
M  V30 4082 H 373.626 -1.71774 5.74677 0
M  V30 4083 H 375.305 -1.49046 6.29599 0
M  V30 4084 N 375.437 -1.54477 -0.31217 0
M  V30 4085 C 376.683 -1.73483 -1.0503 0
M  V30 4086 C 377.016 -0.513125 -1.87298 0
M  V30 4087 O 376.291 0.489864 -1.8823 0
M  V30 4088 C 376.574 -3.01723 -1.96558 0
M  V30 4089 C 376.427 -4.3417 -1.17545 0
M  V30 4090 C 377.746 -3.25772 -2.95907 0
M  V30 4091 H 374.865 -0.631222 -0.380432 0
M  V30 4092 H 377.507 -1.87184 -0.325932 0
M  V30 4093 H 375.657 -2.90174 -2.58324 0
M  V30 4094 H 377.329 -4.5762 -0.581513 0
M  V30 4095 H 375.572 -4.31159 -0.477925 0
M  V30 4096 H 376.243 -5.20143 -1.84811 0
M  V30 4097 H 378.719 -3.36857 -2.44267 0
M  V30 4098 H 377.595 -4.16838 -3.57123 0
M  V30 4099 H 377.856 -2.43537 -3.68974 0
M  V30 4100 N 376.915 0.57481 -1.46744 0
M  V30 4101 C 378.331 0.898981 -1.31873 0
M  V30 4102 C 378.531 1.99313 -0.29605 0
M  V30 4103 O 377.587 2.50728 0.298621 0
M  V30 4104 C 378.9 1.30886 -2.7072 0
M  V30 4105 C 380.448 1.42127 -2.78871 0
M  V30 4106 C 380.923 1.86478 -4.18318 0
M  V30 4107 N 382.414 1.93658 -4.20774 0
M  V30 4108 C 383.149 2.29267 -5.2557 0
M  V30 4109 N 382.645 2.63612 -6.40688 0
M  V30 4110 N 384.438 2.29889 -5.1294 0
M  V30 4111 H 376.589 -0.147839 -2.11885 0
M  V30 4112 H 378.852 -0.00347013 -0.947994 0
M  V30 4113 H 378.558 0.578853 -3.46904 0
M  V30 4114 H 378.432 2.26874 -3.01343 0
M  V30 4115 H 380.819 2.14213 -2.0297 0
M  V30 4116 H 380.9 0.443705 -2.51922 0
M  V30 4117 H 380.544 1.14968 -4.94717 0
M  V30 4118 H 380.474 2.85207 -4.42679 0
M  V30 4119 H 382.965 1.69574 -3.37718 0
M  V30 4120 H 383.278 2.89759 -7.16421 0
M  V30 4121 H 381.623 2.61232 -6.44036 0
M  V30 4122 H 384.814 2.02485 -4.22039 0
M  V30 4123 H 384.987 2.57312 -5.94722 0
M  V30 4124 N 378.394 1.34581 0.820102 0
M  V30 4125 C 379.304 1.28471 1.96297 0
M  V30 4126 C 380.32 0.191902 1.72939 0
M  V30 4127 O 381.496 0.418879 1.96996 0
M  V30 4128 C 378.561 1.04281 3.30645 0
M  V30 4129 C 377.622 2.22745 3.66992 0
M  V30 4130 C 376.855 1.997 4.9493 0
M  V30 4131 O 377.078 0.956656 5.6232 0
M  V30 4132 O 376.012 2.86723 5.2922 0
M  V30 4133 H 379.838 2.24624 2.04396 0
M  V30 4134 H 377.423 1.14816 0.955913 0
M  V30 4135 H 379.305 0.925841 4.11104 0
M  V30 4136 H 377.98 0.111697 3.23507 0
M  V30 4137 H 376.887 2.40003 2.86966 0
M  V30 4138 H 378.22 3.14257 3.78819 0
M  V30 4139 N 379.872 -1.04064 1.18357 0
M  V30 4140 C 381.12 -1.76915 0.977013 0
M  V30 4141 C 381.441 -1.88624 -0.494577 0
M  V30 4142 O 380.711 -1.41125 -1.3587 0
M  V30 4143 H 379.291 -0.65535 0.358504 0
M  V30 4144 H 381.953 -1.25592 1.49039 0
M  V30 4145 H 381.049 -2.78178 1.41504 0
M  V30 4146 N 381.35 -0.985608 -1.22978 0
M  V30 4147 C 382.627 -0.573599 -1.87001 0
M  V30 4148 C 383.007 0.949213 -1.88555 0
M  V30 4149 O 382.355 1.82811 -1.37086 0
M  V30 4150 C 382.565 -1.18564 -3.28243 0
M  V30 4151 C 383.913 -1.28163 -4.04796 0
M  V30 4152 O 384.937 -1.13949 -3.37482 0
M  V30 4153 O 383.796 -1.50832 -5.25273 0
M  V30 4154 H 380.89 -0.193868 -0.803955 0
M  V30 4155 H 383.436 -1.08102 -1.30813 0
M  V30 4156 H 382.208 -2.22758 -3.21706 0
M  V30 4157 H 381.831 -0.663363 -3.92027 0
M  V30 4158 N 382.828 1.3818 -0.7579 0
M  V30 4159 C 384.053 2.04827 -0.325679 0
M  V30 4160 C 384.478 1.56788 1.03919 0
M  V30 4161 O 383.836 0.721811 1.66312 0
M  V30 4162 C 383.884 3.58774 -0.362447 0
M  V30 4163 O 382.988 4.07372 0.642033 0
M  V30 4164 H 382.329 0.64833 -0.143402 0
M  V30 4165 H 384.859 1.7677 -1.03023 0
M  V30 4166 H 384.869 4.07434 -0.214844 0
M  V30 4167 H 383.544 3.93096 -1.35824 0
M  V30 4168 H 382.121 3.70068 0.458688 0
M  V30 4169 N 384.306 0.507319 1.49211 0
M  V30 4170 C 385.552 -0.0350047 2.0277 0
M  V30 4171 C 385.885 -1.3606 1.38569 0
M  V30 4172 O 385.16 -1.87321 0.523542 0
M  V30 4173 C 385.443 -0.180916 3.59645 0
M  V30 4174 C 385.296 1.16825 4.34364 0
M  V30 4175 C 386.615 -0.918558 4.30407 0
M  V30 4176 H 383.734 -0.0112473 0.736914 0
M  V30 4177 H 386.376 0.659956 1.7817 0
M  V30 4178 H 384.526 -0.772826 3.80736 0
M  V30 4179 H 386.198 1.79952 4.24753 0
M  V30 4180 H 384.441 1.75594 3.96673 0
M  V30 4181 H 385.112 1.01939 5.42506 0
M  V30 4182 H 387.588 -0.41649 4.1401 0
M  V30 4183 H 386.464 -0.989505 5.39907 0
M  V30 4184 H 386.725 -1.96373 3.96093 0
M  V30 4185 N 385.784 -1.5574 0.241426 0
M  V30 4186 C 387.012 -2.03208 -0.389134 0
M  V30 4187 C 387.427 -1.12082 -1.51931 0
M  V30 4188 O 386.784 -0.134183 -1.82006 0
M  V30 4189 C 386.835 -3.50064 -0.902087 0
M  V30 4190 O 386.556 -4.37717 0.18305 0
M  V30 4191 C 388.057 -4.13268 -1.60389 0
M  V30 4192 H 385.277 -0.664509 -0.0931053 0
M  V30 4193 H 387.821 -2.0124 0.36369 0
M  V30 4194 H 385.976 -3.52583 -1.60511 0
M  V30 4195 H 386.39 -5.24097 -0.205579 0
M  V30 4196 H 387.864 -5.17733 -1.91458 0
M  V30 4197 H 388.341 -3.59434 -2.52397 0
M  V30 4198 H 388.947 -4.14655 -0.945576 0
M  V30 4199 N 387.262 0.0317525 -1.57568 0
M  V30 4200 C 388.195 1.06621 -2.0176 0
M  V30 4201 C 389.173 1.35323 -0.901462 0
M  V30 4202 O 390.357 1.48025 -1.16708 0
M  V30 4203 C 387.484 2.40155 -2.38837 0
M  V30 4204 C 386.53 2.27327 -3.60867 0
M  V30 4205 S 387.363 1.62925 -5.10113 0
M  V30 4206 C 388.519 2.97955 -5.5043 0
M  V30 4207 H 388.752 0.689781 -2.89187 0
M  V30 4208 H 386.285 0.24164 -1.52497 0
M  V30 4209 H 388.243 3.1695 -2.6087 0
M  V30 4210 H 386.904 2.74946 -1.51867 0
M  V30 4211 H 386.097 3.25898 -3.84456 0
M  V30 4212 H 385.699 1.58675 -3.38671 0
M  V30 4213 H 387.991 3.94285 -5.5095 0
M  V30 4214 H 388.934 2.79102 -6.50775 0
M  V30 4215 H 389.342 3.00404 -4.77931 0
M  V30 4216 N 388.74 1.54641 0.303973 0
M  V30 4217 C 389.968 1.77768 1.05858 0
M  V30 4218 C 390.383 0.535722 1.8104 0
M  V30 4219 O 389.74 -0.494337 1.75677 0
M  V30 4220 C 389.791 2.9834 2.04146 0
M  V30 4221 O 389.512 4.17736 1.32015 0
M  V30 4222 C 391.013 3.33832 2.91669 0
M  V30 4223 H 388.233 0.592961 0.314067 0
M  V30 4224 H 390.777 2.01583 0.344149 0
M  V30 4225 H 388.932 2.76742 2.71096 0
M  V30 4226 H 389.346 4.85693 1.97998 0
M  V30 4227 H 390.82 4.21448 3.56491 0
M  V30 4228 H 391.297 2.51857 3.59812 0
M  V30 4229 H 391.903 3.57579 2.30254 0
M  V30 4230 N 390.218 -0.567019 1.47046 0
M  V30 4231 C 391.458 -1.3355 1.54738 0
M  V30 4232 C 391.822 -1.90947 0.200772 0
M  V30 4233 O 393.023 -2.68367 0.152489 0
M  V30 4234 C 391.294 -2.42317 2.62712 0
M  V30 4235 S 392.853 -3.29383 2.89918 0
M  V30 4236 H 389.671 -0.454788 0.546525 0
M  V30 4237 H 392.273 -0.650191 1.84371 0
M  V30 4238 H 390.977 -1.98568 3.59164 0
M  V30 4239 H 390.508 -3.15601 2.34861 0
M  V30 4240 H 392.523 -4.41548 2.26384 0
M  V30 4241 N 391.696 -1.35014 -0.812953 0
M  V30 4242 C 392.606 -1.2951 -1.95613 0
M  V30 4243 C 393.622 -0.20107 -1.72834 0
M  V30 4244 O 394.798 -0.42932 -1.96771 0
M  V30 4245 C 391.863 -1.06033 -3.30088 0
M  V30 4246 C 390.924 -2.24688 -3.65805 0
M  V30 4247 C 390.157 -2.02322 -4.93864 0
M  V30 4248 O 390.38 -0.986464 -5.61805 0
M  V30 4249 O 389.314 -2.89525 -5.27692 0
M  V30 4250 H 393.14 -2.25705 -2.03202 0
M  V30 4251 H 390.725 -1.15321 -0.949811 0
M  V30 4252 H 392.607 -0.94763 -4.10607 0
M  V30 4253 H 391.282 -0.128852 -3.23443 0
M  V30 4254 H 390.189 -2.41521 -2.85689 0
M  V30 4255 H 391.522 -3.16261 -3.77147 0
M  V30 4256 N 393.175 1.03435 -1.18907 0
M  V30 4257 C 394.421 1.77005 -0.989798 0
M  V30 4258 C 394.754 1.88205 0.478816 0
M  V30 4259 O 394.029 1.39481 1.35556 0
M  V30 4260 C 394.312 3.19925 -1.65287 0
M  V30 4261 C 394.165 3.1663 -3.19477 0
M  V30 4262 C 395.484 4.18189 -1.37134 0
M  V30 4263 H 392.603 0.642538 -0.360991 0
M  V30 4264 H 395.245 1.20784 -1.46667 0
M  V30 4265 H 393.395 3.67929 -1.24741 0
M  V30 4266 H 395.067 2.76567 -3.692 0
M  V30 4267 H 393.31 2.54491 -3.51307 0
M  V30 4268 H 393.981 4.1758 -3.61013 0
M  V30 4269 H 396.457 3.78761 -1.72276 0
M  V30 4270 H 395.333 5.16394 -1.86087 0
M  V30 4271 H 395.594 4.41112 -0.295424 0
M  V30 4272 N 394.653 0.992116 1.22453 0
M  V30 4273 C 395.878 0.685644 1.95739 0
M  V30 4274 C 396.303 -0.743 1.72804 0
M  V30 4275 O 395.661 -1.50778 1.00676 0
M  V30 4276 C 395.709 0.996293 3.46564 0
M  V30 4277 O 394.813 0.0945512 4.12292 0
M  V30 4278 H 394.154 0.256694 0.612376 0
M  V30 4279 H 396.684 1.32888 1.5557 0
M  V30 4280 H 396.694 0.93781 3.97076 0
M  V30 4281 H 395.369 2.03733 3.62582 0
M  V30 4282 H 393.946 0.208451 3.72317 0
M  V30 4283 N 396.131 -1.37776 0.765217 0
M  V30 4284 C 397.356 -2.04651 0.336537 0
M  V30 4285 C 397.781 -1.57337 -1.03086 0
M  V30 4286 O 397.139 -0.730621 -1.65927 0
M  V30 4287 C 397.187 -3.58577 0.381468 0
M  V30 4288 O 396.291 -4.07706 -0.62042 0
M  V30 4289 H 395.632 -0.64756 0.146838 0
M  V30 4290 H 398.162 -1.76221 1.03959 0
M  V30 4291 H 398.172 -4.07314 0.236448 0
M  V30 4292 H 396.847 -3.9237 1.37907 0
M  V30 4293 H 395.424 -3.70306 -0.439056 0
M  V30 4294 N 397.609 -0.515225 -1.4894 0
M  V30 4295 C 398.834 0.022727 -2.07388 0
M  V30 4296 C 399.259 1.2876 -1.37122 0
M  V30 4297 O 398.617 1.76067 -0.432431 0
M  V30 4298 C 398.665 0.244869 -3.59768 0
M  V30 4299 O 397.769 1.31667 -3.90817 0
M  V30 4300 H 397.11 -0.0325506 -0.663202 0
M  V30 4301 H 399.64 -0.718918 -1.91553 0
M  V30 4302 H 399.65 0.47205 -4.0526 0
M  V30 4303 H 398.325 -0.679194 -4.10317 0
M  V30 4304 H 396.902 1.07331 -3.5712 0
M  V30 4305 N 399.087 1.5561 -0.249682 0
M  V30 4306 C 400.035 2.22894 0.664906 0
M  V30 4307 C 401.029 1.21743 1.17792 0
M  V30 4308 O 402.235 1.39748 1.13449 0
M  V30 4309 H 398.61 0.715022 0.232912 0
M  V30 4310 H 400.581 2.98307 0.0742998 0
M  V30 4311 C 399.33 2.94424 1.84959 0
M  V30 4312 H 398.653 3.72031 1.46399 0
M  V30 4313 H 400.093 3.44862 2.4667 0
M  V30 4314 C 398.552 1.98454 2.72245 0
M  V30 4315 O 399.082 1.51939 3.71857 0
M  V30 4316 N 397.288 1.65496 2.38871 0
M  V30 4317 H 396.835 2.03517 1.57919 0
M  V30 4318 H 396.793 1.0155 2.97548 0
M  V30 4319 N 400.565 -0.0233959 1.57583 0
M  V30 4320 C 401.976 -0.56927 1.77809 0
M  V30 4321 C 402.327 -1.75284 0.881472 0
M  V30 4322 O 401.452 -2.1626 0.0777805 0
M  V30 4323 C 402.047 -1.03949 3.22459 0
M  V30 4324 C 400.606 -1.53084 3.43864 0
M  V30 4325 C 399.753 -0.471454 2.73263 0
M  V30 4326 H 402.704 0.202825 1.57399 0
M  V30 4327 H 402.725 -1.90661 3.29285 0
M  V30 4328 H 402.237 -0.177865 3.87692 0
M  V30 4329 H 400.338 -2.41414 2.83814 0
M  V30 4330 H 400.451 -1.57443 4.52491 0
M  V30 4331 H 398.815 -0.927788 2.37201 0
M  V30 4332 H 399.598 0.380808 3.41181 0
M  V30 4333 N 402.043 -1.548 -0.295768 0
M  V30 4334 C 402.953 -1.89177 -1.38742 0
M  V30 4335 C 403.969 -0.786481 -1.55211 0
M  V30 4336 O 405.145 -1.08344 -1.69775 0
M  V30 4337 C 402.21 -2.13663 -2.73036 0
M  V30 4338 C 401.271 -3.37349 -2.65508 0
M  V30 4339 C 400.504 -3.60658 -3.93398 0
M  V30 4340 O 400.727 -2.86882 -4.93006 0
M  V30 4341 O 399.661 -4.54179 -3.94975 0
M  V30 4342 H 403.487 -2.82059 -1.12589 0
M  V30 4343 H 401.072 -1.41056 -0.492295 0
M  V30 4344 H 402.954 -2.3094 -3.52484 0
M  V30 4345 H 401.629 -1.23967 -2.99022 0
M  V30 4346 H 400.536 -3.25431 -1.84514 0
M  V30 4347 H 401.869 -4.27192 -2.44474 0
M  V30 4348 N 403.521 0.559213 -1.47345 0
M  V30 4349 C 404.751 1.33999 -1.57251 0
M  V30 4350 C 405.159 1.87905 -0.220978 0
M  V30 4351 O 404.502 1.65577 0.795617 0
M  V30 4352 C 404.564 2.54798 -2.53611 0
M  V30 4353 C 404.228 2.22192 -3.99349 0
M  V30 4354 C 405.225 1.79607 -4.87891 0
M  V30 4355 C 402.91 2.33613 -4.44669 0
M  V30 4356 C 404.904 1.48868 -6.19772 0
M  V30 4357 C 402.591 2.02487 -5.76578 0
M  V30 4358 C 403.589 1.60183 -6.63951 0
M  V30 4359 O 403.277 1.29451 -7.93409 0
M  V30 4360 H 403.009 0.414858 -0.533731 0
M  V30 4361 H 405.563 0.684465 -1.9366 0
M  V30 4362 H 403.793 3.23235 -2.12265 0
M  V30 4363 H 405.482 3.16873 -2.53666 0
M  V30 4364 H 406.248 1.70278 -4.54126 0
M  V30 4365 H 402.127 2.65501 -3.76869 0
M  V30 4366 H 405.671 1.15775 -6.87926 0
M  V30 4367 H 401.568 2.11448 -6.09885 0
M  V30 4368 H 402.336 1.43098 -8.05894 0
M  V30 4369 N 404.999 1.35443 0.805782 0
M  V30 4370 C 406.227 1.31878 1.59423 0
M  V30 4371 C 406.642 -0.103562 1.88516 0
M  V30 4372 O 405.999 -1.05575 1.48863 0
M  V30 4373 C 406.05 2.12426 2.92502 0
M  V30 4374 O 405.771 3.49115 2.6467 0
M  V30 4375 C 407.272 2.16455 3.86862 0
M  V30 4376 H 404.492 0.453002 0.495005 0
M  V30 4377 H 407.036 1.78309 1.00131 0
M  V30 4378 H 405.191 1.69593 3.48306 0
M  V30 4379 H 405.605 3.90957 3.49647 0
M  V30 4380 H 407.079 2.77204 4.77349 0
M  V30 4381 H 407.556 1.16352 4.23508 0
M  V30 4382 H 408.162 2.59453 3.36993 0
M  V30 4383 N 406.477 -1.02803 1.19454 0
M  V30 4384 C 407.705 -1.79841 1.02297 0
M  V30 4385 C 408.12 -1.83879 -0.428259 0
M  V30 4386 O 407.477 -1.28345 -1.29745 0
M  V30 4387 C 407.528 -3.24852 1.58598 0
M  V30 4388 O 407.249 -3.21097 2.98041 0
M  V30 4389 C 408.75 -4.18485 1.46236 0
M  V30 4390 H 405.97 -0.565936 0.360496 0
M  V30 4391 H 408.514 -1.2948 1.58288 0
M  V30 4392 H 406.669 -3.72401 1.06753 0
M  V30 4393 H 407.083 -4.12033 3.24545 0
M  V30 4394 H 408.557 -5.18121 1.90407 0
M  V30 4395 H 409.034 -4.37254 0.41301 0
M  V30 4396 H 409.64 -3.76811 1.97215 0
M  V30 4397 N 407.956 -0.998596 -1.21925 0
M  V30 4398 C 409.202 -0.678667 -1.91107 0
M  V30 4399 C 409.535 0.78791 -1.77498 0
M  V30 4400 O 408.81 1.57043 -1.1475 0
M  V30 4401 C 409.093 -1.09245 -3.43129 0
M  V30 4402 C 408.946 -2.61801 -3.6576 0
M  V30 4403 C 410.265 -0.649984 -4.35274 0
M  V30 4404 H 407.384 -0.248025 -0.694012 0
M  V30 4405 H 410.026 -1.24314 -1.43688 0
M  V30 4406 H 408.176 -0.612171 -3.83647 0
M  V30 4407 H 409.848 -3.17543 -3.34611 0
M  V30 4408 H 408.091 -3.03609 -3.09845 0
M  V30 4409 H 408.762 -2.85804 -4.7225 0
M  V30 4410 H 411.238 -1.0626 -4.02303 0
M  V30 4411 H 410.114 -0.967743 -5.40302 0
M  V30 4412 H 410.375 0.449139 -4.39813 0
M  V30 4413 N 409.434 1.37368 -0.772513 0
M  V30 4414 C 410.659 2.0447 -0.347386 0
M  V30 4415 C 411.084 1.57882 1.0225 0
M  V30 4416 O 410.442 0.73941 1.65537 0
M  V30 4417 C 410.49 3.58369 -0.400479 0
M  V30 4418 O 409.594 4.0803 0.598789 0
M  V30 4419 H 408.935 0.646773 -0.15027 0
M  V30 4420 H 411.465 1.75667 -1.04892 0
M  V30 4421 H 411.475 4.07183 -0.258045 0
M  V30 4422 H 410.15 3.91633 -1.39986 0
M  V30 4423 H 408.727 3.70534 0.419411 0
M  V30 4424 N 410.912 0.523116 1.48665 0
M  V30 4425 C 412.158 -0.00540031 2.03399 0
M  V30 4426 C 412.513 -1.3264 1.39372 0
M  V30 4427 O 411.806 -1.84184 0.527916 0
M  V30 4428 C 412 -0.191671 3.56886 0
M  V30 4429 C 411.829 1.10972 4.35793 0
M  V30 4430 C 410.599 1.66769 4.76987 0
M  V30 4431 C 412.797 2.01861 4.73029 0
M  V30 4432 N 410.779 2.91268 5.40404 0
M  V30 4433 C 412.15 3.10937 5.36394 0
M  V30 4434 C 414.205 2.02271 4.54962 0
M  V30 4435 C 412.908 4.20478 5.83601 0
M  V30 4436 C 414.934 3.10802 5.03146 0
M  V30 4437 C 414.296 4.18597 5.6653 0
M  V30 4438 H 410.395 0.0393531 0.781009 0
M  V30 4439 H 412.979 0.702876 1.8157 0
M  V30 4440 H 411.15 -0.869025 3.78553 0
M  V30 4441 H 412.882 -0.719177 3.98259 0
M  V30 4442 H 409.637 1.20996 4.57883 0
M  V30 4443 H 410.061 3.54635 5.76683 0
M  V30 4444 H 414.703 1.2023 4.05345 0
M  V30 4445 H 412.421 5.03303 6.32228 0
M  V30 4446 H 416.007 3.12166 4.90962 0
M  V30 4447 H 414.887 5.01193 6.03138 0
M  V30 4448 N 412.39 -1.55475 0.257931 0
M  V30 4449 C 413.32 -2.24815 -0.630912 0
M  V30 4450 C 414.301 -1.23224 -1.17259 0
M  V30 4451 O 415.486 -1.51904 -1.20991 0
M  V30 4452 C 412.616 -2.95609 -1.82298 0
M  V30 4453 C 411.57 -4.03982 -1.41359 0
M  V30 4454 C 410.896 -4.6226 -2.68738 0
M  V30 4455 C 412.196 -5.19109 -0.57648 0
M  V30 4456 H 413.89 -2.99354 -0.0526878 0
M  V30 4457 H 411.436 -1.4398 -0.023901 0
M  V30 4458 H 413.389 -3.42822 -2.45054 0
M  V30 4459 H 412.113 -2.18577 -2.42676 0
M  V30 4460 H 410.772 -3.57555 -0.809324 0
M  V30 4461 H 410.42 -3.81915 -3.27338 0
M  V30 4462 H 410.12 -5.35424 -2.42065 0
M  V30 4463 H 411.644 -5.12212 -3.32372 0
M  V30 4464 H 413.058 -5.62479 -1.10861 0
M  V30 4465 H 411.455 -5.98729 -0.405351 0
M  V30 4466 H 412.525 -4.83174 0.408776 0
M  V30 4467 N 413.868 0.0150385 -1.57593 0
M  V30 4468 C 414.815 1.01126 -2.07466 0
M  V30 4469 C 415.785 1.35064 -0.966794 0
M  V30 4470 O 416.97 1.4516 -1.23827 0
M  V30 4471 C 414.11 2.30276 -2.57035 0
M  V30 4472 C 413.223 2.02373 -3.81666 0
M  V30 4473 C 412.358 3.25496 -4.19793 0
M  V30 4474 C 411.397 2.93211 -5.37303 0
M  V30 4475 N 410.534 4.08826 -5.70794 0
M  V30 4476 H 415.374 0.57901 -2.92321 0
M  V30 4477 H 412.911 0.27426 -1.44521 0
M  V30 4478 H 414.869 3.05757 -2.83846 0
M  V30 4479 H 413.499 2.71197 -1.75077 0
M  V30 4480 H 412.551 1.17327 -3.61854 0
M  V30 4481 H 413.863 1.74567 -4.67256 0
M  V30 4482 H 413.017 4.09333 -4.47807 0
M  V30 4483 H 411.756 3.56428 -3.32882 0
M  V30 4484 H 410.761 2.07777 -5.09027 0
M  V30 4485 H 411.986 2.63542 -6.25877 0
M  V30 4486 H 409.932 4.39682 -4.86842 0
M  V30 4487 H 409.849 3.84491 -6.50924 0
M  V30 4488 H 411.117 4.93496 -6.03392 0
M  V30 4489 N 415.346 1.54954 0.287554 0
M  V30 4490 C 416.623 1.65569 1.04146 0
M  V30 4491 C 417.003 0.512672 2.0478 0
M  V30 4492 O 416.351 -0.489038 2.23205 0
M  V30 4493 C 416.561 3.04163 1.71131 0
M  V30 4494 C 417.909 3.61429 2.22832 0
M  V30 4495 O 418.933 3.06702 1.81141 0
M  V30 4496 O 417.792 4.57281 2.9926 0
M  V30 4497 H 414.886 0.671881 0.482188 0
M  V30 4498 H 417.432 1.67297 0.28457 0
M  V30 4499 H 416.204 3.78796 0.981303 0
M  V30 4500 H 415.827 3.06271 2.53543 0
M  V30 4501 N 416.824 -0.551391 1.4764 0
M  V30 4502 C 418.072 -1.30572 1.54258 0
M  V30 4503 C 418.393 -1.93877 0.208963 0
M  V30 4504 O 417.663 -1.80234 -0.767619 0
M  V30 4505 H 416.243 -0.484894 0.568231 0
M  V30 4506 H 418.905 -0.643402 1.83974 0
M  V30 4507 H 418.001 -2.09621 2.31226 0
M  V30 4508 N 418.302 -1.35869 -0.798587 0
M  V30 4509 C 419.53 -1.32722 -1.58722 0
M  V30 4510 C 419.945 0.0935631 -1.88568 0
M  V30 4511 O 419.302 1.04784 -1.49421 0
M  V30 4512 C 419.353 -2.13974 -2.91371 0
M  V30 4513 O 419.074 -3.50514 -2.62815 0
M  V30 4514 C 420.575 -2.18504 -3.85708 0
M  V30 4515 H 417.795 -0.45562 -0.492596 0
M  V30 4516 H 420.339 -1.78837 -0.991843 0
M  V30 4517 H 418.494 -1.71438 -3.47402 0
M  V30 4518 H 418.908 -3.92806 -3.47568 0
M  V30 4519 H 420.382 -2.79732 -4.75872 0
M  V30 4520 H 420.859 -1.18597 -4.22885 0
M  V30 4521 H 421.465 -2.61236 -3.35612 0
M  V30 4522 N 419.78 1.02168 -1.19998 0
M  V30 4523 C 421.005 1.79833 -1.03319 0
M  V30 4524 C 421.43 1.83504 0.413281 0
M  V30 4525 O 420.788 1.26635 1.29743 0
M  V30 4526 C 420.836 3.22396 -1.61533 0
M  V30 4527 O 419.94 4.03555 -0.849519 0
M  V30 4528 H 419.281 0.554872 -0.364709 0
M  V30 4529 H 421.811 1.28542 -1.59179 0
M  V30 4530 H 421.821 3.73124 -1.65054 0
M  V30 4531 H 420.496 3.19039 -2.66809 0
M  V30 4532 H 419.073 3.62169 -0.888129 0
M  V30 4533 N 421.258 1.00505 1.21394 0
M  V30 4534 C 422.188 0.585684 2.26035 0
M  V30 4535 C 423.169 -0.393525 1.65485 0
M  V30 4536 O 424.354 -0.281497 1.92149 0
M  V30 4537 C 421.484 -0.0884283 3.47187 0
M  V30 4538 C 420.438 0.810567 4.20254 0
M  V30 4539 C 419.764 0.00286382 5.347 0
M  V30 4540 C 421.064 2.1132 4.77641 0
M  V30 4541 H 422.758 1.46039 2.61368 0
M  V30 4542 H 420.304 0.703648 1.25638 0
M  V30 4543 H 422.257 -0.393286 4.19561 0
M  V30 4544 H 420.981 -0.997766 3.10986 0
M  V30 4545 H 419.64 1.09925 3.49731 0
M  V30 4546 H 419.288 -0.907765 4.94741 0
M  V30 4547 H 418.988 0.601444 5.84514 0
M  V30 4548 H 420.512 -0.295808 6.09883 0
M  V30 4549 H 421.926 1.87148 5.41893 0
M  V30 4550 H 420.323 2.66164 5.37845 0
M  V30 4551 H 421.393 2.78393 3.9702 0
M  V30 4552 N 422.737 -1.36956 0.779787 0
M  V30 4553 C 423.684 -2.30175 0.169697 0
M  V30 4554 C 424.654 -1.51501 -0.68094 0
M  V30 4555 O 425.839 -1.80042 -0.631629 0
M  V30 4556 C 422.979 -3.37985 -0.697131 0
M  V30 4557 C 422.092 -4.31661 0.170992 0
M  V30 4558 C 421.227 -5.2655 -0.701298 0
M  V30 4559 C 420.266 -6.11867 0.168869 0
M  V30 4560 N 419.403 -6.98973 -0.661855 0
M  V30 4561 H 424.243 -2.81767 0.970135 0
M  V30 4562 H 421.78 -1.38699 0.489994 0
M  V30 4563 H 423.738 -3.99128 -1.2146 0
M  V30 4564 H 422.368 -2.87739 -1.46309 0
M  V30 4565 H 421.42 -3.71756 0.80634 0
M  V30 4566 H 422.732 -4.91644 0.841875 0
M  V30 4567 H 421.886 -5.92937 -1.28494 0
M  V30 4568 H 420.625 -4.66998 -1.40584 0
M  V30 4569 H 419.63 -5.44452 0.764986 0
M  V30 4570 H 420.855 -6.73493 0.870863 0
M  V30 4571 H 418.801 -6.41941 -1.35086 0
M  V30 4572 H 418.718 -7.55984 -0.0484447 0
M  V30 4573 H 419.986 -7.6974 -1.22963 0
M  V30 4574 N 424.215 -0.530993 -1.48385 0
M  V30 4575 C 425.162 0.231223 -2.29639 0
M  V30 4576 C 426.132 0.932864 -1.37429 0
M  V30 4577 O 427.317 0.933692 -1.66394 0
M  V30 4578 C 424.457 1.27155 -3.2082 0
M  V30 4579 C 423.57 0.578655 -4.28107 0
M  V30 4580 C 422.705 1.602 -5.06467 0
M  V30 4581 C 421.744 0.892625 -6.05556 0
M  V30 4582 N 420.881 1.86157 -6.76971 0
M  V30 4583 H 425.721 -0.467848 -2.94305 0
M  V30 4584 H 423.258 -0.242556 -1.45086 0
M  V30 4585 H 425.216 1.88703 -3.72085 0
M  V30 4586 H 423.846 1.939 -2.58075 0
M  V30 4587 H 422.898 -0.150782 -3.80101 0
M  V30 4588 H 424.21 0.0217065 -4.98795 0
M  V30 4589 H 423.364 2.29173 -5.61751 0
M  V30 4590 H 422.103 2.19285 -4.35621 0
M  V30 4591 H 421.108 0.188829 -5.49476 0
M  V30 4592 H 422.333 0.307878 -6.78402 0
M  V30 4593 H 420.279 2.44147 -6.08875 0
M  V30 4594 H 420.196 1.35608 -7.43738 0
M  V30 4595 H 421.464 2.54325 -7.36844 0
M  V30 4596 N 425.693 1.55336 -0.266172 0
M  V30 4597 C 426.625 2.19544 0.658247 0
M  V30 4598 C 427.638 1.17746 1.12427 0
M  V30 4599 O 428.827 1.44517 1.04772 0
M  V30 4600 C 425.927 2.80032 1.9088 0
M  V30 4601 C 425.1 4.07436 1.59106 0
M  V30 4602 C 424.159 4.52056 2.69317 0
M  V30 4603 O 423.185 5.18023 2.35883 0
M  V30 4604 N 424.387 4.21448 3.99201 0
M  V30 4605 H 427.152 2.99503 0.108754 0
M  V30 4606 H 424.713 1.61667 -0.0869059 0
M  V30 4607 H 426.705 3.06831 2.63888 0
M  V30 4608 H 425.275 2.04119 2.36758 0
M  V30 4609 H 424.495 3.88021 0.695243 0
M  V30 4610 H 425.783 4.90462 1.35367 0
M  V30 4611 H 425.181 3.68528 4.29189 0
M  V30 4612 H 423.738 4.53039 4.68614 0
M  V30 4613 N 427.171 -0.0066808 1.57599 0
M  V30 4614 C 428.119 -1.01851 2.09115 0
M  V30 4615 C 429.113 -1.36021 1.00969 0
M  V30 4616 O 430.319 -1.34663 1.19439 0
M  V30 4617 H 426.694 -0.346083 0.667631 0
M  V30 4618 H 428.665 -0.558394 2.93129 0
M  V30 4619 C 427.414 -2.30374 2.60429 0
M  V30 4620 H 426.737 -2.04947 3.43273 0
M  V30 4621 H 428.177 -2.99466 3.00161 0
M  V30 4622 C 426.636 -3.00893 1.51542 0
M  V30 4623 O 427.166 -3.91614 0.894484 0
M  V30 4624 N 425.372 -2.62603 1.2445 0
M  V30 4625 H 424.919 -1.88911 1.75129 0
M  V30 4626 H 424.877 -3.10101 0.518137 0
M  V30 4627 N 428.649 -1.55105 -0.279332 0
M  V30 4628 C 429.877 -1.7943 -1.03017 0
M  V30 4629 C 430.292 -0.564456 -1.80165 0
M  V30 4630 O 429.649 0.466326 -1.76442 0
M  V30 4631 C 429.7 -3.0155 -1.99374 0
M  V30 4632 O 429.421 -4.19784 -1.25352 0
M  V30 4633 C 430.922 -3.3843 -2.86321 0
M  V30 4634 H 428.142 -0.597882 -0.304594 0
M  V30 4635 H 430.686 -2.02105 -0.312035 0
M  V30 4636 H 428.841 -2.81019 -2.66659 0
M  V30 4637 H 429.255 -4.88781 -1.90246 0
M  V30 4638 H 430.729 -4.27066 -3.49741 0
M  V30 4639 H 431.206 -2.57549 -3.5576 0
M  V30 4640 H 431.812 -3.61197 -2.24536 0
M  V30 4641 N 430.127 0.543554 -1.4793 0
M  V30 4642 C 431.374 1.30008 -1.55255 0
M  V30 4643 C 431.702 1.93245 -0.220612 0
M  V30 4644 O 430.957 1.79141 0.787843 0
M  V30 4645 C 431.256 2.42078 -2.62932 0
M  V30 4646 C 430.922 1.96583 -4.0579 0
M  V30 4647 C 429.584 1.83893 -4.44676 0
M  V30 4648 C 431.936 1.62034 -4.95373 0
M  V30 4649 C 429.264 1.34969 -5.70964 0
M  V30 4650 C 431.616 1.14577 -6.22137 0
M  V30 4651 C 430.28 1.00493 -6.59892 0
M  V30 4652 H 429.55 0.475735 -0.568117 0
M  V30 4653 H 432.197 0.608075 -1.81589 0
M  V30 4654 H 430.502 3.16892 -2.30406 0
M  V30 4655 H 432.199 3.00236 -2.65818 0
M  V30 4656 H 428.789 2.07407 -3.75074 0
M  V30 4657 H 432.973 1.70705 -4.66019 0
M  V30 4658 H 428.229 1.2274 -5.98953 0
M  V30 4659 H 432.403 0.869109 -6.90955 0
M  V30 4660 H 430.03 0.623624 -7.57638 0
M  V30 4661 N 431.605 1.3629 0.791371 0
M  V30 4662 C 432.833 1.33562 1.58016 0
M  V30 4663 C 433.248 -0.0835616 1.88615 0
M  V30 4664 O 432.605 -1.0399 1.49974 0
M  V30 4665 C 432.656 2.15517 2.90232 0
M  V30 4666 O 432.377 3.51902 2.60953 0
M  V30 4667 C 433.878 2.20546 3.84544 0
M  V30 4668 H 431.098 0.458226 0.490173 0
M  V30 4669 H 433.642 1.79361 0.982345 0
M  V30 4670 H 431.797 1.73278 3.46487 0
M  V30 4671 H 432.211 3.94644 3.4548 0
M  V30 4672 H 433.685 2.82252 4.74382 0
M  V30 4673 H 434.162 1.20838 4.2225 0
M  V30 4674 H 434.768 2.63013 3.34222 0
M  V30 4675 N 433.083 -1.0153 1.20538 0
M  V30 4676 C 434.013 -2.11972 0.979295 0
M  V30 4677 C 434.994 -1.6985 -0.0921787 0
M  V30 4678 O 436.179 -1.94089 0.0655932 0
M  V30 4679 C 433.309 -3.43201 0.531984 0
M  V30 4680 C 432.263 -3.9907 1.54685 0
M  V30 4681 C 431.589 -5.26082 0.956127 0
M  V30 4682 C 432.889 -4.32313 2.93092 0
M  V30 4683 H 434.583 -2.31143 1.90298 0
M  V30 4684 H 432.129 -1.11079 0.916372 0
M  V30 4685 H 434.082 -4.1985 0.361044 0
M  V30 4686 H 432.806 -3.23792 -0.427327 0
M  V30 4687 H 431.465 -3.2453 1.70517 0
M  V30 4688 H 431.113 -5.02999 -0.0111538 0
M  V30 4689 H 430.813 -5.64426 1.63393 0
M  V30 4690 H 432.337 -6.05386 0.796284 0
M  V30 4691 H 433.751 -4.99845 2.80763 0
M  V30 4692 H 432.148 -4.81774 3.57791 0
M  V30 4693 H 433.218 -3.41025 3.44717 0
M  V30 4694 N 434.561 -1.01147 -1.20859 0
M  V30 4695 C 435.509 -0.57059 -2.25493 0
M  V30 4696 C 436.503 0.388109 -1.64894 0
M  V30 4697 O 437.709 0.258592 -1.78133 0
M  V30 4698 H 434.084 -0.166191 -0.733406 0
M  V30 4699 H 436.055 -1.46411 -2.60012 0
M  V30 4700 C 434.804 0.0805241 -3.47607 0
M  V30 4701 H 434.127 -0.648156 -3.94511 0
M  V30 4702 H 435.567 0.352197 -4.22535 0
M  V30 4703 C 434.026 1.32175 -3.09889 0
M  V30 4704 O 434.556 2.41553 -3.20959 0
M  V30 4705 N 432.762 1.20392 -2.64488 0
M  V30 4706 H 432.309 0.313905 -2.5568 0
M  V30 4707 H 432.267 2.03541 -2.39621 0
M  V30 4708 N 436.039 1.36541 -0.78704 0
M  V30 4709 C 436.969 2.32659 -0.197992 0
M  V30 4710 C 437.95 1.56533 0.665697 0
M  V30 4711 O 439.135 1.84698 0.60001 0
M  V30 4712 C 436.265 3.40778 0.669901 0
M  V30 4713 C 435.219 4.27897 -0.0937039 0
M  V30 4714 C 434.545 5.27163 0.894629 0
M  V30 4715 C 435.845 5.06334 -1.28154 0
M  V30 4716 H 437.539 2.82171 -1.00099 0
M  V30 4717 H 435.085 1.35665 -0.482793 0
M  V30 4718 H 437.038 4.07008 1.09191 0
M  V30 4719 H 435.762 2.89827 1.50558 0
M  V30 4720 H 434.421 3.6322 -0.49666 0
M  V30 4721 H 434.069 4.72486 1.72527 0
M  V30 4722 H 433.769 5.86317 0.388149 0
M  V30 4723 H 435.293 5.96266 1.31525 0
M  V30 4724 H 436.707 5.65617 -0.93541 0
M  V30 4725 H 435.104 5.74888 -1.72115 0
M  V30 4726 H 436.174 4.38114 -2.07807 0
M  V30 4727 N 437.518 0.538854 1.48102 0
M  V30 4728 C 438.934 0.19732 1.58376 0
M  V30 4729 C 439.134 -1.29971 1.5398 0
M  V30 4730 O 438.19 -2.07861 1.43352 0
M  V30 4731 C 439.503 0.807716 2.89649 0
M  V30 4732 C 441.051 0.77726 3.03196 0
M  V30 4733 C 441.526 1.36639 4.37143 0
M  V30 4734 N 443.017 1.32875 4.43732 0
M  V30 4735 C 443.752 1.7544 5.45901 0
M  V30 4736 N 443.248 2.25776 6.54979 0
M  V30 4737 N 445.041 1.66623 5.36836 0
M  V30 4738 H 437.192 1.5117 1.49202 0
M  V30 4739 H 439.455 0.629327 0.708979 0
M  V30 4740 H 439.161 1.85909 2.98548 0
M  V30 4741 H 439.035 0.289975 3.76084 0
M  V30 4742 H 441.422 -0.265374 2.93904 0
M  V30 4743 H 441.503 1.33256 2.18349 0
M  V30 4744 H 441.147 2.408 4.47189 0
M  V30 4745 H 441.077 0.786689 5.20691 0
M  V30 4746 H 443.568 0.96037 3.65493 0
M  V30 4747 H 443.881 2.56226 7.29087 0
M  V30 4748 H 442.226 2.29775 6.55918 0
M  V30 4749 H 445.417 1.27089 4.50517 0
M  V30 4750 H 445.59 2.00115 6.16326 0
M  V30 4751 N 438.996 -1.55193 0.274407 0
M  V30 4752 C 439.906 -2.26164 -0.623473 0
M  V30 4753 C 440.922 -1.28729 -1.17068 0
M  V30 4754 O 442.098 -1.61663 -1.20112 0
M  V30 4755 C 439.163 -2.96833 -1.7914 0
M  V30 4756 C 438.224 -4.09745 -1.28093 0
M  V30 4757 C 437.457 -4.77034 -2.3932 0
M  V30 4758 O 437.68 -4.4353 -3.5866 0
M  V30 4759 O 436.614 -5.64996 -2.07516 0
M  V30 4760 H 440.44 -3.03661 -0.0485661 0
M  V30 4761 H 438.025 -1.49341 0.0418382 0
M  V30 4762 H 439.907 -3.41248 -2.4724 0
M  V30 4763 H 438.582 -2.22253 -2.35341 0
M  V30 4764 H 437.489 -3.69787 -0.566416 0
M  V30 4765 H 438.822 -4.86224 -0.764683 0
M  V30 4766 N 440.474 -0.00167713 -1.576 0
M  V30 4767 C 441.72 0.683832 -1.90923 0
M  V30 4768 C 442.053 1.7333 -0.875799 0
M  V30 4769 O 441.328 1.94215 0.10525 0
M  V30 4770 C 441.611 1.32543 -3.3482 0
M  V30 4771 C 441.464 0.287387 -4.48881 0
M  V30 4772 C 442.783 2.25114 -3.78169 0
M  V30 4773 H 439.902 0.247125 -0.694333 0
M  V30 4774 H 442.544 -0.0533149 -1.89925 0
M  V30 4775 H 440.694 1.95372 -3.35801 0
M  V30 4776 H 442.366 -0.341346 -4.60035 0
M  V30 4777 H 440.609 -0.39017 -4.32042 0
M  V30 4778 H 441.28 0.775393 -5.46527 0
M  V30 4779 H 443.756 1.723 -3.7875 0
M  V30 4780 H 442.632 2.66971 -4.79602 0
M  V30 4781 H 442.893 3.13092 -3.12131 0
M  V30 4782 N 441.952 1.55251 0.271103 0
M  V30 4783 C 443.18 1.79974 1.02064 0
M  V30 4784 C 443.595 0.574003 1.79863 0
M  V30 4785 O 442.952 -0.456962 1.76686 0
M  V30 4786 C 443.003 3.02603 1.97772 0
M  V30 4787 O 442.724 4.20443 1.23124 0
M  V30 4788 C 444.225 3.39944 2.84522 0
M  V30 4789 H 441.445 0.599489 0.301419 0
M  V30 4790 H 443.989 2.02268 0.301313 0
M  V30 4791 H 442.144 2.8243 2.65165 0
M  V30 4792 H 442.558 4.89783 1.87651 0
M  V30 4793 H 444.032 4.28915 3.47471 0
M  V30 4794 H 444.509 2.59432 3.54389 0
M  V30 4795 H 445.115 3.62383 2.22618 0
M  V30 4796 N 443.43 -0.535701 1.48216 0
M  V30 4797 C 444.377 -1.64083 1.62312 0
M  V30 4798 C 445.347 -1.59448 0.465365 0
M  V30 4799 O 446.532 -1.77959 0.688135 0
M  V30 4800 C 443.672 -3.0236 1.66349 0
M  V30 4801 C 442.785 -3.17273 2.93193 0
M  V30 4802 C 441.92 -4.46075 2.88427 0
M  V30 4803 C 440.959 -4.54496 4.1 0
M  V30 4804 N 440.096 -5.7468 4.03345 0
M  V30 4805 H 444.936 -1.51374 2.5669 0
M  V30 4806 H 442.473 -0.737059 1.27302 0
M  V30 4807 H 444.431 -3.82461 1.66672 0
M  V30 4808 H 443.061 -3.13854 0.754672 0
M  V30 4809 H 442.113 -2.30462 3.02641 0
M  V30 4810 H 443.425 -3.19357 3.83162 0
M  V30 4811 H 442.579 -5.3446 2.87119 0
M  V30 4812 H 441.318 -4.46504 1.96177 0
M  V30 4813 H 440.323 -3.64519 4.11589 0
M  V30 4814 H 441.548 -4.5581 5.03402 0
M  V30 4815 H 439.494 -5.76017 3.13912 0
M  V30 4816 H 439.411 -5.78234 4.87013 0
M  V30 4817 H 440.679 -6.65367 4.06087 0
M  V30 4818 N 444.908 -1.36708 -0.784132 0
M  V30 4819 C 446.185 -1.21776 -1.53069 0
M  V30 4820 C 446.565 0.193876 -2.10208 0
M  V30 4821 O 445.913 1.20012 -1.94446 0
M  V30 4822 C 446.123 -2.30395 -2.62143 0
M  V30 4823 C 447.471 -2.67325 -3.29882 0
M  V30 4824 O 448.495 -2.29478 -2.7243 0
M  V30 4825 O 447.354 -3.32485 -4.33724 0
M  V30 4826 H 444.448 -0.474459 -0.677361 0
M  V30 4827 H 446.994 -1.48454 -0.82216 0
M  V30 4828 H 445.766 -3.2498 -2.17953 0
M  V30 4829 H 445.389 -2.05112 -3.40609 0
M  V30 4830 N 446.386 1.0089 -1.21074 0
M  V30 4831 C 447.318 2.09737 -0.924291 0
M  V30 4832 C 448.331 1.62546 0.0909809 0
M  V30 4833 O 449.52 1.77942 -0.141021 0
M  V30 4834 C 446.62 3.36922 -0.36559 0
M  V30 4835 C 445.793 4.13216 -1.43426 0
M  V30 4836 C 444.852 5.18696 -0.885496 0
M  V30 4837 O 443.878 5.47176 -1.56801 0
M  V30 4838 N 445.08 5.79718 0.301227 0
M  V30 4839 H 447.845 2.34895 -1.8613 0
M  V30 4840 H 445.406 1.17341 -1.11546 0
M  V30 4841 H 447.398 4.04697 0.0158407 0
M  V30 4842 H 445.968 3.08952 0.476149 0
M  V30 4843 H 445.188 3.40301 -1.9897 0
M  V30 4844 H 446.476 4.60967 -2.15376 0
M  V30 4845 H 445.874 5.58926 0.872849 0
M  V30 4846 H 444.431 6.48804 0.624211 0
M  V30 4847 N 447.864 1.01787 1.20321 0
M  V30 4848 C 449.089 0.727009 1.9424 0
M  V30 4849 C 449.514 -0.706179 1.74341 0
M  V30 4850 O 448.872 -1.48609 1.03852 0
M  V30 4851 C 448.92 1.06958 3.44372 0
M  V30 4852 O 448.024 0.181983 4.11998 0
M  V30 4853 H 447.365 0.269626 0.606793 0
M  V30 4854 H 449.895 1.36158 1.52716 0
M  V30 4855 H 449.905 1.02182 3.94997 0
M  V30 4856 H 448.58 2.11378 3.58179 0
M  V30 4857 H 447.157 0.287378 3.71791 0
M  V30 4858 N 449.342 -1.36122 0.79427 0
M  V30 4859 C 450.59 -1.98718 0.368177 0
M  V30 4860 C 450.911 -1.63345 -1.06506 0
M  V30 4861 O 450.181 -0.909825 -1.73491 0
M  V30 4862 H 448.761 -0.735038 0.133146 0
M  V30 4863 H 451.423 -1.66239 1.01739 0
M  V30 4864 H 450.519 -3.08633 0.463923 0
M  V30 4865 N 450.82 -0.546701 -1.47814 0
M  V30 4866 C 451.767 0.206854 -2.29871 0
M  V30 4867 C 452.737 0.918235 -1.38411 0
M  V30 4868 O 453.922 0.915991 -1.67375 0
M  V30 4869 C 451.062 1.23746 -3.22151 0
M  V30 4870 C 450.175 0.533216 -4.28697 0
M  V30 4871 C 449.31 1.5482 -5.08138 0
M  V30 4872 C 448.349 0.828347 -6.06469 0
M  V30 4873 N 447.486 1.78966 -6.78908 0
M  V30 4874 H 452.326 -0.499037 -2.93792 0
M  V30 4875 H 449.863 -0.25793 -1.44821 0
M  V30 4876 H 451.821 1.84746 -3.74065 0
M  V30 4877 H 450.451 1.91151 -2.60117 0
M  V30 4878 H 449.503 -0.191089 -3.7992 0
M  V30 4879 H 450.815 -0.0311987 -4.9879 0
M  V30 4880 H 449.969 2.23202 -5.6415 0
M  V30 4881 H 448.708 2.14652 -4.37922 0
M  V30 4882 H 447.713 0.130539 -5.49645 0
M  V30 4883 H 448.938 0.235907 -6.7869 0
M  V30 4884 H 446.884 2.37675 -6.1143 0
M  V30 4885 H 446.801 1.27712 -7.45135 0
M  V30 4886 H 448.069 2.46496 -7.395 0
M  V30 4887 N 452.299 1.55045 -0.282633 0
M  V30 4888 C 453.529 2.03872 0.334635 0
M  V30 4889 C 453.937 1.16018 1.49454 0
M  V30 4890 O 453.28 0.174449 1.8287 0
M  V30 4891 C 453.342 3.48791 0.870905 0
M  V30 4892 C 453.006 4.56715 -0.161338 0
M  V30 4893 C 454.003 5.10513 -0.983466 0
M  V30 4894 C 451.688 5.01417 -0.297745 0
M  V30 4895 C 453.682 6.07538 -1.92811 0
M  V30 4896 C 451.369 5.98265 -1.24586 0
M  V30 4897 C 452.367 6.51208 -2.05954 0
M  V30 4898 O 452.055 7.46162 -2.99162 0
M  V30 4899 H 451.787 0.671324 0.0793742 0
M  V30 4900 H 454.341 2.01169 -0.41473 0
M  V30 4901 H 452.571 3.48758 1.67047 0
M  V30 4902 H 454.26 3.80916 1.40207 0
M  V30 4903 H 455.026 4.76785 -0.888856 0
M  V30 4904 H 450.905 4.59849 0.325604 0
M  V30 4905 H 454.449 6.48787 -2.56363 0
M  V30 4906 H 450.346 6.31412 -1.34126 0
M  V30 4907 H 451.114 7.63903 -2.93929 0
M  V30 4908 N 453.777 0.010035 1.57597 0
M  V30 4909 C 455.017 -0.677084 1.9286 0
M  V30 4910 C 455.381 -1.70377 0.885192 0
M  V30 4911 O 456.582 -2.44199 1.12339 0
M  V30 4912 C 454.853 -1.29452 3.33132 0
M  V30 4913 S 456.412 -2.00537 3.90295 0
M  V30 4914 H 453.23 -0.223409 0.674989 0
M  V30 4915 H 455.832 0.0691289 1.95378 0
M  V30 4916 H 454.536 -0.534593 4.06903 0
M  V30 4917 H 454.067 -2.07845 3.34012 0
M  V30 4918 H 456.082 -3.28168 3.72183 0
M  V30 4919 N 455.255 -1.55392 -0.262866 0
M  V30 4920 C 456.495 -1.78231 -1.00064 0
M  V30 4921 C 456.859 -0.576966 -1.83126 0
M  V30 4922 O 458.06 -0.683809 -2.59957 0
M  V30 4923 C 456.331 -3.05701 -1.85153 0
M  V30 4924 S 457.89 -3.49699 -2.65058 0
M  V30 4925 H 454.708 -0.626138 -0.336856 0
M  V30 4926 H 457.31 -1.93626 -0.27005 0
M  V30 4927 H 456.014 -3.91511 -1.23074 0
M  V30 4928 H 455.545 -2.93 -2.62515 0
M  V30 4929 H 457.56 -3.09772 -3.87629 0
M  V30 4930 N 456.733 0.527833 -1.48498 0
M  V30 4931 C 457.665 1.6482 -1.5927 0
M  V30 4932 C 458.678 1.55659 -0.476869 0
M  V30 4933 O 459.867 1.62081 -0.747806 0
M  V30 4934 C 456.967 3.0348 -1.50842 0
M  V30 4935 C 456.14 3.381 -2.77502 0
M  V30 4936 C 455.199 4.5605 -2.62497 0
M  V30 4937 O 454.225 4.59165 -3.36387 0
M  V30 4938 N 455.427 5.54353 -1.72257 0
M  V30 4939 H 458.192 1.56015 -2.55889 0
M  V30 4940 H 455.753 0.715152 -1.45249 0
M  V30 4941 H 457.745 3.80264 -1.38496 0
M  V30 4942 H 456.315 3.06352 -0.621887 0
M  V30 4943 H 455.535 2.50473 -3.04396 0
M  V30 4944 H 456.823 3.58017 -3.61527 0
M  V30 4945 H 456.221 5.54617 -1.11431 0
M  V30 4946 H 454.778 6.30347 -1.65849 0
M  V30 4947 N 458.211 1.37122 0.776871 0
M  V30 4948 C 459.457 1.32243 1.53752 0
M  V30 4949 C 459.79 -0.0944745 1.9397 0
M  V30 4950 O 459.065 -1.05068 1.6368 0
M  V30 4951 C 459.348 2.25681 2.80607 0
M  V30 4952 C 459.201 3.76127 2.46676 0
M  V30 4953 C 460.52 2.17657 3.82509 0
M  V30 4954 H 457.639 0.481704 0.557791 0
M  V30 4955 H 460.281 1.6778 0.891612 0
M  V30 4956 H 458.431 1.95505 3.35723 0
M  V30 4957 H 460.103 4.16877 1.97513 0
M  V30 4958 H 458.346 3.94946 1.79443 0
M  V30 4959 H 459.017 4.36933 3.37333 0
M  V30 4960 H 461.493 2.44245 3.36873 0
M  V30 4961 H 460.369 2.85185 4.69 0
M  V30 4962 H 460.63 1.16785 4.26396 0
M  V30 4963 N 459.689 -1.00246 1.21608 0
M  V30 4964 C 460.914 -1.78167 1.06167 0
M  V30 4965 C 461.339 -1.84138 -0.384035 0
M  V30 4966 O 460.697 -1.28683 -1.27712 0
M  V30 4967 C 460.745 -3.19786 1.66642 0
M  V30 4968 O 459.849 -4.02153 0.913613 0
M  V30 4969 H 459.19 -0.549 0.37349 0
M  V30 4970 H 461.72 -1.25994 1.61204 0
M  V30 4971 H 461.73 -3.70451 1.70969 0
M  V30 4972 H 460.405 -3.14754 2.7185 0
M  V30 4973 H 458.982 -3.60711 0.945635 0
M  V30 4974 N 461.167 -1.02423 -1.1978 0
M  V30 4975 C 462.115 -0.594474 -2.24875 0
M  V30 4976 C 463.109 0.370598 -1.65296 0
M  V30 4977 O 464.315 0.239684 -1.78397 0
M  V30 4978 H 460.69 -0.173961 -0.731602 0
M  V30 4979 H 462.661 -1.4916 -2.58445 0
M  V30 4980 C 461.41 0.0436512 -3.47673 0
M  V30 4981 H 460.733 -0.689963 -3.93801 0
M  V30 4982 H 462.173 0.307362 -4.22884 0
M  V30 4983 C 460.632 1.28881 -3.11274 0
M  V30 4984 O 461.162 2.38135 -3.23503 0
M  V30 4985 N 459.368 1.1758 -2.6575 0
M  V30 4986 H 458.915 0.286769 -2.55999 0
M  V30 4987 H 458.873 2.00988 -2.41767 0
M  V30 4988 N 462.645 1.35699 -0.801477 0
M  V30 4989 C 463.922 1.9324 -0.302937 0
M  V30 4990 C 464.302 1.73209 1.20672 0
M  V30 4991 O 463.65 1.09809 2.00385 0
M  V30 4992 C 463.86 3.41728 -0.708747 0
M  V30 4993 C 465.208 4.18868 -0.695328 0
M  V30 4994 O 466.232 3.5022 -0.649971 0
M  V30 4995 O 465.091 5.41342 -0.749081 0
M  V30 4996 H 462.185 0.82331 -0.0780367 0
M  V30 4997 H 464.731 1.44806 -0.884832 0
M  V30 4998 H 463.503 3.50015 -1.74944 0
M  V30 4999 H 463.126 3.97471 -0.101384 0
M  V30 5000 N 464.123 0.554532 1.47522 0
M  V30 5001 C 465.369 0.0295227 2.02779 0
M  V30 5002 C 465.702 -1.31582 1.42828 0
M  V30 5003 O 464.977 -1.85561 0.582872 0
M  V30 5004 C 465.26 -0.0664057 3.60039 0
M  V30 5005 C 465.113 1.30585 4.30427 0
M  V30 5006 C 466.432 -0.781162 4.33112 0
M  V30 5007 H 463.551 0.0122027 0.736899 0
M  V30 5008 H 466.193 0.716305 1.7598 0
M  V30 5009 H 464.343 -0.651307 3.83002 0
M  V30 5010 H 466.015 1.93374 4.18813 0
M  V30 5011 H 464.258 1.88125 3.90886 0
M  V30 5012 H 464.929 1.19147 5.38988 0
M  V30 5013 H 467.405 -0.284565 4.15126 0
M  V30 5014 H 466.281 -0.817237 5.42782 0
M  V30 5015 H 466.542 -1.83672 4.0214 0
M  V30 5016 N 465.601 -1.54893 0.290851 0
M  V30 5017 C 466.849 -1.99538 -0.320756 0
M  V30 5018 C 467.17 -1.18075 -1.55188 0
M  V30 5019 O 466.44 -0.274162 -1.93972 0
M  V30 5020 H 465.02 -0.737052 -0.121507 0
M  V30 5021 H 467.682 -1.90755 0.399832 0
M  V30 5022 H 466.778 -3.06282 -0.599802 0
M  V30 5023 N 467.08 -0.0183926 -1.57589 0
M  V30 5024 C 468.491 0.521927 -1.79256 0
M  V30 5025 C 468.842 1.72885 -0.927636 0
M  V30 5026 O 467.967 2.15978 -0.135091 0
M  V30 5027 C 468.562 0.953632 -3.25102 0
M  V30 5028 C 467.121 1.43913 -3.47801 0
M  V30 5029 C 466.268 0.398837 -2.74417 0
M  V30 5030 H 469.219 -0.244485 -1.56805 0
M  V30 5031 H 469.24 1.81863 -3.34224 0
M  V30 5032 H 468.752 0.0750123 -3.88028 0
M  V30 5033 H 466.853 2.33804 -2.90115 0
M  V30 5034 H 466.966 1.45391 -4.56507 0
M  V30 5035 H 465.33 0.864572 -2.39577 0
M  V30 5036 H 466.113 -0.471132 -3.40052 0
M  V30 5037 N 468.558 1.5553 0.254621 0
M  V30 5038 C 469.806 1.7665 0.981793 0
M  V30 5039 C 470.127 0.580963 1.86145 0
M  V30 5040 O 469.397 -0.403537 1.91699 0
M  V30 5041 H 467.977 0.651475 0.365498 0
M  V30 5042 H 470.639 1.92958 0.274426 0
M  V30 5043 H 469.735 2.67486 1.60802 0
M  V30 5044 N 470.036 -0.519951 1.48776 0
M  V30 5045 C 471.452 -0.849418 1.35119 0
M  V30 5046 C 471.652 -1.98077 0.36982 0
M  V30 5047 O 470.708 -2.51664 -0.205359 0
M  V30 5048 C 472.021 -1.20748 2.75391 0
M  V30 5049 C 473.569 -1.31679 2.83954 0
M  V30 5050 C 474.044 -1.70824 4.24951 0
M  V30 5051 N 475.535 -1.77908 4.27672 0
M  V30 5052 C 476.27 -2.09603 5.33717 0
M  V30 5053 N 475.766 -2.39652 6.5003 0
M  V30 5054 N 477.559 -2.10694 5.21119 0
M  V30 5055 H 469.71 0.226377 2.1119 0
M  V30 5056 H 471.973 0.0386519 0.947212 0
M  V30 5057 H 471.679 -0.449703 3.48813 0
M  V30 5058 H 471.553 -2.15534 3.09556 0
M  V30 5059 H 473.94 -2.06532 2.10781 0
M  V30 5060 H 474.021 -0.3499 2.53396 0
M  V30 5061 H 473.665 -0.965282 4.98643 0
M  V30 5062 H 473.595 -2.6858 4.52959 0
M  V30 5063 H 476.086 -1.56923 3.43779 0
M  V30 5064 H 476.399 -2.6297 7.26682 0
M  V30 5065 H 474.744 -2.37149 6.53288 0
M  V30 5066 H 477.935 -1.86682 4.29264 0
M  V30 5067 H 478.108 -2.35062 6.03863 0
M  V30 5068 N 471.514 -1.37532 -0.769588 0
M  V30 5069 C 472.739 -1.36231 -1.56384 0
M  V30 5070 C 473.164 0.0495849 -1.88035 0
M  V30 5071 O 472.522 1.02723 -1.49391 0
M  V30 5072 C 472.57 -2.20986 -2.84952 0
M  V30 5073 O 471.674 -1.61597 -3.79421 0
M  V30 5074 H 471.015 -0.465387 -0.473615 0
M  V30 5075 H 473.545 -1.81085 -0.952342 0
M  V30 5076 H 473.555 -2.34277 -3.34034 0
M  V30 5077 H 472.23 -3.23612 -2.61243 0
M  V30 5078 H 470.807 -1.57359 -3.38072 0
M  V30 5079 N 472.992 0.995999 -1.22138 0
M  V30 5080 C 473.902 2.11985 -1.00496 0
M  V30 5081 C 474.918 1.7394 0.0457701 0
M  V30 5082 O 476.094 2.00868 -0.146273 0
M  V30 5083 C 473.159 3.41779 -0.582086 0
M  V30 5084 C 472.22 3.93943 -1.70608 0
M  V30 5085 C 471.453 5.17542 -1.30328 0
M  V30 5086 O 471.676 5.70114 -0.180743 0
M  V30 5087 O 470.61 5.63382 -2.11861 0
M  V30 5088 H 474.436 2.33123 -1.94647 0
M  V30 5089 H 472.021 1.10358 -1.00705 0
M  V30 5090 H 473.903 4.1989 -0.356467 0
M  V30 5091 H 472.578 3.22007 0.330592 0
M  V30 5092 H 471.485 3.17019 -1.98619 0
M  V30 5093 H 472.818 4.18141 -2.59651 0
M  V30 5094 N 474.47 1.03057 1.19235 0
M  V30 5095 C 475.38 0.622922 2.26179 0
M  V30 5096 C 476.396 -0.346113 1.70523 0
M  V30 5097 O 477.572 -0.203572 2.00369 0
M  V30 5098 C 474.637 -0.0182063 3.46695 0
M  V30 5099 C 473.698 0.998546 4.17526 0
M  V30 5100 C 472.931 0.387917 5.32288 0
M  V30 5101 O 473.154 -0.808668 5.64639 0
M  V30 5102 O 472.088 1.1116 5.91546 0
M  V30 5103 H 475.914 1.51363 2.63292 0
M  V30 5104 H 473.499 0.800856 1.26122 0
M  V30 5105 H 475.381 -0.375606 4.19723 0
M  V30 5106 H 474.056 -0.882895 3.11427 0
M  V30 5107 H 472.963 1.40756 3.4661 0
M  V30 5108 H 474.296 1.83366 4.56769 0
M  V30 5109 N 475.948 -1.35272 0.808662 0
M  V30 5110 C 477.194 -1.99003 0.390581 0
M  V30 5111 C 477.527 -1.63999 -1.0401 0
M  V30 5112 O 476.802 -0.904368 -1.72196 0
M  V30 5113 C 477.085 -3.55454 0.576566 0
M  V30 5114 C 476.938 -4.00249 2.05233 0
M  V30 5115 C 478.257 -4.401 0.00354277 0
M  V30 5116 H 475.376 -0.722917 0.143388 0
M  V30 5117 H 478.018 -1.6039 1.01858 0
M  V30 5118 H 476.168 -3.88477 0.0419766 0
M  V30 5119 H 477.84 -3.77626 2.64946 0
M  V30 5120 H 476.083 -3.51082 2.54801 0
M  V30 5121 H 476.754 -5.0911 2.13333 0
M  V30 5122 H 479.23 -4.13548 0.460117 0
M  V30 5123 H 478.106 -5.48656 0.163575 0
M  V30 5124 H 478.367 -4.28444 -1.09032 0
M  V30 5125 N 477.426 -0.562348 -1.47226 0
M  V30 5126 C 478.673 -0.0402165 -2.0246 0
M  V30 5127 C 479.001 1.31169 -1.43614 0
M  V30 5128 O 478.256 1.86805 -0.5833 0
M  V30 5129 C 478.555 0.0969817 -3.57268 0
M  V30 5130 C 478.221 -1.1847 -4.35058 0
M  V30 5131 C 476.883 -1.53588 -4.56031 0
M  V30 5132 C 479.235 -2.03378 -4.79882 0
M  V30 5133 C 476.563 -2.73452 -5.19077 0
M  V30 5134 C 478.915 -3.2245 -5.44251 0
M  V30 5135 C 477.579 -3.57876 -5.63455 0
M  V30 5136 H 476.849 -0.0147163 -0.740854 0
M  V30 5137 H 479.496 -0.734895 -1.76838 0
M  V30 5138 H 477.801 0.87466 -3.81912 0
M  V30 5139 H 479.498 0.516408 -3.97661 0
M  V30 5140 H 476.088 -0.90126 -4.19017 0
M  V30 5141 H 480.272 -1.77553 -4.63453 0
M  V30 5142 H 475.528 -3.01062 -5.32139 0
M  V30 5143 H 479.702 -3.88526 -5.77945 0
M  V30 5144 H 477.329 -4.50849 -6.12078 0
M  V30 5145 N 478.904 1.54736 -0.299062 0
M  V30 5146 C 479.834 2.26409 0.571085 0
M  V30 5147 C 480.815 1.2629 1.13951 0
M  V30 5148 O 482 1.55059 1.16921 0
M  V30 5149 C 479.13 3.00338 1.74396 0
M  V30 5150 C 478.084 4.07588 1.30599 0
M  V30 5151 C 477.41 4.69222 2.56387 0
M  V30 5152 C 478.71 5.20455 0.438645 0
M  V30 5153 H 480.404 2.99388 -0.0266991 0
M  V30 5154 H 477.95 1.43993 -0.0142812 0
M  V30 5155 H 479.903 3.49198 2.35878 0
M  V30 5156 H 478.627 2.24934 2.36796 0
M  V30 5157 H 477.286 3.59575 0.71424 0
M  V30 5158 H 476.934 3.9046 3.17097 0
M  V30 5159 H 476.634 5.41653 2.27784 0
M  V30 5160 H 478.158 5.20844 3.18675 0
M  V30 5161 H 479.572 5.65221 0.959085 0
M  V30 5162 H 477.969 5.99594 0.246466 0
M  V30 5163 H 479.039 4.8192 -0.536738 0
M  V30 5164 N 480.382 0.0267497 1.57577 0
M  V30 5165 C 481.314 -0.984594 2.06974 0
M  V30 5166 C 482.327 -1.29032 0.992705 0
M  V30 5167 O 483.516 -1.25539 1.26895 0
M  V30 5168 C 480.616 -2.31262 2.47732 0
M  V30 5169 C 479.789 -2.1924 3.78487 0
M  V30 5170 C 478.848 -3.34956 4.05821 0
M  V30 5171 O 477.874 -3.11948 4.76106 0
M  V30 5172 N 479.076 -4.58672 3.55809 0
M  V30 5173 H 481.841 -0.563143 2.94362 0
M  V30 5174 H 479.402 -0.160061 1.61107 0
M  V30 5175 H 481.394 -3.07496 2.63112 0
M  V30 5176 H 479.964 -2.65056 1.65723 0
M  V30 5177 H 479.184 -1.27747 3.72927 0
M  V30 5178 H 480.472 -2.08409 4.64158 0
M  V30 5179 H 479.87 -4.8026 2.98942 0
M  V30 5180 H 478.427 -5.32083 3.76472 0
M  V30 5181 N 481.861 -1.55662 -0.24637 0
M  V30 5182 C 483.107 -1.77782 -0.975779 0
M  V30 5183 C 483.44 -0.592103 -1.84953 0
M  V30 5184 O 482.715 0.409588 -1.90138 0
M  V30 5185 C 482.998 -3.09788 -1.83584 0
M  V30 5186 C 482.851 -4.38764 -0.990241 0
M  V30 5187 C 484.17 -3.38029 -2.81823 0
M  V30 5188 H 481.289 -0.646789 -0.353317 0
M  V30 5189 H 483.931 -1.88398 -0.246248 0
M  V30 5190 H 482.081 -3.00869 -2.45784 0
M  V30 5191 H 483.753 -4.59675 -0.386897 0
M  V30 5192 H 481.996 -4.32798 -0.294626 0
M  V30 5193 H 482.667 -5.27514 -1.62584 0
M  V30 5194 H 485.143 -3.46915 -2.2976 0
M  V30 5195 H 484.019 -4.3161 -3.39122 0
M  V30 5196 H 484.28 -2.58968 -3.58313 0
M  V30 5197 N 483.339 0.512053 -1.4905 0
M  V30 5198 C 484.271 1.63121 -1.6101 0
M  V30 5199 C 485.284 1.55145 -0.493352 0
M  V30 5200 O 486.473 1.61278 -0.764955 0
M  V30 5201 C 483.573 3.01863 -1.54052 0
M  V30 5202 C 482.746 3.35138 -2.81072 0
M  V30 5203 C 481.805 4.5324 -2.67319 0
M  V30 5204 O 480.831 4.55571 -3.41238 0
M  V30 5205 N 482.033 5.52495 -1.78127 0
M  V30 5206 H 484.798 1.53292 -2.5753 0
M  V30 5207 H 482.359 0.699706 -1.45999 0
M  V30 5208 H 484.351 3.78774 -1.42521 0
M  V30 5209 H 482.921 3.05675 -0.654345 0
M  V30 5210 H 482.141 2.4723 -3.07036 0
M  V30 5211 H 483.429 3.54162 -3.65304 0
M  V30 5212 H 482.827 5.53403 -1.17308 0
M  V30 5213 H 481.384 6.28553 -1.72525 0
M  V30 5214 N 484.817 1.37938 0.762283 0
M  V30 5215 C 486.047 1.36685 1.54922 0
M  V30 5216 C 486.455 -0.0474099 1.89141 0
M  V30 5217 O 485.798 -1.02213 1.52638 0
M  V30 5218 C 485.86 2.14963 2.88152 0
M  V30 5219 C 485.524 3.6385 2.76518 0
M  V30 5220 C 486.521 4.57531 2.46904 0
M  V30 5221 C 484.206 4.07095 2.94243 0
M  V30 5222 C 486.2 5.92436 2.35156 0
M  V30 5223 C 483.887 5.42083 2.82116 0
M  V30 5224 C 484.885 6.34567 2.52614 0
M  V30 5225 O 484.573 7.67073 2.40529 0
M  V30 5226 H 484.305 0.469586 0.486276 0
M  V30 5227 H 486.859 1.82012 0.951876 0
M  V30 5228 H 485.089 1.6434 3.50042 0
M  V30 5229 H 486.778 2.06224 3.49609 0
M  V30 5230 H 487.544 4.25428 2.32886 0
M  V30 5231 H 483.423 3.35462 3.16206 0
M  V30 5232 H 486.967 6.64591 2.12049 0
M  V30 5233 H 482.864 5.73785 2.95704 0
M  V30 5234 H 483.632 7.77499 2.55807 0
M  V30 5235 N 486.295 -0.989507 1.22664 0
M  V30 5236 C 487.258 -2.06183 1.00106 0
M  V30 5237 C 488.258 -1.60765 -0.0337726 0
M  V30 5238 O 489.448 -1.72989 0.205072 0
M  V30 5239 C 486.58 -3.37021 0.51279 0
M  V30 5240 H 487.773 -2.27629 1.95256 0
M  V30 5241 H 485.326 -1.16158 1.0458 0
M  V30 5242 H 486.061 -3.21261 -0.442917 0
M  V30 5243 H 485.846 -3.71323 1.25942 0
M  V30 5244 H 487.336 -4.1591 0.375315 0
M  V30 5245 N 487.773 -1.03688 -1.18687 0
M  V30 5246 C 489.184 -0.766488 -1.70241 0
M  V30 5247 C 489.535 0.713052 -1.82784 0
M  V30 5248 O 488.66 1.55529 -1.50465 0
M  V30 5249 C 489.255 -1.38475 -3.09209 0
M  V30 5250 C 487.814 -1.16276 -3.5799 0
M  V30 5251 C 486.961 -1.4778 -2.34641 0
M  V30 5252 H 489.912 -1.20378 -1.03415 0
M  V30 5253 H 489.933 -0.785939 -3.72295 0
M  V30 5254 H 489.445 -2.46157 -3.00048 0
M  V30 5255 H 487.546 -0.104508 -3.72453 0
M  V30 5256 H 487.659 -1.8571 -4.41643 0
M  V30 5257 H 486.023 -0.897366 -2.38368 0
M  V30 5258 H 486.806 -2.56562 -2.28102 0
M  V30 5259 N 489.251 1.34841 -0.815825 0
M  V30 5260 C 490.161 2.33425 -0.234462 0
M  V30 5261 C 491.177 1.62295 0.627413 0
M  V30 5262 O 492.353 1.94109 0.536987 0
M  V30 5263 C 489.418 3.41471 0.599849 0
M  V30 5264 C 488.479 4.28362 -0.283596 0
M  V30 5265 C 487.712 5.31248 0.51099 0
M  V30 5266 O 487.935 5.43056 1.7449 0
M  V30 5267 O 486.869 6.01812 -0.10297 0
M  V30 5268 H 490.695 2.84962 -1.05024 0
M  V30 5269 H 488.28 1.37774 -0.577809 0
M  V30 5270 H 490.162 4.07464 1.07475 0
M  V30 5271 H 488.837 2.9219 1.39308 0
M  V30 5272 H 487.744 3.65318 -0.805836 0
M  V30 5273 H 489.077 4.81066 -1.041 0
M  V30 5274 N 490.729 0.570148 1.46925 0
M  V30 5275 C 492.14 0.1402 1.86173 0
M  V30 5276 C 492.491 -1.29347 1.47526 0
M  V30 5277 O 491.616 -1.97508 0.884292 0
M  V30 5278 C 492.211 0.247661 3.37894 0
M  V30 5279 C 490.77 -0.127332 3.76185 0
M  V30 5280 C 489.917 0.589349 2.70965 0
M  V30 5281 H 492.868 0.779117 1.38259 0
M  V30 5282 H 492.889 -0.530341 3.76786 0
M  V30 5283 H 492.401 1.29121 3.65991 0
M  V30 5284 H 490.502 -1.17149 3.53704 0
M  V30 5285 H 490.615 0.240238 4.78497 0
M  V30 5286 H 488.979 0.0309824 2.54681 0
M  V30 5287 H 489.762 1.6343 3.01903 0
M  V30 5288 N 492.207 -1.54576 0.307264 0
M  V30 5289 C 493.432 -2.05139 -0.305379 0
M  V30 5290 C 493.857 -1.18278 -1.46259 0
M  V30 5291 O 493.215 -0.188243 -1.8032 0
M  V30 5292 C 493.263 -3.53066 -0.733283 0
M  V30 5293 O 492.367 -3.69206 -1.83741 0
M  V30 5294 H 491.708 -0.661444 -0.0582105 0
M  V30 5295 H 494.238 -1.99569 0.450931 0
M  V30 5296 H 494.248 -3.95034 -1.02039 0
M  V30 5297 H 492.923 -4.15746 0.113198 0
M  V30 5298 H 491.5 -3.39143 -1.55037 0
M  V30 5299 N 493.685 -0.035106 -1.57561 0
M  V30 5300 C 494.913 0.652258 -1.9635 0
M  V30 5301 C 495.328 1.65317 -0.911897 0
M  V30 5302 O 494.685 1.82194 0.105657 0
M  V30 5303 C 494.736 1.35337 -3.35211 0
M  V30 5304 O 494.457 0.392548 -4.36338 0
M  V30 5305 C 495.958 2.13199 -3.88666 0
M  V30 5306 H 493.178 0.179444 -0.646561 0
M  V30 5307 H 495.722 -0.0966459 -2.04271 0
M  V30 5308 H 493.877 2.05362 -3.28489 0
M  V30 5309 H 494.291 0.891097 -5.16875 0
M  V30 5310 H 495.765 2.577 -4.88154 0
M  V30 5311 H 496.242 2.97353 -3.23231 0
M  V30 5312 H 496.848 1.48118 -3.98674 0
M  V30 5313 N 495.163 1.55791 0.238111 0
M  V30 5314 C 496.409 1.78297 0.966337 0
M  V30 5315 C 496.742 0.601903 1.84637 0
M  V30 5316 O 496.017 -0.399499 1.90353 0
M  V30 5317 C 496.3 3.10758 1.81939 0
M  V30 5318 C 496.153 4.39283 0.966958 0
M  V30 5319 C 497.472 3.39519 2.80027 0
M  V30 5320 H 494.591 0.648654 0.349882 0
M  V30 5321 H 497.233 1.88525 0.236253 0
M  V30 5322 H 495.383 3.02168 2.44185 0
M  V30 5323 H 497.055 4.59873 0.362514 0
M  V30 5324 H 495.298 4.32948 0.271669 0
M  V30 5325 H 495.969 5.28368 1.59784 0
M  V30 5326 H 498.445 3.48128 2.27917 0
M  V30 5327 H 497.321 4.33402 3.36829 0
M  V30 5328 H 497.582 2.60864 3.56934 0
M  V30 5329 N 496.642 -0.504142 1.49319 0
M  V30 5330 C 497.574 -1.62265 1.61872 0
M  V30 5331 C 498.587 -1.54881 0.501573 0
M  V30 5332 O 499.776 -1.6087 0.773497 0
M  V30 5333 C 496.876 -3.01042 1.55651 0
M  V30 5334 C 496.049 -3.33642 2.82845 0
M  V30 5335 C 495.108 -4.51816 2.69719 0
M  V30 5336 O 494.134 -4.53755 3.4365 0
M  V30 5337 N 495.336 -5.51543 1.81055 0
M  V30 5338 H 498.101 -1.51924 2.58339 0
M  V30 5339 H 495.662 -0.691954 1.46368 0
M  V30 5340 H 497.654 -3.78013 1.44528 0
M  V30 5341 H 496.224 -3.05323 0.670546 0
M  V30 5342 H 495.444 -2.45598 3.08343 0
M  V30 5343 H 496.732 -3.5222 3.67177 0
M  V30 5344 H 496.13 -5.52774 1.20241 0
M  V30 5345 H 494.687 -6.27629 1.75856 0
M  V30 5346 N 498.12 -1.38341 -0.754957 0
M  V30 5347 C 499.369 -1.33791 -1.5094 0
M  V30 5348 C 499.682 0.0699267 -1.95475 0
M  V30 5349 O 500.888 0.237956 -2.70455 0
M  V30 5350 C 499.344 -2.34934 -2.72643 0
M  V30 5351 C 498.952 -3.81332 -2.35138 0
M  V30 5352 C 500.696 -2.39425 -3.50536 0
M  V30 5353 C 498.603 -4.74164 -3.53444 0
M  V30 5354 H 497.533 -0.497314 -0.566741 0
M  V30 5355 H 500.184 -1.63888 -0.825403 0
M  V30 5356 H 498.566 -1.97878 -3.43017 0
M  V30 5357 H 499.74 -4.27319 -1.7244 0
M  V30 5358 H 498.055 -3.79946 -1.70382 0
M  V30 5359 H 500.652 -3.0598 -4.38498 0
M  V30 5360 H 500.995 -1.41278 -3.91594 0
M  V30 5361 H 501.528 -2.75274 -2.87174 0
M  V30 5362 H 498.267 -5.73501 -3.17453 0
M  V30 5363 H 497.787 -4.3287 -4.15191 0
M  V30 5364 H 499.466 -4.92111 -4.20043 0
M  V30 5365 N 499.598 0.982988 -1.23187 0
M  V30 5366 C 500.528 2.09301 -1.03515 0
M  V30 5367 C 501.509 1.70035 0.0471136 0
M  V30 5368 O 502.694 1.93847 -0.117029 0
M  V30 5369 C 499.824 3.4167 -0.622791 0
M  V30 5370 C 498.778 3.94828 -1.65211 0
M  V30 5371 C 498.104 5.23362 -1.09527 0
M  V30 5372 C 499.404 4.2439 -3.04451 0
M  V30 5373 H 501.098 2.26016 -1.96359 0
M  V30 5374 H 498.644 1.08611 -0.945501 0
M  V30 5375 H 500.597 4.18746 -0.472233 0
M  V30 5376 H 499.321 3.24811 0.341329 0
M  V30 5377 H 497.98 3.19895 -1.79061 0
M  V30 5378 H 497.628 5.02852 -0.122211 0
M  V30 5379 H 497.328 5.59895 -1.783 0
M  V30 5380 H 498.852 6.03062 -0.956511 0
M  V30 5381 H 500.266 4.92225 -2.93917 0
M  V30 5382 H 498.663 4.72118 -3.70438 0
M  V30 5383 H 499.733 3.31765 -3.53638 0
M  V30 5384 N 501.076 1.04316 1.18135 0
M  V30 5385 C 502.026 0.606731 2.19779 0
M  V30 5386 C 503.01 -0.352144 1.56999 0
M  V30 5387 O 504.202 -0.170795 1.76174 0
M  V30 5388 C 501.331 -0.0262443 3.4329 0
M  V30 5389 C 500.417 0.955928 4.13186 0
M  V30 5390 N 500.808 2.12395 4.59045 0
M  V30 5391 C 499.106 0.782473 4.39082 0
M  V30 5392 C 499.807 2.74458 5.12882 0
M  V30 5393 N 498.783 2.02316 5.04548 0
M  V30 5394 H 502.585 1.49679 2.5293 0
M  V30 5395 H 500.099 0.912088 1.34368 0
M  V30 5396 H 502.096 -0.356617 4.15372 0
M  V30 5397 H 500.756 -0.911811 3.11635 0
M  V30 5398 H 501.767 2.50272 4.53414 0
M  V30 5399 H 498.444 -0.0527906 4.17467 0
M  V30 5400 H 499.834 3.73459 5.5855 0
M  V30 5401 N 502.554 -1.34406 0.822964 0
M  V30 5402 C 503.779 -2.0304 0.423034 0
M  V30 5403 C 504.204 -1.61568 -0.963196 0
M  V30 5404 O 503.562 -0.800339 -1.62678 0
M  V30 5405 C 503.61 -3.56636 0.53321 0
M  V30 5406 O 502.714 -4.09971 -0.446939 0
M  V30 5407 H 502.055 -0.64075 0.174171 0
M  V30 5408 H 504.585 -1.71653 1.11339 0
M  V30 5409 H 504.595 -4.05945 0.408991 0
M  V30 5410 H 503.27 -3.86168 1.54425 0
M  V30 5411 H 501.847 -3.71835 -0.281601 0
M  V30 5412 N 504.032 -0.577932 -1.46621 0
M  V30 5413 C 505.443 -0.150071 -1.86096 0
M  V30 5414 C 505.794 1.28563 -1.48209 0
M  V30 5415 O 504.919 1.97036 -0.894754 0
M  V30 5416 C 505.514 -0.265576 -3.37758 0
M  V30 5417 C 504.073 0.10738 -3.76247 0
M  V30 5418 C 503.22 -0.603711 -2.70649 0
M  V30 5419 H 506.171 -0.786438 -1.37844 0
M  V30 5420 H 506.192 0.510352 -3.77062 0
M  V30 5421 H 505.704 -1.3106 -3.65301 0
M  V30 5422 H 503.805 1.15272 -3.54321 0
M  V30 5423 H 503.918 -0.26561 -4.78363 0
M  V30 5424 H 502.282 -0.0444884 -2.54661 0
M  V30 5425 H 503.065 -1.65029 -3.01032 0
M  V30 5426 N 505.51 1.54411 -0.315457 0
M  V30 5427 C 506.473 2.22713 0.54142 0
M  V30 5428 C 507.473 1.2179 1.04995 0
M  V30 5429 O 508.663 1.46426 0.943667 0
M  V30 5430 C 505.795 2.92485 1.75116 0
M  V30 5431 H 506.988 2.99849 -0.0555508 0
M  V30 5432 H 504.541 1.56159 -0.0664453 0
M  V30 5433 H 505.276 2.19466 2.38758 0
M  V30 5434 H 505.061 3.66483 1.39401 0
M  V30 5435 H 506.551 3.44548 2.35959 0
M  V30 5436 N 506.988 0.0434614 1.5754 0
M  V30 5437 C 508.234 -0.632971 1.92669 0
M  V30 5438 C 508.567 -1.70947 0.921446 0
M  V30 5439 O 507.842 -1.94426 -0.0537202 0
M  V30 5440 C 508.125 -1.23619 3.38216 0
M  V30 5441 C 507.978 -0.168274 4.49485 0
M  V30 5442 C 509.297 -2.15008 3.84005 0
M  V30 5443 H 506.416 -0.228629 0.700641 0
M  V30 5444 H 509.058 0.103651 1.89717 0
M  V30 5445 H 507.208 -1.864 3.40863 0
M  V30 5446 H 508.88 0.463196 4.58969 0
M  V30 5447 H 507.123 0.504581 4.30855 0
M  V30 5448 H 507.794 -0.630218 5.48391 0
M  V30 5449 H 510.27 -1.62198 3.83185 0
M  V30 5450 H 509.146 -2.54161 4.86511 0
M  V30 5451 H 509.407 -3.04707 3.20322 0
M  V30 5452 N 508.466 -1.55915 -0.229846 0
M  V30 5453 C 509.376 -1.94891 -1.30593 0
M  V30 5454 C 510.392 -0.851604 -1.51736 0
M  V30 5455 O 511.568 -1.15447 -1.65027 0
M  V30 5456 C 508.633 -2.25052 -2.63728 0
M  V30 5457 C 507.694 -3.48306 -2.5096 0
M  V30 5458 C 506.927 -3.77019 -3.77747 0
M  V30 5459 O 507.15 -3.07534 -4.80395 0
M  V30 5460 O 506.084 -4.70523 -3.75356 0
M  V30 5461 H 509.91 -2.86581 -1.00525 0
M  V30 5462 H 507.495 -1.43017 -0.432025 0
M  V30 5463 H 509.377 -2.45682 -3.42372 0
M  V30 5464 H 508.052 -1.36538 -2.93495 0
M  V30 5465 H 506.959 -3.32964 -1.70546 0
M  V30 5466 H 508.292 -4.37177 -2.26136 0
M  V30 5467 N 509.944 0.496216 -1.49584 0
M  V30 5468 C 511.192 1.24756 -1.58998 0
M  V30 5469 C 511.513 1.92968 -0.280775 0
M  V30 5470 O 510.783 1.82959 0.700198 0
M  V30 5471 H 509.363 0.463471 -0.585836 0
M  V30 5472 H 512.025 0.574678 -1.86235 0
M  V30 5473 H 511.121 2.00895 -2.38847 0
M  V30 5474 N 511.423 1.38739 0.74761 0
M  V30 5475 C 512.648 1.38702 1.54197 0
M  V30 5476 C 513.073 -0.019664 1.8809 0
M  V30 5477 O 512.431 -1.00333 1.51006 0
M  V30 5478 C 512.479 2.25492 2.814 0
M  V30 5479 O 511.583 1.67613 3.76802 0
M  V30 5480 H 510.924 0.472863 0.466151 0
M  V30 5481 H 513.454 1.82577 0.923413 0
M  V30 5482 H 513.464 2.39561 3.30264 0
M  V30 5483 H 512.139 3.27727 2.56062 0
M  V30 5484 H 510.716 1.62718 3.35526 0
M  V30 5485 N 512.901 -0.976442 1.23707 0
M  V30 5486 C 513.833 -2.07212 0.979574 0
M  V30 5487 C 514.846 -1.6273 -0.0478528 0
M  V30 5488 O 516.035 -1.77506 0.18815 0
M  V30 5489 C 513.135 -3.35835 0.45479 0
M  V30 5490 C 512.308 -4.09268 1.54331 0
M  V30 5491 C 511.367 -5.16166 1.02271 0
M  V30 5492 O 510.393 -5.42827 1.71254 0
M  V30 5493 N 511.595 -5.80313 -0.147419 0
M  V30 5494 H 514.36 -2.29878 1.92292 0
M  V30 5495 H 511.921 -1.14343 1.14618 0
M  V30 5496 H 513.913 -4.04597 0.0914631 0
M  V30 5497 H 512.483 -3.10106 -0.394068 0
M  V30 5498 H 511.703 -3.34906 2.07923 0
M  V30 5499 H 512.991 -4.55095 2.27522 0
M  V30 5500 H 512.389 -5.61043 -0.724353 0
M  V30 5501 H 510.946 -6.50231 -0.451972 0
M  V30 5502 N 514.379 -1.04941 -1.1758 0
M  V30 5503 C 515.625 -0.759112 -1.88057 0
M  V30 5504 C 515.958 0.711918 -1.8068 0
M  V30 5505 O 515.233 1.52035 -1.21308 0
M  V30 5506 C 515.516 -1.237 -3.38187 0
M  V30 5507 C 515.369 -2.77078 -3.54327 0
M  V30 5508 C 516.688 -0.834014 -4.32125 0
M  V30 5509 H 513.807 -0.277237 -0.682868 0
M  V30 5510 H 516.449 -1.30296 -1.38286 0
M  V30 5511 H 514.599 -0.774337 -3.80705 0
M  V30 5512 H 516.271 -3.31449 -3.20842 0
M  V30 5513 H 514.514 -3.16477 -2.96689 0
M  V30 5514 H 515.185 -3.05577 -4.59703 0
M  V30 5515 H 517.661 -1.23228 -3.97434 0
M  V30 5516 H 516.537 -1.19603 -5.35711 0
M  V30 5517 H 516.798 0.262195 -4.41322 0
M  V30 5518 N 515.857 1.33968 -0.830081 0
M  V30 5519 C 516.767 2.33164 -0.259207 0
M  V30 5520 C 517.783 1.62951 0.610164 0
M  V30 5521 O 518.959 1.94668 0.516369 0
M  V30 5522 C 516.024 3.42088 0.563598 0
M  V30 5523 C 515.085 4.28037 -0.329014 0
M  V30 5524 C 514.318 5.3176 0.454616 0
M  V30 5525 O 514.541 5.44876 1.6872 0
M  V30 5526 O 513.475 6.01669 -0.166794 0
M  V30 5527 H 517.301 2.83832 -1.08041 0
M  V30 5528 H 514.886 1.37154 -0.59239 0
M  V30 5529 H 516.768 4.08581 1.03147 0
M  V30 5530 H 515.443 2.93651 1.36201 0
M  V30 5531 H 514.35 3.64443 -0.844538 0
M  V30 5532 H 515.683 4.79934 -1.09196 0
M  V30 5533 N 517.335 0.585699 1.46312 0
M  V30 5534 C 518.582 0.0724211 2.0237 0
M  V30 5535 C 518.91 -1.28868 1.45683 0
M  V30 5536 O 518.165 -1.85853 0.612945 0
M  V30 5537 C 518.464 -0.0401312 3.57377 0
M  V30 5538 C 518.13 1.25376 4.33119 0
M  V30 5539 C 516.792 1.60824 4.5353 0
M  V30 5540 C 519.144 2.10987 4.76586 0
M  V30 5541 C 516.472 2.81676 5.14661 0
M  V30 5542 C 518.824 3.31068 5.39052 0
M  V30 5543 C 517.488 3.66794 5.5769 0
M  V30 5544 H 516.758 0.0265007 0.740526 0
M  V30 5545 H 519.405 0.762935 1.75646 0
M  V30 5546 H 517.71 -0.813791 3.83255 0
M  V30 5547 H 519.407 -0.453078 3.98432 0
M  V30 5548 H 515.997 0.967808 4.1753 0
M  V30 5549 H 520.181 1.84904 4.60569 0
M  V30 5550 H 515.437 3.0949 5.27282 0
M  V30 5551 H 519.611 3.97672 5.71691 0
M  V30 5552 H 517.238 4.60529 6.04828 0
M  V30 5553 N 518.813 -1.54241 0.323641 0
M  V30 5554 C 519.743 -2.27289 -0.534993 0
M  V30 5555 C 520.724 -1.28087 -1.11927 0
M  V30 5556 O 521.909 -1.56899 -1.14439 0
M  V30 5557 C 519.039 -3.03075 -1.69596 0
M  V30 5558 C 517.993 -4.09614 -1.24098 0
M  V30 5559 C 517.319 -4.73242 -2.4889 0
M  V30 5560 C 518.619 -5.21087 -0.355789 0
M  V30 5561 H 520.313 -2.99308 0.0743257 0
M  V30 5562 H 517.859 -1.43952 0.0371874 0
M  V30 5563 H 519.812 -3.52907 -2.30293 0
M  V30 5564 H 518.536 -2.28673 -2.33187 0
M  V30 5565 H 517.195 -3.60666 -0.656945 0
M  V30 5566 H 516.843 -3.95455 -3.10845 0
M  V30 5567 H 516.543 -5.45209 -2.19138 0
M  V30 5568 H 518.067 -5.25848 -3.10348 0
M  V30 5569 H 519.481 -5.66675 -0.869042 0
M  V30 5570 H 517.878 -5.9991 -0.151045 0
M  V30 5571 H 518.948 -4.81005 0.613339 0
M  V30 5572 N 520.291 -0.0518155 -1.57515 0
M  V30 5573 C 521.531 0.625712 -1.94587 0
M  V30 5574 C 521.895 1.6797 -0.930053 0
M  V30 5575 O 523.096 2.41135 -1.18774 0
M  V30 5576 C 521.367 1.20574 -3.36447 0
M  V30 5577 S 522.926 1.90118 -3.95475 0
M  V30 5578 H 519.744 0.205434 -0.680675 0
M  V30 5579 H 522.346 -0.120906 -1.95126 0
M  V30 5580 H 521.05 0.426521 -4.08178 0
M  V30 5581 H 520.581 1.98916 -3.39405 0
M  V30 5582 H 522.596 3.18184 -3.80753 0
M  V30 5583 N 521.769 1.56035 0.221574 0
M  V30 5584 C 522.702 1.87427 1.30178 0
M  V30 5585 C 523.68 0.731658 1.45209 0
M  V30 5586 O 524.864 0.980016 1.61022 0
M  V30 5587 C 521.991 2.08127 2.67209 0
M  V30 5588 C 521.037 3.30813 2.69194 0
M  V30 5589 S 521.87 4.86738 2.23263 0
M  V30 5590 C 523.026 5.10474 3.62171 0
M  V30 5591 H 523.259 2.78756 1.03355 0
M  V30 5592 H 520.792 1.48469 0.423813 0
M  V30 5593 H 522.75 2.20736 3.46101 0
M  V30 5594 H 521.411 1.17595 2.91256 0
M  V30 5595 H 520.604 3.42341 3.6989 0
M  V30 5596 H 520.206 3.1706 1.98366 0
M  V30 5597 H 522.498 4.9937 4.5786 0
M  V30 5598 H 523.441 6.12359 3.55558 0
M  V30 5599 H 523.849 4.38208 3.55857 0
M  V30 5600 N 523.247 -0.488276 1.49845 0
M  V30 5601 C 524.472 -1.26997 1.63971 0
M  V30 5602 C 524.897 -1.85427 0.315994 0
M  V30 5603 O 524.255 -1.66475 -0.718032 0
M  V30 5604 C 524.303 -2.36689 2.72049 0
M  V30 5605 O 523.407 -3.40882 2.32107 0
M  V30 5606 H 522.748 -0.374376 0.548396 0
M  V30 5607 H 525.278 -0.583104 1.96115 0
M  V30 5608 H 525.288 -2.82262 2.94605 0
M  V30 5609 H 523.963 -1.93529 3.68129 0
M  V30 5610 H 522.54 -3.01139 2.19931 0
M  V30 5611 N 524.725 -1.39134 -0.740242 0
M  V30 5612 C 525.655 -1.40165 -1.86751 0
M  V30 5613 C 526.636 -0.265708 -1.68012 0
M  V30 5614 O 527.821 -0.47076 -1.88408 0
M  V30 5615 C 524.951 -1.2392 -3.2444 0
M  V30 5616 C 523.905 -2.34858 -3.57807 0
M  V30 5617 C 523.231 -2.03707 -4.94376 0
M  V30 5618 C 524.531 -3.77159 -3.61315 0
M  V30 5619 H 526.225 -2.345 -1.86145 0
M  V30 5620 H 523.771 -1.12875 -0.89416 0
M  V30 5621 H 525.724 -1.23263 -4.02969 0
M  V30 5622 H 524.448 -0.26051 -3.25559 0
M  V30 5623 H 523.107 -2.34723 -2.81604 0
M  V30 5624 H 522.755 -1.04289 -4.9207 0
M  V30 5625 H 522.455 -2.78016 -5.17669 0
M  V30 5626 H 523.979 -2.04691 -5.75268 0
M  V30 5627 H 525.393 -3.79252 -4.29931 0
M  V30 5628 H 523.79 -4.50784 -3.96124 0
M  V30 5629 H 524.86 -4.08513 -2.61238 0
M  V30 5630 N 526.204 0.969867 -1.24223 0
M  V30 5631 C 527.167 2.04564 -1.03373 0
M  V30 5632 C 528.167 1.60798 0.00819206 0
M  V30 5633 O 529.357 1.72641 -0.232567 0
M  V30 5634 C 526.489 3.36163 -0.566343 0
M  V30 5635 H 527.682 2.24494 -1.98853 0
M  V30 5636 H 525.235 1.1448 -1.06415 0
M  V30 5637 H 525.97 3.21925 0.391751 0
M  V30 5638 H 525.755 3.69273 -1.31834 0
M  V30 5639 H 527.245 4.1526 -0.441435 0
M  V30 5640 N 527.682 1.05563 1.17022 0
M  V30 5641 C 528.63 0.653887 2.2322 0
M  V30 5642 C 529.624 -0.326642 1.66221 0
M  V30 5643 O 530.83 -0.192301 1.7897 0
M  V30 5644 H 527.205 0.193297 0.726733 0
M  V30 5645 H 529.176 1.5596 2.54399 0
M  V30 5646 C 527.925 0.0485434 3.47666 0
M  V30 5647 H 527.248 0.79413 3.91834 0
M  V30 5648 H 528.688 -0.195133 4.23551 0
M  V30 5649 C 527.147 -1.20583 3.14581 0
M  V30 5650 O 527.677 -2.29475 3.29703 0
M  V30 5651 N 525.883 -1.10493 2.68774 0
M  V30 5652 H 525.43 -0.218795 2.56669 0
M  V30 5653 H 525.388 -1.94507 2.47011 0
M  V30 5654 N 529.16 -1.33526 0.837174 0
M  V30 5655 C 530.571 -1.80182 0.489017 0
M  V30 5656 C 530.922 -1.69285 -0.991826 0
M  V30 5657 O 530.047 -1.24113 -1.77271 0
M  V30 5658 C 530.642 -3.27149 0.880866 0
M  V30 5659 C 529.201 -3.71828 0.584872 0
M  V30 5660 C 528.348 -2.54974 1.09011 0
M  V30 5661 H 531.299 -1.21071 1.02603 0
M  V30 5662 H 531.32 -3.80024 0.190239 0
M  V30 5663 H 530.832 -3.35048 1.95869 0
M  V30 5664 H 528.933 -3.69457 -0.48295 0
M  V30 5665 H 529.046 -4.65366 1.13892 0
M  V30 5666 H 527.41 -2.4952 0.511047 0
M  V30 5667 H 528.193 -2.65637 2.17467 0
M  V30 5668 N 530.638 -0.59345 -1.46 0
M  V30 5669 C 531.568 0.121192 -2.33185 0
M  V30 5670 C 532.549 0.872977 -1.4599 0
M  V30 5671 O 533.734 0.846321 -1.74789 0
M  V30 5672 C 530.864 1.12844 -3.28456 0
M  V30 5673 C 529.818 0.4908 -4.25177 0
M  V30 5674 C 529.144 1.60529 -5.10034 0
M  V30 5675 C 530.444 -0.578949 -5.19081 0
M  V30 5676 H 532.138 -0.606767 -2.93187 0
M  V30 5677 H 529.684 -0.293242 -1.40983 0
M  V30 5678 H 531.637 1.63684 -3.88311 0
M  V30 5679 H 530.361 1.88681 -2.66584 0
M  V30 5680 H 529.02 0.00339328 -3.666 0
M  V30 5681 H 528.668 2.35359 -4.44539 0
M  V30 5682 H 528.368 1.18422 -5.75543 0
M  V30 5683 H 529.892 2.11623 -5.72755 0
M  V30 5684 H 531.306 -0.155199 -5.7309 0
M  V30 5685 H 529.703 -0.920947 -5.92991 0
M  V30 5686 H 530.773 -1.46109 -4.62364 0
M  V30 5687 N 532.116 1.54067 -0.331816 0
M  V30 5688 C 533.527 1.86059 0.15454 0
M  V30 5689 C 533.878 1.25331 1.50952 0
M  V30 5690 O 533.003 0.562441 2.08963 0
M  V30 5691 C 533.598 3.37581 0.287192 0
M  V30 5692 C 532.157 3.69493 0.717773 0
M  V30 5693 C 531.304 2.76863 -0.155569 0
M  V30 5694 H 534.255 1.48797 -0.55182 0
M  V30 5695 H 534.276 3.63744 1.11671 0
M  V30 5696 H 533.788 3.81751 -0.699131 0
M  V30 5697 H 531.889 3.3086 1.71354 0
M  V30 5698 H 532.002 4.76315 0.5158 0
M  V30 5699 H 530.366 2.51995 0.370213 0
M  V30 5700 H 531.149 3.23861 -1.13881 0
M  V30 5701 N 533.594 0.0601682 1.57485 0
M  V30 5702 C 534.822 -0.620937 1.97363 0
M  V30 5703 C 535.237 -1.63846 0.938082 0
M  V30 5704 O 534.594 -1.82339 -0.0766578 0
M  V30 5705 C 534.645 -1.29987 3.37321 0
M  V30 5706 O 534.366 -0.323081 4.36907 0
M  V30 5707 C 535.867 -2.06989 3.92008 0
M  V30 5708 H 533.087 -0.169135 0.649334 0
M  V30 5709 H 535.631 0.129132 2.04092 0
M  V30 5710 H 533.786 -2.0011 3.31715 0
M  V30 5711 H 534.2 -0.808754 5.18227 0
M  V30 5712 H 535.674 -2.49901 4.92192 0
M  V30 5713 H 536.151 -2.92173 3.2792 0
M  V30 5714 H 536.757 -1.41757 4.0098 0
M  V30 5715 N 535.072 -1.5615 -0.213296 0
M  V30 5716 C 536.02 -1.93953 -1.28394 0
M  V30 5717 C 537.014 -0.822592 -1.48087 0
M  V30 5718 O 538.22 -1.00748 -1.49164 0
M  V30 5719 H 534.595 -0.61648 -0.430646 0
M  V30 5720 H 536.566 -2.83275 -0.937977 0
M  V30 5721 C 535.315 -2.27969 -2.62537 0
M  V30 5722 H 534.638 -3.13432 -2.48194 0
M  V30 5723 H 536.078 -2.58297 -3.36242 0
M  V30 5724 C 534.537 -1.10775 -3.18167 0
M  V30 5725 O 535.067 -0.373201 -3.99963 0
M  V30 5726 N 533.273 -0.889377 -2.76656 0
M  V30 5727 H 532.82 -1.48843 -2.10246 0
M  V30 5728 H 532.778 -0.107 -3.14218 0
M  V30 5729 N 536.55 0.480323 -1.50102 0
M  V30 5730 C 537.78 1.25475 -1.64133 0
M  V30 5731 C 538.188 1.8647 -0.320272 0
M  V30 5732 O 537.531 1.69561 0.70673 0
M  V30 5733 C 537.593 2.40996 -2.6676 0
M  V30 5734 C 537.257 2.00711 -4.10565 0
M  V30 5735 C 538.254 1.53492 -4.96725 0
M  V30 5736 C 535.939 2.09714 -4.56427 0
M  V30 5737 C 537.933 1.15806 -6.26792 0
M  V30 5738 C 535.62 1.7164 -5.86501 0
M  V30 5739 C 536.618 1.24763 -6.71508 0
M  V30 5740 O 536.306 0.872122 -7.99155 0
M  V30 5741 H 536.038 0.385983 -0.554971 0
M  V30 5742 H 538.592 0.580848 -1.97016 0
M  V30 5743 H 536.822 3.11528 -2.291 0
M  V30 5744 H 538.511 3.02981 -2.70106 0
M  V30 5745 H 539.277 1.45966 -4.62514 0
M  V30 5746 H 535.156 2.4515 -3.90413 0
M  V30 5747 H 538.7 0.791465 -6.93096 0
M  V30 5748 H 534.597 1.78822 -6.20236 0
M  V30 5749 H 535.365 1.00178 -8.12346 0
M  V30 5750 N 538.028 1.39524 0.732853 0
M  V30 5751 C 539.256 1.40143 1.52209 0
M  V30 5752 C 539.671 -0.00348836 1.888 0
M  V30 5753 O 539.028 -0.975357 1.5425 0
M  V30 5754 C 539.079 2.27632 2.8083 0
M  V30 5755 O 538.8 3.62654 2.45792 0
M  V30 5756 C 540.301 2.36658 3.74844 0
M  V30 5757 H 537.521 0.478604 0.470297 0
M  V30 5758 H 540.065 1.83366 0.905388 0
M  V30 5759 H 538.22 1.87818 3.38826 0
M  V30 5760 H 538.634 4.08941 3.28431 0
M  V30 5761 H 540.108 3.02118 4.61984 0
M  V30 5762 H 540.585 1.38638 4.16745 0
M  V30 5763 H 541.191 2.76951 3.22766 0
M  V30 5764 N 539.506 -0.963266 1.24736 0
M  V30 5765 C 540.752 -1.71 1.10139 0
M  V30 5766 C 541.107 -1.89089 -0.35541 0
M  V30 5767 O 540.4 -1.44451 -1.25875 0
M  V30 5768 C 540.594 -3.09944 1.7796 0
M  V30 5769 C 540.423 -3.05408 3.30085 0
M  V30 5770 C 539.193 -3.09643 3.99311 0
M  V30 5771 C 541.391 -2.87241 4.26611 0
M  V30 5772 N 539.373 -2.95174 5.3828 0
M  V30 5773 C 540.744 -2.81114 5.52607 0
M  V30 5774 C 542.799 -2.71856 4.17132 0
M  V30 5775 C 541.502 -2.61174 6.70209 0
M  V30 5776 C 543.528 -2.53284 5.34417 0
M  V30 5777 C 542.89 -2.4787 6.59348 0
M  V30 5778 H 538.989 -0.634078 0.457678 0
M  V30 5779 H 541.573 -1.14169 1.57713 0
M  V30 5780 H 539.744 -3.64958 1.32893 0
M  V30 5781 H 541.476 -3.73348 1.56183 0
M  V30 5782 H 538.231 -3.18498 3.50508 0
M  V30 5783 H 538.655 -2.91168 6.11188 0
M  V30 5784 H 543.297 -2.74821 3.21299 0
M  V30 5785 H 541.015 -2.56952 7.6616 0
M  V30 5786 H 544.601 -2.42317 5.28936 0
M  V30 5787 H 543.481 -2.33685 7.48573 0
M  V30 5788 N 540.985 -1.06182 -1.16461 0
M  V30 5789 C 542.215 -0.797425 -1.9059 0
M  V30 5790 C 542.623 0.651845 -1.77616 0
M  V30 5791 O 541.966 1.45788 -1.11766 0
M  V30 5792 C 542.028 -1.11128 -3.41893 0
M  V30 5793 C 541.692 -2.55874 -3.78652 0
M  V30 5794 C 542.689 -3.54104 -3.80665 0
M  V30 5795 C 540.374 -2.91144 -4.09317 0
M  V30 5796 C 542.368 -4.85645 -4.12829 0
M  V30 5797 C 540.055 -4.22885 -4.41148 0
M  V30 5798 C 541.053 -5.19945 -4.42883 0
M  V30 5799 O 540.741 -6.49322 -4.73959 0
M  V30 5800 H 540.473 -0.288709 -0.611247 0
M  V30 5801 H 543.027 -1.41841 -1.4856 0
M  V30 5802 H 541.257 -0.433217 -3.84266 0
M  V30 5803 H 542.946 -0.831306 -3.97296 0
M  V30 5804 H 543.712 -3.28197 -3.57088 0
M  V30 5805 H 539.591 -2.16252 -4.07131 0
M  V30 5806 H 543.135 -5.61398 -4.14099 0
M  V30 5807 H 539.032 -4.48551 -4.6419 0
M  V30 5808 H 539.8 -6.54294 -4.91774 0
M  V30 5809 N 542.463 1.3308 -0.844243 0
M  V30 5810 C 543.413 2.26589 -0.253289 0
M  V30 5811 C 544.397 1.49501 0.594836 0
M  V30 5812 O 545.589 1.71291 0.445924 0
M  V30 5813 C 542.718 3.38599 0.566176 0
M  V30 5814 C 541.804 4.23081 -0.293756 0
M  V30 5815 N 542.195 4.86751 -1.37505 0
M  V30 5816 C 540.493 4.45925 -0.0817086 0
M  V30 5817 C 541.194 5.49684 -1.90323 0
M  V30 5818 N 540.17 5.30101 -1.20391 0
M  V30 5819 H 543.972 2.73334 -1.08009 0
M  V30 5820 H 541.486 1.47048 -0.689258 0
M  V30 5821 H 543.483 4.04584 1.00587 0
M  V30 5822 H 542.143 2.93401 1.39089 0
M  V30 5823 H 543.154 4.87151 -1.75796 0
M  V30 5824 H 539.831 4.11434 0.709129 0
M  V30 5825 H 541.221 6.10363 -2.80902 0
M  V30 5826 N 543.941 0.601185 1.45683 0
M  V30 5827 C 544.889 -0.133955 2.32214 0
M  V30 5828 C 545.883 -0.866034 1.45589 0
M  V30 5829 O 547.089 -0.782326 1.6211 0
M  V30 5830 H 543.464 -0.0620613 0.749435 0
M  V30 5831 H 545.435 0.614389 2.92007 0
M  V30 5832 C 544.184 -1.12216 3.29094 0
M  V30 5833 H 543.507 -0.568273 3.95741 0
M  V30 5834 H 544.947 -1.60659 3.92383 0
M  V30 5835 C 543.406 -2.19251 2.55794 0
M  V30 5836 O 543.936 -3.26894 2.33459 0
M  V30 5837 N 542.142 -1.9436 2.16039 0
M  V30 5838 H 541.689 -1.06829 2.34404 0
M  V30 5839 H 541.647 -2.66181 1.67318 0
M  V30 5840 N 545.419 -1.53889 0.339982 0
M  V30 5841 C 546.667 -2.00458 -0.257112 0
M  V30 5842 C 546.988 -1.22953 -1.51353 0
M  V30 5843 O 546.258 -0.335734 -1.93002 0
M  V30 5844 H 544.838 -0.740544 -0.0979965 0
M  V30 5845 H 547.5 -1.89386 0.460317 0
M  V30 5846 H 546.596 -3.08035 -0.502057 0
M  V30 5847 N 546.897 -0.0685191 -1.57451 0
M  V30 5848 C 547.844 0.899861 -2.12535 0
M  V30 5849 C 548.814 1.29749 -1.03703 0
M  V30 5850 O 549.999 1.38392 -1.31348 0
M  V30 5851 C 547.139 2.16328 -2.6888 0
M  V30 5852 C 546.252 1.81857 -3.91857 0
M  V30 5853 C 545.387 3.02786 -4.36457 0
M  V30 5854 C 544.426 2.64317 -5.5209 0
M  V30 5855 N 543.563 3.77994 -5.91663 0
M  V30 5856 H 548.403 0.423243 -2.94979 0
M  V30 5857 H 545.94 0.197268 -1.45771 0
M  V30 5858 H 547.898 2.90281 -2.99655 0
M  V30 5859 H 546.528 2.61536 -1.89206 0
M  V30 5860 H 545.58 0.979808 -3.67565 0
M  V30 5861 H 546.892 1.49553 -4.75852 0
M  V30 5862 H 546.046 3.85021 -4.68875 0
M  V30 5863 H 544.785 3.38281 -3.51308 0
M  V30 5864 H 543.79 1.80503 -5.19325 0
M  V30 5865 H 545.015 2.29995 -6.38967 0
M  V30 5866 H 542.961 4.13258 -5.09464 0
M  V30 5867 H 542.878 3.49447 -6.7039 0
M  V30 5868 H 544.146 4.60818 -6.28703 0
M  V30 5869 N 548.375 1.56261 0.205012 0
M  V30 5870 C 549.285 1.96944 1.27476 0
M  V30 5871 C 550.301 0.875636 1.50362 0
M  V30 5872 O 551.477 1.18058 1.6317 0
M  V30 5873 C 548.542 2.29219 2.60115 0
M  V30 5874 C 547.603 3.52255 2.45387 0
M  V30 5875 C 546.836 3.8298 3.71701 0
M  V30 5876 O 547.059 3.15138 4.75441 0
M  V30 5877 O 545.993 4.76435 3.67823 0
M  V30 5878 H 549.819 2.88144 0.959527 0
M  V30 5879 H 547.404 1.43686 0.409217 0
M  V30 5880 H 549.286 2.51098 3.3842 0
M  V30 5881 H 547.961 1.4119 2.91285 0
M  V30 5882 H 546.868 3.35635 1.65227 0
M  V30 5883 H 548.201 4.40719 2.19152 0
M  V30 5884 N 549.853 -0.472356 1.50355 0
M  V30 5885 C 550.786 -1.58923 1.63764 0
M  V30 5886 C 551.764 -1.55173 0.485793 0
M  V30 5887 O 552.948 -1.74815 0.705132 0
M  V30 5888 C 550.075 -2.97497 1.61905 0
M  V30 5889 C 549.121 -3.19405 2.82635 0
M  V30 5890 S 549.954 -2.99441 4.43954 0
M  V30 5891 C 551.11 -4.40359 4.44786 0
M  V30 5892 H 551.343 -1.47309 2.58239 0
M  V30 5893 H 548.876 -0.659601 1.39602 0
M  V30 5894 H 550.834 -3.77389 1.61518 0
M  V30 5895 H 549.495 -3.06502 0.686683 0
M  V30 5896 H 548.688 -4.20636 2.77636 0
M  V30 5897 H 548.29 -2.47283 2.80583 0
M  V30 5898 H 550.582 -5.32969 4.1827 0
M  V30 5899 H 551.525 -4.50403 5.46391 0
M  V30 5900 H 551.933 -4.22378 3.74509 0
M  V30 5901 N 551.331 -1.39911 -0.725443 0
M  V30 5902 C 552.263 -1.35301 -1.85003 0
M  V30 5903 C 553.276 -0.260102 -1.60709 0
M  V30 5904 O 554.465 -0.519749 -1.70766 0
M  V30 5905 C 551.565 -1.08039 -3.21218 0
M  V30 5906 C 550.738 -2.28793 -3.7279 0
M  V30 5907 C 549.797 -1.97841 -4.87591 0
M  V30 5908 O 548.823 -2.70616 -5.00755 0
M  V30 5909 N 550.025 -0.950367 -5.72668 0
M  V30 5910 H 552.79 -2.32218 -1.89459 0
M  V30 5911 H 550.351 -1.34137 -0.90658 0
M  V30 5912 H 552.343 -0.853354 -3.95601 0
M  V30 5913 H 550.913 -0.198229 -3.11971 0
M  V30 5914 H 550.133 -2.67388 -2.8965 0
M  V30 5915 H 551.421 -3.09317 -4.03981 0
M  V30 5916 H 550.819 -0.347436 -5.64632 0
M  V30 5917 H 549.376 -0.783232 -6.47077 0
M  V30 5918 N 552.809 0.956637 -1.25245 0
M  V30 5919 C 554.057 1.69764 -1.09657 0
M  V30 5920 C 554.378 1.91583 0.363464 0
M  V30 5921 O 553.648 1.50149 1.25825 0
M  V30 5922 H 552.228 0.629097 -0.402798 0
M  V30 5923 H 554.89 1.15026 -1.57337 0
M  V30 5924 H 553.986 2.67769 -1.60331 0
M  V30 5925 N 554.287 1.06798 1.15896 0
M  V30 5926 C 555.703 0.792423 1.38538 0
M  V30 5927 C 555.903 -0.60592 1.92174 0
M  V30 5928 O 554.959 -1.36561 2.12385 0
M  V30 5929 C 556.272 1.86157 2.36149 0
M  V30 5930 C 557.82 1.88567 2.49823 0
M  V30 5931 C 558.295 2.9455 3.5072 0
M  V30 5932 N 559.786 2.93616 3.58251 0
M  V30 5933 C 560.521 3.72267 4.36125 0
M  V30 5934 N 560.017 4.60751 5.17379 0
M  V30 5935 N 561.81 3.60637 4.31158 0
M  V30 5936 H 553.961 1.96993 0.794198 0
M  V30 5937 H 556.224 0.853942 0.411688 0
M  V30 5938 H 555.93 2.86603 2.03843 0
M  V30 5939 H 555.804 1.71692 3.3586 0
M  V30 5940 H 558.191 0.887765 2.8143 0
M  V30 5941 H 558.272 2.0711 1.5013 0
M  V30 5942 H 557.916 3.94537 3.19849 0
M  V30 5943 H 557.846 2.73255 4.50155 0
M  V30 5944 H 560.337 2.29472 3.00252 0
M  V30 5945 H 560.65 5.17408 5.74028 0
M  V30 5946 H 558.995 4.64803 5.16704 0
M  V30 5947 H 562.186 2.90892 3.66742 0
M  V30 5948 H 562.359 4.22176 4.91601 0
M  V30 5949 N 555.766 -1.3263 0.851289 0
M  V30 5950 C 556.994 -2.01563 0.466899 0
M  V30 5951 C 557.409 -1.63996 -0.935447 0
M  V30 5952 O 556.766 -0.85957 -1.6099 0
M  V30 5953 C 556.817 -3.56613 0.592433 0
M  V30 5954 O 556.538 -3.92828 1.93954 0
M  V30 5955 C 558.039 -4.42818 0.206612 0
M  V30 5956 H 555.259 -0.645307 0.183902 0
M  V30 5957 H 557.803 -1.69285 1.1473 0
M  V30 5958 H 555.958 -3.87379 -0.0401936 0
M  V30 5959 H 556.372 -4.87545 1.9339 0
M  V30 5960 H 557.846 -5.50918 0.345462 0
M  V30 5961 H 558.323 -4.30844 -0.85264 0
M  V30 5962 H 558.929 -4.17434 0.814176 0
M  V30 5963 N 557.244 -0.608902 -1.45362 0
M  V30 5964 C 558.154 0.110969 -2.34337 0
M  V30 5965 C 559.17 0.859007 -1.51318 0
M  V30 5966 O 560.346 0.816296 -1.84116 0
M  V30 5967 C 557.411 1.09494 -3.28956 0
M  V30 5968 C 556.472 0.348718 -4.27881 0
M  V30 5969 C 555.705 1.28582 -5.17979 0
M  V30 5970 O 555.928 2.52369 -5.11533 0
M  V30 5971 O 554.862 0.782172 -5.96796 0
M  V30 5972 H 558.688 -0.620258 -2.97299 0
M  V30 5973 H 556.273 -0.36916 -1.44767 0
M  V30 5974 H 558.155 1.66163 -3.87257 0
M  V30 5975 H 556.83 1.80717 -2.68557 0
M  V30 5976 H 555.737 -0.260465 -3.73192 0
M  V30 5977 H 557.07 -0.323049 -4.91139 0
M  V30 5978 N 558.722 1.53707 -0.348139 0
M  V30 5979 C 559.632 2.28881 0.514857 0
M  V30 5980 C 560.648 1.34168 1.10793 0
M  V30 5981 O 561.824 1.6721 1.12262 0
M  V30 5982 C 558.889 3.05042 1.64774 0
M  V30 5983 C 557.95 4.15389 1.08398 0
M  V30 5984 C 557.183 4.87909 2.16287 0
M  V30 5985 O 557.406 4.60137 3.3709 0
M  V30 5986 O 556.34 5.74254 1.80323 0
M  V30 5987 H 560.166 3.03547 -0.0963699 0
M  V30 5988 H 557.751 1.48972 -0.113043 0
M  V30 5989 H 559.633 3.52656 2.30677 0
M  V30 5990 H 558.308 2.33228 2.24469 0
M  V30 5991 H 557.215 3.72068 0.389341 0
M  V30 5992 H 558.548 4.89318 0.531829 0
M  V30 5993 N 560.2 0.0768682 1.57412 0
M  V30 5994 C 561.147 -0.888577 2.13009 0
M  V30 5995 C 562.117 -1.29198 1.0439 0
M  V30 5996 O 563.302 -1.37694 1.3208 0
M  V30 5997 C 560.442 -2.14899 2.70023 0
M  V30 5998 C 559.555 -1.79777 3.92816 0
M  V30 5999 C 558.69 -3.00467 4.38056 0
M  V30 6000 C 557.729 -2.61385 5.53484 0
M  V30 6001 N 556.866 -3.74851 5.93659 0
M  V30 6002 H 561.706 -0.407593 2.95199 0
M  V30 6003 H 559.243 -0.189534 1.45874 0
M  V30 6004 H 561.201 -2.88688 3.0119 0
M  V30 6005 H 559.831 -2.60529 1.9059 0
M  V30 6006 H 558.883 -0.960301 3.68079 0
M  V30 6007 H 560.195 -1.47027 4.76639 0
M  V30 6008 H 559.349 -3.82529 4.7091 0
M  V30 6009 H 558.088 -3.36413 3.53097 0
M  V30 6010 H 557.093 -1.77746 5.20275 0
M  V30 6011 H 558.318 -2.26603 6.40178 0
M  V30 6012 H 556.264 -4.1055 5.11649 0
M  V30 6013 H 556.181 -3.45887 6.72234 0
M  V30 6014 H 557.449 -4.57477 6.31138 0
M  V30 6015 N 561.678 -1.56367 -0.196722 0
M  V30 6016 C 562.924 -1.80796 -0.918725 0
M  V30 6017 C 563.257 -0.650645 -1.82976 0
M  V30 6018 O 562.532 0.348889 -1.91345 0
M  V30 6019 C 562.815 -3.15472 -1.73636 0
M  V30 6020 C 562.668 -4.41693 -0.85015 0
M  V30 6021 C 563.987 -3.46824 -2.70927 0
M  V30 6022 H 561.106 -0.657702 -0.332561 0
M  V30 6023 H 563.748 -1.89086 -0.186186 0
M  V30 6024 H 561.898 -3.08536 -2.36088 0
M  V30 6025 H 563.57 -4.60673 -0.240459 0
M  V30 6026 H 561.813 -4.33517 -0.156785 0
M  V30 6027 H 562.484 -5.32419 -1.45719 0
M  V30 6028 H 564.96 -3.54049 -2.18607 0
M  V30 6029 H 563.836 -4.4218 -3.25219 0
M  V30 6030 H 564.097 -2.70236 -3.49893 0
M  V30 6031 N 563.156 0.464375 -1.50603 0
M  V30 6032 C 564.106 1.55929 -1.66343 0
M  V30 6033 C 565.09 1.52338 -0.517887 0
M  V30 6034 O 566.282 1.59248 -0.772601 0
M  V30 6035 C 563.411 2.94327 -1.7671 0
M  V30 6036 C 562.497 3.02777 -2.96962 0
M  V30 6037 N 562.888 2.81026 -4.20545 0
M  V30 6038 C 561.186 3.33919 -2.95659 0
M  V30 6039 C 561.887 2.94618 -5.01573 0
M  V30 6040 N 560.863 3.25112 -4.35664 0
M  V30 6041 H 564.665 1.37822 -2.59581 0
M  V30 6042 H 562.179 0.671227 -1.47879 0
M  V30 6043 H 564.176 3.73063 -1.86091 0
M  V30 6044 H 562.836 3.13476 -0.846353 0
M  V30 6045 H 563.847 2.56477 -4.49933 0
M  V30 6046 H 560.524 3.59013 -2.13111 0
M  V30 6047 H 561.914 2.81984 -6.09865 0
M  V30 6048 N 564.634 1.40294 0.718013 0
M  V30 6049 C 565.883 1.37746 1.4734 0
M  V30 6050 C 566.196 -0.0180754 1.95592 0
M  V30 6051 O 567.402 -0.166166 2.70991 0
M  V30 6052 C 565.858 2.4208 2.66318 0
M  V30 6053 C 565.466 3.87432 2.24945 0
M  V30 6054 C 567.21 2.48635 3.44065 0
M  V30 6055 C 565.117 4.83368 3.40748 0
M  V30 6056 H 564.047 0.512165 0.553356 0
M  V30 6057 H 566.698 1.66019 0.781661 0
M  V30 6058 H 565.08 2.06903 3.3765 0
M  V30 6059 H 566.254 4.3174 1.6105 0
M  V30 6060 H 564.569 3.8433 1.60249 0
M  V30 6061 H 567.166 3.17499 4.30231 0
M  V30 6062 H 567.509 1.51611 3.87711 0
M  V30 6063 H 568.042 2.82791 2.79775 0
M  V30 6064 H 564.781 5.81716 3.02136 0
M  V30 6065 H 564.301 4.43726 4.03568 0
M  V30 6066 H 565.98 5.03074 4.06848 0
M  V30 6067 N 566.112 -0.949982 1.2575 0
M  V30 6068 C 567.523 -1.50989 1.09815 0
M  V30 6069 C 567.874 -1.93497 -0.324556 0
M  V30 6070 O 566.999 -1.79068 -1.21506 0
M  V30 6071 C 567.594 -2.74394 1.98729 0
M  V30 6072 C 566.153 -3.26682 1.86965 0
M  V30 6073 C 565.3 -1.99498 1.92603 0
M  V30 6074 H 568.251 -0.766387 1.38968 0
M  V30 6075 H 568.272 -3.48383 1.53001 0
M  V30 6076 H 567.784 -2.43425 3.02268 0
M  V30 6077 H 565.885 -3.62461 0.863279 0
M  V30 6078 H 565.998 -3.94383 2.72027 0
M  V30 6079 H 564.362 -2.15005 1.36546 0
M  V30 6080 H 565.145 -1.70871 2.97755 0
M  V30 6081 N 567.59 -1.07411 -1.15328 0
M  V30 6082 C 568.537 -0.694995 -2.20087 0
M  V30 6083 C 569.507 0.313904 -1.63107 0
M  V30 6084 O 570.692 0.200216 -1.89747 0
M  V30 6085 C 567.832 -0.0996218 -3.44956 0
M  V30 6086 C 566.945 -1.16007 -4.16133 0
M  V30 6087 C 566.08 -0.529636 -5.28553 0
M  V30 6088 C 565.119 -1.57283 -5.91548 0
M  V30 6089 N 564.256 -0.964932 -6.95438 0
M  V30 6090 H 569.096 -1.5927 -2.51867 0
M  V30 6091 H 566.633 -0.796115 -1.23695 0
M  V30 6092 H 568.591 0.263197 -4.16369 0
M  V30 6093 H 567.221 0.761435 -3.13691 0
M  V30 6094 H 566.273 -1.64045 -3.4321 0
M  V30 6095 H 567.585 -1.95101 -4.59061 0
M  V30 6096 H 566.739 -0.114487 -6.06592 0
M  V30 6097 H 565.478 0.29307 -4.86819 0
M  V30 6098 H 564.483 -1.99775 -5.12221 0
M  V30 6099 H 565.708 -2.39783 -6.35359 0
M  V30 6100 H 563.654 -0.16314 -6.55797 0
M  V30 6101 H 563.571 -1.69311 -7.36797 0
M  V30 6102 H 564.839 -0.575305 -7.77374 0
M  V30 6103 N 569.068 1.32177 -0.85831 0
M  V30 6104 C 570.317 1.96392 -0.459689 0
M  V30 6105 C 570.63 1.68659 0.990632 0
M  V30 6106 O 571.836 2.26641 1.49485 0
M  V30 6107 C 570.292 3.51542 -0.7711 0
M  V30 6108 C 569.9 3.8813 -2.2374 0
M  V30 6109 C 571.644 4.2221 -0.44038 0
M  V30 6110 C 569.551 5.36341 -2.49183 0
M  V30 6111 H 568.481 0.735007 -0.168169 0
M  V30 6112 H 571.132 1.50518 -1.0496 0
M  V30 6113 H 569.514 3.95846 -0.11058 0
M  V30 6114 H 570.688 3.54824 -2.94001 0
M  V30 6115 H 569.003 3.30497 -2.533 0
M  V30 6116 H 571.6 5.31234 -0.607855 0
M  V30 6117 H 571.943 4.11683 0.618291 0
M  V30 6118 H 572.476 3.83502 -1.05695 0
M  V30 6119 H 569.215 5.51892 -3.53689 0
M  V30 6120 H 568.735 5.7104 -1.83504 0
M  V30 6121 H 570.414 6.03466 -2.33318 0
M  V30 6122 N 570.547 0.616602 1.45037 0
M  V30 6123 C 571.477 -0.0840787 2.33349 0
M  V30 6124 C 572.458 -0.849641 1.4736 0
M  V30 6125 O 573.643 -0.818407 1.76113 0
M  V30 6126 C 570.773 -1.07604 3.3021 0
M  V30 6127 C 569.727 -0.423096 4.25904 0
M  V30 6128 C 569.053 -1.52394 5.12523 0
M  V30 6129 C 570.353 0.661457 5.18095 0
M  V30 6130 H 572.047 0.653333 2.92185 0
M  V30 6131 H 569.593 0.315634 1.40498 0
M  V30 6132 H 571.546 -1.57485 3.90866 0
M  V30 6133 H 570.27 -1.84416 2.69552 0
M  V30 6134 H 568.929 0.05493 3.66559 0
M  V30 6135 H 568.577 -2.28257 4.48227 0
M  V30 6136 H 568.277 -1.09251 5.77354 0
M  V30 6137 H 569.801 -2.02485 5.76049 0
M  V30 6138 H 571.215 0.246353 5.7277 0
M  V30 6139 H 569.612 1.01517 5.91451 0
M  V30 6140 H 570.682 1.53446 4.59981 0
M  V30 6141 N 572.025 -1.5352 0.356285 0
M  V30 6142 C 573.436 -1.86282 -0.12492 0
M  V30 6143 C 573.787 -1.27717 -1.48939 0
M  V30 6144 O 572.912 -0.595614 -2.08042 0
M  V30 6145 C 573.507 -3.37995 -0.23345 0
M  V30 6146 C 572.066 -3.70588 -0.658899 0
M  V30 6147 C 571.213 -2.76581 0.199596 0
M  V30 6148 H 574.164 -1.47901 0.575423 0
M  V30 6149 H 574.185 -3.65475 -1.0587 0
M  V30 6150 H 573.697 -3.8059 0.759776 0
M  V30 6151 H 571.798 -3.33544 -1.66069 0
M  V30 6152 H 571.911 -4.77076 -0.439957 0
M  V30 6153 H 570.275 -2.52552 -0.330076 0
M  V30 6154 H 571.058 -3.22008 1.19019 0
M  V30 6155 N 573.503 -0.0852151 -1.57369 0
M  V30 6156 C 574.749 0.575588 -1.95086 0
M  V30 6157 C 575.104 1.66402 -0.96582 0
M  V30 6158 O 574.397 1.91598 0.00978463 0
M  V30 6159 C 574.591 1.18482 -3.3719 0
M  V30 6160 C 574.42 0.156928 -4.49426 0
M  V30 6161 C 573.19 -0.263126 -5.04614 0
M  V30 6162 C 575.388 -0.611068 -5.10657 0
M  V30 6163 N 573.37 -1.28032 -6.00401 0
M  V30 6164 C 574.741 -1.48036 -6.02068 0
M  V30 6165 C 576.796 -0.665669 -4.9343 0
M  V30 6166 C 575.499 -2.39943 -6.781 0
M  V30 6167 C 577.525 -1.5723 -5.70116 0
M  V30 6168 C 576.887 -2.42924 -6.61186 0
M  V30 6169 H 572.986 0.181249 -0.760705 0
M  V30 6170 H 575.57 -0.165484 -1.93995 0
M  V30 6171 H 573.741 1.89575 -3.38992 0
M  V30 6172 H 575.473 1.80718 -3.62109 0
M  V30 6173 H 572.228 0.122664 -4.73441 0
M  V30 6174 H 572.652 -1.78682 -6.52994 0
M  V30 6175 H 577.294 -0.0173214 -4.22796 0
M  V30 6176 H 575.012 -3.05807 -7.48002 0
M  V30 6177 H 578.598 -1.61956 -5.58804 0
M  V30 6178 H 577.478 -3.1194 -7.19488 0
M  V30 6179 N 574.981 1.5647 0.188427 0
M  V30 6180 C 575.931 1.91479 1.23774 0
M  V30 6181 C 576.915 0.78119 1.40664 0
M  V30 6182 O 578.107 1.04414 1.42922 0
M  V30 6183 C 575.236 2.26354 2.58106 0
M  V30 6184 C 574.322 3.46186 2.44981 0
M  V30 6185 N 574.713 4.63911 2.01546 0
M  V30 6186 C 573.011 3.50456 2.75856 0
M  V30 6187 C 573.712 5.46064 2.00472 0
M  V30 6188 N 572.688 4.86648 2.42229 0
M  V30 6189 H 576.49 2.79994 0.893339 0
M  V30 6190 H 574.004 1.57477 0.39682 0
M  V30 6191 H 576.001 2.49622 3.33908 0
M  V30 6192 H 574.661 1.39168 2.93364 0
M  V30 6193 H 575.672 4.88451 1.7215 0
M  V30 6194 H 572.349 2.73704 3.15265 0
M  V30 6195 H 573.739 6.50368 1.68734 0
M  V30 6196 N 576.459 -0.456382 1.50847 0
M  V30 6197 C 577.422 -1.53493 1.70213 0
M  V30 6198 C 578.422 -1.50264 0.572481 0
M  V30 6199 O 579.612 -1.52623 0.839751 0
M  V30 6200 C 576.744 -2.93091 1.741 0
M  V30 6201 H 577.937 -1.37633 2.66453 0
M  V30 6202 H 575.49 -0.683776 1.4055 0
M  V30 6203 H 576.225 -3.14378 0.796063 0
M  V30 6204 H 576.01 -2.9684 2.5618 0
M  V30 6205 H 577.5 -3.71368 1.90987 0
M  V30 6206 N 577.937 -1.40673 -0.710563 0
M  V30 6207 C 579.185 -1.38947 -1.46759 0
M  V30 6208 C 579.506 0.00572879 -1.94999 0
M  V30 6209 O 578.776 0.961358 -1.70689 0
M  V30 6210 H 577.356 -0.5114 -0.544499 0
M  V30 6211 H 580.018 -1.75773 -0.842012 0
M  V30 6212 H 579.114 -2.06745 -2.33801 0
M  V30 6213 N 579.415 0.9433 -1.26252 0
M  V30 6214 C 580.643 1.72367 -1.14443 0
M  V30 6215 C 581.058 1.86392 0.300572 0
M  V30 6216 O 580.415 1.36978 1.20596 0
M  V30 6217 C 580.466 3.13155 -1.806 0
M  V30 6218 O 580.187 2.99803 -3.19452 0
M  V30 6219 C 581.688 4.07417 -1.74717 0
M  V30 6220 H 578.908 0.539758 -0.398626 0
M  V30 6221 H 581.452 1.18268 -1.66832 0
M  V30 6222 H 579.607 3.64162 -1.32154 0
M  V30 6223 H 580.021 3.88697 -3.52158 0
M  V30 6224 H 581.495 5.03773 -2.25647 0
M  V30 6225 H 581.972 4.3337 -0.713244 0
M  V30 6226 H 582.578 3.6233 -2.22704 0
M  V30 6227 N 580.893 1.08022 1.14757 0
M  V30 6228 C 582.123 0.827646 1.89298 0
M  V30 6229 C 582.531 -0.623506 1.78631 0
M  V30 6230 O 581.874 -1.43991 1.14071 0
M  V30 6231 C 581.936 1.16553 3.40082 0
M  V30 6232 C 581.6 2.61866 3.74533 0
M  V30 6233 C 582.597 3.60116 3.74984 0
M  V30 6234 C 580.282 2.97619 4.04633 0
M  V30 6235 C 582.276 4.92151 4.05051 0
M  V30 6236 C 579.963 4.2985 4.34364 0
M  V30 6237 C 580.961 5.26926 4.34555 0
M  V30 6238 O 580.649 6.5678 4.63568 0
M  V30 6239 H 580.381 0.298396 0.606577 0
M  V30 6240 H 582.935 1.44187 1.46285 0
M  V30 6241 H 581.165 0.494296 3.83528 0
M  V30 6242 H 582.854 0.894407 3.95923 0
M  V30 6243 H 583.62 3.33837 3.51821 0
M  V30 6244 H 579.499 2.22702 4.03639 0
M  V30 6245 H 583.043 5.67915 4.05115 0
M  V30 6246 H 578.94 4.55879 4.56995 0
M  V30 6247 H 579.708 6.62035 4.81303 0
M  V30 6248 N 582.371 -1.3172 0.865308 0
M  V30 6249 C 583.596 -2.01591 0.487415 0
M  V30 6250 C 584.021 -1.6455 -0.911307 0
M  V30 6251 O 583.379 -0.851689 -1.6005 0
M  V30 6252 C 583.427 -3.54759 0.646401 0
M  V30 6253 O 582.531 -4.11185 -0.316284 0
M  V30 6254 H 581.872 -0.634884 0.194468 0
M  V30 6255 H 584.402 -1.68024 1.16744 0
M  V30 6256 H 584.412 -4.04438 0.537932 0
M  V30 6257 H 583.087 -3.8106 1.66632 0
M  V30 6258 H 581.664 -3.72543 -0.163162 0
M  V30 6259 N 583.85 -0.624285 -1.44708 0
M  V30 6260 C 585.09 -0.129273 -2.03991 0
M  V30 6261 C 585.454 1.22321 -1.47992 0
M  V30 6262 O 586.654 1.80993 -1.98734 0
M  V30 6263 C 584.926 -0.108231 -3.57236 0
M  V30 6264 S 586.485 0.323158 -4.37608 0
M  V30 6265 H 583.303 -0.0577318 -0.708652 0
M  V30 6266 H 585.904 -0.826139 -1.77187 0
M  V30 6267 H 584.609 -1.0958 -3.955 0
M  V30 6268 H 584.139 0.610101 -3.8864 0
M  V30 6269 H 586.154 1.56894 -4.70743 0
M  V30 6270 N 585.328 1.53329 -0.364422 0
M  V30 6271 C 586.574 2.01537 0.225969 0
M  V30 6272 C 586.907 1.25128 1.48515 0
M  V30 6273 O 586.182 0.344653 1.91422 0
M  V30 6274 C 586.465 3.56339 0.519092 0
M  V30 6275 C 586.318 4.43441 -0.753639 0
M  V30 6276 C 587.637 4.19833 1.32015 0
M  V30 6277 H 584.756 0.732573 0.0806548 0
M  V30 6278 H 587.398 1.83597 -0.489084 0
M  V30 6279 H 585.548 3.71756 1.12825 0
M  V30 6280 H 587.22 4.39823 -1.39116 0
M  V30 6281 H 585.463 4.11457 -1.37424 0
M  V30 6282 H 586.134 5.49699 -0.503517 0
M  V30 6283 H 588.61 4.08242 0.804859 0
M  V30 6284 H 587.486 5.28177 1.49399 0
M  V30 6285 H 587.747 3.75821 2.32832 0
M  V30 6286 N 586.806 0.0935595 1.57322 0
M  V30 6287 C 587.769 -0.851426 2.12799 0
M  V30 6288 C 588.769 -1.21187 1.0569 0
M  V30 6289 O 589.959 -1.14156 1.31583 0
M  V30 6290 C 587.091 -2.14779 2.64731 0
M  V30 6291 H 588.284 -0.369733 2.97612 0
M  V30 6292 H 585.837 -0.155417 1.55525 0
M  V30 6293 H 586.572 -2.67437 1.83434 0
M  V30 6294 H 586.357 -1.89907 3.43042 0
M  V30 6295 H 587.847 -2.82383 3.07651 0
M  V30 6296 N 588.284 -1.56567 -0.180126 0
M  V30 6297 C 589.194 -1.98947 -1.24327 0
M  V30 6298 C 590.21 -0.899446 -1.4895 0
M  V30 6299 O 591.386 -1.20639 -1.61271 0
M  V30 6300 C 588.451 -2.33328 -2.56435 0
M  V30 6301 C 587.512 -3.56114 -2.39752 0
M  V30 6302 C 586.745 -3.88845 -3.65561 0
M  V30 6303 O 586.968 -3.22662 -4.70368 0
M  V30 6304 O 585.902 -4.82226 -3.60197 0
M  V30 6305 H 589.728 -2.89634 -0.913565 0
M  V30 6306 H 587.313 -1.44319 -0.386306 0
M  V30 6307 H 589.195 -2.5645 -3.34382 0
M  V30 6308 H 587.87 -1.45806 -2.89002 0
M  V30 6309 H 586.777 -3.38221 -1.59866 0
M  V30 6310 H 588.11 -4.4415 -2.12113 0
M  V30 6311 N 589.762 0.448376 -1.51087 0
M  V30 6312 C 590.71 1.56407 -1.72161 0
M  V30 6313 C 591.704 1.58878 -0.587721 0
M  V30 6314 O 592.91 1.62755 -0.768822 0
M  V30 6315 H 589.285 0.519423 -0.543786 0
M  V30 6316 H 591.256 1.35803 -2.65707 0
M  V30 6317 C 590.005 2.94163 -1.85373 0
M  V30 6318 H 589.328 2.9299 -2.72024 0
M  V30 6319 H 590.768 3.71625 -2.04135 0
M  V30 6320 C 589.227 3.31317 -0.610803 0
M  V30 6321 O 589.757 4.00985 0.239636 0
M  V30 6322 N 587.963 2.86966 -0.458127 0
M  V30 6323 H 587.51 2.30443 -1.15124 0
M  V30 6324 H 587.468 3.12188 0.372289 0
M  V30 6325 N 591.24 1.41047 0.703093 0
M  V30 6326 C 592.489 1.39301 1.4587 0
M  V30 6327 C 592.802 0.00267077 1.956 0
M  V30 6328 O 594.008 -0.137414 2.71152 0
M  V30 6329 C 592.464 2.44891 2.63735 0
M  V30 6330 C 592.072 3.89796 2.20824 0
M  V30 6331 C 593.816 2.5227 3.41409 0
M  V30 6332 C 591.723 4.86955 3.35602 0
M  V30 6333 H 590.653 0.518005 0.547893 0
M  V30 6334 H 593.304 1.66839 0.764009 0
M  V30 6335 H 591.686 2.10472 3.35436 0
M  V30 6336 H 592.86 4.33424 1.56461 0
M  V30 6337 H 591.175 3.86008 1.56163 0
M  V30 6338 H 593.772 3.22044 4.26839 0
M  V30 6339 H 594.115 1.55714 3.86081 0
M  V30 6340 H 594.648 2.85742 2.7676 0
M  V30 6341 H 591.387 5.84888 2.9595 0
M  V30 6342 H 590.907 4.47982 3.98839 0
M  V30 6343 H 592.586 5.07361 4.01489 0
M  V30 6344 N 592.718 -0.936591 1.26751 0
M  V30 6345 C 593.648 -2.05315 1.11212 0
M  V30 6346 C 594.629 -1.70092 0.0160262 0
M  V30 6347 O 595.814 -1.93279 0.188894 0
M  V30 6348 C 592.944 -3.39123 0.749171 0
M  V30 6349 C 591.898 -3.88425 1.79751 0
M  V30 6350 C 591.224 -5.18936 1.28876 0
M  V30 6351 C 592.524 -4.12798 3.19992 0
M  V30 6352 H 594.218 -2.18573 2.04613 0
M  V30 6353 H 591.764 -1.05027 0.985159 0
M  V30 6354 H 593.717 -4.16704 0.627323 0
M  V30 6355 H 592.441 -3.25855 -0.220543 0
M  V30 6356 H 591.1 -3.13028 1.90811 0
M  V30 6357 H 590.748 -5.02051 0.308757 0
M  V30 6358 H 590.448 -5.52892 1.98958 0
M  V30 6359 H 591.972 -5.99096 1.17967 0
M  V30 6360 H 593.386 -4.80977 3.11983 0
M  V30 6361 H 591.783 -4.58044 3.87705 0
M  V30 6362 H 592.853 -3.18412 3.65707 0
M  V30 6363 N 594.196 -1.08629 -1.14182 0
M  V30 6364 C 595.444 -0.815731 -1.84906 0
M  V30 6365 C 595.765 0.660441 -1.83475 0
M  V30 6366 O 595.035 1.47888 -1.28476 0
M  V30 6367 H 593.615 -0.298773 -0.684648 0
M  V30 6368 H 596.277 -1.37274 -1.38354 0
M  V30 6369 H 595.373 -1.16193 -2.89665 0
M  V30 6370 N 595.674 1.31259 -0.872281 0
M  V30 6371 C 596.902 2.00795 -0.498907 0
M  V30 6372 C 597.317 1.65464 0.909238 0
M  V30 6373 O 596.674 0.885073 1.59602 0
M  V30 6374 C 596.725 3.55625 -0.649092 0
M  V30 6375 O 596.446 3.89692 -2.00179 0
M  V30 6376 C 597.947 4.42434 -0.277034 0
M  V30 6377 H 595.167 0.642299 -0.194145 0
M  V30 6378 H 597.711 1.67438 -1.17408 0
M  V30 6379 H 595.866 3.87394 -0.0214402 0
M  V30 6380 H 596.28 4.84407 -2.01122 0
M  V30 6381 H 597.754 5.50299 -0.433064 0
M  V30 6382 H 598.231 4.32146 0.783989 0
M  V30 6383 H 598.837 4.16086 -0.880483 0
M  V30 6384 N 597.152 0.631951 1.44375 0
M  V30 6385 C 598.4 0.136497 2.01639 0
M  V30 6386 C 598.721 -1.24637 1.49969 0
M  V30 6387 O 597.991 -1.82827 0.70363 0
M  V30 6388 H 596.571 0.0474703 0.74549 0
M  V30 6389 H 599.233 0.818837 1.76865 0
M  V30 6390 H 598.329 0.104817 3.11924 0
M  V30 6391 N 598.631 -1.53133 0.372548 0
M  V30 6392 C 599.563 -2.23557 -0.505444 0
M  V30 6393 C 600.576 -1.25211 -1.04049 0
M  V30 6394 O 601.765 -1.51391 -0.945675 0
M  V30 6395 C 598.865 -2.92516 -1.71136 0
M  V30 6396 C 598.038 -4.17428 -1.30661 0
M  V30 6397 C 597.097 -4.69535 -2.37536 0
M  V30 6398 O 596.123 -5.33042 -1.99637 0
M  V30 6399 N 597.325 -4.47947 -3.6922 0
M  V30 6400 H 600.09 -2.9954 0.0978259 0
M  V30 6401 H 597.651 -1.60684 0.198068 0
M  V30 6402 H 599.643 -3.24281 -2.42124 0
M  V30 6403 H 598.213 -2.19944 -2.22134 0
M  V30 6404 H 597.433 -3.91888 -0.426292 0
M  V30 6405 H 598.721 -4.98622 -1.01259 0
M  V30 6406 H 598.119 -3.97219 -4.02783 0
M  V30 6407 H 596.676 -4.84245 -4.36292 0
M  V30 6408 N 600.109 -0.101901 -1.5727 0
M  V30 6409 C 601.525 0.254739 -1.57554 0
M  V30 6410 C 601.725 1.67937 -1.11352 0
M  V30 6411 O 600.781 2.39722 -0.793081 0
M  V30 6412 C 602.094 0.036975 -3.00677 0
M  V30 6413 C 603.642 0.104199 -3.12827 0
M  V30 6414 C 604.117 -0.0856565 -4.5792 0
M  V30 6415 N 605.608 -0.0310498 -4.6319 0
M  V30 6416 C 606.343 -0.153099 -5.73196 0
M  V30 6417 N 605.839 -0.330364 -6.92012 0
M  V30 6418 N 607.632 -0.0938854 -5.62022 0
M  V30 6419 H 599.783 -1.03263 -1.85609 0
M  V30 6420 H 602.046 -0.405251 -0.857016 0
M  V30 6421 H 601.752 -0.947254 -3.38703 0
M  V30 6422 H 601.626 0.776335 -3.69124 0
M  V30 6423 H 604.013 1.07894 -2.74669 0
M  V30 6424 H 604.094 -0.666762 -2.46957 0
M  V30 6425 H 603.738 -1.05729 -4.96773 0
M  V30 6426 H 603.668 0.705082 -5.21858 0
M  V30 6427 H 606.159 0.103141 -3.77759 0
M  V30 6428 H 606.472 -0.41482 -7.71686 0
M  V30 6429 H 604.817 -0.366119 -6.94035 0
M  V30 6430 H 608.008 0.0435168 -4.6808 0
M  V30 6431 H 608.181 -0.19245 -6.47714 0
M  V30 6432 N 601.587 1.56661 0.17182 0
M  V30 6433 C 602.835 1.81606 0.886774 0
M  V30 6434 C 603.156 0.678818 1.82803 0
M  V30 6435 O 602.426 -0.301354 1.93568 0
M  V30 6436 H 601.006 0.669934 0.330451 0
M  V30 6437 H 603.668 1.94142 0.171757 0
M  V30 6438 H 602.764 2.75634 1.46398 0
M  V30 6439 N 603.065 -0.440357 1.51323 0
M  V30 6440 C 604.476 -1.02032 1.56353 0
M  V30 6441 C 604.827 -1.92382 0.385197 0
M  V30 6442 O 603.952 -2.10583 -0.498373 0
M  V30 6443 C 604.547 -1.85723 2.83359 0
M  V30 6444 C 603.106 -2.38774 2.90971 0
M  V30 6445 C 602.253 -1.17908 2.50984 0
M  V30 6446 H 605.204 -0.221744 1.57143 0
M  V30 6447 H 605.225 -2.71141 2.66951 0
M  V30 6448 H 604.737 -1.19939 3.69102 0
M  V30 6449 H 602.838 -3.08021 2.09651 0
M  V30 6450 H 602.951 -2.71778 3.94555 0
M  V30 6451 H 601.315 -1.52347 2.04114 0
M  V30 6452 H 602.098 -0.537393 3.39068 0
M  V30 6453 N 604.543 -1.41418 -0.695603 0
M  V30 6454 C 605.791 -1.40496 -1.45277 0
M  V30 6455 C 606.112 -0.0149538 -1.94994 0
M  V30 6456 O 605.382 0.9432 -1.71699 0
M  V30 6457 H 603.962 -0.517147 -0.539044 0
M  V30 6458 H 606.624 -1.76656 -0.823321 0
M  V30 6459 H 605.72 -2.09214 -2.31595 0
M  V30 6460 N 606.021 0.929856 -1.27246 0
M  V30 6461 C 606.984 2.01172 -1.09829 0
M  V30 6462 C 607.984 1.60743 -0.0429687 0
M  V30 6463 O 609.174 1.71813 -0.287373 0
M  V30 6464 C 606.306 3.34191 -0.673003 0
M  V30 6465 H 607.499 2.18054 -2.05895 0
M  V30 6466 H 605.052 1.11036 -1.10003 0
M  V30 6467 H 605.787 3.23009 0.289134 0
M  V30 6468 H 605.572 3.64892 -1.43515 0
M  V30 6469 H 607.062 4.13646 -0.573323 0
M  V30 6470 N 607.499 1.09233 1.13605 0
M  V30 6471 C 608.409 0.741939 2.22559 0
M  V30 6472 C 609.425 -0.255236 1.72118 0
M  V30 6473 O 610.601 -0.0970747 2.01166 0
M  V30 6474 C 607.666 0.165595 3.46304 0
M  V30 6475 C 606.727 1.21846 4.11645 0
M  V30 6476 C 605.96 0.669526 5.29484 0
M  V30 6477 O 606.183 -0.508228 5.68131 0
M  V30 6478 O 605.117 1.42361 5.84822 0
M  V30 6479 H 608.943 1.65107 2.54899 0
M  V30 6480 H 606.528 0.866584 1.21699 0
M  V30 6481 H 608.41 -0.152592 4.21124 0
M  V30 6482 H 607.085 -0.716573 3.15669 0
M  V30 6483 H 605.992 1.58931 3.38662 0
M  V30 6484 H 607.325 2.07321 4.46407 0
M  V30 6485 N 608.977 -1.30795 0.87923 0
M  V30 6486 C 609.907 -2.30742 0.357796 0
M  V30 6487 C 610.888 -1.60747 -0.556283 0
M  V30 6488 O 612.073 -1.88393 -0.47135 0
M  V30 6489 C 609.203 -3.44583 -0.433555 0
M  V30 6490 C 608.157 -4.26235 0.388251 0
M  V30 6491 C 607.483 -5.32073 -0.529352 0
M  V30 6492 C 608.783 -4.96303 1.62729 0
M  V30 6493 H 610.477 -2.74605 1.19299 0
M  V30 6494 H 608.023 -1.32017 0.575104 0
M  V30 6495 H 609.976 -4.13563 -0.808934 0
M  V30 6496 H 608.7 -2.99511 -1.30234 0
M  V30 6497 H 607.359 -3.58936 0.745695 0
M  V30 6498 H 607.007 -4.83249 -1.39569 0
M  V30 6499 H 606.707 -5.87598 0.0166741 0
M  V30 6500 H 608.231 -6.0391 -0.901373 0
M  V30 6501 H 609.645 -5.5783 1.32283 0
M  V30 6502 H 608.042 -5.61666 2.11309 0
M  V30 6503 H 609.112 -4.22758 2.37494 0
M  V30 6504 N 610.455 -0.639598 -1.44038 0
M  V30 6505 C 611.732 -0.078012 -1.95444 0
M  V30 6506 C 612.112 1.39847 -1.58133 0
M  V30 6507 O 611.46 2.11714 -0.859614 0
M  V30 6508 C 611.67 -0.309832 -3.47622 0
M  V30 6509 C 613.018 -0.207521 -4.24093 0
M  V30 6510 O 614.042 -0.241653 -3.55379 0
M  V30 6511 O 612.901 -0.119641 -5.46369 0
M  V30 6512 H 609.995 0.0174534 -0.826816 0
M  V30 6513 H 612.541 -0.711891 -1.54046 0
M  V30 6514 H 611.313 -1.33401 -3.67858 0
M  V30 6515 H 610.936 0.357777 -3.95987 0
M  V30 6516 N 611.933 1.52934 -0.380664 0
M  V30 6517 C 613.179 2.01765 0.20458 0
M  V30 6518 C 613.512 1.26696 1.47179 0
M  V30 6519 O 612.787 0.364936 1.91046 0
M  V30 6520 C 613.07 3.56869 0.481269 0
M  V30 6521 C 612.923 4.42617 -0.800629 0
M  V30 6522 C 614.242 4.2121 1.27554 0
M  V30 6523 H 611.361 0.733388 0.0728803 0
M  V30 6524 H 614.003 1.83068 -0.50853 0
M  V30 6525 H 612.153 3.72932 1.08875 0
M  V30 6526 H 613.825 4.38323 -1.43773 0
M  V30 6527 H 612.068 4.09977 -1.4178 0
M  V30 6528 H 612.739 5.49134 -0.561791 0
M  V30 6529 H 615.215 4.09072 0.761514 0
M  V30 6530 H 614.091 5.29732 1.43788 0
M  V30 6531 H 614.352 3.78269 2.28833 0
M  V30 6532 N 613.412 0.11024 1.57214 0
M  V30 6533 C 614.344 -0.873497 2.11902 0
M  V30 6534 C 615.357 -1.23588 1.05971 0
M  V30 6535 O 616.546 -1.18636 1.33371 0
M  V30 6536 C 613.646 -2.17805 2.59643 0
M  V30 6537 C 612.819 -1.98869 3.89576 0
M  V30 6538 C 611.878 -3.12974 4.23006 0
M  V30 6539 O 610.904 -2.86272 4.91973 0
M  V30 6540 N 612.106 -4.39167 3.79622 0
M  V30 6541 H 614.871 -0.406317 2.96933 0
M  V30 6542 H 612.432 -0.074437 1.61729 0
M  V30 6543 H 614.424 -2.93117 2.79042 0
M  V30 6544 H 612.994 -2.55899 1.7954 0
M  V30 6545 H 612.214 -1.078 3.79174 0
M  V30 6546 H 613.502 -1.83512 4.74553 0
M  V30 6547 H 612.9 -4.63739 3.2398 0
M  V30 6548 H 611.457 -5.11379 4.04147 0
M  V30 6549 N 614.89 -1.56749 -0.16351 0
M  V30 6550 C 616.12 -1.86307 -0.892936 0
M  V30 6551 C 616.528 -0.6945 -1.75992 0
M  V30 6552 O 615.871 0.345384 -1.80424 0
M  V30 6553 C 615.933 -3.10372 -1.81409 0
M  V30 6554 C 615.597 -4.42913 -1.12593 0
M  V30 6555 C 616.594 -5.17608 -0.487661 0
M  V30 6556 C 614.279 -4.89646 -1.12035 0
M  V30 6557 C 616.273 -6.3723 0.14699 0
M  V30 6558 C 613.96 -6.09197 -0.481883 0
M  V30 6559 C 614.958 -6.82834 0.150678 0
M  V30 6560 O 614.646 -8.00116 0.779065 0
M  V30 6561 H 614.378 -0.622126 -0.264452 0
M  V30 6562 H 616.932 -2.04728 -0.166063 0
M  V30 6563 H 615.162 -2.87917 -2.58148 0
M  V30 6564 H 616.851 -3.26312 -2.41403 0
M  V30 6565 H 617.617 -4.8258 -0.483888 0
M  V30 6566 H 613.496 -4.32265 -1.60212 0
M  V30 6567 H 617.04 -6.94646 0.641325 0
M  V30 6568 H 612.937 -6.43688 -0.483266 0
M  V30 6569 H 613.705 -8.15678 0.679089 0
M  V30 6570 N 616.368 0.432326 -1.51554 0
M  V30 6571 C 617.779 1.01202 -1.56892 0
M  V30 6572 C 618.13 1.92175 -0.395394 0
M  V30 6573 O 617.255 2.10844 0.487198 0
M  V30 6574 C 617.85 1.84217 -2.8434 0
M  V30 6575 C 616.409 2.37228 -2.92233 0
M  V30 6576 C 615.556 1.16576 -2.51606 0
M  V30 6577 H 618.507 0.213407 -1.57259 0
M  V30 6578 H 618.528 2.69721 -2.68385 0
M  V30 6579 H 618.04 1.17979 -3.69733 0
M  V30 6580 H 616.141 3.06905 -2.11282 0
M  V30 6581 H 616.254 2.69682 -3.95991 0
M  V30 6582 H 614.618 1.51263 -2.04919 0
M  V30 6583 H 615.401 0.519404 -3.39348 0
M  V30 6584 N 617.846 1.41785 0.688094 0
M  V30 6585 C 619.257 1.3701 1.26828 0
M  V30 6586 C 619.608 0.056835 1.96118 0
M  V30 6587 O 618.733 -0.84475 1.99231 0
M  V30 6588 C 619.328 2.48168 2.30648 0
M  V30 6589 C 617.887 2.46766 2.84224 0
M  V30 6590 C 617.034 2.27633 1.58361 0
M  V30 6591 H 619.985 1.51192 0.482351 0
M  V30 6592 H 620.006 2.17655 3.121 0
M  V30 6593 H 619.518 3.43735 1.80188 0
M  V30 6594 H 617.619 1.54978 3.3884 0
M  V30 6595 H 617.732 3.43342 3.34145 0
M  V30 6596 H 616.096 1.75648 1.84445 0
M  V30 6597 H 616.879 3.25238 1.09887 0
M  V30 6598 N 619.324 -0.923095 1.27737 0
M  V30 6599 C 620.271 -2.02432 1.1086 0
M  V30 6600 C 621.241 -1.66098 0.00835195 0
M  V30 6601 O 622.426 -1.90027 0.171542 0
M  V30 6602 C 619.566 -3.36476 0.766671 0
M  V30 6603 C 618.679 -3.85737 1.94501 0
M  V30 6604 C 617.814 -5.08249 1.54455 0
M  V30 6605 C 616.853 -5.49818 2.6901 0
M  V30 6606 N 615.99 -6.63524 2.29521 0
M  V30 6607 H 620.83 -2.16201 2.05089 0
M  V30 6608 H 618.367 -1.05909 1.02087 0
M  V30 6609 H 620.325 -4.13569 0.549223 0
M  V30 6610 H 618.955 -3.22502 -0.13867 0
M  V30 6611 H 618.007 -3.04883 2.27487 0
M  V30 6612 H 619.319 -4.12513 2.80419 0
M  V30 6613 H 618.473 -5.92857 1.28862 0
M  V30 6614 H 617.212 -4.83261 0.656534 0
M  V30 6615 H 616.217 -4.63757 2.95313 0
M  V30 6616 H 617.442 -5.76799 3.5844 0
M  V30 6617 H 615.388 -6.40185 1.43177 0
M  V30 6618 H 615.305 -6.89978 3.08977 0
M  V30 6619 H 616.573 -7.51461 2.07187 0
M  V30 6620 N 620.802 -1.09834 -1.13024 0
M  V30 6621 C 621.749 -0.741522 -2.18564 0
M  V30 6622 C 622.719 0.279236 -1.63736 0
M  V30 6623 O 623.904 0.159923 -1.90129 0
M  V30 6624 C 621.044 -0.17277 -3.44667 0
M  V30 6625 C 620.157 -1.24808 -4.13578 0
M  V30 6626 C 619.292 -0.641631 -5.27311 0
M  V30 6627 C 618.331 -1.69795 -5.88078 0
M  V30 6628 N 617.468 -1.11223 -6.93234 0
M  V30 6629 H 622.308 -1.64576 -2.48432 0
M  V30 6630 H 619.845 -0.822174 -1.21978 0
M  V30 6631 H 621.803 0.17482 -4.16834 0
M  V30 6632 H 620.433 0.694725 -3.15235 0
M  V30 6633 H 619.485 -1.71288 -3.39653 0
M  V30 6634 H 620.797 -2.04795 -4.54819 0
M  V30 6635 H 619.951 -0.243128 -6.06213 0
M  V30 6636 H 618.69 0.189742 -4.87331 0
M  V30 6637 H 617.695 -2.10595 -5.07868 0
M  V30 6638 H 618.92 -2.53206 -6.3013 0
M  V30 6639 H 616.866 -0.302208 -6.55304 0
M  V30 6640 H 616.783 -1.84901 -7.3304 0
M  V30 6641 H 618.051 -0.740068 -7.75979 0
M  V30 6642 N 622.28 1.30327 -0.886154 0
M  V30 6643 C 623.526 1.96388 -0.505941 0
M  V30 6644 C 623.859 1.69784 0.942712 0
M  V30 6645 O 623.134 1.00322 1.6663 0
M  V30 6646 C 623.417 3.51488 -0.782826 0
M  V30 6647 C 623.27 3.87603 -2.28219 0
M  V30 6648 C 624.589 4.39331 -0.260128 0
M  V30 6649 H 621.708 0.713327 -0.185292 0
M  V30 6650 H 624.35 1.54178 -1.11036 0
M  V30 6651 H 622.5 3.87572 -0.268399 0
M  V30 6652 H 624.172 3.61537 -2.86512 0
M  V30 6653 H 622.415 3.3563 -2.74837 0
M  V30 6654 H 623.086 4.95806 -2.42653 0
M  V30 6655 H 625.562 4.10162 -0.700444 0
M  V30 6656 H 624.438 5.46769 -0.483179 0
M  V30 6657 H 624.699 4.34072 0.838674 0
M  V30 6658 N 623.758 0.647228 1.43697 0
M  V30 6659 C 624.986 0.16575 2.06235 0
M  V30 6660 C 625.401 -1.1662 1.48476 0
M  V30 6661 O 624.758 -1.7187 0.613762 0
M  V30 6662 C 624.809 0.0621651 3.61447 0
M  V30 6663 O 624.53 1.34146 4.17057 0
M  V30 6664 C 626.031 -0.446102 4.4105 0
M  V30 6665 H 623.251 0.0871158 0.665321 0
M  V30 6666 H 625.795 0.886183 1.84301 0
M  V30 6667 H 623.95 -0.608794 3.82587 0
M  V30 6668 H 624.364 1.19675 5.10664 0
M  V30 6669 H 625.838 -0.46755 5.50016 0
M  V30 6670 H 626.315 -1.47627 4.13646 0
M  V30 6671 H 626.921 0.192159 4.24866 0
M  V30 6672 N 625.236 -1.5273 0.388769 0
M  V30 6673 C 626.464 -2.05992 -0.193677 0
M  V30 6674 C 626.879 -1.26053 -1.40557 0
M  V30 6675 O 626.236 -0.307049 -1.79898 0
M  V30 6676 C 626.287 -3.57068 -0.564321 0
M  V30 6677 O 626.008 -4.3398 0.599422 0
M  V30 6678 C 627.509 -4.26674 -1.20269 0
M  V30 6679 H 624.729 -0.670358 -0.0293445 0
M  V30 6680 H 627.273 -1.96857 0.553844 0
M  V30 6681 H 625.428 -3.66277 -1.26174 0
M  V30 6682 H 625.842 -5.2367 0.294895 0
M  V30 6683 H 627.316 -5.33625 -1.4124 0
M  V30 6684 H 627.793 -3.81854 -2.16989 0
M  V30 6685 H 628.399 -4.2178 -0.546047 0
M  V30 6686 N 626.714 -0.118576 -1.57153 0
M  V30 6687 C 627.96 0.540326 -1.95469 0
M  V30 6688 C 628.293 1.66356 -1.00196 0
M  V30 6689 O 627.568 1.94461 -0.039104 0
M  V30 6690 C 627.851 1.07342 -3.43729 0
M  V30 6691 C 627.704 -0.0463732 -4.49776 0
M  V30 6692 C 629.023 1.96442 -3.93826 0
M  V30 6693 H 626.142 0.19494 -0.710751 0
M  V30 6694 H 628.784 -0.19405 -1.89006 0
M  V30 6695 H 626.934 1.69925 -3.49368 0
M  V30 6696 H 628.606 -0.681648 -4.56236 0
M  V30 6697 H 626.849 -0.709574 -4.27957 0
M  V30 6698 H 627.52 0.367856 -5.50773 0
M  V30 6699 H 629.996 1.43731 -3.90488 0
M  V30 6700 H 628.872 2.3066 -4.98084 0
M  V30 6701 H 629.133 2.89077 -3.34495 0
M  V30 6702 N 628.193 1.56834 0.155195 0
M  V30 6703 C 629.442 1.82088 0.867567 0
M  V30 6704 C 629.755 0.69849 1.82703 0
M  V30 6705 O 630.961 0.836407 2.58295 0
M  V30 6706 C 629.417 3.22707 1.59336 0
M  V30 6707 C 629.025 4.42859 0.676719 0
M  V30 6708 C 630.769 3.57242 2.293 0
M  V30 6709 C 628.676 5.74501 1.40367 0
M  V30 6710 H 627.606 0.679057 0.327715 0
M  V30 6711 H 630.257 1.83105 0.120351 0
M  V30 6712 H 628.639 3.16054 2.38591 0
M  V30 6713 H 629.813 4.60731 -0.0800196 0
M  V30 6714 H 628.128 4.16311 0.0859129 0
M  V30 6715 H 630.725 4.52847 2.84312 0
M  V30 6716 H 631.068 2.82901 3.05406 0
M  V30 6717 H 631.601 3.6552 1.56972 0
M  V30 6718 H 628.34 6.51915 0.684623 0
M  V30 6719 H 627.86 5.60579 2.13332 0
M  V30 6720 H 629.539 6.17016 1.94681 0
M  V30 6721 N 629.671 -0.424282 1.51781 0
M  V30 6722 C 630.603 -1.53457 1.70246 0
M  V30 6723 C 631.616 -1.52004 0.582967 0
M  V30 6724 O 632.805 -1.56544 0.857683 0
M  V30 6725 C 629.905 -2.92368 1.71389 0
M  V30 6726 C 629.078 -3.1818 3.00133 0
M  V30 6727 C 628.137 -4.36884 2.9329 0
M  V30 6728 O 627.163 -4.34901 3.67219 0
M  V30 6729 N 628.365 -5.4117 2.10036 0
M  V30 6730 H 631.13 -1.38017 2.66029 0
M  V30 6731 H 628.691 -0.613394 1.4983 0
M  V30 6732 H 630.683 -3.6982 1.64362 0
M  V30 6733 H 629.253 -3.0134 0.831449 0
M  V30 6734 H 628.473 -2.28908 3.20928 0
M  V30 6735 H 629.761 -3.32261 3.85331 0
M  V30 6736 H 629.159 -5.45623 1.49373 0
M  V30 6737 H 627.716 -6.17425 2.08878 0
M  V30 6738 N 631.149 -1.42148 -0.680565 0
M  V30 6739 C 632.097 -1.45401 -1.81552 0
M  V30 6740 C 633.091 -0.33036 -1.66147 0
M  V30 6741 O 634.297 -0.503103 -1.72826 0
M  V30 6742 H 630.672 -0.455265 -0.59853 0
M  V30 6743 H 632.643 -2.41024 -1.75926 0
M  V30 6744 C 631.392 -1.36769 -3.19671 0
M  V30 6745 H 630.715 -2.22525 -3.32149 0
M  V30 6746 H 632.155 -1.43106 -3.9912 0
M  V30 6747 C 630.614 -0.0817752 -3.36801 0
M  V30 6748 O 631.144 0.867707 -3.92216 0
M  V30 6749 N 629.35 -0.000799811 -2.906 0
M  V30 6750 H 628.897 -0.774231 -2.4569 0
M  V30 6751 H 628.855 0.858961 -3.02439 0
M  V30 6752 N 632.627 0.916307 -1.28225 0
M  V30 6753 C 634.038 1.48024 -1.13779 0
M  V30 6754 C 634.389 1.94289 0.273139 0
M  V30 6755 O 633.514 1.82226 1.16716 0
M  V30 6756 C 634.109 2.69029 -2.05935 0
M  V30 6757 C 632.668 3.2161 -1.95561 0
M  V30 6758 C 631.815 1.94321 -1.97825 0
M  V30 6759 H 634.766 0.729272 -1.40951 0
M  V30 6760 H 634.787 3.44204 -1.62184 0
M  V30 6761 H 634.299 2.35325 -3.08616 0
M  V30 6762 H 632.4 3.60045 -0.959076 0
M  V30 6763 H 632.513 3.87032 -2.82388 0
M  V30 6764 H 630.877 2.1131 -1.42198 0
M  V30 6765 H 631.66 1.62917 -3.0218 0
M  V30 6766 N 634.105 1.10431 1.1244 0
M  V30 6767 C 635.038 0.696987 2.17296 0
M  V30 6768 C 636.016 -0.301673 1.59777 0
M  V30 6769 O 637.2 -0.200583 1.8743 0
M  V30 6770 C 634.327 0.0284094 3.38688 0
M  V30 6771 C 633.373 0.990536 4.14838 0
M  V30 6772 S 634.206 2.50785 4.73146 0
M  V30 6773 C 635.362 1.85198 5.97873 0
M  V30 6774 H 635.595 1.58523 2.51511 0
M  V30 6775 H 633.128 0.921312 1.239 0
M  V30 6776 H 635.086 -0.351009 4.08997 0
M  V30 6777 H 633.747 -0.836629 3.02753 0
M  V30 6778 H 632.94 0.469991 5.01804 0
M  V30 6779 H 632.542 1.31186 3.50237 0
M  V30 6780 H 634.834 1.18217 6.67106 0
M  V30 6781 H 635.777 2.7012 6.54554 0
M  V30 6782 H 636.185 1.31653 5.48933 0
M  V30 6783 N 635.583 -1.29855 0.893053 0
M  V30 6784 C 636.994 -1.77946 0.564998 0
M  V30 6785 C 637.345 -1.73339 -0.919134 0
M  V30 6786 O 636.47 -1.3152 -1.71847 0
M  V30 6787 C 637.065 -3.23118 1.01883 0
M  V30 6788 C 635.624 -3.69013 0.742051 0
M  V30 6789 C 634.771 -2.50121 1.19727 0
M  V30 6790 H 637.722 -1.16611 1.07646 0
M  V30 6791 H 637.743 -3.78875 0.351249 0
M  V30 6792 H 637.255 -3.26439 2.09903 0
M  V30 6793 H 635.356 -3.71173 -0.325816 0
M  V30 6794 H 635.469 -4.60117 1.33527 0
M  V30 6795 H 633.833 -2.47128 0.616418 0
M  V30 6796 H 634.616 -2.56174 2.28538 0
M  V30 6797 N 637.061 -0.65484 -1.43351 0
M  V30 6798 C 638.31 -0.166215 -2.01014 0
M  V30 6799 C 638.623 1.22764 -1.52278 0
M  V30 6800 O 639.829 1.81156 -2.02224 0
M  V30 6801 C 638.285 -0.246341 -3.59056 0
M  V30 6802 C 637.893 -1.64299 -4.16785 0
M  V30 6803 C 639.637 0.184597 -4.24098 0
M  V30 6804 C 637.544 -1.67695 -5.67126 0
M  V30 6805 H 636.474 -0.0583769 -0.751737 0
M  V30 6806 H 639.125 -0.817111 -1.64303 0
M  V30 6807 H 637.507 0.472092 -3.93176 0
M  V30 6808 H 638.681 -2.3869 -3.94162 0
M  V30 6809 H 636.996 -2.02004 -3.6412 0
M  V30 6810 H 639.593 0.179088 -5.344 0
M  V30 6811 H 639.936 1.21632 -3.98135 0
M  V30 6812 H 640.469 -0.482141 -3.94867 0
M  V30 6813 H 637.208 -2.68783 -5.9786 0
M  V30 6814 H 636.728 -0.976313 -5.91801 0
M  V30 6815 H 638.407 -1.42142 -6.31193 0
M  V30 6816 N 638.539 1.52521 -0.396863 0
M  V30 6817 C 639.955 1.5953 -0.0471659 0
M  V30 6818 C 640.155 1.41044 1.43906 0
M  V30 6819 O 639.211 1.23122 2.20448 0
M  V30 6820 C 640.524 2.95972 -0.531113 0
M  V30 6821 C 642.072 3.09172 -0.488024 0
M  V30 6822 C 642.547 4.48075 -0.948281 0
M  V30 6823 N 644.038 4.54281 -0.9046 0
M  V30 6824 C 644.773 5.60007 -1.23205 0
M  V30 6825 N 644.269 6.73343 -1.63036 0
M  V30 6826 N 646.062 5.50151 -1.15282 0
M  V30 6827 H 638.213 1.62786 -1.36435 0
M  V30 6828 H 640.476 0.76514 -0.559701 0
M  V30 6829 H 640.182 3.14741 -1.56942 0
M  V30 6830 H 640.056 3.77143 0.0657922 0
M  V30 6831 H 642.443 2.90095 0.541211 0
M  V30 6832 H 642.524 2.29937 -1.12083 0
M  V30 6833 H 642.168 4.67894 -1.97578 0
M  V30 6834 H 642.098 5.25788 -0.292412 0
M  V30 6835 H 644.589 3.72918 -0.6116 0
M  V30 6836 H 644.902 7.49992 -1.86365 0
M  V30 6837 H 643.247 6.74655 -1.66929 0
M  V30 6838 H 646.438 4.6049 -0.840602 0
M  V30 6839 H 646.611 6.32444 -1.41133 0
M  V30 6840 N 640.017 0.126909 1.57088 0
M  V30 6841 C 640.927 -0.833867 2.1928 0
M  V30 6842 C 641.943 -1.2868 1.17122 0
M  V30 6843 O 643.119 -1.34815 1.49622 0
M  V30 6844 C 640.184 -2.0632 2.78627 0
M  V30 6845 C 639.245 -1.66143 3.95847 0
M  V30 6846 C 638.478 -2.83217 4.52354 0
M  V30 6847 O 638.701 -3.98868 4.0775 0
M  V30 6848 O 637.635 -2.59846 5.42922 0
M  V30 6849 H 641.461 -0.334564 3.01852 0
M  V30 6850 H 639.046 -0.0991091 1.49071 0
M  V30 6851 H 640.928 -2.78304 3.16425 0
M  V30 6852 H 639.603 -2.55242 1.99082 0
M  V30 6853 H 638.51 -0.912435 3.62802 0
M  V30 6854 H 639.843 -1.21957 4.76852 0
M  V30 6855 N 641.495 -1.56914 -0.146875 0
M  V30 6856 C 642.743 -1.82994 -0.85777 0
M  V30 6857 C 643.064 -0.707814 -1.817 0
M  V30 6858 O 642.334 0.270521 -1.94023 0
M  V30 6859 H 640.914 -0.675106 -0.319751 0
M  V30 6860 H 643.576 -1.9439 -0.140849 0
M  V30 6861 H 642.672 -2.77928 -1.41994 0
M  V30 6862 N 642.974 0.416227 -1.52004 0
M  V30 6863 C 644.251 1.17637 -1.56272 0
M  V30 6864 C 644.631 2.08352 -0.339493 0
M  V30 6865 O 643.979 2.1833 0.674124 0
M  V30 6866 C 644.189 1.95986 -2.88774 0
M  V30 6867 C 645.537 2.52299 -3.41512 0
M  V30 6868 O 646.561 2.06174 -2.90467 0
M  V30 6869 O 645.42 3.3648 -4.30631 0
M  V30 6870 H 642.514 0.536726 -0.629169 0
M  V30 6871 H 645.06 0.423583 -1.64329 0
M  V30 6872 H 643.832 1.29487 -3.69254 0
M  V30 6873 H 643.455 2.78285 -2.83978 0
M  V30 6874 N 644.452 1.42507 0.673017 0
M  V30 6875 C 645.68 1.46473 1.46128 0
M  V30 6876 C 646.095 0.0765912 1.88645 0
M  V30 6877 O 645.452 -0.909057 1.58248 0
M  V30 6878 C 645.503 2.39339 2.70923 0
M  V30 6879 O 645.224 3.72752 2.3019 0
M  V30 6880 C 646.725 2.52343 3.64469 0
M  V30 6881 H 643.945 0.49812 0.449575 0
M  V30 6882 H 646.489 1.87041 0.826802 0
M  V30 6883 H 644.644 2.02019 3.30556 0
M  V30 6884 H 645.058 4.22503 3.10791 0
M  V30 6885 H 646.532 3.2144 4.48754 0
M  V30 6886 H 647.009 1.56189 4.1049 0
M  V30 6887 H 647.615 2.90392 3.10729 0
M  V30 6888 N 645.93 -0.909495 1.28709 0
M  V30 6889 C 647.176 -1.66151 1.16283 0
M  V30 6890 C 647.509 -1.92067 -0.287069 0
M  V30 6891 O 646.784 -1.52409 -1.20837 0
M  V30 6892 C 647.067 -3.01676 1.9663 0
M  V30 6893 C 646.92 -2.82888 3.49707 0
M  V30 6894 C 648.239 -4.02274 1.78504 0
M  V30 6895 H 645.358 -0.602966 0.423793 0
M  V30 6896 H 648 -1.05418 1.58073 0
M  V30 6897 H 646.15 -3.53515 1.61119 0
M  V30 6898 H 647.822 -2.38026 3.95147 0
M  V30 6899 H 646.065 -2.17862 3.75125 0
M  V30 6900 H 646.736 -3.79147 4.01187 0
M  V30 6901 H 649.212 -3.59511 2.09503 0
M  V30 6902 H 648.088 -4.95056 2.37088 0
M  V30 6903 H 648.349 -4.35903 0.737647 0
M  V30 6904 N 647.408 -1.11026 -1.11852 0
M  V30 6905 C 648.636 -0.878818 -1.87308 0
M  V30 6906 C 649.051 0.57111 -1.79955 0
M  V30 6907 O 648.408 1.39409 -1.17777 0
M  V30 6908 C 648.459 -1.3264 -3.36287 0
M  V30 6909 O 648.18 -2.71948 -3.43476 0
M  V30 6910 C 649.681 -1.12974 -4.28663 0
M  V30 6911 H 646.901 -0.315015 -0.592458 0
M  V30 6912 H 649.445 -1.47649 -1.41492 0
M  V30 6913 H 647.6 -0.772269 -3.79625 0
M  V30 6914 H 648.014 -2.91241 -4.3621 0
M  V30 6915 H 649.488 -1.49198 -5.31454 0
M  V30 6916 H 649.965 -0.0689127 -4.39146 0
M  V30 6917 H 650.571 -1.67064 -3.91113 0
M  V30 6918 N 648.886 1.2938 -0.899927 0
M  V30 6919 C 649.816 2.30144 -0.39446 0
M  V30 6920 C 650.797 1.61611 0.530639 0
M  V30 6921 O 651.982 1.89119 0.441319 0
M  V30 6922 C 649.112 3.45229 0.37868 0
M  V30 6923 C 648.066 4.25564 -0.456012 0
M  V30 6924 C 647.392 5.32848 0.444637 0
M  V30 6925 C 648.692 4.93651 -1.70605 0
M  V30 6926 H 650.386 2.72673 -1.23653 0
M  V30 6927 H 647.932 1.31086 -0.596034 0
M  V30 6928 H 649.885 4.14797 0.743037 0
M  V30 6929 H 648.609 3.01545 1.25453 0
M  V30 6930 H 647.268 3.57704 -0.802704 0
M  V30 6931 H 646.916 4.85408 1.31863 0
M  V30 6932 H 646.616 5.87497 -0.110154 0
M  V30 6933 H 648.14 6.05268 0.805182 0
M  V30 6934 H 649.554 5.55655 -1.41141 0
M  V30 6935 H 647.951 5.58233 -2.20217 0
M  V30 6936 H 649.021 4.18926 -2.4419 0
M  V30 6937 N 650.364 0.662433 1.43002 0
M  V30 6938 C 651.589 0.186003 2.06564 0
M  V30 6939 C 652.014 -1.14314 1.49379 0
M  V30 6940 O 651.372 -1.70824 0.607346 0
M  V30 6941 C 651.42 0.118269 3.60406 0
M  V30 6942 O 650.524 -0.916859 4.02079 0
M  V30 6943 H 649.865 0.0990981 0.656563 0
M  V30 6944 H 652.395 0.907958 1.8335 0
M  V30 6945 H 652.405 -0.0619981 4.07953 0
M  V30 6946 H 651.08 1.08849 4.01403 0
M  V30 6947 H 649.657 -0.708635 3.66105 0
M  V30 6948 N 651.842 -1.52309 0.404946 0
M  V30 6949 C 653.082 -2.03677 -0.171779 0
M  V30 6950 C 653.446 -1.28419 -1.42733 0
M  V30 6951 O 654.647 -1.69991 -2.08222 0
M  V30 6952 C 652.918 -3.54951 -0.417701 0
M  V30 6953 S 654.477 -4.28114 -0.962472 0
M  V30 6954 H 651.295 -0.709445 -0.0469912 0
M  V30 6955 H 653.897 -1.874 0.556901 0
M  V30 6956 H 652.601 -4.07306 0.50295 0
M  V30 6957 H 652.132 -3.75462 -1.17437 0
M  V30 6958 H 654.147 -4.42589 -2.24342 0
M  V30 6959 N 653.32 -0.135238 -1.57019 0
M  V30 6960 C 654.268 0.826099 -2.17436 0
M  V30 6961 C 655.262 1.26378 -1.12805 0
M  V30 6962 O 656.468 1.23363 -1.31079 0
M  V30 6963 H 652.843 0.284568 -0.696078 0
M  V30 6964 H 654.814 0.292212 -2.96966 0
M  V30 6965 C 653.563 2.05991 -2.80112 0
M  V30 6966 H 652.886 1.73209 -3.60331 0
M  V30 6967 H 654.326 2.71225 -3.25903 0
M  V30 6968 C 652.785 2.86027 -1.78017 0
M  V30 6969 O 653.315 3.81971 -1.24344 0
M  V30 6970 N 651.521 2.50332 -1.47588 0
M  V30 6971 H 651.068 1.72377 -1.91426 0
M  V30 6972 H 651.026 3.04177 -0.795228 0
M  V30 6973 N 654.798 1.5699 0.138552 0
M  V30 6974 C 656.028 1.87704 0.863184 0
M  V30 6975 C 656.436 0.722411 1.74865 0
M  V30 6976 O 655.779 -0.316636 1.80951 0
M  V30 6977 C 655.841 3.13219 1.76449 0
M  V30 6978 C 655.505 4.44648 1.05532 0
M  V30 6979 C 656.502 5.18318 0.405252 0
M  V30 6980 C 654.187 4.91367 1.04231 0
M  V30 6981 C 656.181 6.36916 -0.24835 0
M  V30 6982 C 653.868 6.09887 0.384904 0
M  V30 6983 C 654.866 6.82508 -0.259292 0
M  V30 6984 O 654.554 7.98775 -0.906258 0
M  V30 6985 H 654.286 0.626255 0.254521 0
M  V30 6986 H 656.84 2.04966 0.133472 0
M  V30 6987 H 655.07 2.91988 2.53535 0
M  V30 6988 H 656.759 3.30111 2.36181 0
M  V30 6989 H 657.525 4.83289 0.407053 0
M  V30 6990 H 653.404 4.34759 1.53315 0
M  V30 6991 H 656.948 6.93538 -0.751755 0
M  V30 6992 H 652.845 6.44376 0.380799 0
M  V30 6993 H 653.613 8.14494 -0.80877 0
M  V30 6994 N 656.276 -0.40816 1.52223 0
M  V30 6995 C 657.224 -1.51788 1.76248 0
M  V30 6996 C 658.218 -1.57264 0.629638 0
M  V30 6997 O 659.424 -1.60659 0.811704 0
M  V30 6998 H 655.799 -0.504823 0.557367 0
M  V30 6999 H 657.77 -1.2871 2.69214 0
M  V30 7000 C 656.519 -2.89145 1.93107 0
M  V30 7001 H 655.842 -2.85674 2.79697 0
M  V30 7002 H 657.282 -3.66082 2.13916 0
M  V30 7003 C 655.741 -3.29581 0.698431 0
M  V30 7004 O 656.271 -4.01479 -0.133238 0
M  V30 7005 N 654.477 -2.85651 0.53405 0
M  V30 7006 H 654.024 -2.2731 1.21194 0
M  V30 7007 H 653.982 -3.13065 -0.289387 0
M  V30 7008 N 657.755 -1.42862 -0.66545 0
M  V30 7009 C 658.98 -1.47456 -1.45848 0
M  V30 7010 C 659.405 -0.0900312 -1.87884 0
M  V30 7011 O 658.763 0.913587 -1.56599 0
M  V30 7012 C 658.811 -2.41514 -2.67774 0
M  V30 7013 O 657.915 -1.89296 -3.66389 0
M  V30 7014 H 657.256 -0.499236 -0.437789 0
M  V30 7015 H 659.786 -1.8765 -0.815394 0
M  V30 7016 H 659.796 -2.58409 -3.15735 0
M  V30 7017 H 658.471 -3.42099 -2.36519 0
M  V30 7018 H 657.048 -1.82003 -3.25468 0
M  V30 7019 N 659.233 0.902656 -1.29189 0
M  V30 7020 C 660.458 1.69167 -1.19989 0
M  V30 7021 C 660.883 1.86607 0.236495 0
M  V30 7022 O 660.241 1.38425 1.17082 0
M  V30 7023 C 660.289 3.05532 -1.91527 0
M  V30 7024 O 659.393 3.93621 -1.2303 0
M  V30 7025 H 658.734 0.517584 -0.415936 0
M  V30 7026 H 661.264 1.12785 -1.70706 0
M  V30 7027 H 661.274 3.55693 -1.99866 0
M  V30 7028 H 659.949 2.92156 -2.96003 0
M  V30 7029 H 658.526 3.52055 -1.22928 0
M  V30 7030 N 660.711 1.11618 1.11262 0
M  V30 7031 C 661.659 0.771291 2.1944 0
M  V30 7032 C 662.653 -0.238073 1.67719 0
M  V30 7033 O 663.859 -0.0971628 1.79738 0
M  V30 7034 H 660.234 0.231548 0.715465 0
M  V30 7035 H 662.205 1.69226 2.45775 0
M  V30 7036 C 660.954 0.232765 3.4692 0
M  V30 7037 H 660.277 1.00072 3.87073 0
M  V30 7038 H 661.717 0.0296561 4.2399 0
M  V30 7039 C 660.176 -1.03738 3.20531 0
M  V30 7040 O 660.706 -2.11675 3.41404 0
M  V30 7041 N 658.912 -0.960906 2.74253 0
M  V30 7042 H 658.459 -0.0824323 2.57468 0
M  V30 7043 H 658.417 -1.8114 2.56974 0
M  V30 7044 N 662.189 -1.289 0.906776 0
M  V30 7045 C 663.6 -1.77336 0.58384 0
M  V30 7046 C 663.951 -1.74304 -0.900697 0
M  V30 7047 O 663.076 -1.33335 -1.70443 0
M  V30 7048 C 663.671 -3.22019 1.05304 0
M  V30 7049 C 662.23 -3.68205 0.781148 0
M  V30 7050 C 661.377 -2.48837 1.22373 0
M  V30 7051 H 664.328 -1.15462 1.08877 0
M  V30 7052 H 664.349 -3.78481 0.391414 0
M  V30 7053 H 663.861 -3.24194 2.13353 0
M  V30 7054 H 661.962 -3.71497 -0.28643 0
M  V30 7055 H 662.075 -4.58675 1.384 0
M  V30 7056 H 660.439 -2.46461 0.642594 0
M  V30 7057 H 661.222 -2.53736 2.31242 0
M  V30 7058 N 663.667 -0.670007 -1.42649 0
M  V30 7059 C 664.892 -0.196955 -2.06463 0
M  V30 7060 C 665.317 1.1352 -1.49983 0
M  V30 7061 O 664.675 1.705 -0.616397 0
M  V30 7062 C 664.723 -0.137381 -3.60338 0
M  V30 7063 O 663.827 0.895523 -4.02559 0
M  V30 7064 H 663.168 -0.102579 -0.656029 0
M  V30 7065 H 665.698 -0.917669 -1.82866 0
M  V30 7066 H 665.708 0.0403625 -4.0798 0
M  V30 7067 H 664.383 -1.10977 -4.0082 0
M  V30 7068 H 662.96 0.689209 -3.66476 0
M  V30 7069 N 665.145 1.52092 -0.413018 0
M  V30 7070 C 666.391 2.02154 0.161737 0
M  V30 7071 C 666.724 1.29789 1.44459 0
M  V30 7072 O 665.999 0.405378 1.90229 0
M  V30 7073 C 666.282 3.5781 0.405463 0
M  V30 7074 C 666.135 4.40819 -0.894335 0
M  V30 7075 C 667.454 4.23821 1.18591 0
M  V30 7076 H 664.573 0.734769 0.0573077 0
M  V30 7077 H 667.215 1.81948 -0.547247 0
M  V30 7078 H 665.365 3.75158 1.0094 0
M  V30 7079 H 667.037 4.35175 -1.53039 0
M  V30 7080 H 665.28 4.06877 -1.50444 0
M  V30 7081 H 665.951 5.47819 -0.678144 0
M  V30 7082 H 668.427 4.10596 0.674573 0
M  V30 7083 H 667.303 5.32663 1.3252 0
M  V30 7084 H 667.564 3.83038 2.20758 0
M  V30 7085 N 666.623 0.143563 1.56945 0
M  V30 7086 C 667.851 -0.515447 2.00377 0
M  V30 7087 C 668.266 -1.58643 1.02361 0
M  V30 7088 O 667.623 -1.82489 0.0201039 0
M  V30 7089 C 667.674 -1.11923 3.43737 0
M  V30 7090 O 667.395 -0.0910318 4.38005 0
M  V30 7091 C 668.896 -1.85918 4.02429 0
M  V30 7092 H 666.116 -0.134478 0.657386 0
M  V30 7093 H 668.66 0.237135 2.0312 0
M  V30 7094 H 666.815 -1.82245 3.41856 0
M  V30 7095 H 667.229 -0.532916 5.21786 0
M  V30 7096 H 668.703 -2.2346 5.04747 0
M  V30 7097 H 669.18 -2.7438 3.42947 0
M  V30 7098 H 669.786 -1.20303 4.07931 0
M  V30 7099 N 668.101 -1.57061 -0.130224 0
M  V30 7100 C 669.517 -1.52103 -0.483413 0
M  V30 7101 C 669.717 -0.854752 -1.82473 0
M  V30 7102 O 668.773 -0.432342 -2.48771 0
M  V30 7103 C 670.086 -2.96872 -0.47825 0
M  V30 7104 C 671.634 -3.07902 -0.562592 0
M  V30 7105 C 672.109 -4.54211 -0.587929 0
M  V30 7106 N 673.6 -4.58621 -0.649684 0
M  V30 7107 C 674.335 -5.69227 -0.690551 0
M  V30 7108 N 673.831 -6.89358 -0.689743 0
M  V30 7109 N 675.624 -5.57304 -0.732708 0
M  V30 7110 H 667.775 -1.98764 0.748779 0
M  V30 7111 H 670.038 -0.907248 0.274965 0
M  V30 7112 H 669.744 -3.48944 0.439444 0
M  V30 7113 H 669.618 -3.53716 -1.31013 0
M  V30 7114 H 672.005 -2.5584 -1.47071 0
M  V30 7115 H 672.086 -2.54073 0.296764 0
M  V30 7116 H 671.73 -5.06915 0.316096 0
M  V30 7117 H 671.66 -5.0584 -1.46401 0
M  V30 7118 H 674.151 -3.72146 -0.656927 0
M  V30 7119 H 674.464 -7.69408 -0.723239 0
M  V30 7120 H 672.809 -6.91884 -0.657347 0
M  V30 7121 H 676 -4.62363 -0.730625 0
M  V30 7122 H 676.173 -6.43515 -0.76109 0
M  V30 7123 N 669.579 0.400081 -1.52437 0
M  V30 7124 C 670.809 1.16598 -1.70553 0
M  V30 7125 C 671.217 1.8451 -0.418665 0
M  V30 7126 O 670.56 1.73069 0.615855 0
M  V30 7127 C 670.622 2.26517 -2.7916 0
M  V30 7128 C 670.286 1.78666 -4.20628 0
M  V30 7129 C 671.283 1.26946 -5.04163 0
M  V30 7130 C 668.968 1.85225 -4.66902 0
M  V30 7131 C 670.962 0.824187 -6.32049 0
M  V30 7132 C 668.649 1.40309 -5.94774 0
M  V30 7133 C 669.647 0.889922 -6.77178 0
M  V30 7134 O 669.335 0.447281 -8.02655 0
M  V30 7135 H 669.067 0.356023 -0.574651 0
M  V30 7136 H 671.621 0.475598 -1.99818 0
M  V30 7137 H 669.851 2.98946 -2.45292 0
M  V30 7138 H 671.54 2.88237 -2.85787 0
M  V30 7139 H 672.306 1.21244 -4.69601 0
M  V30 7140 H 668.185 2.24111 -4.02859 0
M  V30 7141 H 671.729 0.422958 -6.96317 0
M  V30 7142 H 667.626 1.45693 -6.28843 0
M  V30 7143 H 668.394 0.569768 -8.16514 0
M  V30 7144 N 671.057 1.43213 0.657864 0
M  V30 7145 C 671.967 1.50448 1.80007 0
M  V30 7146 C 672.983 0.39191 1.69529 0
M  V30 7147 O 674.159 0.645349 1.90781 0
M  V30 7148 C 671.224 1.42062 3.16258 0
M  V30 7149 C 670.285 2.63951 3.38568 0
M  V30 7150 C 669.518 2.55956 4.68318 0
M  V30 7151 O 669.741 1.60473 5.47361 0
M  V30 7152 O 668.675 3.46378 4.92245 0
M  V30 7153 H 672.501 2.4689 1.76858 0
M  V30 7154 H 670.086 1.25163 0.81576 0
M  V30 7155 H 671.968 1.3981 3.97531 0
M  V30 7156 H 670.643 0.487524 3.20008 0
M  V30 7157 H 669.55 2.71776 2.57077 0
M  V30 7158 H 670.883 3.56217 3.39662 0
M  V30 7159 N 672.536 -0.895792 1.29666 0
M  V30 7160 C 673.782 -1.64921 1.19049 0
M  V30 7161 C 674.137 -1.90707 -0.254678 0
M  V30 7162 O 673.43 -1.5092 -1.18041 0
M  V30 7163 C 673.624 -3.00075 1.94139 0
M  V30 7164 C 673.453 -2.87482 3.4581 0
M  V30 7165 C 672.223 -2.88041 4.15163 0
M  V30 7166 C 674.421 -2.64224 4.41237 0
M  V30 7167 N 672.403 -2.66226 5.5317 0
M  V30 7168 C 673.774 -2.51427 5.66732 0
M  V30 7169 C 675.829 -2.49362 4.30956 0
M  V30 7170 C 674.532 -2.25281 6.83111 0
M  V30 7171 C 676.558 -2.246 5.47091 0
M  V30 7172 C 675.92 -2.12571 6.7156 0
M  V30 7173 H 672.019 -0.608926 0.490646 0
M  V30 7174 H 674.603 -1.05648 1.63544 0
M  V30 7175 H 672.774 -3.574 1.52052 0
M  V30 7176 H 674.506 -3.64544 1.75754 0
M  V30 7177 H 671.261 -2.99471 3.66898 0
M  V30 7178 H 671.685 -2.58361 6.25762 0
M  V30 7179 H 676.327 -2.57403 3.35415 0
M  V30 7180 H 674.045 -2.15978 7.78704 0
M  V30 7181 H 677.631 -2.13939 5.41037 0
M  V30 7182 H 676.511 -1.93676 7.59907 0
M  V30 7183 N 674.014 -1.12206 -1.10668 0
M  V30 7184 C 674.961 -0.787716 -2.16942 0
M  V30 7185 C 675.931 0.244442 -1.64291 0
M  V30 7186 O 677.116 0.119558 -1.90425 0
M  V30 7187 C 674.256 -0.24584 -3.44223 0
M  V30 7188 C 673.369 -1.33552 -4.10838 0
M  V30 7189 C 672.504 -0.753337 -5.25831 0
M  V30 7190 C 671.543 -1.82231 -5.84344 0
M  V30 7191 N 670.68 -1.25902 -6.90719 0
M  V30 7192 H 675.52 -1.69809 -2.44885 0
M  V30 7193 H 673.057 -0.847862 -1.20207 0
M  V30 7194 H 675.015 0.0863639 -4.17111 0
M  V30 7195 H 673.645 0.627702 -3.16638 0
M  V30 7196 H 672.697 -1.78454 -3.35944 0
M  V30 7197 H 674.009 -2.14396 -4.50373 0
M  V30 7198 H 673.163 -0.37166 -6.05561 0
M  V30 7199 H 671.902 0.0863297 -4.87624 0
M  V30 7200 H 670.907 -2.2132 -5.03287 0
M  V30 7201 H 672.132 -2.66515 -6.24617 0
M  V30 7202 H 670.078 -0.44114 -6.54515 0
M  V30 7203 H 669.995 -2.00408 -7.28953 0
M  V30 7204 H 671.263 -0.904498 -7.74235 0
M  V30 7205 N 675.492 1.28418 -0.913599 0
M  V30 7206 C 676.903 1.77024 -0.593237 0
M  V30 7207 C 677.254 1.74779 0.891441 0
M  V30 7208 O 676.379 1.34237 1.69733 0
M  V30 7209 C 676.974 3.21456 -1.07011 0
M  V30 7210 C 675.533 3.67786 -0.800664 0
M  V30 7211 C 674.68 2.48185 -1.23691 0
M  V30 7212 H 677.631 1.14883 -1.09487 0
M  V30 7213 H 677.652 3.78269 -0.411481 0
M  V30 7214 H 677.164 3.23058 -2.1507 0
M  V30 7215 H 675.265 3.71644 0.266725 0
M  V30 7216 H 675.378 4.57934 -1.4083 0
M  V30 7217 H 673.742 2.46116 -0.655655 0
M  V30 7218 H 674.525 2.52506 -2.32585 0
M  V30 7219 N 676.97 0.677563 1.42291 0
M  V30 7220 C 677.92 -0.0218641 2.2799 0
M  V30 7221 C 678.904 -0.770816 1.41235 0
M  V30 7222 O 680.096 -0.649273 1.64662 0
M  V30 7223 C 677.225 -0.970449 3.29298 0
M  V30 7224 C 676.311 -0.218695 4.23536 0
M  V30 7225 N 676.702 0.777908 4.99782 0
M  V30 7226 C 675 -0.456748 4.43655 0
M  V30 7227 C 675.701 1.22632 5.68627 0
M  V30 7228 N 674.677 0.55573 5.40752 0
M  V30 7229 H 678.479 0.742516 2.84366 0
M  V30 7230 H 675.993 0.506862 1.54288 0
M  V30 7231 H 677.99 -1.48652 3.89497 0
M  V30 7232 H 676.65 -1.73463 2.74483 0
M  V30 7233 H 677.661 1.15754 5.04798 0
M  V30 7234 H 674.338 -1.20021 3.99877 0
M  V30 7235 H 675.728 2.05231 6.39789 0
M  V30 7236 N 678.448 -1.51871 0.421078 0
M  V30 7237 C 679.696 -2.01539 -0.150492 0
M  V30 7238 C 680.017 -1.30803 -1.44623 0
M  V30 7239 O 679.287 -0.437568 -1.90951 0
M  V30 7240 H 677.867 -0.744698 -0.0586041 0
M  V30 7241 H 680.529 -1.8668 0.560059 0
M  V30 7242 H 679.625 -3.10264 -0.338068 0
M  V30 7243 N 679.926 -0.151884 -1.56866 0
M  V30 7244 C 680.889 0.771861 -2.15812 0
M  V30 7245 C 681.889 1.17181 -1.10115 0
M  V30 7246 O 683.079 1.09194 -1.35729 0
M  V30 7247 C 680.211 2.04806 -2.7252 0
M  V30 7248 H 681.404 0.259021 -2.98779 0
M  V30 7249 H 678.957 0.097588 -1.55995 0
M  V30 7250 H 679.692 2.60445 -1.93233 0
M  V30 7251 H 679.477 1.77044 -3.49854 0
M  V30 7252 H 680.967 2.70771 -3.1792 0
M  V30 7253 N 681.404 1.57128 0.121893 0
M  V30 7254 C 682.65 1.85853 0.826451 0
M  V30 7255 C 683.005 0.739262 1.77631 0
M  V30 7256 O 682.298 -0.260959 1.89815 0
M  V30 7257 C 682.492 3.1874 1.61677 0
M  V30 7258 C 682.321 4.43487 0.744944 0
M  V30 7259 C 681.091 5.03707 0.400891 0
M  V30 7260 C 683.289 5.1426 0.0638779 0
M  V30 7261 N 681.271 6.12006 -0.481902 0
M  V30 7262 C 682.642 6.16281 -0.678033 0
M  V30 7263 C 684.697 4.97898 -0.0128424 0
M  V30 7264 C 683.4 7.0371 -1.48946 0
M  V30 7265 C 685.426 5.85812 -0.81108 0
M  V30 7266 C 684.788 6.87333 -1.54119 0
M  V30 7267 H 680.887 0.730367 0.279442 0
M  V30 7268 H 683.471 1.9449 0.0903486 0
M  V30 7269 H 681.642 3.11204 2.32393 0
M  V30 7270 H 683.374 3.35283 2.26644 0
M  V30 7271 H 680.129 4.67744 0.742469 0
M  V30 7272 H 680.553 6.70787 -0.915063 0
M  V30 7273 H 685.195 4.19372 0.537278 0
M  V30 7274 H 682.913 7.81646 -2.05074 0
M  V30 7275 H 686.499 5.75217 -0.872764 0
M  V30 7276 H 685.379 7.54182 -2.14893 0
M  V30 7277 N 682.882 -0.391992 1.52647 0
M  V30 7278 C 683.792 -1.503 1.80131 0
M  V30 7279 C 684.808 -1.59825 0.687882 0
M  V30 7280 O 685.984 -1.76218 0.975149 0
M  V30 7281 C 683.049 -2.85863 1.96171 0
M  V30 7282 C 682.11 -2.86084 3.20085 0
M  V30 7283 C 681.343 -4.15181 3.35351 0
M  V30 7284 O 681.566 -5.09981 2.55491 0
M  V30 7285 O 680.5 -4.22603 4.28591 0
M  V30 7286 H 684.326 -1.30007 2.74466 0
M  V30 7287 H 681.911 -0.579539 1.37701 0
M  V30 7288 H 683.793 -3.66236 2.08445 0
M  V30 7289 H 682.468 -3.06189 1.05025 0
M  V30 7290 H 681.375 -2.04504 3.13256 0
M  V30 7291 H 682.708 -2.7071 4.11068 0
M  V30 7292 N 684.36 -1.4356 -0.65026 0
M  V30 7293 C 685.27 -1.514 -1.79207 0
M  V30 7294 C 686.286 -0.400895 -1.69319 0
M  V30 7295 O 687.462 -0.655458 -1.90436 0
M  V30 7296 C 684.527 -1.43737 -3.155 0
M  V30 7297 C 683.588 -2.65743 -3.37163 0
M  V30 7298 C 682.821 -2.58436 -4.66954 0
M  V30 7299 O 683.044 -1.63374 -5.46503 0
M  V30 7300 O 681.978 -3.48984 -4.90402 0
M  V30 7301 H 685.804 -2.47825 -1.75547 0
M  V30 7302 H 683.389 -1.25594 -0.809111 0
M  V30 7303 H 685.271 -1.41916 -3.96784 0
M  V30 7304 H 683.946 -0.504488 -3.19745 0
M  V30 7305 H 682.853 -2.73136 -2.55632 0
M  V30 7306 H 684.186 -3.58014 -3.37768 0
M  V30 7307 N 685.838 0.888903 -1.30139 0
M  V30 7308 C 687.249 1.45578 -1.16893 0
M  V30 7309 C 687.6 1.94825 0.231866 0
M  V30 7310 O 686.725 1.84661 1.12824 0
M  V30 7311 C 687.32 2.646 -2.11595 0
M  V30 7312 C 685.879 3.17389 -2.02339 0
M  V30 7313 C 685.026 1.90081 -2.01902 0
M  V30 7314 H 687.977 0.69921 -1.42467 0
M  V30 7315 H 687.998 3.40687 -1.69449 0
M  V30 7316 H 687.51 2.28726 -3.13538 0
M  V30 7317 H 685.611 3.5793 -1.03523 0
M  V30 7318 H 685.724 3.80955 -2.90534 0
M  V30 7319 H 684.088 2.08246 -1.46648 0
M  V30 7320 H 684.871 1.5647 -3.05568 0
M  V30 7321 N 687.317 1.12792 1.10072 0
M  V30 7322 C 688.542 0.908838 1.86427 0
M  V30 7323 C 688.967 -0.536793 1.80278 0
M  V30 7324 O 688.325 -1.38033 1.17543 0
M  V30 7325 C 688.373 1.39295 3.3261 0
M  V30 7326 O 687.477 0.573846 4.08388 0
M  V30 7327 H 686.818 0.326234 0.578331 0
M  V30 7328 H 689.348 1.50094 1.39043 0
M  V30 7329 H 689.358 1.39366 3.83459 0
M  V30 7330 H 688.033 2.44555 3.36401 0
M  V30 7331 H 686.61 0.640438 3.67359 0
M  V30 7332 N 688.795 -1.27931 0.920396 0
M  V30 7333 C 689.725 -2.29487 0.431024 0
M  V30 7334 C 690.706 -1.62435 -0.504861 0
M  V30 7335 O 691.891 -1.89797 -0.411176 0
M  V30 7336 C 689.021 -3.45788 -0.323709 0
M  V30 7337 C 687.975 -4.24784 0.523658 0
M  V30 7338 C 687.301 -5.33488 -0.359809 0
M  V30 7339 C 688.601 -4.90874 1.78437 0
M  V30 7340 H 690.295 -2.70671 1.27975 0
M  V30 7341 H 687.841 -1.30121 0.616813 0
M  V30 7342 H 689.794 -4.15927 -0.676952 0
M  V30 7343 H 688.518 -3.03502 -1.2064 0
M  V30 7344 H 687.177 -3.56382 0.85951 0
M  V30 7345 H 686.825 -4.87445 -1.24124 0
M  V30 7346 H 686.525 -5.87247 0.203605 0
M  V30 7347 H 688.049 -6.06472 -0.708787 0
M  V30 7348 H 689.463 -5.53339 1.49963 0
M  V30 7349 H 687.86 -5.54659 2.29071 0
M  V30 7350 H 688.93 -4.14988 2.50824 0
M  V30 7351 N 690.273 -0.685099 -1.4193 0
M  V30 7352 C 691.521 -0.21124 -2.00993 0
M  V30 7353 C 691.842 1.18985 -1.54491 0
M  V30 7354 O 691.112 1.8009 -0.771 0
M  V30 7355 H 689.692 -0.0751059 -0.743215 0
M  V30 7356 H 692.354 -0.883915 -1.73704 0
M  V30 7357 H 691.45 -0.220513 -3.1132 0
M  V30 7358 N 691.751 1.51645 -0.429126 0
M  V30 7359 C 692.997 2.02314 0.140286 0
M  V30 7360 C 693.33 1.31314 1.43074 0
M  V30 7361 O 692.605 0.425531 1.89788 0
M  V30 7362 C 692.888 3.5822 0.36749 0
M  V30 7363 C 692.741 4.39846 -0.941039 0
M  V30 7364 C 694.06 4.25055 1.14089 0
M  V30 7365 H 691.179 0.735335 0.0495112 0
M  V30 7366 H 693.821 1.81358 -0.566514 0
M  V30 7367 H 691.971 3.76207 0.969556 0
M  V30 7368 H 693.643 4.33527 -1.57646 0
M  V30 7369 H 691.886 4.05259 -1.54751 0
M  V30 7370 H 692.557 5.47069 -0.73621 0
M  V30 7371 H 695.033 4.11288 0.630986 0
M  V30 7372 H 693.909 5.34038 1.26863 0
M  V30 7373 H 694.17 3.85358 2.16683 0
M  V30 7374 N 693.229 0.160201 1.56784 0
M  V30 7375 C 694.159 -0.770264 2.2043 0
M  V30 7376 C 695.14 -1.24736 1.15651 0
M  V30 7377 O 696.325 -1.30253 1.44041 0
M  V30 7378 C 693.455 -2.00427 2.83631 0
M  V30 7379 C 692.409 -1.66345 3.94352 0
M  V30 7380 C 691.735 -2.97119 4.4455 0
M  V30 7381 C 693.035 -0.899972 5.14488 0
M  V30 7382 H 694.729 -0.239783 2.98438 0
M  V30 7383 H 692.275 -0.113891 1.43549 0
M  V30 7384 H 694.228 -2.66012 3.26827 0
M  V30 7385 H 692.952 -2.5587 2.02973 0
M  V30 7386 H 691.611 -1.03133 3.51794 0
M  V30 7387 H 691.259 -3.5058 3.60698 0
M  V30 7388 H 690.959 -2.75073 5.19238 0
M  V30 7389 H 692.483 -3.63753 4.90425 0
M  V30 7390 H 693.897 -1.45818 5.54446 0
M  V30 7391 H 692.294 -0.778968 5.95023 0
M  V30 7392 H 693.364 0.105827 4.84785 0
M  V30 7393 N 694.707 -1.5719 -0.113559 0
M  V30 7394 C 695.654 -2.00736 -1.13901 0
M  V30 7395 C 696.624 -0.88044 -1.40846 0
M  V30 7396 O 697.809 -1.14507 -1.5262 0
M  V30 7397 C 694.949 -2.42132 -2.45899 0
M  V30 7398 C 694.062 -3.68264 -2.25844 0
M  V30 7399 C 693.197 -3.98617 -3.5111 0
M  V30 7400 C 692.236 -5.17915 -3.26236 0
M  V30 7401 N 691.373 -5.44111 -4.4372 0
M  V30 7402 H 696.213 -2.88128 -0.760677 0
M  V30 7403 H 693.75 -1.42523 -0.364099 0
M  V30 7404 H 695.708 -2.6417 -3.22908 0
M  V30 7405 H 694.338 -1.57775 -2.81615 0
M  V30 7406 H 693.39 -3.53809 -1.39726 0
M  V30 7407 H 694.702 -4.55425 -2.03444 0
M  V30 7408 H 693.856 -4.21333 -4.36536 0
M  V30 7409 H 692.595 -3.09942 -3.76546 0
M  V30 7410 H 691.6 -4.95038 -2.39202 0
M  V30 7411 H 692.825 -6.08172 -3.02165 0
M  V30 7412 H 690.771 -4.58394 -4.69266 0
M  V30 7413 H 690.688 -6.25606 -4.24444 0
M  V30 7414 H 691.956 -5.71351 -5.30263 0
M  V30 7415 N 696.185 0.383891 -1.52853 0
M  V30 7416 C 697.434 1.12563 -1.67369 0
M  V30 7417 C 697.747 1.90982 -0.422533 0
M  V30 7418 O 698.953 2.6778 -0.447914 0
M  V30 7419 C 697.409 2.05011 -2.95801 0
M  V30 7420 C 697.017 1.31991 -4.28115 0
M  V30 7421 C 698.761 2.79289 -3.19684 0
M  V30 7422 C 696.668 2.23235 -5.4765 0
M  V30 7423 H 695.598 0.42391 -0.623552 0
M  V30 7424 H 698.249 0.388016 -1.79351 0
M  V30 7425 H 696.631 2.82429 -2.77578 0
M  V30 7426 H 697.805 0.597633 -4.56908 0
M  V30 7427 H 696.12 0.696517 -4.10533 0
M  V30 7428 H 698.717 3.47749 -4.06171 0
M  V30 7429 H 699.06 3.43649 -2.3497 0
M  V30 7430 H 699.593 2.08962 -3.38496 0
M  V30 7431 H 696.332 1.63482 -6.34786 0
M  V30 7432 H 695.852 2.93364 -5.23161 0
M  V30 7433 H 697.531 2.83205 -5.81725 0
M  V30 7434 N 697.663 1.43903 0.642637 0
M  V30 7435 C 698.595 1.45857 1.768 0
M  V30 7436 C 699.608 0.353358 1.58919 0
M  V30 7437 O 700.797 0.618426 1.67445 0
M  V30 7438 C 697.897 1.26583 3.14372 0
M  V30 7439 C 697.07 2.50139 3.58817 0
M  V30 7440 C 696.129 2.25933 4.75227 0
M  V30 7441 O 695.155 2.99351 4.84125 0
M  V30 7442 N 696.357 1.28263 5.66153 0
M  V30 7443 H 699.122 2.42869 1.75598 0
M  V30 7444 H 696.683 1.39194 0.826832 0
M  V30 7445 H 698.675 1.08255 3.89953 0
M  V30 7446 H 697.245 0.37978 3.10284 0
M  V30 7447 H 696.465 2.83821 2.73568 0
M  V30 7448 H 697.753 3.32344 3.8526 0
M  V30 7449 H 697.151 0.676041 5.61646 0
M  V30 7450 H 695.708 1.15916 6.4141 0
M  V30 7451 N 699.141 -0.881989 1.30609 0
M  V30 7452 C 700.089 -2.00942 1.17155 0
M  V30 7453 C 701.083 -1.69198 0.0827154 0
M  V30 7454 O 702.289 -1.78342 0.243775 0
M  V30 7455 H 698.664 -0.658913 0.362406 0
M  V30 7456 H 700.635 -2.09423 2.12567 0
M  V30 7457 C 699.384 -3.36294 0.883273 0
M  V30 7458 H 698.707 -3.61233 1.7132 0
M  V30 7459 H 700.147 -4.15812 0.829255 0
M  V30 7460 C 698.606 -3.34348 -0.413851 0
M  V30 7461 O 699.136 -3.75216 -1.43444 0
M  V30 7462 N 697.342 -2.87459 -0.426082 0
M  V30 7463 H 696.889 -2.54397 0.40493 0
M  V30 7464 H 696.847 -2.8654 -1.29391 0
M  V30 7465 N 700.619 -1.13374 -1.09472 0
M  V30 7466 C 701.865 -0.896516 -1.81908 0
M  V30 7467 C 702.198 0.575933 -1.85463 0
M  V30 7468 O 701.473 1.42618 -1.32251 0
M  V30 7469 C 701.756 -1.48445 -3.28079 0
M  V30 7470 C 701.609 -3.02598 -3.32798 0
M  V30 7471 C 702.928 -1.15226 -4.24748 0
M  V30 7472 H 700.047 -0.327127 -0.660422 0
M  V30 7473 H 702.689 -1.40195 -1.2824 0
M  V30 7474 H 700.839 -1.0546 -3.73912 0
M  V30 7475 H 702.511 -3.54335 -2.95372 0
M  V30 7476 H 700.754 -3.37613 -2.72397 0
M  V30 7477 H 701.425 -3.38835 -4.3577 0
M  V30 7478 H 703.901 -1.52369 -3.87199 0
M  V30 7479 H 702.777 -1.59012 -5.25363 0
M  V30 7480 H 703.038 -0.0658891 -4.42051 0
M  V30 7481 N 702.098 1.27442 -0.927168 0
M  V30 7482 C 703.346 1.94007 -0.566203 0
M  V30 7483 C 703.667 1.7323 0.895345 0
M  V30 7484 O 702.937 1.07973 1.63459 0
M  V30 7485 H 701.517 0.717917 -0.206409 0
M  V30 7486 H 704.179 1.55161 -1.17945 0
M  V30 7487 H 703.275 3.02401 -0.772028 0
M  V30 7488 N 703.576 0.692616 1.41565 0
M  V30 7489 C 704.822 0.231408 2.02079 0
M  V30 7490 C 705.177 -1.15514 1.53864 0
M  V30 7491 O 704.47 -1.76786 0.73873 0
M  V30 7492 C 704.664 0.225073 3.56691 0
M  V30 7493 C 704.493 1.60947 4.19912 0
M  V30 7494 C 703.263 2.2116 4.54331 0
M  V30 7495 C 705.461 2.55553 4.46315 0
M  V30 7496 N 703.443 3.52195 5.02824 0
M  V30 7497 C 704.814 3.71263 4.96552 0
M  V30 7498 C 706.869 2.53857 4.28323 0
M  V30 7499 C 705.572 4.85555 5.30687 0
M  V30 7500 C 707.598 3.67259 4.63546 0
M  V30 7501 C 706.96 4.81699 5.13951 0
M  V30 7502 H 703.059 0.130001 0.771119 0
M  V30 7503 H 705.643 0.909459 1.72154 0
M  V30 7504 H 703.814 -0.422453 3.86096 0
M  V30 7505 H 705.546 -0.250685 4.03923 0
M  V30 7506 H 702.301 1.73474 4.40685 0
M  V30 7507 H 702.725 4.19354 5.3148 0
M  V30 7508 H 707.367 1.66598 3.88594 0
M  V30 7509 H 705.085 5.73477 5.69341 0
M  V30 7510 H 708.671 3.67195 4.51286 0
M  V30 7511 H 707.551 5.67995 5.40695 0
M  V30 7512 N 705.054 -1.51416 0.437162 0
M  V30 7513 C 706.331 -1.94682 -0.189292 0
M  V30 7514 C 706.711 -1.37581 -1.60108 0
M  V30 7515 O 706.059 -0.562815 -2.2146 0
M  V30 7516 C 706.269 -3.48599 -0.167201 0
M  V30 7517 C 707.617 -4.2296 -0.372856 0
M  V30 7518 O 708.641 -3.55354 -0.245323 0
M  V30 7519 O 707.5 -5.42895 -0.626693 0
M  V30 7520 H 704.594 -0.816708 -0.130063 0
M  V30 7521 H 707.14 -1.62316 0.495128 0
M  V30 7522 H 705.912 -3.82616 0.81981 0
M  V30 7523 H 705.535 -3.87406 -0.894537 0
M  V30 7524 N 706.532 -0.168513 -1.56696 0
M  V30 7525 C 707.48 0.779791 -2.19139 0
M  V30 7526 C 708.474 1.23957 -1.1546 0
M  V30 7527 O 709.68 1.20555 -1.33666 0
M  V30 7528 H 706.055 0.269739 -0.701958 0
M  V30 7529 H 708.026 0.229156 -2.97519 0
M  V30 7530 C 706.775 2.00003 -2.84419 0
M  V30 7531 H 706.098 1.65527 -3.63924 0
M  V30 7532 H 707.538 2.64251 -3.31583 0
M  V30 7533 C 705.997 2.82187 -1.84044 0
M  V30 7534 O 706.527 3.79247 -1.32418 0
M  V30 7535 N 704.733 2.47145 -1.52864 0
M  V30 7536 H 704.28 1.68277 -1.9504 0
M  V30 7537 H 704.238 3.02422 -0.859569 0
M  V30 7538 N 708.01 1.57248 0.105221 0
M  V30 7539 C 709.238 1.89768 0.82437 0
M  V30 7540 C 709.653 0.761192 1.72775 0
M  V30 7541 O 709.01 -0.267342 1.80531 0
M  V30 7542 C 709.061 3.2184 1.64625 0
M  V30 7543 O 708.782 4.31115 0.779217 0
M  V30 7544 C 710.283 3.68155 2.46935 0
M  V30 7545 H 707.503 0.628031 0.236259 0
M  V30 7546 H 710.047 2.04321 0.085485 0
M  V30 7547 H 708.202 3.08915 2.33775 0
M  V30 7548 H 708.616 5.06897 1.34745 0
M  V30 7549 H 710.09 4.6329 3.00111 0
M  V30 7550 H 710.567 2.95492 3.24932 0
M  V30 7551 H 711.173 3.83914 1.83002 0
M  V30 7552 N 709.488 -0.375779 1.53054 0
M  V30 7553 C 710.716 -1.14036 1.72637 0
M  V30 7554 C 711.131 -1.83342 0.450687 0
M  V30 7555 O 710.488 -1.7318 -0.575749 0
M  V30 7556 C 710.539 -2.17841 2.88492 0
M  V30 7557 O 710.26 -1.51358 4.11123 0
M  V30 7558 C 711.761 -3.06924 3.19863 0
M  V30 7559 H 708.981 -0.341386 0.577665 0
M  V30 7560 H 711.525 -0.437809 1.99759 0
M  V30 7561 H 709.68 -2.8371 2.63794 0
M  V30 7562 H 710.094 -2.20439 4.75928 0
M  V30 7563 H 711.568 -3.75763 4.04359 0
M  V30 7564 H 712.045 -3.71169 2.34798 0
M  V30 7565 H 712.651 -2.46684 3.46449 0
M  V30 7566 N 710.966 -1.44241 -0.634997 0
M  V30 7567 C 712.215 -1.46102 -1.39058 0
M  V30 7568 C 712.528 -0.0959909 -1.95364 0
M  V30 7569 O 713.734 0.00788751 -2.71499 0
M  V30 7570 C 712.19 -2.57195 -2.51751 0
M  V30 7571 C 711.798 -3.99888 -2.01974 0
M  V30 7572 C 713.542 -2.68272 -3.28984 0
M  V30 7573 C 711.449 -5.02412 -3.11987 0
M  V30 7574 H 710.379 -0.543556 -0.522554 0
M  V30 7575 H 713.03 -1.70294 -0.683538 0
M  V30 7576 H 711.412 -2.26237 -3.25012 0
M  V30 7577 H 712.586 -4.40396 -1.35604 0
M  V30 7578 H 710.901 -3.93019 -1.37568 0
M  V30 7579 H 713.498 -3.42042 -4.10988 0
M  V30 7580 H 713.841 -1.73957 -3.78212 0
M  V30 7581 H 714.374 -2.98622 -2.62812 0
M  V30 7582 H 711.113 -5.98342 -2.67707 0
M  V30 7583 H 710.633 -4.66501 -3.77011 0
M  V30 7584 H 712.312 -5.25939 -3.76825 0
M  V30 7585 N 712.444 0.87505 -1.31075 0
M  V30 7586 C 713.407 1.96333 -1.18263 0
M  V30 7587 C 714.407 1.60416 -0.111106 0
M  V30 7588 O 715.597 1.7044 -0.359987 0
M  V30 7589 C 712.729 3.31036 -0.81414 0
M  V30 7590 H 713.922 2.09125 -2.14958 0
M  V30 7591 H 711.475 1.06271 -1.14614 0
M  V30 7592 H 712.21 3.23944 0.151875 0
M  V30 7593 H 711.995 3.58476 -1.58862 0
M  V30 7594 H 713.485 4.10842 -0.748249 0
M  V30 7595 N 713.922 1.13953 1.08869 0
M  V30 7596 C 715.162 0.915128 1.8277 0
M  V30 7597 C 715.526 -0.548647 1.83994 0
M  V30 7598 O 716.727 -0.890817 2.5361 0
M  V30 7599 C 714.998 1.49382 3.24684 0
M  V30 7600 S 716.557 1.4103 4.15519 0
M  V30 7601 H 713.375 0.329716 0.629927 0
M  V30 7602 H 715.977 1.45213 1.30895 0
M  V30 7603 H 714.681 2.55241 3.21372 0
M  V30 7604 H 714.212 0.955008 3.81632 0
M  V30 7605 H 716.227 0.392617 4.94644 0
M  V30 7606 N 715.4 -1.26948 0.933913 0
M  V30 7607 C 716.363 -2.24889 0.442457 0
M  V30 7608 C 717.363 -1.54594 -0.442426 0
M  V30 7609 O 718.553 -1.72502 -0.242629 0
M  V30 7610 C 715.685 -3.3896 -0.363173 0
M  V30 7611 H 716.878 -2.69879 1.30787 0
M  V30 7612 H 714.431 -1.38978 0.715187 0
M  V30 7613 H 715.166 -2.99361 -1.24714 0
M  V30 7614 H 714.951 -3.9116 0.271366 0
M  V30 7615 H 716.441 -4.11739 -0.697186 0
M  V30 7616 N 716.879 -0.700114 -1.41195 0
M  V30 7617 C 717.842 -0.0465706 -2.29153 0
M  V30 7618 C 718.842 0.703302 -1.44604 0
M  V30 7619 O 720.032 0.537513 -1.657 0
M  V30 7620 C 717.164 0.944324 -3.2756 0
M  V30 7621 H 718.357 -0.821064 -2.88442 0
M  V30 7622 H 715.91 -0.463869 -1.49258 0
M  V30 7623 H 716.645 1.74642 -2.73259 0
M  V30 7624 H 716.43 0.409701 -3.89954 0
M  V30 7625 H 717.92 1.39925 -3.9346 0
M  V30 7626 N 718.357 1.51182 -0.445186 0
M  V30 7627 C 719.597 2.04061 0.117717 0
M  V30 7628 C 719.961 1.32158 1.39278 0
M  V30 7629 O 721.162 1.75452 2.03642 0
M  V30 7630 C 719.433 3.55933 0.323445 0
M  V30 7631 S 720.992 4.30516 0.848627 0
M  V30 7632 H 717.81 0.710442 0.028165 0
M  V30 7633 H 720.412 1.85858 -0.606391 0
M  V30 7634 H 719.116 4.0583 -0.610764 0
M  V30 7635 H 718.647 3.78444 1.07441 0
M  V30 7636 H 720.662 4.48382 2.12528 0
M  V30 7637 N 719.835 0.176821 1.56605 0
M  V30 7638 C 720.783 -0.768159 2.1955 0
M  V30 7639 C 721.777 -1.23343 1.16116 0
M  V30 7640 O 722.983 -1.19844 1.34303 0
M  V30 7641 H 719.358 -0.266013 0.703378 0
M  V30 7642 H 721.329 -0.213374 2.97636 0
M  V30 7643 C 720.078 -1.98492 2.85475 0
M  V30 7644 H 719.401 -1.63595 3.64797 0
M  V30 7645 H 720.841 -2.62489 3.3298 0
M  V30 7646 C 719.3 -2.81207 1.85538 0
M  V30 7647 O 719.83 -3.7854 1.34427 0
M  V30 7648 N 718.036 -2.46331 1.54173 0
M  V30 7649 H 717.583 -1.67241 1.95929 0
M  V30 7650 H 717.541 -3.01961 0.875595 0
M  V30 7651 N 721.313 -1.57302 -0.09688 0
M  V30 7652 C 722.538 -1.9058 -0.818169 0
M  V30 7653 C 722.963 -0.770921 -1.71576 0
M  V30 7654 O 722.321 0.277588 -1.79162 0
M  V30 7655 C 722.369 -3.22714 -1.60898 0
M  V30 7656 O 721.473 -3.10178 -2.71779 0
M  V30 7657 H 720.814 -0.624759 -0.224882 0
M  V30 7658 H 723.344 -2.04471 -0.07264 0
M  V30 7659 H 723.354 -3.55978 -1.99358 0
M  V30 7660 H 722.029 -4.04899 -0.950227 0
M  V30 7661 H 720.606 -2.88424 -2.3636 0
M  V30 7662 N 722.791 0.367657 -1.53252 0
M  V30 7663 C 724.037 1.10864 -1.70531 0
M  V30 7664 C 724.392 1.87051 -0.4505 0
M  V30 7665 O 723.685 1.83342 0.556431 0
M  V30 7666 C 723.879 2.09825 -2.89324 0
M  V30 7667 C 723.708 1.43361 -4.26237 0
M  V30 7668 C 722.478 1.18861 -4.91121 0
M  V30 7669 C 724.676 0.872409 -5.06847 0
M  V30 7670 N 722.658 0.487258 -6.11963 0
M  V30 7671 C 724.029 0.300301 -6.19272 0
M  V30 7672 C 726.084 0.770895 -4.91896 0
M  V30 7673 C 724.787 -0.363419 -7.18381 0
M  V30 7674 C 726.813 0.12096 -5.91276 0
M  V30 7675 C 726.175 -0.440283 -7.03023 0
M  V30 7676 H 722.274 0.390902 -0.677288 0
M  V30 7677 H 724.858 0.395305 -1.90645 0
M  V30 7678 H 723.029 2.78473 -2.70753 0
M  V30 7679 H 724.761 2.76585 -2.95436 0
M  V30 7680 H 721.516 1.46934 -4.5023 0
M  V30 7681 H 721.94 0.152005 -6.76829 0
M  V30 7682 H 726.582 1.19058 -4.05691 0
M  V30 7683 H 724.3 -0.795057 -8.04179 0
M  V30 7684 H 727.886 0.0433702 -5.81784 0
M  V30 7685 H 726.766 -0.935244 -7.78603 0
M  V30 7686 N 724.269 1.44576 0.627338 0
M  V30 7687 C 725.509 1.49083 1.39834 0
M  V30 7688 C 725.873 0.121643 1.91614 0
M  V30 7689 O 727.074 0.0413885 2.68768 0
M  V30 7690 C 725.345 2.52467 2.52973 0
M  V30 7691 S 726.904 2.7605 3.41089 0
M  V30 7692 H 723.722 0.527252 0.476997 0
M  V30 7693 H 726.324 1.81525 0.725872 0
M  V30 7694 H 725.028 3.50646 2.13249 0
M  V30 7695 H 724.559 2.2161 3.25042 0
M  V30 7696 H 726.574 2.07932 4.50531 0
M  V30 7697 N 725.747 -0.868086 1.31537 0
M  V30 7698 C 726.972 -1.65926 1.24432 0
M  V30 7699 C 727.397 -1.87169 -0.186936 0
M  V30 7700 O 726.755 -1.4148 -1.13371 0
M  V30 7701 C 726.803 -3.00347 1.9956 0
M  V30 7702 O 725.907 -3.90221 1.33422 0
M  V30 7703 H 725.248 -0.506375 0.429512 0
M  V30 7704 H 727.778 -1.0822 1.73637 0
M  V30 7705 H 727.788 -3.50269 2.09226 0
M  V30 7706 H 726.463 -2.84205 3.03645 0
M  V30 7707 H 725.04 -3.48672 1.32219 0
M  V30 7708 N 727.225 -1.14528 -1.08264 0
M  V30 7709 C 728.471 -0.925721 -1.81113 0
M  V30 7710 C 728.826 0.54185 -1.84612 0
M  V30 7711 O 728.119 1.39628 -1.31205 0
M  V30 7712 C 728.313 -1.46226 -3.26117 0
M  V30 7713 C 728.142 -2.98047 -3.36746 0
M  V30 7714 C 726.912 -3.66508 -3.4785 0
M  V30 7715 C 729.11 -3.95903 -3.28277 0
M  V30 7716 N 727.092 -5.06227 -3.47285 0
M  V30 7717 C 728.463 -5.21883 -3.34721 0
M  V30 7718 C 730.518 -3.88002 -3.12024 0
M  V30 7719 C 729.221 -6.40886 -3.26585 0
M  V30 7720 C 731.247 -5.06553 -3.05219 0
M  V30 7721 C 730.609 -6.31403 -3.12266 0
M  V30 7722 H 726.708 -0.392294 -0.676483 0
M  V30 7723 H 729.292 -1.45567 -1.293 0
M  V30 7724 H 727.463 -0.959076 -3.76373 0
M  V30 7725 H 729.195 -1.18247 -3.8704 0
M  V30 7726 H 725.95 -3.17067 -3.51804 0
M  V30 7727 H 726.374 -5.79172 -3.50555 0
M  V30 7728 H 731.016 -2.9235 -3.05436 0
M  V30 7729 H 728.734 -7.36781 -3.31934 0
M  V30 7730 H 732.32 -5.02191 -2.93761 0
M  V30 7731 H 731.2 -7.21596 -3.07032 0
M  V30 7732 N 728.703 1.26451 -0.940633 0
M  V30 7733 C 729.666 2.24651 -0.454378 0
M  V30 7734 C 730.666 1.54826 0.434222 0
M  V30 7735 O 731.856 1.72628 0.233477 0
M  V30 7736 C 728.988 3.39148 0.345192 0
M  V30 7737 H 730.181 2.69182 -1.32217 0
M  V30 7738 H 727.734 1.38596 -0.722547 0
M  V30 7739 H 728.469 3.00018 1.23125 0
M  V30 7740 H 728.254 3.9101 -0.292107 0
M  V30 7741 H 729.744 4.12103 0.675341 0
M  V30 7742 N 730.181 0.707592 1.40822 0
M  V30 7743 C 731.406 0.251626 2.05868 0
M  V30 7744 C 731.831 -1.09503 1.5294 0
M  V30 7745 O 731.189 -1.68806 0.661385 0
M  V30 7746 C 731.237 0.23287 3.59847 0
M  V30 7747 O 730.341 -0.788477 4.04792 0
M  V30 7748 H 729.682 0.119936 0.653078 0
M  V30 7749 H 732.212 0.96583 1.80369 0
M  V30 7750 H 732.222 0.0678204 4.07944 0
M  V30 7751 H 730.897 1.21565 3.97737 0
M  V30 7752 H 729.474 -0.591802 3.68174 0
M  V30 7753 N 731.66 -1.50943 0.453197 0
M  V30 7754 C 733.071 -1.86699 -0.00619892 0
M  V30 7755 C 733.422 -1.3693 -1.40515 0
M  V30 7756 O 732.547 -0.726715 -2.03833 0
M  V30 7757 C 733.142 -3.38795 -0.018025 0
M  V30 7758 C 731.701 -3.74028 -0.421885 0
M  V30 7759 C 730.848 -2.74752 0.375087 0
M  V30 7760 H 733.799 -1.43942 0.668317 0
M  V30 7761 H 733.82 -3.71468 -0.824125 0
M  V30 7762 H 733.332 -3.74988 1.00028 0
M  V30 7763 H 731.433 -3.43431 -1.44521 0
M  V30 7764 H 731.546 -4.78908 -0.135664 0
M  V30 7765 H 729.91 -2.5414 -0.168794 0
M  V30 7766 H 730.693 -3.13787 1.39256 0
M  V30 7767 N 733.138 -0.185124 -1.56509 0
M  V30 7768 C 734.384 0.456934 -1.97585 0
M  V30 7769 C 734.717 1.61957 -1.07161 0
M  V30 7770 O 733.992 1.9412 -0.121546 0
M  V30 7771 C 734.275 0.926666 -3.47973 0
M  V30 7772 C 734.128 -0.237097 -4.49175 0
M  V30 7773 C 735.447 1.79561 -4.01803 0
M  V30 7774 H 732.566 0.164619 -0.71838 0
M  V30 7775 H 735.208 -0.274039 -1.88013 0
M  V30 7776 H 733.358 1.54954 -3.56261 0
M  V30 7777 H 735.03 -0.87454 -4.52934 0
M  V30 7778 H 733.273 -0.890446 -4.24563 0
M  V30 7779 H 733.944 0.133924 -5.51838 0
M  V30 7780 H 736.42 1.27039 -3.96232 0
M  V30 7781 H 735.296 2.09327 -5.07418 0
M  V30 7782 H 735.557 2.74629 -3.46455 0
M  V30 7783 N 734.616 1.57351 0.0885366 0
M  V30 7784 C 735.579 2.01557 1.09121 0
M  V30 7785 C 736.579 0.910052 1.3257 0
M  V30 7786 O 737.769 1.17537 1.28572 0
M  V30 7787 C 734.901 2.38189 2.43883 0
M  V30 7788 H 736.094 2.91361 0.710562 0
M  V30 7789 H 733.647 1.52694 0.333779 0
M  V30 7790 H 734.382 1.5136 2.86811 0
M  V30 7791 H 734.167 3.18846 2.28209 0
M  V30 7792 H 735.657 2.73025 3.15986 0
M  V30 7793 N 736.094 -0.359525 1.53444 0
M  V30 7794 C 737.024 -1.44662 1.8329 0
M  V30 7795 C 738.005 -1.55617 0.68683 0
M  V30 7796 O 739.19 -1.70086 0.93725 0
M  V30 7797 C 736.32 -2.81923 2.02822 0
M  V30 7798 C 735.274 -2.85787 3.18606 0
M  V30 7799 C 734.6 -4.25781 3.23442 0
M  V30 7800 C 735.9 -2.52762 4.57065 0
M  V30 7801 H 737.594 -1.19934 2.74329 0
M  V30 7802 H 735.14 -0.575517 1.31999 0
M  V30 7803 H 737.093 -3.58005 2.22285 0
M  V30 7804 H 735.817 -3.08051 1.085 0
M  V30 7805 H 734.476 -2.12157 2.98973 0
M  V30 7806 H 734.124 -4.48994 2.26745 0
M  V30 7807 H 733.824 -4.29281 4.01238 0
M  V30 7808 H 735.348 -5.03727 3.45096 0
M  V30 7809 H 736.762 -3.18557 4.76649 0
M  V30 7810 H 735.159 -2.67569 5.37147 0
M  V30 7811 H 736.229 -1.47993 4.61764 0
M  V30 7812 N 737.572 -1.44907 -0.619662 0
M  V30 7813 C 738.52 -1.52971 -1.75222 0
M  V30 7814 C 739.514 -0.400531 -1.64597 0
M  V30 7815 O 740.72 -0.575952 -1.70537 0
M  V30 7816 H 737.095 -0.480241 -0.578682 0
M  V30 7817 H 739.066 -2.48269 -1.65545 0
M  V30 7818 C 737.815 -1.50204 -3.13583 0
M  V30 7819 H 737.138 -2.36412 -3.22412 0
M  V30 7820 H 738.578 -1.59905 -3.92691 0
M  V30 7821 C 737.037 -0.22455 -3.36151 0
M  V30 7822 O 737.567 0.700574 -3.95544 0
M  V30 7823 N 735.773 -0.124052 -2.90335 0
M  V30 7824 H 735.32 -0.87774 -2.42185 0
M  V30 7825 H 735.278 0.729914 -3.0581 0
M  V30 7826 N 739.05 0.861098 -1.31996 0
M  V30 7827 C 740.296 1.61721 -1.22369 0
M  V30 7828 C 740.629 1.93 0.215587 0
M  V30 7829 O 739.904 1.56789 1.15098 0
M  V30 7830 C 740.187 2.9417 -2.07691 0
M  V30 7831 C 740.04 2.69714 -3.59965 0
M  V30 7832 C 741.359 3.95372 -1.93312 0
M  V30 7833 H 738.478 0.586822 -0.44588 0
M  V30 7834 H 741.12 0.994788 -1.61876 0
M  V30 7835 H 739.27 3.47292 -1.74128 0
M  V30 7836 H 740.942 2.23196 -4.03709 0
M  V30 7837 H 739.185 2.03789 -3.82952 0
M  V30 7838 H 739.856 3.63996 -4.14983 0
M  V30 7839 H 742.332 3.51487 -2.22701 0
M  V30 7840 H 741.208 4.85916 -2.55298 0
M  V30 7841 H 741.469 4.32865 -0.898922 0
M  V30 7842 N 740.528 1.15101 1.07655 0
M  V30 7843 C 741.46 0.802722 2.14684 0
M  V30 7844 C 742.473 -0.183874 1.61758 0
M  V30 7845 O 743.662 0.0389349 1.78458 0
M  V30 7846 C 740.762 0.172135 3.38463 0
M  V30 7847 C 739.935 1.19538 4.20749 0
M  V30 7848 C 738.994 0.58714 5.22914 0
M  V30 7849 O 738.02 1.25224 5.55255 0
M  V30 7850 N 739.222 -0.632566 5.77043 0
M  V30 7851 H 741.987 1.72379 2.45164 0
M  V30 7852 H 739.548 1.04647 1.23534 0
M  V30 7853 H 741.54 -0.247465 4.03943 0
M  V30 7854 H 740.11 -0.652214 3.0572 0
M  V30 7855 H 739.33 1.79165 3.51132 0
M  V30 7856 H 740.618 1.88636 4.7254 0
M  V30 7857 H 740.016 -1.19135 5.53013 0
M  V30 7858 H 738.573 -0.994566 6.44167 0
M  V30 7859 N 742.006 -1.2595 0.947325 0
M  V30 7860 C 743.236 -1.97258 0.614235 0
M  V30 7861 C 743.644 -1.70682 -0.816355 0
M  V30 7862 O 742.987 -0.97527 -1.55673 0
M  V30 7863 C 743.049 -3.50845 0.784081 0
M  V30 7864 C 742.713 -4.01084 2.19045 0
M  V30 7865 C 743.71 -4.12347 3.16648 0
M  V30 7866 C 741.395 -4.34936 2.51268 0
M  V30 7867 C 743.389 -4.56766 4.44572 0
M  V30 7868 C 741.076 -4.79043 3.79422 0
M  V30 7869 C 742.074 -4.89919 4.75887 0
M  V30 7870 O 741.762 -5.3305 6.01758 0
M  V30 7871 H 741.494 -0.635738 0.22981 0
M  V30 7872 H 744.048 -1.61268 1.27207 0
M  V30 7873 H 742.278 -3.86638 0.069101 0
M  V30 7874 H 743.967 -4.03363 0.453135 0
M  V30 7875 H 744.733 -3.86432 2.93079 0
M  V30 7876 H 740.612 -4.25702 1.76916 0
M  V30 7877 H 744.156 -4.6517 5.19868 0
M  V30 7878 H 740.053 -5.04402 4.02802 0
M  V30 7879 H 740.821 -5.51255 6.05029 0
M  V30 7880 N 743.484 -0.715051 -1.40445 0
M  V30 7881 C 744.447 -0.0708726 -2.2909 0
M  V30 7882 C 745.447 0.687926 -1.45342 0
M  V30 7883 O 746.637 0.519908 -1.66261 0
M  V30 7884 C 743.769 0.909528 -3.28543 0
M  V30 7885 H 744.962 -0.851611 -2.87555 0
M  V30 7886 H 742.515 -0.479674 -1.48758 0
M  V30 7887 H 743.25 1.71734 -2.75096 0
M  V30 7888 H 743.035 0.368318 -3.90366 0
M  V30 7889 H 744.525 1.35744 -3.94922 0
M  V30 7890 N 744.962 1.50701 -0.461195 0
M  V30 7891 C 746.373 1.867 -0.00370227 0
M  V30 7892 C 746.724 1.37673 1.39787 0
M  V30 7893 O 745.849 0.737515 2.03445 0
M  V30 7894 C 746.444 3.388 5.75786e-05 0
M  V30 7895 C 745.003 3.74247 0.402044 0
M  V30 7896 C 744.15 2.74549 -0.389652 0
M  V30 7897 H 747.101 1.43585 -0.675942 0
M  V30 7898 H 747.122 3.719 0.804414 0
M  V30 7899 H 746.634 3.74452 -1.02015 0
M  V30 7900 H 744.735 3.44192 1.42697 0
M  V30 7901 H 744.848 4.78973 0.110265 0
M  V30 7902 H 743.212 2.54226 0.155314 0
M  V30 7903 H 743.995 3.13044 -1.40919 0
M  V30 7904 N 746.441 0.193421 1.56409 0
M  V30 7905 C 747.857 -0.162447 1.58771 0
M  V30 7906 C 748.057 -1.6116 1.20954 0
M  V30 7907 O 747.113 -2.3469 0.931497 0
M  V30 7908 C 748.426 0.138391 3.00381 0
M  V30 7909 C 749.974 0.0783649 3.12902 0
M  V30 7910 C 750.449 0.352491 4.56642 0
M  V30 7911 N 751.94 0.30105 4.62221 0
M  V30 7912 C 752.675 0.487028 5.71328 0
M  V30 7913 N 752.171 0.733265 6.88909 0
M  V30 7914 N 753.964 0.4214 5.60518 0
M  V30 7915 H 746.115 1.13909 1.79272 0
M  V30 7916 H 748.378 0.454528 0.83193 0
M  V30 7917 H 748.084 1.14312 3.32604 0
M  V30 7918 H 747.958 -0.559804 3.73023 0
M  V30 7919 H 750.345 -0.916963 2.80492 0
M  V30 7920 H 750.426 0.809611 2.4265 0
M  V30 7921 H 750.07 1.34513 4.89764 0
M  V30 7922 H 750 -0.399624 5.25081 0
M  V30 7923 H 752.491 0.117279 3.77718 0
M  V30 7924 H 752.804 0.86403 7.67955 0
M  V30 7925 H 751.149 0.770138 6.9072 0
M  V30 7926 H 754.34 0.229461 4.67537 0
M  V30 7927 H 754.513 0.569758 6.4549 0
M  V30 7928 N 747.919 -1.57396 -0.0801906 0
M  V30 7929 C 749.196 -1.77883 -0.813451 0
M  V30 7930 C 749.576 -0.778879 -1.96206 0
M  V30 7931 O 748.924 0.189683 -2.27711 0
M  V30 7932 C 749.134 -3.24116 -1.2942 0
M  V30 7933 C 750.482 -3.87714 -1.73098 0
M  V30 7934 O 751.506 -3.27956 -1.39007 0
M  V30 7935 O 750.365 -4.92828 -2.36184 0
M  V30 7936 H 747.459 -0.729727 -0.389138 0
M  V30 7937 H 750.005 -1.69591 -0.0609166 0
M  V30 7938 H 748.777 -3.88443 -0.471947 0
M  V30 7939 H 748.4 -3.371 -2.1083 0
M  V30 7940 N 749.397 0.351382 -1.53633 0
M  V30 7941 C 750.643 1.09411 -1.70754 0
M  V30 7942 C 750.976 1.88544 -0.465293 0
M  V30 7943 O 750.251 1.86923 0.537608 0
M  V30 7944 C 750.534 2.04173 -2.96623 0
M  V30 7945 C 750.387 1.28556 -4.31038 0
M  V30 7946 C 751.706 3.04102 -3.18136 0
M  V30 7947 H 748.825 0.396373 -0.621335 0
M  V30 7948 H 751.467 0.373464 -1.86293 0
M  V30 7949 H 749.617 2.65625 -2.83506 0
M  V30 7950 H 751.289 0.697786 -4.55992 0
M  V30 7951 H 749.532 0.587498 -4.29803 0
M  V30 7952 H 750.203 1.97989 -5.15271 0
M  V30 7953 H 752.679 2.5276 -3.30532 0
M  V30 7954 H 751.555 3.67616 -4.07615 0
M  V30 7955 H 751.816 3.75053 -2.34068 0
M  V30 7956 N 750.875 1.45233 0.611969 0
M  V30 7957 C 752.291 1.29542 0.932251 0
M  V30 7958 C 752.491 0.24523 2.00002 0
M  V30 7959 O 751.547 -0.362333 2.49887 0
M  V30 7960 C 752.86 2.67301 1.37733 0
M  V30 7961 C 754.408 2.75163 1.49178 0
M  V30 7962 C 754.883 4.13437 1.97064 0
M  V30 7963 N 756.374 4.15709 2.04304 0
M  V30 7964 C 757.109 5.19566 2.42568 0
M  V30 7965 N 756.605 6.33771 2.79832 0
M  V30 7966 N 758.398 5.06923 2.42869 0
M  V30 7967 H 750.549 2.12192 -0.0938679 0
M  V30 7968 H 752.812 0.947775 0.0206569 0
M  V30 7969 H 752.518 3.45318 0.666951 0
M  V30 7970 H 752.392 2.95472 2.3447 0
M  V30 7971 H 754.779 1.97453 2.19309 0
M  V30 7972 H 754.86 2.50712 0.507674 0
M  V30 7973 H 754.504 4.91631 1.27521 0
M  V30 7974 H 754.434 4.35277 2.9638 0
M  V30 7975 H 756.925 3.33293 1.78113 0
M  V30 7976 H 757.238 7.08815 3.07898 0
M  V30 7977 H 755.583 6.37179 2.77538 0
M  V30 7978 H 758.774 4.1675 2.1316 0
M  V30 7979 H 758.947 5.87981 2.72364 0
M  V30 7980 N 752.353 -0.854086 1.3245 0
M  V30 7981 C 753.599 -1.61069 1.23225 0
M  V30 7982 C 753.932 -1.93111 -0.205349 0
M  V30 7983 O 753.207 -1.57397 -1.14265 0
M  V30 7984 C 753.49 -2.93065 2.09249 0
M  V30 7985 C 753.343 -2.67801 3.6139 0
M  V30 7986 C 754.662 -3.94341 1.95406 0
M  V30 7987 H 751.781 -0.584449 0.448986 0
M  V30 7988 H 754.423 -0.986189 1.62402 0
M  V30 7989 H 752.573 -3.46364 1.75967 0
M  V30 7990 H 754.245 -2.21052 4.04887 0
M  V30 7991 H 752.488 -2.01756 3.84027 0
M  V30 7992 H 753.159 -3.6179 4.16907 0
M  V30 7993 H 755.635 -3.50301 2.24562 0
M  V30 7994 H 754.511 -4.84555 2.57872 0
M  V30 7995 H 754.772 -4.32382 0.921865 0
M  V30 7996 N 753.831 -1.1567 -1.07043 0
M  V30 7997 C 755.247 -0.900006 -1.31803 0
M  V30 7998 C 755.447 0.451293 -1.96381 0
M  V30 7999 O 754.503 1.19252 -2.22565 0
M  V30 8000 C 755.816 -2.04334 -2.20609 0
M  V30 8001 C 757.364 -2.07823 -2.34048 0
M  V30 8002 C 757.839 -3.21488 -3.26204 0
M  V30 8003 N 759.33 -3.21156 -3.33786 0
M  V30 8004 C 760.065 -4.05746 -4.05163 0
M  V30 8005 N 759.561 -5.00407 -4.79129 0
M  V30 8006 N 761.354 -3.93759 -4.01136 0
M  V30 8007 H 753.505 -2.02681 -0.635146 0
M  V30 8008 H 755.768 -0.883956 -0.342528 0
M  V30 8009 H 755.474 -3.01895 -1.80423 0
M  V30 8010 H 755.348 -1.97838 -3.21154 0
M  V30 8011 H 757.735 -1.1086 -2.73485 0
M  V30 8012 H 757.816 -2.18386 -1.33197 0
M  V30 8013 H 757.46 -4.18706 -2.87485 0
M  V30 8014 H 757.39 -3.08162 -4.27017 0
M  V30 8015 H 759.881 -2.52606 -2.81067 0
M  V30 8016 H 760.194 -5.61387 -5.31097 0
M  V30 8017 H 758.539 -5.04393 -4.78135 0
M  V30 8018 H 761.73 -3.19115 -3.42466 0
M  V30 8019 H 761.903 -4.59906 -4.56498 0
M  V30 8020 N 755.309 1.25446 -0.953992 0
M  V30 8021 C 756.256 2.25912 -0.472485 0
M  V30 8022 C 757.226 1.59173 0.47469 0
M  V30 8023 O 758.411 1.86812 0.388082 0
M  V30 8024 C 755.551 3.44235 0.244218 0
M  V30 8025 C 754.664 4.25613 -0.740121 0
M  V30 8026 C 753.799 5.312 -0.000922267 0
M  V30 8027 C 752.838 6.04265 -0.976236 0
M  V30 8028 N 751.975 7.01589 -0.267952 0
M  V30 8029 H 756.815 2.66469 -1.3341 0
M  V30 8030 H 754.352 1.31005 -0.669045 0
M  V30 8031 H 756.31 4.11682 0.676314 0
M  V30 8032 H 754.94 3.04554 1.06988 0
M  V30 8033 H 753.992 3.57834 -1.2907 0
M  V30 8034 H 755.304 4.762 -1.48441 0
M  V30 8035 H 754.458 6.04719 0.48984 0
M  V30 8036 H 753.197 4.81484 0.776159 0
M  V30 8037 H 752.202 5.29561 -1.478 0
M  V30 8038 H 753.427 6.5607 -1.75354 0
M  V30 8039 H 751.373 6.54164 0.490403 0
M  V30 8040 H 751.29 7.4999 -0.951344 0
M  V30 8041 H 752.558 7.7924 0.201294 0
M  V30 8042 N 756.787 0.722489 1.40064 0
M  V30 8043 C 758.036 0.261932 1.99992 0
M  V30 8044 C 758.349 -1.15358 1.57961 0
M  V30 8045 O 759.555 -1.71301 2.10637 0
M  V30 8046 C 758.011 0.41737 3.57472 0
M  V30 8047 C 757.619 1.83997 4.08472 0
M  V30 8048 C 759.363 0.0179561 4.24496 0
M  V30 8049 C 757.27 1.94563 5.5848 0
M  V30 8050 H 756.2 0.0941768 0.748095 0
M  V30 8051 H 758.851 0.894572 1.60218 0
M  V30 8052 H 757.233 -0.283965 3.94981 0
M  V30 8053 H 758.407 2.57224 3.82325 0
M  V30 8054 H 756.722 2.19147 3.54067 0
M  V30 8055 H 759.319 0.076085 5.34646 0
M  V30 8056 H 759.662 -1.02498 4.03485 0
M  V30 8057 H 760.195 0.669988 3.92117 0
M  V30 8058 H 756.934 2.97001 5.84355 0
M  V30 8059 H 756.454 1.25756 5.86469 0
M  V30 8060 H 758.133 1.72095 6.23692 0
M  V30 8061 N 758.265 -1.50454 0.469181 0
M  V30 8062 C 759.212 -2.28486 -0.325982 0
M  V30 8063 C 760.182 -1.33455 -0.988893 0
M  V30 8064 O 761.367 -1.6239 -1.0017 0
M  V30 8065 C 758.507 -3.15288 -1.40313 0
M  V30 8066 C 757.62 -4.25348 -0.755183 0
M  V30 8067 C 756.755 -4.9941 -1.81006 0
M  V30 8068 C 755.794 -6.01348 -1.14226 0
M  V30 8069 N 754.931 -6.68695 -2.1399 0
M  V30 8070 H 759.771 -2.95987 0.345753 0
M  V30 8071 H 757.308 -1.45965 0.182355 0
M  V30 8072 H 759.266 -3.63964 -2.03927 0
M  V30 8073 H 757.896 -2.49837 -2.04405 0
M  V30 8074 H 756.948 -3.80399 -0.00651901 0
M  V30 8075 H 758.26 -4.98279 -0.227941 0
M  V30 8076 H 757.414 -5.51794 -2.52206 0
M  V30 8077 H 756.153 -4.26181 -2.3711 0
M  V30 8078 H 755.158 -5.48225 -0.415876 0
M  V30 8079 H 756.383 -6.76548 -0.588135 0
M  V30 8080 H 754.329 -5.98258 -2.69115 0
M  V30 8081 H 754.246 -7.37495 -1.66246 0
M  V30 8082 H 755.514 -7.25697 -2.84576 0
M  V30 8083 N 759.743 -0.201713 -1.56304 0
M  V30 8084 C 761.154 0.309711 -1.84113 0
M  V30 8085 C 761.505 1.60912 -1.12258 0
M  V30 8086 O 760.63 2.12937 -0.385587 0
M  V30 8087 C 761.225 0.568706 -3.33993 0
M  V30 8088 C 759.784 1.02448 -3.6219 0
M  V30 8089 C 758.931 0.0766842 -2.77194 0
M  V30 8090 H 761.882 -0.425356 -1.52893 0
M  V30 8091 H 761.903 1.41721 -3.53122 0
M  V30 8092 H 761.415 -0.37719 -3.86263 0
M  V30 8093 H 759.516 1.98443 -3.15359 0
M  V30 8094 H 759.629 0.912619 -4.70328 0
M  V30 8095 H 757.993 0.579809 -2.48013 0
M  V30 8096 H 758.776 -0.863774 -3.32256 0
M  V30 8097 N 761.222 1.57436 0.0718424 0
M  V30 8098 C 762.152 2.06724 1.08571 0
M  V30 8099 C 763.133 0.960731 1.40371 0
M  V30 8100 O 764.318 1.23345 1.49999 0
M  V30 8101 C 761.448 2.51112 2.39916 0
M  V30 8102 C 760.402 3.65639 2.22469 0
M  V30 8103 C 759.728 3.96082 3.59198 0
M  V30 8104 C 761.028 4.95687 1.64596 0
M  V30 8105 H 762.722 2.91679 0.675569 0
M  V30 8106 H 760.268 1.40319 0.32352 0
M  V30 8107 H 762.221 2.84206 3.11135 0
M  V30 8108 H 760.945 1.63186 2.8291 0
M  V30 8109 H 759.604 3.32828 1.53691 0
M  V30 8110 H 759.252 3.05287 3.99761 0
M  V30 8111 H 758.952 4.73199 3.48362 0
M  V30 8112 H 760.476 4.31672 4.31847 0
M  V30 8113 H 761.89 5.27011 2.25681 0
M  V30 8114 H 760.287 5.77126 1.64457 0
M  V30 8115 H 761.357 4.8108 0.60744 0
M  V30 8116 N 762.7 -0.34323 1.53817 0
M  V30 8117 C 763.925 -1.1079 1.75329 0
M  V30 8118 C 764.35 -1.81571 0.491293 0
M  V30 8119 O 763.708 -1.72561 -0.556089 0
M  V30 8120 C 763.756 -2.09681 2.9337 0
M  V30 8121 O 762.86 -3.17207 2.63541 0
M  V30 8122 H 762.201 -0.320402 0.581583 0
M  V30 8123 H 764.731 -0.393525 2.0078 0
M  V30 8124 H 764.741 -2.52897 3.20168 0
M  V30 8125 H 763.416 -1.5756 3.84899 0
M  V30 8126 H 761.993 -2.78806 2.47632 0
M  V30 8127 N 764.178 -1.45556 -0.604258 0
M  V30 8128 C 765.088 -1.57025 -1.74299 0
M  V30 8129 C 766.104 -0.45456 -1.67958 0
M  V30 8130 O 767.28 -0.715711 -1.88254 0
M  V30 8131 C 764.345 -1.53702 -3.10768 0
M  V30 8132 C 763.406 -2.76335 -3.28538 0
M  V30 8133 C 762.639 -2.73161 -4.58496 0
M  V30 8134 O 762.862 -1.80678 -5.41028 0
M  V30 8135 O 761.796 -3.64409 -4.79051 0
M  V30 8136 H 765.622 -2.53284 -1.67573 0
M  V30 8137 H 763.207 -1.28104 -0.768745 0
M  V30 8138 H 765.089 -1.54468 -3.92068 0
M  V30 8139 H 763.764 -0.605957 -3.17978 0
M  V30 8140 H 762.671 -2.8113 -2.46813 0
M  V30 8141 H 764.004 -3.68578 -3.26207 0
M  V30 8142 N 765.656 0.84705 -1.32902 0
M  V30 8143 C 766.905 1.59667 -1.23245 0
M  V30 8144 C 767.218 1.94551 0.202349 0
M  V30 8145 O 768.424 2.68218 0.420847 0
M  V30 8146 C 766.88 2.8795 -2.15901 0
M  V30 8147 C 766.488 2.60461 -3.64505 0
M  V30 8148 C 768.232 3.65968 -2.15098 0
M  V30 8149 C 766.139 3.84791 -4.49099 0
M  V30 8150 H 765.069 0.599167 -0.457728 0
M  V30 8151 H 767.72 0.934662 -1.57912 0
M  V30 8152 H 766.102 3.55648 -1.74157 0
M  V30 8153 H 767.276 2.01026 -4.14639 0
M  V30 8154 H 765.591 1.9576 -3.67515 0
M  V30 8155 H 768.188 4.58241 -2.75534 0
M  V30 8156 H 768.531 4.00275 -1.14392 0
M  V30 8157 H 769.064 3.05184 -2.55162 0
M  V30 8158 H 765.803 3.55621 -5.50649 0
M  V30 8159 H 765.323 4.43594 -4.03713 0
M  V30 8160 H 767.002 4.52454 -4.62487 0
M  V30 8161 N 767.134 1.16236 1.06428 0
M  V30 8162 C 768.084 0.835994 2.12121 0
M  V30 8163 C 769.068 -0.183955 1.59845 0
M  V30 8164 O 770.26 0.0166741 1.76992 0
M  V30 8165 C 767.389 0.337333 3.41639 0
M  V30 8166 C 766.475 1.38798 4.00744 0
M  V30 8167 N 766.866 2.59799 4.3398 0
M  V30 8168 C 765.164 1.24292 4.28331 0
M  V30 8169 C 765.865 3.27213 4.80943 0
M  V30 8170 N 764.841 2.54594 4.80294 0
M  V30 8171 H 768.643 1.75615 2.35662 0
M  V30 8172 H 766.157 1.04921 1.23957 0
M  V30 8173 H 768.154 0.0851274 4.16813 0
M  V30 8174 H 766.814 -0.57677 3.19536 0
M  V30 8175 H 767.825 2.96867 4.24371 0
M  V30 8176 H 764.502 0.389464 4.15679 0
M  V30 8177 H 765.892 4.30492 5.15874 0
M  V30 8178 N 768.612 -1.24939 0.960631 0
M  V30 8179 C 769.837 -1.9742 0.635608 0
M  V30 8180 C 770.262 -1.70857 -0.786737 0
M  V30 8181 O 769.62 -0.968063 -1.53291 0
M  V30 8182 C 769.668 -3.48987 0.907771 0
M  V30 8183 O 768.772 -4.12399 -0.0104053 0
M  V30 8184 H 768.113 -0.61871 0.241027 0
M  V30 8185 H 770.643 -1.58901 1.28886 0
M  V30 8186 H 770.653 -3.99334 0.836453 0
M  V30 8187 H 769.328 -3.6765 1.94439 0
M  V30 8188 H 767.905 -3.72727 0.113631 0
M  V30 8189 N 770.09 -0.729906 -1.39679 0
M  V30 8190 C 771.338 -0.275077 -2.00219 0
M  V30 8191 C 771.659 1.1401 -1.58199 0
M  V30 8192 O 770.929 1.77546 -0.827904 0
M  V30 8193 H 769.509 -0.0987127 -0.740449 0
M  V30 8194 H 772.171 -0.93873 -1.70804 0
M  V30 8195 H 771.267 -0.319446 -3.10461 0
M  V30 8196 N 771.568 1.50203 -0.477153 0
M  V30 8197 C 772.516 2.30278 0.327826 0
M  V30 8198 C 773.51 1.37831 0.984839 0
M  V30 8199 O 774.716 1.54994 0.915251 0
M  V30 8200 H 771.091 0.741612 0.124564 0
M  V30 8201 H 773.062 2.96124 -0.367853 0
M  V30 8202 C 771.811 3.18548 1.39365 0
M  V30 8203 H 771.134 3.89596 0.897475 0
M  V30 8204 H 772.574 3.77561 1.92934 0
M  V30 8205 C 771.033 2.36548 2.39889 0
M  V30 8206 O 771.563 2.05282 3.45286 0
M  V30 8207 N 769.769 1.99015 2.11758 0
M  V30 8208 H 769.316 2.24641 1.26071 0
M  V30 8209 H 769.274 1.44454 2.7925 0
M  V30 8210 N 773.046 0.209999 1.56195 0
M  V30 8211 C 774.271 -0.433064 2.02828 0
M  V30 8212 C 774.696 -1.5337 1.08901 0
M  V30 8213 O 774.054 -1.81144 0.0751132 0
M  V30 8214 C 774.102 -0.952635 3.47789 0
M  V30 8215 O 773.206 -2.0647 3.56993 0
M  V30 8216 H 772.547 -0.0994594 0.656509 0
M  V30 8217 H 775.077 0.32525 2.01998 0
M  V30 8218 H 775.087 -1.26542 3.8788 0
M  V30 8219 H 773.762 -0.147007 4.1564 0
M  V30 8220 H 772.339 -1.75942 3.28784 0
M  V30 8221 N 774.524 -1.57472 -0.0634922 0
M  V30 8222 C 775.77 -1.87932 -0.762194 0
M  V30 8223 C 776.103 -0.803377 -1.76804 0
M  V30 8224 O 775.378 0.185468 -1.93614 0
M  V30 8225 C 775.661 -3.29053 -1.46275 0
M  V30 8226 C 775.514 -4.47309 -0.472755 0
M  V30 8227 C 776.833 -3.68537 -2.40558 0
M  V30 8228 H 773.952 -0.683521 -0.275624 0
M  V30 8229 H 776.594 -1.89983 -0.0252651 0
M  V30 8230 H 774.744 -3.27435 -2.0909 0
M  V30 8231 H 776.416 -4.61053 0.150828 0
M  V30 8232 H 774.659 -4.33286 0.211187 0
M  V30 8233 H 775.33 -5.42853 -1.00072 0
M  V30 8234 H 777.806 -3.71302 -1.87814 0
M  V30 8235 H 776.682 -4.68152 -2.86574 0
M  V30 8236 H 776.943 -2.98917 -3.25731 0
M  V30 8237 N 776.003 0.335068 -1.53997 0
M  V30 8238 C 777.228 1.09859 -1.75914 0
M  V30 8239 C 777.653 1.81308 -0.500915 0
M  V30 8240 O 777.011 1.72854 0.54693 0
M  V30 8241 C 777.059 2.08122 -2.94478 0
M  V30 8242 O 776.163 3.15805 -2.65219 0
M  V30 8243 H 775.504 0.317313 -0.583274 0
M  V30 8244 H 778.034 0.382872 -2.00986 0
M  V30 8245 H 778.044 2.51195 -3.21504 0
M  V30 8246 H 776.719 1.55517 -3.8573 0
M  V30 8247 H 775.296 2.77489 -2.49107 0
M  V30 8248 N 777.481 1.45874 0.596531 0
M  V30 8249 C 778.411 1.5824 1.71705 0
M  V30 8250 C 779.392 0.433366 1.64487 0
M  V30 8251 O 780.577 0.657895 1.82717 0
M  V30 8252 C 777.707 1.55927 3.10329 0
M  V30 8253 C 776.661 2.69659 3.32367 0
M  V30 8254 C 775.987 2.52403 4.71377 0
M  V30 8255 C 777.287 4.11591 3.21544 0
M  V30 8256 H 778.981 2.52035 1.61613 0
M  V30 8257 H 776.527 1.21297 0.776082 0
M  V30 8258 H 778.48 1.63173 3.88526 0
M  V30 8259 H 777.204 0.586674 3.21288 0
M  V30 8260 H 775.863 2.61859 2.56564 0
M  V30 8261 H 775.511 1.53258 4.79083 0
M  V30 8262 H 775.211 3.28679 4.87077 0
M  V30 8263 H 776.735 2.6152 5.5176 0
M  V30 8264 H 778.149 4.20576 3.89601 0
M  V30 8265 H 776.546 4.88344 3.4877 0
M  V30 8266 H 777.616 4.32719 2.1882 0
M  V30 8267 N 778.959 -0.83999 1.33349 0
M  V30 8268 C 779.891 -1.95678 1.19344 0
M  V30 8269 C 780.904 -1.62322 0.124692 0
M  V30 8270 O 782.093 -1.74516 0.375012 0
M  V30 8271 C 779.193 -3.29133 0.807771 0
M  V30 8272 C 778.366 -3.9063 1.96792 0
M  V30 8273 C 777.425 -5.02438 1.56341 0
M  V30 8274 O 776.451 -5.21646 2.27759 0
M  V30 8275 N 777.653 -5.78612 0.467767 0
M  V30 8276 H 780.418 -2.08229 2.15548 0
M  V30 8277 H 777.979 -1.01566 1.26079 0
M  V30 8278 H 779.971 -4.01355 0.519282 0
M  V30 8279 H 778.541 -3.12535 -0.063555 0
M  V30 8280 H 777.761 -3.11011 2.4221 0
M  V30 8281 H 779.049 -4.2845 2.74422 0
M  V30 8282 H 778.447 -5.65559 -0.126324 0
M  V30 8283 H 777.004 -6.51362 0.238945 0
M  V30 8284 N 780.437 -1.16799 -1.0581 0
M  V30 8285 C 781.677 -0.963264 -1.80279 0
M  V30 8286 C 782.041 0.499671 -1.85384 0
M  V30 8287 O 783.242 0.823264 -2.55882 0
M  V30 8288 C 781.513 -1.57938 -3.20609 0
M  V30 8289 S 783.072 -1.51997 -4.11634 0
M  V30 8290 H 779.89 -0.346302 -0.620964 0
M  V30 8291 H 782.492 -1.48632 -1.26999 0
M  V30 8292 H 781.196 -2.63672 -3.14492 0
M  V30 8293 H 780.727 -1.05586 -3.78966 0
M  V30 8294 H 782.742 -0.523625 -4.93429 0
M  V30 8295 N 781.915 1.24427 -0.967243 0
M  V30 8296 C 783.192 1.87831 -0.545776 0
M  V30 8297 C 783.572 1.87126 0.977099 0
M  V30 8298 O 782.92 1.34357 1.84826 0
M  V30 8299 C 783.13 3.29967 -1.13679 0
M  V30 8300 C 784.478 4.06654 -1.22139 0
M  V30 8301 O 785.502 3.39136 -1.08926 0
M  V30 8302 O 784.361 5.27455 -1.43017 0
M  V30 8303 H 781.455 0.806745 -0.181912 0
M  V30 8304 H 784.001 1.32403 -1.06148 0
M  V30 8305 H 782.773 3.24977 -2.17958 0
M  V30 8306 H 782.396 3.92969 -0.605093 0
M  V30 8307 N 783.393 0.737304 1.3929 0
M  V30 8308 C 784.64 0.286257 2.00467 0
M  V30 8309 C 784.968 -1.1272 1.58507 0
M  V30 8310 O 784.223 -1.7832 0.806257 0
M  V30 8311 C 784.522 0.338438 3.55794 0
M  V30 8312 C 784.188 1.70524 4.17411 0
M  V30 8313 C 782.85 2.07934 4.33955 0
M  V30 8314 C 785.202 2.60256 4.51571 0
M  V30 8315 C 782.53 3.34578 4.81948 0
M  V30 8316 C 784.882 3.86275 5.00974 0
M  V30 8317 C 783.546 4.23774 5.15725 0
M  V30 8318 H 782.816 0.104749 0.733559 0
M  V30 8319 H 785.463 0.944598 1.66582 0
M  V30 8320 H 783.768 -0.403478 3.89717 0
M  V30 8321 H 785.465 -0.0287255 4.0099 0
M  V30 8322 H 782.055 1.40439 4.04938 0
M  V30 8323 H 786.239 2.32624 4.38406 0
M  V30 8324 H 781.495 3.63572 4.91554 0
M  V30 8325 H 785.669 4.5596 5.26378 0
M  V30 8326 H 783.296 5.21972 5.52674 0
M  V30 8327 N 784.871 -1.49948 0.485112 0
M  V30 8328 C 786.096 -2.073 -0.0645059 0
M  V30 8329 C 786.521 -1.345 -1.31497 0
M  V30 8330 O 785.879 -0.39687 -1.76903 0
M  V30 8331 C 785.927 -3.59201 -0.317304 0
M  V30 8332 O 785.031 -3.88085 -1.39514 0
M  V30 8333 H 784.372 -0.663723 0.0191822 0
M  V30 8334 H 786.902 -1.92963 0.680179 0
M  V30 8335 H 786.912 -4.04227 -0.553604 0
M  V30 8336 H 785.587 -4.11602 0.596387 0
M  V30 8337 H 784.164 -3.54885 -1.14504 0
M  V30 8338 N 786.349 -0.21828 -1.56081 0
M  V30 8339 C 787.574 0.422302 -2.03055 0
M  V30 8340 C 787.999 1.5279 -1.09713 0
M  V30 8341 O 787.357 1.81102 -0.0847187 0
M  V30 8342 C 787.405 0.934177 -3.48289 0
M  V30 8343 O 786.509 2.04574 -3.58083 0
M  V30 8344 H 785.85 0.0959764 -0.657027 0
M  V30 8345 H 788.38 -0.335958 -2.01823 0
M  V30 8346 H 788.39 1.24484 -3.88546 0
M  V30 8347 H 787.065 0.124963 -4.15712 0
M  V30 8348 H 785.642 1.74196 -3.29712 0
M  V30 8349 N 787.827 1.57504 0.0551401 0
M  V30 8350 C 789.052 1.92682 0.767352 0
M  V30 8351 C 789.477 0.81614 1.69472 0
M  V30 8352 O 788.835 -0.229989 1.79835 0
M  V30 8353 C 788.883 3.26866 1.52286 0
M  V30 8354 O 787.987 3.17274 2.63459 0
M  V30 8355 H 787.328 0.630502 0.208238 0
M  V30 8356 H 789.858 2.04592 0.0184026 0
M  V30 8357 H 789.868 3.61138 1.8985 0
M  V30 8358 H 788.543 4.07276 0.842541 0
M  V30 8359 H 787.12 2.94589 2.2863 0
M  V30 8360 N 789.305 -0.326896 1.54172 0
M  V30 8361 C 790.255 -1.40319 1.79707 0
M  V30 8362 C 791.239 -1.47056 0.652938 0
M  V30 8363 O 792.431 -1.51645 0.91284 0
M  V30 8364 C 789.56 -2.77222 2.02491 0
M  V30 8365 C 788.646 -2.74811 3.23016 0
M  V30 8366 N 789.037 -2.42022 4.44138 0
M  V30 8367 C 787.335 -3.05943 3.24522 0
M  V30 8368 C 788.036 -2.48263 5.26061 0
M  V30 8369 N 787.012 -2.84567 4.63166 0
M  V30 8370 H 790.814 -1.13892 2.70935 0
M  V30 8371 H 788.328 -0.53536 1.53322 0
M  V30 8372 H 790.325 -3.54793 2.18923 0
M  V30 8373 H 788.985 -3.04582 1.12515 0
M  V30 8374 H 789.996 -2.14926 4.71197 0
M  V30 8375 H 786.673 -3.38367 2.44569 0
M  V30 8376 H 788.063 -2.2593 6.32776 0
M  V30 8377 N 790.784 -1.46188 -0.588786 0
M  V30 8378 C 792.195 -1.45421 -1.17088 0
M  V30 8379 C 792.546 -0.191801 -1.9526 0
M  V30 8380 O 791.671 0.705497 -2.04577 0
M  V30 8381 C 792.266 -2.63467 -2.13004 0
M  V30 8382 C 790.825 -2.6576 -2.6655 0
M  V30 8383 C 789.972 -2.38002 -1.42304 0
M  V30 8384 H 792.923 -1.54156 -0.377052 0
M  V30 8385 H 792.944 -2.38638 -2.96365 0
M  V30 8386 H 792.456 -3.55331 -1.56081 0
M  V30 8387 H 790.557 -1.77952 -3.27359 0
M  V30 8388 H 790.67 -3.65545 -3.09699 0
M  V30 8389 H 789.034 -1.87936 -1.71907 0
M  V30 8390 H 789.817 -3.32035 -0.872209 0
M  V30 8391 N 792.262 0.832906 -1.33792 0
M  V30 8392 C 793.209 1.94314 -1.24541 0
M  V30 8393 C 794.179 1.65646 -0.122753 0
M  V30 8394 O 795.364 1.88394 -0.30204 0
M  V30 8395 C 792.504 3.30395 -0.996641 0
M  V30 8396 C 791.617 3.71422 -2.20612 0
M  V30 8397 C 790.752 4.96401 -1.89101 0
M  V30 8398 C 789.791 5.2998 -3.06247 0
M  V30 8399 N 788.928 6.46137 -2.74685 0
M  V30 8400 H 793.768 2.01559 -2.19495 0
M  V30 8401 H 791.305 0.986243 -1.09141 0
M  V30 8402 H 793.263 4.08803 -0.832817 0
M  V30 8403 H 791.893 3.22691 -0.0838242 0
M  V30 8404 H 790.945 2.88488 -2.47949 0
M  V30 8405 H 792.257 3.92215 -3.0817 0
M  V30 8406 H 791.411 5.82572 -1.69396 0
M  V30 8407 H 790.15 4.7759 -0.987882 0
M  V30 8408 H 789.155 4.42312 -3.26559 0
M  V30 8409 H 790.38 5.50737 -3.97323 0
M  V30 8410 H 788.326 6.28801 -1.86938 0
M  V30 8411 H 788.243 6.67054 -3.55774 0
M  V30 8412 H 789.511 7.35403 -2.58461 0
M  V30 8413 N 793.74 1.17359 1.05189 0
M  V30 8414 C 794.65 0.904984 2.16442 0
M  V30 8415 C 795.666 -0.12686 1.73537 0
M  V30 8416 O 796.842 0.0524127 2.01332 0
M  V30 8417 C 793.907 0.422019 3.44122 0
M  V30 8418 C 792.968 1.52045 4.01473 0
M  V30 8419 C 792.201 1.06044 5.23059 0
M  V30 8420 O 792.424 -0.0854023 5.70336 0
M  V30 8421 O 791.358 1.85349 5.72651 0
M  V30 8422 H 795.184 1.8356 2.41949 0
M  V30 8423 H 792.769 0.95447 1.14936 0
M  V30 8424 H 794.651 0.160208 4.21095 0
M  V30 8425 H 793.326 -0.480444 3.20115 0
M  V30 8426 H 792.233 1.83615 3.25939 0
M  V30 8427 H 793.566 2.39863 4.29798 0
M  V30 8428 N 795.218 -1.23913 0.973828 0
M  V30 8429 C 796.464 -1.92436 0.640026 0
M  V30 8430 C 796.797 -1.75875 -0.823512 0
M  V30 8431 O 796.072 -1.11563 -1.59323 0
M  V30 8432 C 796.355 -3.4526 1.0231 0
M  V30 8433 C 796.208 -3.70961 2.54378 0
M  V30 8434 C 797.527 -4.36495 0.562155 0
M  V30 8435 H 794.646 -0.698868 0.233992 0
M  V30 8436 H 797.288 -1.46163 1.21393 0
M  V30 8437 H 795.438 -3.84802 0.534751 0
M  V30 8438 H 797.11 -3.40941 3.10737 0
M  V30 8439 H 795.353 -3.15899 2.97305 0
M  V30 8440 H 796.024 -4.77912 2.76232 0
M  V30 8441 H 798.5 -4.04363 0.981333 0
M  V30 8442 H 797.376 -5.42142 0.858689 0
M  V30 8443 H 797.637 -4.38818 -0.537659 0
M  V30 8444 N 796.696 -0.74468 -1.38897 0
M  V30 8445 C 797.628 -0.0713608 -2.29089 0
M  V30 8446 C 798.641 0.693224 -1.47303 0
M  V30 8447 O 799.83 0.535785 -1.70269 0
M  V30 8448 C 796.93 0.923078 -3.26087 0
M  V30 8449 C 796.103 0.217998 -4.36856 0
M  V30 8450 C 795.162 1.12192 -5.14101 0
M  V30 8451 O 794.188 0.595771 -5.66073 0
M  V30 8452 N 795.39 2.45082 -5.26227 0
M  V30 8453 H 798.155 -0.845906 -2.87514 0
M  V30 8454 H 795.716 -0.594712 -1.50581 0
M  V30 8455 H 797.708 1.53061 -3.74639 0
M  V30 8456 H 796.278 1.59876 -2.68623 0
M  V30 8457 H 795.498 -0.570134 -3.90055 0
M  V30 8458 H 796.786 -0.270248 -5.08082 0
M  V30 8459 H 796.184 2.90294 -4.85537 0
M  V30 8460 H 794.741 3.00907 -5.78185 0
M  V30 8461 N 798.174 1.49689 -0.493057 0
M  V30 8462 C 799.421 2.02427 0.0542714 0
M  V30 8463 C 799.749 1.37339 1.37725 0
M  V30 8464 O 799.004 0.495523 1.89323 0
M  V30 8465 C 799.303 3.56427 0.263536 0
M  V30 8466 C 798.969 4.40111 -0.98046 0
M  V30 8467 C 797.631 4.62699 -1.32148 0
M  V30 8468 C 799.983 4.88847 -1.80771 0
M  V30 8469 C 797.311 5.31268 -2.48941 0
M  V30 8470 C 799.663 5.587 -2.96711 0
M  V30 8471 C 798.327 5.79536 -3.31202 0
M  V30 8472 H 797.597 0.740734 0.0198593 0
M  V30 8473 H 800.244 1.80073 -0.651603 0
M  V30 8474 H 798.549 3.77416 1.05186 0
M  V30 8475 H 800.246 3.94819 0.701348 0
M  V30 8476 H 796.836 4.22765 -0.704814 0
M  V30 8477 H 801.02 4.71231 -1.55741 0
M  V30 8478 H 796.276 5.45603 -2.75911 0
M  V30 8479 H 800.45 5.9544 -3.61143 0
M  V30 8480 H 798.077 6.32443 -4.21805 0
M  V30 8481 N 799.652 0.226554 1.55963 0
M  V30 8482 C 800.899 -0.403789 1.98433 0
M  V30 8483 C 801.227 -1.59416 1.1143 0
M  V30 8484 O 800.482 -1.95042 0.160389 0
M  V30 8485 C 800.781 -0.87642 3.46488 0
M  V30 8486 C 800.447 0.203973 4.50438 0
M  V30 8487 C 799.109 0.500754 4.78587 0
M  V30 8488 C 801.461 0.934396 5.12756 0
M  V30 8489 C 798.789 1.53239 5.66334 0
M  V30 8490 C 801.141 1.9554 6.0162 0
M  V30 8491 C 799.805 2.25905 6.28111 0
M  V30 8492 H 799.075 -0.147757 0.726119 0
M  V30 8493 H 801.722 0.330121 1.88633 0
M  V30 8494 H 800.027 -1.68918 3.53517 0
M  V30 8495 H 801.724 -1.37407 3.76723 0
M  V30 8496 H 798.314 -0.0374917 4.28584 0
M  V30 8497 H 802.498 0.718355 4.91074 0
M  V30 8498 H 797.754 1.77321 5.85122 0
M  V30 8499 H 801.928 2.52642 6.48957 0
M  V30 8500 H 799.555 3.05985 6.959 0
M  V30 8501 N 801.13 -1.57531 -0.0467866 0
M  V30 8502 C 802.376 -1.89584 -0.736837 0
M  V30 8503 C 802.731 -0.82317 -1.73901 0
M  V30 8504 O 802.024 0.170098 -1.90843 0
M  V30 8505 C 802.218 -3.26091 -1.46285 0
M  V30 8506 C 802.047 -4.46536 -0.532502 0
M  V30 8507 C 800.817 -5.05046 -0.160109 0
M  V30 8508 C 803.015 -5.13979 0.181555 0
M  V30 8509 N 800.997 -6.09009 0.773349 0
M  V30 8510 C 802.368 -6.12345 0.971297 0
M  V30 8511 C 804.423 -4.9727 0.250382 0
M  V30 8512 C 803.126 -6.95802 1.82351 0
M  V30 8513 C 805.152 -5.81275 1.08965 0
M  V30 8514 C 804.514 -6.79197 1.86737 0
M  V30 8515 H 800.613 -0.742868 -0.244277 0
M  V30 8516 H 803.197 -1.947 0.0025481 0
M  V30 8517 H 801.368 -3.21938 -2.1728 0
M  V30 8518 H 803.1 -3.45715 -2.10389 0
M  V30 8519 H 799.855 -4.70754 -0.518457 0
M  V30 8520 H 800.279 -6.65658 1.23406 0
M  V30 8521 H 804.921 -4.21458 -0.336578 0
M  V30 8522 H 802.639 -7.70971 2.42134 0
M  V30 8523 H 806.225 -5.70397 1.14621 0
M  V30 8524 H 805.105 -7.4307 2.50631 0
M  V30 8525 N 802.608 0.318715 -1.54344 0
M  V30 8526 C 803.518 1.41535 -1.87097 0
M  V30 8527 C 804.534 1.56361 -0.763353 0
M  V30 8528 O 805.71 1.71365 -1.05811 0
M  V30 8529 C 802.775 2.76178 -2.09587 0
M  V30 8530 C 801.836 2.70486 -3.3337 0
M  V30 8531 C 801.069 3.98708 -3.54778 0
M  V30 8532 O 801.292 4.9721 -2.79532 0
M  V30 8533 O 800.226 4.01674 -4.48266 0
M  V30 8534 H 804.052 1.16764 -2.80357 0
M  V30 8535 H 801.637 0.51318 -1.4031 0
M  V30 8536 H 803.519 3.55873 -2.25682 0
M  V30 8537 H 802.194 3.00829 -1.19514 0
M  V30 8538 H 801.101 1.89325 -3.22656 0
M  V30 8539 H 802.434 2.50789 -4.23516 0
M  V30 8540 N 804.086 1.46499 0.581025 0
M  V30 8541 C 805.033 1.5719 1.68997 0
M  V30 8542 C 806.003 0.416114 1.60803 0
M  V30 8543 O 807.188 0.633086 1.79991 0
M  V30 8544 C 804.328 1.56973 3.07333 0
M  V30 8545 C 803.441 2.83298 3.26139 0
M  V30 8546 C 802.576 2.74574 4.54734 0
M  V30 8547 C 801.615 3.9583 4.66889 0
M  V30 8548 N 800.752 3.85482 5.86811 0
M  V30 8549 H 805.592 2.51914 1.59196 0
M  V30 8550 H 803.129 1.24975 0.775857 0
M  V30 8551 H 805.087 1.54832 3.87405 0
M  V30 8552 H 803.717 0.657803 3.16027 0
M  V30 8553 H 802.769 2.95411 2.3966 0
M  V30 8554 H 804.081 3.7316 3.30988 0
M  V30 8555 H 803.235 2.70548 5.43036 0
M  V30 8556 H 801.974 1.82354 4.52325 0
M  V30 8557 H 800.979 4.00186 3.77003 0
M  V30 8558 H 802.204 4.89148 4.71075 0
M  V30 8559 H 800.15 2.96051 5.85397 0
M  V30 8560 H 800.067 4.69002 5.92936 0
M  V30 8561 H 801.335 3.85434 6.7754 0
M  V30 8562 N 805.565 -0.825799 1.34232 0
M  V30 8563 C 806.513 -1.95792 1.25572 0
M  V30 8564 C 807.507 -1.68695 0.154404 0
M  V30 8565 O 808.713 -1.77147 0.319196 0
M  V30 8566 H 805.088 -0.642949 0.390027 0
M  V30 8567 H 807.059 -2.00219 2.21258 0
M  V30 8568 C 805.808 -3.32245 1.02511 0
M  V30 8569 H 805.131 -3.53642 1.86487 0
M  V30 8570 H 806.571 -4.1192 1.00487 0
M  V30 8571 C 805.03 -3.35803 -0.27167 0
M  V30 8572 O 805.56 -3.80962 -1.274 0
M  V30 8573 N 803.766 -2.89008 -0.303778 0
M  V30 8574 H 803.313 -2.52451 0.512464 0
M  V30 8575 H 803.271 -2.9177 -1.17121 0
M  V30 8576 N 807.043 -1.17915 -1.04565 0
M  V30 8577 C 808.291 -0.969505 -1.77327 0
M  V30 8578 C 808.612 0.502569 -1.88412 0
M  V30 8579 O 807.882 1.36467 -1.40547 0
M  V30 8580 H 806.462 -0.355723 -0.656864 0
M  V30 8581 H 809.124 -1.48506 -1.26223 0
M  V30 8582 H 808.22 -1.40324 -2.78775 0
M  V30 8583 N 808.521 1.23394 -0.980386 0
M  V30 8584 C 809.937 1.43961 -0.689008 0
M  V30 8585 C 810.137 1.87229 0.744809 0
M  V30 8586 O 809.193 2.01831 1.51725 0
M  V30 8587 C 810.506 2.49128 -1.68392 0
M  V30 8588 C 812.054 2.62941 -1.69796 0
M  V30 8589 C 812.529 3.71317 -2.68118 0
M  V30 8590 N 814.02 3.7876 -2.66636 0
M  V30 8591 C 814.755 4.62176 -3.39383 0
M  V30 8592 N 814.251 5.49682 -4.21688 0
M  V30 8593 N 816.044 4.56372 -3.28147 0
M  V30 8594 H 808.195 0.936106 -1.90659 0
M  V30 8595 H 810.458 0.473023 -0.821555 0
M  V30 8596 H 810.164 2.24252 -2.70931 0
M  V30 8597 H 810.038 3.47514 -1.46675 0
M  V30 8598 H 812.425 2.87168 -0.679617 0
M  V30 8599 H 812.506 1.64871 -1.95579 0
M  V30 8600 H 812.15 3.4784 -3.70095 0
M  V30 8601 H 812.08 4.68929 -2.3961 0
M  V30 8602 H 814.571 3.16226 -2.06904 0
M  V30 8603 H 814.884 6.10323 -4.74053 0
M  V30 8604 H 813.229 5.49306 -4.25779 0
M  V30 8605 H 816.42 3.87029 -2.63299 0
M  V30 8606 H 816.593 5.21153 -3.85102 0
M  V30 8607 N 809.999 0.752036 1.385 0
M  V30 8608 C 810.929 0.138718 2.33088 0
M  V30 8609 C 811.91 -0.705318 1.54788 0
M  V30 8610 O 813.095 -0.646821 1.83112 0
M  V30 8611 C 810.225 -0.75641 3.38963 0
M  V30 8612 C 809.179 -0.0152239 4.27997 0
M  V30 8613 C 808.505 -1.0285 5.24715 0
M  V30 8614 C 809.805 1.15226 5.09431 0
M  V30 8615 H 811.499 0.928852 2.84627 0
M  V30 8616 H 809.045 0.448111 1.3685 0
M  V30 8617 H 810.998 -1.19513 4.04097 0
M  V30 8618 H 809.722 -1.57885 2.85902 0
M  V30 8619 H 808.381 0.404061 3.64366 0
M  V30 8620 H 808.029 -1.84496 4.67943 0
M  V30 8621 H 807.729 -0.537238 5.85139 0
M  V30 8622 H 809.253 -1.46657 5.92726 0
M  V30 8623 H 810.667 0.791161 5.67815 0
M  V30 8624 H 809.064 1.57428 5.79082 0
M  V30 8625 H 810.134 1.9659 4.43261 0
M  V30 8626 N 811.477 -1.49425 0.500989 0
M  V30 8627 C 812.407 -2.31971 -0.266775 0
M  V30 8628 C 813.388 -1.40245 -0.962563 0
M  V30 8629 O 814.573 -1.69154 -0.953968 0
M  V30 8630 C 811.703 -3.20757 -1.33163 0
M  V30 8631 C 810.657 -4.21275 -0.75572 0
M  V30 8632 C 809.983 -4.98997 -1.92109 0
M  V30 8633 C 811.283 -5.21686 0.253213 0
M  V30 8634 H 812.977 -2.96408 0.422237 0
M  V30 8635 H 810.523 -1.4254 0.204505 0
M  V30 8636 H 812.476 -3.77315 -1.87646 0
M  V30 8637 H 811.2 -2.54263 -2.04983 0
M  V30 8638 H 809.859 -3.65861 -0.232637 0
M  V30 8639 H 809.507 -4.28951 -2.62698 0
M  V30 8640 H 809.207 -5.67011 -1.54182 0
M  V30 8641 H 810.731 -5.584 -2.47026 0
M  V30 8642 H 812.145 -5.72939 -0.203483 0
M  V30 8643 H 810.542 -5.9759 0.548322 0
M  V30 8644 H 811.612 -4.70596 1.16909 0
M  V30 8645 N 812.955 -0.234822 -1.55841 0
M  V30 8646 C 814.203 0.392483 -1.98252 0
M  V30 8647 C 814.524 1.59344 -1.12404 0
M  V30 8648 O 813.794 1.94834 -0.204055 0
M  V30 8649 H 812.374 0.147999 -0.732192 0
M  V30 8650 H 815.036 -0.330804 -1.92072 0
M  V30 8651 H 814.132 0.709829 -3.03921 0
M  V30 8652 N 814.433 1.57553 0.0384317 0
M  V30 8653 C 815.38 2.05942 1.04194 0
M  V30 8654 C 816.35 0.946637 1.36484 0
M  V30 8655 O 817.535 1.21658 1.46983 0
M  V30 8656 C 814.675 2.53588 2.34066 0
M  V30 8657 C 813.788 3.7862 2.08017 0
M  V30 8658 C 812.923 4.14915 3.31692 0
M  V30 8659 C 811.962 5.32891 3.01155 0
M  V30 8660 N 811.099 5.64662 4.17254 0
M  V30 8661 H 815.939 2.91429 0.622341 0
M  V30 8662 H 813.476 1.44098 0.295684 0
M  V30 8663 H 815.434 2.79276 3.09937 0
M  V30 8664 H 814.064 1.71031 2.73767 0
M  V30 8665 H 813.116 3.60073 1.22686 0
M  V30 8666 H 814.428 4.64613 1.81484 0
M  V30 8667 H 813.582 4.41681 4.15936 0
M  V30 8668 H 812.321 3.27555 3.6133 0
M  V30 8669 H 811.326 5.05887 2.15311 0
M  V30 8670 H 812.551 6.21896 2.72804 0
M  V30 8671 H 810.497 4.80261 4.46861 0
M  V30 8672 H 810.414 6.45145 3.94112 0
M  V30 8673 H 811.682 5.96 5.02399 0
M  V30 8674 N 815.911 -0.310526 1.54511 0
M  V30 8675 C 816.821 -1.4054 1.87844 0
M  V30 8676 C 817.837 -1.55954 0.771635 0
M  V30 8677 O 819.013 -1.70801 1.06719 0
M  V30 8678 C 816.078 -2.75063 2.11048 0
M  V30 8679 C 815.139 -2.68715 3.348 0
M  V30 8680 C 814.372 -3.96821 3.56887 0
M  V30 8681 O 814.595 -4.95721 2.82165 0
M  V30 8682 O 813.529 -3.99291 4.50389 0
M  V30 8683 H 817.355 -1.15275 2.80972 0
M  V30 8684 H 814.94 -0.505732 1.4058 0
M  V30 8685 H 816.822 -3.54671 2.27566 0
M  V30 8686 H 815.497 -3.00191 1.21108 0
M  V30 8687 H 814.404 -1.87611 3.23655 0
M  V30 8688 H 815.737 -2.4854 4.2484 0
M  V30 8689 N 817.389 -1.46805 -0.573248 0
M  V30 8690 C 818.614 -1.56433 -1.36175 0
M  V30 8691 C 819.039 -0.209336 -1.86932 0
M  V30 8692 O 818.397 0.812146 -1.62092 0
M  V30 8693 C 818.445 -2.58055 -2.51873 0
M  V30 8694 O 817.549 -2.12214 -3.53609 0
M  V30 8695 H 816.89 -0.526068 -0.405153 0
M  V30 8696 H 819.42 -1.92456 -0.694405 0
M  V30 8697 H 819.43 -2.77966 -2.98662 0
M  V30 8698 H 818.105 -3.56448 -2.14284 0
M  V30 8699 H 816.682 -2.02333 -3.13234 0
M  V30 8700 N 818.867 0.818669 -1.34668 0
M  V30 8701 C 819.799 1.93754 -1.22442 0
M  V30 8702 C 820.812 1.62103 -0.150501 0
M  V30 8703 O 822.001 1.73898 -0.402728 0
M  V30 8704 C 819.101 3.27806 -0.860031 0
M  V30 8705 C 818.274 3.8745 -2.02981 0
M  V30 8706 C 817.333 4.99887 -1.64314 0
M  V30 8707 O 816.359 5.17957 -2.36029 0
M  V30 8708 N 817.561 5.77795 -0.55976 0
M  V30 8709 H 820.326 2.04773 -2.18833 0
M  V30 8710 H 817.887 0.995472 -1.27679 0
M  V30 8711 H 819.879 4.00478 -0.583068 0
M  V30 8712 H 818.449 3.12597 0.0138253 0
M  V30 8713 H 817.669 3.07119 -2.47127 0
M  V30 8714 H 818.957 4.2403 -2.81204 0
M  V30 8715 H 818.355 5.65688 0.0363329 0
M  V30 8716 H 816.912 6.50899 -0.342541 0
M  V30 8717 N 820.346 1.18468 1.03938 0
M  V30 8718 C 821.276 0.936389 2.13902 0
M  V30 8719 C 822.257 -0.126381 1.6963 0
M  V30 8720 O 823.442 0.0264757 1.94182 0
M  V30 8721 C 820.572 0.462729 3.44204 0
M  V30 8722 C 819.526 1.46613 4.02105 0
M  V30 8723 C 818.852 0.84994 5.27902 0
M  V30 8724 C 820.152 2.84323 4.3813 0
M  V30 8725 H 821.846 1.85602 2.3493 0
M  V30 8726 H 819.392 0.893806 1.12903 0
M  V30 8727 H 821.345 0.276382 4.20493 0
M  V30 8728 H 820.069 -0.492477 3.22866 0
M  V30 8729 H 818.728 1.63944 3.27899 0
M  V30 8730 H 818.376 -0.112493 5.02874 0
M  V30 8731 H 818.076 1.51988 5.67603 0
M  V30 8732 H 819.6 0.674152 6.06867 0
M  V30 8733 H 821.014 2.70636 5.054 0
M  V30 8734 H 819.411 3.48012 4.88884 0
M  V30 8735 H 820.481 3.37776 3.47901 0
M  V30 8736 N 821.824 -1.22873 0.986916 0
M  V30 8737 C 822.772 -2.26597 0.525043 0
M  V30 8738 C 823.766 -1.64079 -0.421252 0
M  V30 8739 O 824.972 -1.77576 -0.294429 0
M  V30 8740 H 821.347 -0.736606 0.151381 0
M  V30 8741 H 823.318 -2.62909 1.41142 0
M  V30 8742 C 822.067 -3.47374 -0.150542 0
M  V30 8743 H 821.39 -3.95737 0.568541 0
M  V30 8744 H 822.83 -4.21739 -0.437256 0
M  V30 8745 C 821.289 -3.07163 -1.38392 0
M  V30 8746 O 821.819 -3.16028 -2.47971 0
M  V30 8747 N 820.025 -2.62009 -1.25697 0
M  V30 8748 H 819.572 -2.54996 -0.365355 0
M  V30 8749 H 819.53 -2.35472 -2.08327 0
M  V30 8750 N 823.302 -0.75937 -1.38099 0
M  V30 8751 C 824.549 -0.318113 -1.99986 0
M  V30 8752 C 824.877 1.10184 -1.6028 0
M  V30 8753 O 824.132 1.77015 -0.834524 0
M  V30 8754 C 824.431 -0.394999 -3.55211 0
M  V30 8755 C 824.097 -1.77143 -4.14646 0
M  V30 8756 C 822.759 -2.14811 -4.30592 0
M  V30 8757 C 825.111 -2.67407 -4.47373 0
M  V30 8758 C 822.439 -3.42203 -4.76565 0
M  V30 8759 C 824.791 -3.94196 -4.94765 0
M  V30 8760 C 823.455 -4.31925 -5.08918 0
M  V30 8761 H 822.725 -0.116406 -0.7318 0
M  V30 8762 H 825.372 -0.97098 -1.65058 0
M  V30 8763 H 823.677 0.341426 -3.9031 0
M  V30 8764 H 825.374 -0.0350722 -4.00985 0
M  V30 8765 H 821.964 -1.46864 -4.02652 0
M  V30 8766 H 826.148 -2.39569 -4.3465 0
M  V30 8767 H 821.404 -3.71346 -4.85708 0
M  V30 8768 H 825.578 -4.64276 -5.19057 0
M  V30 8769 H 823.205 -5.30699 -5.443 0
M  V30 8770 N 824.78 1.49157 -0.508906 0
M  V30 8771 C 826.057 1.95363 0.0961913 0
M  V30 8772 C 826.437 1.45064 1.53362 0
M  V30 8773 O 825.785 0.667835 2.18523 0
M  V30 8774 C 825.995 3.49 0.000688881 0
M  V30 8775 C 827.343 4.24257 0.170632 0
M  V30 8776 O 828.367 3.5612 0.0754994 0
M  V30 8777 O 827.226 5.45267 0.366957 0
M  V30 8778 H 824.32 0.821984 0.0909489 0
M  V30 8779 H 826.866 1.59769 -0.572007 0
M  V30 8780 H 825.638 3.78269 -1.00143 0
M  V30 8781 H 825.261 3.91233 0.708682 0
M  V30 8782 N 826.258 0.243083 1.55714 0
M  V30 8783 C 827.483 -0.389944 2.03701 0
M  V30 8784 C 827.908 -1.51025 1.12129 0
M  V30 8785 O 827.266 -1.80944 0.11352 0
M  V30 8786 C 827.314 -0.878649 3.49731 0
M  V30 8787 O 826.418 -1.98851 3.61292 0
M  V30 8788 H 825.759 -0.0855115 0.658471 0
M  V30 8789 H 828.289 0.368023 2.01263 0
M  V30 8790 H 828.299 -1.18287 3.90477 0
M  V30 8791 H 826.974 -0.0588107 4.15858 0
M  V30 8792 H 825.551 -1.68928 3.32442 0
M  V30 8793 N 827.736 -1.57571 -0.0300757 0
M  V30 8794 C 828.985 -1.88407 -0.720126 0
M  V30 8795 C 829.298 -0.841466 -1.76575 0
M  V30 8796 O 830.504 -1.03902 -2.50832 0
M  V30 8797 C 828.96 -3.34348 -1.33188 0
M  V30 8798 C 828.568 -4.46837 -0.32266 0
M  V30 8799 C 830.312 -3.74333 -2.00187 0
M  V30 8800 C 828.219 -5.83838 -0.942703 0
M  V30 8801 H 827.149 -0.702952 -0.272718 0
M  V30 8802 H 829.8 -1.83482 0.0255337 0
M  V30 8803 H 828.182 -3.34014 -2.12721 0
M  V30 8804 H 829.356 -4.58638 0.445887 0
M  V30 8805 H 827.671 -4.15678 0.245181 0
M  V30 8806 H 830.268 -4.74008 -2.47428 0
M  V30 8807 H 830.611 -3.06275 -2.81959 0
M  V30 8808 H 831.144 -3.76837 -1.2743 0
M  V30 8809 H 827.883 -6.55294 -0.164413 0
M  V30 8810 H 827.403 -5.75759 -1.68111 0
M  V30 8811 H 829.082 -6.30535 -1.45034 0
M  V30 8812 N 829.214 0.302327 -1.54673 0
M  V30 8813 C 830.439 1.06103 -1.78205 0
M  V30 8814 C 830.864 1.80204 -0.53926 0
M  V30 8815 O 830.222 1.73975 0.510142 0
M  V30 8816 C 830.27 2.01829 -2.98827 0
M  V30 8817 O 829.374 3.10108 -2.71858 0
M  V30 8818 H 828.715 0.30487 -0.589873 0
M  V30 8819 H 831.245 0.340153 -2.01753 0
M  V30 8820 H 831.255 2.44319 -3.2676 0
M  V30 8821 H 829.93 1.473 -3.88942 0
M  V30 8822 H 828.507 2.72142 -2.54937 0
M  V30 8823 N 830.692 1.47107 0.565454 0
M  V30 8824 C 832.103 1.47266 1.1476 0
M  V30 8825 C 832.454 0.222841 1.9493 0
M  V30 8826 O 831.579 -0.672862 2.05673 0
M  V30 8827 C 832.174 2.66822 2.08785 0
M  V30 8828 C 830.733 2.69967 2.62288 0
M  V30 8829 C 829.88 2.40236 1.38499 0
M  V30 8830 H 832.831 1.54736 0.352479 0
M  V30 8831 H 832.852 2.43323 2.92531 0
M  V30 8832 H 832.364 3.5777 1.50408 0
M  V30 8833 H 830.465 1.83137 3.24487 0
M  V30 8834 H 830.578 3.70426 3.03845 0
M  V30 8835 H 828.942 1.90648 1.68895 0
M  V30 8836 H 829.725 3.33381 0.819274 0
M  V30 8837 N 832.17 -0.811516 1.35101 0
M  V30 8838 C 833.08 -1.95475 1.29718 0
M  V30 8839 C 834.096 -1.72813 0.202909 0
M  V30 8840 O 835.272 -1.96725 0.431414 0
M  V30 8841 C 832.337 -3.29975 1.06385 0
M  V30 8842 C 831.398 -3.65566 2.25077 0
M  V30 8843 C 830.631 -4.93648 2.02848 0
M  V30 8844 O 830.854 -5.617 0.992442 0
M  V30 8845 O 829.788 -5.27384 2.90087 0
M  V30 8846 H 833.614 -2.02961 2.25921 0
M  V30 8847 H 831.199 -0.948583 1.15422 0
M  V30 8848 H 833.081 -4.10506 0.951999 0
M  V30 8849 H 831.756 -3.2343 0.132294 0
M  V30 8850 H 830.663 -2.85432 2.41825 0
M  V30 8851 H 831.996 -3.7681 3.16662 0
M  V30 8852 N 833.648 -1.19017 -1.03309 0
M  V30 8853 C 834.925 -0.899659 -1.73682 0
M  V30 8854 C 835.305 0.595677 -2.02521 0
M  V30 8855 O 834.653 1.55263 -1.67648 0
M  V30 8856 C 834.863 -1.75508 -3.01659 0
M  V30 8857 C 836.211 -1.98679 -3.75249 0
M  V30 8858 O 837.235 -1.72624 -3.11576 0
M  V30 8859 O 836.094 -2.42587 -4.89708 0
M  V30 8860 H 833.188 -0.334903 -0.756154 0
M  V30 8861 H 835.734 -1.29809 -1.09305 0
M  V30 8862 H 834.506 -2.7684 -2.76542 0
M  V30 8863 H 834.129 -1.35565 -3.73775 0
M  V30 8864 N 835.127 1.22348 -0.993418 0
M  V30 8865 C 836.09 2.22522 -0.549251 0
M  V30 8866 C 837.09 1.56529 0.368164 0
M  V30 8867 O 838.28 1.73463 0.16005 0
M  V30 8868 C 835.412 3.40307 0.201037 0
M  V30 8869 H 836.605 2.63332 -1.43515 0
M  V30 8870 H 834.158 1.35407 -0.78068 0
M  V30 8871 H 834.893 3.0497 1.10289 0
M  V30 8872 H 834.678 3.8942 -0.457685 0
M  V30 8873 H 836.168 4.14597 0.499946 0
M  V30 8874 N 836.605 0.766683 1.37694 0
M  V30 8875 C 837.853 0.328065 1.9942 0
M  V30 8876 C 838.174 -1.09775 1.61166 0
M  V30 8877 O 837.444 -1.75288 0.874686 0
M  V30 8878 H 836.024 0.11831 0.737572 0
M  V30 8879 H 838.686 0.983686 1.68255 0
M  V30 8880 H 837.782 0.401647 3.09505 0
M  V30 8881 N 838.083 -1.48885 0.516809 0
M  V30 8882 C 839.308 -2.0739 -0.0205201 0
M  V30 8883 C 839.733 -1.37259 -1.28614 0
M  V30 8884 O 839.091 -0.434304 -1.76021 0
M  V30 8885 C 839.139 -3.59793 -0.24104 0
M  V30 8886 O 838.243 -3.90957 -1.31251 0
M  V30 8887 H 837.584 -0.663167 0.0332564 0
M  V30 8888 H 840.114 -1.91477 0.720956 0
M  V30 8889 H 840.124 -4.0531 -0.467737 0
M  V30 8890 H 838.799 -4.10244 0.68356 0
M  V30 8891 H 837.376 -3.57234 -1.06951 0
M  V30 8892 N 839.561 -0.251338 -1.55583 0
M  V30 8893 C 840.791 0.375642 -2.03156 0
M  V30 8894 C 841.199 1.51761 -1.12983 0
M  V30 8895 O 840.542 1.83184 -0.13757 0
M  V30 8896 C 840.604 0.941001 -3.46966 0
M  V30 8897 C 840.268 -0.0692886 -4.56947 0
M  V30 8898 C 841.265 -0.88041 -5.12391 0
M  V30 8899 C 838.95 -0.196661 -5.01915 0
M  V30 8900 C 840.944 -1.80532 -6.11299 0
M  V30 8901 C 838.631 -1.12507 -6.00654 0
M  V30 8902 C 839.629 -1.92792 -6.55225 0
M  V30 8903 O 839.317 -2.84067 -7.52038 0
M  V30 8904 H 839.049 0.0928836 -0.669588 0
M  V30 8905 H 841.603 -0.374115 -2.01964 0
M  V30 8906 H 839.833 1.7404 -3.45322 0
M  V30 8907 H 841.522 1.47853 -3.78014 0
M  V30 8908 H 842.288 -0.792615 -4.78479 0
M  V30 8909 H 838.167 0.418187 -4.59099 0
M  V30 8910 H 841.711 -2.43239 -6.5382 0
M  V30 8911 H 837.608 -1.21377 -6.33986 0
M  V30 8912 H 838.376 -2.78479 -7.6967 0
M  V30 8913 N 841.039 1.57585 0.0217189 0
M  V30 8914 C 842.264 1.94267 0.726309 0
M  V30 8915 C 842.689 0.851904 1.67703 0
M  V30 8916 O 842.047 -0.191792 1.80283 0
M  V30 8917 C 842.095 3.30023 1.45318 0
M  V30 8918 O 841.199 3.22791 2.5667 0
M  V30 8919 H 840.54 0.634777 0.194818 0
M  V30 8920 H 843.07 2.04585 -0.0249985 0
M  V30 8921 H 843.08 3.65084 1.82147 0
M  V30 8922 H 841.755 4.08972 0.755962 0
M  V30 8923 H 840.332 2.99373 2.2233 0
M  V30 8924 N 842.517 -0.29412 1.54831 0
M  V30 8925 C 843.757 -1.03635 1.76179 0
M  V30 8926 C 844.121 -1.84251 0.539953 0
M  V30 8927 O 845.322 -2.61282 0.631295 0
M  V30 8928 C 843.593 -1.91275 3.01909 0
M  V30 8929 S 845.152 -2.7205 3.44288 0
M  V30 8930 H 841.97 -0.349403 0.619224 0
M  V30 8931 H 844.572 -0.309006 1.93042 0
M  V30 8932 H 843.276 -1.30937 3.88952 0
M  V30 8933 H 842.807 -2.68365 2.87652 0
M  V30 8934 H 844.822 -3.93791 3.01899 0
M  V30 8935 N 843.995 -1.47404 -0.557645 0
M  V30 8936 C 845.241 -1.55219 -1.31449 0
M  V30 8937 C 845.596 -0.211457 -1.91234 0
M  V30 8938 O 844.889 0.782795 -1.7488 0
M  V30 8939 C 845.083 -2.6061 -2.44575 0
M  V30 8940 C 844.912 -4.048 -1.95875 0
M  V30 8941 C 843.682 -4.72252 -1.79738 0
M  V30 8942 C 845.88 -4.91833 -1.50348 0
M  V30 8943 N 843.862 -6.00962 -1.25372 0
M  V30 8944 C 845.233 -6.10566 -1.07745 0
M  V30 8945 C 847.288 -4.78279 -1.38396 0
M  V30 8946 C 845.991 -7.17242 -0.543767 0
M  V30 8947 C 848.017 -5.8505 -0.864293 0
M  V30 8948 C 847.379 -7.02973 -0.44818 0
M  V30 8949 H 843.478 -0.622694 -0.47305 0
M  V30 8950 H 846.062 -1.84152 -0.632144 0
M  V30 8951 H 844.233 -2.33545 -3.10341 0
M  V30 8952 H 845.965 -2.5827 -3.11574 0
M  V30 8953 H 842.72 -4.28153 -2.0244 0
M  V30 8954 H 843.144 -6.69532 -1.00278 0
M  V30 8955 H 847.786 -3.87477 -1.69179 0
M  V30 8956 H 845.504 -8.07791 -0.223563 0
M  V30 8957 H 849.09 -5.7661 -0.775371 0
M  V30 8958 H 847.97 -7.84183 -0.0522964 0
M  V30 8959 N 845.473 0.80434 -1.35529 0
M  V30 8960 C 846.719 1.56385 -1.29118 0
M  V30 8961 C 847.052 1.9374 0.133536 0
M  V30 8962 O 846.327 1.6153 1.08344 0
M  V30 8963 C 846.61 2.85097 -2.19981 0
M  V30 8964 C 846.463 2.54204 -3.7108 0
M  V30 8965 C 847.782 3.86817 -2.09907 0
M  V30 8966 H 844.901 0.567382 -0.470368 0
M  V30 8967 H 847.543 0.925235 -1.6595 0
M  V30 8968 H 845.693 3.39594 -1.88701 0
M  V30 8969 H 847.365 2.05872 -4.12813 0
M  V30 8970 H 845.608 1.87364 -3.91251 0
M  V30 8971 H 846.279 3.46068 -4.30048 0
M  V30 8972 H 848.755 3.41725 -2.37409 0
M  V30 8973 H 847.631 4.7465 -2.75678 0
M  V30 8974 H 847.892 4.28663 -1.08171 0
M  V30 8975 N 846.951 1.19563 1.02676 0
M  V30 8976 C 847.899 0.931942 2.13114 0
M  V30 8977 C 848.893 -0.113007 1.69023 0
M  V30 8978 O 850.099 0.0364298 1.79963 0
M  V30 8979 H 846.474 0.283981 0.696318 0
M  V30 8980 H 848.445 1.86991 2.32545 0
M  V30 8981 C 847.194 0.489461 3.44238 0
M  V30 8982 H 846.517 1.28508 3.78584 0
M  V30 8983 H 847.957 0.34408 4.22602 0
M  V30 8984 C 846.416 -0.796761 3.27343 0
M  V30 8985 O 846.946 -1.85767 3.56165 0
M  V30 8986 N 845.152 -0.754824 2.80626 0
M  V30 8987 H 844.699 0.108778 2.5737 0
M  V30 8988 H 844.657 -1.6158 2.69702 0
M  V30 8989 N 848.429 -1.21819 0.999893 0
M  V30 8990 C 849.377 -2.26027 0.549047 0
M  V30 8991 C 850.371 -1.64516 -0.403826 0
M  V30 8992 O 851.577 -1.77878 -0.275578 0
M  V30 8993 H 847.952 -0.734958 0.159185 0
M  V30 8994 H 849.923 -2.61398 1.43923 0
M  V30 8995 C 848.672 -3.47514 -0.11369 0
M  V30 8996 H 847.995 -3.95112 0.610482 0
M  V30 8997 H 849.435 -4.22179 -0.3925 0
M  V30 8998 C 847.894 -3.08614 -1.35126 0
M  V30 8999 O 848.424 -3.1864 -2.44605 0
M  V30 9000 N 846.63 -2.63327 -1.22911 0
M  V30 9001 H 846.177 -2.55369 -0.338288 0
M  V30 9002 H 846.135 -2.37668 -2.05818 0
M  V30 9003 N 849.908 -0.773975 -1.37286 0
M  V30 9004 C 851.133 -0.349561 -2.04433 0
M  V30 9005 C 851.558 1.02082 -1.5799 0
M  V30 9006 O 850.916 1.65458 -0.741172 0
M  V30 9007 C 850.964 -0.404292 -3.58326 0
M  V30 9008 O 850.068 0.594447 -4.08093 0
M  V30 9009 H 849.409 -0.150959 -0.646612 0
M  V30 9010 H 851.939 -1.05079 -1.75555 0
M  V30 9011 H 851.949 -0.262378 -4.07155 0
M  V30 9012 H 850.624 -1.40403 -3.91484 0
M  V30 9013 H 849.201 0.415468 -3.70578 0
M  V30 9014 N 851.386 1.48609 -0.524698 0
M  V30 9015 C 852.635 2.01696 0.0132937 0
M  V30 9016 C 852.948 1.40751 1.35825 0
M  V30 9017 O 854.154 1.85304 1.9843 0
M  V30 9018 C 852.61 3.59824 0.0741012 0
M  V30 9019 C 852.218 4.2975 -1.26564 0
M  V30 9020 C 853.962 4.20774 0.5612 0
M  V30 9021 C 851.869 5.79798 -1.16571 0
M  V30 9022 H 850.799 0.753949 0.00873931 0
M  V30 9023 H 853.45 1.70922 -0.667684 0
M  V30 9024 H 851.832 3.87416 0.820043 0
M  V30 9025 H 853.006 4.13836 -2.02674 0
M  V30 9026 H 851.321 3.80649 -1.68806 0
M  V30 9027 H 853.918 5.30687 0.653853 0
M  V30 9028 H 854.261 3.85734 1.56573 0
M  V30 9029 H 854.794 3.97591 -0.128901 0
M  V30 9030 H 851.533 6.19403 -2.14523 0
M  V30 9031 H 851.053 5.9814 -0.445894 0
M  V30 9032 H 852.732 6.41337 -0.854186 0
M  V30 9033 N 852.864 0.259585 1.55447 0
M  V30 9034 C 854.112 -0.360893 1.98852 0
M  V30 9035 C 854.433 -1.57535 1.14924 0
M  V30 9036 O 853.703 -1.94485 0.235025 0
M  V30 9037 H 852.283 -0.136332 0.734454 0
M  V30 9038 H 854.945 0.361319 1.91522 0
M  V30 9039 H 854.041 -0.661388 3.05012 0
M  V30 9040 N 854.342 -1.57594 -0.0133615 0
M  V30 9041 C 855.274 -2.04402 -1.03695 0
M  V30 9042 C 856.287 -0.959546 -1.31516 0
M  V30 9043 O 857.476 -1.23659 -1.28727 0
M  V30 9044 C 854.576 -2.41766 -2.37491 0
M  V30 9045 C 853.749 -3.72785 -2.28802 0
M  V30 9046 C 852.808 -3.97165 -3.45176 0
M  V30 9047 O 851.834 -4.68013 -3.23963 0
M  V30 9048 N 853.036 -3.44021 -4.67579 0
M  V30 9049 H 855.801 -2.92833 -0.637874 0
M  V30 9050 H 853.362 -1.60647 -0.20101 0
M  V30 9051 H 855.354 -2.55201 -3.14093 0
M  V30 9052 H 853.924 -1.58924 -2.69188 0
M  V30 9053 H 853.144 -3.69555 -1.37197 0
M  V30 9054 H 854.432 -4.58704 -2.20154 0
M  V30 9055 H 853.83 -2.86623 -4.87713 0
M  V30 9056 H 852.387 -3.62808 -5.41492 0
M  V30 9057 N 855.82 0.285905 -1.54985 0
M  V30 9058 C 857.048 1.03776 -1.78992 0
M  V30 9059 C 857.463 1.80402 -0.556814 0
M  V30 9060 O 856.82 1.76242 0.473801 0
M  V30 9061 C 856.871 2.0065 -3.00702 0
M  V30 9062 O 856.592 1.27131 -4.19249 0
M  V30 9063 C 858.093 2.87753 -3.37214 0
M  V30 9064 H 855.313 0.307126 -0.596586 0
M  V30 9065 H 857.857 0.3206 -2.01971 0
M  V30 9066 H 856.012 2.67847 -2.79887 0
M  V30 9067 H 856.426 1.92316 -4.8797 0
M  V30 9068 H 857.9 3.51548 -4.2558 0
M  V30 9069 H 858.377 3.56848 -2.56039 0
M  V30 9070 H 858.983 2.26065 -3.60242 0
M  V30 9071 N 857.298 1.47698 0.54982 0
M  V30 9072 C 858.261 1.60282 1.63837 0
M  V30 9073 C 859.261 0.477394 1.5355 0
M  V30 9074 O 860.451 0.742665 1.57576 0
M  V30 9075 C 857.583 1.55431 3.03404 0
M  V30 9076 H 858.776 2.57325 1.54026 0
M  V30 9077 H 856.329 1.35999 0.770329 0
M  V30 9078 H 857.064 0.597912 3.1874 0
M  V30 9079 H 856.849 2.37116 3.12279 0
M  V30 9080 H 858.339 1.6739 3.82584 0
M  V30 9081 N 858.776 -0.797141 1.35954 0
M  V30 9082 C 860.001 -1.59097 1.33053 0
M  V30 9083 C 860.426 -1.87897 -0.0874592 0
M  V30 9084 O 859.784 -1.47291 -1.05712 0
M  V30 9085 C 859.832 -2.89346 2.152 0
M  V30 9086 O 858.936 -3.826 1.5392 0
M  V30 9087 H 858.277 -0.482895 0.45575 0
M  V30 9088 H 860.807 -0.988633 1.79129 0
M  V30 9089 H 860.817 -3.38686 2.27499 0
M  V30 9090 H 859.492 -2.6771 3.18283 0
M  V30 9091 H 858.069 -3.41174 1.50516 0
M  V30 9092 N 860.254 -1.20106 -1.0204 0
M  V30 9093 C 861.201 -0.946468 -2.10501 0
M  V30 9094 C 862.171 0.121902 -1.65652 0
M  V30 9095 O 863.356 -0.0220244 -1.90787 0
M  V30 9096 C 860.496 -0.500499 -3.41451 0
M  V30 9097 C 859.609 -1.63659 -3.998 0
M  V30 9098 C 858.744 -1.14131 -5.18794 0
M  V30 9099 C 857.783 -2.25074 -5.69217 0
M  V30 9100 N 856.92 -1.76791 -6.79477 0
M  V30 9101 H 861.76 -1.87506 -2.31615 0
M  V30 9102 H 859.297 -0.934693 -1.13587 0
M  V30 9103 H 861.255 -0.223276 -4.16602 0
M  V30 9104 H 859.885 0.391099 -3.20422 0
M  V30 9105 H 858.937 -2.02882 -3.21781 0
M  V30 9106 H 860.249 -2.47213 -4.33229 0
M  V30 9107 H 859.403 -0.819826 -6.01135 0
M  V30 9108 H 858.142 -0.275615 -4.86921 0
M  V30 9109 H 857.147 -2.58043 -4.85483 0
M  V30 9110 H 858.372 -3.12114 -6.03127 0
M  V30 9111 H 856.318 -0.925428 -6.4944 0
M  V30 9112 H 856.235 -2.53928 -7.12079 0
M  V30 9113 H 857.503 -1.47631 -7.65392 0
M  V30 9114 N 861.732 1.21287 -1.00634 0
M  V30 9115 C 862.695 2.21927 -0.572821 0
M  V30 9116 C 863.695 1.5691 0.351541 0
M  V30 9117 O 864.885 1.73623 0.141643 0
M  V30 9118 C 862.017 3.40501 0.164932 0
M  V30 9119 H 863.21 2.61795 -1.463 0
M  V30 9120 H 860.763 1.34571 -0.794998 0
M  V30 9121 H 861.498 3.06123 1.07049 0
M  V30 9122 H 861.283 3.88912 -0.498962 0
M  V30 9123 H 862.773 4.15103 0.455945 0
M  V30 9124 N 863.21 0.781244 1.36873 0
M  V30 9125 C 864.456 0.359455 2.00199 0
M  V30 9126 C 864.811 -1.05495 1.60899 0
M  V30 9127 O 864.104 -1.7173 0.849664 0
M  V30 9128 C 864.298 0.45146 3.54537 0
M  V30 9129 C 864.127 1.87326 4.08826 0
M  V30 9130 C 862.897 2.49606 4.39346 0
M  V30 9131 C 865.095 2.8342 4.29159 0
M  V30 9132 N 863.077 3.8346 4.79408 0
M  V30 9133 C 864.448 4.02091 4.71935 0
M  V30 9134 C 866.503 2.80583 4.11312 0
M  V30 9135 C 865.206 5.18322 4.98733 0
M  V30 9136 C 867.232 3.95995 4.39251 0
M  V30 9137 C 866.594 5.13409 4.82276 0
M  V30 9138 H 862.693 0.178778 0.76129 0
M  V30 9139 H 865.277 1.0171 1.66022 0
M  V30 9140 H 863.448 -0.176055 3.88001 0
M  V30 9141 H 865.18 0.00670219 4.04699 0
M  V30 9142 H 861.935 2.01149 4.28761 0
M  V30 9143 H 862.359 4.52306 5.03735 0
M  V30 9144 H 867.001 1.90974 3.77212 0
M  V30 9145 H 864.719 6.08524 5.31718 0
M  V30 9146 H 868.305 3.95152 4.2702 0
M  V30 9147 H 867.185 6.01232 5.03478 0
M  V30 9148 N 864.689 -1.48329 0.532571 0
M  V30 9149 C 865.917 -2.069 0.00354299 0
M  V30 9150 C 866.332 -1.38876 -1.27902 0
M  V30 9151 O 865.689 -0.477119 -1.76153 0
M  V30 9152 C 865.74 -3.60821 -0.221416 0
M  V30 9153 O 865.461 -4.26291 1.01034 0
M  V30 9154 C 866.962 -4.36194 -0.790531 0
M  V30 9155 H 864.182 -0.670103 0.0346836 0
M  V30 9156 H 866.726 -1.90682 0.738955 0
M  V30 9157 H 864.881 -3.76636 -0.906884 0
M  V30 9158 H 865.295 -5.18475 0.792683 0
M  V30 9159 H 866.769 -5.44657 -0.897347 0
M  V30 9160 H 867.246 -4.00798 -1.79605 0
M  V30 9161 H 867.852 -4.25064 -0.141546 0
M  V30 9162 N 866.167 -0.267825 -1.55308 0
M  V30 9163 C 867.097 0.616585 -2.25212 0
M  V30 9164 C 868.078 1.16472 -1.23969 0
M  V30 9165 O 869.263 1.20021 -1.52672 0
M  V30 9166 C 866.393 1.80412 -2.96764 0
M  V30 9167 C 865.347 1.38784 -4.04874 0
M  V30 9168 C 864.673 2.65789 -4.63961 0
M  V30 9169 C 865.973 0.543415 -5.19465 0
M  V30 9170 H 867.667 0.0336257 -2.99381 0
M  V30 9171 H 865.213 0.0147328 -1.43992 0
M  V30 9172 H 867.166 2.42866 -3.44375 0
M  V30 9173 H 865.89 2.4128 -2.20118 0
M  V30 9174 H 864.549 0.786541 -3.58063 0
M  V30 9175 H 864.197 3.24899 -3.83992 0
M  V30 9176 H 863.897 2.38651 -5.36954 0
M  V30 9177 H 865.421 3.29104 -5.14318 0
M  V30 9178 H 866.835 1.07277 -5.63174 0
M  V30 9179 H 865.232 0.367219 -5.98975 0
M  V30 9180 H 866.302 -0.439534 -4.82904 0
M  V30 9181 N 867.645 1.57599 0.00500368 0
M  V30 9182 C 868.555 2.11532 1.01446 0
M  V30 9183 C 869.571 1.05941 1.3803 0
M  V30 9184 O 870.747 1.37815 1.46864 0
M  V30 9185 C 867.812 2.60382 2.28915 0
M  V30 9186 C 866.873 3.80554 1.98689 0
M  V30 9187 C 866.106 4.27064 3.20081 0
M  V30 9188 O 866.329 3.72939 4.31593 0
M  V30 9189 O 865.263 5.1927 3.04371 0
M  V30 9190 H 869.089 2.97993 0.586011 0
M  V30 9191 H 866.674 1.47718 0.223519 0
M  V30 9192 H 868.556 2.92024 3.03809 0
M  V30 9193 H 867.231 1.77022 2.71007 0
M  V30 9194 H 866.138 3.53893 1.21286 0
M  V30 9195 H 867.471 4.64972 1.61437 0
M  V30 9196 N 869.123 -0.277682 1.55134 0
M  V30 9197 C 870.369 -1.0114 1.7578 0
M  V30 9198 C 870.702 -1.86109 0.554719 0
M  V30 9199 O 869.977 -1.89275 -0.447813 0
M  V30 9200 C 870.26 -1.89789 3.06027 0
M  V30 9201 C 870.113 -1.07844 4.3668 0
M  V30 9202 C 871.432 -2.88577 3.32282 0
M  V30 9203 H 868.551 -0.366277 0.639539 0
M  V30 9204 H 871.193 -0.284155 1.87863 0
M  V30 9205 H 869.343 -2.51796 2.95856 0
M  V30 9206 H 871.015 -0.479432 4.58802 0
M  V30 9207 H 869.258 -0.381764 4.32117 0
M  V30 9208 H 869.929 -1.73179 5.24131 0
M  V30 9209 H 872.405 -2.36702 3.42215 0
M  V30 9210 H 871.281 -3.47749 4.2469 0
M  V30 9211 H 871.542 -3.63458 2.51696 0
M  V30 9212 N 870.601 -1.47988 -0.541979 0
M  V30 9213 C 871.531 -1.64503 -1.65713 0
M  V30 9214 C 872.512 -0.494116 -1.62765 0
M  V30 9215 O 873.697 -0.725256 -1.80149 0
M  V30 9216 C 870.827 -1.67337 -3.04328 0
M  V30 9217 C 869.781 -2.81809 -3.2213 0
M  V30 9218 C 869.107 -2.69724 -4.61685 0
M  V30 9219 C 870.407 -4.23241 -3.06046 0
M  V30 9220 H 872.101 -2.5786 -1.52147 0
M  V30 9221 H 869.647 -1.24094 -0.730529 0
M  V30 9222 H 871.6 -1.77481 -3.82202 0
M  V30 9223 H 870.324 -0.705514 -3.18889 0
M  V30 9224 H 868.983 -2.71201 -2.46669 0
M  V30 9225 H 868.631 -1.70934 -4.73065 0
M  V30 9226 H 868.331 -3.4653 -4.74543 0
M  V30 9227 H 869.855 -2.81818 -5.41674 0
M  V30 9228 H 871.269 -4.34746 -3.73723 0
M  V30 9229 H 869.666 -5.00952 -3.30405 0
M  V30 9230 H 870.736 -4.40543 -2.02609 0
M  V30 9231 N 872.079 0.78992 -1.36375 0
M  V30 9232 C 873.309 1.57644 -1.33536 0
M  V30 9233 C 873.717 1.89007 0.0855075 0
M  V30 9234 O 873.06 1.50547 1.05267 0
M  V30 9235 C 873.122 2.92424 -2.09113 0
M  V30 9236 C 872.786 2.83793 -3.58205 0
M  V30 9237 C 873.783 2.56072 -4.52464 0
M  V30 9238 C 871.468 3.02386 -4.01084 0
M  V30 9239 C 873.462 2.47044 -5.87578 0
M  V30 9240 C 871.149 2.9298 -5.36289 0
M  V30 9241 C 872.147 2.65347 -6.29349 0
M  V30 9242 O 871.835 2.55935 -7.62071 0
M  V30 9243 H 871.567 0.495639 -0.459694 0
M  V30 9244 H 874.121 0.988354 -1.80058 0
M  V30 9245 H 872.351 3.53282 -1.57254 0
M  V30 9246 H 874.04 3.53693 -1.99139 0
M  V30 9247 H 874.806 2.4141 -4.2065 0
M  V30 9248 H 870.685 3.229 -3.29023 0
M  V30 9249 H 874.229 2.25396 -6.60184 0
M  V30 9250 H 870.126 3.07204 -5.67711 0
M  V30 9251 H 870.894 2.7142 -7.72187 0
M  V30 9252 N 873.557 1.20646 1.01402 0
M  V30 9253 C 874.52 0.959314 2.08158 0
M  V30 9254 C 875.52 -0.0661558 1.60664 0
M  V30 9255 O 876.71 0.170177 1.73367 0
M  V30 9256 C 873.842 0.444785 3.37986 0
M  V30 9257 H 875.035 1.90631 2.31517 0
M  V30 9258 H 872.588 1.02219 1.18241 0
M  V30 9259 H 873.323 -0.507553 3.20304 0
M  V30 9260 H 873.108 1.18435 3.73785 0
M  V30 9261 H 874.598 0.291443 4.16582 0
M  V30 9262 N 875.035 -1.20752 1.01276 0
M  V30 9263 C 876.446 -1.7175 0.732033 0
M  V30 9264 C 876.797 -1.8131 -0.749733 0
M  V30 9265 O 875.922 -1.47301 -1.58529 0
M  V30 9266 C 876.517 -3.11936 1.32217 0
M  V30 9267 C 875.076 -3.6026 1.09039 0
M  V30 9268 C 874.223 -2.37571 1.43022 0
M  V30 9269 H 877.174 -1.0582 1.1827 0
M  V30 9270 H 877.195 -3.73802 0.710771 0
M  V30 9271 H 876.707 -3.04946 2.40061 0
M  V30 9272 H 874.808 -3.72588 0.0294464 0
M  V30 9273 H 874.921 -4.45295 1.76775 0
M  V30 9274 H 873.285 -2.40128 0.849159 0
M  V30 9275 H 874.068 -2.33225 2.51915 0
M  V30 9276 N 876.513 -0.788492 -1.36457 0
M  V30 9277 C 877.929 -0.470063 -1.52521 0
M  V30 9278 C 878.129 1.01176 -1.74258 0
M  V30 9279 O 877.185 1.79726 -1.77355 0
M  V30 9280 C 878.498 -1.2997 -2.71161 0
M  V30 9281 C 880.046 -1.2933 -2.85031 0
M  V30 9282 C 880.521 -2.10665 -4.06674 0
M  V30 9283 N 882.012 -2.08107 -4.13819 0
M  V30 9284 C 882.747 -2.6781 -5.07016 0
M  V30 9285 N 882.243 -3.36369 -6.05663 0
M  V30 9286 N 884.036 -2.57549 -4.99625 0
M  V30 9287 H 876.187 -1.7484 -1.20602 0
M  V30 9288 H 878.45 -0.743159 -0.588574 0
M  V30 9289 H 878.156 -2.35051 -2.61618 0
M  V30 9290 H 878.03 -0.940367 -3.6529 0
M  V30 9291 H 880.417 -0.250414 -2.94036 0
M  V30 9292 H 880.498 -1.69239 -1.91812 0
M  V30 9293 H 880.142 -3.14984 -3.98431 0
M  V30 9294 H 880.072 -1.68128 -4.9904 0
M  V30 9295 H 882.563 -1.58208 -3.43189 0
M  V30 9296 H 882.876 -3.79258 -6.73338 0
M  V30 9297 H 881.221 -3.40471 -6.05891 0
M  V30 9298 H 884.412 -2.0359 -4.21508 0
M  V30 9299 H 884.585 -3.0437 -5.72069 0
M  V30 9300 N 877.991 1.48044 -0.54043 0
M  V30 9301 C 879.407 1.58354 -0.199006 0
M  V30 9302 C 879.607 1.54118 1.29807 0
M  V30 9303 O 878.663 1.43573 2.07709 0
M  V30 9304 C 879.976 2.89563 -0.810797 0
M  V30 9305 C 881.524 3.03113 -0.780486 0
M  V30 9306 C 881.999 4.36997 -1.37104 0
M  V30 9307 N 883.49 4.43591 -1.33347 0
M  V30 9308 C 884.225 5.45714 -1.76021 0
M  V30 9309 N 883.721 6.54738 -2.26473 0
M  V30 9310 N 885.514 5.36659 -1.67194 0
M  V30 9311 H 877.665 1.49041 -1.51329 0
M  V30 9312 H 879.928 0.708309 -0.630081 0
M  V30 9313 H 879.634 2.9835 -1.86227 0
M  V30 9314 H 879.508 3.76053 -0.293977 0
M  V30 9315 H 881.895 2.93932 0.262246 0
M  V30 9316 H 881.976 2.18207 -1.33489 0
M  V30 9317 H 881.62 4.46932 -2.41276 0
M  V30 9318 H 881.55 5.20607 -0.792229 0
M  V30 9319 H 884.041 3.65391 -0.964259 0
M  V30 9320 H 884.354 7.28814 -2.57002 0
M  V30 9321 H 882.699 6.55673 -2.30473 0
M  V30 9322 H 885.89 4.50382 -1.27569 0
M  V30 9323 H 886.063 6.16113 -2.00771 0
M  V30 9324 N 879.47 0.276058 1.55163 0
M  V30 9325 C 880.4 -0.604633 2.25536 0
M  V30 9326 C 881.381 -1.15813 1.24585 0
M  V30 9327 O 882.566 -1.1921 1.53306 0
M  V30 9328 C 879.696 -1.78836 2.97716 0
M  V30 9329 C 878.65 -1.36635 4.05604 0
M  V30 9330 C 877.976 -2.63325 4.65364 0
M  V30 9331 C 879.276 -0.515858 5.19746 0
M  V30 9332 H 880.97 -0.0177483 2.99395 0
M  V30 9333 H 878.516 -0.00709627 1.43998 0
M  V30 9334 H 880.469 -2.41036 3.45658 0
M  V30 9335 H 879.193 -2.40109 2.21394 0
M  V30 9336 H 877.852 -0.767541 3.58475 0
M  V30 9337 H 877.5 -3.22858 3.85709 0
M  V30 9338 H 877.2 -2.358 5.38212 0
M  V30 9339 H 878.724 -3.26372 5.16056 0
M  V30 9340 H 880.138 -1.04289 5.63735 0
M  V30 9341 H 878.535 -0.335449 5.99162 0
M  V30 9342 H 879.605 0.465137 4.82664 0
M  V30 9343 N 880.948 -1.576 0.00335426 0
M  V30 9344 C 882.364 -1.55653 -0.352766 0
M  V30 9345 C 882.564 -1.00632 -1.74572 0
M  V30 9346 O 881.62 -0.641621 -2.44212 0
M  V30 9347 C 882.933 -2.99858 -0.224929 0
M  V30 9348 C 884.481 -3.11563 -0.299619 0
M  V30 9349 C 884.956 -4.57559 -0.200868 0
M  V30 9350 N 886.447 -4.62477 -0.258663 0
M  V30 9351 C 887.182 -5.73031 -0.205644 0
M  V30 9352 N 886.678 -6.92723 -0.103027 0
M  V30 9353 N 888.471 -5.61509 -0.257754 0
M  V30 9354 H 880.622 -1.91703 0.914539 0
M  V30 9355 H 882.885 -0.88068 0.350865 0
M  V30 9356 H 882.591 -3.43964 0.733595 0
M  V30 9357 H 882.465 -3.63547 -1.00564 0
M  V30 9358 H 884.852 -2.67384 -1.24859 0
M  V30 9359 H 884.933 -2.50644 0.511025 0
M  V30 9360 H 884.577 -5.02413 0.744572 0
M  V30 9361 H 884.507 -5.16428 -1.03004 0
M  V30 9362 H 886.998 -3.76375 -0.339168 0
M  V30 9363 H 887.311 -7.7277 -0.0685593 0
M  V30 9364 H 885.656 -6.94966 -0.0686069 0
M  V30 9365 H 888.847 -4.66892 -0.336142 0
M  V30 9366 H 889.02 -6.4765 -0.21297 0
M  V30 9367 N 882.426 0.269451 -1.5528 0
M  V30 9368 C 883.672 1.00206 -1.76314 0
M  V30 9369 C 884.005 1.85812 -0.564581 0
M  V30 9370 O 883.28 1.89509 0.437769 0
M  V30 9371 C 883.563 1.88163 -3.07029 0
M  V30 9372 C 883.416 1.05527 -4.37246 0
M  V30 9373 C 884.735 2.8681 -3.33808 0
M  V30 9374 H 881.854 0.36288 -0.641473 0
M  V30 9375 H 884.496 0.274188 -1.88011 0
M  V30 9376 H 882.646 2.50224 -2.97187 0
M  V30 9377 H 884.318 0.455094 -4.5905 0
M  V30 9378 H 882.561 0.358842 -4.32313 0
M  V30 9379 H 883.232 1.70397 -5.25042 0
M  V30 9380 H 885.708 2.34884 -3.43466 0
M  V30 9381 H 884.584 3.45492 -4.26528 0
M  V30 9382 H 884.845 3.62118 -2.5362 0
M  V30 9383 N 883.904 1.48273 0.534124 0
M  V30 9384 C 885.129 1.59988 1.31979 0
M  V30 9385 C 885.554 0.258824 1.86311 0
M  V30 9386 O 884.912 -0.768885 1.64188 0
M  V30 9387 C 884.96 2.64642 2.44943 0
M  V30 9388 O 884.064 2.21515 3.47858 0
M  V30 9389 H 883.405 0.536625 0.391063 0
M  V30 9390 H 885.935 1.94229 0.643135 0
M  V30 9391 H 885.945 2.85786 2.91187 0
M  V30 9392 H 884.62 3.62004 2.04758 0
M  V30 9393 H 883.197 2.10567 3.0776 0
M  V30 9394 N 885.382 -0.782676 1.36792 0
M  V30 9395 C 886.315 -1.90241 1.2603 0
M  V30 9396 C 887.293 -1.61969 0.143055 0
M  V30 9397 O 888.477 -1.85843 0.315366 0
M  V30 9398 C 885.604 -3.25218 0.946082 0
M  V30 9399 C 884.65 -3.72414 2.0787 0
M  V30 9400 S 885.483 -3.87376 3.69729 0
M  V30 9401 C 886.639 -5.25219 3.40435 0
M  V30 9402 H 886.872 -1.99079 2.20805 0
M  V30 9403 H 884.405 -0.942625 1.22286 0
M  V30 9404 H 886.363 -4.03183 0.771612 0
M  V30 9405 H 885.024 -3.14096 0.0159991 0
M  V30 9406 H 884.217 -4.7024 1.81358 0
M  V30 9407 H 883.819 -3.01519 2.21274 0
M  V30 9408 H 886.111 -6.10025 2.94746 0
M  V30 9409 H 887.054 -5.56738 4.37549 0
M  V30 9410 H 887.462 -4.92638 2.75622 0
M  V30 9411 N 886.86 -1.21182 -1.00761 0
M  V30 9412 C 888.085 -1.05411 -1.78615 0
M  V30 9413 C 888.51 0.391837 -1.83973 0
M  V30 9414 O 887.868 1.28256 -1.28141 0
M  V30 9415 C 887.916 -1.65285 -3.20489 0
M  V30 9416 O 887.02 -0.896558 -4.02536 0
M  V30 9417 H 886.361 -0.37116 -0.550578 0
M  V30 9418 H 888.891 -1.60669 -1.26676 0
M  V30 9419 H 888.901 -1.69397 -3.71172 0
M  V30 9420 H 887.576 -2.70514 -3.15904 0
M  V30 9421 H 886.153 -0.930335 -3.61108 0
M  V30 9422 N 888.338 1.20213 -1.01915 0
M  V30 9423 C 889.749 1.7136 -0.741131 0
M  V30 9424 C 890.1 1.81705 0.740107 0
M  V30 9425 O 889.225 1.48139 1.57746 0
M  V30 9426 C 889.82 3.11231 -1.33869 0
M  V30 9427 C 888.379 3.59677 -1.10948 0
M  V30 9428 C 887.526 2.36809 -1.4428 0
M  V30 9429 H 890.477 1.05191 -1.1883 0
M  V30 9430 H 890.498 3.7342 -0.730585 0
M  V30 9431 H 890.01 3.03669 -2.41675 0
M  V30 9432 H 888.111 3.72568 -0.0492052 0
M  V30 9433 H 888.224 4.44351 -1.79134 0
M  V30 9434 H 886.588 2.39674 -0.861881 0
M  V30 9435 H 887.371 2.31886 -2.53148 0
M  V30 9436 N 889.816 0.795718 1.36037 0
M  V30 9437 C 891.064 0.370291 1.98679 0
M  V30 9438 C 891.385 -1.06332 1.63458 0
M  V30 9439 O 890.655 -1.73394 0.911671 0
M  V30 9440 H 889.235 0.133928 0.734896 0
M  V30 9441 H 891.897 1.01915 1.6613 0
M  V30 9442 H 890.993 0.467207 3.08583 0
M  V30 9443 N 891.294 -1.47756 0.548274 0
M  V30 9444 C 892.571 -1.9555 -0.0443603 0
M  V30 9445 C 892.951 -1.49079 -1.49462 0
M  V30 9446 O 892.299 -0.725538 -2.16675 0
M  V30 9447 C 892.509 -3.48879 0.0918425 0
M  V30 9448 C 893.857 -4.2456 -0.0580879 0
M  V30 9449 O 894.881 -3.56195 0.018946 0
M  V30 9450 O 893.74 -5.46048 -0.222261 0
M  V30 9451 H 890.834 -0.824106 -0.0691235 0
M  V30 9452 H 893.38 -1.58196 0.614166 0
M  V30 9453 H 892.152 -3.7548 1.10137 0
M  V30 9454 H 891.775 -3.92975 -0.604704 0
M  V30 9455 N 892.772 -0.284283 -1.55015 0
M  V30 9456 C 893.704 0.63258 -2.20298 0
M  V30 9457 C 894.717 1.11045 -1.1905 0
M  V30 9458 O 895.906 1.03078 -1.4573 0
M  V30 9459 C 893.006 1.87599 -2.82241 0
M  V30 9460 C 892.179 1.5434 -4.09265 0
M  V30 9461 C 891.238 2.64023 -4.55169 0
M  V30 9462 O 890.264 2.29821 -5.20741 0
M  V30 9463 N 891.466 3.94255 -4.26079 0
M  V30 9464 H 894.231 0.0737928 -2.99609 0
M  V30 9465 H 891.792 -0.105767 -1.61554 0
M  V30 9466 H 893.784 2.60289 -3.0989 0
M  V30 9467 H 892.354 2.3436 -2.06868 0
M  V30 9468 H 891.574 0.649912 -3.88806 0
M  V30 9469 H 892.862 1.29634 -4.92009 0
M  V30 9470 H 892.26 4.24859 -3.73512 0
M  V30 9471 H 890.817 4.63295 -4.58477 0
M  V30 9472 N 894.251 1.57596 -0.0117121 0
M  V30 9473 C 895.497 1.91355 0.671661 0
M  V30 9474 C 895.83 0.886818 1.72769 0
M  V30 9475 O 895.105 -0.0928813 1.94278 0
M  V30 9476 C 895.388 3.35657 1.30409 0
M  V30 9477 C 895.241 4.49055 0.2588 0
M  V30 9478 C 896.56 3.79595 2.22701 0
M  V30 9479 H 893.679 0.695893 0.242698 0
M  V30 9480 H 896.321 1.89887 -0.0654071 0
M  V30 9481 H 894.471 3.37038 1.9323 0
M  V30 9482 H 896.143 4.59809 -0.370631 0
M  V30 9483 H 894.386 4.31785 -0.417672 0
M  V30 9484 H 895.057 5.4701 0.740578 0
M  V30 9485 H 897.533 3.7984 1.69885 0
M  V30 9486 H 896.409 4.81292 2.63912 0
M  V30 9487 H 896.67 3.14118 3.11098 0
M  V30 9488 N 895.729 -0.261212 1.5542 0
M  V30 9489 C 896.662 -1.34906 1.84054 0
M  V30 9490 C 897.64 -1.47024 0.694466 0
M  V30 9491 O 898.824 -1.63463 0.938719 0
M  V30 9492 C 895.951 -2.7242 2.01259 0
M  V30 9493 C 894.997 -2.77526 3.23855 0
M  V30 9494 S 895.83 -2.35578 4.80898 0
M  V30 9495 C 896.986 -3.75045 5.01091 0
M  V30 9496 H 897.219 -1.10416 2.76035 0
M  V30 9497 H 894.752 -0.461461 1.47343 0
M  V30 9498 H 896.71 -3.51606 2.11857 0
M  V30 9499 H 895.371 -2.94155 1.10145 0
M  V30 9500 H 894.564 -3.78483 3.32816 0
M  V30 9501 H 894.166 -2.0637 3.11909 0
M  V30 9502 H 896.458 -4.7042 4.87556 0
M  V30 9503 H 897.401 -3.71027 6.03112 0
M  V30 9504 H 897.809 -3.66894 4.29009 0
M  V30 9505 N 897.207 -1.48554 -0.526253 0
M  V30 9506 C 898.117 -1.66044 -1.65731 0
M  V30 9507 C 899.133 -0.542951 -1.65312 0
M  V30 9508 O 900.309 -0.814495 -1.84195 0
M  V30 9509 C 897.374 -1.69959 -3.02184 0
M  V30 9510 C 896.435 -2.93362 -3.13428 0
M  V30 9511 C 895.668 -2.97081 -4.43372 0
M  V30 9512 O 895.891 -2.09103 -5.3069 0
M  V30 9513 O 894.825 -3.8929 -4.59061 0
M  V30 9514 H 898.651 -2.61811 -1.53912 0
M  V30 9515 H 896.236 -1.31999 -0.699759 0
M  V30 9516 H 898.118 -1.75033 -3.83329 0
M  V30 9517 H 896.793 -0.773658 -3.14319 0
M  V30 9518 H 895.7 -2.93818 -2.31564 0
M  V30 9519 H 897.033 -3.85352 -3.06211 0
M  V30 9520 N 898.685 0.775411 -1.37205 0
M  V30 9521 C 899.933 1.53081 -1.3195 0
M  V30 9522 C 900.254 1.9476 0.0966864 0
M  V30 9523 O 899.524 1.66019 1.03993 0
M  V30 9524 H 898.104 0.567762 -0.485444 0
M  V30 9525 H 900.766 0.92309 -1.71654 0
M  V30 9526 H 899.862 2.4319 -1.95614 0
M  V30 9527 N 900.163 1.21714 1.00117 0
M  V30 9528 C 901.11 0.979837 2.08968 0
M  V30 9529 C 902.08 -0.0955324 1.65825 0
M  V30 9530 O 903.265 0.0523742 1.90728 0
M  V30 9531 C 900.405 0.554758 3.40612 0
M  V30 9532 C 899.518 1.69999 3.97145 0
M  V30 9533 C 898.653 1.2237 5.16913 0
M  V30 9534 C 897.692 2.34101 5.65564 0
M  V30 9535 N 896.829 1.87579 6.76579 0
M  V30 9536 H 901.669 1.91167 2.28602 0
M  V30 9537 H 899.206 0.952645 1.12085 0
M  V30 9538 H 901.164 0.289526 4.16194 0
M  V30 9539 H 899.794 -0.340073 3.21004 0
M  V30 9540 H 898.846 2.07976 3.18512 0
M  V30 9541 H 900.158 2.54074 4.29241 0
M  V30 9542 H 899.312 0.915358 5.99755 0
M  V30 9543 H 898.051 0.353045 4.8642 0
M  V30 9544 H 897.056 2.65734 4.81316 0
M  V30 9545 H 898.281 3.21669 5.98085 0
M  V30 9546 H 896.227 1.02863 6.47885 0
M  V30 9547 H 896.144 2.65225 7.07949 0
M  V30 9548 H 897.412 1.5979 7.62947 0
M  V30 9549 N 901.641 -1.19671 1.02551 0
M  V30 9550 C 902.866 -1.93774 0.739363 0
M  V30 9551 C 903.291 -1.74787 -0.695064 0
M  V30 9552 O 902.649 -1.04796 -1.47944 0
M  V30 9553 C 902.697 -3.43684 1.09149 0
M  V30 9554 O 901.801 -4.11874 0.208213 0
M  V30 9555 H 901.142 -0.605064 0.273484 0
M  V30 9556 H 903.672 -1.51846 1.37128 0
M  V30 9557 H 903.682 -3.94339 1.04695 0
M  V30 9558 H 902.357 -3.56826 2.13654 0
M  V30 9559 H 900.934 -3.716 0.311045 0
M  V30 9560 N 903.119 -0.802921 -1.35613 0
M  V30 9561 C 904.082 -0.216422 -2.28176 0
M  V30 9562 C 905.082 0.594101 -1.49422 0
M  V30 9563 O 906.272 0.41312 -1.6923 0
M  V30 9564 C 903.404 0.698746 -3.33662 0
M  V30 9565 H 904.597 -1.03276 -2.81557 0
M  V30 9566 H 902.15 -0.573307 -1.45406 0
M  V30 9567 H 902.885 1.53891 -2.85461 0
M  V30 9568 H 902.67 0.119314 -3.91918 0
M  V30 9569 H 904.16 1.10354 -4.02755 0
M  V30 9570 N 904.597 1.47463 -0.556102 0
M  V30 9571 C 905.825 2.06868 -0.0364585 0
M  V30 9572 C 906.24 1.40893 1.25677 0
M  V30 9573 O 905.597 0.505083 1.75371 0
M  V30 9574 C 905.648 3.61128 0.163984 0
M  V30 9575 O 905.369 4.24629 -1.07803 0
M  V30 9576 C 906.87 4.37397 0.721036 0
M  V30 9577 H 904.09 0.669466 -0.0453399 0
M  V30 9578 H 906.634 1.89482 -0.769198 0
M  V30 9579 H 904.789 3.78031 0.84685 0
M  V30 9580 H 905.203 5.17149 -0.875067 0
M  V30 9581 H 906.677 5.46016 0.810584 0
M  V30 9582 H 907.154 4.03604 1.73206 0
M  V30 9583 H 907.76 4.25236 0.073904 0
M  V30 9584 N 906.075 0.2925 1.54862 0
M  V30 9585 C 907.005 -0.580677 2.26165 0
M  V30 9586 C 907.986 -1.14485 1.25806 0
M  V30 9587 O 909.171 -1.17577 1.54562 0
M  V30 9588 C 906.301 -1.75668 2.99596 0
M  V30 9589 C 905.255 -1.32325 4.07031 0
M  V30 9590 C 904.581 -2.58374 4.68131 0
M  V30 9591 C 905.881 -0.460703 5.20264 0
M  V30 9592 H 907.575 0.0140075 2.99397 0
M  V30 9593 H 905.121 0.00817706 1.43998 0
M  V30 9594 H 907.074 -2.37356 3.48195 0
M  V30 9595 H 905.798 -2.37747 2.23928 0
M  V30 9596 H 904.457 -0.729477 3.59269 0
M  V30 9597 H 904.105 -3.18749 3.89112 0
M  V30 9598 H 903.805 -2.30078 5.40683 0
M  V30 9599 H 905.329 -3.2088 5.19489 0
M  V30 9600 H 906.743 -0.983037 5.64809 0
M  V30 9601 H 905.14 -0.271881 5.99484 0
M  V30 9602 H 906.21 0.516304 4.82143 0
M  V30 9603 N 907.553 -1.57587 0.0200696 0
M  V30 9604 C 908.781 -1.95718 -0.670964 0
M  V30 9605 C 909.196 -0.896081 -1.6618 0
M  V30 9606 O 908.553 0.123037 -1.82085 0
M  V30 9607 C 908.604 -3.33904 -1.38529 0
M  V30 9608 O 908.325 -4.35943 -0.434167 0
M  V30 9609 C 909.826 -3.86614 -2.16898 0
M  V30 9610 H 907.046 -0.644819 -0.185606 0
M  V30 9611 H 909.59 -2.04354 0.0771495 0
M  V30 9612 H 907.745 -3.26515 -2.08487 0
M  V30 9613 H 908.159 -5.16001 -0.940378 0
M  V30 9614 H 909.633 -4.85673 -2.62346 0
M  V30 9615 H 910.11 -3.20379 -3.00423 0
M  V30 9616 H 910.716 -3.97243 -1.51916 0
M  V30 9617 N 909.032 0.252966 -1.55557 0
M  V30 9618 C 910.272 0.989276 -1.78865 0
M  V30 9619 C 910.636 1.82755 -0.588615 0
M  V30 9620 O 911.837 2.59516 -0.700347 0
M  V30 9621 C 910.108 1.83203 -3.06874 0
M  V30 9622 S 911.667 2.62826 -3.5138 0
M  V30 9623 H 908.485 0.332863 -0.62827 0
M  V30 9624 H 911.087 0.257716 -1.93794 0
M  V30 9625 H 909.791 1.20579 -3.92287 0
M  V30 9626 H 909.322 2.60644 -2.94666 0
M  V30 9627 H 911.337 3.85648 -3.12234 0
M  V30 9628 N 910.51 1.48831 0.518367 0
M  V30 9629 C 911.42 1.6692 1.64848 0
M  V30 9630 C 912.436 0.551711 1.65022 0
M  V30 9631 O 913.612 0.824251 1.83761 0
M  V30 9632 C 910.677 1.71559 3.01278 0
M  V30 9633 C 909.738 2.9502 3.11868 0
M  V30 9634 C 908.971 2.99428 4.4179 0
M  V30 9635 O 909.194 2.11914 5.29574 0
M  V30 9636 O 908.128 3.91719 4.5699 0
M  V30 9637 H 911.954 2.62623 1.52521 0
M  V30 9638 H 909.539 1.32368 0.692749 0
M  V30 9639 H 911.421 1.77064 3.82396 0
M  V30 9640 H 910.096 0.790316 3.13904 0
M  V30 9641 H 909.003 2.95042 2.30003 0
M  V30 9642 H 910.336 3.8697 3.04163 0
M  V30 9643 N 911.988 -0.768124 1.37614 0
M  V30 9644 C 913.213 -1.56239 1.36397 0
M  V30 9645 C 913.638 -1.8804 -0.0475839 0
M  V30 9646 O 912.996 -1.495 -1.02564 0
M  V30 9647 C 913.044 -2.84716 2.21289 0
M  V30 9648 O 912.148 -3.79249 1.62001 0
M  V30 9649 H 911.489 -0.473119 0.465891 0
M  V30 9650 H 914.019 -0.950415 1.81186 0
M  V30 9651 H 914.029 -3.33784 2.34632 0
M  V30 9652 H 912.704 -2.60899 3.2389 0
M  V30 9653 H 911.281 -3.37904 1.57719 0
M  V30 9654 N 913.466 -1.22244 -0.994698 0
M  V30 9655 C 914.743 -0.954459 -1.70732 0
M  V30 9656 C 915.123 0.530945 -2.04314 0
M  V30 9657 O 914.471 1.49851 -1.72502 0
M  V30 9658 C 914.681 -1.85016 -2.95922 0
M  V30 9659 C 916.029 -2.10517 -3.68738 0
M  V30 9660 O 917.053 -1.82449 -3.05926 0
M  V30 9661 O 915.912 -2.58044 -4.81742 0
M  V30 9662 H 913.006 -0.35879 -0.745116 0
M  V30 9663 H 915.552 -1.33221 -1.0512 0
M  V30 9664 H 914.324 -2.85498 -2.67594 0
M  V30 9665 H 913.947 -1.47388 -3.69273 0
M  V30 9666 N 914.944 1.19125 -1.03184 0
M  V30 9667 C 915.907 2.20662 -0.619766 0
M  V30 9668 C 916.907 1.57621 0.318179 0
M  V30 9669 O 918.097 1.73885 0.104783 0
M  V30 9670 C 915.229 3.40774 0.0926696 0
M  V30 9671 H 916.422 2.58633 -1.5182 0
M  V30 9672 H 913.975 1.32855 -0.823364 0
M  V30 9673 H 914.71 3.08324 1.00531 0
M  V30 9674 H 914.495 3.87766 -0.581344 0
M  V30 9675 H 915.985 4.15977 0.367792 0
M  V30 9676 N 916.422 0.810101 1.35185 0
M  V30 9677 C 917.37 0.211071 2.3164 0
M  V30 9678 C 918.364 -0.641109 1.568 0
M  V30 9679 O 919.57 -0.533881 1.719 0
M  V30 9680 H 915.945 0.0494978 0.750369 0
M  V30 9681 H 917.916 1.03964 2.79703 0
M  V30 9682 C 916.665 -0.622933 3.42074 0
M  V30 9683 H 915.988 0.0234648 3.99793 0
M  V30 9684 H 917.428 -1.0084 4.11834 0
M  V30 9685 C 915.887 -1.78994 2.85417 0
M  V30 9686 O 916.417 -2.88758 2.79252 0
M  V30 9687 N 914.623 -1.60259 2.42416 0
M  V30 9688 H 914.17 -0.70974 2.4763 0
M  V30 9689 H 914.128 -2.38498 2.04857 0
M  V30 9690 N 917.9 -1.47166 0.563914 0
M  V30 9691 C 919.311 -1.86231 0.132307 0
M  V30 9692 C 919.662 -1.46976 -1.29971 0
M  V30 9693 O 918.787 -0.875911 -1.97881 0
M  V30 9694 C 919.382 -3.37996 0.233335 0
M  V30 9695 C 917.941 -3.76127 -0.143278 0
M  V30 9696 C 917.088 -2.71212 0.577857 0
M  V30 9697 H 920.039 -1.38588 0.773249 0
M  V30 9698 H 920.06 -3.76558 -0.546309 0
M  V30 9699 H 919.572 -3.66535 1.27568 0
M  V30 9700 H 917.673 -3.53205 -1.18648 0
M  V30 9701 H 917.786 -4.78595 0.219952 0
M  V30 9702 H 916.15 -2.54692 0.020186 0
M  V30 9703 H 916.933 -3.02593 1.62149 0
M  V30 9704 N 919.378 -0.300708 -1.54705 0
M  V30 9705 C 920.789 0.191995 -1.8571 0
M  V30 9706 C 921.14 1.53447 -1.22264 0
M  V30 9707 O 920.265 2.10054 -0.520226 0
M  V30 9708 C 920.86 0.355148 -3.36933 0
M  V30 9709 C 919.419 0.792071 -3.67972 0
M  V30 9710 C 918.566 -0.099756 -2.77121 0
M  V30 9711 H 921.517 -0.521729 -1.49879 0
M  V30 9712 H 921.538 1.18977 -3.61421 0
M  V30 9713 H 921.05 -0.622075 -3.83082 0
M  V30 9714 H 919.151 1.77986 -3.27341 0
M  V30 9715 H 919.264 0.611661 -4.75179 0
M  V30 9716 H 917.628 0.420909 -2.51198 0
M  V30 9717 H 918.411 -1.07333 -3.2609 0
M  V30 9718 N 920.856 1.57574 -0.0284266 0
M  V30 9719 C 922.102 1.92056 0.651327 0
M  V30 9720 C 922.435 0.905092 1.71819 0
M  V30 9721 O 921.71 -0.0722703 1.94366 0
M  V30 9722 C 921.993 3.37021 1.26841 0
M  V30 9723 C 921.846 4.49304 0.211157 0
M  V30 9724 C 923.165 3.81936 2.18662 0
M  V30 9725 H 920.284 0.698428 0.235304 0
M  V30 9726 H 922.926 1.89807 -0.0855435 0
M  V30 9727 H 921.076 3.39068 1.89644 0
M  V30 9728 H 922.748 4.5939 -0.419379 0
M  V30 9729 H 920.991 4.31317 -0.463445 0
M  V30 9730 H 921.662 5.47764 0.682518 0
M  V30 9731 H 924.138 3.8162 1.65847 0
M  V30 9732 H 923.014 4.84064 2.58792 0
M  V30 9733 H 923.275 3.174 3.07749 0
M  V30 9734 N 922.334 -0.244713 1.55689 0
M  V30 9735 C 923.559 -0.994157 1.8202 0
M  V30 9736 C 923.984 -1.78079 0.60577 0
M  V30 9737 O 923.342 -1.75748 -0.445221 0
M  V30 9738 C 923.39 -1.90599 3.06111 0
M  V30 9739 O 922.494 -2.99804 2.8318 0
M  V30 9740 H 921.835 -0.282767 0.600782 0
M  V30 9741 H 924.365 -0.26504 2.02876 0
M  V30 9742 H 924.375 -2.32023 3.35603 0
M  V30 9743 H 923.05 -1.32763 3.9414 0
M  V30 9744 H 921.627 -2.62493 2.64862 0
M  V30 9745 N 923.813 -1.49104 -0.510467 0
M  V30 9746 C 924.763 -1.6147 -1.6097 0
M  V30 9747 C 925.747 -0.470797 -1.53858 0
M  V30 9748 O 926.939 -0.723266 -1.61548 0
M  V30 9749 C 924.068 -1.67575 -2.99622 0
M  V30 9750 C 923.154 -2.87511 -3.11766 0
M  V30 9751 N 923.545 -4.11704 -2.93826 0
M  V30 9752 C 921.843 -2.85251 -3.42852 0
M  V30 9753 C 922.544 -4.92276 -3.09902 0
M  V30 9754 N 921.52 -4.2546 -3.38355 0
M  V30 9755 H 925.322 -2.5522 -1.45739 0
M  V30 9756 H 922.836 -1.45745 -0.716383 0
M  V30 9757 H 924.833 -1.74531 -3.78609 0
M  V30 9758 H 923.493 -0.749557 -3.1593 0
M  V30 9759 H 924.504 -4.41834 -2.70191 0
M  V30 9760 H 921.181 -2.0197 -3.65396 0
M  V30 9761 H 922.571 -6.00905 -3.00604 0
M  V30 9762 N 925.291 0.760815 -1.38019 0
M  V30 9763 C 926.521 1.54776 -1.3685 0
M  V30 9764 C 926.929 1.89146 0.0453971 0
M  V30 9765 O 926.272 1.52746 1.0205 0
M  V30 9766 C 926.334 2.87923 -2.15269 0
M  V30 9767 C 925.998 2.76131 -3.64144 0
M  V30 9768 C 926.995 2.46417 -4.57794 0
M  V30 9769 C 924.68 2.9381 -4.07408 0
M  V30 9770 C 926.674 2.34525 -5.92686 0
M  V30 9771 C 924.361 2.81539 -5.42383 0
M  V30 9772 C 925.359 2.51938 -6.34836 0
M  V30 9773 O 925.047 2.39713 -7.67329 0
M  V30 9774 H 924.779 0.485776 -0.470104 0
M  V30 9775 H 927.333 0.949939 -1.82113 0
M  V30 9776 H 925.563 3.49867 -1.64712 0
M  V30 9777 H 927.252 3.49389 -2.06596 0
M  V30 9778 H 928.018 2.32433 -4.25676 0
M  V30 9779 H 923.897 3.15849 -3.35799 0
M  V30 9780 H 927.441 2.11342 -6.64816 0
M  V30 9781 H 923.338 2.95093 -5.741 0
M  V30 9782 H 924.106 2.5498 -7.77771 0
M  V30 9783 N 926.769 1.22769 0.988202 0
M  V30 9784 C 927.997 1.08155 1.76381 0
M  V30 9785 C 928.412 -0.367573 1.85187 0
M  V30 9786 O 927.769 -1.25455 1.32541 0
M  V30 9787 C 927.82 1.69193 3.19462 0
M  V30 9788 O 927.541 3.08437 3.11125 0
M  V30 9789 C 929.042 1.59915 4.13451 0
M  V30 9790 H 926.262 0.378908 0.553778 0
M  V30 9791 H 928.806 1.6246 1.24206 0
M  V30 9792 H 926.961 1.18939 3.6869 0
M  V30 9793 H 927.375 3.37916 4.0114 0
M  V30 9794 H 928.849 2.07339 5.1158 0
M  V30 9795 H 929.326 0.556546 4.3566 0
M  V30 9796 H 929.932 2.09497 3.70123 0
M  V30 9797 N 928.247 -1.18576 1.03814 0
M  V30 9798 C 929.493 -1.89032 0.750892 0
M  V30 9799 C 929.848 -1.78683 -0.713444 0
M  V30 9800 O 929.141 -1.1746 -1.51373 0
M  V30 9801 C 929.335 -3.38448 1.14837 0
M  V30 9802 C 929.164 -3.63339 2.64981 0
M  V30 9803 C 927.934 -3.80847 3.3209 0
M  V30 9804 C 930.132 -3.64131 3.63198 0
M  V30 9805 N 928.114 -3.93453 4.71241 0
M  V30 9806 C 929.485 -3.82421 4.88011 0
M  V30 9807 C 931.54 -3.47206 3.56865 0
M  V30 9808 C 930.243 -3.85538 6.0725 0
M  V30 9809 C 932.269 -3.51605 4.75529 0
M  V30 9810 C 931.631 -3.70388 5.99159 0
M  V30 9811 H 927.73 -0.710447 0.326786 0
M  V30 9812 H 930.314 -1.42444 1.32732 0
M  V30 9813 H 928.485 -3.83737 0.600058 0
M  V30 9814 H 930.217 -3.96462 0.812406 0
M  V30 9815 H 926.972 -3.80122 2.82496 0
M  V30 9816 H 927.396 -4.03584 5.43552 0
M  V30 9817 H 932.038 -3.31632 2.6226 0
M  V30 9818 H 929.756 -3.99901 7.02214 0
M  V30 9819 H 933.342 -3.39787 4.72267 0
M  V30 9820 H 932.222 -3.73679 6.89445 0
M  V30 9821 N 929.725 -0.817259 -1.34754 0
M  V30 9822 C 930.972 -0.402648 -1.98457 0
M  V30 9823 C 931.3 1.03287 -1.64809 0
M  V30 9824 O 930.555 1.73316 -0.908851 0
M  V30 9825 C 930.854 -0.5453 -3.53216 0
M  V30 9826 C 930.52 -1.9457 -4.06759 0
M  V30 9827 C 929.182 -2.32881 -4.21094 0
M  V30 9828 C 931.534 -2.86141 -4.35629 0
M  V30 9829 C 928.862 -3.62108 -4.61622 0
M  V30 9830 C 931.214 -4.14826 -4.776 0
M  V30 9831 C 929.878 -4.53121 -4.9014 0
M  V30 9832 H 929.148 -0.147339 -0.726204 0
M  V30 9833 H 931.795 -1.04011 -1.60791 0
M  V30 9834 H 930.1 0.175576 -3.91406 0
M  V30 9835 H 931.797 -0.205112 -4.00475 0
M  V30 9836 H 928.387 -1.6381 -3.96061 0
M  V30 9837 H 932.571 -2.57788 -4.24098 0
M  V30 9838 H 927.827 -3.91613 -4.69521 0
M  V30 9839 H 932.001 -4.85874 -4.98899 0
M  V30 9840 H 929.628 -5.53307 -5.21302 0
M  V30 9841 N 931.203 1.46865 -0.571711 0
M  V30 9842 C 932.48 1.95596 0.0132445 0
M  V30 9843 C 932.86 1.51438 1.47071 0
M  V30 9844 O 932.208 0.759917 2.15494 0
M  V30 9845 C 932.418 3.48689 -0.147335 0
M  V30 9846 C 933.766 4.24599 -0.00946329 0
M  V30 9847 O 934.79 3.5612 -0.0756112 0
M  V30 9848 O 933.649 5.46332 0.135361 0
M  V30 9849 H 930.743 0.825102 0.0560039 0
M  V30 9850 H 933.289 1.57199 -0.639256 0
M  V30 9851 H 932.061 3.73681 -1.16096 0
M  V30 9852 H 931.684 3.93887 0.542109 0
M  V30 9853 N 932.681 0.308908 1.54543 0
M  V30 9854 C 933.927 -0.291311 2.01303 0
M  V30 9855 C 934.282 -1.50917 1.19339 0
M  V30 9856 O 933.575 -1.89776 0.263724 0
M  V30 9857 C 933.769 -0.691522 3.50646 0
M  V30 9858 C 933.598 0.486007 4.47066 0
M  V30 9859 C 932.368 0.980515 4.95695 0
M  V30 9860 C 934.566 1.33352 4.96711 0
M  V30 9861 N 932.548 2.12398 5.75986 0
M  V30 9862 C 933.919 2.32436 5.74781 0
M  V30 9863 C 935.974 1.36298 4.78881 0
M  V30 9864 C 934.677 3.34252 6.36921 0
M  V30 9865 C 936.703 2.36976 5.41845 0
M  V30 9866 C 936.065 3.34789 6.19755 0
M  V30 9867 H 932.164 -0.0708418 0.778785 0
M  V30 9868 H 934.748 0.440621 1.89649 0
M  V30 9869 H 932.919 -1.39261 3.62575 0
M  V30 9870 H 934.651 -1.27196 3.84192 0
M  V30 9871 H 931.406 0.55419 4.70346 0
M  V30 9872 H 931.83 2.70036 6.20814 0
M  V30 9873 H 936.472 0.620472 4.18222 0
M  V30 9874 H 934.19 4.09417 6.96709 0
M  V30 9875 H 937.776 2.40039 5.29974 0
M  V30 9876 H 936.656 4.11418 6.67611 0
M  V30 9877 N 934.159 -1.57557 0.0367827 0
M  V30 9878 C 935.107 -2.11844 -0.960454 0
M  V30 9879 C 936.101 -1.04681 -1.33185 0
M  V30 9880 O 937.307 -1.23108 -1.31318 0
M  V30 9881 H 933.682 -0.676921 -0.32754 0
M  V30 9882 H 935.653 -2.94557 -0.477346 0
M  V30 9883 C 934.402 -2.66683 -2.23105 0
M  V30 9884 H 933.725 -3.48795 -1.95403 0
M  V30 9885 H 935.165 -3.08305 -2.91074 0
M  V30 9886 C 933.624 -1.59782 -2.96599 0
M  V30 9887 O 934.154 -1.00214 -3.88999 0
M  V30 9888 N 932.36 -1.31644 -2.59072 0
M  V30 9889 H 931.907 -1.80272 -1.8401 0
M  V30 9890 H 931.865 -0.603457 -3.08554 0
M  V30 9891 N 935.637 0.236453 -1.55816 0
M  V30 9892 C 936.585 1.31259 -1.92025 0
M  V30 9893 C 937.579 1.49292 -0.800518 0
M  V30 9894 O 938.785 1.50643 -0.985229 0
M  V30 9895 H 935.16 0.439751 -0.610019 0
M  V30 9896 H 937.131 0.979926 -2.81851 0
M  V30 9897 C 935.88 2.65892 -2.24046 0
M  V30 9898 H 935.203 2.5282 -3.09713 0
M  V30 9899 H 936.643 3.40039 -2.53277 0
M  V30 9900 C 935.102 3.19777 -1.0604 0
M  V30 9901 O 935.632 4.00473 -0.313786 0
M  V30 9902 N 933.838 2.77946 -0.848209 0
M  V30 9903 H 933.385 2.12433 -1.45706 0
M  V30 9904 H 933.343 3.14342 -0.0603424 0
M  V30 9905 N 937.115 1.49373 0.502552 0
M  V30 9906 C 938.047 1.62045 1.62093 0
M  V30 9907 C 939.06 0.503221 1.54827 0
M  V30 9908 O 940.249 0.775208 1.60788 0
M  V30 9909 C 937.349 1.55971 3.00876 0
M  V30 9910 C 936.522 2.832 3.33341 0
M  V30 9911 C 935.581 2.702 4.51529 0
M  V30 9912 O 934.607 3.44132 4.53389 0
M  V30 9913 N 935.809 1.81642 5.5135 0
M  V30 9914 H 938.574 2.58501 1.51649 0
M  V30 9915 H 936.135 1.46442 0.690396 0
M  V30 9916 H 938.127 1.4493 3.77859 0
M  V30 9917 H 936.697 0.673795 3.05252 0
M  V30 9918 H 935.917 3.08604 2.4527 0
M  V30 9919 H 937.205 3.67551 3.51829 0
M  V30 9920 H 936.603 1.20829 5.52645 0
M  V30 9921 H 935.16 1.76524 6.27441 0
M  V30 9922 N 938.594 -0.753485 1.38421 0
M  V30 9923 C 939.819 -1.54783 1.38047 0
M  V30 9924 C 940.244 -1.8808 -0.0276371 0
M  V30 9925 O 939.602 -1.5058 -1.00973 0
M  V30 9926 C 939.65 -2.82353 2.24297 0
M  V30 9927 O 938.754 -3.77509 1.66014 0
M  V30 9928 H 938.095 -0.468151 0.470883 0
M  V30 9929 H 940.625 -0.931144 1.82184 0
M  V30 9930 H 940.635 -3.31277 2.38159 0
M  V30 9931 H 939.31 -2.57449 3.26639 0
M  V30 9932 H 937.887 -3.36212 1.61294 0
M  V30 9933 N 940.072 -1.23292 -0.981677 0
M  V30 9934 C 941.002 -1.03738 -2.09191 0
M  V30 9935 C 941.983 0.0453041 -1.7004 0
M  V30 9936 O 943.168 -0.119092 -1.93834 0
M  V30 9937 C 940.298 -0.626426 -3.41604 0
M  V30 9938 C 939.252 -1.65631 -3.94652 0
M  V30 9939 C 938.578 -1.10084 -5.23245 0
M  V30 9940 C 939.878 -3.04903 -4.24066 0
M  V30 9941 H 941.572 -1.966 -2.25807 0
M  V30 9942 H 939.118 -0.946656 -1.0851 0
M  V30 9943 H 941.071 -0.476689 -4.18695 0
M  V30 9944 H 939.795 0.337873 -3.24848 0
M  V30 9945 H 938.454 -1.79402 -3.19704 0
M  V30 9946 H 938.102 -0.127562 -5.02838 0
M  V30 9947 H 937.802 -1.78896 -5.59705 0
M  V30 9948 H 939.326 -0.962928 -6.02959 0
M  V30 9949 H 940.74 -2.94441 -4.91912 0
M  V30 9950 H 939.137 -3.70941 -4.71724 0
M  V30 9951 H 940.207 -3.53991 -3.31389 0
M  V30 9952 N 941.55 1.18024 -1.04442 0
M  V30 9953 C 942.961 1.69749 -0.777312 0
M  V30 9954 C 943.312 1.83234 0.701399 0
M  V30 9955 O 942.437 1.51452 1.54568 0
M  V30 9956 C 943.032 3.08321 -1.40441 0
M  V30 9957 C 941.591 3.57243 -1.18553 0
M  V30 9958 C 940.738 2.33695 -1.49271 0
M  V30 9959 H 943.689 1.02647 -1.21035 0
M  V30 9960 H 943.71 3.71787 -0.809628 0
M  V30 9961 H 943.222 2.98474 -2.48062 0
M  V30 9962 H 941.323 3.72379 -0.128221 0
M  V30 9963 H 941.436 4.40451 -1.88519 0
M  V30 9964 H 939.8 2.37792 -0.912526 0
M  V30 9965 H 940.583 2.26464 -2.5801 0
M  V30 9966 N 943.028 0.824394 1.34319 0
M  V30 9967 C 944.258 0.425576 2.02169 0
M  V30 9968 C 944.666 -0.973596 1.62227 0
M  V30 9969 O 944.009 -1.64173 0.824199 0
M  V30 9970 C 944.071 0.449902 3.56674 0
M  V30 9971 C 943.735 1.80266 4.19944 0
M  V30 9972 C 944.732 2.76373 4.40357 0
M  V30 9973 C 942.417 2.09155 4.56683 0
M  V30 9974 C 944.411 3.9954 4.96635 0
M  V30 9975 C 942.098 3.32581 5.12672 0
M  V30 9976 C 943.096 4.27591 5.32592 0
M  V30 9977 O 942.784 5.48837 5.87395 0
M  V30 9978 H 942.516 0.168866 0.654569 0
M  V30 9979 H 945.07 1.11441 1.7254 0
M  V30 9980 H 943.3 -0.295631 3.85568 0
M  V30 9981 H 944.989 0.0709302 4.05838 0
M  V30 9982 H 945.755 2.55351 4.12336 0
M  V30 9983 H 941.634 1.36004 4.40481 0
M  V30 9984 H 945.178 4.73709 5.12099 0
M  V30 9985 H 941.075 3.53466 5.40122 0
M  V30 9986 H 941.843 5.50377 6.05828 0
M  V30 9987 N 944.506 -1.46559 0.579492 0
M  V30 9988 C 945.456 -2.27316 -0.17645 0
M  V30 9989 C 946.44 -1.35681 -0.864835 0
M  V30 9990 O 947.632 -1.59879 -0.759462 0
M  V30 9991 C 944.761 -3.21957 -1.19157 0
M  V30 9992 C 943.847 -4.21077 -0.505459 0
M  V30 9993 N 944.238 -5.03908 0.437133 0
M  V30 9994 C 942.536 -4.39535 -0.75661 0
M  V30 9995 C 943.237 -5.75635 0.837819 0
M  V30 9996 N 942.213 -5.43276 0.187679 0
M  V30 9997 H 946.015 -2.88747 0.547932 0
M  V30 9998 H 943.529 -1.5737 0.401048 0
M  V30 9999 H 945.526 -3.78518 -1.74728 0
M  V30 10000 H 944.186 -2.62085 -1.9168 0
M  V30 10001 H 945.197 -5.11487 0.812488 0
M  V30 10002 H 941.874 -3.90815 -1.46867 0
M  V30 10003 H 943.264 -6.52235 1.61364 0
M  V30 10004 N 945.984 -0.3171 -1.54377 0
M  V30 10005 C 947.209 0.292311 -2.0533 0
M  V30 10006 C 947.634 1.45503 -1.19207 0
M  V30 10007 O 946.992 1.80197 -0.199721 0
M  V30 10008 C 947.04 0.710787 -3.53525 0
M  V30 10009 O 946.144 1.81387 -3.70368 0
M  V30 10010 H 945.485 0.0539976 -0.661801 0
M  V30 10011 H 948.015 -0.463629 -1.99278 0
M  V30 10012 H 948.025 0.995216 -3.95676 0
M  V30 10013 H 946.7 -0.139668 -4.15665 0
M  V30 10014 H 945.277 1.52875 -3.40123 0
M  V30 10015 N 947.462 1.57535 -0.0451378 0
M  V30 10016 C 948.394 2.08109 0.960372 0
M  V30 10017 C 949.407 1.0077 1.27864 0
M  V30 10018 O 950.596 1.28351 1.24049 0
M  V30 10019 C 947.696 2.50414 2.28355 0
M  V30 10020 C 946.869 3.8102 2.14808 0
M  V30 10021 C 945.928 4.09702 3.30198 0
M  V30 10022 O 944.954 4.79715 3.0637 0
M  V30 10023 N 946.156 3.61138 4.54489 0
M  V30 10024 H 948.921 2.94999 0.528752 0
M  V30 10025 H 946.482 1.61283 0.141248 0
M  V30 10026 H 948.474 2.66683 3.04405 0
M  V30 10027 H 947.044 1.68805 2.63104 0
M  V30 10028 H 946.264 3.74392 1.23387 0
M  V30 10029 H 947.552 4.66559 2.02978 0
M  V30 10030 H 946.95 3.04527 4.76739 0
M  V30 10031 H 945.507 3.82656 5.27653 0
M  V30 10032 N 948.94 -0.228186 1.55939 0
M  V30 10033 C 949.887 -1.28274 1.91871 0
M  V30 10034 C 950.857 -1.46906 0.775103 0
M  V30 10035 O 952.042 -1.60583 1.03042 0
M  V30 10036 C 949.182 -2.62945 2.23504 0
M  V30 10037 C 948.295 -2.52166 3.50766 0
M  V30 10038 C 947.43 -3.79316 3.71878 0
M  V30 10039 C 946.469 -3.63231 4.92676 0
M  V30 10040 N 945.606 -4.82315 5.10212 0
M  V30 10041 H 950.446 -0.96931 2.81795 0
M  V30 10042 H 947.983 -0.467331 1.39479 0
M  V30 10043 H 949.941 -3.41359 2.39854 0
M  V30 10044 H 948.571 -2.92397 1.36762 0
M  V30 10045 H 947.623 -1.65221 3.42646 0
M  V30 10046 H 948.935 -2.36199 4.39331 0
M  V30 10047 H 948.089 -4.66173 3.88288 0
M  V30 10048 H 946.828 -3.982 2.81581 0
M  V30 10049 H 945.833 -2.74757 4.76223 0
M  V30 10050 H 947.058 -3.45823 5.84451 0
M  V30 10051 H 945.004 -5.01526 4.22856 0
M  V30 10052 H 944.921 -4.6905 5.92898 0
M  V30 10053 H 946.189 -5.70618 5.31051 0
M  V30 10054 N 950.418 -1.49637 -0.494624 0
M  V30 10055 C 951.348 -1.69692 -1.60396 0
M  V30 10056 C 952.329 -0.545648 -1.61111 0
M  V30 10057 O 953.514 -0.782202 -1.77751 0
M  V30 10058 C 950.644 -1.76934 -2.9885 0
M  V30 10059 C 949.598 -2.91915 -3.13001 0
M  V30 10060 C 948.924 -2.84276 -4.5287 0
M  V30 10061 C 950.224 -4.32764 -2.92426 0
M  V30 10062 H 951.918 -2.6257 -1.43866 0
M  V30 10063 H 949.464 -1.26355 -0.690679 0
M  V30 10064 H 951.417 -1.8955 -3.76362 0
M  V30 10065 H 950.141 -0.806609 -3.16483 0
M  V30 10066 H 948.8 -2.78911 -2.37916 0
M  V30 10067 H 948.448 -1.85897 -4.67388 0
M  V30 10068 H 948.148 -3.61452 -4.63278 0
M  V30 10069 H 949.672 -2.98909 -5.32434 0
M  V30 10070 H 951.086 -4.46415 -3.59703 0
M  V30 10071 H 949.483 -5.1121 -3.143 0
M  V30 10072 H 950.553 -4.46765 -1.88491 0
M  V30 10073 N 951.896 0.746133 -1.38819 0
M  V30 10074 C 953.312 1.0502 -1.20179 0
M  V30 10075 C 953.512 2.01423 -0.0556271 0
M  V30 10076 O 952.568 2.45359 0.59625 0
M  V30 10077 C 953.881 1.62315 -2.53129 0
M  V30 10078 C 955.429 1.74449 -2.59878 0
M  V30 10079 C 955.904 2.35155 -3.93022 0
M  V30 10080 N 957.395 2.42577 -3.94602 0
M  V30 10081 C 958.13 2.9046 -4.94389 0
M  V30 10082 N 957.626 3.38322 -6.04574 0
M  V30 10083 N 959.419 2.89568 -4.81775 0
M  V30 10084 H 951.57 0.106551 -2.12133 0
M  V30 10085 H 953.833 0.109897 -0.941609 0
M  V30 10086 H 953.539 0.98946 -3.37495 0
M  V30 10087 H 953.413 2.61276 -2.72057 0
M  V30 10088 H 955.8 2.36943 -1.75903 0
M  V30 10089 H 955.881 0.741721 -2.4481 0
M  V30 10090 H 955.525 1.73292 -4.77422 0
M  V30 10091 H 955.455 3.36088 -4.05404 0
M  V30 10092 H 957.946 2.08735 -3.15021 0
M  V30 10093 H 958.259 3.73336 -6.76639 0
M  V30 10094 H 956.604 3.3636 -6.08184 0
M  V30 10095 H 959.795 2.51492 -3.94803 0
M  V30 10096 H 959.968 3.26571 -5.59692 0
M  V30 10097 N 953.375 1.23811 0.975125 0
M  V30 10098 C 954.305 1.04846 2.08638 0
M  V30 10099 C 955.286 -0.0362859 1.70061 0
M  V30 10100 O 956.471 0.12937 1.93769 0
M  V30 10101 C 953.601 0.644534 3.41267 0
M  V30 10102 C 952.555 1.67722 3.93768 0
M  V30 10103 C 951.881 1.12857 5.22654 0
M  V30 10104 C 953.181 3.07147 4.22443 0
M  V30 10105 H 954.875 1.97795 2.24761 0
M  V30 10106 H 952.421 0.952397 1.08006 0
M  V30 10107 H 954.374 0.498887 4.18436 0
M  V30 10108 H 953.098 -0.320641 3.25022 0
M  V30 10109 H 951.757 1.81095 3.18748 0
M  V30 10110 H 951.405 0.154227 5.02764 0
M  V30 10111 H 951.105 1.81862 5.58749 0
M  V30 10112 H 952.629 0.994891 6.0244 0
M  V30 10113 H 954.043 2.97045 4.90344 0
M  V30 10114 H 952.44 3.73437 4.6975 0
M  V30 10115 H 953.51 3.55743 3.29507 0
M  V30 10116 N 954.853 -1.17469 1.05066 0
M  V30 10117 C 955.763 -2.25089 0.661222 0
M  V30 10118 C 956.779 -1.71086 -0.31712 0
M  V30 10119 O 957.955 -2.00685 -0.169534 0
M  V30 10120 C 955.02 -3.46676 0.0406415 0
M  V30 10121 C 954.081 -4.15771 1.06927 0
M  V30 10122 C 953.314 -5.31553 0.478208 0
M  V30 10123 O 953.537 -5.6593 -0.712714 0
M  V30 10124 O 952.471 -5.89574 1.21185 0
M  V30 10125 H 956.297 -2.60685 1.5581 0
M  V30 10126 H 953.882 -1.24744 0.822147 0
M  V30 10127 H 955.764 -4.203 -0.304312 0
M  V30 10128 H 954.439 -3.1288 -0.829909 0
M  V30 10129 H 953.346 -3.44171 1.46619 0
M  V30 10130 H 954.679 -4.53591 1.91092 0
M  V30 10131 N 956.331 -0.831506 -1.3388 0
M  V30 10132 C 957.742 -0.481375 -1.80388 0
M  V30 10133 C 958.093 0.998993 -1.68863 0
M  V30 10134 O 957.218 1.77795 -1.2336 0
M  V30 10135 C 957.813 -0.86699 -3.27519 0
M  V30 10136 C 956.372 -0.569105 -3.72073 0
M  V30 10137 C 955.519 -1.07929 -2.55434 0
M  V30 10138 H 958.47 -1.02089 -1.21505 0
M  V30 10139 H 958.491 -0.174128 -3.80101 0
M  V30 10140 H 958.003 -1.94447 -3.35875 0
M  V30 10141 H 956.104 0.498607 -3.69249 0
M  V30 10142 H 956.217 -1.11918 -4.65845 0
M  V30 10143 H 954.581 -0.500465 -2.49735 0
M  V30 10144 H 955.364 -2.16339 -2.66556 0
M  V30 10145 N 957.809 1.4625 -0.587256 0
M  V30 10146 C 959.055 2.02662 -0.0746851 0
M  V30 10147 C 959.388 1.45723 1.28368 0
M  V30 10148 O 958.663 0.624062 1.84216 0
M  V30 10149 C 958.946 3.60097 -0.0138109 0
M  V30 10150 C 958.799 4.27412 -1.4014 0
M  V30 10151 C 960.118 4.34744 0.684491 0
M  V30 10152 H 957.237 0.736444 -0.0286144 0
M  V30 10153 H 959.879 1.74341 -0.755328 0
M  V30 10154 H 958.029 3.84357 0.56583 0
M  V30 10155 H 959.701 4.14401 -2.02656 0
M  V30 10156 H 957.944 3.86598 -1.96785 0
M  V30 10157 H 958.615 5.362 -1.31124 0
M  V30 10158 H 961.091 4.15657 0.192023 0
M  V30 10159 H 959.967 5.44468 0.696127 0
M  V30 10160 H 960.228 4.06132 1.74669 0
M  V30 10161 N 959.287 0.325282 1.54207 0
M  V30 10162 C 960.234 -0.539889 2.24397 0
M  V30 10163 C 961.204 -1.11028 1.2354 0
M  V30 10164 O 962.389 -1.1503 1.52226 0
M  V30 10165 C 959.529 -1.69405 3.00659 0
M  V30 10166 C 958.642 -1.15273 4.16337 0
M  V30 10167 C 957.777 -2.27272 4.80126 0
M  V30 10168 C 956.816 -1.70397 5.87904 0
M  V30 10169 N 955.953 -2.76065 6.45548 0
M  V30 10170 H 960.793 0.0652318 2.97929 0
M  V30 10171 H 958.33 0.043964 1.47034 0
M  V30 10172 H 960.288 -2.37325 3.43122 0
M  V30 10173 H 958.918 -2.27043 2.29458 0
M  V30 10174 H 957.97 -0.365034 3.78645 0
M  V30 10175 H 959.282 -0.696576 4.93912 0
M  V30 10176 H 958.436 -3.03092 5.25566 0
M  V30 10177 H 957.175 -2.76224 4.01935 0
M  V30 10178 H 956.18 -0.930752 5.41864 0
M  V30 10179 H 957.405 -1.22319 6.67993 0
M  V30 10180 H 955.351 -3.24306 5.7023 0
M  V30 10181 H 955.268 -2.35018 7.18542 0
M  V30 10182 H 956.536 -3.5171 6.95644 0
M  V30 10183 N 960.765 -1.57509 0.0534917 0
M  V30 10184 C 962.011 -1.93068 -0.62069 0
M  V30 10185 C 962.344 -0.932313 -1.70357 0
M  V30 10186 O 961.619 0.0413393 -1.94456 0
M  V30 10187 C 961.902 -3.38997 -1.21463 0
M  V30 10188 C 961.755 -4.49583 -0.13965 0
M  V30 10189 C 963.074 -3.85366 -2.12558 0
M  V30 10190 H 960.193 -0.702083 -0.224163 0
M  V30 10191 H 962.835 -1.89647 0.115729 0
M  V30 10192 H 960.985 -3.42043 -1.84226 0
M  V30 10193 H 962.657 -4.58664 0.492411 0
M  V30 10194 H 960.9 -4.30525 0.532006 0
M  V30 10195 H 961.571 -5.48781 -0.595287 0
M  V30 10196 H 964.047 -3.8421 -1.59755 0
M  V30 10197 H 962.923 -4.8812 -2.51058 0
M  V30 10198 H 963.184 -3.22256 -3.02661 0
M  V30 10199 N 962.243 0.219913 -1.56058 0
M  V30 10200 C 963.175 1.29604 -1.89038 0
M  V30 10201 C 964.188 1.42964 -0.778791 0
M  V30 10202 O 965.377 1.43832 -1.0571 0
M  V30 10203 C 962.477 2.67145 -2.08534 0
M  V30 10204 C 961.65 2.75712 -3.39561 0
M  V30 10205 C 960.709 3.94279 -3.48469 0
M  V30 10206 O 959.735 3.8254 -4.21487 0
M  V30 10207 N 960.937 5.08655 -2.79732 0
M  V30 10208 H 963.702 1.01638 -2.81939 0
M  V30 10209 H 961.263 0.409945 -1.56624 0
M  V30 10210 H 963.255 3.44847 -2.11808 0
M  V30 10211 H 961.825 2.87704 -1.2225 0
M  V30 10212 H 961.045 1.84475 -3.48371 0
M  V30 10213 H 962.333 2.78407 -4.25872 0
M  V30 10214 H 961.731 5.21088 -2.2019 0
M  V30 10215 H 960.288 5.84394 -2.88665 0
M  V30 10216 N 963.721 1.49897 0.486681 0
M  V30 10217 C 964.671 1.6401 1.58381 0
M  V30 10218 C 965.655 0.495215 1.5309 0
M  V30 10219 O 966.847 0.748876 1.60377 0
M  V30 10220 C 963.976 1.72321 2.96918 0
M  V30 10221 C 963.062 2.92435 3.07152 0
M  V30 10222 N 963.453 4.16326 2.87238 0
M  V30 10223 C 961.751 2.90669 3.38271 0
M  V30 10224 C 962.452 4.97144 3.02031 0
M  V30 10225 N 961.428 4.3079 3.31544 0
M  V30 10226 H 965.23 2.57506 1.41661 0
M  V30 10227 H 962.744 1.46867 0.693106 0
M  V30 10228 H 964.741 1.80532 3.75784 0
M  V30 10229 H 963.401 0.799724 3.14697 0
M  V30 10230 H 964.412 4.46076 2.63128 0
M  V30 10231 H 961.089 2.07758 3.62137 0
M  V30 10232 H 962.479 6.05611 2.91006 0
M  V30 10233 N 965.199 -0.738761 1.39212 0
M  V30 10234 C 966.424 -1.5331 1.39681 0
M  V30 10235 C 966.849 -1.88098 -0.00768715 0
M  V30 10236 O 966.207 -1.51642 -0.993699 0
M  V30 10237 C 966.255 -2.79958 2.27279 0
M  V30 10238 O 965.359 -3.75727 1.70008 0
M  V30 10239 H 964.7 -0.463131 0.475821 0
M  V30 10240 H 967.23 -0.911768 1.83161 0
M  V30 10241 H 967.24 -3.28732 2.41659 0
M  V30 10242 H 965.915 -2.5397 3.29351 0
M  V30 10243 H 964.492 -3.34483 1.64851 0
M  V30 10244 N 966.677 -1.24326 -0.968545 0
M  V30 10245 C 967.925 -1.08032 -1.70803 0
M  V30 10246 C 968.246 0.381728 -1.91227 0
M  V30 10247 O 967.516 1.27253 -1.48942 0
M  V30 10248 H 966.096 -0.396777 -0.632912 0
M  V30 10249 H 968.758 -1.56232 -1.16523 0
M  V30 10250 H 967.854 -1.57769 -2.69287 0
M  V30 10251 N 968.156 1.1691 -1.05688 0
M  V30 10252 C 969.119 2.19297 -0.666433 0
M  V30 10253 C 970.119 1.5826 0.284674 0
M  V30 10254 O 971.309 1.74068 0.0678757 0
M  V30 10255 C 968.441 3.40894 0.0203656 0
M  V30 10256 H 969.634 2.55354 -1.57272 0
M  V30 10257 H 967.187 1.31078 -0.851359 0
M  V30 10258 H 967.922 3.10388 0.939686 0
M  V30 10259 H 967.707 3.86446 -0.663464 0
M  V30 10260 H 969.197 4.16664 0.279475 0
M  V30 10261 N 969.634 0.838594 1.33437 0
M  V30 10262 C 970.864 0.446995 2.01707 0
M  V30 10263 C 971.272 -0.956335 1.63251 0
M  V30 10264 O 970.615 -1.63289 0.841566 0
M  V30 10265 C 970.677 0.487707 3.56176 0
M  V30 10266 C 970.341 1.8471 4.18009 0
M  V30 10267 C 971.338 2.81028 4.374 0
M  V30 10268 C 969.023 2.13987 4.54439 0
M  V30 10269 C 971.017 4.04785 4.92369 0
M  V30 10270 C 968.704 3.38 5.09116 0
M  V30 10271 C 969.702 4.33216 5.28027 0
M  V30 10272 O 969.39 5.55036 5.81541 0
M  V30 10273 H 969.122 0.175799 0.652741 0
M  V30 10274 H 971.676 1.13265 1.71348 0
M  V30 10275 H 969.906 -0.254719 3.8586 0
M  V30 10276 H 971.595 0.113971 4.0574 0
M  V30 10277 H 972.361 2.5971 4.09604 0
M  V30 10278 H 968.24 1.40668 4.39014 0
M  V30 10279 H 971.784 4.79114 5.07046 0
M  V30 10280 H 967.681 3.59175 5.36343 0
M  V30 10281 H 968.449 5.56772 5.99956 0
M  V30 10282 N 971.112 -1.45937 0.595003 0
M  V30 10283 C 972.358 -2.03184 0.0938125 0
M  V30 10284 C 972.713 -1.45675 -1.25684 0
M  V30 10285 O 972.006 -0.617122 -1.8139 0
M  V30 10286 C 972.2 -3.57396 -0.0173747 0
M  V30 10287 C 972.029 -4.29861 1.32096 0
M  V30 10288 C 970.799 -4.68285 1.89835 0
M  V30 10289 C 972.997 -4.6262 2.24693 0
M  V30 10290 N 970.979 -5.25554 3.17279 0
M  V30 10291 C 972.35 -5.20589 3.36729 0
M  V30 10292 C 974.405 -4.44555 2.24221 0
M  V30 10293 C 973.108 -5.62398 4.48443 0
M  V30 10294 C 975.134 -4.87388 3.34973 0
M  V30 10295 C 974.496 -5.45439 4.4573 0
M  V30 10296 H 970.595 -0.77816 0.0773994 0
M  V30 10297 H 973.179 -1.77926 0.790599 0
M  V30 10298 H 971.35 -3.82341 -0.683354 0
M  V30 10299 H 973.082 -4.01292 -0.524073 0
M  V30 10300 H 969.837 -4.51437 1.43185 0
M  V30 10301 H 970.261 -5.58699 3.8234 0
M  V30 10302 H 974.903 -3.98998 1.39857 0
M  V30 10303 H 972.621 -6.06927 5.3354 0
M  V30 10304 H 976.207 -4.75152 3.3574 0
M  V30 10305 H 975.087 -5.77975 5.30014 0
M  V30 10306 N 972.59 -0.333456 -1.54032 0
M  V30 10307 C 973.83 0.266604 -2.02654 0
M  V30 10308 C 974.194 1.48568 -1.21621 0
M  V30 10309 O 975.395 2.15925 -1.60093 0
M  V30 10310 C 973.666 0.582825 -3.52616 0
M  V30 10311 S 975.225 1.16113 -4.23159 0
M  V30 10312 H 972.043 0.0800344 -0.706481 0
M  V30 10313 H 974.645 -0.468876 -1.89794 0
M  V30 10314 H 973.349 -0.312401 -4.09209 0
M  V30 10315 H 972.88 1.34824 -3.69576 0
M  V30 10316 H 974.895 2.44743 -4.31642 0
M  V30 10317 N 974.068 1.57479 -0.061844 0
M  V30 10318 C 975 2.09116 0.938245 0
M  V30 10319 C 976.013 1.0212 1.26788 0
M  V30 10320 O 977.202 1.2966 1.22681 0
M  V30 10321 C 974.302 2.52822 2.25686 0
M  V30 10322 C 973.475 3.83277 2.10755 0
M  V30 10323 C 972.534 4.13182 3.25833 0
M  V30 10324 O 971.56 4.82937 3.01265 0
M  V30 10325 N 972.762 3.65938 4.50633 0
M  V30 10326 H 975.527 2.95543 0.497433 0
M  V30 10327 H 973.088 1.61423 0.124134 0
M  V30 10328 H 975.08 2.69896 3.01559 0
M  V30 10329 H 973.65 1.71586 2.61299 0
M  V30 10330 H 972.87 3.7568 1.19409 0
M  V30 10331 H 974.158 4.68686 1.98018 0
M  V30 10332 H 973.556 3.09566 4.73482 0
M  V30 10333 H 972.113 3.8823 5.23565 0
M  V30 10334 N 975.546 -0.211634 1.56173 0
M  V30 10335 C 976.794 -0.932704 1.7929 0
M  V30 10336 C 977.115 -1.84472 0.632076 0
M  V30 10337 O 976.385 -1.92739 -0.350519 0
M  V30 10338 H 974.965 -0.347393 0.661307 0
M  V30 10339 H 977.627 -0.22111 1.93642 0
M  V30 10340 H 976.723 -1.53365 2.71819 0
M  V30 10341 N 977.024 -1.50153 -0.478725 0
M  V30 10342 C 978.252 -1.64505 -1.25482 0
M  V30 10343 C 978.667 -0.325295 -1.85977 0
M  V30 10344 O 978.024 0.691885 -1.68876 0
M  V30 10345 C 978.075 -2.73052 -2.36906 0
M  V30 10346 O 977.796 -3.99911 -1.78894 0
M  V30 10347 C 979.297 -2.98309 -3.27912 0
M  V30 10348 H 976.517 -0.55318 -0.379781 0
M  V30 10349 H 979.061 -1.96329 -0.57229 0
M  V30 10350 H 977.216 -2.43944 -3.00949 0
M  V30 10351 H 977.63 -4.5988 -2.52211 0
M  V30 10352 H 979.104 -3.77942 -4.02323 0
M  V30 10353 H 979.581 -2.09082 -3.8624 0
M  V30 10354 H 980.187 -3.2892 -2.69614 0
M  V30 10355 N 978.502 0.731368 -1.39602 0
M  V30 10356 C 979.45 1.86676 -1.38761 0
M  V30 10357 C 980.444 1.6723 -0.270247 0
M  V30 10358 O 981.65 1.74528 -0.440471 0
M  V30 10359 H 978.025 0.614553 -0.433391 0
M  V30 10360 H 979.996 1.84501 -2.34525 0
M  V30 10361 C 978.745 3.24394 -1.25155 0
M  V30 10362 H 978.068 3.39955 -2.10406 0
M  V30 10363 H 979.508 4.04019 -1.28625 0
M  V30 10364 C 977.967 3.36877 0.0396976 0
M  V30 10365 O 978.497 3.88833 1.00854 0
M  V30 10366 N 976.703 2.90414 0.103965 0
M  V30 10367 H 976.25 2.48321 -0.685155 0
M  V30 10368 H 976.208 2.99146 0.967435 0
M  V30 10369 N 979.98 1.24838 0.961938 0
M  V30 10370 C 981.205 1.11967 1.7458 0
M  V30 10371 C 981.63 -0.323287 1.85301 0
M  V30 10372 O 980.988 -1.23412 1.32812 0
M  V30 10373 C 981.036 1.77066 3.14134 0
M  V30 10374 O 980.14 1.04534 3.98932 0
M  V30 10375 H 979.481 0.391338 0.536424 0
M  V30 10376 H 982.011 1.65259 1.20626 0
M  V30 10377 H 982.021 1.83056 3.64629 0
M  V30 10378 H 980.696 2.82052 3.05646 0
M  V30 10379 H 979.273 1.06372 3.57407 0
M  V30 10380 N 981.458 -1.16348 1.06306 0
M  V30 10381 C 982.704 -1.87158 0.781007 0
M  V30 10382 C 983.037 -1.81499 -0.690784 0
M  V30 10383 O 982.312 -1.23074 -1.50609 0
M  V30 10384 C 982.595 -3.3672 1.27639 0
M  V30 10385 C 982.448 -3.51069 2.81194 0
M  V30 10386 C 983.767 -4.31122 0.884388 0
M  V30 10387 H 980.886 -0.679586 0.285187 0
M  V30 10388 H 983.528 -1.36756 1.31901 0
M  V30 10389 H 981.678 -3.79775 0.818715 0
M  V30 10390 H 983.35 -3.16952 3.35171 0
M  V30 10391 H 981.593 -2.92976 3.19918 0
M  V30 10392 H 982.264 -4.56105 3.10921 0
M  V30 10393 H 984.74 -3.95969 1.27858 0
M  V30 10394 H 983.616 -5.34279 1.25847 0
M  V30 10395 H 983.877 -4.41598 -0.210673 0
M  V30 10396 N 982.937 -0.845659 -1.3299 0
M  V30 10397 C 984.185 -0.443774 -1.97168 0
M  V30 10398 C 984.506 1.00192 -1.67292 0
M  V30 10399 O 983.776 1.69891 -0.975397 0
M  V30 10400 H 982.356 -0.161111 -0.729419 0
M  V30 10401 H 985.018 -1.08011 -1.62233 0
M  V30 10402 H 984.114 -0.581414 -3.06637 0
M  V30 10403 N 984.415 1.45619 -0.602734 0
M  V30 10404 C 985.362 2.30493 0.118944 0
M  V30 10405 C 986.332 1.41816 0.864723 0
M  V30 10406 O 987.517 1.7075 0.851424 0
M  V30 10407 C 984.657 3.2664 1.11356 0
M  V30 10408 C 983.77 4.3042 0.369161 0
M  V30 10409 C 982.905 5.13678 1.35307 0
M  V30 10410 C 981.944 6.09189 0.596207 0
M  V30 10411 N 981.081 6.85245 1.52916 0
M  V30 10412 H 985.921 2.91672 -0.610836 0
M  V30 10413 H 983.458 1.43731 -0.313032 0
M  V30 10414 H 985.416 3.80846 1.7033 0
M  V30 10415 H 984.046 2.67225 1.81081 0
M  V30 10416 H 983.098 3.78913 -0.335994 0
M  V30 10417 H 984.41 4.98307 -0.221603 0
M  V30 10418 H 983.564 5.7226 2.01502 0
M  V30 10419 H 982.303 4.45798 1.97777 0
M  V30 10420 H 981.308 5.49743 -0.0793984 0
M  V30 10421 H 982.533 6.79096 -0.0233734 0
M  V30 10422 H 980.479 6.20058 2.14159 0
M  V30 10423 H 980.396 7.49467 0.991713 0
M  V30 10424 H 981.664 7.48371 2.18083 0
M  V30 10425 N 985.893 0.34162 1.53853 0
M  V30 10426 C 987.141 -0.254979 2.00485 0
M  V30 10427 C 987.462 -1.51222 1.23114 0
M  V30 10428 O 986.732 -1.92966 0.337787 0
M  V30 10429 H 985.312 -0.0972084 0.740648 0
M  V30 10430 H 987.974 0.462332 1.89337 0
M  V30 10431 H 987.07 -0.498778 3.08089 0
M  V30 10432 N 987.371 -1.57444 0.0701946 0
M  V30 10433 C 988.787 -1.57009 -0.286431 0
M  V30 10434 C 988.987 -1.07946 -1.70147 0
M  V30 10435 O 988.043 -0.744622 -2.41271 0
M  V30 10436 C 989.356 -3.00542 -0.0975466 0
M  V30 10437 C 990.904 -3.12553 -0.167205 0
M  V30 10438 C 991.379 -4.58 -0.00662047 0
M  V30 10439 N 992.87 -4.63158 -0.0622778 0
M  V30 10440 C 993.605 -5.73388 0.0375831 0
M  V30 10441 N 993.101 -6.92537 0.190873 0
M  V30 10442 N 994.894 -5.62097 -0.0193672 0
M  V30 10443 H 987.045 -1.87651 0.995023 0
M  V30 10444 H 989.308 -0.865006 0.387902 0
M  V30 10445 H 989.014 -3.40543 0.878822 0
M  V30 10446 H 988.888 -3.67485 -0.850547 0
M  V30 10447 H 991.275 -2.72439 -1.13406 0
M  V30 10448 H 991.356 -2.48251 0.616871 0
M  V30 10449 H 991 -4.98803 0.956992 0
M  V30 10450 H 990.93 -5.20332 -0.810081 0
M  V30 10451 H 993.421 -3.77475 -0.179229 0
M  V30 10452 H 993.734 -7.72365 0.25926 0
M  V30 10453 H 992.079 -6.94632 0.226214 0
M  V30 10454 H 995.27 -4.67897 -0.137815 0
M  V30 10455 H 995.443 -6.4797 0.0619121 0
M  V30 10456 N 988.849 0.203349 -1.56283 0
M  V30 10457 C 990.074 0.945548 -1.84592 0
M  V30 10458 C 990.499 1.7641 -0.652772 0
M  V30 10459 O 989.857 1.76867 0.398468 0
M  V30 10460 C 989.905 1.82416 -3.11057 0
M  V30 10461 O 989.009 2.92191 -2.9103 0
M  V30 10462 H 988.35 0.266739 -0.608068 0
M  V30 10463 H 990.88 0.211158 -2.03507 0
M  V30 10464 H 990.89 2.23044 -3.41636 0
M  V30 10465 H 989.565 1.22267 -3.97522 0
M  V30 10466 H 988.142 2.55378 -2.71728 0
M  V30 10467 N 990.327 1.50405 0.470755 0
M  V30 10468 C 991.738 1.54266 1.05162 0
M  V30 10469 C 992.089 0.346359 1.93119 0
M  V30 10470 O 991.214 -0.540699 2.09536 0
M  V30 10471 C 991.809 2.7956 1.91394 0
M  V30 10472 C 990.368 2.86101 2.44588 0
M  V30 10473 C 989.515 2.48557 1.22941 0
M  V30 10474 H 992.466 1.56665 0.253359 0
M  V30 10475 H 992.487 2.61434 2.76464 0
M  V30 10476 H 991.999 3.66611 1.27351 0
M  V30 10477 H 990.1 2.03403 3.12183 0
M  V30 10478 H 990.213 3.88999 2.79672 0
M  V30 10479 H 988.577 2.01003 1.56429 0
M  V30 10480 H 989.36 3.37916 0.605598 0
M  V30 10481 N 991.805 -0.723954 1.39988 0
M  V30 10482 C 992.735 -1.85103 1.42335 0
M  V30 10483 C 993.716 -1.6769 0.285297 0
M  V30 10484 O 994.901 -1.87846 0.492716 0
M  V30 10485 C 992.031 -3.22972 1.27697 0
M  V30 10486 C 990.985 -3.55041 2.39018 0
M  V30 10487 C 990.311 -4.91965 2.09462 0
M  V30 10488 C 991.611 -3.56889 3.8135 0
M  V30 10489 H 993.305 -1.83396 2.36656 0
M  V30 10490 H 990.851 -0.880926 1.13911 0
M  V30 10491 H 992.804 -4.01503 1.27958 0
M  V30 10492 H 991.528 -3.25233 0.298487 0
M  V30 10493 H 990.187 -2.78845 2.37993 0
M  V30 10494 H 989.835 -4.90819 1.10025 0
M  V30 10495 H 989.535 -5.14389 2.84038 0
M  V30 10496 H 991.059 -5.7284 2.11391 0
M  V30 10497 H 992.473 -4.25476 3.84243 0
M  V30 10498 H 990.87 -3.90836 4.55376 0
M  V30 10499 H 991.94 -2.56452 4.11534 0
M  V30 10500 N 993.283 -1.25346 -0.955304 0
M  V30 10501 C 994.508 -1.12892 -1.73983 0
M  V30 10502 C 994.933 0.313455 -1.8547 0
M  V30 10503 O 994.291 1.22706 -1.33465 0
M  V30 10504 C 994.339 -1.78729 -3.1319 0
M  V30 10505 O 993.443 -1.06648 -3.98372 0
M  V30 10506 H 992.784 -0.394178 -0.534341 0
M  V30 10507 H 995.314 -1.65897 -1.19747 0
M  V30 10508 H 995.324 -1.84987 -3.63653 0
M  V30 10509 H 993.999 -2.83669 -3.04146 0
M  V30 10510 H 992.576 -1.08266 -3.56837 0
M  V30 10511 N 994.761 1.15782 -1.06922 0
M  V30 10512 C 995.989 1.90355 -0.81072 0
M  V30 10513 C 996.404 1.77779 0.635614 0
M  V30 10514 O 995.761 1.12675 1.43564 0
M  V30 10515 C 995.812 3.4085 -1.2043 0
M  V30 10516 O 995.533 3.53057 -2.59388 0
M  V30 10517 C 997.034 4.32457 -0.974473 0
M  V30 10518 H 994.254 0.60343 -0.293451 0
M  V30 10519 H 996.798 1.46723 -1.42452 0
M  V30 10520 H 994.953 3.82162 -0.634909 0
M  V30 10521 H 995.367 4.46426 -2.75326 0
M  V30 10522 H 996.841 5.36488 -1.29942 0
M  V30 10523 H 997.318 4.39109 0.0894481 0
M  V30 10524 H 997.924 3.96882 -1.52856 0
M  V30 10525 N 996.239 0.8527 1.3254 0
M  V30 10526 C 997.169 0.311234 2.31416 0
M  V30 10527 C 998.15 -0.588557 1.59593 0
M  V30 10528 O 999.335 -0.509211 1.87405 0
M  V30 10529 C 996.465 -0.502892 3.4364 0
M  V30 10530 C 995.419 0.302296 4.26931 0
M  V30 10531 C 994.745 -0.636445 5.30899 0
M  V30 10532 C 996.045 1.52697 4.99481 0
M  V30 10533 H 997.739 1.13742 2.76953 0
M  V30 10534 H 995.285 0.548389 1.33149 0
M  V30 10535 H 997.238 -0.892092 4.11849 0
M  V30 10536 H 995.962 -1.36242 2.96826 0
M  V30 10537 H 994.621 0.673226 3.60365 0
M  V30 10538 H 994.269 -1.49277 4.80339 0
M  V30 10539 H 993.969 -0.101716 5.87512 0
M  V30 10540 H 995.493 -1.02286 6.01972 0
M  V30 10541 H 996.907 1.21017 5.60382 0
M  V30 10542 H 995.304 1.9995 5.65809 0
M  V30 10543 H 996.374 2.28929 4.27457 0
M  V30 10544 N 997.718 -1.45297 0.610449 0
M  V30 10545 C 998.946 -2.0659 0.113211 0
M  V30 10546 C 999.361 -1.4546 -1.20361 0
M  V30 10547 O 998.718 -0.569823 -1.73376 0
M  V30 10548 C 998.769 -3.61488 -0.0298411 0
M  V30 10549 O 998.49 -4.20336 1.23488 0
M  V30 10550 C 999.991 -4.39772 -0.558202 0
M  V30 10551 H 997.211 -0.667322 0.0701555 0
M  V30 10552 H 999.755 -1.86497 0.838993 0
M  V30 10553 H 997.91 -3.80913 -0.705963 0
M  V30 10554 H 998.324 -5.13545 1.0664 0
M  V30 10555 H 999.798 -5.48648 -0.607375 0
M  V30 10556 H 1000.27 -4.09755 -1.58107 0
M  V30 10557 H 1000.88 -4.25217 0.0839704 0
M  V30 10558 N 999.196 -0.349774 -1.5367 0
M  V30 10559 C 1000.44 0.245189 -2.01312 0
M  V30 10560 C 1000.77 1.49702 -1.23705 0
M  V30 10561 O 1000.05 1.91742 -0.326371 0
M  V30 10562 C 1000.33 0.553071 -3.55827 0
M  V30 10563 C 1000.19 -0.71129 -4.4414 0
M  V30 10564 C 1001.5 1.36015 -4.18555 0
M  V30 10565 H 998.624 0.0876415 -0.73177 0
M  V30 10566 H 1001.27 -0.471543 -1.84056 0
M  V30 10567 H 999.416 1.16367 -3.70663 0
M  V30 10568 H 1001.09 -1.34913 -4.41131 0
M  V30 10569 H 999.331 -1.33491 -4.1275 0
M  V30 10570 H 1000 -0.45104 -5.50154 0
M  V30 10571 H 1002.48 0.843778 -4.07455 0
M  V30 10572 H 1001.35 1.54432 -5.26728 0
M  V30 10573 H 1001.61 2.36408 -3.73582 0
M  V30 10574 N 1000.67 1.57404 -0.0785433 0
M  V30 10575 C 1001.9 1.97787 0.596995 0
M  V30 10576 C 1002.31 0.955904 1.63276 0
M  V30 10577 O 1001.65 -0.0649169 1.83585 0
M  V30 10578 C 1001.72 3.34499 1.31723 0
M  V30 10579 C 1001.38 4.54933 0.434144 0
M  V30 10580 C 1002.38 5.18969 -0.311015 0
M  V30 10581 C 1000.06 5.01029 0.357046 0
M  V30 10582 C 1002.06 6.27457 -1.12142 0
M  V30 10583 C 999.744 6.09389 -0.457029 0
M  V30 10584 C 1000.74 6.72466 -1.19493 0
M  V30 10585 O 1000.43 7.78738 -1.99556 0
M  V30 10586 H 1000.16 0.655294 0.166028 0
M  V30 10587 H 1002.72 2.04855 -0.149517 0
M  V30 10588 H 1000.95 3.24064 2.10996 0
M  V30 10589 H 1002.63 3.5944 1.88567 0
M  V30 10590 H 1003.4 4.84297 -0.261084 0
M  V30 10591 H 999.28 4.51706 0.921026 0
M  V30 10592 H 1002.82 6.76622 -1.69788 0
M  V30 10593 H 998.721 6.43494 -0.508499 0
M  V30 10594 H 999.489 7.95648 -1.9206 0
M  V30 10595 N 1002.15 -0.195058 1.56388 0
M  V30 10596 C 1003.38 -0.930291 1.8447 0
M  V30 10597 C 1003.79 -1.77356 0.658901 0
M  V30 10598 O 1003.13 -1.79691 -0.381664 0
M  V30 10599 C 1003.19 -1.87626 3.06654 0
M  V30 10600 C 1002.86 -1.21494 4.40555 0
M  V30 10601 C 1003.86 -0.591847 5.1652 0
M  V30 10602 C 1001.54 -1.21878 4.8729 0
M  V30 10603 C 1003.53 0.0185743 6.37397 0
M  V30 10604 C 1001.22 -0.604524 6.08103 0
M  V30 10605 C 1002.22 0.0130731 6.82999 0
M  V30 10606 O 1001.91 0.617703 8.01523 0
M  V30 10607 H 1001.64 -0.276933 0.616672 0
M  V30 10608 H 1004.19 -0.207277 2.04351 0
M  V30 10609 H 1002.42 -2.63897 2.82658 0
M  V30 10610 H 1004.11 -2.47929 3.21382 0
M  V30 10611 H 1004.88 -0.581018 4.81507 0
M  V30 10612 H 1000.76 -1.68888 4.2895 0
M  V30 10613 H 1004.3 0.50124 6.95797 0
M  V30 10614 H 1000.2 -0.612855 6.42584 0
M  V30 10615 H 1000.97 0.514612 8.16881 0
M  V30 10616 N 1003.63 -1.50653 -0.462772 0
M  V30 10617 C 1004.85 -1.66103 -1.24196 0
M  V30 10618 C 1005.28 -0.347421 -1.84864 0
M  V30 10619 O 1004.64 0.689673 -1.6767 0
M  V30 10620 C 1004.69 -2.76027 -2.32037 0
M  V30 10621 O 1003.79 -2.37859 -3.36893 0
M  V30 10622 H 1003.13 -0.554672 -0.365014 0
M  V30 10623 H 1005.66 -1.97076 -0.549734 0
M  V30 10624 H 1005.67 -2.99354 -2.77221 0
M  V30 10625 H 1004.35 -3.71361 -1.87253 0
M  V30 10626 H 1002.92 -2.2501 -2.97363 0
M  V30 10627 N 1005.11 0.71652 -1.4037 0
M  V30 10628 C 1006.52 1.29562 -1.34427 0
M  V30 10629 C 1006.87 1.96192 -0.0173106 0
M  V30 10630 O 1006 1.97488 0.884719 0
M  V30 10631 C 1006.59 2.35601 -2.4347 0
M  V30 10632 C 1005.15 2.89138 -2.4099 0
M  V30 10633 C 1004.3 1.62915 -2.24397 0
M  V30 10634 H 1007.25 0.512715 -1.5019 0
M  V30 10635 H 1007.27 3.16422 -2.11323 0
M  V30 10636 H 1006.78 1.87077 -3.40035 0
M  V30 10637 H 1004.88 3.41894 -1.4812 0
M  V30 10638 H 1004.99 3.40995 -3.3654 0
M  V30 10639 H 1003.36 1.87947 -1.71896 0
M  V30 10640 H 1004.14 1.16417 -3.22958 0
M  V30 10641 N 1006.59 1.25851 0.948643 0
M  V30 10642 C 1007.5 1.08516 2.07994 0
M  V30 10643 C 1008.51 0.0206696 1.73988 0
M  V30 10644 O 1009.69 0.222854 2.00163 0
M  V30 10645 C 1006.75 0.712145 3.39307 0
M  V30 10646 C 1005.81 1.85523 3.87143 0
M  V30 10647 C 1005.05 1.49992 5.1219 0
M  V30 10648 O 1005.27 0.398268 5.69008 0
M  V30 10649 O 1004.2 2.33215 5.54882 0
M  V30 10650 H 1008.03 2.03405 2.25522 0
M  V30 10651 H 1005.62 1.04844 1.06433 0
M  V30 10652 H 1007.5 0.516512 4.18223 0
M  V30 10653 H 1006.17 -0.207416 3.23035 0
M  V30 10654 H 1005.08 2.10578 3.09205 0
M  V30 10655 H 1006.41 2.75425 4.07924 0
M  V30 10656 N 1008.06 -1.15214 1.07534 0
M  V30 10657 C 1009.29 -1.89922 0.820804 0
M  V30 10658 C 1009.71 -1.78114 -0.626177 0
M  V30 10659 O 1009.06 -1.13435 -1.42964 0
M  V30 10660 C 1009.12 -3.40207 1.22236 0
M  V30 10661 O 1008.84 -3.51676 2.61257 0
M  V30 10662 C 1010.34 -4.31934 0.997393 0
M  V30 10663 H 1007.56 -0.601865 0.296647 0
M  V30 10664 H 1010.1 -1.45965 1.43229 0
M  V30 10665 H 1008.26 -3.8182 0.655167 0
M  V30 10666 H 1008.67 -4.44959 2.77689 0
M  V30 10667 H 1010.14 -5.35791 1.32785 0
M  V30 10668 H 1010.62 -4.3915 -0.0661599 0
M  V30 10669 H 1011.23 -3.96066 1.54958 0
M  V30 10670 N 1009.54 -0.859717 -1.32086 0
M  V30 10671 C 1010.79 -0.461779 -1.96343 0
M  V30 10672 C 1011.1 0.988837 -1.68764 0
M  V30 10673 O 1012.31 1.49244 -2.268 0
M  V30 10674 C 1010.77 -0.77484 -3.5146 0
M  V30 10675 C 1010.37 -2.24153 -3.87891 0
M  V30 10676 C 1012.12 -0.444873 -4.22162 0
M  V30 10677 C 1010.03 -2.49754 -5.36075 0
M  V30 10678 H 1008.96 -0.168951 -0.734828 0
M  V30 10679 H 1011.61 -1.0512 -1.50406 0
M  V30 10680 H 1009.99 -0.114792 -3.95834 0
M  V30 10681 H 1011.16 -2.94378 -3.54511 0
M  V30 10682 H 1009.48 -2.53651 -3.30227 0
M  V30 10683 H 1012.07 -0.613508 -5.31169 0
M  V30 10684 H 1012.42 0.61391 -4.11749 0
M  V30 10685 H 1012.95 -1.06103 -3.83389 0
M  V30 10686 H 1009.69 -3.54276 -5.51515 0
M  V30 10687 H 1009.21 -1.84112 -5.70844 0
M  V30 10688 H 1010.89 -2.3396 -6.03218 0
M  V30 10689 N 1011.02 1.44971 -0.618145 0
M  V30 10690 C 1012.27 2.0176 -0.11725 0
M  V30 10691 C 1012.59 1.48773 1.26062 0
M  V30 10692 O 1011.86 0.686152 1.83491 0
M  V30 10693 H 1010.44 0.745909 -0.0403545 0
M  V30 10694 H 1013.1 1.77638 -0.801923 0
M  V30 10695 H 1012.2 3.1201 -0.0750477 0
M  V30 10696 N 1012.5 0.357919 1.53482 0
M  V30 10697 C 1013.91 0.00655107 1.59599 0
M  V30 10698 C 1014.11 -1.47449 1.37336 0
M  V30 10699 O 1013.17 -2.2351 1.17472 0
M  V30 10700 C 1014.48 0.455617 2.97228 0
M  V30 10701 C 1016.03 0.409183 3.10314 0
M  V30 10702 C 1016.51 0.833941 4.50344 0
M  V30 10703 N 1018 0.788695 4.56436 0
M  V30 10704 C 1018.73 1.08914 5.62961 0
M  V30 10705 N 1018.23 1.45847 6.77274 0
M  V30 10706 N 1020.02 1.01243 5.52907 0
M  V30 10707 H 1012.17 1.32248 1.66206 0
M  V30 10708 H 1014.44 0.540047 0.779136 0
M  V30 10709 H 1014.14 1.48881 3.18634 0
M  V30 10710 H 1014.02 -0.161751 3.76853 0
M  V30 10711 H 1016.4 -0.614863 2.88623 0
M  V30 10712 H 1016.48 1.06195 2.32715 0
M  V30 10713 H 1016.13 1.85607 4.72771 0
M  V30 10714 H 1016.06 0.158507 5.26361 0
M  V30 10715 H 1018.55 0.516497 3.74354 0
M  V30 10716 H 1018.86 1.67218 7.54492 0
M  V30 10717 H 1017.21 1.49705 6.78685 0
M  V30 10718 H 1020.4 0.723137 4.62481 0
M  V30 10719 H 1020.57 1.24991 6.35831 0
M  V30 10720 N 1013.98 -1.5736 0.0868897 0
M  V30 10721 C 1015.39 -1.57304 -0.269762 0
M  V30 10722 C 1015.59 -1.09745 -1.68992 0
M  V30 10723 O 1014.65 -0.77017 -2.40468 0
M  V30 10724 C 1015.96 -3.00628 -0.0656646 0
M  V30 10725 C 1017.51 -3.12713 -0.134045 0
M  V30 10726 C 1017.98 -4.57981 0.0419569 0
M  V30 10727 N 1019.48 -4.63198 -0.0131501 0
M  V30 10728 C 1020.21 -5.73316 0.0983964 0
M  V30 10729 N 1019.71 -6.92296 0.264315 0
M  V30 10730 N 1021.5 -5.62086 0.0402517 0
M  V30 10731 H 1013.65 -1.86585 1.01487 0
M  V30 10732 H 1015.91 -0.860843 0.397055 0
M  V30 10733 H 1015.62 -3.39592 0.914891 0
M  V30 10734 H 1015.49 -3.68367 -0.811522 0
M  V30 10735 H 1017.88 -2.73627 -1.1051 0
M  V30 10736 H 1017.96 -2.47582 0.643167 0
M  V30 10737 H 1017.61 -4.9776 1.00984 0
M  V30 10738 H 1017.54 -5.21162 -0.754847 0
M  V30 10739 H 1020.03 -3.77644 -0.139183 0
M  V30 10740 H 1020.34 -7.72047 0.341165 0
M  V30 10741 H 1018.68 -6.94353 0.299876 0
M  V30 10742 H 1021.88 -4.68017 -0.0881801 0
M  V30 10743 H 1022.05 -6.47868 0.130635 0
M  V30 10744 N 1015.45 0.186762 -1.56489 0
M  V30 10745 C 1016.7 0.907194 -1.81378 0
M  V30 10746 C 1017.03 1.82558 -0.662283 0
M  V30 10747 O 1016.31 1.91564 0.336699 0
M  V30 10748 C 1016.59 1.71624 -3.16571 0
M  V30 10749 C 1016.44 0.822009 -4.42225 0
M  V30 10750 C 1017.76 2.68713 -3.48542 0
M  V30 10751 H 1014.88 0.328366 -0.659806 0
M  V30 10752 H 1017.52 0.174142 -1.892 0
M  V30 10753 H 1015.67 2.34119 -3.10033 0
M  V30 10754 H 1017.35 0.211122 -4.60817 0
M  V30 10755 H 1015.59 0.129178 -4.33608 0
M  V30 10756 H 1016.26 1.42326 -5.33336 0
M  V30 10757 H 1018.74 2.16348 -3.55433 0
M  V30 10758 H 1017.61 3.22397 -4.44242 0
M  V30 10759 H 1017.87 3.48165 -2.72459 0
M  V30 10760 N 1016.93 1.50896 0.454776 0
M  V30 10761 C 1017.9 1.70377 1.53312 0
M  V30 10762 C 1018.9 0.57408 1.50203 0
M  V30 10763 O 1020.09 0.841374 1.52534 0
M  V30 10764 C 1017.22 1.74411 2.92905 0
M  V30 10765 H 1018.41 2.66599 1.37349 0
M  V30 10766 H 1015.96 1.40622 0.68228 0
M  V30 10767 H 1016.7 0.799408 3.14293 0
M  V30 10768 H 1016.48 2.56496 2.96568 0
M  V30 10769 H 1017.97 1.91382 3.71164 0
M  V30 10770 N 1018.41 -0.709066 1.40748 0
M  V30 10771 C 1019.66 -1.47119 1.39585 0
M  V30 10772 C 1019.99 -1.942 0.000245323 0
M  V30 10773 O 1019.26 -1.68609 -0.969593 0
M  V30 10774 C 1019.55 -2.69266 2.39099 0
M  V30 10775 C 1019.4 -2.28037 3.8771 0
M  V30 10776 C 1020.72 -3.71438 2.36055 0
M  V30 10777 H 1017.84 -0.533632 0.508336 0
M  V30 10778 H 1020.48 -0.808718 1.7193 0
M  V30 10779 H 1018.63 -3.25788 2.11647 0
M  V30 10780 H 1020.3 -1.76946 4.26014 0
M  V30 10781 H 1018.55 -1.59966 4.03229 0
M  V30 10782 H 1019.22 -3.15621 4.52866 0
M  V30 10783 H 1021.69 -3.24559 2.60385 0
M  V30 10784 H 1020.57 -4.54532 3.07721 0
M  V30 10785 H 1020.83 -4.20193 1.37443 0
M  V30 10786 N 1019.89 -1.26353 -0.941956 0
M  V30 10787 C 1021.14 -1.1163 -1.68473 0
M  V30 10788 C 1021.46 0.34108 -1.91994 0
M  V30 10789 O 1020.73 1.24065 -1.51607 0
M  V30 10790 H 1019.31 -0.410113 -0.624353 0
M  V30 10791 H 1021.97 -1.58669 -1.13182 0
M  V30 10792 H 1021.07 -1.63445 -2.6588 0
M  V30 10793 N 1021.37 1.14642 -1.08144 0
M  V30 10794 C 1022.3 2.21775 -0.730609 0
M  V30 10795 C 1023.28 1.67683 0.285702 0
M  V30 10796 O 1024.46 1.93567 0.156667 0
M  V30 10797 C 1021.59 3.47033 -0.136242 0
M  V30 10798 C 1020.55 4.14134 -1.0806 0
M  V30 10799 C 1019.87 5.33563 -0.348585 0
M  V30 10800 C 1021.17 4.62978 -2.41761 0
M  V30 10801 H 1022.87 2.51378 -1.62633 0
M  V30 10802 H 1020.41 1.20825 -0.783411 0
M  V30 10803 H 1022.37 4.21226 0.121182 0
M  V30 10804 H 1021.09 3.16786 0.7946 0
M  V30 10805 H 1019.75 3.41892 -1.32308 0
M  V30 10806 H 1019.4 4.99575 0.585974 0
M  V30 10807 H 1019.1 5.79402 -0.978122 0
M  V30 10808 H 1020.62 6.10519 -0.0991508 0
M  V30 10809 H 1022.04 5.28659 -2.21795 0
M  V30 10810 H 1020.43 5.1951 -3.00383 0
M  V30 10811 H 1021.5 3.78189 -3.03482 0
M  V30 10812 N 1022.85 0.866709 1.31628 0
M  V30 10813 C 1024.09 0.475086 1.96437 0
M  V30 10814 C 1024.41 -0.975179 1.68865 0
M  V30 10815 O 1023.68 -1.68317 1.0023 0
M  V30 10816 H 1022.26 0.172695 0.726764 0
M  V30 10817 H 1024.93 1.10578 1.60494 0
M  V30 10818 H 1024.02 0.630123 3.05673 0
M  V30 10819 N 1024.32 -1.44642 0.625825 0
M  V30 10820 C 1025.55 -2.06971 0.133373 0
M  V30 10821 C 1025.97 -1.46421 -1.18078 0
M  V30 10822 O 1025.33 -0.563676 -1.72315 0
M  V30 10823 C 1025.38 -3.6059 0.0265097 0
M  V30 10824 O 1024.48 -3.99615 -1.01889 0
M  V30 10825 H 1023.82 -0.658873 0.0823568 0
M  V30 10826 H 1026.35 -1.85601 0.861002 0
M  V30 10827 H 1026.36 -4.07663 -0.1658 0
M  V30 10828 H 1025.04 -4.04043 0.985986 0
M  V30 10829 H 1023.62 -3.64183 -0.801577 0
M  V30 10830 N 1025.8 -0.366053 -1.5329 0
M  V30 10831 C 1027.04 0.223558 -2.03174 0
M  V30 10832 C 1027.41 1.45955 -1.24745 0
M  V30 10833 O 1028.61 2.12481 -1.64637 0
M  V30 10834 C 1026.88 0.507899 -3.53773 0
M  V30 10835 S 1028.44 1.07111 -4.25526 0
M  V30 10836 H 1025.25 0.0650309 -0.70802 0
M  V30 10837 H 1027.86 -0.509028 -1.88757 0
M  V30 10838 H 1026.56 -0.39913 -4.08455 0
M  V30 10839 H 1026.09 1.26954 -3.72352 0
M  V30 10840 H 1028.11 2.35533 -4.36737 0
M  V30 10841 N 1027.28 1.57312 -0.0952337 0
M  V30 10842 C 1028.21 2.17056 0.860753 0
M  V30 10843 C 1029.19 1.10394 1.29411 0
M  V30 10844 O 1030.38 1.38532 1.36098 0
M  V30 10845 C 1027.51 2.751 2.11984 0
M  V30 10846 C 1026.46 3.87136 1.8251 0
M  V30 10847 C 1025.79 4.31883 3.15247 0
M  V30 10848 C 1027.09 5.10326 1.11194 0
M  V30 10849 H 1028.78 2.97192 0.362983 0
M  V30 10850 H 1026.33 1.42955 0.173151 0
M  V30 10851 H 1028.28 3.15547 2.79299 0
M  V30 10852 H 1027 1.92219 2.64044 0
M  V30 10853 H 1025.66 3.47229 1.17592 0
M  V30 10854 H 1025.31 3.45893 3.65195 0
M  V30 10855 H 1025.01 5.0742 2.96309 0
M  V30 10856 H 1026.53 4.74964 3.83721 0
M  V30 10857 H 1027.95 5.47942 1.6862 0
M  V30 10858 H 1026.34 5.91293 1.02435 0
M  V30 10859 H 1027.41 4.84807 0.0947227 0
M  V30 10860 N 1028.76 -0.17846 1.56586 0
M  V30 10861 C 1029.72 -1.20479 1.94981 0
M  V30 10862 C 1030.72 -1.37561 0.832677 0
M  V30 10863 O 1031.91 -1.35089 1.09984 0
M  V30 10864 C 1029.04 -2.57117 2.23839 0
M  V30 10865 H 1030.24 -0.876173 2.86816 0
M  V30 10866 H 1027.79 -0.420635 1.50534 0
M  V30 10867 H 1028.52 -2.95005 1.34695 0
M  V30 10868 H 1028.31 -2.46086 3.05261 0
M  V30 10869 H 1029.8 -3.31096 2.5449 0
M  V30 10870 N 1030.24 -1.51135 -0.446768 0
M  V30 10871 C 1031.48 -1.62571 -1.19388 0
M  V30 10872 C 1031.8 -0.3432 -1.92566 0
M  V30 10873 O 1033 -0.336804 -2.69403 0
M  V30 10874 C 1031.46 -2.87071 -2.17068 0
M  V30 10875 C 1031.07 -4.22291 -1.49581 0
M  V30 10876 C 1032.81 -3.07862 -2.9227 0
M  V30 10877 C 1030.72 -5.3795 -2.45689 0
M  V30 10878 H 1029.65 -0.60549 -0.449331 0
M  V30 10879 H 1032.3 -1.77593 -0.461846 0
M  V30 10880 H 1030.68 -2.65662 -2.93666 0
M  V30 10881 H 1031.86 -4.54046 -0.786054 0
M  V30 10882 H 1030.17 -4.07302 -0.865677 0
M  V30 10883 H 1032.77 -3.91444 -3.64246 0
M  V30 10884 H 1033.11 -2.20559 -3.53072 0
M  V30 10885 H 1033.64 -3.29566 -2.2278 0
M  V30 10886 H 1030.38 -6.27484 -1.89591 0
M  V30 10887 H 1029.9 -5.10583 -3.14746 0
M  V30 10888 H 1031.58 -5.69517 -3.07017 0
M  V30 10889 N 1031.71 0.701592 -1.41122 0
M  V30 10890 C 1032.64 1.82815 -1.45262 0
M  V30 10891 C 1033.62 1.67215 -0.311939 0
M  V30 10892 O 1034.81 1.87038 -0.522538 0
M  V30 10893 C 1031.94 3.20899 -1.32819 0
M  V30 10894 C 1030.89 3.51194 -2.44636 0
M  V30 10895 C 1030.22 4.8857 -2.17263 0
M  V30 10896 C 1031.52 3.50777 -3.86979 0
M  V30 10897 H 1033.21 1.79608 -2.39544 0
M  V30 10898 H 1030.76 0.862693 -1.15298 0
M  V30 10899 H 1032.71 3.99417 -1.34329 0
M  V30 10900 H 1031.44 3.24717 -0.350191 0
M  V30 10901 H 1030.1 2.75024 -2.42399 0
M  V30 10902 H 1029.74 4.89007 -1.17819 0
M  V30 10903 H 1029.44 5.09805 -2.92186 0
M  V30 10904 H 1030.97 5.69405 -2.20478 0
M  V30 10905 H 1032.38 4.19309 -3.90964 0
M  V30 10906 H 1030.78 3.83542 -4.61536 0
M  V30 10907 H 1031.85 2.49873 -4.15562 0
M  V30 10908 N 1033.19 1.2685 0.935242 0
M  V30 10909 C 1034.44 1.12132 1.67658 0
M  V30 10910 C 1034.75 -0.333839 1.9273 0
M  V30 10911 O 1035.96 -0.601801 2.64746 0
M  V30 10912 C 1034.42 1.95873 3.0193 0
M  V30 10913 C 1034.02 3.46 2.84584 0
M  V30 10914 C 1035.77 1.89781 3.79715 0
M  V30 10915 C 1033.67 4.21966 4.14365 0
M  V30 10916 H 1032.6 0.416035 0.628833 0
M  V30 10917 H 1035.26 1.51209 1.03962 0
M  V30 10918 H 1033.64 1.49633 3.66641 0
M  V30 10919 H 1034.81 4.00049 2.28687 0
M  V30 10920 H 1033.13 3.53391 2.20236 0
M  V30 10921 H 1035.72 2.43819 4.75875 0
M  V30 10922 H 1036.07 0.869797 4.07112 0
M  V30 10923 H 1036.6 2.33875 3.21788 0
M  V30 10924 H 1033.34 5.2526 3.9215 0
M  V30 10925 H 1032.86 3.72696 4.69955 0
M  V30 10926 H 1034.54 4.30734 4.82781 0
M  V30 10927 N 1034.67 -1.14067 1.0875 0
M  V30 10928 C 1035.6 -2.21385 0.74236 0
M  V30 10929 C 1036.58 -1.67833 -0.276805 0
M  V30 10930 O 1037.77 -1.93647 -0.1464 0
M  V30 10931 C 1034.9 -3.46956 0.154644 0
M  V30 10932 C 1033.85 -4.13555 1.10255 0
M  V30 10933 C 1033.18 -5.3337 0.376877 0
M  V30 10934 C 1034.48 -4.6169 2.44213 0
M  V30 10935 H 1036.17 -2.50512 1.63964 0
M  V30 10936 H 1033.72 -1.20408 0.789807 0
M  V30 10937 H 1035.67 -4.21284 -0.0988419 0
M  V30 10938 H 1034.39 -3.17203 -0.777789 0
M  V30 10939 H 1033.05 -3.41186 1.34119 0
M  V30 10940 H 1032.7 -4.99879 -0.559472 0
M  V30 10941 H 1032.4 -5.78875 1.00884 0
M  V30 10942 H 1033.92 -6.10458 0.131527 0
M  V30 10943 H 1035.34 -5.27475 2.24595 0
M  V30 10944 H 1033.74 -5.17909 3.03134 0
M  V30 10945 H 1034.81 -3.76574 3.05483 0
M  V30 10946 N 1036.15 -0.873678 -1.31166 0
M  V30 10947 C 1037.11 -0.337069 -2.26708 0
M  V30 10948 C 1038.11 0.51406 -1.52362 0
M  V30 10949 O 1039.3 0.322834 -1.71182 0
M  V30 10950 C 1036.43 0.520897 -3.36897 0
M  V30 10951 H 1037.63 -1.18056 -2.75686 0
M  V30 10952 H 1035.18 -0.649577 -1.42163 0
M  V30 10953 H 1035.91 1.38543 -2.93217 0
M  V30 10954 H 1035.7 -0.0886015 -3.92 0
M  V30 10955 H 1037.19 0.888497 -4.08039 0
M  V30 10956 N 1037.63 1.44308 -0.633487 0
M  V30 10957 C 1038.88 2.01239 -0.136356 0
M  V30 10958 C 1039.19 1.50438 1.25011 0
M  V30 10959 O 1040.39 1.99513 1.84138 0
M  V30 10960 C 1038.85 3.59382 -0.193011 0
M  V30 10961 C 1038.46 4.19178 -1.58093 0
M  V30 10962 C 1040.2 4.23778 0.247534 0
M  V30 10963 C 1038.11 5.69553 -1.59258 0
M  V30 10964 H 1037.04 0.752521 -0.0472109 0
M  V30 10965 H 1039.69 1.65498 -0.79263 0
M  V30 10966 H 1038.07 3.92432 0.530408 0
M  V30 10967 H 1039.25 3.97662 -2.32813 0
M  V30 10968 H 1037.56 3.67079 -1.96576 0
M  V30 10969 H 1040.16 5.34075 0.258401 0
M  V30 10970 H 1040.5 3.96285 1.27529 0
M  V30 10971 H 1041.03 3.9554 -0.423469 0
M  V30 10972 H 1037.77 6.01784 -2.59878 0
M  V30 10973 H 1037.29 5.93185 -0.888352 0
M  V30 10974 H 1038.97 6.33234 -1.32756 0
M  V30 10975 N 1039.1 0.374177 1.53094 0
M  V30 10976 C 1040.34 -0.21278 2.03289 0
M  V30 10977 C 1040.71 -1.45291 1.25517 0
M  V30 10978 O 1041.91 -2.11605 1.65761 0
M  V30 10979 C 1040.18 -0.48913 3.54037 0
M  V30 10980 S 1041.74 -1.04853 4.26088 0
M  V30 10981 H 1038.56 -0.0612752 0.708355 0
M  V30 10982 H 1041.16 0.519031 1.88484 0
M  V30 10983 H 1039.86 0.420786 4.08237 0
M  V30 10984 H 1039.39 -1.24978 3.7302 0
M  V30 10985 H 1041.41 -2.33213 4.3798 0
M  V30 10986 N 1040.58 -1.57259 0.103575 0
M  V30 10987 C 1041.83 -1.94272 -0.557024 0
M  V30 10988 C 1042.15 -0.986739 -1.68192 0
M  V30 10989 O 1041.42 -0.0402818 -1.95859 0
M  V30 10990 H 1040 -0.717237 -0.208757 0
M  V30 10991 H 1042.66 -1.94167 0.168898 0
M  V30 10992 H 1041.76 -2.96914 -0.961691 0
M  V30 10993 N 1042.06 0.170153 -1.56679 0
M  V30 10994 C 1042.99 1.21285 -1.9953 0
M  V30 10995 C 1043.97 1.46104 -0.871071 0
M  V30 10996 O 1045.16 1.57419 -1.13724 0
M  V30 10997 C 1042.29 2.5515 -2.35618 0
M  V30 10998 C 1041.24 2.44898 -3.51011 0
M  V30 10999 C 1040.57 3.83263 -3.72845 0
M  V30 11000 C 1041.87 1.95271 -4.84424 0
M  V30 11001 H 1043.56 0.856646 -2.86883 0
M  V30 11002 H 1041.11 0.410634 -1.38021 0
M  V30 11003 H 1043.06 3.28299 -2.64193 0
M  V30 11004 H 1041.78 2.92561 -1.45175 0
M  V30 11005 H 1040.44 1.74203 -3.22566 0
M  V30 11006 H 1040.09 4.18069 -2.79691 0
M  V30 11007 H 1039.79 3.77272 -4.50488 0
M  V30 11008 H 1041.31 4.57996 -4.03822 0
M  V30 11009 H 1042.73 2.58195 -5.11867 0
M  V30 11010 H 1041.13 2.00225 -5.65712 0
M  V30 11011 H 1042.2 0.90709 -4.7634 0
M  V30 11012 N 1043.54 1.5137 0.438746 0
M  V30 11013 C 1044.49 1.72582 1.53245 0
M  V30 11014 C 1045.46 0.567488 1.56105 0
M  V30 11015 O 1046.64 0.80176 1.73137 0
M  V30 11016 C 1043.78 1.85551 2.90972 0
M  V30 11017 C 1042.89 3.13094 2.97652 0
M  V30 11018 C 1042.03 3.16666 4.26493 0
M  V30 11019 C 1041.07 4.38529 4.27035 0
M  V30 11020 N 1040.2 4.39659 5.47398 0
M  V30 11021 H 1045.04 2.65941 1.3446 0
M  V30 11022 H 1042.58 1.31801 0.653206 0
M  V30 11023 H 1044.54 1.91053 3.70884 0
M  V30 11024 H 1043.17 0.956025 3.08318 0
M  V30 11025 H 1042.22 3.16909 2.10412 0
M  V30 11026 H 1043.53 4.03009 2.93914 0
M  V30 11027 H 1042.69 3.21075 5.14777 0
M  V30 11028 H 1041.43 2.24637 4.32885 0
M  V30 11029 H 1040.43 4.34297 3.37144 0
M  V30 11030 H 1041.66 5.31821 4.22307 0
M  V30 11031 H 1039.6 3.50499 5.54514 0
M  V30 11032 H 1039.52 5.23382 5.45534 0
M  V30 11033 H 1040.79 4.48259 6.37718 0
M  V30 11034 N 1045.02 -0.694098 1.41492 0
M  V30 11035 C 1045.95 -1.82042 1.46229 0
M  V30 11036 C 1046.93 -1.67047 0.320803 0
M  V30 11037 O 1048.11 -1.86758 0.53245 0
M  V30 11038 C 1045.24 -3.2019 1.34519 0
M  V30 11039 C 1044.2 -3.49892 2.46495 0
M  V30 11040 C 1043.52 -4.87411 2.1985 0
M  V30 11041 C 1044.82 -3.4872 3.88834 0
M  V30 11042 H 1046.52 -1.78335 2.40493 0
M  V30 11043 H 1044.06 -0.856566 1.15754 0
M  V30 11044 H 1046.02 -3.98699 1.36445 0
M  V30 11045 H 1044.74 -3.24527 0.367406 0
M  V30 11046 H 1043.4 -2.73734 2.43854 0
M  V30 11047 H 1043.05 -4.88375 1.20411 0
M  V30 11048 H 1042.75 -5.08248 2.94885 0
M  V30 11049 H 1044.27 -5.68228 2.23494 0
M  V30 11050 H 1045.68 -4.1723 3.93182 0
M  V30 11051 H 1044.08 -3.81089 4.63564 0
M  V30 11052 H 1045.15 -2.47665 4.16881 0
M  V30 11053 N 1046.49 -1.27344 -0.928501 0
M  V30 11054 C 1047.43 -1.05797 -2.03322 0
M  V30 11055 C 1048.44 -0.0143086 -1.62794 0
M  V30 11056 O 1049.63 -0.25578 -1.76658 0
M  V30 11057 C 1046.73 -0.582673 -3.33853 0
M  V30 11058 C 1045.9 -1.69844 -4.03078 0
M  V30 11059 C 1044.96 -1.21902 -5.11885 0
M  V30 11060 O 1043.99 -1.91853 -5.35893 0
M  V30 11061 N 1045.19 -0.0742392 -5.80453 0
M  V30 11062 H 1047.95 -2.00928 -2.22369 0
M  V30 11063 H 1045.51 -1.189 -1.09883 0
M  V30 11064 H 1047.51 -0.245862 -4.03952 0
M  V30 11065 H 1046.08 0.27539 -3.11385 0
M  V30 11066 H 1045.3 -2.20557 -3.26723 0
M  V30 11067 H 1046.58 -2.4473 -4.46077 0
M  V30 11068 H 1045.98 0.509631 -5.634 0
M  V30 11069 H 1044.54 0.203399 -6.51483 0
M  V30 11070 N 1047.97 1.13488 -1.09353 0
M  V30 11071 C 1049.39 1.36739 -0.823086 0
M  V30 11072 C 1049.59 1.93476 0.562963 0
M  V30 11073 O 1048.64 2.15374 1.31796 0
M  V30 11074 C 1049.96 2.31943 -1.91371 0
M  V30 11075 C 1051.51 2.4556 -1.94085 0
M  V30 11076 C 1051.98 3.44072 -3.02289 0
M  V30 11077 N 1053.47 3.51622 -3.01524 0
M  V30 11078 C 1054.21 4.27724 -3.8189 0
M  V30 11079 N 1053.7 5.06987 -4.72161 0
M  V30 11080 N 1055.5 4.23018 -3.70152 0
M  V30 11081 H 1047.65 0.75012 -1.98713 0
M  V30 11082 H 1049.91 0.392564 -0.862901 0
M  V30 11083 H 1049.62 1.97408 -2.91072 0
M  V30 11084 H 1049.49 3.31952 -1.79131 0
M  V30 11085 H 1051.88 2.79382 -0.950234 0
M  V30 11086 H 1051.96 1.45479 -2.10403 0
M  V30 11087 H 1051.6 3.10981 -4.01564 0
M  V30 11088 H 1051.53 4.43956 -2.83214 0
M  V30 11089 H 1054.02 2.95066 -2.36103 0
M  V30 11090 H 1054.34 5.6236 -5.30067 0
M  V30 11091 H 1052.68 5.06222 -4.76197 0
M  V30 11092 H 1055.87 3.60171 -2.98989 0
M  V30 11093 H 1056.04 4.82075 -4.33022 0
M  V30 11094 N 1049.45 0.880621 1.30701 0
M  V30 11095 C 1050.87 0.574015 1.4892 0
M  V30 11096 C 1051.07 -0.889312 1.80813 0
M  V30 11097 O 1050.12 -1.67082 1.89314 0
M  V30 11098 C 1051.44 1.48341 2.61563 0
M  V30 11099 C 1052.98 1.48658 2.75445 0
M  V30 11100 C 1053.46 2.3818 3.91196 0
M  V30 11101 N 1054.95 2.36119 3.985 0
M  V30 11102 C 1055.69 3.02101 4.87363 0
M  V30 11103 N 1055.18 3.77293 5.81052 0
M  V30 11104 N 1056.97 2.91356 4.80696 0
M  V30 11105 H 1049.13 1.82732 1.08271 0
M  V30 11106 H 1051.39 0.781939 0.535981 0
M  V30 11107 H 1051.09 2.52515 2.44804 0
M  V30 11108 H 1050.97 1.18977 3.57944 0
M  V30 11109 H 1053.36 0.452374 2.91612 0
M  V30 11110 H 1053.44 1.8205 1.79698 0
M  V30 11111 H 1053.08 3.41683 3.75786 0
M  V30 11112 H 1053.01 2.02106 4.86272 0
M  V30 11113 H 1055.5 1.81474 3.31475 0
M  V30 11114 H 1055.81 4.24742 6.45612 0
M  V30 11115 H 1054.16 3.81401 5.80998 0
M  V30 11116 H 1057.35 2.32143 4.06481 0
M  V30 11117 H 1057.52 3.43056 5.49742 0
M  V30 11118 N 1050.93 -1.4397 0.641131 0
M  V30 11119 C 1052.18 -2.02782 0.158406 0
M  V30 11120 C 1052.53 -1.496 -1.20986 0
M  V30 11121 O 1051.82 -0.674517 -1.79334 0
M  V30 11122 C 1052.02 -3.5727 0.0963368 0
M  V30 11123 C 1051.85 -4.25441 1.45704 0
M  V30 11124 C 1050.62 -4.62008 2.04637 0
M  V30 11125 C 1052.81 -4.55238 2.39297 0
M  V30 11126 N 1050.8 -5.15194 3.33839 0
M  V30 11127 C 1052.17 -5.09613 3.53121 0
M  V30 11128 C 1054.22 -4.37197 2.38251 0
M  V30 11129 C 1052.93 -5.47847 4.66108 0
M  V30 11130 C 1054.95 -4.76485 3.50309 0
M  V30 11131 C 1054.31 -5.30982 4.62858 0
M  V30 11132 H 1050.41 -0.775304 0.102117 0
M  V30 11133 H 1053 -1.75321 0.846805 0
M  V30 11134 H 1051.17 -3.84322 -0.561369 0
M  V30 11135 H 1052.9 -4.02757 -0.39614 0
M  V30 11136 H 1049.65 -4.46653 1.57474 0
M  V30 11137 H 1050.08 -5.46253 3.99921 0
M  V30 11138 H 1054.72 -3.94347 1.5248 0
M  V30 11139 H 1052.44 -5.89646 5.52579 0
M  V30 11140 H 1056.02 -4.6423 3.50687 0
M  V30 11141 H 1054.9 -5.6082 5.48133 0
M  V30 11142 N 1052.41 -0.382291 -1.52893 0
M  V30 11143 C 1053.35 0.456234 -2.26246 0
M  V30 11144 C 1054.32 1.06366 -1.27575 0
M  V30 11145 O 1055.51 1.09301 -1.5639 0
M  V30 11146 C 1052.65 1.5813 -3.06739 0
M  V30 11147 C 1051.76 0.997416 -4.20328 0
M  V30 11148 C 1050.9 2.09296 -4.8823 0
M  V30 11149 C 1049.94 1.4846 -5.93823 0
M  V30 11150 N 1049.07 2.51916 -6.55349 0
M  V30 11151 H 1053.91 -0.175761 -2.97481 0
M  V30 11152 H 1051.45 -0.0985046 -1.4677 0
M  V30 11153 H 1053.41 2.24426 -3.51694 0
M  V30 11154 H 1052.04 2.18371 -2.37727 0
M  V30 11155 H 1051.09 0.224251 -3.79738 0
M  V30 11156 H 1052.4 0.512784 -4.96157 0
M  V30 11157 H 1051.56 2.83377 -5.36453 0
M  V30 11158 H 1050.3 2.61116 -4.1191 0
M  V30 11159 H 1049.3 0.729001 -5.44946 0
M  V30 11160 H 1050.53 0.97443 -6.72073 0
M  V30 11161 H 1048.47 3.02919 -5.81873 0
M  V30 11162 H 1048.39 2.08188 -7.26769 0
M  V30 11163 H 1049.66 3.25649 -7.08218 0
M  V30 11164 N 1053.89 1.57202 -0.111913 0
M  V30 11165 C 1055.3 1.57713 0.244702 0
M  V30 11166 C 1055.5 1.12419 1.67225 0
M  V30 11167 O 1054.56 0.808329 2.39212 0
M  V30 11168 C 1055.87 3.00695 0.0178289 0
M  V30 11169 C 1057.42 3.12887 0.0842781 0
M  V30 11170 C 1057.89 4.57856 -0.114812 0
M  V30 11171 N 1059.38 4.6316 -0.0605423 0
M  V30 11172 C 1060.12 5.73086 -0.189594 0
M  V30 11173 N 1059.62 6.91787 -0.37442 0
M  V30 11174 N 1061.41 5.6195 -0.12967 0
M  V30 11175 H 1053.56 1.84947 -1.04443 0
M  V30 11176 H 1055.82 0.854418 -0.4107 0
M  V30 11177 H 1055.53 3.38093 -0.968802 0
M  V30 11178 H 1055.4 3.69611 0.752815 0
M  V30 11179 H 1057.79 2.7535 1.06143 0
M  V30 11180 H 1057.87 2.46528 -0.682474 0
M  V30 11181 H 1057.51 4.9609 -1.0889 0
M  V30 11182 H 1057.44 5.22297 0.671839 0
M  V30 11183 H 1059.94 3.77817 0.0790856 0
M  V30 11184 H 1060.25 7.71406 -0.463948 0
M  V30 11185 H 1058.59 6.93788 -0.410303 0
M  V30 11186 H 1061.78 4.68098 0.0137115 0
M  V30 11187 H 1061.96 6.47578 -0.233688 0
M  V30 11188 N 1055.36 -0.161842 1.56767 0
M  V30 11189 C 1056.59 -0.892247 1.86672 0
M  V30 11190 C 1057.01 -1.75407 0.69841 0
M  V30 11191 O 1056.36 -1.7945 -0.332251 0
M  V30 11192 C 1056.41 -1.7612 3.15696 0
M  V30 11193 O 1056.14 -0.934131 4.28025 0
M  V30 11194 C 1057.64 -2.60046 3.59014 0
M  V30 11195 H 1054.86 -0.258747 0.619105 0
M  V30 11196 H 1057.4 -0.159089 2.0388 0
M  V30 11197 H 1055.56 -2.44759 3.00286 0
M  V30 11198 H 1055.97 -1.52931 5.01709 0
M  V30 11199 H 1057.44 -3.16618 4.5217 0
M  V30 11200 H 1057.92 -3.35374 2.83586 0
M  V30 11201 H 1058.53 -1.96724 3.77067 0
M  V30 11202 N 1056.84 -1.516 -0.430713 0
M  V30 11203 C 1057.77 -1.69594 -1.54177 0
M  V30 11204 C 1058.79 -0.576518 -1.5225 0
M  V30 11205 O 1059.98 -0.85104 -1.56906 0
M  V30 11206 C 1057.08 -1.70148 -2.93092 0
M  V30 11207 C 1056.25 -2.98782 -3.1945 0
M  V30 11208 C 1055.31 -2.91435 -4.38123 0
M  V30 11209 O 1054.33 -3.65372 -4.36454 0
M  V30 11210 N 1055.54 -2.0774 -5.42056 0
M  V30 11211 H 1058.3 -2.65442 -1.39143 0
M  V30 11212 H 1055.86 -1.49569 -0.61974 0
M  V30 11213 H 1057.85 -1.62793 -3.70514 0
M  V30 11214 H 1056.42 -0.818667 -3.0169 0
M  V30 11215 H 1055.64 -3.19954 -2.30267 0
M  V30 11216 H 1056.93 -3.83919 -3.33892 0
M  V30 11217 H 1056.33 -1.47059 -5.46251 0
M  V30 11218 H 1054.89 -2.06259 -6.18305 0
M  V30 11219 N 1058.32 0.686584 -1.41858 0
M  V30 11220 C 1059.54 1.4802 -1.45275 0
M  V30 11221 C 1059.97 1.87997 -0.0621297 0
M  V30 11222 O 1059.33 1.55226 0.936733 0
M  V30 11223 C 1059.38 2.7133 -2.37513 0
M  V30 11224 O 1058.48 3.69159 -1.83836 0
M  V30 11225 H 1057.82 0.445152 -0.492682 0
M  V30 11226 H 1060.35 0.843161 -1.86419 0
M  V30 11227 H 1060.36 3.19537 -2.53693 0
M  V30 11228 H 1059.04 2.41571 -3.3855 0
M  V30 11229 H 1057.61 3.28134 -1.77151 0
M  V30 11230 N 1059.8 1.27835 0.921735 0
M  V30 11231 C 1060.73 1.06874 2.02758 0
M  V30 11232 C 1061.74 0.0229418 1.62784 0
M  V30 11233 O 1062.93 0.265145 1.7652 0
M  V30 11234 C 1060.03 0.60037 3.3354 0
M  V30 11235 C 1059.2 1.71979 4.02172 0
M  V30 11236 C 1058.26 1.24615 5.11231 0
M  V30 11237 O 1057.29 1.94692 5.34868 0
M  V30 11238 N 1058.49 0.105021 5.80405 0
M  V30 11239 H 1061.26 2.02105 2.213 0
M  V30 11240 H 1058.82 1.19481 1.09251 0
M  V30 11241 H 1060.81 0.267281 4.03816 0
M  V30 11242 H 1059.38 -0.258872 3.11526 0
M  V30 11243 H 1058.6 2.22287 3.25549 0
M  V30 11244 H 1059.89 2.47092 4.44773 0
M  V30 11245 H 1059.29 -0.479745 5.63662 0
M  V30 11246 H 1057.84 -0.168846 6.51581 0
M  V30 11247 N 1061.28 -1.12907 1.09954 0
M  V30 11248 C 1062.21 -2.18194 0.701701 0
M  V30 11249 C 1063.22 -1.60724 -0.259131 0
M  V30 11250 O 1064.41 -1.78445 -0.0443549 0
M  V30 11251 C 1061.51 -3.38897 0.0140602 0
M  V30 11252 C 1060.68 -4.25867 0.997807 0
M  V30 11253 C 1059.74 -5.25084 0.34257 0
M  V30 11254 O 1058.77 -5.60492 0.991857 0
M  V30 11255 N 1059.97 -5.73464 -0.901058 0
M  V30 11256 H 1062.73 -2.52939 1.60755 0
M  V30 11257 H 1060.3 -1.28281 0.987703 0
M  V30 11258 H 1062.29 -4.02349 -0.435628 0
M  V30 11259 H 1060.86 -3.02345 -0.794118 0
M  V30 11260 H 1060.08 -3.59107 1.6259 0
M  V30 11261 H 1061.37 -4.80825 1.66388 0
M  V30 11262 H 1060.76 -5.46854 -1.44802 0
M  V30 11263 H 1059.32 -6.38827 -1.29398 0
M  V30 11264 N 1062.75 -0.88754 -1.30232 0
M  V30 11265 C 1064 -0.506277 -1.95656 0
M  V30 11266 C 1064.32 0.948191 -1.70395 0
M  V30 11267 O 1063.59 1.66701 -1.02895 0
M  V30 11268 H 1062.17 -0.184235 -0.723924 0
M  V30 11269 H 1064.83 -1.13118 -1.58715 0
M  V30 11270 H 1063.93 -0.678673 -3.04632 0
M  V30 11271 N 1064.23 1.43628 -0.648757 0
M  V30 11272 C 1065.16 2.33478 0.0320785 0
M  V30 11273 C 1066.14 1.49217 0.816605 0
M  V30 11274 O 1067.33 1.77892 0.778974 0
M  V30 11275 C 1064.46 3.32525 1.00222 0
M  V30 11276 C 1063.41 4.2674 0.328119 0
M  V30 11277 C 1062.74 5.15791 1.4094 0
M  V30 11278 C 1064.04 5.16493 -0.776701 0
M  V30 11279 H 1065.73 2.90657 -0.718257 0
M  V30 11280 H 1063.28 1.3976 -0.346852 0
M  V30 11281 H 1065.23 3.94277 1.4874 0
M  V30 11282 H 1063.96 2.73593 1.78366 0
M  V30 11283 H 1062.61 3.66346 -0.136569 0
M  V30 11284 H 1062.26 4.53201 2.18216 0
M  V30 11285 H 1061.96 5.79645 0.963631 0
M  V30 11286 H 1063.49 5.80416 1.89603 0
M  V30 11287 H 1064.9 5.7208 -0.373878 0
M  V30 11288 H 1063.3 5.89043 -1.14667 0
M  V30 11289 H 1064.37 4.56448 -1.63654 0
M  V30 11290 N 1065.71 0.390394 1.52688 0
M  V30 11291 C 1066.64 -0.479319 2.24132 0
M  V30 11292 C 1067.66 -1.0258 1.26416 0
M  V30 11293 O 1068.84 -0.927943 1.52484 0
M  V30 11294 C 1065.94 -1.67711 2.94493 0
M  V30 11295 C 1065.12 -1.2578 4.18925 0
M  V30 11296 C 1064.18 -2.3204 4.72275 0
M  V30 11297 O 1063.2 -1.93402 5.35336 0
M  V30 11298 N 1064.4 -3.63967 4.52226 0
M  V30 11299 H 1067.17 0.132777 2.99406 0
M  V30 11300 H 1064.73 0.216807 1.60442 0
M  V30 11301 H 1066.72 -2.38323 3.27084 0
M  V30 11302 H 1065.29 -2.19552 2.22521 0
M  V30 11303 H 1064.51 -0.380528 3.92359 0
M  V30 11304 H 1065.8 -0.954329 4.9977 0
M  V30 11305 H 1065.2 -3.98119 4.01892 0
M  V30 11306 H 1063.76 -4.30611 4.89303 0
M  V30 11307 N 1067.19 -1.57141 0.120249 0
M  V30 11308 C 1068.1 -2.18925 -0.843155 0
M  V30 11309 C 1069.11 -1.16575 -1.29175 0
M  V30 11310 O 1070.29 -1.4905 -1.35448 0
M  V30 11311 C 1067.36 -2.7775 -2.075 0
M  V30 11312 C 1066.42 -3.95139 -1.6782 0
M  V30 11313 C 1065.65 -4.51149 -2.85132 0
M  V30 11314 O 1065.87 -4.06056 -4.00593 0
M  V30 11315 O 1064.81 -5.41815 -2.62145 0
M  V30 11316 H 1068.63 -3.01707 -0.347357 0
M  V30 11317 H 1066.22 -1.49028 -0.105427 0
M  V30 11318 H 1068.1 -3.15243 -2.79643 0
M  V30 11319 H 1066.77 -1.97998 -2.56083 0
M  V30 11320 H 1065.68 -3.62412 -0.927807 0
M  V30 11321 H 1067.01 -4.7633 -1.23977 0
M  V30 11322 N 1068.67 0.153526 -1.5685 0
M  V30 11323 C 1069.61 1.20896 -1.98713 0
M  V30 11324 C 1070.61 1.44839 -0.878529 0
M  V30 11325 O 1071.81 1.45208 -1.0637 0
M  V30 11326 H 1068.19 0.406797 -0.632472 0
M  V30 11327 H 1070.16 0.829145 -2.86649 0
M  V30 11328 C 1068.91 2.53642 -2.37825 0
M  V30 11329 H 1068.23 2.36047 -3.22679 0
M  V30 11330 H 1069.67 3.26136 -2.70946 0
M  V30 11331 C 1068.13 3.13706 -1.22841 0
M  V30 11332 O 1068.66 3.98246 -0.525626 0
M  V30 11333 N 1066.87 2.73059 -0.99435 0
M  V30 11334 H 1066.41 2.0441 -1.56761 0
M  V30 11335 H 1066.37 3.1358 -0.226883 0
M  V30 11336 N 1070.14 1.51827 0.422667 0
M  V30 11337 C 1071.37 1.69337 1.19748 0
M  V30 11338 C 1071.79 0.396312 1.83878 0
M  V30 11339 O 1071.15 -0.644976 1.6944 0
M  V30 11340 C 1071.2 2.82082 2.24637 0
M  V30 11341 O 1070.3 2.46708 3.30468 0
M  V30 11342 H 1069.65 0.564154 0.35018 0
M  V30 11343 H 1072.18 1.98465 0.497289 0
M  V30 11344 H 1072.19 3.06599 2.69186 0
M  V30 11345 H 1070.86 3.76195 1.77341 0
M  V30 11346 H 1069.44 2.32815 2.91293 0
M  V30 11347 N 1071.62 -0.679052 1.4222 0
M  V30 11348 C 1072.85 -1.47248 1.46058 0
M  V30 11349 C 1073.27 -1.87962 0.0720987 0
M  V30 11350 O 1072.63 -1.5572 -0.928488 0
M  V30 11351 C 1072.68 -2.70067 2.38948 0
M  V30 11352 O 1071.78 -3.68178 1.85791 0
M  V30 11353 H 1071.12 -0.442533 0.495036 0
M  V30 11354 H 1073.65 -0.833263 1.86863 0
M  V30 11355 H 1073.66 -3.18187 2.55385 0
M  V30 11356 H 1072.34 -2.39773 3.39826 0
M  V30 11357 H 1070.92 -3.2719 1.78889 0
M  V30 11358 N 1073.1 -1.28322 -0.914942 0
M  V30 11359 C 1074.35 -1.15179 -1.66067 0
M  V30 11360 C 1074.67 0.300279 -1.92674 0
M  V30 11361 O 1073.94 1.20821 -1.54205 0
M  V30 11362 H 1072.52 -0.423264 -0.615513 0
M  V30 11363 H 1075.18 -1.61034 -1.09791 0
M  V30 11364 H 1074.28 -1.69048 -2.62353 0
M  V30 11365 N 1074.58 1.12322 -1.10551 0
M  V30 11366 C 1075.51 2.17819 -0.713263 0
M  V30 11367 C 1076.52 1.6086 0.250604 0
M  V30 11368 O 1077.71 1.78466 0.0348909 0
M  V30 11369 C 1074.81 3.38885 -0.0320325 0
M  V30 11370 C 1073.99 4.25332 -1.02038 0
M  V30 11371 C 1073.04 5.24895 -0.370412 0
M  V30 11372 O 1072.07 5.59958 -1.02157 0
M  V30 11373 N 1073.27 5.73934 0.870633 0
M  V30 11374 H 1076.04 2.52083 -1.62094 0
M  V30 11375 H 1073.6 1.27755 -0.994492 0
M  V30 11376 H 1075.59 4.02574 0.414285 0
M  V30 11377 H 1074.16 3.02762 0.778072 0
M  V30 11378 H 1073.38 3.5824 -1.64492 0
M  V30 11379 H 1074.67 4.79936 -1.68936 0
M  V30 11380 H 1074.07 5.47614 1.419 0
M  V30 11381 H 1072.62 6.39504 1.26008 0
M  V30 11382 N 1076.06 0.894434 1.2976 0
M  V30 11383 C 1077.28 0.5322 2.00455 0
M  V30 11384 C 1077.71 -0.874427 1.66539 0
M  V30 11385 O 1077.06 -1.58113 0.887129 0
M  V30 11386 C 1077.11 0.725264 3.53231 0
M  V30 11387 O 1076.22 -0.224612 4.11788 0
M  V30 11388 H 1075.56 0.208562 0.630395 0
M  V30 11389 H 1078.09 1.20458 1.65382 0
M  V30 11390 H 1078.1 0.627889 4.0314 0
M  V30 11391 H 1076.77 1.75079 3.77253 0
M  V30 11392 H 1075.35 -0.0801361 3.72814 0
M  V30 11393 N 1077.53 -1.43282 0.656365 0
M  V30 11394 C 1078.78 -2.01776 0.171039 0
M  V30 11395 C 1079.11 -1.51795 -1.21609 0
M  V30 11396 O 1078.36 -0.702864 -1.82643 0
M  V30 11397 C 1078.66 -3.57148 0.134225 0
M  V30 11398 C 1078.33 -4.26488 1.46352 0
M  V30 11399 C 1076.99 -4.45146 1.82753 0
M  V30 11400 C 1079.34 -4.65728 2.33981 0
M  V30 11401 C 1076.67 -5.0031 3.06443 0
M  V30 11402 C 1079.02 -5.22263 3.56966 0
M  V30 11403 C 1077.69 -5.39136 3.93559 0
M  V30 11404 H 1076.96 -0.738352 0.0625878 0
M  V30 11405 H 1079.6 -1.71716 0.847697 0
M  V30 11406 H 1077.91 -3.86768 -0.625892 0
M  V30 11407 H 1079.61 -4.00168 -0.258207 0
M  V30 11408 H 1076.2 -4.12313 1.1703 0
M  V30 11409 H 1080.38 -4.51003 2.07148 0
M  V30 11410 H 1075.64 -5.11559 3.34839 0
M  V30 11411 H 1079.81 -5.51614 4.25082 0
M  V30 11412 H 1077.44 -5.81646 4.89481 0
M  V30 11413 N 1079.01 -0.398486 -1.52479 0
M  V30 11414 C 1080.26 0.180752 -2.01692 0
M  V30 11415 C 1080.59 1.46044 -1.28457 0
M  V30 11416 O 1079.84 1.92051 -0.376162 0
M  V30 11417 C 1080.14 0.485909 -3.54081 0
M  V30 11418 C 1079.81 -0.703321 -4.45381 0
M  V30 11419 C 1078.47 -1.02955 -4.70057 0
M  V30 11420 C 1080.82 -1.49848 -4.99194 0
M  V30 11421 C 1078.15 -2.15231 -5.45795 0
M  V30 11422 C 1080.5 -2.61192 -5.76161 0
M  V30 11423 C 1079.17 -2.94313 -5.99113 0
M  V30 11424 H 1078.44 0.0661417 -0.738042 0
M  V30 11425 H 1081.08 -0.53772 -1.83796 0
M  V30 11426 H 1079.39 1.28582 -3.701 0
M  V30 11427 H 1081.09 0.946872 -3.89661 0
M  V30 11428 H 1077.68 -0.439062 -4.26345 0
M  V30 11429 H 1081.86 -1.25968 -4.80048 0
M  V30 11430 H 1077.12 -2.41252 -5.61789 0
M  V30 11431 H 1081.29 -3.23201 -6.16858 0
M  V30 11432 H 1078.92 -3.81431 -6.57583 0
M  V30 11433 N 1080.49 1.57075 -0.12858 0
M  V30 11434 C 1081.74 1.9581 0.527868 0
M  V30 11435 C 1082.07 1.01253 1.65715 0
M  V30 11436 O 1081.35 0.0514853 1.94432 0
M  V30 11437 C 1081.63 3.44406 1.05151 0
M  V30 11438 C 1081.48 4.49737 -0.0750113 0
M  V30 11439 C 1082.8 3.95069 1.9393 0
M  V30 11440 H 1079.92 0.711978 0.19041 0
M  V30 11441 H 1082.56 1.88879 -0.206081 0
M  V30 11442 H 1080.71 3.50443 1.67697 0
M  V30 11443 H 1082.38 4.55793 -0.710685 0
M  V30 11444 H 1080.63 4.27497 -0.736809 0
M  V30 11445 H 1081.3 5.50996 0.332779 0
M  V30 11446 H 1083.77 3.91395 1.41241 0
M  V30 11447 H 1082.65 4.99542 2.27484 0
M  V30 11448 H 1082.91 3.36329 2.86941 0
M  V30 11449 N 1081.97 -0.145205 1.5693 0
M  V30 11450 C 1083.39 -0.497905 1.51635 0
M  V30 11451 C 1083.59 -1.8328 0.837301 0
M  V30 11452 O 1082.64 -2.49172 0.408584 0
M  V30 11453 C 1083.95 -0.506557 2.96403 0
M  V30 11454 C 1085.5 -0.591947 3.07352 0
M  V30 11455 C 1085.98 -0.631244 4.53629 0
M  V30 11456 N 1087.47 -0.693417 4.5798 0
M  V30 11457 C 1088.2 -0.744836 5.68542 0
M  V30 11458 N 1087.7 -0.755492 6.88668 0
M  V30 11459 N 1089.49 -0.785854 5.5658 0
M  V30 11460 H 1081.64 0.729779 1.99469 0
M  V30 11461 H 1083.91 0.266295 0.90983 0
M  V30 11462 H 1083.61 0.406127 3.49347 0
M  V30 11463 H 1083.49 -1.34383 3.5245 0
M  V30 11464 H 1085.87 -1.49505 2.54425 0
M  V30 11465 H 1085.95 0.272507 2.54344 0
M  V30 11466 H 1085.6 0.26771 5.07194 0
M  V30 11467 H 1085.53 -1.51221 5.0442 0
M  V30 11468 H 1088.02 -0.692408 3.71503 0
M  V30 11469 H 1088.33 -0.796624 7.68683 0
M  V30 11470 H 1086.68 -0.723339 6.91226 0
M  V30 11471 H 1089.87 -0.774712 4.61645 0
M  V30 11472 H 1090.04 -0.822461 6.42759 0
M  V30 11473 N 1083.45 -1.52049 -0.414609 0
M  V30 11474 C 1084.4 -1.75603 -1.52533 0
M  V30 11475 C 1085.39 -0.622965 -1.57529 0
M  V30 11476 O 1086.6 -0.804886 -1.61002 0
M  V30 11477 H 1082.97 -0.555222 -0.507181 0
M  V30 11478 H 1084.94 -2.68666 -1.2985 0
M  V30 11479 C 1083.69 -1.9188 -2.89961 0
M  V30 11480 H 1083.01 -2.78483 -2.86857 0
M  V30 11481 H 1084.45 -2.12363 -3.66985 0
M  V30 11482 C 1082.91 -0.684453 -3.29874 0
M  V30 11483 O 1083.44 0.150256 -4.01419 0
M  V30 11484 N 1081.65 -0.521936 -2.85874 0
M  V30 11485 H 1081.2 -1.20229 -2.27822 0
M  V30 11486 H 1081.15 0.302655 -3.1294 0
M  V30 11487 N 1084.93 0.6715 -1.42579 0
M  V30 11488 C 1085.87 1.78496 -1.46314 0
M  V30 11489 C 1086.84 1.63091 -0.314743 0
M  V30 11490 O 1088.03 1.83597 -0.519292 0
M  V30 11491 C 1085.17 3.16548 -1.37447 0
M  V30 11492 C 1084.28 3.43216 -2.62348 0
M  V30 11493 C 1083.42 4.71014 -2.456 0
M  V30 11494 C 1082.45 4.90728 -3.65859 0
M  V30 11495 N 1081.59 6.09769 -3.48032 0
M  V30 11496 H 1086.43 1.74638 -2.41466 0
M  V30 11497 H 1083.97 0.852491 -1.19879 0
M  V30 11498 H 1085.93 3.96329 -1.30303 0
M  V30 11499 H 1084.56 3.19522 -0.458891 0
M  V30 11500 H 1083.61 2.57664 -2.79846 0
M  V30 11501 H 1084.92 3.53675 -3.51732 0
M  V30 11502 H 1084.07 5.58892 -2.3606 0
M  V30 11503 H 1082.81 4.62843 -1.53712 0
M  V30 11504 H 1081.82 4.01291 -3.75827 0
M  V30 11505 H 1083.04 5.00741 -4.58732 0
M  V30 11506 H 1080.99 6.02765 -2.58864 0
M  V30 11507 H 1080.91 6.21104 -4.31005 0
M  V30 11508 H 1082.17 7.00317 -3.42311 0
M  V30 11509 N 1086.4 1.28806 0.908124 0
M  V30 11510 C 1087.35 1.13215 2.01125 0
M  V30 11511 C 1088.32 0.0277357 1.66077 0
M  V30 11512 O 1089.51 0.193707 1.89814 0
M  V30 11513 C 1086.65 0.805887 3.35558 0
M  V30 11514 C 1085.76 1.9899 3.83441 0
M  V30 11515 C 1084.89 1.60376 5.06412 0
M  V30 11516 C 1083.93 2.75409 5.46641 0
M  V30 11517 N 1083.07 2.37249 6.60801 0
M  V30 11518 H 1087.91 2.07598 2.13792 0
M  V30 11519 H 1085.45 1.03316 1.0471 0
M  V30 11520 H 1087.4 0.597451 4.129 0
M  V30 11521 H 1086.03 -0.101023 3.22642 0
M  V30 11522 H 1085.09 2.31029 3.02208 0
M  V30 11523 H 1086.4 2.85214 4.09212 0
M  V30 11524 H 1085.55 1.35772 5.91313 0
M  V30 11525 H 1084.29 0.712888 4.82462 0
M  V30 11526 H 1083.3 3.00705 4.60279 0
M  V30 11527 H 1084.52 3.65148 5.72577 0
M  V30 11528 H 1082.47 1.50638 6.3847 0
M  V30 11529 H 1082.38 3.17008 6.86325 0
M  V30 11530 H 1083.65 2.15943 7.48992 0
M  V30 11531 N 1087.88 -1.11734 1.11145 0
M  V30 11532 C 1089.13 -1.83677 0.859684 0
M  V30 11533 C 1089.46 -1.84265 -0.613182 0
M  V30 11534 O 1088.74 -1.29351 -1.45254 0
M  V30 11535 C 1089.02 -3.31003 1.41805 0
M  V30 11536 C 1088.87 -3.38827 2.95831 0
M  V30 11537 C 1090.19 -4.26984 1.06645 0
M  V30 11538 H 1087.31 -0.666879 0.313754 0
M  V30 11539 H 1089.95 -1.31038 1.37583 0
M  V30 11540 H 1088.1 -3.75961 0.979054 0
M  V30 11541 H 1089.77 -3.02451 3.48312 0
M  V30 11542 H 1088.02 -2.79143 3.32056 0
M  V30 11543 H 1088.69 -4.42508 3.29986 0
M  V30 11544 H 1091.16 -3.9019 1.44537 0
M  V30 11545 H 1090.04 -5.2846 1.48394 0
M  V30 11546 H 1090.3 -4.42094 -0.0231866 0
M  V30 11547 N 1089.36 -0.901303 -1.29284 0
M  V30 11548 C 1090.78 -0.597634 -1.47988 0
M  V30 11549 C 1090.98 0.860434 -1.82205 0
M  V30 11550 O 1090.03 1.64049 -1.91948 0
M  V30 11551 C 1091.34 -1.52484 -2.5917 0
M  V30 11552 C 1092.89 -1.53021 -2.73045 0
M  V30 11553 C 1093.37 -2.44373 -3.87357 0
M  V30 11554 N 1094.86 -2.42429 -3.94693 0
M  V30 11555 C 1095.59 -3.09817 -4.82495 0
M  V30 11556 N 1095.09 -3.86489 -5.74976 0
M  V30 11557 N 1096.88 -2.98966 -4.76 0
M  V30 11558 H 1089.03 -1.84432 -1.0535 0
M  V30 11559 H 1091.3 -0.790367 -0.523473 0
M  V30 11560 H 1091 -2.56378 -2.40756 0
M  V30 11561 H 1090.88 -1.24657 -3.56006 0
M  V30 11562 H 1093.26 -0.498709 -2.90855 0
M  V30 11563 H 1093.34 -1.84886 -1.76779 0
M  V30 11564 H 1092.99 -3.47618 -3.70302 0
M  V30 11565 H 1092.92 -2.09817 -4.82995 0
M  V30 11566 H 1095.41 -1.86724 -3.28546 0
M  V30 11567 H 1095.72 -4.34959 -6.38773 0
M  V30 11568 H 1094.07 -3.90596 -5.74857 0
M  V30 11569 H 1097.26 -2.38581 -4.02737 0
M  V30 11570 H 1097.43 -3.51758 -5.44215 0
M  V30 11571 N 1090.84 1.42931 -0.663954 0
M  V30 11572 C 1092.25 1.56098 -0.332496 0
M  V30 11573 C 1092.45 1.64564 1.16279 0
M  V30 11574 O 1091.51 1.6066 1.94794 0
M  V30 11575 C 1092.82 2.81649 -1.05329 0
M  V30 11576 C 1094.37 2.95408 -1.03457 0
M  V30 11577 C 1094.85 4.23805 -1.73647 0
M  V30 11578 N 1096.34 4.30693 -1.70462 0
M  V30 11579 C 1097.07 5.28833 -2.21637 0
M  V30 11580 N 1096.57 6.33189 -2.81147 0
M  V30 11581 N 1098.36 5.20558 -2.12075 0
M  V30 11582 H 1090.51 1.3568 -1.63416 0
M  V30 11583 H 1092.77 0.652361 -0.687844 0
M  V30 11584 H 1092.48 2.81494 -2.10842 0
M  V30 11585 H 1092.35 3.72208 -0.611626 0
M  V30 11586 H 1094.74 2.95097 0.0121936 0
M  V30 11587 H 1094.82 2.06109 -1.51502 0
M  V30 11588 H 1094.47 4.24876 -2.78285 0
M  V30 11589 H 1094.4 5.12019 -1.2306 0
M  V30 11590 H 1096.89 3.55904 -1.27046 0
M  V30 11591 H 1097.2 7.04411 -3.17844 0
M  V30 11592 H 1095.55 6.33781 -2.85212 0
M  V30 11593 H 1098.74 4.3795 -1.6528 0
M  V30 11594 H 1098.91 5.96881 -2.52264 0
M  V30 11595 N 1092.32 0.406567 1.52266 0
M  V30 11596 C 1093.28 -0.408251 2.25535 0
M  V30 11597 C 1094.28 -0.975795 1.27808 0
M  V30 11598 O 1095.47 -0.855077 1.5177 0
M  V30 11599 C 1092.6 -1.57443 3.02365 0
M  V30 11600 H 1093.79 0.233459 2.9899 0
M  V30 11601 H 1091.35 0.159032 1.55489 0
M  V30 11602 H 1092.08 -2.25308 2.33252 0
M  V30 11603 H 1091.87 -1.17399 3.74112 0
M  V30 11604 H 1093.36 -2.15088 3.57948 0
M  V30 11605 N 1093.79 -1.57004 0.136909 0
M  V30 11606 C 1095.21 -1.82675 -0.385577 0
M  V30 11607 C 1095.56 -1.05508 -1.65416 0
M  V30 11608 O 1094.68 -0.297207 -2.14349 0
M  V30 11609 C 1095.28 -3.31356 -0.706326 0
M  V30 11610 C 1093.84 -3.57644 -1.17337 0
M  V30 11611 C 1092.98 -2.7664 -0.191239 0
M  V30 11612 H 1095.93 -1.54522 0.36177 0
M  V30 11613 H 1095.95 -3.4696 -1.56201 0
M  V30 11614 H 1095.47 -3.87492 0.217147 0
M  V30 11615 H 1093.57 -3.06883 -2.11313 0
M  V30 11616 H 1093.68 -4.66152 -1.10632 0
M  V30 11617 H 1092.04 -2.45403 -0.681867 0
M  V30 11618 H 1092.83 -3.35543 0.725647 0
M  V30 11619 N 1095.27 0.136881 -1.57004 0
M  V30 11620 C 1096.2 1.17026 -2.02057 0
M  V30 11621 C 1097.18 1.44223 -0.901866 0
M  V30 11622 O 1098.37 1.54971 -1.17037 0
M  V30 11623 C 1095.5 2.50095 -2.40977 0
M  V30 11624 C 1094.45 2.37398 -3.56127 0
M  V30 11625 C 1093.78 3.75268 -3.80891 0
M  V30 11626 C 1095.08 1.84952 -4.88457 0
M  V30 11627 H 1096.77 0.795601 -2.88636 0
M  V30 11628 H 1094.32 0.381266 -1.38861 0
M  V30 11629 H 1096.27 3.22621 -2.71097 0
M  V30 11630 H 1095 2.89416 -1.51348 0
M  V30 11631 H 1093.65 1.67322 -3.26188 0
M  V30 11632 H 1093.3 4.12043 -2.88496 0
M  V30 11633 H 1093 3.67631 -4.5839 0
M  V30 11634 H 1094.53 4.49327 -4.13446 0
M  V30 11635 H 1095.94 2.4728 -5.17229 0
M  V30 11636 H 1094.34 1.88181 -5.69832 0
M  V30 11637 H 1095.41 0.805848 -4.78157 0
M  V30 11638 N 1096.75 1.52266 0.40654 0
M  V30 11639 C 1097.98 1.70598 1.17945 0
M  V30 11640 C 1098.4 0.415793 1.83447 0
M  V30 11641 O 1097.76 -0.626968 1.70114 0
M  V30 11642 C 1097.81 2.84449 2.21633 0
M  V30 11643 O 1096.91 2.50199 3.27833 0
M  V30 11644 H 1096.25 0.567837 0.344177 0
M  V30 11645 H 1098.78 1.98981 0.476211 0
M  V30 11646 H 1098.79 3.09436 2.65919 0
M  V30 11647 H 1097.47 3.78055 1.73341 0
M  V30 11648 H 1096.04 2.35892 2.88807 0
M  V30 11649 N 1098.23 -0.663929 1.42933 0
M  V30 11650 C 1099.14 -1.80643 1.49683 0
M  V30 11651 C 1100.15 -1.69694 0.38472 0
M  V30 11652 O 1101.33 -1.91052 0.637256 0
M  V30 11653 C 1098.4 -3.16858 1.4072 0
M  V30 11654 C 1097.46 -3.39684 2.62514 0
M  V30 11655 C 1096.69 -4.69399 2.53969 0
M  V30 11656 O 1096.91 -5.48037 1.58152 0
M  V30 11657 O 1095.85 -4.93709 3.44289 0
M  V30 11658 H 1099.67 -1.77903 2.46138 0
M  V30 11659 H 1097.26 -0.821059 1.24816 0
M  V30 11660 H 1099.14 -3.9812 1.38124 0
M  V30 11661 H 1097.81 -3.20211 0.473954 0
M  V30 11662 H 1096.72 -2.58227 2.70684 0
M  V30 11663 H 1098.05 -3.41169 3.54774 0
M  V30 11664 N 1099.71 -1.29285 -0.901281 0
M  V30 11665 C 1100.95 -1.16934 -1.64836 0
M  V30 11666 C 1101.28 0.279826 -1.92982 0
M  V30 11667 O 1100.55 1.19179 -1.55478 0
M  V30 11668 H 1099.13 -0.429768 -0.61099 0
M  V30 11669 H 1101.79 -1.62189 -1.08077 0
M  V30 11670 H 1100.88 -1.71821 -2.60545 0
M  V30 11671 N 1101.18 1.11143 -1.11736 0
M  V30 11672 C 1102.6 1.64462 -0.883693 0
M  V30 11673 C 1102.95 1.87324 0.583448 0
M  V30 11674 O 1102.07 1.60975 1.44623 0
M  V30 11675 C 1102.67 2.98765 -1.59764 0
M  V30 11676 C 1101.23 3.4898 -1.41032 0
M  V30 11677 C 1100.37 2.23729 -1.63831 0
M  V30 11678 H 1103.32 0.947415 -1.27317 0
M  V30 11679 H 1103.34 3.65885 -1.04443 0
M  V30 11680 H 1102.86 2.82094 -2.66542 0
M  V30 11681 H 1100.96 3.7081 -0.364781 0
M  V30 11682 H 1101.07 4.27571 -2.16148 0
M  V30 11683 H 1099.43 2.31507 -1.06191 0
M  V30 11684 H 1100.22 2.09597 -2.7189 0
M  V30 11685 N 1102.66 0.908147 1.28804 0
M  V30 11686 C 1103.61 0.363504 2.25084 0
M  V30 11687 C 1104.6 -0.52121 1.52224 0
M  V30 11688 O 1105.79 -0.361848 1.73262 0
M  V30 11689 C 1102.92 -0.400353 3.40958 0
M  V30 11690 C 1102 0.499761 4.21145 0
M  V30 11691 N 1102.39 1.61082 4.79464 0
M  V30 11692 C 1100.69 0.299108 4.44996 0
M  V30 11693 C 1101.39 2.16906 5.39747 0
M  V30 11694 N 1100.37 1.46103 5.23598 0
M  V30 11695 H 1104.17 1.21212 2.6774 0
M  V30 11696 H 1101.69 0.760159 1.43511 0
M  V30 11697 H 1103.68 -0.807343 4.09008 0
M  V30 11698 H 1102.34 -1.24613 2.99836 0
M  V30 11699 H 1103.35 1.99347 4.77997 0
M  V30 11700 H 1100.03 -0.507611 4.14403 0
M  V30 11701 H 1101.42 3.10338 5.95936 0
M  V30 11702 N 1104.14 -1.42577 0.671525 0
M  V30 11703 C 1105.37 -2.06442 0.199152 0
M  V30 11704 C 1105.79 -1.50104 -1.1336 0
M  V30 11705 O 1105.15 -0.618211 -1.70434 0
M  V30 11706 C 1105.2 -3.60323 0.141215 0
M  V30 11707 O 1104.3 -4.02655 -0.891238 0
M  V30 11708 H 1103.64 -0.655919 0.103277 0
M  V30 11709 H 1106.17 -1.82768 0.919614 0
M  V30 11710 H 1106.18 -4.07984 -0.0360209 0
M  V30 11711 H 1104.86 -4.00702 1.11403 0
M  V30 11712 H 1103.43 -3.66549 -0.685309 0
M  V30 11713 N 1105.62 -0.414636 -1.52048 0
M  V30 11714 C 1106.55 0.399119 -2.30064 0
M  V30 11715 C 1107.53 1.04126 -1.34506 0
M  V30 11716 O 1108.71 1.04923 -1.63416 0
M  V30 11717 C 1105.84 1.51305 -3.12608 0
M  V30 11718 C 1104.8 0.995621 -4.16259 0
M  V30 11719 C 1104.12 2.20357 -4.87183 0
M  V30 11720 C 1105.42 0.0458178 -5.2228 0
M  V30 11721 H 1107.12 -0.251879 -2.98339 0
M  V30 11722 H 1104.66 -0.122579 -1.43477 0
M  V30 11723 H 1106.62 2.08936 -3.65956 0
M  V30 11724 H 1105.34 2.19201 -2.42113 0
M  V30 11725 H 1104 0.441676 -3.6393 0
M  V30 11726 H 1103.65 2.8682 -4.13211 0
M  V30 11727 H 1103.35 1.86385 -5.57256 0
M  V30 11728 H 1104.87 2.78584 -5.43345 0
M  V30 11729 H 1106.29 0.531102 -5.70835 0
M  V30 11730 H 1104.68 -0.20536 -5.99749 0
M  V30 11731 H 1105.75 -0.897807 -4.76516 0
M  V30 11732 N 1107.1 1.56929 -0.145233 0
M  V30 11733 C 1108.34 1.95681 0.50532 0
M  V30 11734 C 1108.67 1.03098 1.65516 0
M  V30 11735 O 1107.94 0.0921961 1.95683 0
M  V30 11736 H 1106.52 0.72252 0.189668 0
M  V30 11737 H 1109.18 1.93651 -0.220318 0
M  V30 11738 H 1108.27 2.99359 0.882631 0
M  V30 11739 N 1108.58 -0.128553 1.57075 0
M  V30 11740 C 1109.82 -0.844012 1.86161 0
M  V30 11741 C 1110.18 -1.77499 0.73198 0
M  V30 11742 O 1111.38 -2.5313 0.904357 0
M  V30 11743 C 1109.65 -1.58238 3.20462 0
M  V30 11744 S 1111.21 -2.34073 3.71154 0
M  V30 11745 H 1108.03 -0.281884 0.652734 0
M  V30 11746 H 1110.63 -0.102902 1.95229 0
M  V30 11747 H 1109.33 -0.890246 4.00628 0
M  V30 11748 H 1108.87 -2.36404 3.14446 0
M  V30 11749 H 1110.88 -3.59617 3.41892 0
M  V30 11750 N 1110.05 -1.5248 -0.398459 0
M  V30 11751 C 1111.28 -1.70677 -1.16417 0
M  V30 11752 C 1111.69 -0.420629 -1.84465 0
M  V30 11753 O 1111.03 0.614013 -1.73135 0
M  V30 11754 C 1111.1 -2.79401 -2.2622 0
M  V30 11755 C 1110.76 -4.20817 -1.78218 0
M  V30 11756 C 1111.76 -5.04298 -1.26409 0
M  V30 11757 C 1109.44 -4.67098 -1.84728 0
M  V30 11758 C 1111.44 -6.32136 -0.817461 0
M  V30 11759 C 1109.12 -5.94923 -1.39676 0
M  V30 11760 C 1110.12 -6.77272 -0.882716 0
M  V30 11761 O 1109.81 -8.02702 -0.438739 0
M  V30 11762 H 1109.54 -0.57503 -0.355411 0
M  V30 11763 H 1112.1 -1.99868 -0.473471 0
M  V30 11764 H 1110.33 -2.4561 -2.98685 0
M  V30 11765 H 1112.01 -2.86093 -2.87933 0
M  V30 11766 H 1112.78 -4.6973 -1.20744 0
M  V30 11767 H 1108.66 -4.03097 -2.23682 0
M  V30 11768 H 1112.2 -6.96361 -0.415548 0
M  V30 11769 H 1108.1 -6.28998 -1.45024 0
M  V30 11770 H 1108.87 -8.16575 -0.561079 0
M  V30 11771 N 1111.53 0.65634 -1.43283 0
M  V30 11772 C 1112.48 1.79058 -1.48462 0
M  V30 11773 C 1113.47 1.65563 -0.358512 0
M  V30 11774 O 1114.68 1.71947 -0.532365 0
M  V30 11775 H 1111.05 0.590716 -0.465358 0
M  V30 11776 H 1113.03 1.7181 -2.43975 0
M  V30 11777 C 1111.77 3.17304 -1.42175 0
M  V30 11778 H 1111.1 3.28324 -2.2813 0
M  V30 11779 H 1112.54 3.96633 -1.4986 0
M  V30 11780 C 1111 3.36613 -0.138929 0
M  V30 11781 O 1111.53 3.93633 0.80101 0
M  V30 11782 N 1109.73 2.90557 -0.0501237 0
M  V30 11783 H 1109.28 2.4434 -0.815821 0
M  V30 11784 H 1109.24 3.03853 0.807504 0
M  V30 11785 N 1113.01 1.29761 0.894412 0
M  V30 11786 C 1114.42 1.16275 1.46072 0
M  V30 11787 C 1114.77 -0.240123 1.94725 0
M  V30 11788 O 1113.9 -1.13606 1.84181 0
M  V30 11789 C 1114.49 2.10471 2.65494 0
M  V30 11790 C 1113.05 2.00992 3.18244 0
M  V30 11791 C 1112.2 2.01094 1.90936 0
M  V30 11792 H 1115.15 1.42169 0.705243 0
M  V30 11793 H 1115.17 1.68003 3.41402 0
M  V30 11794 H 1114.68 3.12566 2.30053 0
M  V30 11795 H 1112.78 1.02005 3.58365 0
M  V30 11796 H 1112.9 2.88916 3.82184 0
M  V30 11797 H 1111.26 1.45764 2.08866 0
M  V30 11798 H 1112.04 3.04902 1.57764 0
M  V30 11799 N 1114.49 -1.10549 1.12324 0
M  V30 11800 C 1115.42 -2.16081 0.733768 0
M  V30 11801 C 1116.4 -1.60266 -0.274511 0
M  V30 11802 O 1117.58 -1.87743 -0.168742 0
M  V30 11803 C 1114.71 -3.38591 0.0858914 0
M  V30 11804 C 1113.76 -4.13097 1.0608 0
M  V30 11805 S 1114.59 -4.68821 2.5878 0
M  V30 11806 C 1115.74 -5.94644 1.95319 0
M  V30 11807 H 1115.98 -2.48784 1.62769 0
M  V30 11808 H 1113.51 -1.22318 0.942209 0
M  V30 11809 H 1115.47 -4.09533 -0.281538 0
M  V30 11810 H 1114.13 -3.04129 -0.785122 0
M  V30 11811 H 1113.32 -5.00934 0.555095 0
M  V30 11812 H 1112.92 -3.4796 1.37112 0
M  V30 11813 H 1115.22 -6.65004 1.29523 0
M  V30 11814 H 1116.16 -6.49875 2.81191 0
M  V30 11815 H 1116.57 -5.4662 1.40951 0
M  V30 11816 N 1115.97 -0.914965 -1.28321 0
M  V30 11817 C 1116.9 -0.348729 -2.2552 0
M  V30 11818 C 1117.88 0.547737 -1.53097 0
M  V30 11819 O 1119.06 0.491119 -1.8199 0
M  V30 11820 C 1116.19 0.501397 -3.34968 0
M  V30 11821 C 1115.23 -0.329859 -4.25223 0
M  V30 11822 S 1116.07 -1.73737 -5.06533 0
M  V30 11823 C 1117.22 -0.89458 -6.19474 0
M  V30 11824 H 1117.46 -1.17256 -2.732 0
M  V30 11825 H 1114.99 -0.716297 -1.36779 0
M  V30 11826 H 1116.95 0.986061 -3.98481 0
M  V30 11827 H 1115.61 1.29962 -2.85952 0
M  V30 11828 H 1114.8 0.320236 -5.02982 0
M  V30 11829 H 1114.4 -0.748221 -3.66439 0
M  V30 11830 H 1116.69 -0.124776 -6.77385 0
M  V30 11831 H 1117.64 -1.64475 -6.88733 0
M  V30 11832 H 1118.05 -0.442217 -5.62765 0
M  V30 11833 N 1117.44 1.42219 -0.679077 0
M  V30 11834 C 1118.35 2.346 -0.00345919 0
M  V30 11835 C 1119.37 1.55327 0.784181 0
M  V30 11836 O 1120.55 1.87878 0.725524 0
M  V30 11837 C 1117.61 3.33905 0.933194 0
M  V30 11838 C 1116.67 4.29073 0.139607 0
M  V30 11839 C 1115.9 5.23634 1.03165 0
M  V30 11840 O 1116.13 5.23234 2.27119 0
M  V30 11841 O 1115.06 5.99901 0.490159 0
M  V30 11842 H 1118.89 2.9392 -0.764525 0
M  V30 11843 H 1116.47 1.42794 -0.439329 0
M  V30 11844 H 1118.35 3.949 1.47077 0
M  V30 11845 H 1117.03 2.77052 1.67404 0
M  V30 11846 H 1115.94 3.71478 -0.442177 0
M  V30 11847 H 1117.27 4.88979 -0.562214 0
M  V30 11848 N 1118.92 0.422693 1.51826 0
M  V30 11849 C 1120.2 -0.20786 1.94492 0
M  V30 11850 C 1120.58 -1.61414 1.36047 0
M  V30 11851 O 1119.93 -2.21987 0.541657 0
M  V30 11852 C 1120.14 -0.200457 3.48424 0
M  V30 11853 C 1121.48 -0.413199 4.22585 0
M  V30 11854 O 1122.51 -0.27922 3.55104 0
M  V30 11855 O 1121.37 -0.678469 5.42272 0
M  V30 11856 H 1118.46 -0.137851 0.81543 0
M  V30 11857 H 1121.01 0.479617 1.62781 0
M  V30 11858 H 1119.78 0.783263 3.83381 0
M  V30 11859 H 1119.4 -0.931464 3.86535 0
M  V30 11860 N 1120.4 -1.5685 0.153553 0
M  V30 11861 C 1121.65 -1.95946 -0.494936 0
M  V30 11862 C 1121.97 -1.03975 -1.64967 0
M  V30 11863 O 1121.24 -0.102572 -1.95631 0
M  V30 11864 H 1119.82 -0.723516 -0.185833 0
M  V30 11865 H 1122.48 -1.93531 0.230585 0
M  V30 11866 H 1121.58 -2.99823 -0.866743 0
M  V30 11867 N 1121.88 0.120221 -1.57141 0
M  V30 11868 C 1123.13 0.826791 -1.83976 0
M  V30 11869 C 1123.44 1.81102 -0.739014 0
M  V30 11870 O 1124.65 2.56368 -0.893736 0
M  V30 11871 C 1123.1 1.52108 -3.26176 0
M  V30 11872 C 1122.71 0.577902 -4.44257 0
M  V30 11873 C 1124.45 2.21286 -3.62261 0
M  V30 11874 C 1122.36 1.27535 -5.77485 0
M  V30 11875 H 1121.29 0.312508 -0.686189 0
M  V30 11876 H 1123.94 0.0795343 -1.83328 0
M  V30 11877 H 1122.32 2.31492 -3.2129 0
M  V30 11878 H 1123.5 -0.182629 -4.60438 0
M  V30 11879 H 1121.81 -0.00684348 -4.16399 0
M  V30 11880 H 1124.41 2.74154 -4.59068 0
M  V30 11881 H 1124.75 2.99029 -2.89634 0
M  V30 11882 H 1125.29 1.48791 -3.68925 0
M  V30 11883 H 1122.02 0.539237 -6.53278 0
M  V30 11884 H 1121.54 2.00792 -5.65192 0
M  V30 11885 H 1123.22 1.80888 -6.21199 0
M  V30 11886 N 1123.36 1.52689 0.390367 0
M  V30 11887 C 1124.58 1.71839 1.16129 0
M  V30 11888 C 1125.01 0.435226 1.82996 0
M  V30 11889 O 1124.36 -0.60889 1.70769 0
M  V30 11890 C 1124.41 2.86784 2.18603 0
M  V30 11891 O 1123.52 2.53662 3.25161 0
M  V30 11892 H 1122.86 0.571455 0.338135 0
M  V30 11893 H 1125.39 1.99475 0.45508 0
M  V30 11894 H 1125.4 3.12239 2.62622 0
M  V30 11895 H 1124.07 3.79872 1.69322 0
M  V30 11896 H 1122.65 2.38942 2.86289 0
M  V30 11897 N 1124.83 -0.648732 1.43629 0
M  V30 11898 C 1126.06 -1.43412 1.48716 0
M  V30 11899 C 1126.47 -1.88908 0.105051 0
M  V30 11900 O 1125.82 -1.60373 -0.895896 0
M  V30 11901 C 1125.88 -2.69906 2.37468 0
M  V30 11902 C 1125.54 -2.46321 3.84935 0
M  V30 11903 C 1126.54 -2.09259 4.75927 0
M  V30 11904 C 1124.22 -2.60506 4.29467 0
M  V30 11905 C 1126.22 -1.86686 6.09448 0
M  V30 11906 C 1123.9 -2.37548 5.6304 0
M  V30 11907 C 1124.9 -2.00694 6.52848 0
M  V30 11908 O 1124.59 -1.77979 7.83951 0
M  V30 11909 H 1124.32 -0.446883 0.507219 0
M  V30 11910 H 1126.88 -0.802218 1.89086 0
M  V30 11911 H 1125.11 -3.35672 1.91993 0
M  V30 11912 H 1126.8 -3.31867 2.33707 0
M  V30 11913 H 1127.56 -1.97872 4.428 0
M  V30 11914 H 1123.44 -2.88165 3.59836 0
M  V30 11915 H 1126.98 -1.57844 6.79508 0
M  V30 11916 H 1122.88 -2.48539 5.95734 0
M  V30 11917 H 1123.65 -1.92368 7.95573 0
M  V30 11918 N 1126.31 -1.30234 -0.887518 0
M  V30 11919 C 1127.54 -1.21829 -1.67229 0
M  V30 11920 C 1127.96 0.219251 -1.87523 0
M  V30 11921 O 1127.31 1.14526 -1.42091 0
M  V30 11922 C 1127.36 -1.94044 -3.05007 0
M  V30 11923 O 1127.08 -3.32185 -2.85631 0
M  V30 11924 C 1128.59 -1.92265 -3.99436 0
M  V30 11925 H 1125.81 -0.421716 -0.521916 0
M  V30 11926 H 1128.35 -1.71816 -1.10903 0
M  V30 11927 H 1126.5 -1.47861 -3.58072 0
M  V30 11928 H 1126.92 -3.68724 -3.73018 0
M  V30 11929 H 1128.39 -2.47336 -4.93486 0
M  V30 11930 H 1128.87 -0.900984 -4.29859 0
M  V30 11931 H 1129.48 -2.38247 -3.52305 0
M  V30 11932 N 1127.79 1.09952 -1.12909 0
M  V30 11933 C 1129.02 1.8579 -0.910483 0
M  V30 11934 C 1129.43 1.80898 0.540484 0
M  V30 11935 O 1128.79 1.20126 1.3739 0
M  V30 11936 C 1128.84 3.33987 -1.38329 0
M  V30 11937 O 1128.56 3.38811 -2.77739 0
M  V30 11938 C 1130.06 4.26683 -1.20234 0
M  V30 11939 H 1127.28 0.587026 -0.325025 0
M  V30 11940 H 1129.83 1.38965 -1.5003 0
M  V30 11941 H 1127.98 3.78259 -0.836592 0
M  V30 11942 H 1128.4 4.31204 -2.98603 0
M  V30 11943 H 1129.87 5.28846 -1.58197 0
M  V30 11944 H 1130.35 4.38966 -0.14344 0
M  V30 11945 H 1130.95 3.88221 -1.73679 0
M  V30 11946 N 1129.27 0.921757 1.27833 0
M  V30 11947 C 1130.2 0.433466 2.29441 0
M  V30 11948 C 1131.18 -0.503133 1.62489 0
M  V30 11949 O 1132.36 -0.409156 1.89841 0
M  V30 11950 C 1129.49 -0.320029 3.45822 0
M  V30 11951 C 1128.45 0.528178 4.24728 0
M  V30 11952 C 1127.77 -0.354132 5.33526 0
M  V30 11953 C 1129.07 1.78959 4.90684 0
M  V30 11954 H 1130.77 1.28263 2.70535 0
M  V30 11955 H 1128.31 0.618197 1.30055 0
M  V30 11956 H 1130.27 -0.672526 4.15999 0
M  V30 11957 H 1128.99 -1.20317 3.0363 0
M  V30 11958 H 1127.65 0.863302 3.5629 0
M  V30 11959 H 1127.3 -1.23605 4.87576 0
M  V30 11960 H 1127 0.209855 5.87225 0
M  V30 11961 H 1128.52 -0.702333 6.06547 0
M  V30 11962 H 1129.94 1.50552 5.53179 0
M  V30 11963 H 1128.33 2.29661 5.54415 0
M  V30 11964 H 1129.4 2.51265 4.14721 0
M  V30 11965 N 1130.75 -1.41857 0.686609 0
M  V30 11966 C 1132.16 -1.55549 0.357288 0
M  V30 11967 C 1132.36 -1.66394 -1.13646 0
M  V30 11968 O 1131.42 -1.63739 -1.92213 0
M  V30 11969 C 1132.73 -2.79938 1.09796 0
M  V30 11970 C 1134.28 -2.93724 1.08143 0
M  V30 11971 C 1134.75 -4.20989 1.80367 0
M  V30 11972 N 1136.25 -4.27927 1.77293 0
M  V30 11973 C 1136.98 -5.2524 2.30022 0
M  V30 11974 N 1136.48 -6.28636 2.91185 0
M  V30 11975 N 1138.27 -5.17118 2.20329 0
M  V30 11976 H 1130.42 -1.33063 1.65554 0
M  V30 11977 H 1132.68 -0.641335 0.698135 0
M  V30 11978 H 1132.39 -2.78104 2.15293 0
M  V30 11979 H 1132.26 -3.71188 0.670763 0
M  V30 11980 H 1134.65 -2.9508 0.0347554 0
M  V30 11981 H 1134.73 -2.03673 1.54761 0
M  V30 11982 H 1134.38 -4.20395 2.85009 0
M  V30 11983 H 1134.31 -5.09997 1.3119 0
M  V30 11984 H 1136.8 -3.53838 1.32692 0
M  V30 11985 H 1137.11 -6.99265 3.29011 0
M  V30 11986 H 1135.45 -6.29164 2.95259 0
M  V30 11987 H 1138.65 -4.35265 1.72226 0
M  V30 11988 H 1138.82 -5.92792 2.61728 0
M  V30 11989 N 1132.22 -0.430739 -1.51599 0
M  V30 11990 C 1133.47 0.137929 -2.0203 0
M  V30 11991 C 1133.8 1.43287 -1.31526 0
M  V30 11992 O 1133.05 1.9121 -0.416814 0
M  V30 11993 C 1133.35 0.410694 -3.55032 0
M  V30 11994 C 1133.02 -0.797634 -4.43789 0
M  V30 11995 C 1131.68 -1.12902 -4.67768 0
M  V30 11996 C 1134.03 -1.60403 -4.95904 0
M  V30 11997 C 1131.36 -2.2676 -5.41107 0
M  V30 11998 C 1133.71 -2.73354 -5.70491 0
M  V30 11999 C 1132.38 -3.06955 -5.92735 0
M  V30 12000 H 1131.65 0.0504718 -0.739279 0
M  V30 12001 H 1134.29 -0.576585 -1.82614 0
M  V30 12002 H 1132.6 1.20703 -3.72744 0
M  V30 12003 H 1134.3 0.864006 -3.91581 0
M  V30 12004 H 1130.89 -0.529397 -4.25318 0
M  V30 12005 H 1135.07 -1.36122 -4.77268 0
M  V30 12006 H 1130.33 -2.53114 -5.56546 0
M  V30 12007 H 1134.5 -3.36213 -6.09864 0
M  V30 12008 H 1132.13 -3.95293 -6.49344 0
M  V30 12009 N 1133.7 1.56767 -0.161869 0
M  V30 12010 C 1135.11 1.83265 0.356466 0
M  V30 12011 C 1135.46 1.08127 1.63716 0
M  V30 12012 O 1134.59 0.33127 2.13849 0
M  V30 12013 C 1135.18 3.32437 0.653521 0
M  V30 12014 C 1133.74 3.59465 1.11633 0
M  V30 12015 C 1132.89 2.76909 0.147204 0
M  V30 12016 H 1135.84 1.53926 -0.386308 0
M  V30 12017 H 1135.86 3.49401 1.50662 0
M  V30 12018 H 1135.37 3.87098 -0.278766 0
M  V30 12019 H 1133.48 3.10206 2.06404 0
M  V30 12020 H 1133.59 4.67853 1.03202 0
M  V30 12021 H 1131.95 2.46457 0.642739 0
M  V30 12022 H 1132.74 3.34346 -0.778938 0
M  V30 12023 N 1135.18 -0.111886 1.57202 0
M  V30 12024 C 1136.09 -1.1556 2.04165 0
M  V30 12025 C 1137.11 -1.44898 0.963354 0
M  V30 12026 O 1138.28 -1.55873 1.27536 0
M  V30 12027 C 1135.35 -2.46048 2.44256 0
M  V30 12028 C 1134.41 -2.24043 3.66201 0
M  V30 12029 C 1133.64 -3.4831 4.04371 0
M  V30 12030 O 1133.86 -4.55895 3.42806 0
M  V30 12031 O 1132.8 -3.38891 4.9743 0
M  V30 12032 H 1136.62 -0.786778 2.93332 0
M  V30 12033 H 1134.21 -0.323196 1.45862 0
M  V30 12034 H 1136.09 -3.22916 2.70745 0
M  V30 12035 H 1134.77 -2.8239 1.58233 0
M  V30 12036 H 1133.67 -1.4501 3.44852 0
M  V30 12037 H 1135.01 -1.92602 4.52952 0
M  V30 12038 N 1136.66 -1.52894 -0.382264 0
M  V30 12039 C 1137.59 -1.7291 -1.48921 0
M  V30 12040 C 1138.57 -0.577056 -1.52016 0
M  V30 12041 O 1139.75 -0.807667 -1.7032 0
M  V30 12042 C 1136.88 -1.79281 -2.87361 0
M  V30 12043 C 1135.93 -3.01099 -3.02063 0
M  V30 12044 S 1136.76 -4.60947 -2.72558 0
M  V30 12045 C 1137.92 -4.70144 -4.13178 0
M  V30 12046 H 1138.15 -2.66529 -1.31718 0
M  V30 12047 H 1135.68 -1.43271 -0.575563 0
M  V30 12048 H 1137.64 -1.83637 -3.67134 0
M  V30 12049 H 1136.3 -0.867428 -3.01885 0
M  V30 12050 H 1135.49 -3.02117 -4.03412 0
M  V30 12051 H 1135.1 -2.94769 -2.3019 0
M  V30 12052 H 1137.39 -4.49173 -5.07198 0
M  V30 12053 H 1138.33 -5.72166 -4.17172 0
M  V30 12054 H 1138.74 -3.98923 -3.99401 0
M  V30 12055 N 1138.14 0.641106 -1.43971 0
M  V30 12056 C 1139.09 1.77474 -1.50352 0
M  V30 12057 C 1140.08 1.65173 -0.376052 0
M  V30 12058 O 1141.29 1.71373 -0.550572 0
M  V30 12059 H 1137.66 0.585747 -0.471597 0
M  V30 12060 H 1139.63 1.69213 -2.45784 0
M  V30 12061 C 1138.38 3.15778 -1.45532 0
M  V30 12062 H 1137.7 3.25886 -2.316 0
M  V30 12063 H 1139.14 3.95022 -1.54058 0
M  V30 12064 C 1137.6 3.36447 -0.174624 0
M  V30 12065 O 1138.13 3.9446 0.759215 0
M  V30 12066 N 1136.34 2.90487 -0.0809383 0
M  V30 12067 H 1135.89 2.43461 -0.841691 0
M  V30 12068 H 1135.84 3.04693 0.775231 0
M  V30 12069 N 1139.62 1.30703 0.880598 0
M  V30 12070 C 1140.86 1.19142 1.62752 0
M  V30 12071 C 1141.18 -0.251795 1.93973 0
M  V30 12072 O 1142.38 -0.488971 2.67061 0
M  V30 12073 C 1140.84 2.08503 2.93351 0
M  V30 12074 C 1140.45 3.57758 2.69653 0
M  V30 12075 C 1142.19 2.05715 3.71324 0
M  V30 12076 C 1140.1 4.39161 3.96096 0
M  V30 12077 H 1139.03 0.442332 0.610622 0
M  V30 12078 H 1141.68 1.55483 0.974547 0
M  V30 12079 H 1140.06 1.65049 3.59965 0
M  V30 12080 H 1141.24 4.09388 2.11513 0
M  V30 12081 H 1139.55 3.62414 2.0505 0
M  V30 12082 H 1142.15 2.63783 4.65105 0
M  V30 12083 H 1142.49 1.04168 4.03057 0
M  V30 12084 H 1143.02 2.47313 3.11579 0
M  V30 12085 H 1139.76 5.4142 3.69519 0
M  V30 12086 H 1139.28 3.92293 4.53725 0
M  V30 12087 H 1140.96 4.50823 4.64077 0
M  V30 12088 N 1141.09 -1.09351 1.1349 0
M  V30 12089 C 1142.5 -1.63035 0.909746 0
M  V30 12090 C 1142.86 -1.88229 -0.553573 0
M  V30 12091 O 1141.98 -1.63256 -1.42044 0
M  V30 12092 C 1142.58 -2.96186 1.64497 0
M  V30 12093 C 1141.13 -3.46692 1.46566 0
M  V30 12094 C 1140.28 -2.21095 1.67369 0
M  V30 12095 H 1143.23 -0.92704 1.28809 0
M  V30 12096 H 1143.25 -3.64177 1.10251 0
M  V30 12097 H 1142.77 -2.77818 2.70996 0
M  V30 12098 H 1140.87 -3.70183 0.423728 0
M  V30 12099 H 1140.98 -4.24078 2.22923 0
M  V30 12100 H 1139.34 -2.29789 1.0986 0
M  V30 12101 H 1140.13 -2.05245 2.7519 0
M  V30 12102 N 1142.57 -0.928524 -1.27343 0
M  V30 12103 C 1143.99 -0.62889 -1.46687 0
M  V30 12104 C 1144.19 0.821592 -1.83989 0
M  V30 12105 O 1143.24 1.59941 -1.95385 0
M  V30 12106 C 1144.56 -1.57947 -2.55878 0
M  V30 12107 C 1146.1 -1.58778 -2.69738 0
M  V30 12108 C 1146.58 -2.52535 -3.82087 0
M  V30 12109 N 1148.07 -2.50747 -3.89462 0
M  V30 12110 C 1148.81 -3.19981 -4.75814 0
M  V30 12111 N 1148.3 -3.98598 -5.66649 0
M  V30 12112 N 1150.09 -3.08996 -4.69551 0
M  V30 12113 H 1142.25 -1.86625 -1.01414 0
M  V30 12114 H 1144.51 -0.801293 -0.50659 0
M  V30 12115 H 1144.21 -2.61427 -2.35264 0
M  V30 12116 H 1144.09 -1.3218 -3.53282 0
M  V30 12117 H 1146.48 -0.560292 -2.89732 0
M  V30 12118 H 1146.56 -1.88594 -1.72817 0
M  V30 12119 H 1146.2 -3.55395 -3.62846 0
M  V30 12120 H 1146.13 -2.20015 -4.78436 0
M  V30 12121 H 1148.62 -1.93651 -3.24511 0
M  V30 12122 H 1148.93 -4.4841 -6.29403 0
M  V30 12123 H 1147.28 -4.02701 -5.66442 0
M  V30 12124 H 1150.47 -2.4707 -3.97585 0
M  V30 12125 H 1150.64 -3.63223 -5.36631 0
M  V30 12126 N 1144.05 1.41491 -0.694123 0
M  V30 12127 C 1145.28 2.05579 -0.233466 0
M  V30 12128 C 1145.69 1.5223 1.11675 0
M  V30 12129 O 1145.05 0.669937 1.69759 0
M  V30 12130 C 1145.1 3.61047 -0.180967 0
M  V30 12131 O 1144.82 4.12421 -1.47785 0
M  V30 12132 C 1146.32 4.42278 0.300853 0
M  V30 12133 H 1143.54 0.662097 -0.108943 0
M  V30 12134 H 1146.09 1.81288 -0.946299 0
M  V30 12135 H 1144.24 3.84381 0.482678 0
M  V30 12136 H 1144.66 5.06454 -1.364 0
M  V30 12137 H 1146.13 5.51256 0.286464 0
M  V30 12138 H 1146.61 4.18276 1.33948 0
M  V30 12139 H 1147.21 4.24004 -0.331741 0
M  V30 12140 N 1145.53 0.438773 1.51369 0
M  V30 12141 C 1146.78 -0.126962 2.01701 0
M  V30 12142 C 1147.1 -1.43086 1.32481 0
M  V30 12143 O 1146.37 -1.90427 0.459823 0
M  V30 12144 H 1144.95 -0.0499092 0.745331 0
M  V30 12145 H 1147.61 0.581808 1.86013 0
M  V30 12146 H 1146.7 -0.301836 3.10637 0
M  V30 12147 N 1147.01 -1.56678 0.170181 0
M  V30 12148 C 1148.28 -1.88524 -0.521362 0
M  V30 12149 C 1148.66 -1.07989 -1.81388 0
M  V30 12150 O 1148.01 -0.17347 -2.27841 0
M  V30 12151 C 1148.22 -3.40527 -0.764367 0
M  V30 12152 C 1149.57 -4.10241 -1.09487 0
M  V30 12153 O 1150.59 -3.45837 -0.852945 0
M  V30 12154 O 1149.45 -5.24022 -1.55124 0
M  V30 12155 H 1146.55 -0.782161 -0.268614 0
M  V30 12156 H 1149.09 -1.68414 0.208531 0
M  V30 12157 H 1147.86 -3.91015 0.149416 0
M  V30 12158 H 1147.49 -3.66244 -1.54762 0
M  V30 12159 N 1148.48 0.103547 -1.57259 0
M  V30 12160 C 1149.45 1.11039 -2.00507 0
M  V30 12161 C 1150.45 1.33432 -0.897361 0
M  V30 12162 O 1151.64 1.29688 -1.16304 0
M  V30 12163 C 1148.77 2.46144 -2.35851 0
M  V30 12164 H 1149.96 0.738332 -2.90669 0
M  V30 12165 H 1147.51 0.348334 -1.52369 0
M  V30 12166 H 1148.25 2.88242 -1.48617 0
M  V30 12167 H 1148.03 2.31241 -3.16654 0
M  V30 12168 H 1149.52 3.18577 -2.69997 0
M  V30 12169 N 1149.96 1.53094 0.37415 0
M  V30 12170 C 1150.87 1.81872 1.48188 0
M  V30 12171 C 1151.89 0.706487 1.59012 0
M  V30 12172 O 1153.06 0.995648 1.75068 0
M  V30 12173 C 1150.13 1.99494 2.83554 0
M  V30 12174 C 1149.19 3.23402 2.82329 0
M  V30 12175 C 1148.42 3.40174 4.11239 0
M  V30 12176 O 1148.65 2.61425 5.06965 0
M  V30 12177 O 1147.58 4.33493 4.17573 0
M  V30 12178 H 1151.41 2.75965 1.26795 0
M  V30 12179 H 1148.99 1.38368 0.56343 0
M  V30 12180 H 1150.87 2.12705 3.63778 0
M  V30 12181 H 1149.55 1.08591 3.04942 0
M  V30 12182 H 1148.45 3.15621 2.00834 0
M  V30 12183 H 1149.79 4.14199 2.65894 0
M  V30 12184 N 1151.44 -0.633461 1.44309 0
M  V30 12185 C 1152.66 -1.42527 1.50668 0
M  V30 12186 C 1153.09 -1.87637 0.131861 0
M  V30 12187 O 1152.45 -1.58595 -0.878477 0
M  V30 12188 C 1152.5 -2.62328 2.47419 0
M  V30 12189 O 1151.6 -3.62081 1.97411 0
M  V30 12190 H 1150.94 -0.426559 0.508864 0
M  V30 12191 H 1153.47 -0.773392 1.8942 0
M  V30 12192 H 1153.48 -3.09901 2.65378 0
M  V30 12193 H 1152.16 -2.2884 3.47283 0
M  V30 12194 H 1150.73 -3.21333 1.89208 0
M  V30 12195 N 1152.92 -1.31168 -0.873655 0
M  V30 12196 C 1154.14 -1.23728 -1.66452 0
M  V30 12197 C 1154.57 0.194869 -1.87088 0
M  V30 12198 O 1153.93 1.1397 -1.40998 0
M  V30 12199 C 1153.97 -1.98285 -3.0119 0
M  V30 12200 O 1153.08 -1.31767 -3.90783 0
M  V30 12201 H 1152.42 -0.427362 -0.508191 0
M  V30 12202 H 1154.95 -1.73176 -1.08955 0
M  V30 12203 H 1154.96 -2.0774 -3.51153 0
M  V30 12204 H 1153.63 -3.02437 -2.8549 0
M  V30 12205 H 1152.21 -1.3074 -3.4923 0
M  V30 12206 N 1154.4 1.08748 -1.14068 0
M  V30 12207 C 1155.31 2.19123 -0.837998 0
M  V30 12208 C 1156.32 1.73065 0.180164 0
M  V30 12209 O 1157.5 2.01398 0.00952285 0
M  V30 12210 C 1154.56 3.45257 -0.316 0
M  V30 12211 C 1153.62 4.05959 -1.39628 0
M  V30 12212 C 1152.86 5.26072 -0.899095 0
M  V30 12213 O 1153.08 5.69804 0.260744 0
M  V30 12214 O 1152.01 5.7808 -1.67652 0
M  V30 12215 H 1155.84 2.4748 -1.76033 0
M  V30 12216 H 1153.43 1.17816 -0.918675 0
M  V30 12217 H 1155.31 4.21389 -0.0306425 0
M  V30 12218 H 1153.98 3.18486 0.578654 0
M  V30 12219 H 1152.89 3.31432 -1.73505 0
M  V30 12220 H 1154.22 4.36971 -2.26533 0
M  V30 12221 N 1155.87 0.935264 1.26849 0
M  V30 12222 C 1156.81 0.384563 2.24936 0
M  V30 12223 C 1157.79 -0.523311 1.53949 0
M  V30 12224 O 1158.97 -0.462103 1.82748 0
M  V30 12225 C 1156.1 -0.448043 3.35723 0
M  V30 12226 C 1155.14 0.397466 4.24644 0
M  V30 12227 S 1155.98 1.81773 5.03705 0
M  V30 12228 C 1157.13 0.99302 6.17972 0
M  V30 12229 H 1157.36 1.21588 2.713 0
M  V30 12230 H 1154.9 0.737966 1.35622 0
M  V30 12231 H 1156.86 -0.922541 3.99999 0
M  V30 12232 H 1155.52 -1.25397 2.87983 0
M  V30 12233 H 1154.71 -0.240176 5.03427 0
M  V30 12234 H 1154.31 0.806423 3.65202 0
M  V30 12235 H 1156.6 0.232526 6.77101 0
M  V30 12236 H 1157.55 1.75412 6.86029 0
M  V30 12237 H 1157.95 0.531692 5.6199 0
M  V30 12238 N 1157.35 -1.41121 0.701616 0
M  V30 12239 C 1158.28 -2.292 0.000880842 0
M  V30 12240 C 1159.3 -1.45102 -0.738192 0
M  V30 12241 O 1160.49 -1.68541 -0.587891 0
M  V30 12242 C 1157.59 -3.23094 -1.02292 0
M  V30 12243 C 1156.76 -4.35979 -0.352231 0
M  V30 12244 C 1155.82 -5.10408 -1.27947 0
M  V30 12245 O 1154.84 -5.63974 -0.769561 0
M  V30 12246 N 1156.05 -5.18442 -2.61147 0
M  V30 12247 H 1158.81 -2.8998 0.757094 0
M  V30 12248 H 1156.37 -1.52339 0.548126 0
M  V30 12249 H 1158.36 -3.69755 -1.64509 0
M  V30 12250 H 1156.93 -2.6358 -1.68061 0
M  V30 12251 H 1156.15 -3.91624 0.44992 0
M  V30 12252 H 1157.44 -5.08673 0.113882 0
M  V30 12253 H 1156.84 -4.76381 -3.05087 0
M  V30 12254 H 1155.4 -5.68659 -3.18544 0
M  V30 12255 N 1158.83 -0.446794 -1.51134 0
M  V30 12256 C 1160.25 -0.0995905 -1.59289 0
M  V30 12257 C 1160.45 1.39191 -1.45699 0
M  V30 12258 O 1159.5 2.1628 -1.30303 0
M  V30 12259 C 1160.82 -0.628135 -2.94066 0
M  V30 12260 C 1162.36 -0.589409 -3.074 0
M  V30 12261 C 1162.84 -1.09509 -4.44715 0
M  V30 12262 N 1164.33 -1.05347 -4.51061 0
M  V30 12263 C 1165.06 -1.41551 -5.55654 0
M  V30 12264 N 1164.56 -1.85086 -6.67619 0
M  V30 12265 N 1166.35 -1.33307 -5.46064 0
M  V30 12266 H 1158.5 -1.41713 -1.58213 0
M  V30 12267 H 1160.77 -0.584555 -0.746324 0
M  V30 12268 H 1160.47 -1.67205 -3.09411 0
M  V30 12269 H 1160.35 -0.0582398 -3.77155 0
M  V30 12270 H 1162.73 0.445541 -2.91717 0
M  V30 12271 H 1162.82 -1.19582 -2.26128 0
M  V30 12272 H 1162.46 -2.12855 -4.61146 0
M  V30 12273 H 1162.39 -0.465122 -5.24542 0
M  V30 12274 H 1164.88 -0.733877 -3.70706 0
M  V30 12275 H 1165.19 -2.10923 -7.43459 0
M  V30 12276 H 1163.54 -1.8902 -6.68802 0
M  V30 12277 H 1166.73 -0.991547 -4.57478 0
M  V30 12278 H 1166.9 -1.6185 -6.27462 0
M  V30 12279 N 1160.31 1.56586 -0.178487 0
M  V30 12280 C 1161.72 1.83633 0.337009 0
M  V30 12281 C 1162.07 1.09857 1.6256 0
M  V30 12282 O 1161.2 0.353933 2.13486 0
M  V30 12283 C 1161.79 3.33112 0.618225 0
M  V30 12284 C 1160.35 3.60629 1.07814 0
M  V30 12285 C 1159.5 2.7705 0.117825 0
M  V30 12286 H 1162.45 1.53508 -0.402612 0
M  V30 12287 H 1162.47 3.5098 1.46947 0
M  V30 12288 H 1161.98 3.8678 -0.319808 0
M  V30 12289 H 1160.08 3.12378 2.03103 0
M  V30 12290 H 1160.19 4.68921 0.982339 0
M  V30 12291 H 1158.56 2.47125 0.616563 0
M  V30 12292 H 1159.34 3.33501 -0.814356 0
M  V30 12293 N 1161.79 -0.095206 1.57312 0
M  V30 12294 C 1163.2 -0.649733 1.7503 0
M  V30 12295 C 1163.55 -1.7912 0.800652 0
M  V30 12296 O 1162.67 -2.1639 -0.0208831 0
M  V30 12297 C 1163.27 -1.18541 3.17386 0
M  V30 12298 C 1161.83 -1.686 3.36528 0
M  V30 12299 C 1160.97 -0.595531 2.7083 0
M  V30 12300 H 1163.93 0.130863 1.5816 0
M  V30 12301 H 1163.95 -2.05473 3.20252 0
M  V30 12302 H 1163.46 -0.35441 3.86478 0
M  V30 12303 H 1161.56 -2.541 2.72514 0
M  V30 12304 H 1161.67 -1.77907 4.44844 0
M  V30 12305 H 1160.04 -1.03495 2.32725 0
M  V30 12306 H 1160.82 0.224883 3.42563 0
M  V30 12307 N 1163.26 -1.53291 -0.366026 0
M  V30 12308 C 1164.68 -1.61144 -0.942849 0
M  V30 12309 C 1165.03 -0.478571 -1.90274 0
M  V30 12310 O 1164.15 0.395069 -2.12763 0
M  V30 12311 C 1164.75 -2.92081 -1.71681 0
M  V30 12312 C 1163.31 -3.0227 -2.24298 0
M  V30 12313 C 1162.45 -2.56436 -1.05526 0
M  V30 12314 H 1165.4 -1.58038 -0.144835 0
M  V30 12315 H 1165.42 -2.79858 -2.57798 0
M  V30 12316 H 1164.94 -3.74513 -1.01793 0
M  V30 12317 H 1163.04 -2.24425 -2.97429 0
M  V30 12318 H 1163.15 -4.07341 -2.5221 0
M  V30 12319 H 1161.51 -2.11301 -1.42211 0
M  V30 12320 H 1162.3 -3.41285 -0.371376 0
M  V30 12321 N 1164.74 0.6258 -1.44643 0
M  V30 12322 C 1166.02 1.38439 -1.38181 0
M  V30 12323 C 1166.4 2.11056 -0.0431928 0
M  V30 12324 O 1165.75 2.06683 0.974383 0
M  V30 12325 C 1165.96 2.34639 -2.58352 0
M  V30 12326 C 1167.31 2.97807 -3.02649 0
M  V30 12327 O 1168.33 2.44963 -2.58595 0
M  V30 12328 O 1167.19 3.93682 -3.79048 0
M  V30 12329 H 1164.28 0.619852 -0.54746 0
M  V30 12330 H 1166.83 0.650409 -1.56741 0
M  V30 12331 H 1165.6 1.80116 -3.47382 0
M  V30 12332 H 1165.22 3.15446 -2.42032 0
M  V30 12333 N 1166.22 1.31629 0.866686 0
M  V30 12334 C 1167.46 1.22806 1.63395 0
M  V30 12335 C 1167.82 -0.209785 1.9085 0
M  V30 12336 O 1169.03 -0.421562 2.65474 0
M  V30 12337 C 1167.3 2.05187 2.92631 0
M  V30 12338 S 1168.86 2.13261 3.83491 0
M  V30 12339 H 1165.67 0.437339 0.560585 0
M  V30 12340 H 1168.28 1.66333 1.02731 0
M  V30 12341 H 1166.98 3.08736 2.70389 0
M  V30 12342 H 1166.51 1.62393 3.58318 0
M  V30 12343 H 1168.53 1.27333 4.79584 0
M  V30 12344 N 1167.7 -1.08142 1.14644 0
M  V30 12345 C 1168.98 -1.77254 0.827071 0
M  V30 12346 C 1169.36 -1.99885 -0.67891 0
M  V30 12347 O 1168.7 -1.61084 -1.62062 0
M  V30 12348 C 1168.91 -3.08658 1.62884 0
M  V30 12349 C 1170.26 -3.83143 1.82993 0
M  V30 12350 O 1171.29 -3.18447 1.59593 0
M  V30 12351 O 1170.15 -4.9932 2.2213 0
M  V30 12352 H 1167.24 -0.769356 0.30335 0
M  V30 12353 H 1169.79 -1.1458 1.25178 0
M  V30 12354 H 1168.56 -2.87753 2.65168 0
M  V30 12355 H 1168.18 -3.79061 1.19994 0
M  V30 12356 N 1169.18 -0.941978 -1.26351 0
M  V30 12357 C 1170.45 -0.507822 -1.88893 0
M  V30 12358 C 1170.83 1.0146 -1.85119 0
M  V30 12359 O 1170.18 1.87495 -1.30606 0
M  V30 12360 C 1170.39 -1.07007 -3.3219 0
M  V30 12361 C 1171.74 -1.13922 -4.09032 0
M  V30 12362 O 1172.76 -1.02072 -3.41262 0
M  V30 12363 O 1171.62 -1.32362 -5.30229 0
M  V30 12364 H 1168.72 -0.165621 -0.810246 0
M  V30 12365 H 1171.26 -1.03459 -1.34515 0
M  V30 12366 H 1170.04 -2.11366 -3.29302 0
M  V30 12367 H 1169.66 -0.525797 -3.94108 0
M  V30 12368 N 1170.66 1.40747 -0.709091 0
M  V30 12369 C 1171.88 2.05319 -0.255258 0
M  V30 12370 C 1172.3 1.53406 1.10054 0
M  V30 12371 O 1171.66 0.687905 1.69039 0
M  V30 12372 C 1171.71 3.60835 -0.219251 0
M  V30 12373 O 1171.43 4.1083 -1.52151 0
M  V30 12374 C 1172.93 4.42572 0.253927 0
M  V30 12375 H 1170.15 0.660904 -0.115959 0
M  V30 12376 H 1172.69 1.80274 -0.965474 0
M  V30 12377 H 1170.85 3.84872 0.441882 0
M  V30 12378 H 1171.26 5.04979 -1.41764 0
M  V30 12379 H 1172.74 5.51529 0.22798 0
M  V30 12380 H 1173.21 4.19673 1.29504 0
M  V30 12381 H 1173.82 4.23629 -0.376694 0
M  V30 12382 N 1172.13 0.454803 1.50895 0
M  V30 12383 C 1173.38 -0.105927 2.02523 0
M  V30 12384 C 1173.71 -1.40825 1.33724 0
M  V30 12385 O 1172.99 -1.89038 0.457683 0
M  V30 12386 C 1173.27 -0.306635 3.58792 0
M  V30 12387 C 1173.12 1.01556 4.38185 0
M  V30 12388 C 1174.44 -1.06858 4.2693 0
M  V30 12389 H 1171.56 -0.0370232 0.736069 0
M  V30 12390 H 1174.2 0.597215 1.8037 0
M  V30 12391 H 1172.35 -0.905563 3.77799 0
M  V30 12392 H 1174.03 1.64981 4.30789 0
M  V30 12393 H 1172.27 1.61608 4.02574 0
M  V30 12394 H 1172.94 0.828959 5.4574 0
M  V30 12395 H 1175.42 -0.561086 4.123 0
M  V30 12396 H 1174.29 -1.1778 5.36115 0
M  V30 12397 H 1174.55 -2.10111 3.8898 0
M  V30 12398 N 1173.61 -1.56489 0.186789 0
M  V30 12399 C 1174.84 -2.01722 -0.459993 0
M  V30 12400 C 1175.25 -1.06697 -1.5576 0
M  V30 12401 O 1174.61 -0.0704212 -1.82364 0
M  V30 12402 C 1174.66 -3.46693 -1.02401 0
M  V30 12403 O 1174.38 -4.3809 0.0297916 0
M  V30 12404 C 1175.88 -4.07403 -1.7475 0
M  V30 12405 H 1173.1 -0.660845 -0.116298 0
M  V30 12406 H 1175.65 -2.02389 0.293059 0
M  V30 12407 H 1173.8 -3.46752 -1.72749 0
M  V30 12408 H 1174.22 -5.23057 -0.388821 0
M  V30 12409 H 1175.69 -5.10718 -2.09455 0
M  V30 12410 H 1176.17 -3.50383 -2.64818 0
M  V30 12411 H 1176.77 -4.11093 -1.09007 0
M  V30 12412 N 1175.09 0.086862 -1.5736 0
M  V30 12413 C 1176.32 0.801004 -1.9044 0
M  V30 12414 C 1176.73 1.72396 -0.779513 0
M  V30 12415 O 1176.07 1.81894 0.256972 0
M  V30 12416 C 1176.13 1.66055 -3.18851 0
M  V30 12417 C 1175.8 0.908561 -4.47877 0
M  V30 12418 C 1176.79 0.234621 -5.1937 0
M  V30 12419 C 1174.48 0.8802 -4.94528 0
M  V30 12420 C 1176.47 -0.45762 -6.35755 0
M  V30 12421 C 1174.16 0.184179 -6.10822 0
M  V30 12422 C 1175.16 -0.483545 -6.81286 0
M  V30 12423 O 1174.85 -1.16839 -7.95364 0
M  V30 12424 H 1174.58 0.233794 -0.634284 0
M  V30 12425 H 1177.13 0.0660113 -2.05294 0
M  V30 12426 H 1175.36 2.43798 -3.00165 0
M  V30 12427 H 1177.05 2.252 -3.37698 0
M  V30 12428 H 1177.82 0.247938 -4.84366 0
M  V30 12429 H 1173.7 1.38938 -4.39565 0
M  V30 12430 H 1177.24 -0.979369 -6.90691 0
M  V30 12431 H 1173.14 0.168737 -6.45279 0
M  V30 12432 H 1173.9 -1.07612 -8.11395 0
M  V30 12433 N 1176.57 1.53483 0.357892 0
M  V30 12434 C 1177.79 1.74264 1.12458 0
M  V30 12435 C 1178.22 0.473944 1.82031 0
M  V30 12436 O 1177.58 -0.57253 1.72023 0
M  V30 12437 C 1177.62 2.91356 2.12471 0
M  V30 12438 O 1176.73 2.60502 3.19707 0
M  V30 12439 H 1176.07 0.578499 0.325937 0
M  V30 12440 H 1178.6 2.00395 0.412666 0
M  V30 12441 H 1178.61 3.1774 2.5594 0
M  V30 12442 H 1177.28 3.83378 1.61226 0
M  V30 12443 H 1175.86 2.44961 2.81156 0
M  V30 12444 N 1178.05 -0.61812 1.44973 0
M  V30 12445 C 1179.01 -1.71135 1.52465 0
M  V30 12446 C 1180.01 -1.5561 0.405246 0
M  V30 12447 O 1181.2 -1.60869 0.668351 0
M  V30 12448 C 1178.33 -3.10324 1.41108 0
M  V30 12449 H 1179.52 -1.65862 2.49859 0
M  V30 12450 H 1177.08 -0.832932 1.32257 0
M  V30 12451 H 1177.81 -3.21183 0.448574 0
M  V30 12452 H 1177.6 -3.23001 2.2229 0
M  V30 12453 H 1179.09 -3.89976 1.49361 0
M  V30 12454 N 1179.52 -1.32087 -0.859693 0
M  V30 12455 C 1180.45 -1.23204 -1.98351 0
M  V30 12456 C 1181.43 -0.116974 -1.69697 0
M  V30 12457 O 1182.62 -0.303301 -1.91817 0
M  V30 12458 C 1179.75 -0.949171 -3.34078 0
M  V30 12459 C 1178.7 -2.02493 -3.77069 0
M  V30 12460 C 1178.03 -1.59455 -5.1037 0
M  V30 12461 C 1179.33 -3.43934 -3.93074 0
M  V30 12462 H 1181.02 -2.17227 -2.0604 0
M  V30 12463 H 1178.57 -1.04577 -0.989931 0
M  V30 12464 H 1180.52 -0.873594 -4.12245 0
M  V30 12465 H 1179.25 0.0267095 -3.26589 0
M  V30 12466 H 1177.91 -2.09057 -3.01149 0
M  V30 12467 H 1177.55 -0.606256 -4.99333 0
M  V30 12468 H 1177.25 -2.31429 -5.40106 0
M  V30 12469 H 1178.78 -1.53325 -5.91036 0
M  V30 12470 H 1180.19 -3.39986 -4.61608 0
M  V30 12471 H 1178.59 -4.14214 -4.3422 0
M  V30 12472 H 1179.66 -3.83965 -2.9614 0
M  V30 12473 N 1181 1.07532 -1.15215 0
M  V30 12474 C 1181.95 2.12909 -0.815714 0
M  V30 12475 C 1182.94 1.59662 0.1992 0
M  V30 12476 O 1184.13 1.77 0.000215597 0
M  V30 12477 C 1181.26 3.41945 -0.304717 0
M  V30 12478 C 1180.34 4.0205 -1.34968 0
M  V30 12479 N 1180.73 4.36439 -2.55646 0
M  V30 12480 C 1179.03 4.29498 -1.20199 0
M  V30 12481 C 1179.73 4.84044 -3.22609 0
M  V30 12482 N 1178.71 4.82702 -2.5 0
M  V30 12483 H 1182.51 2.37327 -1.73358 0
M  V30 12484 H 1180.02 1.24952 -1.03734 0
M  V30 12485 H 1182.02 4.16875 -0.0453503 0
M  V30 12486 H 1180.68 3.18971 0.607235 0
M  V30 12487 H 1181.69 4.27184 -2.92804 0
M  V30 12488 H 1178.37 4.16032 -0.349781 0
M  V30 12489 H 1179.76 5.19959 -4.2555 0
M  V30 12490 N 1182.48 0.948665 1.2585 0
M  V30 12491 C 1183.43 0.462904 2.2611 0
M  V30 12492 C 1184.4 -0.481433 1.5897 0
M  V30 12493 O 1185.58 -0.395997 1.86645 0
M  V30 12494 C 1182.72 -0.258808 3.44128 0
M  V30 12495 C 1181.84 0.722072 4.25923 0
M  V30 12496 C 1180.97 -0.0215958 5.31196 0
M  V30 12497 C 1180.01 0.950612 6.04673 0
M  V30 12498 N 1179.15 0.238209 7.01696 0
M  V30 12499 H 1183.99 1.32279 2.67032 0
M  V30 12500 H 1181.52 0.663485 1.31287 0
M  V30 12501 H 1183.48 -0.693759 4.11391 0
M  V30 12502 H 1182.11 -1.08278 3.04098 0
M  V30 12503 H 1181.16 1.27552 3.58378 0
M  V30 12504 H 1182.48 1.46421 4.76825 0
M  V30 12505 H 1181.63 -0.51547 6.04506 0
M  V30 12506 H 1180.37 -0.796563 4.81151 0
M  V30 12507 H 1179.37 1.45554 5.30183 0
M  V30 12508 H 1180.6 1.72571 6.56808 0
M  V30 12509 H 1178.54 -0.518129 6.53951 0
M  V30 12510 H 1178.46 0.919542 7.50387 0
M  V30 12511 H 1179.73 -0.234325 7.79148 0
M  V30 12512 N 1183.96 -1.40369 0.716545 0
M  V30 12513 C 1185.37 -1.54757 0.390202 0
M  V30 12514 C 1185.57 -1.68767 -1.10091 0
M  V30 12515 O 1184.63 -1.67779 -1.88697 0
M  V30 12516 C 1185.94 -2.77546 1.15709 0
M  V30 12517 C 1187.49 -2.91364 1.14349 0
M  V30 12518 C 1187.97 -4.17068 1.89256 0
M  V30 12519 N 1189.46 -4.2407 1.8633 0
M  V30 12520 C 1190.19 -5.20243 2.41112 0
M  V30 12521 N 1189.69 -6.22318 3.04454 0
M  V30 12522 N 1191.48 -5.12328 2.31249 0
M  V30 12523 H 1183.63 -1.29521 1.68339 0
M  V30 12524 H 1185.9 -0.626382 0.711582 0
M  V30 12525 H 1185.6 -2.73474 2.21144 0
M  V30 12526 H 1185.48 -3.69682 0.749347 0
M  V30 12527 H 1187.86 -2.94939 0.0973383 0
M  V30 12528 H 1187.94 -2.00344 1.59047 0
M  V30 12529 H 1187.59 -4.14255 2.93863 0
M  V30 12530 H 1187.52 -5.07099 1.41978 0
M  V30 12531 H 1190.01 -3.50944 1.40168 0
M  V30 12532 H 1190.32 -6.92129 3.43769 0
M  V30 12533 H 1188.67 -6.22759 3.08538 0
M  V30 12534 H 1191.86 -4.31514 1.8142 0
M  V30 12535 H 1192.03 -5.87107 2.74243 0
M  V30 12536 N 1185.44 -0.462799 -1.50652 0
M  V30 12537 C 1186.37 0.371837 -2.26164 0
M  V30 12538 C 1187.38 0.96432 -1.31167 0
M  V30 12539 O 1188.57 0.854134 -1.56738 0
M  V30 12540 C 1185.67 1.53469 -3.0216 0
M  V30 12541 C 1184.84 1.0565 -4.24449 0
M  V30 12542 C 1183.9 2.09243 -4.82808 0
M  V30 12543 O 1182.93 1.67641 -5.43953 0
M  V30 12544 N 1184.13 3.41976 -4.69076 0
M  V30 12545 H 1186.9 -0.275476 -2.98431 0
M  V30 12546 H 1184.46 -0.293109 -1.59225 0
M  V30 12547 H 1186.45 2.22446 -3.38083 0
M  V30 12548 H 1185.02 2.08685 -2.32743 0
M  V30 12549 H 1184.24 0.192895 -3.93728 0
M  V30 12550 H 1185.53 0.714796 -5.03754 0
M  V30 12551 H 1184.92 3.78491 -4.20429 0
M  V30 12552 H 1183.48 4.06775 -5.09291 0
M  V30 12553 N 1186.91 1.56388 -0.195085 0
M  V30 12554 C 1188.16 1.97872 0.444344 0
M  V30 12555 C 1188.49 1.0819 1.61271 0
M  V30 12556 O 1187.77 0.133904 1.94039 0
M  V30 12557 C 1188.05 3.48556 0.90449 0
M  V30 12558 C 1187.9 4.49015 -0.265693 0
M  V30 12559 C 1189.22 4.02938 1.76999 0
M  V30 12560 H 1186.34 0.719413 0.160041 0
M  V30 12561 H 1188.98 1.87835 -0.286005 0
M  V30 12562 H 1187.13 3.5724 1.52682 0
M  V30 12563 H 1188.81 4.52368 -0.903363 0
M  V30 12564 H 1187.05 4.23987 -0.917462 0
M  V30 12565 H 1187.72 5.51912 0.0987834 0
M  V30 12566 H 1190.2 3.97033 1.24514 0
M  V30 12567 H 1189.07 5.08741 2.06092 0
M  V30 12568 H 1189.33 3.48197 2.72418 0
M  V30 12569 N 1188.39 -0.0785156 1.57404 0
M  V30 12570 C 1189.64 -0.777399 1.8655 0
M  V30 12571 C 1189.96 -1.78451 0.786142 0
M  V30 12572 O 1189.23 -1.95016 -0.185911 0
M  V30 12573 H 1187.81 -0.290097 0.688369 0
M  V30 12574 H 1190.47 -0.0562017 1.94819 0
M  V30 12575 H 1189.57 -1.29776 2.83839 0
M  V30 12576 N 1189.87 -1.5367 -0.349747 0
M  V30 12577 C 1191.15 -1.61238 -1.10732 0
M  V30 12578 C 1191.53 -0.429756 -2.06679 0
M  V30 12579 O 1190.88 0.578564 -2.21054 0
M  V30 12580 C 1191.09 -2.97022 -1.83245 0
M  V30 12581 C 1192.43 -3.52158 -2.37212 0
M  V30 12582 O 1193.46 -2.99156 -1.9335 0
M  V30 12583 O 1192.32 -4.44853 -3.1744 0
M  V30 12584 H 1189.41 -0.65191 -0.508864 0
M  V30 12585 H 1191.96 -1.66015 -0.351738 0
M  V30 12586 H 1190.73 -3.74535 -1.13311 0
M  V30 12587 H 1190.35 -2.95808 -2.65675 0
M  V30 12588 N 1191.35 0.610423 -1.45298 0
M  V30 12589 C 1192.58 1.39419 -1.52466 0
M  V30 12590 C 1192.99 1.88563 -0.1551 0
M  V30 12591 O 1192.33 1.62692 0.853061 0
M  V30 12592 C 1192.39 2.63515 -2.44541 0
M  V30 12593 C 1192.06 2.36028 -3.91331 0
M  V30 12594 C 1193.05 1.96567 -4.81308 0
M  V30 12595 C 1190.74 2.49028 -4.36223 0
M  V30 12596 C 1192.73 1.70461 -6.14184 0
M  V30 12597 C 1190.42 2.22536 -5.6914 0
M  V30 12598 C 1191.42 1.83314 -6.5794 0
M  V30 12599 O 1191.1 1.57131 -7.88394 0
M  V30 12600 H 1190.84 0.433278 -0.518889 0
M  V30 12601 H 1193.39 0.751803 -1.91147 0
M  V30 12602 H 1191.62 3.30463 -2.00826 0
M  V30 12603 H 1193.31 3.25554 -2.42424 0
M  V30 12604 H 1194.08 1.86062 -4.4789 0
M  V30 12605 H 1189.95 2.78524 -3.67349 0
M  V30 12606 H 1193.5 1.39773 -6.83454 0
M  V30 12607 H 1189.4 2.32657 -6.02114 0
M  V30 12608 H 1190.16 1.71207 -8.00394 0
M  V30 12609 N 1192.83 1.32541 0.852676 0
M  V30 12610 C 1193.74 1.23646 1.99371 0
M  V30 12611 C 1194.75 0.149673 1.73355 0
M  V30 12612 O 1195.93 0.370716 1.97959 0
M  V30 12613 C 1192.99 0.961873 3.3309 0
M  V30 12614 C 1192.05 2.1373 3.72315 0
M  V30 12615 C 1191.29 1.87572 4.99652 0
M  V30 12616 O 1191.51 0.819247 5.64486 0
M  V30 12617 O 1190.44 2.73732 5.36054 0
M  V30 12618 H 1194.27 2.19573 2.09813 0
M  V30 12619 H 1191.86 1.12451 0.983627 0
M  V30 12620 H 1193.74 0.825316 4.13239 0
M  V30 12621 H 1192.41 0.0327745 3.23683 0
M  V30 12622 H 1191.32 2.32933 2.92733 0
M  V30 12623 H 1192.65 3.04925 3.86369 0
M  V30 12624 N 1194.3 -1.0692 1.15784 0
M  V30 12625 C 1195.25 -2.16335 0.854506 0
M  V30 12626 C 1196.25 -1.68505 -0.173868 0
M  V30 12627 O 1197.45 -1.79977 -0.0284722 0
M  V30 12628 H 1193.83 -0.706103 0.258694 0
M  V30 12629 H 1195.8 -2.39135 1.78486 0
M  V30 12630 C 1194.55 -3.45778 0.365042 0
M  V30 12631 H 1193.87 -3.82971 1.14776 0
M  V30 12632 H 1195.31 -4.23567 0.191504 0
M  V30 12633 C 1193.77 -3.24258 -0.914253 0
M  V30 12634 O 1194.3 -3.49236 -1.98487 0
M  V30 12635 N 1192.51 -2.77722 -0.855501 0
M  V30 12636 H 1192.05 -2.57595 0.0159233 0
M  V30 12637 H 1192.01 -2.63702 -1.71198 0
M  V30 12638 N 1195.78 -0.955326 -1.25345 0
M  V30 12639 C 1197.03 -0.611388 -1.93365 0
M  V30 12640 C 1197.36 0.84953 -1.74633 0
M  V30 12641 O 1196.64 1.60962 -1.09185 0
M  V30 12642 C 1196.92 -0.971732 -3.46741 0
M  V30 12643 C 1196.77 -2.48843 -3.74696 0
M  V30 12644 C 1198.09 -0.497295 -4.37281 0
M  V30 12645 H 1195.21 -0.223591 -0.702265 0
M  V30 12646 H 1197.85 -1.1921 -1.47949 0
M  V30 12647 H 1196 -0.477568 -3.85554 0
M  V30 12648 H 1197.67 -3.05641 -3.45516 0
M  V30 12649 H 1195.92 -2.92582 -3.20278 0
M  V30 12650 H 1196.59 -2.69107 -4.8196 0
M  V30 12651 H 1199.06 -0.921196 -4.05775 0
M  V30 12652 H 1197.94 -0.778113 -5.43357 0
M  V30 12653 H 1198.2 0.602743 -4.37972 0
M  V30 12654 N 1197.26 1.39987 -0.723979 0
M  V30 12655 C 1198.51 1.99964 -0.26406 0
M  V30 12656 C 1198.82 1.58084 1.1519 0
M  V30 12657 O 1200.03 2.10819 1.71077 0
M  V30 12658 C 1198.49 3.57427 -0.421174 0
M  V30 12659 C 1198.09 4.08276 -1.84432 0
M  V30 12660 C 1199.84 4.24494 -0.0224734 0
M  V30 12661 C 1197.74 5.58272 -1.95157 0
M  V30 12662 H 1196.67 0.747995 -0.0949728 0
M  V30 12663 H 1199.33 1.60122 -0.896276 0
M  V30 12664 H 1197.71 3.95011 0.279762 0
M  V30 12665 H 1198.88 3.82051 -2.57631 0
M  V30 12666 H 1197.2 3.53834 -2.19523 0
M  V30 12667 H 1199.79 5.34637 -0.0817744 0
M  V30 12668 H 1200.14 4.03593 1.02069 0
M  V30 12669 H 1200.67 3.92046 -0.67416 0
M  V30 12670 H 1197.41 5.84038 -2.97623 0
M  V30 12671 H 1196.93 5.86335 -1.2638 0
M  V30 12672 H 1198.61 6.23509 -1.72759 0
M  V30 12673 N 1198.74 0.470782 1.50404 0
M  V30 12674 C 1200.15 0.0155901 1.86693 0
M  V30 12675 C 1200.5 -1.38908 1.38561 0
M  V30 12676 O 1199.63 -2.02971 0.750454 0
M  V30 12677 C 1200.22 0.0215152 3.38793 0
M  V30 12678 C 1198.78 -0.378206 3.74495 0
M  V30 12679 C 1197.93 0.407126 2.74295 0
M  V30 12680 H 1200.88 0.68507 1.43152 0
M  V30 12681 H 1200.9 -0.780717 3.72404 0
M  V30 12682 H 1200.41 1.04397 3.73795 0
M  V30 12683 H 1198.51 -1.40503 3.45094 0
M  V30 12684 H 1198.63 -0.0797643 4.79034 0
M  V30 12685 H 1196.99 -0.139123 2.5432 0
M  V30 12686 H 1197.77 1.42909 3.12141 0
M  V30 12687 N 1200.22 -1.56282 0.203376 0
M  V30 12688 C 1201.49 -1.89587 -0.481256 0
M  V30 12689 C 1201.87 -1.11812 -1.79057 0
M  V30 12690 O 1201.22 -0.221759 -2.27421 0
M  V30 12691 C 1201.43 -3.42071 -0.691965 0
M  V30 12692 C 1202.78 -4.12471 -1.00761 0
M  V30 12693 O 1203.8 -3.47568 -0.779396 0
M  V30 12694 O 1202.66 -5.27194 -1.43974 0
M  V30 12695 H 1199.76 -0.787682 -0.251963 0
M  V30 12696 H 1202.3 -1.67934 0.244207 0
M  V30 12697 H 1201.08 -3.9061 0.232322 0
M  V30 12698 H 1200.7 -3.69444 -1.46958 0
M  V30 12699 N 1201.7 0.070167 -1.57444 0
M  V30 12700 C 1202.94 0.769014 -1.8733 0
M  V30 12701 C 1203.27 1.77496 -0.79533 0
M  V30 12702 O 1202.53 1.94586 0.208495 0
M  V30 12703 C 1202.82 1.5111 -3.23883 0
M  V30 12704 C 1202.49 0.644988 -4.46263 0
M  V30 12705 C 1201.15 0.406307 -4.79482 0
M  V30 12706 C 1203.5 0.0444938 -5.21181 0
M  V30 12707 C 1200.83 -0.442322 -5.8503 0
M  V30 12708 C 1203.18 -0.791599 -6.27628 0
M  V30 12709 C 1201.85 -1.04014 -6.59346 0
M  V30 12710 H 1201.12 0.281402 -0.685488 0
M  V30 12711 H 1203.77 0.029752 -1.91477 0
M  V30 12712 H 1202.07 2.32261 -3.15535 0
M  V30 12713 H 1203.77 2.05665 -3.44242 0
M  V30 12714 H 1200.36 0.841148 -4.20265 0
M  V30 12715 H 1204.54 0.216005 -4.9583 0
M  V30 12716 H 1199.8 -0.643607 -6.08003 0
M  V30 12717 H 1203.97 -1.26363 -6.8484 0
M  V30 12718 H 1201.6 -1.69949 -7.4096 0
M  V30 12719 N 1203.17 1.53854 0.341593 0
M  V30 12720 C 1204.58 1.62623 0.917093 0
M  V30 12721 C 1204.94 0.508781 1.89488 0
M  V30 12722 O 1204.06 -0.361171 2.13365 0
M  V30 12723 C 1204.66 2.94775 1.67012 0
M  V30 12724 C 1203.21 3.058 2.19461 0
M  V30 12725 C 1202.36 2.58082 1.01433 0
M  V30 12726 H 1205.31 1.58248 0.119674 0
M  V30 12727 H 1205.33 2.83924 2.53313 0
M  V30 12728 H 1204.85 3.76085 0.958221 0
M  V30 12729 H 1202.95 2.29128 2.93821 0
M  V30 12730 H 1203.06 4.11302 2.45698 0
M  V30 12731 H 1201.42 2.13537 1.38831 0
M  V30 12732 H 1202.21 3.41833 0.317033 0
M  V30 12733 N 1204.65 -0.602709 1.4562 0
M  V30 12734 C 1205.56 -1.74132 1.5721 0
M  V30 12735 C 1206.58 -1.67909 0.456347 0
M  V30 12736 O 1207.75 -1.88178 0.717714 0
M  V30 12737 C 1204.82 -3.10604 1.54032 0
M  V30 12738 C 1203.88 -3.28244 2.76685 0
M  V30 12739 C 1203.11 -4.58205 2.73649 0
M  V30 12740 O 1203.34 -5.40836 1.81254 0
M  V30 12741 O 1202.27 -4.78663 3.64919 0
M  V30 12742 H 1206.1 -1.67304 2.53462 0
M  V30 12743 H 1203.68 -0.767381 1.28186 0
M  V30 12744 H 1205.56 -3.91904 1.54885 0
M  V30 12745 H 1204.24 -3.17913 0.60934 0
M  V30 12746 H 1203.14 -2.46514 2.81393 0
M  V30 12747 H 1204.48 -3.25814 3.68925 0
M  V30 12748 N 1206.13 -1.32992 -0.845635 0
M  V30 12749 C 1207.41 -1.14671 -1.58461 0
M  V30 12750 C 1207.79 0.289498 -2.09106 0
M  V30 12751 O 1207.13 1.28751 -1.88773 0
M  V30 12752 C 1207.34 -2.18206 -2.72373 0
M  V30 12753 C 1208.69 -2.5201 -3.41726 0
M  V30 12754 O 1209.72 -2.16821 -2.82608 0
M  V30 12755 O 1208.58 -3.12368 -4.48429 0
M  V30 12756 H 1205.67 -0.443088 -0.698285 0
M  V30 12757 H 1208.22 -1.44552 -0.888978 0
M  V30 12758 H 1206.99 -3.14707 -2.32541 0
M  V30 12759 H 1206.61 -1.89372 -3.49605 0
M  V30 12760 N 1207.61 1.06304 -1.1635 0
M  V30 12761 C 1208.52 2.17296 -0.884289 0
M  V30 12762 C 1209.53 1.73408 0.143414 0
M  V30 12763 O 1210.71 2.01373 -0.0331987 0
M  V30 12764 C 1207.77 3.44509 -0.389163 0
M  V30 12765 C 1206.84 4.02906 -1.48208 0
M  V30 12766 C 1206.07 5.24047 -1.01048 0
M  V30 12767 O 1206.29 5.70229 0.139821 0
M  V30 12768 O 1205.23 5.74394 -1.79876 0
M  V30 12769 H 1209.05 2.4369 -1.81243 0
M  V30 12770 H 1206.64 1.15841 -0.943459 0
M  V30 12771 H 1208.52 4.21229 -0.120018 0
M  V30 12772 H 1207.19 3.19642 0.510968 0
M  V30 12773 H 1206.1 3.27677 -1.80496 0
M  V30 12774 H 1207.43 4.32068 -2.35751 0
M  V30 12775 N 1209.09 0.96196 1.24836 0
M  V30 12776 C 1210.33 0.619489 1.92371 0
M  V30 12777 C 1210.65 -0.847233 1.75633 0
M  V30 12778 O 1209.92 -1.60419 1.12439 0
M  V30 12779 H 1208.5 0.226129 0.711951 0
M  V30 12780 H 1211.17 1.22179 1.5185 0
M  V30 12781 H 1210.26 0.855128 3.00157 0
M  V30 12782 N 1210.56 -1.39601 0.731392 0
M  V30 12783 C 1211.81 -1.99821 0.274661 0
M  V30 12784 C 1212.13 -1.58693 -1.1435 0
M  V30 12785 O 1213.33 -2.11724 -1.69957 0
M  V30 12786 C 1211.79 -3.57199 0.440124 0
M  V30 12787 C 1211.4 -4.07292 1.86594 0
M  V30 12788 C 1213.14 -4.24476 0.0449851 0
M  V30 12789 C 1211.05 -5.57229 1.98115 0
M  V30 12790 H 1209.98 -0.747481 0.0989383 0
M  V30 12791 H 1212.63 -1.59645 0.904755 0
M  V30 12792 H 1211.01 -3.95153 -0.25881 0
M  V30 12793 H 1212.18 -3.80679 2.59654 0
M  V30 12794 H 1210.5 -3.52665 2.21397 0
M  V30 12795 H 1213.1 -5.34587 0.110126 0
M  V30 12796 H 1213.44 -4.04129 -0.999269 0
M  V30 12797 H 1213.97 -3.91683 0.694942 0
M  V30 12798 H 1210.71 -5.82452 3.00716 0
M  V30 12799 H 1210.23 -5.85656 1.29487 0
M  V30 12800 H 1211.91 -6.22584 1.76063 0
M  V30 12801 N 1212.04 -0.478751 -1.50152 0
M  V30 12802 C 1212.99 0.330224 -2.25596 0
M  V30 12803 C 1213.98 0.954871 -1.29503 0
M  V30 12804 O 1215.17 0.866153 -1.54359 0
M  V30 12805 C 1212.3 1.40719 -3.13134 0
M  V30 12806 C 1211.38 0.789896 -4.16679 0
M  V30 12807 N 1211.77 -0.094345 -5.05712 0
M  V30 12808 C 1210.07 1.05299 -4.33391 0
M  V30 12809 C 1210.77 -0.445458 -5.79992 0
M  V30 12810 N 1209.75 0.181237 -5.43298 0
M  V30 12811 H 1213.55 -0.350824 -2.91799 0
M  V30 12812 H 1211.07 -0.293386 -1.59728 0
M  V30 12813 H 1213.06 1.99999 -3.65795 0
M  V30 12814 H 1211.72 2.09015 -2.48481 0
M  V30 12815 H 1212.73 -0.463695 -5.1582 0
M  V30 12816 H 1209.41 1.73036 -3.79954 0
M  V30 12817 H 1210.8 -1.16754 -6.61678 0
M  V30 12818 N 1213.52 1.56172 -0.211661 0
M  V30 12819 C 1214.75 2.02135 0.427222 0
M  V30 12820 C 1215.16 1.09084 1.54587 0
M  V30 12821 O 1214.5 0.090906 1.83475 0
M  V30 12822 C 1214.56 3.44459 1.029 0
M  V30 12823 C 1214.23 4.56976 0.0470243 0
M  V30 12824 C 1215.22 5.14466 -0.749724 0
M  V30 12825 C 1212.91 5.02253 -0.0688634 0
M  V30 12826 C 1214.9 6.15696 -1.64916 0
M  V30 12827 C 1212.59 6.03323 -0.971844 0
M  V30 12828 C 1213.59 6.5992 -1.76055 0
M  V30 12829 O 1213.28 7.59024 -2.64837 0
M  V30 12830 H 1213.01 0.667008 0.109894 0
M  V30 12831 H 1215.56 2.02851 -0.322595 0
M  V30 12832 H 1213.79 3.4078 1.82772 0
M  V30 12833 H 1215.48 3.74128 1.57425 0
M  V30 12834 H 1216.25 4.80342 -0.670588 0
M  V30 12835 H 1212.13 4.57886 0.534889 0
M  V30 12836 H 1215.67 6.59798 -2.26521 0
M  V30 12837 H 1211.57 6.36869 -1.05203 0
M  V30 12838 H 1212.34 7.76508 -2.58801 0
M  V30 12839 N 1215 -0.0618163 1.57479 0
M  V30 12840 C 1216.22 -0.775513 1.92355 0
M  V30 12841 C 1216.65 -1.69816 0.808949 0
M  V30 12842 O 1216.01 -1.79736 -0.23761 0
M  V30 12843 C 1216.05 -1.5367 3.26218 0
M  V30 12844 O 1215.16 -2.64802 3.16155 0
M  V30 12845 H 1214.5 -0.210909 0.629614 0
M  V30 12846 H 1217.03 -0.0270752 2.04582 0
M  V30 12847 H 1217.04 -1.91379 3.6033 0
M  V30 12848 H 1215.71 -0.859798 4.06916 0
M  V30 12849 H 1214.29 -2.29876 2.93618 0
M  V30 12850 N 1216.48 -1.54033 -0.333429 0
M  V30 12851 C 1217.39 -1.85737 -1.43314 0
M  V30 12852 C 1218.4 -0.748398 -1.57083 0
M  V30 12853 O 1219.58 -1.04171 -1.72367 0
M  V30 12854 C 1216.64 -2.06942 -2.78165 0
M  V30 12855 C 1215.7 -3.30774 -2.73655 0
M  V30 12856 C 1214.94 -3.50957 -4.02075 0
M  V30 12857 O 1215.16 -2.74774 -4.99855 0
M  V30 12858 O 1214.09 -4.44412 -4.05933 0
M  V30 12859 H 1217.92 -2.7923 -1.19434 0
M  V30 12860 H 1215.51 -1.39814 -0.526546 0
M  V30 12861 H 1217.39 -2.22276 -3.58011 0
M  V30 12862 H 1216.06 -1.16638 -3.01956 0
M  V30 12863 H 1214.97 -3.20835 -1.92395 0
M  V30 12864 H 1216.3 -4.21103 -2.54819 0
M  V30 12865 N 1217.95 0.594978 -1.45938 0
M  V30 12866 C 1218.88 1.71536 -1.58422 0
M  V30 12867 C 1219.87 1.64441 -0.435116 0
M  V30 12868 O 1221.05 1.82647 -0.659839 0
M  V30 12869 C 1218.18 3.10163 -1.56257 0
M  V30 12870 C 1217.13 3.3208 -2.70013 0
M  V30 12871 C 1216.46 4.71108 -2.52905 0
M  V30 12872 C 1217.76 3.21105 -4.11933 0
M  V30 12873 H 1219.45 1.61344 -2.52207 0
M  V30 12874 H 1217 0.774791 -1.2138 0
M  V30 12875 H 1218.95 3.88352 -1.63587 0
M  V30 12876 H 1217.68 3.21225 -0.590093 0
M  V30 12877 H 1216.34 2.56286 -2.62132 0
M  V30 12878 H 1215.98 4.7892 -1.53768 0
M  V30 12879 H 1215.68 4.86727 -3.29197 0
M  V30 12880 H 1217.21 5.51482 -2.62107 0
M  V30 12881 H 1218.62 3.89153 -4.2099 0
M  V30 12882 H 1217.02 3.4825 -4.88715 0
M  V30 12883 H 1218.09 2.18359 -4.32952 0
M  V30 12884 N 1219.43 1.33438 0.838571 0
M  V30 12885 C 1220.68 1.24259 1.58879 0
M  V30 12886 C 1220.99 -0.189957 1.94675 0
M  V30 12887 O 1222.2 -0.40376 2.68481 0
M  V30 12888 C 1220.66 2.1773 2.86569 0
M  V30 12889 C 1220.26 3.66156 2.58135 0
M  V30 12890 C 1222.01 2.17424 3.64591 0
M  V30 12891 C 1219.92 4.5154 3.81923 0
M  V30 12892 H 1218.85 0.461534 0.59624 0
M  V30 12893 H 1221.5 1.58504 0.924588 0
M  V30 12894 H 1219.88 1.76418 3.54532 0
M  V30 12895 H 1221.05 4.1591 1.98382 0
M  V30 12896 H 1219.37 3.68754 1.93416 0
M  V30 12897 H 1221.96 2.78446 4.56478 0
M  V30 12898 H 1222.31 1.16939 3.99539 0
M  V30 12899 H 1222.84 2.571 3.03553 0
M  V30 12900 H 1219.58 5.52902 3.52107 0
M  V30 12901 H 1219.1 4.06529 4.41015 0
M  V30 12902 H 1220.78 4.65359 4.495 0
M  V30 12903 N 1220.91 -1.05686 1.16912 0
M  V30 12904 C 1221.84 -2.1329 0.839044 0
M  V30 12905 C 1222.86 -1.62047 -0.156392 0
M  V30 12906 O 1224.04 -1.78366 0.0692192 0
M  V30 12907 C 1221.14 -3.38122 0.229558 0
M  V30 12908 C 1220.32 -4.18659 1.26662 0
M  V30 12909 C 1219.38 -5.21842 0.675811 0
M  V30 12910 O 1218.4 -5.53049 1.3463 0
M  V30 12911 N 1219.6 -5.78034 -0.534532 0
M  V30 12912 H 1222.37 -2.42203 1.76515 0
M  V30 12913 H 1219.93 -1.2174 1.06729 0
M  V30 12914 H 1221.92 -4.04305 -0.178868 0
M  V30 12915 H 1220.49 -3.06783 -0.60023 0
M  V30 12916 H 1219.71 -3.4804 1.85099 0
M  V30 12917 H 1221 -4.6927 1.9663 0
M  V30 12918 H 1220.4 -5.54955 -1.09731 0
M  V30 12919 H 1218.96 -6.45763 -0.885087 0
M  V30 12920 N 1222.39 -0.968567 -1.24324 0
M  V30 12921 C 1223.64 -0.630928 -1.9242 0
M  V30 12922 C 1223.96 0.834001 -1.75712 0
M  V30 12923 O 1223.22 1.61558 -1.10442 0
M  V30 12924 C 1223.52 -0.952762 -3.44467 0
M  V30 12925 C 1223.18 -2.40597 -3.81345 0
M  V30 12926 C 1221.85 -2.80316 -3.91122 0
M  V30 12927 C 1224.2 -3.34906 -3.99359 0
M  V30 12928 C 1221.53 -4.13383 -4.16331 0
M  V30 12929 C 1223.88 -4.67602 -4.26065 0
M  V30 12930 C 1222.54 -5.07097 -4.34061 0
M  V30 12931 H 1221.81 -0.230873 -0.704116 0
M  V30 12932 H 1224.46 -1.22022 -1.47591 0
M  V30 12933 H 1222.76 -0.281244 -3.90789 0
M  V30 12934 H 1224.46 -0.6699 -3.95365 0
M  V30 12935 H 1221.05 -2.088 -3.743 0
M  V30 12936 H 1225.23 -3.05404 -3.91206 0
M  V30 12937 H 1220.49 -4.43606 -4.20742 0
M  V30 12938 H 1224.66 -5.40646 -4.38948 0
M  V30 12939 H 1222.29 -6.10229 -4.53349 0
M  V30 12940 N 1223.87 1.39211 -0.738786 0
M  V30 12941 C 1225.11 2.0004 -0.28782 0
M  V30 12942 C 1225.44 1.58921 1.13 0
M  V30 12943 O 1224.71 0.839193 1.77015 0
M  V30 12944 H 1223.29 0.739805 -0.103425 0
M  V30 12945 H 1225.95 1.70202 -0.949587 0
M  V30 12946 H 1225.04 3.10251 -0.339208 0
M  V30 12947 N 1225.34 0.486708 1.49896 0
M  V30 12948 C 1226.59 -0.0629451 2.02702 0
M  V30 12949 C 1226.92 -1.37956 1.36681 0
M  V30 12950 O 1226.2 -1.88025 0.497678 0
M  V30 12951 C 1226.48 -0.230461 3.59362 0
M  V30 12952 C 1226.33 1.10828 4.35933 0
M  V30 12953 C 1227.65 -0.977785 4.29101 0
M  V30 12954 H 1224.77 -0.0214017 0.736689 0
M  V30 12955 H 1227.41 0.635339 1.79063 0
M  V30 12956 H 1225.56 -0.825222 3.79634 0
M  V30 12957 H 1227.24 1.74082 4.27192 0
M  V30 12958 H 1225.48 1.7011 3.99055 0
M  V30 12959 H 1226.15 0.944532 5.43859 0
M  V30 12960 H 1228.63 -0.473505 4.13397 0
M  V30 12961 H 1227.5 -1.06382 5.38492 0
M  V30 12962 H 1227.76 -2.01813 3.9335 0
M  V30 12963 N 1226.82 -1.56058 0.219941 0
M  V30 12964 C 1228.07 -1.97869 -0.411383 0
M  V30 12965 C 1228.39 -1.10878 -1.60409 0
M  V30 12966 O 1227.66 -0.185454 -1.9502 0
M  V30 12967 H 1226.24 -0.730747 -0.154979 0
M  V30 12968 H 1228.9 -1.92379 0.312461 0
M  V30 12969 H 1228 -3.0323 -0.738798 0
M  V30 12970 N 1228.3 0.053464 -1.57509 0
M  V30 12971 C 1229.21 1.07902 -2.08313 0
M  V30 12972 C 1230.23 1.41223 -1.01647 0
M  V30 12973 O 1231.4 1.51032 -1.33233 0
M  V30 12974 C 1228.47 2.36813 -2.5322 0
M  V30 12975 C 1227.53 2.10297 -3.74264 0
M  V30 12976 C 1226.76 3.33062 -4.1702 0
M  V30 12977 O 1226.99 4.42857 -3.59491 0
M  V30 12978 O 1225.92 3.20195 -5.09665 0
M  V30 12979 H 1229.75 0.677368 -2.9605 0
M  V30 12980 H 1227.33 0.268838 -1.46961 0
M  V30 12981 H 1229.21 3.12645 -2.82544 0
M  V30 12982 H 1227.89 2.76323 -1.68605 0
M  V30 12983 H 1226.79 1.32111 -3.49996 0
M  V30 12984 H 1228.13 1.75658 -4.59788 0
M  V30 12985 N 1229.78 1.54207 0.325255 0
M  V30 12986 C 1231.2 1.44879 0.669492 0
M  V30 12987 C 1231.4 0.620298 1.91715 0
M  V30 12988 O 1230.45 0.118435 2.52222 0
M  V30 12989 C 1231.76 2.88581 0.845077 0
M  V30 12990 C 1233.31 2.98472 0.942527 0
M  V30 12991 C 1233.79 4.4332 1.15029 0
M  V30 12992 N 1235.28 4.46925 1.21707 0
M  V30 12993 C 1236.01 5.56155 1.39568 0
M  V30 12994 N 1235.51 6.75357 1.54483 0
M  V30 12995 N 1237.3 5.43799 1.42263 0
M  V30 12996 H 1229.45 2.06556 -0.494819 0
M  V30 12997 H 1231.72 0.934474 -0.159568 0
M  V30 12998 H 1231.42 3.517 -0.000442996 0
M  V30 12999 H 1231.3 3.34596 1.74141 0
M  V30 13000 H 1233.68 2.35481 1.77855 0
M  V30 13001 H 1233.76 2.5579 0.0226995 0
M  V30 13002 H 1233.41 5.06896 0.319127 0
M  V30 13003 H 1233.34 4.8361 2.08397 0
M  V30 13004 H 1235.83 3.61036 1.11632 0
M  V30 13005 H 1236.14 7.54363 1.67799 0
M  V30 13006 H 1234.49 6.78268 1.51584 0
M  V30 13007 H 1237.68 4.49627 1.30205 0
M  V30 13008 H 1237.85 6.28982 1.5584 0
M  V30 13009 N 1231.26 -0.58723 1.46251 0
M  V30 13010 C 1232.67 -1.16933 1.45546 0
M  V30 13011 C 1233.02 -1.9524 0.193879 0
M  V30 13012 O 1232.14 -2.04652 -0.70332 0
M  V30 13013 C 1232.74 -2.12723 2.63693 0
M  V30 13014 C 1231.3 -2.66267 2.66043 0
M  V30 13015 C 1230.45 -1.42051 2.38153 0
M  V30 13016 H 1233.4 -0.375411 1.54196 0
M  V30 13017 H 1233.42 -2.96111 2.38953 0
M  V30 13018 H 1232.93 -1.55703 3.55497 0
M  V30 13019 H 1231.03 -3.2717 1.783 0
M  V30 13020 H 1231.14 -3.0931 3.65874 0
M  V30 13021 H 1229.51 -1.71707 1.88119 0
M  V30 13022 H 1230.29 -0.868675 3.32128 0
M  V30 13023 N 1232.74 -1.33881 -0.831482 0
M  V30 13024 C 1233.67 -1.20587 -1.94914 0
M  V30 13025 C 1234.68 -0.135026 -1.62239 0
M  V30 13026 O 1235.87 -0.386116 -1.74274 0
M  V30 13027 C 1232.97 -0.828712 -3.28612 0
M  V30 13028 C 1232.14 -1.99275 -3.89369 0
M  V30 13029 C 1231.2 -1.59537 -5.01432 0
M  V30 13030 O 1230.23 -2.31076 -5.20185 0
M  V30 13031 N 1231.43 -0.5046 -5.78303 0
M  V30 13032 H 1234.19 -2.16869 -2.06852 0
M  V30 13033 H 1231.76 -1.26723 -1.00761 0
M  V30 13034 H 1233.75 -0.544827 -4.01016 0
M  V30 13035 H 1232.32 0.0436534 -3.1257 0
M  V30 13036 H 1231.54 -2.44185 -3.09463 0
M  V30 13037 H 1232.83 -2.77145 -4.26694 0
M  V30 13038 H 1232.22 0.0903105 -5.65628 0
M  V30 13039 H 1230.78 -0.280415 -6.51197 0
M  V30 13040 N 1234.21 1.05064 -1.1747 0
M  V30 13041 C 1235.18 2.1101 -0.89485 0
M  V30 13042 C 1236.18 1.60384 0.11553 0
M  V30 13043 O 1237.37 1.73808 -0.116785 0
M  V30 13044 C 1234.5 3.39194 -0.340642 0
M  V30 13045 H 1235.69 2.37269 -1.83421 0
M  V30 13046 H 1233.24 1.21329 -0.985343 0
M  V30 13047 H 1233.98 3.18591 0.605808 0
M  V30 13048 H 1233.76 3.77251 -1.06885 0
M  V30 13049 H 1235.25 4.17281 -0.163204 0
M  V30 13050 N 1235.69 0.975146 1.23809 0
M  V30 13051 C 1236.62 0.469151 2.24347 0
M  V30 13052 C 1237.64 -0.426156 1.57123 0
M  V30 13053 O 1238.83 -0.231136 1.76997 0
M  V30 13054 C 1235.93 -0.34121 3.37178 0
M  V30 13055 C 1235.1 0.545968 4.33979 0
M  V30 13056 C 1234.16 -0.209648 5.25782 0
M  V30 13057 O 1233.18 0.398953 5.678 0
M  V30 13058 N 1234.39 -1.49713 5.60862 0
M  V30 13059 H 1237.15 1.33359 2.68394 0
M  V30 13060 H 1234.71 0.847814 1.37927 0
M  V30 13061 H 1236.7 -0.854924 3.95567 0
M  V30 13062 H 1235.27 -1.10663 2.92357 0
M  V30 13063 H 1234.49 1.24057 3.7417 0
M  V30 13064 H 1235.78 1.15077 4.95615 0
M  V30 13065 H 1235.18 -2.0132 5.28665 0
M  V30 13066 H 1233.74 -1.95639 6.21746 0
M  V30 13067 N 1237.17 -1.38817 0.746158 0
M  V30 13068 C 1238.08 -2.34316 0.115386 0
M  V30 13069 C 1239.1 -1.58892 -0.709179 0
M  V30 13070 O 1240.27 -1.91126 -0.635059 0
M  V30 13071 C 1237.34 -3.37977 -0.772821 0
M  V30 13072 C 1236.4 -4.2925 0.0652679 0
M  V30 13073 C 1235.63 -5.2796 -0.78064 0
M  V30 13074 O 1235.85 -5.33474 -2.01896 0
M  V30 13075 O 1234.79 -6.01556 -0.20338 0
M  V30 13076 H 1238.61 -2.89937 0.903887 0
M  V30 13077 H 1236.2 -1.40536 0.506958 0
M  V30 13078 H 1238.08 -4.01468 -1.28068 0
M  V30 13079 H 1236.76 -2.84723 -1.53994 0
M  V30 13080 H 1235.66 -3.68945 0.61891 0
M  V30 13081 H 1237 -4.85739 0.794871 0
M  V30 13082 N 1238.65 -0.49465 -1.49636 0
M  V30 13083 C 1239.6 0.300929 -2.30645 0
M  V30 13084 C 1240.59 0.968687 -1.38971 0
M  V30 13085 O 1241.8 0.897101 -1.56052 0
M  V30 13086 H 1238.17 0.1159 -0.743015 0
M  V30 13087 H 1240.14 -0.402387 -2.95674 0
M  V30 13088 C 1238.89 1.35638 -3.20153 0
M  V30 13089 H 1238.21 0.851946 -3.90617 0
M  V30 13090 H 1239.65 1.88515 -3.79787 0
M  V30 13091 C 1238.11 2.37112 -2.39331 0
M  V30 13092 O 1238.64 3.42867 -2.09298 0
M  V30 13093 N 1236.85 2.09421 -2.01473 0
M  V30 13094 H 1236.4 1.23441 -2.26097 0
M  V30 13095 H 1236.35 2.77545 -1.47703 0
M  V30 13096 N 1240.13 1.55939 -0.228214 0
M  V30 13097 C 1241.37 1.9877 0.402272 0
M  V30 13098 C 1241.7 1.11587 1.5894 0
M  V30 13099 O 1240.98 0.175032 1.93711 0
M  V30 13100 C 1241.26 3.50396 0.830353 0
M  V30 13101 C 1241.12 4.4835 -0.360876 0
M  V30 13102 C 1242.43 4.06602 1.68413 0
M  V30 13103 H 1239.55 0.722646 0.144746 0
M  V30 13104 H 1242.2 1.87186 -0.325784 0
M  V30 13105 H 1240.35 3.60398 1.4507 0
M  V30 13106 H 1242.02 4.5035 -0.999113 0
M  V30 13107 H 1240.26 4.21946 -1.00719 0
M  V30 13108 H 1240.93 5.51997 -0.0183074 0
M  V30 13109 H 1243.41 3.99585 1.16064 0
M  V30 13110 H 1242.28 5.12998 1.95254 0
M  V30 13111 H 1242.54 3.53897 2.64971 0
M  V30 13112 N 1241.6 -0.0451101 1.57535 0
M  V30 13113 C 1242.88 -0.773625 1.79651 0
M  V30 13114 C 1243.26 -1.94422 0.822391 0
M  V30 13115 O 1242.61 -2.28077 -0.138913 0
M  V30 13116 C 1242.82 -1.22168 3.26919 0
M  V30 13117 C 1244.17 -1.64419 3.91474 0
M  V30 13118 O 1245.19 -1.31668 3.30971 0
M  V30 13119 O 1244.05 -2.25148 4.97967 0
M  V30 13120 H 1241.14 -0.372786 0.738214 0
M  V30 13121 H 1243.69 -0.0231245 1.69684 0
M  V30 13122 H 1242.46 -0.385302 3.89398 0
M  V30 13123 H 1242.09 -2.03269 3.41713 0
M  V30 13124 N 1243.08 -1.54377 -0.317073 0
M  V30 13125 C 1244.31 -1.76608 -1.07206 0
M  V30 13126 C 1244.72 -0.517818 -1.81976 0
M  V30 13127 O 1244.06 0.521375 -1.76146 0
M  V30 13128 C 1244.13 -2.91 -2.11091 0
M  V30 13129 C 1243.79 -4.29673 -1.55661 0
M  V30 13130 C 1244.79 -5.1029 -0.994999 0
M  V30 13131 C 1242.47 -4.76234 -1.59708 0
M  V30 13132 C 1244.47 -6.35581 -0.48123 0
M  V30 13133 C 1242.15 -6.01491 -1.07944 0
M  V30 13134 C 1243.15 -6.80999 -0.522467 0
M  V30 13135 O 1242.84 -8.03899 -0.0126274 0
M  V30 13136 H 1242.57 -0.593061 -0.32443 0
M  V30 13137 H 1245.12 -2.02097 -0.366859 0
M  V30 13138 H 1243.35 -2.61097 -2.85246 0
M  V30 13139 H 1245.04 -3.00954 -2.72363 0
M  V30 13140 H 1245.81 -4.7547 -0.956752 0
M  V30 13141 H 1241.69 -4.14387 -2.02 0
M  V30 13142 H 1245.23 -6.97585 -0.0458374 0
M  V30 13143 H 1241.13 -6.35801 -1.11478 0
M  V30 13144 H 1241.9 -8.18401 -0.127442 0
M  V30 13145 N 1244.56 0.579466 -1.4656 0
M  V30 13146 C 1245.81 1.33954 -1.52264 0
M  V30 13147 C 1246.14 1.93409 -0.175089 0
M  V30 13148 O 1245.41 1.76654 0.81385 0
M  V30 13149 C 1245.7 2.46645 -2.6237 0
M  V30 13150 C 1245.55 1.92204 -4.06667 0
M  V30 13151 C 1246.87 3.48676 -2.68538 0
M  V30 13152 H 1243.99 0.485697 -0.554317 0
M  V30 13153 H 1246.63 0.650639 -1.78512 0
M  V30 13154 H 1244.78 3.0541 -2.40119 0
M  V30 13155 H 1246.45 1.37871 -4.40215 0
M  V30 13156 H 1244.7 1.23012 -4.15993 0
M  V30 13157 H 1245.37 2.73566 -4.79443 0
M  V30 13158 H 1247.84 2.99798 -2.88549 0
M  V30 13159 H 1246.72 4.24981 -3.47394 0
M  V30 13160 H 1246.98 4.06112 -1.74716 0
M  V30 13161 N 1246.04 1.3432 0.824371 0
M  V30 13162 C 1247.29 1.25938 1.57552 0
M  V30 13163 C 1247.6 -0.169298 1.94866 0
M  V30 13164 O 1248.81 -0.375262 2.68894 0
M  V30 13165 C 1247.26 2.20757 2.84244 0
M  V30 13166 C 1246.87 3.68873 2.54237 0
M  V30 13167 C 1248.61 2.21279 3.62265 0
M  V30 13168 C 1246.52 4.55566 3.77113 0
M  V30 13169 H 1245.45 0.467832 0.591311 0
M  V30 13170 H 1248.1 1.59476 0.907724 0
M  V30 13171 H 1246.48 1.80168 3.52641 0
M  V30 13172 H 1247.66 4.17991 1.93959 0
M  V30 13173 H 1245.97 3.70784 1.89494 0
M  V30 13174 H 1248.57 2.83272 4.53499 0
M  V30 13175 H 1248.91 1.2117 3.98276 0
M  V30 13176 H 1249.45 2.60305 3.00809 0
M  V30 13177 H 1246.19 5.56605 3.46223 0
M  V30 13178 H 1245.71 4.11184 4.36678 0
M  V30 13179 H 1247.38 4.701 4.44539 0
M  V30 13180 N 1247.52 -1.0444 1.18026 0
M  V30 13181 C 1248.45 -2.14297 0.927314 0
M  V30 13182 C 1249.43 -1.69575 -0.13357 0
M  V30 13183 O 1250.61 -1.94191 0.0182439 0
M  V30 13184 C 1247.74 -3.44397 0.448134 0
M  V30 13185 C 1246.7 -4.02723 1.44907 0
M  V30 13186 C 1246.02 -5.28257 0.827555 0
M  V30 13187 C 1247.32 -4.39331 2.82463 0
M  V30 13188 H 1249.02 -2.35715 1.84605 0
M  V30 13189 H 1246.56 -1.13281 0.889012 0
M  V30 13190 H 1248.52 -4.20606 0.258554 0
M  V30 13191 H 1247.24 -3.22654 -0.506159 0
M  V30 13192 H 1245.9 -3.28591 1.62552 0
M  V30 13193 H 1245.55 -5.02822 -0.13381 0
M  V30 13194 H 1245.25 -5.68242 1.49581 0
M  V30 13195 H 1246.77 -6.07147 0.64842 0
M  V30 13196 H 1248.18 -5.06543 2.68491 0
M  V30 13197 H 1246.58 -4.90355 3.45936 0
M  V30 13198 H 1247.65 -3.4933 3.36299 0
M  V30 13199 N 1248.99 -0.981699 -1.2329 0
M  V30 13200 C 1249.94 -0.52269 -2.24803 0
M  V30 13201 C 1250.91 0.439116 -1.6019 0
M  V30 13202 O 1252.1 0.346372 -1.8763 0
M  V30 13203 C 1249.24 0.167477 -3.44693 0
M  V30 13204 C 1248.35 -0.834744 -4.23858 0
M  V30 13205 C 1247.48 -0.119249 -5.31066 0
M  V30 13206 C 1246.52 -1.1106 -6.0194 0
M  V30 13207 N 1245.66 -0.424167 -7.00818 0
M  V30 13208 H 1250.5 -1.39312 -2.63431 0
M  V30 13209 H 1248.04 -0.698061 -1.29482 0
M  V30 13210 H 1250 0.584442 -4.13086 0
M  V30 13211 H 1248.63 1.00177 -3.06862 0
M  V30 13212 H 1247.68 -1.37009 -3.5487 0
M  V30 13213 H 1248.99 -1.59012 -4.72776 0
M  V30 13214 H 1248.14 0.355015 -6.0566 0
M  V30 13215 H 1246.88 0.668714 -4.83094 0
M  V30 13216 H 1245.89 -1.5956 -5.26138 0
M  V30 13217 H 1247.11 -1.89924 -6.52001 0
M  V30 13218 H 1245.06 0.344564 -6.55094 0
M  V30 13219 H 1244.98 -1.11817 -7.47685 0
M  V30 13220 H 1246.24 0.0276655 -7.79495 0
M  V30 13221 N 1250.47 1.3842 -0.753509 0
M  V30 13222 C 1251.42 2.27774 -0.101443 0
M  V30 13223 C 1252.41 1.45196 0.693322 0
M  V30 13224 O 1253.6 1.67931 0.55929 0
M  V30 13225 C 1250.73 3.34064 0.790977 0
M  V30 13226 C 1249.81 4.24099 -0.010633 0
M  V30 13227 N 1250.2 4.94845 -1.047 0
M  V30 13228 C 1248.5 4.45476 0.216193 0
M  V30 13229 C 1249.2 5.61164 -1.53199 0
M  V30 13230 N 1248.18 5.36956 -0.847304 0
M  V30 13231 H 1251.98 2.79935 -0.895188 0
M  V30 13232 H 1249.5 1.51321 -0.589545 0
M  V30 13233 H 1251.49 3.96965 1.27375 0
M  V30 13234 H 1250.15 2.83461 1.58367 0
M  V30 13235 H 1251.16 4.97801 -1.42879 0
M  V30 13236 H 1247.84 4.05781 0.982238 0
M  V30 13237 H 1249.23 6.27756 -2.39525 0
M  V30 13238 O 1251.99 0.644204 1.48095 0
M  V30 13239 H 1252.68 0.166962 1.92979 0
M  V30 END ATOM
M  V30 BEGIN BOND
M  V30 END BOND
M  V30 END CTAB
M  END
$$$$
