drugbank_target|Q6IA69 Glutamine-dependent NAD(+) synthetase (DB00142)
 OpenBabel12092120083D

  0  0  0     0  0            999 V3000
M  V30 BEGIN CTAB
M  V30 COUNTS 11054 11175 0 0 0
M  V30 BEGIN ATOM
M  V30 1 H -0.908 1.98254 -0.117106 0
M  V30 2 N 0 1.576 0 0
M  V30 3 C 0.933 2.03868 1.02534 0
M  V30 4 C 1.911 0.928543 1.3348 0
M  V30 5 O 3.095 1.19667 1.45644 0
M  V30 6 C 0.222 2.43627 2.35294 0
M  V30 7 C -0.732 3.65373 2.2001 0
M  V30 8 S 0.101 5.13292 1.52614 0
M  V30 9 C 1.257 5.56322 2.86805 0
M  V30 10 H 1.49 2.90518 0.631377 0
M  V30 11 H -0.977 1.52953 0.210867 0
M  V30 12 H 0.981 2.67203 3.11629 0
M  V30 13 H -0.358 1.57376 2.7183 0
M  V30 14 H -1.165 3.90944 3.18086 0
M  V30 15 H -1.563 3.418 1.51819 0
M  V30 16 H 0.729 5.58782 3.83104 0
M  V30 17 H 1.672 6.56266 2.65933 0
M  V30 18 H 2.08 4.83886 2.90714 0
M  V30 19 N 1.4781 -0.272755 1.55222 0
M  V30 20 C 2.7261 -1.00234 1.75492 0
M  V30 21 C 3.0471 -1.8681 0.5592 0
M  V30 22 O 2.3171 -1.91215 -0.425882 0
M  V30 23 H 0.8971 -0.373076 0.647166 0
M  V30 24 H 3.5591 -0.296926 1.92625 0
M  V30 25 H 2.6551 -1.63913 2.65592 0
M  V30 26 N 2.9562 -1.48159 -0.537278 0
M  V30 27 C 4.3722 -1.34118 -0.865129 0
M  V30 28 C 4.5722 -0.346678 -1.98495 0
M  V30 29 O 3.6282 0.234715 -2.51407 0
M  V30 30 C 4.9412 -2.73963 -1.23954 0
M  V30 31 C 6.4892 -2.82397 -1.34984 0
M  V30 32 C 6.9642 -4.22928 -1.75772 0
M  V30 33 N 8.4552 -4.25566 -1.82887 0
M  V30 34 C 9.1902 -5.31235 -2.15817 0
M  V30 35 N 8.6862 -6.47189 -2.47222 0
M  V30 36 N 10.4792 -5.18624 -2.16761 0
M  V30 37 H 2.6302 -2.1144 0.201715 0
M  V30 38 H 4.8932 -0.947598 0.0275949 0
M  V30 39 H 4.5992 -3.48264 -0.490381 0
M  V30 40 H 4.4732 -3.0702 -2.19132 0
M  V30 41 H 6.8602 -2.08356 -2.08978 0
M  V30 42 H 6.9412 -2.5297 -0.379448 0
M  V30 43 H 6.5852 -4.97482 -1.02341 0
M  V30 44 H 6.5152 -4.49794 -2.73848 0
M  V30 45 H 9.0062 -3.41924 -1.60924 0
M  V30 46 H 9.3192 -7.23564 -2.71433 0
M  V30 47 H 7.6642 -6.50476 -2.44757 0
M  V30 48 H 10.8552 -4.27056 -1.91679 0
M  V30 49 H 11.0282 -6.01078 -2.42093 0
M  V30 50 N 4.4343 0.785586 -1.36625 0
M  V30 51 C 5.3813 1.89838 -1.31264 0
M  V30 52 C 6.3513 1.65115 -0.180633 0
M  V30 53 O 7.5363 1.87222 -0.36777 0
M  V30 54 C 4.6763 3.26706 -1.11163 0
M  V30 55 C 3.7893 3.63476 -2.33472 0
M  V30 56 C 2.9243 4.89481 -2.06353 0
M  V30 57 C 1.9633 5.18941 -3.24602 0
M  V30 58 N 1.1003 6.36131 -2.97123 0
M  V30 59 H 5.9403 1.93756 -2.26413 0
M  V30 60 H 3.4773 0.947454 -1.12524 0
M  V30 61 H 5.4353 4.05639 -0.975337 0
M  V30 62 H 4.0653 3.222 -0.196674 0
M  V30 63 H 3.1173 2.79636 -2.57891 0
M  V30 64 H 4.4293 3.81193 -3.21704 0
M  V30 65 H 3.5833 5.76288 -1.89675 0
M  V30 66 H 2.3223 4.73841 -1.15437 0
M  V30 67 H 1.3273 4.30615 -3.41834 0
M  V30 68 H 2.5523 5.36498 -4.16349 0
M  V30 69 H 0.4983 6.21875 -2.08823 0
M  V30 70 H 0.4153 6.54198 -3.78894 0
M  V30 71 H 1.6833 7.2591 -2.84033 0
M  V30 72 N 5.9124 1.20967 1.01018 0
M  V30 73 C 7.1584 1.02526 1.74975 0
M  V30 74 C 7.4914 -0.4408 1.89131 0
M  V30 75 O 6.7664 -1.32718 1.42184 0
M  V30 76 C 7.0494 1.71699 3.1653 0
M  V30 77 C 6.9024 3.25791 3.10129 0
M  V30 78 C 8.2214 1.45531 4.15342 0
M  V30 79 H 5.3404 0.373863 0.635134 0
M  V30 80 H 7.9824 1.49071 1.17805 0
M  V30 81 H 6.1324 1.32128 3.65341 0
M  V30 82 H 7.8044 3.74697 2.69072 0
M  V30 83 H 6.0474 3.56363 2.47362 0
M  V30 84 H 6.7184 3.69353 4.10222 0
M  V30 85 H 9.1944 1.79872 3.75213 0
M  V30 86 H 8.0704 1.96453 5.1254 0
M  V30 87 H 8.3314 0.384237 4.40427 0
M  V30 88 N 7.3905 -1.2043 1.01659 0
M  V30 89 C 8.6185 -1.93777 0.725132 0
M  V30 90 C 9.0335 -1.74772 -0.714166 0
M  V30 91 O 8.3905 -1.06169 -1.4844 0
M  V30 92 C 8.4415 -3.45876 1.05129 0
M  V30 93 O 8.1625 -3.6426 2.43406 0
M  V30 94 C 9.6635 -4.36368 0.780891 0
M  V30 95 H 6.8835 -0.615901 0.266284 0
M  V30 96 H 9.4275 -1.52922 1.35776 0
M  V30 97 H 7.5825 -3.8461 0.464065 0
M  V30 98 H 7.9965 -4.58246 2.55169 0
M  V30 99 H 9.4705 -5.41743 1.05918 0
M  V30 100 H 9.9475 -4.38275 -0.284937 0
M  V30 101 H 10.5535 -4.03296 1.35027 0
M  V30 102 N 8.8686 -0.792821 -1.36206 0
M  V30 103 C 10.1146 -0.36733 -1.99446 0
M  V30 104 C 10.4476 1.05917 -1.62774 0
M  V30 105 O 9.7226 1.7324 -0.88421 0
M  V30 106 C 10.0056 -0.535044 -3.56103 0
M  V30 107 C 9.8586 -2.00548 -4.02617 0
M  V30 108 C 11.1776 0.0478191 -4.40074 0
M  V30 109 H 8.2966 -0.134941 -0.724541 0
M  V30 110 H 10.9386 -0.999794 -1.61568 0
M  V30 111 H 9.0886 0.00336329 -3.885 0
M  V30 112 H 10.7606 -2.60521 -3.80692 0
M  V30 113 H 9.0036 -2.50686 -3.54032 0
M  V30 114 H 9.6746 -2.07377 -5.11565 0
M  V30 115 H 12.1506 -0.411822 -4.14057 0
M  V30 116 H 11.0266 -0.0995336 -5.4881 0
M  V30 117 H 11.2876 1.14025 -4.27142 0
M  V30 118 N 10.3467 1.47872 -0.545128 0
M  V30 119 C 11.3097 2.28337 0.198717 0
M  V30 120 C 12.3097 1.36255 0.853888 0
M  V30 121 O 13.4997 1.59003 0.711606 0
M  V30 122 C 10.6317 3.15585 1.28915 0
M  V30 123 H 11.8247 2.95567 -0.507941 0
M  V30 124 H 9.3777 1.53362 -0.301616 0
M  V30 125 H 10.1127 2.53019 2.02859 0
M  V30 126 H 9.8977 3.83337 0.824309 0
M  V30 127 H 11.3877 3.76243 1.81194 0
M  V30 128 N 11.8248 0.280983 1.55075 0
M  V30 129 C 13.0528 -0.337293 2.04132 0
M  V30 130 C 13.4678 -1.4903 1.15912 0
M  V30 131 O 12.8248 -1.81606 0.180459 0
M  V30 132 C 12.8758 -0.812706 3.52246 0
M  V30 133 O 12.5968 0.294387 4.3711 0
M  V30 134 C 14.0978 -1.4982 4.17216 0
M  V30 135 H 11.3178 -0.0761638 0.666663 0
M  V30 136 H 13.8618 0.414787 2.00249 0
M  V30 137 H 12.0168 -1.51486 3.56554 0
M  V30 138 H 12.4308 -0.0721325 5.2445 0
M  V30 139 H 13.9048 -1.7822 5.22438 0
M  V30 140 H 14.3818 -2.43168 3.65741 0
M  V30 141 H 14.9878 -0.839742 4.16927 0
M  V30 142 N 13.3029 -1.57598 0.00835791 0
M  V30 143 C 14.5429 -1.92788 -0.679136 0
M  V30 144 C 14.9069 -0.883378 -1.70471 0
M  V30 145 O 16.1079 -1.12079 -2.44319 0
M  V30 146 C 14.3789 -3.32994 -1.29807 0
M  V30 147 S 15.9379 -3.90082 -2.00952 0
M  V30 148 H 12.7559 -0.67475 -0.224127 0
M  V30 149 H 15.3579 -1.95385 0.0670497 0
M  V30 150 H 14.0619 -4.06846 -0.538922 0
M  V30 151 H 13.5929 -3.33791 -2.082 0
M  V30 152 H 15.6079 -3.71834 -3.28563 0
M  V30 153 N 14.781 0.264519 -1.55364 0
M  V30 154 C 15.744 1.31046 -1.88042 0
M  V30 155 C 16.744 1.41943 -0.755569 0
M  V30 156 O 17.934 1.40947 -1.02369 0
M  V30 157 C 15.066 2.69067 -2.09323 0
M  V30 158 H 16.259 1.03297 -2.81549 0
M  V30 159 H 13.812 0.502989 -1.47986 0
M  V30 160 H 14.547 3.01982 -1.18226 0
M  V30 161 H 14.332 2.62542 -2.91229 0
M  V30 162 H 15.822 3.44623 -2.35848 0
M  V30 163 N 16.2591 1.48442 0.529413 0
M  V30 164 C 17.1891 1.65902 1.64313 0
M  V30 165 C 18.1701 0.507897 1.6234 0
M  V30 166 O 19.3551 0.740503 1.79528 0
M  V30 167 C 16.4851 1.69911 3.02898 0
M  V30 168 C 15.4391 2.8453 3.19729 0
M  V30 169 C 14.7651 2.73629 4.59381 0
M  V30 170 C 16.0651 4.25821 3.02447 0
M  V30 171 H 17.7591 2.5914 1.49955 0
M  V30 172 H 15.3051 1.24709 0.719982 0
M  V30 173 H 17.2581 1.80715 3.80684 0
M  V30 174 H 15.9821 0.732524 3.18279 0
M  V30 175 H 14.6411 2.73283 2.44361 0
M  V30 176 H 14.2891 1.74938 4.71599 0
M  V30 177 H 13.9891 3.50541 4.71588 0
M  V30 178 H 15.5131 2.86401 5.39265 0
M  V30 179 H 16.9271 4.37898 3.70024 0
M  V30 180 H 15.3241 5.03735 3.26146 0
M  V30 181 H 16.3941 4.42244 1.98867 0
M  V30 182 N 17.7372 -0.778329 1.37039 0
M  V30 183 C 18.6852 -1.91278 1.32345 0
M  V30 184 C 19.6792 -1.68051 0.213331 0
M  V30 185 O 20.8852 -1.75922 0.38098 0
M  V30 186 H 17.2602 -0.628909 0.412283 0
M  V30 187 H 19.2312 -1.92355 2.28127 0
M  V30 188 C 17.9802 -3.28455 1.14073 0
M  V30 189 H 17.3032 -3.46901 1.98746 0
M  V30 190 H 18.7432 -4.08152 1.14837 0
M  V30 191 C 17.2022 -3.36548 -0.154015 0
M  V30 192 O 17.7322 -3.85186 -1.13993 0
M  V30 193 N 15.9382 -2.89894 -0.202475 0
M  V30 194 H 15.4852 -2.50504 0.600476 0
M  V30 195 H 15.4432 -2.9569 -1.06841 0
M  V30 196 N 19.2153 -1.21501 -1.00376 0
M  V30 197 C 20.1473 -0.933174 -2.09343 0
M  V30 198 C 21.1603 0.0840896 -1.62583 0
M  V30 199 O 22.3493 -0.148563 -1.77881 0
M  V30 200 C 19.4493 -0.379869 -3.36764 0
M  V30 201 C 18.6223 -1.45176 -4.12605 0
M  V30 202 C 17.6813 -0.907476 -5.18316 0
M  V30 203 O 16.7073 -1.5912 -5.46507 0
M  V30 204 N 17.9093 0.276649 -5.7984 0
M  V30 205 H 20.6743 -1.87124 -2.34104 0
M  V30 206 H 18.2353 -1.12043 -1.16867 0
M  V30 207 H 20.2273 -0.00131488 -4.047 0
M  V30 208 H 18.7973 0.463048 -3.09151 0
M  V30 209 H 18.0173 -2.00411 -3.39454 0
M  V30 210 H 19.3053 -2.17328 -4.6005 0
M  V30 211 H 18.7033 0.849147 -5.59291 0
M  V30 212 H 17.2603 0.596702 -6.49063 0
M  V30 213 N 20.6934 1.19889 -1.02296 0
M  V30 214 C 21.9394 1.89973 -0.726759 0
M  V30 215 C 22.2944 1.7776 0.73614 0
M  V30 216 O 21.5874 1.15523 1.52856 0
M  V30 217 C 21.7814 3.39883 -1.10518 0
M  V30 218 C 21.6104 3.66684 -2.60332 0
M  V30 219 C 20.3804 3.85045 -3.27213 0
M  V30 220 C 22.5784 3.68727 -3.58532 0
M  V30 221 N 20.5604 3.99422 -4.66192 0
M  V30 222 C 21.9314 3.88604 -4.83101 0
M  V30 223 C 23.9864 3.51722 -3.52414 0
M  V30 224 C 22.6894 3.9324 -6.02292 0
M  V30 225 C 24.7154 3.57632 -4.71013 0
M  V30 226 C 24.0774 3.77988 -5.94394 0
M  V30 227 H 20.1764 0.714551 -0.317712 0
M  V30 228 H 22.7604 1.44123 -1.30907 0
M  V30 229 H 20.9314 3.8447 -0.551142 0
M  V30 230 H 22.6634 3.97464 -0.761853 0
M  V30 231 H 19.4184 3.83689 -2.77632 0
M  V30 232 H 19.8424 4.10473 -5.38368 0
M  V30 233 H 24.4844 3.34945 -2.58015 0
M  V30 234 H 22.2024 4.08811 -6.97065 0
M  V30 235 H 25.7884 3.45773 -4.67902 0
M  V30 236 H 24.6684 3.82428 -6.8463 0
M  V30 237 N 22.1715 0.800033 1.35784 0
M  V30 238 C 23.1345 0.211565 2.28221 0
M  V30 239 C 24.1345 -0.59728 1.49296 0
M  V30 240 O 25.3245 -0.416721 1.69142 0
M  V30 241 C 22.4565 -0.705846 3.33513 0
M  V30 242 H 23.6495 1.02677 2.81776 0
M  V30 243 H 21.2025 0.570211 1.45528 0
M  V30 244 H 21.9375 -1.54498 2.85133 0
M  V30 245 H 21.7225 -0.127655 3.91892 0
M  V30 246 H 23.2125 -1.11211 4.02519 0
M  V30 247 N 23.6496 -1.47581 0.552962 0
M  V30 248 C 24.5796 -2.32762 -0.185451 0
M  V30 249 C 25.5606 -1.43527 -0.912905 0
M  V30 250 O 26.7456 -1.72388 -0.894201 0
M  V30 251 C 23.8756 -3.25219 -1.21859 0
M  V30 252 C 22.8296 -4.23661 -0.607864 0
M  V30 253 C 22.1556 -5.05413 -1.74533 0
M  V30 254 C 23.4556 -5.20481 0.435582 0
M  V30 255 H 25.1496 -2.94749 0.525684 0
M  V30 256 H 22.6956 -1.41738 0.254251 0
M  V30 257 H 24.6486 -3.8365 -1.7433 0
M  V30 258 H 23.3726 -2.61279 -1.95961 0
M  V30 259 H 22.0316 -3.66451 -0.104489 0
M  V30 260 H 21.6796 -4.3788 -2.47529 0
M  V30 261 H 21.3796 -5.72059 -1.34249 0
M  V30 262 H 22.9036 -5.66701 -2.27338 0
M  V30 263 H 24.3176 -5.733 -0.00290157 0
M  V30 264 H 22.7146 -5.95305 0.757067 0
M  V30 265 H 23.7846 -4.66217 1.33303 0
M  V30 266 N 25.1277 -0.289203 -1.54924 0
M  V30 267 C 26.4047 0.376032 -1.91951 0
M  V30 268 C 26.7847 1.72622 -1.21511 0
M  V30 269 O 26.1327 2.25853 -0.346767 0
M  V30 270 C 26.3427 0.502378 -3.45365 0
M  V30 271 C 27.6907 0.778741 -4.17398 0
M  V30 272 O 28.7147 0.586647 -3.51336 0
M  V30 273 O 27.5737 1.14698 -5.34328 0
M  V30 274 H 24.6677 0.208167 -0.800372 0
M  V30 275 H 27.2137 -0.336394 -1.66332 0
M  V30 276 H 25.9857 -0.447255 -3.88736 0
M  V30 277 H 25.6087 1.26373 -3.76982 0
M  V30 278 N 26.6058 1.57591 -0.0167156 0
M  V30 279 C 27.8528 1.91283 0.664597 0
M  V30 280 C 28.1808 0.891949 1.72842 0
M  V30 281 O 27.4358 -0.100931 1.9544 0
M  V30 282 C 27.7348 3.3172 1.33029 0
M  V30 283 C 27.4008 4.4914 0.398047 0
M  V30 284 C 26.0628 4.80992 0.141421 0
M  V30 285 C 28.4148 5.20634 -0.242825 0
M  V30 286 C 25.7428 5.81703 -0.764092 0
M  V30 287 C 28.0948 6.22311 -1.13632 0
M  V30 288 C 26.7588 6.52611 -1.40196 0
M  V30 289 H 26.0288 0.699956 0.243193 0
M  V30 290 H 28.6758 1.9135 -0.0758267 0
M  V30 291 H 26.9808 3.27856 2.14517 0
M  V30 292 H 28.6778 3.55055 1.86379 0
M  V30 293 H 25.2678 4.24262 0.608238 0
M  V30 294 H 29.4518 4.96267 -0.0576019 0
M  V30 295 H 24.7078 6.03532 -0.977732 0
M  V30 296 H 28.8818 6.76834 -1.63917 0
M  V30 297 H 26.5088 7.30467 -2.10529 0
M  V30 298 N 28.0839 -0.256276 1.55502 0
M  V30 299 C 28.9939 -1.33882 1.92647 0
M  V30 300 C 30.0099 -1.53159 0.825727 0
M  V30 301 O 31.1859 -1.66963 1.12629 0
M  V30 302 C 28.2509 -2.6751 2.20543 0
M  V30 303 C 27.3119 -2.56836 3.43997 0
M  V30 304 C 26.5449 -3.84092 3.70553 0
M  V30 305 O 26.7679 -4.85545 2.99336 0
M  V30 306 O 25.7019 -3.83288 4.64084 0
M  V30 307 H 29.5279 -1.05374 2.84833 0
M  V30 308 H 27.1129 -0.456237 1.42263 0
M  V30 309 H 28.9949 -3.46492 2.39835 0
M  V30 310 H 27.6699 -2.9577 1.31536 0
M  V30 311 H 26.5769 -1.76172 3.30021 0
M  V30 312 H 27.9099 -2.33523 4.33275 0
M  V30 313 N 29.562 -1.4872 -0.521534 0
M  V30 314 C 30.81 -1.56857 -1.27437 0
M  V30 315 C 31.131 -0.247982 -1.93417 0
M  V30 316 O 30.401 0.731151 -1.81744 0
M  V30 317 H 28.981 -0.577885 -0.473347 0
M  V30 318 H 31.643 -1.85233 -0.606205 0
M  V30 319 H 30.739 -2.35402 -2.0492 0
M  V30 320 N 31.0401 0.771051 -1.3745 0
M  V30 321 C 31.9881 1.90574 -1.33358 0
M  V30 322 C 32.9821 1.67936 -0.22224 0
M  V30 323 O 34.1881 1.75717 -0.390304 0
M  V30 324 H 30.5631 0.626714 -0.415612 0
M  V30 325 H 32.5341 1.91142 -2.29144 0
M  V30 326 C 31.2831 3.27845 -1.15813 0
M  V30 327 H 30.6061 3.45842 -2.00583 0
M  V30 328 H 32.0461 4.07538 -1.17 0
M  V30 329 C 30.5051 3.36625 0.136165 0
M  V30 330 O 31.0351 3.85785 1.11949 0
M  V30 331 N 29.2411 2.89997 0.187099 0
M  V30 332 H 28.7881 2.50182 -0.613753 0
M  V30 333 H 28.7461 2.96252 1.05272 0
M  V30 334 N 32.5182 1.22032 0.997298 0
M  V30 335 C 33.4482 1.01065 2.10495 0
M  V30 336 C 34.4292 -0.0669542 1.69968 0
M  V30 337 O 35.6142 0.0943987 1.9397 0
M  V30 338 C 32.7442 0.582874 3.42374 0
M  V30 339 C 31.6982 1.60592 3.96729 0
M  V30 340 C 31.0242 1.03412 5.24605 0
M  V30 341 C 32.3242 2.99478 4.27914 0
M  V30 342 H 34.0182 1.93708 2.28292 0
M  V30 343 H 31.5642 0.932761 1.09707 0
M  V30 344 H 33.5172 0.423332 4.19268 0
M  V30 345 H 32.2412 -0.379213 3.24391 0
M  V30 346 H 30.9002 1.75316 3.21963 0
M  V30 347 H 30.5482 0.063518 5.0296 0
M  V30 348 H 30.2482 1.71754 5.61938 0
M  V30 349 H 31.7722 0.886066 6.04137 0
M  V30 350 H 33.1862 2.88153 4.95622 0
M  V30 351 H 31.5832 3.64903 4.76409 0
M  V30 352 H 32.6532 3.49742 3.3587 0
M  V30 353 N 33.9963 -1.19345 1.0293 0
M  V30 354 C 34.9283 -2.22036 0.56857 0
M  V30 355 C 35.9413 -1.58865 -0.355779 0
M  V30 356 O 37.1303 -1.77851 -0.152103 0
M  V30 357 C 34.2303 -3.38363 -0.190752 0
M  V30 358 C 33.4033 -4.31118 0.738643 0
M  V30 359 C 32.4623 -5.26194 0.0246497 0
M  V30 360 O 31.4883 -5.65461 0.651354 0
M  V30 361 N 32.6903 -5.66971 -1.24594 0
M  V30 362 H 35.4553 -2.6219 1.45177 0
M  V30 363 H 33.0163 -1.34015 0.908381 0
M  V30 364 H 35.0083 -3.98981 -0.677961 0
M  V30 365 H 33.5783 -2.96994 -0.975366 0
M  V30 366 H 32.7983 -3.68276 1.40593 0
M  V30 367 H 34.0863 -4.90001 1.37029 0
M  V30 368 H 33.4843 -5.37104 -1.77583 0
M  V30 369 H 32.0413 -6.2984 -1.67764 0
M  V30 370 N 35.4744 -0.807222 -1.35358 0
M  V30 371 C 36.8904 -0.491038 -1.51858 0
M  V30 372 C 37.0904 0.987648 -1.75635 0
M  V30 373 O 36.1464 1.77265 -1.79815 0
M  V30 374 C 37.4594 -1.33695 -2.69344 0
M  V30 375 C 39.0074 -1.33246 -2.83222 0
M  V30 376 C 39.4824 -2.1625 -4.03733 0
M  V30 377 N 40.9734 -2.1379 -4.10911 0
M  V30 378 C 41.7084 -2.74772 -5.03277 0
M  V30 379 N 41.2044 -3.44684 -6.0097 0
M  V30 380 N 42.9974 -2.6441 -4.96028 0
M  V30 381 H 35.1484 -1.76485 -1.18181 0
M  V30 382 H 37.4114 -0.751199 -0.578276 0
M  V30 383 H 37.1174 -2.38634 -2.58354 0
M  V30 384 H 36.9914 -0.990618 -3.6396 0
M  V30 385 H 39.3784 -0.290911 -2.93663 0
M  V30 386 H 39.4594 -1.71866 -1.89461 0
M  V30 387 H 39.1034 -3.20445 -3.94052 0
M  V30 388 H 39.0334 -1.74989 -4.96675 0
M  V30 389 H 41.5244 -1.62923 -3.40976 0
M  V30 390 H 41.8374 -3.88501 -6.68047 0
M  V30 391 H 40.1824 -3.48788 -6.01142 0
M  V30 392 H 43.3734 -2.0938 -4.18662 0
M  V30 393 H 43.5464 -3.12225 -5.6782 0
M  V30 394 N 36.9525 1.47285 -0.560781 0
M  V30 395 C 38.2015 2.01668 -0.035895 0
M  V30 396 C 38.5145 1.44021 1.32353 0
M  V30 397 O 39.7205 1.90088 1.93853 0
M  V30 398 C 38.1765 3.59897 -0.0136659 0
M  V30 399 C 37.7845 4.26536 -1.37006 0
M  V30 400 C 39.5285 4.22017 0.458425 0
M  V30 401 C 37.4355 5.76782 -1.30675 0
M  V30 402 H 36.3655 0.753938 -0.00964879 0
M  V30 403 H 39.0165 1.69243 -0.709166 0
M  V30 404 H 37.3985 3.89301 0.725325 0
M  V30 405 H 38.5725 4.0877 -2.12705 0
M  V30 406 H 36.8875 3.76419 -1.78038 0
M  V30 407 H 39.4845 5.32124 0.524247 0
M  V30 408 H 39.8275 3.89437 1.4712 0
M  V30 409 H 40.3605 3.97159 -0.225818 0
M  V30 410 H 37.0995 6.13988 -2.29564 0
M  V30 411 H 36.6195 5.96875 -0.591622 0
M  V30 412 H 38.2985 6.39063 -1.01033 0
M  V30 413 N 38.4306 0.297415 1.54768 0
M  V30 414 C 39.3606 -0.573494 2.26348 0
M  V30 415 C 40.3416 -1.14085 1.26169 0
M  V30 416 O 41.5266 -1.17086 1.54934 0
M  V30 417 C 38.6566 -1.74716 3.00153 0
M  V30 418 C 37.6106 -1.31032 4.07449 0
M  V30 419 C 36.9366 -2.56887 4.68949 0
M  V30 420 C 38.2366 -0.444183 5.20408 0
M  V30 421 H 39.9306 0.0235131 2.99391 0
M  V30 422 H 37.4766 0.0127488 1.43994 0
M  V30 423 H 39.4296 -2.3625 3.48947 0
M  V30 424 H 38.1536 -2.37035 2.24682 0
M  V30 425 H 36.8126 -0.718066 3.59499 0
M  V30 426 H 36.4606 -3.17512 3.90122 0
M  V30 427 H 36.1606 -2.2836 5.41411 0
M  V30 428 H 37.6846 -3.19229 5.20505 0
M  V30 429 H 39.0986 -0.9651 5.65118 0
M  V30 430 H 37.4956 -0.252846 5.99567 0
M  V30 431 H 38.5656 0.531609 4.81977 0
M  V30 432 N 39.9087 -1.5758 0.0250728 0
M  V30 433 C 40.8557 -2.09973 -0.958129 0
M  V30 434 C 41.8257 -1.00085 -1.3256 0
M  V30 435 O 43.0107 -1.27481 -1.41962 0
M  V30 436 C 40.1507 -2.62812 -2.2366 0
M  V30 437 C 39.2637 -3.86693 -1.92594 0
M  V30 438 C 38.3987 -4.27941 -3.14707 0
M  V30 439 C 37.4377 -5.44591 -2.79442 0
M  V30 440 N 36.5747 -5.81014 -3.94167 0
M  V30 441 H 41.4147 -2.937 -0.504428 0
M  V30 442 H 38.9517 -1.45172 -0.237392 0
M  V30 443 H 40.9097 -2.91536 -2.98434 0
M  V30 444 H 39.5397 -1.81922 -2.66654 0
M  V30 445 H 38.5917 -3.64723 -1.0808 0
M  V30 446 H 39.9037 -4.71547 -1.62619 0
M  V30 447 H 39.0577 -4.58079 -3.97804 0
M  V30 448 H 37.7967 -3.41845 -3.4784 0
M  V30 449 H 36.8017 -5.1415 -1.94755 0
M  V30 450 H 38.0267 -6.32382 -2.47528 0
M  V30 451 H 35.9727 -4.97874 -4.2715 0
M  V30 452 H 35.8897 -6.60498 -3.67801 0
M  V30 453 H 37.1577 -6.15756 -4.7798 0
M  V30 454 N 41.3868 0.248026 -1.55636 0
M  V30 455 C 42.6118 0.998028 -1.81808 0
M  V30 456 C 43.0368 1.78207 -0.601979 0
M  V30 457 O 42.3948 1.75653 0.448961 0
M  V30 458 C 42.4428 1.9125 -3.05705 0
M  V30 459 O 41.5468 3.00406 -2.82542 0
M  V30 460 H 40.8878 0.284045 -0.600179 0
M  V30 461 H 43.4178 0.269357 -2.02819 0
M  V30 462 H 43.4278 2.32737 -3.35108 0
M  V30 463 H 42.1028 1.33602 -3.93857 0
M  V30 464 H 40.6798 2.63056 -2.64303 0
M  V30 465 N 42.8649 1.48995 0.513639 0
M  V30 466 C 44.1139 1.57093 1.2651 0
M  V30 467 C 44.4269 0.257091 1.93903 0
M  V30 468 O 45.6329 0.216478 2.70636 0
M  V30 469 C 44.0889 2.77118 2.29638 0
M  V30 470 C 43.6969 4.15209 1.68241 0
M  V30 471 C 45.4409 2.94538 3.05692 0
M  V30 472 C 43.3479 5.26474 2.69406 0
M  V30 473 H 42.2779 0.584876 0.475854 0
M  V30 474 H 44.9289 1.7536 0.540487 0
M  V30 475 H 43.3109 2.52319 3.05207 0
M  V30 476 H 44.4849 4.50094 0.987505 0
M  V30 477 H 42.7999 4.03042 1.04623 0
M  V30 478 H 45.3969 3.74832 3.8132 0
M  V30 479 H 45.7399 2.04614 3.62545 0
M  V30 480 H 46.2729 3.19316 2.37238 0
M  V30 481 H 43.0119 6.18417 2.17351 0
M  V30 482 H 42.5319 4.96058 3.37175 0
M  V30 483 H 44.2109 5.55277 3.32078 0
M  V30 484 N 44.343 -0.763751 1.37857 0
M  V30 485 C 45.253 -1.90817 1.36478 0
M  V30 486 C 46.269 -1.71997 0.263248 0
M  V30 487 O 47.445 -1.95095 0.499979 0
M  V30 488 C 44.51 -3.2605 1.17864 0
M  V30 489 C 43.571 -3.57467 2.3773 0
M  V30 490 C 42.804 -4.86249 2.19995 0
M  V30 491 O 43.027 -5.57884 1.18836 0
M  V30 492 O 41.961 -5.16911 3.08361 0
M  V30 493 H 45.787 -1.94933 2.32884 0
M  V30 494 H 43.372 -0.907619 1.1867 0
M  V30 495 H 45.254 -4.06924 1.09504 0
M  V30 496 H 43.929 -3.22769 0.245372 0
M  V30 497 H 42.836 -2.76796 2.51664 0
M  V30 498 H 44.169 -3.655 3.29652 0
M  V30 499 N 45.8211 -1.22559 -0.990812 0
M  V30 500 C 47.0701 -1.04553 -1.72486 0
M  V30 501 C 47.3831 0.419349 -1.91052 0
M  V30 502 O 48.5891 0.719121 -2.61803 0
M  V30 503 C 47.0451 -1.82231 -3.10355 0
M  V30 504 C 46.6531 -3.32981 -2.99713 0
M  V30 505 C 48.3971 -1.7268 -3.87791 0
M  V30 506 C 46.3041 -4.03091 -4.32748 0
M  V30 507 H 45.2341 -0.387614 -0.646739 0
M  V30 508 H 47.8851 -1.46429 -1.10593 0
M  V30 509 H 46.2671 -1.33155 -3.72942 0
M  V30 510 H 47.4411 -3.89466 -2.46278 0
M  V30 511 H 45.7561 -3.43231 -2.35758 0
M  V30 512 H 48.3531 -2.22381 -4.86262 0
M  V30 513 H 48.6961 -0.687607 -4.10582 0
M  V30 514 H 49.2291 -2.1931 -3.31885 0
M  V30 515 H 45.9681 -5.07273 -4.15156 0
M  V30 516 H 45.4881 -3.51394 -4.86089 0
M  V30 517 H 47.1671 -4.08804 -5.01486 0
M  V30 518 N 47.2992 1.18797 -1.03562 0
M  V30 519 C 48.2622 2.20464 -0.626769 0
M  V30 520 C 49.2622 1.57721 0.313173 0
M  V30 521 O 50.4522 1.73917 0.0992615 0
M  V30 522 C 47.5842 3.40802 0.0818498 0
M  V30 523 H 48.7772 2.58149 -1.5264 0
M  V30 524 H 46.3302 1.32593 -0.827578 0
M  V30 525 H 47.0652 3.08642 0.995518 0
M  V30 526 H 46.8502 3.8758 -0.593652 0
M  V30 527 H 48.3402 4.16092 0.354584 0
M  V30 528 N 48.7773 0.814389 1.34928 0
M  V30 529 C 49.7243 0.22822 2.29669 0
M  V30 530 C 50.6943 -0.642164 1.53184 0
M  V30 531 O 51.8793 -0.585605 1.81591 0
M  V30 532 C 49.0193 -0.61089 3.3965 0
M  V30 533 C 48.1323 0.280792 4.31086 0
M  V30 534 C 47.2673 -0.567067 5.28165 0
M  V30 535 C 46.3063 0.324531 6.11239 0
M  V30 536 N 45.4433 -0.483756 7.00431 0
M  V30 537 H 50.2833 1.04153 2.79206 0
M  V30 538 H 47.8203 0.525133 1.37407 0
M  V30 539 H 49.7783 -1.11263 4.0209 0
M  V30 540 H 48.4083 -1.38939 2.91369 0
M  V30 541 H 47.4603 0.900688 3.69583 0
M  V30 542 H 48.7723 0.966723 4.89342 0
M  V30 543 H 47.9263 -1.13363 5.96015 0
M  V30 544 H 46.6653 -1.28654 4.70425 0
M  V30 545 H 45.6703 0.903298 5.42329 0
M  V30 546 H 46.8953 1.04198 6.71059 0
M  V30 547 H 44.8413 -1.18706 6.45171 0
M  V30 548 H 44.7583 0.143965 7.55863 0
M  V30 549 H 46.0263 -1.03334 7.7262 0
M  V30 550 N 50.2554 -1.46986 0.568584 0
M  V30 551 C 51.2034 -2.31858 -0.185649 0
M  V30 552 C 52.1974 -1.43624 -0.898249 0
M  V30 553 O 53.4034 -1.60327 -0.818242 0
M  V30 554 H 49.7784 -0.747866 -0.0787399 0
M  V30 555 H 51.7494 -2.93303 0.549191 0
M  V30 556 C 50.4984 -3.26513 -1.19519 0
M  V30 557 H 49.8214 -3.94377 -0.656285 0
M  V30 558 H 51.2614 -3.88707 -1.6936 0
M  V30 559 C 49.7204 -2.50847 -2.24894 0
M  V30 560 O 50.2504 -2.26119 -3.32014 0
M  V30 561 N 48.4564 -2.11656 -1.99124 0
M  V30 562 H 48.0034 -2.31966 -1.12024 0
M  V30 563 H 47.9614 -1.61347 -2.69842 0
M  V30 564 N 51.7335 -0.305618 -1.54608 0
M  V30 565 C 53.1495 0.0476228 -1.59529 0
M  V30 566 C 53.3495 1.52025 -1.32252 0
M  V30 567 O 52.4055 2.27368 -1.09818 0
M  V30 568 C 53.7185 -0.354471 -2.98603 0
M  V30 569 C 55.2665 -0.303622 -3.11524 0
M  V30 570 C 55.7415 -0.680608 -4.52915 0
M  V30 571 N 57.2325 -0.63332 -4.5885 0
M  V30 572 C 57.9675 -0.897432 -5.66334 0
M  V30 573 N 57.4635 -1.22775 -6.81834 0
M  V30 574 N 59.2565 -0.824186 -5.56025 0
M  V30 575 H 51.4075 -1.2653 -1.70599 0
M  V30 576 H 53.6705 -0.513291 -0.797017 0
M  V30 577 H 53.3765 -1.3798 -3.23503 0
M  V30 578 H 53.2505 0.289568 -3.76087 0
M  V30 579 H 55.6375 0.712472 -2.8637 0
M  V30 580 H 55.7185 -0.982348 -2.36185 0
M  V30 581 H 55.3625 -1.69453 -4.78799 0
M  V30 582 H 55.2925 0.0202385 -5.26596 0
M  V30 583 H 57.7835 -0.389138 -3.75891 0
M  V30 584 H 58.0965 -1.41513 -7.59733 0
M  V30 585 H 56.4415 -1.26583 -6.83375 0
M  V30 586 H 59.6325 -0.565748 -4.64669 0
M  V30 587 H 59.8055 -1.03338 -6.39707 0
M  V30 588 N 53.2116 1.57565 -0.0334293 0
M  V30 589 C 54.4596 1.91598 0.642999 0
M  V30 590 C 54.7806 0.910847 1.7242 0
M  V30 591 O 54.0506 -0.0469931 1.95844 0
M  V30 592 H 52.6306 0.707228 0.240496 0
M  V30 593 H 55.2926 1.94726 -0.0822488 0
M  V30 594 H 54.3886 2.92336 1.09298 0
M  V30 595 N 54.6897 -0.239769 1.55765 0
M  V30 596 C 55.6527 -1.28038 1.90103 0
M  V30 597 C 56.6527 -1.40723 0.778055 0
M  V30 598 O 57.8427 -1.39301 1.04599 0
M  V30 599 C 54.9747 -2.65702 2.13577 0
M  V30 600 H 56.1677 -0.988048 2.83157 0
M  V30 601 H 53.7207 -0.479382 1.48767 0
M  V30 602 H 54.4557 -3.00063 1.23015 0
M  V30 603 H 54.2407 -2.57875 2.95369 0
M  V30 604 H 55.7307 -3.40828 2.41301 0
M  V30 605 N 56.1678 -1.49265 -0.50573 0
M  V30 606 C 57.5838 -1.35923 -0.836486 0
M  V30 607 C 57.7838 -0.388704 -1.97715 0
M  V30 608 O 56.8398 0.181336 -2.51848 0
M  V30 609 C 58.1528 -2.76531 -1.18115 0
M  V30 610 C 59.7008 -2.85197 -1.28964 0
M  V30 611 C 60.1758 -4.26561 -1.66761 0
M  V30 612 N 61.6668 -4.2935 -1.73819 0
M  V30 613 C 62.4018 -5.35693 -2.045 0
M  V30 614 N 61.8978 -6.52287 -2.33438 0
M  V30 615 N 63.6908 -5.23105 -2.05711 0
M  V30 616 H 55.8418 -2.10965 0.246519 0
M  V30 617 H 58.1048 -0.9468 0.0476887 0
M  V30 618 H 57.8108 -3.49226 -0.416398 0
M  V30 619 H 57.6848 -3.11599 -2.1257 0
M  V30 620 H 60.0718 -2.12742 -2.04511 0
M  V30 621 H 60.1528 -2.53718 -0.325704 0
M  V30 622 H 59.7968 -4.99541 -0.917656 0
M  V30 623 H 59.7268 -4.55502 -2.64246 0
M  V30 624 H 62.2178 -3.4526 -1.53635 0
M  V30 625 H 62.5308 -7.29158 -2.56024 0
M  V30 626 H 60.8758 -6.55521 -2.30905 0
M  V30 627 H 64.0668 -4.31026 -1.82577 0
M  V30 628 H 64.2398 -6.06078 -2.29289 0
M  V30 629 N 57.6459 0.756429 -1.3826 0
M  V30 630 C 58.8759 1.54341 -1.3734 0
M  V30 631 C 59.2839 1.89159 0.0393917 0
M  V30 632 O 58.6269 1.5307 1.01565 0
M  V30 633 C 58.6889 2.87238 -2.16182 0
M  V30 634 C 58.3529 2.74973 -3.65019 0
M  V30 635 C 59.3499 2.44962 -4.58574 0
M  V30 636 C 57.0349 2.92515 -4.08338 0
M  V30 637 C 59.0289 2.32642 -5.93428 0
M  V30 638 C 56.7159 2.79815 -5.43274 0
M  V30 639 C 57.7139 2.49921 -6.35632 0
M  V30 640 O 57.4019 2.37275 -7.68086 0
M  V30 641 H 57.1339 0.484281 -0.471643 0
M  V30 642 H 59.6879 0.944152 -1.82414 0
M  V30 643 H 57.9179 3.49342 -1.65822 0
M  V30 644 H 59.6069 3.48731 -2.07705 0
M  V30 645 H 60.3729 2.31081 -4.26412 0
M  V30 646 H 56.2519 3.14781 -3.368 0
M  V30 647 H 59.7959 2.0923 -6.65484 0
M  V30 648 H 55.6929 2.93269 -5.75034 0
M  V30 649 H 56.4609 2.52509 -7.78577 0
M  V30 650 N 59.124 1.23083 0.984299 0
M  V30 651 C 60.54 0.992637 1.24975 0
M  V30 652 C 60.74 -0.308618 1.99123 0
M  V30 653 O 59.796 -1.02905 2.30579 0
M  V30 654 C 61.109 2.19698 2.05312 0
M  V30 655 C 62.657 2.24147 2.18465 0
M  V30 656 C 63.132 3.44157 3.02192 0
M  V30 657 N 64.623 3.44372 3.09777 0
M  V30 658 C 65.358 4.33886 3.74874 0
M  V30 659 N 64.854 5.3363 4.41827 0
M  V30 660 N 66.647 4.21639 3.71721 0
M  V30 661 H 58.798 2.06731 0.487453 0
M  V30 662 H 61.061 0.906339 0.277944 0
M  V30 663 H 60.767 3.1411 1.58201 0
M  V30 664 H 60.641 2.20465 3.06064 0
M  V30 665 H 63.028 1.30277 2.64786 0
M  V30 666 H 63.109 2.27415 1.17115 0
M  V30 667 H 62.753 4.38332 2.56568 0
M  V30 668 H 62.683 3.3813 4.03702 0
M  V30 669 H 65.174 2.72201 2.62135 0
M  V30 670 H 65.487 5.98196 4.89266 0
M  V30 671 H 63.832 5.37534 4.40548 0
M  V30 672 H 67.023 3.42962 3.18582 0
M  V30 673 H 67.196 4.91604 4.22173 0
M  V30 674 N 60.6021 -1.18246 1.0419 0
M  V30 675 C 61.5321 -2.24127 0.654914 0
M  V30 676 C 62.5131 -1.66617 -0.342451 0
M  V30 677 O 63.6981 -1.92924 -0.222277 0
M  V30 678 C 60.8281 -3.47295 0.0183757 0
M  V30 679 C 59.7821 -4.17563 0.939414 0
M  V30 680 C 59.1081 -5.34438 0.167286 0
M  V30 681 C 60.4081 -4.70917 2.25908 0
M  V30 682 H 62.1021 -2.56753 1.54007 0
M  V30 683 H 59.6481 -1.23414 0.74195 0
M  V30 684 H 61.6011 -4.20572 -0.264082 0
M  V30 685 H 60.3251 -3.13907 -0.901664 0
M  V30 686 H 58.9841 -3.46186 1.20628 0
M  V30 687 H 58.6321 -4.97298 -0.7552 0
M  V30 688 H 58.3321 -5.82388 0.780901 0
M  V30 689 H 59.8561 -6.10504 -0.108125 0
M  V30 690 H 61.2701 -5.35882 2.03724 0
M  V30 691 H 59.6671 -5.29406 2.82577 0
M  V30 692 H 60.7371 -3.88272 2.9047 0
M  V30 693 N 62.0802 -0.821533 -1.34494 0
M  V30 694 C 63.3282 -0.408139 -1.97936 0
M  V30 695 C 63.6492 1.03193 -1.65457 0
M  V30 696 O 62.9192 1.71622 -0.944595 0
M  V30 697 H 61.4992 -0.147928 -0.732206 0
M  V30 698 H 64.1612 -1.05067 -1.64155 0
M  V30 699 H 63.2572 -0.52601 -3.07635 0
M  V30 700 N 63.5583 1.46682 -0.576371 0
M  V30 701 C 64.9693 1.86112 -0.148091 0
M  V30 702 C 65.3203 1.48073 1.2872 0
M  V30 703 O 64.4453 0.892656 1.97131 0
M  V30 704 C 65.0403 3.37786 -0.261982 0
M  V30 705 C 63.5993 3.76235 0.111384 0
M  V30 706 C 62.7463 2.70713 -0.60083 0
M  V30 707 H 65.6973 1.37927 -0.78497 0
M  V30 708 H 65.7183 3.77007 0.514364 0
M  V30 709 H 65.2303 3.6544 -1.30671 0
M  V30 710 H 63.3313 3.54198 1.15649 0
M  V30 711 H 63.4443 4.78391 -0.26052 0
M  V30 712 H 61.8083 2.54666 -0.0417783 0
M  V30 713 H 62.5913 3.01208 -1.64708 0
M  V30 714 N 65.0364 0.313813 1.54444 0
M  V30 715 C 65.9464 -0.565714 2.27677 0
M  V30 716 C 66.9624 -1.13754 1.31666 0
M  V30 717 O 68.1384 -1.15959 1.64668 0
M  V30 718 C 65.2034 -1.71528 3.01296 0
M  V30 719 C 64.2644 -1.17624 4.12872 0
M  V30 720 C 63.4974 -2.27102 4.8297 0
M  V30 721 O 63.7204 -3.47256 4.52514 0
M  V30 722 O 62.6544 -1.9307 5.70094 0
M  V30 723 H 66.4804 0.0287296 3.03686 0
M  V30 724 H 64.0654 0.0798312 1.49187 0
M  V30 725 H 65.9474 -2.38476 3.4743 0
M  V30 726 H 64.6224 -2.29608 2.2817 0
M  V30 727 H 63.5294 -0.472124 3.71109 0
M  V30 728 H 64.8624 -0.640695 4.88012 0
M  V30 729 N 66.5145 -1.57545 0.0417849 0
M  V30 730 C 67.4445 -2.14009 -0.933929 0
M  V30 731 C 68.4255 -1.05938 -1.33083 0
M  V30 732 O 69.6105 -1.33833 -1.40721 0
M  V30 733 C 66.7405 -2.67747 -2.21199 0
M  V30 734 C 65.6945 -3.80718 -1.95544 0
M  V30 735 C 65.0205 -4.20935 -3.29724 0
M  V30 736 C 66.3205 -5.06258 -1.28452 0
M  V30 737 H 68.0145 -2.95788 -0.463645 0
M  V30 738 H 65.5605 -1.42285 -0.221573 0
M  V30 739 H 67.5135 -3.05886 -2.89848 0
M  V30 740 H 66.2375 -1.83147 -2.70416 0
M  V30 741 H 64.8965 -3.43037 -1.2931 0
M  V30 742 H 64.5445 -3.33298 -3.76724 0
M  V30 743 H 64.2445 -4.9707 -3.13361 0
M  V30 744 H 65.7685 -4.61666 -3.9962 0
M  V30 745 H 67.1825 -5.41903 -1.8712 0
M  V30 746 H 65.5795 -5.87475 -1.22445 0
M  V30 747 H 66.6495 -4.84207 -0.259219 0
M  V30 748 N 67.9926 0.231505 -1.5589 0
M  V30 749 C 68.9026 1.308 -1.94752 0
M  V30 750 C 69.9186 1.51826 -0.849989 0
M  V30 751 O 71.0946 1.6515 -1.15271 0
M  V30 752 C 68.1596 2.63968 -2.24771 0
M  V30 753 C 67.2206 2.51331 -3.48039 0
M  V30 754 C 66.4536 3.78148 -3.76616 0
M  V30 755 O 66.6766 4.80722 -3.07022 0
M  V30 756 O 65.6106 3.75857 -4.70123 0
M  V30 757 H 69.4366 1.0083 -2.86474 0
M  V30 758 H 67.0216 0.433547 -1.42971 0
M  V30 759 H 68.9036 3.42633 -2.45318 0
M  V30 760 H 67.5786 2.9364 -1.36225 0
M  V30 761 H 66.4856 1.709 -3.32782 0
M  V30 762 H 67.8186 2.26601 -4.36936 0
M  V30 763 N 69.4707 1.49531 0.497807 0
M  V30 764 C 70.7197 1.58426 1.24837 0
M  V30 765 C 71.0327 0.277643 1.93619 0
M  V30 766 O 72.2387 0.24517 2.70391 0
M  V30 767 C 70.6947 2.79538 2.26686 0
M  V30 768 C 70.3027 4.16971 1.63828 0
M  V30 769 C 72.0467 2.97764 3.0255 0
M  V30 770 C 69.9537 5.29301 2.63807 0
M  V30 771 H 68.8837 0.58989 0.469623 0
M  V30 772 H 71.5347 1.75923 0.521857 0
M  V30 773 H 69.9167 2.55542 3.02514 0
M  V30 774 H 71.0907 4.51116 0.939711 0
M  V30 775 H 69.4057 4.04129 1.00342 0
M  V30 776 H 72.0027 3.78856 3.77323 0
M  V30 777 H 72.3457 2.08448 3.60354 0
M  V30 778 H 72.8787 3.21815 2.33838 0
M  V30 779 H 69.6177 6.20687 2.10779 0
M  V30 780 H 69.1377 4.99606 3.31894 0
M  V30 781 H 70.8167 5.58768 3.2617 0
M  V30 782 N 70.9488 -0.749086 1.3866 0
M  V30 783 C 72.1888 -1.52112 1.36534 0
M  V30 784 C 72.5528 -1.91951 -0.0432316 0
M  V30 785 O 73.7538 -2.68132 -0.189396 0
M  V30 786 C 72.0248 -2.73704 2.29828 0
M  V30 787 S 73.5838 -3.63519 2.45763 0
M  V30 788 H 70.4018 -0.520482 0.484375 0
M  V30 789 H 73.0038 -0.878963 1.74627 0
M  V30 790 H 71.7078 -2.42552 3.31054 0
M  V30 791 H 71.2388 -3.4286 1.929 0
M  V30 792 H 73.2538 -4.66712 1.68505 0
M  V30 793 N 72.4269 -1.23603 -0.977757 0
M  V30 794 C 73.6749 -1.06759 -1.71601 0
M  V30 795 C 73.9959 0.395929 -1.90938 0
M  V30 796 O 73.2659 1.28356 -1.47992 0
M  V30 797 H 71.8459 -0.392062 -0.635843 0
M  V30 798 H 74.5079 -1.55362 -1.1768 0
M  V30 799 H 73.6039 -1.55763 -2.70452 0
M  V30 800 N 73.905 1.17692 -1.04816 0
M  V30 801 C 75.135 1.91508 -0.775128 0
M  V30 802 C 75.543 1.76844 0.67253 0
M  V30 803 O 74.886 1.10057 1.47082 0
M  V30 804 C 74.948 3.43167 -1.0713 0
M  V30 805 C 74.612 3.81612 -2.51438 0
M  V30 806 C 75.609 3.84772 -3.49638 0
M  V30 807 C 73.294 4.12687 -2.86348 0
M  V30 808 C 75.288 4.18469 -4.80794 0
M  V30 809 C 72.975 4.46053 -4.17708 0
M  V30 810 C 73.973 4.48921 -5.14741 0
M  V30 811 O 73.661 4.81504 -6.43746 0
M  V30 812 H 73.393 0.614575 -0.281555 0
M  V30 813 H 75.947 1.50206 -1.40098 0
M  V30 814 H 74.177 3.84745 -0.388342 0
M  V30 815 H 75.866 3.98239 -0.784883 0
M  V30 816 H 76.632 3.60893 -3.24008 0
M  V30 817 H 72.511 4.09627 -2.11486 0
M  V30 818 H 76.055 4.20623 -5.56527 0
M  V30 819 H 71.952 4.69393 -4.43103 0
M  V30 820 H 72.72 4.99377 -6.4851 0
M  V30 821 N 75.3831 0.828654 1.34056 0
M  V30 822 C 76.6311 0.41863 1.97717 0
M  V30 823 C 76.9521 -1.02314 1.66002 0
M  V30 824 O 76.2221 -1.71119 0.953683 0
M  V30 825 H 74.8021 0.151809 0.731412 0
M  V30 826 H 77.4641 1.05936 1.63596 0
M  V30 827 H 76.5601 0.542318 3.07352 0
M  V30 828 N 76.8612 -1.46375 0.584142 0
M  V30 829 C 78.1012 -2.0427 0.0729695 0
M  V30 830 C 78.4652 -1.44563 -1.26355 0
M  V30 831 O 79.6662 -1.93667 -1.86405 0
M  V30 832 C 77.9372 -3.57399 0.00967464 0
M  V30 833 S 79.4962 -4.36551 -0.443714 0
M  V30 834 H 76.3142 -0.709975 0.0381673 0
M  V30 835 H 78.9162 -1.79398 0.776962 0
M  V30 836 H 77.6202 -3.98372 0.986319 0
M  V30 837 H 77.1512 -3.8681 -0.717044 0
M  V30 838 H 79.1662 -4.66237 -1.69816 0
M  V30 839 N 78.3393 -0.321999 -1.54275 0
M  V30 840 C 79.5853 0.274234 -2.01543 0
M  V30 841 C 79.9403 1.499 -1.20614 0
M  V30 842 O 79.2333 1.89546 -0.279804 0
M  V30 843 C 79.4273 0.661769 -3.5122 0
M  V30 844 C 79.2563 -0.523892 -4.46638 0
M  V30 845 C 78.0263 -1.02251 -4.94846 0
M  V30 846 C 80.2243 -1.37558 -4.95563 0
M  V30 847 N 78.2063 -2.17274 -5.74165 0
M  V30 848 C 79.5773 -2.37301 -5.7279 0
M  V30 849 C 81.6323 -1.40353 -4.77709 0
M  V30 850 C 80.3353 -3.3964 -6.34064 0
M  V30 851 C 82.3613 -2.41562 -5.39817 0
M  V30 852 C 81.7233 -3.40031 -6.16894 0
M  V30 853 H 77.8223 0.0642367 -0.779357 0
M  V30 854 H 80.4063 -0.456683 -1.89268 0
M  V30 855 H 78.5773 1.36182 -3.63743 0
M  V30 856 H 80.3093 1.23934 -3.85256 0
M  V30 857 H 77.0643 -0.594046 -4.6986 0
M  V30 858 H 77.4883 -2.75289 -6.18502 0
M  V30 859 H 82.1303 -0.655907 -4.17681 0
M  V30 860 H 79.8483 -4.15309 -6.93213 0
M  V30 861 H 83.4343 -2.44524 -5.2792 0
M  V30 862 H 82.3143 -4.17063 -6.64099 0
M  V30 863 N 79.8174 1.5752 -0.0501392 0
M  V30 864 C 81.0944 1.83996 0.663685 0
M  V30 865 C 81.4744 0.938339 1.89099 0
M  V30 866 O 80.8224 -0.00087759 2.285 0
M  V30 867 C 81.0324 3.33702 1.02196 0
M  V30 868 C 82.3804 4.00691 1.40469 0
M  V30 869 O 83.4044 3.38321 1.11433 0
M  V30 870 O 82.2634 5.10658 1.94654 0
M  V30 871 H 79.3574 0.759385 0.32751 0
M  V30 872 H 81.9034 1.69514 -0.0794238 0
M  V30 873 H 80.6754 3.91015 0.149364 0
M  V30 874 H 80.2984 3.53368 1.82255 0
M  V30 875 N 81.2955 -0.223234 1.56011 0
M  V30 876 C 82.2455 -1.28008 1.88674 0
M  V30 877 C 83.2295 -1.42369 0.749663 0
M  V30 878 O 84.4215 -1.45212 1.01205 0
M  V30 879 C 81.5505 -2.63084 2.20548 0
M  V30 880 C 80.6365 -2.52632 3.40643 0
M  V30 881 N 81.0275 -2.11829 4.59306 0
M  V30 882 C 79.3255 -2.83594 3.44224 0
M  V30 883 C 80.0265 -2.12587 5.41463 0
M  V30 884 N 79.0025 -2.5301 4.81131 0
M  V30 885 H 82.8045 -0.955487 2.77935 0
M  V30 886 H 80.3185 -0.431801 1.56554 0
M  V30 887 H 82.3155 -3.39385 2.42122 0
M  V30 888 H 80.9755 -2.96391 1.32599 0
M  V30 889 H 81.9865 -1.82988 4.84496 0
M  V30 890 H 78.6635 -3.21284 2.66614 0
M  V30 891 H 80.0535 -1.83179 6.46448 0
M  V30 892 N 82.7736 -1.49793 -0.48987 0
M  V30 893 C 84.0036 -1.6333 -1.26518 0
M  V30 894 C 84.4116 -0.308392 -1.8667 0
M  V30 895 O 83.7546 0.717512 -1.69108 0
M  V30 896 C 83.8166 -2.6522 -2.4269 0
M  V30 897 C 83.4806 -4.09279 -2.03321 0
M  V30 898 C 84.4776 -4.95738 -1.56652 0
M  V30 899 C 82.1626 -4.55082 -2.12616 0
M  V30 900 C 84.1566 -6.26041 -1.19795 0
M  V30 901 C 81.8436 -5.85396 -1.75371 0
M  V30 902 C 82.8416 -6.707 -1.29036 0
M  V30 903 O 82.5296 -7.98584 -0.92299 0
M  V30 904 H 82.2616 -0.552502 -0.389509 0
M  V30 905 H 84.8156 -1.96642 -0.593381 0
M  V30 906 H 83.0456 -2.27112 -3.12981 0
M  V30 907 H 84.7346 -2.68171 -3.04695 0
M  V30 908 H 85.5006 -4.61575 -1.48908 0
M  V30 909 H 81.3796 -3.88844 -2.47631 0
M  V30 910 H 84.9236 -6.92578 -0.835582 0
M  V30 911 H 80.8206 -6.19085 -1.82768 0
M  V30 912 H 81.5886 -8.11692 -1.05349 0
M  V30 913 N 84.2517 0.741722 -1.39055 0
M  V30 914 C 85.4817 1.52876 -1.3897 0
M  V30 915 C 85.8897 1.8919 0.0193266 0
M  V30 916 O 85.2327 1.54138 0.999356 0
M  V30 917 C 85.2947 2.84929 -2.19216 0
M  V30 918 C 84.9587 2.71086 -3.67915 0
M  V30 919 C 85.9557 2.40084 -4.61146 0
M  V30 920 C 83.6407 2.88168 -4.11418 0
M  V30 921 C 85.6347 2.26335 -5.95862 0
M  V30 922 C 83.3217 2.74037 -5.46211 0
M  V30 923 C 84.3197 2.43166 -6.38247 0
M  V30 924 O 84.0077 2.29115 -7.70559 0
M  V30 925 H 83.7397 0.479252 -0.476753 0
M  V30 926 H 86.2937 0.924751 -1.83405 0
M  V30 927 H 84.5237 3.47564 -1.69518 0
M  V30 928 H 86.2127 3.46509 -2.11392 0
M  V30 929 H 86.9787 2.26545 -4.28838 0
M  V30 930 H 82.8577 3.11191 -3.40119 0
M  V30 931 H 86.4017 2.0216 -6.67665 0
M  V30 932 H 82.2987 2.87153 -5.78112 0
M  V30 933 H 83.0667 2.44237 -7.81211 0
M  V30 934 N 85.7298 1.2412 0.971189 0
M  V30 935 C 86.6398 1.04747 2.09917 0
M  V30 936 C 87.6558 -0.0107162 1.73997 0
M  V30 937 O 88.8318 0.186714 2.00533 0
M  V30 938 C 85.8968 0.650828 3.40537 0
M  V30 939 C 84.9578 1.7851 3.90426 0
M  V30 940 C 84.1908 1.40729 5.14812 0
M  V30 941 O 84.4138 0.29557 5.69634 0
M  V30 942 O 83.3478 2.23168 5.58999 0
M  V30 943 H 87.1738 1.99304 2.29154 0
M  V30 944 H 84.7588 1.02908 1.08307 0
M  V30 945 H 86.6408 0.440992 4.19086 0
M  V30 946 H 85.3158 -0.265649 3.22608 0
M  V30 947 H 84.2228 2.04966 3.12953 0
M  V30 948 H 85.5558 2.68023 4.12825 0
M  V30 949 N 87.2079 -1.17134 1.05439 0
M  V30 950 C 88.4329 -1.91913 0.786396 0
M  V30 951 C 88.8579 -1.7643 -0.652234 0
M  V30 952 O 88.2159 -1.08372 -1.45345 0
M  V30 953 C 88.2639 -3.40921 1.17497 0
M  V30 954 O 87.3679 -4.11244 0.308589 0
M  V30 955 H 86.7089 -0.598215 0.288158 0
M  V30 956 H 89.2389 -1.48457 1.4079 0
M  V30 957 H 89.2489 -3.91668 1.14281 0
M  V30 958 H 87.9239 -3.5151 2.22292 0
M  V30 959 H 86.5009 -3.70731 0.40157 0
M  V30 960 N 88.686 -0.835752 -1.33615 0
M  V30 961 C 89.963 -0.352017 -1.92406 0
M  V30 962 C 90.343 1.16225 -1.76224 0
M  V30 963 O 89.691 1.97526 -1.14873 0
M  V30 964 C 89.901 -0.795485 -3.39813 0
M  V30 965 C 91.249 -0.801703 -4.16963 0
M  V30 966 O 92.273 -0.738889 -3.48452 0
M  V30 967 O 91.132 -0.886607 -5.3926 0
M  V30 968 H 88.226 -0.0989641 -0.821057 0
M  V30 969 H 90.772 -0.921397 -1.42507 0
M  V30 970 H 89.544 -1.83795 -3.45449 0
M  V30 971 H 89.167 -0.202505 -3.97084 0
M  V30 972 N 90.1641 1.46063 -0.591896 0
M  V30 973 C 91.3921 2.06717 -0.0868936 0
M  V30 974 C 91.8071 1.43916 1.22203 0
M  V30 975 O 91.1641 0.547698 1.74088 0
M  V30 976 C 91.2151 3.6142 0.0758725 0
M  V30 977 O 90.9361 4.21874 -1.18126 0
M  V30 978 C 92.4371 4.39025 0.61416 0
M  V30 979 H 89.6571 0.668162 -0.0616518 0
M  V30 980 H 92.2011 1.8755 -0.815175 0
M  V30 981 H 90.3561 3.79983 0.754413 0
M  V30 982 H 90.7701 5.14861 -1.00092 0
M  V30 983 H 92.2441 5.4783 0.677193 0
M  V30 984 H 92.7211 4.07708 1.63312 0
M  V30 985 H 93.3271 4.2529 -0.0298142 0
M  V30 986 N 91.6422 0.330177 1.54103 0
M  V30 987 C 92.5722 -0.525353 2.27513 0
M  V30 988 C 93.5532 -1.11383 1.2856 0
M  V30 989 O 94.7382 -1.13773 1.57383 0
M  V30 990 C 91.8682 -1.6831 3.03791 0
M  V30 991 C 90.8222 -1.2236 4.10137 0
M  V30 992 C 90.1482 -2.46882 4.74293 0
M  V30 993 C 91.4482 -0.333697 5.21233 0
M  V30 994 H 93.1422 0.087013 2.99274 0
M  V30 995 H 90.6882 0.0432893 1.43935 0
M  V30 996 H 92.6412 -2.28795 3.5388 0
M  V30 997 H 91.3652 -2.32216 2.29659 0
M  V30 998 H 90.0242 -0.64165 3.60941 0
M  V30 999 H 89.6722 -3.09165 3.96769 0
M  V30 1000 H 89.3722 -2.16825 5.46133 0
M  V30 1001 H 90.8962 -3.08117 5.27159 0
M  V30 1002 H 92.3102 -0.845013 5.67038 0
M  V30 1003 H 90.7072 -0.125612 5.99969 0
M  V30 1004 H 91.7772 0.633724 4.80741 0
M  V30 1005 N 93.1203 -1.57491 0.0584922 0
M  V30 1006 C 94.0503 -2.14988 -0.911178 0
M  V30 1007 C 95.0313 -1.07343 -1.31952 0
M  V30 1008 O 96.2163 -1.35318 -1.39294 0
M  V30 1009 C 93.3463 -2.70078 -2.18347 0
M  V30 1010 C 92.3003 -3.82771 -1.91495 0
M  V30 1011 C 91.6263 -4.24408 -3.25241 0
M  V30 1012 C 92.9263 -5.07592 -1.23075 0
M  V30 1013 H 94.6203 -2.96263 -0.432246 0
M  V30 1014 H 92.1663 -1.42512 -0.206469 0
M  V30 1015 H 94.1193 -3.08943 -2.86587 0
M  V30 1016 H 92.8433 -1.86005 -2.68458 0
M  V30 1017 H 91.5023 -3.44389 -1.25664 0
M  V30 1018 H 91.1503 -3.37275 -3.73168 0
M  V30 1019 H 90.8503 -5.00366 -3.08071 0
M  V30 1020 H 92.3743 -4.65879 -3.94701 0
M  V30 1021 H 93.7883 -5.43857 -1.81362 0
M  V30 1022 H 92.1853 -5.88741 -1.16207 0
M  V30 1023 H 93.2553 -4.84454 -0.207847 0
M  V30 1024 N 94.5984 0.214957 -1.56127 0
M  V30 1025 C 95.5484 1.27006 -1.8935 0
M  V30 1026 C 96.5324 1.41969 -0.757202 0
M  V30 1027 O 97.7244 1.44673 -1.01973 0
M  V30 1028 C 94.8534 2.61911 -2.2194 0
M  V30 1029 C 93.9394 2.50822 -3.41978 0
M  V30 1030 N 94.3304 2.09391 -4.60423 0
M  V30 1031 C 92.6284 2.81765 -3.45723 0
M  V30 1032 C 93.3294 2.09712 -5.42582 0
M  V30 1033 N 92.3054 2.50454 -4.82466 0
M  V30 1034 H 96.1074 0.940734 -2.78437 0
M  V30 1035 H 93.6214 0.423492 -1.56781 0
M  V30 1036 H 95.6184 3.38096 -2.43919 0
M  V30 1037 H 94.2784 2.95684 -1.34169 0
M  V30 1038 H 95.2894 1.80416 -4.85459 0
M  V30 1039 H 91.9664 3.19865 -2.68314 0
M  V30 1040 H 93.3564 1.79748 -6.4741 0
M  V30 1041 N 96.0765 1.50051 0.48192 0
M  V30 1042 C 97.3015 1.64508 1.26301 0
M  V30 1043 C 97.7265 0.323851 1.85291 0
M  V30 1044 O 97.0845 -0.710969 1.66778 0
M  V30 1045 C 97.1325 2.7305 2.35533 0
M  V30 1046 O 96.2365 2.3355 3.39895 0
M  V30 1047 H 95.5775 0.549978 0.372048 0
M  V30 1048 H 98.1075 1.9636 0.574786 0
M  V30 1049 H 98.1175 2.95799 2.8101 0
M  V30 1050 H 96.7925 3.68946 1.91967 0
M  V30 1051 H 95.3695 2.21205 3.00204 0
M  V30 1052 N 97.5546 -0.734337 1.39446 0
M  V30 1053 C 98.8016 -1.49391 1.36706 0
M  V30 1054 C 99.1296 -1.94465 -0.0367813 0
M  V30 1055 O 98.3846 -1.67154 -1.01774 0
M  V30 1056 C 98.6836 -2.74711 2.28623 0
M  V30 1057 C 98.3496 -2.48501 3.76242 0
M  V30 1058 C 97.0116 -2.41062 4.16464 0
M  V30 1059 C 99.3636 -2.26098 4.69606 0
M  V30 1060 C 96.6916 -2.09262 5.48112 0
M  V30 1061 C 99.0436 -1.95814 6.01531 0
M  V30 1062 C 97.7076 -1.86845 6.40816 0
M  V30 1063 H 96.9776 -0.546661 0.500243 0
M  V30 1064 H 99.6246 -0.842788 1.71957 0
M  V30 1065 H 97.9296 -3.44569 1.86492 0
M  V30 1066 H 99.6266 -3.32741 2.23796 0
M  V30 1067 H 96.2166 -2.55169 3.44364 0
M  V30 1068 H 100.401 -2.30812 4.39363 0
M  V30 1069 H 95.6566 -2.00841 5.77471 0
M  V30 1070 H 99.8306 -1.77488 6.73403 0
M  V30 1071 H 97.4576 -1.6197 7.42745 0
M  V30 1072 N 99.0327 -1.24633 -0.964593 0
M  V30 1073 C 99.9647 -0.999302 -2.06268 0
M  V30 1074 C 100.978 0.0323226 -1.62768 0
M  V30 1075 O 102.167 -0.205079 -1.77318 0
M  V30 1076 C 99.2667 -0.486816 -3.35385 0
M  V30 1077 C 98.4397 -1.5823 -4.07777 0
M  V30 1078 C 97.4987 -1.07191 -5.15166 0
M  V30 1079 O 96.5247 -1.76426 -5.41168 0
M  V30 1080 N 97.7267 0.0920373 -5.80427 0
M  V30 1081 H 100.492 -1.94477 -2.28033 0
M  V30 1082 H 98.0527 -1.15704 -1.13244 0
M  V30 1083 H 100.045 -0.130066 -4.04491 0
M  V30 1084 H 98.6147 0.364459 -3.10468 0
M  V30 1085 H 97.8347 -2.11109 -3.32906 0
M  V30 1086 H 99.1227 -2.31854 -4.52903 0
M  V30 1087 H 98.5207 0.670784 -5.61709 0
M  V30 1088 H 97.0777 0.389905 -6.50633 0
M  V30 1089 N 100.511 1.16574 -1.06058 0
M  V30 1090 C 101.757 1.87324 -0.777022 0
M  V30 1091 C 102.09 1.81351 0.694645 0
M  V30 1092 O 101.365 1.22753 1.50871 0
M  V30 1093 C 101.648 3.36991 -1.26922 0
M  V30 1094 C 101.501 3.51667 -2.80447 0
M  V30 1095 C 102.82 4.3131 -0.87521 0
M  V30 1096 H 99.9388 0.680191 -0.28374 0
M  V30 1097 H 102.581 1.37036 -1.3161 0
M  V30 1098 H 100.731 3.79949 -0.81063 0
M  V30 1099 H 102.403 3.17664 -3.34495 0
M  V30 1100 H 100.646 2.93656 -3.19294 0
M  V30 1101 H 101.317 4.56766 -3.0995 0
M  V30 1102 H 103.793 3.9624 -1.27014 0
M  V30 1103 H 102.669 5.34545 -1.2471 0
M  V30 1104 H 102.93 4.41552 0.220071 0
M  V30 1105 N 101.989 0.842826 1.3317 0
M  V30 1106 C 102.919 0.294028 2.31641 0
M  V30 1107 C 103.9 -0.600401 1.59151 0
M  V30 1108 O 105.085 -0.523124 1.87022 0
M  V30 1109 C 102.215 -0.528416 3.43257 0
M  V30 1110 C 101.169 0.27056 4.27144 0
M  V30 1111 C 100.495 -0.675881 5.30411 0
M  V30 1112 C 101.795 1.48981 5.00602 0
M  V30 1113 H 103.489 1.11681 2.77791 0
M  V30 1114 H 101.035 0.538478 1.33553 0
M  V30 1115 H 102.988 -0.922674 4.11175 0
M  V30 1116 H 101.712 -1.38445 2.95805 0
M  V30 1117 H 100.371 0.646427 3.60856 0
M  V30 1118 H 100.019 -1.52842 4.79216 0
M  V30 1119 H 99.7189 -0.145374 5.8742 0
M  V30 1120 H 101.243 -1.06757 6.01195 0
M  V30 1121 H 102.657 1.16849 5.61266 0
M  V30 1122 H 101.054 1.95739 5.6728 0
M  V30 1123 H 102.124 2.25746 4.29147 0
M  V30 1124 N 103.467 -1.45747 0.599634 0
M  V30 1125 C 104.43 -2.28917 -0.113835 0
M  V30 1126 C 105.43 -1.3933 -0.802729 0
M  V30 1127 O 106.62 -1.61534 -0.652103 0
M  V30 1128 C 103.752 -3.20152 -1.17114 0
M  V30 1129 H 104.945 -2.93478 0.617289 0
M  V30 1130 H 102.498 -1.52137 0.358327 0
M  V30 1131 H 103.233 -2.60374 -1.93329 0
M  V30 1132 H 103.018 -3.86133 -0.681468 0
M  V30 1133 H 104.508 -3.82708 -1.67105 0
M  V30 1134 N 104.945 -0.338344 -1.53925 0
M  V30 1135 C 105.908 0.508299 -2.23493 0
M  V30 1136 C 106.908 1.03175 -1.23335 0
M  V30 1137 O 108.098 0.921826 -1.47811 0
M  V30 1138 C 105.23 1.70754 -2.95052 0
M  V30 1139 H 106.423 -0.100058 -2.99733 0
M  V30 1140 H 103.976 -0.0896198 -1.56043 0
M  V30 1141 H 104.711 2.35474 -2.22986 0
M  V30 1142 H 104.496 1.33946 -3.68512 0
M  V30 1143 H 105.986 2.30818 -3.48013 0
M  V30 1144 N 106.423 1.57458 -0.0668435 0
M  V30 1145 C 107.353 2.15468 0.899764 0
M  V30 1146 C 108.334 1.08042 1.31381 0
M  V30 1147 O 109.519 1.36054 1.38574 0
M  V30 1148 C 106.649 2.71232 2.16911 0
M  V30 1149 C 105.603 3.83781 1.89463 0
M  V30 1150 C 104.929 4.26127 3.22986 0
M  V30 1151 C 106.229 5.08238 1.20381 0
M  V30 1152 H 107.923 2.96488 0.416529 0
M  V30 1153 H 105.469 1.4262 0.198908 0
M  V30 1154 H 107.422 3.10458 2.84945 0
M  V30 1155 H 106.146 1.87426 2.67468 0
M  V30 1156 H 104.805 3.45051 1.23836 0
M  V30 1157 H 104.453 3.39249 3.71374 0
M  V30 1158 H 104.153 5.01993 3.05413 0
M  V30 1159 H 105.677 4.67966 3.92225 0
M  V30 1160 H 107.091 5.44811 1.78475 0
M  V30 1161 H 105.488 5.89349 1.13083 0
M  V30 1162 H 106.558 4.84558 0.182153 0
M  V30 1163 N 107.901 -0.206675 1.56239 0
M  V30 1164 C 109.147 -0.930218 1.80208 0
M  V30 1165 C 109.48 -1.83387 0.638981 0
M  V30 1166 O 108.755 -1.91119 -0.361066 0
M  V30 1167 C 109.038 -1.75641 3.1436 0
M  V30 1168 C 108.891 -0.878257 4.41142 0
M  V30 1169 C 110.21 -2.73129 3.45092 0
M  V30 1170 H 107.329 -0.336742 0.655571 0
M  V30 1171 H 109.971 -0.198222 1.88963 0
M  V30 1172 H 108.121 -2.38048 3.07027 0
M  V30 1173 H 109.793 -0.269787 4.6051 0
M  V30 1174 H 108.036 -0.184385 4.33408 0
M  V30 1175 H 108.707 -1.49106 5.3148 0
M  V30 1176 H 111.183 -2.20856 3.52649 0
M  V30 1177 H 110.059 -3.28028 4.40101 0
M  V30 1178 H 110.32 -3.51606 2.68003 0
M  V30 1179 N 109.379 -1.50304 -0.473955 0
M  V30 1180 C 110.289 -1.7174 -1.5982 0
M  V30 1181 C 111.305 -0.600457 -1.63311 0
M  V30 1182 O 112.481 -0.878441 -1.81233 0
M  V30 1183 C 109.546 -1.80427 -2.96052 0
M  V30 1184 C 108.607 -3.04148 -3.02972 0
M  V30 1185 C 107.84 -3.12411 -4.32706 0
M  V30 1186 O 108.063 -2.27542 -5.23049 0
M  V30 1187 O 106.997 -4.05113 -4.45159 0
M  V30 1188 H 110.823 -2.67035 -1.44657 0
M  V30 1189 H 108.408 -1.34366 -0.653148 0
M  V30 1190 H 110.29 -1.88338 -3.7697 0
M  V30 1191 H 108.965 -0.883156 -3.11419 0
M  V30 1192 H 107.872 -3.0174 -2.21142 0
M  V30 1193 H 109.205 -3.95829 -2.92541 0
M  V30 1194 N 110.857 0.726932 -1.39834 0
M  V30 1195 C 112.082 1.52121 -1.40976 0
M  V30 1196 C 112.507 1.88098 -0.00826029 0
M  V30 1197 O 111.865 1.52479 0.980807 0
M  V30 1198 C 111.913 2.78021 -2.29644 0
M  V30 1199 O 111.017 3.74272 -1.73188 0
M  V30 1200 H 110.358 0.45908 -0.479731 0
M  V30 1201 H 112.888 0.896207 -1.83927 0
M  V30 1202 H 112.898 3.26671 -2.44438 0
M  V30 1203 H 111.573 2.51169 -3.31492 0
M  V30 1204 H 110.15 3.33073 -1.6768 0
M  V30 1205 N 112.336 1.25143 0.95797 0
M  V30 1206 C 113.747 1.08851 1.51685 0
M  V30 1207 C 114.098 -0.33687 1.93286 0
M  V30 1208 O 113.223 -1.22644 1.7829 0
M  V30 1209 C 113.818 1.96978 2.75654 0
M  V30 1210 C 112.377 1.84881 3.27866 0
M  V30 1211 C 111.524 1.91329 2.0072 0
M  V30 1212 H 114.475 1.38478 0.77522 0
M  V30 1213 H 114.496 1.5078 3.4935 0
M  V30 1214 H 114.008 3.00712 2.45345 0
M  V30 1215 H 112.109 0.840182 3.63004 0
M  V30 1216 H 112.222 2.6951 3.96107 0
M  V30 1217 H 110.586 1.35174 2.15871 0
M  V30 1218 H 111.369 2.96661 1.72764 0
M  V30 1219 N 113.814 -1.1601 1.06675 0
M  V30 1220 C 115.06 -1.86909 0.786945 0
M  V30 1221 C 115.393 -1.81717 -0.685018 0
M  V30 1222 O 114.668 -1.23551 -1.50218 0
M  V30 1223 C 114.951 -3.36313 1.28707 0
M  V30 1224 C 114.804 -3.50175 2.82308 0
M  V30 1225 C 116.123 -4.3084 0.898071 0
M  V30 1226 H 113.242 -0.678677 0.287343 0
M  V30 1227 H 115.884 -1.36336 1.32334 0
M  V30 1228 H 114.034 -3.79513 0.830768 0
M  V30 1229 H 115.706 -3.15886 3.36175 0
M  V30 1230 H 113.949 -2.91959 3.20847 0
M  V30 1231 H 114.62 -4.55116 3.12368 0
M  V30 1232 H 117.096 -3.95561 1.29114 0
M  V30 1233 H 115.972 -5.33876 1.27543 0
M  V30 1234 H 116.233 -4.41662 -0.196651 0
M  V30 1235 N 115.292 -0.849877 -1.32721 0
M  V30 1236 C 116.52 -0.464754 -2.01613 0
M  V30 1237 C 116.935 0.937191 -1.63897 0
M  V30 1238 O 116.292 1.61081 -0.857856 0
M  V30 1239 C 116.343 -0.588638 -3.56675 0
M  V30 1240 O 116.064 -1.93535 -3.93034 0
M  V30 1241 C 117.565 -0.2019 -4.4284 0
M  V30 1242 H 114.785 -0.183215 -0.645502 0
M  V30 1243 H 117.329 -1.1455 -1.69407 0
M  V30 1244 H 115.484 0.0443159 -3.87375 0
M  V30 1245 H 115.898 -1.92871 -4.87751 0
M  V30 1246 H 117.372 -0.339599 -5.50954 0
M  V30 1247 H 117.849 0.857224 -4.30753 0
M  V30 1248 H 118.455 -0.809733 -4.17521 0
M  V30 1249 N 116.77 1.45427 -0.607355 0
M  V30 1250 C 117.702 2.2871 0.149752 0
M  V30 1251 C 118.715 1.39937 0.831958 0
M  V30 1252 O 119.904 1.64313 0.697385 0
M  V30 1253 C 117.004 3.15673 1.23304 0
M  V30 1254 C 116.177 4.32722 0.637996 0
M  V30 1255 C 115.236 5.00895 1.61215 0
M  V30 1256 O 114.262 5.57697 1.13854 0
M  V30 1257 N 115.464 5.00159 2.94655 0
M  V30 1258 H 118.229 2.94328 -0.564882 0
M  V30 1259 H 115.79 1.55612 -0.446823 0
M  V30 1260 H 117.782 3.58144 1.88454 0
M  V30 1261 H 116.352 2.51965 1.8502 0
M  V30 1262 H 115.572 3.93734 -0.191572 0
M  V30 1263 H 116.86 5.08321 0.220665 0
M  V30 1264 H 116.258 4.553 3.35735 0
M  V30 1265 H 114.815 5.46495 3.55228 0
M  V30 1266 N 118.248 0.346503 1.53744 0
M  V30 1267 C 119.525 -0.304532 1.93215 0
M  V30 1268 C 119.905 -1.67993 1.27834 0
M  V30 1269 O 119.253 -2.24411 0.430352 0
M  V30 1270 C 119.463 -0.373852 3.46992 0
M  V30 1271 C 120.811 -0.62329 4.2 0
M  V30 1272 O 121.835 -0.455847 3.53271 0
M  V30 1273 O 120.694 -0.947879 5.38217 0
M  V30 1274 H 117.788 -0.178318 0.807547 0
M  V30 1275 H 120.334 0.397895 1.64969 0
M  V30 1276 H 119.106 0.591224 3.86808 0
M  V30 1277 H 118.729 -1.12294 3.81413 0
M  V30 1278 N 119.726 -1.57421 0.075193 0
M  V30 1279 C 120.975 -1.92794 -0.592731 0
M  V30 1280 C 121.288 -0.957478 -1.70563 0
M  V30 1281 O 122.494 -1.20417 -2.43335 0
M  V30 1282 C 120.95 -3.42495 -1.10569 0
M  V30 1283 C 120.558 -4.47994 -0.0236121 0
M  V30 1284 C 122.302 -3.86864 -1.74748 0
M  V30 1285 C 120.209 -5.88829 -0.550803 0
M  V30 1286 H 119.139 -0.719591 -0.225177 0
M  V30 1287 H 121.79 -1.82902 0.147978 0
M  V30 1288 H 120.172 -3.47471 -1.89947 0
M  V30 1289 H 121.346 -4.54637 0.751099 0
M  V30 1290 H 119.661 -4.13113 0.522159 0
M  V30 1291 H 122.258 -4.8947 -2.15229 0
M  V30 1292 H 122.601 -3.24417 -2.60882 0
M  V30 1293 H 123.134 -3.84504 -1.01986 0
M  V30 1294 H 119.873 -6.54929 0.273457 0
M  V30 1295 H 119.393 -5.85698 -1.29296 0
M  V30 1296 H 121.072 -6.38811 -1.02613 0
M  V30 1297 N 121.204 0.198386 -1.56346 0
M  V30 1298 C 122.453 0.917451 -1.79627 0
M  V30 1299 C 122.766 1.8456 -0.64784 0
M  V30 1300 O 123.972 2.60504 -0.764859 0
M  V30 1301 C 122.428 1.68175 -3.18191 0
M  V30 1302 C 122.036 0.798589 -4.40825 0
M  V30 1303 C 123.78 2.39065 -3.50782 0
M  V30 1304 C 121.687 1.56157 -5.70411 0
M  V30 1305 H 120.617 0.346317 -0.669762 0
M  V30 1306 H 123.268 0.170801 -1.82703 0
M  V30 1307 H 121.65 2.47216 -3.09354 0
M  V30 1308 H 122.824 0.0470665 -4.60776 0
M  V30 1309 H 121.139 0.200686 -4.15916 0
M  V30 1310 H 123.736 2.96692 -4.44835 0
M  V30 1311 H 124.079 3.13091 -2.74371 0
M  V30 1312 H 124.612 1.66993 -3.61052 0
M  V30 1313 H 121.351 0.864142 -6.49779 0
M  V30 1314 H 120.871 2.2871 -5.54483 0
M  V30 1315 H 122.55 2.11622 -6.11412 0
M  V30 1316 N 122.682 1.50554 0.465978 0
M  V30 1317 C 123.922 1.63439 1.22747 0
M  V30 1318 C 124.286 0.329822 1.89146 0
M  V30 1319 O 125.487 0.334161 2.66715 0
M  V30 1320 C 123.758 2.78542 2.2394 0
M  V30 1321 S 125.317 3.11591 3.0896 0
M  V30 1322 H 122.135 0.576113 0.416672 0
M  V30 1323 H 124.737 1.88357 0.523641 0
M  V30 1324 H 123.441 3.71805 1.7375 0
M  V30 1325 H 122.972 2.55726 2.98944 0
M  V30 1326 H 124.987 2.55811 4.25176 0
M  V30 1327 N 124.16 -0.719506 1.40217 0
M  V30 1328 C 125.437 -1.47221 1.28784 0
M  V30 1329 C 125.817 -2.10883 -0.0956067 0
M  V30 1330 O 125.165 -1.99833 -1.10811 0
M  V30 1331 C 125.375 -2.5111 2.42373 0
M  V30 1332 C 126.723 -3.17053 2.82423 0
M  V30 1333 O 127.747 -2.61429 2.41937 0
M  V30 1334 O 126.606 -4.17742 3.52355 0
M  V30 1335 H 123.7 -0.654491 0.50554 0
M  V30 1336 H 126.246 -0.752014 1.52128 0
M  V30 1337 H 125.018 -2.02556 3.34793 0
M  V30 1338 H 124.641 -3.3067 2.20778 0
M  V30 1339 N 125.638 -1.25649 -0.95132 0
M  V30 1340 C 126.884 -1.10757 -1.69884 0
M  V30 1341 C 127.217 0.350061 -1.91019 0
M  V30 1342 O 126.492 1.25783 -1.48354 0
M  V30 1343 C 126.775 -1.86606 -3.07978 0
M  V30 1344 C 126.628 -3.40217 -2.94232 0
M  V30 1345 C 127.947 -1.65182 -4.07925 0
M  V30 1346 H 125.066 -0.40374 -0.616574 0
M  V30 1347 H 127.708 -1.54521 -1.10558 0
M  V30 1348 H 125.858 -1.49409 -3.58621 0
M  V30 1349 H 127.53 -3.87108 -2.50889 0
M  V30 1350 H 125.773 -3.67759 -2.30078 0
M  V30 1351 H 126.444 -3.88505 -3.92133 0
M  V30 1352 H 128.92 -1.9757 -3.66204 0
M  V30 1353 H 127.796 -2.20683 -5.02583 0
M  V30 1354 H 128.057 -0.593933 -4.38092 0
M  V30 1355 N 127.117 1.15442 -1.07289 0
M  V30 1356 C 128.365 1.85845 -0.794096 0
M  V30 1357 C 128.686 1.82692 0.681809 0
M  V30 1358 O 127.956 1.26741 1.49377 0
M  V30 1359 H 126.536 0.688089 -0.290763 0
M  V30 1360 H 129.198 1.39947 -1.3565 0
M  V30 1361 H 128.294 2.91001 -1.12804 0
M  V30 1362 N 128.595 0.856903 1.32268 0
M  V30 1363 C 129.528 0.247937 2.26849 0
M  V30 1364 C 130.506 -0.615382 1.50505 0
M  V30 1365 O 131.69 -0.571689 1.79622 0
M  V30 1366 C 128.817 -0.650093 3.32403 0
M  V30 1367 C 127.863 0.140138 4.2627 0
M  V30 1368 S 128.696 1.51004 5.13769 0
M  V30 1369 C 129.852 0.61778 6.22844 0
M  V30 1370 H 130.085 1.04971 2.78152 0
M  V30 1371 H 127.618 0.654665 1.39834 0
M  V30 1372 H 129.576 -1.16256 3.93694 0
M  V30 1373 H 128.237 -1.4257 2.7988 0
M  V30 1374 H 127.43 -0.543945 5.01056 0
M  V30 1375 H 127.032 0.584267 3.69408 0
M  V30 1376 H 129.324 -0.177053 6.77269 0
M  V30 1377 H 130.267 1.33636 6.95375 0
M  V30 1378 H 130.675 0.191124 5.64176 0
M  V30 1379 N 130.073 -1.45103 0.615059 0
M  V30 1380 C 131.484 -1.85654 0.197383 0
M  V30 1381 C 131.835 -1.51433 -1.24749 0
M  V30 1382 O 130.96 -0.944608 -1.94695 0
M  V30 1383 C 131.555 -3.36972 0.351448 0
M  V30 1384 C 130.114 -3.76398 -0.011593 0
M  V30 1385 C 129.261 -2.69024 0.672394 0
M  V30 1386 H 132.212 -1.35797 0.821263 0
M  V30 1387 H 132.233 -3.78239 -0.414227 0
M  V30 1388 H 131.745 -3.61847 1.40314 0
M  V30 1389 H 129.846 -3.5714 -1.06217 0
M  V30 1390 H 129.959 -4.77532 0.387265 0
M  V30 1391 H 128.323 -2.54465 0.109284 0
M  V30 1392 H 129.106 -2.96735 1.72636 0
M  V30 1393 N 131.551 -0.354651 -1.53558 0
M  V30 1394 C 132.797 0.238797 -2.01389 0
M  V30 1395 C 133.13 1.49309 -1.2418 0
M  V30 1396 O 132.405 1.91638 -0.332457 0
M  V30 1397 C 132.688 0.541771 -3.56001 0
M  V30 1398 C 132.541 -0.725388 -4.43912 0
M  V30 1399 C 133.86 1.34685 -4.18984 0
M  V30 1400 H 130.979 0.0853177 -0.732045 0
M  V30 1401 H 133.621 -0.477384 -1.83905 0
M  V30 1402 H 131.771 1.15189 -3.71031 0
M  V30 1403 H 133.443 -1.36313 -4.407 0
M  V30 1404 H 131.686 -1.34801 -4.12324 0
M  V30 1405 H 132.357 -0.468505 -5.50008 0
M  V30 1406 H 134.833 0.830837 -4.07721 0
M  V30 1407 H 133.709 1.52759 -5.27215 0
M  V30 1408 H 133.97 2.35221 -3.74331 0
M  V30 1409 N 133.029 1.57378 -0.0835403 0
M  V30 1410 C 133.962 2.09016 0.915833 0
M  V30 1411 C 134.94 0.997993 1.2837 0
M  V30 1412 O 136.124 1.27219 1.39096 0
M  V30 1413 C 133.251 2.55757 2.22049 0
M  V30 1414 C 132.297 3.76522 2.00333 0
M  V30 1415 S 133.13 5.20661 1.25191 0
M  V30 1416 C 134.286 5.70743 2.56912 0
M  V30 1417 H 134.519 2.93457 0.476492 0
M  V30 1418 H 132.052 1.53856 0.129493 0
M  V30 1419 H 134.01 2.83346 2.97027 0
M  V30 1420 H 132.671 1.71564 2.63106 0
M  V30 1421 H 131.864 4.07256 2.96916 0
M  V30 1422 H 131.466 3.49367 1.33488 0
M  V30 1423 H 133.758 5.78304 3.52946 0
M  V30 1424 H 134.701 6.6944 2.30772 0
M  V30 1425 H 135.109 4.98616 2.64655 0
M  V30 1426 N 134.507 -0.190092 1.56449 0
M  V30 1427 C 135.457 -1.23977 1.91347 0
M  V30 1428 C 136.441 -1.40747 0.779693 0
M  V30 1429 O 137.633 -1.43033 1.04262 0
M  V30 1430 C 134.762 -2.58347 2.26079 0
M  V30 1431 C 133.848 -2.4535 3.45925 0
M  V30 1432 N 134.239 -2.02039 4.63696 0
M  V30 1433 C 132.537 -2.76229 3.50162 0
M  V30 1434 C 133.238 -2.01053 5.4585 0
M  V30 1435 N 132.214 -2.42747 4.8639 0
M  V30 1436 H 136.016 -0.896318 2.79899 0
M  V30 1437 H 133.53 -0.398496 1.57435 0
M  V30 1438 H 135.527 -3.34173 2.49267 0
M  V30 1439 H 134.187 -2.93512 1.38856 0
M  V30 1440 H 135.198 -1.7267 4.88268 0
M  V30 1441 H 131.875 -3.15556 2.73369 0
M  V30 1442 H 133.265 -1.69426 6.50188 0
M  V30 1443 N 135.985 -1.50799 -0.457987 0
M  V30 1444 C 137.401 -1.38515 -0.792819 0
M  V30 1445 C 137.601 -0.451409 -1.96379 0
M  V30 1446 O 136.657 0.10112 -2.52297 0
M  V30 1447 C 137.97 -2.80149 -1.09258 0
M  V30 1448 C 139.518 -2.89156 -1.19825 0
M  V30 1449 C 139.993 -4.31651 -1.53106 0
M  V30 1450 N 141.484 -4.34662 -1.60072 0
M  V30 1451 C 142.219 -5.41928 -1.87354 0
M  V30 1452 N 141.715 -6.59384 -2.12568 0
M  V30 1453 N 143.508 -5.29385 -1.88965 0
M  V30 1454 H 135.659 -2.10073 0.313511 0
M  V30 1455 H 137.922 -0.944803 0.0777862 0
M  V30 1456 H 137.628 -3.50374 -0.305084 0
M  V30 1457 H 137.502 -3.18204 -2.02549 0
M  V30 1458 H 139.889 -2.19141 -1.97639 0
M  V30 1459 H 139.97 -2.54626 -0.244821 0
M  V30 1460 H 139.614 -5.02208 -0.758266 0
M  V30 1461 H 139.544 -4.63678 -2.49621 0
M  V30 1462 H 142.035 -3.49973 -1.42573 0
M  V30 1463 H 142.348 -7.36934 -2.32696 0
M  V30 1464 H 140.693 -6.62535 -2.09933 0
M  V30 1465 H 143.884 -4.36616 -1.68772 0
M  V30 1466 H 144.057 -6.13066 -2.09891 0
M  V30 1467 N 137.463 0.71206 -1.40597 0
M  V30 1468 C 138.411 1.84746 -1.41321 0
M  V30 1469 C 139.405 1.66842 -0.293268 0
M  V30 1470 O 140.611 1.73904 -0.464481 0
M  V30 1471 H 136.986 0.608522 -0.441819 0
M  V30 1472 H 138.957 1.81252 -2.37045 0
M  V30 1473 C 137.706 3.22638 -1.29614 0
M  V30 1474 H 137.029 3.37023 -2.15071 0
M  V30 1475 H 138.469 4.02209 -1.3418 0
M  V30 1476 C 136.928 3.36899 -0.00673121 0
M  V30 1477 O 137.458 3.90186 0.954859 0
M  V30 1478 N 135.664 2.9053 0.0639327 0
M  V30 1479 H 135.211 2.47353 -0.719311 0
M  V30 1480 H 135.169 3.0045 0.926118 0
M  V30 1481 N 138.941 1.26152 0.944643 0
M  V30 1482 C 140.187 1.11657 1.69294 0
M  V30 1483 C 140.52 -0.339926 1.91202 0
M  V30 1484 O 139.795 -1.24994 1.49019 0
M  V30 1485 C 140.078 1.88236 3.06984 0
M  V30 1486 C 139.931 3.41772 2.92424 0
M  V30 1487 C 141.25 1.67343 4.07043 0
M  V30 1488 H 138.369 0.407004 0.614424 0
M  V30 1489 H 141.011 1.55106 1.09737 0
M  V30 1490 H 139.161 1.51308 3.57824 0
M  V30 1491 H 140.833 3.88433 2.48832 0
M  V30 1492 H 139.076 3.68974 2.28124 0
M  V30 1493 H 139.747 3.90579 3.90067 0
M  V30 1494 H 142.223 1.99509 3.65151 0
M  V30 1495 H 141.099 2.23346 5.01406 0
M  V30 1496 H 141.36 0.617158 4.37771 0
M  V30 1497 N 140.419 -1.14872 1.07899 0
M  V30 1498 C 141.835 -1.37776 0.805606 0
M  V30 1499 C 142.035 -1.92743 -0.587555 0
M  V30 1500 O 141.091 -2.13678 -1.34528 0
M  V30 1501 C 142.404 -2.34361 1.88402 0
M  V30 1502 C 143.952 -2.48012 1.90942 0
M  V30 1503 C 144.427 -3.47893 2.97883 0
M  V30 1504 N 145.918 -3.55433 2.97021 0
M  V30 1505 C 146.653 -4.32553 3.76412 0
M  V30 1506 N 146.149 -5.12959 4.65666 0
M  V30 1507 N 147.942 -4.27697 3.64735 0
M  V30 1508 H 140.093 -0.775365 1.97742 0
M  V30 1509 H 142.356 -0.403521 0.857831 0
M  V30 1510 H 142.062 -2.01098 2.88535 0
M  V30 1511 H 141.936 -3.34206 1.74889 0
M  V30 1512 H 144.323 -2.8057 0.914579 0
M  V30 1513 H 144.404 -1.48147 2.08534 0
M  V30 1514 H 144.048 -3.16069 3.97571 0
M  V30 1515 H 143.978 -4.47527 2.77538 0
M  V30 1516 H 146.469 -2.98048 2.32326 0
M  V30 1517 H 146.782 -5.69065 5.22862 0
M  V30 1518 H 145.127 -5.12245 4.69712 0
M  V30 1519 H 148.318 -3.63949 2.94378 0
M  V30 1520 H 148.491 -4.8755 4.26848 0
M  V30 1521 N 141.898 -0.863906 -1.31812 0
M  V30 1522 C 143.128 -0.485406 -2.00817 0
M  V30 1523 C 143.536 0.925007 -1.65046 0
M  V30 1524 O 142.879 1.61653 -0.872574 0
M  V30 1525 C 142.941 -0.555589 -3.55181 0
M  V30 1526 C 142.605 -1.92654 -4.14407 0
M  V30 1527 C 143.602 -2.89324 -4.31958 0
M  V30 1528 C 141.287 -2.2262 -4.50273 0
M  V30 1529 C 143.281 -4.14108 -4.84555 0
M  V30 1530 C 140.968 -3.47654 -5.02573 0
M  V30 1531 C 141.966 -4.43214 -5.19664 0
M  V30 1532 O 141.654 -5.66033 -5.70843 0
M  V30 1533 H 141.386 -0.188224 -0.649267 0
M  V30 1534 H 143.94 -1.16514 -1.69156 0
M  V30 1535 H 142.17 0.181037 -3.86276 0
M  V30 1536 H 143.859 -0.19138 -4.05449 0
M  V30 1537 H 144.625 -2.6748 -4.04573 0
M  V30 1538 H 140.504 -1.4902 -4.3625 0
M  V30 1539 H 144.048 -4.88703 -4.9781 0
M  V30 1540 H 139.945 -3.69345 -5.29391 0
M  V30 1541 H 140.713 -5.6812 -5.89222 0
M  V30 1542 N 143.376 1.44774 -0.622745 0
M  V30 1543 C 144.324 2.32387 0.0994683 0
M  V30 1544 C 145.318 1.46859 0.844326 0
M  V30 1545 O 146.524 1.63254 0.758174 0
M  V30 1546 H 142.899 0.750273 0.0509291 0
M  V30 1547 H 144.87 2.91062 -0.65767 0
M  V30 1548 C 143.619 3.30723 1.07319 0
M  V30 1549 H 142.942 3.96541 0.509462 0
M  V30 1550 H 144.382 3.94725 1.54817 0
M  V30 1551 C 142.841 2.59021 2.15429 0
M  V30 1552 O 143.371 2.38286 3.23393 0
M  V30 1553 N 141.577 2.189 1.91131 0
M  V30 1554 H 141.124 2.35964 1.03337 0
M  V30 1555 H 141.082 1.71251 2.63668 0
M  V30 1556 N 144.854 0.36279 1.53368 0
M  V30 1557 C 146.094 -0.227882 2.03126 0
M  V30 1558 C 146.458 -1.4622 1.24434 0
M  V30 1559 O 147.659 -2.12831 1.64184 0
M  V30 1560 C 145.93 -0.515427 3.53664 0
M  V30 1561 S 147.489 -1.08017 4.25297 0
M  V30 1562 H 144.307 -0.0665377 0.70788 0
M  V30 1563 H 146.909 0.50501 1.88865 0
M  V30 1564 H 145.613 0.390436 4.08539 0
M  V30 1565 H 145.144 -1.27747 3.72081 0
M  V30 1566 H 147.159 -2.36462 4.36234 0
M  V30 1567 N 146.332 -1.57332 0.0918853 0
M  V30 1568 C 147.748 -1.57389 -0.264766 0
M  V30 1569 C 147.948 -1.10281 -1.68643 0
M  V30 1570 O 147.004 -0.777801 -2.40222 0
M  V30 1571 C 148.317 -3.00648 -0.0561195 0
M  V30 1572 C 149.865 -3.12754 -0.124116 0
M  V30 1573 C 150.34 -4.57965 0.0564972 0
M  V30 1574 N 151.831 -4.632 0.00155611 0
M  V30 1575 C 152.566 -5.73281 0.116598 0
M  V30 1576 N 152.062 -6.92208 0.286294 0
M  V30 1577 N 153.855 -5.6207 0.0580973 0
M  V30 1578 H 146.006 -1.86262 1.02079 0
M  V30 1579 H 148.269 -0.859579 0.399786 0
M  V30 1580 H 147.975 -3.393 0.925669 0
M  V30 1581 H 147.849 -3.68623 -0.799823 0
M  V30 1582 H 150.236 -2.73976 -1.09641 0
M  V30 1583 H 150.317 -2.47377 0.651024 0
M  V30 1584 H 149.961 -4.97436 1.02564 0
M  V30 1585 H 149.891 -5.21399 -0.738297 0
M  V30 1586 H 152.382 -3.77686 -0.127192 0
M  V30 1587 H 152.695 -7.71934 0.365676 0
M  V30 1588 H 151.04 -6.94254 0.32192 0
M  V30 1589 H 154.231 -4.68043 -0.0733204 0
M  V30 1590 H 154.404 -6.47824 0.151203 0
M  V30 1591 N 147.81 0.181792 -1.56548 0
M  V30 1592 C 149.056 0.901431 -1.81665 0
M  V30 1593 C 149.389 1.82347 -0.668075 0
M  V30 1594 O 148.664 1.91669 0.330615 0
M  V30 1595 C 148.947 1.70618 -3.17115 0
M  V30 1596 C 148.8 0.807964 -4.42484 0
M  V30 1597 C 150.119 2.67605 -3.49393 0
M  V30 1598 H 147.238 0.32627 -0.660846 0
M  V30 1599 H 149.88 0.168134 -1.89255 0
M  V30 1600 H 148.03 2.33133 -3.10775 0
M  V30 1601 H 149.702 0.19649 -4.60881 0
M  V30 1602 H 147.945 0.115411 -4.33646 0
M  V30 1603 H 148.616 1.40632 -5.33785 0
M  V30 1604 H 151.092 2.15218 -3.56118 0
M  V30 1605 H 149.968 3.20985 -4.45264 0
M  V30 1606 H 150.229 3.47298 -2.73563 0
M  V30 1607 N 149.288 1.51039 0.449983 0
M  V30 1608 C 150.537 1.62317 1.19733 0
M  V30 1609 C 150.85 0.339101 1.92638 0
M  V30 1610 O 152.056 0.331069 2.69474 0
M  V30 1611 C 150.512 2.86608 2.17678 0
M  V30 1612 C 150.12 4.21972 1.50479 0
M  V30 1613 C 151.864 3.07239 2.92924 0
M  V30 1614 C 149.771 5.37426 2.46834 0
M  V30 1615 H 148.701 0.604532 0.450619 0
M  V30 1616 H 151.352 1.77494 0.465625 0
M  V30 1617 H 149.734 2.65037 2.94231 0
M  V30 1618 H 150.908 4.53878 0.795716 0
M  V30 1619 H 149.223 4.07117 0.874344 0
M  V30 1620 H 151.82 3.90668 3.65079 0
M  V30 1621 H 152.163 2.19807 3.5354 0
M  V30 1622 H 152.696 3.29091 2.23481 0
M  V30 1623 H 149.435 6.27079 1.90926 0
M  V30 1624 H 148.955 5.09912 3.15832 0
M  V30 1625 H 150.634 5.68862 3.08228 0
M  V30 1626 N 150.766 -0.704594 1.40972 0
M  V30 1627 C 152.013 -1.46458 1.39844 0
M  V30 1628 C 152.341 -1.94499 0.00447594 0
M  V30 1629 O 151.596 -1.69275 -0.982057 0
M  V30 1630 C 151.895 -2.698 2.34399 0
M  V30 1631 C 151.561 -2.40464 3.81429 0
M  V30 1632 C 150.223 -2.32174 4.21484 0
M  V30 1633 C 152.575 -2.16086 4.74296 0
M  V30 1634 C 149.903 -1.97589 5.52427 0
M  V30 1635 C 152.255 -1.83011 6.05549 0
M  V30 1636 C 150.919 -1.7321 6.44635 0
M  V30 1637 H 150.189 -0.535927 0.511725 0
M  V30 1638 H 152.836 -0.806124 1.73706 0
M  V30 1639 H 151.141 -3.40536 1.93759 0
M  V30 1640 H 152.838 -3.27919 2.30804 0
M  V30 1641 H 149.428 -2.47808 3.49699 0
M  V30 1642 H 153.612 -2.2144 4.4416 0
M  V30 1643 H 148.868 -1.88547 5.81601 0
M  V30 1644 H 153.042 -1.63164 6.77016 0
M  V30 1645 H 150.669 -1.46179 7.46013 0
M  V30 1646 N 152.244 -1.26651 -0.937939 0
M  V30 1647 C 153.174 -1.10993 -2.05433 0
M  V30 1648 C 154.155 -0.0142161 -1.70094 0
M  V30 1649 O 155.34 -0.186837 -1.93299 0
M  V30 1650 C 152.47 -0.745561 -3.39203 0
M  V30 1651 C 151.424 -1.79337 -3.88616 0
M  V30 1652 C 150.75 -1.28324 -5.19073 0
M  V30 1653 C 152.05 -3.19553 -4.13138 0
M  V30 1654 H 153.744 -2.0438 -2.1879 0
M  V30 1655 H 151.29 -0.984041 -1.05131 0
M  V30 1656 H 153.243 -0.622888 -4.16771 0
M  V30 1657 H 151.967 0.22401 -3.25831 0
M  V30 1658 H 150.626 -1.90477 -3.13231 0
M  V30 1659 H 150.274 -0.303414 -5.02084 0
M  V30 1660 H 149.974 -1.98369 -5.53103 0
M  V30 1661 H 151.498 -1.1733 -5.99221 0
M  V30 1662 H 152.912 -3.11471 -4.81309 0
M  V30 1663 H 151.309 -3.87218 -4.58457 0
M  V30 1664 H 152.379 -3.65368 -3.18801 0
M  V30 1665 N 153.722 1.14298 -1.08507 0
M  V30 1666 C 154.67 2.21483 -0.710483 0
M  V30 1667 C 155.664 1.66998 0.284234 0
M  V30 1668 O 156.87 1.79401 0.146692 0
M  V30 1669 H 153.245 0.721578 -0.211729 0
M  V30 1670 H 155.216 2.50348 -1.62384 0
M  V30 1671 C 153.965 3.4743 -0.137007 0
M  V30 1672 H 153.288 3.89686 -0.893592 0
M  V30 1673 H 154.728 4.2391 0.0872789 0
M  V30 1674 C 153.187 3.17548 1.12538 0
M  V30 1675 O 153.717 3.35437 2.21009 0
M  V30 1676 N 151.923 2.71499 1.03617 0
M  V30 1677 H 151.47 2.57143 0.153403 0
M  V30 1678 H 151.428 2.51881 1.88158 0
M  V30 1679 N 155.201 0.870884 1.31352 0
M  V30 1680 C 156.617 0.562932 1.49343 0
M  V30 1681 C 156.817 -0.902725 1.80148 0
M  V30 1682 O 155.873 -1.68484 1.88067 0
M  V30 1683 C 157.186 1.46393 2.62659 0
M  V30 1684 C 158.734 1.46607 2.76542 0
M  V30 1685 C 159.209 2.35266 3.92955 0
M  V30 1686 N 160.7 2.33151 4.00243 0
M  V30 1687 C 161.435 2.98471 4.89594 0
M  V30 1688 N 160.931 3.72964 5.8384 0
M  V30 1689 N 162.724 2.87775 4.82848 0
M  V30 1690 H 154.875 1.81923 1.09626 0
M  V30 1691 H 157.138 0.777934 0.541777 0
M  V30 1692 H 156.844 2.50689 2.46674 0
M  V30 1693 H 156.718 1.16314 3.58819 0
M  V30 1694 H 159.105 0.43069 2.9194 0
M  V30 1695 H 159.186 1.8071 1.81046 0
M  V30 1696 H 158.83 3.38881 3.78315 0
M  V30 1697 H 158.76 1.98487 4.87761 0
M  V30 1698 H 161.251 1.79006 3.32814 0
M  V30 1699 H 161.564 4.19932 6.4875 0
M  V30 1700 H 159.909 3.77073 5.83816 0
M  V30 1701 H 163.1 2.29116 4.08195 0
M  V30 1702 H 163.273 3.38961 5.52277 0
M  V30 1703 N 156.679 -1.44442 0.630414 0
M  V30 1704 C 157.626 -2.30678 -0.0749355 0
M  V30 1705 C 158.596 -1.4344 -0.837502 0
M  V30 1706 O 159.781 -1.72343 -0.818684 0
M  V30 1707 C 156.921 -3.28706 -1.05103 0
M  V30 1708 C 156.034 -4.31046 -0.286954 0
M  V30 1709 C 155.169 -5.16167 -1.2548 0
M  V30 1710 C 154.208 -6.10216 -0.479843 0
M  V30 1711 N 153.345 -6.88039 -1.39811 0
M  V30 1712 H 158.185 -2.90454 0.666386 0
M  V30 1713 H 155.722 -1.43107 0.340404 0
M  V30 1714 H 157.68 -3.84027 -1.63031 0
M  V30 1715 H 156.31 -2.70632 -1.75949 0
M  V30 1716 H 155.362 -3.78203 0.408243 0
M  V30 1717 H 156.674 -4.97794 0.316657 0
M  V30 1718 H 155.828 -5.76002 -1.90544 0
M  V30 1719 H 154.567 -4.49491 -1.89233 0
M  V30 1720 H 153.572 -5.49491 0.184295 0
M  V30 1721 H 154.797 -6.78928 0.152965 0
M  V30 1722 H 152.743 -6.24032 -2.02287 0
M  V30 1723 H 152.66 -7.51223 -0.848508 0
M  V30 1724 H 153.928 -7.52397 -2.03762 0
M  V30 1725 N 158.157 -0.370918 -1.53173 0
M  V30 1726 C 159.406 0.218249 -2.00516 0
M  V30 1727 C 159.719 1.49429 -1.26215 0
M  V30 1728 O 160.925 2.16239 -1.64174 0
M  V30 1729 C 159.381 0.43948 -3.57207 0
M  V30 1730 C 158.989 -0.822244 -4.4039 0
M  V30 1731 C 160.733 0.986012 -4.1289 0
M  V30 1732 C 158.64 -0.570304 -5.88644 0
M  V30 1733 H 157.57 0.0853333 -0.749156 0
M  V30 1734 H 160.221 -0.490483 -1.76823 0
M  V30 1735 H 158.603 1.20961 -3.77074 0
M  V30 1736 H 159.777 -1.59557 -4.32294 0
M  V30 1737 H 158.092 -1.29238 -3.95836 0
M  V30 1738 H 160.689 1.18991 -5.21292 0
M  V30 1739 H 161.032 1.94972 -3.6782 0
M  V30 1740 H 161.565 0.27592 -3.96842 0
M  V30 1741 H 158.304 -1.50449 -6.38001 0
M  V30 1742 H 157.824 0.164427 -5.99575 0
M  V30 1743 H 159.503 -0.19784 -6.46697 0
M  V30 1744 N 159.635 1.57281 -0.100228 0
M  V30 1745 C 160.565 2.17328 0.853857 0
M  V30 1746 C 161.546 1.10804 1.2906 0
M  V30 1747 O 162.731 1.38963 1.35657 0
M  V30 1748 C 159.861 2.75772 2.11109 0
M  V30 1749 C 158.815 3.87713 1.81279 0
M  V30 1750 C 158.141 4.32882 3.13874 0
M  V30 1751 C 159.441 5.10677 1.09574 0
M  V30 1752 H 161.135 2.97305 0.353545 0
M  V30 1753 H 158.681 1.43009 0.168612 0
M  V30 1754 H 160.634 3.16433 2.78296 0
M  V30 1755 H 159.358 1.93057 2.63432 0
M  V30 1756 H 158.017 3.476 1.16489 0
M  V30 1757 H 157.665 3.47051 3.64095 0
M  V30 1758 H 157.365 5.08358 2.94696 0
M  V30 1759 H 158.889 4.7618 3.82211 0
M  V30 1760 H 160.303 5.48474 1.66879 0
M  V30 1761 H 158.7 5.91615 1.00557 0
M  V30 1762 H 159.77 4.84835 0.0793299 0
M  V30 1763 N 161.113 -0.173488 1.56642 0
M  V30 1764 C 162.043 -1.2171 1.99271 0
M  V30 1765 C 163.024 -1.46289 0.867959 0
M  V30 1766 O 164.209 -1.5766 1.13388 0
M  V30 1767 C 161.339 -2.55651 2.35074 0
M  V30 1768 C 160.293 -2.45645 3.50489 0
M  V30 1769 C 159.619 -3.84056 3.72028 0
M  V30 1770 C 160.919 -1.96302 4.84007 0
M  V30 1771 H 162.613 -0.86275 2.867 0
M  V30 1772 H 160.159 -0.413571 1.37933 0
M  V30 1773 H 162.112 -3.2886 2.63494 0
M  V30 1774 H 160.836 -2.92869 1.44552 0
M  V30 1775 H 159.495 -1.7489 3.22194 0
M  V30 1776 H 159.143 -4.18664 2.788 0
M  V30 1777 H 158.843 -3.7823 4.49684 0
M  V30 1778 H 160.367 -4.58854 4.02846 0
M  V30 1779 H 161.781 -2.59284 5.11317 0
M  V30 1780 H 160.178 -2.01429 5.65284 0
M  V30 1781 H 161.248 -0.917226 4.76146 0
M  V30 1782 N 162.591 -1.51276 -0.441967 0
M  V30 1783 C 163.84 -1.6295 -1.18871 0
M  V30 1784 C 164.153 -0.349312 -1.92456 0
M  V30 1785 O 165.359 -0.345355 -2.69295 0
M  V30 1786 C 163.815 -2.87759 -2.16155 0
M  V30 1787 C 163.423 -4.22764 -1.48239 0
M  V30 1788 C 165.167 -3.08788 -2.91291 0
M  V30 1789 C 163.074 -5.38728 -2.4398 0
M  V30 1790 H 162.004 -0.606913 -0.447406 0
M  V30 1791 H 164.655 -1.77739 -0.456205 0
M  V30 1792 H 163.037 -2.66593 -2.92821 0
M  V30 1793 H 164.211 -4.54293 -0.771635 0
M  V30 1794 H 162.526 -4.07575 -0.852741 0
M  V30 1795 H 165.123 -3.92599 -3.63002 0
M  V30 1796 H 165.466 -2.21679 -3.5237 0
M  V30 1797 H 165.999 -3.30272 -2.21733 0
M  V30 1798 H 162.738 -6.28082 -1.87598 0
M  V30 1799 H 162.258 -5.1158 -3.13123 0
M  V30 1800 H 163.937 -5.70489 -3.05207 0
M  V30 1801 N 164.069 0.697108 -1.41344 0
M  V30 1802 C 165.485 1.00751 -1.2378 0
M  V30 1803 C 165.685 2.01105 -0.126066 0
M  V30 1804 O 164.741 2.47295 0.51004 0
M  V30 1805 C 166.054 1.53359 -2.58653 0
M  V30 1806 C 167.602 1.6525 -2.65822 0
M  V30 1807 C 168.077 2.2126 -4.01009 0
M  V30 1808 N 169.568 2.28622 -4.02847 0
M  V30 1809 C 170.303 2.72984 -5.04249 0
M  V30 1810 N 169.799 3.16962 -6.16041 0
M  V30 1811 N 171.592 2.72534 -4.91611 0
M  V30 1812 H 163.743 0.0322662 -2.12375 0
M  V30 1813 H 166.006 0.0768853 -0.944877 0
M  V30 1814 H 165.712 0.870773 -3.4075 0
M  V30 1815 H 165.586 2.51597 -2.81032 0
M  V30 1816 H 167.973 2.30644 -1.84086 0
M  V30 1817 H 168.054 0.655614 -2.47256 0
M  V30 1818 H 167.698 1.56482 -4.83193 0
M  V30 1819 H 167.628 3.21698 -4.16915 0
M  V30 1820 H 170.119 1.97585 -3.22131 0
M  V30 1821 H 170.432 3.49434 -6.89287 0
M  V30 1822 H 168.777 3.14875 -6.1958 0
M  V30 1823 H 171.968 2.37525 -4.0336 0
M  V30 1824 H 172.141 3.06789 -5.70775 0
M  V30 1825 N 165.547 1.27147 0.931209 0
M  V30 1826 C 166.958 1.12044 1.49342 0
M  V30 1827 C 167.309 -0.295795 1.93957 0
M  V30 1828 O 166.434 -1.18835 1.80852 0
M  V30 1829 C 167.029 2.02781 2.71414 0
M  V30 1830 C 165.588 1.91794 3.2387 0
M  V30 1831 C 164.735 1.95543 1.96617 0
M  V30 1832 H 167.686 1.40091 0.745672 0
M  V30 1833 H 167.707 1.58156 3.46074 0
M  V30 1834 H 167.219 3.05848 2.38911 0
M  V30 1835 H 165.32 0.916992 3.6114 0
M  V30 1836 H 165.433 2.77852 3.90302 0
M  V30 1837 H 163.797 1.39722 2.12955 0
M  V30 1838 H 164.58 3.00259 1.66432 0
M  V30 1839 N 167.025 -1.13721 1.09112 0
M  V30 1840 C 167.972 -2.19031 0.727591 0
M  V30 1841 C 168.942 -1.63555 -0.289656 0
M  V30 1842 O 170.127 -1.90023 -0.172026 0
M  V30 1843 C 167.267 -3.4477 0.15082 0
M  V30 1844 C 166.38 -4.14365 1.22172 0
M  V30 1845 C 165.515 -5.27709 0.608042 0
M  V30 1846 C 164.554 -5.89147 1.66047 0
M  V30 1847 N 163.691 -6.93929 1.06806 0
M  V30 1848 H 168.531 -2.49475 1.62991 0
M  V30 1849 H 166.068 -1.22499 0.81439 0
M  V30 1850 H 168.026 -4.16714 -0.201358 0
M  V30 1851 H 166.656 -3.14787 -0.714783 0
M  V30 1852 H 165.708 -3.40737 1.69122 0
M  V30 1853 H 167.02 -4.56114 2.01895 0
M  V30 1854 H 166.174 -6.06355 0.204523 0
M  V30 1855 H 164.913 -4.872 -0.220769 0
M  V30 1856 H 163.918 -5.09198 2.07357 0
M  V30 1857 H 165.143 -6.31729 2.49189 0
M  V30 1858 H 163.089 -6.55483 0.260476 0
M  V30 1859 H 163.006 -7.34202 1.8023 0
M  V30 1860 H 164.274 -7.76434 0.690644 0
M  V30 1861 N 168.503 -0.877838 -1.30888 0
M  V30 1862 C 169.436 -0.283995 -2.26426 0
M  V30 1863 C 170.414 0.591361 -1.51465 0
M  V30 1864 O 171.598 0.54304 -1.80509 0
M  V30 1865 C 168.725 0.597129 -3.33395 0
M  V30 1866 C 167.771 -0.207937 -4.25993 0
M  V30 1867 S 168.604 -1.59158 -5.11301 0
M  V30 1868 C 169.76 -0.716791 -6.21782 0
M  V30 1869 H 169.993 -1.09383 -2.76446 0
M  V30 1870 H 167.526 -0.676828 -1.38775 0
M  V30 1871 H 169.484 1.09978 -3.95493 0
M  V30 1872 H 168.145 1.38099 -2.82113 0
M  V30 1873 H 167.338 0.464163 -5.01858 0
M  V30 1874 H 166.94 -0.642963 -3.68432 0
M  V30 1875 H 169.232 0.0692833 -6.77465 0
M  V30 1876 H 170.175 -1.44682 -6.93161 0
M  V30 1877 H 170.583 -0.280855 -5.63801 0
M  V30 1878 N 169.982 1.44106 -0.638065 0
M  V30 1879 C 170.945 2.29138 0.0531013 0
M  V30 1880 C 171.945 1.41409 0.765506 0
M  V30 1881 O 173.135 1.63206 0.609046 0
M  V30 1882 C 170.267 3.23144 1.08584 0
M  V30 1883 H 171.46 2.91739 -0.694883 0
M  V30 1884 H 169.013 1.51134 -0.398538 0
M  V30 1885 H 169.748 2.65408 1.86357 0
M  V30 1886 H 169.533 3.87804 0.578852 0
M  V30 1887 H 171.023 3.87004 1.56899 0
M  V30 1888 N 171.46 0.379036 1.52974 0
M  V30 1889 C 172.39 -0.452706 2.29069 0
M  V30 1890 C 173.371 -1.07237 1.32039 0
M  V30 1891 O 174.556 -1.08708 1.60923 0
M  V30 1892 C 171.686 -1.5856 3.08992 0
M  V30 1893 C 170.64 -1.0925 4.13822 0
M  V30 1894 C 169.966 -2.31668 4.81907 0
M  V30 1895 C 171.266 -0.167702 5.22031 0
M  V30 1896 H 172.96 0.182181 2.98845 0
M  V30 1897 H 170.506 0.0890592 1.43724 0
M  V30 1898 H 172.459 -2.1742 3.6098 0
M  V30 1899 H 171.183 -2.24792 2.36931 0
M  V30 1900 H 169.842 -0.526494 3.628 0
M  V30 1901 H 169.49 -2.96386 4.06404 0
M  V30 1902 H 169.19 -1.9934 5.52754 0
M  V30 1903 H 170.714 -2.91189 5.36695 0
M  V30 1904 H 172.128 -0.664186 5.6944 0
M  V30 1905 H 170.525 0.0653265 6.00064 0
M  V30 1906 H 171.595 0.786347 4.78482 0
M  V30 1907 N 172.938 -1.57226 0.108567 0
M  V30 1908 C 173.901 -2.13602 -0.831082 0
M  V30 1909 C 174.901 -1.06841 -1.20173 0
M  V30 1910 O 176.091 -1.32666 -1.12895 0
M  V30 1911 C 173.223 -2.66769 -2.12243 0
M  V30 1912 H 174.416 -2.97951 -0.341317 0
M  V30 1913 H 171.969 -1.55667 -0.14057 0
M  V30 1914 H 172.704 -1.85977 -2.65675 0
M  V30 1915 H 172.489 -3.44839 -1.86625 0
M  V30 1916 H 173.979 -3.10332 -2.79435 0
M  V30 1917 N 174.416 0.165178 -1.56732 0
M  V30 1918 C 175.364 1.22369 -1.97809 0
M  V30 1919 C 176.358 1.45488 -0.867741 0
M  V30 1920 O 177.564 1.45995 -1.05288 0
M  V30 1921 H 173.939 0.411486 -0.629431 0
M  V30 1922 H 175.91 0.850425 -2.86025 0
M  V30 1923 C 174.659 2.55403 -2.35934 0
M  V30 1924 H 173.982 2.38438 -3.20916 0
M  V30 1925 H 175.422 3.2814 -2.68514 0
M  V30 1926 C 173.881 3.14611 -1.20506 0
M  V30 1927 O 174.411 3.98626 -0.496016 0
M  V30 1928 N 172.617 2.7379 -0.97403 0
M  V30 1929 H 172.164 2.0557 -1.55238 0
M  V30 1930 H 172.122 3.1374 -0.203573 0
M  V30 1931 N 175.894 1.51508 0.433938 0
M  V30 1932 C 176.804 1.75917 1.5521 0
M  V30 1933 C 177.82 0.643545 1.61662 0
M  V30 1934 O 178.996 0.926183 1.7884 0
M  V30 1935 C 176.061 1.88213 2.91164 0
M  V30 1936 C 175.122 3.12074 2.94802 0
M  V30 1937 C 174.355 3.23774 4.24271 0
M  V30 1938 O 174.578 2.4133 5.16833 0
M  V30 1939 O 173.512 4.16774 4.34262 0
M  V30 1940 H 177.338 2.70777 1.37527 0
M  V30 1941 H 174.923 1.36051 0.617293 0
M  V30 1942 H 176.805 1.98267 3.71845 0
M  V30 1943 H 175.48 0.965413 3.08968 0
M  V30 1944 H 174.387 3.07497 2.13065 0
M  V30 1945 H 175.72 4.03446 2.81943 0
M  V30 1946 N 177.372 -0.689602 1.41712 0
M  V30 1947 C 178.62 -1.4468 1.4111 0
M  V30 1948 C 178.941 -1.94986 0.0232196 0
M  V30 1949 O 178.211 -1.72097 -0.935913 0
M  V30 1950 H 176.791 -0.536847 0.519427 0
M  V30 1951 H 179.453 -0.815825 1.77004 0
M  V30 1952 H 178.549 -2.30706 2.10193 0
M  V30 1953 N 178.85 -1.27639 -0.924453 0
M  V30 1954 C 179.798 -1.10485 -2.04685 0
M  V30 1955 C 180.792 -0.0270421 -1.69378 0
M  V30 1956 O 181.998 -0.185008 -1.79047 0
M  V30 1957 H 178.373 -0.340546 -0.670472 0
M  V30 1958 H 180.344 -2.05566 -2.16298 0
M  V30 1959 C 179.093 -0.772229 -3.39016 0
M  V30 1960 H 178.416 -1.59351 -3.66671 0
M  V30 1961 H 179.856 -0.692097 -4.18313 0
M  V30 1962 C 178.315 0.523554 -3.32807 0
M  V30 1963 O 178.845 1.55702 -3.70297 0
M  V30 1964 N 177.051 0.520363 -2.85903 0
M  V30 1965 H 176.598 -0.32107 -2.55591 0
M  V30 1966 H 176.556 1.38742 -2.82131 0
M  V30 1967 N 180.328 1.1314 -1.09713 0
M  V30 1968 C 181.558 1.88048 -0.855656 0
M  V30 1969 C 181.966 1.79537 0.596919 0
M  V30 1970 O 181.309 1.16196 1.42282 0
M  V30 1971 C 181.371 3.38314 -1.21589 0
M  V30 1972 C 181.035 3.70605 -2.67397 0
M  V30 1973 C 182.032 3.69596 -3.65643 0
M  V30 1974 C 179.717 4.0017 -3.03593 0
M  V30 1975 C 181.711 3.977 -4.9811 0
M  V30 1976 C 179.398 4.27935 -4.36251 0
M  V30 1977 C 180.396 4.26685 -5.33318 0
M  V30 1978 O 180.084 4.53767 -6.63589 0
M  V30 1979 H 179.816 0.60208 -0.307368 0
M  V30 1980 H 182.37 1.44128 -1.46343 0
M  V30 1981 H 180.6 3.82752 -0.551177 0
M  V30 1982 H 182.289 3.94552 -0.953083 0
M  V30 1983 H 183.055 3.46826 -3.39023 0
M  V30 1984 H 178.934 4.00289 -2.2867 0
M  V30 1985 H 182.478 3.9664 -5.73866 0
M  V30 1986 H 178.375 4.50178 -4.62613 0
M  V30 1987 H 179.143 4.71422 -6.69107 0
M  V30 1988 N 181.806 0.884767 1.30421 0
M  V30 1989 C 183.222 0.57874 1.48737 0
M  V30 1990 C 183.422 -0.883567 1.81095 0
M  V30 1991 O 182.478 -1.6648 1.89844 0
M  V30 1992 C 183.791 1.49171 2.61091 0
M  V30 1993 C 185.339 1.49532 2.74971 0
M  V30 1994 C 185.814 2.39421 3.90438 0
M  V30 1995 N 187.305 2.37383 3.97748 0
M  V30 1996 C 188.04 3.03647 4.86401 0
M  V30 1997 N 187.536 3.79136 5.79852 0
M  V30 1998 N 189.329 2.9288 4.79768 0
M  V30 1999 H 181.48 1.83075 1.0769 0
M  V30 2000 H 183.743 0.783637 0.533495 0
M  V30 2001 H 183.449 2.53291 2.44001 0
M  V30 2002 H 183.323 1.20113 3.57565 0
M  V30 2003 H 185.71 0.46163 2.91467 0
M  V30 2004 H 185.791 1.8262 1.79119 0
M  V30 2005 H 185.435 3.42874 3.74699 0
M  V30 2006 H 185.365 2.03649 4.85628 0
M  V30 2007 H 187.856 1.82525 3.30897 0
M  V30 2008 H 188.169 4.26789 6.4426 0
M  V30 2009 H 186.514 3.83243 5.79784 0
M  V30 2010 H 189.705 2.33433 4.05742 0
M  V30 2011 H 189.878 3.448 5.4865 0
M  V30 2012 N 183.284 -1.43765 0.645699 0
M  V30 2013 C 184.194 -2.34544 -0.0512957 0
M  V30 2014 C 185.21 -1.53455 -0.82022 0
M  V30 2015 O 186.386 -1.86133 -0.769176 0
M  V30 2016 C 183.451 -3.31636 -1.01087 0
M  V30 2017 C 182.512 -4.2863 -0.239712 0
M  V30 2018 C 181.745 -5.21084 -1.15358 0
M  V30 2019 O 181.968 -5.1779 -2.39269 0
M  V30 2020 O 180.902 -5.98593 -0.630038 0
M  V30 2021 H 184.728 -2.95624 0.695718 0
M  V30 2022 H 182.313 -1.43781 0.405882 0
M  V30 2023 H 184.195 -3.9136 -1.56254 0
M  V30 2024 H 182.87 -2.73069 -1.73824 0
M  V30 2025 H 181.777 -3.72408 0.355356 0
M  V30 2026 H 183.11 -4.90157 0.447936 0
M  V30 2027 N 184.763 -0.387143 -1.52771 0
M  V30 2028 C 185.693 0.440551 -2.29306 0
M  V30 2029 C 186.674 1.06535 -1.32606 0
M  V30 2030 O 187.859 1.07853 -1.61497 0
M  V30 2031 C 184.989 1.56919 -3.09829 0
M  V30 2032 C 183.943 1.07054 -4.14395 0
M  V30 2033 C 183.269 2.29109 -4.83129 0
M  V30 2034 C 184.569 0.140015 -5.22112 0
M  V30 2035 H 186.263 -0.198026 -2.98744 0
M  V30 2036 H 183.809 -0.09668 -1.43675 0
M  V30 2037 H 185.762 2.15503 -3.62128 0
M  V30 2038 H 184.486 2.23532 -2.3812 0
M  V30 2039 H 183.145 0.507247 -3.63074 0
M  V30 2040 H 182.793 2.94227 -4.0797 0
M  V30 2041 H 182.493 1.96406 -5.53804 0
M  V30 2042 H 184.017 2.88339 -5.38231 0
M  V30 2043 H 185.431 0.633978 -5.69784 0
M  V30 2044 H 183.828 -0.0971485 -6.00021 0
M  V30 2045 H 184.898 -0.811711 -4.78058 0
M  V30 2046 N 186.241 1.57166 -0.116904 0
M  V30 2047 C 187.657 1.5779 0.239693 0
M  V30 2048 C 187.857 1.1295 1.66867 0
M  V30 2049 O 186.913 0.81592 2.38954 0
M  V30 2050 C 188.226 3.00699 0.00828202 0
M  V30 2051 C 189.774 3.12912 0.0743438 0
M  V30 2052 C 190.249 4.57817 -0.129348 0
M  V30 2053 N 191.74 4.63139 -0.075247 0
M  V30 2054 C 192.475 5.73023 -0.207788 0
M  V30 2055 N 191.971 6.91665 -0.396382 0
M  V30 2056 N 193.764 5.61906 -0.14751 0
M  V30 2057 H 185.915 1.84615 -1.05029 0
M  V30 2058 H 188.178 0.85311 -0.41341 0
M  V30 2059 H 187.884 3.37784 -0.979531 0
M  V30 2060 H 187.758 3.69848 0.741077 0
M  V30 2061 H 190.145 2.75686 1.05268 0
M  V30 2062 H 190.226 2.4631 -0.690297 0
M  V30 2063 H 189.87 4.95742 -1.10465 0
M  V30 2064 H 189.8 5.22507 0.655253 0
M  V30 2065 H 192.291 3.7784 0.0670898 0
M  V30 2066 H 192.604 7.71255 -0.488437 0
M  V30 2067 H 190.949 6.93654 -0.432329 0
M  V30 2068 H 194.14 4.681 -0.00115036 0
M  V30 2069 H 194.313 6.47501 -0.254247 0
M  V30 2070 N 187.719 -0.156864 1.56817 0
M  V30 2071 C 188.965 -0.867645 1.83966 0
M  V30 2072 C 189.32 -1.79233 0.699511 0
M  V30 2073 O 188.613 -1.89186 -0.303176 0
M  V30 2074 C 188.807 -1.68737 3.1506 0
M  V30 2075 C 188.636 -0.843548 4.41718 0
M  V30 2076 C 187.406 -0.512994 5.02689 0
M  V30 2077 C 189.604 -0.178416 5.1399 0
M  V30 2078 N 187.586 0.345456 6.12927 0
M  V30 2079 C 188.957 0.540586 6.17639 0
M  V30 2080 C 191.012 -0.0980696 4.97803 0
M  V30 2081 C 189.715 1.33233 7.06853 0
M  V30 2082 C 191.741 0.680387 5.87473 0
M  V30 2083 C 191.103 1.3877 6.90596 0
M  V30 2084 H 187.202 -0.295642 0.723961 0
M  V30 2085 H 189.786 -0.13365 1.94241 0
M  V30 2086 H 187.957 -2.39268 3.0595 0
M  V30 2087 H 189.689 -2.34056 3.30151 0
M  V30 2088 H 186.444 -0.846476 4.65974 0
M  V30 2089 H 186.868 0.765415 6.72659 0
M  V30 2090 H 191.51 -0.630562 4.18071 0
M  V30 2091 H 189.228 1.87612 7.8602 0
M  V30 2092 H 192.814 0.744415 5.77018 0
M  V30 2093 H 191.694 1.9804 7.58782 0
M  V30 2094 N 189.197 -1.51736 -0.425897 0
M  V30 2095 C 190.444 -1.6497 -1.17436 0
M  V30 2096 C 190.772 -0.371445 -1.9092 0
M  V30 2097 O 190.027 0.644963 -1.84767 0
M  V30 2098 C 190.326 -2.81103 -2.20717 0
M  V30 2099 C 189.992 -4.19954 -1.64162 0
M  V30 2100 C 188.654 -4.57725 -1.48462 0
M  V30 2101 C 191.006 -5.06552 -1.22696 0
M  V30 2102 C 188.334 -5.79789 -0.897873 0
M  V30 2103 C 190.686 -6.29205 -0.654464 0
M  V30 2104 C 189.35 -6.6574 -0.484456 0
M  V30 2105 H 188.62 -0.603668 -0.429727 0
M  V30 2106 H 191.267 -1.85798 -0.463829 0
M  V30 2107 H 189.572 -2.54542 -2.97852 0
M  V30 2108 H 191.269 -2.8854 -2.78471 0
M  V30 2109 H 187.859 -3.90181 -1.77361 0
M  V30 2110 H 192.043 -4.77968 -1.33642 0
M  V30 2111 H 187.299 -6.06733 -0.75402 0
M  V30 2112 H 191.473 -6.95643 -0.324694 0
M  V30 2113 H 189.1 -7.60195 -0.0276833 0
M  V30 2114 N 190.675 0.682077 -1.42076 0
M  V30 2115 C 191.903 1.47057 -1.4554 0
M  V30 2116 C 192.318 1.8869 -0.0645779 0
M  V30 2117 O 191.675 1.57666 0.919115 0
M  V30 2118 C 191.726 2.72442 -2.37609 0
M  V30 2119 O 191.447 2.32559 -3.71279 0
M  V30 2120 C 192.948 3.66069 -2.50017 0
M  V30 2121 H 190.168 0.452737 -0.495248 0
M  V30 2122 H 192.712 0.838695 -1.8651 0
M  V30 2123 H 190.867 3.31835 -1.9991 0
M  V30 2124 H 191.281 3.13475 -4.20516 0
M  V30 2125 H 192.755 4.50792 -3.18576 0
M  V30 2126 H 193.232 4.11476 -1.53572 0
M  V30 2127 H 193.838 3.12572 -2.88407 0
M  V30 2128 N 192.153 1.28127 0.917671 0
M  V30 2129 C 193.564 1.13622 1.48145 0
M  V30 2130 C 193.915 -0.275207 1.9426 0
M  V30 2131 O 193.04 -1.1691 1.82102 0
M  V30 2132 C 193.635 2.05648 2.69248 0
M  V30 2133 C 192.194 1.95219 3.21818 0
M  V30 2134 C 191.341 1.97618 1.94532 0
M  V30 2135 H 194.292 1.40874 0.730772 0
M  V30 2136 H 194.313 1.61818 3.44377 0
M  V30 2137 H 193.825 3.08365 2.35653 0
M  V30 2138 H 191.926 0.955244 3.60147 0
M  V30 2139 H 192.039 2.81976 3.87333 0
M  V30 2140 H 190.403 1.41973 2.11461 0
M  V30 2141 H 191.186 3.02007 1.63238 0
M  V30 2142 N 193.631 -1.12557 1.10312 0
M  V30 2143 C 194.877 -1.84515 0.855901 0
M  V30 2144 C 195.232 -1.82409 -0.611936 0
M  V30 2145 O 194.525 -1.25778 -1.44535 0
M  V30 2146 C 194.719 -3.31462 1.33669 0
M  V30 2147 C 194.548 -3.47879 2.84974 0
M  V30 2148 C 193.318 -3.61589 3.52961 0
M  V30 2149 C 195.516 -3.43152 3.83081 0
M  V30 2150 N 193.498 -3.66359 4.926 0
M  V30 2151 C 194.869 -3.54401 5.08724 0
M  V30 2152 C 196.924 -3.2661 3.75807 0
M  V30 2153 C 195.627 -3.50815 6.2795 0
M  V30 2154 C 197.653 -3.24335 4.94531 0
M  V30 2155 C 197.015 -3.36144 6.19021 0
M  V30 2156 H 193.114 -0.690967 0.366182 0
M  V30 2157 H 195.698 -1.34763 1.40524 0
M  V30 2158 H 193.869 -3.7976 0.814686 0
M  V30 2159 H 195.601 -3.91272 1.03385 0
M  V30 2160 H 192.356 -3.63652 3.03404 0
M  V30 2161 H 192.78 -3.72411 5.65366 0
M  V30 2162 H 197.422 -3.16375 2.80476 0
M  V30 2163 H 195.14 -3.5982 7.23571 0
M  V30 2164 H 198.726 -3.12719 4.9061 0
M  V30 2165 H 197.606 -3.34357 7.09348 0
M  V30 2166 N 195.109 -0.891671 -1.2995 0
M  V30 2167 C 196.334 -0.527932 -2.00568 0
M  V30 2168 C 196.759 0.877969 -1.66353 0
M  V30 2169 O 196.117 1.58301 -0.883762 0
M  V30 2170 C 196.165 -0.717745 -3.53385 0
M  V30 2171 O 195.269 0.233376 -4.11739 0
M  V30 2172 H 194.61 -0.20722 -0.630837 0
M  V30 2173 H 197.14 -1.20105 -1.65638 0
M  V30 2174 H 197.15 -0.619307 -4.03272 0
M  V30 2175 H 195.825 -1.74276 -3.77625 0
M  V30 2176 H 194.402 0.0880706 -3.72796 0
M  V30 2177 N 196.587 1.43421 -0.653314 0
M  V30 2178 C 198.003 1.56341 -0.320886 0
M  V30 2179 C 198.203 1.63696 1.17499 0
M  V30 2180 O 197.259 1.59208 1.95982 0
M  V30 2181 C 198.572 2.82424 -1.03233 0
M  V30 2182 C 200.12 2.96168 -1.01259 0
M  V30 2183 C 200.595 4.25084 -1.70492 0
M  V30 2184 N 202.086 4.31948 -1.67257 0
M  V30 2185 C 202.821 5.30466 -2.17701 0
M  V30 2186 N 202.317 6.35261 -2.76434 0
M  V30 2187 N 204.11 5.2212 -2.082 0
M  V30 2188 H 196.261 1.3689 -1.62403 0
M  V30 2189 H 198.524 0.657455 -0.682977 0
M  V30 2190 H 198.23 2.83053 -2.08744 0
M  V30 2191 H 198.104 3.72653 -0.583948 0
M  V30 2192 H 200.491 2.9508 0.0341235 0
M  V30 2193 H 200.572 2.07229 -1.49966 0
M  V30 2194 H 200.216 4.26932 -2.7512 0
M  V30 2195 H 200.146 5.1292 -1.19251 0
M  V30 2196 H 202.637 3.56838 -1.24398 0
M  V30 2197 H 202.95 7.06754 -3.12601 0
M  V30 2198 H 201.295 6.35884 -2.80495 0
M  V30 2199 H 204.486 4.39166 -1.62021 0
M  V30 2200 H 204.659 5.98739 -2.47822 0
M  V30 2201 N 198.065 0.39524 1.52563 0
M  V30 2202 C 199.29 -0.187456 2.06551 0
M  V30 2203 C 199.715 -1.39249 1.26457 0
M  V30 2204 O 199.073 -1.78947 0.291151 0
M  V30 2205 C 199.121 -0.529985 3.56684 0
M  V30 2206 O 198.225 -1.62307 3.79118 0
M  V30 2207 H 197.566 -0.0202537 0.663691 0
M  V30 2208 H 200.096 0.564426 1.96661 0
M  V30 2209 H 200.106 -0.792598 4.00227 0
M  V30 2210 H 198.781 0.350987 4.14416 0
M  V30 2211 H 197.358 -1.3537 3.47461 0
M  V30 2212 N 199.544 -1.57102 0.125237 0
M  V30 2213 C 200.96 -1.57915 -0.231322 0
M  V30 2214 C 201.16 -1.13833 -1.66266 0
M  V30 2215 O 200.216 -0.828581 -2.38518 0
M  V30 2216 C 201.529 -3.00699 0.00766489 0
M  V30 2217 C 203.077 -3.12947 -0.0577483 0
M  V30 2218 C 203.552 -4.57742 0.153626 0
M  V30 2219 N 205.043 -4.63092 0.0998073 0
M  V30 2220 C 205.778 -5.72905 0.238174 0
M  V30 2221 N 205.274 -6.91445 0.433057 0
M  V30 2222 N 207.067 -5.6182 0.177308 0
M  V30 2223 H 199.218 -1.84055 1.06007 0
M  V30 2224 H 201.481 -0.850905 0.417929 0
M  V30 2225 H 201.187 -3.3726 0.997431 0
M  V30 2226 H 201.061 -3.70236 -0.721452 0
M  V30 2227 H 203.448 -2.7624 -1.03804 0
M  V30 2228 H 203.529 -2.4594 0.70335 0
M  V30 2229 H 203.173 -4.95149 1.13092 0
M  V30 2230 H 203.103 -5.22848 -0.627534 0
M  V30 2231 H 205.594 -3.77871 -0.047051 0
M  V30 2232 H 205.907 -7.70985 0.529332 0
M  V30 2233 H 204.252 -6.93415 0.469109 0
M  V30 2234 H 207.443 -4.68093 0.0259748 0
M  V30 2235 H 207.616 -6.47357 0.288582 0
M  V30 2236 N 201.022 0.148545 -1.56898 0
M  V30 2237 C 201.972 1.1886 -1.94567 0
M  V30 2238 C 202.956 1.3863 -0.816735 0
M  V30 2239 O 204.148 1.40218 -1.08018 0
M  V30 2240 C 201.277 2.52262 -2.32849 0
M  V30 2241 C 200.363 2.36092 -3.52309 0
M  V30 2242 N 200.754 1.89674 -4.6889 0
M  V30 2243 C 199.052 2.66848 -3.57363 0
M  V30 2244 C 199.753 1.86511 -5.50989 0
M  V30 2245 N 198.729 2.29766 -4.92655 0
M  V30 2246 H 202.531 0.821793 -2.82177 0
M  V30 2247 H 200.045 0.356615 -1.58436 0
M  V30 2248 H 202.042 3.27447 -2.58039 0
M  V30 2249 H 200.702 2.89727 -1.46589 0
M  V30 2250 H 201.713 1.59663 -4.92674 0
M  V30 2251 H 198.39 3.08198 -2.81639 0
M  V30 2252 H 199.78 1.52128 -6.54452 0
M  V30 2253 N 202.5 1.5196 0.417844 0
M  V30 2254 C 203.728 1.69426 1.18753 0
M  V30 2255 C 204.143 0.399955 1.84515 0
M  V30 2256 O 203.5 -0.623288 1.71527 0
M  V30 2257 C 203.551 2.82375 2.25714 0
M  V30 2258 O 203.272 4.06793 1.62638 0
M  V30 2259 C 204.773 3.11277 3.15628 0
M  V30 2260 H 201.993 0.568031 0.357186 0
M  V30 2261 H 204.537 1.98475 0.49273 0
M  V30 2262 H 202.692 2.5587 2.90877 0
M  V30 2263 H 203.106 4.69667 2.3348 0
M  V30 2264 H 204.58 3.93843 3.86771 0
M  V30 2265 H 205.057 2.24473 3.77503 0
M  V30 2266 H 205.663 3.39515 2.56144 0
M  V30 2267 N 203.978 -0.674533 1.42435 0
M  V30 2268 C 204.888 -1.81751 1.48337 0
M  V30 2269 C 205.904 -1.69975 0.372099 0
M  V30 2270 O 207.08 -1.91521 0.62304 0
M  V30 2271 C 204.145 -3.17895 1.38361 0
M  V30 2272 C 203.206 -3.41625 2.59982 0
M  V30 2273 C 202.439 -4.71274 2.50473 0
M  V30 2274 O 202.662 -5.49197 1.54075 0
M  V30 2275 O 201.596 -4.96254 3.4061 0
M  V30 2276 H 205.422 -1.79728 2.44809 0
M  V30 2277 H 203.007 -0.830312 1.24202 0
M  V30 2278 H 204.889 -3.99136 1.35161 0
M  V30 2279 H 203.564 -3.20555 0.450144 0
M  V30 2280 H 202.471 -2.60231 2.68757 0
M  V30 2281 H 203.804 -3.43796 3.52229 0
M  V30 2282 N 205.456 -1.28612 -0.910864 0
M  V30 2283 C 206.366 -1.14643 -2.0468 0
M  V30 2284 C 207.382 -0.0723121 -1.7385 0
M  V30 2285 O 208.558 -0.282178 -1.99413 0
M  V30 2286 C 205.623 -0.812561 -3.37044 0
M  V30 2287 C 204.684 -1.96935 -3.81465 0
M  V30 2288 C 203.917 -1.65131 -5.07511 0
M  V30 2289 O 204.14 -0.567013 -5.67575 0
M  V30 2290 O 203.074 -2.49585 -5.47714 0
M  V30 2291 H 206.9 -2.1001 -2.19384 0
M  V30 2292 H 204.485 -1.07958 -1.03274 0
M  V30 2293 H 206.367 -0.640441 -4.16505 0
M  V30 2294 H 205.042 0.111426 -3.23508 0
M  V30 2295 H 203.949 -2.19664 -3.02818 0
M  V30 2296 H 205.282 -2.87414 -3.99567 0
M  V30 2297 N 206.934 1.1197 -1.10907 0
M  V30 2298 C 208.164 1.8713 -0.875553 0
M  V30 2299 C 208.572 1.8016 0.577843 0
M  V30 2300 O 207.915 1.17699 1.41042 0
M  V30 2301 C 207.977 3.37005 -1.2517 0
M  V30 2302 C 207.641 3.67748 -2.71313 0
M  V30 2303 C 208.638 3.65698 -3.69542 0
M  V30 2304 C 206.323 3.96928 -3.07821 0
M  V30 2305 C 208.317 3.92395 -5.023 0
M  V30 2306 C 206.004 4.23284 -4.40765 0
M  V30 2307 C 207.002 4.21005 -5.37814 0
M  V30 2308 O 206.69 4.46704 -6.68364 0
M  V30 2309 H 206.422 0.598786 -0.313737 0
M  V30 2310 H 208.976 1.42568 -1.47863 0
M  V30 2311 H 207.206 3.82146 -0.591741 0
M  V30 2312 H 208.895 3.93519 -0.994877 0
M  V30 2313 H 209.661 3.43211 -3.42682 0
M  V30 2314 H 205.54 3.97841 -2.32902 0
M  V30 2315 H 209.084 3.90531 -5.78041 0
M  V30 2316 H 204.981 4.45246 -4.67361 0
M  V30 2317 H 205.749 4.64299 -6.74069 0
M  V30 2318 N 208.412 0.89855 1.29475 0
M  V30 2319 C 209.659 0.523882 1.95606 0
M  V30 2320 C 209.987 -0.929608 1.70847 0
M  V30 2321 O 209.242 -1.67401 1.01367 0
M  V30 2322 C 209.541 0.761398 3.49195 0
M  V30 2323 C 209.207 2.19207 3.94029 0
M  V30 2324 C 207.869 2.58326 4.05982 0
M  V30 2325 C 210.221 3.12379 4.17216 0
M  V30 2326 C 207.549 3.898 4.38489 0
M  V30 2327 C 209.901 4.43401 4.51197 0
M  V30 2328 C 208.565 4.82394 4.61359 0
M  V30 2329 H 207.835 0.191702 0.715773 0
M  V30 2330 H 210.482 1.13699 1.54094 0
M  V30 2331 H 208.787 0.0653622 3.91745 0
M  V30 2332 H 210.484 0.450904 3.98457 0
M  V30 2333 H 207.074 1.87846 3.85242 0
M  V30 2334 H 211.258 2.83371 4.07449 0
M  V30 2335 H 206.514 4.19734 4.44559 0
M  V30 2336 H 210.688 5.15623 4.68087 0
M  V30 2337 H 208.315 5.84306 4.86303 0
M  V30 2338 N 209.89 -1.43072 0.660911 0
M  V30 2339 C 210.82 -2.33497 -0.0122829 0
M  V30 2340 C 211.801 -1.49903 -0.803925 0
M  V30 2341 O 212.986 -1.78546 -0.763864 0
M  V30 2342 C 210.116 -3.33363 -0.973994 0
M  V30 2343 C 209.07 -4.27003 -0.291928 0
M  V30 2344 C 208.396 -5.16967 -1.36562 0
M  V30 2345 C 209.696 -5.15816 0.820462 0
M  V30 2346 H 211.39 -2.90038 0.742873 0
M  V30 2347 H 208.936 -1.39461 0.358688 0
M  V30 2348 H 210.889 -3.95524 -1.45392 0
M  V30 2349 H 209.613 -2.75095 -1.7604 0
M  V30 2350 H 208.272 -3.66217 0.167623 0
M  V30 2351 H 207.92 -4.55034 -2.14366 0
M  V30 2352 H 207.62 -5.80441 -0.914454 0
M  V30 2353 H 209.144 -5.82003 -1.84675 0
M  V30 2354 H 210.558 -5.71742 0.422366 0
M  V30 2355 H 208.955 -5.8805 1.19656 0
M  V30 2356 H 210.025 -4.55045 1.67518 0
M  V30 2357 N 211.368 -0.403325 -1.52352 0
M  V30 2358 C 212.779 0.0675782 -1.86578 0
M  V30 2359 C 213.13 1.44941 -1.32236 0
M  V30 2360 O 212.255 2.06112 -0.659307 0
M  V30 2361 C 212.85 0.129404 -3.38553 0
M  V30 2362 C 211.409 0.544629 -3.72439 0
M  V30 2363 C 210.556 -0.284551 -2.75836 0
M  V30 2364 H 213.507 -0.620631 -1.46061 0
M  V30 2365 H 213.528 0.94581 -3.68558 0
M  V30 2366 H 213.04 -0.87645 -3.78074 0
M  V30 2367 H 211.141 1.55734 -3.38493 0
M  V30 2368 H 211.254 0.293046 -4.78203 0
M  V30 2369 H 209.618 0.252258 -2.53448 0
M  V30 2370 H 210.401 -1.28865 -3.18196 0
M  V30 2371 N 212.846 1.57033 -0.133567 0
M  V30 2372 C 214.262 1.58035 0.222944 0
M  V30 2373 C 214.462 1.14713 1.6566 0
M  V30 2374 O 213.518 0.841218 2.38075 0
M  V30 2375 C 214.831 3.00691 -0.0236116 0
M  V30 2376 C 216.379 3.12973 0.0411512 0
M  V30 2377 C 216.854 4.57654 -0.177899 0
M  V30 2378 N 218.345 4.63033 -0.124365 0
M  V30 2379 C 219.08 5.72771 -0.268553 0
M  V30 2380 N 218.576 6.91206 -0.46972 0
M  V30 2381 N 220.369 5.61718 -0.2071 0
M  V30 2382 H 212.52 1.8349 -1.06981 0
M  V30 2383 H 214.783 0.848677 -0.422436 0
M  V30 2384 H 214.489 3.36726 -1.0153 0
M  V30 2385 H 214.363 3.70614 0.701808 0
M  V30 2386 H 216.75 2.76787 1.02338 0
M  V30 2387 H 216.831 2.45564 -0.716383 0
M  V30 2388 H 216.475 4.94542 -1.15717 0
M  V30 2389 H 216.405 5.23173 0.599797 0
M  V30 2390 H 218.896 3.7789 0.027011 0
M  V30 2391 H 219.209 7.70693 -0.570212 0
M  V30 2392 H 217.554 6.93156 -0.505876 0
M  V30 2393 H 220.745 4.68072 -0.0507986 0
M  V30 2394 H 220.918 6.47195 -0.322909 0
M  V30 2395 N 214.325 -0.140222 1.56975 0
M  V30 2396 C 215.258 -1.20266 1.93936 0
M  V30 2397 C 216.236 -1.41212 0.806099 0
M  V30 2398 O 217.42 -1.55713 1.06234 0
M  V30 2399 C 214.547 -2.56037 2.21726 0
M  V30 2400 C 213.593 -2.51646 3.44349 0
M  V30 2401 S 214.426 -1.97678 4.97678 0
M  V30 2402 C 215.582 -3.35165 5.28597 0
M  V30 2403 H 215.815 -0.887358 2.83749 0
M  V30 2404 H 213.348 -0.346119 1.50471 0
M  V30 2405 H 215.306 -3.34167 2.38416 0
M  V30 2406 H 213.967 -2.84755 1.32566 0
M  V30 2407 H 213.16 -3.51608 3.61092 0
M  V30 2408 H 212.762 -1.81628 3.26936 0
M  V30 2409 H 215.054 -4.31302 5.2248 0
M  V30 2410 H 215.997 -3.23269 6.30002 0
M  V30 2411 H 216.405 -3.32614 4.56101 0
M  V30 2412 N 215.803 -1.52179 -0.40978 0
M  V30 2413 C 217.052 -1.65434 -1.15388 0
M  V30 2414 C 217.365 -0.390056 -1.91671 0
M  V30 2415 O 218.571 -0.402399 -2.68501 0
M  V30 2416 C 217.027 -2.92279 -2.10003 0
M  V30 2417 C 216.635 -4.25813 -1.39239 0
M  V30 2418 C 218.379 -3.14897 -2.84675 0
M  V30 2419 C 216.286 -5.43782 -2.32498 0
M  V30 2420 H 215.216 -0.616267 -0.434432 0
M  V30 2421 H 217.867 -1.78666 -0.418401 0
M  V30 2422 H 216.249 -2.72744 -2.871 0
M  V30 2423 H 217.423 -4.55828 -0.675099 0
M  V30 2424 H 215.738 -4.09292 -0.766097 0
M  V30 2425 H 218.335 -4.0021 -3.54593 0
M  V30 2426 H 218.678 -2.29103 -3.47588 0
M  V30 2427 H 219.211 -3.34901 -2.14677 0
M  V30 2428 H 215.95 -6.3192 -1.74233 0
M  V30 2429 H 215.47 -5.18106 -3.02201 0
M  V30 2430 H 217.149 -5.76834 -2.93038 0
M  V30 2431 N 217.281 0.66697 -1.42791 0
M  V30 2432 C 218.213 1.7925 -1.42836 0
M  V30 2433 C 219.226 1.59496 -0.326333 0
M  V30 2434 O 220.415 1.6847 -0.589916 0
M  V30 2435 C 217.515 3.16476 -1.21229 0
M  V30 2436 C 216.688 3.63011 -2.44013 0
M  V30 2437 C 215.747 4.78993 -2.17834 0
M  V30 2438 O 214.773 4.89137 -2.91091 0
M  V30 2439 N 215.975 5.68248 -1.18635 0
M  V30 2440 H 218.74 1.79695 -2.39854 0
M  V30 2441 H 216.301 0.850338 -1.37771 0
M  V30 2442 H 218.293 3.91734 -1.01621 0
M  V30 2443 H 216.863 3.10884 -0.32706 0
M  V30 2444 H 216.083 2.78346 -2.79137 0
M  V30 2445 H 217.371 3.90845 -3.25757 0
M  V30 2446 H 216.769 5.62712 -0.580615 0
M  V30 2447 H 215.326 6.43285 -1.05013 0
M  V30 2448 N 218.759 1.29093 0.90403 0
M  V30 2449 C 220.036 1.075 1.63411 0
M  V30 2450 C 220.416 -0.382346 2.07609 0
M  V30 2451 O 219.764 -1.37031 1.82851 0
M  V30 2452 C 219.974 2.05858 2.81822 0
M  V30 2453 C 221.322 2.36539 3.52611 0
M  V30 2454 O 222.346 2.04019 2.91984 0
M  V30 2455 O 221.205 2.92085 4.61897 0
M  V30 2456 H 218.299 0.411547 0.717327 0
M  V30 2457 H 220.845 1.40449 0.952479 0
M  V30 2458 H 219.617 3.04037 2.46327 0
M  V30 2459 H 219.24 1.73613 3.57693 0
M  V30 2460 N 220.237 -1.11381 1.11499 0
M  V30 2461 C 221.167 -2.19509 0.796125 0
M  V30 2462 C 222.148 -1.68458 -0.235796 0
M  V30 2463 O 223.333 -1.93947 -0.0991344 0
M  V30 2464 C 220.463 -3.46475 0.239205 0
M  V30 2465 C 219.417 -4.10744 1.20307 0
M  V30 2466 C 218.743 -5.32293 0.50683 0
M  V30 2467 C 220.043 -4.55597 2.55399 0
M  V30 2468 H 221.737 -2.46439 1.70024 0
M  V30 2469 H 219.283 -1.18446 0.818935 0
M  V30 2470 H 221.236 -4.214 0.00392006 0
M  V30 2471 H 219.96 -3.19006 -0.700206 0
M  V30 2472 H 218.619 -3.37813 1.42399 0
M  V30 2473 H 218.267 -5.01095 -0.437408 0
M  V30 2474 H 217.967 -5.76243 1.1497 0
M  V30 2475 H 219.491 -6.09956 0.280351 0
M  V30 2476 H 220.905 -5.21841 2.37391 0
M  V30 2477 H 219.302 -5.10363 3.15673 0
M  V30 2478 H 220.372 -3.69013 3.14575 0
M  V30 2479 N 221.715 -0.905404 -1.28997 0
M  V30 2480 C 222.943 -0.549846 -1.9946 0
M  V30 2481 C 223.358 0.866834 -1.67724 0
M  V30 2482 O 222.715 1.57298 -0.925404 0
M  V30 2483 C 222.766 -0.739387 -3.53858 0
M  V30 2484 O 222.487 -2.10031 -3.84472 0
M  V30 2485 C 223.988 -0.389541 -4.41585 0
M  V30 2486 H 221.208 -0.210429 -0.637151 0
M  V30 2487 H 223.752 -1.21632 -1.64396 0
M  V30 2488 H 221.907 -0.120023 -3.87214 0
M  V30 2489 H 222.321 -2.13385 -4.79132 0
M  V30 2490 H 223.795 -0.572972 -5.49018 0
M  V30 2491 H 224.272 0.673756 -4.34001 0
M  V30 2492 H 224.878 -0.986089 -4.1371 0
M  V30 2493 N 223.193 1.4272 -0.668489 0
M  V30 2494 C 224.14 2.30796 0.0137489 0
M  V30 2495 C 225.11 1.4561 0.799177 0
M  V30 2496 O 226.295 1.74453 0.772702 0
M  V30 2497 C 223.435 3.31377 0.963507 0
M  V30 2498 C 222.548 4.31655 0.172569 0
M  V30 2499 C 221.683 5.19312 1.1175 0
M  V30 2500 C 220.722 6.11274 0.317886 0
M  V30 2501 N 219.859 6.91504 1.2152 0
M  V30 2502 H 224.699 2.88585 -0.743161 0
M  V30 2503 H 222.236 1.42154 -0.378226 0
M  V30 2504 H 224.194 3.88214 1.52792 0
M  V30 2505 H 222.824 2.75202 1.68712 0
M  V30 2506 H 221.876 3.76988 -0.508374 0
M  V30 2507 H 223.188 4.96779 -0.448527 0
M  V30 2508 H 222.342 5.80851 1.75206 0
M  V30 2509 H 221.081 4.5435 1.77249 0
M  V30 2510 H 220.086 5.48809 -0.329918 0
M  V30 2511 H 221.311 6.78283 -0.332917 0
M  V30 2512 H 219.257 6.29176 1.85671 0
M  V30 2513 H 219.174 7.53209 0.649036 0
M  V30 2514 H 220.442 7.57535 1.83742 0
M  V30 2515 N 224.671 0.411399 1.52136 0
M  V30 2516 C 225.603 -0.448386 2.24771 0
M  V30 2517 C 226.616 -1.00828 1.27818 0
M  V30 2518 O 227.805 -0.906841 1.53749 0
M  V30 2519 C 224.905 -1.63636 2.96777 0
M  V30 2520 C 224.078 -1.19995 4.20618 0
M  V30 2521 C 223.137 -2.25509 4.75428 0
M  V30 2522 O 222.163 -1.86007 5.3795 0
M  V30 2523 N 223.365 -3.577 4.57199 0
M  V30 2524 H 226.13 0.174025 2.99194 0
M  V30 2525 H 223.691 0.238897 1.60128 0
M  V30 2526 H 225.683 -2.33793 3.30338 0
M  V30 2527 H 224.253 -2.16465 2.25526 0
M  V30 2528 H 223.473 -0.326421 3.92846 0
M  V30 2529 H 224.761 -0.885365 5.01038 0
M  V30 2530 H 224.159 -3.92543 4.07341 0
M  V30 2531 H 222.716 -4.23827 4.95191 0
M  V30 2532 N 226.149 -1.5696 0.141893 0
M  V30 2533 C 227.059 -2.20066 -0.812905 0
M  V30 2534 C 228.075 -1.18344 -1.27557 0
M  V30 2535 O 229.251 -1.50902 -1.33381 0
M  V30 2536 C 226.316 -2.80583 -2.03652 0
M  V30 2537 C 225.377 -3.97414 -1.62359 0
M  V30 2538 C 224.61 -4.55036 -2.78887 0
M  V30 2539 O 224.833 -4.11538 -3.94959 0
M  V30 2540 O 223.767 -5.45376 -2.54653 0
M  V30 2541 H 227.593 -3.02157 -0.305746 0
M  V30 2542 H 225.178 -1.49159 -0.0848799 0
M  V30 2543 H 227.06 -3.19067 -2.75272 0
M  V30 2544 H 225.735 -2.01508 -2.5333 0
M  V30 2545 H 224.642 -3.63656 -0.877775 0
M  V30 2546 H 225.975 -4.77994 -1.17401 0
M  V30 2547 N 227.627 0.131896 -1.57047 0
M  V30 2548 C 228.855 0.856461 -1.88341 0
M  V30 2549 C 229.27 1.74042 -0.731757 0
M  V30 2550 O 228.627 1.80051 0.297945 0
M  V30 2551 C 228.678 1.70064 -3.18999 0
M  V30 2552 O 228.399 0.852278 -4.2973 0
M  V30 2553 C 229.9 2.53148 -3.63911 0
M  V30 2554 H 227.12 0.246885 -0.62393 0
M  V30 2555 H 229.664 0.120152 -2.04147 0
M  V30 2556 H 227.819 2.38984 -3.04902 0
M  V30 2557 H 228.233 1.43329 -5.04537 0
M  V30 2558 H 229.707 3.07931 -4.58129 0
M  V30 2559 H 230.184 3.29901 -2.89935 0
M  V30 2560 H 230.79 1.89492 -3.80753 0
M  V30 2561 N 229.106 1.52395 0.401703 0
M  V30 2562 C 230.352 1.67065 1.14966 0
M  V30 2563 C 230.685 0.403052 1.89971 0
M  V30 2564 O 229.96 -0.598774 1.85054 0
M  V30 2565 C 230.243 2.8975 2.13815 0
M  V30 2566 C 230.096 4.26578 1.42658 0
M  V30 2567 C 231.415 3.07965 3.14397 0
M  V30 2568 H 228.534 0.607968 0.416587 0
M  V30 2569 H 231.176 1.84965 0.434511 0
M  V30 2570 H 229.326 2.74619 2.74803 0
M  V30 2571 H 230.998 4.53451 0.847329 0
M  V30 2572 H 229.241 4.27639 0.72849 0
M  V30 2573 H 229.912 5.08483 2.14823 0
M  V30 2574 H 232.388 3.22043 2.63491 0
M  V30 2575 H 231.264 3.95308 3.80819 0
M  V30 2576 H 231.525 2.21611 3.82545 0
M  V30 2577 N 230.584 -0.659388 1.43143 0
M  V30 2578 C 231.995 -1.24041 1.39537 0
M  V30 2579 C 232.346 -1.95963 0.0963364 0
M  V30 2580 O 231.471 -2.00892 -0.804438 0
M  V30 2581 C 232.066 -2.25601 2.52764 0
M  V30 2582 C 230.625 -2.79195 2.52443 0
M  V30 2583 C 229.772 -1.53743 2.30778 0
M  V30 2584 H 232.723 -0.451792 1.52133 0
M  V30 2585 H 232.744 -3.07651 2.23899 0
M  V30 2586 H 232.256 -1.73226 3.47296 0
M  V30 2587 H 230.357 -3.35649 1.61773 0
M  V30 2588 H 230.47 -3.2716 3.50004 0
M  V30 2589 H 228.834 -1.80869 1.79328 0
M  V30 2590 H 229.617 -1.03312 3.27386 0
M  V30 2591 N 232.062 -1.29571 -0.897171 0
M  V30 2592 C 233.309 -1.17689 -1.6479 0
M  V30 2593 C 233.637 0.27107 -1.92602 0
M  V30 2594 O 232.892 1.21193 -1.53658 0
M  V30 2595 C 233.191 -1.9382 -3.00281 0
M  V30 2596 C 232.857 -3.43522 -2.92068 0
M  V30 2597 C 231.519 -3.84348 -2.89535 0
M  V30 2598 C 233.871 -4.38906 -2.81089 0
M  V30 2599 C 231.199 -5.18869 -2.73846 0
M  V30 2600 C 233.551 -5.73521 -2.66939 0
M  V30 2601 C 232.215 -6.13601 -2.62774 0
M  V30 2602 H 231.485 -0.430654 -0.603008 0
M  V30 2603 H 234.132 -1.60536 -1.04404 0
M  V30 2604 H 232.437 -1.4357 -3.64547 0
M  V30 2605 H 234.134 -1.82028 -3.57305 0
M  V30 2606 H 230.724 -3.11072 -2.94842 0
M  V30 2607 H 234.908 -4.08315 -2.82121 0
M  V30 2608 H 230.164 -5.4903 -2.69027 0
M  V30 2609 H 234.338 -6.47078 -2.57416 0
M  V30 2610 H 231.965 -7.17786 -2.50375 0
M  V30 2611 N 233.54 1.10788 -1.12088 0
M  V30 2612 C 234.788 1.8231 -0.872205 0
M  V30 2613 C 235.109 1.85419 0.603709 0
M  V30 2614 O 234.379 1.32963 1.43867 0
M  V30 2615 H 232.959 0.675137 -0.319686 0
M  V30 2616 H 235.621 1.34068 -1.41463 0
M  V30 2617 H 234.717 2.85955 -1.25045 0
M  V30 2618 N 235.018 0.912232 1.28515 0
M  V30 2619 C 236.295 0.463597 1.90027 0
M  V30 2620 C 236.675 -1.05753 1.82701 0
M  V30 2621 O 236.023 -1.90492 1.26194 0
M  V30 2622 C 236.233 0.992253 3.34597 0
M  V30 2623 C 237.581 1.04344 4.11579 0
M  V30 2624 O 238.605 0.94079 3.43551 0
M  V30 2625 O 237.464 1.1995 5.33174 0
M  V30 2626 H 234.558 0.146666 0.813891 0
M  V30 2627 H 237.104 1.00292 1.36893 0
M  V30 2628 H 235.876 2.03623 3.34146 0
M  V30 2629 H 235.499 0.433672 3.95228 0
M  V30 2630 N 236.496 -1.42363 0.676048 0
M  V30 2631 C 237.459 -2.29199 0.00766941 0
M  V30 2632 C 238.459 -1.43389 -0.727745 0
M  V30 2633 O 239.649 -1.64764 -0.56556 0
M  V30 2634 C 236.781 -3.2591 -0.999785 0
M  V30 2635 H 237.974 -2.89794 0.771988 0
M  V30 2636 H 235.527 -1.50024 0.438468 0
M  V30 2637 H 236.262 -2.70256 -1.79255 0
M  V30 2638 H 236.047 -3.89202 -0.475829 0
M  V30 2639 H 237.537 -3.91028 -1.46583 0
M  V30 2640 N 237.974 -0.419461 -1.51915 0
M  V30 2641 C 239.22 0.153166 -2.02221 0
M  V30 2642 C 239.553 1.43907 -1.30401 0
M  V30 2643 O 238.828 1.90055 -0.413438 0
M  V30 2644 C 239.111 0.390291 -3.57979 0
M  V30 2645 C 238.964 -0.913014 -4.40436 0
M  V30 2646 C 240.283 1.16794 -4.2432 0
M  V30 2647 H 237.402 0.0541924 -0.735005 0
M  V30 2648 H 240.044 -0.554955 -1.81715 0
M  V30 2649 H 238.194 0.993491 -3.75582 0
M  V30 2650 H 239.866 -1.54882 -4.34522 0
M  V30 2651 H 238.109 -1.52168 -4.06236 0
M  V30 2652 H 238.78 -0.701361 -5.47526 0
M  V30 2653 H 241.256 0.657161 -4.10878 0
M  V30 2654 H 240.132 1.3026 -5.3322 0
M  V30 2655 H 240.393 2.19132 -3.83971 0
M  V30 2656 N 239.452 1.56882 -0.150215 0
M  V30 2657 C 240.382 2.19935 0.784284 0
M  V30 2658 C 241.363 1.14854 1.25469 0
M  V30 2659 O 242.548 1.43209 1.31168 0
M  V30 2660 C 239.678 2.82349 2.02229 0
M  V30 2661 C 238.632 3.93285 1.68853 0
M  V30 2662 C 237.958 4.42649 2.99944 0
M  V30 2663 C 239.258 5.13904 0.932714 0
M  V30 2664 H 240.952 2.9828 0.258781 0
M  V30 2665 H 238.498 1.43473 0.123029 0
M  V30 2666 H 240.451 3.25126 2.68088 0
M  V30 2667 H 239.175 2.0134 2.57157 0
M  V30 2668 H 237.834 3.5113 1.05371 0
M  V30 2669 H 237.482 3.58458 3.52869 0
M  V30 2670 H 237.182 5.17476 2.78374 0
M  V30 2671 H 238.706 4.88099 3.66868 0
M  V30 2672 H 240.12 5.53506 1.49345 0
M  V30 2673 H 238.517 5.94515 0.81684 0
M  V30 2674 H 239.587 4.84842 -0.0749568 0
M  V30 2675 N 240.93 -0.123565 1.57115 0
M  V30 2676 C 242.176 -0.833386 1.84885 0
M  V30 2677 C 242.509 -1.79742 0.735292 0
M  V30 2678 O 241.784 -1.92764 -0.25925 0
M  V30 2679 C 242.067 -1.5873 3.23228 0
M  V30 2680 C 241.92 -0.643183 4.45178 0
M  V30 2681 C 243.239 -2.54453 3.59085 0
M  V30 2682 H 240.358 -0.301518 0.6725 0
M  V30 2683 H 243 -0.097778 1.89748 0
M  V30 2684 H 241.15 -2.21438 3.19214 0
M  V30 2685 H 242.822 -0.0253015 4.61293 0
M  V30 2686 H 241.065 0.0456139 4.33776 0
M  V30 2687 H 241.736 -1.20724 5.38637 0
M  V30 2688 H 244.212 -2.01853 3.63861 0
M  V30 2689 H 243.088 -3.04238 4.5687 0
M  V30 2690 H 243.349 -3.36906 2.86264 0
M  V30 2691 N 242.408 -1.52605 -0.393616 0
M  V30 2692 C 243.636 -1.71294 -1.16043 0
M  V30 2693 C 244.051 -0.429259 -1.83855 0
M  V30 2694 O 243.408 0.595921 -1.72496 0
M  V30 2695 C 243.459 -2.8593 -2.21193 0
M  V30 2696 O 243.18 -4.09329 -1.56146 0
M  V30 2697 C 244.681 -3.16259 -3.10636 0
M  V30 2698 H 241.901 -0.573641 -0.348104 0
M  V30 2699 H 244.445 -1.99234 -0.461092 0
M  V30 2700 H 242.6 -2.60465 -2.86769 0
M  V30 2701 H 243.014 -4.73323 -2.25978 0
M  V30 2702 H 244.488 -3.99946 -3.80456 0
M  V30 2703 H 244.965 -2.3045 -3.73884 0
M  V30 2704 H 245.571 -3.43547 -2.50711 0
M  V30 2705 N 243.887 0.651787 -1.4349 0
M  V30 2706 C 245.133 1.4121 -1.46395 0
M  V30 2707 C 245.488 1.92202 -0.087366 0
M  V30 2708 O 244.781 1.69452 0.894231 0
M  V30 2709 C 244.975 2.60914 -2.44251 0
M  V30 2710 C 244.804 2.21639 -3.91288 0
M  V30 2711 C 243.574 2.09897 -4.59643 0
M  V30 2712 C 245.772 1.81835 -4.81083 0
M  V30 2713 N 243.754 1.63967 -5.91598 0
M  V30 2714 C 245.125 1.46998 -6.02322 0
M  V30 2715 C 247.18 1.69031 -4.6833 0
M  V30 2716 C 245.883 1.00638 -7.12225 0
M  V30 2717 C 247.909 1.24077 -5.78238 0
M  V30 2718 C 247.271 0.901772 -6.98604 0
M  V30 2719 H 243.37 0.512322 -0.590805 0
M  V30 2720 H 245.954 0.74989 -1.7968 0
M  V30 2721 H 244.125 3.24792 -2.1299 0
M  V30 2722 H 245.857 3.27622 -2.37584 0
M  V30 2723 H 242.612 2.297 -4.14168 0
M  V30 2724 H 243.036 1.43359 -6.61647 0
M  V30 2725 H 247.678 1.93878 -3.75727 0
M  V30 2726 H 245.396 0.745399 -8.04655 0
M  V30 2727 H 248.982 1.14657 -5.7039 0
M  V30 2728 H 247.862 0.559226 -7.82203 0
M  V30 2729 N 245.365 1.30045 0.890287 0
M  V30 2730 C 246.642 1.09227 1.62262 0
M  V30 2731 C 247.022 -0.360305 2.08002 0
M  V30 2732 O 246.37 -1.35084 1.84295 0
M  V30 2733 C 246.58 2.08835 2.79623 0
M  V30 2734 C 247.928 2.40266 3.50082 0
M  V30 2735 O 248.952 2.07104 2.89804 0
M  V30 2736 O 247.811 2.96967 4.58773 0
M  V30 2737 H 244.905 0.419132 0.712922 0
M  V30 2738 H 247.451 1.41451 0.937529 0
M  V30 2739 H 246.223 3.06633 2.43089 0
M  V30 2740 H 245.846 1.77397 3.55832 0
M  V30 2741 N 246.843 -1.10192 1.12674 0
M  V30 2742 C 248.071 -1.85983 0.906527 0
M  V30 2743 C 248.486 -1.80783 -0.544333 0
M  V30 2744 O 247.843 -1.19834 -1.37645 0
M  V30 2745 C 247.894 -3.34281 1.37618 0
M  V30 2746 O 247.615 -3.39401 2.77017 0
M  V30 2747 C 249.116 -4.26938 1.19325 0
M  V30 2748 H 246.336 -0.587716 0.323775 0
M  V30 2749 H 248.88 -1.39284 1.49734 0
M  V30 2750 H 247.035 -3.78436 0.828539 0
M  V30 2751 H 247.449 -4.31838 2.97684 0
M  V30 2752 H 248.923 -5.29181 1.57071 0
M  V30 2753 H 249.4 -4.38995 0.134097 0
M  V30 2754 H 250.006 -3.8859 1.72852 0
M  V30 2755 N 248.321 -0.919034 -1.28029 0
M  V30 2756 C 249.561 -0.562107 -1.96519 0
M  V30 2757 C 249.925 0.878784 -1.70708 0
M  V30 2758 O 251.126 1.34355 -2.32813 0
M  V30 2759 C 249.397 -0.868953 -3.46676 0
M  V30 2760 S 250.956 -0.619237 -4.34409 0
M  V30 2761 H 247.774 -0.2078 -0.679956 0
M  V30 2762 H 250.376 -1.18562 -1.55446 0
M  V30 2763 H 249.08 -1.91547 -3.62957 0
M  V30 2764 H 248.611 -0.234301 -3.92702 0
M  V30 2765 H 250.626 0.526995 -4.93394 0
M  V30 2766 N 249.799 1.42003 -0.683588 0
M  V30 2767 C 251.048 2.00638 -0.206681 0
M  V30 2768 C 251.361 1.5472 1.19671 0
M  V30 2769 O 252.567 2.05833 1.77045 0
M  V30 2770 C 251.023 3.58487 -0.318632 0
M  V30 2771 C 250.631 4.1339 -1.72663 0
M  V30 2772 C 252.375 4.24384 0.0991141 0
M  V30 2773 C 250.282 5.63633 -1.79087 0
M  V30 2774 H 249.212 0.750408 -0.0735107 0
M  V30 2775 H 251.863 1.62624 -0.850048 0
M  V30 2776 H 250.245 3.94047 0.392781 0
M  V30 2777 H 251.419 3.89273 -2.46583 0
M  V30 2778 H 249.734 3.59976 -2.09299 0
M  V30 2779 H 252.331 5.34652 0.0713833 0
M  V30 2780 H 252.674 4.00505 1.13586 0
M  V30 2781 H 253.207 3.93816 -0.561599 0
M  V30 2782 H 249.946 5.92323 -2.80774 0
M  V30 2783 H 249.466 5.89714 -1.09535 0
M  V30 2784 H 251.145 6.28201 -1.5483 0
M  V30 2785 N 251.277 0.427512 1.51691 0
M  V30 2786 C 252.525 -0.141948 2.01601 0
M  V30 2787 C 252.846 -1.44067 1.31414 0
M  V30 2788 O 252.116 -1.90763 0.445658 0
M  V30 2789 H 250.696 -0.0554468 0.744939 0
M  V30 2790 H 253.358 0.567968 1.86441 0
M  V30 2791 H 252.454 -0.324913 3.10404 0
M  V30 2792 N 252.755 -1.56801 0.158532 0
M  V30 2793 C 253.98 -2.01295 -0.499516 0
M  V30 2794 C 254.405 -1.03799 -1.56867 0
M  V30 2795 O 253.763 -0.0155162 -1.81293 0
M  V30 2796 C 253.811 -3.44469 -1.06647 0
M  V30 2797 O 252.915 -3.50012 -2.18095 0
M  V30 2798 H 252.256 -0.652884 -0.12099 0
M  V30 2799 H 254.786 -2.02958 0.258661 0
M  V30 2800 H 254.796 -3.8351 -1.39227 0
M  V30 2801 H 253.471 -4.14932 -0.283581 0
M  V30 2802 H 252.048 -3.22822 -1.86656 0
M  V30 2803 N 254.233 0.115231 -1.57178 0
M  V30 2804 C 255.143 1.15994 -2.03918 0
M  V30 2805 C 256.159 1.45103 -0.960268 0
M  V30 2806 O 257.335 1.56144 -1.27204 0
M  V30 2807 C 254.4 2.46568 -2.43732 0
M  V30 2808 C 253.461 2.24822 -3.65723 0
M  V30 2809 C 252.694 3.4917 -4.03629 0
M  V30 2810 O 252.917 4.56623 -3.41835 0
M  V30 2811 O 251.851 3.39949 -4.96708 0
M  V30 2812 H 255.677 0.793019 -2.93164 0
M  V30 2813 H 253.262 0.3263 -1.45793 0
M  V30 2814 H 255.144 3.23492 -2.70057 0
M  V30 2815 H 253.819 2.82726 -1.57631 0
M  V30 2816 H 252.726 1.45744 -3.44542 0
M  V30 2817 H 254.059 1.93566 -4.52541 0
M  V30 2818 N 255.711 1.52812 0.385517 0
M  V30 2819 C 256.96 1.67249 1.12741 0
M  V30 2820 C 257.273 0.4205 1.91027 0
M  V30 2821 O 258.479 0.445064 2.67827 0
M  V30 2822 C 256.935 2.95583 2.05326 0
M  V30 2823 C 256.543 4.27974 1.32447 0
M  V30 2824 C 258.287 3.19386 2.7963 0
M  V30 2825 C 256.194 5.47412 2.23818 0
M  V30 2826 H 255.124 0.6231 0.424573 0
M  V30 2827 H 257.775 1.79309 0.389924 0
M  V30 2828 H 256.157 2.77277 2.82725 0
M  V30 2829 H 257.331 4.56844 0.602495 0
M  V30 2830 H 255.646 4.10459 0.700885 0
M  V30 2831 H 258.243 4.05801 3.48181 0
M  V30 2832 H 258.586 2.34604 3.43899 0
M  V30 2833 H 259.119 3.38274 2.09322 0
M  V30 2834 H 255.858 6.34612 1.64157 0
M  V30 2835 H 255.378 5.22849 2.93921 0
M  V30 2836 H 257.057 5.81423 2.83824 0
M  V30 2837 N 257.189 -0.644168 1.43834 0
M  V30 2838 C 258.429 -1.41565 1.47441 0
M  V30 2839 C 258.793 -1.91743 0.0992723 0
M  V30 2840 O 259.994 -2.68798 0.0100192 0
M  V30 2841 C 258.265 -2.55902 2.49498 0
M  V30 2842 S 259.824 -3.44287 2.72051 0
M  V30 2843 H 256.642 -0.483118 0.521649 0
M  V30 2844 H 259.244 -0.747008 1.80666 0
M  V30 2845 H 257.948 -2.17327 3.48134 0
M  V30 2846 H 257.479 -3.27607 2.17801 0
M  V30 2847 H 259.494 -4.52927 2.0266 0
M  V30 2848 N 258.668 -1.30515 -0.883378 0
M  V30 2849 C 259.578 -1.18959 -2.02203 0
M  V30 2850 C 260.594 -0.109172 -1.73657 0
M  V30 2851 O 261.77 -0.324413 -1.9877 0
M  V30 2852 C 258.835 -0.883871 -3.35244 0
M  V30 2853 C 257.896 -2.04982 -3.77201 0
M  V30 2854 C 257.129 -1.75859 -5.03894 0
M  V30 2855 O 257.352 -0.687276 -5.66244 0
M  V30 2856 O 256.286 -2.61146 -5.42297 0
M  V30 2857 H 260.112 -2.14616 -2.1488 0
M  V30 2858 H 257.697 -1.10124 -1.0096 0
M  V30 2859 H 259.579 -0.728644 -4.15053 0
M  V30 2860 H 258.254 0.0427798 -3.23672 0
M  V30 2861 H 257.161 -2.26038 -2.9809 0
M  V30 2862 H 258.494 -2.95825 -3.93381 0
M  V30 2863 N 260.146 1.09593 -1.13257 0
M  V30 2864 C 261.056 2.19739 -0.821691 0
M  V30 2865 C 262.072 1.72926 0.19302 0
M  V30 2866 O 263.248 2.01385 0.0244895 0
M  V30 2867 C 260.313 3.45482 -0.290333 0
M  V30 2868 C 259.374 4.06985 -1.36607 0
M  V30 2869 C 258.607 5.26726 -0.859975 0
M  V30 2870 O 258.83 5.69594 0.303082 0
M  V30 2871 O 257.764 5.7931 -1.63351 0
M  V30 2872 H 261.59 2.48781 -1.74189 0
M  V30 2873 H 259.175 1.18496 -0.909894 0
M  V30 2874 H 261.057 4.214 0.000674022 0
M  V30 2875 H 259.732 3.18047 0.602306 0
M  V30 2876 H 258.639 3.32712 -1.71037 0
M  V30 2877 H 259.972 4.38643 -2.23279 0
M  V30 2878 N 261.624 0.925811 1.2754 0
M  V30 2879 C 262.554 0.440748 2.29303 0
M  V30 2880 C 263.535 -0.497971 1.62648 0
M  V30 2881 O 264.72 -0.403126 1.8997 0
M  V30 2882 C 261.85 -0.309048 3.45922 0
M  V30 2883 C 260.804 0.54166 4.24559 0
M  V30 2884 C 260.13 -0.337191 5.33636 0
M  V30 2885 C 261.43 1.80516 4.90114 0
M  V30 2886 H 263.124 1.29121 2.70126 0
M  V30 2887 H 260.67 0.622323 1.29858 0
M  V30 2888 H 262.623 -0.659315 4.1621 0
M  V30 2889 H 261.347 -1.19352 3.04011 0
M  V30 2890 H 260.006 0.874609 3.56014 0
M  V30 2891 H 259.654 -1.22056 4.87966 0
M  V30 2892 H 259.354 0.228497 5.87156 0
M  V30 2893 H 260.878 -0.683072 6.06767 0
M  V30 2894 H 262.292 1.52307 5.52698 0
M  V30 2895 H 260.689 2.3142 5.53683 0
M  V30 2896 H 261.759 2.52581 4.13921 0
M  V30 2897 N 263.102 -1.41638 0.69111 0
M  V30 2898 C 264.348 -2.02104 0.229258 0
M  V30 2899 C 264.703 -1.53741 -1.15678 0
M  V30 2900 O 263.996 -0.736849 -1.76865 0
M  V30 2901 C 264.19 -3.56714 0.221277 0
M  V30 2902 C 264.019 -4.20083 1.605 0
M  V30 2903 C 262.789 -4.54566 2.20676 0
M  V30 2904 C 264.987 -4.46587 2.55078 0
M  V30 2905 N 262.969 -5.03199 3.5166 0
M  V30 2906 C 264.34 -4.96946 3.70735 0
M  V30 2907 C 266.395 -4.28593 2.53401 0
M  V30 2908 C 265.098 -5.31203 4.8499 0
M  V30 2909 C 267.124 -4.63936 3.66765 0
M  V30 2910 C 266.486 -5.14463 4.81152 0
M  V30 2911 H 262.585 -0.771256 0.12918 0
M  V30 2912 H 265.169 -1.72251 0.907626 0
M  V30 2913 H 263.34 -3.86051 -0.426562 0
M  V30 2914 H 265.072 -4.03896 -0.254983 0
M  V30 2915 H 261.827 -4.4087 1.73005 0
M  V30 2916 H 262.251 -5.31926 4.18789 0
M  V30 2917 H 266.893 -3.88771 1.66184 0
M  V30 2918 H 264.611 -5.69951 5.72871 0
M  V30 2919 H 268.197 -4.51677 3.66714 0
M  V30 2920 H 267.077 -5.41299 5.67419 0
M  V30 2921 N 264.58 -0.43555 -1.51462 0
M  V30 2922 C 265.808 0.130242 -2.0649 0
M  V30 2923 C 266.223 1.36614 -1.30315 0
M  V30 2924 O 265.58 1.78869 -0.362223 0
M  V30 2925 C 265.631 0.454253 -3.58635 0
M  V30 2926 O 265.352 -0.73259 -4.31931 0
M  V30 2927 C 266.853 1.07091 -4.3017 0
M  V30 2928 H 264.073 0.00871669 -0.670943 0
M  V30 2929 H 266.617 -0.614117 -1.95061 0
M  V30 2930 H 264.772 1.14851 -3.69984 0
M  V30 2931 H 265.186 -0.455787 -5.22516 0
M  V30 2932 H 266.66 1.24764 -5.37716 0
M  V30 2933 H 267.137 2.05144 -3.88346 0
M  V30 2934 H 267.743 0.416089 -4.2326 0
M  V30 2935 N 266.058 1.56714 -0.166846 0
M  V30 2936 C 267.469 1.83378 0.350646 0
M  V30 2937 C 267.82 1.08646 1.63372 0
M  V30 2938 O 266.945 0.338058 2.13743 0
M  V30 2939 C 267.54 3.32643 0.642963 0
M  V30 2940 C 266.099 3.59818 1.10491 0
M  V30 2941 C 265.246 2.76954 0.138411 0
M  V30 2942 H 268.197 1.53803 -0.391193 0
M  V30 2943 H 268.218 3.49878 1.49551 0
M  V30 2944 H 267.73 3.87007 -0.291055 0
M  V30 2945 H 265.831 3.1086 2.05418 0
M  V30 2946 H 265.944 4.68178 1.01716 0
M  V30 2947 H 264.308 2.4666 0.634911 0
M  V30 2948 H 265.091 3.34097 -0.789549 0
M  V30 2949 N 267.536 -0.106894 1.57237 0
M  V30 2950 C 268.486 -1.1366 1.9765 0
M  V30 2951 C 269.47 -1.36416 0.853203 0
M  V30 2952 O 270.662 -1.37305 1.11697 0
M  V30 2953 C 267.791 -2.46 2.39455 0
M  V30 2954 C 266.877 -2.26668 3.58445 0
M  V30 2955 N 267.268 -1.77176 4.73754 0
M  V30 2956 C 265.566 -2.57279 3.64312 0
M  V30 2957 C 266.267 -1.71836 5.5574 0
M  V30 2958 N 265.243 -2.16623 4.98573 0
M  V30 2959 H 269.045 -0.74669 2.84256 0
M  V30 2960 H 266.559 -0.314483 1.59326 0
M  V30 2961 H 268.556 -3.2049 2.6663 0
M  V30 2962 H 267.216 -2.85738 1.54219 0
M  V30 2963 H 268.227 -1.46545 4.96734 0
M  V30 2964 H 264.904 -3.00622 2.89711 0
M  V30 2965 H 266.294 -1.34723 6.58255 0
M  V30 2966 N 269.014 -1.53014 -0.377408 0
M  V30 2967 C 270.239 -1.72818 -1.14668 0
M  V30 2968 C 270.664 -0.450725 -1.8262 0
M  V30 2969 O 270.022 0.59439 -1.7128 0
M  V30 2970 C 270.07 -2.88627 -2.16164 0
M  V30 2971 O 269.174 -2.56409 -3.22998 0
M  V30 2972 H 268.515 -0.574301 -0.333278 0
M  V30 2973 H 271.045 -1.99853 -0.438152 0
M  V30 2974 H 271.055 -3.14455 -2.59966 0
M  V30 2975 H 269.73 -3.81294 -1.66095 0
M  V30 2976 H 268.307 -2.4136 -2.84253 0
M  V30 2977 N 270.492 0.636531 -1.44174 0
M  V30 2978 C 271.903 1.21806 -1.41493 0
M  V30 2979 C 272.254 1.95785 -0.1275 0
M  V30 2980 O 271.379 2.02147 0.772376 0
M  V30 2981 C 271.974 2.21551 -2.56321 0
M  V30 2982 C 270.533 2.75143 -2.56853 0
M  V30 2983 C 269.68 1.50052 -2.33195 0
M  V30 2984 H 272.631 0.427531 -1.52833 0
M  V30 2985 H 272.652 3.0405 -2.28765 0
M  V30 2986 H 272.164 1.67679 -3.50008 0
M  V30 2987 H 270.265 3.33033 -1.67093 0
M  V30 2988 H 270.378 3.2155 -3.55165 0
M  V30 2989 H 268.742 1.77993 -1.82183 0
M  V30 2990 H 269.525 0.980903 -3.28988 0
M  V30 2991 N 271.97 1.30982 0.876444 0
M  V30 2992 C 272.92 1.14688 1.97055 0
M  V30 2993 C 273.904 0.0596593 1.60789 0
M  V30 2994 O 275.096 0.283892 1.74708 0
M  V30 2995 C 272.225 0.849627 3.3262 0
M  V30 2996 C 271.311 1.97752 3.75173 0
M  V30 2997 N 271.702 3.22384 3.89746 0
M  V30 2998 C 270 1.8758 4.04635 0
M  V30 2999 C 270.701 3.96121 4.25985 0
M  V30 3000 N 269.677 3.24237 4.36315 0
M  V30 3001 H 273.479 2.09204 2.06424 0
M  V30 3002 H 270.993 1.22445 1.06682 0
M  V30 3003 H 272.99 0.713895 4.10742 0
M  V30 3004 H 271.65 -0.087376 3.24582 0
M  V30 3005 H 272.661 3.57575 3.74647 0
M  V30 3006 H 269.338 1.01303 4.05024 0
M  V30 3007 H 270.728 5.03491 4.44911 0
M  V30 3008 N 273.449 -1.08991 1.13837 0
M  V30 3009 C 274.698 -1.80631 0.897509 0
M  V30 3010 C 275.011 -1.86872 -0.57777 0
M  V30 3011 O 276.217 -2.54866 -0.935701 0
M  V30 3012 C 274.673 -3.24517 1.55618 0
M  V30 3013 C 274.281 -3.26529 3.0673 0
M  V30 3014 C 276.025 -4.00882 1.3962 0
M  V30 3015 C 273.932 -4.64965 3.65461 0
M  V30 3016 H 272.862 -0.67691 0.332129 0
M  V30 3017 H 275.513 -1.2246 1.3666 0
M  V30 3018 H 273.895 -3.82778 1.01476 0
M  V30 3019 H 275.069 -2.78008 3.67489 0
M  V30 3020 H 273.384 -2.63656 3.22296 0
M  V30 3021 H 275.981 -5.03167 1.80906 0
M  V30 3022 H 276.324 -4.14896 0.341578 0
M  V30 3023 H 276.857 -3.49075 1.90766 0
M  V30 3024 H 273.596 -4.56153 4.70749 0
M  V30 3025 H 273.116 -5.13792 3.09481 0
M  V30 3026 H 274.795 -5.3394 3.654 0
M  V30 3027 N 274.927 -0.932562 -1.27047 0
M  V30 3028 C 276.204 -0.49377 -1.89265 0
M  V30 3029 C 276.584 1.02833 -1.8436 0
M  V30 3030 O 275.932 1.88461 -1.29209 0
M  V30 3031 C 276.142 -1.04536 -3.32976 0
M  V30 3032 C 277.49 -1.10879 -4.09867 0
M  V30 3033 O 278.514 -0.995327 -3.42011 0
M  V30 3034 O 277.373 -1.28417 -5.31198 0
M  V30 3035 H 274.467 -0.159596 -0.811454 0
M  V30 3036 H 277.013 -1.02457 -1.3528 0
M  V30 3037 H 275.785 -2.08913 -3.30864 0
M  V30 3038 H 275.408 -0.496494 -3.94488 0
M  V30 3039 N 276.405 1.4127 -0.698611 0
M  V30 3040 C 277.338 2.28195 0.0153898 0
M  V30 3041 C 278.316 1.42402 0.784883 0
M  V30 3042 O 279.5 1.71828 0.775067 0
M  V30 3043 C 276.627 3.22685 1.02918 0
M  V30 3044 C 275.673 4.25041 0.352501 0
M  V30 3045 S 276.506 5.27757 -0.907322 0
M  V30 3046 C 277.662 6.25812 0.104796 0
M  V30 3047 H 277.895 2.88403 -0.721858 0
M  V30 3048 H 275.428 1.46452 -0.488996 0
M  V30 3049 H 277.386 3.77655 1.60893 0
M  V30 3050 H 276.047 2.61566 1.73902 0
M  V30 3051 H 275.24 4.91437 1.11828 0
M  V30 3052 H 274.842 3.73682 -0.154254 0
M  V30 3053 H 277.134 6.70705 0.957103 0
M  V30 3054 H 278.077 7.06149 -0.525323 0
M  V30 3055 H 278.485 5.62615 0.460931 0
M  V30 3056 N 277.883 0.443576 1.51229 0
M  V30 3057 C 279.131 -0.120557 2.0174 0
M  V30 3058 C 279.452 -1.42665 1.32935 0
M  V30 3059 O 278.722 -1.9028 0.465866 0
M  V30 3060 H 277.302 -0.0475426 0.745486 0
M  V30 3061 H 279.964 0.587711 1.85828 0
M  V30 3062 H 279.06 -0.291972 3.10731 0
M  V30 3063 N 279.361 -1.56624 0.175154 0
M  V30 3064 C 280.291 -2.21155 -0.749195 0
M  V30 3065 C 281.272 -1.16836 -1.23626 0
M  V30 3066 O 282.457 -1.45277 -1.28873 0
M  V30 3067 C 279.587 -2.8553 -1.97711 0
M  V30 3068 C 278.541 -3.95921 -1.62575 0
M  V30 3069 C 277.867 -4.47365 -2.92864 0
M  V30 3070 C 279.167 -5.15323 -0.850838 0
M  V30 3071 H 280.861 -2.98653 -0.211295 0
M  V30 3072 H 278.407 -1.43651 -0.100188 0
M  V30 3073 H 280.36 -3.2935 -2.62881 0
M  V30 3074 H 279.084 -2.05406 -2.53921 0
M  V30 3075 H 277.743 -3.52762 -0.997719 0
M  V30 3076 H 277.391 -3.64027 -3.47122 0
M  V30 3077 H 277.091 -5.21839 -2.70106 0
M  V30 3078 H 278.615 -4.93873 -3.59056 0
M  V30 3079 H 280.029 -5.55812 -1.40521 0
M  V30 3080 H 278.426 -5.95739 -0.722154 0
M  V30 3081 H 279.496 -4.84661 0.152082 0
M  V30 3082 N 280.839 0.0985539 -1.57292 0
M  V30 3083 C 282.116 0.834155 -1.76921 0
M  V30 3084 C 282.496 1.97101 -0.755928 0
M  V30 3085 O 281.844 2.27474 0.216245 0
M  V30 3086 C 282.054 1.33194 -3.22584 0
M  V30 3087 C 283.402 1.77611 -3.85668 0
M  V30 3088 O 284.426 1.42825 -3.26312 0
M  V30 3089 O 283.285 2.4192 -4.90038 0
M  V30 3090 H 280.379 0.397628 -0.725135 0
M  V30 3091 H 282.925 0.0807044 -1.69508 0
M  V30 3092 H 281.697 0.517248 -3.87866 0
M  V30 3093 H 281.32 2.1475 -3.34616 0
M  V30 3094 N 282.317 1.53212 0.369288 0
M  V30 3095 C 283.565 1.68881 1.11012 0
M  V30 3096 C 283.886 0.441285 1.89941 0
M  V30 3097 O 283.156 -0.544623 1.88177 0
M  V30 3098 H 281.736 0.622569 0.412816 0
M  V30 3099 H 284.398 1.90391 0.416802 0
M  V30 3100 H 283.494 2.54822 1.80201 0
M  V30 3101 N 283.795 -0.628877 1.44509 0
M  V30 3102 C 285.041 -1.39045 1.47629 0
M  V30 3103 C 285.374 -1.93892 0.109343 0
M  V30 3104 O 284.649 -1.7379 -0.87334 0
M  V30 3105 C 284.932 -2.55408 2.53848 0
M  V30 3106 C 284.785 -2.05896 3.99909 0
M  V30 3107 C 286.104 -3.5759 2.56549 0
M  V30 3108 H 283.223 -0.504232 0.537512 0
M  V30 3109 H 285.865 -0.710854 1.76201 0
M  V30 3110 H 284.015 -3.13384 2.29615 0
M  V30 3111 H 285.687 -1.52734 4.35282 0
M  V30 3112 H 283.93 -1.37061 4.11578 0
M  V30 3113 H 284.601 -2.89681 4.69882 0
M  V30 3114 H 287.077 -3.09419 2.78207 0
M  V30 3115 H 285.953 -4.36527 3.32769 0
M  V30 3116 H 286.214 -4.11808 1.60832 0
M  V30 3117 N 285.273 -1.31445 -0.869486 0
M  V30 3118 C 286.183 -1.21097 -2.0093 0
M  V30 3119 C 287.199 -0.127584 -1.73532 0
M  V30 3120 O 288.375 -0.345477 -1.98415 0
M  V30 3121 C 285.44 -0.919378 -3.34288 0
M  V30 3122 C 284.501 -2.08971 -3.75006 0
M  V30 3123 C 283.734 -1.81194 -5.02001 0
M  V30 3124 O 283.957 -0.747296 -5.65484 0
M  V30 3125 O 282.891 -2.66883 -5.39497 0
M  V30 3126 H 286.717 -2.16883 -2.12592 0
M  V30 3127 H 284.302 -1.11189 -0.997868 0
M  V30 3128 H 286.184 -0.772625 -4.14257 0
M  V30 3129 H 284.859 0.00844772 -3.23699 0
M  V30 3130 H 283.766 -2.29187 -2.95676 0
M  V30 3131 H 285.099 -2.9998 -3.90221 0
M  V30 3132 N 286.751 1.08385 -1.14413 0
M  V30 3133 C 288 1.80153 -0.907076 0
M  V30 3134 C 288.313 1.87176 0.567851 0
M  V30 3135 O 289.519 2.55359 0.922172 0
M  V30 3136 C 287.975 3.23687 -1.57336 0
M  V30 3137 C 287.583 3.24897 -3.08457 0
M  V30 3138 C 289.327 4.00136 -1.41744 0
M  V30 3139 C 287.234 4.6302 -3.67921 0
M  V30 3140 H 286.164 0.675139 -0.335714 0
M  V30 3141 H 288.815 1.21733 -1.37307 0
M  V30 3142 H 287.197 3.82234 -1.03505 0
M  V30 3143 H 288.371 2.76055 -3.68958 0
M  V30 3144 H 286.686 2.61943 -3.2369 0
M  V30 3145 H 289.283 5.02201 -1.83572 0
M  V30 3146 H 289.626 4.14709 -0.363576 0
M  V30 3147 H 290.159 3.48058 -1.92614 0
M  V30 3148 H 286.898 4.5365 -4.73161 0
M  V30 3149 H 286.418 5.12143 -3.12201 0
M  V30 3150 H 288.097 5.31994 -3.68227 0
M  V30 3151 N 288.23 0.939286 1.26551 0
M  V30 3152 C 289.479 0.581601 1.93133 0
M  V30 3153 C 289.792 -0.883224 1.74524 0
M  V30 3154 O 290.998 -1.3502 2.35546 0
M  V30 3155 C 289.454 0.989425 3.46032 0
M  V30 3156 C 289.062 2.47573 3.73379 0
M  V30 3157 C 290.806 0.703544 4.18629 0
M  V30 3158 C 288.713 2.82235 5.19709 0
M  V30 3159 H 287.643 0.213803 0.723052 0
M  V30 3160 H 290.294 1.14167 1.4366 0
M  V30 3161 H 288.676 0.357902 3.94379 0
M  V30 3162 H 289.85 3.15614 3.35744 0
M  V30 3163 H 288.165 2.73471 3.1401 0
M  V30 3164 H 290.762 0.938869 5.26393 0
M  V30 3165 H 291.105 -0.359639 4.14744 0
M  V30 3166 H 291.638 1.2947 3.76141 0
M  V30 3167 H 288.377 3.87509 5.28694 0
M  V30 3168 H 287.897 2.18854 5.58447 0
M  V30 3169 H 289.576 2.70599 5.87695 0
M  V30 3170 N 289.708 -1.40897 0.706093 0
M  V30 3171 C 290.936 -2.05373 0.250887 0
M  V30 3172 C 291.351 -1.53172 -1.10381 0
M  V30 3173 O 290.708 -0.684305 -1.69185 0
M  V30 3174 C 290.759 -3.6088 0.211571 0
M  V30 3175 O 290.48 -4.11153 1.51276 0
M  V30 3176 C 291.981 -4.42517 -0.263346 0
M  V30 3177 H 289.201 -0.66115 0.114552 0
M  V30 3178 H 291.745 -1.80479 0.961635 0
M  V30 3179 H 289.9 -3.84777 -0.450073 0
M  V30 3180 H 290.314 -5.05279 1.40689 0
M  V30 3181 H 291.788 -5.51479 -0.239718 0
M  V30 3182 H 292.265 -4.19396 -1.30397 0
M  V30 3183 H 292.871 -4.23708 0.367677 0
M  V30 3184 N 291.186 -0.45159 -1.50991 0
M  V30 3185 C 292.134 0.366864 -2.29689 0
M  V30 3186 C 293.128 1.00809 -1.36139 0
M  V30 3187 O 294.334 0.941427 -1.53418 0
M  V30 3188 H 290.709 0.137133 -0.739391 0
M  V30 3189 H 292.68 -0.317538 -2.96706 0
M  V30 3190 C 291.429 1.44751 -3.16137 0
M  V30 3191 H 290.752 0.963473 -3.88017 0
M  V30 3192 H 292.192 1.99315 -3.74232 0
M  V30 3193 C 290.651 2.43869 -2.32442 0
M  V30 3194 O 291.181 3.4872 -1.99392 0
M  V30 3195 N 289.387 2.15105 -1.95392 0
M  V30 3196 H 288.934 1.29866 -2.22469 0
M  V30 3197 H 288.892 2.81661 -1.39693 0
M  V30 3198 N 292.664 1.56529 -0.183458 0
M  V30 3199 C 293.627 2.17324 0.728223 0
M  V30 3200 C 294.627 1.12453 1.14939 0
M  V30 3201 O 295.817 1.37902 1.06437 0
M  V30 3202 C 292.949 2.76591 1.99274 0
M  V30 3203 H 294.142 2.99241 0.198772 0
M  V30 3204 H 291.695 1.5616 0.0661391 0
M  V30 3205 H 292.43 1.98441 2.56499 0
M  V30 3206 H 292.215 3.5335 1.69959 0
M  V30 3207 H 293.705 3.23311 2.6431 0
M  V30 3208 N 294.142 -0.090211 1.57342 0
M  V30 3209 C 295.367 -0.810082 1.90925 0
M  V30 3210 C 295.792 -1.71248 0.778187 0
M  V30 3211 O 295.15 -1.79278 -0.269991 0
M  V30 3212 C 295.198 -1.59529 3.23393 0
M  V30 3213 O 294.302 -2.70461 3.11327 0
M  V30 3214 H 293.643 -0.222231 0.625707 0
M  V30 3215 H 296.173 -0.0639716 2.045 0
M  V30 3216 H 296.183 -1.97847 3.5682 0
M  V30 3217 H 294.858 -0.933055 4.05299 0
M  V30 3218 H 293.435 -2.35135 2.89423 0
M  V30 3219 N 295.62 -1.53406 -0.361157 0
M  V30 3220 C 296.868 -1.69467 -1.10115 0
M  V30 3221 C 297.189 -0.451352 -1.89705 0
M  V30 3222 O 296.459 0.534636 -1.88463 0
M  V30 3223 H 295.039 -0.624749 -0.409508 0
M  V30 3224 H 297.701 -1.90609 -0.406699 0
M  V30 3225 H 296.797 -2.55774 -1.78847 0
M  V30 3226 N 297.098 0.621204 -1.44841 0
M  V30 3227 C 298.323 1.41244 -1.51871 0
M  V30 3228 C 298.748 1.87519 -0.147764 0
M  V30 3229 O 298.106 1.59334 0.865 0
M  V30 3230 C 298.154 2.60221 -2.49634 0
M  V30 3231 O 297.258 3.60395 -2.00473 0
M  V30 3232 H 296.599 0.42223 -0.512463 0
M  V30 3233 H 299.129 0.757305 -1.90069 0
M  V30 3234 H 299.139 3.0764 -2.67996 0
M  V30 3235 H 297.814 2.25887 -3.4921 0
M  V30 3236 H 296.391 3.19717 -1.91925 0
M  V30 3237 N 298.576 1.31904 0.862503 0
M  V30 3238 C 299.526 1.16772 1.95827 0
M  V30 3239 C 300.51 0.0767098 1.60717 0
M  V30 3240 O 301.702 0.302407 1.74398 0
M  V30 3241 C 298.831 0.884858 3.317 0
M  V30 3242 C 297.917 2.0172 3.73055 0
M  V30 3243 N 298.308 3.265 3.86305 0
M  V30 3244 C 296.606 1.91861 4.02623 0
M  V30 3245 C 297.307 4.00616 4.2176 0
M  V30 3246 N 296.283 3.28847 4.32852 0
M  V30 3247 H 300.085 2.11382 2.04193 0
M  V30 3248 H 297.599 1.2357 1.05377 0
M  V30 3249 H 299.596 0.757419 4.09962 0
M  V30 3250 H 298.256 -0.0529448 3.24657 0
M  V30 3251 H 299.267 3.61529 3.70833 0
M  V30 3252 H 295.944 1.05593 4.03926 0
M  V30 3253 H 297.334 5.08182 4.39546 0
M  V30 3254 N 300.054 -1.07777 1.14986 0
M  V30 3255 C 300.986 -2.14769 0.800436 0
M  V30 3256 C 301.999 -1.61739 -0.185595 0
M  V30 3257 O 303.188 -1.78462 0.0370358 0
M  V30 3258 C 300.288 -3.38481 0.168533 0
M  V30 3259 C 299.461 -4.20876 1.1909 0
M  V30 3260 C 298.52 -5.22976 0.581575 0
M  V30 3261 O 297.546 -5.55388 1.24633 0
M  V30 3262 N 298.748 -5.76976 -0.638706 0
M  V30 3263 H 301.513 -2.45348 1.72118 0
M  V30 3264 H 299.074 -1.23645 1.04515 0
M  V30 3265 H 301.066 -4.03916 -0.251764 0
M  V30 3266 H 299.636 -3.05651 -0.655467 0
M  V30 3267 H 298.856 -3.51322 1.78791 0
M  V30 3268 H 300.144 -4.7274 1.88133 0
M  V30 3269 H 299.542 -5.52886 -1.19723 0
M  V30 3270 H 298.099 -6.44061 -1.00142 0
M  V30 3271 N 301.532 -0.945985 -1.26051 0
M  V30 3272 C 302.778 -0.597002 -1.93814 0
M  V30 3273 C 303.111 0.862484 -1.73997 0
M  V30 3274 O 302.386 1.61769 -1.07986 0
M  V30 3275 C 302.669 -0.945937 -3.47454 0
M  V30 3276 C 302.522 -2.46052 -3.76535 0
M  V30 3277 C 303.841 -0.464785 -4.37639 0
M  V30 3278 H 300.96 -0.218366 -0.703907 0
M  V30 3279 H 303.602 -1.18107 -1.48831 0
M  V30 3280 H 301.752 -0.448902 -3.85898 0
M  V30 3281 H 303.424 -3.03065 -3.47778 0
M  V30 3282 H 301.667 -2.90194 -3.22444 0
M  V30 3283 H 302.338 -2.65517 -4.83947 0
M  V30 3284 H 304.814 -0.891016 -4.06448 0
M  V30 3285 H 303.69 -0.737712 -5.4392 0
M  V30 3286 H 303.951 0.635274 -4.37512 0
M  V30 3287 N 303.011 1.40521 -0.713556 0
M  V30 3288 C 303.941 2.33381 -0.0743864 0
M  V30 3289 C 304.922 1.52784 0.747735 0
M  V30 3290 O 306.107 1.81258 0.697071 0
M  V30 3291 C 303.237 3.36748 0.849598 0
M  V30 3292 C 302.191 4.27793 0.133247 0
M  V30 3293 C 301.517 5.21679 1.17281 0
M  V30 3294 C 302.817 5.12415 -1.01134 0
M  V30 3295 H 304.511 2.87081 -0.850007 0
M  V30 3296 H 302.057 1.38034 -0.410201 0
M  V30 3297 H 304.01 4.00648 1.30612 0
M  V30 3298 H 302.734 2.81439 1.65709 0
M  V30 3299 H 301.393 3.65342 -0.303426 0
M  V30 3300 H 301.041 4.62677 1.9733 0
M  V30 3301 H 300.741 5.83435 0.698397 0
M  V30 3302 H 302.265 5.88456 1.62947 0
M  V30 3303 H 303.679 5.69781 -0.634274 0
M  V30 3304 H 302.076 5.83203 -1.41399 0
M  V30 3305 H 303.146 4.48514 -1.84292 0
M  V30 3306 N 304.489 0.459591 1.5075 0
M  V30 3307 C 305.905 0.113092 1.59199 0
M  V30 3308 C 306.105 -1.37951 1.46874 0
M  V30 3309 O 305.161 -2.15168 1.32132 0
M  V30 3310 C 306.474 0.653043 2.93523 0
M  V30 3311 C 308.022 0.615449 3.0689 0
M  V30 3312 C 308.497 1.13275 4.43771 0
M  V30 3313 N 309.988 1.09167 4.50152 0
M  V30 3314 C 310.723 1.46256 5.54434 0
M  V30 3315 N 310.219 1.90739 6.66026 0
M  V30 3316 N 312.012 1.37932 5.44914 0
M  V30 3317 H 304.163 1.43049 1.57005 0
M  V30 3318 H 306.426 0.590861 0.741341 0
M  V30 3319 H 306.132 1.69822 3.07983 0
M  V30 3320 H 306.006 0.0902132 3.77092 0
M  V30 3321 H 308.393 -0.420793 2.92084 0
M  V30 3322 H 308.474 1.21495 2.25106 0
M  V30 3323 H 308.118 2.16757 4.59324 0
M  V30 3324 H 308.048 0.509576 5.24129 0
M  V30 3325 H 310.539 0.76528 3.7007 0
M  V30 3326 H 310.852 2.17218 7.41644 0
M  V30 3327 H 309.197 1.94683 6.67176 0
M  V30 3328 H 312.388 1.0303 4.56621 0
M  V30 3329 H 312.561 1.67164 6.26067 0
M  V30 3330 N 305.967 -1.56429 0.191757 0
M  V30 3331 C 306.914 -2.18936 -0.730454 0
M  V30 3332 C 307.884 -1.13557 -1.21219 0
M  V30 3333 O 309.069 -1.41794 -1.27668 0
M  V30 3334 C 306.209 -2.85013 -1.9458 0
M  V30 3335 C 305.322 -4.04909 -1.50574 0
M  V30 3336 C 304.457 -4.58853 -2.67634 0
M  V30 3337 C 303.496 -5.71114 -2.20217 0
M  V30 3338 N 302.633 -6.19478 -3.30442 0
M  V30 3339 H 307.473 -2.97389 -0.190664 0
M  V30 3340 H 305.01 -1.46869 -0.0823694 0
M  V30 3341 H 306.968 -3.21492 -2.65893 0
M  V30 3342 H 305.598 -2.09129 -2.45896 0
M  V30 3343 H 304.65 -3.74115 -0.688605 0
M  V30 3344 H 305.962 -4.86113 -1.11784 0
M  V30 3345 H 305.116 -4.97619 -3.47074 0
M  V30 3346 H 303.855 -3.76749 -3.09696 0
M  V30 3347 H 302.86 -5.31879 -1.3923 0
M  V30 3348 H 304.085 -6.55033 -1.79189 0
M  V30 3349 H 302.031 -5.40297 -3.72041 0
M  V30 3350 H 301.948 -6.95725 -2.9581 0
M  V30 3351 H 303.216 -6.62898 -4.10106 0
M  V30 3352 N 307.445 0.0818655 -1.57387 0
M  V30 3353 C 308.408 1.08265 -2.02018 0
M  V30 3354 C 309.408 1.32183 -0.915664 0
M  V30 3355 O 310.598 1.28073 -1.18081 0
M  V30 3356 C 307.73 2.42871 -2.39221 0
M  V30 3357 H 308.923 0.698204 -2.91659 0
M  V30 3358 H 306.476 0.327303 -1.52835 0
M  V30 3359 H 307.211 2.86167 -1.52575 0
M  V30 3360 H 306.996 2.26855 -3.19811 0
M  V30 3361 H 308.486 3.14826 -2.74362 0
M  V30 3362 N 308.923 1.53595 0.353017 0
M  V30 3363 C 309.871 1.81605 1.45335 0
M  V30 3364 C 310.865 0.685923 1.54892 0
M  V30 3365 O 312.071 0.869095 1.57628 0
M  V30 3366 H 308.446 0.575204 0.484401 0
M  V30 3367 H 310.417 2.73679 1.18921 0
M  V30 3368 C 309.166 2.03406 2.81995 0
M  V30 3369 H 308.489 2.89814 2.75405 0
M  V30 3370 H 309.929 2.26975 3.58132 0
M  V30 3371 C 308.388 0.816794 3.26849 0
M  V30 3372 O 308.918 0.0115856 4.01698 0
M  V30 3373 N 307.124 0.636682 2.8354 0
M  V30 3374 H 306.671 1.2931 2.22793 0
M  V30 3375 H 306.629 -0.176336 3.13905 0
M  V30 3376 N 310.401 -0.613514 1.45168 0
M  V30 3377 C 311.629 -1.39946 1.5239 0
M  V30 3378 C 312.044 -1.88167 0.154531 0
M  V30 3379 O 311.401 -1.61872 -0.842843 0
M  V30 3380 C 311.452 -2.60795 2.50337 0
M  V30 3381 O 311.173 -2.1458 3.81952 0
M  V30 3382 C 312.674 -3.53723 2.67198 0
M  V30 3383 H 309.894 -0.428593 0.516284 0
M  V30 3384 H 312.438 -0.748753 1.903 0
M  V30 3385 H 310.593 -3.21919 2.15515 0
M  V30 3386 H 311.007 -2.93055 4.34993 0
M  V30 3387 H 312.481 -4.35079 3.39721 0
M  V30 3388 H 312.958 -4.0368 1.73029 0
M  V30 3389 H 313.564 -2.98456 3.02992 0
M  V30 3390 N 311.879 -1.3236 -0.855495 0
M  V30 3391 C 313.295 -1.11332 -1.14356 0
M  V30 3392 C 313.495 0.106751 -2.01217 0
M  V30 3393 O 312.551 0.791891 -2.39761 0
M  V30 3394 C 313.864 -2.39237 -1.82171 0
M  V30 3395 C 315.412 -2.44986 -1.9481 0
M  V30 3396 C 315.887 -3.7281 -2.66039 0
M  V30 3397 N 317.378 -3.73787 -2.73565 0
M  V30 3398 C 318.113 -4.69394 -3.29327 0
M  V30 3399 N 317.609 -5.75367 -3.85907 0
M  V30 3400 N 319.402 -4.56893 -3.27423 0
M  V30 3401 H 311.553 -2.10586 -0.277027 0
M  V30 3402 H 313.816 -0.929701 -0.185364 0
M  V30 3403 H 313.522 -3.28431 -1.25802 0
M  V30 3404 H 313.396 -2.50134 -2.82335 0
M  V30 3405 H 315.783 -1.56252 -2.50338 0
M  V30 3406 H 315.864 -2.38043 -0.936448 0
M  V30 3407 H 315.508 -4.61918 -2.11174 0
M  V30 3408 H 315.438 -3.77024 -3.67642 0
M  V30 3409 H 317.929 -2.97189 -2.33424 0
M  V30 3410 H 318.242 -6.44378 -4.26611 0
M  V30 3411 H 316.587 -5.79123 -3.84242 0
M  V30 3412 H 319.778 -3.73269 -2.82467 0
M  V30 3413 H 319.951 -5.31577 -3.7058 0
M  V30 3414 N 313.357 1.07166 -1.15556 0
M  V30 3415 C 314.603 1.80065 -0.932984 0
M  V30 3416 C 314.936 1.86586 0.53845 0
M  V30 3417 O 314.211 1.35098 1.39924 0
M  V30 3418 C 314.494 3.25022 -1.55025 0
M  V30 3419 C 314.347 3.26634 -3.09242 0
M  V30 3420 C 315.666 4.22341 -1.2376 0
M  V30 3421 H 312.785 0.653697 -0.340366 0
M  V30 3422 H 315.427 1.25389 -1.4275 0
M  V30 3423 H 313.577 3.71712 -1.12972 0
M  V30 3424 H 315.249 2.88173 -3.60214 0
M  V30 3425 H 313.492 2.65539 -3.43033 0
M  V30 3426 H 314.163 4.28854 -3.47546 0
M  V30 3427 H 316.639 3.8405 -1.60139 0
M  V30 3428 H 315.515 5.22053 -1.69564 0
M  V30 3429 H 315.776 4.41828 -0.154938 0
M  V30 3430 N 314.835 0.952656 1.25548 0
M  V30 3431 C 316.112 0.523818 1.88456 0
M  V30 3432 C 316.492 -0.998871 1.85973 0
M  V30 3433 O 315.84 -1.86381 1.3219 0
M  V30 3434 C 316.05 1.0982 3.31271 0
M  V30 3435 C 317.398 1.17385 4.08051 0
M  V30 3436 O 318.422 1.04961 3.40384 0
M  V30 3437 O 317.281 1.36852 5.29088 0
M  V30 3438 H 314.375 0.172485 0.808813 0
M  V30 3439 H 316.921 1.04596 1.33633 0
M  V30 3440 H 315.693 2.1415 3.27499 0
M  V30 3441 H 315.316 0.559191 3.93648 0
M  V30 3442 N 316.313 -1.40141 0.720998 0
M  V30 3443 C 317.243 -2.33339 0.0867621 0
M  V30 3444 C 318.224 -1.53178 -0.739622 0
M  V30 3445 O 319.409 -1.81625 -0.687449 0
M  V30 3446 C 316.539 -3.37194 -0.831728 0
M  V30 3447 C 315.493 -4.27857 -0.110558 0
M  V30 3448 C 314.819 -5.22294 -1.14513 0
M  V30 3449 C 316.119 -5.11872 1.0385 0
M  V30 3450 H 317.813 -2.86626 0.865219 0
M  V30 3451 H 315.359 -1.37814 0.417516 0
M  V30 3452 H 317.312 -4.01335 -1.28485 0
M  V30 3453 H 316.036 -2.82314 -1.64214 0
M  V30 3454 H 314.695 -3.65176 0.322797 0
M  V30 3455 H 314.343 -4.63717 -1.94874 0
M  V30 3456 H 314.043 -5.83797 -0.667446 0
M  V30 3457 H 315.567 -5.89312 -1.59824 0
M  V30 3458 H 316.981 -5.69436 0.664482 0
M  V30 3459 H 315.378 -5.82445 1.4449 0
M  V30 3460 H 316.448 -4.4753 1.86668 0
M  V30 3461 N 317.792 -0.46758 -1.50504 0
M  V30 3462 C 319.038 0.0887532 -2.02606 0
M  V30 3463 C 319.371 1.39686 -1.34913 0
M  V30 3464 O 318.646 1.88644 -0.473694 0
M  V30 3465 C 318.929 0.276206 -3.59039 0
M  V30 3466 C 318.782 -1.05267 -4.37309 0
M  V30 3467 C 320.101 1.03235 -4.27821 0
M  V30 3468 H 317.22 0.0307814 -0.736357 0
M  V30 3469 H 319.862 -0.612485 -1.79857 0
M  V30 3470 H 318.012 0.8735 -3.78553 0
M  V30 3471 H 319.684 -1.68628 -4.29374 0
M  V30 3472 H 317.927 -1.65015 -4.01189 0
M  V30 3473 H 318.598 -0.875197 -5.45018 0
M  V30 3474 H 321.074 0.526111 -4.12761 0
M  V30 3475 H 319.95 1.1323 -5.37094 0
M  V30 3476 H 320.211 2.06806 -3.90748 0
M  V30 3477 N 319.27 1.56325 -0.20005 0
M  V30 3478 C 320.498 2.02105 0.442874 0
M  V30 3479 C 320.913 1.08014 1.5485 0
M  V30 3480 O 320.27 0.0858797 1.82298 0
M  V30 3481 C 320.321 3.47549 0.994583 0
M  V30 3482 O 320.042 4.38049 -0.0669322 0
M  V30 3483 C 321.543 4.0887 1.7129 0
M  V30 3484 H 318.763 0.661807 0.110691 0
M  V30 3485 H 321.307 2.02134 -0.310207 0
M  V30 3486 H 319.462 3.48204 1.69803 0
M  V30 3487 H 319.876 5.23368 0.344462 0
M  V30 3488 H 321.35 5.12475 2.05118 0
M  V30 3489 H 321.827 3.52615 2.61838 0
M  V30 3490 H 322.433 4.12002 1.05518 0
M  V30 3491 N 320.748 -0.0735177 1.57428 0
M  V30 3492 C 321.681 -1.11932 1.98863 0
M  V30 3493 C 322.659 -1.37666 0.865266 0
M  V30 3494 O 323.843 -1.51068 1.12742 0
M  V30 3495 C 320.97 -2.46403 2.32386 0
M  V30 3496 C 320.016 -2.36815 3.54713 0
M  V30 3497 S 320.849 -1.76392 5.05614 0
M  V30 3498 C 322.005 -3.12444 5.42337 0
M  V30 3499 H 322.238 -0.766212 2.87257 0
M  V30 3500 H 319.771 -0.281987 1.51803 0
M  V30 3501 H 321.729 -3.23755 2.52375 0
M  V30 3502 H 320.39 -2.78876 1.44524 0
M  V30 3503 H 319.583 -3.35977 3.7568 0
M  V30 3504 H 319.185 -1.67598 3.34345 0
M  V30 3505 H 321.477 -4.08753 5.40303 0
M  V30 3506 H 322.42 -2.96258 6.43146 0
M  V30 3507 H 322.828 -3.1297 4.69798 0
M  V30 3508 N 322.226 -1.5378 -0.344866 0
M  V30 3509 C 323.472 -1.71216 -1.08687 0
M  V30 3510 C 323.805 -0.473281 -1.88345 0
M  V30 3511 O 323.08 0.52968 -1.87149 0
M  V30 3512 C 323.363 -2.97486 -2.02914 0
M  V30 3513 C 323.216 -4.31579 -1.26727 0
M  V30 3514 C 324.535 -3.19422 -3.0275 0
M  V30 3515 H 321.654 -0.62301 -0.393735 0
M  V30 3516 H 324.296 -1.8645 -0.365563 0
M  V30 3517 H 322.446 -2.84629 -2.64421 0
M  V30 3518 H 324.118 -4.56284 -0.67845 0
M  V30 3519 H 322.361 -4.30049 -0.569273 0
M  V30 3520 H 323.032 -5.16106 -1.95803 0
M  V30 3521 H 325.508 -3.316 -2.51357 0
M  V30 3522 H 324.384 -4.09169 -3.65885 0
M  V30 3523 H 324.645 -2.35656 -3.74057 0
M  V30 3524 N 323.704 0.605807 -1.45491 0
M  V30 3525 C 324.932 1.39136 -1.5313 0
M  V30 3526 C 325.347 1.88082 -0.164507 0
M  V30 3527 O 324.704 1.62316 0.834247 0
M  V30 3528 C 324.755 2.59463 -2.51716 0
M  V30 3529 O 324.476 2.12551 -3.83084 0
M  V30 3530 C 325.977 3.52301 -2.6907 0
M  V30 3531 H 323.197 0.425849 -0.51855 0
M  V30 3532 H 325.741 0.73865 -1.90694 0
M  V30 3533 H 323.896 3.20772 -2.17219 0
M  V30 3534 H 324.31 2.90744 -4.36541 0
M  V30 3535 H 325.784 4.33271 -3.42024 0
M  V30 3536 H 326.261 4.02757 -1.75167 0
M  V30 3537 H 326.867 2.96845 -3.04571 0
M  V30 3538 N 325.182 1.32811 0.848464 0
M  V30 3539 C 326.407 1.26882 1.6406 0
M  V30 3540 C 326.832 -0.15913 1.87426 0
M  V30 3541 O 326.19 -1.11258 1.43148 0
M  V30 3542 C 326.238 2.03997 2.97351 0
M  V30 3543 O 325.342 1.39201 3.88197 0
M  V30 3544 H 324.683 0.436982 0.499943 0
M  V30 3545 H 327.213 1.75224 1.0563 0
M  V30 3546 H 327.223 2.14403 3.47124 0
M  V30 3547 H 325.898 3.0783 2.79666 0
M  V30 3548 H 324.475 1.37381 3.46671 0
M  V30 3549 N 326.66 -1.06551 1.16123 0
M  V30 3550 C 327.607 -2.13961 0.865414 0
M  V30 3551 C 328.577 -1.65066 -0.185055 0
M  V30 3552 O 329.762 -1.90732 -0.05083 0
M  V30 3553 C 326.902 -3.43113 0.369776 0
M  V30 3554 C 326.015 -4.05756 1.48276 0
M  V30 3555 C 325.15 -5.22773 0.942414 0
M  V30 3556 C 324.189 -5.77395 2.03179 0
M  V30 3557 N 323.326 -6.85731 1.50721 0
M  V30 3558 H 328.166 -2.38605 1.78527 0
M  V30 3559 H 325.703 -1.17072 0.890646 0
M  V30 3560 H 327.661 -4.17151 0.0640643 0
M  V30 3561 H 326.291 -3.18695 -0.513143 0
M  V30 3562 H 325.343 -3.29292 1.9045 0
M  V30 3563 H 326.655 -4.42351 2.30493 0
M  V30 3564 H 325.809 -6.03827 0.589729 0
M  V30 3565 H 324.548 -4.87618 0.0895191 0
M  V30 3566 H 323.553 -4.94981 2.3932 0
M  V30 3567 H 324.778 -6.14603 2.8886 0
M  V30 3568 H 322.724 -6.52499 0.676811 0
M  V30 3569 H 322.641 -7.21254 2.26557 0
M  V30 3570 H 323.909 -7.7047 1.18303 0
M  V30 3571 N 328.138 -0.959301 -1.25041 0
M  V30 3572 C 329.086 -0.474437 -2.2771 0
M  V30 3573 C 330.08 0.457697 -1.631 0
M  V30 3574 O 331.286 0.333912 -1.76876 0
M  V30 3575 H 327.661 -0.134936 -0.739795 0
M  V30 3576 H 329.632 -1.35251 -2.65988 0
M  V30 3577 C 328.381 0.227884 -3.46952 0
M  V30 3578 H 327.704 -0.480248 -3.96905 0
M  V30 3579 H 329.144 0.531091 -4.20661 0
M  V30 3580 C 327.603 1.452 -3.04004 0
M  V30 3581 O 328.133 2.54949 -3.10426 0
M  V30 3582 N 326.339 1.31502 -2.59144 0
M  V30 3583 H 325.886 0.422065 -2.54119 0
M  V30 3584 H 325.844 2.13521 -2.30773 0
M  V30 3585 N 329.616 1.39756 -0.72842 0
M  V30 3586 C 330.864 2.00248 -0.272946 0
M  V30 3587 C 331.185 1.58077 1.14178 0
M  V30 3588 O 330.455 0.826014 1.77634 0
M  V30 3589 H 329.035 0.740554 -0.0979247 0
M  V30 3590 H 331.697 1.70903 -0.936912 0
M  V30 3591 H 330.793 3.10495 -0.316142 0
M  V30 3592 N 331.094 0.475555 1.50254 0
M  V30 3593 C 332.342 -0.077738 2.0195 0
M  V30 3594 C 332.663 -1.39813 1.35931 0
M  V30 3595 O 331.933 -1.89249 0.506123 0
M  V30 3596 H 330.513 -0.031719 0.746326 0
M  V30 3597 H 333.175 0.626995 1.84539 0
M  V30 3598 H 332.271 -0.225995 3.11281 0
M  V30 3599 N 332.573 -1.56217 0.208337 0
M  V30 3600 C 333.822 -1.97124 -0.427204 0
M  V30 3601 C 334.135 -1.09859 -1.61835 0
M  V30 3602 O 335.341 -1.40606 -2.32255 0
M  V30 3603 C 333.797 -3.50633 -0.811442 0
M  V30 3604 C 333.405 -4.46582 0.35615 0
M  V30 3605 C 335.149 -4.00282 -1.41332 0
M  V30 3606 C 333.056 -5.91379 -0.0497852 0
M  V30 3607 H 331.986 -0.736086 -0.163381 0
M  V30 3608 H 334.637 -1.8099 0.302456 0
M  V30 3609 H 333.019 -3.62319 -1.59815 0
M  V30 3610 H 334.193 -4.46636 1.1337 0
M  V30 3611 H 332.508 -4.07202 0.870396 0
M  V30 3612 H 335.105 -5.0595 -1.72972 0
M  V30 3613 H 335.448 -3.45359 -2.32449 0
M  V30 3614 H 335.981 -3.91764 -0.690323 0
M  V30 3615 H 332.72 -6.50255 0.827529 0
M  V30 3616 H 332.24 -5.94549 -0.791926 0
M  V30 3617 H 333.919 -6.45209 -0.481042 0
M  V30 3618 N 334.051 0.0651679 -1.57465 0
M  V30 3619 C 335.281 0.774683 -1.91526 0
M  V30 3620 C 335.689 1.71305 -0.803196 0
M  V30 3621 O 335.032 1.82231 0.231881 0
M  V30 3622 C 335.094 1.61645 -3.21109 0
M  V30 3623 C 334.758 0.846753 -4.49087 0
M  V30 3624 C 335.755 0.163024 -5.19644 0
M  V30 3625 C 333.44 0.811966 -4.95694 0
M  V30 3626 C 335.434 -0.54519 -6.35064 0
M  V30 3627 C 333.121 0.0999836 -6.11018 0
M  V30 3628 C 334.119 -0.577388 -6.80555 0
M  V30 3629 O 333.807 -1.27789 -7.93678 0
M  V30 3630 H 333.539 0.225031 -0.637446 0
M  V30 3631 H 336.093 0.0377134 -2.05365 0
M  V30 3632 H 334.323 2.39638 -3.03497 0
M  V30 3633 H 336.012 2.20525 -3.40769 0
M  V30 3634 H 336.778 0.181163 -4.84662 0
M  V30 3635 H 332.657 1.32867 -4.41438 0
M  V30 3636 H 336.201 -1.07446 -6.89276 0
M  V30 3637 H 332.098 0.0797945 -6.45451 0
M  V30 3638 H 332.866 -1.18784 -8.09835 0
M  V30 3639 N 335.529 1.53961 0.336706 0
M  V30 3640 C 336.459 1.85417 1.41925 0
M  V30 3641 C 337.44 0.709856 1.5458 0
M  V30 3642 O 338.625 0.962396 1.68676 0
M  V30 3643 C 335.755 2.06985 2.78881 0
M  V30 3644 C 334.709 3.22813 2.81026 0
M  V30 3645 C 334.035 3.29727 4.20932 0
M  V30 3646 C 335.335 4.60767 2.45949 0
M  V30 3647 H 337.029 2.76079 1.15848 0
M  V30 3648 H 334.575 1.32839 0.555859 0
M  V30 3649 H 336.528 2.27575 3.54665 0
M  V30 3650 H 335.252 1.13061 3.06406 0
M  V30 3651 H 333.911 3.0209 2.07695 0
M  V30 3652 H 333.559 2.33385 4.45579 0
M  V30 3653 H 333.259 4.07566 4.23277 0
M  V30 3654 H 334.783 3.52536 4.98549 0
M  V30 3655 H 336.197 4.81325 3.11446 0
M  V30 3656 H 334.594 5.4106 2.59566 0
M  V30 3657 H 335.664 4.6391 1.41122 0
M  V30 3658 N 337.007 -0.598083 1.45811 0
M  V30 3659 C 337.937 -1.71873 1.58057 0
M  V30 3660 C 338.918 -1.64533 0.431615 0
M  V30 3661 O 340.103 -1.82787 0.65595 0
M  V30 3662 C 337.233 -3.10495 1.55597 0
M  V30 3663 C 336.187 -3.32654 2.69305 0
M  V30 3664 C 335.513 -4.71646 2.51902 0
M  V30 3665 C 336.813 -3.21981 4.11248 0
M  V30 3666 H 338.507 -1.61881 2.51863 0
M  V30 3667 H 336.053 -0.777372 1.21214 0
M  V30 3668 H 338.006 -3.88699 1.6276 0
M  V30 3669 H 336.73 -3.2135 0.583255 0
M  V30 3670 H 335.389 -2.56843 2.61586 0
M  V30 3671 H 335.037 -4.79246 1.52748 0
M  V30 3672 H 334.737 -4.87426 3.2816 0
M  V30 3673 H 336.261 -5.52038 2.60933 0
M  V30 3674 H 337.675 -3.90049 4.20161 0
M  V30 3675 H 336.072 -3.49289 4.87972 0
M  V30 3676 H 337.142 -2.1928 4.32486 0
M  V30 3677 N 338.485 -1.33259 -0.841409 0
M  V30 3678 C 339.448 -1.23221 -1.9326 0
M  V30 3679 C 340.448 -0.151895 -1.60081 0
M  V30 3680 O 341.638 -0.403246 -1.69468 0
M  V30 3681 C 338.77 -0.898123 -3.28856 0
M  V30 3682 H 339.963 -2.2021 -2.03587 0
M  V30 3683 H 337.516 -1.17281 -1.03319 0
M  V30 3684 H 338.251 0.0693841 -3.24226 0
M  V30 3685 H 338.036 -1.67934 -3.54317 0
M  V30 3686 H 339.526 -0.852563 -4.08805 0
M  V30 3687 N 339.963 1.05934 -1.16686 0
M  V30 3688 C 340.911 2.15603 -0.872817 0
M  V30 3689 C 341.905 1.68647 0.159576 0
M  V30 3690 O 343.111 1.79995 0.0132125 0
M  V30 3691 H 339.486 0.703885 -0.264671 0
M  V30 3692 H 341.457 2.37613 -1.80507 0
M  V30 3693 C 340.206 3.45457 -0.394344 0
M  V30 3694 H 339.529 3.81984 -1.18019 0
M  V30 3695 H 340.969 4.2339 -0.227408 0
M  V30 3696 C 339.428 3.25021 0.88673 0
M  V30 3697 O 339.958 3.50906 1.95519 0
M  V30 3698 N 338.164 2.78437 0.831925 0
M  V30 3699 H 337.711 2.57572 -0.0377619 0
M  V30 3700 H 337.669 2.65144 1.68956 0
M  V30 3701 N 341.441 0.965919 1.2453 0
M  V30 3702 C 342.373 0.452465 2.2469 0
M  V30 3703 C 343.386 -0.437821 1.56802 0
M  V30 3704 O 344.575 -0.244283 1.76821 0
M  V30 3705 C 341.675 -0.366258 3.36915 0
M  V30 3706 C 340.848 0.513701 4.34373 0
M  V30 3707 C 339.907 -0.248716 5.25612 0
M  V30 3708 O 338.933 0.356745 5.68081 0
M  V30 3709 N 340.135 -1.53877 5.59734 0
M  V30 3710 H 342.9 1.31361 2.69378 0
M  V30 3711 H 340.461 0.837541 1.38553 0
M  V30 3712 H 342.453 -0.884297 3.94921 0
M  V30 3713 H 341.023 -1.12832 2.91526 0
M  V30 3714 H 340.243 1.21273 3.75082 0
M  V30 3715 H 341.531 1.11391 4.96457 0
M  V30 3716 H 340.929 -2.05243 5.27154 0
M  V30 3717 H 339.486 -2.00254 6.20275 0
M  V30 3718 N 342.919 -1.39368 0.735821 0
M  V30 3719 C 343.866 -2.30599 0.0963825 0
M  V30 3720 C 344.836 -1.49257 -0.728794 0
M  V30 3721 O 346.021 -1.77941 -0.688588 0
M  V30 3722 C 343.161 -3.35596 -0.804305 0
M  V30 3723 C 342.274 -4.31987 0.0335761 0
M  V30 3724 C 341.409 -5.24053 -0.868461 0
M  V30 3725 C 340.448 -6.12095 -0.0258776 0
M  V30 3726 N 339.585 -6.96514 -0.883893 0
M  V30 3727 H 344.425 -2.8471 0.880002 0
M  V30 3728 H 341.962 -1.40188 0.445619 0
M  V30 3729 H 343.92 -3.95062 -1.34096 0
M  V30 3730 H 342.55 -2.82938 -1.55389 0
M  V30 3731 H 341.602 -3.74133 0.68766 0
M  V30 3732 H 342.914 -4.94074 0.685036 0
M  V30 3733 H 342.068 -5.88549 -1.47293 0
M  V30 3734 H 340.807 -4.62289 -1.5537 0
M  V30 3735 H 339.812 -5.4661 0.591386 0
M  V30 3736 H 341.037 -6.75923 0.656156 0
M  V30 3737 H 338.983 -6.37318 -1.55441 0
M  V30 3738 H 338.9 -7.55448 -0.288931 0
M  V30 3739 H 340.168 -7.65439 -1.4739 0
M  V30 3740 N 344.397 -0.483516 -1.5 0
M  V30 3741 C 345.645 0.067027 -2.01989 0
M  V30 3742 C 345.966 1.3909 -1.36671 0
M  V30 3743 O 345.236 1.88978 -0.516152 0
M  V30 3744 H 343.816 0.0277606 -0.746484 0
M  V30 3745 H 346.478 -0.636773 -1.84204 0
M  V30 3746 H 345.574 0.209484 -3.11396 0
M  V30 3747 N 345.875 1.56104 -0.216619 0
M  V30 3748 C 347.115 2.00074 0.418322 0
M  V30 3749 C 347.479 1.10098 1.57297 0
M  V30 3750 O 348.68 1.43393 2.27359 0
M  V30 3751 C 346.951 3.47231 0.846477 0
M  V30 3752 S 348.51 4.13223 1.47622 0
M  V30 3753 H 345.328 0.698457 0.132962 0
M  V30 3754 H 347.93 1.92784 -0.324748 0
M  V30 3755 H 346.634 4.104 -0.0036319 0
M  V30 3756 H 346.165 3.58384 1.62248 0
M  V30 3757 H 348.18 4.12005 2.76526 0
M  V30 3758 N 347.353 -0.0568162 1.57498 0
M  V30 3759 C 348.63 -0.786954 1.79071 0
M  V30 3760 C 349.01 -1.95028 0.80792 0
M  V30 3761 O 348.358 -2.27968 -0.155858 0
M  V30 3762 C 348.568 -1.24594 3.26002 0
M  V30 3763 C 349.916 -1.67323 3.90241 0
M  V30 3764 O 350.94 -1.34124 3.29984 0
M  V30 3765 O 349.799 -2.28842 4.9628 0
M  V30 3766 H 346.893 -0.378262 0.735423 0
M  V30 3767 H 349.439 -0.035734 1.69662 0
M  V30 3768 H 348.211 -0.41423 3.89101 0
M  V30 3769 H 347.834 -2.05803 3.40192 0
M  V30 3770 N 348.832 -1.54138 -0.328536 0
M  V30 3771 C 350.08 -1.71765 -1.06496 0
M  V30 3772 C 350.401 -0.49149 -1.88704 0
M  V30 3773 O 349.671 0.494539 -1.89555 0
M  V30 3774 H 348.251 -0.633295 -0.396164 0
M  V30 3775 H 350.913 -1.91429 -0.366176 0
M  V30 3776 H 350.009 -2.5951 -1.73381 0
M  V30 3777 N 350.31 0.590341 -1.46126 0
M  V30 3778 C 351.587 1.35029 -1.41515 0
M  V30 3779 C 351.967 2.10888 -0.0946472 0
M  V30 3780 O 351.315 2.08998 0.923693 0
M  V30 3781 C 351.525 2.28269 -2.63997 0
M  V30 3782 C 352.873 2.90338 -3.09821 0
M  V30 3783 O 353.897 2.38585 -2.64492 0
M  V30 3784 O 352.756 3.84321 -3.88535 0
M  V30 3785 H 349.85 0.606317 -0.562413 0
M  V30 3786 H 352.396 0.611994 -1.58281 0
M  V30 3787 H 351.168 1.71591 -3.51671 0
M  V30 3788 H 350.791 3.0945 -2.49652 0
M  V30 3789 N 351.788 1.33704 0.83433 0
M  V30 3790 C 353.204 1.13137 1.12571 0
M  V30 3791 C 353.404 -0.0747261 2.01361 0
M  V30 3792 O 352.46 -0.753647 2.4099 0
M  V30 3793 C 353.773 2.42105 1.78342 0
M  V30 3794 C 355.321 2.48054 1.90888 0
M  V30 3795 C 355.796 3.76995 2.60075 0
M  V30 3796 N 357.287 3.78092 2.67584 0
M  V30 3797 C 358.022 4.74574 3.21818 0
M  V30 3798 N 357.518 5.81434 3.76705 0
M  V30 3799 N 359.311 4.62044 3.20112 0
M  V30 3800 H 351.462 2.11 0.243489 0
M  V30 3801 H 353.725 0.932532 0.17055 0
M  V30 3802 H 353.431 3.30391 1.20561 0
M  V30 3803 H 353.305 2.54594 2.7832 0
M  V30 3804 H 355.692 1.60215 2.47821 0
M  V30 3805 H 355.773 2.39502 0.898459 0
M  V30 3806 H 355.417 4.65219 2.03799 0
M  V30 3807 H 355.347 3.82825 3.61597 0
M  V30 3808 H 357.838 3.00865 2.28667 0
M  V30 3809 H 358.151 6.51084 4.16305 0
M  V30 3810 H 356.496 5.85163 3.7498 0
M  V30 3811 H 359.687 3.77716 2.76493 0
M  V30 3812 H 359.86 5.37406 3.62076 0
M  V30 3813 N 353.266 -1.05314 1.17247 0
M  V30 3814 C 354.196 -2.1498 0.911362 0
M  V30 3815 C 355.177 -1.69471 -0.146169 0
M  V30 3816 O 356.362 -1.942 0.003812 0
M  V30 3817 C 353.492 -3.4472 0.422528 0
M  V30 3818 C 352.446 -4.03789 1.4191 0
M  V30 3819 C 351.772 -5.28858 0.788274 0
M  V30 3820 C 353.072 -4.41418 2.7919 0
M  V30 3821 H 354.766 -2.3708 1.82848 0
M  V30 3822 H 352.312 -1.13938 0.880569 0
M  V30 3823 H 354.265 -4.20787 0.227289 0
M  V30 3824 H 352.989 -3.22269 -0.530123 0
M  V30 3825 H 351.648 -3.2979 1.60106 0
M  V30 3826 H 351.296 -5.02709 -0.171173 0
M  V30 3827 H 350.996 -5.69338 1.45353 0
M  V30 3828 H 352.52 -6.07612 0.603282 0
M  V30 3829 H 353.934 -5.08524 2.64719 0
M  V30 3830 H 352.331 -4.92913 3.42282 0
M  V30 3831 H 353.401 -3.51819 3.33693 0
M  V30 3832 N 354.744 -0.972509 -1.24016 0
M  V30 3833 C 355.974 -0.653853 -1.9598 0
M  V30 3834 C 356.382 0.781801 -1.72292 0
M  V30 3835 O 355.725 1.53677 -1.00644 0
M  V30 3836 C 355.787 -0.854608 -3.49194 0
M  V30 3837 C 355.451 -2.27082 -3.96589 0
M  V30 3838 C 356.448 -3.24892 -4.05883 0
M  V30 3839 C 354.133 -2.5998 -4.29786 0
M  V30 3840 C 356.127 -4.53684 -4.47716 0
M  V30 3841 C 353.814 -3.88997 -4.71301 0
M  V30 3842 C 354.812 -4.85661 -4.80232 0
M  V30 3843 O 354.5 -6.12376 -5.20818 0
M  V30 3844 H 354.232 -0.242572 -0.630979 0
M  V30 3845 H 356.786 -1.30431 -1.58673 0
M  V30 3846 H 355.016 -0.146985 -3.86421 0
M  V30 3847 H 356.705 -0.534311 -4.02368 0
M  V30 3848 H 357.471 -3.00805 -3.80449 0
M  V30 3849 H 353.35 -1.85457 -4.22051 0
M  V30 3850 H 356.894 -5.29135 -4.54601 0
M  V30 3851 H 352.791 -4.12882 -4.96184 0
M  V30 3852 H 353.559 -6.16013 -5.38953 0
M  V30 3853 N 356.222 1.38976 -0.743202 0
M  V30 3854 C 357.452 2.04339 -0.304807 0
M  V30 3855 C 357.86 1.56162 1.06819 0
M  V30 3856 O 357.203 0.725284 1.68776 0
M  V30 3857 C 357.265 3.58716 -0.237369 0
M  V30 3858 C 356.929 4.29905 -1.55018 0
M  V30 3859 C 357.926 4.55987 -2.49744 0
M  V30 3860 C 355.611 4.68294 -1.81675 0
M  V30 3861 C 357.605 5.19478 -3.69353 0
M  V30 3862 C 355.292 5.31512 -3.0156 0
M  V30 3863 C 356.29 5.57037 -3.9522 0
M  V30 3864 O 355.978 6.18941 -5.12998 0
M  V30 3865 H 355.71 0.663439 -0.12971 0
M  V30 3866 H 358.264 1.78852 -1.01001 0
M  V30 3867 H 356.494 3.83133 0.524003 0
M  V30 3868 H 358.183 4.05543 0.170121 0
M  V30 3869 H 358.949 4.26767 -2.30423 0
M  V30 3870 H 354.828 4.47779 -1.09615 0
M  V30 3871 H 358.372 5.39318 -4.42473 0
M  V30 3872 H 354.269 5.60153 -3.20778 0
M  V30 3873 H 355.037 6.37433 -5.13441 0
M  V30 3874 N 357.7 0.491464 1.49741 0
M  V30 3875 C 358.977 -0.118984 1.95238 0
M  V30 3876 C 359.357 -1.55044 1.43264 0
M  V30 3877 O 358.705 -2.19287 0.642287 0
M  V30 3878 C 358.915 -0.0414187 3.48975 0
M  V30 3879 C 360.263 -0.220133 4.24029 0
M  V30 3880 O 361.287 -0.117055 3.56008 0
M  V30 3881 O 360.146 -0.430567 5.44801 0
M  V30 3882 H 357.24 -0.100536 0.820866 0
M  V30 3883 H 359.786 0.553322 1.60426 0
M  V30 3884 H 358.558 0.957214 3.79412 0
M  V30 3885 H 358.181 -0.754292 3.9038 0
M  V30 3886 N 359.178 -1.55987 0.224894 0
M  V30 3887 C 360.426 -1.97998 -0.405099 0
M  V30 3888 C 360.747 -1.11387 -1.60056 0
M  V30 3889 O 360.017 -0.191645 -1.9496 0
M  V30 3890 H 358.597 -0.731235 -0.152658 0
M  V30 3891 H 361.259 -1.92279 0.318567 0
M  V30 3892 H 360.355 -3.03463 -0.729167 0
M  V30 3893 N 360.656 0.0484629 -1.57525 0
M  V30 3894 C 361.896 0.748196 -1.90214 0
M  V30 3895 C 362.26 1.73545 -0.821347 0
M  V30 3896 O 363.461 2.48201 -1.03198 0
M  V30 3897 C 361.732 1.41727 -3.28098 0
M  V30 3898 S 363.291 2.14884 -3.82584 0
M  V30 3899 H 360.109 0.248307 -0.666232 0
M  V30 3900 H 362.711 0.00343188 -1.955 0
M  V30 3901 H 361.415 0.685244 -4.04639 0
M  V30 3902 H 360.946 2.20099 -3.26068 0
M  V30 3903 H 362.961 3.41755 -3.59747 0
M  V30 3904 N 362.134 1.5431 0.320358 0
M  V30 3905 C 363.097 1.83195 1.3774 0
M  V30 3906 C 364.097 0.703906 1.44575 0
M  V30 3907 O 365.287 0.972214 1.44546 0
M  V30 3908 C 362.419 1.99487 2.76438 0
M  V30 3909 H 363.612 2.77642 1.1338 0
M  V30 3910 H 361.165 1.46076 0.556012 0
M  V30 3911 H 361.9 1.07262 3.06048 0
M  V30 3912 H 361.685 2.81575 2.7287 0
M  V30 3913 H 363.175 2.23271 3.52902 0
M  V30 3914 N 363.613 -0.582584 1.46437 0
M  V30 3915 C 364.546 -1.70633 1.51524 0
M  V30 3916 C 365.524 -1.58349 0.369351 0
M  V30 3917 O 366.708 -1.79563 0.573516 0
M  V30 3918 C 363.835 -3.08687 1.39392 0
M  V30 3919 C 362.881 -3.3949 2.58164 0
M  V30 3920 S 363.714 -3.31548 4.20519 0
M  V30 3921 C 364.87 -4.72139 4.10896 0
M  V30 3922 H 365.103 -1.66058 2.46601 0
M  V30 3923 H 362.636 -0.761337 1.34324 0
M  V30 3924 H 364.594 -3.8833 1.33079 0
M  V30 3925 H 363.255 -3.10751 0.457436 0
M  V30 3926 H 362.448 -4.40071 2.45669 0
M  V30 3927 H 362.05 -2.67415 2.61468 0
M  V30 3928 H 364.342 -5.62527 3.77584 0
M  V30 3929 H 365.285 -4.89692 5.11476 0
M  V30 3930 H 365.693 -4.48995 3.42146 0
M  V30 3931 N 365.091 -1.34144 -0.827227 0
M  V30 3932 C 366.34 -1.25602 -1.5782 0
M  V30 3933 C 366.653 0.173445 -1.94829 0
M  V30 3934 O 367.859 0.380984 -2.68814 0
M  V30 3935 C 366.315 -2.20151 -2.84713 0
M  V30 3936 C 365.923 -3.68331 -2.55021 0
M  V30 3937 C 367.667 -2.20508 -3.62735 0
M  V30 3938 C 365.574 -4.54762 -3.78082 0
M  V30 3939 H 364.504 -0.466573 -0.592306 0
M  V30 3940 H 367.155 -1.59283 -0.911116 0
M  V30 3941 H 365.537 -1.79417 -3.53023 0
M  V30 3942 H 366.711 -4.17577 -1.94849 0
M  V30 3943 H 365.026 -3.7038 -1.90283 0
M  V30 3944 H 367.623 -2.82306 -4.54101 0
M  V30 3945 H 367.966 -1.20322 -3.98533 0
M  V30 3946 H 368.499 -2.59664 -3.01362 0
M  V30 3947 H 365.238 -5.55867 -3.47407 0
M  V30 3948 H 364.758 -4.10254 -4.37552 0
M  V30 3949 H 366.437 -4.69153 -4.45538 0
M  V30 3950 N 366.569 1.04691 -1.17803 0
M  V30 3951 C 367.532 2.10724 -0.901545 0
M  V30 3952 C 368.532 1.6042 0.110437 0
M  V30 3953 O 369.722 1.7377 -0.122303 0
M  V30 3954 C 366.854 3.39084 -0.351409 0
M  V30 3955 H 368.047 2.36686 -1.84174 0
M  V30 3956 H 365.6 1.21015 -0.98919 0
M  V30 3957 H 366.335 3.18782 0.59569 0
M  V30 3958 H 366.12 3.76909 -1.08083 0
M  V30 3959 H 367.61 4.17227 -0.176451 0
M  V30 3960 N 368.047 0.979072 1.23499 0
M  V30 3961 C 368.98 0.463027 2.23453 0
M  V30 3962 C 369.958 -0.469128 1.55685 0
M  V30 3963 O 371.142 -0.397882 1.84253 0
M  V30 3964 C 368.269 -0.330308 3.37086 0
M  V30 3965 C 367.315 0.545795 4.22993 0
M  V30 3966 S 368.148 1.99285 4.97037 0
M  V30 3967 C 369.304 1.20862 6.1412 0
M  V30 3968 H 369.537 1.31005 2.6688 0
M  V30 3969 H 367.07 0.784965 1.32957 0
M  V30 3970 H 369.028 -0.782027 4.02982 0
M  V30 3971 H 367.689 -1.15244 2.92194 0
M  V30 3972 H 366.882 -0.0638928 5.03959 0
M  V30 3973 H 366.484 0.933705 3.62157 0
M  V30 3974 H 368.776 0.469284 6.75873 0
M  V30 3975 H 369.719 1.99307 6.79472 0
M  V30 3976 H 370.127 0.727992 5.59786 0
M  V30 3977 N 369.525 -1.3858 0.750561 0
M  V30 3978 C 370.473 -2.32339 0.110162 0
M  V30 3979 C 371.467 -1.53864 -0.708674 0
M  V30 3980 O 372.673 -1.69417 -0.608112 0
M  V30 3981 H 369.048 -0.751812 0.0168275 0
M  V30 3982 H 371.019 -2.83959 0.917053 0
M  V30 3983 C 369.768 -3.39043 -0.771067 0
M  V30 3984 H 369.091 -3.99517 -0.150374 0
M  V30 3985 H 370.531 -4.07061 -1.1865 0
M  V30 3986 C 368.99 -2.77365 -1.91234 0
M  V30 3987 O 369.52 -2.66434 -3.00626 0
M  V30 3988 N 367.726 -2.35219 -1.70646 0
M  V30 3989 H 367.273 -2.4431 -0.81673 0
M  V30 3990 H 367.231 -1.94294 -2.47178 0
M  V30 3991 N 371.003 -0.499398 -1.49478 0
M  V30 3992 C 372.251 0.0455996 -2.02049 0
M  V30 3993 C 372.572 1.37633 -1.38138 0
M  V30 3994 O 371.842 1.8842 -0.536166 0
M  V30 3995 H 370.422 0.0198416 -0.746736 0
M  V30 3996 H 373.084 -0.656274 -1.83519 0
M  V30 3997 H 372.18 0.176445 -3.11601 0
M  V30 3998 N 372.481 1.55866 -0.233164 0
M  V30 3999 C 373.706 2.03449 0.402906 0
M  V30 4000 C 374.131 1.11166 1.51736 0
M  V30 4001 O 373.489 0.101996 1.81013 0
M  V30 4002 C 373.537 3.49165 0.9009 0
M  V30 4003 O 372.641 3.60019 2.01147 0
M  V30 4004 H 371.982 0.657913 0.0897025 0
M  V30 4005 H 374.512 2.01493 -0.355201 0
M  V30 4006 H 374.522 3.89716 1.2077 0
M  V30 4007 H 373.197 4.15813 0.0852889 0
M  V30 4008 H 371.774 3.3136 1.71042 0
M  V30 4009 N 373.959 -0.0401083 1.57549 0
M  V30 4010 C 375.205 -0.734211 1.89043 0
M  V30 4011 C 375.538 -1.75591 0.829535 0
M  V30 4012 O 374.813 -1.93868 -0.156706 0
M  V30 4013 C 375.096 -1.41374 3.31188 0
M  V30 4014 C 374.949 -0.406299 4.47961 0
M  V30 4015 C 376.268 -2.35061 3.72068 0
M  V30 4016 H 373.387 -0.265447 0.687537 0
M  V30 4017 H 376.029 0.00294087 1.9 0
M  V30 4018 H 374.179 -2.04206 3.30503 0
M  V30 4019 H 375.851 0.219255 4.60779 0
M  V30 4020 H 374.094 0.275485 4.32924 0
M  V30 4021 H 374.765 -0.920022 5.44279 0
M  V30 4022 H 377.241 -1.82282 3.74049 0
M  V30 4023 H 376.117 -2.79593 4.72355 0
M  V30 4024 H 376.378 -3.21258 3.0372 0
M  V30 4025 N 375.437 -1.54477 -0.31217 0
M  V30 4026 C 376.684 -1.73227 -1.04875 0
M  V30 4027 C 377.012 -0.512042 -1.87639 0
M  V30 4028 O 376.267 0.506131 -1.89042 0
M  V30 4029 C 376.566 -2.967 -1.99258 0
M  V30 4030 C 376.232 -4.30974 -1.32559 0
M  V30 4031 C 374.894 -4.67477 -1.141 0
M  V30 4032 C 377.246 -5.14258 -0.847835 0
M  V30 4033 C 374.574 -5.84852 -0.465326 0
M  V30 4034 C 376.926 -6.32327 -0.185931 0
M  V30 4035 C 375.59 -6.67499 0.0107077 0
M  V30 4036 H 374.86 -0.633881 -0.383765 0
M  V30 4037 H 377.507 -1.88727 -0.324731 0
M  V30 4038 H 375.812 -2.75935 -2.7815 0
M  V30 4039 H 377.509 -3.08401 -2.563 0
M  V30 4040 H 374.099 -4.02262 -1.4793 0
M  V30 4041 H 378.283 -4.86565 -0.978192 0
M  V30 4042 H 373.539 -6.10654 -0.301883 0
M  V30 4043 H 377.713 -6.96135 0.192211 0
M  V30 4044 H 375.34 -7.58306 0.536287 0
M  V30 4045 N 376.915 0.57481 -1.46744 0
M  V30 4046 C 377.878 1.66533 -1.57478 0
M  V30 4047 C 378.878 1.54338 -0.451263 0
M  V30 4048 O 380.068 1.58814 -0.715813 0
M  V30 4049 C 377.2 3.05999 -1.50259 0
M  V30 4050 H 378.393 1.58372 -2.54673 0
M  V30 4051 H 375.946 0.793301 -1.34672 0
M  V30 4052 H 376.681 3.19709 -0.543725 0
M  V30 4053 H 376.466 3.16259 -2.31781 0
M  V30 4054 H 377.956 3.8537 -1.60872 0
M  V30 4055 N 378.394 1.34581 0.820102 0
M  V30 4056 C 379.326 1.22236 1.93884 0
M  V30 4057 C 380.339 0.148776 1.62119 0
M  V30 4058 O 381.528 0.400877 1.7394 0
M  V30 4059 C 378.628 0.856542 3.27897 0
M  V30 4060 C 377.801 2.02569 3.87666 0
M  V30 4061 C 376.86 1.63782 5.00062 0
M  V30 4062 O 375.886 2.35477 5.18208 0
M  V30 4063 N 377.088 0.553611 5.77854 0
M  V30 4064 H 379.853 2.18615 2.05006 0
M  V30 4065 H 377.414 1.27573 0.99683 0
M  V30 4066 H 379.406 0.578806 4.0054 0
M  V30 4067 H 377.976 -0.0171518 3.12595 0
M  V30 4068 H 377.196 2.468 3.07382 0
M  V30 4069 H 378.484 2.80752 4.24329 0
M  V30 4070 H 377.882 -0.0423528 5.65684 0
M  V30 4071 H 376.439 0.335614 6.50935 0
M  V30 4072 N 379.872 -1.04064 1.18357 0
M  V30 4073 C 381.12 -1.76915 0.977013 0
M  V30 4074 C 381.441 -1.88624 -0.494577 0
M  V30 4075 O 380.711 -1.41125 -1.3587 0
M  V30 4076 H 379.291 -0.65535 0.358504 0
M  V30 4077 H 381.953 -1.25592 1.49039 0
M  V30 4078 H 381.049 -2.78178 1.41504 0
M  V30 4079 N 381.35 -0.985608 -1.22978 0
M  V30 4080 C 382.575 -0.675254 -1.961 0
M  V30 4081 C 383 0.752154 -1.72407 0
M  V30 4082 O 382.358 1.5131 -0.998751 0
M  V30 4083 C 382.406 -0.977899 -3.47087 0
M  V30 4084 O 381.51 -0.072685 -4.12336 0
M  V30 4085 H 380.851 -0.253443 -0.613728 0
M  V30 4086 H 383.381 -1.32061 -1.56272 0
M  V30 4087 H 383.391 -0.916739 -3.97567 0
M  V30 4088 H 382.066 -2.01807 -3.63657 0
M  V30 4089 H 380.643 -0.188703 -3.72422 0
M  V30 4090 N 382.828 1.3818 -0.7579 0
M  V30 4091 C 383.76 2.2901 -0.0932177 0
M  V30 4092 C 384.773 1.47958 0.679136 0
M  V30 4093 O 385.962 1.70773 0.519514 0
M  V30 4094 C 383.062 3.26953 0.89192 0
M  V30 4095 C 382.235 4.37045 0.176303 0
M  V30 4096 C 381.294 5.15148 1.07281 0
M  V30 4097 O 380.32 5.66616 0.541728 0
M  V30 4098 N 381.522 5.28542 2.40049 0
M  V30 4099 H 384.287 2.86694 -0.873303 0
M  V30 4100 H 381.848 1.50007 -0.609054 0
M  V30 4101 H 383.84 3.76083 1.49479 0
M  V30 4102 H 382.41 2.70136 1.57306 0
M  V30 4103 H 381.63 3.89493 -0.607328 0
M  V30 4104 H 382.918 5.07801 -0.318718 0
M  V30 4105 H 382.316 4.88285 2.85647 0
M  V30 4106 H 380.873 5.8103 2.95376 0
M  V30 4107 N 384.306 0.507319 1.49211 0
M  V30 4108 C 385.553 -0.0349529 2.0247 0
M  V30 4109 C 385.881 -1.36409 1.38647 0
M  V30 4110 O 385.136 -1.88841 0.513566 0
M  V30 4111 C 385.435 -0.229513 3.56662 0
M  V30 4112 C 385.101 1.02241 4.39156 0
M  V30 4113 C 383.763 1.36557 4.61417 0
M  V30 4114 C 386.115 1.85428 4.871 0
M  V30 4115 C 383.443 2.53999 5.28868 0
M  V30 4116 C 385.795 3.02028 5.55843 0
M  V30 4117 C 384.459 3.36717 5.76349 0
M  V30 4118 H 383.729 -0.0127902 0.74089 0
M  V30 4119 H 386.376 0.668756 1.79443 0
M  V30 4120 H 384.681 -1.0158 3.78403 0
M  V30 4121 H 386.378 -0.663641 3.9547 0
M  V30 4122 H 382.968 0.745124 4.22073 0
M  V30 4123 H 387.152 1.6023 4.69723 0
M  V30 4124 H 382.408 2.81105 5.42946 0
M  V30 4125 H 386.582 3.66808 5.91967 0
M  V30 4126 H 384.209 4.27821 6.28389 0
M  V30 4127 N 385.784 -1.5574 0.241426 0
M  V30 4128 C 387.009 -2.0366 -0.392111 0
M  V30 4129 C 387.434 -1.11969 -1.51144 0
M  V30 4130 O 386.792 -0.111594 -1.80956 0
M  V30 4131 C 386.84 -3.49638 -0.882371 0
M  V30 4132 O 385.944 -3.6108 -1.99235 0
M  V30 4133 H 385.285 -0.658379 -0.0862122 0
M  V30 4134 H 387.815 -2.01302 0.365881 0
M  V30 4135 H 387.825 -3.90351 -1.18702 0
M  V30 4136 H 386.5 -4.15852 -0.0632361 0
M  V30 4137 H 385.077 -3.32262 -1.69282 0
M  V30 4138 N 387.262 0.0317525 -1.57568 0
M  V30 4139 C 388.192 1.03274 -2.0942 0
M  V30 4140 C 389.173 1.3788 -0.996143 0
M  V30 4141 O 390.358 1.46811 -1.27122 0
M  V30 4142 C 387.488 2.33448 -2.57137 0
M  V30 4143 C 386.442 2.13091 -3.71182 0
M  V30 4144 C 385.768 3.49001 -4.05095 0
M  V30 4145 C 387.068 1.51928 -4.99715 0
M  V30 4146 H 388.762 0.60112 -2.93303 0
M  V30 4147 H 386.308 0.287705 -1.41097 0
M  V30 4148 H 388.261 3.03802 -2.92032 0
M  V30 4149 H 386.985 2.78665 -1.70333 0
M  V30 4150 H 385.644 1.45171 -3.36632 0
M  V30 4151 H 385.292 3.91862 -3.15362 0
M  V30 4152 H 384.992 3.36207 -4.81911 0
M  V30 4153 H 386.516 4.20721 -4.42522 0
M  V30 4154 H 387.93 2.12196 -5.32584 0
M  V30 4155 H 386.327 1.49716 -5.81124 0
M  V30 4156 H 387.397 0.484811 -4.8247 0
M  V30 4157 N 388.74 1.54641 0.303973 0
M  V30 4158 C 390.017 1.64455 1.05896 0
M  V30 4159 C 390.397 0.490923 2.05312 0
M  V30 4160 O 389.745 -0.512685 2.22674 0
M  V30 4161 C 389.955 3.02331 1.74347 0
M  V30 4162 C 391.303 3.59045 2.26653 0
M  V30 4163 O 392.327 3.04764 1.84384 0
M  V30 4164 O 391.186 4.54081 3.04093 0
M  V30 4165 H 388.28 0.666729 0.489287 0
M  V30 4166 H 390.826 1.66986 0.302298 0
M  V30 4167 H 389.598 3.77734 1.02142 0
M  V30 4168 H 389.221 3.03565 2.56777 0
M  V30 4169 N 390.218 -0.567019 1.47046 0
M  V30 4170 C 391.495 -1.3276 1.43646 0
M  V30 4171 C 391.875 -2.1071 0.128186 0
M  V30 4172 O 391.223 -2.10441 -0.890326 0
M  V30 4173 C 391.433 -2.2404 2.67595 0
M  V30 4174 C 392.781 -2.85372 3.14401 0
M  V30 4175 O 393.805 -2.34346 2.68254 0
M  V30 4176 O 392.664 -3.78091 3.946 0
M  V30 4177 H 389.758 -0.597293 0.571988 0
M  V30 4178 H 392.304 -0.586735 1.59234 0
M  V30 4179 H 391.076 -1.65975 3.54356 0
M  V30 4180 H 390.699 -3.05439 2.54544 0
M  V30 4181 N 391.696 -1.35014 -0.812953 0
M  V30 4182 C 392.942 -1.2812 -1.57204 0
M  V30 4183 C 393.275 0.145869 -1.93651 0
M  V30 4184 O 392.55 1.0937 -1.60836 0
M  V30 4185 C 392.833 -2.18162 -2.86492 0
M  V30 4186 C 392.686 -3.69454 -2.56561 0
M  V30 4187 C 394.005 -2.07439 -3.88145 0
M  V30 4188 H 391.124 -0.466746 -0.570366 0
M  V30 4189 H 393.766 -1.65357 -0.935783 0
M  V30 4190 H 391.916 -1.86535 -3.40789 0
M  V30 4191 H 393.588 -4.11493 -2.08497 0
M  V30 4192 H 391.831 -3.9005 -1.89851 0
M  V30 4193 H 392.502 -4.27835 -3.48799 0
M  V30 4194 H 394.978 -2.35228 -3.4323 0
M  V30 4195 H 393.854 -2.7265 -4.76396 0
M  V30 4196 H 394.115 -1.05439 -4.29343 0
M  V30 4197 N 393.175 1.03435 -1.18907 0
M  V30 4198 C 394.085 2.15075 -0.937015 0
M  V30 4199 C 395.101 1.73706 0.101085 0
M  V30 4200 O 396.277 2.01232 -0.0822948 0
M  V30 4201 C 393.342 3.43458 -0.473057 0
M  V30 4202 C 392.403 3.99172 -1.57989 0
M  V30 4203 C 391.636 5.21427 -1.13797 0
M  V30 4204 O 391.859 5.704 0.000725941 0
M  V30 4205 O 390.793 5.69837 -1.9383 0
M  V30 4206 H 394.619 2.39198 -1.87131 0
M  V30 4207 H 392.204 1.13506 -0.971427 0
M  V30 4208 H 394.086 4.20811 -0.222702 0
M  V30 4209 H 392.761 3.20793 0.432869 0
M  V30 4210 H 391.668 3.23178 -1.88433 0
M  V30 4211 H 393.001 4.2619 -2.46217 0
M  V30 4212 N 394.653 0.992116 1.22453 0
M  V30 4213 C 395.899 0.668523 1.91464 0
M  V30 4214 C 396.232 -0.797313 1.77078 0
M  V30 4215 O 395.507 -1.5765 1.13916 0
M  V30 4216 C 395.79 1.07424 3.43703 0
M  V30 4217 C 395.643 2.59857 3.67143 0
M  V30 4218 C 396.962 0.626891 4.35612 0
M  V30 4219 H 394.081 0.244341 0.695318 0
M  V30 4220 H 396.723 1.2355 1.44345 0
M  V30 4221 H 394.873 0.591816 3.83966 0
M  V30 4222 H 396.545 3.15764 3.3629 0
M  V30 4223 H 394.788 3.01961 3.11451 0
M  V30 4224 H 395.459 2.83296 4.73759 0
M  V30 4225 H 397.935 1.04125 4.02861 0
M  V30 4226 H 396.811 0.939076 5.40807 0
M  V30 4227 H 397.072 -0.472457 4.39568 0
M  V30 4228 N 396.131 -1.37776 0.765217 0
M  V30 4229 C 397.061 -2.32945 0.160953 0
M  V30 4230 C 398.042 -1.55454 -0.690516 0
M  V30 4231 O 399.227 -1.83721 -0.629318 0
M  V30 4232 C 396.357 -3.39669 -0.724031 0
M  V30 4233 C 395.311 -4.27992 0.0256173 0
M  V30 4234 C 394.637 -5.25673 -0.978383 0
M  V30 4235 C 395.937 -5.08309 1.20082 0
M  V30 4236 H 397.631 -2.83728 0.955969 0
M  V30 4237 H 395.177 -1.36416 0.461149 0
M  V30 4238 H 397.13 -4.05219 -1.15652 0
M  V30 4239 H 395.854 -2.87396 -1.5515 0
M  V30 4240 H 394.513 -3.63964 0.438812 0
M  V30 4241 H 394.161 -4.69682 -1.80022 0
M  V30 4242 H 393.861 -5.85625 -0.481378 0
M  V30 4243 H 395.385 -5.94098 -1.40995 0
M  V30 4244 H 396.799 -5.67034 0.845307 0
M  V30 4245 H 395.196 -5.77554 1.62947 0
M  V30 4246 H 396.266 -4.41365 2.00811 0
M  V30 4247 N 397.609 -0.515225 -1.4894 0
M  V30 4248 C 398.837 0.0206034 -2.0689 0
M  V30 4249 C 399.252 1.29514 -1.37374 0
M  V30 4250 O 398.609 1.76698 -0.456529 0
M  V30 4251 C 398.66 0.26351 -3.60538 0
M  V30 4252 O 398.381 -0.960517 -4.27441 0
M  V30 4253 C 399.882 0.841383 -4.35242 0
M  V30 4254 H 397.102 -0.0268608 -0.670462 0
M  V30 4255 H 399.646 -0.716651 -1.91532 0
M  V30 4256 H 397.801 0.950777 -3.75552 0
M  V30 4257 H 398.215 -0.73212 -5.19365 0
M  V30 4258 H 399.689 0.96085 -5.43573 0
M  V30 4259 H 400.166 1.8427 -3.98674 0
M  V30 4260 H 400.772 0.191143 -4.2487 0
M  V30 4261 N 399.087 1.5561 -0.249682 0
M  V30 4262 C 400.05 2.20217 0.635394 0
M  V30 4263 C 401.05 1.17227 1.10066 0
M  V30 4264 O 402.24 1.42292 1.00492 0
M  V30 4265 C 399.372 2.84794 1.87363 0
M  V30 4266 H 400.565 2.99814 0.0716752 0
M  V30 4267 H 398.118 1.563 -0.000153234 0
M  V30 4268 H 398.853 2.09142 2.47851 0
M  V30 4269 H 398.638 3.60241 1.5482 0
M  V30 4270 H 400.128 3.3423 2.5036 0
M  V30 4271 N 400.565 -0.0233959 1.57583 0
M  V30 4272 C 401.793 -0.724682 1.93794 0
M  V30 4273 C 402.208 -1.68588 0.849912 0
M  V30 4274 O 401.565 -1.81676 -0.173204 0
M  V30 4275 C 401.616 -1.47684 3.29957 0
M  V30 4276 O 401.337 -0.554222 4.3458 0
M  V30 4277 C 402.838 -2.27477 3.80485 0
M  V30 4278 H 400.058 -0.203317 0.639455 0
M  V30 4279 H 402.602 0.0207653 2.04489 0
M  V30 4280 H 400.757 -2.17412 3.20641 0
M  V30 4281 H 401.171 -1.08232 5.13212 0
M  V30 4282 H 402.645 -2.7564 4.78254 0
M  V30 4283 H 403.122 -3.09144 3.11972 0
M  V30 4284 H 403.728 -1.62813 3.92902 0
M  V30 4285 N 402.043 -1.548 -0.295768 0
M  V30 4286 C 402.973 -1.89115 -1.36959 0
M  V30 4287 C 403.954 -0.75059 -1.52644 0
M  V30 4288 O 405.139 -1.00678 -1.66065 0
M  V30 4289 C 402.269 -2.14307 -2.73295 0
M  V30 4290 C 401.223 -3.30151 -2.72368 0
M  V30 4291 C 400.549 -3.40772 -4.12042 0
M  V30 4292 C 401.849 -4.67126 -2.33646 0
M  V30 4293 H 403.543 -2.79053 -1.08488 0
M  V30 4294 H 401.089 -1.34266 -0.520443 0
M  V30 4295 H 403.042 -2.36898 -3.48507 0
M  V30 4296 H 401.766 -1.21145 -3.03301 0
M  V30 4297 H 400.425 -3.0749 -1.99613 0
M  V30 4298 H 400.073 -2.45117 -4.39234 0
M  V30 4299 H 399.773 -4.18645 -4.12322 0
M  V30 4300 H 401.297 -3.6563 -4.89027 0
M  V30 4301 H 402.711 -4.89414 -2.98575 0
M  V30 4302 H 401.108 -5.47751 -2.45129 0
M  V30 4303 H 402.178 -4.67489 -1.28772 0
M  V30 4304 N 403.521 0.559213 -1.47345 0
M  V30 4305 C 404.798 1.31997 -1.44348 0
M  V30 4306 C 405.178 2.1064 -0.139358 0
M  V30 4307 O 404.526 2.1091 0.879153 0
M  V30 4308 C 404.736 2.22618 -2.68779 0
M  V30 4309 C 406.084 2.83701 -3.1591 0
M  V30 4310 O 407.108 2.32921 -2.69493 0
M  V30 4311 O 405.967 3.75993 -3.966 0
M  V30 4312 H 403.061 0.594251 -0.575147 0
M  V30 4313 H 405.607 0.578282 -1.59543 0
M  V30 4314 H 404.379 1.64093 -3.55231 0
M  V30 4315 H 404.002 3.04085 -2.5616 0
M  V30 4316 N 404.999 1.35443 0.805782 0
M  V30 4317 C 405.929 1.31095 1.93226 0
M  V30 4318 C 406.91 0.185244 1.69088 0
M  V30 4319 O 408.095 0.380332 1.90439 0
M  V30 4320 C 405.225 1.08299 3.29983 0
M  V30 4321 C 404.179 2.17519 3.68605 0
M  V30 4322 C 403.505 1.79887 5.03532 0
M  V30 4323 C 404.805 3.5949 3.78898 0
M  V30 4324 H 406.499 2.25352 1.97122 0
M  V30 4325 H 404.045 1.0848 0.946996 0
M  V30 4326 H 405.998 1.03897 4.08391 0
M  V30 4327 H 404.722 0.104885 3.26432 0
M  V30 4328 H 403.381 2.2102 2.92482 0
M  V30 4329 H 403.029 0.80693 4.96485 0
M  V30 4330 H 402.729 2.53001 5.30344 0
M  V30 4331 H 404.253 1.77011 5.84379 0
M  V30 4332 H 405.667 3.58307 4.47536 0
M  V30 4333 H 404.064 4.31371 4.1718 0
M  V30 4334 H 405.134 3.95584 2.80431 0
M  V30 4335 N 406.477 -1.02803 1.19454 0
M  V30 4336 C 407.387 -2.14575 0.948408 0
M  V30 4337 C 408.403 -1.73757 -0.091871 0
M  V30 4338 O 409.579 -2.01185 0.0929654 0
M  V30 4339 C 406.644 -3.43202 0.491265 0
M  V30 4340 C 405.705 -3.98328 1.60103 0
M  V30 4341 C 404.938 -5.20816 1.16561 0
M  V30 4342 O 405.161 -5.70392 0.0295238 0
M  V30 4343 O 404.095 -5.68801 1.96849 0
M  V30 4344 H 407.921 -2.38202 1.88397 0
M  V30 4345 H 405.506 -1.12989 0.977433 0
M  V30 4346 H 407.388 -4.20687 0.245015 0
M  V30 4347 H 406.063 -3.21018 -0.415851 0
M  V30 4348 H 404.97 -3.22174 1.90144 0
M  V30 4349 H 406.303 -4.24879 2.48473 0
M  V30 4350 N 407.956 -0.998596 -1.21925 0
M  V30 4351 C 409.233 -0.593401 -1.86382 0
M  V30 4352 C 409.613 0.92916 -1.89552 0
M  V30 4353 O 408.961 1.81347 -1.39017 0
M  V30 4354 C 409.171 -1.22039 -3.26967 0
M  V30 4355 C 410.519 -1.32449 -4.03413 0
M  V30 4356 O 411.543 -1.17522 -3.36254 0
M  V30 4357 O 410.402 -1.56395 -5.23644 0
M  V30 4358 H 407.496 -0.202385 -0.801854 0
M  V30 4359 H 410.042 -1.09484 -1.29659 0
M  V30 4360 H 408.814 -2.26158 -3.19325 0
M  V30 4361 H 408.437 -0.704906 -3.91301 0
M  V30 4362 N 409.434 1.37368 -0.772513 0
M  V30 4363 C 410.68 1.99969 -0.337681 0
M  V30 4364 C 411.013 1.61184 1.08321 0
M  V30 4365 O 410.288 0.858395 1.74533 0
M  V30 4366 C 410.571 3.56858 -0.482121 0
M  V30 4367 C 410.424 4.0555 -1.94549 0
M  V30 4368 C 411.743 4.39955 0.113143 0
M  V30 4369 H 408.862 0.726464 -0.124171 0
M  V30 4370 H 411.504 1.63034 -0.975699 0
M  V30 4371 H 409.654 3.88452 0.0610361 0
M  V30 4372 H 411.326 3.84518 -2.54841 0
M  V30 4373 H 409.569 3.57715 -2.45403 0
M  V30 4374 H 410.24 5.14587 -1.9976 0
M  V30 4375 H 412.716 4.14623 -0.35031 0
M  V30 4376 H 411.592 5.48897 -0.0180514 0
M  V30 4377 H 411.853 4.25403 1.20354 0
M  V30 4378 N 410.912 0.523116 1.48665 0
M  V30 4379 C 412.328 0.180511 1.58576 0
M  V30 4380 C 412.528 -1.31597 1.52592 0
M  V30 4381 O 411.584 -2.0937 1.4114 0
M  V30 4382 C 412.897 0.776949 2.90489 0
M  V30 4383 C 414.445 0.745058 3.04003 0
M  V30 4384 C 414.92 1.31995 4.38567 0
M  V30 4385 N 416.411 1.28162 4.45117 0
M  V30 4386 C 417.146 1.6964 5.47731 0
M  V30 4387 N 416.642 2.18816 6.57337 0
M  V30 4388 N 418.435 1.6092 5.38573 0
M  V30 4389 H 410.586 1.4958 1.50797 0
M  V30 4390 H 412.849 0.621772 0.715614 0
M  V30 4391 H 412.555 1.82732 3.00503 0
M  V30 4392 H 412.429 0.25007 3.7637 0
M  V30 4393 H 414.816 -0.296532 2.93606 0
M  V30 4394 H 414.897 1.30933 2.1975 0
M  V30 4395 H 414.541 2.36043 4.49718 0
M  V30 4396 H 414.471 0.731418 5.21496 0
M  V30 4397 H 416.962 0.92155 3.66491 0
M  V30 4398 H 417.275 2.48478 7.31764 0
M  V30 4399 H 415.62 2.22805 6.58318 0
M  V30 4400 H 418.811 1.22304 4.5184 0
M  V30 4401 H 418.984 1.93567 6.18414 0
M  V30 4402 N 412.39 -1.55475 0.257931 0
M  V30 4403 C 413.615 -2.04064 -0.370488 0
M  V30 4404 C 414.04 -1.13565 -1.49948 0
M  V30 4405 O 413.398 -0.130781 -1.80828 0
M  V30 4406 C 413.446 -3.50554 -0.845237 0
M  V30 4407 O 412.55 -3.63173 -1.95394 0
M  V30 4408 H 411.891 -0.659257 -0.0792243 0
M  V30 4409 H 414.421 -2.00903 0.387212 0
M  V30 4410 H 414.431 -3.91588 -1.14555 0
M  V30 4411 H 413.106 -4.15896 -0.0191259 0
M  V30 4412 H 411.683 -3.34039 -1.65748 0
M  V30 4413 N 413.868 0.0150385 -1.57593 0
M  V30 4414 C 415.098 0.713359 -1.93894 0
M  V30 4415 C 415.506 1.68663 -0.857289 0
M  V30 4416 O 414.849 1.82876 0.173788 0
M  V30 4417 C 414.911 1.51348 -3.26089 0
M  V30 4418 C 414.575 0.703451 -4.51554 0
M  V30 4419 C 415.572 -0.00237924 -5.199 0
M  V30 4420 C 413.257 0.653854 -4.98026 0
M  V30 4421 C 415.251 -0.746955 -6.33008 0
M  V30 4422 C 412.938 -0.0944578 -6.11027 0
M  V30 4423 C 413.936 -0.793609 -6.78374 0
M  V30 4424 O 413.624 -1.52974 -7.89211 0
M  V30 4425 H 413.356 0.204637 -0.644282 0
M  V30 4426 H 415.91 -0.0276411 -2.05381 0
M  V30 4427 H 414.14 2.29862 -3.10967 0
M  V30 4428 H 415.829 2.09572 -3.47612 0
M  V30 4429 H 416.595 0.0268803 -4.84993 0
M  V30 4430 H 412.474 1.18756 -4.45441 0
M  V30 4431 H 416.018 -1.2932 -6.85509 0
M  V30 4432 H 411.915 -0.125591 -6.45378 0
M  V30 4433 H 412.683 -1.44488 -8.05646 0
M  V30 4434 N 415.346 1.54954 0.287554 0
M  V30 4435 C 416.762 1.46469 0.633964 0
M  V30 4436 C 416.962 0.666865 1.90145 0
M  V30 4437 O 416.018 0.179906 2.51858 0
M  V30 4438 C 417.331 2.90556 0.774454 0
M  V30 4439 C 418.879 3.00681 0.869462 0
M  V30 4440 C 419.354 4.45993 1.04184 0
M  V30 4441 N 420.845 4.4976 1.10772 0
M  V30 4442 C 421.58 5.59393 1.25964 0
M  V30 4443 N 421.076 6.78923 1.37968 0
M  V30 4444 N 422.869 5.47107 1.28959 0
M  V30 4445 H 415.02 2.05288 -0.545041 0
M  V30 4446 H 417.283 0.930305 -0.182308 0
M  V30 4447 H 416.989 3.51594 -0.086207 0
M  V30 4448 H 416.863 3.38743 1.6593 0
M  V30 4449 H 419.25 2.39749 1.7206 0
M  V30 4450 H 419.331 2.55769 -0.0396831 0
M  V30 4451 H 418.975 5.07524 0.195422 0
M  V30 4452 H 418.905 4.88548 1.96542 0
M  V30 4453 H 421.396 3.63651 1.02794 0
M  V30 4454 H 421.709 7.58231 1.49353 0
M  V30 4455 H 420.054 6.81763 1.34999 0
M  V30 4456 H 423.245 4.52668 1.19202 0
M  V30 4457 H 423.418 6.32595 1.40455 0
M  V30 4458 N 416.824 -0.551391 1.4764 0
M  V30 4459 C 417.787 -1.64007 1.60107 0
M  V30 4460 C 418.787 -1.53601 0.47576 0
M  V30 4461 O 419.977 -1.57655 0.740988 0
M  V30 4462 C 417.109 -3.03569 1.55108 0
M  V30 4463 H 418.302 -1.543 2.57161 0
M  V30 4464 H 415.855 -0.771776 1.35917 0
M  V30 4465 H 416.59 -3.18804 0.594519 0
M  V30 4466 H 416.375 -3.12532 2.36783 0
M  V30 4467 H 417.865 -3.82762 1.66982 0
M  V30 4468 N 418.302 -1.35869 -0.798587 0
M  V30 4469 C 419.212 -1.31578 -1.94228 0
M  V30 4470 C 420.228 -0.21939 -1.72611 0
M  V30 4471 O 421.404 -0.450167 -1.96305 0
M  V30 4472 C 418.469 -1.09528 -3.28944 0
M  V30 4473 C 417.53 -2.28556 -3.63402 0
M  V30 4474 C 416.763 -2.07549 -4.9169 0
M  V30 4475 O 416.986 -1.046 -5.60727 0
M  V30 4476 O 415.92 -2.95106 -5.24591 0
M  V30 4477 H 419.746 -2.27847 -2.00796 0
M  V30 4478 H 417.331 -1.16322 -0.937526 0
M  V30 4479 H 419.213 -0.991127 -4.09579 0
M  V30 4480 H 417.888 -0.16315 -3.23289 0
M  V30 4481 H 416.795 -2.44538 -2.83112 0
M  V30 4482 H 418.128 -3.20244 -3.73771 0
M  V30 4483 N 419.78 1.02168 -1.19998 0
M  V30 4484 C 421.029 1.75091 -1.0013 0
M  V30 4485 C 421.342 1.89923 0.467835 0
M  V30 4486 O 422.548 2.59888 0.785515 0
M  V30 4487 C 421.004 3.14892 -1.74273 0
M  V30 4488 C 420.612 3.0809 -3.25245 0
M  V30 4489 C 422.356 3.9206 -1.62755 0
M  V30 4490 C 420.263 4.42867 -3.91948 0
M  V30 4491 H 419.193 0.656394 -0.37103 0
M  V30 4492 H 421.844 1.14284 -1.43567 0
M  V30 4493 H 420.226 3.7621 -1.2362 0
M  V30 4494 H 421.4 2.5611 -3.83072 0
M  V30 4495 H 419.715 2.44416 -3.3712 0
M  V30 4496 H 422.312 4.91764 -2.09934 0
M  V30 4497 H 422.655 4.12199 -0.582894 0
M  V30 4498 H 423.188 3.37359 -2.10793 0
M  V30 4499 H 419.927 4.27931 -4.96543 0
M  V30 4500 H 419.447 4.94874 -3.3891 0
M  V30 4501 H 421.126 5.11728 -3.95909 0
M  V30 4502 N 421.258 1.00505 1.21394 0
M  V30 4503 C 422.483 0.706367 1.95001 0
M  V30 4504 C 422.908 -0.72463 1.73582 0
M  V30 4505 O 422.266 -1.49702 1.0227 0
M  V30 4506 C 422.314 1.03299 3.45487 0
M  V30 4507 O 421.418 0.138275 4.12168 0
M  V30 4508 H 420.759 0.263175 0.609619 0
M  V30 4509 H 423.289 1.34531 1.54151 0
M  V30 4510 H 423.299 0.979872 3.96059 0
M  V30 4511 H 421.974 2.07567 3.60401 0
M  V30 4512 H 420.551 0.247928 3.72075 0
M  V30 4513 N 422.737 -1.36956 0.779787 0
M  V30 4514 C 423.962 -2.04283 0.358224 0
M  V30 4515 C 424.387 -1.58422 -1.01411 0
M  V30 4516 O 423.745 -0.748179 -1.65142 0
M  V30 4517 C 423.793 -3.58152 0.419479 0
M  V30 4518 O 422.897 -4.08342 -0.577142 0
M  V30 4519 H 422.238 -0.645967 0.153698 0
M  V30 4520 H 424.768 -1.75108 1.05822 0
M  V30 4521 H 424.778 -4.07041 0.279636 0
M  V30 4522 H 423.453 -3.90886 1.42061 0
M  V30 4523 H 422.03 -3.70751 -0.399755 0
M  V30 4524 N 424.215 -0.530993 -1.48385 0
M  V30 4525 C 425.631 -0.188919 -1.58478 0
M  V30 4526 C 425.831 1.30786 -1.53288 0
M  V30 4527 O 424.887 2.08619 -1.42248 0
M  V30 4528 C 426.2 -0.792343 -2.90073 0
M  V30 4529 C 427.748 -0.76117 -3.03604 0
M  V30 4530 C 428.223 -1.34319 -4.37861 0
M  V30 4531 N 429.714 -1.3052 -4.44431 0
M  V30 4532 C 430.449 -1.72543 -5.46824 0
M  V30 4533 N 429.945 -2.22299 -6.56167 0
M  V30 4534 N 431.738 -1.63773 -5.37712 0
M  V30 4535 H 423.889 -1.50377 -1.50002 0
M  V30 4536 H 426.152 -0.625559 -0.712306 0
M  V30 4537 H 425.858 -1.84323 -2.99529 0
M  V30 4538 H 425.732 -0.270026 -3.76232 0
M  V30 4539 H 428.119 0.280957 -2.93759 0
M  V30 4540 H 428.2 -1.32097 -2.19053 0
M  V30 4541 H 427.844 -2.38425 -4.4846 0
M  V30 4542 H 427.774 -0.759064 -5.21101 0
M  V30 4543 H 430.265 -0.940973 -3.65997 0
M  V30 4544 H 430.578 -2.52356 -7.30436 0
M  V30 4545 H 428.923 -2.26293 -6.57127 0
M  V30 4546 H 432.114 -1.24698 -4.51185 0
M  V30 4547 H 432.287 -1.96844 -6.17379 0
M  V30 4548 N 425.693 1.55336 -0.266172 0
M  V30 4549 C 426.641 2.23587 0.641228 0
M  V30 4550 C 427.635 1.22986 1.16494 0
M  V30 4551 O 428.841 1.40943 1.1196 0
M  V30 4552 H 425.216 0.717452 0.225315 0
M  V30 4553 H 427.187 2.9837 0.0426561 0
M  V30 4554 C 425.936 2.96369 1.81826 0
M  V30 4555 H 425.259 3.73563 1.42445 0
M  V30 4556 H 426.699 3.47459 2.42998 0
M  V30 4557 C 425.158 2.0133 2.70125 0
M  V30 4558 O 425.688 1.55875 3.70224 0
M  V30 4559 N 423.894 1.6802 2.37102 0
M  V30 4560 H 423.441 2.05181 1.55751 0
M  V30 4561 H 423.399 1.047 2.96454 0
M  V30 4562 N 427.171 -0.0066808 1.57599 0
M  V30 4563 C 428.101 -0.999296 2.11036 0
M  V30 4564 C 429.082 -1.36278 1.01795 0
M  V30 4565 O 430.267 -1.4477 1.29442 0
M  V30 4566 C 427.397 -2.29328 2.60818 0
M  V30 4567 C 426.351 -2.07159 3.74525 0
M  V30 4568 C 425.677 -3.42512 4.10596 0
M  V30 4569 C 426.977 -1.43959 5.02069 0
M  V30 4570 H 428.671 -0.554382 2.94223 0
M  V30 4571 H 426.217 -0.265221 1.41536 0
M  V30 4572 H 428.17 -2.99117 2.96828 0
M  V30 4573 H 426.894 -2.7592 1.74745 0
M  V30 4574 H 425.553 -1.39797 3.38899 0
M  V30 4575 H 425.201 -3.86795 3.21556 0
M  V30 4576 H 424.901 -3.28498 4.87199 0
M  V30 4577 H 426.425 -4.13628 4.4916 0
M  V30 4578 H 427.839 -2.03696 5.35893 0
M  V30 4579 H 426.236 -1.40452 5.83432 0
M  V30 4580 H 427.306 -0.407992 4.83181 0
M  V30 4581 N 428.649 -1.55105 -0.279332 0
M  V30 4582 C 429.612 -1.86783 -1.32834 0
M  V30 4583 C 430.612 -0.74199 -1.42657 0
M  V30 4584 O 431.802 -1.0102 -1.41918 0
M  V30 4585 C 428.934 -2.06746 -2.71052 0
M  V30 4586 H 430.127 -2.8055 -1.05979 0
M  V30 4587 H 427.68 -1.47499 -0.517087 0
M  V30 4588 H 428.415 -1.15339 -3.03097 0
M  V30 4589 H 428.2 -2.88711 -2.65309 0
M  V30 4590 H 429.69 -2.32549 -3.46858 0
M  V30 4591 N 430.127 0.543554 -1.4793 0
M  V30 4592 C 431.09 1.63156 -1.60975 0
M  V30 4593 C 432.09 1.53346 -0.483899 0
M  V30 4594 O 433.28 1.5726 -0.749339 0
M  V30 4595 C 430.412 3.02743 -1.56716 0
M  V30 4596 H 431.605 1.52934 -2.57975 0
M  V30 4597 H 429.158 0.764557 -1.36324 0
M  V30 4598 H 429.893 3.18484 -0.611418 0
M  V30 4599 H 429.678 3.11272 -2.38438 0
M  V30 4600 H 431.168 3.81871 -1.6901 0
M  V30 4601 N 431.605 1.3629 0.791371 0
M  V30 4602 C 432.83 1.33726 1.58531 0
M  V30 4603 C 433.255 -0.0794933 1.87932 0
M  V30 4604 O 432.613 -1.05087 1.47738 0
M  V30 4605 C 432.661 2.16425 2.88431 0
M  V30 4606 O 431.765 1.5554 3.81944 0
M  V30 4607 H 431.106 0.457793 0.480959 0
M  V30 4608 H 433.636 1.79547 0.981031 0
M  V30 4609 H 433.646 2.28933 3.37718 0
M  V30 4610 H 432.321 3.19415 2.66359 0
M  V30 4611 H 430.898 1.51961 3.40532 0
M  V30 4612 N 433.083 -1.0153 1.20538 0
M  V30 4613 C 434.499 -1.27461 0.96051 0
M  V30 4614 C 434.699 -1.98273 -0.359193 0
M  V30 4615 O 433.755 -2.27886 -1.0874 0
M  V30 4616 C 435.068 -2.10837 2.14402 0
M  V30 4617 C 436.616 -2.24099 2.18515 0
M  V30 4618 C 437.091 -3.10852 3.36355 0
M  V30 4619 N 438.582 -3.18441 3.36377 0
M  V30 4620 C 439.317 -3.85795 4.24205 0
M  V30 4621 N 438.813 -4.55264 5.22213 0
M  V30 4622 N 440.606 -3.82331 4.12043 0
M  V30 4623 H 432.757 -0.539907 2.05423 0
M  V30 4624 H 435.02 -0.30092 0.898972 0
M  V30 4625 H 434.726 -1.66144 3.09983 0
M  V30 4626 H 434.6 -3.11576 2.12604 0
M  V30 4627 H 436.987 -2.68016 1.23497 0
M  V30 4628 H 437.068 -1.22865 2.24361 0
M  V30 4629 H 436.712 -2.6764 4.31661 0
M  V30 4630 H 436.642 -4.12177 3.27746 0
M  V30 4631 H 439.133 -2.68978 2.65442 0
M  V30 4632 H 439.446 -5.04331 5.85551 0
M  V30 4633 H 437.791 -4.54085 5.26148 0
M  V30 4634 H 440.982 -3.27207 3.34743 0
M  V30 4635 H 441.155 -4.34547 4.807 0
M  V30 4636 N 434.561 -1.01147 -1.20859 0
M  V30 4637 C 435.524 -0.582224 -2.21682 0
M  V30 4638 C 436.524 0.344887 -1.57058 0
M  V30 4639 O 437.714 0.134281 -1.73682 0
M  V30 4640 C 434.846 0.150496 -3.40568 0
M  V30 4641 H 436.039 -1.47408 -2.61172 0
M  V30 4642 H 433.592 -0.800695 -1.34233 0
M  V30 4643 H 434.327 1.0575 -3.06574 0
M  V30 4644 H 434.112 -0.515444 -3.88697 0
M  V30 4645 H 435.602 0.438344 -4.15293 0
M  V30 4646 N 436.039 1.36541 -0.78704 0
M  V30 4647 C 437.264 2.0409 -0.369053 0
M  V30 4648 C 437.689 1.58957 1.00569 0
M  V30 4649 O 437.047 0.756926 1.64743 0
M  V30 4650 C 437.095 3.57924 -0.438466 0
M  V30 4651 O 436.199 4.08642 0.555479 0
M  V30 4652 H 435.54 0.645142 -0.157122 0
M  V30 4653 H 438.07 1.74545 -1.06749 0
M  V30 4654 H 438.08 4.06887 -0.301218 0
M  V30 4655 H 436.755 3.90127 -1.44132 0
M  V30 4656 H 435.332 3.70958 0.380088 0
M  V30 4657 N 437.518 0.538854 1.48102 0
M  V30 4658 C 438.929 0.100679 1.86428 0
M  V30 4659 C 439.28 -1.32447 1.44749 0
M  V30 4660 O 438.405 -1.99339 0.842199 0
M  V30 4661 C 439 0.175933 3.38343 0
M  V30 4662 C 437.559 -0.207098 3.7583 0
M  V30 4663 C 436.706 0.531741 2.72154 0
M  V30 4664 H 439.657 0.749614 1.3988 0
M  V30 4665 H 439.678 -0.610144 3.75576 0
M  V30 4666 H 439.19 1.21328 3.68648 0
M  V30 4667 H 437.291 -1.24626 3.5114 0
M  V30 4668 H 437.404 0.138687 4.78899 0
M  V30 4669 H 435.768 -0.0230462 2.5469 0
M  V30 4670 H 436.551 1.56989 3.05302 0
M  V30 4671 N 438.996 -1.55193 0.274407 0
M  V30 4672 C 440.226 -2.03692 -0.345442 0
M  V30 4673 C 440.634 -1.15224 -1.50067 0
M  V30 4674 O 439.977 -0.164749 -1.8296 0
M  V30 4675 C 440.039 -3.48325 -0.88939 0
M  V30 4676 C 439.703 -4.56794 0.137115 0
M  V30 4677 C 440.7 -5.11028 0.956378 0
M  V30 4678 C 438.385 -5.01568 0.27115 0
M  V30 4679 C 440.379 -6.08552 1.89587 0
M  V30 4680 C 438.066 -5.98918 1.21412 0
M  V30 4681 C 439.064 -6.52291 2.02498 0
M  V30 4682 O 438.752 -7.47738 2.952 0
M  V30 4683 H 438.484 -0.670893 -0.0829332 0
M  V30 4684 H 441.038 -2.01387 0.404056 0
M  V30 4685 H 439.268 -3.47867 -1.68895 0
M  V30 4686 H 440.957 -3.80167 -1.42225 0
M  V30 4687 H 441.723 -4.7725 0.863559 0
M  V30 4688 H 437.602 -4.5967 -0.349987 0
M  V30 4689 H 441.146 -6.50137 2.52918 0
M  V30 4690 H 437.043 -6.32114 1.30776 0
M  V30 4691 H 437.811 -7.65451 2.89874 0
M  V30 4692 N 440.474 -0.00167713 -1.576 0
M  V30 4693 C 441.885 0.54091 -1.78693 0
M  V30 4694 C 442.236 1.7386 -0.909247 0
M  V30 4695 O 441.361 2.16109 -0.112176 0
M  V30 4696 C 441.956 0.98806 -3.24072 0
M  V30 4697 C 440.515 1.47594 -3.46256 0
M  V30 4698 C 439.662 0.42792 -2.73978 0
M  V30 4699 H 442.613 -0.22784 -1.57056 0
M  V30 4700 H 442.634 1.85398 -3.32277 0
M  V30 4701 H 442.146 0.116164 -3.87926 0
M  V30 4702 H 440.247 2.36868 -2.87618 0
M  V30 4703 H 440.36 1.50225 -4.54939 0
M  V30 4704 H 438.724 0.889934 -2.38647 0
M  V30 4705 H 439.507 -0.435038 -3.40532 0
M  V30 4706 N 441.952 1.55251 0.271103 0
M  V30 4707 C 443.368 1.47133 0.618393 0
M  V30 4708 C 443.568 0.686994 1.89427 0
M  V30 4709 O 442.624 0.206609 2.51653 0
M  V30 4710 C 443.937 2.91361 0.743593 0
M  V30 4711 C 445.485 3.01587 0.837522 0
M  V30 4712 C 445.96 4.47073 0.994483 0
M  V30 4713 N 447.451 4.50909 1.05996 0
M  V30 4714 C 448.186 5.60698 1.20024 0
M  V30 4715 N 447.682 6.80348 1.30759 0
M  V30 4716 N 449.475 5.48444 1.23149 0
M  V30 4717 H 441.626 2.04698 -0.566784 0
M  V30 4718 H 443.889 0.928319 -0.192165 0
M  V30 4719 H 443.595 3.51483 -0.123493 0
M  V30 4720 H 443.469 3.40484 1.62328 0
M  V30 4721 H 445.856 2.4156 1.69507 0
M  V30 4722 H 445.937 2.55713 -0.0668086 0
M  V30 4723 H 445.581 5.07703 0.141582 0
M  V30 4724 H 445.511 4.90605 1.91349 0
M  V30 4725 H 448.002 3.6472 0.989316 0
M  V30 4726 H 448.315 7.59772 1.41303 0
M  V30 4727 H 446.66 6.83156 1.27761 0
M  V30 4728 H 449.851 4.53907 1.14394 0
M  V30 4729 H 450.024 6.34049 1.33738 0
M  V30 4730 N 443.43 -0.535701 1.48216 0
M  V30 4731 C 444.676 -1.29375 1.56173 0
M  V30 4732 C 445.009 -1.92804 0.232429 0
M  V30 4733 O 444.284 -1.78992 -0.761048 0
M  V30 4734 C 444.567 -2.38747 2.69577 0
M  V30 4735 C 444.42 -1.80046 4.12193 0
M  V30 4736 C 445.739 -3.40551 2.78771 0
M  V30 4737 H 442.858 -0.469027 0.568491 0
M  V30 4738 H 445.5 -0.597358 1.80365 0
M  V30 4739 H 443.65 -2.98147 2.4908 0
M  V30 4740 H 445.322 -1.24742 4.44114 0
M  V30 4741 H 443.565 -1.10609 4.19462 0
M  V30 4742 H 444.236 -2.59212 4.87353 0
M  V30 4743 H 446.712 -2.91099 2.97322 0
M  V30 4744 H 445.588 -4.1448 3.59857 0
M  V30 4745 H 445.849 -4.00746 1.86696 0
M  V30 4746 N 444.908 -1.36708 -0.784132 0
M  V30 4747 C 445.855 -1.31466 -1.89698 0
M  V30 4748 C 446.825 -0.18239 -1.65096 0
M  V30 4749 O 448.01 -0.369762 -1.87183 0
M  V30 4750 C 445.15 -1.1151 -3.26588 0
M  V30 4751 C 444.263 -2.33859 -3.63227 0
M  V30 4752 C 443.398 -2.06873 -4.89262 0
M  V30 4753 C 442.437 -3.25154 -5.18595 0
M  V30 4754 N 441.574 -2.978 -6.35814 0
M  V30 4755 H 446.414 -2.26619 -1.93515 0
M  V30 4756 H 443.951 -1.12625 -0.946256 0
M  V30 4757 H 445.909 -0.979653 -4.05535 0
M  V30 4758 H 444.539 -0.200103 -3.22179 0
M  V30 4759 H 443.591 -2.58188 -2.79362 0
M  V30 4760 H 444.903 -3.22109 -3.8085 0
M  V30 4761 H 444.057 -1.90289 -5.76086 0
M  V30 4762 H 442.796 -1.15942 -4.73718 0
M  V30 4763 H 441.801 -3.42292 -4.30251 0
M  V30 4764 H 443.026 -4.1692 -5.36055 0
M  V30 4765 H 440.972 -2.09485 -6.21653 0
M  V30 4766 H 440.889 -3.7959 -6.53794 0
M  V30 4767 H 442.157 -2.84805 -7.25607 0
M  V30 4768 N 446.386 1.0089 -1.21074 0
M  V30 4769 C 447.632 1.74866 -1.02712 0
M  V30 4770 C 447.965 1.89178 0.438787 0
M  V30 4771 O 447.24 1.42325 1.32567 0
M  V30 4772 C 447.523 3.16347 -1.72036 0
M  V30 4773 C 447.376 3.09782 -3.26121 0
M  V30 4774 C 448.695 4.15187 -1.45973 0
M  V30 4775 H 445.814 0.634736 -0.374539 0
M  V30 4776 H 448.456 1.17646 -1.49196 0
M  V30 4777 H 446.606 3.65201 -1.32517 0
M  V30 4778 H 448.278 2.68673 -3.74983 0
M  V30 4779 H 446.521 2.46982 -3.56626 0
M  V30 4780 H 447.192 4.09829 -3.6979 0
M  V30 4781 H 449.668 3.75022 -1.80272 0
M  V30 4782 H 448.544 5.12331 -1.96999 0
M  V30 4783 H 448.805 4.40386 -0.388924 0
M  V30 4784 N 447.864 1.01787 1.20321 0
M  V30 4785 C 449.141 0.622978 1.85414 0
M  V30 4786 C 449.521 -0.898887 1.91006 0
M  V30 4787 O 448.869 -1.79112 1.41884 0
M  V30 4788 C 449.079 1.27226 3.24984 0
M  V30 4789 C 450.427 1.3885 4.01255 0
M  V30 4790 O 451.451 1.22857 3.34342 0
M  V30 4791 O 450.31 1.64705 5.2109 0
M  V30 4792 H 447.404 0.215116 0.798533 0
M  V30 4793 H 449.95 1.11533 1.27901 0
M  V30 4794 H 448.722 2.31209 3.15687 0
M  V30 4795 H 448.345 0.767069 3.90131 0
M  V30 4796 N 449.342 -1.36122 0.79427 0
M  V30 4797 C 450.589 -1.99111 0.368905 0
M  V30 4798 C 450.917 -1.63032 -1.0607 0
M  V30 4799 O 450.172 -0.879303 -1.74833 0
M  V30 4800 C 450.471 -3.5409 0.48527 0
M  V30 4801 C 450.137 -4.10003 1.87638 0
M  V30 4802 C 448.799 -4.24986 2.257 0
M  V30 4803 C 451.151 -4.40423 2.78706 0
M  V30 4804 C 448.479 -4.67701 3.54221 0
M  V30 4805 C 450.831 -4.84573 4.0666 0
M  V30 4806 C 449.495 -4.97761 4.44737 0
M  V30 4807 H 448.765 -0.7286 0.134992 0
M  V30 4808 H 451.412 -1.62534 1.01267 0
M  V30 4809 H 449.717 -3.91052 -0.241984 0
M  V30 4810 H 451.414 -4.00766 0.137109 0
M  V30 4811 H 448.004 -3.98784 1.57064 0
M  V30 4812 H 452.188 -4.28412 2.50553 0
M  V30 4813 H 447.444 -4.761 3.83587 0
M  V30 4814 H 451.618 -5.07074 4.77336 0
M  V30 4815 H 449.245 -5.30618 5.44379 0
M  V30 4816 N 450.82 -0.546701 -1.47814 0
M  V30 4817 C 451.783 0.196287 -2.28358 0
M  V30 4818 C 452.783 0.852437 -1.36346 0
M  V30 4819 O 453.973 0.709913 -1.59078 0
M  V30 4820 C 451.105 1.28579 -3.15722 0
M  V30 4821 H 452.298 -0.511086 -2.95513 0
M  V30 4822 H 449.851 -0.303248 -1.5333 0
M  V30 4823 H 450.586 2.0259 -2.53235 0
M  V30 4824 H 450.371 0.820229 -3.83425 0
M  V30 4825 H 451.861 1.80793 -3.76435 0
M  V30 4826 N 452.299 1.55045 -0.282633 0
M  V30 4827 C 453.229 2.2579 0.595066 0
M  V30 4828 C 454.21 1.25074 1.15284 0
M  V30 4829 O 455.395 1.5381 1.18559 0
M  V30 4830 C 452.525 2.98472 1.77572 0
M  V30 4831 C 451.479 4.0618 1.34914 0
M  V30 4832 C 450.805 4.66477 2.6135 0
M  V30 4833 C 452.105 5.1996 0.493821 0
M  V30 4834 H 453.799 2.994 0.00505653 0
M  V30 4835 H 451.345 1.44 0.000992001 0
M  V30 4836 H 453.298 3.46677 2.39568 0
M  V30 4837 H 452.022 2.2241 2.39168 0
M  V30 4838 H 450.681 3.58797 0.752338 0
M  V30 4839 H 450.329 3.87074 3.2122 0
M  V30 4840 H 450.029 5.39207 2.33516 0
M  V30 4841 H 451.553 5.17435 3.24181 0
M  V30 4842 H 452.967 5.64172 1.01898 0
M  V30 4843 H 451.364 5.99299 0.310047 0
M  V30 4844 H 452.434 4.82462 -0.485593 0
M  V30 4845 N 453.777 0.010035 1.57597 0
M  V30 4846 C 455.002 -0.687021 1.95691 0
M  V30 4847 C 455.427 -1.65952 0.885519 0
M  V30 4848 O 454.785 -1.80633 -0.15543 0
M  V30 4849 C 454.833 -1.3864 3.32884 0
M  V30 4850 O 453.937 -2.50115 3.27897 0
M  V30 4851 H 453.278 -0.181989 0.638573 0
M  V30 4852 H 455.808 0.0662122 2.04493 0
M  V30 4853 H 455.818 -1.74754 3.6868 0
M  V30 4854 H 454.493 -0.673411 4.10412 0
M  V30 4855 H 453.07 -2.16253 3.03791 0
M  V30 4856 N 455.255 -1.55392 -0.262866 0
M  V30 4857 C 456.495 -1.78231 -1.00064 0
M  V30 4858 C 456.859 -0.576966 -1.83126 0
M  V30 4859 O 458.06 -0.683809 -2.59957 0
M  V30 4860 C 456.331 -3.05701 -1.85153 0
M  V30 4861 S 457.89 -3.49699 -2.65058 0
M  V30 4862 H 454.708 -0.626138 -0.336856 0
M  V30 4863 H 457.31 -1.93626 -0.27005 0
M  V30 4864 H 456.014 -3.91511 -1.23074 0
M  V30 4865 H 455.545 -2.93 -2.62515 0
M  V30 4866 H 457.56 -3.09772 -3.87629 0
M  V30 4867 N 456.733 0.527833 -1.48498 0
M  V30 4868 C 457.683 1.62844 -1.5958 0
M  V30 4869 C 458.667 1.54397 -0.452809 0
M  V30 4870 O 459.859 1.62381 -0.704364 0
M  V30 4871 C 456.988 3.01557 -1.64067 0
M  V30 4872 C 456.074 3.151 -2.83853 0
M  V30 4873 N 456.465 2.9861 -4.08247 0
M  V30 4874 C 454.763 3.46158 -2.8123 0
M  V30 4875 C 455.464 3.15626 -4.88626 0
M  V30 4876 N 454.44 3.43298 -4.21483 0
M  V30 4877 H 458.242 1.48708 -2.53502 0
M  V30 4878 H 455.756 0.733343 -1.44899 0
M  V30 4879 H 457.753 3.8062 -1.70101 0
M  V30 4880 H 456.413 3.16783 -0.712636 0
M  V30 4881 H 457.424 2.75329 -4.3865 0
M  V30 4882 H 454.101 3.67728 -1.97692 0
M  V30 4883 H 455.491 3.07596 -5.97356 0
M  V30 4884 N 458.211 1.37122 0.776871 0
M  V30 4885 C 459.121 1.34651 1.9211 0
M  V30 4886 C 460.137 0.246824 1.7224 0
M  V30 4887 O 461.313 0.48134 1.95563 0
M  V30 4888 C 458.378 1.14748 3.2716 0
M  V30 4889 C 457.439 2.34308 3.5972 0
M  V30 4890 C 456.672 2.15345 4.88326 0
M  V30 4891 O 456.895 1.13507 5.58992 0
M  V30 4892 O 455.829 3.03414 5.1983 0
M  V30 4893 H 459.655 2.31013 1.97146 0
M  V30 4894 H 457.24 1.17799 0.918901 0
M  V30 4895 H 459.122 1.05616 4.0795 0
M  V30 4896 H 457.797 0.214562 3.22988 0
M  V30 4897 H 456.704 2.49011 2.79185 0
M  V30 4898 H 458.037 3.26149 3.68629 0
M  V30 4899 N 459.689 -1.00246 1.21608 0
M  V30 4900 C 460.966 -1.71336 0.943568 0
M  V30 4901 C 461.346 -2.03972 -0.543943 0
M  V30 4902 O 460.694 -1.71545 -1.50946 0
M  V30 4903 C 460.904 -2.97094 1.83128 0
M  V30 4904 C 462.252 -3.70071 2.08165 0
M  V30 4905 O 463.276 -3.07081 1.80498 0
M  V30 4906 O 462.135 -4.83376 2.54971 0
M  V30 4907 H 459.229 -0.747386 0.354039 0
M  V30 4908 H 461.775 -1.05967 1.32549 0
M  V30 4909 H 460.547 -2.69407 2.83788 0
M  V30 4910 H 460.17 -3.70204 1.45034 0
M  V30 4911 N 461.167 -1.02423 -1.1978 0
M  V30 4912 C 462.097 -0.62157 -2.25075 0
M  V30 4913 C 463.078 0.367148 -1.6609 0
M  V30 4914 O 464.263 0.250892 -1.92573 0
M  V30 4915 C 461.393 0.0331826 -3.47284 0
M  V30 4916 C 460.347 -0.877323 -4.18912 0
M  V30 4917 C 459.673 -0.0879296 -5.34628 0
M  V30 4918 C 460.973 -2.18892 -4.74219 0
M  V30 4919 H 462.667 -1.50179 -2.59011 0
M  V30 4920 H 460.213 -0.723547 -1.24502 0
M  V30 4921 H 462.166 0.326488 -4.20133 0
M  V30 4922 H 460.89 0.948164 -3.12534 0
M  V30 4923 H 459.549 -1.15475 -3.47938 0
M  V30 4924 H 459.197 0.828941 -4.96123 0
M  V30 4925 H 458.897 -0.694359 -5.83483 0
M  V30 4926 H 460.421 0.198743 -6.10276 0
M  V30 4927 H 461.835 -1.95746 -5.38847 0
M  V30 4928 H 460.232 -2.74686 -5.33542 0
M  V30 4929 H 461.302 -2.84674 -3.92541 0
M  V30 4930 N 462.645 1.35699 -0.801477 0
M  V30 4931 C 463.575 2.32436 -0.222658 0
M  V30 4932 C 464.556 1.5723 0.649057 0
M  V30 4933 O 465.741 1.85324 0.580387 0
M  V30 4934 C 462.871 3.41469 0.633719 0
M  V30 4935 C 461.825 4.27774 -0.139083 0
M  V30 4936 C 461.151 5.28082 0.838666 0
M  V30 4937 C 462.451 5.04946 -1.33517 0
M  V30 4938 H 464.145 2.81094 -1.03086 0
M  V30 4939 H 461.691 1.35146 -0.497155 0
M  V30 4940 H 463.644 4.08143 1.04868 0
M  V30 4941 H 462.368 2.91408 1.47475 0
M  V30 4942 H 461.027 3.62673 -0.535156 0
M  V30 4943 H 460.675 4.7429 1.67506 0
M  V30 4944 H 460.375 5.86695 0.32594 0
M  V30 4945 H 461.899 5.97628 1.25194 0
M  V30 4946 H 463.313 5.64593 -0.995349 0
M  V30 4947 H 461.71 5.7303 -1.78202 0
M  V30 4948 H 462.78 4.35886 -2.12442 0
M  V30 4949 N 464.123 0.554532 1.47522 0
M  V30 4950 C 465.086 -0.184174 2.28459 0
M  V30 4951 C 466.086 -0.845195 1.36796 0
M  V30 4952 O 467.276 -0.701467 1.59452 0
M  V30 4953 C 464.408 -1.26903 3.16399 0
M  V30 4954 H 465.601 0.526751 2.95238 0
M  V30 4955 H 463.154 0.311375 1.53167 0
M  V30 4956 H 463.889 -2.01244 2.54306 0
M  V30 4957 H 463.674 -0.799883 3.83854 0
M  V30 4958 H 465.164 -1.78794 3.77389 0
M  V30 4959 N 465.601 -1.54893 0.290851 0
M  V30 4960 C 467.012 -1.85584 -0.203816 0
M  V30 4961 C 467.363 -1.21285 -1.54222 0
M  V30 4962 O 466.488 -0.506841 -2.10381 0
M  V30 4963 C 467.083 -3.367 -0.376595 0
M  V30 4964 C 465.642 -3.6746 -0.815485 0
M  V30 4965 C 464.789 -2.77178 0.0821087 0
M  V30 4966 H 467.74 -1.50208 0.512175 0
M  V30 4967 H 467.761 -3.60656 -1.21275 0
M  V30 4968 H 467.273 -3.8347 0.59767 0
M  V30 4969 H 465.374 -3.26201 -1.80066 0
M  V30 4970 H 465.487 -4.7478 -0.641905 0
M  V30 4971 H 463.851 -2.50925 -0.436895 0
M  V30 4972 H 464.634 -3.26767 1.05254 0
M  V30 4973 N 467.08 -0.0183926 -1.57589 0
M  V30 4974 C 468.329 0.66185 -1.90532 0
M  V30 4975 C 468.642 1.73904 -0.895366 0
M  V30 4976 O 469.848 2.47518 -1.11566 0
M  V30 4977 C 468.304 1.22844 -3.38286 0
M  V30 4978 C 467.912 0.185103 -4.47617 0
M  V30 4979 C 469.656 1.88581 -3.80312 0
M  V30 4980 C 467.563 0.762723 -5.86461 0
M  V30 4981 H 466.493 0.250972 -0.711006 0
M  V30 4982 H 469.144 -0.0819435 -1.83317 0
M  V30 4983 H 467.526 2.0235 -3.40398 0
M  V30 4984 H 468.7 -0.58671 -4.5705 0
M  V30 4985 H 467.015 -0.372889 -4.14727 0
M  V30 4986 H 469.612 2.32735 -4.81392 0
M  V30 4987 H 469.955 2.72408 -3.14801 0
M  V30 4988 H 470.488 1.15782 -3.80578 0
M  V30 4989 H 467.227 -0.0371713 -6.55489 0
M  V30 4990 H 466.747 1.50327 -5.80656 0
M  V30 4991 H 468.426 1.25576 -6.34697 0
M  V30 4992 N 468.558 1.5553 0.254621 0
M  V30 4993 C 469.783 1.81383 1.00573 0
M  V30 4994 C 470.208 0.594419 1.78461 0
M  V30 4995 O 469.566 -0.456403 1.75461 0
M  V30 4996 C 469.614 3.04892 1.92545 0
M  V30 4997 O 468.718 2.81266 3.01601 0
M  V30 4998 H 468.059 0.598969 0.286587 0
M  V30 4999 H 470.589 2.02703 0.277952 0
M  V30 5000 H 470.599 3.34119 2.34155 0
M  V30 5001 H 469.274 3.93287 1.3527 0
M  V30 5002 H 467.851 2.63185 2.64174 0
M  V30 5003 N 470.036 -0.519951 1.48776 0
M  V30 5004 C 470.946 -1.65025 1.66745 0
M  V30 5005 C 471.962 -1.6508 0.549954 0
M  V30 5006 O 473.138 -1.83848 0.822295 0
M  V30 5007 C 470.203 -3.0146 1.71238 0
M  V30 5008 C 469.264 -3.12182 2.94688 0
M  V30 5009 C 468.497 -4.42109 2.98958 0
M  V30 5010 O 468.72 -5.29799 2.1135 0
M  V30 5011 O 467.654 -4.57406 3.91233 0
M  V30 5012 H 471.48 -1.52801 2.62461 0
M  V30 5013 H 469.065 -0.694157 1.32294 0
M  V30 5014 H 470.947 -3.82584 1.76657 0
M  V30 5015 H 469.622 -3.13988 0.786975 0
M  V30 5016 H 468.529 -2.30316 2.94797 0
M  V30 5017 H 469.862 -3.04574 3.86646 0
M  V30 5018 N 471.514 -1.37532 -0.769588 0
M  V30 5019 C 472.925 -1.29382 -1.346 0
M  V30 5020 C 473.276 0.0576039 -1.96115 0
M  V30 5021 O 472.401 0.95947 -1.93967 0
M  V30 5022 C 472.996 -2.34298 -2.44724 0
M  V30 5023 C 471.555 -2.29776 -2.98128 0
M  V30 5024 C 470.702 -2.18013 -1.71364 0
M  V30 5025 H 473.653 -1.48123 -0.56968 0
M  V30 5026 H 473.674 -1.99089 -3.24259 0
M  V30 5027 H 473.186 -3.32645 -1.99922 0
M  V30 5028 H 471.287 -1.34959 -3.47299 0
M  V30 5029 H 471.4 -3.23276 -3.53595 0
M  V30 5030 H 469.764 -1.64595 -1.94372 0
M  V30 5031 H 470.547 -3.18278 -1.28662 0
M  V30 5032 N 472.992 0.995999 -1.22138 0
M  V30 5033 C 474.241 1.72928 -1.03821 0
M  V30 5034 C 474.554 1.90872 0.427444 0
M  V30 5035 O 475.76 2.61496 0.730212 0
M  V30 5036 C 474.216 3.11124 -1.80913 0
M  V30 5037 C 473.824 3.01122 -3.31707 0
M  V30 5038 C 475.568 3.8852 -1.71035 0
M  V30 5039 C 473.475 4.34453 -4.01253 0
M  V30 5040 H 472.405 0.648376 -0.384869 0
M  V30 5041 H 475.056 1.11213 -1.45959 0
M  V30 5042 H 473.438 3.73503 -1.31573 0
M  V30 5043 H 474.612 2.47926 -3.88419 0
M  V30 5044 H 472.927 2.3721 -3.42228 0
M  V30 5045 H 475.524 4.872 -2.20318 0
M  V30 5046 H 475.867 4.1087 -0.670196 0
M  V30 5047 H 476.4 3.32812 -2.17902 0
M  V30 5048 H 473.139 4.17303 -5.05508 0
M  V30 5049 H 472.659 4.87574 -3.49331 0
M  V30 5050 H 474.338 5.03215 -4.06674 0
M  V30 5051 N 474.47 1.03057 1.19235 0
M  V30 5052 C 475.38 0.622922 2.26179 0
M  V30 5053 C 476.396 -0.346113 1.70523 0
M  V30 5054 O 477.572 -0.203572 2.00369 0
M  V30 5055 C 474.637 -0.0182063 3.46695 0
M  V30 5056 C 473.698 0.998546 4.17526 0
M  V30 5057 C 472.931 0.387917 5.32288 0
M  V30 5058 O 473.154 -0.808668 5.64639 0
M  V30 5059 O 472.088 1.1116 5.91546 0
M  V30 5060 H 475.914 1.51363 2.63292 0
M  V30 5061 H 473.499 0.800856 1.26122 0
M  V30 5062 H 475.381 -0.375606 4.19723 0
M  V30 5063 H 474.056 -0.882895 3.11427 0
M  V30 5064 H 472.963 1.40756 3.4661 0
M  V30 5065 H 474.296 1.83366 4.56769 0
M  V30 5066 N 475.948 -1.35272 0.808662 0
M  V30 5067 C 477.194 -1.99434 0.399717 0
M  V30 5068 C 477.549 -1.62992 -1.02232 0
M  V30 5069 O 476.842 -0.884091 -1.69983 0
M  V30 5070 C 477.036 -3.53556 0.522798 0
M  V30 5071 C 476.865 -4.04969 1.95525 0
M  V30 5072 C 475.635 -4.34228 2.58407 0
M  V30 5073 C 477.833 -4.23362 2.92009 0
M  V30 5074 N 475.815 -4.71585 3.93041 0
M  V30 5075 C 477.186 -4.63739 4.11517 0
M  V30 5076 C 479.241 -4.05576 2.88813 0
M  V30 5077 C 477.944 -4.88189 5.28265 0
M  V30 5078 C 479.97 -4.31184 4.04765 0
M  V30 5079 C 479.332 -4.71834 5.23022 0
M  V30 5080 H 475.431 -0.757534 0.19408 0
M  V30 5081 H 478.015 -1.63939 1.05034 0
M  V30 5082 H 476.186 -3.88277 -0.0978471 0
M  V30 5083 H 477.918 -4.04604 0.0882378 0
M  V30 5084 H 474.673 -4.24621 2.09747 0
M  V30 5085 H 475.097 -4.9452 4.62363 0
M  V30 5086 H 479.739 -3.73288 1.98535 0
M  V30 5087 H 477.457 -5.1935 6.19113 0
M  V30 5088 H 481.043 -4.18972 4.03675 0
M  V30 5089 H 479.923 -4.91263 6.11253 0
M  V30 5090 N 477.426 -0.562348 -1.47226 0
M  V30 5091 C 478.373 0.182461 -2.30078 0
M  V30 5092 C 479.343 0.903503 -1.39377 0
M  V30 5093 O 480.528 0.898188 -1.68337 0
M  V30 5094 C 477.668 1.20322 -3.23445 0
M  V30 5095 C 476.781 0.487717 -4.29238 0
M  V30 5096 C 475.916 1.49422 -5.09752 0
M  V30 5097 C 474.955 0.763976 -6.07314 0
M  V30 5098 N 474.092 1.71755 -6.80768 0
M  V30 5099 H 478.932 -0.530169 -2.93246 0
M  V30 5100 H 476.469 -0.273276 -1.44539 0
M  V30 5101 H 478.427 1.80768 -3.76004 0
M  V30 5102 H 477.057 1.88382 -2.6213 0
M  V30 5103 H 476.109 -0.231374 -3.79696 0
M  V30 5104 H 477.421 -0.0841003 -4.98729 0
M  V30 5105 H 476.575 2.17206 -5.66486 0
M  V30 5106 H 475.314 2.09995 -4.40174 0
M  V30 5107 H 474.319 0.0722344 -5.49753 0
M  V30 5108 H 475.544 0.16391 -6.78902 0
M  V30 5109 H 473.49 2.31177 -6.13916 0
M  V30 5110 H 473.407 1.19802 -7.46447 0
M  V30 5111 H 474.675 2.38638 -7.42073 0
M  V30 5112 N 478.904 1.54736 -0.299062 0
M  V30 5113 C 480.134 2.04215 0.312992 0
M  V30 5114 C 480.542 1.17596 1.48215 0
M  V30 5115 O 479.885 0.193835 1.82674 0
M  V30 5116 C 479.947 3.49696 0.833862 0
M  V30 5117 C 479.611 4.56518 -0.20977 0
M  V30 5118 C 480.608 5.09442 -1.03756 0
M  V30 5119 C 478.293 5.01073 -0.35091 0
M  V30 5120 C 480.287 6.05459 -1.99244 0
M  V30 5121 C 477.974 5.9691 -1.30924 0
M  V30 5122 C 478.972 6.48987 -2.1285 0
M  V30 5123 O 478.66 7.42947 -3.07059 0
M  V30 5124 H 478.392 0.672128 0.0722494 0
M  V30 5125 H 480.946 2.00718 -0.436043 0
M  V30 5126 H 479.176 3.5051 1.63339 0
M  V30 5127 H 480.865 3.82381 1.36159 0
M  V30 5128 H 481.631 4.75816 -0.939376 0
M  V30 5129 H 477.51 4.60168 0.276813 0
M  V30 5130 H 481.054 6.46031 -2.63229 0
M  V30 5131 H 476.951 6.29953 -1.40815 0
M  V30 5132 H 477.719 7.60743 -3.02015 0
M  V30 5133 N 480.382 0.0267497 1.57577 0
M  V30 5134 C 481.332 -0.965003 2.06571 0
M  V30 5135 C 482.316 -1.28694 0.965746 0
M  V30 5136 O 483.508 -1.27345 1.22932 0
M  V30 5137 C 480.637 -2.24821 2.59443 0
M  V30 5138 C 479.723 -1.95474 3.76365 0
M  V30 5139 N 480.114 -1.36387 4.87065 0
M  V30 5140 C 478.412 -2.25478 3.84806 0
M  V30 5141 C 479.113 -1.24119 5.68304 0
M  V30 5142 N 478.089 -1.7359 5.15138 0
M  V30 5143 H 481.891 -0.503095 2.89562 0
M  V30 5144 H 479.405 -0.178322 1.61418 0
M  V30 5145 H 481.402 -2.9674 2.92833 0
M  V30 5146 H 480.062 -2.7164 1.77881 0
M  V30 5147 H 481.073 -1.03919 5.07367 0
M  V30 5148 H 477.75 -2.74987 3.14147 0
M  V30 5149 H 479.14 -0.784504 6.67304 0
M  V30 5150 N 481.861 -1.55662 -0.24637 0
M  V30 5151 C 483.086 -1.81914 -0.996093 0
M  V30 5152 C 483.511 -0.603875 -1.78143 0
M  V30 5153 O 482.869 0.447091 -1.75701 0
M  V30 5154 C 482.917 -3.05908 -1.90925 0
M  V30 5155 O 482.021 -2.82861 -3.00105 0
M  V30 5156 H 481.362 -0.600481 -0.283406 0
M  V30 5157 H 483.892 -2.02848 -0.267199 0
M  V30 5158 H 483.902 -3.35356 -2.3238 0
M  V30 5159 H 482.577 -3.93999 -1.33183 0
M  V30 5160 H 481.154 -2.64583 -2.62775 0
M  V30 5161 N 483.339 0.512053 -1.4905 0
M  V30 5162 C 484.75 1.09376 -1.51307 0
M  V30 5163 C 485.101 1.94 -0.292971 0
M  V30 5164 O 484.226 2.07965 0.598277 0
M  V30 5165 C 484.821 1.99031 -2.74176 0
M  V30 5166 C 483.38 2.52385 -2.79247 0
M  V30 5167 C 482.527 1.29749 -2.45073 0
M  V30 5168 H 485.478 0.296467 -1.55906 0
M  V30 5169 H 485.499 2.83569 -2.53711 0
M  V30 5170 H 485.011 1.37412 -3.62959 0
M  V30 5171 H 483.112 3.17673 -1.94716 0
M  V30 5172 H 483.225 2.90293 -3.81139 0
M  V30 5173 H 481.589 1.61912 -1.96612 0
M  V30 5174 H 482.372 0.698555 -3.36118 0
M  V30 5175 N 484.817 1.37938 0.762283 0
M  V30 5176 C 485.727 1.36681 1.90671 0
M  V30 5177 C 486.743 0.265078 1.71969 0
M  V30 5178 O 487.919 0.502055 1.95042 0
M  V30 5179 C 484.984 1.18211 3.25925 0
M  V30 5180 C 484.045 2.3811 3.57214 0
M  V30 5181 C 483.278 2.20512 4.86014 0
M  V30 5182 O 483.501 1.19429 5.57757 0
M  V30 5183 O 482.435 3.08911 5.16583 0
M  V30 5184 H 486.261 2.33091 1.94685 0
M  V30 5185 H 483.846 1.18767 0.906356 0
M  V30 5186 H 485.728 1.09937 4.06807 0
M  V30 5187 H 484.403 0.248807 3.22742 0
M  V30 5188 H 483.31 2.51958 2.76529 0
M  V30 5189 H 484.643 3.30041 3.65149 0
M  V30 5190 N 486.295 -0.989507 1.22664 0
M  V30 5191 C 487.205 -2.11449 1.01619 0
M  V30 5192 C 488.221 -1.73962 -0.036545 0
M  V30 5193 O 489.397 -2.00788 0.156924 0
M  V30 5194 C 486.462 -3.41465 0.600204 0
M  V30 5195 C 485.523 -3.93033 1.72695 0
M  V30 5196 C 484.756 -5.16844 1.33071 0
M  V30 5197 O 484.979 -5.7001 0.210975 0
M  V30 5198 O 483.913 -5.6225 2.14845 0
M  V30 5199 H 487.739 -2.32088 1.9588 0
M  V30 5200 H 485.324 -1.09823 1.01289 0
M  V30 5201 H 487.206 -4.19695 0.37873 0
M  V30 5202 H 485.881 -3.22178 -0.313511 0
M  V30 5203 H 484.788 -3.15961 2.00298 0
M  V30 5204 H 486.121 -4.16758 2.61865 0
M  V30 5205 N 487.773 -1.03688 -1.18687 0
M  V30 5206 C 488.683 -0.634908 -2.25845 0
M  V30 5207 C 489.699 0.337065 -1.70704 0
M  V30 5208 O 490.875 0.192943 -2.00474 0
M  V30 5209 C 487.94 -0.000180054 -3.467 0
M  V30 5210 C 487.001 -1.02067 -4.1699 0
M  V30 5211 C 486.234 -0.41614 -5.32075 0
M  V30 5212 O 486.457 0.778712 -5.65059 0
M  V30 5213 O 485.391 -1.14296 -5.90948 0
M  V30 5214 H 489.217 -1.52757 -2.62486 0
M  V30 5215 H 486.802 -0.807533 -1.25695 0
M  V30 5216 H 488.684 0.353342 -4.19916 0
M  V30 5217 H 487.359 0.866367 -3.11891 0
M  V30 5218 H 486.266 -1.42592 -3.45859 0
M  V30 5219 H 487.599 -1.85786 -4.5579 0
M  V30 5220 N 489.251 1.34841 -0.815825 0
M  V30 5221 C 490.5 1.97755 -0.396976 0
M  V30 5222 C 490.813 1.65422 1.04379 0
M  V30 5223 O 492.019 2.21771 1.5662 0
M  V30 5224 C 490.475 3.53818 -0.658869 0
M  V30 5225 C 490.083 3.95051 -2.11278 0
M  V30 5226 C 491.827 4.23397 -0.305834 0
M  V30 5227 C 489.734 5.43997 -2.31994 0
M  V30 5228 H 488.664 0.739985 -0.1447 0
M  V30 5229 H 491.315 1.53781 -1.00118 0
M  V30 5230 H 489.697 3.95997 0.0154112 0
M  V30 5231 H 490.871 3.63998 -2.82564 0
M  V30 5232 H 489.186 3.38388 -2.42657 0
M  V30 5233 H 491.783 5.32899 -0.43854 0
M  V30 5234 H 492.126 4.09508 0.748952 0
M  V30 5235 H 492.659 3.8667 -0.934403 0
M  V30 5236 H 489.398 5.62865 -3.35952 0
M  V30 5237 H 488.918 5.76589 -1.65244 0
M  V30 5238 H 490.597 6.10584 -2.14001 0
M  V30 5239 N 490.729 0.570148 1.46925 0
M  V30 5240 C 491.954 0.0542592 2.07329 0
M  V30 5241 C 492.379 -1.23582 1.41806 0
M  V30 5242 O 491.737 -1.74341 0.497479 0
M  V30 5243 C 491.785 -0.111175 3.60429 0
M  V30 5244 O 490.889 -1.17071 3.95434 0
M  V30 5245 H 490.23 0.0571425 0.661537 0
M  V30 5246 H 492.76 0.789516 1.88753 0
M  V30 5247 H 492.77 -0.321315 4.06733 0
M  V30 5248 H 491.445 0.831012 4.07513 0
M  V30 5249 H 490.022 -0.940029 3.60857 0
M  V30 5250 N 492.207 -1.54576 0.307264 0
M  V30 5251 C 493.137 -2.26708 -0.55907 0
M  V30 5252 C 494.118 -1.26893 -1.1328 0
M  V30 5253 O 495.303 -1.55677 -1.16097 0
M  V30 5254 C 492.433 -3.01259 -1.72801 0
M  V30 5255 C 491.387 -4.08275 -1.28435 0
M  V30 5256 C 490.713 -4.70575 -2.53895 0
M  V30 5257 C 492.013 -5.2068 -0.411038 0
M  V30 5258 H 493.707 -2.9937 0.042576 0
M  V30 5259 H 491.253 -1.43983 0.0219173 0
M  V30 5260 H 493.206 -3.50444 -2.34023 0
M  V30 5261 H 491.93 -2.26187 -2.356 0
M  V30 5262 H 490.589 -3.59949 -0.695161 0
M  V30 5263 H 490.237 -3.92136 -3.15021 0
M  V30 5264 H 489.937 -5.42854 -2.24908 0
M  V30 5265 H 491.461 -5.22527 -3.15908 0
M  V30 5266 H 492.875 -5.65721 -0.929097 0
M  V30 5267 H 491.272 -5.99716 -0.214664 0
M  V30 5268 H 492.342 -4.81629 0.562287 0
M  V30 5269 N 493.685 -0.035106 -1.57561 0
M  V30 5270 C 494.933 0.64096 -1.91667 0
M  V30 5271 C 495.254 1.72323 -0.912681 0
M  V30 5272 O 494.524 1.95849 0.0449089 0
M  V30 5273 H 493.104 0.239743 -0.707483 0
M  V30 5274 H 495.766 -0.084321 -1.94718 0
M  V30 5275 H 494.862 1.08987 -2.92452 0
M  V30 5276 N 495.163 1.55791 0.238111 0
M  V30 5277 C 496.574 1.68383 0.806472 0
M  V30 5278 C 496.925 0.634157 1.85669 0
M  V30 5279 O 496.05 -0.217913 2.153 0
M  V30 5280 C 496.645 3.05268 1.46959 0
M  V30 5281 C 495.204 3.1977 1.98555 0
M  V30 5282 C 494.351 2.64279 0.839763 0
M  V30 5283 H 497.302 1.58694 0.0137535 0
M  V30 5284 H 497.323 3.00203 2.33792 0
M  V30 5285 H 496.835 3.81643 0.704993 0
M  V30 5286 H 494.936 2.48234 2.77868 0
M  V30 5287 H 495.049 4.26788 2.17689 0
M  V30 5288 H 493.413 2.22329 1.24265 0
M  V30 5289 H 494.196 3.43187 0.0881032 0
M  V30 5290 N 496.642 -0.504142 1.49319 0
M  V30 5291 C 497.605 -1.5883 1.65244 0
M  V30 5292 C 498.605 -1.52009 0.524386 0
M  V30 5293 O 499.795 -1.55218 0.79077 0
M  V30 5294 C 496.927 -2.98481 1.64687 0
M  V30 5295 H 498.12 -1.4604 2.61939 0
M  V30 5296 H 495.673 -0.728144 1.38303 0
M  V30 5297 H 496.408 -3.16751 0.695644 0
M  V30 5298 H 496.193 -3.0484 2.46607 0
M  V30 5299 H 497.683 -3.77256 1.79075 0
M  V30 5300 N 498.12 -1.38341 -0.754957 0
M  V30 5301 C 499.36 -1.35888 -1.52689 0
M  V30 5302 C 499.724 0.0513682 -1.91931 0
M  V30 5303 O 500.925 0.200761 -2.68049 0
M  V30 5304 C 499.196 -2.28666 -2.74676 0
M  V30 5305 S 500.755 -2.4422 -3.64558 0
M  V30 5306 H 497.573 -0.482165 -0.522531 0
M  V30 5307 H 500.175 -1.74253 -0.886358 0
M  V30 5308 H 498.879 -3.30023 -2.43953 0
M  V30 5309 H 498.41 -1.91445 -3.43675 0
M  V30 5310 H 500.425 -1.66525 -4.67423 0
M  V30 5311 N 499.598 0.982988 -1.23187 0
M  V30 5312 C 500.844 1.7273 -1.07405 0
M  V30 5313 C 501.199 1.885 0.385447 0
M  V30 5314 O 500.492 1.4243 1.28157 0
M  V30 5315 C 500.686 3.12736 -1.73006 0
M  V30 5316 C 500.515 3.10621 -3.25184 0
M  V30 5317 C 499.285 3.15957 -3.94334 0
M  V30 5318 C 501.483 2.93992 -4.21987 0
M  V30 5319 N 499.465 3.03701 -5.33516 0
M  V30 5320 C 500.836 2.8987 -5.48065 0
M  V30 5321 C 502.891 2.78457 -4.12754 0
M  V30 5322 C 501.594 2.71804 -6.65969 0
M  V30 5323 C 503.62 2.61754 -5.30319 0
M  V30 5324 C 502.982 2.58328 -6.55321 0
M  V30 5325 H 499.081 0.641279 -0.447533 0
M  V30 5326 H 501.665 1.16664 -1.55877 0
M  V30 5327 H 499.836 3.67026 -1.2707 0
M  V30 5328 H 501.568 3.75786 -1.50224 0
M  V30 5329 H 498.323 3.24034 -3.45397 0
M  V30 5330 H 498.747 3.00855 -6.06478 0
M  V30 5331 H 503.389 2.79898 -3.16886 0
M  V30 5332 H 501.107 2.69108 -7.61975 0
M  V30 5333 H 504.693 2.50702 -5.25014 0
M  V30 5334 H 503.573 2.45564 -7.4476 0
M  V30 5335 N 501.076 1.04316 1.18135 0
M  V30 5336 C 502.006 0.657299 2.24058 0
M  V30 5337 C 502.987 -0.340678 1.66654 0
M  V30 5338 O 504.172 -0.220223 1.92947 0
M  V30 5339 C 501.302 0.0220715 3.47293 0
M  V30 5340 C 500.256 0.943857 4.17463 0
M  V30 5341 C 499.582 0.172973 5.3442 0
M  V30 5342 C 500.882 2.26409 4.70677 0
M  V30 5343 H 502.576 1.5428 2.56589 0
M  V30 5344 H 500.122 0.743263 1.23335 0
M  V30 5345 H 502.075 -0.259607 4.206 0
M  V30 5346 H 500.799 -0.898323 3.14003 0
M  V30 5347 H 499.458 1.20996 3.46057 0
M  V30 5348 H 499.106 -0.749907 4.97379 0
M  V30 5349 H 498.806 0.787098 5.82304 0
M  V30 5350 H 500.33 -0.101628 6.10515 0
M  V30 5351 H 501.744 2.04294 5.35665 0
M  V30 5352 H 500.141 2.8314 5.29105 0
M  V30 5353 H 501.211 2.90883 3.87962 0
M  V30 5354 N 502.554 -1.34406 0.822964 0
M  V30 5355 C 503.8 -1.98999 0.420847 0
M  V30 5356 C 504.155 -1.64067 -1.00498 0
M  V30 5357 O 503.448 -0.902071 -1.69036 0
M  V30 5358 C 503.642 -3.52981 0.560268 0
M  V30 5359 C 503.471 -4.02873 1.99809 0
M  V30 5360 C 502.241 -4.31463 2.62998 0
M  V30 5361 C 504.439 -4.20241 2.96483 0
M  V30 5362 N 502.421 -4.6739 3.9802 0
M  V30 5363 C 503.792 -4.59348 4.16413 0
M  V30 5364 C 505.847 -4.02489 2.93098 0
M  V30 5365 C 504.55 -4.82559 5.33413 0
M  V30 5366 C 506.576 -4.26866 4.09315 0
M  V30 5367 C 505.938 -4.6626 5.27997 0
M  V30 5368 H 502.037 -0.755432 0.202104 0
M  V30 5369 H 504.621 -1.62815 1.06767 0
M  V30 5370 H 502.792 -3.88359 -0.0566596 0
M  V30 5371 H 504.524 -4.04487 0.131146 0
M  V30 5372 H 501.279 -4.22373 2.14238 0
M  V30 5373 H 501.703 -4.89588 4.67582 0
M  V30 5374 H 506.345 -3.71161 2.02483 0
M  V30 5375 H 504.063 -5.12754 6.24587 0
M  V30 5376 H 507.649 -4.14667 4.08096 0
M  V30 5377 H 506.529 -4.84752 6.16429 0
M  V30 5378 N 504.032 -0.577932 -1.46621 0
M  V30 5379 C 505.309 0.00495287 -1.95599 0
M  V30 5380 C 505.689 1.46428 -1.5206 0
M  V30 5381 O 505.037 2.1517 -0.769046 0
M  V30 5382 C 505.247 -0.162114 -3.48623 0
M  V30 5383 C 506.595 -0.0274623 -4.24591 0
M  V30 5384 O 507.619 -0.0907067 -3.56084 0
M  V30 5385 O 506.478 0.1122 -5.46385 0
M  V30 5386 H 503.572 0.0525057 -0.825332 0
M  V30 5387 H 506.118 -0.645914 -1.56927 0
M  V30 5388 H 504.89 -1.17679 -3.73185 0
M  V30 5389 H 504.513 0.525407 -3.94113 0
M  V30 5390 N 505.51 1.54411 -0.315457 0
M  V30 5391 C 506.757 2.00419 0.289543 0
M  V30 5392 C 507.085 1.20373 1.52776 0
M  V30 5393 O 506.34 0.271769 1.93804 0
M  V30 5394 C 506.639 3.50936 0.676652 0
M  V30 5395 C 506.305 4.48532 -0.461472 0
M  V30 5396 C 504.967 4.74936 -0.773879 0
M  V30 5397 C 507.319 5.06567 -1.22637 0
M  V30 5398 C 504.647 5.56634 -1.85405 0
M  V30 5399 C 506.999 5.89441 -2.29657 0
M  V30 5400 C 505.663 6.1415 -2.61488 0
M  V30 5401 H 504.933 0.733386 0.105951 0
M  V30 5402 H 507.58 1.86434 -0.437554 0
M  V30 5403 H 505.885 3.62606 1.48405 0
M  V30 5404 H 507.582 3.83971 1.15618 0
M  V30 5405 H 504.172 4.28096 -0.207893 0
M  V30 5406 H 508.356 4.86157 -0.998271 0
M  V30 5407 H 503.612 5.74012 -2.10523 0
M  V30 5408 H 507.786 6.33432 -2.89374 0
M  V30 5409 H 505.413 6.77245 -3.45317 0
M  V30 5410 N 506.988 0.0434614 1.5754 0
M  V30 5411 C 507.918 -0.931651 2.14109 0
M  V30 5412 C 508.899 -1.32971 1.06079 0
M  V30 5413 O 510.084 -1.40579 1.33982 0
M  V30 5414 C 507.214 -2.20914 2.67982 0
M  V30 5415 C 506.168 -1.95139 3.80926 0
M  V30 5416 C 505.494 -3.29276 4.21285 0
M  V30 5417 C 506.794 -1.27913 5.06395 0
M  V30 5418 H 508.488 -0.460497 2.95837 0
M  V30 5419 H 506.034 -0.220058 1.42309 0
M  V30 5420 H 507.987 -2.89522 3.06194 0
M  V30 5421 H 506.711 -2.70221 1.83434 0
M  V30 5422 H 505.37 -1.28945 3.43175 0
M  V30 5423 H 505.018 -3.76369 3.33699 0
M  V30 5424 H 504.718 -3.12831 4.97404 0
M  V30 5425 H 506.242 -3.99129 4.62091 0
M  V30 5426 H 507.656 -1.86544 5.42102 0
M  V30 5427 H 506.053 -1.2182 5.87605 0
M  V30 5428 H 507.123 -0.254066 4.84234 0
M  V30 5429 N 508.466 -1.55915 -0.229846 0
M  V30 5430 C 509.882 -1.48721 -0.579166 0
M  V30 5431 C 510.082 -0.736976 -1.87539 0
M  V30 5432 O 509.138 -0.273258 -2.51017 0
M  V30 5433 C 510.451 -2.9323 -0.666082 0
M  V30 5434 C 511.999 -3.03701 -0.757267 0
M  V30 5435 C 512.474 -4.49552 -0.8756 0
M  V30 5436 N 513.965 -4.53561 -0.940035 0
M  V30 5437 C 514.7 -5.63683 -1.05116 0
M  V30 5438 N 514.196 -6.83576 -1.12675 0
M  V30 5439 N 515.989 -5.51516 -1.08565 0
M  V30 5440 H 508.14 -2.03123 0.620857 0
M  V30 5441 H 510.403 -0.922898 0.21671 0
M  V30 5442 H 510.109 -3.51032 0.21664 0
M  V30 5443 H 509.983 -3.44668 -1.53243 0
M  V30 5444 H 512.37 -2.45969 -1.63043 0
M  V30 5445 H 512.451 -2.55446 0.134583 0
M  V30 5446 H 512.095 -5.079 -0.00692351 0
M  V30 5447 H 512.025 -4.95506 -1.78274 0
M  V30 5448 H 514.516 -3.67215 -0.892269 0
M  V30 5449 H 514.829 -7.63251 -1.21109 0
M  V30 5450 H 513.174 -6.86303 -1.09603 0
M  V30 5451 H 516.365 -4.5678 -1.02319 0
M  V30 5452 H 516.538 -6.37372 -1.1688 0
M  V30 5453 N 509.944 0.496216 -1.49584 0
M  V30 5454 C 511.36 0.827814 -1.36453 0
M  V30 5455 C 511.56 1.97464 -0.401285 0
M  V30 5456 O 510.616 2.51958 0.165296 0
M  V30 5457 C 511.929 1.16352 -2.77277 0
M  V30 5458 C 513.477 1.27145 -2.86013 0
M  V30 5459 C 513.952 1.64042 -4.27615 0
M  V30 5460 N 515.443 1.71082 -4.30448 0
M  V30 5461 C 516.178 2.01085 -5.36984 0
M  V30 5462 N 515.674 2.2928 -6.5376 0
M  V30 5463 N 517.467 2.02376 -5.24405 0
M  V30 5464 H 509.618 -0.259947 -2.10803 0
M  V30 5465 H 511.881 -0.0537163 -0.946477 0
M  V30 5466 H 511.587 0.394153 -3.49484 0
M  V30 5467 H 511.461 2.10582 -3.12946 0
M  V30 5468 H 513.848 2.03152 -2.1404 0
M  V30 5469 H 513.929 0.309542 -2.5392 0
M  V30 5470 H 513.573 0.88583 -5.00115 0
M  V30 5471 H 513.503 2.6134 -4.57175 0
M  V30 5472 H 515.994 1.51434 -3.46232 0
M  V30 5473 H 516.307 2.51376 -7.30774 0
M  V30 5474 H 514.652 2.26726 -6.56978 0
M  V30 5475 H 517.843 1.79829 -4.32179 0
M  V30 5476 H 518.016 2.25425 -6.07526 0
M  V30 5477 N 511.423 1.38739 0.74761 0
M  V30 5478 C 512.648 1.38702 1.54197 0
M  V30 5479 C 513.073 -0.019664 1.8809 0
M  V30 5480 O 512.431 -1.00333 1.51006 0
M  V30 5481 C 512.479 2.25492 2.814 0
M  V30 5482 O 511.583 1.67613 3.76802 0
M  V30 5483 H 510.924 0.472863 0.466151 0
M  V30 5484 H 513.454 1.82577 0.923413 0
M  V30 5485 H 513.464 2.39561 3.30264 0
M  V30 5486 H 512.139 3.27727 2.56062 0
M  V30 5487 H 510.716 1.62718 3.35526 0
M  V30 5488 N 512.901 -0.976442 1.23707 0
M  V30 5489 C 513.833 -2.07212 0.979574 0
M  V30 5490 C 514.846 -1.6273 -0.0478528 0
M  V30 5491 O 516.035 -1.77506 0.18815 0
M  V30 5492 C 513.135 -3.35835 0.45479 0
M  V30 5493 C 512.308 -4.09268 1.54331 0
M  V30 5494 C 511.367 -5.16166 1.02271 0
M  V30 5495 O 510.393 -5.42827 1.71254 0
M  V30 5496 N 511.595 -5.80313 -0.147419 0
M  V30 5497 H 514.36 -2.29878 1.92292 0
M  V30 5498 H 511.921 -1.14343 1.14618 0
M  V30 5499 H 513.913 -4.04597 0.0914631 0
M  V30 5500 H 512.483 -3.10106 -0.394068 0
M  V30 5501 H 511.703 -3.34906 2.07923 0
M  V30 5502 H 512.991 -4.55095 2.27522 0
M  V30 5503 H 512.389 -5.61043 -0.724353 0
M  V30 5504 H 510.946 -6.50231 -0.451972 0
M  V30 5505 N 514.379 -1.04941 -1.1758 0
M  V30 5506 C 515.311 -0.606174 -2.21039 0
M  V30 5507 C 516.324 0.328763 -1.59446 0
M  V30 5508 O 517.513 0.121895 -1.78083 0
M  V30 5509 C 514.613 0.133294 -3.38638 0
M  V30 5510 C 513.786 -0.811711 -4.29802 0
M  V30 5511 C 512.845 -0.113958 -5.26077 0
M  V30 5512 O 511.871 -0.747237 -5.64274 0
M  V30 5513 N 513.073 1.14953 -5.69004 0
M  V30 5514 H 515.838 -1.49606 -2.59689 0
M  V30 5515 H 513.399 -0.930997 -1.32454 0
M  V30 5516 H 515.391 0.610144 -4.00074 0
M  V30 5517 H 513.961 0.924816 -2.98607 0
M  V30 5518 H 513.181 -1.46824 -3.65837 0
M  V30 5519 H 514.469 -1.45326 -4.87604 0
M  V30 5520 H 513.867 1.68441 -5.40041 0
M  V30 5521 H 512.424 1.57049 -6.32597 0
M  V30 5522 N 515.857 1.33968 -0.830081 0
M  V30 5523 C 516.82 2.27694 -0.26235 0
M  V30 5524 C 517.82 1.50589 0.563876 0
M  V30 5525 O 519.01 1.70028 0.378941 0
M  V30 5526 C 516.142 3.35002 0.63138 0
M  V30 5527 H 517.335 2.79419 -1.08928 0
M  V30 5528 H 514.888 1.44221 -0.602486 0
M  V30 5529 H 515.623 2.88504 1.48109 0
M  V30 5530 H 515.408 3.92079 0.0403276 0
M  V30 5531 H 516.898 4.04897 1.02217 0
M  V30 5532 N 517.335 0.585699 1.46312 0
M  V30 5533 C 518.583 0.072278 2.01971 0
M  V30 5534 C 518.904 -1.29345 1.45928 0
M  V30 5535 O 518.174 -1.84973 0.645109 0
M  V30 5536 H 516.754 0.023729 0.746623 0
M  V30 5537 H 519.416 0.762155 1.7938 0
M  V30 5538 H 518.512 0.00552767 3.121 0
M  V30 5539 N 518.813 -1.54241 0.323641 0
M  V30 5540 C 520.06 -2.0057 -0.27891 0
M  V30 5541 C 520.388 -1.21181 -1.52136 0
M  V30 5542 O 519.643 -0.282043 -1.93657 0
M  V30 5543 C 519.942 -3.5129 -0.658031 0
M  V30 5544 C 519.608 -4.48281 0.485252 0
M  V30 5545 C 518.27 -4.74519 0.799055 0
M  V30 5546 C 520.622 -5.05909 1.25322 0
M  V30 5547 C 517.95 -5.55643 1.88354 0
M  V30 5548 C 520.302 -5.88215 2.32779 0
M  V30 5549 C 518.966 -6.12755 2.64741 0
M  V30 5550 H 518.236 -0.733938 -0.10206 0
M  V30 5551 H 520.883 -1.862 0.447435 0
M  V30 5552 H 519.188 -3.63388 -1.4648 0
M  V30 5553 H 520.885 -3.84578 -1.1358 0
M  V30 5554 H 517.475 -4.27979 0.230593 0
M  V30 5555 H 521.659 -4.8562 1.02404 0
M  V30 5556 H 516.915 -5.72888 2.13564 0
M  V30 5557 H 521.089 -6.31888 2.92729 0
M  V30 5558 H 518.716 -6.75404 3.48904 0
M  V30 5559 N 520.291 -0.0518155 -1.57515 0
M  V30 5560 C 521.221 0.920283 -2.146 0
M  V30 5561 C 522.202 1.32406 -1.06783 0
M  V30 5562 O 523.387 1.39866 -1.34726 0
M  V30 5563 C 520.517 2.1949 -2.6915 0
M  V30 5564 C 519.471 1.93116 -3.81956 0
M  V30 5565 C 518.797 3.27037 -4.23026 0
M  V30 5566 C 520.097 1.25225 -5.07066 0
M  V30 5567 H 521.791 0.444801 -2.96077 0
M  V30 5568 H 519.337 0.212508 -1.42423 0
M  V30 5569 H 521.29 2.87894 -3.07725 0
M  V30 5570 H 520.014 2.69244 -1.84865 0
M  V30 5571 H 518.673 1.27123 -3.43854 0
M  V30 5572 H 518.321 3.74595 -3.3569 0
M  V30 5573 H 518.021 3.10189 -4.99056 0
M  V30 5574 H 519.545 3.96673 -4.64202 0
M  V30 5575 H 520.959 1.83666 -5.43083 0
M  V30 5576 H 519.356 1.18702 -5.88243 0
M  V30 5577 H 520.426 0.228382 -4.84362 0
M  V30 5578 N 521.769 1.56035 0.221574 0
M  V30 5579 C 522.699 1.95434 1.2778 0
M  V30 5580 C 523.68 0.822564 1.48889 0
M  V30 5581 O 524.865 1.08486 1.61072 0
M  V30 5582 C 521.995 2.27102 2.62759 0
M  V30 5583 C 520.949 3.4277 2.56306 0
M  V30 5584 C 520.275 3.60043 3.95314 0
M  V30 5585 C 521.575 4.77742 2.11093 0
M  V30 5586 H 523.269 2.83912 0.950504 0
M  V30 5587 H 520.815 1.36596 0.455791 0
M  V30 5588 H 522.768 2.53256 3.36807 0
M  V30 5589 H 521.492 1.35478 2.97176 0
M  V30 5590 H 520.151 3.16664 1.84715 0
M  V30 5591 H 519.799 2.65794 4.27039 0
M  V30 5592 H 519.499 4.37841 3.91879 0
M  V30 5593 H 521.023 3.88545 4.71025 0
M  V30 5594 H 522.437 5.03102 2.74885 0
M  V30 5595 H 520.834 5.58823 2.18716 0
M  V30 5596 H 521.904 4.731 1.06321 0
M  V30 5597 N 523.247 -0.488276 1.49845 0
M  V30 5598 C 524.658 -1.06955 1.53028 0
M  V30 5599 C 525.009 -1.9351 0.323797 0
M  V30 5600 O 524.134 -2.08891 -0.565116 0
M  V30 5601 C 524.729 -1.94643 2.77307 0
M  V30 5602 C 523.288 -2.4791 2.83227 0
M  V30 5603 C 522.435 -1.25833 2.47106 0
M  V30 5604 H 525.386 -0.271626 1.56358 0
M  V30 5605 H 525.407 -2.79496 2.5819 0
M  V30 5606 H 524.919 -1.31621 3.65099 0
M  V30 5607 H 523.02 -3.14535 1.99745 0
M  V30 5608 H 523.133 -2.84193 3.85709 0
M  V30 5609 H 521.497 -1.58764 1.99163 0
M  V30 5610 H 522.28 -0.644993 3.37186 0
M  V30 5611 N 524.725 -1.39134 -0.740242 0
M  V30 5612 C 525.655 -1.40165 -1.86751 0
M  V30 5613 C 526.636 -0.265708 -1.68012 0
M  V30 5614 O 527.821 -0.47076 -1.88408 0
M  V30 5615 C 524.951 -1.2392 -3.2444 0
M  V30 5616 C 523.905 -2.34858 -3.57807 0
M  V30 5617 C 523.231 -2.03707 -4.94376 0
M  V30 5618 C 524.531 -3.77159 -3.61315 0
M  V30 5619 H 526.225 -2.345 -1.86145 0
M  V30 5620 H 523.771 -1.12875 -0.89416 0
M  V30 5621 H 525.724 -1.23263 -4.02969 0
M  V30 5622 H 524.448 -0.26051 -3.25559 0
M  V30 5623 H 523.107 -2.34723 -2.81604 0
M  V30 5624 H 522.755 -1.04289 -4.9207 0
M  V30 5625 H 522.455 -2.78016 -5.17669 0
M  V30 5626 H 523.979 -2.04691 -5.75268 0
M  V30 5627 H 525.393 -3.79252 -4.29931 0
M  V30 5628 H 523.79 -4.50784 -3.96124 0
M  V30 5629 H 524.86 -4.08513 -2.61238 0
M  V30 5630 N 526.204 0.969867 -1.24223 0
M  V30 5631 C 527.429 1.75289 -1.10853 0
M  V30 5632 C 527.854 1.85091 0.335079 0
M  V30 5633 O 527.212 1.32024 1.24255 0
M  V30 5634 C 527.26 3.15255 -1.75062 0
M  V30 5635 O 526.364 3.99589 -1.01992 0
M  V30 5636 H 525.705 0.538904 -0.387915 0
M  V30 5637 H 528.235 1.21675 -1.64488 0
M  V30 5638 H 528.245 3.65787 -1.80731 0
M  V30 5639 H 526.92 3.07436 -2.801 0
M  V30 5640 H 525.497 3.58077 -1.04094 0
M  V30 5641 N 527.682 1.05563 1.17022 0
M  V30 5642 C 528.93 0.76642 1.87004 0
M  V30 5643 C 529.251 -0.708854 1.8166 0
M  V30 5644 O 528.521 -1.51242 1.2451 0
M  V30 5645 H 527.101 0.280516 0.692329 0
M  V30 5646 H 529.763 1.33557 1.41945 0
M  V30 5647 H 528.859 1.08472 2.92644 0
M  V30 5648 N 529.16 -1.33526 0.837174 0
M  V30 5649 C 530.408 -1.97446 0.431211 0
M  V30 5650 C 530.729 -1.6665 -1.01255 0
M  V30 5651 O 529.999 -0.964559 -1.70508 0
M  V30 5652 H 528.579 -0.73043 0.156463 0
M  V30 5653 H 531.241 -1.62918 1.06976 0
M  V30 5654 H 530.337 -3.07001 0.561877 0
M  V30 5655 N 530.638 -0.59345 -1.46 0
M  V30 5656 C 531.884 -0.0832754 -2.02629 0
M  V30 5657 C 532.217 1.27749 -1.46266 0
M  V30 5658 O 531.492 1.8395 -0.631866 0
M  V30 5659 C 531.775 -0.0290756 -3.60088 0
M  V30 5660 C 531.628 -1.41951 -4.26814 0
M  V30 5661 C 532.947 0.666055 -4.35031 0
M  V30 5662 H 530.066 -0.031736 -0.736316 0
M  V30 5663 H 532.708 -0.762711 -1.74019 0
M  V30 5664 H 530.858 0.549532 -3.84594 0
M  V30 5665 H 532.53 -2.04411 -4.13538 0
M  V30 5666 H 530.773 -1.98422 -3.8576 0
M  V30 5667 H 531.444 -1.33395 -5.3564 0
M  V30 5668 H 533.92 0.174401 -4.15734 0
M  V30 5669 H 532.796 0.673041 -5.44758 0
M  V30 5670 H 533.057 1.72946 -4.06869 0
M  V30 5671 N 532.116 1.54067 -0.331816 0
M  V30 5672 C 533.393 1.92915 0.322955 0
M  V30 5673 C 533.773 1.26225 1.69205 0
M  V30 5674 O 533.121 0.408919 2.24811 0
M  V30 5675 C 533.331 3.46619 0.406946 0
M  V30 5676 C 534.679 4.19386 0.663339 0
M  V30 5677 O 535.703 3.5282 0.489536 0
M  V30 5678 O 534.562 5.37288 0.999193 0
M  V30 5679 H 531.656 0.805808 0.186016 0
M  V30 5680 H 534.202 1.65342 -0.382135 0
M  V30 5681 H 532.974 3.87354 -0.554287 0
M  V30 5682 H 532.597 3.80324 1.15929 0
M  V30 5683 N 533.594 0.0601682 1.57485 0
M  V30 5684 C 534.819 -0.624416 1.97777 0
M  V30 5685 C 535.244 -1.63051 0.937867 0
M  V30 5686 O 534.602 -1.81036 -0.0978845 0
M  V30 5687 C 534.65 -1.27979 3.37126 0
M  V30 5688 O 533.754 -2.39556 3.35688 0
M  V30 5689 H 533.095 -0.161581 0.64404 0
M  V30 5690 H 535.625 0.131237 2.04179 0
M  V30 5691 H 535.635 -1.62937 3.74053 0
M  V30 5692 H 534.31 -0.542501 4.12347 0
M  V30 5693 H 532.887 -2.06478 3.10517 0
M  V30 5694 N 535.072 -1.5615 -0.213296 0
M  V30 5695 C 536.035 -1.92249 -1.24792 0
M  V30 5696 C 537.035 -0.801828 -1.39382 0
M  V30 5697 O 538.225 -1.06948 -1.37506 0
M  V30 5698 C 535.357 -2.18056 -2.62039 0
M  V30 5699 H 536.55 -2.84793 -0.939845 0
M  V30 5700 H 534.103 -1.49559 -0.454062 0
M  V30 5701 H 534.838 -1.2809 -2.97932 0
M  V30 5702 H 534.623 -2.99703 -2.52825 0
M  V30 5703 H 536.113 -2.47051 -3.36683 0
M  V30 5704 N 536.55 0.480323 -1.50102 0
M  V30 5705 C 537.513 1.56181 -1.6775 0
M  V30 5706 C 538.513 1.51156 -0.548503 0
M  V30 5707 O 539.703 1.5394 -0.815363 0
M  V30 5708 C 536.835 2.95823 -1.69415 0
M  V30 5709 H 538.028 1.41855 -2.6423 0
M  V30 5710 H 535.581 0.70605 -1.39444 0
M  V30 5711 H 536.316 3.15604 -0.745948 0
M  V30 5712 H 536.101 3.00878 -2.51425 0
M  V30 5713 H 537.591 3.74359 -1.85054 0
M  V30 5714 N 538.028 1.39524 0.732853 0
M  V30 5715 C 539.256 1.40143 1.52209 0
M  V30 5716 C 539.671 -0.00348836 1.888 0
M  V30 5717 O 539.028 -0.975357 1.5425 0
M  V30 5718 C 539.079 2.27632 2.8083 0
M  V30 5719 O 538.8 3.62654 2.45792 0
M  V30 5720 C 540.301 2.36658 3.74844 0
M  V30 5721 H 537.521 0.478604 0.470297 0
M  V30 5722 H 540.065 1.83366 0.905388 0
M  V30 5723 H 538.22 1.87818 3.38826 0
M  V30 5724 H 538.634 4.08941 3.28431 0
M  V30 5725 H 540.108 3.02118 4.61984 0
M  V30 5726 H 540.585 1.38638 4.16745 0
M  V30 5727 H 541.191 2.76951 3.22766 0
M  V30 5728 N 539.506 -0.963266 1.24736 0
M  V30 5729 C 540.469 -2.04013 1.04457 0
M  V30 5730 C 541.469 -1.608 0.000335555 0
M  V30 5731 O 542.659 -1.72515 0.241719 0
M  V30 5732 C 539.791 -3.35858 0.584162 0
M  V30 5733 H 540.984 -2.23436 2.00041 0
M  V30 5734 H 538.537 -1.13914 1.07021 0
M  V30 5735 H 539.272 -3.22128 -0.374673 0
M  V30 5736 H 539.057 -3.68568 1.3379 0
M  V30 5737 H 540.547 -4.1502 0.463451 0
M  V30 5738 N 540.985 -1.06182 -1.16461 0
M  V30 5739 C 542.225 -0.787048 -1.8864 0
M  V30 5740 C 542.589 0.674093 -1.79778 0
M  V30 5741 O 543.79 1.06341 -2.46871 0
M  V30 5742 C 542.061 -1.2666 -3.34203 0
M  V30 5743 S 543.62 -1.12071 -4.24247 0
M  V30 5744 H 540.438 -0.285539 -0.651144 0
M  V30 5745 H 543.04 -1.35851 -1.40587 0
M  V30 5746 H 541.744 -2.32496 -3.38192 0
M  V30 5747 H 541.275 -0.689841 -3.87304 0
M  V30 5748 H 543.29 -0.0509341 -4.96174 0
M  V30 5749 N 542.463 1.3308 -0.844243 0
M  V30 5750 C 543.393 2.3161 -0.296493 0
M  V30 5751 C 544.374 1.59215 0.598707 0
M  V30 5752 O 545.559 1.87077 0.521134 0
M  V30 5753 C 542.689 3.43313 0.524762 0
M  V30 5754 C 541.643 4.27115 -0.275106 0
M  V30 5755 C 540.969 5.30483 0.670236 0
M  V30 5756 C 542.269 5.00443 -1.49514 0
M  V30 5757 H 543.963 2.77672 -1.11976 0
M  V30 5758 H 541.509 1.33496 -0.539899 0
M  V30 5759 H 543.462 4.11273 0.918298 0
M  V30 5760 H 542.186 2.95952 1.3813 0
M  V30 5761 H 540.845 3.60787 -0.650267 0
M  V30 5762 H 540.493 4.79379 1.52332 0
M  V30 5763 H 540.193 5.87435 0.139123 0
M  V30 5764 H 541.717 6.01308 1.06117 0
M  V30 5765 H 543.131 5.61141 -1.17447 0
M  V30 5766 H 541.528 5.67071 -1.96343 0
M  V30 5767 H 542.598 4.28906 -2.26202 0
M  V30 5768 N 543.941 0.601185 1.45683 0
M  V30 5769 C 545.19 0.0914953 2.01492 0
M  V30 5770 C 545.503 -1.28331 1.47616 0
M  V30 5771 O 546.709 -1.88537 1.95362 0
M  V30 5772 C 545.165 0.11291 3.59723 0
M  V30 5773 C 544.773 1.48717 4.22596 0
M  V30 5774 C 546.517 -0.341871 4.23121 0
M  V30 5775 C 544.424 1.46531 5.7296 0
M  V30 5776 H 543.354 0.0304365 0.753385 0
M  V30 5777 H 546.005 0.755568 1.67223 0
M  V30 5778 H 544.387 -0.617692 3.91153 0
M  V30 5779 H 545.561 2.23897 4.02749 0
M  V30 5780 H 543.876 1.88351 3.71366 0
M  V30 5781 H 546.473 -0.377304 5.33367 0
M  V30 5782 H 546.816 -1.36325 3.93346 0
M  V30 5783 H 547.349 0.335256 3.96385 0
M  V30 5784 H 544.088 2.46408 6.07423 0
M  V30 5785 H 543.608 0.755997 5.95017 0
M  V30 5786 H 545.287 1.18618 6.36034 0
M  V30 5787 N 545.419 -1.53889 0.339982 0
M  V30 5788 C 546.649 -2.04973 -0.258738 0
M  V30 5789 C 547.057 -1.21485 -1.45045 0
M  V30 5790 O 546.4 -0.2422 -1.82096 0
M  V30 5791 C 546.462 -3.51783 -0.740853 0
M  V30 5792 C 546.126 -4.55802 0.330734 0
M  V30 5793 C 547.123 -5.06512 1.17226 0
M  V30 5794 C 544.808 -4.99966 0.483637 0
M  V30 5795 C 546.802 -5.99963 2.15227 0
M  V30 5796 C 544.489 -5.93229 1.46704 0
M  V30 5797 C 545.487 -6.43115 2.29981 0
M  V30 5798 O 545.175 -7.34545 3.26649 0
M  V30 5799 H 544.907 -0.673807 -0.0544037 0
M  V30 5800 H 547.461 -1.99492 0.489107 0
M  V30 5801 H 545.691 -3.54717 -1.53988 0
M  V30 5802 H 547.38 -3.85857 -1.25973 0
M  V30 5803 H 548.146 -4.73158 1.0652 0
M  V30 5804 H 544.025 -4.6074 -0.15471 0
M  V30 5805 H 547.569 -6.38825 2.80265 0
M  V30 5806 H 543.466 -6.25998 1.57468 0
M  V30 5807 H 544.234 -7.52468 3.22078 0
M  V30 5808 N 546.897 -0.0685191 -1.57451 0
M  V30 5809 C 548.122 0.613919 -1.98106 0
M  V30 5810 C 548.547 1.62551 -0.946501 0
M  V30 5811 O 547.905 1.81085 0.0882824 0
M  V30 5812 C 547.953 1.26189 -3.378 0
M  V30 5813 O 547.057 2.37773 -3.36954 0
M  V30 5814 H 546.398 0.158163 -0.644888 0
M  V30 5815 H 548.928 -0.142063 -2.04106 0
M  V30 5816 H 548.938 1.60951 -3.74912 0
M  V30 5817 H 547.613 0.520625 -4.12629 0
M  V30 5818 H 546.19 2.04829 -3.11608 0
M  V30 5819 N 548.375 1.56261 0.205012 0
M  V30 5820 C 549.308 1.88797 1.28183 0
M  V30 5821 C 550.286 0.747018 1.44424 0
M  V30 5822 O 551.47 0.997039 1.59973 0
M  V30 5823 C 548.597 2.10949 2.64987 0
M  V30 5824 C 547.643 3.33649 2.6567 0
M  V30 5825 S 548.476 4.89078 2.18088 0
M  V30 5826 C 549.632 5.14286 3.56736 0
M  V30 5827 H 549.865 2.79837 1.00393 0
M  V30 5828 H 547.398 1.48911 0.408042 0
M  V30 5829 H 549.356 2.24395 3.4374 0
M  V30 5830 H 548.017 1.20678 2.89993 0
M  V30 5831 H 547.21 3.46245 3.66239 0
M  V30 5832 H 546.812 3.19146 1.94992 0
M  V30 5833 H 549.104 5.04198 4.52537 0
M  V30 5834 H 550.047 6.16096 3.49043 0
M  V30 5835 H 550.455 4.41957 3.51189 0
M  V30 5836 N 549.853 -0.472356 1.50355 0
M  V30 5837 C 551.093 -1.23439 1.62918 0
M  V30 5838 C 551.457 -1.89284 0.321801 0
M  V30 5839 O 552.658 -2.66854 0.322852 0
M  V30 5840 C 550.929 -2.25119 2.7759 0
M  V30 5841 S 552.488 -3.10278 3.10279 0
M  V30 5842 H 549.306 -0.41911 0.574341 0
M  V30 5843 H 551.908 -0.531621 1.88133 0
M  V30 5844 H 550.612 -1.75324 3.71066 0
M  V30 5845 H 550.143 -3.00026 2.54457 0
M  V30 5846 H 552.158 -4.26257 2.54007 0
M  V30 5847 N 551.331 -1.39911 -0.725443 0
M  V30 5848 C 552.571 -1.39096 -1.49772 0
M  V30 5849 C 552.935 0.0106452 -1.91997 0
M  V30 5850 O 554.136 0.143859 -2.68415 0
M  V30 5851 C 552.407 -2.34441 -2.69764 0
M  V30 5852 S 553.966 -2.51898 -3.59295 0
M  V30 5853 H 550.784 -0.49314 -0.512186 0
M  V30 5854 H 553.386 -1.76093 -0.849197 0
M  V30 5855 H 552.09 -3.35123 -2.36898 0
M  V30 5856 H 551.621 -1.98692 -3.39537 0
M  V30 5857 H 553.636 -1.76402 -4.63785 0
M  V30 5858 N 552.809 0.956637 -1.25245 0
M  V30 5859 C 553.741 2.05628 -1.01242 0
M  V30 5860 C 554.754 1.62785 0.0219579 0
M  V30 5861 O 555.943 1.77184 -0.216365 0
M  V30 5862 C 553.043 3.35069 -0.508161 0
M  V30 5863 C 552.216 4.06761 -1.60823 0
M  V30 5864 C 551.275 5.14473 -1.1047 0
M  V30 5865 O 550.301 5.40033 -1.79868 0
M  V30 5866 N 551.503 5.80474 0.0550773 0
M  V30 5867 H 554.268 2.2679 -1.95925 0
M  V30 5868 H 551.829 1.12505 -1.16423 0
M  V30 5869 H 553.821 4.044 -0.155819 0
M  V30 5870 H 552.391 3.10694 0.344683 0
M  V30 5871 H 551.611 3.31555 -2.13224 0
M  V30 5872 H 552.899 4.51418 -2.34733 0
M  V30 5873 H 552.297 5.62125 0.635004 0
M  V30 5874 H 550.854 6.50868 0.348469 0
M  V30 5875 N 554.287 1.06798 1.15896 0
M  V30 5876 C 555.533 0.788934 1.86825 0
M  V30 5877 C 555.866 -0.683084 1.8179 0
M  V30 5878 O 555.141 -1.50086 1.23711 0
M  V30 5879 C 555.424 1.29065 3.36176 0
M  V30 5880 C 555.277 2.8268 3.49874 0
M  V30 5881 C 556.596 0.902655 4.30744 0
M  V30 5882 H 553.715 0.288066 0.678371 0
M  V30 5883 H 556.357 1.32479 1.36195 0
M  V30 5884 H 554.507 0.834806 3.79425 0
M  V30 5885 H 556.179 3.36511 3.15528 0
M  V30 5886 H 554.422 3.21157 2.91617 0
M  V30 5887 H 555.093 3.12852 4.54783 0
M  V30 5888 H 557.569 1.29535 3.95424 0
M  V30 5889 H 556.445 1.28111 5.3374 0
M  V30 5890 H 556.706 -0.191951 4.41683 0
M  V30 5891 N 555.766 -1.3263 0.851289 0
M  V30 5892 C 557.006 -1.99174 0.459266 0
M  V30 5893 C 557.37 -1.65913 -0.966273 0
M  V30 5894 O 558.571 -2.2552 -1.46267 0
M  V30 5895 C 556.842 -3.50721 0.687698 0
M  V30 5896 S 558.401 -4.37039 0.392746 0
M  V30 5897 H 555.219 -0.689832 0.172199 0
M  V30 5898 H 557.821 -1.61395 1.10327 0
M  V30 5899 H 556.525 -3.72417 1.72435 0
M  V30 5900 H 556.056 -3.93389 0.0299949 0
M  V30 5901 H 558.071 -4.8999 -0.782578 0
M  V30 5902 N 557.244 -0.608902 -1.45362 0
M  V30 5903 C 558.154 0.110969 -2.34337 0
M  V30 5904 C 559.17 0.859007 -1.51318 0
M  V30 5905 O 560.346 0.816296 -1.84116 0
M  V30 5906 C 557.411 1.09494 -3.28956 0
M  V30 5907 C 556.472 0.348718 -4.27881 0
M  V30 5908 C 555.705 1.28582 -5.17979 0
M  V30 5909 O 555.928 2.52369 -5.11533 0
M  V30 5910 O 554.862 0.782172 -5.96796 0
M  V30 5911 H 558.688 -0.620258 -2.97299 0
M  V30 5912 H 556.273 -0.36916 -1.44767 0
M  V30 5913 H 558.155 1.66163 -3.87257 0
M  V30 5914 H 556.83 1.80717 -2.68557 0
M  V30 5915 H 555.737 -0.260465 -3.73192 0
M  V30 5916 H 557.07 -0.323049 -4.91139 0
M  V30 5917 N 558.722 1.53707 -0.348139 0
M  V30 5918 C 559.685 2.23812 0.494058 0
M  V30 5919 C 560.685 1.23989 1.02388 0
M  V30 5920 O 561.875 1.48395 0.912396 0
M  V30 5921 C 559.007 2.96133 1.68872 0
M  V30 5922 H 560.2 2.99663 -0.119141 0
M  V30 5923 H 557.753 1.55983 -0.0995539 0
M  V30 5924 H 558.488 2.24481 2.34049 0
M  V30 5925 H 558.273 3.69357 1.31596 0
M  V30 5926 H 559.763 3.49475 2.28597 0
M  V30 5927 N 560.2 0.0768682 1.57412 0
M  V30 5928 C 561.446 -0.591961 1.93968 0
M  V30 5929 C 561.779 -1.68954 0.9575 0
M  V30 5930 O 561.054 -1.94496 -0.0124675 0
M  V30 5931 C 561.337 -1.16418 3.40762 0
M  V30 5932 C 561.19 -0.0728933 4.49741 0
M  V30 5933 C 562.509 -2.06814 3.88479 0
M  V30 5934 H 559.628 -0.213716 0.705333 0
M  V30 5935 H 562.27 0.14387 1.89455 0
M  V30 5936 H 560.42 -1.79128 3.4474 0
M  V30 5937 H 562.092 0.560446 4.57883 0
M  V30 5938 H 560.335 0.595859 4.29688 0
M  V30 5939 H 561.006 -0.513755 5.49604 0
M  V30 5940 H 563.482 -1.54033 3.8654 0
M  V30 5941 H 562.358 -2.43785 4.91793 0
M  V30 5942 H 562.619 -2.97844 3.26713 0
M  V30 5943 N 561.678 -1.56367 -0.196722 0
M  V30 5944 C 563.094 -1.49916 -0.54749 0
M  V30 5945 C 563.294 -0.77659 -1.85934 0
M  V30 5946 O 562.35 -0.32644 -2.50381 0
M  V30 5947 C 563.663 -2.94577 -0.603734 0
M  V30 5948 C 565.211 -3.05239 -0.692677 0
M  V30 5949 C 565.686 -4.51308 -0.780046 0
M  V30 5950 N 567.177 -4.55453 -0.843616 0
M  V30 5951 C 567.912 -5.65786 -0.931358 0
M  V30 5952 N 567.408 -6.85812 -0.981503 0
M  V30 5953 N 569.201 -5.53695 -0.968421 0
M  V30 5954 H 561.352 -2.01761 0.663803 0
M  V30 5955 H 563.615 -0.918094 0.236238 0
M  V30 5956 H 563.321 -3.50494 0.29105 0
M  V30 5957 H 563.195 -3.47841 -1.45898 0
M  V30 5958 H 565.582 -2.49372 -1.57789 0
M  V30 5959 H 565.663 -2.55103 0.188736 0
M  V30 5960 H 565.307 -5.078 0.100811 0
M  V30 5961 H 565.237 -4.99176 -1.67724 0
M  V30 5962 H 567.728 -3.69025 -0.814176 0
M  V30 5963 H 568.041 -7.65648 -1.04892 0
M  V30 5964 H 566.386 -6.88474 -0.950208 0
M  V30 5965 H 569.577 -4.58848 -0.926072 0
M  V30 5966 H 569.75 -6.39708 -1.03334 0
M  V30 5967 N 563.156 0.464375 -1.50603 0
M  V30 5968 C 564.381 1.24372 -1.65971 0
M  V30 5969 C 564.806 1.84901 -0.345453 0
M  V30 5970 O 564.164 1.67596 0.691457 0
M  V30 5971 C 564.212 2.32331 -2.7578 0
M  V30 5972 O 563.316 3.37146 -2.375 0
M  V30 5973 H 562.657 0.365604 -0.554283 0
M  V30 5974 H 565.187 0.55183 -1.97018 0
M  V30 5975 H 565.197 2.77539 -2.99059 0
M  V30 5976 H 563.872 1.87648 -3.71162 0
M  V30 5977 H 562.449 2.97602 -2.24694 0
M  V30 5978 N 564.634 1.40294 0.718013 0
M  V30 5979 C 565.882 1.38167 1.47494 0
M  V30 5980 C 566.203 -0.01607 1.94993 0
M  V30 5981 O 565.473 -0.970396 1.70177 0
M  V30 5982 H 564.053 0.508505 0.547203 0
M  V30 5983 H 566.715 1.75324 0.851322 0
M  V30 5984 H 565.811 2.05503 2.34894 0
M  V30 5985 N 566.112 -0.949982 1.2575 0
M  V30 5986 C 567.06 -2.06869 1.06339 0
M  V30 5987 C 568.054 -1.69399 -0.00708901 0
M  V30 5988 O 569.26 -1.79383 0.148897 0
M  V30 5989 H 565.635 -0.677197 0.326969 0
M  V30 5990 H 567.606 -2.20396 2.01167 0
M  V30 5991 C 566.355 -3.40503 0.703769 0
M  V30 5992 H 565.678 -3.69807 1.51931 0
M  V30 5993 H 567.118 -4.19623 0.607677 0
M  V30 5994 C 565.577 -3.31685 -0.5905 0
M  V30 5995 O 566.107 -3.67085 -1.63131 0
M  V30 5996 N 564.313 -2.84797 -0.577859 0
M  V30 5997 H 563.86 -2.56186 0.26951 0
M  V30 5998 H 563.818 -2.79279 -1.44398 0
M  V30 5999 N 567.59 -1.07411 -1.15328 0
M  V30 6000 C 568.5 -0.706438 -2.23711 0
M  V30 6001 C 569.516 0.282586 -1.7169 0
M  V30 6002 O 570.692 0.129066 -2.00986 0
M  V30 6003 C 567.757 -0.11048 -3.46524 0
M  V30 6004 C 566.818 -1.15282 -4.13532 0
M  V30 6005 C 566.051 -0.585205 -5.30482 0
M  V30 6006 O 566.274 0.598549 -5.67251 0
M  V30 6007 O 565.208 -1.33039 -5.87013 0
M  V30 6008 H 569.034 -1.61031 -2.57493 0
M  V30 6009 H 566.619 -0.847113 -1.23062 0
M  V30 6010 H 568.501 0.21957 -4.20828 0
M  V30 6011 H 567.176 0.766703 -3.14489 0
M  V30 6012 H 566.083 -1.53523 -3.41147 0
M  V30 6013 H 567.416 -2.00192 -4.49649 0
M  V30 6014 N 569.068 1.32177 -0.85831 0
M  V30 6015 C 569.978 2.32561 -0.308606 0
M  V30 6016 C 570.994 1.64209 0.575462 0
M  V30 6017 O 572.17 1.95719 0.474961 0
M  V30 6018 C 569.235 3.43207 0.490909 0
M  V30 6019 C 568.296 4.27243 -0.419733 0
M  V30 6020 C 567.529 5.32605 0.341719 0
M  V30 6021 O 567.752 5.48332 1.57125 0
M  V30 6022 O 566.686 6.0118 -0.294379 0
M  V30 6023 H 570.512 2.81477 -1.14037 0
M  V30 6024 H 568.097 1.35866 -0.621349 0
M  V30 6025 H 569.979 4.10677 0.944574 0
M  V30 6026 H 568.654 2.96474 1.29941 0
M  V30 6027 H 567.561 3.62569 -0.921652 0
M  V30 6028 H 568.894 4.7751 -1.19352 0
M  V30 6029 N 570.547 0.616602 1.45037 0
M  V30 6030 C 571.793 0.115501 2.02471 0
M  V30 6031 C 572.126 -1.25406 1.4828 0
M  V30 6032 O 571.401 -1.82922 0.661051 0
M  V30 6033 C 571.684 0.0863588 3.59996 0
M  V30 6034 C 571.537 1.48723 4.24501 0
M  V30 6035 C 572.856 -0.596762 4.36035 0
M  V30 6036 H 569.975 0.0434461 0.735718 0
M  V30 6037 H 572.617 0.7903 1.72784 0
M  V30 6038 H 570.767 -0.488277 3.85419 0
M  V30 6039 H 572.439 2.10964 4.10234 0
M  V30 6040 H 570.682 2.04534 3.82555 0
M  V30 6041 H 571.353 1.419 5.3345 0
M  V30 6042 H 573.829 -0.10824 4.15959 0
M  V30 6043 H 572.705 -0.586289 5.4576 0
M  V30 6044 H 572.966 -1.66451 4.09569 0
M  V30 6045 N 572.025 -1.5352 0.356285 0
M  V30 6046 C 572.955 -2.28372 -0.486661 0
M  V30 6047 C 573.936 -1.30432 -1.09185 0
M  V30 6048 O 575.121 -1.59291 -1.11085 0
M  V30 6049 C 572.251 -3.06604 -1.63129 0
M  V30 6050 C 571.205 -4.12154 -1.15381 0
M  V30 6051 C 570.531 -4.78415 -2.38796 0
M  V30 6052 C 571.831 -5.21724 -0.245179 0
M  V30 6053 H 573.525 -2.99083 0.137797 0
M  V30 6054 H 571.071 -1.43841 0.0677134 0
M  V30 6055 H 573.024 -3.57712 -2.22755 0
M  V30 6056 H 571.748 -2.33568 -2.28284 0
M  V30 6057 H 570.407 -3.61978 -0.580294 0
M  V30 6058 H 570.055 -4.01959 -3.02387 0
M  V30 6059 H 569.755 -5.49734 -2.07524 0
M  V30 6060 H 571.279 -5.32313 -2.99125 0
M  V30 6061 H 572.693 -5.68391 -0.748646 0
M  V30 6062 H 571.09 -6.00095 -0.0237608 0
M  V30 6063 H 572.16 -4.79596 0.715229 0
M  V30 6064 N 573.503 -0.0852151 -1.57369 0
M  V30 6065 C 574.466 0.8627 -2.12344 0
M  V30 6066 C 575.466 1.21746 -1.05046 0
M  V30 6067 O 576.656 1.14852 -1.30976 0
M  V30 6068 C 573.788 2.1618 -2.63589 0
M  V30 6069 H 574.981 0.385511 -2.97412 0
M  V30 6070 H 572.534 0.163663 -1.55441 0
M  V30 6071 H 573.269 2.68406 -1.82013 0
M  V30 6072 H 573.054 1.91723 -3.4203 0
M  V30 6073 H 574.544 2.84011 -3.06149 0
M  V30 6074 N 574.981 1.5647 0.188427 0
M  V30 6075 C 576.258 1.71857 0.934058 0
M  V30 6076 C 576.638 0.641867 2.01105 0
M  V30 6077 O 575.986 -0.346098 2.25864 0
M  V30 6078 C 576.196 3.14431 1.5144 0
M  V30 6079 C 577.544 3.74869 1.99396 0
M  V30 6080 O 578.568 3.17601 1.61269 0
M  V30 6081 O 577.427 4.75387 2.69573 0
M  V30 6082 H 574.521 0.701186 0.438483 0
M  V30 6083 H 577.067 1.68768 0.177599 0
M  V30 6084 H 575.839 3.8427 0.738416 0
M  V30 6085 H 575.462 3.21775 2.33552 0
M  V30 6086 N 576.459 -0.456382 1.50847 0
M  V30 6087 C 577.705 -1.20914 1.62811 0
M  V30 6088 C 578.038 -1.91301 0.334304 0
M  V30 6089 O 577.313 -1.82775 -0.665098 0
M  V30 6090 C 577.596 -2.24122 2.81853 0
M  V30 6091 C 577.449 -1.57944 4.21158 0
M  V30 6092 C 578.768 -3.25295 2.96431 0
M  V30 6093 H 575.887 -0.438233 0.592554 0
M  V30 6094 H 578.529 -0.50091 1.83278 0
M  V30 6095 H 576.679 -2.84524 2.64534 0
M  V30 6096 H 578.351 -1.01025 4.50102 0
M  V30 6097 H 576.594 -0.882185 4.24735 0
M  V30 6098 H 577.265 -2.33014 5.00408 0
M  V30 6099 H 579.741 -2.7493 3.12335 0
M  V30 6100 H 578.617 -3.94822 3.81322 0
M  V30 6101 H 578.878 -3.90286 2.07676 0
M  V30 6102 N 577.937 -1.40673 -0.710563 0
M  V30 6103 C 579.353 -1.22813 -1.01928 0
M  V30 6104 C 579.553 -0.10687 -2.01216 0
M  V30 6105 O 578.609 0.533614 -2.46797 0
M  V30 6106 C 579.922 -2.57178 -1.5582 0
M  V30 6107 C 581.47 -2.64233 -1.67779 0
M  V30 6108 C 581.945 -3.98879 -2.25076 0
M  V30 6109 N 583.436 -4.00647 -2.32456 0
M  V30 6110 C 584.171 -5.01621 -2.77784 0
M  V30 6111 N 583.667 -6.12989 -3.22826 0
M  V30 6112 N 585.46 -4.88988 -2.77213 0
M  V30 6113 H 577.611 -2.12335 -0.05253 0
M  V30 6114 H 579.874 -0.9441 -0.085898 0
M  V30 6115 H 579.58 -3.39903 -0.903249 0
M  V30 6116 H 579.454 -2.78618 -2.54267 0
M  V30 6117 H 581.841 -1.81876 -2.3239 0
M  V30 6118 H 581.922 -2.46619 -0.679178 0
M  V30 6119 H 581.566 -4.81678 -1.61086 0
M  V30 6120 H 581.496 -4.13826 -3.25661 0
M  V30 6121 H 583.987 -3.20231 -2.0065 0
M  V30 6122 H 584.3 -6.85921 -3.55995 0
M  V30 6123 H 582.645 -6.16547 -3.20773 0
M  V30 6124 H 585.836 -4.01075 -2.41363 0
M  V30 6125 H 586.009 -5.67822 -3.12221 0
M  V30 6126 N 579.415 0.9433 -1.26252 0
M  V30 6127 C 580.643 1.72367 -1.14443 0
M  V30 6128 C 581.058 1.86392 0.300572 0
M  V30 6129 O 580.415 1.36978 1.20596 0
M  V30 6130 C 580.466 3.13155 -1.806 0
M  V30 6131 O 580.187 2.99803 -3.19452 0
M  V30 6132 C 581.688 4.07417 -1.74717 0
M  V30 6133 H 578.908 0.539758 -0.398626 0
M  V30 6134 H 581.452 1.18268 -1.66832 0
M  V30 6135 H 579.607 3.64162 -1.32154 0
M  V30 6136 H 580.021 3.88697 -3.52158 0
M  V30 6137 H 581.495 5.03773 -2.25647 0
M  V30 6138 H 581.972 4.3337 -0.713244 0
M  V30 6139 H 582.578 3.6233 -2.22704 0
M  V30 6140 N 580.893 1.08022 1.14757 0
M  V30 6141 C 582.142 0.802468 1.8505 0
M  V30 6142 C 582.455 -0.674061 1.83619 0
M  V30 6143 O 583.661 -1.06683 2.49662 0
M  V30 6144 C 582.117 1.38551 3.32162 0
M  V30 6145 C 581.725 2.89354 3.42021 0
M  V30 6146 C 583.469 1.18608 4.07594 0
M  V30 6147 C 581.376 3.40815 4.83321 0
M  V30 6148 H 580.306 0.296518 0.693248 0
M  V30 6149 H 582.957 1.30114 1.29393 0
M  V30 6150 H 581.339 0.814556 3.87532 0
M  V30 6151 H 582.513 3.52552 2.96722 0
M  V30 6152 H 580.828 3.08165 2.80041 0
M  V30 6153 H 583.425 1.54525 5.11885 0
M  V30 6154 H 583.768 0.125599 4.1611 0
M  V30 6155 H 584.301 1.72375 3.58513 0
M  V30 6156 H 581.04 4.46418 4.79991 0
M  V30 6157 H 580.56 2.82374 5.29174 0
M  V30 6158 H 582.239 3.37171 5.522 0
M  V30 6159 N 582.371 -1.3172 0.865308 0
M  V30 6160 C 583.617 -1.97168 0.474633 0
M  V30 6161 C 583.95 -1.68263 -0.969604 0
M  V30 6162 O 583.225 -0.976588 -1.68205 0
M  V30 6163 C 583.508 -3.52689 0.726808 0
M  V30 6164 C 583.361 -3.91185 2.22024 0
M  V30 6165 C 584.68 -4.39689 0.190201 0
M  V30 6166 H 581.799 -0.716185 0.17392 0
M  V30 6167 H 584.441 -1.55925 1.08569 0
M  V30 6168 H 582.591 -3.8795 0.206705 0
M  V30 6169 H 584.263 -3.66049 2.80724 0
M  V30 6170 H 582.506 -3.3996 2.69462 0
M  V30 6171 H 583.177 -4.99604 2.34735 0
M  V30 6172 H 585.653 -4.11225 0.635103 0
M  V30 6173 H 584.529 -5.47469 0.396132 0
M  V30 6174 H 584.79 -4.32683 -0.907625 0
M  V30 6175 N 583.85 -0.624285 -1.44708 0
M  V30 6176 C 584.798 0.0969952 -2.32398 0
M  V30 6177 C 585.792 0.842762 -1.46949 0
M  V30 6178 O 586.998 0.756436 -1.63334 0
M  V30 6179 H 583.373 0.0501306 -0.750327 0
M  V30 6180 H 585.344 -0.660767 -2.90992 0
M  V30 6181 C 584.093 1.06967 -3.30837 0
M  V30 6182 H 583.416 0.505242 -3.96595 0
M  V30 6183 H 584.856 1.54397 -3.94889 0
M  V30 6184 C 583.315 2.15153 -2.5925 0
M  V30 6185 O 583.845 3.23139 -2.3863 0
M  V30 6186 N 582.051 1.90898 -2.19103 0
M  V30 6187 H 581.598 1.03086 -2.36074 0
M  V30 6188 H 581.556 2.63485 -1.71531 0
M  V30 6189 N 585.328 1.53329 -0.364422 0
M  V30 6190 C 586.26 2.23286 0.517293 0
M  V30 6191 C 587.273 1.24657 1.04711 0
M  V30 6192 O 588.462 1.50887 0.95369 0
M  V30 6193 C 585.562 2.91604 1.72685 0
M  V30 6194 C 584.735 4.1673 1.32873 0
M  V30 6195 C 583.794 4.68269 2.40022 0
M  V30 6196 O 582.82 5.31976 2.02461 0
M  V30 6197 N 584.022 4.45983 3.7159 0
M  V30 6198 H 586.787 2.99588 -0.0819391 0
M  V30 6199 H 584.348 1.60787 -0.189544 0
M  V30 6200 H 586.34 3.22992 2.4384 0
M  V30 6201 H 584.91 2.18763 2.23297 0
M  V30 6202 H 584.13 3.91657 0.447069 0
M  V30 6203 H 585.418 4.98078 1.03902 0
M  V30 6204 H 584.816 3.95077 4.04883 0
M  V30 6205 H 583.373 4.81924 4.38854 0
M  V30 6206 N 586.806 0.0935595 1.57322 0
M  V30 6207 C 588.055 -0.570191 1.93473 0
M  V30 6208 C 588.368 -1.69434 0.977318 0
M  V30 6209 O 589.574 -2.41914 1.23248 0
M  V30 6210 C 588.03 -1.06564 3.43762 0
M  V30 6211 C 587.638 0.0286723 4.47991 0
M  V30 6212 C 589.382 -1.70221 3.88877 0
M  V30 6213 C 587.289 -0.482046 5.89432 0
M  V30 6214 H 586.219 -0.216764 0.72217 0
M  V30 6215 H 588.87 0.169313 1.82717 0
M  V30 6216 H 587.252 -1.85878 3.49664 0
M  V30 6217 H 588.426 0.804106 4.5373 0
M  V30 6218 H 586.741 0.570336 4.12476 0
M  V30 6219 H 589.338 -2.09502 4.91948 0
M  V30 6220 H 589.681 -2.57078 3.27439 0
M  V30 6221 H 590.214 -0.974919 3.85668 0
M  V30 6222 H 586.953 0.349871 6.54566 0
M  V30 6223 H 586.473 -1.22452 5.87167 0
M  V30 6224 H 588.152 -0.951508 6.39965 0
M  V30 6225 N 588.284 -1.56567 -0.180126 0
M  V30 6226 C 589.509 -1.85975 -0.918041 0
M  V30 6227 C 589.934 -0.678888 -1.75422 0
M  V30 6228 O 589.292 0.372168 -1.77439 0
M  V30 6229 C 589.34 -3.13731 -1.77779 0
M  V30 6230 O 588.444 -2.95335 -2.87838 0
M  V30 6231 H 587.785 -0.61196 -0.257683 0
M  V30 6232 H 590.315 -2.03798 -0.180923 0
M  V30 6233 H 590.325 -3.4491 -2.17948 0
M  V30 6234 H 589 -3.99293 -1.16352 0
M  V30 6235 H 587.577 -2.7549 -2.51316 0
M  V30 6236 N 589.762 0.448376 -1.51087 0
M  V30 6237 C 590.992 1.21965 -1.66757 0
M  V30 6238 C 591.4 1.85748 -0.359753 0
M  V30 6239 O 590.743 1.71022 0.670604 0
M  V30 6240 C 590.805 2.35284 -2.71812 0
M  V30 6241 C 590.469 1.91957 -4.1473 0
M  V30 6242 C 591.466 1.42921 -4.9987 0
M  V30 6243 C 589.151 1.99985 -4.60772 0
M  V30 6244 C 591.145 1.02485 -6.29107 0
M  V30 6245 C 588.832 1.5916 -5.90009 0
M  V30 6246 C 589.83 1.10491 -6.74004 0
M  V30 6247 O 589.518 0.702413 -8.00825 0
M  V30 6248 H 589.25 0.374125 -0.563034 0
M  V30 6249 H 591.804 0.538927 -1.98204 0
M  V30 6250 H 590.034 3.06599 -2.35657 0
M  V30 6251 H 591.723 2.97184 -2.76472 0
M  V30 6252 H 592.489 1.36123 -4.65506 0
M  V30 6253 H 588.368 2.36814 -3.95525 0
M  V30 6254 H 591.912 0.644271 -6.94619 0
M  V30 6255 H 587.809 1.65626 -6.2389 0
M  V30 6256 H 588.577 0.829248 -8.14288 0
M  V30 6257 N 591.24 1.41047 0.703093 0
M  V30 6258 C 592.468 1.4334 1.49202 0
M  V30 6259 C 592.883 0.0365596 1.88765 0
M  V30 6260 O 592.24 -0.942419 1.56284 0
M  V30 6261 C 592.291 2.33538 2.75939 0
M  V30 6262 O 592.012 3.67786 2.38045 0
M  V30 6263 C 593.513 2.44555 3.6974 0
M  V30 6264 H 590.733 0.488472 0.460039 0
M  V30 6265 H 593.277 1.85245 0.86629 0
M  V30 6266 H 591.432 1.94962 3.34766 0
M  V30 6267 H 591.846 4.15816 3.19683 0
M  V30 6268 H 593.32 3.11849 4.55471 0
M  V30 6269 H 593.797 1.47447 4.1371 0
M  V30 6270 H 594.403 2.83735 3.16819 0
M  V30 6271 N 592.718 -0.936591 1.26751 0
M  V30 6272 C 594.129 -1.49816 1.1141 0
M  V30 6273 C 594.48 -1.9383 -0.304015 0
M  V30 6274 O 593.605 -1.80346 -1.196 0
M  V30 6275 C 594.2 -2.72271 2.01629 0
M  V30 6276 C 592.759 -3.2468 1.9042 0
M  V30 6277 C 591.906 -1.97444 1.94708 0
M  V30 6278 H 594.857 -0.751604 1.39773 0
M  V30 6279 H 594.878 -3.46741 1.56688 0
M  V30 6280 H 594.39 -2.40205 3.04833 0
M  V30 6281 H 592.491 -3.61525 0.901674 0
M  V30 6282 H 592.604 -3.91476 2.76195 0
M  V30 6283 H 590.968 -2.13545 1.38818 0
M  V30 6284 H 591.751 -1.67703 2.9955 0
M  V30 6285 N 594.196 -1.08629 -1.14182 0
M  V30 6286 C 595.128 -0.676189 -2.18998 0
M  V30 6287 C 596.141 0.277871 -1.60411 0
M  V30 6288 O 597.33 0.0651771 -1.78381 0
M  V30 6289 C 594.43 0.0254916 -3.3889 0
M  V30 6290 C 593.603 -0.948039 -4.27002 0
M  V30 6291 C 592.662 -0.281268 -5.25448 0
M  V30 6292 O 591.688 -0.926378 -5.61611 0
M  V30 6293 N 592.89 0.967923 -5.72374 0
M  V30 6294 H 595.655 -1.57792 -2.54798 0
M  V30 6295 H 593.216 -0.972665 -1.29425 0
M  V30 6296 H 595.208 0.482554 -4.01813 0
M  V30 6297 H 593.778 0.829348 -3.01398 0
M  V30 6298 H 592.998 -1.58388 -3.6098 0
M  V30 6299 H 594.286 -1.60765 -4.82734 0
M  V30 6300 H 593.684 1.51175 -5.45126 0
M  V30 6301 H 592.241 1.36844 -6.37273 0
M  V30 6302 N 595.674 1.31259 -0.872281 0
M  V30 6303 C 596.951 1.91362 -0.404943 0
M  V30 6304 C 597.331 1.79362 1.11321 0
M  V30 6305 O 596.679 1.20277 1.94283 0
M  V30 6306 C 596.889 3.3749 -0.888893 0
M  V30 6307 C 598.237 4.14593 -0.916384 0
M  V30 6308 O 599.261 3.46282 -0.834701 0
M  V30 6309 O 598.12 5.3661 -1.03498 0
M  V30 6310 H 595.214 0.818016 -0.121569 0
M  V30 6311 H 597.76 1.39912 -0.960346 0
M  V30 6312 H 596.532 3.40249 -1.93251 0
M  V30 6313 H 596.155 3.96375 -0.311932 0
M  V30 6314 N 597.152 0.631951 1.44375 0
M  V30 6315 C 598.563 0.219036 1.85411 0
M  V30 6316 C 598.914 -1.22974 1.52879 0
M  V30 6317 O 598.039 -1.93579 0.967266 0
M  V30 6318 C 598.634 0.39075 3.36539 0
M  V30 6319 C 597.193 0.0323351 3.76386 0
M  V30 6320 C 596.34 0.703744 2.68221 0
M  V30 6321 H 599.291 0.837056 1.3483 0
M  V30 6322 H 599.312 -0.370056 3.78696 0
M  V30 6323 H 598.824 1.44527 3.60185 0
M  V30 6324 H 596.925 -1.02042 3.58355 0
M  V30 6325 H 597.038 0.442969 4.77048 0
M  V30 6326 H 595.402 0.138974 2.54321 0
M  V30 6327 H 596.185 1.76088 2.947 0
M  V30 6328 N 598.631 -1.53133 0.372548 0
M  V30 6329 C 600.047 -1.59585 0.02178 0
M  V30 6330 C 600.247 -1.38736 -1.46132 0
M  V30 6331 O 599.303 -1.19599 -2.22379 0
M  V30 6332 C 600.616 -2.9678 0.483959 0
M  V30 6333 C 602.164 -3.09909 0.438775 0
M  V30 6334 C 602.639 -4.49527 0.876876 0
M  V30 6335 N 604.13 -4.55663 0.832214 0
M  V30 6336 C 604.865 -5.61896 1.14281 0
M  V30 6337 N 604.361 -6.75852 1.52303 0
M  V30 6338 N 606.154 -5.51916 1.06515 0
M  V30 6339 H 598.305 -1.64936 1.33827 0
M  V30 6340 H 600.568 -0.773947 0.547458 0
M  V30 6341 H 600.274 -3.17198 1.51915 0
M  V30 6342 H 600.148 -3.7699 -0.125784 0
M  V30 6343 H 602.535 -2.89197 -0.587294 0
M  V30 6344 H 602.616 -2.31691 1.0841 0
M  V30 6345 H 602.26 -4.70979 1.90109 0
M  V30 6346 H 602.19 -5.26186 0.208727 0
M  V30 6347 H 604.681 -3.73844 0.552195 0
M  V30 6348 H 604.994 -7.52862 1.7441 0
M  V30 6349 H 603.339 -6.77226 1.56175 0
M  V30 6350 H 606.53 -4.6177 0.767235 0
M  V30 6351 H 606.703 -6.34609 1.31053 0
M  V30 6352 N 600.109 -0.101901 -1.5727 0
M  V30 6353 C 601.386 0.602832 -1.86079 0
M  V30 6354 C 601.766 1.85912 -1 0
M  V30 6355 O 601.114 2.28379 -0.0742488 0
M  V30 6356 C 601.324 0.911694 -3.36881 0
M  V30 6357 C 602.672 1.2722 -4.05093 0
M  V30 6358 O 603.696 1.0025 -3.41802 0
M  V30 6359 O 602.555 1.7776 -5.16782 0
M  V30 6360 H 599.649 0.302366 -0.769743 0
M  V30 6361 H 602.195 -0.135113 -1.69161 0
M  V30 6362 H 600.967 0.0207256 -3.91295 0
M  V30 6363 H 600.59 1.70538 -3.59169 0
M  V30 6364 N 601.587 1.56661 0.17182 0
M  V30 6365 C 602.517 1.99401 1.21498 0
M  V30 6366 C 603.498 0.869516 1.46197 0
M  V30 6367 O 604.683 1.13556 1.57539 0
M  V30 6368 C 601.813 2.35346 2.55401 0
M  V30 6369 C 600.767 3.5075 2.45272 0
M  V30 6370 C 600.093 3.72437 3.8366 0
M  V30 6371 C 601.393 4.84216 1.95787 0
M  V30 6372 H 603.087 2.86792 0.859699 0
M  V30 6373 H 600.633 1.37977 0.412103 0
M  V30 6374 H 602.586 2.63843 3.2858 0
M  V30 6375 H 601.31 1.44864 2.92715 0
M  V30 6376 H 599.969 3.2238 1.74547 0
M  V30 6377 H 599.617 2.79246 4.18367 0
M  V30 6378 H 599.317 4.50087 3.77751 0
M  V30 6379 H 600.841 4.03334 4.58426 0
M  V30 6380 H 602.255 5.11592 2.5874 0
M  V30 6381 H 600.652 5.65498 2.00827 0
M  V30 6382 H 601.722 4.76243 0.912159 0
M  V30 6383 N 603.065 -0.440357 1.51323 0
M  V30 6384 C 604.305 -1.19956 1.65499 0
M  V30 6385 C 604.669 -1.88559 0.361878 0
M  V30 6386 O 605.87 -2.66109 0.379383 0
M  V30 6387 C 604.141 -2.1918 2.82303 0
M  V30 6388 S 605.7 -3.03627 3.1679 0
M  V30 6389 H 602.518 -0.406833 0.583102 0
M  V30 6390 H 605.12 -0.491596 1.89218 0
M  V30 6391 H 603.824 -1.67414 3.74701 0
M  V30 6392 H 603.355 -2.94561 2.60763 0
M  V30 6393 H 605.37 -4.20773 2.62991 0
M  V30 6394 N 604.543 -1.41418 -0.695603 0
M  V30 6395 C 605.791 -1.40496 -1.45277 0
M  V30 6396 C 606.112 -0.0149538 -1.94994 0
M  V30 6397 O 605.382 0.9432 -1.71699 0
M  V30 6398 H 603.962 -0.517147 -0.539044 0
M  V30 6399 H 606.624 -1.76656 -0.823321 0
M  V30 6400 H 605.72 -2.09214 -2.31595 0
M  V30 6401 N 606.021 0.929856 -1.27246 0
M  V30 6402 C 607.437 1.20542 -1.04603 0
M  V30 6403 C 607.637 2.00276 0.221754 0
M  V30 6404 O 606.693 2.34835 0.927833 0
M  V30 6405 C 608.006 1.95566 -2.28417 0
M  V30 6406 C 609.554 2.08513 -2.33433 0
M  V30 6407 C 610.029 2.86943 -3.5697 0
M  V30 6408 N 611.52 2.94512 -3.57515 0
M  V30 6409 C 612.255 3.55656 -4.49774 0
M  V30 6410 N 611.751 4.18209 -5.52334 0
M  V30 6411 N 613.544 3.53038 -4.37402 0
M  V30 6412 H 605.695 0.397113 -2.08655 0
M  V30 6413 H 607.958 0.238277 -0.917566 0
M  V30 6414 H 607.664 1.44395 -3.20691 0
M  V30 6415 H 607.538 2.9619 -2.33563 0
M  V30 6416 H 609.925 2.58872 -1.41666 0
M  V30 6417 H 610.006 1.07117 -2.32292 0
M  V30 6418 H 609.65 2.37268 -4.49072 0
M  V30 6419 H 609.58 3.8862 -3.55362 0
M  V30 6420 H 612.071 2.50053 -2.83341 0
M  V30 6421 H 612.384 4.62796 -6.18902 0
M  V30 6422 H 610.729 4.16761 -5.56179 0
M  V30 6423 H 613.92 3.0337 -3.56489 0
M  V30 6424 H 614.093 4.004 -5.09493 0
M  V30 6425 N 607.499 1.09233 1.13605 0
M  V30 6426 C 608.748 0.82205 1.84188 0
M  V30 6427 C 609.061 -0.654548 1.84323 0
M  V30 6428 O 610.267 -1.04029 2.50779 0
M  V30 6429 C 608.723 1.42066 3.30674 0
M  V30 6430 C 608.331 2.92965 3.38933 0
M  V30 6431 C 610.075 1.22924 4.06313 0
M  V30 6432 C 607.982 3.45922 4.79679 0
M  V30 6433 H 606.912 0.303854 0.690064 0
M  V30 6434 H 609.563 1.31479 1.28006 0
M  V30 6435 H 607.945 0.855613 3.86646 0
M  V30 6436 H 609.119 3.55679 2.92966 0
M  V30 6437 H 607.434 3.11118 2.76757 0
M  V30 6438 H 610.031 1.59945 5.10217 0
M  V30 6439 H 610.374 0.169726 4.15954 0
M  V30 6440 H 610.907 1.76168 3.56665 0
M  V30 6441 H 607.646 4.51484 4.75229 0
M  V30 6442 H 607.166 2.87971 5.26149 0
M  V30 6443 H 608.845 3.43009 5.48592 0
M  V30 6444 N 608.977 -1.30795 0.87923 0
M  V30 6445 C 609.907 -2.30742 0.357796 0
M  V30 6446 C 610.888 -1.60747 -0.556283 0
M  V30 6447 O 612.073 -1.88393 -0.47135 0
M  V30 6448 C 609.203 -3.44583 -0.433555 0
M  V30 6449 C 608.157 -4.26235 0.388251 0
M  V30 6450 C 607.483 -5.32073 -0.529352 0
M  V30 6451 C 608.783 -4.96303 1.62729 0
M  V30 6452 H 610.477 -2.74605 1.19299 0
M  V30 6453 H 608.023 -1.32017 0.575104 0
M  V30 6454 H 609.976 -4.13563 -0.808934 0
M  V30 6455 H 608.7 -2.99511 -1.30234 0
M  V30 6456 H 607.359 -3.58936 0.745695 0
M  V30 6457 H 607.007 -4.83249 -1.39569 0
M  V30 6458 H 606.707 -5.87598 0.0166741 0
M  V30 6459 H 608.231 -6.0391 -0.901373 0
M  V30 6460 H 609.645 -5.5783 1.32283 0
M  V30 6461 H 608.042 -5.61666 2.11309 0
M  V30 6462 H 609.112 -4.22758 2.37494 0
M  V30 6463 N 610.455 -0.639598 -1.44038 0
M  V30 6464 C 611.683 -0.154811 -2.0632 0
M  V30 6465 C 612.098 1.17406 -1.47856 0
M  V30 6466 O 611.455 1.72193 -0.604638 0
M  V30 6467 C 611.506 -0.0429958 -3.61474 0
M  V30 6468 O 611.227 -1.31932 -4.17763 0
M  V30 6469 C 612.728 0.469486 -4.40807 0
M  V30 6470 H 609.948 -0.0835862 -0.665773 0
M  V30 6471 H 612.492 -0.876397 -1.84769 0
M  V30 6472 H 610.647 0.629075 -3.82258 0
M  V30 6473 H 611.061 -1.16965 -5.11292 0
M  V30 6474 H 612.535 0.496712 -5.49761 0
M  V30 6475 H 613.012 1.49819 -4.12857 0
M  V30 6476 H 613.618 -0.169624 -4.24962 0
M  V30 6477 N 611.933 1.52934 -0.380664 0
M  V30 6478 C 613.161 2.05886 0.204599 0
M  V30 6479 C 613.576 1.25305 1.41223 0
M  V30 6480 O 612.933 0.297504 1.80059 0
M  V30 6481 C 612.984 3.56764 0.583249 0
M  V30 6482 O 612.705 4.34292 -0.576398 0
M  V30 6483 C 614.206 4.2603 1.2253 0
M  V30 6484 H 611.426 0.670193 0.0328991 0
M  V30 6485 H 613.97 1.97148 -0.543397 0
M  V30 6486 H 612.125 3.65603 1.28115 0
M  V30 6487 H 612.539 5.23819 -0.267119 0
M  V30 6488 H 614.013 5.32868 1.44068 0
M  V30 6489 H 614.49 3.80698 2.19011 0
M  V30 6490 H 615.096 4.21485 0.568407 0
M  V30 6491 N 613.412 0.11024 1.57214 0
M  V30 6492 C 614.652 -0.553061 1.96775 0
M  V30 6493 C 615.016 -1.64403 0.991753 0
M  V30 6494 O 616.217 -2.36561 1.27642 0
M  V30 6495 C 614.488 -1.08004 3.4069 0
M  V30 6496 S 616.047 -1.75309 4.02259 0
M  V30 6497 H 612.865 -0.18003 0.68783 0
M  V30 6498 H 615.467 0.193242 1.94543 0
M  V30 6499 H 614.171 -0.274735 4.09479 0
M  V30 6500 H 613.702 -1.86182 3.46554 0
M  V30 6501 H 615.717 -3.03834 3.923 0
M  V30 6502 N 614.89 -1.56749 -0.16351 0
M  V30 6503 C 616.12 -1.86307 -0.892936 0
M  V30 6504 C 616.528 -0.6945 -1.75992 0
M  V30 6505 O 615.871 0.345384 -1.80424 0
M  V30 6506 C 615.933 -3.10372 -1.81409 0
M  V30 6507 C 615.597 -4.42913 -1.12593 0
M  V30 6508 C 616.594 -5.17608 -0.487661 0
M  V30 6509 C 614.279 -4.89646 -1.12035 0
M  V30 6510 C 616.273 -6.3723 0.14699 0
M  V30 6511 C 613.96 -6.09197 -0.481883 0
M  V30 6512 C 614.958 -6.82834 0.150678 0
M  V30 6513 O 614.646 -8.00116 0.779065 0
M  V30 6514 H 614.378 -0.622126 -0.264452 0
M  V30 6515 H 616.932 -2.04728 -0.166063 0
M  V30 6516 H 615.162 -2.87917 -2.58148 0
M  V30 6517 H 616.851 -3.26312 -2.41403 0
M  V30 6518 H 617.617 -4.8258 -0.483888 0
M  V30 6519 H 613.496 -4.32265 -1.60212 0
M  V30 6520 H 617.04 -6.94646 0.641325 0
M  V30 6521 H 612.937 -6.43688 -0.483266 0
M  V30 6522 H 613.705 -8.15678 0.679089 0
M  V30 6523 N 616.368 0.432326 -1.51554 0
M  V30 6524 C 617.301 1.54525 -1.6792 0
M  V30 6525 C 618.279 1.53831 -0.526764 0
M  V30 6526 O 619.463 1.72884 -0.751233 0
M  V30 6527 C 616.59 2.931 -1.69736 0
M  V30 6528 C 615.636 3.11799 -2.91005 0
M  V30 6529 S 616.469 2.87565 -4.51737 0
M  V30 6530 C 617.625 4.28412 -4.56305 0
M  V30 6531 H 617.858 1.4041 -2.62054 0
M  V30 6532 H 615.391 0.622357 -1.41301 0
M  V30 6533 H 617.349 3.72974 -1.71467 0
M  V30 6534 H 616.01 3.04574 -0.767705 0
M  V30 6535 H 615.203 4.13127 -2.8869 0
M  V30 6536 H 614.805 2.39757 -2.87041 0
M  V30 6537 H 617.097 5.21692 -4.32254 0
M  V30 6538 H 618.04 4.35758 -5.58141 0
M  V30 6539 H 618.448 4.12301 -3.85576 0
M  V30 6540 N 617.846 1.41785 0.688094 0
M  V30 6541 C 618.809 1.43936 1.78368 0
M  V30 6542 C 619.809 0.328866 1.57401 0
M  V30 6543 O 620.999 0.589093 1.63937 0
M  V30 6544 C 618.131 1.25804 3.16838 0
M  V30 6545 H 619.324 2.41472 1.77852 0
M  V30 6546 H 616.877 1.28037 0.896448 0
M  V30 6547 H 617.612 0.291386 3.22988 0
M  V30 6548 H 617.397 2.06272 3.33458 0
M  V30 6549 H 618.887 1.30162 3.96797 0
M  V30 6550 N 619.324 -0.923095 1.27737 0
M  V30 6551 C 620.549 -1.71054 1.17283 0
M  V30 6552 C 620.974 -1.86208 -0.266153 0
M  V30 6553 O 620.332 -1.36545 -1.1927 0
M  V30 6554 C 620.38 -3.0854 1.86642 0
M  V30 6555 O 619.484 -3.95528 1.16752 0
M  V30 6556 H 618.825 -0.524136 0.407649 0
M  V30 6557 H 621.355 -1.15487 1.6889 0
M  V30 6558 H 621.365 -3.58828 1.94182 0
M  V30 6559 H 620.04 -2.96828 2.91317 0
M  V30 6560 H 618.617 -3.53967 1.17312 0
M  V30 6561 N 620.802 -1.09834 -1.13024 0
M  V30 6562 C 621.749 -0.741522 -2.18564 0
M  V30 6563 C 622.719 0.279236 -1.63736 0
M  V30 6564 O 623.904 0.159923 -1.90129 0
M  V30 6565 C 621.044 -0.17277 -3.44667 0
M  V30 6566 C 620.157 -1.24808 -4.13578 0
M  V30 6567 C 619.292 -0.641631 -5.27311 0
M  V30 6568 C 618.331 -1.69795 -5.88078 0
M  V30 6569 N 617.468 -1.11223 -6.93234 0
M  V30 6570 H 622.308 -1.64576 -2.48432 0
M  V30 6571 H 619.845 -0.822174 -1.21978 0
M  V30 6572 H 621.803 0.17482 -4.16834 0
M  V30 6573 H 620.433 0.694725 -3.15235 0
M  V30 6574 H 619.485 -1.71288 -3.39653 0
M  V30 6575 H 620.797 -2.04795 -4.54819 0
M  V30 6576 H 619.951 -0.243128 -6.06213 0
M  V30 6577 H 618.69 0.189742 -4.87331 0
M  V30 6578 H 617.695 -2.10595 -5.07868 0
M  V30 6579 H 618.92 -2.53206 -6.3013 0
M  V30 6580 H 616.866 -0.302208 -6.55304 0
M  V30 6581 H 616.783 -1.84901 -7.3304 0
M  V30 6582 H 618.051 -0.740068 -7.75979 0
M  V30 6583 N 622.28 1.30327 -0.886154 0
M  V30 6584 C 623.228 2.30052 -0.343317 0
M  V30 6585 C 624.222 1.60212 0.550305 0
M  V30 6586 O 625.428 1.74674 0.434609 0
M  V30 6587 H 621.803 0.746306 -0.0923681 0
M  V30 6588 H 623.774 2.73294 -1.19804 0
M  V30 6589 C 622.523 3.45079 0.426107 0
M  V30 6590 H 621.846 3.99003 -0.25227 0
M  V30 6591 H 623.286 4.16931 0.771009 0
M  V30 6592 C 621.745 2.95195 1.62363 0
M  V30 6593 O 622.275 2.95323 2.723 0
M  V30 6594 N 620.481 2.51192 1.4612 0
M  V30 6595 H 620.028 2.51286 0.566832 0
M  V30 6596 H 619.986 2.18173 2.2638 0
M  V30 6597 N 623.758 0.647228 1.43697 0
M  V30 6598 C 624.983 0.164083 2.0675 0
M  V30 6599 C 625.408 -1.15892 1.48158 0
M  V30 6600 O 624.766 -1.71459 0.589194 0
M  V30 6601 C 624.814 0.0800368 3.60511 0
M  V30 6602 O 623.918 -0.959453 4.01084 0
M  V30 6603 H 623.259 0.0921288 0.657578 0
M  V30 6604 H 625.789 0.88846 1.84303 0
M  V30 6605 H 625.799 -0.105263 4.07864 0
M  V30 6606 H 624.474 1.04586 4.02535 0
M  V30 6607 H 623.051 -0.747425 3.65333 0
M  V30 6608 N 625.236 -1.5273 0.388769 0
M  V30 6609 C 626.461 -2.0647 -0.19621 0
M  V30 6610 C 626.886 -1.25865 -1.39784 0
M  V30 6611 O 626.244 -0.283562 -1.79069 0
M  V30 6612 C 626.292 -3.56456 -0.5451 0
M  V30 6613 O 625.396 -3.78426 -1.63912 0
M  V30 6614 H 624.737 -0.663599 -0.023067 0
M  V30 6615 H 627.267 -1.96898 0.556084 0
M  V30 6616 H 627.277 -3.99888 -0.809557 0
M  V30 6617 H 625.952 -4.14561 0.333417 0
M  V30 6618 H 624.529 -3.46884 -1.36842 0
M  V30 6619 N 626.714 -0.118576 -1.57153 0
M  V30 6620 C 627.646 0.862247 -2.12363 0
M  V30 6621 C 628.659 1.23025 -1.06625 0
M  V30 6622 O 629.848 1.17927 -1.33998 0
M  V30 6623 C 626.948 2.16425 -2.60794 0
M  V30 6624 C 626.121 1.96801 -3.90626 0
M  V30 6625 C 625.18 3.10726 -4.2466 0
M  V30 6626 O 624.206 2.83659 -4.93484 0
M  V30 6627 N 625.408 4.37147 -3.81946 0
M  V30 6628 H 628.173 0.390564 -2.97144 0
M  V30 6629 H 625.734 0.0658591 -1.61766 0
M  V30 6630 H 627.726 2.91633 -2.80593 0
M  V30 6631 H 626.296 2.54943 -1.80895 0
M  V30 6632 H 625.516 1.05787 -3.7974 0
M  V30 6633 H 626.804 1.80993 -4.7552 0
M  V30 6634 H 626.202 4.62014 -3.26435 0
M  V30 6635 H 624.759 5.09229 -4.06853 0
M  V30 6636 N 628.193 1.56834 0.155195 0
M  V30 6637 C 629.103 2.009 1.21146 0
M  V30 6638 C 630.119 0.923029 1.475 0
M  V30 6639 O 631.295 1.23189 1.59331 0
M  V30 6640 C 628.36 2.37378 2.52691 0
M  V30 6641 C 627.421 3.59883 2.34057 0
M  V30 6642 C 626.654 3.94612 3.59329 0
M  V30 6643 O 626.877 3.30104 4.65175 0
M  V30 6644 O 625.811 4.87895 3.52479 0
M  V30 6645 H 629.637 2.9105 0.867371 0
M  V30 6646 H 627.222 1.44916 0.363298 0
M  V30 6647 H 629.104 2.61737 3.3026 0
M  V30 6648 H 627.779 1.50385 2.86646 0
M  V30 6649 H 626.686 3.40722 1.54465 0
M  V30 6650 H 628.019 4.47468 2.0502 0
M  V30 6651 N 629.671 -0.424282 1.51781 0
M  V30 6652 C 630.899 -1.1947 1.68921 0
M  V30 6653 C 631.314 -1.84683 0.39213 0
M  V30 6654 O 630.671 -1.71261 -0.630554 0
M  V30 6655 C 630.722 -2.26909 2.81416 0
M  V30 6656 O 630.443 -1.64361 4.061 0
M  V30 6657 C 631.944 -3.16945 3.09937 0
M  V30 6658 H 629.164 -0.359591 0.566511 0
M  V30 6659 H 631.708 -0.501139 1.98265 0
M  V30 6660 H 629.863 -2.91959 2.54635 0
M  V30 6661 H 630.277 -2.35468 4.68674 0
M  V30 6662 H 631.751 -3.88437 3.922 0
M  V30 6663 H 632.228 -3.78451 2.22871 0
M  V30 6664 H 632.834 -2.57581 3.38426 0
M  V30 6665 N 631.149 -1.42148 -0.680565 0
M  V30 6666 C 632.389 -1.4379 -1.45271 0
M  V30 6667 C 632.753 -0.0504426 -1.91934 0
M  V30 6668 O 633.954 0.0583916 -2.68737 0
M  V30 6669 C 632.225 -2.42904 -2.62168 0
M  V30 6670 S 633.784 -2.63201 -3.51099 0
M  V30 6671 H 630.602 -0.509185 -0.496237 0
M  V30 6672 H 633.204 -1.78706 -0.792744 0
M  V30 6673 H 631.908 -3.4249 -2.26116 0
M  V30 6674 H 631.439 -2.09394 -3.33043 0
M  V30 6675 H 633.454 -1.91068 -4.57938 0
M  V30 6676 N 632.627 0.916307 -1.28225 0
M  V30 6677 C 633.855 1.69901 -1.18073 0
M  V30 6678 C 634.27 1.86988 0.260968 0
M  V30 6679 O 633.627 1.39505 1.17663 0
M  V30 6680 C 633.678 3.09254 -1.87201 0
M  V30 6681 O 633.399 2.92959 -3.2574 0
M  V30 6682 C 634.9 4.0362 -1.83319 0
M  V30 6683 H 632.12 0.531181 -0.409985 0
M  V30 6684 H 634.664 1.14703 -1.69303 0
M  V30 6685 H 632.819 3.61277 -1.39848 0
M  V30 6686 H 633.233 3.81139 -3.60324 0
M  V30 6687 H 634.707 4.98873 -2.36282 0
M  V30 6688 H 635.184 4.3176 -0.805007 0
M  V30 6689 H 635.79 3.57524 -2.3034 0
M  V30 6690 N 634.105 1.10431 1.1244 0
M  V30 6691 C 635.521 0.836096 1.35947 0
M  V30 6692 C 635.721 -0.544475 1.94004 0
M  V30 6693 O 634.777 -1.29735 2.16622 0
M  V30 6694 C 636.09 1.93575 2.30107 0
M  V30 6695 C 637.638 1.9642 2.43697 0
M  V30 6696 C 638.113 3.05559 3.41171 0
M  V30 6697 N 639.604 3.04865 3.48728 0
M  V30 6698 C 640.339 3.85954 4.24061 0
M  V30 6699 N 639.835 4.76977 5.02458 0
M  V30 6700 N 641.628 3.74172 4.19466 0
M  V30 6701 H 633.779 1.9942 0.731124 0
M  V30 6702 H 636.042 0.866607 0.384312 0
M  V30 6703 H 635.748 2.92943 1.94621 0
M  V30 6704 H 635.622 1.8229 3.30227 0
M  V30 6705 H 638.009 0.97685 2.78463 0
M  V30 6706 H 638.09 2.11782 1.43465 0
M  V30 6707 H 637.734 4.04513 3.07135 0
M  V30 6708 H 637.664 2.87438 4.41234 0
M  V30 6709 H 640.155 2.38908 2.92799 0
M  V30 6710 H 640.468 5.35409 5.57277 0
M  V30 6711 H 638.813 4.81006 5.01655 0
M  V30 6712 H 642.004 3.02412 3.57302 0
M  V30 6713 H 642.177 4.37602 4.77921 0
M  V30 6714 N 635.583 -1.29855 0.893053 0
M  V30 6715 C 636.546 -2.26183 0.370687 0
M  V30 6716 C 637.546 -1.53108 -0.491385 0
M  V30 6717 O 638.736 -1.71643 -0.297386 0
M  V30 6718 C 635.868 -3.37633 -0.470827 0
M  V30 6719 H 637.061 -2.73903 1.22135 0
M  V30 6720 H 634.614 -1.41183 0.67061 0
M  V30 6721 H 635.349 -2.95241 -1.34175 0
M  V30 6722 H 635.134 -3.91825 0.146784 0
M  V30 6723 H 636.624 -4.09313 -0.827825 0
M  V30 6724 N 637.061 -0.65484 -1.43351 0
M  V30 6725 C 638.477 -0.32255 -1.56307 0
M  V30 6726 C 638.677 1.17324 -1.63821 0
M  V30 6727 O 637.733 1.95813 -1.59417 0
M  V30 6728 C 639.046 -1.03533 -2.82314 0
M  V30 6729 C 640.594 -1.01574 -2.9606 0
M  V30 6730 C 641.069 -1.70945 -4.24902 0
M  V30 6731 N 642.56 -1.67716 -4.3177 0
M  V30 6732 C 643.295 -2.18265 -5.30234 0
M  V30 6733 N 642.791 -2.7711 -6.34966 0
M  V30 6734 N 644.584 -2.08756 -5.21898 0
M  V30 6735 H 636.735 -1.62549 -1.36717 0
M  V30 6736 H 638.998 -0.683676 -0.656727 0
M  V30 6737 H 638.704 -2.09045 -2.8283 0
M  V30 6738 H 638.578 -0.587913 -3.7259 0
M  V30 6739 H 640.965 0.0309834 -2.95084 0
M  V30 6740 H 641.046 -1.50186 -2.07069 0
M  V30 6741 H 640.69 -2.75574 -4.26639 0
M  V30 6742 H 640.62 -1.19797 -5.12793 0
M  V30 6743 H 643.111 -1.24777 -3.56706 0
M  V30 6744 H 643.424 -3.13353 -7.06421 0
M  V30 6745 H 641.769 -2.81171 -6.35585 0
M  V30 6746 H 644.96 -1.62488 -4.38994 0
M  V30 6747 H 645.133 -2.48459 -5.98475 0
M  V30 6748 N 638.539 1.52521 -0.396863 0
M  V30 6749 C 639.449 2.30403 0.44178 0
M  V30 6750 C 640.465 1.37625 1.06468 0
M  V30 6751 O 641.641 1.70697 1.06886 0
M  V30 6752 C 638.706 3.1013 1.54986 0
M  V30 6753 C 637.767 4.18628 0.951279 0
M  V30 6754 C 637 4.94543 2.00655 0
M  V30 6755 O 637.223 4.70629 3.22281 0
M  V30 6756 O 636.157 5.797 1.61962 0
M  V30 6757 H 639.983 3.03087 -0.192892 0
M  V30 6758 H 637.568 1.48537 -0.16038 0
M  V30 6759 H 639.45 3.59816 2.19341 0
M  V30 6760 H 638.125 2.40251 2.16935 0
M  V30 6761 H 637.032 3.73119 0.270773 0
M  V30 6762 H 638.365 4.90763 0.375887 0
M  V30 6763 N 640.017 0.126909 1.57088 0
M  V30 6764 C 640.947 -0.816847 2.18746 0
M  V30 6765 C 641.928 -1.27161 1.12979 0
M  V30 6766 O 643.113 -1.33279 1.41246 0
M  V30 6767 C 640.243 -2.06398 2.79315 0
M  V30 6768 C 639.197 -1.74673 3.90735 0
M  V30 6769 C 638.523 -3.06482 4.38147 0
M  V30 6770 C 639.823 -1.0089 5.12463 0
M  V30 6771 H 641.517 -0.303032 2.97863 0
M  V30 6772 H 639.063 -0.144314 1.43275 0
M  V30 6773 H 641.016 -2.72885 3.2111 0
M  V30 6774 H 639.74 -2.60118 1.975 0
M  V30 6775 H 638.399 -1.10572 3.49527 0
M  V30 6776 H 638.047 -3.58152 3.5318 0
M  V30 6777 H 637.747 -2.86025 5.13287 0
M  V30 6778 H 639.271 -3.74073 4.82599 0
M  V30 6779 H 640.685 -1.57546 5.51228 0
M  V30 6780 H 639.082 -0.905006 5.93237 0
M  V30 6781 H 640.152 0.00297335 4.849 0
M  V30 6782 N 641.495 -1.56914 -0.146875 0
M  V30 6783 C 642.458 -1.97368 -1.16526 0
M  V30 6784 C 643.458 -0.860223 -1.35856 0
M  V30 6785 O 644.648 -1.12684 -1.32846 0
M  V30 6786 C 641.78 -2.28974 -2.52555 0
M  V30 6787 H 642.973 -2.88523 -0.818209 0
M  V30 6788 H 640.526 -1.5135 -0.390221 0
M  V30 6789 H 641.261 -1.40611 -2.92231 0
M  V30 6790 H 641.046 -3.10157 -2.39886 0
M  V30 6791 H 642.536 -2.61109 -3.25902 0
M  V30 6792 N 642.974 0.416227 -1.52004 0
M  V30 6793 C 643.906 1.52552 -1.71058 0
M  V30 6794 C 644.919 1.51693 -0.59102 0
M  V30 6795 O 646.108 1.56087 -0.865973 0
M  V30 6796 C 643.208 2.91455 -1.72937 0
M  V30 6797 C 642.381 3.16584 -3.01816 0
M  V30 6798 C 641.44 4.35322 -2.95603 0
M  V30 6799 O 640.466 4.32947 -3.6952 0
M  V30 6800 N 641.668 5.40049 -2.12903 0
M  V30 6801 H 644.433 1.36604 -2.66757 0
M  V30 6802 H 641.994 0.60544 -1.50153 0
M  V30 6803 H 643.986 3.68944 -1.66321 0
M  V30 6804 H 642.556 3.00895 -0.847418 0
M  V30 6805 H 641.776 2.27203 -3.22137 0
M  V30 6806 H 643.064 3.30213 -3.87088 0
M  V30 6807 H 642.462 5.44823 -1.52265 0
M  V30 6808 H 641.019 6.16308 -2.1215 0
M  V30 6809 N 644.452 1.42507 0.673017 0
M  V30 6810 C 645.384 1.42074 1.79854 0
M  V30 6811 C 646.397 0.319569 1.59633 0
M  V30 6812 O 647.586 0.582769 1.68719 0
M  V30 6813 C 644.686 1.19886 3.16987 0
M  V30 6814 C 643.859 2.42471 3.64042 0
M  V30 6815 C 642.918 2.15802 4.79913 0
M  V30 6816 O 641.944 2.89015 4.90366 0
M  V30 6817 N 643.146 1.16225 5.68746 0
M  V30 6818 H 645.911 2.3909 1.8071 0
M  V30 6819 H 643.472 1.37409 0.856171 0
M  V30 6820 H 645.464 0.999591 3.92161 0
M  V30 6821 H 644.034 0.313879 3.1102 0
M  V30 6822 H 643.254 2.77954 2.79526 0
M  V30 6823 H 644.542 3.24097 3.92223 0
M  V30 6824 H 643.94 0.556756 5.62954 0
M  V30 6825 H 642.497 1.02285 6.43724 0
M  V30 6826 N 645.93 -0.909495 1.28709 0
M  V30 6827 C 647.179 -1.65365 1.15487 0
M  V30 6828 C 647.492 -1.93364 -0.294941 0
M  V30 6829 O 648.698 -2.65905 -0.548338 0
M  V30 6830 C 647.154 -2.97923 2.01916 0
M  V30 6831 C 646.762 -2.77556 3.51663 0
M  V30 6832 C 648.506 -3.75814 1.97393 0
M  V30 6833 C 646.413 -4.0578 4.30229 0
M  V30 6834 H 645.343 -0.620323 0.42862 0
M  V30 6835 H 647.994 -1.00894 1.53273 0
M  V30 6836 H 646.376 -3.63552 1.5699 0
M  V30 6837 H 647.55 -2.2058 4.04575 0
M  V30 6838 H 645.865 -2.13072 3.57756 0
M  V30 6839 H 648.462 -4.70866 2.53357 0
M  V30 6840 H 648.805 -4.05277 0.951643 0
M  V30 6841 H 649.338 -3.1701 2.40311 0
M  V30 6842 H 646.077 -3.81488 5.33055 0
M  V30 6843 H 645.597 -4.62351 3.82089 0
M  V30 6844 H 647.276 -4.74004 4.40374 0
M  V30 6845 N 647.408 -1.11026 -1.11852 0
M  V30 6846 C 648.656 -0.854769 -1.83134 0
M  V30 6847 C 648.977 0.621375 -1.84835 0
M  V30 6848 O 648.247 1.45129 -1.31584 0
M  V30 6849 H 646.827 -0.313229 -0.678157 0
M  V30 6850 H 649.489 -1.40178 -1.35411 0
M  V30 6851 H 648.585 -1.22311 -2.87135 0
M  V30 6852 N 648.886 1.2938 -0.899927 0
M  V30 6853 C 650.111 2.00228 -0.540692 0
M  V30 6854 C 650.536 1.66909 0.867359 0
M  V30 6855 O 649.894 0.893824 1.57735 0
M  V30 6856 C 649.942 3.52921 -0.740232 0
M  V30 6857 O 649.046 4.11879 0.207154 0
M  V30 6858 H 648.387 0.629505 -0.211233 0
M  V30 6859 H 650.917 1.6487 -1.21158 0
M  V30 6860 H 650.927 4.0287 -0.644973 0
M  V30 6861 H 649.602 3.76508 -1.76677 0
M  V30 6862 H 648.179 3.72845 0.0643315 0
M  V30 6863 N 650.364 0.662433 1.43002 0
M  V30 6864 C 651.314 -0.0460442 2.27954 0
M  V30 6865 C 652.298 -0.785753 1.40409 0
M  V30 6866 O 653.49 -0.666701 1.63964 0
M  V30 6867 C 650.619 -1.00532 3.2825 0
M  V30 6868 C 649.705 -0.263604 4.2328 0
M  V30 6869 N 650.096 0.724855 5.00579 0
M  V30 6870 C 648.394 -0.503778 4.43146 0
M  V30 6871 C 649.095 1.16594 5.69895 0
M  V30 6872 N 648.071 0.498345 5.41311 0
M  V30 6873 H 651.873 0.712314 2.85137 0
M  V30 6874 H 649.387 0.490469 1.54817 0
M  V30 6875 H 651.384 -1.52775 3.87899 0
M  V30 6876 H 650.044 -1.76364 2.72628 0
M  V30 6877 H 651.055 1.10393 5.05998 0
M  V30 6878 H 647.732 -1.24255 3.98581 0
M  V30 6879 H 649.122 1.98434 6.4193 0
M  V30 6880 N 651.842 -1.52309 0.404946 0
M  V30 6881 C 652.792 -2.23717 -0.439864 0
M  V30 6882 C 653.776 -1.24692 -1.0169 0
M  V30 6883 O 654.968 -1.49951 -0.940409 0
M  V30 6884 C 652.097 -3.05898 -1.55825 0
M  V30 6885 C 651.183 -4.12331 -0.992188 0
M  V30 6886 N 651.574 -5.0557 -0.152424 0
M  V30 6887 C 649.872 -4.2774 -1.26312 0
M  V30 6888 C 650.573 -5.81474 0.162041 0
M  V30 6889 N 649.549 -5.41767 -0.44601 0
M  V30 6890 H 653.351 -2.93162 0.208084 0
M  V30 6891 H 650.865 -1.60969 0.215131 0
M  V30 6892 H 652.862 -3.55605 -2.17603 0
M  V30 6893 H 651.522 -2.37991 -2.20886 0
M  V30 6894 H 652.533 -5.17468 0.211556 0
M  V30 6895 H 649.21 -3.71062 -1.91362 0
M  V30 6896 H 650.6 -6.66585 0.843423 0
M  V30 6897 N 653.32 -0.135238 -1.57019 0
M  V30 6898 C 654.569 0.518694 -1.94917 0
M  V30 6899 C 654.882 1.66783 -1.0219 0
M  V30 6900 O 656.088 2.38561 -1.29619 0
M  V30 6901 C 654.544 0.974123 -3.46466 0
M  V30 6902 C 654.152 -0.147439 -4.47757 0
M  V30 6903 C 655.896 1.59851 -3.93253 0
M  V30 6904 C 653.803 0.325599 -5.90503 0
M  V30 6905 H 652.733 0.19754 -0.727663 0
M  V30 6906 H 655.384 -0.217698 -1.82204 0
M  V30 6907 H 653.766 1.76542 -3.5447 0
M  V30 6908 H 654.94 -0.924122 -4.51438 0
M  V30 6909 H 653.255 -0.679496 -4.10818 0
M  V30 6910 H 655.852 1.96385 -4.9733 0
M  V30 6911 H 656.195 2.48306 -3.3414 0
M  V30 6912 H 656.728 0.872323 -3.88118 0
M  V30 6913 H 653.467 -0.523295 -6.53408 0
M  V30 6914 H 652.987 1.06841 -5.90208 0
M  V30 6915 H 654.666 0.781498 -6.42263 0
M  V30 6916 N 654.798 1.5699 0.138552 0
M  V30 6917 C 656.023 1.88344 0.86841 0
M  V30 6918 C 656.448 0.725159 1.7356 0
M  V30 6919 O 655.806 -0.324992 1.78363 0
M  V30 6920 C 655.854 3.18334 1.69398 0
M  V30 6921 O 654.958 3.02863 2.79907 0
M  V30 6922 H 654.299 0.618577 0.241367 0
M  V30 6923 H 656.829 2.04207 0.126826 0
M  V30 6924 H 656.839 3.50567 2.08726 0
M  V30 6925 H 655.514 4.02238 1.05725 0
M  V30 6926 H 654.091 2.82056 2.43924 0
M  V30 6927 N 656.276 -0.40816 1.52223 0
M  V30 6928 C 657.206 -1.5042 1.78595 0
M  V30 6929 C 658.187 -1.57723 0.636974 0
M  V30 6930 O 659.372 -1.72982 0.882664 0
M  V30 6931 C 656.502 -2.88232 1.93751 0
M  V30 6932 C 655.456 -2.95779 3.09352 0
M  V30 6933 C 654.782 -4.35855 3.09732 0
M  V30 6934 C 656.082 -2.67175 4.48793 0
M  V30 6935 H 657.776 -1.28601 2.70374 0
M  V30 6936 H 655.322 -0.617221 1.30101 0
M  V30 6937 H 657.275 -3.64895 2.10783 0
M  V30 6938 H 655.999 -3.11347 0.986443 0
M  V30 6939 H 654.658 -2.21561 2.92072 0
M  V30 6940 H 654.306 -4.55981 2.12346 0
M  V30 6941 H 654.006 -4.41829 3.87377 0
M  V30 6942 H 655.53 -5.14451 3.28895 0
M  V30 6943 H 656.944 -3.3356 4.66273 0
M  V30 6944 H 655.341 -2.84523 5.28362 0
M  V30 6945 H 656.411 -1.62609 4.56822 0
M  V30 6946 N 657.755 -1.42862 -0.66545 0
M  V30 6947 C 658.703 -1.47319 -1.8 0
M  V30 6948 C 659.697 -0.347963 -1.65788 0
M  V30 6949 O 660.903 -0.521406 -1.72283 0
M  V30 6950 H 657.278 -0.461588 -0.593667 0
M  V30 6951 H 659.249 -2.42876 -1.7336 0
M  V30 6952 C 657.998 -1.40152 -3.18203 0
M  V30 6953 H 657.321 -2.26035 -3.2977 0
M  V30 6954 H 658.761 -1.47331 -3.9758 0
M  V30 6955 C 657.22 -0.117493 -3.36695 0
M  V30 6956 O 657.75 0.826058 -3.93115 0
M  V30 6957 N 655.956 -0.0316218 -2.90583 0
M  V30 6958 H 655.503 -0.800247 -2.44855 0
M  V30 6959 H 655.461 0.826835 -3.03333 0
M  V30 6960 N 659.233 0.902656 -1.29189 0
M  V30 6961 C 660.482 1.6475 -1.16362 0
M  V30 6962 C 660.795 1.93517 0.284682 0
M  V30 6963 O 662.001 2.66192 0.534229 0
M  V30 6964 C 660.457 2.96848 -2.03493 0
M  V30 6965 C 660.065 2.75687 -3.5313 0
M  V30 6966 C 661.809 3.74762 -1.99383 0
M  V30 6967 C 659.716 4.03492 -4.32375 0
M  V30 6968 H 658.646 0.618041 -0.431904 0
M  V30 6969 H 661.297 1.0008 -1.53806 0
M  V30 6970 H 659.679 3.62715 -1.58916 0
M  V30 6971 H 660.853 2.18431 -4.05739 0
M  V30 6972 H 659.168 2.11171 -3.58881 0
M  V30 6973 H 661.765 4.69515 -2.5585 0
M  V30 6974 H 662.108 4.04767 -0.973123 0
M  V30 6975 H 662.641 3.15732 -2.41988 0
M  V30 6976 H 659.38 3.78656 -5.3507 0
M  V30 6977 H 658.9 4.60318 -3.84535 0
M  V30 6978 H 660.579 4.71662 -4.42881 0
M  V30 6979 N 660.711 1.11618 1.11262 0
M  V30 6980 C 661.988 0.777876 1.79467 0
M  V30 6981 C 662.368 -0.733774 1.97937 0
M  V30 6982 O 661.716 -1.66443 1.56554 0
M  V30 6983 C 661.926 1.5431 3.13032 0
M  V30 6984 C 663.274 1.72357 3.88044 0
M  V30 6985 O 664.298 1.5075 3.22727 0
M  V30 6986 O 663.157 2.08276 5.05256 0
M  V30 6987 H 660.251 0.282018 0.777428 0
M  V30 6988 H 662.797 1.21971 1.17988 0
M  V30 6989 H 661.569 2.57132 2.94956 0
M  V30 6990 H 661.192 1.09495 3.82226 0
M  V30 6991 N 662.189 -1.289 0.906776 0
M  V30 6992 C 663.6 -1.77336 0.58384 0
M  V30 6993 C 663.951 -1.74304 -0.900697 0
M  V30 6994 O 663.076 -1.33335 -1.70443 0
M  V30 6995 C 663.671 -3.22019 1.05304 0
M  V30 6996 C 662.23 -3.68205 0.781148 0
M  V30 6997 C 661.377 -2.48837 1.22373 0
M  V30 6998 H 664.328 -1.15462 1.08877 0
M  V30 6999 H 664.349 -3.78481 0.391414 0
M  V30 7000 H 663.861 -3.24194 2.13353 0
M  V30 7001 H 661.962 -3.71497 -0.28643 0
M  V30 7002 H 662.075 -4.58675 1.384 0
M  V30 7003 H 660.439 -2.46461 0.642594 0
M  V30 7004 H 661.222 -2.53736 2.31242 0
M  V30 7005 N 663.667 -0.670007 -1.42649 0
M  V30 7006 C 664.63 0.00204659 -2.292 0
M  V30 7007 C 665.63 0.733817 -1.4308 0
M  V30 7008 O 666.82 0.57254 -1.64522 0
M  V30 7009 C 663.952 1.01359 -3.25483 0
M  V30 7010 H 665.145 -0.759696 -2.90118 0
M  V30 7011 H 662.698 -0.432105 -1.50208 0
M  V30 7012 H 663.433 1.80399 -2.69493 0
M  V30 7013 H 663.218 0.492323 -3.88997 0
M  V30 7014 H 664.708 1.4824 -3.90403 0
M  V30 7015 N 665.145 1.52092 -0.413018 0
M  V30 7016 C 666.391 2.02154 0.161737 0
M  V30 7017 C 666.724 1.29789 1.44459 0
M  V30 7018 O 665.999 0.405378 1.90229 0
M  V30 7019 C 666.282 3.5781 0.405463 0
M  V30 7020 C 666.135 4.40819 -0.894335 0
M  V30 7021 C 667.454 4.23821 1.18591 0
M  V30 7022 H 664.573 0.734769 0.0573077 0
M  V30 7023 H 667.215 1.81948 -0.547247 0
M  V30 7024 H 665.365 3.75158 1.0094 0
M  V30 7025 H 667.037 4.35175 -1.53039 0
M  V30 7026 H 665.28 4.06877 -1.50444 0
M  V30 7027 H 665.951 5.47819 -0.678144 0
M  V30 7028 H 668.427 4.10596 0.674573 0
M  V30 7029 H 667.303 5.32663 1.3252 0
M  V30 7030 H 667.564 3.83038 2.20758 0
M  V30 7031 N 666.623 0.143563 1.56945 0
M  V30 7032 C 667.57 -0.797433 2.16586 0
M  V30 7033 C 668.54 -1.24654 1.09775 0
M  V30 7034 O 669.725 -1.31968 1.37801 0
M  V30 7035 C 666.865 -2.03253 2.78895 0
M  V30 7036 C 665.978 -1.62954 4.00087 0
M  V30 7037 C 665.113 -2.81617 4.50406 0
M  V30 7038 C 664.152 -2.37675 5.64072 0
M  V30 7039 N 663.289 -3.49335 6.09023 0
M  V30 7040 H 668.129 -0.282023 2.96662 0
M  V30 7041 H 665.666 -0.127494 1.46546 0
M  V30 7042 H 667.624 -2.75653 3.13163 0
M  V30 7043 H 666.254 -2.52211 2.01469 0
M  V30 7044 H 665.306 -0.803322 3.71821 0
M  V30 7045 H 666.618 -1.26679 4.82446 0
M  V30 7046 H 665.772 -3.62212 4.86711 0
M  V30 7047 H 664.511 -3.21134 3.67048 0
M  V30 7048 H 663.516 -1.55519 5.27346 0
M  V30 7049 H 664.741 -1.99247 6.49213 0
M  V30 7050 H 662.687 -3.8848 5.28601 0
M  V30 7051 H 662.604 -3.17064 6.86299 0
M  V30 7052 H 663.872 -4.30297 6.49973 0
M  V30 7053 N 668.101 -1.57061 -0.130224 0
M  V30 7054 C 669.064 -1.98593 -1.14426 0
M  V30 7055 C 670.064 -0.874584 -1.34936 0
M  V30 7056 O 671.254 -1.14086 -1.31643 0
M  V30 7057 C 668.386 -2.31639 -2.50112 0
M  V30 7058 H 669.579 -2.89374 -0.787561 0
M  V30 7059 H 667.132 -1.51756 -0.374146 0
M  V30 7060 H 667.867 -1.43703 -2.90723 0
M  V30 7061 H 667.652 -3.12684 -2.36583 0
M  V30 7062 H 669.142 -2.64551 -3.23114 0
M  V30 7063 N 669.579 0.400081 -1.52437 0
M  V30 7064 C 670.825 1.14788 -1.67187 0
M  V30 7065 C 671.158 1.89928 -0.405074 0
M  V30 7066 O 670.433 1.85118 0.596804 0
M  V30 7067 C 670.716 2.13507 -2.89977 0
M  V30 7068 C 670.569 1.42204 -4.2673 0
M  V30 7069 C 671.888 3.14069 -3.083 0
M  V30 7070 H 669.007 0.415939 -0.608411 0
M  V30 7071 H 671.649 0.432542 -1.85011 0
M  V30 7072 H 669.799 2.7451 -2.74912 0
M  V30 7073 H 671.471 0.842503 -4.53541 0
M  V30 7074 H 669.714 0.723939 -4.27717 0
M  V30 7075 H 670.385 2.14281 -5.08712 0
M  V30 7076 H 672.861 2.63148 -3.22323 0
M  V30 7077 H 671.737 3.80398 -3.95713 0
M  V30 7078 H 671.998 3.82309 -2.22018 0
M  V30 7079 N 671.057 1.43213 0.657864 0
M  V30 7080 C 671.99 1.42456 1.78273 0
M  V30 7081 C 672.968 0.286598 1.60054 0
M  V30 7082 O 674.152 0.479467 1.823 0
M  V30 7083 C 671.279 1.23169 3.15511 0
M  V30 7084 C 670.325 2.40181 3.52442 0
M  V30 7085 S 671.158 4.02729 3.52944 0
M  V30 7086 C 672.314 3.85816 4.92846 0
M  V30 7087 H 672.547 2.37642 1.78644 0
M  V30 7088 H 670.08 1.30188 0.830084 0
M  V30 7089 H 672.038 1.12728 3.94719 0
M  V30 7090 H 670.699 0.295398 3.12708 0
M  V30 7091 H 669.892 2.22478 4.52239 0
M  V30 7092 H 669.494 2.47224 2.80636 0
M  V30 7093 H 671.786 3.47853 5.81381 0
M  V30 7094 H 672.729 4.85348 5.15599 0
M  V30 7095 H 673.137 3.18361 4.66162 0
M  V30 7096 N 672.536 -0.895792 1.29666 0
M  V30 7097 C 673.784 -1.64339 1.17631 0
M  V30 7098 C 674.105 -1.93099 -0.271643 0
M  V30 7099 O 673.375 -1.55981 -1.18518 0
M  V30 7100 H 671.955 -0.609162 0.432354 0
M  V30 7101 H 674.617 -1.07389 1.62646 0
M  V30 7102 H 673.713 -2.59815 1.72924 0
M  V30 7103 N 674.014 -1.12206 -1.10668 0
M  V30 7104 C 675.263 -0.870595 -1.81944 0
M  V30 7105 C 675.576 0.605447 -1.85994 0
M  V30 7106 O 676.782 0.973433 -2.53449 0
M  V30 7107 C 675.238 -1.50783 -3.26791 0
M  V30 7108 C 674.846 -3.01849 -3.31046 0
M  V30 7109 C 676.59 -1.33653 -4.02911 0
M  V30 7110 C 674.497 -3.58518 -4.70339 0
M  V30 7111 H 673.427 -0.322043 -0.681765 0
M  V30 7112 H 676.078 -1.34827 -1.24475 0
M  V30 7113 H 674.46 -0.957825 -3.84242 0
M  V30 7114 H 675.634 -3.63321 -2.83433 0
M  V30 7115 H 673.949 -3.18346 -2.68411 0
M  V30 7116 H 676.546 -1.73416 -5.05797 0
M  V30 7117 H 676.889 -0.279949 -4.15358 0
M  V30 7118 H 677.422 -1.85562 -3.51868 0
M  V30 7119 H 674.161 -4.63925 -4.63091 0
M  V30 7120 H 673.681 -3.01819 -5.18329 0
M  V30 7121 H 675.36 -3.57434 -5.39305 0
M  V30 7122 N 675.492 1.28418 -0.913599 0
M  V30 7123 C 676.739 1.94981 -0.546674 0
M  V30 7124 C 677.067 1.7192 0.909606 0
M  V30 7125 O 676.322 1.03314 1.66207 0
M  V30 7126 C 676.621 3.48283 -0.802099 0
M  V30 7127 C 676.287 3.91444 -2.2379 0
M  V30 7128 C 674.949 4.02939 -2.63046 0
M  V30 7129 C 677.301 4.13542 -3.17227 0
M  V30 7130 C 674.629 4.3391 -3.94891 0
M  V30 7131 C 676.981 4.45992 -4.48636 0
M  V30 7132 C 675.645 4.55698 -4.87746 0
M  V30 7133 H 674.915 0.713487 -0.200042 0
M  V30 7134 H 677.562 1.52756 -1.15489 0
M  V30 7135 H 675.867 3.91643 -0.111076 0
M  V30 7136 H 677.564 3.97903 -0.497375 0
M  V30 7137 H 674.154 3.83024 -1.9233 0
M  V30 7138 H 678.338 4.04114 -2.88107 0
M  V30 7139 H 673.594 4.39631 -4.24894 0
M  V30 7140 H 677.768 4.62038 -5.21051 0
M  V30 7141 H 675.395 4.79451 -5.89942 0
M  V30 7142 N 676.97 0.677563 1.42291 0
M  V30 7143 C 678.195 0.207901 2.06355 0
M  V30 7144 C 678.62 -1.12723 1.50583 0
M  V30 7145 O 677.978 -1.70171 0.62543 0
M  V30 7146 C 678.026 0.156489 3.6026 0
M  V30 7147 O 677.13 -0.874162 4.03029 0
M  V30 7148 H 676.471 0.106056 0.655475 0
M  V30 7149 H 679.001 0.927354 1.82377 0
M  V30 7150 H 679.011 -0.0187258 4.07996 0
M  V30 7151 H 677.686 1.13101 4.00226 0
M  V30 7152 H 676.263 -0.669764 3.66836 0
M  V30 7153 N 678.448 -1.51871 0.421078 0
M  V30 7154 C 679.378 -2.30231 -0.389363 0
M  V30 7155 C 680.359 -1.34946 -1.03555 0
M  V30 7156 O 681.544 -1.63859 -1.04229 0
M  V30 7157 C 678.674 -3.13247 -1.49979 0
M  V30 7158 C 677.628 -4.16677 -0.977966 0
M  V30 7159 C 676.954 -4.88112 -2.1829 0
M  V30 7160 C 678.254 -5.22295 -0.0236775 0
M  V30 7161 H 679.948 -2.98229 0.264524 0
M  V30 7162 H 677.494 -1.43424 0.12866 0
M  V30 7163 H 679.447 -3.66838 -2.07383 0
M  V30 7164 H 678.171 -2.4304 -2.18173 0
M  V30 7165 H 676.83 -3.64114 -0.426245 0
M  V30 7166 H 676.478 -4.14423 -2.85066 0
M  V30 7167 H 676.178 -5.58041 -1.84021 0
M  V30 7168 H 677.702 -5.44521 -2.76278 0
M  V30 7169 H 679.116 -5.71055 -0.506899 0
M  V30 7170 H 677.513 -5.99656 0.230782 0
M  V30 7171 H 678.583 -4.76131 0.917999 0
M  V30 7172 N 679.926 -0.151884 -1.56866 0
M  V30 7173 C 681.172 0.498742 -1.96572 0
M  V30 7174 C 681.505 1.64194 -1.03702 0
M  V30 7175 O 680.78 1.94334 -0.0803432 0
M  V30 7176 C 681.063 1.00027 -3.45929 0
M  V30 7177 C 680.916 -0.141767 -4.49577 0
M  V30 7178 C 682.235 1.88044 -3.97904 0
M  V30 7179 H 679.354 0.17982 -0.714726 0
M  V30 7180 H 681.996 -0.234097 -1.88552 0
M  V30 7181 H 680.146 1.62476 -3.52894 0
M  V30 7182 H 681.818 -0.778269 -4.54687 0
M  V30 7183 H 680.061 -0.80019 -4.26356 0
M  V30 7184 H 680.732 0.250947 -5.51429 0
M  V30 7185 H 683.208 1.35416 -3.93449 0
M  V30 7186 H 682.084 2.20043 -5.02864 0
M  V30 7187 H 682.345 2.81916 -3.40552 0
M  V30 7188 N 681.404 1.57128 0.121893 0
M  V30 7189 C 682.632 1.88883 0.844451 0
M  V30 7190 C 683.047 0.742824 1.73573 0
M  V30 7191 O 682.404 -0.286475 1.80238 0
M  V30 7192 C 682.455 3.20076 1.68029 0
M  V30 7193 O 682.176 4.30264 0.824898 0
M  V30 7194 C 683.677 3.65515 2.50826 0
M  V30 7195 H 680.897 0.62549 0.242907 0
M  V30 7196 H 683.441 2.04219 0.107151 0
M  V30 7197 H 681.596 3.06418 2.37038 0
M  V30 7198 H 682.01 5.05439 1.40113 0
M  V30 7199 H 683.484 4.60081 3.05008 0
M  V30 7200 H 683.961 2.92029 3.28048 0
M  V30 7201 H 684.567 3.81952 1.87064 0
M  V30 7202 N 682.882 -0.391992 1.52647 0
M  V30 7203 C 684.13 -1.13507 1.67214 0
M  V30 7204 C 684.451 -1.90575 0.41304 0
M  V30 7205 O 683.721 -1.87348 -0.572498 0
M  V30 7206 H 682.301 -0.422013 0.616372 0
M  V30 7207 H 684.963 -0.44502 1.89751 0
M  V30 7208 H 684.059 -1.83964 2.52118 0
M  V30 7209 N 684.36 -1.4356 -0.65026 0
M  V30 7210 C 685.307 -1.48948 -1.76304 0
M  V30 7211 C 686.277 -0.338919 -1.62605 0
M  V30 7212 O 687.462 -0.54649 -1.82806 0
M  V30 7213 C 684.602 -1.42131 -3.14472 0
M  V30 7214 C 683.715 -2.67415 -3.39284 0
M  V30 7215 C 682.85 -2.52565 -4.67316 0
M  V30 7216 C 681.889 -3.73103 -4.85243 0
M  V30 7217 N 681.026 -3.57046 -6.04535 0
M  V30 7218 H 685.866 -2.44032 -1.71034 0
M  V30 7219 H 683.403 -1.21131 -0.834601 0
M  V30 7220 H 685.361 -1.36172 -3.94351 0
M  V30 7221 H 683.991 -0.506273 -3.18805 0
M  V30 7222 H 683.043 -2.8364 -2.53481 0
M  V30 7223 H 684.355 -3.56943 -3.48415 0
M  V30 7224 H 683.509 -2.44331 -5.55326 0
M  V30 7225 H 682.248 -1.60566 -4.60511 0
M  V30 7226 H 681.253 -3.81743 -3.95667 0
M  V30 7227 H 682.478 -4.66115 -4.93876 0
M  V30 7228 H 680.424 -2.67783 -5.98856 0
M  V30 7229 H 680.341 -4.40178 -6.14638 0
M  V30 7230 H 681.609 -3.52669 -6.95158 0
M  V30 7231 N 685.838 0.888903 -1.30139 0
M  V30 7232 C 687.063 1.67884 -1.21777 0
M  V30 7233 C 687.488 1.86848 0.216689 0
M  V30 7234 O 686.846 1.39659 1.15608 0
M  V30 7235 C 686.894 3.03483 -1.94757 0
M  V30 7236 O 685.998 3.92294 -1.27198 0
M  V30 7237 H 685.339 0.513144 -0.421402 0
M  V30 7238 H 687.869 1.10968 -1.71893 0
M  V30 7239 H 687.879 3.53553 -2.03627 0
M  V30 7240 H 686.554 2.89 -2.99085 0
M  V30 7241 H 685.131 3.50732 -1.26655 0
M  V30 7242 N 687.317 1.12792 1.10072 0
M  V30 7243 C 688.728 0.899346 1.63611 0
M  V30 7244 C 689.079 -0.565547 1.87872 0
M  V30 7245 O 688.204 -1.43081 1.62348 0
M  V30 7246 C 688.799 1.62608 2.97227 0
M  V30 7247 C 687.358 1.44356 3.47618 0
M  V30 7248 C 686.505 1.65958 2.22156 0
M  V30 7249 H 689.456 1.28216 0.935223 0
M  V30 7250 H 689.477 1.0793 3.64872 0
M  V30 7251 H 688.989 2.69221 2.79538 0
M  V30 7252 H 687.09 0.400148 3.70445 0
M  V30 7253 H 687.203 2.20218 4.25489 0
M  V30 7254 H 685.567 1.08395 2.30484 0
M  V30 7255 H 686.35 2.73877 2.06993 0
M  V30 7256 N 688.795 -1.27931 0.920396 0
M  V30 7257 C 689.725 -2.29487 0.431024 0
M  V30 7258 C 690.706 -1.62435 -0.504861 0
M  V30 7259 O 691.891 -1.89797 -0.411176 0
M  V30 7260 C 689.021 -3.45788 -0.323709 0
M  V30 7261 C 687.975 -4.24784 0.523658 0
M  V30 7262 C 687.301 -5.33488 -0.359809 0
M  V30 7263 C 688.601 -4.90874 1.78437 0
M  V30 7264 H 690.295 -2.70671 1.27975 0
M  V30 7265 H 687.841 -1.30121 0.616813 0
M  V30 7266 H 689.794 -4.15927 -0.676952 0
M  V30 7267 H 688.518 -3.03502 -1.2064 0
M  V30 7268 H 687.177 -3.56382 0.85951 0
M  V30 7269 H 686.825 -4.87445 -1.24124 0
M  V30 7270 H 686.525 -5.87247 0.203605 0
M  V30 7271 H 688.049 -6.06472 -0.708787 0
M  V30 7272 H 689.463 -5.53339 1.49963 0
M  V30 7273 H 687.86 -5.54659 2.29071 0
M  V30 7274 H 688.93 -4.14988 2.50824 0
M  V30 7275 N 690.273 -0.685099 -1.4193 0
M  V30 7276 C 691.52 -0.211658 -2.01391 0
M  V30 7277 C 691.848 1.18526 -1.54214 0
M  V30 7278 O 691.103 1.81189 -0.739519 0
M  V30 7279 C 691.402 -0.206154 -3.56805 0
M  V30 7280 C 691.068 -1.54915 -4.23453 0
M  V30 7281 C 689.73 -1.91684 -4.41373 0
M  V30 7282 C 692.082 -2.43317 -4.60919 0
M  V30 7283 C 689.41 -3.16461 -4.94034 0
M  V30 7284 C 691.762 -3.67415 -5.14965 0
M  V30 7285 C 690.426 -4.04341 -5.31098 0
M  V30 7286 H 689.696 -0.0774511 -0.736941 0
M  V30 7287 H 692.343 -0.882121 -1.69973 0
M  V30 7288 H 690.648 0.547841 -3.87951 0
M  V30 7289 H 692.345 0.17753 -4.00607 0
M  V30 7290 H 688.935 -1.25314 -4.09871 0
M  V30 7291 H 693.119 -2.16192 -4.46738 0
M  V30 7292 H 688.375 -3.45078 -5.04709 0
M  V30 7293 H 692.549 -4.3611 -5.42938 0
M  V30 7294 H 690.176 -5.01101 -5.71666 0
M  V30 7295 N 691.751 1.51645 -0.429126 0
M  V30 7296 C 692.714 2.26116 0.374726 0
M  V30 7297 C 693.714 1.29242 0.956714 0
M  V30 7298 O 694.904 1.53022 0.832452 0
M  V30 7299 C 692.036 3.04669 1.52937 0
M  V30 7300 H 693.229 2.9861 -0.277818 0
M  V30 7301 H 690.782 1.55236 -0.182097 0
M  V30 7302 H 691.517 2.36571 2.21821 0
M  V30 7303 H 691.302 3.75814 1.11833 0
M  V30 7304 H 692.792 3.61102 2.09751 0
M  V30 7305 N 693.229 0.160201 1.56784 0
M  V30 7306 C 694.192 -0.760405 2.16219 0
M  V30 7307 C 695.192 -1.16595 1.10735 0
M  V30 7308 O 696.382 -1.08472 1.36306 0
M  V30 7309 C 693.514 -2.03358 2.73603 0
M  V30 7310 H 694.707 -0.243173 2.98912 0
M  V30 7311 H 692.26 -0.0893139 1.56045 0
M  V30 7312 H 692.995 -2.59416 1.94612 0
M  V30 7313 H 692.78 -1.75186 3.50788 0
M  V30 7314 H 694.27 -2.69081 3.19351 0
M  V30 7315 N 694.707 -1.5719 -0.113559 0
M  V30 7316 C 695.657 -1.97166 -1.14497 0
M  V30 7317 C 696.641 -0.847413 -1.36776 0
M  V30 7318 O 697.833 -1.11114 -1.37777 0
M  V30 7319 C 694.962 -2.38411 -2.47013 0
M  V30 7320 C 694.048 -3.5748 -2.28185 0
M  V30 7321 N 694.439 -4.72998 -1.79182 0
M  V30 7322 C 692.737 -3.63218 -2.58821 0
M  V30 7323 C 693.438 -5.55007 -1.74191 0
M  V30 7324 N 692.414 -4.9765 -2.18735 0
M  V30 7325 H 696.216 -2.83937 -0.758733 0
M  V30 7326 H 693.73 -1.59191 -0.321234 0
M  V30 7327 H 695.727 -2.65269 -3.21618 0
M  V30 7328 H 694.387 -1.53007 -2.8639 0
M  V30 7329 H 695.398 -4.96109 -1.48649 0
M  V30 7330 H 692.075 -2.88434 -3.01847 0
M  V30 7331 H 693.465 -6.57678 -1.37512 0
M  V30 7332 N 696.185 0.383891 -1.52853 0
M  V30 7333 C 697.433 1.12619 -1.67814 0
M  V30 7334 C 697.754 1.90354 -0.423141 0
M  V30 7335 O 697.024 1.87649 0.562554 0
M  V30 7336 H 695.604 0.418738 -0.618601 0
M  V30 7337 H 698.266 0.43495 -1.89985 0
M  V30 7338 H 697.362 1.82624 -2.5309 0
M  V30 7339 N 697.663 1.43903 0.642637 0
M  V30 7340 C 698.911 1.45791 1.39962 0
M  V30 7341 C 699.232 0.0873144 1.94804 0
M  V30 7342 O 698.502 -0.878825 1.75081 0
M  V30 7343 H 697.082 0.536797 0.519479 0
M  V30 7344 H 699.744 1.7959 0.757189 0
M  V30 7345 H 698.84 2.17665 2.2367 0
M  V30 7346 N 699.141 -0.881989 1.30609 0
M  V30 7347 C 700.366 -1.67236 1.22665 0
M  V30 7348 C 700.791 -1.8696 -0.206777 0
M  V30 7349 O 700.149 -1.4027 -1.14865 0
M  V30 7350 C 700.197 -3.02446 1.96363 0
M  V30 7351 O 699.301 -3.91614 1.29276 0
M  V30 7352 H 698.642 -0.510902 0.424117 0
M  V30 7353 H 701.172 -1.10055 1.72479 0
M  V30 7354 H 701.182 -3.52468 2.055 0
M  V30 7355 H 699.857 -2.8741 3.00613 0
M  V30 7356 H 698.434 -3.50055 1.28514 0
M  V30 7357 N 700.619 -1.13374 -1.09472 0
M  V30 7358 C 701.844 -0.918711 -1.85942 0
M  V30 7359 C 702.269 0.527225 -1.8056 0
M  V30 7360 O 701.627 1.37408 -1.18274 0
M  V30 7361 C 701.675 -1.41056 -3.31867 0
M  V30 7362 O 700.779 -0.595496 -4.08078 0
M  V30 7363 H 700.12 -0.329297 -0.576593 0
M  V30 7364 H 702.65 -1.50829 -1.38245 0
M  V30 7365 H 702.66 -1.41398 -3.82715 0
M  V30 7366 H 701.335 -2.46335 -3.35099 0
M  V30 7367 H 699.912 -0.659911 -3.67014 0
M  V30 7368 N 702.098 1.27442 -0.927168 0
M  V30 7369 C 703.514 1.46754 -0.627329 0
M  V30 7370 C 703.714 1.83902 0.823549 0
M  V30 7371 O 702.77 1.95215 1.60148 0
M  V30 7372 C 704.083 2.56045 -1.57674 0
M  V30 7373 C 705.631 2.69906 -1.58491 0
M  V30 7374 C 706.106 3.82355 -2.52128 0
M  V30 7375 N 707.597 3.89728 -2.50332 0
M  V30 7376 C 708.332 4.76155 -3.19475 0
M  V30 7377 N 707.828 5.67073 -3.97995 0
M  V30 7378 N 709.621 4.6988 -3.08496 0
M  V30 7379 H 701.772 1.01613 -1.86517 0
M  V30 7380 H 704.035 0.507443 -0.800753 0
M  V30 7381 H 703.741 2.35542 -2.61176 0
M  V30 7382 H 703.615 3.53423 -1.31804 0
M  V30 7383 H 706.002 2.89792 -0.557208 0
M  V30 7384 H 706.083 1.73018 -1.8841 0
M  V30 7385 H 705.727 3.63224 -3.55008 0
M  V30 7386 H 705.657 4.7867 -2.19505 0
M  V30 7387 H 708.148 3.24717 -1.93306 0
M  V30 7388 H 708.461 6.2988 -4.4774 0
M  V30 7389 H 706.806 5.6687 -4.02098 0
M  V30 7390 H 709.997 3.97848 -2.46646 0
M  V30 7391 H 710.17 5.37017 -3.62652 0
M  V30 7392 N 703.576 0.692616 1.41565 0
M  V30 7393 C 704.486 0.0258451 2.34586 0
M  V30 7394 C 705.502 -0.769324 1.56069 0
M  V30 7395 O 706.678 -0.707563 1.88562 0
M  V30 7396 C 703.743 -0.901289 3.3478 0
M  V30 7397 C 702.804 -0.0986579 4.29187 0
M  V30 7398 C 702.037 -0.981634 5.24595 0
M  V30 7399 O 702.26 -2.22115 5.25377 0
M  V30 7400 O 701.194 -0.432892 6.00341 0
M  V30 7401 H 705.02 0.792537 2.93177 0
M  V30 7402 H 702.605 0.452935 1.42369 0
M  V30 7403 H 704.487 -1.43302 3.96286 0
M  V30 7404 H 703.162 -1.64752 2.78637 0
M  V30 7405 H 702.069 0.477604 3.71039 0
M  V30 7406 H 703.402 0.608848 4.8842 0
M  V30 7407 N 705.054 -1.51416 0.437162 0
M  V30 7408 C 706.002 -2.29328 -0.388765 0
M  V30 7409 C 706.996 -1.35171 -1.02104 0
M  V30 7410 O 708.202 -1.52513 -0.956024 0
M  V30 7411 H 704.577 -0.738048 -0.144183 0
M  V30 7412 H 706.548 -2.96995 0.289212 0
M  V30 7413 C 705.297 -3.14741 -1.47761 0
M  V30 7414 H 704.62 -3.8708 -1.00045 0
M  V30 7415 H 706.06 -3.72313 -2.02877 0
M  V30 7416 C 704.519 -2.30105 -2.46076 0
M  V30 7417 O 705.049 -1.96055 -3.50607 0
M  V30 7418 N 703.255 -1.93331 -2.1696 0
M  V30 7419 H 702.802 -2.2122 -1.31983 0
M  V30 7420 H 702.76 -1.36999 -2.82982 0
M  V30 7421 N 706.532 -0.168513 -1.56696 0
M  V30 7422 C 707.462 0.758563 -2.20835 0
M  V30 7423 C 708.443 1.24121 -1.1631 0
M  V30 7424 O 709.628 1.29487 -1.4473 0
M  V30 7425 C 706.758 1.9892 -2.8469 0
M  V30 7426 C 705.712 1.64252 -3.95228 0
M  V30 7427 C 705.038 2.94757 -4.46119 0
M  V30 7428 C 706.338 0.872675 -5.14958 0
M  V30 7429 H 708.032 0.223953 -2.98561 0
M  V30 7430 H 705.578 0.106277 -1.43607 0
M  V30 7431 H 707.531 2.64275 -3.28233 0
M  V30 7432 H 706.255 2.5479 -2.04327 0
M  V30 7433 H 704.914 1.01266 -3.52336 0
M  V30 7434 H 704.562 3.48662 -3.62552 0
M  V30 7435 H 704.262 2.72316 -5.2069 0
M  V30 7436 H 705.786 3.61147 -4.92347 0
M  V30 7437 H 707.2 1.42875 -5.55211 0
M  V30 7438 H 705.597 0.747402 -5.95428 0
M  V30 7439 H 706.667 -0.131535 -4.84722 0
M  V30 7440 N 708.01 1.57248 0.105221 0
M  V30 7441 C 708.973 2.00388 1.11252 0
M  V30 7442 C 709.973 0.89594 1.33527 0
M  V30 7443 O 711.163 1.16166 1.29811 0
M  V30 7444 C 708.295 2.35589 2.46395 0
M  V30 7445 H 709.488 2.90591 0.741424 0
M  V30 7446 H 707.041 1.52332 0.349956 0
M  V30 7447 H 707.776 1.4831 2.884 0
M  V30 7448 H 707.561 3.16408 2.31578 0
M  V30 7449 H 709.051 2.69658 3.18864 0
M  V30 7450 N 709.488 -0.375779 1.53054 0
M  V30 7451 C 710.418 -1.46598 1.81745 0
M  V30 7452 C 711.399 -1.56337 0.670286 0
M  V30 7453 O 712.584 -1.71071 0.919158 0
M  V30 7454 C 709.714 -2.84058 1.99821 0
M  V30 7455 C 708.668 -2.8915 3.15557 0
M  V30 7456 C 707.994 -4.29187 3.18908 0
M  V30 7457 C 709.294 -2.57595 4.54359 0
M  V30 7458 H 710.988 -1.22837 2.73041 0
M  V30 7459 H 708.534 -0.589485 1.31381 0
M  V30 7460 H 710.487 -3.60342 2.18475 0
M  V30 7461 H 709.211 -3.09184 1.05226 0
M  V30 7462 H 707.87 -2.15316 2.96706 0
M  V30 7463 H 707.518 -4.51374 2.2197 0
M  V30 7464 H 707.218 -4.33512 3.96662 0
M  V30 7465 H 708.742 -5.07359 3.39734 0
M  V30 7466 H 710.156 -3.23595 4.73243 0
M  V30 7467 H 708.553 -2.73252 5.34279 0
M  V30 7468 H 709.623 -1.52882 4.60169 0
M  V30 7469 N 710.966 -1.44241 -0.634997 0
M  V30 7470 C 711.898 -1.46793 -1.76024 0
M  V30 7471 C 712.911 -0.361781 -1.58729 0
M  V30 7472 O 714.1 -0.627297 -1.67114 0
M  V30 7473 C 711.2 -1.28248 -3.13697 0
M  V30 7474 C 710.373 -2.52038 -3.57485 0
M  V30 7475 C 709.432 -2.2845 -4.74022 0
M  V30 7476 O 708.458 -3.01915 -4.82531 0
M  V30 7477 N 709.66 -1.31264 -5.65464 0
M  V30 7478 H 712.425 -2.43797 -1.74307 0
M  V30 7479 H 709.986 -1.39631 -0.819438 0
M  V30 7480 H 711.978 -1.10321 -3.89373 0
M  V30 7481 H 710.548 -0.39623 -3.10079 0
M  V30 7482 H 709.768 -2.85268 -2.72059 0
M  V30 7483 H 711.056 -3.34382 -3.83492 0
M  V30 7484 H 710.454 -0.705817 -5.6128 0
M  V30 7485 H 709.011 -1.19316 -6.40786 0
M  V30 7486 N 712.444 0.87505 -1.31075 0
M  V30 7487 C 713.392 2.00317 -1.18219 0
M  V30 7488 C 714.386 1.69152 -0.0916872 0
M  V30 7489 O 715.592 1.7821 -0.253229 0
M  V30 7490 H 711.967 0.656981 -0.365895 0
M  V30 7491 H 713.938 2.08293 -2.13674 0
M  V30 7492 C 712.687 3.35821 -0.901095 0
M  V30 7493 H 712.01 3.6032 -1.73233 0
M  V30 7494 H 713.45 4.15366 -0.851295 0
M  V30 7495 C 711.909 3.34563 0.396114 0
M  V30 7496 O 712.439 3.75971 1.41452 0
M  V30 7497 N 710.645 2.87681 0.410832 0
M  V30 7498 H 710.192 2.54179 -0.418415 0
M  V30 7499 H 710.15 2.87223 1.27869 0
M  V30 7500 N 713.922 1.13953 1.08869 0
M  V30 7501 C 715.168 0.906151 1.8143 0
M  V30 7502 C 715.501 -0.566089 1.85766 0
M  V30 7503 O 714.776 -1.41915 1.33006 0
M  V30 7504 C 715.059 1.50183 3.27287 0
M  V30 7505 C 714.912 3.04359 3.31189 0
M  V30 7506 C 716.231 1.17477 4.24131 0
M  V30 7507 H 713.35 0.330624 0.658678 0
M  V30 7508 H 715.992 1.40873 1.27495 0
M  V30 7509 H 714.142 1.07442 3.73348 0
M  V30 7510 H 715.814 3.55896 2.93488 0
M  V30 7511 H 714.057 3.39053 2.70602 0
M  V30 7512 H 714.728 3.41141 4.33966 0
M  V30 7513 H 717.204 1.5442 3.86385 0
M  V30 7514 H 716.08 1.61795 5.24513 0
M  V30 7515 H 716.341 0.0893312 4.4201 0
M  V30 7516 N 715.4 -1.26948 0.933913 0
M  V30 7517 C 716.332 -2.25768 0.395137 0
M  V30 7518 C 717.345 -1.55637 -0.477585 0
M  V30 7519 O 718.534 -1.76142 -0.289204 0
M  V30 7520 C 715.634 -3.35874 -0.451882 0
M  V30 7521 C 714.807 -4.3554 0.40299 0
M  V30 7522 C 713.866 -5.24809 -0.3824 0
M  V30 7523 O 712.892 -5.68805 0.212057 0
M  V30 7524 N 714.094 -5.55636 -1.68072 0
M  V30 7525 H 716.859 -2.72634 1.24463 0
M  V30 7526 H 714.42 -1.40639 0.802008 0
M  V30 7527 H 716.412 -3.92542 -0.984516 0
M  V30 7528 H 714.982 -2.8856 -1.20215 0
M  V30 7529 H 714.202 -3.78047 1.11688 0
M  V30 7530 H 715.49 -4.99131 0.987201 0
M  V30 7531 H 714.888 -5.2176 -2.18592 0
M  V30 7532 H 713.445 -6.14978 -2.15975 0
M  V30 7533 N 716.879 -0.700114 -1.41195 0
M  V30 7534 C 717.842 -0.0465706 -2.29153 0
M  V30 7535 C 718.842 0.703302 -1.44604 0
M  V30 7536 O 720.032 0.537513 -1.657 0
M  V30 7537 C 717.164 0.944324 -3.2756 0
M  V30 7538 H 718.357 -0.821064 -2.88442 0
M  V30 7539 H 715.91 -0.463869 -1.49258 0
M  V30 7540 H 716.645 1.74642 -2.73259 0
M  V30 7541 H 716.43 0.409701 -3.89954 0
M  V30 7542 H 717.92 1.39925 -3.9346 0
M  V30 7543 N 718.357 1.51182 -0.445186 0
M  V30 7544 C 719.773 1.59299 -0.0978954 0
M  V30 7545 C 719.973 1.4555 1.39346 0
M  V30 7546 O 719.029 1.30073 2.16419 0
M  V30 7547 C 720.342 2.94133 -0.625005 0
M  V30 7548 C 721.89 3.07463 -0.586137 0
M  V30 7549 C 722.365 4.44832 -1.09035 0
M  V30 7550 N 723.856 4.51173 -1.04867 0
M  V30 7551 C 724.591 5.55804 -1.40959 0
M  V30 7552 N 724.087 6.67816 -1.84375 0
M  V30 7553 N 725.88 5.46205 -1.32726 0
M  V30 7554 H 718.031 1.58363 -1.41544 0
M  V30 7555 H 720.294 0.746946 -0.58376 0
M  V30 7556 H 720 3.09589 -1.66876 0
M  V30 7557 H 719.874 3.77161 -0.0542262 0
M  V30 7558 H 722.261 2.9167 0.448646 0
M  V30 7559 H 722.342 2.26255 -1.19341 0
M  V30 7560 H 721.986 4.61372 -2.12364 0
M  V30 7561 H 721.916 5.24591 -0.459539 0
M  V30 7562 H 724.407 3.70783 -0.729932 0
M  V30 7563 H 724.72 7.43683 -2.10131 0
M  V30 7564 H 723.065 6.69003 -1.88308 0
M  V30 7565 H 726.256 4.57583 -0.986678 0
M  V30 7566 H 726.429 6.27634 -1.61182 0
M  V30 7567 N 719.835 0.176821 1.56605 0
M  V30 7568 C 721.084 -0.466833 1.96223 0
M  V30 7569 C 721.397 -1.64015 1.06576 0
M  V30 7570 O 722.603 -2.3504 1.35898 0
M  V30 7571 C 721.059 -0.881921 3.48927 0
M  V30 7572 C 720.667 0.266102 4.47209 0
M  V30 7573 C 722.411 -1.49368 3.97353 0
M  V30 7574 C 720.318 -0.168923 5.91159 0
M  V30 7575 H 719.248 -0.178178 0.732645 0
M  V30 7576 H 721.899 0.265929 1.81563 0
M  V30 7577 H 720.281 -1.67082 3.59026 0
M  V30 7578 H 721.455 1.04349 4.4883 0
M  V30 7579 H 719.77 0.788178 4.08872 0
M  V30 7580 H 722.367 -1.8313 5.02362 0
M  V30 7581 H 722.71 -2.3936 3.40606 0
M  V30 7582 H 723.243 -0.769114 3.90294 0
M  V30 7583 H 719.982 0.696351 6.51791 0
M  V30 7584 H 719.502 -0.911552 5.92833 0
M  V30 7585 H 721.181 -0.610938 6.44109 0
M  V30 7586 N 721.313 -1.57302 -0.09688 0
M  V30 7587 C 722.729 -1.53094 -0.451041 0
M  V30 7588 C 722.929 -0.893265 -1.80618 0
M  V30 7589 O 721.985 -0.485013 -2.47798 0
M  V30 7590 C 723.298 -2.9782 -0.415172 0
M  V30 7591 C 724.846 -3.09026 -0.497155 0
M  V30 7592 C 725.321 -4.55356 -0.491452 0
M  V30 7593 N 726.812 -4.59896 -0.552258 0
M  V30 7594 C 727.547 -5.70563 -0.569654 0
M  V30 7595 N 727.043 -6.90666 -0.543365 0
M  V30 7596 N 728.836 -5.58733 -0.614331 0
M  V30 7597 H 720.987 -1.97131 0.790771 0
M  V30 7598 H 723.25 -0.901211 0.294147 0
M  V30 7599 H 722.956 -3.47933 0.513362 0
M  V30 7600 H 722.83 -3.56416 -1.23481 0
M  V30 7601 H 725.217 -2.58902 -1.41611 0
M  V30 7602 H 725.298 -2.53386 0.35059 0
M  V30 7603 H 724.942 -5.06131 0.423549 0
M  V30 7604 H 724.872 -5.08832 -1.35639 0
M  V30 7605 H 727.363 -3.73456 -0.577842 0
M  V30 7606 H 727.676 -7.70769 -0.559873 0
M  V30 7607 H 726.021 -6.93123 -0.510441 0
M  V30 7608 H 729.212 -4.63809 -0.632387 0
M  V30 7609 H 729.385 -6.44984 -0.62442 0
M  V30 7610 N 722.791 0.367657 -1.53252 0
M  V30 7611 C 723.724 1.47264 -1.74323 0
M  V30 7612 C 724.702 1.51458 -0.591535 0
M  V30 7613 O 725.886 1.69542 -0.823883 0
M  V30 7614 C 723.013 2.85637 -1.82015 0
M  V30 7615 C 722.059 2.99176 -3.03967 0
M  V30 7616 S 722.892 2.68147 -4.63527 0
M  V30 7617 C 724.048 4.08673 -4.74065 0
M  V30 7618 H 724.281 1.29169 -2.67773 0
M  V30 7619 H 721.814 0.561866 -1.43814 0
M  V30 7620 H 723.772 3.65365 -1.87132 0
M  V30 7621 H 722.433 3.01043 -0.896195 0
M  V30 7622 H 721.626 4.00511 -3.05953 0
M  V30 7623 H 721.228 2.27367 -2.96952 0
M  V30 7624 H 723.52 5.02889 -4.53992 0
M  V30 7625 H 724.463 4.11693 -5.7612 0
M  V30 7626 H 724.871 3.95576 -4.02716 0
M  V30 7627 N 724.269 1.44576 0.627338 0
M  V30 7628 C 725.515 1.47777 1.38888 0
M  V30 7629 C 725.848 0.111406 1.9388 0
M  V30 7630 O 725.123 -0.87149 1.73883 0
M  V30 7631 C 725.406 2.54119 2.55138 0
M  V30 7632 C 725.259 4.00128 2.0547 0
M  V30 7633 C 726.578 2.56929 3.57317 0
M  V30 7634 H 723.697 0.538048 0.50366 0
M  V30 7635 H 726.339 1.76277 0.708978 0
M  V30 7636 H 724.489 2.29948 3.13139 0
M  V30 7637 H 726.161 4.35444 1.5227 0
M  V30 7638 H 724.404 4.11724 1.36623 0
M  V30 7639 H 725.075 4.7019 2.89181 0
M  V30 7640 H 727.551 2.78536 3.09122 0
M  V30 7641 H 726.427 3.33234 4.36173 0
M  V30 7642 H 726.688 1.6127 4.11636 0
M  V30 7643 N 725.747 -0.868086 1.31537 0
M  V30 7644 C 726.677 -1.99131 1.21939 0
M  V30 7645 C 727.658 -1.69768 0.106166 0
M  V30 7646 O 728.843 -1.92006 0.291081 0
M  V30 7647 C 725.973 -3.34676 0.927879 0
M  V30 7648 C 724.927 -3.7835 2.00088 0
M  V30 7649 C 724.253 -5.11375 1.56203 0
M  V30 7650 C 725.553 -3.95256 3.41424 0
M  V30 7651 H 727.247 -2.07419 2.15911 0
M  V30 7652 H 724.793 -0.996569 1.03945 0
M  V30 7653 H 726.746 -4.12793 0.847327 0
M  V30 7654 H 725.47 -3.26565 -0.0475042 0
M  V30 7655 H 724.129 -3.02474 2.07135 0
M  V30 7656 H 723.777 -4.99709 0.57445 0
M  V30 7657 H 723.477 -5.41568 2.27985 0
M  V30 7658 H 725.001 -5.92001 1.49558 0
M  V30 7659 H 726.415 -4.63764 3.3704 0
M  V30 7660 H 724.812 -4.36849 4.1144 0
M  V30 7661 H 725.882 -2.98579 3.82072 0
M  V30 7662 N 727.225 -1.14528 -1.08264 0
M  V30 7663 C 728.188 -0.83632 -2.13397 0
M  V30 7664 C 729.188 0.159715 -1.60005 0
M  V30 7665 O 730.378 -0.0688098 -1.74064 0
M  V30 7666 C 727.51 -0.246973 -3.40004 0
M  V30 7667 H 728.703 -1.76808 -2.42237 0
M  V30 7668 H 726.256 -0.951509 -1.24 0
M  V30 7669 H 726.991 0.693436 -3.168 0
M  V30 7670 H 726.776 -0.964412 -3.80055 0
M  V30 7671 H 728.266 -0.0480679 -4.17572 0
M  V30 7672 N 728.703 1.26451 -0.940633 0
M  V30 7673 C 729.933 1.97581 -0.603766 0
M  V30 7674 C 730.341 1.70246 0.825395 0
M  V30 7675 O 729.684 0.967001 1.56188 0
M  V30 7676 C 729.746 3.51256 -0.765463 0
M  V30 7677 C 729.41 4.0224 -2.16915 0
M  V30 7678 C 730.407 4.1402 -3.14457 0
M  V30 7679 C 728.092 4.36263 -2.48958 0
M  V30 7680 C 730.086 4.59117 -4.42143 0
M  V30 7681 C 727.773 4.81048 -3.76877 0
M  V30 7682 C 728.771 4.92436 -4.73282 0
M  V30 7683 O 728.459 5.36234 -5.98923 0
M  V30 7684 H 728.191 0.636948 -0.226436 0
M  V30 7685 H 730.745 1.61941 -1.2635 0
M  V30 7686 H 728.975 3.86669 -0.0485956 0
M  V30 7687 H 730.664 4.03597 -0.431738 0
M  V30 7688 H 731.43 3.87981 -2.91026 0
M  V30 7689 H 727.309 4.26634 -1.74656 0
M  V30 7690 H 730.853 4.6792 -5.17394 0
M  V30 7691 H 726.75 5.06531 -4.00121 0
M  V30 7692 H 727.518 5.54456 -6.02097 0
M  V30 7693 N 730.181 0.707592 1.40822 0
M  V30 7694 C 731.111 0.0644925 2.33411 0
M  V30 7695 C 732.092 -0.754205 1.52466 0
M  V30 7696 O 733.277 -0.704749 1.80961 0
M  V30 7697 C 730.407 -0.863865 3.36385 0
M  V30 7698 C 729.361 -0.15138 4.27732 0
M  V30 7699 C 728.687 -1.19491 5.21177 0
M  V30 7700 C 729.987 0.989607 5.12839 0
M  V30 7701 H 731.681 0.837829 2.87438 0
M  V30 7702 H 729.227 0.404346 1.38207 0
M  V30 7703 H 731.18 -1.32309 4.0009 0
M  V30 7704 H 729.904 -1.66901 2.80734 0
M  V30 7705 H 728.563 0.287937 3.65467 0
M  V30 7706 H 728.211 -1.9929 4.61836 0
M  V30 7707 H 727.911 -0.723123 5.83134 0
M  V30 7708 H 729.435 -1.6544 5.8776 0
M  V30 7709 H 730.849 0.610114 5.70044 0
M  V30 7710 H 729.246 1.38926 5.83798 0
M  V30 7711 H 730.316 1.82389 4.49291 0
M  V30 7712 N 731.66 -1.50943 0.453197 0
M  V30 7713 C 732.907 -2.02212 -0.107922 0
M  V30 7714 C 733.235 -1.33639 -1.41318 0
M  V30 7715 O 732.49 -0.445154 -1.9057 0
M  V30 7716 C 732.789 -3.55603 -0.357944 0
M  V30 7717 C 732.455 -4.42556 0.863427 0
M  V30 7718 C 731.117 -4.6604 1.19834 0
M  V30 7719 C 733.469 -4.93468 1.67747 0
M  V30 7720 C 730.797 -5.37681 2.34768 0
M  V30 7721 C 733.149 -5.6637 2.81793 0
M  V30 7722 C 731.813 -5.88113 3.1572 0
M  V30 7723 H 731.083 -0.739947 -0.0394916 0
M  V30 7724 H 733.73 -1.81738 0.60363 0
M  V30 7725 H 732.035 -3.74495 -1.15156 0
M  V30 7726 H 733.732 -3.92821 -0.805781 0
M  V30 7727 H 730.322 -4.24485 0.592478 0
M  V30 7728 H 734.506 -4.75194 1.43192 0
M  V30 7729 H 729.762 -5.52727 2.61348 0
M  V30 7730 H 733.936 -6.04806 3.45229 0
M  V30 7731 H 731.563 -6.43404 4.04889 0
M  V30 7732 N 733.138 -0.185124 -1.56509 0
M  V30 7733 C 734.101 0.72591 -2.17401 0
M  V30 7734 C 735.101 1.14819 -1.12575 0
M  V30 7735 O 736.291 1.0629 -1.38015 0
M  V30 7736 C 733.423 1.98979 -2.76803 0
M  V30 7737 H 734.616 0.195588 -2.99262 0
M  V30 7738 H 732.169 0.0644772 -1.56167 0
M  V30 7739 H 732.904 2.56287 -1.98714 0
M  V30 7740 H 732.689 1.69583 -3.53531 0
M  V30 7741 H 734.179 2.63966 -3.23592 0
M  V30 7742 N 734.616 1.57351 0.0885366 0
M  V30 7743 C 735.548 1.99221 1.13329 0
M  V30 7744 C 736.561 0.895705 1.35945 0
M  V30 7745 O 737.75 1.17376 1.34481 0
M  V30 7746 C 734.85 2.3016 2.48756 0
M  V30 7747 C 734.023 3.61444 2.46327 0
M  V30 7748 C 733.082 3.80244 3.63732 0
M  V30 7749 O 732.108 4.52024 3.45924 0
M  V30 7750 N 733.31 3.2132 4.8346 0
M  V30 7751 H 736.075 2.89456 0.776862 0
M  V30 7752 H 733.636 1.59505 0.277428 0
M  V30 7753 H 735.628 2.39925 3.25911 0
M  V30 7754 H 734.198 1.459 2.76464 0
M  V30 7755 H 733.418 3.62588 1.54673 0
M  V30 7756 H 734.706 4.47678 2.41789 0
M  V30 7757 H 734.104 2.63028 5.00832 0
M  V30 7758 H 732.661 3.3656 5.58185 0
M  V30 7759 N 736.094 -0.359525 1.53444 0
M  V30 7760 C 737.024 -1.44662 1.8329 0
M  V30 7761 C 738.005 -1.55617 0.68683 0
M  V30 7762 O 739.19 -1.70086 0.93725 0
M  V30 7763 C 736.32 -2.81923 2.02822 0
M  V30 7764 C 735.274 -2.85787 3.18606 0
M  V30 7765 C 734.6 -4.25781 3.23442 0
M  V30 7766 C 735.9 -2.52762 4.57065 0
M  V30 7767 H 737.594 -1.19934 2.74329 0
M  V30 7768 H 735.14 -0.575517 1.31999 0
M  V30 7769 H 737.093 -3.58005 2.22285 0
M  V30 7770 H 735.817 -3.08051 1.085 0
M  V30 7771 H 734.476 -2.12157 2.98973 0
M  V30 7772 H 734.124 -4.48994 2.26745 0
M  V30 7773 H 733.824 -4.29281 4.01238 0
M  V30 7774 H 735.348 -5.03727 3.45096 0
M  V30 7775 H 736.762 -3.18557 4.76649 0
M  V30 7776 H 735.159 -2.67569 5.37147 0
M  V30 7777 H 736.229 -1.47993 4.61764 0
M  V30 7778 N 737.572 -1.44907 -0.619662 0
M  V30 7779 C 738.797 -1.52021 -1.41083 0
M  V30 7780 C 739.222 -0.14976 -1.87503 0
M  V30 7781 O 738.58 0.863303 -1.59426 0
M  V30 7782 C 738.628 -2.49911 -2.59955 0
M  V30 7783 O 737.732 -2.00857 -3.60181 0
M  V30 7784 H 737.073 -0.512912 -0.421684 0
M  V30 7785 H 739.603 -1.90149 -0.755282 0
M  V30 7786 H 739.613 -2.68323 -3.07354 0
M  V30 7787 H 738.288 -3.4945 -2.25516 0
M  V30 7788 H 736.865 -1.92265 -3.19513 0
M  V30 7789 N 739.05 0.861098 -1.31996 0
M  V30 7790 C 739.98 1.98482 -1.22993 0
M  V30 7791 C 740.961 1.6971 -0.115168 0
M  V30 7792 O 742.146 1.91849 -0.30126 0
M  V30 7793 C 739.276 3.34179 -0.945615 0
M  V30 7794 C 738.23 3.77284 -2.02091 0
M  V30 7795 C 737.556 5.1054 -1.58912 0
M  V30 7796 C 738.856 3.93439 -3.43515 0
M  V30 7797 H 740.55 2.06271 -2.17008 0
M  V30 7798 H 738.096 0.991043 -1.04472 0
M  V30 7799 H 740.049 4.12338 -0.869206 0
M  V30 7800 H 738.773 3.26586 0.0301849 0
M  V30 7801 H 737.432 3.01371 -2.08737 0
M  V30 7802 H 737.08 4.99397 -0.600942 0
M  V30 7803 H 736.78 5.40352 -2.30854 0
M  V30 7804 H 738.304 5.91199 -1.52696 0
M  V30 7805 H 739.718 4.6197 -3.39495 0
M  V30 7806 H 738.115 4.34661 -4.13751 0
M  V30 7807 H 739.185 2.96548 -3.8365 0
M  V30 7808 N 740.528 1.15101 1.07655 0
M  V30 7809 C 741.774 0.935313 1.8062 0
M  V30 7810 C 742.129 -0.532052 1.84897 0
M  V30 7811 O 741.422 -1.3893 1.31943 0
M  V30 7812 C 741.616 1.47954 3.25337 0
M  V30 7813 C 741.445 2.99829 3.35161 0
M  V30 7814 C 740.215 3.68348 3.45902 0
M  V30 7815 C 742.413 3.97638 3.26173 0
M  V30 7816 N 740.395 5.08062 3.44596 0
M  V30 7817 C 741.766 5.23651 3.31949 0
M  V30 7818 C 743.821 3.89651 3.09962 0
M  V30 7819 C 742.524 6.42609 3.23182 0
M  V30 7820 C 744.55 5.08164 3.02528 0
M  V30 7821 C 743.912 6.3305 3.08913 0
M  V30 7822 H 740.011 0.395876 0.674393 0
M  V30 7823 H 742.595 1.4625 1.28526 0
M  V30 7824 H 740.766 0.979022 3.75859 0
M  V30 7825 H 742.498 1.20298 3.86407 0
M  V30 7826 H 739.253 3.18928 3.50117 0
M  V30 7827 H 739.677 5.81023 3.47479 0
M  V30 7828 H 744.319 2.93966 3.03881 0
M  V30 7829 H 742.037 7.38531 3.28022 0
M  V30 7830 H 745.623 5.03742 2.91093 0
M  V30 7831 H 744.503 7.23214 3.03201 0
M  V30 7832 N 742.006 -1.2595 0.947325 0
M  V30 7833 C 743.231 -1.98083 0.614633 0
M  V30 7834 C 743.656 -1.70013 -0.804815 0
M  V30 7835 O 743.014 -0.95175 -1.54309 0
M  V30 7836 C 743.062 -3.4993 0.870706 0
M  V30 7837 O 742.166 -4.12364 -0.0541451 0
M  V30 7838 H 741.507 -0.621232 0.234451 0
M  V30 7839 H 744.037 -1.60259 1.27193 0
M  V30 7840 H 744.047 -4.00198 0.794051 0
M  V30 7841 H 742.722 -3.69691 1.90529 0
M  V30 7842 H 741.299 -3.72826 0.0740917 0
M  V30 7843 N 743.484 -0.715051 -1.40445 0
M  V30 7844 C 744.9 -0.388555 -1.54798 0
M  V30 7845 C 745.1 1.10271 -1.68649 0
M  V30 7846 O 744.156 1.88875 -1.67578 0
M  V30 7847 C 745.469 -1.15414 -2.77669 0
M  V30 7848 C 747.017 -1.14039 -2.91486 0
M  V30 7849 C 747.492 -1.88812 -4.1727 0
M  V30 7850 N 748.983 -1.85878 -4.24268 0
M  V30 7851 C 749.718 -2.40558 -5.20499 0
M  V30 7852 N 749.214 -3.03791 -6.22642 0
M  V30 7853 N 751.007 -2.30703 -5.12574 0
M  V30 7854 H 743.158 -1.68201 -1.297 0
M  V30 7855 H 745.421 -0.710915 -0.627139 0
M  V30 7856 H 745.127 -2.20853 -2.7371 0
M  V30 7857 H 745.001 -0.745412 -3.69761 0
M  V30 7858 H 747.388 -0.0941996 -2.9495 0
M  V30 7859 H 747.469 -1.58834 -2.00513 0
M  V30 7860 H 747.113 -2.93422 -4.14568 0
M  V30 7861 H 747.043 -1.41438 -5.0725 0
M  V30 7862 H 749.534 -1.39794 -3.51093 0
M  V30 7863 H 749.847 -3.43032 -6.92495 0
M  V30 7864 H 748.192 -3.07875 -6.23087 0
M  V30 7865 H 751.383 -1.80961 -4.31707 0
M  V30 7866 H 751.556 -2.73618 -5.87398 0
M  V30 7867 N 744.962 1.50701 -0.461195 0
M  V30 7868 C 746.21 2.01867 0.0970051 0
M  V30 7869 C 746.531 1.34591 1.41104 0
M  V30 7870 O 745.801 0.488041 1.89723 0
M  V30 7871 H 744.381 0.74599 0.0388392 0
M  V30 7872 H 747.043 1.85129 -0.609357 0
M  V30 7873 H 746.139 3.11051 0.255688 0
M  V30 7874 N 746.441 0.193421 1.56409 0
M  V30 7875 C 747.687 -0.446449 1.97825 0
M  V30 7876 C 748.02 -1.61386 1.08019 0
M  V30 7877 O 747.295 -1.94053 0.131839 0
M  V30 7878 C 747.578 -0.908199 3.48459 0
M  V30 7879 C 747.431 0.260914 4.49043 0
M  V30 7880 C 748.75 -1.77428 4.0275 0
M  V30 7881 H 745.869 -0.160807 0.719243 0
M  V30 7882 H 748.511 0.284006 1.87865 0
M  V30 7883 H 746.661 -1.53062 3.57077 0
M  V30 7884 H 748.333 0.898548 4.52464 0
M  V30 7885 H 746.576 0.912949 4.24085 0
M  V30 7886 H 747.247 -0.104657 5.51901 0
M  V30 7887 H 749.723 -1.24936 3.96901 0
M  V30 7888 H 748.599 -2.06633 5.08521 0
M  V30 7889 H 748.86 -2.72788 3.47907 0
M  V30 7890 N 747.919 -1.57396 -0.0801906 0
M  V30 7891 C 748.869 -1.9955 -1.10289 0
M  V30 7892 C 749.853 -0.876234 -1.34948 0
M  V30 7893 O 751.045 -1.14012 -1.35389 0
M  V30 7894 C 748.174 -2.43596 -2.419 0
M  V30 7895 C 747.26 -3.6224 -2.20551 0
M  V30 7896 N 747.651 -4.76693 -1.69109 0
M  V30 7897 C 745.949 -3.68627 -2.51059 0
M  V30 7898 C 746.65 -5.58577 -1.62379 0
M  V30 7899 N 745.626 -5.02178 -2.0813 0
M  V30 7900 H 749.428 -2.85483 -0.698335 0
M  V30 7901 H 746.942 -1.59837 -0.287395 0
M  V30 7902 H 748.939 -2.72031 -3.15919 0
M  V30 7903 H 747.599 -1.59047 -2.8308 0
M  V30 7904 H 748.61 -4.9915 -1.38092 0
M  V30 7905 H 745.287 -2.94772 -2.95661 0
M  V30 7906 H 746.677 -6.60447 -1.2353 0
M  V30 7907 N 749.397 0.351382 -1.53633 0
M  V30 7908 C 750.645 1.09034 -1.70165 0
M  V30 7909 C 750.966 1.89413 -0.463422 0
M  V30 7910 O 750.236 1.888 0.522624 0
M  V30 7911 H 748.816 0.405522 -0.627344 0
M  V30 7912 H 751.478 0.394554 -1.90865 0
M  V30 7913 H 750.574 1.77215 -2.56907 0
M  V30 7914 N 750.875 1.45233 0.611969 0
M  V30 7915 C 752.123 1.48727 1.36838 0
M  V30 7916 C 752.444 0.128616 1.94575 0
M  V30 7917 O 751.714 -0.84149 1.76906 0
M  V30 7918 H 750.294 0.547695 0.507976 0
M  V30 7919 H 752.956 1.81156 0.718925 0
M  V30 7920 H 752.052 2.2236 2.19003 0
M  V30 7921 N 752.353 -0.854086 1.3245 0
M  V30 7922 C 753.283 -1.97827 1.24044 0
M  V30 7923 C 754.264 -1.69646 0.124166 0
M  V30 7924 O 755.449 -1.91687 0.31143 0
M  V30 7925 C 752.579 -3.33673 0.963324 0
M  V30 7926 C 751.533 -3.76207 2.04089 0
M  V30 7927 C 750.859 -5.0969 1.61618 0
M  V30 7928 C 752.159 -3.91612 3.45597 0
M  V30 7929 H 753.853 -2.05118 2.18099 0
M  V30 7930 H 751.399 -0.985489 1.04996 0
M  V30 7931 H 753.352 -4.11871 0.891061 0
M  V30 7932 H 752.076 -3.26597 -0.0128649 0
M  V30 7933 H 750.735 -3.0026 2.10332 0
M  V30 7934 H 750.383 -4.99072 0.627418 0
M  V30 7935 H 750.083 -5.3912 2.33717 0
M  V30 7936 H 751.607 -5.90381 1.55829 0
M  V30 7937 H 753.021 -4.60163 3.4194 0
M  V30 7938 H 751.418 -4.3246 4.16051 0
M  V30 7939 H 752.488 -2.9451 3.85217 0
M  V30 7940 N 753.831 -1.1567 -1.07043 0
M  V30 7941 C 754.761 -0.879348 -2.16309 0
M  V30 7942 C 755.742 0.171311 -1.69235 0
M  V30 7943 O 756.927 0.0250175 -1.94184 0
M  V30 7944 C 754.057 -0.371307 -3.45309 0
M  V30 7945 C 753.011 -1.359 -4.05851 0
M  V30 7946 C 752.337 -0.709678 -5.29969 0
M  V30 7947 C 753.637 -2.72606 -4.45514 0
M  V30 7948 H 755.331 -1.79308 -2.39768 0
M  V30 7949 H 752.877 -0.863558 -1.15233 0
M  V30 7950 H 754.83 -0.164798 -4.21078 0
M  V30 7951 H 753.554 0.577906 -3.21446 0
M  V30 7952 H 752.213 -1.55193 -3.32131 0
M  V30 7953 H 751.861 0.245782 -5.02399 0
M  V30 7954 H 751.561 -1.36886 -5.71433 0
M  V30 7955 H 753.085 -0.513015 -6.08441 0
M  V30 7956 H 754.499 -2.57141 -5.12398 0
M  V30 7957 H 752.896 -3.34927 -4.97939 0
M  V30 7958 H 753.966 -3.28434 -3.56734 0
M  V30 7959 N 755.309 1.25446 -0.953992 0
M  V30 7960 C 756.555 1.9343 -0.60933 0
M  V30 7961 C 756.888 1.74542 0.851388 0
M  V30 7962 O 756.163 1.09014 1.61078 0
M  V30 7963 C 756.446 3.46844 -0.968041 0
M  V30 7964 C 756.299 3.74961 -2.48444 0
M  V30 7965 C 757.618 4.37334 -0.492641 0
M  V30 7966 H 754.737 0.702502 -0.222844 0
M  V30 7967 H 757.379 1.48076 -1.19053 0
M  V30 7968 H 755.529 3.85604 -0.473465 0
M  V30 7969 H 757.201 3.45841 -3.05273 0
M  V30 7970 H 755.444 3.20589 -2.92241 0
M  V30 7971 H 756.115 4.82246 -2.68594 0
M  V30 7972 H 758.591 4.05873 -0.916878 0
M  V30 7973 H 757.467 5.43439 -0.772331 0
M  V30 7974 H 757.728 4.37908 0.607403 0
M  V30 7975 N 756.787 0.722489 1.40064 0
M  V30 7976 C 757.717 0.0892452 2.33329 0
M  V30 7977 C 758.698 -0.737992 1.53257 0
M  V30 7978 O 759.883 -0.685516 1.81698 0
M  V30 7979 C 757.013 -0.828139 3.37282 0
M  V30 7980 C 755.967 -0.106005 4.27869 0
M  V30 7981 C 755.293 -1.13957 5.22415 0
M  V30 7982 C 756.593 1.04395 5.11761 0
M  V30 7983 H 758.287 0.868269 2.86534 0
M  V30 7984 H 755.833 0.418982 1.3777 0
M  V30 7985 H 757.786 -1.28058 4.01471 0
M  V30 7986 H 756.51 -1.63914 2.82489 0
M  V30 7987 H 755.169 0.326683 3.65142 0
M  V30 7988 H 754.817 -1.9438 4.63924 0
M  V30 7989 H 754.517 -0.661233 5.83868 0
M  V30 7990 H 756.041 -1.59197 5.89482 0
M  V30 7991 H 757.455 0.670541 5.69365 0
M  V30 7992 H 755.852 1.4511 5.82291 0
M  V30 7993 H 756.922 1.87144 4.47331 0
M  V30 7994 N 758.265 -1.50454 0.469181 0
M  V30 7995 C 759.513 -2.01916 -0.0862982 0
M  V30 7996 C 759.834 -1.35337 -1.40388 0
M  V30 7997 O 759.104 -0.498096 -1.89462 0
M  V30 7998 H 757.684 -0.746185 -0.0348825 0
M  V30 7999 H 760.346 -1.84804 0.619167 0
M  V30 8000 H 759.442 -3.11182 -0.239189 0
M  V30 8001 N 759.743 -0.201713 -1.56304 0
M  V30 8002 C 760.968 0.443815 -2.02596 0
M  V30 8003 C 761.393 1.53945 -1.08086 0
M  V30 8004 O 760.751 1.81182 -0.0655056 0
M  V30 8005 C 760.799 0.971066 -3.47279 0
M  V30 8006 O 759.903 2.0836 -3.55893 0
M  V30 8007 H 759.244 0.10294 -0.655972 0
M  V30 8008 H 761.774 -0.314533 -2.02168 0
M  V30 8009 H 761.784 1.28598 -3.87204 0
M  V30 8010 H 760.459 0.169048 -4.15556 0
M  V30 8011 H 759.036 1.77683 -3.27846 0
M  V30 8012 N 761.222 1.57436 0.0718424 0
M  V30 8013 C 762.185 2.02703 1.06977 0
M  V30 8014 C 763.185 0.924062 1.31597 0
M  V30 8015 O 764.375 1.18894 1.27318 0
M  V30 8016 C 761.507 2.40763 2.41342 0
M  V30 8017 H 762.7 2.92098 0.679619 0
M  V30 8018 H 760.253 1.5304 0.317565 0
M  V30 8019 H 760.988 1.54394 2.8519 0
M  V30 8020 H 760.773 3.21249 2.24814 0
M  V30 8021 H 762.263 2.76361 3.13073 0
M  V30 8022 N 762.7 -0.34323 1.53817 0
M  V30 8023 C 763.648 -1.44176 1.82527 0
M  V30 8024 C 764.642 -1.54452 0.695772 0
M  V30 8025 O 765.848 -1.57072 0.879114 0
M  V30 8026 H 762.223 -0.480729 0.578277 0
M  V30 8027 H 764.194 -1.17176 2.74431 0
M  V30 8028 C 762.943 -2.80695 2.05197 0
M  V30 8029 H 762.266 -2.73554 2.91561 0
M  V30 8030 H 763.706 -3.56679 2.29251 0
M  V30 8031 C 762.165 -3.26322 0.837589 0
M  V30 8032 O 762.695 -4.01683 0.0371631 0
M  V30 8033 N 760.901 -2.83128 0.654724 0
M  V30 8034 H 760.448 -2.21965 1.30725 0
M  V30 8035 H 760.406 -3.14011 -0.156345 0
M  V30 8036 N 764.178 -1.45556 -0.604258 0
M  V30 8037 C 765.424 -1.49968 -1.36519 0
M  V30 8038 C 765.757 -0.142236 -1.93678 0
M  V30 8039 O 765.032 0.843717 -1.75247 0
M  V30 8040 C 765.315 -2.58146 -2.51063 0
M  V30 8041 C 765.168 -4.03346 -1.99078 0
M  V30 8042 C 766.487 -2.62581 -3.53184 0
M  V30 8043 H 763.606 -0.545993 -0.495036 0
M  V30 8044 H 766.248 -1.77382 -0.680845 0
M  V30 8045 H 764.398 -2.34901 -3.09441 0
M  V30 8046 H 766.07 -4.37811 -1.45323 0
M  V30 8047 H 764.313 -4.13845 -1.30055 0
M  V30 8048 H 764.984 -4.74731 -2.81664 0
M  V30 8049 H 767.46 -2.83419 -3.04652 0
M  V30 8050 H 766.336 -3.40131 -4.30816 0
M  V30 8051 H 766.597 -1.67798 -4.09019 0
M  V30 8052 N 765.656 0.84705 -1.32902 0
M  V30 8053 C 766.933 1.58583 -1.14503 0
M  V30 8054 C 767.313 2.09075 0.291724 0
M  V30 8055 O 766.661 1.88636 1.28952 0
M  V30 8056 C 766.871 2.72605 -2.17916 0
M  V30 8057 C 768.219 3.41993 -2.51646 0
M  V30 8058 O 769.243 2.82838 -2.1652 0
M  V30 8059 O 768.102 4.48761 -3.1189 0
M  V30 8060 H 765.196 0.698756 -0.442345 0
M  V30 8061 H 767.742 0.890516 -1.44457 0
M  V30 8062 H 766.514 2.32876 -3.14459 0
M  V30 8063 H 766.137 3.49807 -1.89 0
M  V30 8064 N 767.134 1.16236 1.06428 0
M  V30 8065 C 768.044 0.881976 2.1739 0
M  V30 8066 C 769.06 -0.145259 1.73393 0
M  V30 8067 O 770.236 0.0310558 2.01376 0
M  V30 8068 C 767.301 0.385496 3.4455 0
M  V30 8069 C 766.362 1.47779 4.03063 0
M  V30 8070 C 765.595 1.0049 5.24154 0
M  V30 8071 O 765.818 -0.145889 5.70213 0
M  V30 8072 O 764.752 1.79265 5.74585 0
M  V30 8073 H 768.578 1.80983 2.43883 0
M  V30 8074 H 766.163 0.942226 1.15942 0
M  V30 8075 H 768.045 0.115536 4.21242 0
M  V30 8076 H 766.72 -0.514369 3.19587 0
M  V30 8077 H 765.627 1.80147 3.27869 0
M  V30 8078 H 766.96 2.35291 4.32318 0
M  V30 8079 N 768.612 -1.24939 0.960631 0
M  V30 8080 C 769.837 -1.9742 0.635608 0
M  V30 8081 C 770.262 -1.70857 -0.786737 0
M  V30 8082 O 769.62 -0.968063 -1.53291 0
M  V30 8083 C 769.668 -3.48987 0.907771 0
M  V30 8084 O 768.772 -4.12399 -0.0104053 0
M  V30 8085 H 768.113 -0.61871 0.241027 0
M  V30 8086 H 770.643 -1.58901 1.28886 0
M  V30 8087 H 770.653 -3.99334 0.836453 0
M  V30 8088 H 769.328 -3.6765 1.94439 0
M  V30 8089 H 767.905 -3.72727 0.113631 0
M  V30 8090 N 770.09 -0.729906 -1.39679 0
M  V30 8091 C 771.02 -0.101618 -2.33279 0
M  V30 8092 C 772.001 0.729854 -1.53646 0
M  V30 8093 O 773.186 0.67587 -1.82059 0
M  V30 8094 C 770.316 0.81024 -3.37716 0
M  V30 8095 C 769.27 0.0833126 -4.27919 0
M  V30 8096 C 768.596 1.11185 -5.23012 0
M  V30 8097 C 769.896 -1.07107 -5.112 0
M  V30 8098 H 771.59 -0.883452 -2.86069 0
M  V30 8099 H 769.136 -0.426283 -1.37546 0
M  V30 8100 H 771.089 1.25927 -4.02145 0
M  V30 8101 H 769.813 1.62413 -2.83354 0
M  V30 8102 H 768.472 -0.346043 -3.64963 0
M  V30 8103 H 768.12 1.91917 -4.64948 0
M  V30 8104 H 767.82 0.63026 -5.8421 0
M  V30 8105 H 769.344 1.56068 -5.90318 0
M  V30 8106 H 770.758 -0.700726 -5.69002 0
M  V30 8107 H 769.155 -1.48196 -5.81514 0
M  V30 8108 H 770.225 -1.89513 -4.46332 0
M  V30 8109 N 771.568 1.50203 -0.477153 0
M  V30 8110 C 772.498 2.31517 0.303646 0
M  V30 8111 C 773.479 1.38696 0.984753 0
M  V30 8112 O 774.664 1.67615 0.980758 0
M  V30 8113 C 771.794 3.18598 1.38249 0
M  V30 8114 C 770.748 4.2002 0.822645 0
M  V30 8115 C 770.074 4.95878 2.00024 0
M  V30 8116 C 771.374 5.22023 -0.170185 0
M  V30 8117 H 773.068 2.97042 -0.375027 0
M  V30 8118 H 770.614 1.42848 -0.181802 0
M  V30 8119 H 772.567 3.74282 1.93625 0
M  V30 8120 H 771.291 2.5097 2.09002 0
M  V30 8121 H 769.95 3.65445 0.290813 0
M  V30 8122 H 769.598 4.24717 2.69489 0
M  V30 8123 H 769.298 5.64487 1.63183 0
M  V30 8124 H 770.822 5.54399 2.55878 0
M  V30 8125 H 772.236 5.72543 0.294606 0
M  V30 8126 H 770.633 5.98386 -0.453181 0
M  V30 8127 H 771.703 4.72396 -1.09408 0
M  V30 8128 N 773.046 0.209999 1.56195 0
M  V30 8129 C 774.294 -0.423974 1.97603 0
M  V30 8130 C 774.615 -1.61112 1.09854 0
M  V30 8131 O 773.885 -1.95134 0.173032 0
M  V30 8132 H 772.465 -0.159629 0.729745 0
M  V30 8133 H 775.127 0.300205 1.92574 0
M  V30 8134 H 774.223 -0.75809 3.02753 0
M  V30 8135 N 774.524 -1.57472 -0.0634922 0
M  V30 8136 C 775.754 -1.91608 -0.772645 0
M  V30 8137 C 776.162 -0.805019 -1.71219 0
M  V30 8138 O 775.505 0.229941 -1.82255 0
M  V30 8139 C 775.567 -3.21281 -1.61304 0
M  V30 8140 C 775.231 -4.49177 -0.841973 0
M  V30 8141 C 776.228 -5.19661 -0.157494 0
M  V30 8142 C 773.913 -4.9578 -0.80669 0
M  V30 8143 C 775.907 -6.35006 0.551948 0
M  V30 8144 C 773.594 -6.11028 -0.0934812 0
M  V30 8145 C 774.592 -6.80493 0.58463 0
M  V30 8146 O 774.28 -7.93542 1.28633 0
M  V30 8147 H 774.012 -0.637685 -0.224352 0
M  V30 8148 H 776.566 -2.05369 -0.0355279 0
M  V30 8149 H 774.796 -3.03752 -2.39315 0
M  V30 8150 H 776.485 -3.41003 -2.20162 0
M  V30 8151 H 777.251 -4.84681 -0.176006 0
M  V30 8152 H 773.13 -4.41579 -1.32397 0
M  V30 8153 H 776.674 -6.89161 1.0818 0
M  V30 8154 H 772.571 -6.45459 -0.0729258 0
M  V30 8155 H 773.339 -8.09708 1.19646 0
M  V30 8156 N 776.003 0.335068 -1.53997 0
M  V30 8157 C 776.933 1.41727 -1.85568 0
M  V30 8158 C 777.914 1.54505 -0.7115 0
M  V30 8159 O 779.099 1.68573 -0.964191 0
M  V30 8160 C 776.229 2.7866 -2.07282 0
M  V30 8161 C 775.183 2.80682 -3.23112 0
M  V30 8162 C 774.509 4.20581 -3.30175 0
M  V30 8163 C 775.809 2.45458 -4.61029 0
M  V30 8164 H 777.503 1.15555 -2.76202 0
M  V30 8165 H 775.049 0.554445 -1.32898 0
M  V30 8166 H 777.002 3.54423 -2.27952 0
M  V30 8167 H 775.726 3.06286 -1.13387 0
M  V30 8168 H 774.385 2.07373 -3.02311 0
M  V30 8169 H 774.033 4.4533 -2.33859 0
M  V30 8170 H 773.733 4.22843 -4.08016 0
M  V30 8171 H 775.257 4.98174 -3.53066 0
M  V30 8172 H 776.671 3.10934 -4.81656 0
M  V30 8173 H 775.068 2.5899 -5.41336 0
M  V30 8174 H 776.138 1.40628 -4.6406 0
M  V30 8175 N 777.481 1.45874 0.596531 0
M  V30 8176 C 778.709 1.54013 1.38158 0
M  V30 8177 C 779.124 0.17648 1.87973 0
M  V30 8178 O 778.481 -0.823895 1.62844 0
M  V30 8179 C 778.532 2.53363 2.57855 0
M  V30 8180 O 778.253 3.8443 2.10108 0
M  V30 8181 C 779.754 2.71308 3.50581 0
M  V30 8182 H 776.974 0.521251 0.422538 0
M  V30 8183 H 779.518 1.9116 0.726493 0
M  V30 8184 H 777.673 2.19257 3.19382 0
M  V30 8185 H 778.087 4.38384 2.87958 0
M  V30 8186 H 779.561 3.44776 4.31084 0
M  V30 8187 H 780.038 1.77728 4.01633 0
M  V30 8188 H 780.644 3.06455 2.94899 0
M  V30 8189 N 778.959 -0.83999 1.33349 0
M  V30 8190 C 779.906 -1.94972 1.23509 0
M  V30 8191 C 780.876 -1.65709 0.113967 0
M  V30 8192 O 782.061 -1.88552 0.292045 0
M  V30 8193 C 779.201 -3.30919 0.979105 0
M  V30 8194 C 778.314 -3.72587 2.18639 0
M  V30 8195 C 777.449 -4.97397 1.86465 0
M  V30 8196 C 776.488 -5.31597 3.03432 0
M  V30 8197 N 775.625 -6.47584 2.71254 0
M  V30 8198 H 780.465 -2.0272 2.18423 0
M  V30 8199 H 778.002 -0.992017 1.08616 0
M  V30 8200 H 779.96 -4.09239 0.811126 0
M  V30 8201 H 778.59 -3.22731 0.0667099 0
M  V30 8202 H 777.642 -2.89799 2.46416 0
M  V30 8203 H 778.954 -3.93844 3.06086 0
M  V30 8204 H 778.108 -5.83462 1.66305 0
M  V30 8205 H 776.847 -4.78107 0.96254 0
M  V30 8206 H 775.852 -4.44037 3.24208 0
M  V30 8207 H 777.077 -5.52836 3.94397 0
M  V30 8208 H 775.023 -6.29783 1.836 0
M  V30 8209 H 774.94 -6.68931 3.52231 0
M  V30 8210 H 776.208 -7.36764 2.54558 0
M  V30 8211 N 780.437 -1.16799 -1.0581 0
M  V30 8212 C 781.667 -0.975454 -1.82122 0
M  V30 8213 C 782.075 0.479584 -1.83021 0
M  V30 8214 O 781.418 1.34471 -1.25153 0
M  V30 8215 C 781.48 -1.43209 -3.29744 0
M  V30 8216 C 781.144 -2.908 -3.5254 0
M  V30 8217 C 782.141 -3.88775 -3.45181 0
M  V30 8218 C 779.826 -3.28832 -3.79703 0
M  V30 8219 C 781.82 -5.22782 -3.64661 0
M  V30 8220 C 779.507 -4.63007 -3.98832 0
M  V30 8221 C 780.505 -5.59791 -3.91309 0
M  V30 8222 O 780.193 -6.9154 -4.09911 0
M  V30 8223 H 779.925 -0.345655 -0.580947 0
M  V30 8224 H 782.479 -1.55355 -1.34365 0
M  V30 8225 H 780.709 -0.797504 -3.78387 0
M  V30 8226 H 782.398 -1.2062 -3.87564 0
M  V30 8227 H 783.164 -3.60738 -3.2418 0
M  V30 8228 H 779.043 -2.54073 -3.84666 0
M  V30 8229 H 782.587 -5.98312 -3.58705 0
M  V30 8230 H 778.484 -4.90752 -4.19324 0
M  V30 8231 H 779.252 -6.98188 -4.27172 0
M  V30 8232 N 781.915 1.24427 -0.967243 0
M  V30 8233 C 783.192 1.87831 -0.545776 0
M  V30 8234 C 783.572 1.87126 0.977099 0
M  V30 8235 O 782.92 1.34357 1.84826 0
M  V30 8236 C 783.13 3.29967 -1.13679 0
M  V30 8237 C 784.478 4.06654 -1.22139 0
M  V30 8238 O 785.502 3.39136 -1.08926 0
M  V30 8239 O 784.361 5.27455 -1.43017 0
M  V30 8240 H 781.455 0.806745 -0.181912 0
M  V30 8241 H 784.001 1.32403 -1.06148 0
M  V30 8242 H 782.773 3.24977 -2.17958 0
M  V30 8243 H 782.396 3.92969 -0.605093 0
M  V30 8244 N 783.393 0.737304 1.3929 0
M  V30 8245 C 784.633 0.290966 2.02318 0
M  V30 8246 C 784.997 -1.10174 1.57244 0
M  V30 8247 O 786.198 -1.64628 2.12488 0
M  V30 8248 C 784.469 0.391767 3.55246 0
M  V30 8249 S 786.028 0.0256103 4.38793 0
M  V30 8250 H 782.846 0.113862 0.701824 0
M  V30 8251 H 785.448 0.964329 1.70062 0
M  V30 8252 H 784.152 1.40662 3.85542 0
M  V30 8253 H 783.683 -0.299338 3.9226 0
M  V30 8254 H 785.698 -1.18991 4.81722 0
M  V30 8255 N 784.871 -1.49948 0.485112 0
M  V30 8256 C 786.096 -2.073 -0.0645059 0
M  V30 8257 C 786.521 -1.345 -1.31497 0
M  V30 8258 O 785.879 -0.39687 -1.76903 0
M  V30 8259 C 785.927 -3.59201 -0.317304 0
M  V30 8260 O 785.031 -3.88085 -1.39514 0
M  V30 8261 H 784.372 -0.663723 0.0191822 0
M  V30 8262 H 786.902 -1.92963 0.680179 0
M  V30 8263 H 786.912 -4.04227 -0.553604 0
M  V30 8264 H 785.587 -4.11602 0.596387 0
M  V30 8265 H 784.164 -3.54885 -1.14504 0
M  V30 8266 N 786.349 -0.21828 -1.56081 0
M  V30 8267 C 787.574 0.422302 -2.03055 0
M  V30 8268 C 787.999 1.5279 -1.09713 0
M  V30 8269 O 787.357 1.81102 -0.0847187 0
M  V30 8270 C 787.405 0.934177 -3.48289 0
M  V30 8271 O 786.509 2.04574 -3.58083 0
M  V30 8272 H 785.85 0.0959764 -0.657027 0
M  V30 8273 H 788.38 -0.335958 -2.01823 0
M  V30 8274 H 788.39 1.24484 -3.88546 0
M  V30 8275 H 787.065 0.124963 -4.15712 0
M  V30 8276 H 785.642 1.74196 -3.29712 0
M  V30 8277 N 787.827 1.57504 0.0551401 0
M  V30 8278 C 788.79 2.03826 1.04821 0
M  V30 8279 C 789.79 0.937968 1.30609 0
M  V30 8280 O 790.98 1.20237 1.2605 0
M  V30 8281 C 788.112 2.43309 2.38775 0
M  V30 8282 H 789.305 2.92802 0.6486 0
M  V30 8283 H 786.858 1.53368 0.301315 0
M  V30 8284 H 787.593 1.5741 2.83536 0
M  V30 8285 H 787.378 3.23615 2.21395 0
M  V30 8286 H 788.868 2.79666 3.10124 0
M  V30 8287 N 789.305 -0.326896 1.54172 0
M  V30 8288 C 790.582 -1.08326 1.62864 0
M  V30 8289 C 790.962 -2.06018 0.46039 0
M  V30 8290 O 790.31 -2.21889 -0.545685 0
M  V30 8291 C 790.52 -1.78816 2.9971 0
M  V30 8292 C 791.868 -2.31958 3.55641 0
M  V30 8293 O 792.892 -1.88888 3.01993 0
M  V30 8294 O 791.751 -3.10801 4.49517 0
M  V30 8295 H 788.845 -0.499131 0.659392 0
M  V30 8296 H 791.391 -0.327054 1.66519 0
M  V30 8297 H 790.163 -1.07739 3.76176 0
M  V30 8298 H 789.786 -2.61255 2.99719 0
M  V30 8299 N 790.784 -1.46188 -0.588786 0
M  V30 8300 C 792.033 -1.50452 -1.34339 0
M  V30 8301 C 792.346 -0.158096 -1.9496 0
M  V30 8302 O 793.552 -0.0784918 -2.71387 0
M  V30 8303 C 792.008 -2.65074 -2.43441 0
M  V30 8304 C 791.616 -4.06111 -1.8915 0
M  V30 8305 C 793.36 -2.78603 -3.20282 0
M  V30 8306 C 791.267 -5.12084 -2.95845 0
M  V30 8307 H 790.197 -0.559905 -0.504997 0
M  V30 8308 H 792.848 -1.72382 -0.629014 0
M  V30 8309 H 791.23 -2.36462 -3.1765 0
M  V30 8310 H 792.404 -4.44487 -1.21524 0
M  V30 8311 H 790.719 -3.97197 -1.24995 0
M  V30 8312 H 793.316 -3.54944 -3.99898 0
M  V30 8313 H 793.659 -1.85902 -3.72486 0
M  V30 8314 H 794.192 -3.06832 -2.53178 0
M  V30 8315 H 790.931 -6.06556 -2.48535 0
M  V30 8316 H 790.451 -4.78259 -3.61979 0
M  V30 8317 H 792.13 -5.37661 -3.59902 0
M  V30 8318 N 792.262 0.832906 -1.33792 0
M  V30 8319 C 793.21 1.96455 -1.24532 0
M  V30 8320 C 794.204 1.68774 -0.145455 0
M  V30 8321 O 795.41 1.77314 -0.309797 0
M  V30 8322 H 791.785 0.645008 -0.386611 0
M  V30 8323 H 793.756 2.01389 -2.20193 0
M  V30 8324 C 792.505 3.32784 -1.00748 0
M  V30 8325 H 791.828 3.54626 -1.84609 0
M  V30 8326 H 793.268 4.12447 -0.98301 0
M  V30 8327 C 791.727 3.35654 0.289475 0
M  V30 8328 O 792.257 3.80281 1.29419 0
M  V30 8329 N 790.463 2.88843 0.3191 0
M  V30 8330 H 790.01 2.52719 -0.499069 0
M  V30 8331 H 789.968 2.91145 1.18667 0
M  V30 8332 N 793.74 1.17359 1.05189 0
M  V30 8333 C 795.151 0.96793 1.5965 0
M  V30 8334 C 795.502 -0.485355 1.90102 0
M  V30 8335 O 794.627 -1.36066 1.6827 0
M  V30 8336 C 795.222 1.75068 2.90063 0
M  V30 8337 C 793.781 1.58969 3.41183 0
M  V30 8338 C 792.928 1.75231 2.14917 0
M  V30 8339 H 795.879 1.32067 0.880001 0
M  V30 8340 H 795.9 1.23308 3.59966 0
M  V30 8341 H 795.412 2.80835 2.67868 0
M  V30 8342 H 793.513 0.556906 3.68415 0
M  V30 8343 H 793.626 2.38067 4.15766 0
M  V30 8344 H 791.99 1.18073 2.25679 0
M  V30 8345 H 792.773 2.8241 1.95191 0
M  V30 8346 N 795.218 -1.23913 0.973828 0
M  V30 8347 C 796.467 -1.91455 0.63464 0
M  V30 8348 C 796.78 -1.76893 -0.834759 0
M  V30 8349 O 797.986 -2.3918 -1.28473 0
M  V30 8350 C 796.442 -3.43172 1.08447 0
M  V30 8351 C 796.05 -3.66409 2.57776 0
M  V30 8352 C 797.794 -4.1653 0.818721 0
M  V30 8353 C 795.701 -5.11728 2.9646 0
M  V30 8354 H 794.631 -0.716881 0.233661 0
M  V30 8355 H 797.282 -1.40457 1.18085 0
M  V30 8356 H 795.664 -3.93242 0.466524 0
M  V30 8357 H 796.838 -3.26913 3.24753 0
M  V30 8358 H 795.153 -3.06349 2.82027 0
M  V30 8359 H 797.75 -5.23603 1.08367 0
M  V30 8360 H 798.093 -4.15578 -0.245128 0
M  V30 8361 H 798.626 -3.72428 1.39793 0
M  V30 8362 H 795.365 -5.17806 4.01941 0
M  V30 8363 H 794.885 -5.52199 2.34172 0
M  V30 8364 H 796.564 -5.80009 2.86703 0
M  V30 8365 N 796.696 -0.74468 -1.38897 0
M  V30 8366 C 797.944 -0.296298 -1.99916 0
M  V30 8367 C 798.265 1.12325 -1.59399 0
M  V30 8368 O 797.535 1.76658 -0.846689 0
M  V30 8369 H 796.115 -0.106561 -0.73936 0
M  V30 8370 H 798.777 -0.956793 -1.69798 0
M  V30 8371 H 797.873 -0.352356 -3.10105 0
M  V30 8372 N 798.174 1.49689 -0.493057 0
M  V30 8373 C 799.422 2.02027 0.0541642 0
M  V30 8374 C 799.743 1.37554 1.38217 0
M  V30 8375 O 799.013 0.528174 1.88646 0
M  V30 8376 H 797.593 0.746646 0.0230069 0
M  V30 8377 H 800.255 1.83795 -0.648489 0
M  V30 8378 H 799.351 3.11523 0.189652 0
M  V30 8379 N 799.652 0.226554 1.55963 0
M  V30 8380 C 800.901 -0.40417 1.97609 0
M  V30 8381 C 801.214 -1.60541 1.1174 0
M  V30 8382 O 802.42 -2.30598 1.43307 0
M  V30 8383 C 800.876 -0.770466 3.51556 0
M  V30 8384 C 800.484 0.408244 4.46136 0
M  V30 8385 C 802.228 -1.36651 4.01904 0
M  V30 8386 C 800.135 0.0192347 5.91397 0
M  V30 8387 H 799.065 -0.15478 0.737943 0
M  V30 8388 H 801.716 0.323558 1.80625 0
M  V30 8389 H 800.098 -1.55575 3.6416 0
M  V30 8390 H 801.272 1.18575 4.45283 0
M  V30 8391 H 799.587 0.917859 4.06158 0
M  V30 8392 H 802.184 -1.67055 5.07934 0
M  V30 8393 H 802.527 -2.28403 3.48049 0
M  V30 8394 H 803.06 -0.644556 3.92543 0
M  V30 8395 H 799.799 0.90336 6.49245 0
M  V30 8396 H 799.319 -0.722485 5.95433 0
M  V30 8397 H 800.998 -0.405711 6.45727 0
M  V30 8398 N 801.13 -1.57531 -0.0467866 0
M  V30 8399 C 802.355 -1.93087 -0.757123 0
M  V30 8400 C 802.78 -0.825116 -1.69037 0
M  V30 8401 O 802.138 0.220449 -1.79955 0
M  V30 8402 C 802.186 -3.27669 -1.5055 0
M  V30 8403 O 801.29 -3.18667 -2.61773 0
M  V30 8404 H 800.631 -0.631597 -0.204892 0
M  V30 8405 H 803.161 -2.04599 -0.00755232 0
M  V30 8406 H 803.171 -3.6214 -1.87932 0
M  V30 8407 H 801.846 -4.07717 -0.820931 0
M  V30 8408 H 800.423 -2.95798 -2.27064 0
M  V30 8409 N 802.608 0.318715 -1.54344 0
M  V30 8410 C 803.555 1.39242 -1.84066 0
M  V30 8411 C 804.525 1.51175 -0.688134 0
M  V30 8412 O 805.71 1.66318 -0.935039 0
M  V30 8413 C 802.85 2.75528 -2.07794 0
M  V30 8414 C 801.963 2.72187 -3.35467 0
M  V30 8415 C 801.098 4.00352 -3.4913 0
M  V30 8416 C 800.137 3.91338 -4.7066 0
M  V30 8417 N 799.274 5.11242 -4.81224 0
M  V30 8418 H 804.114 1.13196 -2.75664 0
M  V30 8419 H 801.651 0.547857 -1.36517 0
M  V30 8420 H 803.609 3.54763 -2.19543 0
M  V30 8421 H 802.239 2.99873 -1.19482 0
M  V30 8422 H 801.291 1.84917 -3.3243 0
M  V30 8423 H 802.603 2.61411 -4.24812 0
M  V30 8424 H 801.757 4.88019 -3.60448 0
M  V30 8425 H 800.496 4.1394 -2.57886 0
M  V30 8426 H 799.501 3.02055 -4.59394 0
M  V30 8427 H 800.726 3.7931 -5.63294 0
M  V30 8428 H 798.672 5.25327 -3.92897 0
M  V30 8429 H 798.589 5.0282 -5.64543 0
M  V30 8430 H 799.857 6.0061 -4.96879 0
M  V30 8431 N 804.086 1.46499 0.581025 0
M  V30 8432 C 805.314 1.5547 1.36517 0
M  V30 8433 C 805.729 0.196407 1.87776 0
M  V30 8434 O 805.086 -0.806577 1.63709 0
M  V30 8435 C 805.137 2.56084 2.55154 0
M  V30 8436 O 804.858 3.86637 2.06018 0
M  V30 8437 C 806.359 2.75011 3.47683 0
M  V30 8438 H 803.579 0.525703 0.416986 0
M  V30 8439 H 806.123 1.9192 0.706177 0
M  V30 8440 H 804.278 2.22633 3.17039 0
M  V30 8441 H 804.692 4.41413 2.83292 0
M  V30 8442 H 806.166 3.49329 4.27403 0
M  V30 8443 H 806.643 1.81978 3.99726 0
M  V30 8444 H 807.249 3.09565 2.91632 0
M  V30 8445 N 805.565 -0.825799 1.34232 0
M  V30 8446 C 806.842 -1.56741 1.17011 0
M  V30 8447 C 807.222 -2.09512 -0.258425 0
M  V30 8448 O 806.57 -1.90664 -1.25935 0
M  V30 8449 C 806.78 -2.69104 2.22225 0
M  V30 8450 C 808.128 -3.37947 2.57055 0
M  V30 8451 O 809.152 -2.79358 2.20992 0
M  V30 8452 O 808.011 -4.43743 3.1899 0
M  V30 8453 H 805.105 -0.69163 0.453405 0
M  V30 8454 H 807.651 -0.867422 1.45856 0
M  V30 8455 H 806.423 -2.27844 3.18124 0
M  V30 8456 H 806.046 -3.46756 1.94541 0
M  V30 8457 N 807.043 -1.17915 -1.04565 0
M  V30 8458 C 807.973 -0.925033 -2.14395 0
M  V30 8459 C 808.954 0.135375 -1.6956 0
M  V30 8460 O 810.139 -0.0161774 -1.94193 0
M  V30 8461 C 807.269 -0.444469 -3.44444 0
M  V30 8462 C 806.223 -1.44478 -4.02877 0
M  V30 8463 C 805.549 -0.821933 -5.28345 0
M  V30 8464 C 806.849 -2.81995 -4.39632 0
M  V30 8465 H 808.543 -1.84354 -2.35911 0
M  V30 8466 H 806.089 -0.887806 -1.13375 0
M  V30 8467 H 808.042 -0.254078 -4.20633 0
M  V30 8468 H 806.766 0.509592 -3.226 0
M  V30 8469 H 805.425 -1.62203 -3.28764 0
M  V30 8470 H 805.073 0.139161 -5.02807 0
M  V30 8471 H 804.773 -1.48976 -5.68401 0
M  V30 8472 H 806.297 -0.641959 -6.07216 0
M  V30 8473 H 807.711 -2.67952 -5.06828 0
M  V30 8474 H 806.108 -3.45414 -4.90723 0
M  V30 8475 H 807.178 -3.35927 -3.49687 0
M  V30 8476 N 808.521 1.23394 -0.980386 0
M  V30 8477 C 809.937 1.43961 -0.689008 0
M  V30 8478 C 810.137 1.87229 0.744809 0
M  V30 8479 O 809.193 2.01831 1.51725 0
M  V30 8480 C 810.506 2.49128 -1.68392 0
M  V30 8481 C 812.054 2.62941 -1.69796 0
M  V30 8482 C 812.529 3.71317 -2.68118 0
M  V30 8483 N 814.02 3.7876 -2.66636 0
M  V30 8484 C 814.755 4.62176 -3.39383 0
M  V30 8485 N 814.251 5.49682 -4.21688 0
M  V30 8486 N 816.044 4.56372 -3.28147 0
M  V30 8487 H 808.195 0.936106 -1.90659 0
M  V30 8488 H 810.458 0.473023 -0.821555 0
M  V30 8489 H 810.164 2.24252 -2.70931 0
M  V30 8490 H 810.038 3.47514 -1.46675 0
M  V30 8491 H 812.425 2.87168 -0.679617 0
M  V30 8492 H 812.506 1.64871 -1.95579 0
M  V30 8493 H 812.15 3.4784 -3.70095 0
M  V30 8494 H 812.08 4.68929 -2.3961 0
M  V30 8495 H 814.571 3.16226 -2.06904 0
M  V30 8496 H 814.884 6.10323 -4.74053 0
M  V30 8497 H 813.229 5.49306 -4.25779 0
M  V30 8498 H 816.42 3.87029 -2.63299 0
M  V30 8499 H 816.593 5.21153 -3.85102 0
M  V30 8500 N 809.999 0.752036 1.385 0
M  V30 8501 C 810.962 0.131587 2.28822 0
M  V30 8502 C 811.962 -0.649149 1.47115 0
M  V30 8503 O 813.152 -0.475645 1.67581 0
M  V30 8504 C 810.284 -0.822101 3.30839 0
M  V30 8505 H 811.477 0.927551 2.85196 0
M  V30 8506 H 809.03 0.518945 1.47434 0
M  V30 8507 H 809.765 -1.6438 2.79553 0
M  V30 8508 H 809.55 -0.264689 3.91206 0
M  V30 8509 H 811.04 -1.25226 3.98382 0
M  V30 8510 N 811.477 -1.49425 0.500989 0
M  V30 8511 C 812.724 -2.02453 -0.0435355 0
M  V30 8512 C 813.052 -1.38067 -1.36995 0
M  V30 8513 O 812.307 -0.505557 -1.89057 0
M  V30 8514 C 812.606 -3.56562 -0.24463 0
M  V30 8515 C 812.272 -4.39585 1.00379 0
M  V30 8516 C 810.934 -4.61992 1.346 0
M  V30 8517 C 813.286 -4.87881 1.83361 0
M  V30 8518 C 810.614 -5.2994 2.51755 0
M  V30 8519 C 812.966 -5.57119 2.99669 0
M  V30 8520 C 811.63 -5.77771 3.3427 0
M  V30 8521 H 810.9 -0.740829 -0.0159308 0
M  V30 8522 H 813.547 -1.79725 0.661143 0
M  V30 8523 H 811.852 -3.77969 -1.03183 0
M  V30 8524 H 813.549 -3.95185 -0.6804 0
M  V30 8525 H 810.139 -4.22385 0.727225 0
M  V30 8526 H 814.323 -4.70398 1.58237 0
M  V30 8527 H 809.579 -5.44133 2.788 0
M  V30 8528 H 813.753 -5.93516 3.64296 0
M  V30 8529 H 811.38 -6.30197 4.25154 0
M  V30 8530 N 812.955 -0.234822 -1.55841 0
M  V30 8531 C 814.201 0.393843 -1.98939 0
M  V30 8532 C 814.534 1.58466 -1.1226 0
M  V30 8533 O 813.809 1.93635 -0.183242 0
M  V30 8534 C 814.092 0.815492 -3.50745 0
M  V30 8535 C 813.945 -0.379878 -4.48193 0
M  V30 8536 C 815.264 1.66687 -4.07312 0
M  V30 8537 H 812.383 0.141681 -0.723253 0
M  V30 8538 H 815.025 -0.333716 -1.87046 0
M  V30 8539 H 813.175 1.43541 -3.6101 0
M  V30 8540 H 814.847 -1.0182 -4.49923 0
M  V30 8541 H 813.09 -1.02507 -4.21515 0
M  V30 8542 H 813.761 -0.0417069 -5.51984 0
M  V30 8543 H 816.237 1.14369 -4.00074 0
M  V30 8544 H 815.113 1.93078 -5.13821 0
M  V30 8545 H 815.374 2.63468 -3.55017 0
M  V30 8546 N 814.433 1.57553 0.0384317 0
M  V30 8547 C 815.365 2.02726 1.06934 0
M  V30 8548 C 816.378 0.938502 1.33026 0
M  V30 8549 O 817.567 1.21595 1.30678 0
M  V30 8550 C 814.667 2.37958 2.41308 0
M  V30 8551 C 813.84 3.69098 2.34703 0
M  V30 8552 C 812.899 3.91623 3.51451 0
M  V30 8553 O 811.925 4.628 3.31368 0
M  V30 8554 N 813.127 3.36538 4.72993 0
M  V30 8555 H 815.892 2.91781 0.684381 0
M  V30 8556 H 813.453 1.60307 0.226542 0
M  V30 8557 H 815.445 2.50172 3.18113 0
M  V30 8558 H 814.015 1.54621 2.71682 0
M  V30 8559 H 813.235 3.67325 1.43059 0
M  V30 8560 H 814.523 4.55144 2.27424 0
M  V30 8561 H 813.921 2.78828 4.92211 0
M  V30 8562 H 812.478 3.54148 5.47195 0
M  V30 8563 N 815.911 -0.310526 1.54511 0
M  V30 8564 C 817.158 -1.04691 1.73338 0
M  V30 8565 C 817.486 -1.87584 0.514038 0
M  V30 8566 O 816.741 -1.89096 -0.504119 0
M  V30 8567 C 817.04 -1.98942 2.96912 0
M  V30 8568 C 816.706 -1.321 4.31115 0
M  V30 8569 C 815.368 -1.13603 4.67598 0
M  V30 8570 C 817.72 -0.842362 5.14348 0
M  V30 8571 C 815.048 -0.459102 5.84901 0
M  V30 8572 C 817.4 -0.179202 6.32346 0
M  V30 8573 C 816.064 0.0178111 6.67498 0
M  V30 8574 H 815.334 -0.38309 0.634289 0
M  V30 8575 H 817.981 -0.322723 1.88761 0
M  V30 8576 H 816.286 -2.77856 2.76231 0
M  V30 8577 H 817.983 -2.55972 3.08674 0
M  V30 8578 H 814.573 -1.47502 4.02419 0
M  V30 8579 H 818.757 -0.973013 4.86668 0
M  V30 8580 H 814.013 -0.295385 6.10686 0
M  V30 8581 H 818.187 0.199619 6.96114 0
M  V30 8582 H 815.814 0.544356 7.58249 0
M  V30 8583 N 817.389 -1.46805 -0.573248 0
M  V30 8584 C 818.629 -1.5417 -1.34205 0
M  V30 8585 C 818.993 -0.192675 -1.91031 0
M  V30 8586 O 820.194 -0.141111 -2.68429 0
M  V30 8587 C 818.465 -2.61682 -2.43428 0
M  V30 8588 S 820.024 -2.88519 -3.30609 0
M  V30 8589 H 816.842 -0.544592 -0.4571 0
M  V30 8590 H 819.444 -1.84094 -0.658001 0
M  V30 8591 H 818.148 -3.58319 -2.00088 0
M  V30 8592 H 817.679 -2.33521 -3.16594 0
M  V30 8593 H 819.694 -2.2451 -4.42504 0
M  V30 8594 N 818.867 0.818669 -1.34668 0
M  V30 8595 C 820.116 1.57017 -1.26604 0
M  V30 8596 C 820.429 1.94936 0.161036 0
M  V30 8597 O 821.635 2.69051 0.36386 0
M  V30 8598 C 820.091 2.83305 -2.2196 0
M  V30 8599 C 819.699 2.52671 -3.69948 0
M  V30 8600 C 821.443 3.61324 -2.22813 0
M  V30 8601 C 819.35 3.75178 -4.5716 0
M  V30 8602 H 818.28 0.589323 -0.470335 0
M  V30 8603 H 820.931 0.900956 -1.59859 0
M  V30 8604 H 819.313 3.51874 -1.81661 0
M  V30 8605 H 820.487 1.92186 -4.18809 0
M  V30 8606 H 818.802 1.8792 -3.71584 0
M  V30 8607 H 821.399 4.52294 -2.85192 0
M  V30 8608 H 821.742 3.97759 -1.22857 0
M  V30 8609 H 822.275 2.99703 -2.61578 0
M  V30 8610 H 819.014 3.43861 -5.58068 0
M  V30 8611 H 818.534 4.34931 -4.13031 0
M  V30 8612 H 820.213 4.42542 -4.71981 0
M  V30 8613 N 820.346 1.18468 1.03938 0
M  V30 8614 C 821.278 0.870615 2.12021 0
M  V30 8615 C 822.291 -0.132318 1.62261 0
M  V30 8616 O 823.48 0.0956901 1.78243 0
M  V30 8617 C 820.58 0.279727 3.37744 0
M  V30 8618 C 819.753 1.32863 4.16733 0
M  V30 8619 C 818.812 0.753204 5.20781 0
M  V30 8620 O 817.838 1.42825 5.5099 0
M  V30 8621 N 819.04 -0.448664 5.78764 0
M  V30 8622 H 821.805 1.80091 2.39556 0
M  V30 8623 H 819.366 1.08524 1.20142 0
M  V30 8624 H 821.358 -0.118829 4.04526 0
M  V30 8625 H 819.928 -0.554621 3.07641 0
M  V30 8626 H 819.148 1.90245 3.45254 0
M  V30 8627 H 820.436 2.03574 4.66299 0
M  V30 8628 H 819.834 -1.01481 5.56523 0
M  V30 8629 H 818.391 -0.789125 6.47005 0
M  V30 8630 N 821.824 -1.22873 0.986916 0
M  V30 8631 C 823.24 -1.43594 0.696633 0
M  V30 8632 C 823.44 -1.87622 -0.734869 0
M  V30 8633 O 822.496 -2.02633 -1.50652 0
M  V30 8634 C 823.809 -2.48231 1.69711 0
M  V30 8635 C 825.357 -2.62037 1.71188 0
M  V30 8636 C 825.832 -3.6989 2.70084 0
M  V30 8637 N 827.323 -3.77341 2.68641 0
M  V30 8638 C 828.058 -4.6037 3.41829 0
M  V30 8639 N 827.554 -5.47438 4.24598 0
M  V30 8640 N 829.347 -4.54626 3.30563 0
M  V30 8641 H 821.498 -0.925982 1.91153 0
M  V30 8642 H 823.761 -0.46866 0.824052 0
M  V30 8643 H 823.467 -2.22812 2.72117 0
M  V30 8644 H 823.341 -3.46731 1.48516 0
M  V30 8645 H 825.728 -2.86803 0.694837 0
M  V30 8646 H 825.809 -1.63831 1.96451 0
M  V30 8647 H 825.453 -3.45872 3.71934 0
M  V30 8648 H 825.383 -4.67652 2.42093 0
M  V30 8649 H 827.874 -3.15124 2.08578 0
M  V30 8650 H 828.187 -6.078 4.77283 0
M  V30 8651 H 826.532 -5.4704 4.28687 0
M  V30 8652 H 829.723 -3.85627 2.65347 0
M  V30 8653 H 829.896 -5.19103 3.8786 0
M  V30 8654 N 823.302 -0.75937 -1.38099 0
M  V30 8655 C 824.549 -0.318113 -1.99986 0
M  V30 8656 C 824.877 1.10184 -1.6028 0
M  V30 8657 O 824.132 1.77015 -0.834524 0
M  V30 8658 C 824.431 -0.394999 -3.55211 0
M  V30 8659 C 824.097 -1.77143 -4.14646 0
M  V30 8660 C 822.759 -2.14811 -4.30592 0
M  V30 8661 C 825.111 -2.67407 -4.47373 0
M  V30 8662 C 822.439 -3.42203 -4.76565 0
M  V30 8663 C 824.791 -3.94196 -4.94765 0
M  V30 8664 C 823.455 -4.31925 -5.08918 0
M  V30 8665 H 822.725 -0.116406 -0.7318 0
M  V30 8666 H 825.372 -0.97098 -1.65058 0
M  V30 8667 H 823.677 0.341426 -3.9031 0
M  V30 8668 H 825.374 -0.0350722 -4.00985 0
M  V30 8669 H 821.964 -1.46864 -4.02652 0
M  V30 8670 H 826.148 -2.39569 -4.3465 0
M  V30 8671 H 821.404 -3.71346 -4.85708 0
M  V30 8672 H 825.578 -4.64276 -5.19057 0
M  V30 8673 H 823.205 -5.30699 -5.443 0
M  V30 8674 N 824.78 1.49157 -0.508906 0
M  V30 8675 C 825.712 2.272 0.302115 0
M  V30 8676 C 826.725 1.3407 0.923529 0
M  V30 8677 O 827.914 1.5929 0.805532 0
M  V30 8678 C 825.014 3.06736 1.44105 0
M  V30 8679 C 824.187 4.27497 0.925477 0
M  V30 8680 C 823.246 4.89014 1.94297 0
M  V30 8681 O 822.272 5.48851 1.50834 0
M  V30 8682 N 823.474 4.7937 3.2739 0
M  V30 8683 H 826.239 2.97443 -0.367115 0
M  V30 8684 H 823.8 1.58248 -0.341933 0
M  V30 8685 H 825.792 3.44763 2.11944 0
M  V30 8686 H 824.362 2.3905 2.0143 0
M  V30 8687 H 823.582 3.94135 0.0717301 0
M  V30 8688 H 824.87 5.05714 0.55955 0
M  V30 8689 H 824.268 4.31869 3.65384 0
M  V30 8690 H 822.825 5.21559 3.90922 0
M  V30 8691 N 826.258 0.243083 1.55714 0
M  V30 8692 C 827.188 -0.652336 2.24203 0
M  V30 8693 C 828.169 -1.1843 1.221 0
M  V30 8694 O 829.354 -1.22435 1.50743 0
M  V30 8695 C 826.484 -1.85111 2.93856 0
M  V30 8696 C 825.438 -1.45208 4.02615 0
M  V30 8697 C 824.764 -2.73137 4.59674 0
M  V30 8698 C 826.064 -0.625988 5.18535 0
M  V30 8699 H 827.758 -0.0812504 2.9929 0
M  V30 8700 H 825.304 -0.0376388 1.43951 0
M  V30 8701 H 827.257 -2.48314 3.40468 0
M  V30 8702 H 825.981 -2.44751 2.16251 0
M  V30 8703 H 824.64 -0.843406 3.56766 0
M  V30 8704 H 824.288 -3.30967 3.78774 0
M  V30 8705 H 823.988 -2.47163 5.33089 0
M  V30 8706 H 825.512 -3.37245 5.09017 0
M  V30 8707 H 826.926 -1.16223 5.61396 0
M  V30 8708 H 825.323 -0.462465 5.98315 0
M  V30 8709 H 826.393 0.362652 4.83542 0
M  V30 8710 N 827.736 -1.57571 -0.0300757 0
M  V30 8711 C 829.147 -1.77567 -0.576802 0
M  V30 8712 C 829.498 -0.874034 -1.75656 0
M  V30 8713 O 828.623 -0.0686124 -2.16291 0
M  V30 8714 C 829.218 -3.22016 -1.05315 0
M  V30 8715 C 827.777 -3.43212 -1.5454 0
M  V30 8716 C 826.924 -2.73061 -0.483033 0
M  V30 8717 H 829.875 -1.57483 0.196151 0
M  V30 8718 H 829.896 -3.28474 -1.92055 0
M  V30 8719 H 829.408 -3.87613 -0.194298 0
M  V30 8720 H 827.509 -2.82788 -2.42615 0
M  V30 8721 H 827.622 -4.5182 -1.5936 0
M  V30 8722 H 825.986 -2.36805 -0.937835 0
M  V30 8723 H 826.769 -3.4134 0.366341 0
M  V30 8724 N 829.214 0.302327 -1.54673 0
M  V30 8725 C 830.177 1.35592 -1.8479 0
M  V30 8726 C 831.177 1.43743 -0.72073 0
M  V30 8727 O 832.367 1.43402 -0.989017 0
M  V30 8728 C 829.499 2.74091 -2.02699 0
M  V30 8729 H 830.692 1.10132 -2.78946 0
M  V30 8730 H 828.245 0.538926 -1.46715 0
M  V30 8731 H 828.98 3.04775 -1.10826 0
M  V30 8732 H 828.765 2.69565 -2.8474 0
M  V30 8733 H 830.255 3.50272 -2.27374 0
M  V30 8734 N 830.692 1.47107 0.565454 0
M  V30 8735 C 831.622 1.61846 1.68309 0
M  V30 8736 C 832.603 0.468159 1.63531 0
M  V30 8737 O 833.788 0.696504 1.8128 0
M  V30 8738 C 830.918 1.62474 3.06952 0
M  V30 8739 C 829.872 2.76649 3.26572 0
M  V30 8740 C 829.198 2.62345 4.65917 0
M  V30 8741 C 830.498 4.18319 3.12741 0
M  V30 8742 H 832.192 2.55407 1.5623 0
M  V30 8743 H 829.738 1.22916 0.750179 0
M  V30 8744 H 831.691 1.71378 3.84977 0
M  V30 8745 H 830.415 0.654692 3.19971 0
M  V30 8746 H 829.074 2.67242 2.50952 0
M  V30 8747 H 828.722 1.63386 4.75725 0
M  V30 8748 H 828.422 3.38936 4.79996 0
M  V30 8749 H 829.946 2.73165 5.46089 0
M  V30 8750 H 831.36 4.28745 3.80593 0
M  V30 8751 H 829.757 4.95632 3.38333 0
M  V30 8752 H 830.827 4.37263 2.09592 0
M  V30 8753 N 832.17 -0.811516 1.35101 0
M  V30 8754 C 833.102 -1.93102 1.23468 0
M  V30 8755 C 834.115 -1.62021 0.159095 0
M  V30 8756 O 835.304 -1.73682 0.411945 0
M  V30 8757 C 832.404 -3.27345 0.877404 0
M  V30 8758 C 831.577 -3.86368 2.05033 0
M  V30 8759 C 830.636 -4.99009 1.66963 0
M  V30 8760 O 829.662 -5.16698 2.38772 0
M  V30 8761 N 830.864 -5.7749 0.590394 0
M  V30 8762 H 833.629 -2.0361 2.19916 0
M  V30 8763 H 831.19 -0.988687 1.28205 0
M  V30 8764 H 833.182 -4.00163 0.604298 0
M  V30 8765 H 831.752 -3.126 0.00275267 0
M  V30 8766 H 830.972 -3.05804 2.48752 0
M  V30 8767 H 832.26 -4.22533 2.83449 0
M  V30 8768 H 831.658 -5.657 -0.00633259 0
M  V30 8769 H 830.215 -6.50708 0.377055 0
M  V30 8770 N 833.648 -1.19017 -1.03309 0
M  V30 8771 C 834.873 -1.01598 -1.80811 0
M  V30 8772 C 835.298 0.430773 -1.83101 0
M  V30 8773 O 834.656 1.30946 -1.25391 0
M  V30 8774 C 834.704 -1.5845 -3.23923 0
M  V30 8775 O 833.808 -0.810972 -4.04348 0
M  V30 8776 H 833.149 -0.359398 -0.558327 0
M  V30 8777 H 835.679 -1.57945 -1.30055 0
M  V30 8778 H 835.689 -1.61486 -3.74682 0
M  V30 8779 H 834.364 -2.63752 -3.21571 0
M  V30 8780 H 832.941 -0.85353 -3.63 0
M  V30 8781 N 835.127 1.22348 -0.993418 0
M  V30 8782 C 836.376 1.90422 -0.665019 0
M  V30 8783 C 836.689 1.78199 0.806512 0
M  V30 8784 O 837.895 2.41193 1.24652 0
M  V30 8785 C 836.351 3.41403 -1.13893 0
M  V30 8786 C 835.959 3.62262 -2.63572 0
M  V30 8787 C 837.703 4.15175 -0.884884 0
M  V30 8788 C 835.61 5.06947 -3.04564 0
M  V30 8789 H 834.54 0.713073 -0.245037 0
M  V30 8790 H 837.191 1.3856 -1.20305 0
M  V30 8791 H 835.573 3.9245 -0.529027 0
M  V30 8792 H 836.747 3.21705 -3.29913 0
M  V30 8793 H 835.062 3.01824 -2.86865 0
M  V30 8794 H 837.659 5.21813 -1.16684 0
M  V30 8795 H 838.002 4.15915 0.178982 0
M  V30 8796 H 838.535 3.70157 -1.45701 0
M  V30 8797 H 835.274 5.11346 -4.10128 0
M  V30 8798 H 834.794 5.48404 -2.42927 0
M  V30 8799 H 836.473 5.75374 -2.95894 0
M  V30 8800 N 836.605 0.766683 1.37694 0
M  V30 8801 C 837.535 0.163432 2.32927 0
M  V30 8802 C 838.516 -0.688861 1.55527 0
M  V30 8803 O 839.701 -0.627363 1.83787 0
M  V30 8804 C 836.831 -0.720416 3.39746 0
M  V30 8805 C 835.785 0.0301718 4.27989 0
M  V30 8806 C 835.111 -0.972788 5.25776 0
M  V30 8807 C 836.411 1.20623 5.0818 0
M  V30 8808 H 838.105 0.958988 2.83626 0
M  V30 8809 H 835.651 0.462601 1.36367 0
M  V30 8810 H 837.604 -1.15221 4.05342 0
M  V30 8811 H 836.328 -1.54844 2.8756 0
M  V30 8812 H 834.987 0.442685 3.63917 0
M  V30 8813 H 834.635 -1.79522 4.69873 0
M  V30 8814 H 834.335 -0.475145 5.85676 0
M  V30 8815 H 835.859 -1.40362 5.94248 0
M  V30 8816 H 837.273 0.851341 5.66944 0
M  V30 8817 H 835.67 1.63561 5.7738 0
M  V30 8818 H 836.74 2.01281 4.41151 0
M  V30 8819 N 838.083 -1.48885 0.516809 0
M  V30 8820 C 839.013 -2.32241 -0.242157 0
M  V30 8821 C 839.994 -1.41258 -0.947633 0
M  V30 8822 O 841.179 -1.70156 -0.935973 0
M  V30 8823 C 838.309 -3.22151 -1.29754 0
M  V30 8824 C 837.263 -4.22053 -0.710995 0
M  V30 8825 C 836.589 -5.01007 -1.86806 0
M  V30 8826 C 837.889 -5.21388 0.30853 0
M  V30 8827 H 839.583 -2.95943 0.453651 0
M  V30 8828 H 837.129 -1.42316 0.219612 0
M  V30 8829 H 839.082 -3.79284 -1.83634 0
M  V30 8830 H 837.806 -2.56423 -2.02274 0
M  V30 8831 H 836.465 -3.66087 -0.193819 0
M  V30 8832 H 836.113 -4.31713 -2.58133 0
M  V30 8833 H 835.813 -5.68615 -1.48159 0
M  V30 8834 H 837.337 -5.60989 -2.4109 0
M  V30 8835 H 838.751 -5.73122 -0.142703 0
M  V30 8836 H 837.148 -5.96975 0.611673 0
M  V30 8837 H 838.218 -4.69329 1.21894 0
M  V30 8838 N 839.561 -0.251338 -1.55583 0
M  V30 8839 C 840.524 0.63305 -2.20284 0
M  V30 8840 C 841.524 1.09941 -1.17344 0
M  V30 8841 O 842.714 1.00341 -1.42399 0
M  V30 8842 C 839.846 1.8706 -2.84993 0
M  V30 8843 H 841.039 0.0684846 -2.99822 0
M  V30 8844 H 838.592 -0.00181653 -1.563 0
M  V30 8845 H 839.327 2.47629 -2.09405 0
M  V30 8846 H 839.112 1.54436 -3.60405 0
M  V30 8847 H 840.602 2.50004 -3.34496 0
M  V30 8848 N 841.039 1.57585 0.0217189 0
M  V30 8849 C 842.45 1.7787 0.567377 0
M  V30 8850 C 842.801 0.883337 1.7519 0
M  V30 8851 O 841.926 0.0800819 2.16252 0
M  V30 8852 C 842.521 3.2257 1.03606 0
M  V30 8853 C 841.08 3.44026 1.52718 0
M  V30 8854 C 840.227 2.73313 0.468545 0
M  V30 8855 H 843.178 1.57377 -0.2045 0
M  V30 8856 H 843.199 3.29488 1.9031 0
M  V30 8857 H 842.711 3.87711 0.173739 0
M  V30 8858 H 840.812 2.8407 2.41111 0
M  V30 8859 H 840.925 4.52659 1.56962 0
M  V30 8860 H 839.289 2.37299 0.925263 0
M  V30 8861 H 840.072 3.41141 -0.384438 0
M  V30 8862 N 842.517 -0.29412 1.54831 0
M  V30 8863 C 843.48 -1.3461 1.85507 0
M  V30 8864 C 844.48 -1.43359 0.728343 0
M  V30 8865 O 845.67 -1.42875 0.996609 0
M  V30 8866 C 842.802 -2.73012 2.0415 0
M  V30 8867 H 843.995 -1.08651 2.79526 0
M  V30 8868 H 841.548 -0.531138 1.46999 0
M  V30 8869 H 842.283 -3.04183 1.12441 0
M  V30 8870 H 842.068 -2.68051 2.86166 0
M  V30 8871 H 843.558 -3.49061 2.29229 0
M  V30 8872 N 843.995 -1.47404 -0.557645 0
M  V30 8873 C 845.223 -1.57622 -1.34026 0
M  V30 8874 C 845.638 -0.226256 -1.87439 0
M  V30 8875 O 844.995 0.78043 -1.64971 0
M  V30 8876 C 845.046 -2.60111 -2.51047 0
M  V30 8877 O 844.767 -3.89866 -1.99841 0
M  V30 8878 C 846.268 -2.80508 -3.43264 0
M  V30 8879 H 843.488 -0.532271 -0.40857 0
M  V30 8880 H 846.032 -1.93019 -0.675555 0
M  V30 8881 H 844.187 -2.27648 -3.13457 0
M  V30 8882 H 844.601 -4.45864 -2.76234 0
M  V30 8883 H 846.075 -3.56084 -4.21792 0
M  V30 8884 H 846.552 -1.88314 -3.9678 0
M  V30 8885 H 847.158 -3.14166 -2.86671 0
M  V30 8886 N 845.473 0.80434 -1.35529 0
M  V30 8887 C 846.436 1.89788 -1.28503 0
M  V30 8888 C 847.436 1.59601 -0.195983 0
M  V30 8889 O 848.626 1.68292 -0.449827 0
M  V30 8890 C 845.758 3.26255 -0.98847 0
M  V30 8891 H 846.951 1.97436 -2.25741 0
M  V30 8892 H 844.504 1.00046 -1.20086 0
M  V30 8893 H 845.239 3.24294 -0.0200541 0
M  V30 8894 H 845.024 3.49551 -1.77641 0
M  V30 8895 H 846.514 4.06298 -0.964975 0
M  V30 8896 N 846.951 1.19563 1.02676 0
M  V30 8897 C 847.861 0.950691 2.14474 0
M  V30 8898 C 848.877 -0.0900219 1.73767 0
M  V30 8899 O 850.053 0.0951063 2.01175 0
M  V30 8900 C 847.118 0.494917 3.43149 0
M  V30 8901 C 846.179 1.60527 3.98158 0
M  V30 8902 C 845.412 1.17115 5.20692 0
M  V30 8903 O 845.635 0.0355937 5.70389 0
M  V30 8904 O 844.569 1.97454 5.68591 0
M  V30 8905 H 848.395 1.88651 2.38001 0
M  V30 8906 H 845.98 0.978635 1.12885 0
M  V30 8907 H 847.862 0.249492 4.20661 0
M  V30 8908 H 846.537 -0.412434 3.21062 0
M  V30 8909 H 845.444 1.90487 3.21971 0
M  V30 8910 H 846.777 2.48925 4.24614 0
M  V30 8911 N 848.429 -1.21819 0.999893 0
M  V30 8912 C 849.359 -2.26282 0.576096 0
M  V30 8913 C 850.34 -1.65317 -0.400537 0
M  V30 8914 O 851.525 -1.92028 -0.28964 0
M  V30 8915 C 848.655 -3.47147 -0.103145 0
M  V30 8916 C 847.609 -4.20594 0.792745 0
M  V30 8917 C 846.935 -5.34696 -0.0198026 0
M  V30 8918 C 848.235 -4.78533 2.09293 0
M  V30 8919 H 849.929 -2.61984 1.4493 0
M  V30 8920 H 847.475 -1.25935 0.698316 0
M  V30 8921 H 849.428 -4.1939 -0.411068 0
M  V30 8922 H 848.152 -3.1056 -1.01094 0
M  V30 8923 H 846.811 -3.50194 1.08442 0
M  V30 8924 H 846.459 -4.94352 -0.928729 0
M  V30 8925 H 846.159 -5.84764 0.576661 0
M  V30 8926 H 847.683 -6.09752 -0.321659 0
M  V30 8927 H 849.097 -5.42682 1.8485 0
M  V30 8928 H 847.494 -5.38968 2.63881 0
M  V30 8929 H 848.564 -3.98197 2.76708 0
M  V30 8930 N 849.908 -0.773975 -1.37286 0
M  V30 8931 C 850.818 -0.162571 -2.34036 0
M  V30 8932 C 851.834 0.677022 -1.60289 0
M  V30 8933 O 853.01 0.596423 -1.92366 0
M  V30 8934 C 850.075 0.70457 -3.39465 0
M  V30 8935 C 849.136 -0.151738 -4.29032 0
M  V30 8936 C 848.369 0.674111 -5.29426 0
M  V30 8937 O 848.592 1.91107 -5.37433 0
M  V30 8938 O 847.526 0.0821398 -6.01844 0
M  V30 8939 H 851.352 -0.962119 -2.88057 0
M  V30 8940 H 848.937 -0.53517 -1.39486 0
M  V30 8941 H 850.819 1.19954 -4.03967 0
M  V30 8942 H 849.494 1.48227 -2.87768 0
M  V30 8943 H 848.401 -0.693118 -3.67623 0
M  V30 8944 H 849.734 -0.892575 -4.84039 0
M  V30 8945 N 851.386 1.48609 -0.524698 0
M  V30 8946 C 852.797 1.86516 -0.0828846 0
M  V30 8947 C 853.148 1.43478 1.33822 0
M  V30 8948 O 852.273 0.823139 2.00133 0
M  V30 8949 C 852.868 3.38495 -0.143639 0
M  V30 8950 C 851.427 3.75615 0.242951 0
M  V30 8951 C 850.574 2.72649 -0.505747 0
M  V30 8952 H 853.525 1.40589 -0.736233 0
M  V30 8953 H 853.546 3.74977 0.645955 0
M  V30 8954 H 853.058 3.69789 -1.17805 0
M  V30 8955 H 851.159 3.49935 1.27971 0
M  V30 8956 H 851.272 4.7901 -0.0929834 0
M  V30 8957 H 849.636 2.54656 0.0473482 0
M  V30 8958 H 850.419 3.06786 -1.54069 0
M  V30 8959 N 852.864 0.259585 1.55447 0
M  V30 8960 C 853.794 -0.62852 2.24882 0
M  V30 8961 C 854.775 -1.17128 1.23349 0
M  V30 8962 O 855.96 -1.20829 1.52033 0
M  V30 8963 C 853.09 -1.81983 2.95803 0
M  V30 8964 C 852.044 -1.40929 4.04132 0
M  V30 8965 C 851.37 -2.68246 4.62545 0
M  V30 8966 C 852.67 -0.570956 5.1917 0
M  V30 8967 H 854.364 -0.0495021 2.99359 0
M  V30 8968 H 851.91 -0.0223688 1.43983 0
M  V30 8969 H 853.863 -2.44689 3.43082 0
M  V30 8970 H 852.587 -2.42444 2.18835 0
M  V30 8971 H 851.246 -0.805519 3.57641 0
M  V30 8972 H 850.894 -3.26931 3.82263 0
M  V30 8973 H 850.594 -2.41495 5.35681 0
M  V30 8974 H 852.118 -3.31827 5.12565 0
M  V30 8975 H 853.532 -1.10262 5.62597 0
M  V30 8976 H 851.929 -0.398979 5.98772 0
M  V30 8977 H 852.999 0.413918 4.8313 0
M  V30 8978 N 854.342 -1.57594 -0.0133615 0
M  V30 8979 C 855.305 -2.06534 -0.993799 0
M  V30 8980 C 856.305 -0.972267 -1.28077 0
M  V30 8981 O 857.495 -1.23537 -1.22818 0
M  V30 8982 C 854.627 -2.49554 -2.3224 0
M  V30 8983 H 855.82 -2.94419 -0.570741 0
M  V30 8984 H 853.373 -1.54113 -0.260546 0
M  V30 8985 H 854.108 -1.64872 -2.79263 0
M  V30 8986 H 853.893 -3.29371 -2.12737 0
M  V30 8987 H 855.383 -2.8779 -3.026 0
M  V30 8988 N 855.82 0.285905 -1.54985 0
M  V30 8989 C 857.097 1.0397 -1.65679 0
M  V30 8990 C 857.477 2.04725 -0.514851 0
M  V30 8991 O 856.825 2.23257 0.486663 0
M  V30 8992 C 857.035 1.70807 -3.04345 0
M  V30 8993 C 858.383 2.22447 -3.61666 0
M  V30 8994 O 859.407 1.80815 -3.06895 0
M  V30 8995 O 858.266 2.98773 -4.57599 0
M  V30 8996 H 855.36 0.481473 -0.672394 0
M  V30 8997 H 857.906 0.282789 -1.67327 0
M  V30 8998 H 856.678 0.977271 -3.789 0
M  V30 8999 H 856.301 2.53217 -3.06541 0
M  V30 9000 N 857.298 1.47698 0.54982 0
M  V30 9001 C 858.546 1.54397 1.30407 0
M  V30 9002 C 858.867 0.211026 1.93855 0
M  V30 9003 O 858.137 -0.765701 1.80316 0
M  V30 9004 H 856.717 0.568747 0.484289 0
M  V30 9005 H 859.379 1.84042 0.641444 0
M  V30 9006 H 858.475 2.31449 2.09375 0
M  V30 9007 N 858.776 -0.797141 1.35954 0
M  V30 9008 C 859.708 -1.91782 1.25509 0
M  V30 9009 C 860.721 -1.61843 0.176271 0
M  V30 9010 O 861.91 -1.73235 0.430343 0
M  V30 9011 C 859.01 -3.26396 0.912073 0
M  V30 9012 C 858.183 -3.84171 2.0912 0
M  V30 9013 C 857.242 -4.9721 1.72246 0
M  V30 9014 O 856.268 -5.14136 2.44239 0
M  V30 9015 N 857.47 -5.76831 0.651611 0
M  V30 9016 H 860.235 -2.01266 2.22063 0
M  V30 9017 H 857.796 -0.975033 1.29247 0
M  V30 9018 H 859.788 -3.99499 0.646707 0
M  V30 9019 H 858.358 -3.12579 0.0359079 0
M  V30 9020 H 857.578 -3.03148 2.51982 0
M  V30 9021 H 858.866 -4.19503 2.87914 0
M  V30 9022 H 858.264 -5.65675 0.0536678 0
M  V30 9023 H 856.821 -6.50272 0.44605 0
M  V30 9024 N 860.254 -1.20106 -1.0204 0
M  V30 9025 C 861.5 -1.01039 -1.75838 0
M  V30 9026 C 861.833 0.456819 -1.88751 0
M  V30 9027 O 861.108 1.33919 -1.41053 0
M  V30 9028 C 861.391 -1.69009 -3.17975 0
M  V30 9029 C 861.244 -3.2315 -3.1288 0
M  V30 9030 C 862.563 -1.42005 -4.16561 0
M  V30 9031 H 859.682 -0.368465 -0.638281 0
M  V30 9032 H 862.324 -1.48066 -1.19064 0
M  V30 9033 H 860.474 -1.29026 -3.66449 0
M  V30 9034 H 862.146 -3.72402 -2.72239 0
M  V30 9035 H 860.389 -3.54253 -2.50374 0
M  V30 9036 H 861.06 -3.65862 -4.13339 0
M  V30 9037 H 863.536 -1.76685 -3.76725 0
M  V30 9038 H 862.412 -1.92101 -5.14187 0
M  V30 9039 H 862.673 -0.346884 -4.40737 0
M  V30 9040 N 861.732 1.21287 -1.00634 0
M  V30 9041 C 862.957 1.94925 -0.708441 0
M  V30 9042 C 863.382 1.73659 0.722783 0
M  V30 9043 O 862.74 1.02429 1.49593 0
M  V30 9044 C 862.788 3.45377 -1.03667 0
M  V30 9045 O 861.892 4.12153 -0.142661 0
M  V30 9046 H 861.233 0.609338 -0.263824 0
M  V30 9047 H 863.763 1.54008 -1.34695 0
M  V30 9048 H 863.773 3.95954 -0.984086 0
M  V30 9049 H 862.448 3.6018 -2.0795 0
M  V30 9050 H 861.025 3.72048 -0.251888 0
M  V30 9051 N 863.21 0.781244 1.36873 0
M  V30 9052 C 864.142 0.132075 2.28819 0
M  V30 9053 C 865.155 -0.653925 1.49089 0
M  V30 9054 O 866.344 -0.490453 1.7163 0
M  V30 9055 C 863.444 -0.836297 3.28419 0
M  V30 9056 C 862.617 -0.102097 4.37281 0
M  V30 9057 C 861.676 -0.985217 5.16894 0
M  V30 9058 O 860.702 -0.445478 5.67454 0
M  V30 9059 N 861.904 -2.31043 5.3254 0
M  V30 9060 H 864.669 0.921838 2.85171 0
M  V30 9061 H 862.23 0.634427 1.48952 0
M  V30 9062 H 864.222 -1.43074 3.78566 0
M  V30 9063 H 862.792 -1.52698 2.72767 0
M  V30 9064 H 862.012 0.67335 3.88407 0
M  V30 9065 H 863.3 0.404862 5.07187 0
M  V30 9066 H 862.698 -2.77318 4.93063 0
M  V30 9067 H 861.255 -2.85472 5.8596 0
M  V30 9068 N 864.689 -1.48329 0.532571 0
M  V30 9069 C 865.917 -2.069 0.00354299 0
M  V30 9070 C 866.332 -1.38876 -1.27902 0
M  V30 9071 O 865.689 -0.477119 -1.76153 0
M  V30 9072 C 865.74 -3.60821 -0.221416 0
M  V30 9073 O 865.461 -4.26291 1.01034 0
M  V30 9074 C 866.962 -4.36194 -0.790531 0
M  V30 9075 H 864.182 -0.670103 0.0346836 0
M  V30 9076 H 866.726 -1.90682 0.738955 0
M  V30 9077 H 864.881 -3.76636 -0.906884 0
M  V30 9078 H 865.295 -5.18475 0.792683 0
M  V30 9079 H 866.769 -5.44657 -0.897347 0
M  V30 9080 H 867.246 -4.00798 -1.79605 0
M  V30 9081 H 867.852 -4.25064 -0.141546 0
M  V30 9082 N 866.167 -0.267825 -1.55308 0
M  V30 9083 C 867.444 0.402449 -1.91415 0
M  V30 9084 C 867.824 1.7428 -1.1912 0
M  V30 9085 O 867.172 2.2631 -0.315609 0
M  V30 9086 C 867.382 0.549926 -3.4464 0
M  V30 9087 C 868.73 0.836188 -4.16285 0
M  V30 9088 O 869.754 0.635009 -3.50494 0
M  V30 9089 O 868.613 1.22051 -5.32697 0
M  V30 9090 H 865.707 0.219177 -0.797427 0
M  V30 9091 H 868.253 -0.313439 -1.6678 0
M  V30 9092 H 867.025 -0.393641 -3.89315 0
M  V30 9093 H 866.648 1.31556 -3.75205 0
M  V30 9094 N 867.645 1.57599 0.00500368 0
M  V30 9095 C 868.555 2.11532 1.01446 0
M  V30 9096 C 869.571 1.05941 1.3803 0
M  V30 9097 O 870.747 1.37815 1.46864 0
M  V30 9098 C 867.812 2.60382 2.28915 0
M  V30 9099 C 866.873 3.80554 1.98689 0
M  V30 9100 C 866.106 4.27064 3.20081 0
M  V30 9101 O 866.329 3.72939 4.31593 0
M  V30 9102 O 865.263 5.1927 3.04371 0
M  V30 9103 H 869.089 2.97993 0.586011 0
M  V30 9104 H 866.674 1.47718 0.223519 0
M  V30 9105 H 868.556 2.92024 3.03809 0
M  V30 9106 H 867.231 1.77022 2.71007 0
M  V30 9107 H 866.138 3.53893 1.21286 0
M  V30 9108 H 867.471 4.64972 1.61437 0
M  V30 9109 N 869.123 -0.277682 1.55134 0
M  V30 9110 C 870.033 -1.36524 1.90783 0
M  V30 9111 C 871.049 -1.54283 0.804542 0
M  V30 9112 O 872.225 -1.68499 1.10318 0
M  V30 9113 C 869.29 -2.70524 2.16835 0
M  V30 9114 C 868.351 -2.61552 3.40424 0
M  V30 9115 C 867.584 -3.89162 3.65224 0
M  V30 9116 O 867.807 -4.89624 2.92616 0
M  V30 9117 O 866.741 -3.89647 4.58758 0
M  V30 9118 H 870.567 -1.0929 2.83354 0
M  V30 9119 H 868.152 -0.475799 1.41621 0
M  V30 9120 H 870.034 -3.49765 2.35038 0
M  V30 9121 H 868.709 -2.97555 1.27448 0
M  V30 9122 H 867.616 -1.80704 3.27562 0
M  V30 9123 H 868.949 -2.39472 4.30016 0
M  V30 9124 N 870.601 -1.47988 -0.541979 0
M  V30 9125 C 871.878 -1.45878 -1.30303 0
M  V30 9126 C 872.258 -0.163931 -2.10463 0
M  V30 9127 O 871.606 0.854479 -2.11922 0
M  V30 9128 C 871.816 -2.71359 -2.19466 0
M  V30 9129 C 873.164 -3.19199 -2.79995 0
M  V30 9130 O 874.188 -2.72193 -2.2976 0
M  V30 9131 O 873.047 -4.00961 -3.71339 0
M  V30 9132 H 870.141 -0.582043 -0.587498 0
M  V30 9133 H 872.687 -1.60207 -0.559623 0
M  V30 9134 H 871.459 -3.57122 -1.59936 0
M  V30 9135 H 871.082 -2.59692 -3.01075 0
M  V30 9136 N 872.079 0.78992 -1.36375 0
M  V30 9137 C 873.012 1.90907 -1.25019 0
M  V30 9138 C 873.99 1.62043 -0.134463 0
M  V30 9139 O 875.174 1.86008 -0.305506 0
M  V30 9140 C 872.301 3.25716 -0.928822 0
M  V30 9141 C 871.347 3.73511 -2.05892 0
M  V30 9142 S 872.18 3.89332 -3.6767 0
M  V30 9143 C 873.336 5.27017 -3.37645 0
M  V30 9144 H 873.569 2.00247 -2.19746 0
M  V30 9145 H 871.102 0.949097 -1.21785 0
M  V30 9146 H 873.06 4.03586 -0.750219 0
M  V30 9147 H 871.721 3.141 0.000658424 0
M  V30 9148 H 870.914 4.71195 -1.78862 0
M  V30 9149 H 870.516 3.02688 -2.19672 0
M  V30 9150 H 872.808 6.1158 -2.91507 0
M  V30 9151 H 873.751 5.5905 -4.3459 0
M  V30 9152 H 874.159 4.94093 -2.73006 0
M  V30 9153 N 873.557 1.20646 1.01402 0
M  V30 9154 C 874.805 1.01618 1.74695 0
M  V30 9155 C 875.126 -0.452438 1.89679 0
M  V30 9156 O 874.396 -1.32693 1.44116 0
M  V30 9157 H 872.976 0.373013 0.647202 0
M  V30 9158 H 875.638 1.518 1.22241 0
M  V30 9159 H 874.734 1.47666 2.74957 0
M  V30 9160 N 875.035 -1.20752 1.01276 0
M  V30 9161 C 875.968 -2.22091 0.524472 0
M  V30 9162 C 876.946 -1.5692 -0.426017 0
M  V30 9163 O 878.13 -1.8528 -0.346919 0
M  V30 9164 C 875.257 -3.37868 -0.237224 0
M  V30 9165 C 874.303 -4.21327 0.662236 0
M  V30 9166 S 875.136 -4.91352 2.12916 0
M  V30 9167 C 876.292 -6.10553 1.37752 0
M  V30 9168 H 876.525 -2.63166 1.38315 0
M  V30 9169 H 874.058 -1.30742 0.821332 0
M  V30 9170 H 876.016 -4.04985 -0.670599 0
M  V30 9171 H 874.677 -2.95261 -1.07143 0
M  V30 9172 H 873.87 -5.03944 0.0751085 0
M  V30 9173 H 873.472 -3.59445 1.03322 0
M  V30 9174 H 875.764 -6.74322 0.655491 0
M  V30 9175 H 876.707 -6.73717 2.17969 0
M  V30 9176 H 877.115 -5.57566 0.882088 0
M  V30 9177 N 876.513 -0.788492 -1.36457 0
M  V30 9178 C 877.741 -0.372365 -2.03522 0
M  V30 9179 C 878.156 1.01093 -1.59454 0
M  V30 9180 O 877.513 1.64824 -0.783535 0
M  V30 9181 C 877.564 -0.425435 -3.58988 0
M  V30 9182 O 877.285 -1.75418 -4.01448 0
M  V30 9183 C 878.786 0.000180167 -4.433 0
M  V30 9184 H 876.006 -0.1536 -0.653183 0
M  V30 9185 H 878.55 -1.06708 -1.74452 0
M  V30 9186 H 876.705 0.220856 -3.8677 0
M  V30 9187 H 877.119 -1.70437 -4.96036 0
M  V30 9188 H 878.593 -0.0880919 -5.5193 0
M  V30 9189 H 879.07 1.05269 -4.26398 0
M  V30 9190 H 879.676 -0.618563 -4.20778 0
M  V30 9191 N 877.991 1.48044 -0.54043 0
M  V30 9192 C 879.221 2.06595 -0.0144943 0
M  V30 9193 C 879.629 1.39593 1.27713 0
M  V30 9194 O 878.972 0.480794 1.77297 0
M  V30 9195 C 879.034 3.5849 0.269316 0
M  V30 9196 C 878.698 4.47429 -0.930372 0
M  V30 9197 C 879.695 4.8657 -1.83155 0
M  V30 9198 C 877.38 4.89185 -1.14032 0
M  V30 9199 C 879.374 5.66246 -2.92649 0
M  V30 9200 C 877.061 5.6863 -2.23838 0
M  V30 9201 C 878.059 6.07069 -3.12979 0
M  V30 9202 O 877.747 6.84917 -4.20884 0
M  V30 9203 H 877.479 0.675086 -0.0351467 0
M  V30 9204 H 880.033 1.91275 -0.74853 0
M  V30 9205 H 878.263 3.71961 1.05745 0
M  V30 9206 H 879.952 3.99124 0.738595 0
M  V30 9207 H 880.718 4.54924 -1.68134 0
M  V30 9208 H 876.597 4.58742 -0.455717 0
M  V30 9209 H 880.141 5.96169 -3.62254 0
M  V30 9210 H 876.038 5.99688 -2.38839 0
M  V30 9211 H 876.806 7.03287 -4.18723 0
M  V30 9212 N 879.47 0.276058 1.55163 0
M  V30 9213 C 880.433 -0.597924 2.21263 0
M  V30 9214 C 881.433 -1.0806 1.19078 0
M  V30 9215 O 882.623 -0.980626 1.43977 0
M  V30 9216 C 879.755 -1.82503 2.87933 0
M  V30 9217 H 880.948 -0.0207769 2.99893 0
M  V30 9218 H 878.501 0.0266823 1.56277 0
M  V30 9219 H 879.236 -2.44266 2.13318 0
M  V30 9220 H 879.021 -1.48683 3.62816 0
M  V30 9221 H 880.511 -2.44651 3.38431 0
M  V30 9222 N 880.948 -1.576 0.00335426 0
M  V30 9223 C 881.858 -2.12067 -1.00322 0
M  V30 9224 C 882.874 -1.06672 -1.37467 0
M  V30 9225 O 884.05 -1.38592 -1.46131 0
M  V30 9226 C 881.115 -2.61593 -2.27531 0
M  V30 9227 C 880.176 -3.81602 -1.96668 0
M  V30 9228 C 879.409 -4.28756 -3.17811 0
M  V30 9229 O 879.632 -3.75222 -4.2961 0
M  V30 9230 O 878.566 -5.20877 -3.01613 0
M  V30 9231 H 882.392 -2.98299 -0.570199 0
M  V30 9232 H 879.977 -1.47835 -0.215682 0
M  V30 9233 H 881.859 -2.93631 -3.02256 0
M  V30 9234 H 880.534 -1.78457 -2.70065 0
M  V30 9235 H 879.441 -3.54531 -1.19408 0
M  V30 9236 H 880.774 -4.65822 -1.58968 0
M  V30 9237 N 882.426 0.269451 -1.5528 0
M  V30 9238 C 883.356 1.33729 -1.91413 0
M  V30 9239 C 884.337 1.51348 -0.776391 0
M  V30 9240 O 885.522 1.64332 -1.03482 0
M  V30 9241 C 882.652 2.69618 -2.18914 0
M  V30 9242 C 881.606 2.66725 -3.34726 0
M  V30 9243 C 880.932 4.06199 -3.47716 0
M  V30 9244 C 882.232 2.25684 -4.71025 0
M  V30 9245 H 883.926 1.03736 -2.80854 0
M  V30 9246 H 881.472 0.497579 -1.3513 0
M  V30 9247 H 883.425 3.44436 -2.42779 0
M  V30 9248 H 882.149 3.01201 -1.26275 0
M  V30 9249 H 880.808 1.94365 -3.10834 0
M  V30 9250 H 880.456 4.3501 -2.52537 0
M  V30 9251 H 880.156 4.05157 -4.25583 0
M  V30 9252 H 881.68 4.8275 -3.73877 0
M  V30 9253 H 883.094 2.90225 -4.94411 0
M  V30 9254 H 881.491 2.35797 -5.51833 0
M  V30 9255 H 882.561 1.20819 -4.69607 0
M  V30 9256 N 883.904 1.48273 0.534124 0
M  V30 9257 C 885.129 1.59988 1.31979 0
M  V30 9258 C 885.554 0.258824 1.86311 0
M  V30 9259 O 884.912 -0.768885 1.64188 0
M  V30 9260 C 884.96 2.64642 2.44943 0
M  V30 9261 O 884.064 2.21515 3.47858 0
M  V30 9262 H 883.405 0.536625 0.391063 0
M  V30 9263 H 885.935 1.94229 0.643135 0
M  V30 9264 H 885.945 2.85786 2.91187 0
M  V30 9265 H 884.62 3.62004 2.04758 0
M  V30 9266 H 883.197 2.10567 3.0776 0
M  V30 9267 N 885.382 -0.782676 1.36792 0
M  V30 9268 C 886.628 -1.54311 1.3159 0
M  V30 9269 C 886.961 -1.93928 -0.102696 0
M  V30 9270 O 886.236 -1.63233 -1.05761 0
M  V30 9271 C 886.519 -2.81561 2.24489 0
M  V30 9272 C 886.372 -2.48268 3.75078 0
M  V30 9273 C 887.691 -3.83428 2.16034 0
M  V30 9274 H 884.81 -0.559828 0.479335 0
M  V30 9275 H 887.452 -0.898717 1.67401 0
M  V30 9276 H 885.602 -3.36549 1.9408 0
M  V30 9277 H 887.274 -1.99279 4.16036 0
M  V30 9278 H 885.517 -1.81116 3.94182 0
M  V30 9279 H 886.188 -3.39183 4.35499 0
M  V30 9280 H 888.664 -3.37905 2.42815 0
M  V30 9281 H 887.54 -4.70204 2.83194 0
M  V30 9282 H 887.801 -4.26887 1.14976 0
M  V30 9283 N 886.86 -1.21182 -1.00761 0
M  V30 9284 C 888.09 -1.05182 -1.77821 0
M  V30 9285 C 888.498 0.401527 -1.8489 0
M  V30 9286 O 887.841 1.29042 -1.30743 0
M  V30 9287 C 887.903 -1.57066 -3.23374 0
M  V30 9288 C 887.567 -3.05491 -3.39889 0
M  V30 9289 C 888.564 -4.03065 -3.28381 0
M  V30 9290 C 886.249 -3.44641 -3.65415 0
M  V30 9291 C 888.243 -5.37778 -3.4216 0
M  V30 9292 C 885.93 -4.79507 -3.78836 0
M  V30 9293 C 886.928 -5.75884 -3.67214 0
M  V30 9294 O 886.616 -7.08304 -3.80212 0
M  V30 9295 H 886.348 -0.369983 -0.565763 0
M  V30 9296 H 888.902 -1.60914 -1.27655 0
M  V30 9297 H 887.132 -0.957273 -3.74664 0
M  V30 9298 H 888.821 -1.36949 -3.82099 0
M  V30 9299 H 889.587 -3.74163 -3.08588 0
M  V30 9300 H 885.466 -2.7016 -3.73544 0
M  V30 9301 H 889.01 -6.12987 -3.33005 0
M  V30 9302 H 884.907 -5.08096 -3.98132 0
M  V30 9303 H 885.675 -7.15677 -3.97175 0
M  V30 9304 N 888.338 1.20213 -1.01915 0
M  V30 9305 C 889.586 1.89272 -0.708552 0
M  V30 9306 C 889.907 1.79394 0.76438 0
M  V30 9307 O 889.177 1.198 1.54999 0
M  V30 9308 H 887.757 0.700628 -0.259094 0
M  V30 9309 H 890.419 1.45985 -1.29129 0
M  V30 9310 H 889.515 2.95841 -0.994215 0
M  V30 9311 N 889.816 0.795718 1.36037 0
M  V30 9312 C 890.763 0.196548 2.29962 0
M  V30 9313 C 891.733 -0.663213 1.52285 0
M  V30 9314 O 892.918 -0.610574 1.80767 0
M  V30 9315 C 890.058 -0.657639 3.38776 0
M  V30 9316 C 889.171 0.221358 4.31433 0
M  V30 9317 C 888.306 -0.6398 5.27333 0
M  V30 9318 C 887.345 0.240265 6.11628 0
M  V30 9319 N 886.482 -0.580237 6.99698 0
M  V30 9320 H 891.322 1.00295 2.80615 0
M  V30 9321 H 888.859 0.506147 1.38118 0
M  V30 9322 H 890.817 -1.16793 4.00519 0
M  V30 9323 H 889.447 -1.42941 2.89426 0
M  V30 9324 H 888.499 0.84967 3.70789 0
M  V30 9325 H 889.811 0.899195 4.90628 0
M  V30 9326 H 888.965 -1.21566 5.94396 0
M  V30 9327 H 887.704 -1.35124 4.68607 0
M  V30 9328 H 886.709 0.828474 5.43522 0
M  V30 9329 H 887.934 0.949403 6.72431 0
M  V30 9330 H 885.88 -1.27585 6.43473 0
M  V30 9331 H 885.797 0.0397853 7.5599 0
M  V30 9332 H 887.065 -1.13972 7.71123 0
M  V30 9333 N 891.294 -1.47756 0.548274 0
M  V30 9334 C 892.224 -2.32702 -0.19284 0
M  V30 9335 C 893.205 -1.43237 -0.917457 0
M  V30 9336 O 894.39 -1.72103 -0.89967 0
M  V30 9337 C 891.52 -3.24831 -1.22891 0
M  V30 9338 C 890.474 -4.23466 -0.621312 0
M  V30 9339 C 889.8 -5.04856 -1.76137 0
M  V30 9340 C 891.1 -5.20616 0.419055 0
M  V30 9341 H 892.794 -2.94914 0.516323 0
M  V30 9342 H 890.34 -1.41818 0.24975 0
M  V30 9343 H 892.293 -3.83094 -1.75547 0
M  V30 9344 H 891.017 -2.60656 -1.9679 0
M  V30 9345 H 889.676 -3.66416 -0.116123 0
M  V30 9346 H 889.324 -4.37091 -2.48918 0
M  V30 9347 H 889.024 -5.71629 -1.36065 0
M  V30 9348 H 890.548 -5.65976 -2.29136 0
M  V30 9349 H 891.962 -5.73296 -0.0211034 0
M  V30 9350 H 890.359 -5.95543 0.738163 0
M  V30 9351 H 891.429 -4.66638 1.31822 0
M  V30 9352 N 892.772 -0.284283 -1.55015 0
M  V30 9353 C 894.188 0.069603 -1.59448 0
M  V30 9354 C 894.388 1.53833 -1.30144 0
M  V30 9355 O 893.444 2.2886 -1.06674 0
M  V30 9356 C 894.757 -0.313287 -2.99064 0
M  V30 9357 C 896.305 -0.260662 -3.11913 0
M  V30 9358 C 896.78 -0.618127 -4.5381 0
M  V30 9359 N 898.271 -0.570026 -4.59679 0
M  V30 9360 C 899.006 -0.8193 -5.67517 0
M  V30 9361 N 898.502 -1.13367 -6.83462 0
M  V30 9362 N 900.295 -0.747482 -5.57108 0
M  V30 9363 H 892.446 -1.24167 -1.72326 0
M  V30 9364 H 894.709 -0.502259 -0.804015 0
M  V30 9365 H 894.415 -1.33509 -3.25374 0
M  V30 9366 H 894.289 0.341369 -3.75652 0
M  V30 9367 H 896.676 0.751869 -2.85361 0
M  V30 9368 H 896.757 -0.949706 -2.37517 0
M  V30 9369 H 896.401 -1.62839 -4.81088 0
M  V30 9370 H 896.331 0.092807 -5.26518 0
M  V30 9371 H 898.822 -0.3373 -3.76392 0
M  V30 9372 H 899.135 -1.3103 -7.61611 0
M  V30 9373 H 897.48 -1.17154 -6.85055 0
M  V30 9374 H 900.671 -0.501658 -4.65404 0
M  V30 9375 H 900.844 -0.945128 -6.4107 0
M  V30 9376 N 894.251 1.57596 -0.0117121 0
M  V30 9377 C 895.198 2.09153 0.975897 0
M  V30 9378 C 896.168 0.989579 1.33404 0
M  V30 9379 O 897.353 1.26273 1.43038 0
M  V30 9380 C 894.493 2.60906 2.2588 0
M  V30 9381 C 893.606 3.85046 1.95866 0
M  V30 9382 C 892.741 4.25257 3.18323 0
M  V30 9383 C 891.78 5.42202 2.84049 0
M  V30 9384 N 890.917 5.77651 3.99079 0
M  V30 9385 H 895.757 2.93261 0.52931 0
M  V30 9386 H 893.294 1.44965 0.249691 0
M  V30 9387 H 895.252 2.88995 3.00895 0
M  V30 9388 H 893.882 1.79654 2.68187 0
M  V30 9389 H 892.934 3.63794 1.11168 0
M  V30 9390 H 894.246 4.70151 1.66611 0
M  V30 9391 H 893.4 4.5469 4.01674 0
M  V30 9392 H 892.139 3.38884 3.50726 0
M  V30 9393 H 891.144 5.1248 1.99107 0
M  V30 9394 H 892.369 6.3026 2.52881 0
M  V30 9395 H 890.315 4.94235 4.31356 0
M  V30 9396 H 890.232 6.57356 3.73388 0
M  V30 9397 H 891.5 6.11681 4.83183 0
M  V30 9398 N 895.729 -0.261212 1.5542 0
M  V30 9399 C 896.975 -0.992699 1.76843 0
M  V30 9400 C 897.308 -1.8551 0.574428 0
M  V30 9401 O 896.583 -1.89739 -0.427713 0
M  V30 9402 C 896.866 -1.86532 3.08022 0
M  V30 9403 C 896.719 -1.03206 4.378 0
M  V30 9404 C 898.038 -2.85036 3.35324 0
M  V30 9405 H 895.157 -0.359473 0.643388 0
M  V30 9406 H 897.799 -0.264214 1.88154 0
M  V30 9407 H 895.949 -2.48644 2.9851 0
M  V30 9408 H 897.621 -0.430743 4.59285 0
M  V30 9409 H 895.864 -0.335911 4.32497 0
M  V30 9410 H 896.535 -1.6761 5.25938 0
M  V30 9411 H 899.011 -2.3306 3.44706 0
M  V30 9412 H 897.887 -3.43226 4.28354 0
M  V30 9413 H 898.148 -3.60768 2.55537 0
M  V30 9414 N 897.207 -1.48554 -0.526253 0
M  V30 9415 C 898.17 -1.62868 -1.61266 0
M  V30 9416 C 899.17 -0.501762 -1.52771 0
M  V30 9417 O 900.36 -0.76764 -1.56374 0
M  V30 9418 C 897.492 -1.60238 -3.00893 0
M  V30 9419 H 898.685 -2.59742 -1.49913 0
M  V30 9420 H 896.238 -1.37207 -0.748595 0
M  V30 9421 H 896.973 -0.648545 -3.17749 0
M  V30 9422 H 896.758 -2.42054 -3.08468 0
M  V30 9423 H 898.248 -1.73455 -3.79872 0
M  V30 9424 N 898.685 0.775411 -1.37205 0
M  V30 9425 C 899.632 1.88857 -1.32671 0
M  V30 9426 C 900.602 1.64976 -0.192899 0
M  V30 9427 O 901.787 1.86944 -0.381673 0
M  V30 9428 C 898.927 3.25871 -1.13588 0
M  V30 9429 C 898.04 3.61731 -2.36167 0
M  V30 9430 C 897.175 4.87934 -2.09985 0
M  V30 9431 C 896.214 5.16514 -3.2845 0
M  V30 9432 N 895.351 6.33905 -3.01842 0
M  V30 9433 H 900.191 1.92068 -2.27846 0
M  V30 9434 H 897.728 0.939066 -1.13225 0
M  V30 9435 H 899.686 4.04903 -1.00546 0
M  V30 9436 H 898.316 3.22045 -0.220613 0
M  V30 9437 H 897.368 2.77712 -2.59962 0
M  V30 9438 H 898.68 3.78792 -3.24528 0
M  V30 9439 H 897.834 5.74863 -1.93953 0
M  V30 9440 H 896.573 4.7297 -1.18956 0
M  V30 9441 H 895.578 4.28063 -3.45025 0
M  V30 9442 H 896.803 5.33389 -4.20325 0
M  V30 9443 H 894.749 6.20306 -2.13439 0
M  V30 9444 H 894.666 6.51364 -3.83746 0
M  V30 9445 H 895.934 7.23779 -2.8942 0
M  V30 9446 N 900.163 1.21714 1.00117 0
M  V30 9447 C 901.096 0.923113 2.08696 0
M  V30 9448 C 902.074 -0.130827 1.62073 0
M  V30 9449 O 903.258 -0.00103064 1.885 0
M  V30 9450 C 900.385 0.386807 3.36484 0
M  V30 9451 C 899.431 1.42414 4.0202 0
M  V30 9452 S 900.264 2.99466 4.43937 0
M  V30 9453 C 901.42 2.47452 5.74907 0
M  V30 9454 H 901.653 1.84258 2.33315 0
M  V30 9455 H 899.186 1.0473 1.1345 0
M  V30 9456 H 901.144 0.0839547 4.10414 0
M  V30 9457 H 899.805 -0.511413 3.09909 0
M  V30 9458 H 898.998 0.998593 4.94008 0
M  V30 9459 H 898.6 1.67527 3.34381 0
M  V30 9460 H 900.892 1.88177 6.50842 0
M  V30 9461 H 901.835 3.37898 6.22279 0
M  V30 9462 H 902.243 1.89027 5.31911 0
M  V30 9463 N 901.641 -1.19671 1.02551 0
M  V30 9464 C 902.889 -1.88894 0.71858 0
M  V30 9465 C 903.21 -1.79797 -0.754856 0
M  V30 9466 O 902.48 -1.20621 -1.54362 0
M  V30 9467 H 901.06 -0.699244 0.262806 0
M  V30 9468 H 903.722 -1.45298 1.29902 0
M  V30 9469 H 902.818 -2.95309 1.00989 0
M  V30 9470 N 903.119 -0.802921 -1.35613 0
M  V30 9471 C 904.53 -0.443004 -1.81368 0
M  V30 9472 C 904.881 1.03459 -1.66706 0
M  V30 9473 O 904.006 1.80372 -1.19561 0
M  V30 9474 C 904.601 -0.797324 -3.29284 0
M  V30 9475 C 903.16 -0.490055 -3.73196 0
M  V30 9476 C 902.307 -1.02487 -2.57666 0
M  V30 9477 H 905.258 -0.994888 -1.23643 0
M  V30 9478 H 905.279 -0.0934638 -3.80385 0
M  V30 9479 H 904.791 -1.87278 -3.39924 0
M  V30 9480 H 902.892 0.576818 -3.68108 0
M  V30 9481 H 903.005 -1.02012 -4.68114 0
M  V30 9482 H 901.369 -0.44738 -2.5074 0
M  V30 9483 H 902.152 -2.10636 -2.71085 0
M  V30 9484 N 904.597 1.47463 -0.556102 0
M  V30 9485 C 905.827 2.06568 -0.0364056 0
M  V30 9486 C 906.235 1.40939 1.26225 0
M  V30 9487 O 905.578 0.499572 1.76777 0
M  V30 9488 C 905.64 3.58755 0.231278 0
M  V30 9489 C 905.304 4.46417 -0.977776 0
M  V30 9490 C 906.301 4.846 -1.88305 0
M  V30 9491 C 903.986 4.87948 -1.19214 0
M  V30 9492 C 905.98 5.63111 -2.98639 0
M  V30 9493 C 903.667 5.66224 -2.29857 0
M  V30 9494 C 904.665 6.03716 -3.194 0
M  V30 9495 O 904.353 6.80415 -4.28125 0
M  V30 9496 H 904.085 0.674675 -0.042305 0
M  V30 9497 H 906.639 1.9047 -0.768775 0
M  V30 9498 H 904.869 3.73061 1.01794 0
M  V30 9499 H 906.558 3.99884 0.696221 0
M  V30 9500 H 907.324 4.53115 -1.72949 0
M  V30 9501 H 903.203 4.58233 -0.504347 0
M  V30 9502 H 906.747 5.92293 -3.68557 0
M  V30 9503 H 902.644 5.97121 -2.45186 0
M  V30 9504 H 903.412 6.98807 -4.26159 0
M  V30 9505 N 906.075 0.2925 1.54862 0
M  V30 9506 C 907.3 -0.32494 2.04839 0
M  V30 9507 C 907.725 -1.47381 1.16877 0
M  V30 9508 O 907.083 -1.80492 0.171028 0
M  V30 9509 C 907.131 -0.76694 3.5235 0
M  V30 9510 O 906.235 -1.87256 3.67436 0
M  V30 9511 H 905.576 -0.0645195 0.660858 0
M  V30 9512 H 908.106 0.431867 1.9999 0
M  V30 9513 H 908.116 -1.05804 3.94043 0
M  V30 9514 H 906.791 0.0735212 4.15835 0
M  V30 9515 H 905.368 -1.58266 3.37648 0
M  V30 9516 N 907.553 -1.57587 0.0200696 0
M  V30 9517 C 908.486 -2.05157 -0.999295 0
M  V30 9518 C 909.464 -0.945466 -1.32286 0
M  V30 9519 O 910.648 -1.21512 -1.44108 0
M  V30 9520 C 907.775 -2.46604 -2.32173 0
M  V30 9521 C 906.821 -3.68146 -2.15339 0
M  V30 9522 S 907.654 -5.15194 -1.46065 0
M  V30 9523 C 908.81 -5.59929 -2.79697 0
M  V30 9524 H 909.043 -2.91299 -0.59433 0
M  V30 9525 H 906.576 -1.53209 -0.191372 0
M  V30 9526 H 908.534 -2.7115 -3.08201 0
M  V30 9527 H 907.195 -1.60825 -2.69804 0
M  V30 9528 H 906.388 -3.94963 -3.13082 0
M  V30 9529 H 905.99 -3.43705 -1.47454 0
M  V30 9530 H 908.282 -5.63615 -3.75957 0
M  V30 9531 H 909.225 -6.59599 -2.57555 0
M  V30 9532 H 909.633 -4.87549 -2.84528 0
M  V30 9533 N 909.032 0.252966 -1.55557 0
M  V30 9534 C 910.279 0.981852 -1.77104 0
M  V30 9535 C 910.607 1.85547 -0.583305 0
M  V30 9536 O 909.862 1.90836 0.43359 0
M  V30 9537 C 910.161 1.87785 -3.04091 0
M  V30 9538 C 909.827 1.16009 -4.35721 0
M  V30 9539 C 908.489 0.961697 -4.71492 0
M  V30 9540 C 910.841 0.650884 -5.1712 0
M  V30 9541 C 908.169 0.241704 -5.86202 0
M  V30 9542 C 910.521 -0.0556124 -6.32576 0
M  V30 9543 C 909.185 -0.265536 -6.66972 0
M  V30 9544 H 908.455 0.359285 -0.64807 0
M  V30 9545 H 911.102 0.252443 -1.89829 0
M  V30 9546 H 909.407 2.67412 -2.86353 0
M  V30 9547 H 911.104 2.44339 -3.17961 0
M  V30 9548 H 907.694 1.32465 -4.07616 0
M  V30 9549 H 911.878 0.791719 -4.89944 0
M  V30 9550 H 907.134 0.0685292 -6.11362 0
M  V30 9551 H 911.308 -0.457839 -6.94893 0
M  V30 9552 H 908.935 -0.8254 -7.55706 0
M  V30 9553 N 910.51 1.48831 0.518367 0
M  V30 9554 C 911.75 1.59045 1.28391 0
M  V30 9555 C 912.114 0.263443 1.90184 0
M  V30 9556 O 913.315 0.24064 2.67721 0
M  V30 9557 C 911.586 2.70536 2.33548 0
M  V30 9558 S 913.145 3.00591 3.19673 0
M  V30 9559 H 909.963 0.561182 0.436573 0
M  V30 9560 H 912.565 1.86409 0.589222 0
M  V30 9561 H 911.269 3.65499 1.86652 0
M  V30 9562 H 910.8 2.4511 3.07708 0
M  V30 9563 H 912.815 2.40779 4.33866 0
M  V30 9564 N 911.988 -0.768124 1.37614 0
M  V30 9565 C 912.935 -1.88151 1.33671 0
M  V30 9566 C 913.905 -1.64871 0.201645 0
M  V30 9567 O 915.09 -1.86739 0.391582 0
M  V30 9568 C 912.23 -3.25264 1.15314 0
M  V30 9569 C 911.343 -3.60473 2.38082 0
M  V30 9570 C 910.478 -4.86814 2.12569 0
M  V30 9571 C 909.517 -5.14765 3.31184 0
M  V30 9572 N 908.654 -6.32295 3.052 0
M  V30 9573 H 913.494 -1.90857 2.28862 0
M  V30 9574 H 911.031 -0.933048 1.13722 0
M  V30 9575 H 912.989 -4.04364 1.02691 0
M  V30 9576 H 911.619 -3.21924 0.237689 0
M  V30 9577 H 910.671 -2.7633 2.61431 0
M  V30 9578 H 911.983 -3.77065 3.26532 0
M  V30 9579 H 911.137 -5.73826 1.96999 0
M  V30 9580 H 909.876 -4.72333 1.21462 0
M  V30 9581 H 908.881 -4.26227 3.4729 0
M  V30 9582 H 910.106 -5.31153 4.23147 0
M  V30 9583 H 908.052 -6.19166 2.16726 0
M  V30 9584 H 907.969 -6.4932 3.87195 0
M  V30 9585 H 909.237 -7.22234 2.93254 0
M  V30 9586 N 913.466 -1.22244 -0.994698 0
M  V30 9587 C 914.396 -1.01513 -2.10279 0
M  V30 9588 C 915.377 0.0633365 -1.69982 0
M  V30 9589 O 916.562 -0.0985268 -1.9395 0
M  V30 9590 C 913.692 -0.59016 -3.42249 0
M  V30 9591 C 912.646 -1.61436 -3.96387 0
M  V30 9592 C 911.972 -1.04528 -5.24383 0
M  V30 9593 C 913.272 -3.00388 -4.27276 0
M  V30 9594 H 914.966 -1.94194 -2.2788 0
M  V30 9595 H 912.512 -0.935094 -1.09508 0
M  V30 9596 H 914.465 -0.432254 -4.19177 0
M  V30 9597 H 913.189 0.372308 -3.24471 0
M  V30 9598 H 911.848 -1.76001 -3.21589 0
M  V30 9599 H 911.496 -0.0742225 -5.02945 0
M  V30 9600 H 911.196 -1.72949 -5.61571 0
M  V30 9601 H 912.72 -0.898922 -6.03947 0
M  V30 9602 H 914.134 -2.89207 -4.95007 0
M  V30 9603 H 912.531 -3.65916 -4.75631 0
M  V30 9604 H 913.601 -3.50456 -3.35125 0
M  V30 9605 N 914.944 1.19125 -1.03184 0
M  V30 9606 C 915.874 2.24675 -0.635889 0
M  V30 9607 C 916.855 1.66321 0.356565 0
M  V30 9608 O 918.04 1.92728 0.238625 0
M  V30 9609 C 915.17 3.47298 0.011069 0
M  V30 9610 C 914.124 4.18345 -0.903979 0
M  V30 9611 C 913.45 5.34561 -0.12197 0
M  V30 9612 C 914.75 4.72816 -2.21907 0
M  V30 9613 H 916.444 2.5805 -1.51825 0
M  V30 9614 H 913.99 1.24039 -0.73146 0
M  V30 9615 H 915.943 4.20333 0.299729 0
M  V30 9616 H 914.667 3.13131 0.928245 0
M  V30 9617 H 913.326 3.47196 -1.17688 0
M  V30 9618 H 912.974 4.9664 0.797334 0
M  V30 9619 H 912.674 5.83029 -0.731498 0
M  V30 9620 H 914.198 6.10391 0.159881 0
M  V30 9621 H 915.612 5.3759 -1.99173 0
M  V30 9622 H 914.009 5.31782 -2.78078 0
M  V30 9623 H 915.079 3.9072 -2.87168 0
M  V30 9624 N 916.422 0.810101 1.35185 0
M  V30 9625 C 917.67 0.391343 1.98275 0
M  V30 9626 C 917.991 -1.04592 1.64577 0
M  V30 9627 O 917.261 -1.72417 0.93001 0
M  V30 9628 H 915.841 0.141715 0.733434 0
M  V30 9629 H 918.503 1.03672 1.6504 0
M  V30 9630 H 917.599 0.49991 3.0807 0
M  V30 9631 N 917.9 -1.47166 0.563914 0
M  V30 9632 C 918.833 -2.27058 -0.227989 0
M  V30 9633 C 919.811 -1.34468 -0.914179 0
M  V30 9634 O 920.995 -1.63857 -0.931829 0
M  V30 9635 C 918.122 -3.11689 -1.32543 0
M  V30 9636 C 917.168 -4.19906 -0.747084 0
M  V30 9637 S 918.001 -5.33916 0.41153 0
M  V30 9638 C 919.157 -6.22112 -0.687566 0
M  V30 9639 H 919.39 -2.93876 0.449939 0
M  V30 9640 H 916.923 -1.50372 0.350382 0
M  V30 9641 H 918.881 -3.61017 -1.95389 0
M  V30 9642 H 917.542 -2.44221 -1.97522 0
M  V30 9643 H 916.735 -4.78876 -1.57141 0
M  V30 9644 H 916.337 -3.73493 -0.194671 0
M  V30 9645 H 918.629 -6.58867 -1.578 0
M  V30 9646 H 919.572 -7.07971 -0.135058 0
M  V30 9647 H 919.98 -5.55871 -0.983255 0
M  V30 9648 N 919.378 -0.300708 -1.54705 0
M  V30 9649 C 920.624 0.301982 -2.01146 0
M  V30 9650 C 920.979 1.51548 -1.18537 0
M  V30 9651 O 920.272 1.89914 -0.253656 0
M  V30 9652 C 920.466 0.710108 -3.50275 0
M  V30 9653 C 920.295 -0.462291 -4.47318 0
M  V30 9654 C 919.065 -0.954214 -4.96208 0
M  V30 9655 C 921.263 -1.30716 -4.97411 0
M  V30 9656 N 919.245 -2.09341 -5.77105 0
M  V30 9657 C 920.616 -2.29384 -5.76006 0
M  V30 9658 C 922.671 -1.33756 -4.79597 0
M  V30 9659 C 921.374 -3.30869 -6.38685 0
M  V30 9660 C 923.4 -2.34099 -5.43094 0
M  V30 9661 C 922.762 -3.31498 -6.21521 0
M  V30 9662 H 918.861 0.0749709 -0.778398 0
M  V30 9663 H 921.445 -0.430557 -1.8988 0
M  V30 9664 H 919.616 1.41182 -3.61832 0
M  V30 9665 H 921.348 1.29231 -3.83512 0
M  V30 9666 H 918.103 -0.529238 -4.70634 0
M  V30 9667 H 918.527 -2.66739 -6.22237 0
M  V30 9668 H 923.169 -0.598284 -4.18546 0
M  V30 9669 H 920.887 -4.05717 -6.9887 0
M  V30 9670 H 924.473 -2.37225 -5.31239 0
M  V30 9671 H 923.353 -4.07872 -6.69784 0
M  V30 9672 N 920.856 1.57574 -0.0284266 0
M  V30 9673 C 922.272 1.56194 0.327958 0
M  V30 9674 C 922.472 1.03397 1.72949 0
M  V30 9675 O 921.528 0.680392 2.4316 0
M  V30 9676 C 922.841 3.00177 0.177196 0
M  V30 9677 C 924.389 3.12 0.250014 0
M  V30 9678 C 924.864 4.57821 0.128049 0
M  V30 9679 N 926.355 4.6283 0.185054 0
M  V30 9680 C 927.09 5.73286 0.114454 0
M  V30 9681 N 926.586 6.928 -0.00719225 0
M  V30 9682 N 928.379 5.61848 0.16839 0
M  V30 9683 H 920.53 1.90224 -0.944921 0
M  V30 9684 H 922.793 0.874987 -0.364832 0
M  V30 9685 H 922.499 3.42753 -0.788224 0
M  V30 9686 H 922.373 3.65101 0.94768 0
M  V30 9687 H 924.76 2.69337 1.20589 0
M  V30 9688 H 924.841 2.49799 -0.550835 0
M  V30 9689 H 924.485 5.01165 -0.824407 0
M  V30 9690 H 924.415 5.18001 0.947753 0
M  V30 9691 H 926.906 3.76867 0.279247 0
M  V30 9692 H 927.219 7.72781 -0.0543903 0
M  V30 9693 H 925.564 6.94987 -0.0419648 0
M  V30 9694 H 928.755 4.67367 0.261821 0
M  V30 9695 H 928.928 6.47907 0.109908 0
M  V30 9696 N 922.334 -0.244713 1.55689 0
M  V30 9697 C 923.284 -1.30596 1.86892 0
M  V30 9698 C 924.268 -1.43388 0.729972 0
M  V30 9699 O 925.46 -1.46593 0.99194 0
M  V30 9700 C 922.589 -2.66099 2.16902 0
M  V30 9701 C 921.675 -2.57302 3.37129 0
M  V30 9702 N 922.066 -2.18139 4.56343 0
M  V30 9703 C 920.364 -2.88311 3.40283 0
M  V30 9704 C 921.065 -2.20028 5.38482 0
M  V30 9705 N 920.041 -2.59616 4.77599 0
M  V30 9706 H 923.843 -0.993699 2.76591 0
M  V30 9707 H 921.357 -0.453334 1.55944 0
M  V30 9708 H 923.354 -3.4269 2.37422 0
M  V30 9709 H 922.014 -2.9819 1.28502 0
M  V30 9710 H 923.025 -1.89647 4.81928 0
M  V30 9711 H 919.702 -3.24928 2.62161 0
M  V30 9712 H 921.092 -1.9207 6.43862 0
M  V30 9713 N 923.813 -1.49104 -0.510467 0
M  V30 9714 C 925.062 -1.57362 -1.26175 0
M  V30 9715 C 925.375 -0.261218 -1.93848 0
M  V30 9716 O 926.581 -0.222238 -2.70589 0
M  V30 9717 C 925.037 -2.77606 -2.29048 0
M  V30 9718 C 924.645 -4.15567 -1.67357 0
M  V30 9719 C 926.389 -2.95188 -3.05064 0
M  V30 9720 C 924.296 -5.27046 -2.68285 0
M  V30 9721 H 923.226 -0.585887 -0.474608 0
M  V30 9722 H 925.877 -1.75474 -0.536753 0
M  V30 9723 H 924.259 -2.52968 -3.04669 0
M  V30 9724 H 925.433 -4.50304 -0.977924 0
M  V30 9725 H 923.748 -4.03264 -1.03765 0
M  V30 9726 H 926.345 -3.75643 -3.80521 0
M  V30 9727 H 926.688 -2.05385 -3.62108 0
M  V30 9728 H 927.221 -3.19821 -2.36558 0
M  V30 9729 H 923.96 -6.18878 -2.16034 0
M  V30 9730 H 923.48 -4.96774 -3.36118 0
M  V30 9731 H 925.159 -5.55983 -3.30896 0
M  V30 9732 N 925.291 0.760815 -1.38019 0
M  V30 9733 C 926.531 1.53264 -1.35239 0
M  V30 9734 C 926.895 1.91908 0.0595038 0
M  V30 9735 O 928.096 2.67962 0.212122 0
M  V30 9736 C 926.367 2.75643 -2.27499 0
M  V30 9737 S 927.926 3.6559 -2.42672 0
M  V30 9738 H 924.744 0.52457 -0.479945 0
M  V30 9739 H 927.346 0.893737 -1.73875 0
M  V30 9740 H 926.05 2.4535 -3.28986 0
M  V30 9741 H 925.581 3.44483 -1.89987 0
M  V30 9742 H 927.596 4.68124 -1.64542 0
M  V30 9743 N 926.769 1.22769 0.988202 0
M  V30 9744 C 927.997 1.08155 1.76381 0
M  V30 9745 C 928.412 -0.367573 1.85187 0
M  V30 9746 O 927.769 -1.25455 1.32541 0
M  V30 9747 C 927.82 1.69193 3.19462 0
M  V30 9748 O 927.541 3.08437 3.11125 0
M  V30 9749 C 929.042 1.59915 4.13451 0
M  V30 9750 H 926.262 0.378908 0.553778 0
M  V30 9751 H 928.806 1.6246 1.24206 0
M  V30 9752 H 926.961 1.18939 3.6869 0
M  V30 9753 H 927.375 3.37916 4.0114 0
M  V30 9754 H 928.849 2.07339 5.1158 0
M  V30 9755 H 929.326 0.556546 4.3566 0
M  V30 9756 H 929.932 2.09497 3.70123 0
M  V30 9757 N 928.247 -1.18576 1.03814 0
M  V30 9758 C 929.658 -1.70159 0.768299 0
M  V30 9759 C 930.009 -1.8286 -0.711106 0
M  V30 9760 O 929.134 -1.5063 -1.55369 0
M  V30 9761 C 929.729 -3.09062 1.38804 0
M  V30 9762 C 928.288 -3.57866 1.16656 0
M  V30 9763 C 927.435 -2.34484 1.48029 0
M  V30 9764 H 930.386 -1.03287 1.20488 0
M  V30 9765 H 930.407 -3.72211 0.7899 0
M  V30 9766 H 929.919 -2.99785 2.46476 0
M  V30 9767 H 928.02 -3.72442 0.108471 0
M  V30 9768 H 928.133 -4.41445 1.8618 0
M  V30 9769 H 926.497 -2.38273 0.899902 0
M  V30 9770 H 927.28 -2.27829 2.56805 0
M  V30 9771 N 929.725 -0.817259 -1.34754 0
M  V30 9772 C 931.141 -0.502309 -1.51489 0
M  V30 9773 C 931.341 0.974568 -1.76364 0
M  V30 9774 O 930.397 1.75924 -1.81127 0
M  V30 9775 C 931.71 -1.35693 -2.68343 0
M  V30 9776 C 933.258 -1.35347 -2.82224 0
M  V30 9777 C 933.733 -2.19244 -4.02114 0
M  V30 9778 N 935.224 -2.16837 -4.09311 0
M  V30 9779 C 935.959 -2.78505 -5.01221 0
M  V30 9780 N 935.455 -3.4914 -5.98392 0
M  V30 9781 N 937.248 -2.68089 -4.94049 0
M  V30 9782 H 929.399 -1.77359 -1.16866 0
M  V30 9783 H 931.662 -0.755476 -0.572678 0
M  V30 9784 H 931.368 -2.40548 -2.56573 0
M  V30 9785 H 931.242 -1.01764 -3.63213 0
M  V30 9786 H 933.629 -0.312727 -2.93438 0
M  V30 9787 H 933.71 -1.7327 -1.88179 0
M  V30 9788 H 933.354 -3.23365 -3.9166 0
M  V30 9789 H 933.284 -1.78675 -4.95361 0
M  V30 9790 H 935.775 -1.65452 -3.39756 0
M  V30 9791 H 936.088 -3.93455 -6.65141 0
M  V30 9792 H 934.433 -3.53246 -5.98533 0
M  V30 9793 H 937.624 -2.12485 -4.17094 0
M  V30 9794 H 937.797 -3.16436 -5.65484 0
M  V30 9795 N 931.203 1.46865 -0.571711 0
M  V30 9796 C 932.135 2.28277 0.205479 0
M  V30 9797 C 933.148 1.37866 0.865835 0
M  V30 9798 O 934.337 1.62564 0.737247 0
M  V30 9799 C 931.437 3.12572 1.30965 0
M  V30 9800 C 930.61 4.31038 0.743328 0
M  V30 9801 C 929.669 4.96815 1.73382 0
M  V30 9802 O 928.695 5.54755 1.2742 0
M  V30 9803 N 929.897 4.92825 3.06764 0
M  V30 9804 H 932.662 2.95618 -0.49294 0
M  V30 9805 H 930.223 1.56655 -0.408744 0
M  V30 9806 H 932.215 3.53442 1.97131 0
M  V30 9807 H 930.785 2.47378 1.91109 0
M  V30 9808 H 930.005 3.94084 -0.0955004 0
M  V30 9809 H 931.293 5.07632 0.344556 0
M  V30 9810 H 930.691 4.46978 3.46738 0
M  V30 9811 H 929.248 5.3767 3.68449 0
M  V30 9812 N 932.681 0.308908 1.54543 0
M  V30 9813 C 933.927 -0.298478 2.00592 0
M  V30 9814 C 934.26 -1.52929 1.19692 0
M  V30 9815 O 933.535 -1.9254 0.27542 0
M  V30 9816 C 933.818 -0.647218 3.54236 0
M  V30 9817 C 933.671 0.593284 4.4587 0
M  V30 9818 C 934.99 -1.47064 4.14801 0
M  V30 9819 H 932.109 -0.107012 0.72919 0
M  V30 9820 H 934.751 0.422578 1.85241 0
M  V30 9821 H 932.901 -1.26153 3.67447 0
M  V30 9822 H 934.573 1.2317 4.44552 0
M  V30 9823 H 932.816 1.22501 4.16144 0
M  V30 9824 H 933.487 0.305018 5.51157 0
M  V30 9825 H 935.963 -0.951511 4.05075 0
M  V30 9826 H 934.839 -1.68343 5.22448 0
M  V30 9827 H 935.1 -2.4623 3.67183 0
M  V30 9828 N 934.159 -1.57557 0.0367827 0
M  V30 9829 C 935.122 -2.09591 -0.927589 0
M  V30 9830 C 936.122 -1.01252 -1.24919 0
M  V30 9831 O 937.312 -1.27382 -1.18825 0
M  V30 9832 C 934.444 -2.56816 -2.24184 0
M  V30 9833 H 935.637 -2.96086 -0.476784 0
M  V30 9834 H 933.19 -1.54864 -0.211385 0
M  V30 9835 H 933.925 -1.73673 -2.73876 0
M  V30 9836 H 933.71 -3.35973 -2.0215 0
M  V30 9837 H 935.2 -2.97271 -2.93291 0
M  V30 9838 N 935.637 0.236453 -1.55816 0
M  V30 9839 C 936.914 0.986463 -1.68903 0
M  V30 9840 C 937.294 2.02984 -0.579722 0
M  V30 9841 O 936.642 2.24693 0.415389 0
M  V30 9842 C 936.852 1.61038 -3.09625 0
M  V30 9843 C 938.2 2.10829 -3.6856 0
M  V30 9844 O 939.224 1.7096 -3.12492 0
M  V30 9845 O 938.083 2.84064 -4.66873 0
M  V30 9846 H 935.177 0.459837 -0.687371 0
M  V30 9847 H 937.723 0.229412 -1.68142 0
M  V30 9848 H 936.495 0.856232 -3.81817 0
M  V30 9849 H 936.118 2.43336 -3.14441 0
M  V30 9850 N 937.115 1.49373 0.502552 0
M  V30 9851 C 938.062 1.65927 1.60427 0
M  V30 9852 C 939.032 0.500768 1.58371 0
M  V30 9853 O 940.217 0.727606 1.76382 0
M  V30 9854 C 937.357 1.73043 2.9858 0
M  V30 9855 C 936.47 3.00187 3.10663 0
M  V30 9856 C 935.605 2.98292 4.3954 0
M  V30 9857 C 934.644 4.20022 4.4525 0
M  V30 9858 N 933.781 4.16046 5.65553 0
M  V30 9859 H 938.621 2.59998 1.45619 0
M  V30 9860 H 936.158 1.28912 0.708519 0
M  V30 9861 H 938.116 1.7515 3.78653 0
M  V30 9862 H 936.746 0.824397 3.12095 0
M  V30 9863 H 935.798 3.07699 2.23663 0
M  V30 9864 H 937.11 3.9018 3.10742 0
M  V30 9865 H 936.264 2.98953 5.27932 0
M  V30 9866 H 935.003 2.06075 4.42023 0
M  V30 9867 H 934.008 4.19607 3.5526 0
M  V30 9868 H 935.233 5.13431 4.44484 0
M  V30 9869 H 933.179 3.26665 5.68881 0
M  V30 9870 H 933.096 4.99773 5.67242 0
M  V30 9871 H 934.364 4.20807 6.56156 0
M  V30 9872 N 938.594 -0.753485 1.38421 0
M  V30 9873 C 939.84 -1.51485 1.34834 0
M  V30 9874 C 940.173 -1.94102 -0.0615381 0
M  V30 9875 O 939.448 -1.65439 -1.02274 0
M  V30 9876 C 939.731 -2.76736 2.30411 0
M  V30 9877 C 939.584 -2.40256 3.80259 0
M  V30 9878 C 940.903 -3.7876 2.24119 0
M  V30 9879 H 938.022 -0.549534 0.491102 0
M  V30 9880 H 940.664 -0.863006 1.6927 0
M  V30 9881 H 938.814 -3.32357 2.01175 0
M  V30 9882 H 940.486 -1.90409 4.20169 0
M  V30 9883 H 938.729 -1.72714 3.97935 0
M  V30 9884 H 939.4 -3.29869 4.42595 0
M  V30 9885 H 941.876 -3.32679 2.49928 0
M  V30 9886 H 940.752 -4.64092 2.93104 0
M  V30 9887 H 941.013 -4.24352 1.24006 0
M  V30 9888 N 940.072 -1.23292 -0.981677 0
M  V30 9889 C 941.019 -1.01296 -2.07383 0
M  V30 9890 C 941.989 0.069139 -1.65956 0
M  V30 9891 O 943.174 -0.0827108 -1.90621 0
M  V30 9892 C 940.314 -0.608876 -3.39686 0
M  V30 9893 C 939.427 -1.76296 -3.9439 0
M  V30 9894 C 938.562 -1.30578 -5.14901 0
M  V30 9895 C 937.601 -2.4307 -5.61768 0
M  V30 9896 N 936.738 -1.98319 -6.73509 0
M  V30 9897 H 941.578 -1.9478 -2.25532 0
M  V30 9898 H 939.115 -0.970356 -1.10555 0
M  V30 9899 H 941.073 -0.355702 -4.15681 0
M  V30 9900 H 939.703 0.288961 -3.21504 0
M  V30 9901 H 938.755 -2.13017 -3.15163 0
M  V30 9902 H 940.067 -2.60871 -4.25145 0
M  V30 9903 H 939.221 -1.01066 -5.98223 0
M  V30 9904 H 937.96 -0.430386 -4.85797 0
M  V30 9905 H 936.965 -2.73358 -4.77028 0
M  V30 9906 H 938.19 -3.31144 -5.92892 0
M  V30 9907 H 936.136 -1.13157 -6.46167 0
M  V30 9908 H 936.053 -2.76454 -7.0364 0
M  V30 9909 H 937.321 -1.71907 -7.60308 0
M  V30 9910 N 941.55 1.18024 -1.04442 0
M  V30 9911 C 942.966 1.40107 -0.76435 0
M  V30 9912 C 943.166 1.90914 0.644516 0
M  V30 9913 O 942.222 2.0959 1.40813 0
M  V30 9914 C 943.535 2.39851 -1.81361 0
M  V30 9915 C 945.083 2.53571 -1.83496 0
M  V30 9916 C 945.558 3.56583 -2.87424 0
M  V30 9917 N 947.049 3.64094 -2.86339 0
M  V30 9918 C 947.784 4.43537 -3.63405 0
M  V30 9919 N 947.28 5.26557 -4.50233 0
M  V30 9920 N 949.073 4.38336 -3.51877 0
M  V30 9921 H 941.224 0.833726 -1.95353 0
M  V30 9922 H 943.487 0.42881 -0.845474 0
M  V30 9923 H 943.193 2.09576 -2.82438 0
M  V30 9924 H 943.067 3.39251 -1.6489 0
M  V30 9925 H 945.454 2.83161 -0.830883 0
M  V30 9926 H 945.535 1.54272 -2.04044 0
M  V30 9927 H 945.179 3.27733 -3.88012 0
M  V30 9928 H 945.109 4.55569 -2.6413 0
M  V30 9929 H 947.6 3.04814 -2.23376 0
M  V30 9930 H 947.913 5.84336 -5.05738 0
M  V30 9931 H 946.258 5.25964 -4.54298 0
M  V30 9932 H 949.449 3.72528 -2.83444 0
M  V30 9933 H 949.622 5.00007 -4.12186 0
M  V30 9934 N 943.028 0.824394 1.34319 0
M  V30 9935 C 944.275 0.413167 1.9824 0
M  V30 9936 C 944.603 -1.02412 1.65354 0
M  V30 9937 O 943.858 -1.72831 0.91803 0
M  V30 9938 C 944.157 0.564024 3.52921 0
M  V30 9939 C 943.823 1.96725 4.05722 0
M  V30 9940 C 942.485 2.35111 4.19853 0
M  V30 9941 C 944.837 2.88447 4.34106 0
M  V30 9942 C 942.165 3.64551 4.59695 0
M  V30 9943 C 944.517 4.17353 4.75394 0
M  V30 9944 C 943.181 4.55714 4.8773 0
M  V30 9945 H 942.451 0.151188 0.725412 0
M  V30 9946 H 945.098 1.04863 1.60238 0
M  V30 9947 H 943.403 -0.154816 3.91494 0
M  V30 9948 H 945.1 0.226347 4.00361 0
M  V30 9949 H 941.69 1.65908 3.95187 0
M  V30 9950 H 945.874 2.60034 4.22725 0
M  V30 9951 H 941.13 3.94097 4.67437 0
M  V30 9952 H 945.304 4.88512 4.96315 0
M  V30 9953 H 942.931 5.56064 5.1836 0
M  V30 9954 N 944.506 -1.46559 0.579492 0
M  V30 9955 C 945.753 -2.02399 0.0638418 0
M  V30 9956 C 946.081 -1.45135 -1.29484 0
M  V30 9957 O 945.336 -0.605061 -1.86112 0
M  V30 9958 C 945.635 -3.57357 -0.0552803 0
M  V30 9959 C 945.301 -4.33646 1.23539 0
M  V30 9960 C 943.963 -4.54207 1.589 0
M  V30 9961 C 946.315 -4.77476 2.08965 0
M  V30 9962 C 943.643 -5.1585 2.79492 0
M  V30 9963 C 945.995 -5.4045 3.2878 0
M  V30 9964 C 944.659 -5.5924 3.64427 0
M  V30 9965 H 943.929 -0.740632 0.0233614 0
M  V30 9966 H 946.576 -1.75968 0.755482 0
M  V30 9967 H 944.881 -3.82907 -0.83003 0
M  V30 9968 H 946.578 -3.98237 -0.469964 0
M  V30 9969 H 943.168 -4.17937 0.9501 0
M  V30 9970 H 947.352 -4.61349 1.8295 0
M  V30 9971 H 942.608 -5.28589 3.07252 0
M  V30 9972 H 946.782 -5.73371 3.95245 0
M  V30 9973 H 944.409 -6.06775 4.57961 0
M  V30 9974 N 945.984 -0.3171 -1.54377 0
M  V30 9975 C 947.209 0.292311 -2.0533 0
M  V30 9976 C 947.634 1.45503 -1.19207 0
M  V30 9977 O 946.992 1.80197 -0.199721 0
M  V30 9978 C 947.04 0.710787 -3.53525 0
M  V30 9979 O 946.144 1.81387 -3.70368 0
M  V30 9980 H 945.485 0.0539976 -0.661801 0
M  V30 9981 H 948.015 -0.463629 -1.99278 0
M  V30 9982 H 948.025 0.995216 -3.95676 0
M  V30 9983 H 946.7 -0.139668 -4.15665 0
M  V30 9984 H 945.277 1.52875 -3.40123 0
M  V30 9985 N 947.462 1.57535 -0.0451378 0
M  V30 9986 C 948.409 2.11176 0.931313 0
M  V30 9987 C 949.379 1.01765 1.31275 0
M  V30 9988 O 950.564 1.29279 1.40327 0
M  V30 9989 C 947.704 2.65639 2.20295 0
M  V30 9990 C 946.817 3.89114 1.87654 0
M  V30 9991 C 945.952 4.31914 3.09232 0
M  V30 9992 C 944.991 5.48105 2.72484 0
M  V30 9993 N 944.128 5.85986 3.86736 0
M  V30 9994 H 948.968 2.94318 0.466986 0
M  V30 9995 H 946.505 1.45462 0.218886 0
M  V30 9996 H 948.463 2.95312 2.94697 0
M  V30 9997 H 947.093 1.85303 2.64316 0
M  V30 9998 H 946.145 3.6607 1.03427 0
M  V30 9999 H 947.457 4.7358 1.56601 0
M  V30 10000 H 946.611 4.63108 3.91939 0
M  V30 10001 H 945.35 3.46247 3.43459 0
M  V30 10002 H 944.355 5.16589 1.88192 0
M  V30 10003 H 945.58 6.35482 2.39455 0
M  V30 10004 H 943.526 5.03273 4.20775 0
M  V30 10005 H 943.443 6.65129 3.5936 0
M  V30 10006 H 944.711 6.21793 4.701 0
M  V30 10007 N 948.94 -0.228186 1.55939 0
M  V30 10008 C 950.17 -0.969211 1.82455 0
M  V30 10009 C 950.578 -1.78714 0.621133 0
M  V30 10010 O 949.921 -1.78841 -0.419694 0
M  V30 10011 C 949.983 -1.94088 3.02605 0
M  V30 10012 C 949.647 -1.30811 4.37878 0
M  V30 10013 C 950.644 -0.701275 5.15149 0
M  V30 10014 C 948.329 -1.32187 4.84595 0
M  V30 10015 C 950.323 -0.116631 6.37293 0
M  V30 10016 C 948.01 -0.733375 6.06683 0
M  V30 10017 C 949.008 -0.131804 6.82873 0
M  V30 10018 O 948.696 0.447549 8.02653 0
M  V30 10019 H 948.428 -0.289951 0.610659 0
M  V30 10020 H 950.982 -0.250576 2.03866 0
M  V30 10021 H 949.212 -2.69833 2.76996 0
M  V30 10022 H 950.901 -2.5469 3.1605 0
M  V30 10023 H 951.667 -0.683022 4.80166 0
M  V30 10024 H 947.546 -1.77949 4.25271 0
M  V30 10025 H 951.09 0.353539 6.96704 0
M  V30 10026 H 946.987 -0.749019 6.4114 0
M  V30 10027 H 947.755 0.341224 8.17788 0
M  V30 10028 N 950.418 -1.49637 -0.494624 0
M  V30 10029 C 951.643 -1.63431 -1.27691 0
M  V30 10030 C 952.068 -0.30813 -1.85559 0
M  V30 10031 O 951.426 0.725083 -1.66169 0
M  V30 10032 C 951.474 -2.71043 -2.3784 0
M  V30 10033 O 950.578 -2.3066 -3.41862 0
M  V30 10034 H 949.919 -0.546804 -0.376698 0
M  V30 10035 H 952.449 -1.95866 -0.591413 0
M  V30 10036 H 952.459 -2.93406 -2.83508 0
M  V30 10037 H 951.134 -3.67306 -1.95088 0
M  V30 10038 H 949.711 -2.18652 -3.02069 0
M  V30 10039 N 951.896 0.746133 -1.38819 0
M  V30 10040 C 952.829 1.86833 -1.31029 0
M  V30 10041 C 953.807 1.61533 -0.185948 0
M  V30 10042 O 954.991 1.84942 -0.364529 0
M  V30 10043 C 952.118 3.22596 -1.03198 0
M  V30 10044 C 951.164 3.66772 -2.17671 0
M  V30 10045 S 951.997 3.77438 -3.7987 0
M  V30 10046 C 953.153 5.16008 -3.54241 0
M  V30 10047 H 953.386 1.93155 -2.26005 0
M  V30 10048 H 950.919 0.909872 -1.24742 0
M  V30 10049 H 952.877 4.00995 -0.878237 0
M  V30 10050 H 951.538 3.13943 -0.0992704 0
M  V30 10051 H 950.731 4.65266 -1.93762 0
M  V30 10052 H 950.333 2.95547 -2.2919 0
M  V30 10053 H 952.625 6.01996 -3.10816 0
M  V30 10054 H 953.568 5.44941 -4.52156 0
M  V30 10055 H 953.976 4.85158 -2.88587 0
M  V30 10056 N 953.375 1.23811 0.975125 0
M  V30 10057 C 954.323 1.02149 2.0897 0
M  V30 10058 C 955.317 -0.0412172 1.6935 0
M  V30 10059 O 956.523 0.112726 1.79647 0
M  V30 10060 H 952.898 0.313259 0.683647 0
M  V30 10061 H 954.869 1.96686 2.24404 0
M  V30 10062 C 953.618 0.635023 3.41852 0
M  V30 10063 H 952.941 1.44449 3.72793 0
M  V30 10064 H 954.381 0.52301 4.20762 0
M  V30 10065 C 952.84 -0.657207 3.30428 0
M  V30 10066 O 953.37 -1.70494 3.63723 0
M  V30 10067 N 951.576 -0.635122 2.83575 0
M  V30 10068 H 951.123 0.21784 2.56677 0
M  V30 10069 H 951.081 -1.49995 2.76313 0
M  V30 10070 N 954.853 -1.17469 1.05066 0
M  V30 10071 C 956.269 -1.39699 0.771769 0
M  V30 10072 C 956.469 -1.91253 -0.634382 0
M  V30 10073 O 955.525 -2.10334 -1.39699 0
M  V30 10074 C 956.838 -2.38886 1.82631 0
M  V30 10075 C 958.386 -2.52595 1.84838 0
M  V30 10076 C 958.861 -3.55054 2.89311 0
M  V30 10077 N 960.352 -3.6257 2.88266 0
M  V30 10078 C 961.087 -4.41603 3.65752 0
M  V30 10079 N 960.583 -5.24162 4.53019 0
M  V30 10080 N 962.376 -4.36464 3.54197 0
M  V30 10081 H 954.527 -0.823355 1.95792 0
M  V30 10082 H 956.79 -0.42432 0.847736 0
M  V30 10083 H 956.496 -2.08075 2.83545 0
M  V30 10084 H 956.37 -3.38371 1.66687 0
M  V30 10085 H 958.757 -2.82717 0.845888 0
M  V30 10086 H 958.838 -1.53188 2.04859 0
M  V30 10087 H 958.482 -3.2567 3.89745 0
M  V30 10088 H 958.412 -4.54162 2.66542 0
M  V30 10089 H 960.903 -3.03625 2.24989 0
M  V30 10090 H 961.216 -5.81646 5.0883 0
M  V30 10091 H 959.561 -5.23547 4.57081 0
M  V30 10092 H 962.752 -3.7102 2.85416 0
M  V30 10093 H 962.925 -4.97814 4.14832 0
M  V30 10094 N 956.331 -0.831506 -1.3388 0
M  V30 10095 C 957.281 -0.231656 -2.2682 0
M  V30 10096 C 958.265 0.609075 -1.48926 0
M  V30 10097 O 959.457 0.462249 -1.70857 0
M  V30 10098 C 956.586 0.59846 -3.38043 0
M  V30 10099 C 955.672 -0.253372 -4.23342 0
M  V30 10100 N 956.063 -1.32854 -4.8804 0
M  V30 10101 C 954.361 -0.0391537 -4.45983 0
M  V30 10102 C 955.062 -1.85069 -5.51475 0
M  V30 10103 N 954.038 -1.15327 -5.31226 0
M  V30 10104 H 957.84 -1.05396 -2.74352 0
M  V30 10105 H 955.354 -0.675195 -1.47699 0
M  V30 10106 H 957.351 1.04443 -4.03605 0
M  V30 10107 H 956.011 1.41882 -2.92061 0
M  V30 10108 H 957.022 -1.71139 -4.88806 0
M  V30 10109 H 953.699 0.748356 -4.10738 0
M  V30 10110 H 955.089 -2.75065 -6.13016 0
M  V30 10111 N 957.809 1.4625 -0.587256 0
M  V30 10112 C 958.756 2.30354 0.143384 0
M  V30 10113 C 959.726 1.40891 0.879716 0
M  V30 10114 O 960.911 1.69837 0.869486 0
M  V30 10115 C 958.051 3.25441 1.14815 0
M  V30 10116 C 957.164 4.30004 0.414792 0
M  V30 10117 C 956.299 5.12214 1.40748 0
M  V30 10118 C 955.338 6.08523 0.660786 0
M  V30 10119 N 954.475 6.83585 1.60176 0
M  V30 10120 H 959.315 2.92304 -0.579866 0
M  V30 10121 H 956.852 1.44055 -0.29777 0
M  V30 10122 H 958.81 3.79018 1.7436 0
M  V30 10123 H 957.44 2.6529 1.83906 0
M  V30 10124 H 956.492 3.79248 -0.295787 0
M  V30 10125 H 957.804 4.98515 -0.168738 0
M  V30 10126 H 956.958 5.70091 2.0756 0
M  V30 10127 H 955.697 4.43675 2.02494 0
M  V30 10128 H 954.702 5.49796 -0.0210864 0
M  V30 10129 H 955.927 6.79083 0.0486551 0
M  V30 10130 H 953.873 6.17752 2.20724 0
M  V30 10131 H 953.79 7.48373 1.07115 0
M  V30 10132 H 955.058 7.46016 2.26009 0
M  V30 10133 N 959.287 0.325282 1.54207 0
M  V30 10134 C 960.22 -0.582485 2.20641 0
M  V30 10135 C 961.198 -1.11441 1.18405 0
M  V30 10136 O 962.382 -1.17809 1.4715 0
M  V30 10137 C 959.509 -1.79944 2.86946 0
M  V30 10138 C 958.555 -1.39861 4.02916 0
M  V30 10139 S 959.388 -0.433859 5.3374 0
M  V30 10140 C 960.544 -1.65806 6.03539 0
M  V30 10141 H 960.777 -0.0181601 2.97294 0
M  V30 10142 H 958.31 0.109365 1.54012 0
M  V30 10143 H 960.268 -2.4977 3.25769 0
M  V30 10144 H 958.929 -2.33495 2.10092 0
M  V30 10145 H 958.122 -2.30547 4.48179 0
M  V30 10146 H 957.724 -0.780036 3.65775 0
M  V30 10147 H 960.016 -2.59524 6.25822 0
M  V30 10148 H 960.959 -1.24756 6.97023 0
M  V30 10149 H 961.367 -1.84581 5.3347 0
M  V30 10150 N 960.765 -1.57509 0.0534917 0
M  V30 10151 C 961.993 -1.97098 -0.629298 0
M  V30 10152 C 962.408 -0.931128 -1.64242 0
M  V30 10153 O 961.765 0.0843866 -1.82305 0
M  V30 10154 C 961.816 -3.36767 -1.31415 0
M  V30 10155 O 961.537 -4.36766 -0.341599 0
M  V30 10156 C 963.038 -3.91127 -2.08649 0
M  V30 10157 H 960.258 -0.648611 -0.171886 0
M  V30 10158 H 962.802 -2.04145 0.120479 0
M  V30 10159 H 960.957 -3.30863 -2.01515 0
M  V30 10160 H 961.371 -5.1788 -0.830715 0
M  V30 10161 H 962.845 -4.91129 -2.51985 0
M  V30 10162 H 963.322 -3.26679 -2.9356 0
M  V30 10163 H 963.928 -4.00376 -1.43456 0
M  V30 10164 N 962.243 0.219913 -1.56058 0
M  V30 10165 C 963.471 0.960915 -1.83232 0
M  V30 10166 C 963.886 1.77878 -0.632828 0
M  V30 10167 O 963.243 1.78093 0.398624 0
M  V30 10168 C 963.294 1.87716 -3.08942 0
M  V30 10169 O 963.015 1.09235 -4.24263 0
M  V30 10170 C 964.516 2.73192 -3.49115 0
M  V30 10171 H 961.736 0.281546 -0.609075 0
M  V30 10172 H 964.28 0.234648 -2.03149 0
M  V30 10173 H 962.435 2.55736 -2.90995 0
M  V30 10174 H 962.849 1.71446 -4.95688 0
M  V30 10175 H 964.323 3.33181 -4.40107 0
M  V30 10176 H 964.8 3.45668 -2.70943 0
M  V30 10177 H 965.406 2.10583 -3.69506 0
M  V30 10178 N 963.721 1.49897 0.486681 0
M  V30 10179 C 964.651 1.7054 1.59494 0
M  V30 10180 C 965.632 0.554184 1.60819 0
M  V30 10181 O 966.817 0.791617 1.77333 0
M  V30 10182 C 963.947 1.78517 2.97908 0
M  V30 10183 C 962.901 2.93571 3.11449 0
M  V30 10184 C 962.227 2.86674 4.51356 0
M  V30 10185 C 963.527 4.34308 2.90127 0
M  V30 10186 H 965.221 2.63329 1.42472 0
M  V30 10187 H 962.767 1.2672 0.683969 0
M  V30 10188 H 964.72 1.91544 3.75352 0
M  V30 10189 H 963.444 0.823381 3.16051 0
M  V30 10190 H 962.103 2.80169 2.36433 0
M  V30 10191 H 961.751 1.88373 4.66395 0
M  V30 10192 H 961.451 3.63903 4.61355 0
M  V30 10193 H 962.975 3.01728 5.30841 0
M  V30 10194 H 964.389 4.48317 3.57331 0
M  V30 10195 H 962.786 5.12869 3.11585 0
M  V30 10196 H 963.856 4.47759 1.86119 0
M  V30 10197 N 965.199 -0.738761 1.39212 0
M  V30 10198 C 966.427 -1.52801 1.39497 0
M  V30 10199 C 966.842 -1.88797 -0.0114917 0
M  V30 10200 O 966.199 -1.53835 -0.981887 0
M  V30 10201 C 966.25 -2.81793 2.2644 0
M  V30 10202 O 965.971 -2.47328 3.61608 0
M  V30 10203 C 967.472 -3.75844 2.35067 0
M  V30 10204 H 964.692 -0.472322 0.476606 0
M  V30 10205 H 967.236 -0.913153 1.8298 0
M  V30 10206 H 965.391 -3.3962 1.8638 0
M  V30 10207 H 965.805 -3.30162 4.07545 0
M  V30 10208 H 967.279 -4.6326 3.00157 0
M  V30 10209 H 967.756 -4.17329 1.3687 0
M  V30 10210 H 968.362 -3.23937 2.75581 0
M  V30 10211 N 966.677 -1.24326 -0.968545 0
M  V30 10212 C 968.088 -1.07561 -1.52603 0
M  V30 10213 C 968.439 0.353245 -1.92994 0
M  V30 10214 O 967.564 1.24151 -1.77244 0
M  V30 10215 C 968.159 -1.94634 -2.77314 0
M  V30 10216 C 966.718 -1.82095 -3.29421 0
M  V30 10217 C 965.865 -1.8962 -2.02335 0
M  V30 10218 H 968.816 -1.37815 -0.786932 0
M  V30 10219 H 968.837 -1.47812 -3.50616 0
M  V30 10220 H 968.349 -2.98621 -2.47885 0
M  V30 10221 H 966.45 -0.809376 -3.63703 0
M  V30 10222 H 966.563 -2.66142 -3.98378 0
M  V30 10223 H 964.927 -1.33339 -2.17009 0
M  V30 10224 H 965.71 -2.95185 -1.75273 0
M  V30 10225 N 968.156 1.1691 -1.05688 0
M  V30 10226 C 969.119 2.19297 -0.666433 0
M  V30 10227 C 970.119 1.5826 0.284674 0
M  V30 10228 O 971.309 1.74068 0.0678757 0
M  V30 10229 C 968.441 3.40894 0.0203656 0
M  V30 10230 H 969.634 2.55354 -1.57272 0
M  V30 10231 H 967.187 1.31078 -0.851359 0
M  V30 10232 H 967.922 3.10388 0.939686 0
M  V30 10233 H 967.707 3.86446 -0.663464 0
M  V30 10234 H 969.197 4.16664 0.279475 0
M  V30 10235 N 969.634 0.838594 1.33437 0
M  V30 10236 C 970.864 0.446995 2.01707 0
M  V30 10237 C 971.272 -0.956335 1.63251 0
M  V30 10238 O 970.615 -1.63289 0.841566 0
M  V30 10239 C 970.677 0.487707 3.56176 0
M  V30 10240 C 970.341 1.8471 4.18009 0
M  V30 10241 C 971.338 2.81028 4.374 0
M  V30 10242 C 969.023 2.13987 4.54439 0
M  V30 10243 C 971.017 4.04785 4.92369 0
M  V30 10244 C 968.704 3.38 5.09116 0
M  V30 10245 C 969.702 4.33216 5.28027 0
M  V30 10246 O 969.39 5.55036 5.81541 0
M  V30 10247 H 969.122 0.175799 0.652741 0
M  V30 10248 H 971.676 1.13265 1.71348 0
M  V30 10249 H 969.906 -0.254719 3.8586 0
M  V30 10250 H 971.595 0.113971 4.0574 0
M  V30 10251 H 972.361 2.5971 4.09604 0
M  V30 10252 H 968.24 1.40668 4.39014 0
M  V30 10253 H 971.784 4.79114 5.07046 0
M  V30 10254 H 967.681 3.59175 5.36343 0
M  V30 10255 H 968.449 5.56772 5.99956 0
M  V30 10256 N 971.112 -1.45937 0.595003 0
M  V30 10257 C 972.062 -2.27491 -0.152331 0
M  V30 10258 C 973.046 -1.36591 -0.850396 0
M  V30 10259 O 974.238 -1.60675 -0.742462 0
M  V30 10260 C 971.367 -3.23203 -1.15735 0
M  V30 10261 C 970.453 -4.2159 -0.46077 0
M  V30 10262 N 970.844 -5.03416 0.490555 0
M  V30 10263 C 969.142 -4.40313 -0.709949 0
M  V30 10264 C 969.843 -5.74714 0.898825 0
M  V30 10265 N 968.819 -5.43046 0.24529 0
M  V30 10266 H 972.621 -2.8815 0.578526 0
M  V30 10267 H 970.135 -1.56936 0.417716 0
M  V30 10268 H 972.132 -3.8035 -1.70704 0
M  V30 10269 H 970.792 -2.64104 -1.8889 0
M  V30 10270 H 971.803 -5.10597 0.866692 0
M  V30 10271 H 968.48 -3.92351 -1.42713 0
M  V30 10272 H 969.87 -6.50487 1.68273 0
M  V30 10273 N 972.59 -0.333456 -1.54032 0
M  V30 10274 C 973.553 0.515392 -2.2333 0
M  V30 10275 C 974.553 1.03566 -1.23007 0
M  V30 10276 O 975.743 0.926514 -1.47517 0
M  V30 10277 C 972.875 1.7169 -2.94508 0
M  V30 10278 H 974.068 -0.0905407 -2.99763 0
M  V30 10279 H 971.621 -0.0846651 -1.56071 0
M  V30 10280 H 972.356 2.3618 -2.22237 0
M  V30 10281 H 972.141 1.35115 -3.68085 0
M  V30 10282 H 973.631 2.31922 -3.47278 0
M  V30 10283 N 974.068 1.57479 -0.061844 0
M  V30 10284 C 974.978 2.15645 0.923826 0
M  V30 10285 C 975.994 1.117 1.33413 0
M  V30 10286 O 977.17 1.4392 1.40887 0
M  V30 10287 C 974.235 2.69857 2.17665 0
M  V30 10288 C 973.296 3.88638 1.8237 0
M  V30 10289 C 972.529 4.40256 3.01679 0
M  V30 10290 O 972.752 3.90908 4.15388 0
M  V30 10291 O 971.686 5.31713 2.82073 0
M  V30 10292 H 975.512 3.0021 0.459094 0
M  V30 10293 H 973.097 1.48534 0.160665 0
M  V30 10294 H 974.979 3.04647 2.9115 0
M  V30 10295 H 973.654 1.88357 2.63255 0
M  V30 10296 H 972.561 3.58719 1.06167 0
M  V30 10297 H 973.894 4.71401 1.4157 0
M  V30 10298 N 975.546 -0.211634 1.56173 0
M  V30 10299 C 976.494 -1.28188 1.94089 0
M  V30 10300 C 977.488 -1.47999 0.824167 0
M  V30 10301 O 978.694 -1.49056 1.00907 0
M  V30 10302 H 975.069 -0.42999 0.616938 0
M  V30 10303 H 977.04 -0.934962 2.83374 0
M  V30 10304 C 975.789 -2.62294 2.28248 0
M  V30 10305 H 975.112 -2.4786 3.13696 0
M  V30 10306 H 976.552 -3.35967 2.58655 0
M  V30 10307 C 975.011 -3.18049 1.11113 0
M  V30 10308 O 975.541 -3.99923 0.377458 0
M  V30 10309 N 973.747 -2.76561 0.892321 0
M  V30 10310 H 973.294 -2.10088 1.49067 0
M  V30 10311 H 973.252 -3.14206 0.110344 0
M  V30 10312 N 977.024 -1.50153 -0.478725 0
M  V30 10313 C 978.254 -1.64266 -1.253 0
M  V30 10314 C 978.662 -0.322256 -1.86435 0
M  V30 10315 O 978.005 0.704925 -1.69636 0
M  V30 10316 C 978.067 -2.67017 -2.40712 0
M  V30 10317 C 977.731 -4.10779 -2.00274 0
M  V30 10318 C 978.728 -4.96889 -1.52963 0
M  V30 10319 C 976.413 -4.5665 -2.09228 0
M  V30 10320 C 978.407 -6.26914 -1.15139 0
M  V30 10321 C 976.094 -5.86683 -1.71015 0
M  V30 10322 C 977.092 -6.71641 -1.24048 0
M  V30 10323 O 976.78 -7.99248 -0.863617 0
M  V30 10324 H 976.512 -0.555382 -0.385392 0
M  V30 10325 H 979.066 -1.97078 -0.578751 0
M  V30 10326 H 977.296 -2.29432 -3.11284 0
M  V30 10327 H 978.985 -2.70428 -3.02694 0
M  V30 10328 H 979.751 -4.62669 -1.45474 0
M  V30 10329 H 975.63 -3.90674 -2.44735 0
M  V30 10330 H 979.174 -6.93179 -0.784089 0
M  V30 10331 H 975.071 -6.20426 -1.78162 0
M  V30 10332 H 975.839 -8.12452 -0.993139 0
M  V30 10333 N 978.502 0.731368 -1.39602 0
M  V30 10334 C 979.727 1.52567 -1.40492 0
M  V30 10335 C 980.152 1.881 -0.00228828 0
M  V30 10336 O 979.51 1.52167 0.985643 0
M  V30 10337 C 979.558 2.78749 -2.2876 0
M  V30 10338 O 978.662 3.7482 -1.71999 0
M  V30 10339 H 978.003 0.460601 -0.478271 0
M  V30 10340 H 980.533 0.902042 -1.83642 0
M  V30 10341 H 980.543 3.27446 -2.43399 0
M  V30 10342 H 979.218 2.5222 -3.30693 0
M  V30 10343 H 977.795 3.33604 -1.66622 0
M  V30 10344 N 979.98 1.24838 0.961938 0
M  V30 10345 C 981.391 1.08369 1.5203 0
M  V30 10346 C 981.742 -0.343005 1.93178 0
M  V30 10347 O 980.867 -1.2321 1.779 0
M  V30 10348 C 981.462 1.96102 2.76278 0
M  V30 10349 C 980.021 1.8384 3.28451 0
M  V30 10350 C 979.168 1.9069 2.01327 0
M  V30 10351 H 982.119 1.38231 0.779613 0
M  V30 10352 H 982.14 1.4967 3.49827 0
M  V30 10353 H 981.652 2.99931 2.46298 0
M  V30 10354 H 979.753 0.828653 3.63269 0
M  V30 10355 H 979.866 2.68251 3.96961 0
M  V30 10356 H 978.23 1.34488 2.16299 0
M  V30 10357 H 979.013 2.96111 1.73705 0
M  V30 10358 N 981.458 -1.16348 1.06306 0
M  V30 10359 C 982.368 -2.24375 0.685059 0
M  V30 10360 C 983.384 -1.71413 -0.298956 0
M  V30 10361 O 984.56 -2.00854 -0.148239 0
M  V30 10362 C 981.625 -3.46614 0.0774088 0
M  V30 10363 C 980.686 -4.14613 1.11331 0
M  V30 10364 C 979.919 -5.31016 0.534559 0
M  V30 10365 O 980.142 -5.66654 -0.65265 0
M  V30 10366 O 979.076 -5.88256 1.27431 0
M  V30 10367 H 982.902 -2.59018 1.58566 0
M  V30 10368 H 980.487 -1.23865 0.835332 0
M  V30 10369 H 982.369 -4.20599 -0.259716 0
M  V30 10370 H 981.044 -3.13743 -0.796677 0
M  V30 10371 H 979.951 -3.42597 1.50261 0
M  V30 10372 H 981.284 -4.51538 1.95893 0
M  V30 10373 N 982.937 -0.845659 -1.3299 0
M  V30 10374 C 984.214 -0.366306 -1.92139 0
M  V30 10375 C 984.594 1.14912 -1.77083 0
M  V30 10376 O 983.942 1.96667 -1.16338 0
M  V30 10377 C 984.152 -0.820716 -3.39213 0
M  V30 10378 C 985.5 -0.832667 -4.16355 0
M  V30 10379 O 986.524 -0.764764 -3.47893 0
M  V30 10380 O 985.383 -0.926658 -5.38586 0
M  V30 10381 H 982.477 -0.105063 -0.820299 0
M  V30 10382 H 985.023 -0.931962 -1.41819 0
M  V30 10383 H 983.795 -1.86357 -3.44074 0
M  V30 10384 H 983.418 -0.232009 -3.96923 0
M  V30 10385 N 984.415 1.45619 -0.602734 0
M  V30 10386 C 985.363 2.32228 0.131484 0
M  V30 10387 C 986.357 1.45681 0.864484 0
M  V30 10388 O 987.563 1.62193 0.7806 0
M  V30 10389 H 983.938 0.7495 0.0612638 0
M  V30 10390 H 985.909 2.91941 -0.617496 0
M  V30 10391 C 984.658 3.29213 1.11866 0
M  V30 10392 H 983.981 3.95801 0.564061 0
M  V30 10393 H 985.421 3.92554 1.60242 0
M  V30 10394 C 983.88 2.56028 2.18978 0
M  V30 10395 O 984.41 2.33806 3.26646 0
M  V30 10396 N 982.616 2.16245 1.94129 0
M  V30 10397 H 982.163 2.34518 1.06579 0
M  V30 10398 H 982.121 1.67601 2.66003 0
M  V30 10399 N 985.893 0.34162 1.53853 0
M  V30 10400 C 987.309 -0.0103769 1.59597 0
M  V30 10401 C 987.509 -1.48897 1.35764 0
M  V30 10402 O 986.565 -2.24743 1.15095 0
M  V30 10403 C 987.878 0.424067 2.97695 0
M  V30 10404 C 989.426 0.376247 3.1073 0
M  V30 10405 C 989.901 0.786129 4.51203 0
M  V30 10406 N 991.392 0.74024 4.57247 0
M  V30 10407 C 992.127 1.02937 5.64085 0
M  V30 10408 N 991.623 1.38655 6.78783 0
M  V30 10409 N 993.416 0.953734 5.5395 0
M  V30 10410 H 985.567 1.30477 1.67599 0
M  V30 10411 H 987.83 0.531753 0.78482 0
M  V30 10412 H 987.536 1.45493 3.20195 0
M  V30 10413 H 987.41 -0.201713 3.7666 0
M  V30 10414 H 989.797 -0.645441 2.87955 0
M  V30 10415 H 989.878 1.0372 2.33828 0
M  V30 10416 H 989.522 1.80582 4.74713 0
M  V30 10417 H 989.452 0.102671 5.265 0
M  V30 10418 H 991.943 0.476763 3.7488 0
M  V30 10419 H 992.256 1.59206 7.56223 0
M  V30 10420 H 990.601 1.42498 6.80235 0
M  V30 10421 H 993.792 0.674044 4.63222 0
M  V30 10422 H 993.965 1.18241 6.37121 0
M  V30 10423 N 987.371 -1.57444 0.0701946 0
M  V30 10424 C 988.618 -1.93429 -0.59929 0
M  V30 10425 C 988.946 -0.9501 -1.69715 0
M  V30 10426 O 988.201 0.0345377 -1.9567 0
M  V30 10427 C 988.5 -3.36044 -1.21694 0
M  V30 10428 C 988.166 -4.50232 -0.245374 0
M  V30 10429 C 986.828 -4.81195 0.0219161 0
M  V30 10430 C 989.18 -5.1951 0.419396 0
M  V30 10431 C 986.508 -5.78775 0.96109 0
M  V30 10432 C 988.86 -6.18095 1.34688 0
M  V30 10433 C 987.524 -6.47477 1.62265 0
M  V30 10434 H 986.794 -0.707807 -0.219296 0
M  V30 10435 H 989.441 -1.90982 0.14073 0
M  V30 10436 H 987.746 -3.34948 -2.03265 0
M  V30 10437 H 989.443 -3.61176 -1.74221 0
M  V30 10438 H 986.033 -4.26082 -0.463887 0
M  V30 10439 H 990.217 -4.95785 0.226009 0
M  V30 10440 H 985.473 -5.99865 1.18202 0
M  V30 10441 H 989.647 -6.7088 1.86795 0
M  V30 10442 H 987.274 -7.229 2.352 0
M  V30 10443 N 988.849 0.203349 -1.56283 0
M  V30 10444 C 990.126 0.950415 -1.70958 0
M  V30 10445 C 990.506 2.01708 -0.622647 0
M  V30 10446 O 989.854 2.25523 0.367635 0
M  V30 10447 C 990.064 1.54434 -3.12971 0
M  V30 10448 C 991.412 2.02964 -3.72949 0
M  V30 10449 O 992.436 1.64293 -3.16048 0
M  V30 10450 O 991.295 2.74097 -4.72793 0
M  V30 10451 H 988.389 0.445154 -0.69697 0
M  V30 10452 H 990.935 0.193695 -1.68591 0
M  V30 10453 H 989.707 0.77505 -3.83547 0
M  V30 10454 H 989.33 2.36611 -3.19532 0
M  V30 10455 N 990.327 1.50405 0.470755 0
M  V30 10456 C 991.257 1.72222 1.57676 0
M  V30 10457 C 992.238 0.57121 1.60222 0
M  V30 10458 O 993.423 0.810381 1.76484 0
M  V30 10459 C 990.553 1.81666 2.95998 0
M  V30 10460 C 989.507 2.96857 3.08318 0
M  V30 10461 C 988.833 2.91445 4.4829 0
M  V30 10462 C 990.133 4.37361 2.85504 0
M  V30 10463 H 991.827 2.64825 1.39671 0
M  V30 10464 H 989.373 1.27438 0.67049 0
M  V30 10465 H 991.326 1.95514 3.73299 0
M  V30 10466 H 990.05 0.856856 3.1516 0
M  V30 10467 H 988.709 2.82661 2.33449 0
M  V30 10468 H 988.357 1.93309 4.64371 0
M  V30 10469 H 988.057 3.68776 4.57469 0
M  V30 10470 H 989.581 3.07341 5.27611 0
M  V30 10471 H 990.995 4.52081 3.52555 0
M  V30 10472 H 989.392 5.16145 3.06127 0
M  V30 10473 H 990.462 4.49708 1.81359 0
M  V30 10474 N 991.805 -0.723954 1.39988 0
M  V30 10475 C 993.221 -1.03095 1.21834 0
M  V30 10476 C 993.421 -2.01309 0.0876647 0
M  V30 10477 O 992.477 -2.46277 -0.55714 0
M  V30 10478 C 993.79 -1.58267 2.5568 0
M  V30 10479 C 995.338 -1.70293 2.6262 0
M  V30 10480 C 995.813 -2.28872 3.96713 0
M  V30 10481 N 997.304 -2.36269 3.98411 0
M  V30 10482 C 998.039 -2.82557 4.98948 0
M  V30 10483 N 997.535 -3.28661 6.0988 0
M  V30 10484 N 999.328 -2.81866 4.86321 0
M  V30 10485 H 991.479 -0.0727891 2.12275 0
M  V30 10486 H 993.742 -0.0949029 0.943238 0
M  V30 10487 H 993.448 -0.935642 3.39026 0
M  V30 10488 H 993.322 -2.56914 2.76179 0
M  V30 10489 H 995.709 -2.34115 1.7965 0
M  V30 10490 H 995.79 -0.70268 2.45959 0
M  V30 10491 H 995.434 -1.65675 4.80119 0
M  V30 10492 H 995.364 -3.29595 4.107 0
M  V30 10493 H 997.855 -2.03697 3.18302 0
M  V30 10494 H 998.168 -3.62524 6.82493 0
M  V30 10495 H 996.513 -3.26641 6.13458 0
M  V30 10496 H 999.704 -2.45179 3.98754 0
M  V30 10497 H 999.877 -3.17626 5.64817 0
M  V30 10498 N 993.283 -1.25346 -0.955304 0
M  V30 10499 C 994.694 -1.09173 -1.51453 0
M  V30 10500 C 995.045 0.332755 -1.93358 0
M  V30 10501 O 994.17 1.22264 -1.78551 0
M  V30 10502 C 994.765 -1.97564 -2.75234 0
M  V30 10503 C 993.324 -1.85579 -3.27471 0
M  V30 10504 C 992.471 -1.91755 -2.00313 0
M  V30 10505 H 995.422 -1.38642 -0.772271 0
M  V30 10506 H 995.443 -1.51523 -3.49029 0
M  V30 10507 H 994.955 -3.01233 -2.44704 0
M  V30 10508 H 993.056 -0.847906 -3.62824 0
M  V30 10509 H 993.169 -2.70353 -3.95533 0
M  V30 10510 H 991.533 -1.35633 -2.15582 0
M  V30 10511 H 992.316 -2.97028 -1.72132 0
M  V30 10512 N 994.761 1.15782 -1.06922 0
M  V30 10513 C 996.008 1.86465 -0.789752 0
M  V30 10514 C 996.336 1.82075 0.684022 0
M  V30 10515 O 995.591 1.23576 1.51748 0
M  V30 10516 C 995.89 3.35284 -1.2377 0
M  V30 10517 C 995.556 3.59871 -2.71668 0
M  V30 10518 C 994.218 3.6629 -3.12066 0
M  V30 10519 C 996.57 3.69929 -3.67154 0
M  V30 10520 C 993.898 3.80275 -4.46775 0
M  V30 10521 C 996.25 3.85436 -5.01619 0
M  V30 10522 C 994.914 3.901 -5.41644 0
M  V30 10523 H 994.184 0.682324 -0.288991 0
M  V30 10524 H 996.831 1.36861 -1.33945 0
M  V30 10525 H 995.136 3.87065 -0.607309 0
M  V30 10526 H 996.833 3.88371 -0.998431 0
M  V30 10527 H 993.423 3.55512 -2.39393 0
M  V30 10528 H 997.607 3.64274 -3.37073 0
M  V30 10529 H 992.863 3.8214 -4.77262 0
M  V30 10530 H 997.037 3.92161 -5.75485 0
M  V30 10531 H 994.664 4.00688 -6.46029 0
M  V30 10532 N 996.239 0.8527 1.3254 0
M  V30 10533 C 997.169 0.311234 2.31416 0
M  V30 10534 C 998.15 -0.588557 1.59593 0
M  V30 10535 O 999.335 -0.509211 1.87405 0
M  V30 10536 C 996.465 -0.502892 3.4364 0
M  V30 10537 C 995.419 0.302296 4.26931 0
M  V30 10538 C 994.745 -0.636445 5.30899 0
M  V30 10539 C 996.045 1.52697 4.99481 0
M  V30 10540 H 997.739 1.13742 2.76953 0
M  V30 10541 H 995.285 0.548389 1.33149 0
M  V30 10542 H 997.238 -0.892092 4.11849 0
M  V30 10543 H 995.962 -1.36242 2.96826 0
M  V30 10544 H 994.621 0.673226 3.60365 0
M  V30 10545 H 994.269 -1.49277 4.80339 0
M  V30 10546 H 993.969 -0.101716 5.87512 0
M  V30 10547 H 995.493 -1.02286 6.01972 0
M  V30 10548 H 996.907 1.21017 5.60382 0
M  V30 10549 H 995.304 1.9995 5.65809 0
M  V30 10550 H 996.374 2.28929 4.27457 0
M  V30 10551 N 997.718 -1.45297 0.610449 0
M  V30 10552 C 998.948 -2.0629 0.113047 0
M  V30 10553 C 999.356 -1.45527 -1.20907 0
M  V30 10554 O 998.699 -0.564837 -1.74801 0
M  V30 10555 C 998.761 -3.59366 -0.0979692 0
M  V30 10556 C 998.425 -4.42481 1.14279 0
M  V30 10557 C 999.422 -4.77277 2.06161 0
M  V30 10558 C 997.107 -4.83187 1.37241 0
M  V30 10559 C 999.101 -5.51639 3.19333 0
M  V30 10560 C 996.788 -5.57303 2.50713 0
M  V30 10561 C 997.786 -5.91445 3.41587 0
M  V30 10562 O 997.474 -6.64056 4.53083 0
M  V30 10563 H 997.206 -0.67264 0.0673159 0
M  V30 10564 H 999.76 -1.87486 0.838937 0
M  V30 10565 H 997.99 -3.76582 -0.878783 0
M  V30 10566 H 999.679 -4.02193 -0.547327 0
M  V30 10567 H 1000.44 -4.46384 1.89647 0
M  V30 10568 H 996.324 -4.56045 0.67407 0
M  V30 10569 H 999.868 -5.78207 3.90286 0
M  V30 10570 H 995.765 -5.8761 2.67179 0
M  V30 10571 H 996.533 -6.82509 4.51801 0
M  V30 10572 N 999.196 -0.349774 -1.5367 0
M  V30 10573 C 1000.14 0.519396 -2.26727 0
M  V30 10574 C 1001.14 1.09673 -1.29105 0
M  V30 10575 O 1002.34 1.04176 -1.46791 0
M  V30 10576 H 998.719 0.186192 -0.728585 0
M  V30 10577 H 1000.69 -0.118736 -2.98164 0
M  V30 10578 C 999.439 1.65535 -3.05767 0
M  V30 10579 H 998.762 1.22038 -3.80719 0
M  V30 10580 H 1000.2 2.23856 -3.6009 0
M  V30 10581 C 998.661 2.58844 -2.15642 0
M  V30 10582 O 999.191 3.61254 -1.75665 0
M  V30 10583 N 997.397 2.27671 -1.80595 0
M  V30 10584 H 996.944 1.44429 -2.13302 0
M  V30 10585 H 996.902 2.90359 -1.20577 0
M  V30 10586 N 1000.67 1.57404 -0.0785433 0
M  V30 10587 C 1001.9 1.98074 0.597862 0
M  V30 10588 C 1002.32 0.95714 1.6274 0
M  V30 10589 O 1001.67 -0.0553728 1.82416 0
M  V30 10590 C 1001.72 3.38815 1.26041 0
M  V30 10591 O 1001.45 4.37254 0.27207 0
M  V30 10592 C 1002.95 3.94397 2.024 0
M  V30 10593 H 1000.17 0.651263 0.161546 0
M  V30 10594 H 1002.71 2.03927 -0.152941 0
M  V30 10595 H 1000.87 3.34028 1.96225 0
M  V30 10596 H 1001.28 5.19136 0.74822 0
M  V30 10597 H 1002.75 4.95075 2.4414 0
M  V30 10598 H 1003.23 3.31308 2.88326 0
M  V30 10599 H 1003.84 4.02607 1.37068 0
M  V30 10600 N 1002.15 -0.195058 1.56388 0
M  V30 10601 C 1003.38 -0.935745 1.85091 0
M  V30 10602 C 1003.8 -1.76061 0.662118 0
M  V30 10603 O 1003.16 -1.77076 -0.389083 0
M  V30 10604 C 1003.21 -1.80764 3.1202 0
M  V30 10605 O 1002.31 -2.90643 2.92575 0
M  V30 10606 H 1001.65 -0.26351 0.609474 0
M  V30 10607 H 1004.18 -0.200362 2.03617 0
M  V30 10608 H 1004.19 -2.21229 3.42815 0
M  V30 10609 H 1002.87 -1.20157 3.98165 0
M  V30 10610 H 1001.44 -2.53934 2.73079 0
M  V30 10611 N 1003.63 -1.50653 -0.462772 0
M  V30 10612 C 1004.88 -1.63264 -1.21311 0
M  V30 10613 C 1005.23 -0.332647 -1.89503 0
M  V30 10614 O 1004.52 0.669994 -1.79504 0
M  V30 10615 C 1004.72 -2.75637 -2.27507 0
M  V30 10616 C 1004.55 -4.16438 -1.69734 0
M  V30 10617 C 1003.32 -4.82727 -1.49341 0
M  V30 10618 C 1005.51 -5.00399 -1.18765 0
M  V30 10619 N 1003.5 -6.07718 -0.868991 0
M  V30 10620 C 1004.87 -6.16182 -0.68697 0
M  V30 10621 C 1006.92 -4.86112 -1.07699 0
M  V30 10622 C 1005.63 -7.19248 -0.0865268 0
M  V30 10623 C 1007.65 -5.89363 -0.490473 0
M  V30 10624 C 1007.01 -7.044 -0.000208479 0
M  V30 10625 H 1003.11 -0.651518 -0.432491 0
M  V30 10626 H 1005.7 -1.878 -0.51375 0
M  V30 10627 H 1003.87 -2.52809 -2.9486 0
M  V30 10628 H 1005.6 -2.77562 -2.94519 0
M  V30 10629 H 1002.35 -4.40161 -1.74801 0
M  V30 10630 H 1002.78 -6.74554 -0.574957 0
M  V30 10631 H 1007.42 -3.97452 -1.44194 0
M  V30 10632 H 1005.14 -8.07577 0.290614 0
M  V30 10633 H 1008.72 -5.80374 -0.407099 0
M  V30 10634 H 1007.6 -7.82928 0.44652 0
M  V30 10635 N 1005.11 0.71652 -1.4037 0
M  V30 10636 C 1006.52 1.29562 -1.34427 0
M  V30 10637 C 1006.87 1.96192 -0.0173106 0
M  V30 10638 O 1006 1.97488 0.884719 0
M  V30 10639 C 1006.59 2.35601 -2.4347 0
M  V30 10640 C 1005.15 2.89138 -2.4099 0
M  V30 10641 C 1004.3 1.62915 -2.24397 0
M  V30 10642 H 1007.25 0.512715 -1.5019 0
M  V30 10643 H 1007.27 3.16422 -2.11323 0
M  V30 10644 H 1006.78 1.87077 -3.40035 0
M  V30 10645 H 1004.88 3.41894 -1.4812 0
M  V30 10646 H 1004.99 3.40995 -3.3654 0
M  V30 10647 H 1003.36 1.87947 -1.71896 0
M  V30 10648 H 1004.14 1.16417 -3.22958 0
M  V30 10649 N 1006.59 1.25851 0.948643 0
M  V30 10650 C 1007.83 1.12127 1.69703 0
M  V30 10651 C 1008.19 -0.333318 1.89491 0
M  V30 10652 O 1007.48 -1.24181 1.4591 0
M  V30 10653 C 1007.67 1.81565 3.07846 0
M  V30 10654 C 1007.5 3.33626 3.01535 0
M  V30 10655 C 1006.27 4.02897 3.04962 0
M  V30 10656 C 1008.47 4.29934 2.82243 0
M  V30 10657 N 1006.45 5.41688 2.88872 0
M  V30 10658 C 1007.82 5.5585 2.74646 0
M  V30 10659 C 1009.88 4.20276 2.66969 0
M  V30 10660 C 1008.58 6.73212 2.53335 0
M  V30 10661 C 1010.61 5.37336 2.4703 0
M  V30 10662 C 1009.97 6.62196 2.40158 0
M  V30 10663 H 1006.07 0.465047 0.628693 0
M  V30 10664 H 1008.65 1.59035 1.12321 0
M  V30 10665 H 1006.82 1.37143 3.63382 0
M  V30 10666 H 1008.56 1.6053 3.715 0
M  V30 10667 H 1005.31 3.54201 3.14386 0
M  V30 10668 H 1005.74 6.14544 2.84015 0
M  V30 10669 H 1010.38 3.24485 2.71053 0
M  V30 10670 H 1008.1 7.69107 2.47993 0
M  V30 10671 H 1011.68 5.31728 2.36128 0
M  V30 10672 H 1010.56 7.51249 2.24933 0
M  V30 10673 N 1008.06 -1.15214 1.07534 0
M  V30 10674 C 1009 -2.19634 0.655261 0
M  V30 10675 C 1010.01 -1.60139 -0.293165 0
M  V30 10676 O 1011.2 -1.78311 -0.0821957 0
M  V30 10677 C 1008.3 -3.38851 -0.0578281 0
M  V30 10678 C 1007.47 -4.27888 0.90725 0
M  V30 10679 C 1006.53 -5.25692 0.231115 0
M  V30 10680 O 1005.56 -5.62469 0.872746 0
M  V30 10681 N 1006.76 -5.71424 -1.0225 0
M  V30 10682 H 1009.52 -2.56292 1.55353 0
M  V30 10683 H 1007.08 -1.30347 0.960271 0
M  V30 10684 H 1009.08 -4.01334 -0.520874 0
M  V30 10685 H 1007.65 -3.00593 -0.858071 0
M  V30 10686 H 1006.87 -3.62475 1.54937 0
M  V30 10687 H 1008.15 -4.84246 1.56151 0
M  V30 10688 H 1007.55 -5.43659 -1.56369 0
M  V30 10689 H 1006.11 -6.35938 -1.42919 0
M  V30 10690 N 1009.54 -0.859717 -1.32086 0
M  V30 10691 C 1010.79 -0.465581 -1.97075 0
M  V30 10692 C 1011.12 0.979917 -1.68012 0
M  V30 10693 O 1010.37 1.70337 -0.96353 0
M  V30 10694 C 1010.67 -0.657397 -3.51302 0
M  V30 10695 C 1010.34 -2.07413 -4.00363 0
M  V30 10696 C 1009 -2.4616 -4.13472 0
M  V30 10697 C 1011.35 -2.99855 -4.26305 0
M  V30 10698 C 1008.68 -3.76611 -4.49868 0
M  V30 10699 C 1011.03 -4.2981 -4.64161 0
M  V30 10700 C 1009.7 -4.68485 -4.75476 0
M  V30 10701 H 1008.97 -0.170368 -0.721149 0
M  V30 10702 H 1011.61 -1.09074 -1.57401 0
M  V30 10703 H 1009.92 0.0509638 -3.91767 0
M  V30 10704 H 1011.61 -0.332416 -3.9962 0
M  V30 10705 H 1008.2 -1.76327 -3.90649 0
M  V30 10706 H 1012.39 -2.7115 -4.15682 0
M  V30 10707 H 1007.64 -4.06352 -4.56824 0
M  V30 10708 H 1011.82 -5.015 -4.83188 0
M  V30 10709 H 1009.45 -5.69612 -5.03435 0
M  V30 10710 N 1011.02 1.44971 -0.618145 0
M  V30 10711 C 1012.44 1.57077 -0.282666 0
M  V30 10712 C 1012.64 1.60782 1.21456 0
M  V30 10713 O 1011.69 1.54382 1.99806 0
M  V30 10714 C 1013.01 2.84858 -0.963148 0
M  V30 10715 C 1014.55 2.9855 -0.940062 0
M  V30 10716 C 1015.03 4.29115 -1.60076 0
M  V30 10717 N 1016.52 4.35899 -1.56674 0
M  V30 10718 C 1017.25 5.35617 -2.04701 0
M  V30 10719 N 1016.75 6.41813 -2.6086 0
M  V30 10720 N 1018.54 5.27042 -1.95406 0
M  V30 10721 H 1010.69 1.4081 -1.59017 0
M  V30 10722 H 1012.96 0.673914 -0.666741 0
M  V30 10723 H 1012.66 2.88059 -2.0178 0
M  V30 10724 H 1012.54 3.73966 -0.492901 0
M  V30 10725 H 1014.92 2.94909 0.10607 0
M  V30 10726 H 1015.01 2.10825 -1.44868 0
M  V30 10727 H 1014.65 4.33514 -2.64627 0
M  V30 10728 H 1014.58 5.15675 -1.06708 0
M  V30 10729 H 1017.07 3.59766 -1.15659 0
M  V30 10730 H 1017.38 7.14166 -2.95273 0
M  V30 10731 H 1015.73 6.42534 -2.64905 0
M  V30 10732 H 1018.92 4.42987 -1.51263 0
M  V30 10733 H 1019.09 6.04604 -2.33147 0
M  V30 10734 N 1012.5 0.357919 1.53482 0
M  V30 10735 C 1013.74 -0.23433 2.03052 0
M  V30 10736 C 1014.1 -1.46614 1.23969 0
M  V30 10737 O 1015.3 -2.13351 1.63508 0
M  V30 10738 C 1013.57 -0.526653 3.53498 0
M  V30 10739 S 1015.13 -1.09366 4.24952 0
M  V30 10740 H 1011.95 -0.0687848 0.707665 0
M  V30 10741 H 1014.55 0.499011 1.89024 0
M  V30 10742 H 1013.26 0.377463 4.0866 0
M  V30 10743 H 1012.79 -1.28927 3.71674 0
M  V30 10744 H 1014.8 -2.37845 4.35481 0
M  V30 10745 N 1013.98 -1.5736 0.0868897 0
M  V30 10746 C 1015.23 -1.93229 -0.578387 0
M  V30 10747 C 1015.54 -0.970127 -1.69847 0
M  V30 10748 O 1016.74 -1.22222 -2.42434 0
M  V30 10749 C 1015.2 -3.43307 -1.0802 0
M  V30 10750 C 1014.81 -4.47999 0.00968135 0
M  V30 10751 C 1016.55 -3.88151 -1.71868 0
M  V30 10752 C 1014.46 -5.89223 -0.507029 0
M  V30 10753 H 1013.39 -0.721245 -0.219823 0
M  V30 10754 H 1016.04 -1.82787 0.161566 0
M  V30 10755 H 1014.42 -3.48873 -1.87359 0
M  V30 10756 H 1015.6 -4.54067 0.784865 0
M  V30 10757 H 1013.91 -4.12714 0.552845 0
M  V30 10758 H 1016.51 -4.91056 -2.11585 0
M  V30 10759 H 1016.85 -3.26347 -2.58464 0
M  V30 10760 H 1017.38 -3.85252 -0.991259 0
M  V30 10761 H 1014.12 -6.54708 0.322121 0
M  V30 10762 H 1013.64 -5.86643 -1.2494 0
M  V30 10763 H 1015.32 -6.39556 -0.978628 0
M  V30 10764 N 1015.45 0.186762 -1.56489 0
M  V30 10765 C 1016.36 1.25169 -1.98419 0
M  V30 10766 C 1017.38 1.49329 -0.893124 0
M  V30 10767 O 1018.56 1.61781 -1.19954 0
M  V30 10768 C 1015.62 2.57422 -2.32239 0
M  V30 10769 C 1014.68 2.4126 -3.55095 0
M  V30 10770 C 1013.92 3.67206 -3.87292 0
M  V30 10771 O 1014.14 4.71731 -3.20665 0
M  V30 10772 O 1013.07 3.62238 -4.80695 0
M  V30 10773 H 1016.9 0.925834 -2.89244 0
M  V30 10774 H 1014.48 0.392421 -1.44154 0
M  V30 10775 H 1016.37 3.35466 -2.5503 0
M  V30 10776 H 1015.04 2.89618 -1.44579 0
M  V30 10777 H 1013.95 1.61299 -3.37541 0
M  V30 10778 H 1015.28 2.13994 -4.43247 0
M  V30 10779 N 1016.93 1.50896 0.454776 0
M  V30 10780 C 1017.88 1.71497 1.57136 0
M  V30 10781 C 1018.87 0.58098 1.59126 0
M  V30 10782 O 1020.08 0.761916 1.63079 0
M  V30 10783 H 1016.46 0.54158 0.521724 0
M  V30 10784 H 1018.43 2.65129 1.36928 0
M  V30 10785 C 1017.18 1.84125 2.94947 0
M  V30 10786 H 1016.5 2.7078 2.9414 0
M  V30 10787 H 1017.94 2.02558 3.72487 0
M  V30 10788 C 1016.4 0.596752 3.31573 0
M  V30 10789 O 1016.93 -0.256632 4.00879 0
M  V30 10790 N 1015.13 0.445958 2.87158 0
M  V30 10791 H 1014.68 1.14146 2.30929 0
M  V30 10792 H 1014.64 -0.385519 3.12027 0
M  V30 10793 N 1018.41 -0.709066 1.40748 0
M  V30 10794 C 1019.34 -1.83412 1.37451 0
M  V30 10795 C 1020.36 -1.60394 0.27884 0
M  V30 10796 O 1021.54 -1.70147 0.539642 0
M  V30 10797 C 1018.64 -3.19935 1.1178 0
M  V30 10798 C 1017.82 -3.70095 2.33128 0
M  V30 10799 C 1016.88 -4.85249 2.03518 0
M  V30 10800 O 1015.9 -4.97563 2.76442 0
M  V30 10801 N 1017.1 -5.7152 1.01714 0
M  V30 10802 H 1019.87 -1.86736 2.34414 0
M  V30 10803 H 1017.43 -0.890863 1.35186 0
M  V30 10804 H 1019.42 -3.94578 0.899464 0
M  V30 10805 H 1017.99 -3.11718 0.234624 0
M  V30 10806 H 1017.21 -2.8651 2.70751 0
M  V30 10807 H 1018.5 -4.00344 3.1401 0
M  V30 10808 H 1017.9 -5.64188 0.413307 0
M  V30 10809 H 1016.46 -6.46119 0.858696 0
M  V30 10810 N 1019.89 -1.26353 -0.941956 0
M  V30 10811 C 1021.14 -1.12017 -1.69056 0
M  V30 10812 C 1021.47 0.335856 -1.91274 0
M  V30 10813 O 1020.74 1.24677 -1.49285 0
M  V30 10814 C 1021.03 -1.88889 -3.06583 0
M  V30 10815 C 1020.88 -3.42394 -2.91696 0
M  V30 10816 C 1022.2 -1.68209 -4.06686 0
M  V30 10817 H 1019.32 -0.408311 -0.613556 0
M  V30 10818 H 1021.96 -1.55339 -1.09407 0
M  V30 10819 H 1020.11 -1.5207 -3.57501 0
M  V30 10820 H 1021.78 -3.88962 -2.48005 0
M  V30 10821 H 1020.02 -3.69459 -2.27338 0
M  V30 10822 H 1020.7 -3.91408 -3.89235 0
M  V30 10823 H 1023.17 -2.00286 -3.64726 0
M  V30 10824 H 1022.05 -2.24412 -5.00929 0
M  V30 10825 H 1022.31 -0.626474 -4.37639 0
M  V30 10826 N 1021.37 1.14642 -1.08144 0
M  V30 10827 C 1022.3 2.21775 -0.730609 0
M  V30 10828 C 1023.28 1.67683 0.285702 0
M  V30 10829 O 1024.46 1.93567 0.156667 0
M  V30 10830 C 1021.59 3.47033 -0.136242 0
M  V30 10831 C 1020.55 4.14134 -1.0806 0
M  V30 10832 C 1019.87 5.33563 -0.348585 0
M  V30 10833 C 1021.17 4.62978 -2.41761 0
M  V30 10834 H 1022.87 2.51378 -1.62633 0
M  V30 10835 H 1020.41 1.20825 -0.783411 0
M  V30 10836 H 1022.37 4.21226 0.121182 0
M  V30 10837 H 1021.09 3.16786 0.7946 0
M  V30 10838 H 1019.75 3.41892 -1.32308 0
M  V30 10839 H 1019.4 4.99575 0.585974 0
M  V30 10840 H 1019.1 5.79402 -0.978122 0
M  V30 10841 H 1020.62 6.10519 -0.0991508 0
M  V30 10842 H 1022.04 5.28659 -2.21795 0
M  V30 10843 H 1020.43 5.1951 -3.00383 0
M  V30 10844 H 1021.5 3.78189 -3.03482 0
M  V30 10845 N 1022.85 0.866709 1.31628 0
M  V30 10846 C 1023.78 0.277328 2.27516 0
M  V30 10847 C 1024.79 -0.557786 1.52946 0
M  V30 10848 O 1025.98 -0.38031 1.74402 0
M  V30 10849 C 1023.08 -0.625742 3.33073 0
M  V30 10850 C 1022.25 0.176204 4.37045 0
M  V30 10851 C 1021.31 -0.654497 5.22114 0
M  V30 10852 O 1020.34 -0.0836961 5.69138 0
M  V30 10853 N 1021.54 -1.96708 5.46156 0
M  V30 10854 H 1024.3 1.10133 2.78731 0
M  V30 10855 H 1021.87 0.72787 1.44616 0
M  V30 10856 H 1023.86 -1.18709 3.86898 0
M  V30 10857 H 1022.43 -1.35042 2.81926 0
M  V30 10858 H 1021.65 0.918999 3.83338 0
M  V30 10859 H 1022.94 0.726594 5.03585 0
M  V30 10860 H 1022.33 -2.454 5.09701 0
M  V30 10861 H 1020.89 -2.47629 6.02929 0
M  V30 10862 N 1024.32 -1.44642 0.625825 0
M  V30 10863 C 1025.25 -2.33397 -0.0692188 0
M  V30 10864 C 1026.23 -1.47898 -0.840241 0
M  V30 10865 O 1027.42 -1.7663 -0.807176 0
M  V30 10866 C 1024.55 -3.30888 -1.055 0
M  V30 10867 C 1023.5 -4.26164 -0.395968 0
M  V30 10868 C 1022.83 -5.13483 -1.49128 0
M  V30 10869 C 1024.13 -5.17663 0.694433 0
M  V30 10870 H 1025.82 -2.91763 0.671925 0
M  V30 10871 H 1023.37 -1.40294 0.324573 0
M  V30 10872 H 1025.32 -3.91861 -1.54993 0
M  V30 10873 H 1024.05 -2.7072 -1.82696 0
M  V30 10874 H 1022.71 -3.66516 0.0782691 0
M  V30 10875 H 1022.35 -4.49672 -2.25399 0
M  V30 10876 H 1022.05 -5.78038 -1.05573 0
M  V30 10877 H 1023.58 -5.77327 -1.98813 0
M  V30 10878 H 1024.99 -5.72602 0.282818 0
M  V30 10879 H 1023.39 -5.90793 1.05281 0
M  V30 10880 H 1024.46 -4.58994 1.56372 0
M  V30 10881 N 1025.8 -0.366053 -1.5329 0
M  V30 10882 C 1026.71 0.488111 -2.29466 0
M  V30 10883 C 1027.73 1.09219 -1.35452 0
M  V30 10884 O 1028.9 1.10303 -1.68509 0
M  V30 10885 C 1025.97 1.61202 -3.06944 0
M  V30 10886 C 1025.03 1.03543 -4.16626 0
M  V30 10887 C 1024.26 2.10578 -4.904 0
M  V30 10888 O 1024.49 3.31697 -4.6404 0
M  V30 10889 O 1023.42 1.73609 -5.76319 0
M  V30 10890 H 1027.25 -0.131789 -3.03414 0
M  V30 10891 H 1024.83 -0.130421 -1.4883 0
M  V30 10892 H 1026.71 2.26546 -3.55324 0
M  V30 10893 H 1025.39 2.21732 -2.35832 0
M  V30 10894 H 1024.29 0.345892 -3.72498 0
M  V30 10895 H 1025.63 0.474687 -4.89906 0
M  V30 10896 N 1027.28 1.57312 -0.0952337 0
M  V30 10897 C 1028.7 1.57445 0.261416 0
M  V30 10898 C 1028.9 1.10639 1.68408 0
M  V30 10899 O 1027.95 0.782912 2.40056 0
M  V30 10900 C 1029.26 3.00659 0.0497206 0
M  V30 10901 C 1030.81 3.1278 0.117459 0
M  V30 10902 C 1031.29 4.57952 -0.0662441 0
M  V30 10903 N 1032.78 4.63199 -0.0114146 0
M  V30 10904 C 1033.51 5.73255 -0.128799 0
M  V30 10905 N 1033.01 6.92146 -0.301026 0
M  V30 10906 N 1034.8 5.62056 -0.0700599 0
M  V30 10907 H 1026.95 1.86045 -1.02475 0
M  V30 10908 H 1029.22 0.858726 -0.401614 0
M  V30 10909 H 1028.92 3.39102 -0.932888 0
M  V30 10910 H 1028.8 3.68792 0.791975 0
M  V30 10911 H 1031.18 2.74209 1.09057 0
M  V30 10912 H 1031.26 2.47238 -0.656288 0
M  V30 10913 H 1030.91 4.97217 -1.03623 0
M  V30 10914 H 1030.84 5.21555 0.727198 0
M  V30 10915 H 1033.33 3.77712 0.119154 0
M  V30 10916 H 1033.64 7.71855 -0.382104 0
M  V30 10917 H 1031.99 6.94184 -0.336695 0
M  V30 10918 H 1035.18 4.68057 0.0633587 0
M  V30 10919 H 1035.35 6.4779 -0.164991 0
M  V30 10920 N 1028.76 -0.17846 1.56586 0
M  V30 10921 C 1029.72 -1.20479 1.94981 0
M  V30 10922 C 1030.72 -1.37561 0.832677 0
M  V30 10923 O 1031.91 -1.35089 1.09984 0
M  V30 10924 C 1029.04 -2.57117 2.23839 0
M  V30 10925 H 1030.24 -0.876173 2.86816 0
M  V30 10926 H 1027.79 -0.420635 1.50534 0
M  V30 10927 H 1028.52 -2.95005 1.34695 0
M  V30 10928 H 1028.31 -2.46086 3.05261 0
M  V30 10929 H 1029.8 -3.31096 2.5449 0
M  V30 10930 N 1030.24 -1.51135 -0.446768 0
M  V30 10931 C 1031.15 -1.74595 -1.56696 0
M  V30 10932 C 1032.16 -0.629816 -1.62201 0
M  V30 10933 O 1033.34 -0.910987 -1.79619 0
M  V30 10934 C 1030.4 -1.85738 -2.9275 0
M  V30 10935 C 1029.46 -3.09564 -2.97437 0
M  V30 10936 C 1028.7 -3.20165 -4.27001 0
M  V30 10937 O 1028.92 -2.36939 -5.1886 0
M  V30 10938 O 1027.85 -4.13077 -4.3778 0
M  V30 10939 H 1031.68 -2.69601 -1.39817 0
M  V30 10940 H 1029.26 -1.35523 -0.628805 0
M  V30 10941 H 1031.15 -1.95107 -3.73512 0
M  V30 10942 H 1029.82 -0.939184 -3.09776 0
M  V30 10943 H 1028.73 -3.05679 -2.15664 0
M  V30 10944 H 1030.06 -4.01041 -2.85353 0
M  V30 10945 N 1031.71 0.701592 -1.41122 0
M  V30 10946 C 1033.12 1.28129 -1.35793 0
M  V30 10947 C 1033.48 1.96163 -0.0381185 0
M  V30 10948 O 1032.6 1.98416 0.863723 0
M  V30 10949 C 1033.2 2.33005 -2.45955 0
M  V30 10950 C 1031.75 2.86566 -2.44043 0
M  V30 10951 C 1030.9 1.60526 -2.26112 0
M  V30 10952 H 1033.85 0.496756 -1.50725 0
M  V30 10953 H 1033.87 3.14163 -2.14667 0
M  V30 10954 H 1033.39 1.8346 -3.42 0
M  V30 10955 H 1031.49 3.40304 -1.51737 0
M  V30 10956 H 1031.6 3.37406 -3.40138 0
M  V30 10957 H 1029.96 1.86113 -1.7388 0
M  V30 10958 H 1030.75 1.12985 -3.24175 0
M  V30 10959 N 1033.19 1.2685 0.935242 0
M  V30 10960 C 1034.12 1.04717 2.0388 0
M  V30 10961 C 1035.14 0.00567507 1.62799 0
M  V30 10962 O 1036.33 0.246408 1.76791 0
M  V30 10963 C 1033.43 0.56496 3.34158 0
M  V30 10964 C 1032.6 1.67704 4.03973 0
M  V30 10965 C 1031.66 1.19186 5.12524 0
M  V30 10966 O 1030.68 1.89008 5.36903 0
M  V30 10967 N 1031.89 0.0434554 5.80484 0
M  V30 10968 H 1034.65 1.99746 2.23431 0
M  V30 10969 H 1032.21 1.18316 1.10512 0
M  V30 10970 H 1034.2 0.224436 4.04077 0
M  V30 10971 H 1032.77 -0.291899 3.11234 0
M  V30 10972 H 1031.99 2.18821 3.27889 0
M  V30 10973 H 1033.28 2.42361 4.47368 0
M  V30 10974 H 1032.68 -0.539502 5.63122 0
M  V30 10975 H 1031.24 -0.237946 6.51366 0
M  V30 10976 N 1034.67 -1.14067 1.0875 0
M  V30 10977 C 1035.9 -1.89582 0.841038 0
M  V30 10978 C 1036.32 -1.78226 -0.601436 0
M  V30 10979 O 1035.68 -1.12491 -1.42181 0
M  V30 10980 C 1035.73 -3.37415 1.27213 0
M  V30 10981 O 1034.83 -4.10191 0.426246 0
M  V30 10982 H 1034.17 -0.589716 0.305173 0
M  V30 10983 H 1036.7 -1.44364 1.44984 0
M  V30 10984 H 1036.71 -3.88234 1.25451 0
M  V30 10985 H 1035.39 -3.44999 2.32268 0
M  V30 10986 H 1033.96 -3.69429 0.507585 0
M  V30 10987 N 1036.15 -0.873678 -1.31166 0
M  V30 10988 C 1037.08 -0.348011 -2.30892 0
M  V30 10989 C 1038.06 0.563092 -1.60509 0
M  V30 10990 O 1039.24 0.479332 -1.88192 0
M  V30 10991 C 1036.37 0.448158 -3.44396 0
M  V30 10992 C 1035.33 -0.370179 -4.26396 0
M  V30 10993 C 1034.65 0.551903 -5.31844 0
M  V30 10994 C 1035.95 -1.60624 -4.96988 0
M  V30 10995 H 1037.65 -1.18134 -2.75109 0
M  V30 10996 H 1035.19 -0.569502 -1.3226 0
M  V30 10997 H 1037.15 0.826458 -4.13216 0
M  V30 10998 H 1035.87 1.31503 -2.98956 0
M  V30 10999 H 1034.53 -0.730472 -3.59249 0
M  V30 11000 H 1034.18 1.41616 -4.82653 0
M  V30 11001 H 1033.88 0.00823478 -5.87599 0
M  V30 11002 H 1035.4 0.926965 -6.03523 0
M  V30 11003 H 1036.82 -1.29917 -5.58386 0
M  V30 11004 H 1035.21 -2.08926 -5.62557 0
M  V30 11005 H 1036.28 -2.357 -4.23761 0
M  V30 11006 N 1037.63 1.44308 -0.633487 0
M  V30 11007 C 1038.9 1.95476 -0.0697262 0
M  V30 11008 C 1039.28 1.57539 1.40516 0
M  V30 11009 O 1038.63 0.850632 2.12077 0
M  V30 11010 C 1038.84 3.4775 -0.295093 0
M  V30 11011 C 1040.19 4.24177 -0.189542 0
M  V30 11012 O 1041.21 3.55479 -0.226586 0
M  V30 11013 O 1040.07 5.46415 -0.096479 0
M  V30 11014 H 1037.17 0.826734 0.0209582 0
M  V30 11015 H 1039.71 1.54347 -0.705354 0
M  V30 11016 H 1038.48 3.6842 -1.31841 0
M  V30 11017 H 1038.11 3.95832 0.37456 0
M  V30 11018 N 1039.1 0.374177 1.53094 0
M  V30 11019 C 1040.35 -0.212396 2.00981 0
M  V30 11020 C 1040.67 -1.48576 1.26293 0
M  V30 11021 O 1039.94 -1.92206 0.378642 0
M  V30 11022 H 1038.52 -0.0814763 0.742543 0
M  V30 11023 H 1041.19 0.502389 1.88314 0
M  V30 11024 H 1040.28 -0.433316 3.09077 0
M  V30 11025 N 1040.58 -1.57259 0.103575 0
M  V30 11026 C 1041.83 -1.94945 -0.558953 0
M  V30 11027 C 1042.16 -0.986038 -1.67305 0
M  V30 11028 O 1041.44 -0.0205464 -1.94489 0
M  V30 11029 C 1041.72 -3.42689 -1.10617 0
M  V30 11030 C 1041.57 -4.498 0.00345246 0
M  V30 11031 C 1042.89 -3.91933 -2.00191 0
M  V30 11032 H 1040.01 -0.708859 -0.201713 0
M  V30 11033 H 1042.65 -1.89183 0.176006 0
M  V30 11034 H 1040.8 -3.4773 -1.73251 0
M  V30 11035 H 1042.47 -4.56866 0.638082 0
M  V30 11036 H 1040.72 -4.28615 0.668705 0
M  V30 11037 H 1041.39 -5.50397 -0.420396 0
M  V30 11038 H 1043.86 -3.89098 -1.4745 0
M  V30 11039 H 1042.74 -4.9586 -2.35402 0
M  V30 11040 H 1043 -3.31722 -2.92255 0
M  V30 11041 N 1042.06 0.170153 -1.56679 0
M  V30 11042 C 1043.34 0.913938 -1.72935 0
M  V30 11043 C 1043.72 2.00342 -0.665293 0
M  V30 11044 O 1043.07 2.26252 0.319715 0
M  V30 11045 C 1043.28 1.47761 -3.16177 0
M  V30 11046 C 1044.62 1.95007 -3.7717 0
M  V30 11047 O 1045.65 1.57552 -3.19462 0
M  V30 11048 O 1044.51 2.64007 -4.78501 0
M  V30 11049 H 1041.6 0.43027 -0.706256 0
M  V30 11050 H 1044.15 0.157891 -1.68964 0
M  V30 11051 H 1042.92 0.69352 -3.85105 0
M  V30 11052 H 1042.54 2.2978 -3.24479 0
M  V30 11053 O 1043.58 1.58396 0.315119 0
M  V30 11054 H 1044.27 1.6806 0.963095 0
M  V30 END ATOM
M  V30 BEGIN BOND
M  V30 END BOND
M  V30 END CTAB
M  END
$$$$
