drugbank_target|O14763 Tumor necrosis factor receptor superfamily member 10B (DB05895; DB06599)
 OpenBabel12092120323D

  0  0  0     0  0            999 V3000
M  V30 BEGIN CTAB
M  V30 COUNTS 6650 6713 0 0 0
M  V30 BEGIN ATOM
M  V30 1 H -0.908 1.98254 -0.117106 0
M  V30 2 N 0 1.576 0 0
M  V30 3 C 0.933 2.03868 1.02534 0
M  V30 4 C 1.911 0.928543 1.3348 0
M  V30 5 O 3.095 1.19667 1.45644 0
M  V30 6 C 0.222 2.43627 2.35294 0
M  V30 7 C -0.732 3.65373 2.2001 0
M  V30 8 S 0.101 5.13292 1.52614 0
M  V30 9 C 1.257 5.56322 2.86805 0
M  V30 10 H 1.49 2.90518 0.631377 0
M  V30 11 H -0.977 1.52953 0.210867 0
M  V30 12 H 0.981 2.67203 3.11629 0
M  V30 13 H -0.358 1.57376 2.7183 0
M  V30 14 H -1.165 3.90944 3.18086 0
M  V30 15 H -1.563 3.418 1.51819 0
M  V30 16 H 0.729 5.58782 3.83104 0
M  V30 17 H 1.672 6.56266 2.65933 0
M  V30 18 H 2.08 4.83886 2.90714 0
M  V30 19 N 1.4781 -0.272755 1.55222 0
M  V30 20 C 2.3881 -1.35918 1.91216 0
M  V30 21 C 3.4041 -1.54026 0.809436 0
M  V30 22 O 4.5801 -1.68148 1.10852 0
M  V30 23 C 1.6451 -2.69834 2.17693 0
M  V30 24 C 0.7061 -2.6047 3.41253 0
M  V30 25 C -0.0609 -3.88 3.66458 0
M  V30 26 O 0.1621 -4.88693 2.94169 0
M  V30 27 O -0.9039 -3.88189 4.59992 0
M  V30 28 H 2.9221 -1.0839 2.83699 0
M  V30 29 H 0.5071 -0.471301 1.41771 0
M  V30 30 H 2.3891 -3.49017 2.36147 0
M  V30 31 H 1.0641 -2.97148 1.28392 0
M  V30 32 H -0.0289 -1.79663 3.28134 0
M  V30 33 H 1.3041 -2.38106 4.30774 0
M  V30 34 N 2.9562 -1.48159 -0.537278 0
M  V30 35 C 3.8882 -1.58218 -1.65831 0
M  V30 36 C 4.9012 -0.466948 -1.5596 0
M  V30 37 O 6.0902 -0.73747 -1.62553 0
M  V30 38 C 3.1902 -1.48906 -3.04434 0
M  V30 39 C 2.3632 -2.75343 -3.3986 0
M  V30 40 C 1.4222 -2.59588 -4.57712 0
M  V30 41 O 0.4482 -3.33457 -4.61297 0
M  V30 42 N 1.6502 -1.68724 -5.55439 0
M  V30 43 H 4.4152 -2.54891 -1.57641 0
M  V30 44 H 1.9762 -1.4479 -0.724386 0
M  V30 45 H 3.9682 -1.36072 -3.81139 0
M  V30 46 H 2.5382 -0.602368 -3.06741 0
M  V30 47 H 1.7582 -3.02795 -2.52406 0
M  V30 48 H 3.0462 -3.5924 -3.60311 0
M  V30 49 H 2.4442 -1.07898 -5.55315 0
M  V30 50 H 1.0012 -1.61832 -6.3139 0
M  V30 51 N 4.4343 0.785586 -1.36625 0
M  V30 52 C 5.8503 1.08419 -1.17122 0
M  V30 53 C 6.0503 2.015 0.00208491 0
M  V30 54 O 5.1063 2.43551 0.666278 0
M  V30 55 C 6.4193 1.69498 -2.48377 0
M  V30 56 C 7.9673 1.81821 -2.54775 0
M  V30 57 C 8.4423 2.46315 -3.86126 0
M  V30 58 N 9.9333 2.53779 -3.87492 0
M  V30 59 C 10.6683 3.045 -4.85868 0
M  V30 60 N 10.1643 3.55499 -5.94637 0
M  V30 61 N 11.9573 3.03247 -4.73284 0
M  V30 62 H 4.1083 0.167264 -2.1174 0
M  V30 63 H 6.3713 0.13682 -0.938075 0
M  V30 64 H 6.0773 1.08571 -3.34522 0
M  V30 65 H 5.9513 2.6896 -2.64462 0
M  V30 66 H 8.3383 2.41884 -1.69045 0
M  V30 67 H 8.4193 0.811532 -2.42586 0
M  V30 68 H 8.0633 1.86895 -4.72263 0
M  V30 69 H 7.9933 3.47561 -3.95612 0
M  V30 70 H 10.4843 2.17672 -3.08913 0
M  V30 71 H 10.7973 3.92562 -6.65669 0
M  V30 72 H 9.1423 3.5364 -5.98301 0
M  V30 73 H 12.3333 2.62696 -3.87438 0
M  V30 74 H 12.5063 3.42467 -5.50109 0
M  V30 75 N 5.9124 1.20967 1.01018 0
M  V30 76 C 7.1604 1.02172 1.74371 0
M  V30 77 C 7.4814 -0.446414 1.89821 0
M  V30 78 O 6.7514 -1.32234 1.44537 0
M  V30 79 H 5.3314 0.375066 0.646014 0
M  V30 80 H 7.9934 1.52187 1.21758 0
M  V30 81 H 7.0894 1.48538 2.74487 0
M  V30 82 N 7.3905 -1.2043 1.01659 0
M  V30 83 C 8.3225 -2.22626 0.544988 0
M  V30 84 C 9.3355 -1.58479 -0.372609 0
M  V30 85 O 10.5245 -1.77679 -0.170958 0
M  V30 86 C 7.6245 -3.38141 -0.22663 0
M  V30 87 C 6.7975 -4.31877 0.692876 0
M  V30 88 C 5.8565 -5.26191 -0.0311616 0
M  V30 89 O 4.8825 -5.6612 0.591343 0
M  V30 90 N 6.0845 -5.65618 -1.30601 0
M  V30 91 H 8.8495 -2.63716 1.42388 0
M  V30 92 H 6.4105 -1.34971 0.894116 0
M  V30 93 H 8.4025 -3.98239 -0.72024 0
M  V30 94 H 6.9725 -2.95943 -1.00681 0
M  V30 95 H 6.1925 -3.69746 1.36679 0
M  V30 96 H 7.4805 -4.91426 1.31824 0
M  V30 97 H 6.8785 -5.3519 -1.83269 0
M  V30 98 H 5.4355 -6.28025 -1.74435 0
M  V30 99 N 8.8686 -0.792821 -1.36206 0
M  V30 100 C 9.8166 -0.181555 -2.3189 0
M  V30 101 C 10.8106 0.661025 -1.55971 0
M  V30 102 O 12.0166 0.555728 -1.71206 0
M  V30 103 H 8.3916 -0.0399382 -0.750939 0
M  V30 104 H 10.3626 -1.00394 -2.81005 0
M  V30 105 C 9.1116 0.666444 -3.41253 0
M  V30 106 H 8.4346 0.0274489 -3.99791 0
M  V30 107 H 9.8746 1.06076 -4.10517 0
M  V30 108 C 8.3336 1.82614 -2.83114 0
M  V30 109 O 8.8636 2.9229 -2.75553 0
M  V30 110 N 7.0696 1.63333 -2.40356 0
M  V30 111 H 6.6166 0.741217 -2.46706 0
M  V30 112 H 6.5746 2.41087 -2.01803 0
M  V30 113 N 10.3467 1.47872 -0.545128 0
M  V30 114 C 11.3097 2.28337 0.198717 0
M  V30 115 C 12.3097 1.36255 0.853888 0
M  V30 116 O 13.4997 1.59003 0.711606 0
M  V30 117 C 10.6317 3.15585 1.28915 0
M  V30 118 H 11.8247 2.95567 -0.507941 0
M  V30 119 H 9.3777 1.53362 -0.301616 0
M  V30 120 H 10.1127 2.53019 2.02859 0
M  V30 121 H 9.8977 3.83337 0.824309 0
M  V30 122 H 11.3877 3.76243 1.81194 0
M  V30 123 N 11.8248 0.280983 1.55075 0
M  V30 124 C 13.2358 -0.215629 1.85451 0
M  V30 125 C 13.5868 -1.54991 1.203 0
M  V30 126 O 12.7118 -2.10699 0.493435 0
M  V30 127 C 13.3068 -0.398026 3.36454 0
M  V30 128 C 11.8658 -0.838866 3.66933 0
M  V30 129 C 11.0128 0.064458 2.77225 0
M  V30 130 H 13.9638 0.502601 1.50531 0
M  V30 131 H 13.9848 -1.23569 3.59876 0
M  V30 132 H 13.4968 0.573241 3.83843 0
M  V30 133 H 11.5978 -1.8214 3.25048 0
M  V30 134 H 11.7108 -0.672123 4.74362 0
M  V30 135 H 10.0748 -0.452863 2.50642 0
M  V30 136 H 10.8578 1.03172 3.2743 0
M  V30 137 N 13.3029 -1.57598 0.00835791 0
M  V30 138 C 14.2659 -2.07884 -0.965242 0
M  V30 139 C 15.2659 -0.989825 -1.26725 0
M  V30 140 O 16.4559 -1.25218 -1.21104 0
M  V30 141 C 13.5879 -2.52731 -2.28779 0
M  V30 142 H 14.7809 -2.95178 -0.530112 0
M  V30 143 H 12.3339 -1.54458 -0.239283 0
M  V30 144 H 13.0689 -1.68705 -2.76964 0
M  V30 145 H 12.8539 -3.32272 -2.08177 0
M  V30 146 H 14.3439 -2.91933 -2.98605 0
M  V30 147 N 14.781 0.264519 -1.55364 0
M  V30 148 C 15.744 1.31046 -1.88042 0
M  V30 149 C 16.744 1.41943 -0.755569 0
M  V30 150 O 17.934 1.40947 -1.02369 0
M  V30 151 C 15.066 2.69067 -2.09323 0
M  V30 152 H 16.259 1.03297 -2.81549 0
M  V30 153 H 13.812 0.502989 -1.47986 0
M  V30 154 H 14.547 3.01982 -1.18226 0
M  V30 155 H 14.332 2.62542 -2.91229 0
M  V30 156 H 15.822 3.44623 -2.35848 0
M  V30 157 N 16.2591 1.48442 0.529413 0
M  V30 158 C 17.4841 1.60406 1.31471 0
M  V30 159 C 17.9091 0.264738 1.86228 0
M  V30 160 O 17.2671 -0.763668 1.64432 0
M  V30 161 C 17.3151 2.65419 2.44101 0
M  V30 162 O 16.4191 2.22618 3.47153 0
M  V30 163 H 15.7601 0.537863 0.389357 0
M  V30 164 H 18.2901 1.94432 0.636965 0
M  V30 165 H 18.3001 2.86709 2.90279 0
M  V30 166 H 16.9751 3.62652 2.03608 0
M  V30 167 H 15.5521 2.11543 3.0709 0
M  V30 168 N 17.7372 -0.778329 1.37039 0
M  V30 169 C 18.9852 -1.53361 1.31623 0
M  V30 170 C 19.3062 -1.94739 -0.100831 0
M  V30 171 O 18.5762 -1.65797 -1.04347 0
M  V30 172 H 17.1562 -0.568794 0.484234 0
M  V30 173 H 19.8182 -0.926742 1.71457 0
M  V30 174 H 18.9142 -2.43606 1.95096 0
M  V30 175 N 19.2153 -1.21501 -1.00376 0
M  V30 176 C 20.1783 -0.976927 -2.07337 0
M  V30 177 C 21.1783 0.0525322 -1.60714 0
M  V30 178 O 22.3683 -0.184869 -1.73216 0
M  V30 179 C 19.5003 -0.473423 -3.37597 0
M  V30 180 H 20.6933 -1.92587 -2.29892 0
M  V30 181 H 18.2463 -1.03217 -1.17371 0
M  V30 182 H 18.9813 0.480379 -3.20722 0
M  V30 183 H 18.7663 -1.216 -3.72768 0
M  V30 184 H 20.2563 -0.32675 -4.1632 0
M  V30 185 N 20.6934 1.19889 -1.02296 0
M  V30 186 C 22.1094 1.41462 -0.738954 0
M  V30 187 C 22.3094 1.89721 0.678846 0
M  V30 188 O 21.3654 2.07016 1.4457 0
M  V30 189 C 22.6784 2.43083 -1.77005 0
M  V30 190 C 24.2264 2.5684 -1.78892 0
M  V30 191 C 24.7014 3.61709 -2.80945 0
M  V30 192 N 26.1924 3.69199 -2.79725 0
M  V30 193 C 26.9274 4.50019 -3.55345 0
M  V30 194 N 26.4234 5.34592 -4.40662 0
M  V30 195 N 28.2164 4.44612 -3.43914 0
M  V30 196 H 20.3674 0.868827 -1.93817 0
M  V30 197 H 22.6304 0.44399 -0.837602 0
M  V30 198 H 22.3364 2.14636 -2.78612 0
M  V30 199 H 22.2104 3.4217 -1.58744 0
M  V30 200 H 24.5974 2.84614 -0.779674 0
M  V30 201 H 24.6784 1.57927 -2.01228 0
M  V30 202 H 24.3224 3.34678 -3.82038 0
M  V30 203 H 24.2524 4.60259 -2.5587 0
M  V30 204 H 26.7434 3.08794 -2.17842 0
M  V30 205 H 27.0564 5.93363 -4.95116 0
M  V30 206 H 25.4014 5.34073 -4.44737 0
M  V30 207 H 28.5924 3.7758 -2.76679 0
M  V30 208 H 28.7654 5.0736 -4.031 0
M  V30 209 N 22.1715 0.800033 1.35784 0
M  V30 210 C 23.1185 0.203848 2.29898 0
M  V30 211 C 24.0885 -0.658375 1.52495 0
M  V30 212 O 25.2735 -0.604832 1.8096 0
M  V30 213 C 22.4135 -0.64688 3.38983 0
M  V30 214 C 21.5265 0.235054 4.3136 0
M  V30 215 C 20.6615 -0.623054 5.27533 0
M  V30 216 C 19.7005 0.259682 6.11549 0
M  V30 217 N 18.8375 -0.558019 6.99879 0
M  V30 218 H 23.6775 1.01186 2.80295 0
M  V30 219 H 21.2145 0.51053 1.37957 0
M  V30 220 H 23.1725 -1.15521 4.00887 0
M  V30 221 H 21.8025 -1.42021 2.89879 0
M  V30 222 H 20.8545 0.861438 3.70518 0
M  V30 223 H 22.1665 0.914768 4.9034 0
M  V30 224 H 21.3205 -1.19678 5.94779 0
M  V30 225 H 20.0595 -1.33636 4.69034 0
M  V30 226 H 19.0645 0.845726 5.43256 0
M  V30 227 H 20.2895 0.970748 6.72126 0
M  V30 228 H 18.2355 -1.25542 6.43875 0
M  V30 229 H 18.1525 0.0637872 7.55973 0
M  V30 230 H 19.4205 -1.11523 7.71481 0
M  V30 231 N 23.6496 -1.47581 0.552962 0
M  V30 232 C 25.0656 -1.5818 0.212424 0
M  V30 233 C 25.2656 -1.55213 -1.28496 0
M  V30 234 O 24.3216 -1.45329 -2.06484 0
M  V30 235 C 25.6346 -2.88865 0.835318 0
M  V30 236 C 27.1826 -3.0244 0.806156 0
M  V30 237 C 27.6576 -4.35819 1.40804 0
M  V30 238 N 29.1486 -4.42444 1.37103 0
M  V30 239 C 29.8836 -5.44202 1.80641 0
M  V30 240 N 29.3796 -6.52795 2.32015 0
M  V30 241 N 31.1726 -5.35222 1.71738 0
M  V30 242 H 23.3236 -1.47753 1.52587 0
M  V30 243 H 25.5866 -0.702941 0.636064 0
M  V30 244 H 25.2926 -2.9676 1.88749 0
M  V30 245 H 25.1666 -3.7579 0.325848 0
M  V30 246 H 27.5536 -2.94144 -0.237317 0
M  V30 247 H 27.6346 -2.17068 1.35334 0
M  V30 248 H 27.2786 -4.44871 2.45056 0
M  V30 249 H 27.2086 -5.19916 0.836338 0
M  V30 250 H 29.6996 -3.6456 0.995202 0
M  V30 251 H 30.0126 -7.26609 2.63171 0
M  V30 252 H 28.3576 -6.53696 2.36023 0
M  V30 253 H 31.5486 -4.49284 1.31382 0
M  V30 254 H 31.7216 -6.14389 2.05987 0
M  V30 255 N 25.1277 -0.289203 -1.54924 0
M  V30 256 C 26.0777 0.606939 -2.19773 0
M  V30 257 C 27.0617 1.10783 -1.16687 0
M  V30 258 O 28.2537 1.05057 -1.4245 0
M  V30 259 C 25.3827 1.78398 -2.93307 0
M  V30 260 C 24.4687 1.29961 -4.03697 0
M  V30 261 N 24.8597 0.532377 -5.0299 0
M  V30 262 C 23.1577 1.58136 -4.17024 0
M  V30 263 C 23.8587 0.275912 -5.81045 0
M  V30 264 N 22.8347 0.852365 -5.36876 0
M  V30 265 H 26.6367 0.0130779 -2.93897 0
M  V30 266 H 24.1507 -0.09341 -1.62131 0
M  V30 267 H 26.1477 2.43741 -3.38225 0
M  V30 268 H 24.8077 2.38166 -2.20697 0
M  V30 269 H 25.8187 0.17838 -5.17593 0
M  V30 270 H 22.4957 2.18738 -3.55612 0
M  V30 271 H 23.8857 -0.339502 -6.71042 0
M  V30 272 N 26.6058 1.57591 -0.0167156 0
M  V30 273 C 27.8538 1.90906 0.663285 0
M  V30 274 C 28.1748 0.892509 1.73376 0
M  V30 275 O 27.4448 -0.0677623 1.95783 0
M  V30 276 H 26.0248 0.704637 0.247983 0
M  V30 277 H 28.6868 1.94803 -0.0615909 0
M  V30 278 H 27.7828 2.9116 1.12393 0
M  V30 279 N 28.0839 -0.256276 1.55502 0
M  V30 280 C 29.4949 -0.826068 1.67431 0
M  V30 281 C 29.8459 -1.86396 0.612446 0
M  V30 282 O 28.9709 -2.15031 -0.243025 0
M  V30 283 C 29.5659 -1.50512 3.03532 0
M  V30 284 C 28.1249 -2.02273 3.17431 0
M  V30 285 C 27.2719 -0.870548 2.63281 0
M  V30 286 H 30.2229 -0.0322728 1.58667 0
M  V30 287 H 30.2439 -2.37279 2.97454 0
M  V30 288 H 29.7559 -0.749484 3.80794 0
M  V30 289 H 27.8569 -2.80746 2.44974 0
M  V30 290 H 27.9699 -2.22655 4.24219 0
M  V30 291 H 26.3339 -1.26851 2.20864 0
M  V30 292 H 27.1169 -0.128149 3.43061 0
M  V30 293 N 29.562 -1.4872 -0.521534 0
M  V30 294 C 30.81 -1.56857 -1.27437 0
M  V30 295 C 31.131 -0.247982 -1.93417 0
M  V30 296 O 30.401 0.731151 -1.81744 0
M  V30 297 H 28.981 -0.577885 -0.473347 0
M  V30 298 H 31.643 -1.85233 -0.606205 0
M  V30 299 H 30.739 -2.35402 -2.0492 0
M  V30 300 N 31.0401 0.771051 -1.3745 0
M  V30 301 C 32.4511 1.34737 -1.29239 0
M  V30 302 C 32.8021 1.96109 0.0596908 0
M  V30 303 O 31.9271 1.93865 0.961534 0
M  V30 304 C 32.5221 2.44973 -2.34037 0
M  V30 305 C 31.0811 2.98372 -2.29458 0
M  V30 306 C 30.2281 1.71595 -2.17831 0
M  V30 307 H 33.1791 0.571256 -1.48062 0
M  V30 308 H 33.2001 3.24471 -1.98744 0
M  V30 309 H 32.7121 2.00276 -3.32432 0
M  V30 310 H 30.8131 3.47443 -1.34589 0
M  V30 311 H 30.9261 3.53939 -3.229 0
M  V30 312 H 29.2901 1.94547 -1.64388 0
M  V30 313 H 30.0731 1.29001 -3.18141 0
M  V30 314 N 32.5182 1.22032 0.997298 0
M  V30 315 C 33.9342 0.979326 1.26021 0
M  V30 316 C 34.1342 -0.32972 1.98784 0
M  V30 317 O 33.1902 -1.05345 2.29475 0
M  V30 318 C 34.5032 2.17509 2.07631 0
M  V30 319 C 36.0512 2.21817 2.2083 0
M  V30 320 C 36.5262 3.40933 3.05825 0
M  V30 321 N 38.0172 3.41067 3.13412 0
M  V30 322 C 38.7522 4.29885 3.79455 0
M  V30 323 N 38.2482 5.28914 4.47462 0
M  V30 324 N 40.0412 4.17673 3.76173 0
M  V30 325 H 32.1922 2.06202 0.509352 0
M  V30 326 H 34.4552 0.90334 0.287541 0
M  V30 327 H 34.1612 3.12415 1.61524 0
M  V30 328 H 34.0352 2.17206 3.08385 0
M  V30 329 H 36.4222 1.27462 2.66153 0
M  V30 330 H 36.5032 2.2616 1.1952 0
M  V30 331 H 36.1472 4.35586 2.61203 0
M  V30 332 H 36.0772 3.33829 4.07266 0
M  V30 333 H 38.5682 2.69406 2.65007 0
M  V30 334 H 38.8812 5.92973 4.95583 0
M  V30 335 H 37.2262 5.32831 4.46224 0
M  V30 336 H 40.4172 3.39564 3.22202 0
M  V30 337 H 40.5902 4.87098 4.27363 0
M  V30 338 N 33.9963 -1.19345 1.0293 0
M  V30 339 C 34.9063 -2.26245 0.620515 0
M  V30 340 C 35.9223 -1.70486 -0.347928 0
M  V30 341 O 37.0983 -2.00347 -0.205704 0
M  V30 342 C 34.1633 -3.46693 -0.0218957 0
M  V30 343 C 33.2243 -4.17632 0.994102 0
M  V30 344 C 32.4573 -5.32329 0.382253 0
M  V30 345 O 32.6803 -5.64552 -0.814676 0
M  V30 346 O 31.6143 -5.91664 1.10531 0
M  V30 347 H 35.4403 -2.63453 1.51083 0
M  V30 348 H 33.0253 -1.26207 0.799513 0
M  V30 349 H 34.9073 -4.19683 -0.380072 0
M  V30 350 H 33.5823 -3.11333 -0.886209 0
M  V30 351 H 32.4893 -3.4676 1.40387 0
M  V30 352 H 33.8223 -4.56964 1.8288 0
M  V30 353 N 35.4744 -0.807222 -1.35358 0
M  V30 354 C 36.4374 -0.223665 -2.28106 0
M  V30 355 C 37.4374 0.589354 -1.4961 0
M  V30 356 O 38.6274 0.407745 -1.69361 0
M  V30 357 C 35.7594 0.688149 -3.33882 0
M  V30 358 H 36.9524 -1.04169 -2.81227 0
M  V30 359 H 34.5054 -0.577921 -1.45223 0
M  V30 360 H 35.2404 1.52984 -2.85948 0
M  V30 361 H 35.0254 0.10687 -3.91954 0
M  V30 362 H 36.5154 1.09075 -4.03104 0
M  V30 363 N 36.9525 1.47285 -0.560781 0
M  V30 364 C 38.3685 1.58065 -0.22081 0
M  V30 365 C 38.5685 1.55892 1.27671 0
M  V30 366 O 37.6245 1.46422 2.0571 0
M  V30 367 C 38.9375 2.88418 -0.850625 0
M  V30 368 C 40.4855 3.02009 -0.822184 0
M  V30 369 C 40.9605 4.35066 -1.43113 0
M  V30 370 N 42.4515 4.41711 -1.39448 0
M  V30 371 C 43.1865 5.43237 -1.83525 0
M  V30 372 N 42.6825 6.51555 -2.35474 0
M  V30 373 N 44.4755 5.34304 -1.74574 0
M  V30 374 H 36.6265 1.46941 -1.53369 0
M  V30 375 H 38.8895 0.699558 -0.639783 0
M  V30 376 H 38.5955 2.95755 -1.9032 0
M  V30 377 H 38.4695 3.75612 -0.345773 0
M  V30 378 H 40.8565 2.94266 0.221714 0
M  V30 379 H 40.9375 2.16347 -1.36483 0
M  V30 380 H 40.5815 4.43565 -2.47412 0
M  V30 381 H 40.5115 5.19465 -0.863899 0
M  V30 382 H 43.0025 3.64027 -1.01452 0
M  V30 383 H 43.3155 7.25203 -2.67021 0
M  V30 384 H 41.6605 6.52435 -2.39487 0
M  V30 385 H 44.8515 4.48581 -1.33763 0
M  V30 386 H 45.0245 6.13288 -2.09242 0
M  V30 387 N 38.4306 0.297415 1.54768 0
M  V30 388 C 39.6786 -0.312295 1.99673 0
M  V30 389 C 39.9996 -1.54686 1.18732 0
M  V30 390 O 39.2696 -1.93854 0.282382 0
M  V30 391 H 37.8496 -0.118381 0.73756 0
M  V30 392 H 40.5116 0.407915 1.90583 0
M  V30 393 H 39.6076 -0.586813 3.06534 0
M  V30 394 N 39.9087 -1.5758 0.0250728 0
M  V30 395 C 40.8717 -2.08896 -0.943139 0
M  V30 396 C 41.8717 -1.00321 -1.25668 0
M  V30 397 O 43.0617 -1.26495 -1.19769 0
M  V30 398 C 40.1937 -2.55143 -2.26086 0
M  V30 399 H 41.3867 -2.95723 -0.498775 0
M  V30 400 H 38.9397 -1.54703 -0.222888 0
M  V30 401 H 39.6747 -1.71633 -2.75159 0
M  V30 402 H 39.4597 -3.34461 -2.04641 0
M  V30 403 H 40.9497 -2.95083 -2.95492 0
M  V30 404 N 41.3868 0.248026 -1.55636 0
M  V30 405 C 42.8028 0.596483 -1.48035 0
M  V30 406 C 43.0028 1.88386 -0.715039 0
M  V30 407 O 42.0588 2.51319 -0.243944 0
M  V30 408 C 43.3718 0.700258 -2.92433 0
M  V30 409 C 44.9198 0.792659 -3.02797 0
M  V30 410 C 45.3948 0.928005 -4.485 0
M  V30 411 N 46.8858 0.992903 -4.52433 0
M  V30 412 C 47.6208 1.11687 -5.62418 0
M  V30 413 N 47.1168 1.20645 -6.82214 0
M  V30 414 N 48.9098 1.14994 -5.50212 0
M  V30 415 H 41.0608 -0.597109 -2.03834 0
M  V30 416 H 43.3238 -0.205925 -0.925364 0
M  V30 417 H 43.0298 -0.175658 -3.51261 0
M  V30 418 H 42.9038 1.57255 -3.42857 0
M  V30 419 H 45.2908 1.65903 -2.4405 0
M  V30 420 H 45.3718 -0.104762 -2.55585 0
M  V30 421 H 45.0158 0.0661971 -5.07857 0
M  V30 422 H 44.9458 1.84045 -4.93391 0
M  V30 423 H 47.4368 0.935064 -3.66149 0
M  V30 424 H 47.7498 1.30008 -7.61786 0
M  V30 425 H 46.0948 1.17605 -6.84977 0
M  V30 426 H 49.2858 1.07643 -4.55555 0
M  V30 427 H 49.4588 1.24311 -6.35965 0
M  V30 428 N 42.8649 1.48995 0.513639 0
M  V30 429 C 44.2759 1.5119 1.09537 0
M  V30 430 C 44.6269 0.290906 1.94031 0
M  V30 431 O 43.7519 -0.60049 2.07902 0
M  V30 432 C 44.3469 2.73964 1.99322 0
M  V30 433 C 42.9059 2.78978 2.52682 0
M  V30 434 C 42.0529 2.44934 1.30009 0
M  V30 435 H 45.0039 1.55875 0.298125 0
M  V30 436 H 45.0249 2.53409 2.83838 0
M  V30 437 H 44.5369 3.62813 1.37799 0
M  V30 438 H 42.6379 1.94378 3.1788 0
M  V30 439 H 42.7509 3.8083 2.90698 0
M  V30 440 H 41.1149 1.9644 1.62122 0
M  V30 441 H 41.8979 3.36043 0.702131 0
M  V30 442 N 44.343 -0.763751 1.37857 0
M  V30 443 C 45.591 -1.51957 1.33243 0
M  V30 444 C 45.912 -1.94835 -0.0801709 0
M  V30 445 O 45.182 -1.66894 -1.02582 0
M  V30 446 H 43.762 -0.563626 0.49024 0
M  V30 447 H 46.424 -0.908504 1.7243 0
M  V30 448 H 45.52 -2.41523 1.97669 0
M  V30 449 N 45.8211 -1.22559 -0.990812 0
M  V30 450 C 47.2321 -1.04791 -1.54518 0
M  V30 451 C 47.5831 0.387998 -1.92325 0
M  V30 452 O 46.7081 1.27328 -1.74976 0
M  V30 453 C 47.3031 -1.896 -2.80779 0
M  V30 454 C 45.8621 -1.76124 -3.32652 0
M  V30 455 C 45.0091 -1.8594 -2.05722 0
M  V30 456 H 47.9601 -1.36374 -0.811662 0
M  V30 457 H 47.9811 -1.41464 -3.53225 0
M  V30 458 H 47.4931 -2.94101 -2.53231 0
M  V30 459 H 45.5941 -0.743643 -3.65104 0
M  V30 460 H 45.7071 -2.58913 -4.03114 0
M  V30 461 H 44.0711 -1.29403 -2.19379 0
M  V30 462 H 44.8541 -2.91976 -1.80568 0
M  V30 463 N 47.2992 1.18797 -1.03562 0
M  V30 464 C 48.7152 1.40671 -0.753917 0
M  V30 465 C 48.9152 1.9043 0.658686 0
M  V30 466 O 47.9712 2.08538 1.42366 0
M  V30 467 C 49.2842 2.41192 -1.79574 0
M  V30 468 C 50.8322 2.54928 -1.81606 0
M  V30 469 C 51.3072 3.58709 -2.84766 0
M  V30 470 N 52.7982 3.66212 -2.83625 0
M  V30 471 C 53.5332 4.46225 -3.60098 0
M  V30 472 N 53.0292 5.29888 -4.46308 0
M  V30 473 N 54.8222 4.40939 -3.4861 0
M  V30 474 H 46.9732 0.848221 -1.94728 0
M  V30 475 H 49.2362 0.435081 -0.842264 0
M  V30 476 H 48.9422 2.11669 -2.80872 0
M  V30 477 H 48.8162 3.40467 -1.62365 0
M  V30 478 H 51.2032 2.83771 -0.809817 0
M  V30 479 H 51.2842 1.55784 -2.02891 0
M  V30 480 H 50.9282 3.30607 -3.85566 0
M  V30 481 H 50.8582 4.57519 -2.60737 0
M  V30 482 H 53.3492 3.06466 -2.21105 0
M  V30 483 H 53.6622 5.88078 -5.01382 0
M  V30 484 H 52.0072 5.29326 -4.50377 0
M  V30 485 H 55.1982 3.74624 -2.80668 0
M  V30 486 H 55.3712 5.03056 -4.08459 0
M  V30 487 N 48.7773 0.814389 1.34928 0
M  V30 488 C 50.0233 0.399013 1.98836 0
M  V30 489 C 50.3563 -1.03314 1.64438 0
M  V30 490 O 49.6313 -1.71811 0.911659 0
M  V30 491 C 49.9143 0.591629 3.55207 0
M  V30 492 C 49.7673 2.06928 3.99376 0
M  V30 493 C 51.0863 0.022199 4.40094 0
M  V30 494 H 48.2053 0.146451 0.722303 0
M  V30 495 H 50.8473 1.02537 1.59957 0
M  V30 496 H 48.9973 0.0584441 3.88456 0
M  V30 497 H 50.6693 2.66544 3.76499 0
M  V30 498 H 48.9123 2.56287 3.49999 0
M  V30 499 H 49.5833 2.1549 5.08201 0
M  V30 500 H 52.0593 0.477643 4.13349 0
M  V30 501 H 50.9353 0.186832 5.48582 0
M  V30 502 H 51.1963 -1.07215 4.28902 0
M  V30 503 N 50.2554 -1.46986 0.568584 0
M  V30 504 C 51.6664 -1.86188 0.138219 0
M  V30 505 C 52.0174 -1.47388 -1.29504 0
M  V30 506 O 51.1424 -0.88219 -1.97602 0
M  V30 507 C 51.7374 -3.3792 0.244065 0
M  V30 508 C 50.2964 -3.76171 -0.131335 0
M  V30 509 C 49.4434 -2.71027 0.586465 0
M  V30 510 H 52.3944 -1.38342 0.777645 0
M  V30 511 H 52.4154 -3.76729 -0.534351 0
M  V30 512 H 51.9274 -3.66128 1.28731 0
M  V30 513 H 50.0284 -3.5358 -1.17526 0
M  V30 514 H 50.1414 -4.78523 0.235146 0
M  V30 515 H 48.5054 -2.54684 0.0282722 0
M  V30 516 H 49.2884 -3.02077 1.63109 0
M  V30 517 N 51.7335 -0.305618 -1.54608 0
M  V30 518 C 52.6805 0.568421 -2.23691 0
M  V30 519 C 53.6505 1.12592 -1.22116 0
M  V30 520 O 54.8355 1.16959 -1.50749 0
M  V30 521 C 51.9755 1.7322 -2.98477 0
M  V30 522 C 51.0885 1.20566 -4.14835 0
M  V30 523 C 50.2235 2.33368 -4.77193 0
M  V30 524 C 49.2625 1.7787 -5.85686 0
M  V30 525 N 48.3995 2.84263 -6.4198 0
M  V30 526 H 53.2395 -0.0272867 -2.97988 0
M  V30 527 H 50.7765 -0.0252363 -1.47078 0
M  V30 528 H 52.7345 2.41675 -3.40072 0
M  V30 529 H 51.3645 2.29947 -2.26548 0
M  V30 530 H 50.4165 0.413223 -3.78149 0
M  V30 531 H 51.7285 0.759417 -4.92985 0
M  V30 532 H 50.8825 3.09761 -5.21664 0
M  V30 533 H 49.6215 2.8132 -3.98385 0
M  V30 534 H 48.6265 0.99968 -5.40635 0
M  V30 535 H 49.8515 1.30816 -6.66381 0
M  V30 536 H 47.7975 3.31541 -5.66053 0
M  V30 537 H 47.7145 2.44149 -7.15491 0
M  V30 538 H 48.9825 3.6054 -6.91109 0
M  V30 539 N 53.2116 1.57565 -0.0334293 0
M  V30 540 C 54.4396 1.9628 0.654347 0
M  V30 541 C 54.8546 0.910138 1.65414 0
M  V30 542 O 54.2116 -0.107595 1.82183 0
M  V30 543 C 54.2626 3.35067 1.35693 0
M  V30 544 O 53.9836 4.36296 0.397191 0
M  V30 545 C 55.4846 3.88439 2.13613 0
M  V30 546 H 52.7046 0.646369 0.180132 0
M  V30 547 H 55.2486 2.04282 -0.0944721 0
M  V30 548 H 53.4036 3.2827 2.05712 0
M  V30 549 H 53.8176 5.1678 0.896597 0
M  V30 550 H 55.2916 4.8788 2.58219 0
M  V30 551 H 55.7686 3.22914 2.97696 0
M  V30 552 H 56.3746 3.98516 1.48543 0
M  V30 553 N 54.6897 -0.239769 1.55765 0
M  V30 554 C 55.6197 -1.30052 1.9393 0
M  V30 555 C 56.6007 -1.49839 0.805132 0
M  V30 556 O 57.7857 -1.62328 1.06599 0
M  V30 557 C 54.9157 -2.65391 2.2402 0
M  V30 558 C 53.8697 -2.60289 3.39755 0
M  V30 559 C 53.1957 -3.99489 3.55405 0
M  V30 560 C 54.4957 -2.16654 4.75246 0
M  V30 561 H 56.1897 -0.983573 2.82783 0
M  V30 562 H 53.7357 -0.471701 1.36055 0
M  V30 563 H 55.6887 -3.3974 2.49308 0
M  V30 564 H 54.4127 -2.98736 1.32 0
M  V30 565 H 53.0717 -1.88398 3.14487 0
M  V30 566 H 52.7197 -4.30112 2.60793 0
M  V30 567 H 52.4197 -3.96962 4.33238 0
M  V30 568 H 53.9437 -4.75528 3.83022 0
M  V30 569 H 55.3577 -2.80737 4.99859 0
M  V30 570 H 53.7547 -2.25223 5.56232 0
M  V30 571 H 54.8247 -1.11835 4.71827 0
M  V30 572 N 56.1678 -1.49265 -0.50573 0
M  V30 573 C 57.4138 -1.58748 -1.26202 0
M  V30 574 C 57.7468 -0.271227 -1.92297 0
M  V30 575 O 57.0218 0.724831 -1.80489 0
M  V30 576 C 57.3048 -2.74332 -2.33268 0
M  V30 577 C 57.1578 -4.15737 -1.71705 0
M  V30 578 C 58.4768 -2.85576 -3.34865 0
M  V30 579 H 55.5958 -0.577826 -0.457478 0
M  V30 580 H 58.2378 -1.81532 -0.560897 0
M  V30 581 H 56.3878 -2.55036 -2.93068 0
M  V30 582 H 58.0598 -4.46537 -1.15769 0
M  V30 583 H 56.3028 -4.21605 -1.02135 0
M  V30 584 H 56.9738 -4.92477 -2.49341 0
M  V30 585 H 59.4498 -3.03127 -2.8505 0
M  V30 586 H 58.3258 -3.68135 -4.07146 0
M  V30 587 H 58.5868 -1.94732 -3.96903 0
M  V30 588 N 57.6459 0.756429 -1.3826 0
M  V30 589 C 58.5759 1.88374 -1.37976 0
M  V30 590 C 59.5569 1.68311 -0.246082 0
M  V30 591 O 60.7419 1.88944 -0.44874 0
M  V30 592 C 57.8719 3.25864 -1.20125 0
M  V30 593 C 56.8259 3.60523 -2.30666 0
M  V30 594 C 56.1519 4.9672 -1.97923 0
M  V30 595 C 57.4519 3.65692 -3.72916 0
M  V30 596 H 59.1459 1.88869 -2.32312 0
M  V30 597 H 56.6919 0.907272 -1.11824 0
M  V30 598 H 58.6449 4.0438 -1.18552 0
M  V30 599 H 57.3689 3.25841 -0.222498 0
M  V30 600 H 56.0279 2.84324 -2.3142 0
M  V30 601 H 55.6759 4.93253 -0.985393 0
M  V30 602 H 55.3759 5.20878 -2.71955 0
M  V30 603 H 56.8999 5.77618 -1.97964 0
M  V30 604 H 58.3139 4.34328 -3.74208 0
M  V30 605 H 56.7109 4.01358 -4.4613 0
M  V30 606 H 57.7809 2.65987 -4.05436 0
M  V30 607 N 59.124 1.23083 0.984299 0
M  V30 608 C 60.37 1.06214 1.72761 0
M  V30 609 C 60.703 -0.400584 1.90024 0
M  V30 610 O 59.978 -1.29672 1.44967 0
M  V30 611 C 60.261 1.78375 3.12817 0
M  V30 612 C 60.114 3.32296 3.03149 0
M  V30 613 C 61.433 1.54309 4.12161 0
M  V30 614 H 58.552 0.387251 0.627061 0
M  V30 615 H 61.194 1.51536 1.14616 0
M  V30 616 H 59.344 1.39848 3.62457 0
M  V30 617 H 61.016 3.8032 2.61064 0
M  V30 618 H 59.259 3.6153 2.39747 0
M  V30 619 H 59.93 3.77972 4.02295 0
M  V30 620 H 62.406 1.87791 3.71314 0
M  V30 621 H 61.282 2.07281 5.08258 0
M  V30 622 H 61.543 0.477572 4.39513 0
M  V30 623 N 60.6021 -1.18246 1.0419 0
M  V30 624 C 61.8481 -1.88536 0.747122 0
M  V30 625 C 62.1811 -1.80223 -0.723409 0
M  V30 626 O 61.4561 -1.20337 -1.52804 0
M  V30 627 C 61.7391 -3.38968 1.21544 0
M  V30 628 C 61.5921 -3.56084 2.74816 0
M  V30 629 C 62.9111 -4.32648 0.806482 0
M  V30 630 H 60.0301 -0.684619 0.272883 0
M  V30 631 H 62.6721 -1.39113 1.29413 0
M  V30 632 H 60.8221 -3.8119 0.750081 0
M  V30 633 H 62.4941 -3.22946 3.29399 0
M  V30 634 H 60.7371 -2.98699 3.14582 0
M  V30 635 H 61.4081 -4.61639 3.02644 0
M  V30 636 H 63.8841 -3.98211 1.20695 0
M  V30 637 H 62.7601 -5.36462 1.1619 0
M  V30 638 H 63.0211 -4.41146 -0.29029 0
M  V30 639 N 62.0802 -0.821533 -1.34494 0
M  V30 640 C 63.0432 -0.247847 -2.27856 0
M  V30 641 C 64.0432 0.573453 -1.50227 0
M  V30 642 O 65.2332 0.389759 -1.69784 0
M  V30 643 C 62.3652 0.652698 -3.34593 0
M  V30 644 H 63.5582 -1.07146 -2.80107 0
M  V30 645 H 61.1112 -0.593291 -1.44602 0
M  V30 646 H 61.8462 1.49943 -2.87555 0
M  V30 647 H 61.6312 0.065292 -3.92046 0
M  V30 648 H 63.1212 1.04793 -4.04238 0
M  V30 649 N 63.5583 1.46682 -0.576371 0
M  V30 650 C 64.5213 2.28707 0.150239 0
M  V30 651 C 65.5213 1.38035 0.824794 0
M  V30 652 O 66.7113 1.60476 0.677719 0
M  V30 653 C 63.8433 3.18248 1.22192 0
M  V30 654 H 65.0363 2.94423 -0.570521 0
M  V30 655 H 62.5893 1.52688 -0.334078 0
M  V30 656 H 63.3243 2.57265 1.97447 0
M  V30 657 H 63.1093 3.85 0.742812 0
M  V30 658 H 64.5993 3.80001 1.73172 0
M  V30 659 N 65.0364 0.313813 1.54444 0
M  V30 660 C 66.2824 -0.292108 2.00685 0
M  V30 661 C 66.6154 -1.52548 1.20177 0
M  V30 662 O 65.8904 -1.92452 0.281531 0
M  V30 663 C 66.1734 -0.635968 3.5444 0
M  V30 664 C 66.0264 0.607437 4.4568 0
M  V30 665 C 67.3454 -1.45747 4.15266 0
M  V30 666 H 64.4644 -0.104697 0.729526 0
M  V30 667 H 67.1064 0.428457 1.85106 0
M  V30 668 H 65.2564 -1.24986 3.67846 0
M  V30 669 H 66.9284 1.24581 4.44159 0
M  V30 670 H 65.1714 1.23822 4.15753 0
M  V30 671 H 65.8424 0.322515 5.51057 0
M  V30 672 H 68.3184 -0.938645 4.05375 0
M  V30 673 H 67.1944 -1.66683 5.2298 0
M  V30 674 H 67.4554 -2.45063 3.67963 0
M  V30 675 N 66.5145 -1.57545 0.0417849 0
M  V30 676 C 67.4445 -2.14009 -0.933929 0
M  V30 677 C 68.4255 -1.05938 -1.33083 0
M  V30 678 O 69.6105 -1.33833 -1.40721 0
M  V30 679 C 66.7405 -2.67747 -2.21199 0
M  V30 680 C 65.6945 -3.80718 -1.95544 0
M  V30 681 C 65.0205 -4.20935 -3.29724 0
M  V30 682 C 66.3205 -5.06258 -1.28452 0
M  V30 683 H 68.0145 -2.95788 -0.463645 0
M  V30 684 H 65.5605 -1.42285 -0.221573 0
M  V30 685 H 67.5135 -3.05886 -2.89848 0
M  V30 686 H 66.2375 -1.83147 -2.70416 0
M  V30 687 H 64.8965 -3.43037 -1.2931 0
M  V30 688 H 64.5445 -3.33298 -3.76724 0
M  V30 689 H 64.2445 -4.9707 -3.13361 0
M  V30 690 H 65.7685 -4.61666 -3.9962 0
M  V30 691 H 67.1825 -5.41903 -1.8712 0
M  V30 692 H 65.5795 -5.87475 -1.22445 0
M  V30 693 H 66.6495 -4.84207 -0.259219 0
M  V30 694 N 67.9926 0.231505 -1.5589 0
M  V30 695 C 68.9226 1.29022 -1.94617 0
M  V30 696 C 69.9036 1.4941 -0.813067 0
M  V30 697 O 71.0886 1.6176 -1.07459 0
M  V30 698 C 68.2186 2.64199 -2.25424 0
M  V30 699 C 67.1726 2.58484 -3.41131 0
M  V30 700 C 66.4986 3.97599 -3.57518 0
M  V30 701 C 67.7986 2.1413 -4.76388 0
M  V30 702 H 69.4926 0.968563 -2.83301 0
M  V30 703 H 67.0386 0.464479 -1.36303 0
M  V30 704 H 68.9916 3.38413 -2.51107 0
M  V30 705 H 67.7156 2.98032 -1.33583 0
M  V30 706 H 66.3746 1.86727 -3.15481 0
M  V30 707 H 66.0226 4.28723 -2.6307 0
M  V30 708 H 65.7226 3.94659 -4.35337 0
M  V30 709 H 67.2466 4.7349 -3.85538 0
M  V30 710 H 68.6606 2.78083 -5.01341 0
M  V30 711 H 67.0576 2.2227 -5.57419 0
M  V30 712 H 68.1276 1.09331 -4.72414 0
M  V30 713 N 69.4707 1.49531 0.497807 0
M  V30 714 C 70.4007 1.6935 1.60757 0
M  V30 715 C 71.3817 0.542218 1.61227 0
M  V30 716 O 72.5667 0.778417 1.77917 0
M  V30 717 C 69.6967 1.76298 2.99226 0
M  V30 718 C 68.6507 2.91248 3.13622 0
M  V30 719 C 67.9767 2.83312 4.53474 0
M  V30 720 C 69.2767 4.3214 2.93346 0
M  V30 721 H 70.9707 2.62263 1.44425 0
M  V30 722 H 68.5167 1.26208 0.693367 0
M  V30 723 H 70.4697 1.88749 3.76765 0
M  V30 724 H 69.1937 0.799871 3.16654 0
M  V30 725 H 67.8527 2.78404 2.38509 0
M  V30 726 H 67.5007 1.84902 4.67782 0
M  V30 727 H 67.2007 3.60465 4.64046 0
M  V30 728 H 68.7247 2.97775 5.33069 0
M  V30 729 H 70.1387 4.45649 3.60652 0
M  V30 730 H 68.5357 5.1054 3.15387 0
M  V30 731 H 69.6057 4.46363 1.89441 0
M  V30 732 N 70.9488 -0.749086 1.3866 0
M  V30 733 C 72.1948 -1.51056 1.35314 0
M  V30 734 C 72.5278 -1.94121 -0.0553751 0
M  V30 735 O 71.8028 -1.65763 -1.01749 0
M  V30 736 C 72.0858 -2.76003 2.31288 0
M  V30 737 C 71.9388 -2.39047 3.8102 0
M  V30 738 C 73.2578 -3.78046 2.2532 0
M  V30 739 H 70.3768 -0.547972 0.492844 0
M  V30 740 H 73.0188 -0.857628 1.69543 0
M  V30 741 H 71.1688 -3.31716 2.02229 0
M  V30 742 H 72.8408 -1.89074 4.20771 0
M  V30 743 H 71.0838 -1.71449 3.98482 0
M  V30 744 H 71.7548 -3.28462 4.4364 0
M  V30 745 H 74.2308 -3.31884 2.50983 0
M  V30 746 H 73.1068 -4.63159 2.94576 0
M  V30 747 H 73.3678 -4.23957 1.25352 0
M  V30 748 N 72.4269 -1.23603 -0.977757 0
M  V30 749 C 73.6519 -1.09735 -1.75991 0
M  V30 750 C 74.0769 0.346858 -1.84874 0
M  V30 751 O 73.4349 1.25093 -1.3123 0
M  V30 752 C 73.4829 -1.73051 -3.16363 0
M  V30 753 O 72.5869 -0.994452 -4.0023 0
M  V30 754 H 71.9279 -0.384476 -0.541364 0
M  V30 755 H 74.4579 -1.6371 -1.2272 0
M  V30 756 H 74.4679 -1.78398 -3.66931 0
M  V30 757 H 73.1429 -2.78137 -3.09213 0
M  V30 758 H 71.7199 -1.01812 -3.58732 0
M  V30 759 N 73.905 1.17692 -1.04816 0
M  V30 760 C 74.868 2.19787 -0.650117 0
M  V30 761 C 75.868 1.58044 0.296427 0
M  V30 762 O 77.058 1.74012 0.0808097 0
M  V30 763 C 74.19 3.40869 0.0456987 0
M  V30 764 H 75.383 2.56516 -1.5537 0
M  V30 765 H 72.936 1.31708 -0.841594 0
M  V30 766 H 73.671 3.09681 0.962726 0
M  V30 767 H 73.456 3.86928 -0.634727 0
M  V30 768 H 74.946 4.16445 0.310432 0
M  V30 769 N 75.3831 0.828654 1.34056 0
M  V30 770 C 76.2931 0.256725 2.33191 0
M  V30 771 C 77.3091 -0.611898 1.62886 0
M  V30 772 O 78.4851 -0.51844 1.94613 0
M  V30 773 C 75.5501 -0.567238 3.42028 0
M  V30 774 C 74.6111 0.324458 4.28072 0
M  V30 775 C 73.8441 -0.460274 5.31712 0
M  V30 776 O 74.0671 -1.693 5.44696 0
M  V30 777 O 73.0011 0.160391 6.01686 0
M  V30 778 H 76.8271 1.07739 2.83947 0
M  V30 779 H 74.4121 0.59093 1.37217 0
M  V30 780 H 76.2941 -1.03582 4.08471 0
M  V30 781 H 74.9691 -1.36513 2.93506 0
M  V30 782 H 73.8761 0.840659 3.64532 0
M  V30 783 H 75.2091 1.08685 4.8005 0
M  V30 784 N 76.8612 -1.46375 0.584142 0
M  V30 785 C 78.0862 -2.07268 0.0740405 0
M  V30 786 C 78.5112 -1.42979 -1.22223 0
M  V30 787 O 77.8692 -0.514092 -1.73859 0
M  V30 788 C 77.9172 -3.60518 -0.0767769 0
M  V30 789 O 77.0212 -3.96533 -1.13292 0
M  V30 790 H 76.3622 -0.660961 0.0634524 0
M  V30 791 H 78.8922 -1.87991 0.807492 0
M  V30 792 H 78.9022 -4.07021 -0.282489 0
M  V30 793 H 77.5772 -4.06702 0.86986 0
M  V30 794 H 76.1542 -3.61738 -0.905553 0
M  V30 795 N 78.3393 -0.321999 -1.54275 0
M  V30 796 C 79.3023 0.531975 -2.22941 0
M  V30 797 C 80.3023 1.04478 -1.22234 0
M  V30 798 O 81.4923 0.937452 -1.46825 0
M  V30 799 C 78.6243 1.73874 -2.93224 0
M  V30 800 H 79.8173 -0.0682612 -2.99822 0
M  V30 801 H 77.3703 -0.0730644 -1.56129 0
M  V30 802 H 78.1053 2.37825 -2.20476 0
M  V30 803 H 77.8903 1.37847 -3.6707 0
M  V30 804 H 79.3803 2.34496 -3.45545 0
M  V30 805 N 79.8174 1.5752 -0.0501392 0
M  V30 806 C 80.7474 2.14502 0.922566 0
M  V30 807 C 81.7284 1.06642 1.3252 0
M  V30 808 O 82.9134 1.34577 1.4001 0
M  V30 809 C 80.0434 2.68916 2.19776 0
M  V30 810 C 78.9974 3.8175 1.93523 0
M  V30 811 C 78.3234 4.22677 3.27487 0
M  V30 812 C 79.6234 5.06932 1.25765 0
M  V30 813 H 81.3174 2.9603 0.447952 0
M  V30 814 H 78.8634 1.42401 0.214024 0
M  V30 815 H 80.8164 3.07419 2.88222 0
M  V30 816 H 79.5404 1.84578 2.69441 0
M  V30 817 H 78.1994 3.43718 1.27489 0
M  V30 818 H 77.8474 3.35291 3.74952 0
M  V30 819 H 77.5474 4.98725 3.1072 0
M  V30 820 H 79.0714 4.63779 3.97166 0
M  V30 821 H 80.4854 5.42888 1.84244 0
M  V30 822 H 78.8824 5.88116 1.19328 0
M  V30 823 H 79.9524 4.84337 0.233536 0
M  V30 824 N 81.2955 -0.223234 1.56011 0
M  V30 825 C 82.5445 -0.945912 1.78144 0
M  V30 826 C 82.8575 -1.85567 0.618396 0
M  V30 827 O 84.0635 -2.61688 0.723318 0
M  V30 828 C 82.5195 -1.73216 3.15475 0
M  V30 829 C 82.1275 -0.868619 4.39499 0
M  V30 830 C 83.8715 -2.44615 3.46935 0
M  V30 831 C 81.7785 -1.65212 5.67855 0
M  V30 832 H 80.7085 -0.356929 0.664167 0
M  V30 833 H 83.3595 -0.199845 1.82409 0
M  V30 834 H 81.7415 -2.52107 3.05382 0
M  V30 835 H 82.9155 -0.120366 4.60643 0
M  V30 836 H 81.2305 -0.26683 4.15544 0
M  V30 837 H 83.8275 -3.03732 4.40058 0
M  V30 838 H 84.1705 -3.17417 2.69355 0
M  V30 839 H 84.7035 -1.72715 3.58349 0
M  V30 840 H 81.4425 -0.967407 6.48322 0
M  V30 841 H 80.9625 -2.37503 5.50774 0
M  V30 842 H 82.6415 -2.21322 6.07968 0
M  V30 843 N 82.7736 -1.49793 -0.48987 0
M  V30 844 C 84.0016 -1.63568 -1.26701 0
M  V30 845 C 84.4166 -0.311465 -1.86213 0
M  V30 846 O 83.7736 0.704416 -1.68357 0
M  V30 847 C 83.8246 -2.71284 -2.38929 0
M  V30 848 O 83.5456 -3.9857 -1.81861 0
M  V30 849 C 85.0466 -2.95864 -3.3012 0
M  V30 850 H 82.2666 -0.550342 -0.383881 0
M  V30 851 H 84.8106 -1.95898 -0.586864 0
M  V30 852 H 82.9656 -2.417 -3.02753 0
M  V30 853 H 83.3796 -4.57993 -2.55622 0
M  V30 854 H 84.8536 -3.74941 -4.05121 0
M  V30 855 H 85.3306 -2.06206 -3.87783 0
M  V30 856 H 85.9366 -3.26907 -2.72051 0
M  V30 857 N 84.2517 0.741722 -1.39055 0
M  V30 858 C 85.1837 1.8657 -1.33133 0
M  V30 859 C 86.1967 1.61001 -0.241329 0
M  V30 860 O 87.3857 1.7136 -0.499784 0
M  V30 861 C 84.4857 3.22457 -1.04283 0
M  V30 862 C 83.6587 3.75435 -2.24427 0
M  V30 863 C 82.7177 4.89867 -1.92138 0
M  V30 864 O 81.7437 5.03879 -2.64754 0
M  V30 865 N 82.9457 5.73738 -0.88347 0
M  V30 866 H 85.7107 1.92156 -2.29991 0
M  V30 867 H 83.2717 0.922172 -1.3307 0
M  V30 868 H 85.2637 3.9657 -0.807128 0
M  V30 869 H 83.8337 3.12181 -0.161807 0
M  V30 870 H 83.0537 2.92751 -2.6399 0
M  V30 871 H 84.3417 4.07563 -3.04581 0
M  V30 872 H 83.7397 5.64999 -0.281517 0
M  V30 873 H 82.2967 6.47947 -0.707662 0
M  V30 874 N 85.7298 1.2412 0.971189 0
M  V30 875 C 86.6618 0.988349 2.06795 0
M  V30 876 C 87.6748 -0.0409541 1.62748 0
M  V30 877 O 88.8638 0.195673 1.77424 0
M  V30 878 C 85.9638 0.469023 3.35639 0
M  V30 879 C 85.1368 1.56065 4.08611 0
M  V30 880 C 84.1958 1.04458 5.15728 0
M  V30 881 O 83.2218 1.73553 5.42096 0
M  V30 882 N 84.4238 -0.122817 5.8037 0
M  V30 883 H 87.1888 1.93265 2.29061 0
M  V30 884 H 84.7498 1.15102 1.13856 0
M  V30 885 H 86.7418 0.108613 4.04554 0
M  V30 886 H 85.3118 -0.380919 3.1027 0
M  V30 887 H 84.5318 2.09341 3.34021 0
M  V30 888 H 85.8198 2.29449 4.54126 0
M  V30 889 H 85.2178 -0.700563 5.61345 0
M  V30 890 H 83.7748 -0.424404 6.50417 0
M  V30 891 N 87.2079 -1.17134 1.05439 0
M  V30 892 C 88.4849 -1.83411 0.679699 0
M  V30 893 C 88.8649 -1.9368 -0.839726 0
M  V30 894 O 88.2129 -1.47325 -1.74664 0
M  V30 895 C 88.4229 -3.20918 1.37159 0
M  V30 896 C 89.7709 -3.96796 1.51123 0
M  V30 897 O 90.7949 -3.30406 1.3308 0
M  V30 898 O 89.6539 -5.15778 1.80651 0
M  V30 899 H 86.7479 -0.79154 0.239569 0
M  V30 900 H 89.2939 -1.24411 1.15413 0
M  V30 901 H 88.0659 -3.08428 2.40807 0
M  V30 902 H 87.6889 -3.87587 0.886674 0
M  V30 903 N 88.686 -0.835752 -1.33615 0
M  V30 904 C 89.616 -0.281739 -2.31794 0
M  V30 905 C 90.597 0.608833 -1.58831 0
M  V30 906 O 91.782 0.533035 -1.86741 0
M  V30 907 C 88.912 0.546612 -3.42971 0
M  V30 908 C 87.866 -0.247904 -4.27281 0
M  V30 909 C 87.192 0.704001 -5.30045 0
M  V30 910 C 88.492 -1.46324 -5.01385 0
M  V30 911 H 90.186 -1.10206 -2.78379 0
M  V30 912 H 87.732 -0.531388 -1.33837 0
M  V30 913 H 89.685 0.944467 -4.1068 0
M  V30 914 H 88.409 1.40011 -2.95067 0
M  V30 915 H 87.068 -0.627281 -3.61194 0
M  V30 916 H 86.716 1.55381 -4.78399 0
M  V30 917 H 86.416 0.176524 -5.87335 0
M  V30 918 H 87.94 1.09944 -6.0062 0
M  V30 919 H 89.354 -1.13871 -5.61877 0
M  V30 920 H 87.751 -1.92728 -5.6831 0
M  V30 921 H 88.821 -2.23467 -4.30338 0
M  V30 922 N 90.1641 1.46063 -0.591896 0
M  V30 923 C 91.1271 2.28854 0.125973 0
M  V30 924 C 92.1271 1.38903 0.810107 0
M  V30 925 O 93.3171 1.61186 0.66066 0
M  V30 926 C 90.4491 3.19526 1.1881 0
M  V30 927 H 91.6421 2.93802 -0.601717 0
M  V30 928 H 89.1951 1.52325 -0.350254 0
M  V30 929 H 89.9301 2.59345 1.94707 0
M  V30 930 H 89.7151 3.85766 0.701936 0
M  V30 931 H 91.2051 3.81817 1.69132 0
M  V30 932 N 91.6422 0.330177 1.54103 0
M  V30 933 C 93.0532 -0.15652 1.86043 0
M  V30 934 C 93.4042 -1.51086 1.2517 0
M  V30 935 O 92.5292 -2.09023 0.560217 0
M  V30 936 C 93.1242 -0.290784 3.3755 0
M  V30 937 C 91.6832 -0.721705 3.69416 0
M  V30 938 C 90.8302 0.152622 2.7688 0
M  V30 939 H 93.7812 0.550237 1.48856 0
M  V30 940 H 93.8022 -1.12058 3.63625 0
M  V30 941 H 93.3142 0.695068 3.81825 0
M  V30 942 H 91.4152 -1.71706 3.30678 0
M  V30 943 H 91.5282 -0.520869 4.7626 0
M  V30 944 H 89.8922 -0.372894 2.51956 0
M  V30 945 H 90.6752 1.13536 3.23982 0
M  V30 946 N 93.1203 -1.57491 0.0584922 0
M  V30 947 C 94.0523 -2.08916 -0.942694 0
M  V30 948 C 95.0653 -1.0185 -1.27006 0
M  V30 949 O 96.2543 -1.29398 -1.22957 0
M  V30 950 C 93.3543 -2.52341 -2.26224 0
M  V30 951 C 92.5273 -3.82827 -2.1157 0
M  V30 952 C 91.5863 -4.12487 -3.26712 0
M  V30 953 O 90.6123 -4.82295 -3.02292 0
M  V30 954 N 91.8143 -3.64978 -4.5141 0
M  V30 955 H 94.5793 -2.95437 -0.503722 0
M  V30 956 H 92.1403 -1.61397 -0.12757 0
M  V30 957 H 94.1323 -2.69254 -3.02133 0
M  V30 958 H 92.7023 -1.7103 -2.61663 0
M  V30 959 H 91.9223 -3.75425 -1.20208 0
M  V30 960 H 93.2103 -4.68263 -1.99015 0
M  V30 961 H 92.6083 -3.08558 -4.7414 0
M  V30 962 H 91.1653 -3.87115 -5.2439 0
M  V30 963 N 94.5984 0.214957 -1.56127 0
M  V30 964 C 95.5304 1.29004 -1.89448 0
M  V30 965 C 96.5434 1.42716 -0.783326 0
M  V30 966 O 97.7324 1.43496 -1.06166 0
M  V30 967 C 94.8324 2.66482 -2.09381 0
M  V30 968 C 94.0054 2.74633 -3.40434 0
M  V30 969 C 93.0644 3.9317 -3.49719 0
M  V30 970 O 92.0904 3.812 -4.227 0
M  V30 971 N 93.2924 5.07765 -2.81346 0
M  V30 972 H 96.0574 1.00743 -2.82261 0
M  V30 973 H 93.6184 0.40497 -1.56753 0
M  V30 974 H 95.6104 3.44173 -2.12901 0
M  V30 975 H 94.1804 2.87314 -1.23163 0
M  V30 976 H 93.4004 1.83368 -3.48955 0
M  V30 977 H 94.6884 2.77054 -4.26754 0
M  V30 978 H 94.0864 5.20386 -2.21843 0
M  V30 979 H 92.6434 5.83474 -2.90519 0
M  V30 980 N 96.0765 1.50051 0.48192 0
M  V30 981 C 97.4925 1.37237 0.814756 0
M  V30 982 C 97.6925 0.420109 1.97072 0
M  V30 983 O 96.7485 -0.141246 2.52105 0
M  V30 984 C 98.0615 2.78375 1.13701 0
M  V30 985 C 99.6095 2.87213 1.2441 0
M  V30 986 C 100.084 4.29161 1.59954 0
M  V30 987 N 101.575 4.32061 1.66967 0
M  V30 988 C 102.31 5.38879 1.95952 0
M  V30 989 N 101.806 6.55918 2.23031 0
M  V30 990 N 103.599 5.26312 1.97363 0
M  V30 991 H 95.7505 2.10546 -0.28005 0
M  V30 992 H 98.0135 0.945921 -0.0627454 0
M  V30 993 H 97.7195 3.49845 0.360787 0
M  V30 994 H 97.5935 3.14941 2.07586 0
M  V30 995 H 99.9805 2.15969 2.01101 0
M  V30 996 H 100.061 2.54204 0.285299 0
M  V30 997 H 99.7055 5.00938 0.838067 0
M  V30 998 H 99.6355 4.59648 2.56966 0
M  V30 999 H 102.126 3.47661 1.48123 0
M  V30 1000 H 102.439 7.33139 2.44391 0
M  V30 1001 H 100.784 6.59112 2.20447 0
M  V30 1002 H 103.975 4.33876 1.75697 0
M  V30 1003 H 104.148 6.09649 2.19618 0
M  V30 1004 N 97.5546 -0.734337 1.39446 0
M  V30 1005 C 98.5176 -1.83004 1.37994 0
M  V30 1006 C 99.5176 -1.58397 0.276938 0
M  V30 1007 O 100.708 -1.65785 0.534875 0
M  V30 1008 C 97.8396 -3.20802 1.1532 0
M  V30 1009 H 99.0326 -1.85694 2.35494 0
M  V30 1010 H 96.5856 -0.938059 1.25021 0
M  V30 1011 H 97.3206 -3.23772 0.185036 0
M  V30 1012 H 97.1056 -3.4006 1.95197 0
M  V30 1013 H 98.5956 -4.00862 1.17046 0
M  V30 1014 N 99.0327 -1.24633 -0.964593 0
M  V30 1015 C 99.9957 -1.0424 -2.04124 0
M  V30 1016 C 100.996 0.00137563 -1.608 0
M  V30 1017 O 102.186 -0.239883 -1.7254 0
M  V30 1018 C 99.3177 -0.580588 -3.3592 0
M  V30 1019 H 100.511 -1.99803 -2.23649 0
M  V30 1020 H 98.0637 -1.06899 -1.14027 0
M  V30 1021 H 98.7987 0.3781 -3.22088 0
M  V30 1022 H 98.5837 -1.33398 -3.6871 0
M  V30 1023 H 100.074 -0.459034 -4.15069 0
M  V30 1024 N 100.511 1.16574 -1.06058 0
M  V30 1025 C 101.922 1.68662 -0.800632 0
M  V30 1026 C 102.273 1.84184 0.67608 0
M  V30 1027 O 101.398 1.53568 1.52466 0
M  V30 1028 C 101.993 3.06356 -1.44676 0
M  V30 1029 C 100.552 3.55575 -1.23465 0
M  V30 1030 C 99.6988 2.31616 -1.52477 0
M  V30 1031 H 102.65 1.00969 -1.22438 0
M  V30 1032 H 102.671 3.70636 -0.860788 0
M  V30 1033 H 102.183 2.95027 -2.52152 0
M  V30 1034 H 100.284 3.72167 -0.179527 0
M  V30 1035 H 100.397 4.37812 -1.94571 0
M  V30 1036 H 98.7608 2.36512 -0.945209 0
M  V30 1037 H 99.5438 2.22887 -2.61106 0
M  V30 1038 N 101.989 0.842826 1.3317 0
M  V30 1039 C 102.921 0.236245 2.27979 0
M  V30 1040 C 103.934 -0.585282 1.51915 0
M  V30 1041 O 105.123 -0.411705 1.73687 0
M  V30 1042 C 102.223 -0.685717 3.3189 0
M  V30 1043 C 101.396 0.0973448 4.37292 0
M  V30 1044 C 100.455 -0.748565 5.20848 0
M  V30 1045 O 99.4809 -0.186339 5.68895 0
M  V30 1046 N 100.683 -2.06527 5.42519 0
M  V30 1047 H 103.448 1.05088 2.80672 0
M  V30 1048 H 101.009 0.701667 1.45905 0
M  V30 1049 H 103.001 -1.25669 3.84694 0
M  V30 1050 H 101.571 -1.40105 2.79445 0
M  V30 1051 H 100.791 0.849706 3.84933 0
M  V30 1052 H 102.079 0.635643 5.04814 0
M  V30 1053 H 101.477 -2.54554 5.05192 0
M  V30 1054 H 100.034 -2.58464 5.98364 0
M  V30 1055 N 103.467 -1.45747 0.599634 0
M  V30 1056 C 104.399 -2.28628 -0.161879 0
M  V30 1057 C 105.412 -1.39494 -0.839367 0
M  V30 1058 O 106.601 -1.63941 -0.706089 0
M  V30 1059 C 103.701 -3.15014 -1.24976 0
M  V30 1060 C 102.874 -4.32378 -0.660935 0
M  V30 1061 C 101.933 -5.00033 -1.63869 0
M  V30 1062 O 100.959 -5.57085 -1.1681 0
M  V30 1063 N 102.161 -4.98589 -2.97303 0
M  V30 1064 H 104.926 -2.94624 0.549265 0
M  V30 1065 H 102.487 -1.55847 0.438565 0
M  V30 1066 H 104.479 -3.5714 -1.9035 0
M  V30 1067 H 103.049 -2.5098 -1.86354 0
M  V30 1068 H 102.269 -3.9383 0.170688 0
M  V30 1069 H 103.557 -5.08197 -0.247619 0
M  V30 1070 H 102.955 -4.53514 -3.38145 0
M  V30 1071 H 101.512 -5.44603 -3.58121 0
M  V30 1072 N 104.945 -0.338344 -1.53925 0
M  V30 1073 C 105.892 0.520845 -2.24846 0
M  V30 1074 C 106.862 1.09976 -1.24477 0
M  V30 1075 O 108.047 1.13735 -1.53196 0
M  V30 1076 C 105.187 1.6685 -3.02084 0
M  V30 1077 C 104.3 1.11739 -4.17299 0
M  V30 1078 C 103.435 2.23193 -4.82036 0
M  V30 1079 C 102.474 1.65407 -5.89328 0
M  V30 1080 N 101.611 2.70582 -6.47866 0
M  V30 1081 H 106.451 -0.0904881 -2.97863 0
M  V30 1082 H 103.988 -0.0564282 -1.46992 0
M  V30 1083 H 105.946 2.34407 -3.45122 0
M  V30 1084 H 104.576 2.2509 -2.31375 0
M  V30 1085 H 103.628 0.332919 -3.7894 0
M  V30 1086 H 104.94 0.654677 -4.94485 0
M  V30 1087 H 104.094 2.98626 -5.28117 0
M  V30 1088 H 102.833 2.72807 -4.04262 0
M  V30 1089 H 101.838 0.884779 -5.42634 0
M  V30 1090 H 103.063 1.16652 -6.69006 0
M  V30 1091 H 101.009 3.1946 -5.72959 0
M  V30 1092 H 100.926 2.28917 -7.20509 0
M  V30 1093 H 102.194 3.45799 -6.98601 0
M  V30 1094 N 106.423 1.57458 -0.0668435 0
M  V30 1095 C 107.839 1.56947 0.289772 0
M  V30 1096 C 108.039 1.07584 1.70376 0
M  V30 1097 O 107.095 0.739486 2.41429 0
M  V30 1098 C 108.408 3.0052 0.103943 0
M  V30 1099 C 109.956 3.12517 0.173857 0
M  V30 1100 C 110.431 4.57997 0.0163682 0
M  V30 1101 N 111.922 4.63144 0.0721352 0
M  V30 1102 C 112.657 5.73394 -0.0253794 0
M  V30 1103 N 112.153 6.92576 -0.176133 0
M  V30 1104 N 113.946 5.62091 0.0313305 0
M  V30 1105 H 106.097 1.87863 -0.991027 0
M  V30 1106 H 108.36 0.86583 -0.38606 0
M  V30 1107 H 108.066 3.40729 -0.871572 0
M  V30 1108 H 107.94 3.67304 0.858366 0
M  V30 1109 H 110.327 2.72197 1.13985 0
M  V30 1110 H 110.408 2.48381 -0.611586 0
M  V30 1111 H 110.052 4.99005 -0.946374 0
M  V30 1112 H 109.982 5.20158 0.821153 0
M  V30 1113 H 112.473 3.77436 0.187263 0
M  V30 1114 H 112.786 7.72418 -0.242821 0
M  V30 1115 H 111.131 6.94678 -0.211429 0
M  V30 1116 H 114.322 4.67867 0.147773 0
M  V30 1117 H 114.495 6.47982 -0.048121 0
M  V30 1118 N 107.901 -0.206675 1.56239 0
M  V30 1119 C 109.126 -0.949474 1.8439 0
M  V30 1120 C 109.551 -1.76549 0.649016 0
M  V30 1121 O 108.909 -1.76782 -0.402231 0
M  V30 1122 C 108.957 -1.83078 3.10668 0
M  V30 1123 O 108.061 -2.9281 2.90407 0
M  V30 1124 H 107.402 -0.268033 0.607499 0
M  V30 1125 H 109.932 -0.215488 2.03462 0
M  V30 1126 H 109.942 -2.2377 3.41161 0
M  V30 1127 H 108.617 -1.23112 3.97261 0
M  V30 1128 H 107.194 -2.55956 2.71184 0
M  V30 1129 N 109.379 -1.50304 -0.473955 0
M  V30 1130 C 110.604 -1.65175 -1.25427 0
M  V30 1131 C 111.029 -0.333673 -1.85117 0
M  V30 1132 O 110.387 0.702114 -1.67153 0
M  V30 1133 C 110.435 -2.74295 -2.34082 0
M  V30 1134 O 109.539 -2.35349 -3.38651 0
M  V30 1135 H 108.88 -0.551944 -0.369126 0
M  V30 1136 H 111.41 -1.96662 -0.564364 0
M  V30 1137 H 111.42 -2.97285 -2.79438 0
M  V30 1138 H 110.095 -3.69959 -1.90008 0
M  V30 1139 H 108.672 -2.22794 -2.99027 0
M  V30 1140 N 110.857 0.726932 -1.39834 0
M  V30 1141 C 112.268 1.30558 -1.3346 0
M  V30 1142 C 112.619 1.962 -0.00273003 0
M  V30 1143 O 111.744 1.96826 0.899371 0
M  V30 1144 C 112.339 2.37404 -2.41713 0
M  V30 1145 C 110.898 2.90921 -2.38835 0
M  V30 1146 C 110.045 1.64578 -2.2318 0
M  V30 1147 H 112.996 0.523862 -1.49804 0
M  V30 1148 H 113.017 3.17984 -2.08966 0
M  V30 1149 H 112.529 1.89599 -3.38635 0
M  V30 1150 H 110.63 3.42985 -1.45575 0
M  V30 1151 H 110.743 3.43487 -3.33997 0
M  V30 1152 H 109.107 1.89219 -1.70494 0
M  V30 1153 H 109.89 1.18814 -3.22084 0
M  V30 1154 N 112.336 1.25143 0.95797 0
M  V30 1155 C 113.561 1.12521 1.74223 0
M  V30 1156 C 113.986 -0.317402 1.85403 0
M  V30 1157 O 113.344 -1.2299 1.33204 0
M  V30 1158 C 113.392 1.78062 3.1357 0
M  V30 1159 O 112.496 1.058 3.98598 0
M  V30 1160 H 111.837 0.39304 0.535178 0
M  V30 1161 H 114.367 1.65641 1.201 0
M  V30 1162 H 114.377 1.84213 3.64046 0
M  V30 1163 H 113.052 2.83021 3.04749 0
M  V30 1164 H 111.629 1.07506 3.57067 0
M  V30 1165 N 113.814 -1.1601 1.06675 0
M  V30 1166 C 114.724 -2.24156 0.692179 0
M  V30 1167 C 115.74 -1.71507 -0.293513 0
M  V30 1168 O 116.916 -2.009 -0.141861 0
M  V30 1169 C 113.981 -3.46587 0.0884131 0
M  V30 1170 C 113.042 -4.14257 1.12646 0
M  V30 1171 C 112.275 -5.30844 0.551416 0
M  V30 1172 O 112.498 -5.66858 -0.634656 0
M  V30 1173 O 111.432 -5.87848 1.29298 0
M  V30 1174 H 115.258 -2.58513 1.59388 0
M  V30 1175 H 112.843 -1.23599 0.83926 0
M  V30 1176 H 114.725 -4.20679 -0.246361 0
M  V30 1177 H 113.4 -3.13994 -0.786712 0
M  V30 1178 H 112.307 -3.42118 1.51348 0
M  V30 1179 H 113.64 -4.50914 1.97325 0
M  V30 1180 N 115.292 -0.849877 -1.32721 0
M  V30 1181 C 116.54 -0.450032 -1.97026 0
M  V30 1182 C 116.861 0.996604 -1.67609 0
M  V30 1183 O 116.131 1.6958 -0.980786 0
M  V30 1184 H 114.711 -0.163426 -0.728904 0
M  V30 1185 H 117.373 -1.08526 -1.6189 0
M  V30 1186 H 116.469 -0.591146 -3.0645 0
M  V30 1187 N 116.77 1.45427 -0.607355 0
M  V30 1188 C 117.7 2.3329 0.0989352 0
M  V30 1189 C 118.681 1.46816 0.859007 0
M  V30 1190 O 119.866 1.75588 0.829604 0
M  V30 1191 C 116.996 3.29518 1.09705 0
M  V30 1192 C 115.95 4.25626 0.450206 0
M  V30 1193 C 115.276 5.11542 1.55655 0
M  V30 1194 C 116.576 5.18505 -0.628455 0
M  V30 1195 H 118.27 2.92595 -0.634716 0
M  V30 1196 H 115.816 1.40696 -0.306681 0
M  V30 1197 H 117.769 3.89855 1.59971 0
M  V30 1198 H 116.493 2.68372 1.86129 0
M  V30 1199 H 115.152 3.66586 -0.0315886 0
M  V30 1200 H 114.8 4.46765 2.31107 0
M  V30 1201 H 114.5 5.76647 1.12925 0
M  V30 1202 H 116.024 5.74748 2.06148 0
M  V30 1203 H 117.438 5.72916 -0.209877 0
M  V30 1204 H 115.835 5.92085 -0.977489 0
M  V30 1205 H 116.905 4.60948 -1.50514 0
M  V30 1206 N 118.248 0.346503 1.53744 0
M  V30 1207 C 119.488 -0.249413 2.02873 0
M  V30 1208 C 119.852 -1.47532 1.22876 0
M  V30 1209 O 121.053 -2.1456 1.61918 0
M  V30 1210 C 119.324 -0.552909 3.53097 0
M  V30 1211 S 120.883 -1.12521 4.24128 0
M  V30 1212 H 117.701 -0.074042 0.707134 0
M  V30 1213 H 120.303 0.48495 1.8939 0
M  V30 1214 H 119.007 0.347083 4.0893 0
M  V30 1215 H 118.538 -1.31686 3.70705 0
M  V30 1216 H 120.553 -2.41075 4.33702 0
M  V30 1217 N 119.726 -1.57421 0.075193 0
M  V30 1218 C 121.137 -1.81021 -0.456964 0
M  V30 1219 C 121.488 -0.98936 -1.69429 0
M  V30 1220 O 120.613 -0.212865 -2.15351 0
M  V30 1221 C 121.208 -3.28329 -0.83581 0
M  V30 1222 C 119.767 -3.52764 -1.31281 0
M  V30 1223 C 118.914 -2.75676 -0.299648 0
M  V30 1224 H 121.865 -1.55822 0.300856 0
M  V30 1225 H 121.886 -3.40564 -1.69696 0
M  V30 1226 H 121.398 -3.88046 0.0649238 0
M  V30 1227 H 119.499 -2.98355 -2.23193 0
M  V30 1228 H 119.612 -4.61451 -1.28839 0
M  V30 1229 H 117.976 -2.42538 -0.777641 0
M  V30 1230 H 118.759 -3.38132 0.593417 0
M  V30 1231 N 121.204 0.198386 -1.56346 0
M  V30 1232 C 122.615 0.763358 -1.70381 0
M  V30 1233 C 122.966 1.83995 -0.681203 0
M  V30 1234 O 122.091 2.15785 0.16305 0
M  V30 1235 C 122.686 1.39143 -3.08909 0
M  V30 1236 C 121.245 1.90352 -3.2472 0
M  V30 1237 C 120.392 0.772233 -2.6633 0
M  V30 1238 H 123.343 -0.0266377 -1.58678 0
M  V30 1239 H 123.364 2.26076 -3.06055 0
M  V30 1240 H 122.876 0.607638 -3.83314 0
M  V30 1241 H 120.977 2.71461 -2.55225 0
M  V30 1242 H 121.09 2.06757 -4.3219 0
M  V30 1243 H 119.454 1.18566 -2.2542 0
M  V30 1244 H 120.237 0.00073556 -3.433 0
M  V30 1245 N 122.682 1.50554 0.465978 0
M  V30 1246 C 123.93 1.61479 1.21528 0
M  V30 1247 C 124.251 0.319596 1.92363 0
M  V30 1248 O 123.521 -0.663194 1.84333 0
M  V30 1249 H 122.101 0.595055 0.451573 0
M  V30 1250 H 124.763 1.87355 0.53704 0
M  V30 1251 H 123.859 2.42846 1.96042 0
M  V30 1252 N 124.16 -0.719506 1.40217 0
M  V30 1253 C 125.11 -1.8251 1.36653 0
M  V30 1254 C 126.094 -1.59028 0.244732 0
M  V30 1255 O 127.286 -1.70268 0.483524 0
M  V30 1256 C 124.415 -3.20599 1.22763 0
M  V30 1257 C 123.501 -3.49858 2.39708 0
M  V30 1258 N 123.892 -3.49957 3.6519 0
M  V30 1259 C 122.19 -3.80297 2.33002 0
M  V30 1260 C 122.891 -3.77449 4.42614 0
M  V30 1261 N 121.867 -3.96002 3.72402 0
M  V30 1262 H 125.669 -1.80914 2.31619 0
M  V30 1263 H 123.183 -0.918455 1.33933 0
M  V30 1264 H 125.18 -3.99766 1.18292 0
M  V30 1265 H 123.84 -3.23424 0.287614 0
M  V30 1266 H 124.851 -3.309 3.98404 0
M  V30 1267 H 121.528 -3.90635 1.47346 0
M  V30 1268 H 122.918 -3.83863 5.51451 0
M  V30 1269 N 125.638 -1.25649 -0.95132 0
M  V30 1270 C 126.588 -1.03004 -2.03406 0
M  V30 1271 C 127.572 0.034187 -1.60864 0
M  V30 1272 O 128.764 -0.181549 -1.76066 0
M  V30 1273 C 125.893 -0.654255 -3.37008 0
M  V30 1274 C 124.979 -1.75542 -3.86065 0
M  V30 1275 N 125.37 -2.99113 -4.07879 0
M  V30 1276 C 123.668 -1.63669 -4.14884 0
M  V30 1277 C 124.369 -3.70611 -4.48356 0
M  V30 1278 N 123.345 -2.98247 -4.54477 0
M  V30 1279 H 127.147 -1.96813 -2.1827 0
M  V30 1280 H 124.661 -1.16017 -1.13639 0
M  V30 1281 H 126.658 -0.473206 -4.14206 0
M  V30 1282 H 125.318 0.276468 -3.23521 0
M  V30 1283 H 126.329 -3.35124 -3.94857 0
M  V30 1284 H 123.006 -0.775161 -4.10241 0
M  V30 1285 H 124.396 -4.76695 -4.73509 0
M  V30 1286 N 127.117 1.15442 -1.07289 0
M  V30 1287 C 128.366 1.85557 -0.790669 0
M  V30 1288 C 128.679 1.83186 0.685739 0
M  V30 1289 O 129.885 2.48977 1.0827 0
M  V30 1290 C 128.341 3.33038 -1.36433 0
M  V30 1291 C 127.949 3.43856 -2.8717 0
M  V30 1292 C 129.693 4.0834 -1.1601 0
M  V30 1293 C 127.6 4.85482 -3.3773 0
M  V30 1294 H 126.53 0.695122 -0.292098 0
M  V30 1295 H 129.181 1.30219 -1.29287 0
M  V30 1296 H 127.563 3.88043 -0.789864 0
M  V30 1297 H 128.737 2.98961 -3.50655 0
M  V30 1298 H 127.052 2.81998 -3.06376 0
M  V30 1299 H 129.649 5.12859 -1.51262 0
M  V30 1300 H 129.992 4.16182 -0.0991007 0
M  V30 1301 H 130.525 3.59603 -1.70089 0
M  V30 1302 H 127.264 4.82823 -4.43353 0
M  V30 1303 H 126.784 5.30961 -2.78999 0
M  V30 1304 H 128.463 5.54335 -3.33648 0
M  V30 1305 N 128.595 0.856903 1.32268 0
M  V30 1306 C 129.82 0.474569 2.01897 0
M  V30 1307 C 130.245 -0.921766 1.63967 0
M  V30 1308 O 129.603 -1.60589 0.84148 0
M  V30 1309 C 129.651 0.623799 3.55164 0
M  V30 1310 O 128.755 -0.342459 4.10976 0
M  V30 1311 H 128.096 0.190422 0.63611 0
M  V30 1312 H 130.626 1.15672 1.68764 0
M  V30 1313 H 130.636 0.512169 4.04773 0
M  V30 1314 H 129.311 1.64202 3.82113 0
M  V30 1315 H 127.888 -0.18688 3.72431 0
M  V30 1316 N 130.073 -1.45103 0.615059 0
M  V30 1317 C 130.983 -2.34382 -0.101034 0
M  V30 1318 C 131.999 -1.51681 -0.852585 0
M  V30 1319 O 133.175 -1.8446 -0.808484 0
M  V30 1320 C 130.24 -3.29417 -1.08099 0
M  V30 1321 C 129.301 -4.28025 -0.330577 0
M  V30 1322 C 128.534 -5.1852 -1.26385 0
M  V30 1323 O 128.757 -5.12598 -2.50198 0
M  V30 1324 O 127.691 -5.97122 -0.756866 0
M  V30 1325 H 131.517 -2.97033 0.632855 0
M  V30 1326 H 129.102 -1.4461 0.375293 0
M  V30 1327 H 130.984 -3.87958 -1.6452 0
M  V30 1328 H 129.659 -2.69321 -1.79577 0
M  V30 1329 H 128.566 -3.73078 0.276283 0
M  V30 1330 H 129.899 -4.90997 0.343866 0
M  V30 1331 N 131.551 -0.354651 -1.53558 0
M  V30 1332 C 132.828 0.294281 -1.93374 0
M  V30 1333 C 133.208 1.67313 -1.28723 0
M  V30 1334 O 132.556 2.24179 -0.442247 0
M  V30 1335 C 132.766 0.355445 -3.47185 0
M  V30 1336 C 134.114 0.601007 -4.20325 0
M  V30 1337 O 135.138 0.437106 -3.53508 0
M  V30 1338 O 133.997 0.919322 -5.38712 0
M  V30 1339 H 131.091 0.174033 -0.808481 0
M  V30 1340 H 133.637 -0.406638 -1.64756 0
M  V30 1341 H 132.409 -0.611729 -3.86489 0
M  V30 1342 H 132.032 1.1027 -3.82003 0
M  V30 1343 N 133.029 1.57378 -0.0835403 0
M  V30 1344 C 134.277 1.93547 0.581718 0
M  V30 1345 C 134.598 0.96524 1.69435 0
M  V30 1346 O 133.868 0.0153369 1.95894 0
M  V30 1347 H 132.448 0.714521 0.217874 0
M  V30 1348 H 135.11 1.94366 -0.144158 0
M  V30 1349 H 134.206 2.95665 0.999423 0
M  V30 1350 N 134.507 -0.190092 1.56449 0
M  V30 1351 C 135.923 -0.54113 1.50146 0
M  V30 1352 C 136.123 -1.85603 0.784465 0
M  V30 1353 O 135.179 -2.5024 0.337051 0
M  V30 1354 C 136.492 -0.591241 2.9483 0
M  V30 1355 C 138.04 -0.679732 3.0553 0
M  V30 1356 C 138.515 -0.760908 4.51635 0
M  V30 1357 N 140.006 -0.824302 4.55806 0
M  V30 1358 C 140.741 -0.907365 5.66175 0
M  V30 1359 N 140.237 -0.952422 6.86222 0
M  V30 1360 N 142.03 -0.94494 5.541 0
M  V30 1361 H 134.181 0.67235 2.01478 0
M  V30 1362 H 136.444 0.240127 0.917084 0
M  V30 1363 H 136.15 0.305905 3.50367 0
M  V30 1364 H 136.024 -1.44422 3.48457 0
M  V30 1365 H 138.411 -1.56731 2.50039 0
M  V30 1366 H 138.492 0.199549 2.5502 0
M  V30 1367 H 138.136 0.122336 5.07753 0
M  V30 1368 H 138.066 -1.65606 4.99882 0
M  V30 1369 H 140.557 -0.798526 3.69367 0
M  V30 1370 H 140.87 -1.01645 7.66086 0
M  V30 1371 H 139.215 -0.921014 6.8887 0
M  V30 1372 H 142.406 -0.906612 4.59236 0
M  V30 1373 H 142.579 -1.00622 6.4014 0
M  V30 1374 N 135.985 -1.50799 -0.457987 0
M  V30 1375 C 137.262 -1.52968 -1.21902 0
M  V30 1376 C 137.642 -0.281906 -2.09209 0
M  V30 1377 O 136.99 0.734076 -2.16388 0
M  V30 1378 C 137.2 -2.8326 -2.03875 0
M  V30 1379 C 138.548 -3.34425 -2.6162 0
M  V30 1380 O 139.572 -2.8467 -2.14106 0
M  V30 1381 O 138.431 -4.21188 -3.48228 0
M  V30 1382 H 135.525 -0.614129 -0.553873 0
M  V30 1383 H 138.071 -1.63098 -0.468739 0
M  V30 1384 H 136.843 -3.65543 -1.39621 0
M  V30 1385 H 136.466 -2.76195 -2.8601 0
M  V30 1386 N 137.463 0.71206 -1.40597 0
M  V30 1387 C 138.703 1.48438 -1.40519 0
M  V30 1388 C 139.067 1.91998 -0.00767611 0
M  V30 1389 O 140.268 2.6854 0.118239 0
M  V30 1390 C 138.539 2.67514 -2.37004 0
M  V30 1391 S 140.098 3.56875 -2.55315 0
M  V30 1392 H 136.916 0.507457 -0.498005 0
M  V30 1393 H 139.518 0.832355 -1.76896 0
M  V30 1394 H 138.222 2.33689 -3.37368 0
M  V30 1395 H 137.753 3.37625 -2.01923 0
M  V30 1396 H 139.768 4.62081 -1.8082 0
M  V30 1397 N 138.941 1.26152 0.944643 0
M  V30 1398 C 140.19 1.10883 1.68487 0
M  V30 1399 C 140.503 -0.348153 1.92477 0
M  V30 1400 O 141.709 -0.621459 2.64292 0
M  V30 1401 C 140.165 1.93624 3.03377 0
M  V30 1402 C 139.773 3.43875 2.87148 0
M  V30 1403 C 141.517 1.86954 3.81115 0
M  V30 1404 C 139.424 4.18875 4.1749 0
M  V30 1405 H 138.354 0.41135 0.631907 0
M  V30 1406 H 141.005 1.50433 1.05082 0
M  V30 1407 H 139.387 1.46904 3.67743 0
M  V30 1408 H 140.561 3.98338 2.31653 0
M  V30 1409 H 138.876 3.51744 2.22856 0
M  V30 1410 H 141.473 2.40275 4.77673 0
M  V30 1411 H 141.816 0.839518 4.07747 0
M  V30 1412 H 142.349 2.31477 3.23517 0
M  V30 1413 H 139.088 5.22332 3.96043 0
M  V30 1414 H 138.608 3.69193 4.72712 0
M  V30 1415 H 140.287 4.27134 4.85968 0
M  V30 1416 N 140.419 -1.14872 1.07899 0
M  V30 1417 C 141.644 -1.90202 0.826926 0
M  V30 1418 C 142.069 -1.77774 -0.614664 0
M  V30 1419 O 141.427 -1.11431 -1.43013 0
M  V30 1420 C 141.475 -3.38352 1.24702 0
M  V30 1421 O 140.579 -4.10497 0.39575 0
M  V30 1422 H 139.92 -0.591968 0.300782 0
M  V30 1423 H 142.45 -1.45437 1.43907 0
M  V30 1424 H 142.46 -3.89156 1.22563 0
M  V30 1425 H 141.135 -3.46715 2.29698 0
M  V30 1426 H 139.712 -3.69796 0.480117 0
M  V30 1427 N 141.898 -0.863906 -1.31812 0
M  V30 1428 C 143.138 -0.47825 -1.98726 0
M  V30 1429 C 143.502 0.950397 -1.66828 0
M  V30 1430 O 144.703 1.44109 -2.26905 0
M  V30 1431 C 142.974 -0.721134 -3.50049 0
M  V30 1432 S 144.533 -0.434432 -4.36644 0
M  V30 1433 H 141.351 -0.178773 -0.688158 0
M  V30 1434 H 143.953 -1.11862 -1.60334 0
M  V30 1435 H 142.657 -1.75981 -3.70755 0
M  V30 1436 H 142.188 -0.0675315 -3.93342 0
M  V30 1437 H 144.203 0.735786 -4.90714 0
M  V30 1438 N 143.376 1.44774 -0.622745 0
M  V30 1439 C 144.323 2.30635 0.0871679 0
M  V30 1440 C 145.293 1.42994 0.845097 0
M  V30 1441 O 146.478 1.71907 0.827812 0
M  V30 1442 C 143.618 3.28144 1.06844 0
M  V30 1443 C 142.731 4.30888 0.309809 0
M  V30 1444 C 141.866 5.15494 1.28215 0
M  V30 1445 C 140.905 6.09953 0.512198 0
M  V30 1446 N 140.042 6.87287 1.43458 0
M  V30 1447 H 144.882 2.90803 -0.650974 0
M  V30 1448 H 142.419 1.43286 -0.33281 0
M  V30 1449 H 144.377 3.83157 1.65066 0
M  V30 1450 H 143.007 2.69695 1.77382 0
M  V30 1451 H 142.059 3.78414 -0.388181 0
M  V30 1452 H 143.371 4.97955 -0.290254 0
M  V30 1453 H 142.525 5.74983 1.93596 0
M  V30 1454 H 141.264 4.48481 1.91614 0
M  V30 1455 H 140.269 5.49581 -0.155151 0
M  V30 1456 H 141.494 6.78999 -0.116958 0
M  V30 1457 H 139.44 6.2295 2.05594 0
M  V30 1458 H 139.357 7.50763 0.888335 0
M  V30 1459 H 140.625 7.51306 2.07749 0
M  V30 1460 N 144.854 0.36279 1.53368 0
M  V30 1461 C 146.084 -0.228281 2.05335 0
M  V30 1462 C 146.492 -1.43226 1.23625 0
M  V30 1463 O 145.835 -1.81717 0.269206 0
M  V30 1464 C 145.897 -0.688549 3.52845 0
M  V30 1465 C 145.561 0.398362 4.5526 0
M  V30 1466 C 146.558 1.24732 5.04716 0
M  V30 1467 C 144.243 0.557805 4.99193 0
M  V30 1468 C 146.237 2.2411 5.96702 0
M  V30 1469 C 143.924 1.55495 5.90986 0
M  V30 1470 C 144.922 2.39503 6.39631 0
M  V30 1471 O 144.61 3.37517 7.29615 0
M  V30 1472 H 144.342 -0.044395 0.674541 0
M  V30 1473 H 146.896 0.518668 1.98744 0
M  V30 1474 H 145.126 -1.48706 3.56964 0
M  V30 1475 H 146.815 -1.20231 3.87685 0
M  V30 1476 H 147.581 1.13532 4.71525 0
M  V30 1477 H 143.46 -0.0862959 4.60919 0
M  V30 1478 H 147.004 2.89718 6.34594 0
M  V30 1479 H 142.901 1.66744 6.23592 0
M  V30 1480 H 143.669 3.33213 7.47604 0
M  V30 1481 N 146.332 -1.57332 0.0918853 0
M  V30 1482 C 147.58 -1.93853 -0.571446 0
M  V30 1483 C 147.901 -0.974212 -1.6892 0
M  V30 1484 O 147.171 -0.0257254 -1.95883 0
M  V30 1485 H 145.751 -0.715666 -0.214082 0
M  V30 1486 H 148.413 -1.94287 0.154464 0
M  V30 1487 H 147.509 -2.96191 -0.983729 0
M  V30 1488 N 147.81 0.181792 -1.56548 0
M  V30 1489 C 148.742 1.24956 -1.92142 0
M  V30 1490 C 149.755 1.41022 -0.813422 0
M  V30 1491 O 150.944 1.41212 -1.09186 0
M  V30 1492 C 148.044 2.61981 -2.14987 0
M  V30 1493 C 147.217 2.6735 -3.46183 0
M  V30 1494 C 146.276 3.85664 -3.5798 0
M  V30 1495 O 145.302 3.72148 -4.30691 0
M  V30 1496 N 146.504 5.01683 -2.92053 0
M  V30 1497 H 149.269 0.947329 -2.84334 0
M  V30 1498 H 146.83 0.371629 -1.57577 0
M  V30 1499 H 148.822 3.3958 -2.20154 0
M  V30 1500 H 147.392 2.84637 -1.2923 0
M  V30 1501 H 146.612 1.75925 -3.52766 0
M  V30 1502 H 147.9 2.67939 -4.32534 0
M  V30 1503 H 147.298 5.15564 -2.32832 0
M  V30 1504 H 145.855 5.77181 -3.0283 0
M  V30 1505 N 149.288 1.51039 0.449983 0
M  V30 1506 C 150.565 1.53612 1.21089 0
M  V30 1507 C 150.945 0.292997 2.09057 0
M  V30 1508 O 150.293 -0.72259 2.16774 0
M  V30 1509 C 150.503 2.84337 2.0237 0
M  V30 1510 C 151.851 3.35807 2.59843 0
M  V30 1511 O 152.875 2.85802 2.12593 0
M  V30 1512 O 151.734 4.23029 3.45989 0
M  V30 1513 H 148.828 0.617057 0.550608 0
M  V30 1514 H 151.374 1.63344 0.460082 0
M  V30 1515 H 150.146 3.66278 1.37681 0
M  V30 1516 H 149.769 2.77708 2.84542 0
M  V30 1517 N 150.766 -0.704594 1.40972 0
M  V30 1518 C 151.996 -1.49138 1.42974 0
M  V30 1519 C 152.404 -1.89175 0.0308406 0
M  V30 1520 O 151.747 -1.56734 -0.958138 0
M  V30 1521 C 151.809 -2.79016 2.26694 0
M  V30 1522 C 151.473 -2.61236 3.74973 0
M  V30 1523 C 152.47 -2.27773 4.67349 0
M  V30 1524 C 150.155 -2.77158 4.18914 0
M  V30 1525 C 152.149 -2.10457 6.01653 0
M  V30 1526 C 149.836 -2.59459 5.53285 0
M  V30 1527 C 150.834 -2.26158 6.4447 0
M  V30 1528 O 150.522 -2.08605 7.76363 0
M  V30 1529 H 150.254 -0.466443 0.489292 0
M  V30 1530 H 152.808 -0.8758 1.85793 0
M  V30 1531 H 151.038 -3.42947 1.78673 0
M  V30 1532 H 152.727 -3.40782 2.20504 0
M  V30 1533 H 153.493 -2.15095 4.34694 0
M  V30 1534 H 149.372 -3.02064 3.48251 0
M  V30 1535 H 152.916 -1.84387 6.72791 0
M  V30 1536 H 148.813 -2.71725 5.85522 0
M  V30 1537 H 149.581 -2.23439 7.87412 0
M  V30 1538 N 152.244 -1.26651 -0.937939 0
M  V30 1539 C 153.469 -1.15279 -1.72411 0
M  V30 1540 C 153.894 0.287866 -1.85884 0
M  V30 1541 O 153.252 1.20855 -1.35143 0
M  V30 1542 C 153.3 -1.83028 -3.10698 0
M  V30 1543 O 152.404 -1.12128 -3.96864 0
M  V30 1544 H 151.745 -0.401504 -0.528858 0
M  V30 1545 H 154.275 -1.67531 -1.1745 0
M  V30 1546 H 154.285 -1.89981 -3.6107 0
M  V30 1547 H 152.96 -2.87833 -3.00208 0
M  V30 1548 H 151.537 -1.13173 -3.55312 0
M  V30 1549 N 153.722 1.14298 -1.08507 0
M  V30 1550 C 154.95 1.89219 -0.836876 0
M  V30 1551 C 155.365 1.78638 0.611054 0
M  V30 1552 O 154.722 1.14643 1.41998 0
M  V30 1553 C 154.773 3.39158 -1.25116 0
M  V30 1554 O 154.494 3.49449 -2.64229 0
M  V30 1555 C 155.995 4.31073 -1.03398 0
M  V30 1556 H 153.215 0.599328 -0.301739 0
M  V30 1557 H 155.759 1.44746 -1.44461 0
M  V30 1558 H 153.914 3.81251 -0.687514 0
M  V30 1559 H 154.328 4.42589 -2.81452 0
M  V30 1560 H 155.802 5.34646 -1.37323 0
M  V30 1561 H 156.279 4.3919 0.0289259 0
M  V30 1562 H 156.885 3.94738 -1.58311 0
M  V30 1563 N 155.201 0.870884 1.31352 0
M  V30 1564 C 156.151 0.298889 2.26032 0
M  V30 1565 C 157.135 -0.564595 1.50669 0
M  V30 1566 O 158.327 -0.411323 1.72154 0
M  V30 1567 C 155.456 -0.497842 3.39671 0
M  V30 1568 C 154.542 0.378937 4.22404 0
M  V30 1569 N 154.933 1.47284 4.83881 0
M  V30 1570 C 153.231 0.171535 4.4567 0
M  V30 1571 C 153.932 2.01359 5.45738 0
M  V30 1572 N 152.908 1.31047 5.27568 0
M  V30 1573 H 156.71 1.13494 2.71102 0
M  V30 1574 H 154.224 0.718745 1.45629 0
M  V30 1575 H 156.221 -0.924155 4.06528 0
M  V30 1576 H 154.881 -1.33149 2.96144 0
M  V30 1577 H 155.892 1.85575 4.8351 0
M  V30 1578 H 152.569 -0.626091 4.12779 0
M  V30 1579 H 153.959 2.93143 6.0458 0
M  V30 1580 N 156.679 -1.44442 0.630414 0
M  V30 1581 C 157.925 -2.02894 0.143332 0
M  V30 1582 C 158.28 -1.48697 -1.22094 0
M  V30 1583 O 157.573 -0.661171 -1.79831 0
M  V30 1584 C 157.767 -3.57332 0.0697835 0
M  V30 1585 C 157.596 -4.26512 1.42539 0
M  V30 1586 C 156.366 -4.63516 2.01198 0
M  V30 1587 C 158.564 -4.57004 2.35907 0
M  V30 1588 N 156.546 -5.17661 3.30001 0
M  V30 1589 C 157.917 -5.12223 3.49324 0
M  V30 1590 C 159.972 -4.38955 2.34995 0
M  V30 1591 C 158.675 -5.51295 4.62024 0
M  V30 1592 C 160.701 -4.79075 3.46758 0
M  V30 1593 C 160.063 -5.34407 4.58899 0
M  V30 1594 H 156.162 -0.776041 0.0963523 0
M  V30 1595 H 158.746 -1.75945 0.833752 0
M  V30 1596 H 156.917 -3.83894 -0.589915 0
M  V30 1597 H 158.649 -4.02451 -0.42606 0
M  V30 1598 H 155.404 -4.47811 1.54151 0
M  V30 1599 H 155.828 -5.4921 3.95851 0
M  V30 1600 H 160.47 -3.95469 1.49545 0
M  V30 1601 H 158.188 -5.93736 5.48182 0
M  V30 1602 H 161.774 -4.66824 3.47227 0
M  V30 1603 H 160.654 -5.64878 5.4395 0
M  V30 1604 N 158.157 -0.370918 -1.53173 0
M  V30 1605 C 159.105 0.488101 -2.27421 0
M  V30 1606 C 160.099 1.07884 -1.30604 0
M  V30 1607 O 161.305 1.02143 -1.48212 0
M  V30 1608 H 157.68 0.176134 -0.731082 0
M  V30 1609 H 159.651 -0.159815 -2.97972 0
M  V30 1610 C 158.4 1.61306 -3.08019 0
M  V30 1611 H 157.723 1.1678 -3.82364 0
M  V30 1612 H 159.163 2.18872 -3.63141 0
M  V30 1613 C 157.622 2.55848 -2.19188 0
M  V30 1614 O 158.152 3.58799 -1.80626 0
M  V30 1615 N 156.358 2.2516 -1.83715 0
M  V30 1616 H 155.905 1.41476 -2.15273 0
M  V30 1617 H 155.863 2.8867 -1.24567 0
M  V30 1618 N 159.635 1.57281 -0.100228 0
M  V30 1619 C 160.912 1.86014 0.604812 0
M  V30 1620 C 161.292 0.998025 1.86018 0
M  V30 1621 O 160.64 0.0718184 2.28387 0
M  V30 1622 C 160.85 3.36784 0.915278 0
M  V30 1623 C 162.198 4.04957 1.27651 0
M  V30 1624 O 163.222 3.41695 1.00613 0
M  V30 1625 O 162.081 5.16593 1.7831 0
M  V30 1626 H 159.175 0.76942 0.303185 0
M  V30 1627 H 161.721 1.69176 -0.133313 0
M  V30 1628 H 160.493 3.91292 0.0248896 0
M  V30 1629 H 160.116 3.58987 1.70921 0
M  V30 1630 N 161.113 -0.173488 1.56642 0
M  V30 1631 C 162.043 -1.2171 1.99271 0
M  V30 1632 C 163.024 -1.46289 0.867959 0
M  V30 1633 O 164.209 -1.5766 1.13388 0
M  V30 1634 C 161.339 -2.55651 2.35074 0
M  V30 1635 C 160.293 -2.45645 3.50489 0
M  V30 1636 C 159.619 -3.84056 3.72028 0
M  V30 1637 C 160.919 -1.96302 4.84007 0
M  V30 1638 H 162.613 -0.86275 2.867 0
M  V30 1639 H 160.159 -0.413571 1.37933 0
M  V30 1640 H 162.112 -3.2886 2.63494 0
M  V30 1641 H 160.836 -2.92869 1.44552 0
M  V30 1642 H 159.495 -1.7489 3.22194 0
M  V30 1643 H 159.143 -4.18664 2.788 0
M  V30 1644 H 158.843 -3.7823 4.49684 0
M  V30 1645 H 160.367 -4.58854 4.02846 0
M  V30 1646 H 161.781 -2.59284 5.11317 0
M  V30 1647 H 160.178 -2.01429 5.65284 0
M  V30 1648 H 161.248 -0.917226 4.76146 0
M  V30 1649 N 162.591 -1.51276 -0.441967 0
M  V30 1650 C 163.521 -1.752 -1.54361 0
M  V30 1651 C 164.502 -0.601682 -1.59103 0
M  V30 1652 O 165.687 -0.843913 -1.74905 0
M  V30 1653 C 162.817 -1.87282 -2.92477 0
M  V30 1654 C 161.771 -3.02687 -3.02596 0
M  V30 1655 C 161.097 -2.99947 -4.42647 0
M  V30 1656 C 162.397 -4.4273 -2.77106 0
M  V30 1657 H 164.091 -2.67442 -1.34592 0
M  V30 1658 H 161.637 -1.28694 -0.646048 0
M  V30 1659 H 163.59 -2.02602 -3.695 0
M  V30 1660 H 162.314 -0.916844 -3.13467 0
M  V30 1661 H 160.973 -2.87065 -2.28012 0
M  V30 1662 H 160.621 -2.02136 -4.60597 0
M  V30 1663 H 160.321 -3.77439 -4.50348 0
M  V30 1664 H 161.845 -3.17354 -5.2165 0
M  V30 1665 H 163.259 -4.58727 -3.43864 0
M  V30 1666 H 161.656 -5.21893 -2.96222 0
M  V30 1667 H 162.726 -4.53087 -1.72744 0
M  V30 1668 N 164.069 0.697108 -1.41344 0
M  V30 1669 C 165.316 1.45714 -1.40619 0
M  V30 1670 C 165.644 1.94494 -0.0147907 0
M  V30 1671 O 164.899 1.69794 0.973066 0
M  V30 1672 C 165.198 2.68553 -2.35826 0
M  V30 1673 C 164.864 2.38438 -3.82698 0
M  V30 1674 C 163.526 2.29936 -4.22709 0
M  V30 1675 C 165.878 2.13567 -4.75435 0
M  V30 1676 C 163.206 1.94656 -5.53467 0
M  V30 1677 C 165.558 1.79797 -6.06511 0
M  V30 1678 C 164.222 1.69789 -6.45545 0
M  V30 1679 H 163.492 0.533206 -0.51456 0
M  V30 1680 H 166.139 0.796901 -1.74131 0
M  V30 1681 H 164.444 3.39503 -1.95563 0
M  V30 1682 H 166.141 3.2669 -2.32539 0
M  V30 1683 H 162.731 2.4595 -3.51008 0
M  V30 1684 H 166.915 2.19082 -4.45328 0
M  V30 1685 H 162.171 1.8546 -5.82593 0
M  V30 1686 H 166.345 1.59572 -6.77872 0
M  V30 1687 H 163.972 1.4222 -7.46778 0
M  V30 1688 N 165.547 1.27147 0.931209 0
M  V30 1689 C 166.787 1.14511 1.69312 0
M  V30 1690 C 167.151 -0.304638 1.89568 0
M  V30 1691 O 168.352 -0.553343 2.63043 0
M  V30 1692 C 166.623 1.90349 3.02493 0
M  V30 1693 S 168.182 1.93884 3.93642 0
M  V30 1694 H 165 0.408858 0.581684 0
M  V30 1695 H 167.602 1.61006 1.10893 0
M  V30 1696 H 166.306 2.94877 2.85439 0
M  V30 1697 H 165.837 1.44333 3.65966 0
M  V30 1698 H 167.852 1.03273 4.85334 0
M  V30 1699 N 167.025 -1.13721 1.09112 0
M  V30 1700 C 167.955 -2.21148 0.749385 0
M  V30 1701 C 168.936 -1.6792 -0.271475 0
M  V30 1702 O 170.121 -1.93693 -0.140251 0
M  V30 1703 C 167.251 -3.46905 0.165659 0
M  V30 1704 C 166.205 -4.13203 1.11567 0
M  V30 1705 C 165.531 -5.33248 0.393809 0
M  V30 1706 C 166.831 -4.60912 2.45678 0
M  V30 1707 H 168.525 -2.4999 1.64758 0
M  V30 1708 H 166.071 -1.20156 0.793626 0
M  V30 1709 H 168.024 -4.21313 -0.085466 0
M  V30 1710 H 166.748 -3.17449 -0.767714 0
M  V30 1711 H 165.407 -3.40758 1.35202 0
M  V30 1712 H 165.055 -5.00054 -0.543599 0
M  V30 1713 H 164.755 -5.78552 1.02721 0
M  V30 1714 H 166.279 -6.10413 0.150908 0
M  V30 1715 H 167.693 -5.26759 2.26269 0
M  V30 1716 H 166.09 -5.16944 3.04776 0
M  V30 1717 H 167.16 -3.75603 3.06677 0
M  V30 1718 N 168.503 -0.877838 -1.30888 0
M  V30 1719 C 169.919 -0.570844 -1.49042 0
M  V30 1720 C 170.119 0.893159 -1.80624 0
M  V30 1721 O 169.175 1.67485 -1.88958 0
M  V30 1722 C 170.488 -1.47784 -2.61878 0
M  V30 1723 C 172.036 -1.48071 -2.75761 0
M  V30 1724 C 172.511 -2.37347 -3.91702 0
M  V30 1725 N 174.002 -2.35271 -3.99001 0
M  V30 1726 C 174.737 -3.01063 -4.88004 0
M  V30 1727 N 174.233 -3.76055 -5.81854 0
M  V30 1728 N 176.026 -2.90332 -4.81315 0
M  V30 1729 H 168.177 -1.82502 -1.0866 0
M  V30 1730 H 170.44 -0.780797 -0.537644 0
M  V30 1731 H 170.146 -2.51993 -2.45341 0
M  V30 1732 H 170.02 -1.18215 -3.58197 0
M  V30 1733 H 172.407 -0.446166 -2.91708 0
M  V30 1734 H 172.488 -1.81668 -1.80085 0
M  V30 1735 H 172.132 -3.40883 -3.76512 0
M  V30 1736 H 172.062 -2.01071 -4.86701 0
M  V30 1737 H 174.553 -1.80768 -3.3186 0
M  V30 1738 H 174.866 -4.23366 -6.46514 0
M  V30 1739 H 173.211 -3.80163 -5.81808 0
M  V30 1740 H 176.402 -2.31278 -4.06974 0
M  V30 1741 H 176.575 -3.41885 -5.50471 0
M  V30 1742 N 169.982 1.44106 -0.638065 0
M  V30 1743 C 171.222 2.03858 -0.148733 0
M  V30 1744 C 171.586 1.49153 1.20903 0
M  V30 1745 O 172.787 2.00452 1.79088 0
M  V30 1746 C 171.058 3.57117 -0.142314 0
M  V30 1747 S 172.617 4.37897 0.281385 0
M  V30 1748 H 169.435 0.708069 -0.0644912 0
M  V30 1749 H 172.037 1.7639 -0.843009 0
M  V30 1750 H 170.741 3.94436 -1.13349 0
M  V30 1751 H 170.272 3.89205 0.572988 0
M  V30 1752 H 172.287 4.72218 1.52395 0
M  V30 1753 N 171.46 0.379036 1.52974 0
M  V30 1754 C 172.688 -0.20679 2.05864 0
M  V30 1755 C 173.103 -1.41356 1.25155 0
M  V30 1756 O 172.46 -1.8009 0.295588 0
M  V30 1757 C 172.511 -0.587045 3.56702 0
M  V30 1758 O 172.232 0.571776 4.34353 0
M  V30 1759 C 173.733 -1.22983 4.25899 0
M  V30 1760 H 170.953 -0.0336123 0.670158 0
M  V30 1761 H 173.497 0.541298 1.97206 0
M  V30 1762 H 171.652 -1.28504 3.65466 0
M  V30 1763 H 172.066 0.261544 5.23847 0
M  V30 1764 H 173.54 -1.44635 5.32715 0
M  V30 1765 H 174.017 -2.19416 3.80465 0
M  V30 1766 H 174.623 -0.572892 4.21424 0
M  V30 1767 N 172.938 -1.57226 0.108567 0
M  V30 1768 C 174.354 -1.5766 -0.248058 0
M  V30 1769 C 174.554 -1.12063 -1.67464 0
M  V30 1770 O 173.61 -0.803236 -2.39383 0
M  V30 1771 C 174.923 -3.0069 -0.0242287 0
M  V30 1772 C 176.471 -3.12868 -0.0909372 0
M  V30 1773 C 176.946 -4.57879 0.105067 0
M  V30 1774 N 178.437 -4.63172 0.0506846 0
M  V30 1775 C 179.172 -5.73126 0.177396 0
M  V30 1776 N 178.668 -6.91866 0.359696 0
M  V30 1777 N 180.461 -5.61977 0.117709 0
M  V30 1778 H 172.612 -1.85169 1.04049 0
M  V30 1779 H 174.875 -0.85529 0.40888 0
M  V30 1780 H 174.581 -3.38299 0.961604 0
M  V30 1781 H 174.455 -3.6945 -0.76068 0
M  V30 1782 H 176.842 -2.75124 -1.06729 0
M  V30 1783 H 176.923 -2.46672 0.677225 0
M  V30 1784 H 176.567 -4.96321 1.07834 0
M  V30 1785 H 176.497 -5.22153 -0.682954 0
M  V30 1786 H 178.988 -3.778 -0.0871266 0
M  V30 1787 H 179.301 -7.71503 0.447529 0
M  V30 1788 H 177.646 -6.93874 0.395536 0
M  V30 1789 H 180.837 -4.68094 -0.0236741 0
M  V30 1790 H 181.01 -6.47627 0.219905 0
M  V30 1791 N 174.416 0.165178 -1.56732 0
M  V30 1792 C 175.656 0.887231 -1.8414 0
M  V30 1793 C 176.02 1.79159 -0.690353 0
M  V30 1794 O 177.221 2.55172 -0.845032 0
M  V30 1795 C 175.492 1.65674 -3.16681 0
M  V30 1796 S 177.051 2.42671 -3.6559 0
M  V30 1797 H 173.869 0.297042 -0.645978 0
M  V30 1798 H 176.471 0.148439 -1.94936 0
M  V30 1799 H 175.175 0.983507 -3.98441 0
M  V30 1800 H 174.706 2.43679 -3.08843 0
M  V30 1801 H 176.721 3.67499 -3.33406 0
M  V30 1802 N 175.894 1.51508 0.433938 0
M  V30 1803 C 177.171 1.54888 1.19453 0
M  V30 1804 C 177.551 0.315154 2.08734 0
M  V30 1805 O 176.899 -0.699558 2.17528 0
M  V30 1806 C 177.109 2.86467 1.99342 0
M  V30 1807 C 178.457 3.38545 2.56267 0
M  V30 1808 O 179.481 2.88041 2.0955 0
M  V30 1809 O 178.34 4.26675 3.41483 0
M  V30 1810 H 175.434 0.622863 0.544032 0
M  V30 1811 H 177.98 1.63823 0.442732 0
M  V30 1812 H 176.752 3.67718 1.33788 0
M  V30 1813 H 176.375 2.8071 2.8158 0
M  V30 1814 N 177.372 -0.689602 1.41712 0
M  V30 1815 C 178.597 -1.48329 1.44959 0
M  V30 1816 C 179.022 -1.8801 0.0581283 0
M  V30 1817 O 178.38 -1.55026 -0.940035 0
M  V30 1818 C 178.428 -2.71835 2.36935 0
M  V30 1819 O 177.532 -3.69549 1.8305 0
M  V30 1820 H 176.873 -0.446199 0.491734 0
M  V30 1821 H 179.403 -0.847127 1.86239 0
M  V30 1822 H 179.413 -3.20076 2.53013 0
M  V30 1823 H 178.088 -2.42291 3.38035 0
M  V30 1824 H 176.665 -3.2851 1.76452 0
M  V30 1825 N 178.85 -1.27639 -0.924453 0
M  V30 1826 C 180.098 -1.13941 -1.66918 0
M  V30 1827 C 180.419 0.314589 -1.92446 0
M  V30 1828 O 179.689 1.21964 -1.53303 0
M  V30 1829 H 178.269 -0.418678 -0.618642 0
M  V30 1830 H 180.931 -1.60213 -1.10985 0
M  V30 1831 H 180.027 -1.67094 -2.63602 0
M  V30 1832 N 180.328 1.1314 -1.09713 0
M  V30 1833 C 181.238 2.22242 -0.751367 0
M  V30 1834 C 182.254 1.72224 0.247938 0
M  V30 1835 O 183.43 2.01205 0.0885463 0
M  V30 1836 C 180.495 3.46231 -0.180274 0
M  V30 1837 C 179.556 4.11125 -1.2359 0
M  V30 1838 C 178.789 5.29195 -0.691966 0
M  V30 1839 O 179.012 5.68342 0.48414 0
M  V30 1840 O 177.946 5.84214 -1.44838 0
M  V30 1841 H 181.772 2.54197 -1.66186 0
M  V30 1842 H 179.357 1.21331 -0.871735 0
M  V30 1843 H 181.239 4.21185 0.134739 0
M  V30 1844 H 179.914 3.1597 0.703185 0
M  V30 1845 H 178.821 3.37985 -1.60366 0
M  V30 1846 H 180.154 4.45524 -2.09211 0
M  V30 1847 N 181.806 0.884767 1.30421 0
M  V30 1848 C 183.052 0.503851 1.96441 0
M  V30 1849 C 183.385 -0.944518 1.69684 0
M  V30 1850 O 182.66 -1.66737 1.00145 0
M  V30 1851 C 182.943 0.779085 3.51571 0
M  V30 1852 C 182.796 2.27807 3.87846 0
M  V30 1853 C 184.115 0.255452 4.39358 0
M  V30 1854 H 181.234 0.184533 0.713524 0
M  V30 1855 H 183.876 1.10872 1.54297 0
M  V30 1856 H 182.026 0.264274 3.876 0
M  V30 1857 H 183.698 2.86127 3.61841 0
M  V30 1858 H 181.941 2.74479 3.35922 0
M  V30 1859 H 182.612 2.42125 4.96064 0
M  V30 1860 H 185.088 0.696079 4.10236 0
M  V30 1861 H 183.964 0.477361 5.4682 0
M  V30 1862 H 184.225 -0.843293 4.33983 0
M  V30 1863 N 183.284 -1.43765 0.645699 0
M  V30 1864 C 184.194 -2.34544 -0.0512957 0
M  V30 1865 C 185.21 -1.53455 -0.82022 0
M  V30 1866 O 186.386 -1.86133 -0.769176 0
M  V30 1867 C 183.451 -3.31636 -1.01087 0
M  V30 1868 C 182.512 -4.2863 -0.239712 0
M  V30 1869 C 181.745 -5.21084 -1.15358 0
M  V30 1870 O 181.968 -5.1779 -2.39269 0
M  V30 1871 O 180.902 -5.98593 -0.630038 0
M  V30 1872 H 184.728 -2.95624 0.695718 0
M  V30 1873 H 182.313 -1.43781 0.405882 0
M  V30 1874 H 184.195 -3.9136 -1.56254 0
M  V30 1875 H 182.87 -2.73069 -1.73824 0
M  V30 1876 H 181.777 -3.72408 0.355356 0
M  V30 1877 H 183.11 -4.90157 0.447936 0
M  V30 1878 N 184.763 -0.387143 -1.52771 0
M  V30 1879 C 185.693 0.440551 -2.29306 0
M  V30 1880 C 186.674 1.06535 -1.32606 0
M  V30 1881 O 187.859 1.07853 -1.61497 0
M  V30 1882 C 184.989 1.56919 -3.09829 0
M  V30 1883 C 183.943 1.07054 -4.14395 0
M  V30 1884 C 183.269 2.29109 -4.83129 0
M  V30 1885 C 184.569 0.140015 -5.22112 0
M  V30 1886 H 186.263 -0.198026 -2.98744 0
M  V30 1887 H 183.809 -0.09668 -1.43675 0
M  V30 1888 H 185.762 2.15503 -3.62128 0
M  V30 1889 H 184.486 2.23532 -2.3812 0
M  V30 1890 H 183.145 0.507247 -3.63074 0
M  V30 1891 H 182.793 2.94227 -4.0797 0
M  V30 1892 H 182.493 1.96406 -5.53804 0
M  V30 1893 H 184.017 2.88339 -5.38231 0
M  V30 1894 H 185.431 0.633978 -5.69784 0
M  V30 1895 H 183.828 -0.0971485 -6.00021 0
M  V30 1896 H 184.898 -0.811711 -4.78058 0
M  V30 1897 N 186.241 1.57166 -0.116904 0
M  V30 1898 C 187.466 1.999 0.55271 0
M  V30 1899 C 187.891 0.996039 1.59564 0
M  V30 1900 O 187.249 -0.032556 1.81271 0
M  V30 1901 C 187.297 3.4152 1.15742 0
M  V30 1902 O 186.401 3.44106 2.27299 0
M  V30 1903 H 185.742 0.649447 0.138258 0
M  V30 1904 H 188.272 2.03573 -0.204759 0
M  V30 1905 H 188.282 3.79684 1.49346 0
M  V30 1906 H 186.957 4.14034 0.393493 0
M  V30 1907 H 185.534 3.17759 1.9515 0
M  V30 1908 N 187.719 -0.156864 1.56817 0
M  V30 1909 C 189.13 -0.717916 1.72345 0
M  V30 1910 C 189.481 -1.82124 0.729747 0
M  V30 1911 O 188.606 -2.16141 -0.105781 0
M  V30 1912 C 189.201 -1.30904 3.12489 0
M  V30 1913 C 187.76 -1.81676 3.29653 0
M  V30 1914 C 186.907 -0.701349 2.68284 0
M  V30 1915 H 189.858 0.0686989 1.58551 0
M  V30 1916 H 189.879 -2.17882 3.11942 0
M  V30 1917 H 189.391 -0.505796 3.8479 0
M  V30 1918 H 187.492 -2.64598 2.62333 0
M  V30 1919 H 187.605 -1.95226 4.3752 0
M  V30 1920 H 185.969 -1.12548 2.28484 0
M  V30 1921 H 186.752 0.0902846 3.43181 0
M  V30 1922 N 189.197 -1.51736 -0.425897 0
M  V30 1923 C 190.437 -1.66636 -1.18371 0
M  V30 1924 C 190.801 -0.379854 -1.88205 0
M  V30 1925 O 192.002 -0.404758 -2.65735 0
M  V30 1926 C 190.273 -2.84382 -2.16476 0
M  V30 1927 S 191.832 -3.19673 -3.0059 0
M  V30 1928 H 188.65 -0.586957 -0.40125 0
M  V30 1929 H 191.252 -1.89679 -0.473518 0
M  V30 1930 H 189.956 -3.76281 -1.63831 0
M  V30 1931 H 189.487 -2.63562 -2.92059 0
M  V30 1932 H 191.502 -2.66994 -4.18245 0
M  V30 1933 N 190.675 0.682077 -1.42076 0
M  V30 1934 C 191.903 1.47057 -1.4554 0
M  V30 1935 C 192.318 1.8869 -0.0645779 0
M  V30 1936 O 191.675 1.57666 0.919115 0
M  V30 1937 C 191.726 2.72442 -2.37609 0
M  V30 1938 O 191.447 2.32559 -3.71279 0
M  V30 1939 C 192.948 3.66069 -2.50017 0
M  V30 1940 H 190.168 0.452737 -0.495248 0
M  V30 1941 H 192.712 0.838695 -1.8651 0
M  V30 1942 H 190.867 3.31835 -1.9991 0
M  V30 1943 H 191.281 3.13475 -4.20516 0
M  V30 1944 H 192.755 4.50792 -3.18576 0
M  V30 1945 H 193.232 4.11476 -1.53572 0
M  V30 1946 H 193.838 3.12572 -2.88407 0
M  V30 1947 N 192.153 1.28127 0.917671 0
M  V30 1948 C 193.381 1.17892 1.70026 0
M  V30 1949 C 193.796 -0.262958 1.8696 0
M  V30 1950 O 193.153 -1.17811 1.3938 0
M  V30 1951 C 193.204 1.86872 3.09453 0
M  V30 1952 O 192.925 3.25428 2.93306 0
M  V30 1953 C 194.426 1.8289 4.03815 0
M  V30 1954 H 191.646 0.40942 0.531617 0
M  V30 1955 H 194.19 1.69181 1.14883 0
M  V30 1956 H 192.345 1.39464 3.61426 0
M  V30 1957 H 192.759 3.59918 3.81523 0
M  V30 1958 H 194.233 2.35751 4.99125 0
M  V30 1959 H 194.71 0.800412 4.31845 0
M  V30 1960 H 195.316 2.29959 3.57769 0
M  V30 1961 N 193.631 -1.12557 1.10312 0
M  V30 1962 C 194.859 -1.87864 0.866873 0
M  V30 1963 C 195.274 -1.79588 -0.582557 0
M  V30 1964 O 194.631 -1.16887 -1.40156 0
M  V30 1965 C 194.682 -3.37125 1.30496 0
M  V30 1966 O 194.403 -3.45201 2.69755 0
M  V30 1967 C 195.904 -4.29373 1.10243 0
M  V30 1968 H 193.124 -0.594452 0.311236 0
M  V30 1969 H 195.668 -1.42429 1.46745 0
M  V30 1970 H 193.823 -3.80109 0.748081 0
M  V30 1971 H 194.237 -4.38056 2.88457 0
M  V30 1972 H 195.711 -5.32394 1.45811 0
M  V30 1973 H 196.188 -4.39181 0.0409492 0
M  V30 1974 H 196.794 -3.92169 1.64571 0
M  V30 1975 N 195.109 -0.891671 -1.2995 0
M  V30 1976 C 196.525 -0.58662 -1.48428 0
M  V30 1977 C 196.725 0.873951 -1.81561 0
M  V30 1978 O 195.781 1.65471 -1.90724 0
M  V30 1979 C 197.094 -1.50553 -2.60296 0
M  V30 1980 C 198.642 -1.50988 -2.74175 0
M  V30 1981 C 199.117 -2.41488 -3.89163 0
M  V30 1982 N 200.608 -2.39489 -3.96483 0
M  V30 1983 C 201.343 -3.06223 -4.84784 0
M  V30 1984 N 200.839 -3.82206 -5.77833 0
M  V30 1985 N 202.632 -2.95421 -4.78208 0
M  V30 1986 H 194.783 -1.83644 -1.06718 0
M  V30 1987 H 197.046 -0.786455 -0.529332 0
M  V30 1988 H 196.752 -2.54581 -2.42654 0
M  V30 1989 H 196.626 -1.22008 -3.56923 0
M  V30 1990 H 199.013 -0.47708 -2.91218 0
M  V30 1991 H 199.094 -1.83567 -1.78148 0
M  V30 1992 H 198.738 -3.44857 -3.72876 0
M  V30 1993 H 198.668 -2.06222 -4.84541 0
M  V30 1994 H 201.159 -1.84278 -3.29924 0
M  V30 1995 H 201.472 -4.302 -6.41988 0
M  V30 1996 H 199.817 -3.86313 -5.77743 0
M  V30 1997 H 203.008 -2.35581 -4.04499 0
M  V30 1998 H 203.181 -3.47704 -5.46814 0
M  V30 1999 N 196.587 1.43421 -0.653314 0
M  V30 2000 C 197.535 2.32546 0.0501531 0
M  V30 2001 C 198.529 1.48617 0.812985 0
M  V30 2002 O 199.735 1.64825 0.723375 0
M  V30 2003 H 196.11 0.751185 0.0350032 0
M  V30 2004 H 198.081 2.89602 -0.719261 0
M  V30 2005 C 196.83 3.32925 1.00279 0
M  V30 2006 H 196.153 3.97532 0.425236 0
M  V30 2007 H 197.593 3.9792 1.46409 0
M  V30 2008 C 196.052 2.63532 2.09886 0
M  V30 2009 O 196.582 2.45092 3.18265 0
M  V30 2010 N 194.788 2.22905 1.86445 0
M  V30 2011 H 194.335 2.38103 0.98309 0
M  V30 2012 H 194.293 1.76805 2.59976 0
M  V30 2013 N 198.065 0.39524 1.52563 0
M  V30 2014 C 199.293 -0.184943 2.06072 0
M  V30 2015 C 199.708 -1.40021 1.26647 0
M  V30 2016 O 199.065 -1.79767 0.314672 0
M  V30 2017 C 199.116 -0.549179 3.57304 0
M  V30 2018 O 198.837 0.617813 4.33722 0
M  V30 2019 C 200.338 -1.18459 4.2718 0
M  V30 2020 H 197.558 -0.0265025 0.670476 0
M  V30 2021 H 200.102 0.562184 1.96621 0
M  V30 2022 H 198.257 -1.2462 3.66809 0
M  V30 2023 H 198.671 0.317091 5.23541 0
M  V30 2024 H 200.145 -1.38976 5.34219 0
M  V30 2025 H 200.622 -2.15368 3.82771 0
M  V30 2026 H 201.228 -0.528163 4.22008 0
M  V30 2027 N 199.544 -1.57102 0.125237 0
M  V30 2028 C 200.79 -1.95697 -0.532035 0
M  V30 2029 C 201.123 -1.009 -1.6593 0
M  V30 2030 O 200.398 -0.047347 -1.94442 0
M  V30 2031 C 200.681 -3.44181 -1.05884 0
M  V30 2032 C 200.534 -4.49752 0.0654392 0
M  V30 2033 C 201.853 -3.94655 -1.9477 0
M  V30 2034 H 198.972 -0.711571 -0.191925 0
M  V30 2035 H 201.614 -1.88923 0.20206 0
M  V30 2036 H 199.764 -3.50085 -1.68442 0
M  V30 2037 H 201.436 -4.55943 0.700982 0
M  V30 2038 H 199.679 -4.27653 0.727709 0
M  V30 2039 H 200.35 -5.50924 -0.344505 0
M  V30 2040 H 202.826 -3.91094 -1.42074 0
M  V30 2041 H 201.702 -4.99057 -2.28546 0
M  V30 2042 H 201.963 -3.35718 -2.87656 0
M  V30 2043 N 201.022 0.148545 -1.56898 0
M  V30 2044 C 202.262 0.86765 -1.85071 0
M  V30 2045 C 202.626 1.78417 -0.709317 0
M  V30 2046 O 203.827 2.54261 -0.872049 0
M  V30 2047 C 202.098 1.62306 -3.1842 0
M  V30 2048 S 203.657 2.3878 -3.68143 0
M  V30 2049 H 200.475 0.290174 -0.649092 0
M  V30 2050 H 203.077 0.127755 -1.95082 0
M  V30 2051 H 201.781 0.941192 -3.99462 0
M  V30 2052 H 201.312 2.4039 -3.1141 0
M  V30 2053 H 203.327 3.63942 -3.37285 0
M  V30 2054 N 202.5 1.5196 0.417844 0
M  V30 2055 C 203.432 1.70895 1.52733 0
M  V30 2056 C 204.445 0.589405 1.51756 0
M  V30 2057 O 205.634 0.864312 1.56179 0
M  V30 2058 C 202.734 1.72627 2.91639 0
M  V30 2059 C 201.907 3.01479 3.16905 0
M  V30 2060 C 200.966 2.95139 4.35637 0
M  V30 2061 O 199.992 3.69059 4.3334 0
M  V30 2062 N 201.194 2.12328 5.40275 0
M  V30 2063 H 203.959 2.66612 1.36888 0
M  V30 2064 H 201.52 1.50089 0.607037 0
M  V30 2065 H 203.512 1.65928 3.6912 0
M  V30 2066 H 202.082 0.844216 3.00985 0
M  V30 2067 H 201.302 3.21895 2.27546 0
M  V30 2068 H 202.59 3.86736 3.30625 0
M  V30 2069 H 201.988 1.51685 5.44985 0
M  V30 2070 H 200.545 2.11494 6.16534 0
M  V30 2071 N 203.978 -0.674533 1.42435 0
M  V30 2072 C 205.218 -1.4466 1.44405 0
M  V30 2073 C 205.582 -1.91911 0.0585784 0
M  V30 2074 O 206.783 -2.68759 -0.0469991 0
M  V30 2075 C 205.054 -2.61136 2.44013 0
M  V30 2076 S 206.613 -3.49981 2.64687 0
M  V30 2077 H 203.431 -0.494074 0.511284 0
M  V30 2078 H 206.033 -0.785162 1.7904 0
M  V30 2079 H 204.737 -2.24662 3.43446 0
M  V30 2080 H 204.268 -3.32153 2.10803 0
M  V30 2081 H 206.283 -4.57124 1.93007 0
M  V30 2082 N 205.456 -1.28612 -0.910864 0
M  V30 2083 C 206.366 -1.14643 -2.0468 0
M  V30 2084 C 207.382 -0.0723121 -1.7385 0
M  V30 2085 O 208.558 -0.282178 -1.99413 0
M  V30 2086 C 205.623 -0.812561 -3.37044 0
M  V30 2087 C 204.684 -1.96935 -3.81465 0
M  V30 2088 C 203.917 -1.65131 -5.07511 0
M  V30 2089 O 204.14 -0.567013 -5.67575 0
M  V30 2090 O 203.074 -2.49585 -5.47714 0
M  V30 2091 H 206.9 -2.1001 -2.19384 0
M  V30 2092 H 204.485 -1.07958 -1.03274 0
M  V30 2093 H 206.367 -0.640441 -4.16505 0
M  V30 2094 H 205.042 0.111426 -3.23508 0
M  V30 2095 H 203.949 -2.19664 -3.02818 0
M  V30 2096 H 205.282 -2.87414 -3.99567 0
M  V30 2097 N 206.934 1.1197 -1.10907 0
M  V30 2098 C 207.844 2.21433 -0.774896 0
M  V30 2099 C 208.86 1.72478 0.229657 0
M  V30 2100 O 210.036 2.01288 0.0672008 0
M  V30 2101 C 207.101 3.4602 -0.216986 0
M  V30 2102 C 206.162 4.09791 -1.27944 0
M  V30 2103 C 205.395 5.28431 -0.748055 0
M  V30 2104 O 205.618 5.68823 0.423833 0
M  V30 2105 O 204.552 5.82644 -1.51027 0
M  V30 2106 H 208.378 2.5242 -1.68873 0
M  V30 2107 H 205.963 1.20399 -0.884555 0
M  V30 2108 H 207.845 4.21304 0.090059 0
M  V30 2109 H 206.52 3.16698 0.669633 0
M  V30 2110 H 205.427 3.36265 -1.63941 0
M  V30 2111 H 206.76 4.4328 -2.13925 0
M  V30 2112 N 208.412 0.89855 1.29475 0
M  V30 2113 C 209.66 0.522847 1.9522 0
M  V30 2114 C 209.981 -0.93371 1.71192 0
M  V30 2115 O 209.251 -1.65823 1.04305 0
M  V30 2116 H 207.831 0.190366 0.722336 0
M  V30 2117 H 210.493 1.14459 1.5775 0
M  V30 2118 H 209.589 0.704476 3.04045 0
M  V30 2119 N 209.89 -1.43072 0.660911 0
M  V30 2120 C 211.118 -2.06067 0.185422 0
M  V30 2121 C 211.533 -1.49582 -1.15198 0
M  V30 2122 O 210.89 -0.630134 -1.71276 0
M  V30 2123 C 210.941 -3.61371 0.0966523 0
M  V30 2124 O 210.662 -4.15758 1.38119 0
M  V30 2125 C 212.163 -4.41455 -0.403996 0
M  V30 2126 H 209.383 -0.664459 0.0934604 0
M  V30 2127 H 211.927 -1.83447 0.90373 0
M  V30 2128 H 210.082 -3.8315 -0.572259 0
M  V30 2129 H 210.496 -5.09499 1.24542 0
M  V30 2130 H 211.97 -5.50437 -0.415045 0
M  V30 2131 H 212.447 -4.15036 -1.43674 0
M  V30 2132 H 213.053 -4.24663 0.232691 0
M  V30 2133 N 211.368 -0.403325 -1.52352 0
M  V30 2134 C 212.615 0.174347 -2.01748 0
M  V30 2135 C 212.943 1.45636 -1.2892 0
M  V30 2136 O 212.198 1.9193 -0.382258 0
M  V30 2137 C 212.497 0.474665 -3.54234 0
M  V30 2138 C 212.163 -0.717458 -4.45155 0
M  V30 2139 C 210.825 -1.04447 -4.69728 0
M  V30 2140 C 213.177 -1.51432 -4.98716 0
M  V30 2141 C 210.505 -2.16963 -5.45109 0
M  V30 2142 C 212.857 -2.6302 -5.75329 0
M  V30 2143 C 211.521 -2.96213 -5.98175 0
M  V30 2144 H 210.791 0.0637981 -0.738248 0
M  V30 2145 H 213.438 -0.543553 -1.83624 0
M  V30 2146 H 211.743 1.27406 -3.70506 0
M  V30 2147 H 213.44 0.934496 -3.89959 0
M  V30 2148 H 210.03 -0.452596 -4.26204 0
M  V30 2149 H 214.214 -1.27491 -4.79645 0
M  V30 2150 H 209.47 -2.43034 -5.61021 0
M  V30 2151 H 213.644 -3.25158 -6.15829 0
M  V30 2152 H 211.271 -3.83516 -6.56368 0
M  V30 2153 N 212.846 1.57033 -0.133567 0
M  V30 2154 C 214.262 1.58035 0.222944 0
M  V30 2155 C 214.462 1.14713 1.6566 0
M  V30 2156 O 213.518 0.841218 2.38075 0
M  V30 2157 C 214.831 3.00691 -0.0236116 0
M  V30 2158 C 216.379 3.12973 0.0411512 0
M  V30 2159 C 216.854 4.57654 -0.177899 0
M  V30 2160 N 218.345 4.63033 -0.124365 0
M  V30 2161 C 219.08 5.72771 -0.268553 0
M  V30 2162 N 218.576 6.91206 -0.46972 0
M  V30 2163 N 220.369 5.61718 -0.2071 0
M  V30 2164 H 212.52 1.8349 -1.06981 0
M  V30 2165 H 214.783 0.848677 -0.422436 0
M  V30 2166 H 214.489 3.36726 -1.0153 0
M  V30 2167 H 214.363 3.70614 0.701808 0
M  V30 2168 H 216.75 2.76787 1.02338 0
M  V30 2169 H 216.831 2.45564 -0.716383 0
M  V30 2170 H 216.475 4.94542 -1.15717 0
M  V30 2171 H 216.405 5.23173 0.599797 0
M  V30 2172 H 218.896 3.7789 0.027011 0
M  V30 2173 H 219.209 7.70693 -0.570212 0
M  V30 2174 H 217.554 6.93156 -0.505876 0
M  V30 2175 H 220.745 4.68072 -0.0507986 0
M  V30 2176 H 220.918 6.47195 -0.322909 0
M  V30 2177 N 214.325 -0.140222 1.56975 0
M  V30 2178 C 215.235 -1.19223 2.02047 0
M  V30 2179 C 216.251 -1.46612 0.937062 0
M  V30 2180 O 217.427 -1.58148 1.24704 0
M  V30 2181 C 214.492 -2.50414 2.39778 0
M  V30 2182 C 213.553 -2.30612 3.621 0
M  V30 2183 C 212.786 -3.55547 3.98023 0
M  V30 2184 O 213.009 -4.62004 3.34528 0
M  V30 2185 O 211.943 -3.47808 4.91237 0
M  V30 2186 H 215.769 -0.839559 2.91865 0
M  V30 2187 H 213.354 -0.349453 1.45256 0
M  V30 2188 H 215.236 -3.27747 2.64877 0
M  V30 2189 H 213.911 -2.85198 1.53114 0
M  V30 2190 H 212.818 -1.51207 3.4218 0
M  V30 2191 H 214.151 -2.00741 4.49404 0
M  V30 2192 N 215.803 -1.52179 -0.40978 0
M  V30 2193 C 216.713 -1.78364 -1.52392 0
M  V30 2194 C 217.729 -0.669183 -1.60617 0
M  V30 2195 O 218.905 -0.954518 -1.77344 0
M  V30 2196 C 215.97 -1.92822 -2.88133 0
M  V30 2197 C 215.031 -3.16725 -2.898 0
M  V30 2198 C 214.264 -3.30483 -4.19067 0
M  V30 2199 O 214.487 -2.49522 -5.12928 0
M  V30 2200 O 213.421 -4.2363 -4.27576 0
M  V30 2201 H 217.247 -2.72931 -1.33201 0
M  V30 2202 H 214.832 -1.37016 -0.59557 0
M  V30 2203 H 216.714 -2.04157 -3.68643 0
M  V30 2204 H 215.389 -1.01444 -3.07393 0
M  V30 2205 H 214.296 -3.10848 -2.08146 0
M  V30 2206 H 215.629 -4.07881 -2.75489 0
M  V30 2207 N 217.281 0.66697 -1.42791 0
M  V30 2208 C 218.558 1.4234 -1.34159 0
M  V30 2209 C 218.938 2.11093 0.0172729 0
M  V30 2210 O 218.286 2.03808 1.03318 0
M  V30 2211 C 218.496 2.41942 -2.51526 0
M  V30 2212 C 219.844 3.06353 -2.93995 0
M  V30 2213 O 220.868 2.52269 -2.51473 0
M  V30 2214 O 219.727 4.04376 -3.67617 0
M  V30 2215 H 216.821 0.635277 -0.529483 0
M  V30 2216 H 219.367 0.695034 -1.54814 0
M  V30 2217 H 218.139 1.89991 -3.42081 0
M  V30 2218 H 217.762 3.22249 -2.32898 0
M  V30 2219 N 218.759 1.29093 0.90403 0
M  V30 2220 C 219.984 1.19809 1.69294 0
M  V30 2221 C 220.409 -0.238481 1.86582 0
M  V30 2222 O 219.767 -1.1723 1.383 0
M  V30 2223 C 219.815 1.91202 3.05736 0
M  V30 2224 O 218.919 1.22611 3.93752 0
M  V30 2225 H 218.26 0.415385 0.518027 0
M  V30 2226 H 220.79 1.70586 1.12967 0
M  V30 2227 H 220.8 1.99487 3.55906 0
M  V30 2228 H 219.475 2.95692 2.92471 0
M  V30 2229 H 218.052 1.22554 3.52186 0
M  V30 2230 N 220.237 -1.11381 1.11499 0
M  V30 2231 C 221.648 -1.6465 0.880191 0
M  V30 2232 C 221.999 -1.87199 -0.587434 0
M  V30 2233 O 221.124 -1.60667 -1.44966 0
M  V30 2234 C 221.719 -2.99105 1.59128 0
M  V30 2235 C 220.278 -3.49279 1.40289 0
M  V30 2236 C 219.425 -2.24077 1.63354 0
M  V30 2237 H 222.376 -0.950123 1.27116 0
M  V30 2238 H 222.397 -3.66107 1.03664 0
M  V30 2239 H 221.909 -2.82661 2.65941 0
M  V30 2240 H 220.01 -3.70887 0.356888 0
M  V30 2241 H 220.123 -4.2803 2.15238 0
M  V30 2242 H 218.487 -2.31733 1.05698 0
M  V30 2243 H 219.27 -2.10175 2.71443 0
M  V30 2244 N 221.715 -0.905404 -1.28997 0
M  V30 2245 C 222.625 -0.392246 -2.31298 0
M  V30 2246 C 223.641 0.515889 -1.66176 0
M  V30 2247 O 224.817 0.404093 -1.97304 0
M  V30 2248 C 221.882 0.36686 -3.44754 0
M  V30 2249 C 220.943 -0.573485 -4.25452 0
M  V30 2250 C 220.176 0.149488 -5.33491 0
M  V30 2251 O 220.399 1.37255 -5.5364 0
M  V30 2252 O 219.333 -0.510919 -5.99728 0
M  V30 2253 H 223.159 -1.2411 -2.77183 0
M  V30 2254 H 220.744 -0.669926 -1.33538 0
M  V30 2255 H 222.626 0.795907 -4.13816 0
M  V30 2256 H 221.301 1.19169 -3.00966 0
M  V30 2257 H 220.208 -1.05176 -3.59011 0
M  V30 2258 H 221.541 -1.36489 -4.72897 0
M  V30 2259 N 223.193 1.4272 -0.668489 0
M  V30 2260 C 224.126 2.28111 0.0637898 0
M  V30 2261 C 225.104 1.40705 0.814912 0
M  V30 2262 O 226.288 1.70146 0.81134 0
M  V30 2263 C 223.415 3.20429 1.0974 0
M  V30 2264 C 222.461 4.24197 0.442579 0
M  V30 2265 S 223.294 5.29563 -0.795173 0
M  V30 2266 C 224.45 6.25449 0.237516 0
M  V30 2267 H 224.683 2.8987 -0.660521 0
M  V30 2268 H 222.216 1.47456 -0.457821 0
M  V30 2269 H 224.174 3.74158 1.68868 0
M  V30 2270 H 222.835 2.57818 1.79411 0
M  V30 2271 H 222.028 4.88954 1.22227 0
M  V30 2272 H 221.63 3.73925 -0.0749554 0
M  V30 2273 H 223.922 6.68524 1.09915 0
M  V30 2274 H 224.865 7.07104 -0.375421 0
M  V30 2275 H 225.273 5.61511 0.580167 0
M  V30 2276 N 224.671 0.411399 1.52136 0
M  V30 2277 C 225.911 -0.163143 2.03748 0
M  V30 2278 C 226.275 -1.42187 1.29022 0
M  V30 2279 O 227.476 -2.075 1.70872 0
M  V30 2280 C 225.747 -0.402651 3.55125 0
M  V30 2281 S 227.306 -0.944315 4.28519 0
M  V30 2282 H 224.124 -0.0439833 0.709638 0
M  V30 2283 H 226.726 0.56484 1.87163 0
M  V30 2284 H 225.43 0.520212 4.0709 0
M  V30 2285 H 224.961 -1.15844 3.75957 0
M  V30 2286 H 226.976 -2.22463 4.43536 0
M  V30 2287 N 226.149 -1.5696 0.141893 0
M  V30 2288 C 227.565 -1.58151 -0.21456 0
M  V30 2289 C 227.765 -1.1559 -1.65049 0
M  V30 2290 O 226.821 -0.853832 -2.37626 0
M  V30 2291 C 228.134 -3.00674 0.0395576 0
M  V30 2292 C 229.682 -3.1299 -0.0245529 0
M  V30 2293 C 230.157 -4.57554 0.202167 0
M  V30 2294 N 231.648 -4.62961 0.148919 0
M  V30 2295 C 232.383 -5.7262 0.298924 0
M  V30 2296 N 231.879 -6.90947 0.50637 0
M  V30 2297 N 233.672 -5.61601 0.236886 0
M  V30 2298 H 225.823 -1.8292 1.07953 0
M  V30 2299 H 228.086 -0.846425 0.42693 0
M  V30 2300 H 227.792 -3.36183 1.03315 0
M  V30 2301 H 227.666 -3.70981 -0.682143 0
M  V30 2302 H 230.053 -2.77326 -1.00869 0
M  V30 2303 H 230.134 -2.4518 0.729396 0
M  V30 2304 H 229.778 -4.93922 1.18338 0
M  V30 2305 H 229.708 -5.23484 -0.572044 0
M  V30 2306 H 232.199 -3.77899 -0.00697015 0
M  V30 2307 H 232.512 -7.7038 0.611076 0
M  V30 2308 H 230.857 -6.92878 0.542628 0
M  V30 2309 H 234.048 -4.68039 0.0756209 0
M  V30 2310 H 234.221 -6.47015 0.357227 0
M  V30 2311 N 227.627 0.131896 -1.57047 0
M  V30 2312 C 228.574 1.16236 -1.99393 0
M  V30 2313 C 229.544 1.41863 -0.863943 0
M  V30 2314 O 230.729 1.53946 -1.12718 0
M  V30 2315 C 227.869 2.48708 -2.39245 0
M  V30 2316 C 226.982 2.30127 -3.65603 0
M  V30 2317 C 226.117 3.55738 -3.94492 0
M  V30 2318 C 225.156 3.32259 -5.14073 0
M  V30 2319 N 224.293 4.50039 -5.38896 0
M  V30 2320 H 229.133 0.794251 -2.87221 0
M  V30 2321 H 226.67 0.380707 -1.42088 0
M  V30 2322 H 228.628 3.25969 -2.60384 0
M  V30 2323 H 227.258 2.83437 -1.54478 0
M  V30 2324 H 226.31 1.43845 -3.52154 0
M  V30 2325 H 227.622 2.08746 -4.5302 0
M  V30 2326 H 226.776 4.41423 -4.1621 0
M  V30 2327 H 225.515 3.80138 -3.05526 0
M  V30 2328 H 224.52 2.44963 -4.92212 0
M  V30 2329 H 225.745 3.09242 -6.04604 0
M  V30 2330 H 223.691 4.74584 -4.52886 0
M  V30 2331 H 223.608 4.31716 -6.2061 0
M  V30 2332 H 224.876 5.36895 -5.65123 0
M  V30 2333 N 229.106 1.52395 0.401703 0
M  V30 2334 C 230.346 1.68498 1.15705 0
M  V30 2335 C 230.71 0.409748 1.87577 0
M  V30 2336 O 231.911 0.446983 2.65058 0
M  V30 2337 C 230.182 2.87789 2.11924 0
M  V30 2338 S 231.741 3.24415 2.95466 0
M  V30 2339 H 228.559 0.593267 0.391862 0
M  V30 2340 H 231.161 1.90408 0.443282 0
M  V30 2341 H 229.865 3.7884 1.57824 0
M  V30 2342 H 229.396 2.68175 2.87829 0
M  V30 2343 H 231.411 2.73614 4.13944 0
M  V30 2344 N 230.584 -0.659388 1.43143 0
M  V30 2345 C 232 -0.974337 1.26407 0
M  V30 2346 C 232.2 -2.007 0.179341 0
M  V30 2347 O 231.256 -2.4856 -0.444295 0
M  V30 2348 C 232.569 -1.46447 2.62628 0
M  V30 2349 C 234.117 -1.58144 2.7011 0
M  V30 2350 C 234.592 -2.1055 4.06734 0
M  V30 2351 N 236.083 -2.17861 4.08767 0
M  V30 2352 C 236.818 -2.59519 5.1131 0
M  V30 2353 N 236.314 -3.00518 6.24228 0
M  V30 2354 N 238.107 -2.59404 4.98664 0
M  V30 2355 H 230.258 0.0240528 2.12386 0
M  V30 2356 H 232.521 -0.0518065 0.946583 0
M  V30 2357 H 232.227 -0.780123 3.42939 0
M  V30 2358 H 232.101 -2.44058 2.87603 0
M  V30 2359 H 234.488 -2.25682 1.90136 0
M  V30 2360 H 234.569 -0.589828 2.48907 0
M  V30 2361 H 234.213 -1.43616 4.87172 0
M  V30 2362 H 234.143 -3.10531 4.25298 0
M  V30 2363 H 236.634 -1.88975 3.27257 0
M  V30 2364 H 236.947 -3.31036 6.98309 0
M  V30 2365 H 235.292 -2.98337 6.2771 0
M  V30 2366 H 238.483 -2.26747 4.09516 0
M  V30 2367 H 238.656 -2.91548 5.78709 0
M  V30 2368 N 232.062 -1.29571 -0.897171 0
M  V30 2369 C 233.29 -1.20583 -1.68129 0
M  V30 2370 C 233.705 0.233181 -1.87354 0
M  V30 2371 O 233.062 1.15579 -1.41236 0
M  V30 2372 C 233.113 -1.91772 -3.06441 0
M  V30 2373 O 232.834 -3.30053 -2.88091 0
M  V30 2374 C 234.335 -1.89291 -4.00854 0
M  V30 2375 H 231.555 -0.417826 -0.525036 0
M  V30 2376 H 234.099 -1.70987 -1.12177 0
M  V30 2377 H 232.254 -1.45196 -3.59161 0
M  V30 2378 H 232.668 -3.65942 -3.75748 0
M  V30 2379 H 234.142 -2.43662 -4.95311 0
M  V30 2380 H 234.619 -0.869014 -4.30517 0
M  V30 2381 H 235.225 -2.35622 -3.54066 0
M  V30 2382 N 233.54 1.10788 -1.12088 0
M  V30 2383 C 234.788 1.8231 -0.872205 0
M  V30 2384 C 235.109 1.85419 0.603709 0
M  V30 2385 O 234.379 1.32963 1.43867 0
M  V30 2386 H 232.959 0.675137 -0.319686 0
M  V30 2387 H 235.621 1.34068 -1.41463 0
M  V30 2388 H 234.717 2.85955 -1.25045 0
M  V30 2389 N 235.018 0.912232 1.28515 0
M  V30 2390 C 236.258 0.551677 1.96814 0
M  V30 2391 C 236.622 -0.887825 1.7024 0
M  V30 2392 O 237.823 -1.35588 2.32098 0
M  V30 2393 C 236.094 0.850555 3.47132 0
M  V30 2394 S 237.653 0.59619 4.34731 0
M  V30 2395 H 234.471 0.204191 0.681049 0
M  V30 2396 H 237.073 1.17736 1.56072 0
M  V30 2397 H 235.777 1.8962 3.63968 0
M  V30 2398 H 235.308 0.213471 3.9282 0
M  V30 2399 H 237.323 -0.553154 4.93107 0
M  V30 2400 N 236.496 -1.42363 0.676048 0
M  V30 2401 C 237.907 -1.84649 0.275948 0
M  V30 2402 C 238.258 -1.56588 -1.18214 0
M  V30 2403 O 237.383 -1.02634 -1.90513 0
M  V30 2404 C 237.978 -3.35178 0.494053 0
M  V30 2405 C 236.537 -3.76109 0.148061 0
M  V30 2406 C 235.684 -2.65931 0.785891 0
M  V30 2407 H 238.635 -1.32192 0.878121 0
M  V30 2408 H 238.656 -3.79655 -0.25343 0
M  V30 2409 H 238.168 -3.55571 1.55535 0
M  V30 2410 H 236.269 -3.61323 -0.909742 0
M  V30 2411 H 236.382 -4.7546 0.589454 0
M  V30 2412 H 234.746 -2.53773 0.217113 0
M  V30 2413 H 235.529 -2.89146 1.85067 0
M  V30 2414 N 237.974 -0.419461 -1.51915 0
M  V30 2415 C 239.39 -0.0708431 -1.59443 0
M  V30 2416 C 239.59 1.41796 -1.43164 0
M  V30 2417 O 238.646 2.18596 -1.26381 0
M  V30 2418 C 239.959 -0.574991 -2.95151 0
M  V30 2419 C 241.507 -0.533867 -3.08413 0
M  V30 2420 C 241.982 -1.01469 -4.46618 0
M  V30 2421 N 243.473 -0.971939 -4.52888 0
M  V30 2422 C 244.208 -1.31505 -5.58116 0
M  V30 2423 N 243.704 -1.73014 -6.70849 0
M  V30 2424 N 245.497 -1.23436 -5.48379 0
M  V30 2425 H 237.648 -1.38836 -1.60743 0
M  V30 2426 H 239.911 -0.570998 -0.756747 0
M  V30 2427 H 239.617 -1.61597 -3.12377 0
M  V30 2428 H 239.491 0.00979777 -3.77199 0
M  V30 2429 H 241.878 0.498086 -2.90866 0
M  V30 2430 H 241.959 -1.15484 -2.28248 0
M  V30 2431 H 241.603 -2.04502 -4.6491 0
M  V30 2432 H 241.533 -0.370433 -5.25295 0
M  V30 2433 H 244.024 -0.666893 -3.71969 0
M  V30 2434 H 244.337 -1.97479 -7.47143 0
M  V30 2435 H 242.682 -1.76926 -6.72103 0
M  V30 2436 H 245.873 -0.908869 -4.59192 0
M  V30 2437 H 246.046 -1.50506 -6.30279 0
M  V30 2438 N 239.452 1.56882 -0.150215 0
M  V30 2439 C 240.7 1.9584 0.499105 0
M  V30 2440 C 241.021 1.03623 1.65188 0
M  V30 2441 O 240.291 0.0984084 1.95653 0
M  V30 2442 H 238.871 0.723119 0.187373 0
M  V30 2443 H 241.533 1.9358 -0.226466 0
M  V30 2444 H 240.629 2.99638 0.873122 0
M  V30 2445 N 240.93 -0.123565 1.57115 0
M  V30 2446 C 241.863 -1.18202 1.95201 0
M  V30 2447 C 242.841 -1.40349 0.821031 0
M  V30 2448 O 244.025 -1.54578 1.07879 0
M  V30 2449 C 241.152 -2.53671 2.24429 0
M  V30 2450 C 240.198 -2.4798 3.46999 0
M  V30 2451 S 241.031 -1.92389 4.99747 0
M  V30 2452 C 242.187 -3.2954 5.32123 0
M  V30 2453 H 242.42 -0.857212 2.84674 0
M  V30 2454 H 239.953 -0.33014 1.50829 0
M  V30 2455 H 241.911 -3.3162 2.41947 0
M  V30 2456 H 240.572 -2.83332 1.35579 0
M  V30 2457 H 239.765 -3.47758 3.64801 0
M  V30 2458 H 239.367 -1.7815 3.28844 0
M  V30 2459 H 241.659 -4.25736 5.27025 0
M  V30 2460 H 242.602 -3.16569 6.33395 0
M  V30 2461 H 243.01 -3.27758 4.59603 0
M  V30 2462 N 242.408 -1.52605 -0.393616 0
M  V30 2463 C 243.654 -1.67672 -1.14079 0
M  V30 2464 C 243.987 -0.413121 -1.89755 0
M  V30 2465 O 243.262 0.588952 -1.85369 0
M  V30 2466 C 243.545 -2.9088 -2.12276 0
M  V30 2467 C 243.398 -4.27329 -1.40394 0
M  V30 2468 C 244.717 -3.09628 -3.12759 0
M  V30 2469 H 241.836 -0.610168 -0.413356 0
M  V30 2470 H 244.478 -1.85193 -0.424696 0
M  V30 2471 H 242.628 -2.76073 -2.73342 0
M  V30 2472 H 244.3 -4.53894 -0.82327 0
M  V30 2473 H 242.543 -4.2802 -0.705801 0
M  V30 2474 H 243.214 -5.09615 -2.12123 0
M  V30 2475 H 245.69 -3.23436 -2.61779 0
M  V30 2476 H 244.566 -3.97322 -3.78717 0
M  V30 2477 H 244.827 -2.23637 -3.81365 0
M  V30 2478 N 243.887 0.651787 -1.4349 0
M  V30 2479 C 244.834 1.76462 -1.4876 0
M  V30 2480 C 245.804 1.62641 -0.337189 0
M  V30 2481 O 246.989 1.82864 -0.544544 0
M  V30 2482 C 244.129 3.14623 -1.41796 0
M  V30 2483 C 243.242 3.39568 -2.67053 0
M  V30 2484 C 242.377 4.67585 -2.52068 0
M  V30 2485 C 241.416 4.85639 -3.72587 0
M  V30 2486 N 240.553 6.04915 -3.56402 0
M  V30 2487 H 245.393 1.71293 -2.43849 0
M  V30 2488 H 242.93 0.835889 -1.21043 0
M  V30 2489 H 244.888 3.94496 -1.35753 0
M  V30 2490 H 243.518 3.18859 -0.50288 0
M  V30 2491 H 242.57 2.53783 -2.8337 0
M  V30 2492 H 243.882 3.48795 -3.56572 0
M  V30 2493 H 243.036 5.55586 -2.4374 0
M  V30 2494 H 241.775 4.60681 -1.60075 0
M  V30 2495 H 240.78 3.96073 -3.81321 0
M  V30 2496 H 242.005 4.94372 -4.65589 0
M  V30 2497 H 239.951 5.9914 -2.67146 0
M  V30 2498 H 239.868 6.15106 -4.39524 0
M  V30 2499 H 241.136 6.95533 -3.51929 0
M  V30 2500 N 245.365 1.30045 0.890287 0
M  V30 2501 C 246.611 1.18737 1.64406 0
M  V30 2502 C 246.944 -0.258525 1.92472 0
M  V30 2503 O 246.219 -1.18562 1.54186 0
M  V30 2504 C 246.502 2.01087 2.98724 0
M  V30 2505 C 246.355 3.53867 2.77665 0
M  V30 2506 C 247.674 1.84457 3.9958 0
M  V30 2507 H 244.793 0.432698 0.596608 0
M  V30 2508 H 247.435 1.5962 1.0306 0
M  V30 2509 H 245.585 1.66349 3.51084 0
M  V30 2510 H 247.257 3.98637 2.32133 0
M  V30 2511 H 245.5 3.78318 2.12269 0
M  V30 2512 H 246.171 4.06772 3.7315 0
M  V30 2513 H 248.647 2.14817 3.56361 0
M  V30 2514 H 247.523 2.44411 4.91482 0
M  V30 2515 H 247.784 0.802276 4.3476 0
M  V30 2516 N 246.843 -1.10192 1.12674 0
M  V30 2517 C 248.091 -1.81845 0.881861 0
M  V30 2518 C 248.412 -1.85737 -0.593867 0
M  V30 2519 O 247.682 -1.33724 -1.4316 0
M  V30 2520 H 246.262 -0.673432 0.323261 0
M  V30 2521 H 248.924 -1.33316 1.42172 0
M  V30 2522 H 248.02 -2.85288 1.2656 0
M  V30 2523 N 248.321 -0.919034 -1.28029 0
M  V30 2524 C 249.598 -0.473668 -1.89778 0
M  V30 2525 C 249.978 1.04783 -1.83259 0
M  V30 2526 O 249.326 1.8982 -1.27202 0
M  V30 2527 C 249.536 -1.00998 -3.34066 0
M  V30 2528 C 250.884 -1.06525 -4.1102 0
M  V30 2529 O 251.908 -0.958996 -3.43048 0
M  V30 2530 O 250.767 -1.22776 -5.3253 0
M  V30 2531 H 247.861 -0.15098 -0.813101 0
M  V30 2532 H 250.407 -1.01016 -1.36359 0
M  V30 2533 H 249.179 -2.05392 -3.33061 0
M  V30 2534 H 248.802 -0.454626 -3.94992 0
M  V30 2535 N 249.799 1.42003 -0.683588 0
M  V30 2536 C 251.039 2.03282 -0.213513 0
M  V30 2537 C 251.403 1.52924 1.16097 0
M  V30 2538 O 252.604 2.06048 1.7262 0
M  V30 2539 C 250.875 3.56483 -0.255856 0
M  V30 2540 S 252.434 4.3857 0.14193 0
M  V30 2541 H 249.252 0.705659 -0.0869853 0
M  V30 2542 H 251.854 1.73619 -0.8987 0
M  V30 2543 H 250.558 3.90631 -1.25841 0
M  V30 2544 H 250.089 3.90831 0.448875 0
M  V30 2545 H 252.104 4.76828 1.37295 0
M  V30 2546 N 251.277 0.427512 1.51691 0
M  V30 2547 C 252.505 -0.141191 2.06418 0
M  V30 2548 C 252.92 -1.37303 1.29589 0
M  V30 2549 O 252.277 -1.79059 0.352732 0
M  V30 2550 C 252.328 -0.473266 3.58389 0
M  V30 2551 O 252.049 0.709673 4.32314 0
M  V30 2552 C 253.55 -1.09371 4.29596 0
M  V30 2553 H 250.77 -0.0122747 0.670888 0
M  V30 2554 H 253.314 0.603764 1.95384 0
M  V30 2555 H 251.469 -1.16812 3.69369 0
M  V30 2556 H 251.883 0.42807 5.2275 0
M  V30 2557 H 253.357 -1.27613 5.37046 0
M  V30 2558 H 253.834 -2.072 3.87253 0
M  V30 2559 H 254.44 -0.43853 4.23033 0
M  V30 2560 N 252.755 -1.56801 0.158532 0
M  V30 2561 C 254.166 -1.83189 -0.360366 0
M  V30 2562 C 254.517 -1.07778 -1.63946 0
M  V30 2563 O 253.642 -0.326718 -2.13919 0
M  V30 2564 C 254.237 -3.32297 -0.660595 0
M  V30 2565 C 252.796 -3.59227 -1.12398 0
M  V30 2566 C 251.943 -2.76877 -0.153097 0
M  V30 2567 H 254.894 -1.54008 0.383031 0
M  V30 2568 H 254.915 -3.4908 -1.51405 0
M  V30 2569 H 254.427 -3.87156 0.270527 0
M  V30 2570 H 252.528 -3.09766 -2.07064 0
M  V30 2571 H 252.641 -4.67632 -1.04197 0
M  V30 2572 H 251.005 -2.46319 -0.647983 0
M  V30 2573 H 251.788 -3.34511 0.77182 0
M  V30 2574 N 254.233 0.115231 -1.57178 0
M  V30 2575 C 255.479 0.818565 -1.86202 0
M  V30 2576 C 255.834 1.77316 -0.746785 0
M  V30 2577 O 255.127 1.89923 0.25291 0
M  V30 2578 C 255.321 1.60324 -3.19423 0
M  V30 2579 C 255.15 0.726138 -4.43799 0
M  V30 2580 C 253.92 0.379535 -5.03873 0
M  V30 2581 C 256.118 0.0420774 -5.14283 0
M  V30 2582 N 254.1 -0.507841 -6.11796 0
M  V30 2583 C 255.471 -0.704152 -6.15988 0
M  V30 2584 C 257.526 -0.0339486 -4.97888 0
M  V30 2585 C 256.229 -1.51927 -7.03072 0
M  V30 2586 C 258.255 -0.835906 -5.85463 0
M  V30 2587 C 257.617 -1.57031 -6.86673 0
M  V30 2588 H 253.716 0.276343 -0.731545 0
M  V30 2589 H 256.3 0.0821032 -1.94527 0
M  V30 2590 H 254.471 2.31072 -3.12186 0
M  V30 2591 H 256.203 2.2522 -3.36241 0
M  V30 2592 H 252.958 0.722634 -4.68054 0
M  V30 2593 H 253.382 -0.94349 -6.70393 0
M  V30 2594 H 258.024 0.519496 -4.19596 0
M  V30 2595 H 255.742 -2.08386 -7.80769 0
M  V30 2596 H 259.328 -0.89714 -5.74841 0
M  V30 2597 H 258.208 -2.18088 -7.53264 0
M  V30 2598 N 255.711 1.52812 0.385517 0
M  V30 2599 C 256.936 1.72207 1.15583 0
M  V30 2600 C 257.361 0.441034 1.82857 0
M  V30 2601 O 256.719 -0.603465 1.70962 0
M  V30 2602 C 256.767 2.87476 2.17692 0
M  V30 2603 O 255.871 2.54693 3.24354 0
M  V30 2604 H 255.212 0.572526 0.336319 0
M  V30 2605 H 257.742 1.99618 0.448744 0
M  V30 2606 H 257.752 3.13072 2.6163 0
M  V30 2607 H 256.427 3.80408 1.68115 0
M  V30 2608 H 255.004 2.3985 2.85529 0
M  V30 2609 N 257.189 -0.644168 1.43834 0
M  V30 2610 C 258.466 -1.40188 1.36406 0
M  V30 2611 C 258.846 -2.11094 0.0163124 0
M  V30 2612 O 258.194 -2.05426 -1.00062 0
M  V30 2613 C 258.404 -2.3791 2.55343 0
M  V30 2614 C 259.752 -3.01637 2.98832 0
M  V30 2615 O 260.776 -2.48237 2.55455 0
M  V30 2616 O 259.635 -3.98477 3.74003 0
M  V30 2617 H 256.729 -0.626773 0.539523 0
M  V30 2618 H 259.275 -0.670317 1.559 0
M  V30 2619 H 258.047 -1.84525 3.4506 0
M  V30 2620 H 257.67 -3.18503 2.37995 0
M  V30 2621 N 258.668 -1.30515 -0.883378 0
M  V30 2622 C 259.917 -1.18795 -1.63005 0
M  V30 2623 C 260.23 0.255923 -1.93919 0
M  V30 2624 O 261.436 0.494654 -2.66956 0
M  V30 2625 C 259.892 -2.07878 -2.93794 0
M  V30 2626 C 259.5 -3.57184 -2.70414 0
M  V30 2627 C 261.244 -2.04924 -3.71761 0
M  V30 2628 C 259.151 -4.38317 -3.97029 0
M  V30 2629 H 258.081 -0.441031 -0.611562 0
M  V30 2630 H 260.732 -1.55275 -0.977854 0
M  V30 2631 H 259.114 -1.64283 -3.60315 0
M  V30 2632 H 260.288 -4.08937 -2.12384 0
M  V30 2633 H 258.603 -3.61976 -2.0582 0
M  V30 2634 H 261.2 -2.62792 -4.65665 0
M  V30 2635 H 261.543 -1.0331 -4.03277 0
M  V30 2636 H 262.076 -2.46649 -3.12104 0
M  V30 2637 H 258.815 -5.40632 -3.70671 0
M  V30 2638 H 258.335 -3.91326 -4.54559 0
M  V30 2639 H 260.014 -4.49834 -4.65036 0
M  V30 2640 N 260.146 1.09593 -1.13257 0
M  V30 2641 C 261.056 2.19739 -0.821691 0
M  V30 2642 C 262.072 1.72926 0.19302 0
M  V30 2643 O 263.248 2.01385 0.0244895 0
M  V30 2644 C 260.313 3.45482 -0.290333 0
M  V30 2645 C 259.374 4.06985 -1.36607 0
M  V30 2646 C 258.607 5.26726 -0.859975 0
M  V30 2647 O 258.83 5.69594 0.303082 0
M  V30 2648 O 257.764 5.7931 -1.63351 0
M  V30 2649 H 261.59 2.48781 -1.74189 0
M  V30 2650 H 259.175 1.18496 -0.909894 0
M  V30 2651 H 261.057 4.214 0.000674022 0
M  V30 2652 H 259.732 3.18047 0.602306 0
M  V30 2653 H 258.639 3.32712 -1.71037 0
M  V30 2654 H 259.972 4.38643 -2.23279 0
M  V30 2655 N 261.624 0.925811 1.2754 0
M  V30 2656 C 262.864 0.572521 1.96218 0
M  V30 2657 C 263.228 -0.869719 1.71172 0
M  V30 2658 O 264.429 -1.33119 2.33523 0
M  V30 2659 C 262.7 0.887325 3.4621 0
M  V30 2660 S 264.259 0.642266 4.34074 0
M  V30 2661 H 261.077 0.211403 0.678845 0
M  V30 2662 H 263.679 1.19384 1.54815 0
M  V30 2663 H 262.383 1.93469 3.61936 0
M  V30 2664 H 261.914 0.255123 3.92572 0
M  V30 2665 H 263.929 -0.500822 4.93666 0
M  V30 2666 N 263.102 -1.41638 0.69111 0
M  V30 2667 C 264.348 -2.01598 0.220519 0
M  V30 2668 C 264.681 -1.54594 -1.17535 0
M  V30 2669 O 263.956 -0.755177 -1.79241 0
M  V30 2670 C 264.239 -3.59062 0.273243 0
M  V30 2671 C 264.092 -4.16203 1.70573 0
M  V30 2672 C 265.411 -4.38546 -0.369457 0
M  V30 2673 H 262.53 -0.732468 0.0816045 0
M  V30 2674 H 265.172 -1.68445 0.878986 0
M  V30 2675 H 263.322 -3.87435 -0.287411 0
M  V30 2676 H 264.994 -3.98722 2.31989 0
M  V30 2677 H 263.237 -3.71414 2.2413 0
M  V30 2678 H 263.908 -5.25358 1.69419 0
M  V30 2679 H 266.384 -4.1596 0.107977 0
M  V30 2680 H 265.26 -5.48069 -0.302002 0
M  V30 2681 H 265.521 -4.17662 -1.44951 0
M  V30 2682 N 264.58 -0.43555 -1.51462 0
M  V30 2683 C 265.53 0.394701 -2.24558 0
M  V30 2684 C 266.514 0.99157 -1.26715 0
M  V30 2685 O 267.706 0.910007 -1.51815 0
M  V30 2686 C 264.835 1.4963 -3.08975 0
M  V30 2687 C 263.921 0.908912 -4.14246 0
M  V30 2688 N 264.312 0.0505335 -5.05775 0
M  V30 2689 C 262.61 1.17668 -4.30198 0
M  V30 2690 C 263.311 -0.279161 -5.8103 0
M  V30 2691 N 262.287 0.336767 -5.42556 0
M  V30 2692 H 266.089 -0.267106 -2.92684 0
M  V30 2693 H 263.603 -0.247518 -1.60503 0
M  V30 2694 H 265.6 2.10394 -3.59917 0
M  V30 2695 H 264.26 2.16046 -2.42393 0
M  V30 2696 H 265.271 -0.31577 -5.16936 0
M  V30 2697 H 261.948 1.83847 -3.74842 0
M  V30 2698 H 263.338 -0.977553 -6.64751 0
M  V30 2699 N 266.058 1.56714 -0.166846 0
M  V30 2700 C 267.005 2.17746 0.765193 0
M  V30 2701 C 267.975 1.11614 1.23011 0
M  V30 2702 O 269.16 1.39745 1.29908 0
M  V30 2703 C 266.3 2.81882 1.9909 0
M  V30 2704 C 265.413 4.02462 1.56997 0
M  V30 2705 C 264.548 4.54537 2.749 0
M  V30 2706 C 263.587 5.67538 2.29275 0
M  V30 2707 N 262.724 6.14142 3.40255 0
M  V30 2708 H 267.564 2.97048 0.237952 0
M  V30 2709 H 265.101 1.4672 0.105725 0
M  V30 2710 H 267.059 3.17221 2.70974 0
M  V30 2711 H 265.689 2.05191 2.49192 0
M  V30 2712 H 264.741 3.72973 0.748037 0
M  V30 2713 H 266.053 4.84273 1.19503 0
M  V30 2714 H 265.207 4.92035 3.54946 0
M  V30 2715 H 263.946 3.71774 3.1565 0
M  V30 2716 H 262.951 5.29597 1.47674 0
M  V30 2717 H 264.176 6.52099 1.89588 0
M  V30 2718 H 262.122 5.3431 3.8059 0
M  V30 2719 H 262.039 6.9093 3.06841 0
M  V30 2720 H 263.307 6.56289 4.206 0
M  V30 2721 N 267.536 -0.106894 1.57237 0
M  V30 2722 C 268.446 -1.14911 2.0453 0
M  V30 2723 C 269.462 -1.44592 0.96795 0
M  V30 2724 O 270.638 -1.55468 1.2803 0
M  V30 2725 C 267.703 -2.45272 2.45036 0
M  V30 2726 C 266.764 -2.22879 3.66911 0
M  V30 2727 C 265.997 -3.47024 4.05475 0
M  V30 2728 O 266.22 -4.54804 3.44252 0
M  V30 2729 O 265.154 -3.3731 4.98504 0
M  V30 2730 H 268.98 -0.777461 2.9358 0
M  V30 2731 H 266.565 -0.318563 1.45964 0
M  V30 2732 H 268.447 -3.22055 2.71769 0
M  V30 2733 H 267.122 -2.81886 1.59129 0
M  V30 2734 H 266.029 -1.43915 3.45311 0
M  V30 2735 H 267.362 -1.91163 4.53561 0
M  V30 2736 N 269.014 -1.53014 -0.377408 0
M  V30 2737 C 270.239 -1.72818 -1.14668 0
M  V30 2738 C 270.664 -0.450725 -1.8262 0
M  V30 2739 O 270.022 0.59439 -1.7128 0
M  V30 2740 C 270.07 -2.88627 -2.16164 0
M  V30 2741 O 269.174 -2.56409 -3.22998 0
M  V30 2742 H 268.515 -0.574301 -0.333278 0
M  V30 2743 H 271.045 -1.99853 -0.438152 0
M  V30 2744 H 271.055 -3.14455 -2.59966 0
M  V30 2745 H 269.73 -3.81294 -1.66095 0
M  V30 2746 H 268.307 -2.4136 -2.84253 0
M  V30 2747 N 270.492 0.636531 -1.44174 0
M  V30 2748 C 271.74 1.39343 -1.46383 0
M  V30 2749 C 272.061 1.94766 -0.0955715 0
M  V30 2750 O 271.331 1.75452 0.871395 0
M  V30 2751 H 269.911 0.517199 -0.538994 0
M  V30 2752 H 272.573 0.74957 -1.7991 0
M  V30 2753 H 271.669 2.22746 -2.18611 0
M  V30 2754 N 271.97 1.30982 0.876444 0
M  V30 2755 C 273.198 1.23242 1.6619 0
M  V30 2756 C 273.613 -0.203345 1.87702 0
M  V30 2757 O 272.97 -1.13317 1.43057 0
M  V30 2758 C 273.021 1.96623 3.03351 0
M  V30 2759 O 272.742 3.34594 2.82804 0
M  V30 2760 C 274.243 1.95644 3.97792 0
M  V30 2761 H 271.463 0.426126 0.518322 0
M  V30 2762 H 274.007 1.7275 1.09442 0
M  V30 2763 H 272.162 1.50892 3.56806 0
M  V30 2764 H 272.576 3.71873 3.69879 0
M  V30 2765 H 274.05 2.51511 4.91372 0
M  V30 2766 H 274.527 0.937395 4.2908 0
M  V30 2767 H 275.133 2.41225 3.50272 0
M  V30 2768 N 273.449 -1.08991 1.13837 0
M  V30 2769 C 274.396 -2.15748 0.819835 0
M  V30 2770 C 275.366 -1.64636 -0.220026 0
M  V30 2771 O 276.551 -1.90582 -0.0912757 0
M  V30 2772 C 273.691 -3.4382 0.296913 0
M  V30 2773 C 272.804 -4.0881 1.39636 0
M  V30 2774 C 271.939 -5.24655 0.831314 0
M  V30 2775 C 270.978 -5.81575 1.90886 0
M  V30 2776 N 270.115 -6.88774 1.36142 0
M  V30 2777 H 274.955 -2.42338 1.73426 0
M  V30 2778 H 272.492 -1.18935 0.865613 0
M  V30 2779 H 274.45 -4.17193 -0.0244339 0
M  V30 2780 H 273.08 -3.17535 -0.580628 0
M  V30 2781 H 272.132 -3.33258 1.83422 0
M  V30 2782 H 273.444 -4.47141 2.21058 0
M  V30 2783 H 272.598 -6.04942 0.461515 0
M  V30 2784 H 271.337 -4.87698 -0.013932 0
M  V30 2785 H 270.342 -4.99946 2.28767 0
M  V30 2786 H 271.567 -6.20592 2.75758 0
M  V30 2787 H 269.513 -6.53788 0.538254 0
M  V30 2788 H 269.43 -7.25898 2.11208 0
M  V30 2789 H 270.698 -7.72806 1.01933 0
M  V30 2790 N 274.927 -0.932562 -1.27047 0
M  V30 2791 C 275.877 -0.406392 -2.24349 0
M  V30 2792 C 276.861 0.492066 -1.53191 0
M  V30 2793 O 278.053 0.328717 -1.73921 0
M  V30 2794 C 275.182 0.335214 -3.41659 0
M  V30 2795 C 274.268 -0.58004 -4.20115 0
M  V30 2796 N 274.659 -1.70203 -4.76303 0
M  V30 2797 C 272.957 -0.383974 -4.44344 0
M  V30 2798 C 273.658 -2.27167 -5.35509 0
M  V30 2799 N 272.634 -1.56068 -5.20715 0
M  V30 2800 H 276.436 -1.26299 -2.65378 0
M  V30 2801 H 273.95 -0.787408 -1.42034 0
M  V30 2802 H 275.947 0.729142 -4.10474 0
M  V30 2803 H 274.607 1.18868 -3.0216 0
M  V30 2804 H 275.618 -2.08433 -4.74106 0
M  V30 2805 H 272.295 0.428436 -4.15296 0
M  V30 2806 H 273.685 -3.21654 -5.89905 0
M  V30 2807 N 276.405 1.4127 -0.698611 0
M  V30 2808 C 277.63 2.06024 -0.238512 0
M  V30 2809 C 278.055 1.5224 1.10475 0
M  V30 2810 O 277.413 0.650623 1.69223 0
M  V30 2811 C 277.461 3.59988 -0.209952 0
M  V30 2812 O 276.565 4.04282 0.814235 0
M  V30 2813 H 275.906 0.653829 -0.115775 0
M  V30 2814 H 278.436 1.8098 -0.954326 0
M  V30 2815 H 278.446 4.07979 -0.0418436 0
M  V30 2816 H 277.121 3.98503 -1.1903 0
M  V30 2817 H 275.698 3.6779 0.615234 0
M  V30 2818 N 277.883 0.443576 1.51229 0
M  V30 2819 C 279.131 -0.120557 2.0174 0
M  V30 2820 C 279.452 -1.42665 1.32935 0
M  V30 2821 O 278.722 -1.9028 0.465866 0
M  V30 2822 H 277.302 -0.0475426 0.745486 0
M  V30 2823 H 279.964 0.587711 1.85828 0
M  V30 2824 H 279.06 -0.291972 3.10731 0
M  V30 2825 N 279.361 -1.56624 0.175154 0
M  V30 2826 C 280.271 -2.21741 -0.766042 0
M  V30 2827 C 281.287 -1.21023 -1.25018 0
M  V30 2828 O 282.463 -1.53697 -1.3015 0
M  V30 2829 C 279.528 -2.84839 -1.97655 0
M  V30 2830 C 278.589 -4.00769 -1.53892 0
M  V30 2831 C 277.822 -4.60849 -2.69173 0
M  V30 2832 O 278.045 -4.19823 -3.86141 0
M  V30 2833 O 276.979 -5.50655 -2.43028 0
M  V30 2834 H 280.805 -3.02738 -0.241585 0
M  V30 2835 H 278.39 -1.49305 -0.053222 0
M  V30 2836 H 280.272 -3.24834 -2.68442 0
M  V30 2837 H 278.947 -2.06836 -2.48999 0
M  V30 2838 H 277.854 -3.65436 -0.80044 0
M  V30 2839 H 279.187 -4.80376 -1.07236 0
M  V30 2840 N 280.839 0.0985539 -1.57292 0
M  V30 2841 C 282.085 0.803867 -1.86188 0
M  V30 2842 C 282.418 1.78549 -0.763794 0
M  V30 2843 O 281.693 1.93153 0.22855 0
M  V30 2844 C 281.976 1.53568 -3.25713 0
M  V30 2845 C 281.829 0.572277 -4.46145 0
M  V30 2846 C 283.148 2.48708 -3.63087 0
M  V30 2847 H 280.267 0.290781 -0.677211 0
M  V30 2848 H 282.909 0.0675783 -1.8988 0
M  V30 2849 H 281.059 2.16332 -3.22696 0
M  V30 2850 H 282.731 -0.0480894 -4.61275 0
M  V30 2851 H 280.974 -0.114618 -4.33649 0
M  V30 2852 H 281.645 1.12139 -5.40489 0
M  V30 2853 H 284.121 1.96039 -3.67026 0
M  V30 2854 H 282.997 2.96932 -4.61652 0
M  V30 2855 H 283.258 3.32309 -2.91588 0
M  V30 2856 N 282.317 1.53212 0.369288 0
M  V30 2857 C 283.728 1.60943 0.946276 0
M  V30 2858 C 284.079 0.47452 1.90375 0
M  V30 2859 O 283.204 -0.399597 2.12679 0
M  V30 2860 C 283.799 2.91715 1.72302 0
M  V30 2861 C 282.358 3.01792 2.24941 0
M  V30 2862 C 281.505 2.56211 1.06072 0
M  V30 2863 H 284.456 1.58007 0.148198 0
M  V30 2864 H 284.477 2.79309 2.58393 0
M  V30 2865 H 283.989 3.74295 1.0259 0
M  V30 2866 H 282.09 2.23791 2.97906 0
M  V30 2867 H 282.203 4.06803 2.53077 0
M  V30 2868 H 280.567 2.10998 1.4266 0
M  V30 2869 H 281.35 3.41206 0.378639 0
M  V30 2870 N 283.795 -0.628877 1.44509 0
M  V30 2871 C 284.758 -1.72263 1.51188 0
M  V30 2872 C 285.758 -1.55907 0.39367 0
M  V30 2873 O 286.948 -1.61361 0.656377 0
M  V30 2874 C 284.08 -3.11365 1.38798 0
M  V30 2875 H 285.273 -1.67714 2.4862 0
M  V30 2876 H 282.826 -0.842737 1.31634 0
M  V30 2877 H 283.561 -3.21507 0.424693 0
M  V30 2878 H 283.346 -3.24644 2.19884 0
M  V30 2879 H 284.836 -3.91075 1.46458 0
M  V30 2880 N 285.273 -1.31445 -0.869486 0
M  V30 2881 C 286.519 -1.21337 -1.62496 0
M  V30 2882 C 286.852 0.227872 -1.92858 0
M  V30 2883 O 286.127 1.16094 -1.56053 0
M  V30 2884 C 286.41 -2.05814 -2.95487 0
M  V30 2885 C 286.263 -3.5824 -2.72 0
M  V30 2886 C 287.582 -1.9079 -3.96594 0
M  V30 2887 H 284.701 -0.442135 -0.589649 0
M  V30 2888 H 287.343 -1.6124 -1.00507 0
M  V30 2889 H 285.493 -1.71913 -3.48394 0
M  V30 2890 H 287.165 -4.0228 -2.25762 0
M  V30 2891 H 285.408 -3.81647 -2.06224 0
M  V30 2892 H 286.079 -4.12657 -3.66631 0
M  V30 2893 H 288.555 -2.20459 -3.52898 0
M  V30 2894 H 287.431 -2.52199 -4.87531 0
M  V30 2895 H 287.692 -0.871341 -4.33428 0
M  V30 2896 N 286.751 1.08385 -1.14413 0
M  V30 2897 C 287.661 2.18856 -0.844951 0
M  V30 2898 C 288.677 1.73121 0.174668 0
M  V30 2899 O 289.853 2.014 0.00312857 0
M  V30 2900 C 286.918 3.45155 -0.32696 0
M  V30 2901 C 285.979 4.05513 -1.40916 0
M  V30 2902 C 285.212 5.25784 -0.915793 0
M  V30 2903 O 285.435 5.69884 0.242651 0
M  V30 2904 O 284.369 5.77545 -1.69487 0
M  V30 2905 H 288.195 2.46919 -1.76818 0
M  V30 2906 H 285.78 1.17524 -0.922411 0
M  V30 2907 H 287.662 4.21377 -0.0440211 0
M  V30 2908 H 286.337 3.18668 0.568539 0
M  V30 2909 H 285.244 3.30879 -1.74556 0
M  V30 2910 H 286.577 4.3625 -2.27919 0
M  V30 2911 N 288.23 0.939286 1.26551 0
M  V30 2912 C 289.14 0.453432 2.30176 0
M  V30 2913 C 290.156 -0.471649 1.67486 0
M  V30 2914 O 291.332 -0.35164 1.98306 0
M  V30 2915 C 288.397 -0.275326 3.45605 0
M  V30 2916 C 287.458 0.686084 4.23782 0
M  V30 2917 C 286.691 -0.00798994 5.33699 0
M  V30 2918 O 286.914 -1.22528 5.57085 0
M  V30 2919 O 285.848 0.669746 5.98162 0
M  V30 2920 H 289.674 1.31416 2.73795 0
M  V30 2921 H 287.259 0.705095 1.31715 0
M  V30 2922 H 289.141 -0.685911 4.1578 0
M  V30 2923 H 287.816 -1.11147 3.0402 0
M  V30 2924 H 286.723 1.14658 3.56096 0
M  V30 2925 H 288.056 1.48979 4.69112 0
M  V30 2926 N 289.708 -1.40897 0.706093 0
M  V30 2927 C 290.936 -2.05373 0.250887 0
M  V30 2928 C 291.351 -1.53172 -1.10381 0
M  V30 2929 O 290.708 -0.684305 -1.69185 0
M  V30 2930 C 290.759 -3.6088 0.211571 0
M  V30 2931 O 290.48 -4.11153 1.51276 0
M  V30 2932 C 291.981 -4.42517 -0.263346 0
M  V30 2933 H 289.201 -0.66115 0.114552 0
M  V30 2934 H 291.745 -1.80479 0.961635 0
M  V30 2935 H 289.9 -3.84777 -0.450073 0
M  V30 2936 H 290.314 -5.05279 1.40689 0
M  V30 2937 H 291.788 -5.51479 -0.239718 0
M  V30 2938 H 292.265 -4.19396 -1.30397 0
M  V30 2939 H 292.871 -4.23708 0.367677 0
M  V30 2940 N 291.186 -0.45159 -1.50991 0
M  V30 2941 C 292.432 0.110237 -2.025 0
M  V30 2942 C 292.765 1.41109 -1.33424 0
M  V30 2943 O 292.04 1.89135 -0.453659 0
M  V30 2944 C 292.323 0.314271 -3.58726 0
M  V30 2945 C 292.176 -1.00623 -4.38401 0
M  V30 2946 C 293.495 1.07767 -4.26702 0
M  V30 2947 H 290.614 0.0385897 -0.735989 0
M  V30 2948 H 293.256 -0.593374 -1.80497 0
M  V30 2949 H 291.406 0.913601 -3.77605 0
M  V30 2950 H 293.078 -1.64064 -4.31139 0
M  V30 2951 H 291.321 -1.6075 -4.02917 0
M  V30 2952 H 291.992 -0.817341 -5.45915 0
M  V30 2953 H 294.468 0.56986 -4.12179 0
M  V30 2954 H 293.344 1.18921 -5.35863 0
M  V30 2955 H 293.605 2.10939 -3.88532 0
M  V30 2956 N 292.664 1.56529 -0.183458 0
M  V30 2957 C 293.892 2.01623 0.464285 0
M  V30 2958 C 294.307 1.06366 1.55986 0
M  V30 2959 O 293.664 0.0665398 1.82379 0
M  V30 2960 C 293.715 3.46475 1.03139 0
M  V30 2961 O 293.436 4.38095 -0.0204675 0
M  V30 2962 C 294.937 4.0703 1.75617 0
M  V30 2963 H 292.157 0.660596 0.117704 0
M  V30 2964 H 294.701 2.02451 -0.288751 0
M  V30 2965 H 292.856 3.46383 1.73486 0
M  V30 2966 H 293.27 5.22973 0.399952 0
M  V30 2967 H 294.744 5.10271 2.10542 0
M  V30 2968 H 295.221 3.49819 2.65563 0
M  V30 2969 H 295.827 4.1086 1.09882 0
M  V30 2970 N 294.142 -0.090211 1.57342 0
M  V30 2971 C 295.367 -0.810082 1.90925 0
M  V30 2972 C 295.792 -1.71248 0.778187 0
M  V30 2973 O 295.15 -1.79278 -0.269991 0
M  V30 2974 C 295.198 -1.59529 3.23393 0
M  V30 2975 O 294.302 -2.70461 3.11327 0
M  V30 2976 H 293.643 -0.222231 0.625707 0
M  V30 2977 H 296.173 -0.0639716 2.045 0
M  V30 2978 H 296.183 -1.97847 3.5682 0
M  V30 2979 H 294.858 -0.933055 4.05299 0
M  V30 2980 H 293.435 -2.35135 2.89423 0
M  V30 2981 N 295.62 -1.53406 -0.361157 0
M  V30 2982 C 296.845 -1.74024 -1.12829 0
M  V30 2983 C 297.27 -0.470069 -1.82132 0
M  V30 2984 O 296.628 0.57619 -1.719 0
M  V30 2985 C 296.676 -2.90903 -2.13091 0
M  V30 2986 O 295.78 -2.59821 -3.20261 0
M  V30 2987 H 295.121 -0.577804 -0.327168 0
M  V30 2988 H 297.651 -2.00307 -0.41693 0
M  V30 2989 H 297.661 -3.17194 -2.56616 0
M  V30 2990 H 296.336 -3.83034 -1.62042 0
M  V30 2991 H 294.913 -2.44362 -2.81677 0
M  V30 2992 N 297.098 0.621204 -1.44841 0
M  V30 2993 C 298.509 1.20298 -1.42777 0
M  V30 2994 C 298.86 1.95639 -0.148259 0
M  V30 2995 O 297.985 2.02955 0.750892 0
M  V30 2996 C 298.58 2.1882 -2.58657 0
M  V30 2997 C 297.139 2.72403 -2.59756 0
M  V30 2998 C 296.286 1.4757 -2.34773 0
M  V30 2999 H 299.237 0.411297 -1.53278 0
M  V30 3000 H 299.258 3.01607 -2.31977 0
M  V30 3001 H 298.77 1.63957 -3.51766 0
M  V30 3002 H 296.871 3.31242 -1.70615 0
M  V30 3003 H 296.984 3.17765 -3.58556 0
M  V30 3004 H 295.348 1.76051 -1.8406 0
M  V30 3005 H 296.131 0.945954 -3.3001 0
M  V30 3006 N 298.576 1.31904 0.862503 0
M  V30 3007 C 299.824 1.21776 1.61292 0
M  V30 3008 C 300.145 -0.222413 1.93727 0
M  V30 3009 O 299.415 -1.1451 1.58947 0
M  V30 3010 H 297.995 0.447717 0.597962 0
M  V30 3011 H 300.657 1.65326 1.03215 0
M  V30 3012 H 299.753 1.7948 2.5533 0
M  V30 3013 N 300.054 -1.07777 1.14986 0
M  V30 3014 C 301.282 -1.84018 0.945773 0
M  V30 3015 C 301.697 -1.81897 -0.505863 0
M  V30 3016 O 301.054 -1.22726 -1.35072 0
M  V30 3017 C 301.105 -3.31287 1.44677 0
M  V30 3018 O 300.826 -3.33449 2.84154 0
M  V30 3019 C 302.327 -4.24311 1.28355 0
M  V30 3020 H 299.547 -0.580716 0.336169 0
M  V30 3021 H 302.091 -1.36077 1.52654 0
M  V30 3022 H 300.246 -3.76594 0.908625 0
M  V30 3023 H 300.66 -4.25427 3.06777 0
M  V30 3024 H 302.134 -5.2573 1.68261 0
M  V30 3025 H 302.611 -4.38612 0.227184 0
M  V30 3026 H 303.217 -3.84836 1.81056 0
M  V30 3027 N 301.532 -0.945985 -1.26051 0
M  V30 3028 C 302.943 -0.638096 -1.75457 0
M  V30 3029 C 303.294 0.846672 -1.76991 0
M  V30 3030 O 302.419 1.66262 -1.38513 0
M  V30 3031 C 303.014 -1.15157 -3.18629 0
M  V30 3032 C 301.573 -0.894004 -3.65629 0
M  V30 3033 C 300.72 -1.29967 -2.44957 0
M  V30 3034 H 303.671 -1.12376 -1.1206 0
M  V30 3035 H 303.692 -0.507615 -3.77099 0
M  V30 3036 H 303.204 -2.23222 -3.1748 0
M  V30 3037 H 301.305 0.172057 -3.72203 0
M  V30 3038 H 301.418 -1.52439 -4.54202 0
M  V30 3039 H 299.782 -0.718078 -2.44368 0
M  V30 3040 H 300.565 -2.38935 -2.46505 0
M  V30 3041 N 303.011 1.40521 -0.713556 0
M  V30 3042 C 303.974 2.29098 -0.0684347 0
M  V30 3043 C 304.974 1.45268 0.689472 0
M  V30 3044 O 306.164 1.66205 0.521677 0
M  V30 3045 C 303.296 3.28446 0.913024 0
M  V30 3046 H 304.489 2.87645 -0.84855 0
M  V30 3047 H 302.042 1.48809 -0.47809 0
M  V30 3048 H 302.777 2.74913 1.72027 0
M  V30 3049 H 302.562 3.90327 0.372472 0
M  V30 3050 H 304.052 3.94777 1.36165 0
M  V30 3051 N 304.489 0.459591 1.5075 0
M  V30 3052 C 305.714 -0.0996819 2.0716 0
M  V30 3053 C 306.139 -1.33761 1.32249 0
M  V30 3054 O 305.497 -1.77551 0.366786 0
M  V30 3055 C 305.545 -0.378226 3.58611 0
M  V30 3056 O 304.649 -1.46081 3.85661 0
M  V30 3057 H 303.99 0.00791392 0.663953 0
M  V30 3058 H 306.52 0.647329 1.9409 0
M  V30 3059 H 306.53 -0.622135 4.03229 0
M  V30 3060 H 305.205 0.526439 4.12555 0
M  V30 3061 H 303.782 -1.20511 3.5289 0
M  V30 3062 N 305.967 -1.56429 0.191757 0
M  V30 3063 C 307.378 -1.83912 -0.321428 0
M  V30 3064 C 307.729 -1.11231 -1.61623 0
M  V30 3065 O 306.854 -0.37202 -2.13178 0
M  V30 3066 C 307.449 -3.33624 -0.589961 0
M  V30 3067 C 306.008 -3.6153 -1.04753 0
M  V30 3068 C 305.155 -2.7714 -0.0943327 0
M  V30 3069 H 308.106 -1.53161 0.415612 0
M  V30 3070 H 308.127 -3.52213 -1.43966 0
M  V30 3071 H 307.639 -3.86495 0.352588 0
M  V30 3072 H 305.74 -3.14089 -2.00447 0
M  V30 3073 H 305.853 -4.69737 -0.942549 0
M  V30 3074 H 304.217 -2.47638 -0.595589 0
M  V30 3075 H 305 -3.32799 0.842601 0
M  V30 3076 N 307.445 0.0818655 -1.57387 0
M  V30 3077 C 308.685 0.788375 -1.88584 0
M  V30 3078 C 309.049 1.75248 -0.784351 0
M  V30 3079 O 310.25 2.50334 -0.979105 0
M  V30 3080 C 308.521 1.48654 -3.25018 0
M  V30 3081 S 310.08 2.22951 -3.7794 0
M  V30 3082 H 306.898 0.262383 -0.660815 0
M  V30 3083 H 309.5 0.0448995 -1.95448 0
M  V30 3084 H 308.204 0.770919 -4.03094 0
M  V30 3085 H 307.735 2.26965 -3.21326 0
M  V30 3086 H 309.75 3.49309 -3.52417 0
M  V30 3087 N 308.923 1.53595 0.353017 0
M  V30 3088 C 310.148 1.7462 1.11904 0
M  V30 3089 C 310.573 0.479721 1.8188 0
M  V30 3090 O 309.931 -0.567066 1.72204 0
M  V30 3091 C 309.979 2.92029 2.11545 0
M  V30 3092 O 309.083 2.61516 3.18878 0
M  V30 3093 H 308.424 0.579531 0.324099 0
M  V30 3094 H 310.954 2.00525 0.406301 0
M  V30 3095 H 310.964 3.18551 2.5493 0
M  V30 3096 H 309.639 3.83888 1.60008 0
M  V30 3097 H 308.216 2.45852 2.80377 0
M  V30 3098 N 310.401 -0.613514 1.45168 0
M  V30 3099 C 311.331 -1.7354 1.56225 0
M  V30 3100 C 312.312 -1.64981 0.41414 0
M  V30 3101 O 313.497 -1.83472 0.636526 0
M  V30 3102 C 310.627 -3.12128 1.52295 0
M  V30 3103 C 309.581 -3.35491 2.65762 0
M  V30 3104 C 308.907 -4.74291 2.46885 0
M  V30 3105 C 310.207 -3.26325 4.0781 0
M  V30 3106 H 311.901 -1.64543 2.50132 0
M  V30 3107 H 309.447 -0.790185 1.20383 0
M  V30 3108 H 311.4 -3.90404 1.58628 0
M  V30 3109 H 310.124 -3.2195 0.549139 0
M  V30 3110 H 308.783 -2.59603 2.58847 0
M  V30 3111 H 308.431 -4.80839 1.47657 0
M  V30 3112 H 308.131 -4.9088 3.22972 0
M  V30 3113 H 309.655 -5.54775 2.55063 0
M  V30 3114 H 311.069 -3.94483 4.16 0
M  V30 3115 H 309.466 -3.54445 4.8424 0
M  V30 3116 H 310.536 -2.23855 4.30136 0
M  V30 3117 N 311.879 -1.3236 -0.855495 0
M  V30 3118 C 313.104 -1.2601 -1.64731 0
M  V30 3119 C 313.529 0.169068 -1.87339 0
M  V30 3120 O 312.887 1.12016 -1.42556 0
M  V30 3121 C 312.935 -2.02417 -2.98429 0
M  V30 3122 O 312.039 -1.3714 -3.8893 0
M  V30 3123 H 311.38 -0.434325 -0.502253 0
M  V30 3124 H 313.91 -1.74661 -1.06558 0
M  V30 3125 H 313.92 -2.12559 -3.48257 0
M  V30 3126 H 312.595 -3.06343 -2.81295 0
M  V30 3127 H 311.172 -1.3554 -3.47395 0
M  V30 3128 N 313.357 1.07166 -1.15556 0
M  V30 3129 C 314.605 1.79443 -0.929764 0
M  V30 3130 C 314.926 1.87246 0.544414 0
M  V30 3131 O 314.196 1.37473 1.39564 0
M  V30 3132 H 312.776 0.664625 -0.341003 0
M  V30 3133 H 315.438 1.29499 -1.45657 0
M  V30 3134 H 314.534 2.81832 -1.34079 0
M  V30 3135 N 314.835 0.952656 1.25548 0
M  V30 3136 C 316.084 0.602053 1.92505 0
M  V30 3137 C 316.397 -0.864663 1.75451 0
M  V30 3138 O 317.603 -1.32514 2.36965 0
M  V30 3139 C 316.059 1.02607 3.44963 0
M  V30 3140 C 315.667 2.51519 3.70732 0
M  V30 3141 C 317.411 0.747905 4.1786 0
M  V30 3142 C 315.318 2.87732 5.16686 0
M  V30 3143 H 314.248 0.22146 0.720744 0
M  V30 3144 H 316.899 1.15684 1.42441 0
M  V30 3145 H 315.281 0.399712 3.93978 0
M  V30 3146 H 316.455 3.19157 3.32378 0
M  V30 3147 H 314.77 2.76786 3.11092 0
M  V30 3148 H 317.367 0.994647 5.25367 0
M  V30 3149 H 317.71 -0.315629 4.15102 0
M  V30 3150 H 318.243 1.33452 3.74747 0
M  V30 3151 H 314.982 3.93095 5.24554 0
M  V30 3152 H 314.502 2.24765 5.56094 0
M  V30 3153 H 316.181 2.76817 5.84792 0
M  V30 3154 N 316.313 -1.40141 0.720998 0
M  V30 3155 C 317.562 -2.0002 0.259804 0
M  V30 3156 C 317.875 -1.57839 -1.15526 0
M  V30 3157 O 319.081 -2.10455 -1.71525 0
M  V30 3158 C 317.537 -3.57516 0.413566 0
M  V30 3159 C 317.145 -4.08667 1.83562 0
M  V30 3160 C 318.889 -4.24498 0.0134387 0
M  V30 3161 C 316.796 -5.58686 1.93968 0
M  V30 3162 H 315.726 -0.748195 0.0933806 0
M  V30 3163 H 318.377 -1.60313 0.892866 0
M  V30 3164 H 316.759 -3.9495 -0.288169 0
M  V30 3165 H 317.933 -3.82598 2.56817 0
M  V30 3166 H 316.248 -3.543 2.1877 0
M  V30 3167 H 318.845 -5.34654 0.0703954 0
M  V30 3168 H 319.188 -4.03375 -1.02927 0
M  V30 3169 H 319.721 -3.92188 0.665815 0
M  V30 3170 H 316.46 -5.8467 2.96379 0
M  V30 3171 H 315.98 -5.86602 1.25131 0
M  V30 3172 H 317.659 -6.23875 1.71431 0
M  V30 3173 N 317.792 -0.46758 -1.50504 0
M  V30 3174 C 319.041 0.0902868 -2.01498 0
M  V30 3175 C 319.354 1.411 -1.35463 0
M  V30 3176 O 320.56 2.0536 -1.77594 0
M  V30 3177 C 319.016 0.21142 -3.59278 0
M  V30 3178 C 318.624 -1.10065 -4.34269 0
M  V30 3179 C 320.368 0.721433 -4.18325 0
M  V30 3180 C 318.275 -0.943505 -5.83825 0
M  V30 3181 H 317.205 0.037517 -0.753066 0
M  V30 3182 H 319.856 -0.601943 -1.73346 0
M  V30 3183 H 318.238 0.967352 -3.84003 0
M  V30 3184 H 319.412 -1.86726 -4.21272 0
M  V30 3185 H 317.727 -1.5415 -3.86816 0
M  V30 3186 H 320.324 0.85598 -5.27804 0
M  V30 3187 H 320.667 1.71186 -3.79475 0
M  V30 3188 H 321.2 0.0229843 -3.97793 0
M  V30 3189 H 317.939 -1.90719 -6.27141 0
M  V30 3190 H 317.459 -0.217213 -5.99407 0
M  V30 3191 H 319.138 -0.608715 -6.4413 0
M  V30 3192 N 319.27 1.56325 -0.20005 0
M  V30 3193 C 320.518 1.97329 0.436547 0
M  V30 3194 C 320.839 1.08826 1.61808 0
M  V30 3195 O 320.109 0.160604 1.95241 0
M  V30 3196 H 318.689 0.728714 0.164272 0
M  V30 3197 H 321.351 1.92761 -0.287937 0
M  V30 3198 H 320.447 3.02264 0.777353 0
M  V30 3199 N 320.748 -0.0735177 1.57428 0
M  V30 3200 C 321.994 -0.774145 1.87443 0
M  V30 3201 C 322.327 -1.77311 0.792103 0
M  V30 3202 O 321.602 -1.93492 -0.197793 0
M  V30 3203 C 321.885 -1.48367 3.28115 0
M  V30 3204 C 321.738 -0.501227 4.46999 0
M  V30 3205 C 323.057 -2.429 3.66998 0
M  V30 3206 H 320.176 -0.279971 0.681752 0
M  V30 3207 H 322.818 -0.0373616 1.89963 0
M  V30 3208 H 320.968 -2.11171 3.26097 0
M  V30 3209 H 322.64 0.121468 4.6114 0
M  V30 3210 H 320.883 0.183593 4.33411 0
M  V30 3211 H 321.554 -1.03526 5.42205 0
M  V30 3212 H 324.03 -1.90175 3.70098 0
M  V30 3213 H 322.906 -2.89549 4.66318 0
M  V30 3214 H 323.167 -3.27628 2.96837 0
M  V30 3215 N 322.226 -1.5378 -0.344866 0
M  V30 3216 C 323.454 -1.74899 -1.10534 0
M  V30 3217 C 323.869 -0.487534 -1.82397 0
M  V30 3218 O 323.226 0.540741 -1.74305 0
M  V30 3219 C 323.277 -2.92822 -2.11984 0
M  V30 3220 O 322.998 -4.14089 -1.43044 0
M  V30 3221 C 324.499 -3.25982 -3.00417 0
M  V30 3222 H 321.719 -0.584426 -0.329678 0
M  V30 3223 H 324.263 -2.006 -0.397474 0
M  V30 3224 H 322.418 -2.69457 -2.78338 0
M  V30 3225 H 322.832 -4.80272 -2.10805 0
M  V30 3226 H 324.306 -4.11848 -3.67539 0
M  V30 3227 H 324.783 -2.42228 -3.66363 0
M  V30 3228 H 325.389 -3.51349 -2.39654 0
M  V30 3229 N 323.704 0.605807 -1.45491 0
M  V30 3230 C 324.95 1.36679 -1.49823 0
M  V30 3231 C 325.283 1.93693 -0.140175 0
M  V30 3232 O 324.558 1.75158 0.845581 0
M  V30 3233 C 324.841 2.51337 -2.57879 0
M  V30 3234 C 324.694 1.99508 -4.03134 0
M  V30 3235 C 326.013 3.53463 -2.62205 0
M  V30 3236 H 323.132 0.495617 -0.545466 0
M  V30 3237 H 325.774 0.682732 -1.7731 0
M  V30 3238 H 323.924 3.09691 -2.34571 0
M  V30 3239 H 325.596 1.45789 -4.37656 0
M  V30 3240 H 323.839 1.30496 -4.13707 0
M  V30 3241 H 324.51 2.82169 -4.74431 0
M  V30 3242 H 326.986 3.04953 -2.83095 0
M  V30 3243 H 325.862 4.31178 -3.39672 0
M  V30 3244 H 326.123 4.09197 -1.67363 0
M  V30 3245 N 325.182 1.32811 0.848464 0
M  V30 3246 C 326.145 1.22194 1.9391 0
M  V30 3247 C 327.145 0.143404 1.60159 0
M  V30 3248 O 328.335 0.394253 1.6968 0
M  V30 3249 C 325.467 0.88067 3.29328 0
M  V30 3250 H 326.66 2.19127 2.04752 0
M  V30 3251 H 324.213 1.16731 1.0394 0
M  V30 3252 H 324.948 -0.0865776 3.24184 0
M  V30 3253 H 324.733 1.66052 3.55203 0
M  V30 3254 H 326.223 0.830871 4.09251 0
M  V30 3255 N 326.66 -1.06551 1.16123 0
M  V30 3256 C 327.623 -2.12132 0.867906 0
M  V30 3257 C 328.623 -1.60224 -0.135944 0
M  V30 3258 O 329.813 -1.73943 0.0946422 0
M  V30 3259 C 326.945 -3.396 0.297419 0
M  V30 3260 H 328.138 -2.39586 1.80385 0
M  V30 3261 H 325.691 -1.22574 0.969812 0
M  V30 3262 H 326.426 -3.17794 -0.64633 0
M  V30 3263 H 326.211 -3.78581 1.02073 0
M  V30 3264 H 327.701 -4.17455 0.110052 0
M  V30 3265 N 328.138 -0.959301 -1.25041 0
M  V30 3266 C 329.384 -0.617525 -1.9317 0
M  V30 3267 C 329.717 0.843981 -1.74902 0
M  V30 3268 O 328.992 1.60615 -1.09696 0
M  V30 3269 C 329.275 -0.982736 -3.46431 0
M  V30 3270 C 329.128 -2.50032 -3.73904 0
M  V30 3271 C 330.447 -0.511176 -4.37121 0
M  V30 3272 H 327.566 -0.22582 -0.701552 0
M  V30 3273 H 330.208 -1.19679 -1.4757 0
M  V30 3274 H 328.358 -0.489806 -3.854 0
M  V30 3275 H 330.03 -3.06737 -3.44544 0
M  V30 3276 H 328.273 -2.93598 -3.19348 0
M  V30 3277 H 328.944 -2.70635 -4.81103 0
M  V30 3278 H 331.42 -0.934075 -4.0548 0
M  V30 3279 H 330.296 -0.795361 -5.43107 0
M  V30 3280 H 330.557 0.588834 -4.38161 0
M  V30 3281 N 329.616 1.39756 -0.72842 0
M  V30 3282 C 330.862 2.00942 -0.273892 0
M  V30 3283 C 331.195 1.57656 1.13394 0
M  V30 3284 O 330.47 0.802434 1.77176 0
M  V30 3285 C 330.753 3.58211 -0.368346 0
M  V30 3286 C 330.606 4.11534 -1.81548 0
M  V30 3287 C 331.925 4.39372 0.253054 0
M  V30 3288 H 329.044 0.730047 -0.100996 0
M  V30 3289 H 331.686 1.66056 -0.923337 0
M  V30 3290 H 329.836 3.88061 0.184588 0
M  V30 3291 H 331.508 3.92431 -2.42478 0
M  V30 3292 H 329.751 3.65341 -2.33898 0
M  V30 3293 H 330.422 5.20682 -1.83288 0
M  V30 3294 H 332.898 4.15527 -0.218224 0
M  V30 3295 H 331.774 5.48677 0.156585 0
M  V30 3296 H 332.035 4.21358 1.33826 0
M  V30 3297 N 331.094 0.475555 1.50254 0
M  V30 3298 C 332.024 -0.30611 2.31485 0
M  V30 3299 C 333.005 -0.986228 1.38591 0
M  V30 3300 O 334.19 -0.982541 1.67511 0
M  V30 3301 C 331.32 -1.38588 3.1845 0
M  V30 3302 C 330.274 -0.827115 4.19932 0
M  V30 3303 C 329.6 -2.00551 4.95665 0
M  V30 3304 C 330.9 0.16463 5.2204 0
M  V30 3305 H 332.594 0.371866 2.97082 0
M  V30 3306 H 330.14 0.180282 1.42867 0
M  V30 3307 H 332.093 -1.94023 3.74076 0
M  V30 3308 H 330.817 -2.09269 2.50747 0
M  V30 3309 H 329.476 -0.294702 3.65414 0
M  V30 3310 H 329.124 -2.6994 4.2443 0
M  V30 3311 H 328.824 -1.63784 5.64313 0
M  V30 3312 H 330.348 -2.56468 5.54127 0
M  V30 3313 H 331.762 -0.300699 5.72511 0
M  V30 3314 H 330.159 0.446813 5.98434 0
M  V30 3315 H 331.229 1.08905 4.72512 0
M  V30 3316 N 332.573 -1.56217 0.208337 0
M  V30 3317 C 333.822 -1.97124 -0.427204 0
M  V30 3318 C 334.135 -1.09859 -1.61835 0
M  V30 3319 O 335.341 -1.40606 -2.32255 0
M  V30 3320 C 333.797 -3.50633 -0.811442 0
M  V30 3321 C 333.405 -4.46582 0.35615 0
M  V30 3322 C 335.149 -4.00282 -1.41332 0
M  V30 3323 C 333.056 -5.91379 -0.0497852 0
M  V30 3324 H 331.986 -0.736086 -0.163381 0
M  V30 3325 H 334.637 -1.8099 0.302456 0
M  V30 3326 H 333.019 -3.62319 -1.59815 0
M  V30 3327 H 334.193 -4.46636 1.1337 0
M  V30 3328 H 332.508 -4.07202 0.870396 0
M  V30 3329 H 335.105 -5.0595 -1.72972 0
M  V30 3330 H 335.448 -3.45359 -2.32449 0
M  V30 3331 H 335.981 -3.91764 -0.690323 0
M  V30 3332 H 332.72 -6.50255 0.827529 0
M  V30 3333 H 332.24 -5.94549 -0.791926 0
M  V30 3334 H 333.919 -6.45209 -0.481042 0
M  V30 3335 N 334.051 0.0651679 -1.57465 0
M  V30 3336 C 335.297 0.764193 -1.87851 0
M  V30 3337 C 335.63 1.76889 -0.801495 0
M  V30 3338 O 334.905 1.93594 0.187528 0
M  V30 3339 C 335.188 1.46625 -3.28897 0
M  V30 3340 C 335.041 0.477515 -4.47258 0
M  V30 3341 C 336.36 2.4095 -3.68281 0
M  V30 3342 H 333.479 0.276351 -0.683227 0
M  V30 3343 H 336.121 0.0272868 -1.8998 0
M  V30 3344 H 334.271 2.09438 -3.27212 0
M  V30 3345 H 335.943 -0.145922 -4.61069 0
M  V30 3346 H 334.186 -0.206576 -4.33308 0
M  V30 3347 H 334.857 1.0065 -5.42746 0
M  V30 3348 H 337.333 1.88209 -3.71102 0
M  V30 3349 H 336.209 2.87072 -4.67847 0
M  V30 3350 H 336.47 3.26049 -2.98571 0
M  V30 3351 N 335.529 1.53961 0.336706 0
M  V30 3352 C 336.492 1.81724 1.39675 0
M  V30 3353 C 337.492 0.688532 1.45313 0
M  V30 3354 O 338.682 0.956829 1.45569 0
M  V30 3355 C 335.814 1.96543 2.78538 0
M  V30 3356 H 337.007 2.76424 1.16318 0
M  V30 3357 H 334.56 1.45478 0.571474 0
M  V30 3358 H 335.295 1.0401 3.07168 0
M  V30 3359 H 335.08 2.78665 2.75841 0
M  V30 3360 H 336.57 2.19516 3.5525 0
M  V30 3361 N 337.007 -0.598083 1.45811 0
M  V30 3362 C 338.253 -1.35882 1.50545 0
M  V30 3363 C 338.586 -1.93616 0.150445 0
M  V30 3364 O 337.861 -1.75604 -0.83628 0
M  V30 3365 C 338.144 -2.49966 2.59208 0
M  V30 3366 C 337.997 -1.97367 4.04186 0
M  V30 3367 C 339.316 -3.52068 2.64076 0
M  V30 3368 H 336.435 -0.492717 0.548087 0
M  V30 3369 H 339.077 -0.673319 1.77669 0
M  V30 3370 H 337.227 -3.08443 2.3621 0
M  V30 3371 H 338.899 -1.43466 4.38423 0
M  V30 3372 H 337.142 -1.283 4.14393 0
M  V30 3373 H 337.813 -2.79649 4.75921 0
M  V30 3374 H 340.289 -3.03448 2.84708 0
M  V30 3375 H 339.165 -4.2937 3.41954 0
M  V30 3376 H 339.426 -4.08304 1.69531 0
M  V30 3377 N 338.485 -1.33259 -0.841409 0
M  V30 3378 C 339.732 -1.24572 -1.5965 0
M  V30 3379 C 340.06 0.189137 -1.93578 0
M  V30 3380 O 339.315 1.14566 -1.5866 0
M  V30 3381 C 339.614 -2.06381 -2.9179 0
M  V30 3382 C 339.28 -3.556 -2.77235 0
M  V30 3383 C 337.942 -3.96282 -2.72973 0
M  V30 3384 C 340.294 -4.50433 -2.62221 0
M  V30 3385 C 337.622 -5.30017 -2.51592 0
M  V30 3386 C 339.974 -5.84327 -2.42374 0
M  V30 3387 C 338.638 -6.24194 -2.36512 0
M  V30 3388 H 337.908 -0.455842 -0.5842 0
M  V30 3389 H 340.555 -1.6482 -0.975016 0
M  V30 3390 H 338.86 -1.58903 -3.5813 0
M  V30 3391 H 340.557 -1.97019 -3.49263 0
M  V30 3392 H 337.147 -3.23298 -2.81384 0
M  V30 3393 H 341.331 -4.19914 -2.64549 0
M  V30 3394 H 336.587 -5.59947 -2.45499 0
M  V30 3395 H 340.761 -6.57414 -2.29739 0
M  V30 3396 H 338.388 -7.27759 -2.19706 0
M  V30 3397 N 339.963 1.05934 -1.16686 0
M  V30 3398 C 341.209 1.79065 -0.95203 0
M  V30 3399 C 341.542 1.87147 0.518629 0
M  V30 3400 O 340.817 1.36574 1.38484 0
M  V30 3401 C 341.1 3.23359 -1.58464 0
M  V30 3402 C 340.953 3.23336 -3.12689 0
M  V30 3403 C 342.272 4.21004 -1.28232 0
M  V30 3404 H 339.391 0.65005 -0.34728 0
M  V30 3405 H 342.033 1.23868 -1.44072 0
M  V30 3406 H 340.183 3.70493 -1.16908 0
M  V30 3407 H 341.855 2.84336 -3.6325 0
M  V30 3408 H 340.098 2.61886 -3.4583 0
M  V30 3409 H 340.769 4.25144 -3.52075 0
M  V30 3410 H 343.245 3.8233 -1.64203 0
M  V30 3411 H 342.121 5.20225 -1.75092 0
M  V30 3412 H 342.382 4.41639 -0.201791 0
M  V30 3413 N 341.441 0.965919 1.2453 0
M  V30 3414 C 342.681 0.634656 1.94297 0
M  V30 3415 C 343.045 -0.814822 1.73852 0
M  V30 3416 O 344.246 -1.25622 2.3764 0
M  V30 3417 C 342.517 0.99702 3.43212 0
M  V30 3418 S 344.076 0.780038 4.31811 0
M  V30 3419 H 340.894 0.232893 0.671775 0
M  V30 3420 H 343.496 1.24249 1.50938 0
M  V30 3421 H 342.2 2.04886 3.55598 0
M  V30 3422 H 341.731 0.379888 3.91562 0
M  V30 3423 H 343.746 -0.343512 4.9501 0
M  V30 3424 N 342.919 -1.39368 0.735821 0
M  V30 3425 C 343.866 -2.30599 0.0963825 0
M  V30 3426 C 344.836 -1.49257 -0.728794 0
M  V30 3427 O 346.021 -1.77941 -0.688588 0
M  V30 3428 C 343.161 -3.35596 -0.804305 0
M  V30 3429 C 342.274 -4.31987 0.0335761 0
M  V30 3430 C 341.409 -5.24053 -0.868461 0
M  V30 3431 C 340.448 -6.12095 -0.0258776 0
M  V30 3432 N 339.585 -6.96514 -0.883893 0
M  V30 3433 H 344.425 -2.8471 0.880002 0
M  V30 3434 H 341.962 -1.40188 0.445619 0
M  V30 3435 H 343.92 -3.95062 -1.34096 0
M  V30 3436 H 342.55 -2.82938 -1.55389 0
M  V30 3437 H 341.602 -3.74133 0.68766 0
M  V30 3438 H 342.914 -4.94074 0.685036 0
M  V30 3439 H 342.068 -5.88549 -1.47293 0
M  V30 3440 H 340.807 -4.62289 -1.5537 0
M  V30 3441 H 339.812 -5.4661 0.591386 0
M  V30 3442 H 341.037 -6.75923 0.656156 0
M  V30 3443 H 338.983 -6.37318 -1.55441 0
M  V30 3444 H 338.9 -7.55448 -0.288931 0
M  V30 3445 H 340.168 -7.65439 -1.4739 0
M  V30 3446 N 344.397 -0.483516 -1.5 0
M  V30 3447 C 345.622 0.0667119 -2.07293 0
M  V30 3448 C 346.047 1.3164 -1.3436 0
M  V30 3449 O 345.405 1.76945 -0.394987 0
M  V30 3450 C 345.453 0.321126 -3.59167 0
M  V30 3451 O 344.557 1.39927 -3.87936 0
M  V30 3452 H 343.898 -0.0184758 -0.663743 0
M  V30 3453 H 346.428 -0.678125 -1.93035 0
M  V30 3454 H 346.438 0.557906 -4.04168 0
M  V30 3455 H 345.113 -0.592007 -4.11665 0
M  V30 3456 H 343.69 1.14882 -3.54763 0
M  V30 3457 N 345.875 1.56104 -0.216619 0
M  V30 3458 C 346.805 2.23063 0.690296 0
M  V30 3459 C 347.786 1.20072 1.20485 0
M  V30 3460 O 348.971 1.48643 1.24976 0
M  V30 3461 C 346.101 2.90672 1.90072 0
M  V30 3462 C 345.055 4.00092 1.5202 0
M  V30 3463 C 344.381 4.54972 2.80899 0
M  V30 3464 C 345.681 5.17398 0.71391 0
M  V30 3465 H 347.375 2.99109 0.132038 0
M  V30 3466 H 344.921 1.43866 0.0620664 0
M  V30 3467 H 346.874 3.36204 2.54057 0
M  V30 3468 H 345.598 2.12066 2.48386 0
M  V30 3469 H 344.257 3.55283 0.903839 0
M  V30 3470 H 343.905 3.73102 3.37348 0
M  V30 3471 H 343.605 5.28817 2.56176 0
M  V30 3472 H 345.129 5.0322 3.45836 0
M  V30 3473 H 346.543 5.59342 1.25735 0
M  V30 3474 H 344.94 5.97444 0.563951 0
M  V30 3475 H 346.01 4.84088 -0.280527 0
M  V30 3476 N 347.353 -0.0568162 1.57498 0
M  V30 3477 C 348.283 -1.06593 2.0775 0
M  V30 3478 C 349.264 -1.39448 0.974082 0
M  V30 3479 O 350.449 -1.48815 1.24771 0
M  V30 3480 C 347.579 -2.37509 2.5339 0
M  V30 3481 C 346.533 -2.1897 3.67745 0
M  V30 3482 C 345.859 -3.55402 3.99492 0
M  V30 3483 C 347.159 -1.59859 4.97235 0
M  V30 3484 H 348.853 -0.647706 2.9231 0
M  V30 3485 H 346.399 -0.310116 1.40621 0
M  V30 3486 H 348.352 -3.08409 2.87162 0
M  V30 3487 H 347.076 -2.8134 1.65878 0
M  V30 3488 H 345.735 -1.50508 3.3428 0
M  V30 3489 H 345.383 -3.9683 3.09088 0
M  V30 3490 H 345.083 -3.43831 4.76502 0
M  V30 3491 H 346.607 -4.27708 4.35773 0
M  V30 3492 H 348.021 -2.20642 5.29141 0
M  V30 3493 H 346.418 -1.58942 5.78669 0
M  V30 3494 H 347.488 -0.561506 4.81638 0
M  V30 3495 N 348.832 -1.54138 -0.328536 0
M  V30 3496 C 350.078 -1.73297 -1.06488 0
M  V30 3497 C 350.433 -0.497958 -1.85844 0
M  V30 3498 O 349.726 0.509591 -1.84699 0
M  V30 3499 C 349.92 -2.9457 -2.02393 0
M  V30 3500 C 349.749 -4.29747 -1.32467 0
M  V30 3501 C 348.519 -4.93987 -1.06324 0
M  V30 3502 C 350.717 -5.08903 -0.743137 0
M  V30 3503 N 348.699 -6.13005 -0.331359 0
M  V30 3504 C 350.07 -6.19836 -0.142602 0
M  V30 3505 C 352.125 -4.93699 -0.64546 0
M  V30 3506 C 350.828 -7.17224 0.546125 0
M  V30 3507 C 352.854 -5.91393 0.0295558 0
M  V30 3508 C 352.216 -7.01674 0.619056 0
M  V30 3509 H 348.315 -0.687017 -0.373539 0
M  V30 3510 H 350.899 -1.91589 -0.346659 0
M  V30 3511 H 349.07 -2.77752 -2.71493 0
M  V30 3512 H 350.802 -3.0238 -2.68977 0
M  V30 3513 H 347.557 -4.53824 -1.35428 0
M  V30 3514 H 347.981 -6.76997 0.0202939 0
M  V30 3515 H 352.623 -4.08589 -1.08695 0
M  V30 3516 H 350.341 -8.01896 0.999459 0
M  V30 3517 H 353.927 -5.81706 0.104705 0
M  V30 3518 H 352.807 -7.75971 1.13309 0
M  V30 3519 N 350.31 0.590341 -1.46126 0
M  V30 3520 C 351.257 1.69994 -1.56111 0
M  V30 3521 C 352.227 1.61065 -0.405867 0
M  V30 3522 O 353.412 1.8039 -0.621613 0
M  V30 3523 C 350.552 3.08326 -1.55013 0
M  V30 3524 C 349.665 3.27936 -2.81215 0
M  V30 3525 C 348.8 4.56473 -2.71673 0
M  V30 3526 C 347.839 4.694 -3.92849 0
M  V30 3527 N 346.976 5.89254 -3.81738 0
M  V30 3528 H 351.816 1.60797 -2.50895 0
M  V30 3529 H 349.353 0.783799 -1.24479 0
M  V30 3530 H 351.311 3.88383 -1.52362 0
M  V30 3531 H 349.941 3.16439 -0.637667 0
M  V30 3532 H 348.993 2.41536 -2.93879 0
M  V30 3533 H 350.305 3.33357 -3.71045 0
M  V30 3534 H 349.459 5.44748 -2.67085 0
M  V30 3535 H 348.198 4.53477 -1.7947 0
M  V30 3536 H 347.203 3.79544 -3.97777 0
M  V30 3537 H 348.428 4.7418 -4.86138 0
M  V30 3538 H 346.374 5.87271 -2.92317 0
M  V30 3539 H 346.291 5.95911 -4.65217 0
M  V30 3540 H 347.559 6.79981 -3.81112 0
M  V30 3541 N 351.788 1.33704 0.83433 0
M  V30 3542 C 352.735 1.24335 1.94447 0
M  V30 3543 C 353.705 0.120991 1.65659 0
M  V30 3544 O 354.89 0.300035 1.88426 0
M  V30 3545 C 352.03 0.993124 3.30501 0
M  V30 3546 C 351.143 2.20217 3.71657 0
M  V30 3547 C 350.278 1.88572 4.96602 0
M  V30 3548 C 349.317 3.05683 5.30306 0
M  V30 3549 N 348.454 2.73997 6.46429 0
M  V30 3550 H 353.294 2.1928 2.01792 0
M  V30 3551 H 350.831 1.09035 0.987404 0
M  V30 3552 H 352.789 0.828467 4.08892 0
M  V30 3553 H 351.419 0.0803902 3.227 0
M  V30 3554 H 350.471 2.47642 2.88752 0
M  V30 3555 H 351.783 3.07752 3.92543 0
M  V30 3556 H 350.937 1.68776 5.82752 0
M  V30 3557 H 349.676 0.982799 4.77695 0
M  V30 3558 H 348.681 3.26088 4.42659 0
M  V30 3559 H 349.906 3.96737 5.51159 0
M  V30 3560 H 347.852 1.86268 6.28999 0
M  V30 3561 H 347.769 3.55064 6.67432 0
M  V30 3562 H 349.037 2.57679 7.35678 0
M  V30 3563 N 353.266 -1.05314 1.17247 0
M  V30 3564 C 354.512 -1.78557 0.961513 0
M  V30 3565 C 354.845 -1.87419 -0.508697 0
M  V30 3566 O 354.12 -1.37307 -1.37757 0
M  V30 3567 C 354.403 -3.22514 1.60176 0
M  V30 3568 C 354.256 -3.21673 3.14399 0
M  V30 3569 C 355.575 -4.20318 1.30463 0
M  V30 3570 H 352.694 -0.6482 0.350723 0
M  V30 3571 H 355.336 -1.23102 1.44727 0
M  V30 3572 H 353.486 -3.69867 1.18871 0
M  V30 3573 H 355.158 -2.82405 3.64753 0
M  V30 3574 H 353.401 -2.60048 3.47214 0
M  V30 3575 H 354.072 -4.23271 3.54324 0
M  V30 3576 H 356.548 -3.81454 1.66229 0
M  V30 3577 H 355.424 -5.19289 1.77848 0
M  V30 3578 H 355.685 -4.41526 0.22521 0
M  V30 3579 N 354.744 -0.972509 -1.24016 0
M  V30 3580 C 355.674 -0.525548 -2.27509 0
M  V30 3581 C 356.655 0.437262 -1.64384 0
M  V30 3582 O 357.84 0.332343 -1.91335 0
M  V30 3583 C 354.97 0.180448 -3.46831 0
M  V30 3584 C 353.924 -0.698859 -4.22256 0
M  V30 3585 C 353.25 0.138903 -5.3452 0
M  V30 3586 C 354.55 -1.98582 -4.83076 0
M  V30 3587 H 356.244 -1.39058 -2.65148 0
M  V30 3588 H 353.79 -0.67009 -1.27459 0
M  V30 3589 H 355.743 0.504387 -4.18371 0
M  V30 3590 H 354.467 1.07987 -3.08231 0
M  V30 3591 H 353.126 -1.00614 -3.52523 0
M  V30 3592 H 352.774 1.03862 -4.9216 0
M  V30 3593 H 352.474 -0.446259 -5.85903 0
M  V30 3594 H 353.998 0.457404 -6.08884 0
M  V30 3595 H 355.412 -1.72715 -5.46665 0
M  V30 3596 H 353.809 -2.5181 -5.44713 0
M  V30 3597 H 354.879 -2.67769 -4.04262 0
M  V30 3598 N 356.222 1.38976 -0.743202 0
M  V30 3599 C 357.633 1.83123 -0.363732 0
M  V30 3600 C 357.984 1.6205 1.10609 0
M  V30 3601 O 357.109 1.11606 1.854 0
M  V30 3602 C 357.704 3.32439 -0.653408 0
M  V30 3603 C 356.263 3.74974 -0.327338 0
M  V30 3604 C 355.41 2.61878 -0.911875 0
M  V30 3605 H 358.361 1.27852 -0.940191 0
M  V30 3606 H 358.382 3.80432 0.0720031 0
M  V30 3607 H 357.894 3.47745 -1.72323 0
M  V30 3608 H 355.995 3.65252 0.736314 0
M  V30 3609 H 356.108 4.72106 -0.815631 0
M  V30 3610 H 354.472 2.52448 -0.337944 0
M  V30 3611 H 355.255 2.79987 -1.98651 0
M  V30 3612 N 357.7 0.491464 1.49741 0
M  V30 3613 C 358.93 -0.0534375 2.06531 0
M  V30 3614 C 359.338 -1.32233 1.35318 0
M  V30 3615 O 358.681 -1.78781 0.422243 0
M  V30 3616 C 358.743 -0.387034 3.57411 0
M  V30 3617 C 358.407 0.782764 4.50246 0
M  V30 3618 C 359.404 1.67059 4.92329 0
M  V30 3619 C 357.089 0.978866 4.9267 0
M  V30 3620 C 359.083 2.73874 5.75562 0
M  V30 3621 C 356.77 2.05022 5.75682 0
M  V30 3622 C 357.768 2.92851 6.17031 0
M  V30 3623 O 357.456 3.98138 6.98385 0
M  V30 3624 H 357.188 0.0129324 0.675876 0
M  V30 3625 H 359.742 0.685238 1.93633 0
M  V30 3626 H 357.972 -1.17918 3.68283 0
M  V30 3627 H 359.661 -0.869419 3.96479 0
M  V30 3628 H 360.427 1.53086 4.60206 0
M  V30 3629 H 356.306 0.304646 4.59992 0
M  V30 3630 H 359.85 3.42458 6.07757 0
M  V30 3631 H 355.747 2.18993 6.07217 0
M  V30 3632 H 356.515 3.95374 7.16674 0
M  V30 3633 N 359.178 -1.55987 0.224894 0
M  V30 3634 C 360.108 -2.23426 -0.678457 0
M  V30 3635 C 361.089 -1.20709 -1.19847 0
M  V30 3636 O 362.274 -1.49304 -1.24186 0
M  V30 3637 C 359.404 -2.91676 -1.88527 0
M  V30 3638 C 358.358 -4.00893 -1.49896 0
M  V30 3639 C 357.684 -4.56455 -2.78483 0
M  V30 3640 C 358.984 -5.17769 -0.686461 0
M  V30 3641 H 360.678 -2.99175 -0.116173 0
M  V30 3642 H 358.224 -1.43897 -0.054436 0
M  V30 3643 H 360.177 -3.37547 -2.5227 0
M  V30 3644 H 358.901 -2.1338 -2.47258 0
M  V30 3645 H 357.56 -3.55758 -0.884985 0
M  V30 3646 H 357.208 -3.74886 -3.35365 0
M  V30 3647 H 356.908 -5.30169 -2.53368 0
M  V30 3648 H 358.432 -5.05047 -3.43162 0
M  V30 3649 H 359.846 -5.60001 -1.22767 0
M  V30 3650 H 358.243 -5.97735 -0.532259 0
M  V30 3651 H 359.313 -4.83932 0.306196 0
M  V30 3652 N 360.656 0.0484629 -1.57525 0
M  V30 3653 C 361.603 1.05504 -2.05275 0
M  V30 3654 C 362.573 1.37084 -0.937927 0
M  V30 3655 O 363.758 1.47754 -1.2072 0
M  V30 3656 C 360.898 2.35676 -2.52093 0
M  V30 3657 C 360.011 2.10423 -3.77288 0
M  V30 3658 C 359.146 3.34327 -4.12794 0
M  V30 3659 C 358.185 3.04542 -5.30962 0
M  V30 3660 N 357.322 4.20841 -5.61994 0
M  V30 3661 H 362.162 0.640885 -2.91027 0
M  V30 3662 H 359.699 0.304854 -1.43906 0
M  V30 3663 H 361.657 3.11709 -2.77297 0
M  V30 3664 H 360.287 2.7485 -1.69285 0
M  V30 3665 H 359.339 1.24976 -3.59284 0
M  V30 3666 H 360.651 1.84438 -4.63448 0
M  V30 3667 H 359.805 4.1874 -4.39024 0
M  V30 3668 H 358.544 3.63408 -3.25247 0
M  V30 3669 H 357.549 2.18528 -5.04505 0
M  V30 3670 H 358.774 2.76758 -6.20146 0
M  V30 3671 H 356.72 4.4991 -4.77406 0
M  V30 3672 H 356.637 3.98212 -6.42622 0
M  V30 3673 H 357.905 5.06184 -5.92789 0
M  V30 3674 N 362.134 1.5431 0.320358 0
M  V30 3675 C 363.382 1.72327 1.05583 0
M  V30 3676 C 363.703 0.50149 1.88441 0
M  V30 3677 O 362.973 -0.48448 1.89815 0
M  V30 3678 H 361.553 0.635387 0.3928 0
M  V30 3679 H 364.215 1.91621 0.356019 0
M  V30 3680 H 363.311 2.60426 1.72003 0
M  V30 3681 N 363.613 -0.582584 1.46437 0
M  V30 3682 C 364.862 -1.337 1.5102 0
M  V30 3683 C 365.175 -1.94891 0.166359 0
M  V30 3684 O 366.381 -2.71351 0.0899954 0
M  V30 3685 C 364.837 -2.42315 2.66104 0
M  V30 3686 C 364.445 -1.87427 4.06909 0
M  V30 3687 C 366.189 -3.19099 2.79958 0
M  V30 3688 C 364.096 -2.93672 5.13333 0
M  V30 3689 H 363.026 -0.502619 0.562041 0
M  V30 3690 H 365.677 -0.621701 1.72647 0
M  V30 3691 H 364.059 -3.16645 2.37807 0
M  V30 3692 H 365.233 -1.19639 4.44998 0
M  V30 3693 H 363.548 -1.2331 3.97723 0
M  V30 3694 H 366.145 -3.9839 3.56636 0
M  V30 3695 H 366.488 -3.71695 1.87479 0
M  V30 3696 H 367.021 -2.51875 3.07902 0
M  V30 3697 H 363.76 -2.45962 6.07604 0
M  V30 3698 H 363.28 -3.59948 4.79789 0
M  V30 3699 H 364.959 -3.5762 5.39182 0
M  V30 3700 N 365.091 -1.34144 -0.827227 0
M  V30 3701 C 366.331 -1.27603 -1.59677 0
M  V30 3702 C 366.695 0.153035 -1.91389 0
M  V30 3703 O 367.896 0.342566 -2.66608 0
M  V30 3704 C 366.167 -2.13784 -2.86411 0
M  V30 3705 S 367.726 -2.24552 -3.76991 0
M  V30 3706 H 364.544 -0.453789 -0.547354 0
M  V30 3707 H 367.146 -1.69309 -0.977479 0
M  V30 3708 H 365.85 -3.16627 -2.61104 0
M  V30 3709 H 365.381 -1.72959 -3.5334 0
M  V30 3710 H 367.396 -1.41514 -4.75593 0
M  V30 3711 N 366.569 1.04691 -1.17803 0
M  V30 3712 C 367.794 1.81984 -0.994813 0
M  V30 3713 C 368.219 1.82586 0.452112 0
M  V30 3714 O 367.577 1.23854 1.324 0
M  V30 3715 C 367.625 3.2575 -1.54659 0
M  V30 3716 O 366.729 4.05267 -0.763728 0
M  V30 3717 H 366.07 0.562483 -0.352857 0
M  V30 3718 H 368.6 1.3189 -1.56417 0
M  V30 3719 H 368.61 3.76541 -1.57102 0
M  V30 3720 H 367.285 3.24627 -2.59981 0
M  V30 3721 H 365.862 3.63972 -0.811108 0
M  V30 3722 N 368.047 0.979072 1.23499 0
M  V30 3723 C 369.295 0.645941 1.91499 0
M  V30 3724 C 369.616 -0.822948 1.76784 0
M  V30 3725 O 368.886 -1.58854 1.14639 0
M  V30 3726 H 367.466 0.235919 0.708767 0
M  V30 3727 H 370.128 1.2426 1.50152 0
M  V30 3728 H 369.224 0.896411 2.9895 0
M  V30 3729 N 369.525 -1.3858 0.750561 0
M  V30 3730 C 370.773 -1.99789 0.30477 0
M  V30 3731 C 371.094 -1.59874 -1.11649 0
M  V30 3732 O 370.364 -0.85417 -1.76297 0
M  V30 3733 H 368.944 -0.738902 0.109694 0
M  V30 3734 H 371.606 -1.69391 0.963983 0
M  V30 3735 H 370.702 -3.09952 0.365499 0
M  V30 3736 N 371.003 -0.499398 -1.49478 0
M  V30 3737 C 372.251 0.0455996 -2.02049 0
M  V30 3738 C 372.572 1.37633 -1.38138 0
M  V30 3739 O 371.842 1.8842 -0.536166 0
M  V30 3740 H 370.422 0.0198416 -0.746736 0
M  V30 3741 H 373.084 -0.656274 -1.83519 0
M  V30 3742 H 372.18 0.176445 -3.11601 0
M  V30 3743 N 372.481 1.55866 -0.233164 0
M  V30 3744 C 373.729 1.9821 0.394593 0
M  V30 3745 C 374.05 1.12234 1.59463 0
M  V30 3746 O 373.32 0.201981 1.94856 0
M  V30 3747 H 371.9 0.732034 0.148778 0
M  V30 3748 H 374.562 1.92107 -0.32876 0
M  V30 3749 H 373.658 3.03845 0.713063 0
M  V30 3750 N 373.959 -0.0401083 1.57549 0
M  V30 3751 C 375.236 -0.767917 1.79896 0
M  V30 3752 C 375.616 -1.9416 0.82856 0
M  V30 3753 O 374.964 -2.2812 -0.131671 0
M  V30 3754 C 375.174 -1.2113 3.27305 0
M  V30 3755 C 376.522 -1.63175 3.91994 0
M  V30 3756 O 377.546 -1.30616 3.31388 0
M  V30 3757 O 376.405 -2.23565 4.98679 0
M  V30 3758 H 373.499 -0.370441 0.739393 0
M  V30 3759 H 376.045 -0.017737 1.69691 0
M  V30 3760 H 374.817 -0.372937 3.89519 0
M  V30 3761 H 374.44 -2.02183 3.42356 0
M  V30 3762 N 375.437 -1.54477 -0.31217 0
M  V30 3763 C 376.848 -1.64344 -0.885891 0
M  V30 3764 C 377.199 -0.54485 -1.88483 0
M  V30 3765 O 376.324 0.320387 -2.14015 0
M  V30 3766 C 376.919 -2.97908 -1.61357 0
M  V30 3767 C 375.478 -3.09933 -2.13585 0
M  V30 3768 C 374.625 -2.59971 -0.964897 0
M  V30 3769 H 377.576 -1.58448 -0.0894528 0
M  V30 3770 H 377.597 -2.88706 -2.47848 0
M  V30 3771 H 377.109 -3.77845 -0.886277 0
M  V30 3772 H 375.21 -2.34694 -2.89395 0
M  V30 3773 H 375.323 -4.15916 -2.37804 0
M  V30 3774 H 373.687 -2.16147 -1.34731 0
M  V30 3775 H 374.47 -3.42376 -0.251742 0
M  V30 3776 N 376.915 0.57481 -1.46744 0
M  V30 3777 C 377.825 1.711 -1.60505 0
M  V30 3778 C 378.841 1.67008 -0.488307 0
M  V30 3779 O 380.017 1.86774 -0.753495 0
M  V30 3780 C 377.082 3.07608 -1.59932 0
M  V30 3781 C 376.143 3.22904 -2.82898 0
M  V30 3782 C 375.376 4.529 -2.82343 0
M  V30 3783 O 375.599 5.37278 -1.91542 0
M  V30 3784 O 374.533 4.71611 -3.73987 0
M  V30 3785 H 378.359 1.62436 -2.56609 0
M  V30 3786 H 375.944 0.742779 -1.29627 0
M  V30 3787 H 377.826 3.88877 -1.62336 0
M  V30 3788 H 376.501 3.16692 -0.669898 0
M  V30 3789 H 375.408 2.41099 -2.86046 0
M  V30 3790 H 376.741 3.18715 -3.75076 0
M  V30 3791 N 378.394 1.34581 0.820102 0
M  V30 3792 C 379.81 1.14325 1.11364 0
M  V30 3793 C 380.01 -0.0533648 2.01429 0
M  V30 3794 O 379.066 -0.728044 2.41776 0
M  V30 3795 C 380.379 2.43983 1.75764 0
M  V30 3796 C 381.927 2.50065 1.88246 0
M  V30 3797 C 382.402 3.79732 2.56061 0
M  V30 3798 N 383.893 3.80908 2.63558 0
M  V30 3799 C 384.628 4.77961 3.16766 0
M  V30 3800 N 384.124 5.85397 3.70517 0
M  V30 3801 N 385.917 4.65413 3.15194 0
M  V30 3802 H 378.068 2.11246 0.221096 0
M  V30 3803 H 380.331 0.934289 0.160649 0
M  V30 3804 H 380.037 3.31651 1.1705 0
M  V30 3805 H 379.911 2.57531 2.75604 0
M  V30 3806 H 382.298 1.62834 2.46108 0
M  V30 3807 H 382.379 2.40442 0.873006 0
M  V30 3808 H 382.023 4.67354 1.98853 0
M  V30 3809 H 381.953 3.86639 3.57516 0
M  V30 3810 H 384.444 3.03274 2.25463 0
M  V30 3811 H 384.757 6.55463 4.09376 0
M  V30 3812 H 383.102 5.89107 3.68752 0
M  V30 3813 H 386.293 3.80627 2.72471 0
M  V30 3814 H 386.466 5.41216 3.56356 0
M  V30 3815 N 379.872 -1.04064 1.18357 0
M  V30 3816 C 381.118 -1.77528 0.980397 0
M  V30 3817 C 381.451 -1.87948 -0.48879 0
M  V30 3818 O 380.726 -1.3876 -1.36293 0
M  V30 3819 C 381.009 -3.20797 1.63588 0
M  V30 3820 C 380.862 -3.1832 3.17793 0
M  V30 3821 C 382.181 -4.18911 1.34914 0
M  V30 3822 H 379.3 -0.644443 0.357578 0
M  V30 3823 H 381.942 -1.2156 1.46024 0
M  V30 3824 H 380.092 -3.68586 1.22788 0
M  V30 3825 H 381.764 -2.78521 3.67728 0
M  V30 3826 H 380.007 -2.56351 3.49952 0
M  V30 3827 H 380.678 -4.19489 3.58794 0
M  V30 3828 H 383.154 -3.7967 1.70265 0
M  V30 3829 H 382.03 -5.17374 1.83346 0
M  V30 3830 H 382.291 -4.41262 0.272027 0
M  V30 3831 N 381.35 -0.985608 -1.22978 0
M  V30 3832 C 382.627 -0.573599 -1.87001 0
M  V30 3833 C 383.007 0.949213 -1.88555 0
M  V30 3834 O 382.355 1.82811 -1.37086 0
M  V30 3835 C 382.565 -1.18564 -3.28243 0
M  V30 3836 C 383.913 -1.28163 -4.04796 0
M  V30 3837 O 384.937 -1.13949 -3.37482 0
M  V30 3838 O 383.796 -1.50832 -5.25273 0
M  V30 3839 H 380.89 -0.193868 -0.803955 0
M  V30 3840 H 383.436 -1.08102 -1.30813 0
M  V30 3841 H 382.208 -2.22758 -3.21706 0
M  V30 3842 H 381.831 -0.663363 -3.92027 0
M  V30 3843 N 382.828 1.3818 -0.7579 0
M  V30 3844 C 384.244 1.5353 -0.435972 0
M  V30 3845 C 384.444 1.71961 1.05032 0
M  V30 3846 O 383.5 1.73307 1.83633 0
M  V30 3847 C 384.813 2.73989 -1.23898 0
M  V30 3848 C 386.361 2.87841 -1.22949 0
M  V30 3849 C 386.836 4.11266 -2.01554 0
M  V30 3850 N 388.327 4.18352 -1.98837 0
M  V30 3851 C 389.062 5.12856 -2.5645 0
M  V30 3852 N 388.558 6.13005 -3.22794 0
M  V30 3853 N 390.351 5.05238 -2.46356 0
M  V30 3854 H 382.502 1.24467 -1.7211 0
M  V30 3855 H 384.765 0.604982 -0.729864 0
M  V30 3856 H 384.471 2.66789 -2.29165 0
M  V30 3857 H 384.345 3.67294 -0.858764 0
M  V30 3858 H 386.732 2.9452 -0.184854 0
M  V30 3859 H 386.813 1.95534 -1.64924 0
M  V30 3860 H 386.457 4.05349 -3.06031 0
M  V30 3861 H 386.387 5.02661 -1.5697 0
M  V30 3862 H 388.878 3.46628 -1.50524 0
M  V30 3863 H 389.191 6.81619 -3.64165 0
M  V30 3864 H 387.536 6.13325 -3.2689 0
M  V30 3865 H 390.727 4.25938 -1.9415 0
M  V30 3866 H 390.9 5.78707 -2.91552 0
M  V30 3867 N 384.306 0.507319 1.49211 0
M  V30 3868 C 385.531 -0.033725 2.07373 0
M  V30 3869 C 385.956 -1.29485 1.36437 0
M  V30 3870 O 385.314 -1.76294 0.423087 0
M  V30 3871 C 385.362 -0.263945 3.59633 0
M  V30 3872 O 384.466 -1.33737 3.90113 0
M  V30 3873 H 383.807 0.0290331 0.663365 0
M  V30 3874 H 386.337 0.708749 1.91932 0
M  V30 3875 H 386.347 -0.493536 4.05004 0
M  V30 3876 H 385.022 0.657424 4.10671 0
M  V30 3877 H 383.599 -1.09224 3.56545 0
M  V30 3878 N 385.784 -1.5574 0.241426 0
M  V30 3879 C 387.009 -2.0366 -0.392111 0
M  V30 3880 C 387.434 -1.11969 -1.51144 0
M  V30 3881 O 386.792 -0.111594 -1.80956 0
M  V30 3882 C 386.84 -3.49638 -0.882371 0
M  V30 3883 O 385.944 -3.6108 -1.99235 0
M  V30 3884 H 385.285 -0.658379 -0.0862122 0
M  V30 3885 H 387.815 -2.01302 0.365881 0
M  V30 3886 H 387.825 -3.90351 -1.18702 0
M  V30 3887 H 386.5 -4.15852 -0.0632361 0
M  V30 3888 H 385.077 -3.32262 -1.69282 0
M  V30 3889 N 387.262 0.0317525 -1.57568 0
M  V30 3890 C 388.194 1.06073 -2.03178 0
M  V30 3891 C 389.207 1.32627 -0.944132 0
M  V30 3892 O 390.396 1.30162 -1.22148 0
M  V30 3893 C 387.496 2.40297 -2.38978 0
M  V30 3894 C 386.669 2.33137 -3.70089 0
M  V30 3895 C 385.728 3.49787 -3.9311 0
M  V30 3896 O 384.754 3.29403 -4.64201 0
M  V30 3897 N 385.956 4.71562 -3.38541 0
M  V30 3898 H 388.721 0.672006 -2.92069 0
M  V30 3899 H 386.282 0.219745 -1.60402 0
M  V30 3900 H 388.274 3.1705 -2.51518 0
M  V30 3901 H 386.844 2.71024 -1.55771 0
M  V30 3902 H 386.064 1.415 -3.67928 0
M  V30 3903 H 387.352 2.25493 -4.56104 0
M  V30 3904 H 386.75 4.91024 -2.80912 0
M  V30 3905 H 385.307 5.45689 -3.56464 0
M  V30 3906 N 388.74 1.54641 0.303973 0
M  V30 3907 C 390.156 1.45788 0.649463 0
M  V30 3908 C 390.356 0.64666 1.90842 0
M  V30 3909 O 389.412 0.153183 2.52035 0
M  V30 3910 C 390.725 2.89718 0.805227 0
M  V30 3911 C 392.273 2.99742 0.901305 0
M  V30 3912 C 392.748 4.44863 1.08909 0
M  V30 3913 N 394.239 4.48559 1.15536 0
M  V30 3914 C 394.974 5.58026 1.3189 0
M  V30 3915 N 394.47 6.77422 1.45161 0
M  V30 3916 N 396.263 5.45708 1.34755 0
M  V30 3917 H 388.414 2.05854 -0.523237 0
M  V30 3918 H 390.677 0.932186 -0.172431 0
M  V30 3919 H 390.383 3.51666 -0.0489108 0
M  V30 3920 H 390.257 3.36964 1.69513 0
M  V30 3921 H 392.644 2.3791 1.74593 0
M  V30 3922 H 392.725 2.55797 -0.0125531 0
M  V30 3923 H 392.369 5.07288 0.249241 0
M  V30 3924 H 392.299 4.86436 2.01713 0
M  V30 3925 H 394.79 3.6254 1.06646 0
M  V30 3926 H 395.103 7.56604 1.57387 0
M  V30 3927 H 393.448 6.80292 1.42223 0
M  V30 3928 H 396.639 4.51378 1.23996 0
M  V30 3929 H 396.812 6.3107 1.47157 0
M  V30 3930 N 390.218 -0.567019 1.47046 0
M  V30 3931 C 391.629 -1.14916 1.47143 0
M  V30 3932 C 391.98 -1.94954 0.220767 0
M  V30 3933 O 391.105 -2.05602 -0.67505 0
M  V30 3934 C 391.7 -2.09069 2.666 0
M  V30 3935 C 390.259 -2.62575 2.69687 0
M  V30 3936 C 389.406 -1.38755 2.40088 0
M  V30 3937 H 392.357 -0.354126 1.54699 0
M  V30 3938 H 392.378 -2.92789 2.43011 0
M  V30 3939 H 391.89 -1.50789 3.57609 0
M  V30 3940 H 389.991 -3.24681 1.82792 0
M  V30 3941 H 390.104 -3.04239 3.70102 0
M  V30 3942 H 388.468 -1.69098 1.90468 0
M  V30 3943 H 389.251 -0.822822 3.33293 0
M  V30 3944 N 391.696 -1.35014 -0.812953 0
M  V30 3945 C 392.944 -1.27678 -1.56661 0
M  V30 3946 C 393.265 0.150359 -1.94419 0
M  V30 3947 O 392.535 1.08532 -1.63088 0
M  V30 3948 H 391.115 -0.469602 -0.580933 0
M  V30 3949 H 393.777 -1.69043 -0.970076 0
M  V30 3950 H 392.873 -1.88833 -2.48492 0
M  V30 3951 N 393.175 1.03435 -1.18907 0
M  V30 3952 C 394.138 2.09756 -0.923844 0
M  V30 3953 C 395.138 1.60528 0.093416 0
M  V30 3954 O 396.328 1.73631 -0.140727 0
M  V30 3955 C 393.46 3.38692 -0.387354 0
M  V30 3956 H 394.653 2.34719 -1.86674 0
M  V30 3957 H 392.206 1.19959 -1.00197 0
M  V30 3958 H 392.941 3.19396 0.561845 0
M  V30 3959 H 392.726 3.75742 -1.12074 0
M  V30 3960 H 394.216 4.17016 -0.220694 0
M  V30 3961 N 394.653 0.992116 1.22453 0
M  V30 3962 C 395.563 0.55065 2.28046 0
M  V30 3963 C 396.579 -0.400189 1.69335 0
M  V30 3964 O 397.755 -0.267215 1.99619 0
M  V30 3965 C 394.82 -0.128496 3.46462 0
M  V30 3966 C 393.881 0.865208 4.20491 0
M  V30 3967 C 393.114 0.218377 5.33253 0
M  V30 3968 O 393.337 -0.987894 5.6178 0
M  V30 3969 O 392.271 0.922845 5.94783 0
M  V30 3970 H 396.097 1.4291 2.67975 0
M  V30 3971 H 393.682 0.760326 1.28606 0
M  V30 3972 H 395.564 -0.508947 4.18315 0
M  V30 3973 H 394.239 -0.981526 3.0846 0
M  V30 3974 H 393.146 1.29658 3.50913 0
M  V30 3975 H 394.479 1.68741 4.62371 0
M  V30 3976 N 396.131 -1.37776 0.765217 0
M  V30 3977 C 397.408 -1.93975 0.251596 0
M  V30 3978 C 397.788 -1.69949 -1.25222 0
M  V30 3979 O 397.136 -1.04457 -2.03226 0
M  V30 3980 C 397.346 -3.43487 0.617895 0
M  V30 3981 C 398.694 -4.20564 0.584029 0
M  V30 3982 O 399.718 -3.5182 0.556888 0
M  V30 3983 O 398.577 -5.43138 0.605291 0
M  V30 3984 H 395.671 -0.82509 0.0561806 0
M  V30 3985 H 398.217 -1.47101 0.846128 0
M  V30 3986 H 396.989 -3.5453 1.65602 0
M  V30 3987 H 396.612 -3.976 -0.00403411 0
M  V30 3988 N 397.609 -0.515225 -1.4894 0
M  V30 3989 C 398.557 0.269115 -2.31038 0
M  V30 3990 C 399.551 0.949443 -1.40292 0
M  V30 3991 O 400.757 0.87551 -1.57273 0
M  V30 3992 H 397.132 0.10565 -0.744542 0
M  V30 3993 H 399.103 -0.443096 -2.95092 0
M  V30 3994 C 397.852 1.31213 -3.21991 0
M  V30 3995 H 397.175 0.798034 -3.91754 0
M  V30 3996 H 398.615 1.83263 -3.82349 0
M  V30 3997 C 397.074 2.33791 -2.42576 0
M  V30 3998 O 397.604 3.3995 -2.14003 0
M  V30 3999 N 395.81 2.06625 -2.0434 0
M  V30 4000 H 395.357 1.20314 -2.27777 0
M  V30 4001 H 395.315 2.75483 -1.51514 0
M  V30 4002 N 399.087 1.5561 -0.249682 0
M  V30 4003 C 400.333 1.99306 0.374841 0
M  V30 4004 C 400.666 1.13767 1.57387 0
M  V30 4005 O 399.941 0.201711 1.93451 0
M  V30 4006 C 400.224 3.51507 0.781986 0
M  V30 4007 C 400.077 4.4781 -0.422629 0
M  V30 4008 C 401.396 4.08884 1.62793 0
M  V30 4009 H 398.515 0.724572 0.134773 0
M  V30 4010 H 401.157 1.86719 -0.351549 0
M  V30 4011 H 399.307 3.62363 1.4009 0
M  V30 4012 H 400.979 4.48931 -1.06108 0
M  V30 4013 H 399.222 4.20518 -1.06524 0
M  V30 4014 H 399.893 5.51919 -0.0943766 0
M  V30 4015 H 402.369 4.01147 1.10547 0
M  V30 4016 H 401.245 5.1564 1.88166 0
M  V30 4017 H 401.506 3.57515 2.60068 0
M  V30 4018 N 400.565 -0.0233959 1.57583 0
M  V30 4019 C 401.495 -1.02162 2.09965 0
M  V30 4020 C 402.476 -1.3735 1.00344 0
M  V30 4021 O 403.661 -1.46135 1.27899 0
M  V30 4022 C 400.791 -2.32081 2.58371 0
M  V30 4023 C 399.745 -2.1112 3.72307 0
M  V30 4024 C 399.071 -3.46848 4.06941 0
M  V30 4025 C 400.371 -1.49276 5.00514 0
M  V30 4026 H 402.065 -0.585557 2.93618 0
M  V30 4027 H 399.611 -0.280218 1.41247 0
M  V30 4028 H 401.564 -3.02249 2.93639 0
M  V30 4029 H 400.288 -2.77758 1.71808 0
M  V30 4030 H 398.947 -1.43384 3.37397 0
M  V30 4031 H 398.595 -3.90184 3.17436 0
M  V30 4032 H 398.295 -3.33646 4.83688 0
M  V30 4033 H 399.819 -4.18369 4.44747 0
M  V30 4034 H 401.233 -2.09368 5.33702 0
M  V30 4035 H 399.63 -1.46632 5.8191 0
M  V30 4036 H 400.7 -0.459217 4.82721 0
M  V30 4037 N 402.043 -1.548 -0.295768 0
M  V30 4038 C 402.991 -1.86874 -1.38495 0
M  V30 4039 C 403.985 -0.742938 -1.52239 0
M  V30 4040 O 405.191 -0.926999 -1.54294 0
M  V30 4041 H 401.566 -0.592786 -0.462719 0
M  V30 4042 H 403.537 -2.77904 -1.08682 0
M  V30 4043 C 402.286 -2.13732 -2.74252 0
M  V30 4044 H 401.609 -2.99835 -2.64459 0
M  V30 4045 H 403.049 -2.4011 -3.49461 0
M  V30 4046 C 401.508 -0.937539 -3.23592 0
M  V30 4047 O 402.038 -0.160665 -4.01379 0
M  V30 4048 N 400.244 -0.741478 -2.80981 0
M  V30 4049 H 399.791 -1.37489 -2.1784 0
M  V30 4050 H 399.749 0.0597103 -3.14343 0
M  V30 4051 N 403.521 0.559213 -1.47345 0
M  V30 4052 C 404.431 1.69388 -1.62311 0
M  V30 4053 C 405.447 1.6648 -0.505993 0
M  V30 4054 O 406.623 1.85964 -0.773262 0
M  V30 4055 C 403.688 3.05894 -1.63185 0
M  V30 4056 C 402.749 3.19885 -2.86307 0
M  V30 4057 C 401.982 4.49879 -2.87131 0
M  V30 4058 O 402.205 5.35217 -1.97229 0
M  V30 4059 O 401.139 4.67618 -3.78968 0
M  V30 4060 H 404.965 1.59706 -2.58317 0
M  V30 4061 H 402.55 0.728989 -1.30407 0
M  V30 4062 H 404.432 3.87133 -1.66451 0
M  V30 4063 H 403.107 3.15964 -0.70345 0
M  V30 4064 H 402.014 2.38052 -2.88587 0
M  V30 4065 H 403.347 3.14718 -3.78435 0
M  V30 4066 N 404.999 1.35443 0.805782 0
M  V30 4067 C 406.248 1.28097 1.55801 0
M  V30 4068 C 406.561 -0.142428 1.95081 0
M  V30 4069 O 407.767 -0.33817 2.69386 0
M  V30 4070 C 406.223 2.24653 2.81174 0
M  V30 4071 C 405.831 3.72342 2.49129 0
M  V30 4072 C 407.575 2.2625 3.59181 0
M  V30 4073 C 405.482 4.60719 3.70799 0
M  V30 4074 H 404.412 0.475937 0.584808 0
M  V30 4075 H 407.063 1.60712 0.885661 0
M  V30 4076 H 405.445 1.85011 3.50124 0
M  V30 4077 H 406.619 4.20624 1.88181 0
M  V30 4078 H 404.934 3.73361 1.84366 0
M  V30 4079 H 407.531 2.89495 4.49552 0
M  V30 4080 H 407.874 1.26647 3.96568 0
M  V30 4081 H 408.407 2.64426 2.97193 0
M  V30 4082 H 405.146 5.61324 3.3852 0
M  V30 4083 H 404.666 4.17163 4.3097 0
M  V30 4084 H 406.345 4.76182 4.38018 0
M  V30 4085 N 406.477 -1.02803 1.19454 0
M  V30 4086 C 407.723 -1.76478 0.999171 0
M  V30 4087 C 408.056 -1.88456 -0.468828 0
M  V30 4088 O 407.331 -1.40198 -1.34814 0
M  V30 4089 C 407.614 -3.19044 1.66981 0
M  V30 4090 C 407.467 -3.14932 3.21151 0
M  V30 4091 C 408.786 -4.17456 1.39349 0
M  V30 4092 H 405.905 -0.640614 0.364393 0
M  V30 4093 H 408.547 -1.20005 1.47305 0
M  V30 4094 H 406.697 -3.67263 1.2669 0
M  V30 4095 H 408.369 -2.74605 3.70661 0
M  V30 4096 H 406.612 -2.52625 3.52652 0
M  V30 4097 H 407.283 -4.1566 3.63223 0
M  V30 4098 H 409.759 -3.77842 1.74283 0
M  V30 4099 H 408.635 -5.154 1.88823 0
M  V30 4100 H 408.896 -4.40949 0.318813 0
M  V30 4101 N 407.956 -0.998596 -1.21925 0
M  V30 4102 C 409.181 -0.696015 -1.95372 0
M  V30 4103 C 409.606 0.733826 -1.73195 0
M  V30 4104 O 408.964 1.50242 -1.01474 0
M  V30 4105 C 409.012 -1.01466 -3.4603 0
M  V30 4106 O 408.116 -0.116415 -4.12236 0
M  V30 4107 H 407.457 -0.259938 -0.611006 0
M  V30 4108 H 409.987 -1.33711 -1.54863 0
M  V30 4109 H 409.997 -0.958855 -3.96573 0
M  V30 4110 H 408.672 -2.05653 -3.61497 0
M  V30 4111 H 407.249 -0.228193 -3.72201 0
M  V30 4112 N 409.434 1.37368 -0.772513 0
M  V30 4113 C 410.683 1.98918 -0.333861 0
M  V30 4114 C 410.996 1.62017 1.09589 0
M  V30 4115 O 412.202 2.16676 1.63596 0
M  V30 4116 C 410.658 3.55735 -0.545971 0
M  V30 4117 C 410.266 4.01573 -1.98603 0
M  V30 4118 C 412.01 4.24156 -0.170979 0
M  V30 4119 C 409.917 5.51102 -2.1457 0
M  V30 4120 H 408.847 0.744214 -0.121085 0
M  V30 4121 H 411.498 1.56888 -0.95175 0
M  V30 4122 H 409.88 3.95748 0.141387 0
M  V30 4123 H 411.054 3.72803 -2.7084 0
M  V30 4124 H 409.369 3.45937 -2.31769 0
M  V30 4125 H 411.966 5.34024 -0.26878 0
M  V30 4126 H 412.309 4.06917 0.878855 0
M  V30 4127 H 412.842 3.89447 -0.810914 0
M  V30 4128 H 409.581 5.73268 -3.17875 0
M  V30 4129 H 409.101 5.81554 -1.46817 0
M  V30 4130 H 410.78 6.17083 -1.94468 0
M  V30 4131 N 410.912 0.523116 1.48665 0
M  V30 4132 C 411.842 -0.23231 2.32342 0
M  V30 4133 C 412.823 -0.941637 1.41659 0
M  V30 4134 O 414.008 -0.928751 1.70552 0
M  V30 4135 C 411.138 -1.28387 3.22698 0
M  V30 4136 C 410.092 -0.693098 4.22351 0
M  V30 4137 C 409.418 -1.8468 5.01794 0
M  V30 4138 C 410.718 0.33063 5.21252 0
M  V30 4139 H 412.412 0.466192 2.95748 0
M  V30 4140 H 409.958 0.225643 1.42221 0
M  V30 4141 H 411.911 -1.82024 3.80059 0
M  V30 4142 H 410.635 -2.01186 2.57278 0
M  V30 4143 H 409.294 -0.178299 3.66166 0
M  V30 4144 H 408.942 -2.56301 4.32804 0
M  V30 4145 H 408.642 -1.45747 5.69238 0
M  V30 4146 H 410.166 -2.38709 5.62006 0
M  V30 4147 H 411.58 -0.118407 5.73178 0
M  V30 4148 H 409.977 0.636974 5.9671 0
M  V30 4149 H 411.047 1.23883 4.68808 0
M  V30 4150 N 412.39 -1.55475 0.257931 0
M  V30 4151 C 413.322 -2.19192 -0.669881 0
M  V30 4152 C 414.335 -1.17148 -1.1305 0
M  V30 4153 O 415.524 -1.43959 -1.05537 0
M  V30 4154 C 412.624 -2.79016 -1.92363 0
M  V30 4155 C 411.797 -4.06586 -1.61265 0
M  V30 4156 C 410.856 -4.50622 -2.7171 0
M  V30 4157 O 409.882 -5.16765 -2.38627 0
M  V30 4158 N 411.084 -4.19325 -4.01431 0
M  V30 4159 H 413.849 -2.99441 -0.124635 0
M  V30 4160 H 411.41 -1.6171 0.0783311 0
M  V30 4161 H 413.402 -3.05427 -2.65511 0
M  V30 4162 H 411.972 -2.0286 -2.37837 0
M  V30 4163 H 411.192 -3.87646 -0.715811 0
M  V30 4164 H 412.48 -4.89737 -1.37967 0
M  V30 4165 H 411.878 -3.66247 -4.31138 0
M  V30 4166 H 410.435 -4.50547 -4.7101 0
M  V30 4167 N 413.868 0.0150385 -1.57593 0
M  V30 4168 C 415.279 0.559832 -1.78109 0
M  V30 4169 C 415.63 1.74814 -0.890756 0
M  V30 4170 O 414.755 2.16216 -0.0892482 0
M  V30 4171 C 415.35 1.02238 -3.23006 0
M  V30 4172 C 413.909 1.51258 -3.44671 0
M  V30 4173 C 413.056 0.456955 -2.73509 0
M  V30 4174 H 416.007 -0.211169 -1.57289 0
M  V30 4175 H 416.028 1.88912 -3.30292 0
M  V30 4176 H 415.54 0.157302 -3.87781 0
M  V30 4177 H 413.641 2.39905 -2.8509 0
M  V30 4178 H 413.754 1.55042 -4.5332 0
M  V30 4179 H 412.118 0.915196 -2.37689 0
M  V30 4180 H 412.901 -0.398896 -3.40975 0
M  V30 4181 N 415.346 1.54954 0.287554 0
M  V30 4182 C 416.574 1.78881 1.03967 0
M  V30 4183 C 416.989 0.554894 1.80462 0
M  V30 4184 O 416.346 -0.475676 1.76192 0
M  V30 4185 C 416.397 3.00488 2.0097 0
M  V30 4186 O 416.118 4.19113 1.27577 0
M  V30 4187 C 417.619 3.36907 2.88112 0
M  V30 4188 H 414.839 0.596259 0.307761 0
M  V30 4189 H 417.383 2.01937 0.322749 0
M  V30 4190 H 415.538 2.79601 2.68145 0
M  V30 4191 H 415.952 4.87765 1.92835 0
M  V30 4192 H 417.426 4.25205 3.52001 0
M  V30 4193 H 417.903 2.55659 3.57121 0
M  V30 4194 H 418.509 3.60001 2.26449 0
M  V30 4195 N 416.824 -0.551391 1.4764 0
M  V30 4196 C 417.756 -1.67333 1.56628 0
M  V30 4197 C 418.769 -1.56398 0.452045 0
M  V30 4198 O 419.958 -1.6325 0.721926 0
M  V30 4199 C 417.058 -3.05841 1.45994 0
M  V30 4200 C 416.231 -3.42472 2.72088 0
M  V30 4201 C 415.29 -4.60168 2.55209 0
M  V30 4202 O 414.316 -4.64458 3.2904 0
M  V30 4203 N 415.518 -5.57024 1.63416 0
M  V30 4204 H 418.283 -1.60066 2.53375 0
M  V30 4205 H 415.844 -0.738169 1.44093 0
M  V30 4206 H 417.836 -3.8242 1.32428 0
M  V30 4207 H 416.406 -3.07302 0.573071 0
M  V30 4208 H 415.626 -2.55284 3.00373 0
M  V30 4209 H 416.914 -3.63723 3.55785 0
M  V30 4210 H 416.312 -5.56319 1.02594 0
M  V30 4211 H 414.869 -6.32906 1.558 0
M  V30 4212 N 418.302 -1.35869 -0.798587 0
M  V30 4213 C 419.548 -1.2978 -1.55836 0
M  V30 4214 C 419.881 0.125322 -1.93795 0
M  V30 4215 O 419.156 1.07658 -1.61987 0
M  V30 4216 C 419.439 -2.21188 -2.84162 0
M  V30 4217 C 419.292 -3.72155 -2.52628 0
M  V30 4218 C 420.611 -2.11545 -3.85923 0
M  V30 4219 H 417.73 -0.472769 -0.565383 0
M  V30 4220 H 420.372 -1.66341 -0.918192 0
M  V30 4221 H 418.522 -1.90139 -3.38791 0
M  V30 4222 H 420.194 -4.13682 -2.04121 0
M  V30 4223 H 418.437 -3.92042 -1.85704 0
M  V30 4224 H 419.108 -4.31511 -3.44242 0
M  V30 4225 H 421.584 -2.38855 -3.40716 0
M  V30 4226 H 420.46 -2.77688 -4.73477 0
M  V30 4227 H 420.721 -1.09987 -4.282 0
M  V30 4228 N 419.78 1.02168 -1.19998 0
M  V30 4229 C 421.191 1.57135 -1.00825 0
M  V30 4230 C 421.542 1.91276 0.436818 0
M  V30 4231 O 420.667 1.71679 1.3174 0
M  V30 4232 C 421.262 2.85514 -1.82393 0
M  V30 4233 C 419.821 3.37027 -1.67601 0
M  V30 4234 C 418.968 2.10388 -1.80644 0
M  V30 4235 H 421.919 0.846106 -1.34264 0
M  V30 4236 H 421.94 3.56711 -1.32429 0
M  V30 4237 H 421.452 2.60634 -2.87561 0
M  V30 4238 H 419.553 3.66878 -0.650485 0
M  V30 4239 H 419.666 4.09572 -2.4857 0
M  V30 4240 H 418.03 2.22601 -1.23778 0
M  V30 4241 H 418.813 1.8794 -2.87286 0
M  V30 4242 N 421.258 1.00505 1.21394 0
M  V30 4243 C 422.168 0.574806 2.27449 0
M  V30 4244 C 423.184 -0.382206 1.6975 0
M  V30 4245 O 424.36 -0.246027 1.99892 0
M  V30 4246 C 421.425 -0.0917414 3.46579 0
M  V30 4247 C 420.486 0.909758 4.1955 0
M  V30 4248 C 419.719 0.274924 5.32991 0
M  V30 4249 O 419.942 -0.928254 5.62796 0
M  V30 4250 O 418.876 0.985877 5.93771 0
M  V30 4251 H 422.702 1.45744 2.66444 0
M  V30 4252 H 420.287 0.773923 1.27792 0
M  V30 4253 H 422.169 -0.464551 4.18832 0
M  V30 4254 H 420.844 -0.948755 3.09484 0
M  V30 4255 H 419.751 1.33372 3.49518 0
M  V30 4256 H 421.084 1.73636 4.60555 0
M  V30 4257 N 422.737 -1.36956 0.779787 0
M  V30 4258 C 423.669 -2.28833 0.129639 0
M  V30 4259 C 424.682 -1.4902 -0.655511 0
M  V30 4260 O 425.871 -1.71578 -0.492279 0
M  V30 4261 C 422.971 -3.2833 -0.839792 0
M  V30 4262 C 422.144 -4.3727 -0.10675 0
M  V30 4263 C 421.203 -5.16789 -0.990717 0
M  V30 4264 O 420.229 -5.67406 -0.451516 0
M  V30 4265 N 421.431 -5.32294 -2.3161 0
M  V30 4266 H 424.196 -2.85268 0.918803 0
M  V30 4267 H 421.757 -1.49019 0.632841 0
M  V30 4268 H 423.749 -3.78413 -1.43477 0
M  V30 4269 H 422.319 -2.72605 -1.52988 0
M  V30 4270 H 421.539 -3.88478 0.669216 0
M  V30 4271 H 422.827 -5.07229 0.399464 0
M  V30 4272 H 422.225 -4.92768 -2.77843 0
M  V30 4273 H 420.782 -5.85656 -2.86095 0
M  V30 4274 N 424.215 -0.530993 -1.48385 0
M  V30 4275 C 425.125 0.23503 -2.3342 0
M  V30 4276 C 426.141 0.93801 -1.46552 0
M  V30 4277 O 427.317 0.912745 -1.7953 0
M  V30 4278 C 424.382 1.26778 -3.22689 0
M  V30 4279 C 423.443 0.575038 -4.25431 0
M  V30 4280 C 422.676 1.55858 -5.10435 0
M  V30 4281 O 422.899 2.79129 -4.97437 0
M  V30 4282 O 421.833 1.09742 -5.91811 0
M  V30 4283 H 425.659 -0.461794 -3.00169 0
M  V30 4284 H 423.244 -0.291903 -1.46521 0
M  V30 4285 H 425.126 1.86457 -3.77904 0
M  V30 4286 H 423.801 1.94699 -2.586 0
M  V30 4287 H 422.708 -0.0622782 -3.74048 0
M  V30 4288 H 424.041 -0.062253 -4.92161 0
M  V30 4289 N 425.693 1.55336 -0.266172 0
M  V30 4290 C 426.626 2.18256 0.666296 0
M  V30 4291 C 427.604 1.14064 1.1588 0
M  V30 4292 O 428.788 1.42546 1.23341 0
M  V30 4293 C 425.915 2.79867 1.90768 0
M  V30 4294 C 424.961 3.97283 1.55141 0
M  V30 4295 S 425.794 5.31694 0.637313 0
M  V30 4296 C 426.95 5.96769 1.88727 0
M  V30 4297 H 427.183 2.97008 0.131647 0
M  V30 4298 H 424.716 1.54317 -0.0504869 0
M  V30 4299 H 426.674 3.15996 2.62025 0
M  V30 4300 H 425.335 2.01025 2.41346 0
M  V30 4301 H 424.528 4.3905 2.4749 0
M  V30 4302 H 424.13 3.6253 0.919113 0
M  V30 4303 H 426.422 6.15458 2.83227 0
M  V30 4304 H 427.365 6.91752 1.51276 0
M  V30 4305 H 427.773 5.26034 2.04814 0
M  V30 4306 N 427.171 -0.0066808 1.57599 0
M  V30 4307 C 428.081 -1.01671 2.11424 0
M  V30 4308 C 429.097 -1.38143 1.05795 0
M  V30 4309 O 430.273 -1.47011 1.37658 0
M  V30 4310 C 427.338 -2.29192 2.60139 0
M  V30 4311 C 426.399 -1.99094 3.80342 0
M  V30 4312 C 425.632 -3.20535 4.26724 0
M  V30 4313 O 425.855 -4.3199 3.72479 0
M  V30 4314 O 424.789 -3.04924 5.18946 0
M  V30 4315 H 428.615 -0.589181 2.9793 0
M  V30 4316 H 426.2 -0.225091 1.47695 0
M  V30 4317 H 428.082 -3.0412 2.917 0
M  V30 4318 H 426.757 -2.71195 1.76733 0
M  V30 4319 H 425.664 -1.21663 3.53764 0
M  V30 4320 H 426.997 -1.61931 4.648 0
M  V30 4321 N 428.649 -1.55105 -0.279332 0
M  V30 4322 C 429.895 -1.75672 -1.01327 0
M  V30 4323 C 430.228 -0.552739 -1.86168 0
M  V30 4324 O 429.503 0.449827 -1.89227 0
M  V30 4325 C 429.786 -3.05825 -1.90114 0
M  V30 4326 C 429.639 -4.36565 -1.08309 0
M  V30 4327 C 430.958 -3.31975 -2.8893 0
M  V30 4328 H 428.077 -0.639149 -0.366957 0
M  V30 4329 H 430.719 -1.87833 -0.286154 0
M  V30 4330 H 428.869 -2.95588 -2.52111 0
M  V30 4331 H 430.541 -4.58751 -0.484314 0
M  V30 4332 H 428.784 -4.32076 -0.386362 0
M  V30 4333 H 429.455 -5.23946 -1.73737 0
M  V30 4334 H 431.931 -3.41963 -2.37067 0
M  V30 4335 H 430.807 -4.2432 -3.48201 0
M  V30 4336 H 431.068 -2.51309 -3.63725 0
M  V30 4337 N 430.127 0.543554 -1.4793 0
M  V30 4338 C 431.059 1.665 -1.57513 0
M  V30 4339 C 432.072 1.56156 -0.460333 0
M  V30 4340 O 433.261 1.62865 -0.730573 0
M  V30 4341 C 430.361 3.05063 -1.47614 0
M  V30 4342 C 429.534 3.41024 -2.739 0
M  V30 4343 C 428.593 4.58809 -2.57645 0
M  V30 4344 O 427.619 4.62707 -3.31498 0
M  V30 4345 N 428.821 5.56149 -1.66368 0
M  V30 4346 H 431.586 1.5872 -2.5422 0
M  V30 4347 H 429.147 0.730517 -1.44482 0
M  V30 4348 H 431.139 3.81712 -1.34455 0
M  V30 4349 H 429.709 3.06994 -0.589359 0
M  V30 4350 H 428.929 2.53687 -3.01723 0
M  V30 4351 H 430.217 3.61831 -3.57709 0
M  V30 4352 H 429.615 5.55767 -1.05543 0
M  V30 4353 H 428.172 6.32071 -1.59154 0
M  V30 4354 N 431.605 1.3629 0.791371 0
M  V30 4355 C 432.515 1.32606 1.93527 0
M  V30 4356 C 433.531 0.228541 1.72493 0
M  V30 4357 O 434.707 0.460571 1.96063 0
M  V30 4358 C 431.772 1.11271 3.28359 0
M  V30 4359 C 430.833 2.3048 3.62185 0
M  V30 4360 C 430.066 2.10154 4.90583 0
M  V30 4361 O 430.289 1.07572 5.60165 0
M  V30 4362 O 429.223 2.97884 5.23019 0
M  V30 4363 H 433.049 2.28909 1.99585 0
M  V30 4364 H 430.634 1.16818 0.931344 0
M  V30 4365 H 432.516 1.01283 4.09047 0
M  V30 4366 H 431.191 0.180292 3.23198 0
M  V30 4367 H 430.098 2.46036 2.81811 0
M  V30 4368 H 431.431 3.22221 3.72068 0
M  V30 4369 N 433.083 -1.0153 1.20538 0
M  V30 4370 C 434.494 -1.56598 1.01657 0
M  V30 4371 C 434.845 -1.91505 -0.426668 0
M  V30 4372 O 433.97 -1.72375 -1.30827 0
M  V30 4373 C 434.565 -2.84542 1.83905 0
M  V30 4374 C 433.124 -3.36133 1.69386 0
M  V30 4375 C 432.271 -2.09427 1.81757 0
M  V30 4376 H 435.222 -0.838974 1.34711 0
M  V30 4377 H 435.243 -3.56004 1.34319 0
M  V30 4378 H 434.755 -2.59105 2.8894 0
M  V30 4379 H 432.856 -3.66528 0.669933 0
M  V30 4380 H 432.969 -4.08248 2.50739 0
M  V30 4381 H 431.333 -2.21941 1.24957 0
M  V30 4382 H 432.116 -1.86414 2.88279 0
M  V30 4383 N 434.561 -1.01147 -1.20859 0
M  V30 4384 C 435.524 -0.582224 -2.21682 0
M  V30 4385 C 436.524 0.344887 -1.57058 0
M  V30 4386 O 437.714 0.134281 -1.73682 0
M  V30 4387 C 434.846 0.150496 -3.40568 0
M  V30 4388 H 436.039 -1.47408 -2.61172 0
M  V30 4389 H 433.592 -0.800695 -1.34233 0
M  V30 4390 H 434.327 1.0575 -3.06574 0
M  V30 4391 H 434.112 -0.515444 -3.88697 0
M  V30 4392 H 435.602 0.438344 -4.15293 0
M  V30 4393 N 436.039 1.36541 -0.78704 0
M  V30 4394 C 436.949 2.3387 -0.184896 0
M  V30 4395 C 437.965 1.60927 0.661697 0
M  V30 4396 O 439.141 1.92927 0.57804 0
M  V30 4397 C 436.206 3.40122 0.672145 0
M  V30 4398 C 435.267 4.28867 -0.19267 0
M  V30 4399 C 434.5 5.30045 0.623561 0
M  V30 4400 O 434.723 5.39232 1.8597 0
M  V30 4401 O 433.657 6.01895 0.0247068 0
M  V30 4402 H 437.483 2.87126 -0.989562 0
M  V30 4403 H 435.068 1.38969 -0.548455 0
M  V30 4404 H 436.95 4.05093 1.16094 0
M  V30 4405 H 435.625 2.89169 1.45474 0
M  V30 4406 H 434.532 3.66945 -0.728166 0
M  V30 4407 H 435.865 4.83165 -0.938722 0
M  V30 4408 N 437.518 0.538854 1.48102 0
M  V30 4409 C 438.929 0.100679 1.86428 0
M  V30 4410 C 439.28 -1.32447 1.44749 0
M  V30 4411 O 438.405 -1.99339 0.842199 0
M  V30 4412 C 439 0.175933 3.38343 0
M  V30 4413 C 437.559 -0.207098 3.7583 0
M  V30 4414 C 436.706 0.531741 2.72154 0
M  V30 4415 H 439.657 0.749614 1.3988 0
M  V30 4416 H 439.678 -0.610144 3.75576 0
M  V30 4417 H 439.19 1.21328 3.68648 0
M  V30 4418 H 437.291 -1.24626 3.5114 0
M  V30 4419 H 437.404 0.138687 4.78899 0
M  V30 4420 H 435.768 -0.0230462 2.5469 0
M  V30 4421 H 436.551 1.56989 3.05302 0
M  V30 4422 N 438.996 -1.55193 0.274407 0
M  V30 4423 C 440.224 -2.03987 -0.345943 0
M  V30 4424 C 440.639 -1.15279 -1.4952 0
M  V30 4425 O 439.996 -0.172759 -1.8168 0
M  V30 4426 C 440.047 -3.51898 -0.827631 0
M  V30 4427 O 439.768 -4.37231 0.275855 0
M  V30 4428 C 441.269 -4.16577 -1.51587 0
M  V30 4429 H 438.489 -0.666335 -0.0789892 0
M  V30 4430 H 441.033 -2.00423 0.406294 0
M  V30 4431 H 439.188 -3.55909 -1.52996 0
M  V30 4432 H 439.602 -5.24415 -0.0943638 0
M  V30 4433 H 441.076 -5.21678 -1.80433 0
M  V30 4434 H 441.553 -3.64707 -2.44716 0
M  V30 4435 H 442.159 -4.16568 -0.857409 0
M  V30 4436 N 440.474 -0.00167713 -1.576 0
M  V30 4437 C 441.722 0.681471 -1.90264 0
M  V30 4438 C 442.043 1.7422 -0.875924 0
M  V30 4439 O 441.313 1.95709 0.0864412 0
M  V30 4440 H 439.893 0.254696 -0.702239 0
M  V30 4441 H 442.555 -0.0429996 -1.94853 0
M  V30 4442 H 441.651 1.15166 -2.90075 0
M  V30 4443 N 441.952 1.55251 0.271103 0
M  V30 4444 C 443.198 1.76207 1.00394 0
M  V30 4445 C 443.531 0.562604 1.85872 0
M  V30 4446 O 442.806 -0.439785 1.89463 0
M  V30 4447 C 443.089 3.06828 1.8849 0
M  V30 4448 C 442.942 4.37134 1.05992 0
M  V30 4449 C 444.261 3.33503 2.87165 0
M  V30 4450 H 441.38 0.641086 0.363562 0
M  V30 4451 H 444.022 1.87982 0.276189 0
M  V30 4452 H 442.172 2.96921 2.5054 0
M  V30 4453 H 443.844 4.59001 0.459978 0
M  V30 4454 H 442.087 4.32275 0.363443 0
M  V30 4455 H 442.758 5.2486 1.70955 0
M  V30 4456 H 445.234 3.43215 2.3525 0
M  V30 4457 H 444.11 4.2616 3.45946 0
M  V30 4458 H 444.371 2.53235 3.62387 0
M  V30 4459 N 443.43 -0.535701 1.48216 0
M  V30 4460 C 444.378 -1.66179 1.62749 0
M  V30 4461 C 445.372 -1.62034 0.49409 0
M  V30 4462 O 446.578 -1.6696 0.672624 0
M  V30 4463 H 442.953 -0.550244 0.512578 0
M  V30 4464 H 444.924 -1.51063 2.57337 0
M  V30 4465 C 443.673 -3.04471 1.67907 0
M  V30 4466 H 442.996 -3.08351 2.54479 0
M  V30 4467 H 444.436 -3.82894 1.82121 0
M  V30 4468 C 442.895 -3.34314 0.416596 0
M  V30 4469 O 443.425 -3.98905 -0.473014 0
M  V30 4470 N 441.631 -2.89149 0.290038 0
M  V30 4471 H 441.178 -2.36764 1.01493 0
M  V30 4472 H 441.136 -3.09486 -0.55367 0
M  V30 4473 N 444.908 -1.36708 -0.784132 0
M  V30 4474 C 445.841 -1.25827 -1.90375 0
M  V30 4475 C 446.819 -0.141331 -1.61985 0
M  V30 4476 O 448.003 -0.313389 -1.85877 0
M  V30 4477 C 445.13 -0.942621 -3.25319 0
M  V30 4478 C 444.176 -2.07474 -3.72635 0
M  V30 4479 S 445.009 -3.69317 -3.8777 0
M  V30 4480 C 446.165 -3.39876 -5.25581 0
M  V30 4481 H 446.398 -2.20593 -1.99314 0
M  V30 4482 H 443.931 -1.22186 -0.943926 0
M  V30 4483 H 445.889 -0.767321 -4.03265 0
M  V30 4484 H 444.55 -0.0126566 -3.14097 0
M  V30 4485 H 443.743 -1.80858 -4.70432 0
M  V30 4486 H 443.345 -2.20953 -3.01754 0
M  V30 4487 H 445.637 -2.94097 -6.10339 0
M  V30 4488 H 446.58 -4.36956 -5.57203 0
M  V30 4489 H 446.988 -2.75098 -4.92931 0
M  V30 4490 N 446.386 1.0089 -1.21074 0
M  V30 4491 C 447.316 2.1145 -0.990523 0
M  V30 4492 C 448.297 1.69897 0.0831699 0
M  V30 4493 O 449.482 1.94052 -0.0758853 0
M  V30 4494 C 446.612 3.42914 -0.550177 0
M  V30 4495 C 445.566 3.98244 -1.56799 0
M  V30 4496 C 444.892 5.25568 -0.984013 0
M  V30 4497 C 446.192 4.30752 -2.95381 0
M  V30 4498 H 447.886 2.3013 -1.91521 0
M  V30 4499 H 445.432 1.10592 -0.92225 0
M  V30 4500 H 447.385 4.19653 -0.383305 0
M  V30 4501 H 446.109 3.24014 0.41015 0
M  V30 4502 H 444.768 3.23621 -1.72236 0
M  V30 4503 H 444.416 5.02998 -0.0155216 0
M  V30 4504 H 444.116 5.63551 -1.66384 0
M  V30 4505 H 445.64 6.04955 -0.828378 0
M  V30 4506 H 447.054 4.98349 -2.8341 0
M  V30 4507 H 445.451 4.79869 -3.60341 0
M  V30 4508 H 446.521 3.39192 -3.46521 0
M  V30 4509 N 447.864 1.01787 1.20321 0
M  V30 4510 C 449.089 0.727009 1.9424 0
M  V30 4511 C 449.514 -0.706179 1.74341 0
M  V30 4512 O 448.872 -1.48609 1.03852 0
M  V30 4513 C 448.92 1.06958 3.44372 0
M  V30 4514 O 448.024 0.181983 4.11998 0
M  V30 4515 H 447.365 0.269626 0.606793 0
M  V30 4516 H 449.895 1.36158 1.52716 0
M  V30 4517 H 449.905 1.02182 3.94997 0
M  V30 4518 H 448.58 2.11378 3.58179 0
M  V30 4519 H 447.157 0.287378 3.71791 0
M  V30 4520 N 449.342 -1.36122 0.79427 0
M  V30 4521 C 450.753 -1.81646 0.431446 0
M  V30 4522 C 451.104 -1.66043 -1.04518 0
M  V30 4523 O 450.229 -1.1841 -1.8113 0
M  V30 4524 C 450.824 -3.29785 0.776341 0
M  V30 4525 C 449.383 -3.73501 0.466282 0
M  V30 4526 C 448.53 -2.58313 1.00844 0
M  V30 4527 H 451.481 -1.24274 0.986995 0
M  V30 4528 H 451.502 -3.80437 0.0692413 0
M  V30 4529 H 451.014 -3.4111 1.8511 0
M  V30 4530 H 449.115 -3.67733 -0.600245 0
M  V30 4531 H 449.228 -4.68754 0.990288 0
M  V30 4532 H 447.592 -2.5102 0.431406 0
M  V30 4533 H 448.375 -2.72421 2.08906 0
M  V30 4534 N 450.82 -0.546701 -1.47814 0
M  V30 4535 C 452.068 -0.0187037 -2.02091 0
M  V30 4536 C 452.389 1.33168 -1.42447 0
M  V30 4537 O 451.659 1.86619 -0.595839 0
M  V30 4538 H 450.239 -0.00392531 -0.74699 0
M  V30 4539 H 452.901 -0.714327 -1.81338 0
M  V30 4540 H 451.997 0.0772219 -3.12004 0
M  V30 4541 N 452.299 1.55045 -0.282633 0
M  V30 4542 C 453.209 2.26491 0.61147 0
M  V30 4543 C 454.225 1.29348 1.16384 0
M  V30 4544 O 455.401 1.62298 1.19253 0
M  V30 4545 C 452.466 2.97779 1.77563 0
M  V30 4546 C 451.527 4.10418 1.25919 0
M  V30 4547 C 450.76 4.78297 2.36786 0
M  V30 4548 O 450.983 4.45426 3.56303 0
M  V30 4549 O 449.917 5.66089 2.04517 0
M  V30 4550 H 453.743 3.03683 0.0324615 0
M  V30 4551 H 451.328 1.49317 -0.0497576 0
M  V30 4552 H 453.21 3.42554 2.45427 0
M  V30 4553 H 451.885 2.23498 2.34159 0
M  V30 4554 H 450.792 3.70082 0.546797 0
M  V30 4555 H 452.125 4.86622 0.738887 0
M  V30 4556 N 453.777 0.010035 1.57597 0
M  V30 4557 C 455.002 -0.687021 1.95691 0
M  V30 4558 C 455.427 -1.65952 0.885519 0
M  V30 4559 O 454.785 -1.80633 -0.15543 0
M  V30 4560 C 454.833 -1.3864 3.32884 0
M  V30 4561 O 453.937 -2.50115 3.27897 0
M  V30 4562 H 453.278 -0.181989 0.638573 0
M  V30 4563 H 455.808 0.0662122 2.04493 0
M  V30 4564 H 455.818 -1.74754 3.6868 0
M  V30 4565 H 454.493 -0.673411 4.10412 0
M  V30 4566 H 453.07 -2.16253 3.03791 0
M  V30 4567 N 455.255 -1.55392 -0.262866 0
M  V30 4568 C 456.165 -1.92077 -1.34698 0
M  V30 4569 C 457.181 -0.819227 -1.53508 0
M  V30 4570 O 458.357 -1.11921 -1.67439 0
M  V30 4571 C 455.422 -2.19407 -2.68443 0
M  V30 4572 C 454.483 -3.42905 -2.58292 0
M  V30 4573 C 453.716 -3.68921 -3.85659 0
M  V30 4574 O 453.939 -2.97275 -4.8681 0
M  V30 4575 O 452.873 -4.62455 -3.85252 0
M  V30 4576 H 456.699 -2.84384 -1.06581 0
M  V30 4577 H 454.284 -1.42069 -0.462264 0
M  V30 4578 H 456.166 -2.38365 -3.47506 0
M  V30 4579 H 454.841 -1.30282 -2.96325 0
M  V30 4580 H 453.748 -3.29272 -1.7757 0
M  V30 4581 H 455.081 -4.32282 -2.35358 0
M  V30 4582 N 456.733 0.527833 -1.48498 0
M  V30 4583 C 457.683 1.62844 -1.5958 0
M  V30 4584 C 458.667 1.54397 -0.452809 0
M  V30 4585 O 459.859 1.62381 -0.704364 0
M  V30 4586 C 456.988 3.01557 -1.64067 0
M  V30 4587 C 456.074 3.151 -2.83853 0
M  V30 4588 N 456.465 2.9861 -4.08247 0
M  V30 4589 C 454.763 3.46158 -2.8123 0
M  V30 4590 C 455.464 3.15626 -4.88626 0
M  V30 4591 N 454.44 3.43298 -4.21483 0
M  V30 4592 H 458.242 1.48708 -2.53502 0
M  V30 4593 H 455.756 0.733343 -1.44899 0
M  V30 4594 H 457.753 3.8062 -1.70101 0
M  V30 4595 H 456.413 3.16783 -0.712636 0
M  V30 4596 H 457.424 2.75329 -4.3865 0
M  V30 4597 H 454.101 3.67728 -1.97692 0
M  V30 4598 H 455.491 3.07596 -5.97356 0
M  V30 4599 N 458.211 1.37122 0.776871 0
M  V30 4600 C 459.141 1.35164 1.90402 0
M  V30 4601 C 460.122 0.221069 1.68657 0
M  V30 4602 O 461.307 0.420642 1.8959 0
M  V30 4603 C 458.437 1.15274 3.27611 0
M  V30 4604 C 457.391 2.25289 3.63908 0
M  V30 4605 C 456.717 1.90527 4.99603 0
M  V30 4606 C 458.017 3.67446 3.71188 0
M  V30 4607 H 459.711 2.29482 1.92297 0
M  V30 4608 H 457.257 1.10465 0.923773 0
M  V30 4609 H 459.21 1.12536 4.06096 0
M  V30 4610 H 457.934 0.174102 3.26136 0
M  V30 4611 H 456.593 2.27174 2.87728 0
M  V30 4612 H 456.241 0.91206 4.94662 0
M  V30 4613 H 455.941 2.64193 5.24858 0
M  V30 4614 H 457.465 1.89367 5.80493 0
M  V30 4615 H 458.879 3.67719 4.39836 0
M  V30 4616 H 457.276 4.40123 4.07936 0
M  V30 4617 H 458.346 4.01443 2.71977 0
M  V30 4618 N 459.689 -1.00246 1.21608 0
M  V30 4619 C 460.619 -2.10921 1.00172 0
M  V30 4620 C 461.6 -1.69938 -0.0741587 0
M  V30 4621 O 462.785 -1.94009 0.0861753 0
M  V30 4622 C 459.915 -3.42618 0.568355 0
M  V30 4623 C 458.869 -3.97407 1.58909 0
M  V30 4624 C 458.195 -5.25038 1.01187 0
M  V30 4625 C 459.495 -4.2918 2.97661 0
M  V30 4626 H 461.189 -2.29112 1.92739 0
M  V30 4627 H 458.735 -1.10101 0.928102 0
M  V30 4628 H 460.688 -4.19444 0.405555 0
M  V30 4629 H 459.412 -3.24227 -0.392961 0
M  V30 4630 H 458.071 -3.22703 1.73949 0
M  V30 4631 H 457.719 -5.02982 0.0421965 0
M  V30 4632 H 457.419 -5.62661 1.6937 0
M  V30 4633 H 458.943 -6.04507 0.860448 0
M  V30 4634 H 460.357 -4.96839 2.86049 0
M  V30 4635 H 458.754 -4.77952 3.6288 0
M  V30 4636 H 459.824 -3.3735 3.48315 0
M  V30 4637 N 461.167 -1.02423 -1.1978 0
M  V30 4638 C 462.077 -0.610919 -2.26506 0
M  V30 4639 C 463.093 0.355152 -1.70337 0
M  V30 4640 O 464.269 0.214195 -2.00258 0
M  V30 4641 C 461.334 0.0365921 -3.46681 0
M  V30 4642 C 460.395 -0.976389 -4.18049 0
M  V30 4643 C 459.628 -0.359683 -5.32487 0
M  V30 4644 O 459.851 0.838601 -5.64202 0
M  V30 4645 O 458.785 -1.08022 -5.92127 0
M  V30 4646 H 462.611 -1.49965 -2.64091 0
M  V30 4647 H 460.196 -0.794156 -1.26545 0
M  V30 4648 H 462.078 0.39786 -4.19518 0
M  V30 4649 H 460.753 0.899398 -3.10954 0
M  V30 4650 H 459.66 -1.38916 -3.47352 0
M  V30 4651 H 460.993 -1.80941 -4.57735 0
M  V30 4652 N 462.645 1.35699 -0.801477 0
M  V30 4653 C 464.056 1.81415 -0.441073 0
M  V30 4654 C 464.407 1.66595 1.03636 0
M  V30 4655 O 463.532 1.19369 1.80499 0
M  V30 4656 C 464.127 3.29369 -0.793819 0
M  V30 4657 C 462.686 3.73248 -0.486083 0
M  V30 4658 C 461.833 2.57775 -1.02213 0
M  V30 4659 H 464.784 1.23749 -0.993572 0
M  V30 4660 H 464.805 3.80395 -0.0894158 0
M  V30 4661 H 464.317 3.40123 -1.86917 0
M  V30 4662 H 462.418 3.68046 0.580735 0
M  V30 4663 H 462.531 4.68222 -1.01513 0
M  V30 4664 H 460.895 2.50788 -0.444712 0
M  V30 4665 H 461.678 2.71309 -2.10348 0
M  V30 4666 N 464.123 0.554532 1.47522 0
M  V30 4667 C 465.086 -0.184174 2.28459 0
M  V30 4668 C 466.086 -0.845195 1.36796 0
M  V30 4669 O 467.276 -0.701467 1.59452 0
M  V30 4670 C 464.408 -1.26903 3.16399 0
M  V30 4671 H 465.601 0.526751 2.95238 0
M  V30 4672 H 463.154 0.311375 1.53167 0
M  V30 4673 H 463.889 -2.01244 2.54306 0
M  V30 4674 H 463.674 -0.799883 3.83854 0
M  V30 4675 H 465.164 -1.78794 3.77389 0
M  V30 4676 N 465.601 -1.54893 0.290851 0
M  V30 4677 C 466.511 -2.26812 -0.59945 0
M  V30 4678 C 467.527 -1.29963 -1.15696 0
M  V30 4679 O 468.703 -1.62928 -1.18391 0
M  V30 4680 C 465.768 -2.98716 -1.75982 0
M  V30 4681 C 464.829 -4.1108 -1.2374 0
M  V30 4682 C 464.062 -4.79546 -2.34246 0
M  V30 4683 O 464.285 -4.47309 -3.53936 0
M  V30 4684 O 463.219 -5.67165 -2.01512 0
M  V30 4685 H 467.045 -3.03696 -0.0163561 0
M  V30 4686 H 464.63 -1.49289 0.0576755 0
M  V30 4687 H 466.512 -3.43851 -2.43607 0
M  V30 4688 H 465.187 -2.24737 -2.3297 0
M  V30 4689 H 464.094 -3.70367 -0.527163 0
M  V30 4690 H 465.427 -4.87007 -0.71307 0
M  V30 4691 N 467.08 -0.0183926 -1.57589 0
M  V30 4692 C 468.043 0.951986 -2.08494 0
M  V30 4693 C 469.043 1.26092 -0.997874 0
M  V30 4694 O 470.233 1.20304 -1.25987 0
M  V30 4695 C 467.365 2.27165 -2.54182 0
M  V30 4696 H 468.558 0.511307 -2.95509 0
M  V30 4697 H 466.111 0.229444 -1.54607 0
M  V30 4698 H 466.846 2.75884 -1.70465 0
M  V30 4699 H 466.631 2.06057 -3.33591 0
M  V30 4700 H 468.121 2.9674 -2.93828 0
M  V30 4701 N 468.558 1.5553 0.254621 0
M  V30 4702 C 469.468 1.92789 1.33677 0
M  V30 4703 C 470.484 0.827356 1.53071 0
M  V30 4704 O 471.66 1.12807 1.66843 0
M  V30 4705 C 468.725 2.20827 2.67275 0
M  V30 4706 C 467.786 3.4427 2.5647 0
M  V30 4707 C 467.019 3.70961 3.83697 0
M  V30 4708 O 467.242 2.99852 4.85227 0
M  V30 4709 O 466.176 4.64491 3.82794 0
M  V30 4710 H 470.002 2.84945 1.05071 0
M  V30 4711 H 467.587 1.42312 0.454723 0
M  V30 4712 H 469.469 2.40204 3.46237 0
M  V30 4713 H 468.144 1.31851 2.9563 0
M  V30 4714 H 467.051 3.30209 1.75821 0
M  V30 4715 H 468.384 4.33524 2.33062 0
M  V30 4716 N 470.036 -0.519951 1.48776 0
M  V30 4717 C 471.452 -0.849418 1.35119 0
M  V30 4718 C 471.652 -1.98077 0.36982 0
M  V30 4719 O 470.708 -2.51664 -0.205359 0
M  V30 4720 C 472.021 -1.20748 2.75391 0
M  V30 4721 C 473.569 -1.31679 2.83954 0
M  V30 4722 C 474.044 -1.70824 4.24951 0
M  V30 4723 N 475.535 -1.77908 4.27672 0
M  V30 4724 C 476.27 -2.09603 5.33717 0
M  V30 4725 N 475.766 -2.39652 6.5003 0
M  V30 4726 N 477.559 -2.10694 5.21119 0
M  V30 4727 H 469.71 0.226377 2.1119 0
M  V30 4728 H 471.973 0.0386519 0.947212 0
M  V30 4729 H 471.679 -0.449703 3.48813 0
M  V30 4730 H 471.553 -2.15534 3.09556 0
M  V30 4731 H 473.94 -2.06532 2.10781 0
M  V30 4732 H 474.021 -0.3499 2.53396 0
M  V30 4733 H 473.665 -0.965282 4.98643 0
M  V30 4734 H 473.595 -2.6858 4.52959 0
M  V30 4735 H 476.086 -1.56923 3.43779 0
M  V30 4736 H 476.399 -2.6297 7.26682 0
M  V30 4737 H 474.744 -2.37149 6.53288 0
M  V30 4738 H 477.935 -1.86682 4.29264 0
M  V30 4739 H 478.108 -2.35062 6.03863 0
M  V30 4740 N 471.514 -1.37532 -0.769588 0
M  V30 4741 C 472.739 -1.36231 -1.56384 0
M  V30 4742 C 473.164 0.0495849 -1.88035 0
M  V30 4743 O 472.522 1.02723 -1.49391 0
M  V30 4744 C 472.57 -2.20986 -2.84952 0
M  V30 4745 O 471.674 -1.61597 -3.79421 0
M  V30 4746 H 471.015 -0.465387 -0.473615 0
M  V30 4747 H 473.545 -1.81085 -0.952342 0
M  V30 4748 H 473.555 -2.34277 -3.34034 0
M  V30 4749 H 472.23 -3.23612 -2.61243 0
M  V30 4750 H 470.807 -1.57359 -3.38072 0
M  V30 4751 N 472.992 0.995999 -1.22138 0
M  V30 4752 C 473.924 2.08745 -0.946485 0
M  V30 4753 C 474.937 1.62633 0.0737356 0
M  V30 4754 O 476.126 1.77782 -0.159886 0
M  V30 4755 C 473.226 3.36516 -0.401305 0
M  V30 4756 C 472.399 4.11672 -1.47801 0
M  V30 4757 C 471.458 5.17728 -0.940461 0
M  V30 4758 O 470.484 5.45482 -1.62596 0
M  V30 4759 N 471.686 5.80005 0.239723 0
M  V30 4760 H 474.451 2.32908 -1.88611 0
M  V30 4761 H 472.012 1.16152 -1.12785 0
M  V30 4762 H 474.004 4.04691 -0.0270837 0
M  V30 4763 H 472.574 3.0944 0.443354 0
M  V30 4764 H 471.794 3.38171 -2.02568 0
M  V30 4765 H 473.082 4.58657 -2.20253 0
M  V30 4766 H 472.48 5.5982 0.813518 0
M  V30 4767 H 471.037 6.4943 0.555361 0
M  V30 4768 N 474.47 1.03057 1.19235 0
M  V30 4769 C 475.886 0.747947 1.40989 0
M  V30 4770 C 476.086 -0.666752 1.90149 0
M  V30 4771 O 475.142 -1.43249 2.07933 0
M  V30 4772 C 476.455 1.7855 2.41951 0
M  V30 4773 C 478.003 1.80524 2.55695 0
M  V30 4774 C 478.478 2.83243 3.59913 0
M  V30 4775 N 479.969 2.8207 3.67411 0
M  V30 4776 C 480.704 3.58204 4.47747 0
M  V30 4777 N 480.2 4.44057 5.31775 0
M  V30 4778 N 481.993 3.46738 4.42413 0
M  V30 4779 H 474.144 1.94367 0.856468 0
M  V30 4780 H 476.407 0.840412 0.438647 0
M  V30 4781 H 476.113 2.79973 2.12857 0
M  V30 4782 H 475.987 1.6092 3.41152 0
M  V30 4783 H 478.374 0.79778 2.84112 0
M  V30 4784 H 478.455 2.02229 1.56643 0
M  V30 4785 H 478.099 3.84161 3.32239 0
M  V30 4786 H 478.029 2.58795 4.5862 0
M  V30 4787 H 480.52 2.19803 3.074 0
M  V30 4788 H 480.833 4.98884 5.90199 0
M  V30 4789 H 479.178 4.48129 5.3123 0
M  V30 4790 H 482.369 2.79077 3.75811 0
M  V30 4791 H 482.542 4.06322 5.04783 0
M  V30 4792 N 475.948 -1.35272 0.808662 0
M  V30 4793 C 477.364 -1.51806 0.492653 0
M  V30 4794 C 477.564 -1.7574 -0.985778 0
M  V30 4795 O 476.62 -1.80003 -1.77074 0
M  V30 4796 C 477.933 -2.69202 1.33981 0
M  V30 4797 C 479.481 -2.8308 1.33547 0
M  V30 4798 C 479.956 -4.03502 2.16679 0
M  V30 4799 N 481.447 -4.10684 2.14227 0
M  V30 4800 C 482.182 -5.02984 2.75308 0
M  V30 4801 N 481.678 -6.00603 3.45323 0
M  V30 4802 N 483.471 -4.95746 2.64938 0
M  V30 4803 H 475.622 -1.17993 1.76611 0
M  V30 4804 H 477.885 -0.577476 0.751814 0
M  V30 4805 H 477.591 -2.581 2.38909 0
M  V30 4806 H 477.465 -3.63854 0.994491 0
M  V30 4807 H 479.852 -2.93631 0.294036 0
M  V30 4808 H 479.933 -1.89278 1.72068 0
M  V30 4809 H 479.577 -3.93711 3.20864 0
M  V30 4810 H 479.507 -4.96489 1.75517 0
M  V30 4811 H 481.998 -3.40802 1.63285 0
M  V30 4812 H 482.311 -6.67633 3.89212 0
M  V30 4813 H 480.656 -6.0077 3.49428 0
M  V30 4814 H 483.847 -4.18439 2.09825 0
M  V30 4815 H 484.02 -5.67487 3.12829 0
M  V30 4816 N 477.426 -0.562348 -1.47226 0
M  V30 4817 C 478.842 -0.222492 -1.58042 0
M  V30 4818 C 479.042 1.27505 -1.56028 0
M  V30 4819 O 478.098 2.05555 -1.46641 0
M  V30 4820 C 479.411 -0.853694 -2.88327 0
M  V30 4821 C 480.959 -0.825397 -3.01921 0
M  V30 4822 C 481.434 -1.43576 -4.34914 0
M  V30 4823 N 482.925 -1.39918 -4.41562 0
M  V30 4824 C 483.66 -1.84103 -5.43041 0
M  V30 4825 N 483.156 -2.36167 -6.51304 0
M  V30 4826 N 484.949 -1.75142 -5.34118 0
M  V30 4827 H 477.1 -1.53525 -1.46778 0
M  V30 4828 H 479.363 -0.640527 -0.698877 0
M  V30 4829 H 479.069 -1.90635 -2.95552 0
M  V30 4830 H 478.943 -0.34977 -3.75575 0
M  V30 4831 H 481.33 0.218583 -2.94289 0
M  V30 4832 H 481.411 -1.36713 -2.16202 0
M  V30 4833 H 481.055 -2.47884 -4.43301 0
M  V30 4834 H 480.985 -0.869427 -5.19373 0
M  V30 4835 H 483.476 -1.0184 -3.63919 0
M  V30 4836 H 483.789 -2.67793 -7.24919 0
M  V30 4837 H 482.134 -2.40181 -6.52179 0
M  V30 4838 H 485.325 -1.34241 -4.48439 0
M  V30 4839 H 485.498 -2.09895 -6.13065 0
M  V30 4840 N 478.904 1.54736 -0.299062 0
M  V30 4841 C 479.834 2.26409 0.571085 0
M  V30 4842 C 480.815 1.2629 1.13951 0
M  V30 4843 O 482 1.55059 1.16921 0
M  V30 4844 C 479.13 3.00338 1.74396 0
M  V30 4845 C 478.084 4.07588 1.30599 0
M  V30 4846 C 477.41 4.69222 2.56387 0
M  V30 4847 C 478.71 5.20455 0.438645 0
M  V30 4848 H 480.404 2.99388 -0.0266991 0
M  V30 4849 H 477.95 1.43993 -0.0142812 0
M  V30 4850 H 479.903 3.49198 2.35878 0
M  V30 4851 H 478.627 2.24934 2.36796 0
M  V30 4852 H 477.286 3.59575 0.71424 0
M  V30 4853 H 476.934 3.9046 3.17097 0
M  V30 4854 H 476.634 5.41653 2.27784 0
M  V30 4855 H 478.158 5.20844 3.18675 0
M  V30 4856 H 479.572 5.65221 0.959085 0
M  V30 4857 H 477.969 5.99594 0.246466 0
M  V30 4858 H 479.039 4.8192 -0.536738 0
M  V30 4859 N 480.382 0.0267497 1.57577 0
M  V30 4860 C 481.312 -0.954308 2.13108 0
M  V30 4861 C 482.293 -1.34088 1.04663 0
M  V30 4862 O 483.478 -1.41992 1.32484 0
M  V30 4863 C 480.608 -2.23744 2.65624 0
M  V30 4864 C 479.562 -1.99168 3.78835 0
M  V30 4865 C 478.888 -3.33726 4.17769 0
M  V30 4866 C 480.188 -1.33277 5.0501 0
M  V30 4867 H 481.882 -0.491848 2.95332 0
M  V30 4868 H 479.428 -0.23514 1.42067 0
M  V30 4869 H 481.381 -2.92754 3.03106 0
M  V30 4870 H 480.105 -2.72151 1.80558 0
M  V30 4871 H 478.764 -1.32577 3.41788 0
M  V30 4872 H 478.412 -3.79888 3.29688 0
M  V30 4873 H 478.112 -3.18089 4.94058 0
M  V30 4874 H 479.636 -4.04008 4.57832 0
M  V30 4875 H 481.05 -1.92283 5.40093 0
M  V30 4876 H 479.447 -1.28045 5.8628 0
M  V30 4877 H 480.517 -0.305411 4.83937 0
M  V30 4878 N 481.861 -1.55662 -0.24637 0
M  V30 4879 C 483.107 -1.77782 -0.975779 0
M  V30 4880 C 483.44 -0.592103 -1.84953 0
M  V30 4881 O 482.715 0.409588 -1.90138 0
M  V30 4882 C 482.998 -3.09788 -1.83584 0
M  V30 4883 C 482.851 -4.38764 -0.990241 0
M  V30 4884 C 484.17 -3.38029 -2.81823 0
M  V30 4885 H 481.289 -0.646789 -0.353317 0
M  V30 4886 H 483.931 -1.88398 -0.246248 0
M  V30 4887 H 482.081 -3.00869 -2.45784 0
M  V30 4888 H 483.753 -4.59675 -0.386897 0
M  V30 4889 H 481.996 -4.32798 -0.294626 0
M  V30 4890 H 482.667 -5.27514 -1.62584 0
M  V30 4891 H 485.143 -3.46915 -2.2976 0
M  V30 4892 H 484.019 -4.3161 -3.39122 0
M  V30 4893 H 484.28 -2.58968 -3.58313 0
M  V30 4894 N 483.339 0.512053 -1.4905 0
M  V30 4895 C 484.75 1.09376 -1.51307 0
M  V30 4896 C 485.101 1.94 -0.292971 0
M  V30 4897 O 484.226 2.07965 0.598277 0
M  V30 4898 C 484.821 1.99031 -2.74176 0
M  V30 4899 C 483.38 2.52385 -2.79247 0
M  V30 4900 C 482.527 1.29749 -2.45073 0
M  V30 4901 H 485.478 0.296467 -1.55906 0
M  V30 4902 H 485.499 2.83569 -2.53711 0
M  V30 4903 H 485.011 1.37412 -3.62959 0
M  V30 4904 H 483.112 3.17673 -1.94716 0
M  V30 4905 H 483.225 2.90293 -3.81139 0
M  V30 4906 H 481.589 1.61912 -1.96612 0
M  V30 4907 H 482.372 0.698555 -3.36118 0
M  V30 4908 N 484.817 1.37938 0.762283 0
M  V30 4909 C 485.78 1.34279 1.85747 0
M  V30 4910 C 486.78 0.244969 1.58923 0
M  V30 4911 O 487.97 0.501365 1.66829 0
M  V30 4912 C 485.102 1.08833 3.23061 0
M  V30 4913 H 486.295 2.31705 1.90401 0
M  V30 4914 H 483.848 1.23105 0.963057 0
M  V30 4915 H 484.583 0.119767 3.24079 0
M  V30 4916 H 484.368 1.88306 3.43923 0
M  V30 4917 H 485.858 1.08946 4.03138 0
M  V30 4918 N 486.295 -0.989507 1.22664 0
M  V30 4919 C 487.243 -2.10148 0.997035 0
M  V30 4920 C 488.237 -1.6929 -0.0609783 0
M  V30 4921 O 489.443 -1.79766 0.0917523 0
M  V30 4922 H 485.818 -0.687256 0.305259 0
M  V30 4923 H 487.789 -2.26685 1.94053 0
M  V30 4924 C 486.538 -3.4257 0.595085 0
M  V30 4925 H 485.861 -3.74453 1.40089 0
M  V30 4926 H 487.301 -4.21344 0.473869 0
M  V30 4927 C 485.76 -3.29638 -0.695725 0
M  V30 4928 O 486.29 -3.61709 -1.74727 0
M  V30 4929 N 484.496 -2.82814 -0.668173 0
M  V30 4930 H 484.043 -2.56914 0.18787 0
M  V30 4931 H 484.001 -2.74544 -1.5321 0
M  V30 4932 N 487.773 -1.03688 -1.18687 0
M  V30 4933 C 488.683 -0.634908 -2.25845 0
M  V30 4934 C 489.699 0.337065 -1.70704 0
M  V30 4935 O 490.875 0.192943 -2.00474 0
M  V30 4936 C 487.94 -0.000180054 -3.467 0
M  V30 4937 C 487.001 -1.02067 -4.1699 0
M  V30 4938 C 486.234 -0.41614 -5.32075 0
M  V30 4939 O 486.457 0.778712 -5.65059 0
M  V30 4940 O 485.391 -1.14296 -5.90948 0
M  V30 4941 H 489.217 -1.52757 -2.62486 0
M  V30 4942 H 486.802 -0.807533 -1.25695 0
M  V30 4943 H 488.684 0.353342 -4.19916 0
M  V30 4944 H 487.359 0.866367 -3.11891 0
M  V30 4945 H 486.266 -1.42592 -3.45859 0
M  V30 4946 H 487.599 -1.85786 -4.5579 0
M  V30 4947 N 489.251 1.34841 -0.815825 0
M  V30 4948 C 490.499 1.98107 -0.399744 0
M  V30 4949 C 490.82 1.65019 1.03894 0
M  V30 4950 O 490.09 0.937311 1.72021 0
M  V30 4951 H 488.67 0.732827 -0.144823 0
M  V30 4952 H 491.332 1.64599 -1.0437 0
M  V30 4953 H 490.428 3.07856 -0.512965 0
M  V30 4954 N 490.729 0.570148 1.46925 0
M  V30 4955 C 492.006 -0.0153259 1.95594 0
M  V30 4956 C 492.386 -1.47232 1.51281 0
M  V30 4957 O 491.734 -2.15574 0.757624 0
M  V30 4958 C 491.944 0.143624 3.48704 0
M  V30 4959 C 493.292 0.00494484 4.246 0
M  V30 4960 O 494.316 0.0718214 3.56128 0
M  V30 4961 O 493.175 -0.141175 5.46318 0
M  V30 4962 H 490.269 -0.0568819 0.825041 0
M  V30 4963 H 492.815 0.637583 1.57267 0
M  V30 4964 H 491.587 1.15699 3.73804 0
M  V30 4965 H 491.21 -0.5463 3.93829 0
M  V30 4966 N 492.207 -1.54576 0.307264 0
M  V30 4967 C 493.618 -1.8579 -0.184121 0
M  V30 4968 C 493.969 -1.22914 -1.52927 0
M  V30 4969 O 493.094 -0.529126 -2.09831 0
M  V30 4970 C 493.689 -3.37081 -0.340862 0
M  V30 4971 C 492.248 -3.68304 -0.776465 0
M  V30 4972 C 491.395 -2.77076 0.111503 0
M  V30 4973 H 494.346 -1.49656 0.528078 0
M  V30 4974 H 494.367 -3.61922 -1.17443 0
M  V30 4975 H 493.879 -3.82815 0.638309 0
M  V30 4976 H 491.98 -3.28092 -1.76596 0
M  V30 4977 H 492.093 -4.75434 -0.591512 0
M  V30 4978 H 490.457 -2.51374 -0.410256 0
M  V30 4979 H 491.24 -3.25632 1.08714 0
M  V30 4980 N 493.685 -0.035106 -1.57561 0
M  V30 4981 C 494.913 0.652258 -1.9635 0
M  V30 4982 C 495.328 1.65317 -0.911897 0
M  V30 4983 O 494.685 1.82194 0.105657 0
M  V30 4984 C 494.736 1.35337 -3.35211 0
M  V30 4985 O 494.457 0.392548 -4.36338 0
M  V30 4986 C 495.958 2.13199 -3.88666 0
M  V30 4987 H 493.178 0.179444 -0.646561 0
M  V30 4988 H 495.722 -0.0966459 -2.04271 0
M  V30 4989 H 493.877 2.05362 -3.28489 0
M  V30 4990 H 494.291 0.891097 -5.16875 0
M  V30 4991 H 495.765 2.577 -4.88154 0
M  V30 4992 H 496.242 2.97353 -3.23231 0
M  V30 4993 H 496.848 1.48118 -3.98674 0
M  V30 4994 N 495.163 1.55791 0.238111 0
M  V30 4995 C 496.073 1.94196 1.31625 0
M  V30 4996 C 497.089 0.843545 1.52185 0
M  V30 4997 O 498.265 1.1457 1.65637 0
M  V30 4998 C 495.33 2.2365 2.64918 0
M  V30 4999 C 494.391 3.46971 2.52804 0
M  V30 5000 C 493.624 3.7501 3.79741 0
M  V30 5001 O 493.847 3.04982 4.82019 0
M  V30 5002 O 492.781 4.68525 3.77846 0
M  V30 5003 H 496.607 2.86044 1.02043 0
M  V30 5004 H 494.192 1.42786 0.439603 0
M  V30 5005 H 496.074 2.43863 3.4367 0
M  V30 5006 H 494.749 1.34979 2.94215 0
M  V30 5007 H 493.656 3.32055 1.72309 0
M  V30 5008 H 494.989 4.35971 2.28451 0
M  V30 5009 N 496.642 -0.504142 1.49319 0
M  V30 5010 C 497.87 -1.28256 1.62351 0
M  V30 5011 C 498.285 -1.86502 0.293682 0
M  V30 5012 O 497.642 -1.67678 -0.720449 0
M  V30 5013 C 497.693 -2.41507 2.68992 0
M  V30 5014 O 497.414 -1.85656 3.96817 0
M  V30 5015 C 498.915 -3.32929 2.927 0
M  V30 5016 H 496.135 -0.389115 0.546654 0
M  V30 5017 H 498.679 -0.605531 1.95329 0
M  V30 5018 H 496.834 -3.05046 2.38801 0
M  V30 5019 H 497.248 -2.59981 4.55533 0
M  V30 5020 H 498.722 -4.0868 3.71058 0
M  V30 5021 H 499.199 -3.89733 2.02496 0
M  V30 5022 H 499.805 -2.75158 3.24296 0
M  V30 5023 N 498.12 -1.38341 -0.754957 0
M  V30 5024 C 499.05 -1.38176 -1.88227 0
M  V30 5025 C 500.031 -0.247873 -1.68284 0
M  V30 5026 O 501.216 -0.45075 -1.88896 0
M  V30 5027 C 498.346 -1.20471 -3.25736 0
M  V30 5028 C 497.3 -2.3105 -3.60278 0
M  V30 5029 C 496.626 -1.98452 -4.96509 0
M  V30 5030 C 497.926 -3.73305 -3.65295 0
M  V30 5031 H 499.62 -2.32512 -1.88622 0
M  V30 5032 H 497.166 -1.1192 -0.906082 0
M  V30 5033 H 499.119 -1.18982 -4.04254 0
M  V30 5034 H 497.843 -0.225965 -3.25817 0
M  V30 5035 H 496.502 -2.31723 -2.84078 0
M  V30 5036 H 496.15 -0.990641 -4.93148 0
M  V30 5037 H 495.85 -2.7251 -5.20588 0
M  V30 5038 H 497.374 -1.98578 -5.77407 0
M  V30 5039 H 498.788 -3.7467 -4.3393 0
M  V30 5040 H 497.185 -4.46557 -4.00883 0
M  V30 5041 H 498.255 -4.05719 -2.65556 0
M  V30 5042 N 499.598 0.982988 -1.23187 0
M  V30 5043 C 501.014 1.2487 -0.993967 0
M  V30 5044 C 501.214 1.99155 0.306498 0
M  V30 5045 O 500.27 2.30688 1.0266 0
M  V30 5046 C 501.583 2.05078 -2.19917 0
M  V30 5047 C 503.131 2.18227 -2.2438 0
M  V30 5048 C 503.606 3.01825 -3.44479 0
M  V30 5049 N 505.097 3.09411 -3.44702 0
M  V30 5050 C 505.832 3.74412 -4.34285 0
M  V30 5051 N 505.328 4.41259 -5.341 0
M  V30 5052 N 507.121 3.71273 -4.22035 0
M  V30 5053 H 499.272 0.485253 -2.06783 0
M  V30 5054 H 501.535 0.276979 -0.906635 0
M  V30 5055 H 501.241 1.57867 -3.14279 0
M  V30 5056 H 501.115 3.05829 -2.2079 0
M  V30 5057 H 503.502 2.64648 -1.30559 0
M  V30 5058 H 503.583 1.16873 -2.2754 0
M  V30 5059 H 503.227 2.56102 -4.38605 0
M  V30 5060 H 503.157 4.03342 -3.38559 0
M  V30 5061 H 505.648 2.61845 -2.7248 0
M  V30 5062 H 505.961 4.88629 -5.98717 0
M  V30 5063 H 504.306 4.39975 -5.38002 0
M  V30 5064 H 507.497 3.18217 -3.43301 0
M  V30 5065 H 507.67 4.21649 -4.92053 0
M  V30 5066 N 501.076 1.04316 1.18135 0
M  V30 5067 C 502.008 0.594444 2.21357 0
M  V30 5068 C 503.021 -0.337215 1.59269 0
M  V30 5069 O 504.21 -0.131337 1.78016 0
M  V30 5070 C 501.31 -0.151251 3.38562 0
M  V30 5071 C 500.483 0.788907 4.30227 0
M  V30 5072 C 499.542 0.0860572 5.2613 0
M  V30 5073 O 498.568 0.717302 5.64662 0
M  V30 5074 N 499.77 -1.17969 5.68387 0
M  V30 5075 H 502.535 1.48227 2.60478 0
M  V30 5076 H 500.096 0.92396 1.32946 0
M  V30 5077 H 502.088 -0.631352 3.99745 0
M  V30 5078 H 500.658 -0.940639 2.98112 0
M  V30 5079 H 499.878 1.44882 3.6661 0
M  V30 5080 H 501.166 1.42738 4.88368 0
M  V30 5081 H 500.564 -1.71302 5.3914 0
M  V30 5082 H 499.121 -1.60402 6.31755 0
M  V30 5083 N 502.554 -1.34406 0.822964 0
M  V30 5084 C 503.794 -2.00103 0.416915 0
M  V30 5085 C 504.158 -1.63826 -1.00125 0
M  V30 5086 O 505.359 -2.22367 -1.51018 0
M  V30 5087 C 503.63 -3.52101 0.613151 0
M  V30 5088 S 505.189 -4.37774 0.299956 0
M  V30 5089 H 502.007 -0.69333 0.157527 0
M  V30 5090 H 504.609 -1.63698 1.06879 0
M  V30 5091 H 503.313 -3.75991 1.64496 0
M  V30 5092 H 502.844 -3.93364 -0.0534554 0
M  V30 5093 H 504.859 -4.8822 -0.886336 0
M  V30 5094 N 504.032 -0.577932 -1.46621 0
M  V30 5095 C 505.279 -0.0616879 -2.02406 0
M  V30 5096 C 505.607 1.29638 -1.44997 0
M  V30 5097 O 504.862 1.86176 -0.60308 0
M  V30 5098 C 505.161 0.0590832 -3.57351 0
M  V30 5099 C 504.827 -1.23077 -4.33777 0
M  V30 5100 C 503.489 -1.58416 -4.54376 0
M  V30 5101 C 505.841 -2.08457 -4.77698 0
M  V30 5102 C 503.169 -2.78943 -5.16147 0
M  V30 5103 C 505.521 -3.28204 -5.408 0
M  V30 5104 C 504.185 -3.63832 -5.59627 0
M  V30 5105 H 503.455 -0.0225732 -0.740656 0
M  V30 5106 H 506.102 -0.753609 -1.76048 0
M  V30 5107 H 504.407 0.834104 -3.82818 0
M  V30 5108 H 506.104 0.474202 -3.98186 0
M  V30 5109 H 502.694 -0.945652 -4.18038 0
M  V30 5110 H 506.878 -1.82459 -4.61544 0
M  V30 5111 H 502.134 -3.06689 -5.28916 0
M  V30 5112 H 506.308 -3.94634 -5.73792 0
M  V30 5113 H 503.935 -4.57315 -6.07262 0
M  V30 5114 N 505.51 1.54411 -0.315457 0
M  V30 5115 C 506.787 1.92562 0.343398 0
M  V30 5116 C 507.167 1.24423 1.70535 0
M  V30 5117 O 506.515 0.385051 2.25232 0
M  V30 5118 C 506.725 3.46168 0.443687 0
M  V30 5119 C 508.073 4.18659 0.707783 0
M  V30 5120 O 509.097 3.52281 0.52693 0
M  V30 5121 O 507.956 5.36198 1.05612 0
M  V30 5122 H 505.05 0.80379 0.194552 0
M  V30 5123 H 507.596 1.65738 -0.364577 0
M  V30 5124 H 506.368 3.8792 -0.513172 0
M  V30 5125 H 505.991 3.79073 1.19956 0
M  V30 5126 N 506.988 0.0434614 1.5754 0
M  V30 5127 C 508.265 -0.671479 1.83713 0
M  V30 5128 C 508.645 -1.89495 0.930315 0
M  V30 5129 O 507.993 -2.28498 -0.0105639 0
M  V30 5130 C 508.203 -1.0361 3.33266 0
M  V30 5131 C 509.551 -1.42167 4.00092 0
M  V30 5132 O 510.575 -1.12866 3.37846 0
M  V30 5133 O 509.434 -1.96817 5.09829 0
M  V30 5134 H 506.528 -0.330726 0.75799 0
M  V30 5135 H 509.074 0.0722373 1.69546 0
M  V30 5136 H 507.846 -0.165938 3.90948 0
M  V30 5137 H 507.469 -1.83751 3.52592 0
M  V30 5138 N 508.466 -1.55915 -0.229846 0
M  V30 5139 C 509.713 -1.78542 -0.955452 0
M  V30 5140 C 510.041 -0.610785 -1.84661 0
M  V30 5141 O 509.296 0.405213 -1.91459 0
M  V30 5142 C 509.595 -3.06845 -1.8325 0
M  V30 5143 C 509.261 -4.37395 -1.09528 0
M  V30 5144 C 507.923 -4.72868 -0.891598 0
M  V30 5145 C 510.275 -5.18029 -0.574046 0
M  V30 5146 C 507.603 -5.86496 -0.154655 0
M  V30 5147 C 509.955 -6.32423 0.149513 0
M  V30 5148 C 508.619 -6.66504 0.364519 0
M  V30 5149 H 507.889 -0.653333 -0.349625 0
M  V30 5150 H 510.536 -1.90183 -0.224235 0
M  V30 5151 H 508.841 -2.90291 -2.63132 0
M  V30 5152 H 510.538 -3.21553 -2.39592 0
M  V30 5153 H 507.128 -4.09538 -1.26399 0
M  V30 5154 H 511.312 -4.91066 -0.718899 0
M  V30 5155 H 506.568 -6.11396 0.0222356 0
M  V30 5156 H 510.742 -6.94137 0.560947 0
M  V30 5157 H 508.369 -7.54397 0.937495 0
M  V30 5158 N 509.944 0.496216 -1.49584 0
M  V30 5159 C 510.907 1.57952 -1.66084 0
M  V30 5160 C 511.907 1.51729 -0.53244 0
M  V30 5161 O 513.097 1.54796 -0.79899 0
M  V30 5162 C 510.229 2.97604 -1.66268 0
M  V30 5163 H 511.422 1.44649 -2.6271 0
M  V30 5164 H 508.975 0.7208 -1.38687 0
M  V30 5165 H 509.71 3.16378 -0.712432 0
M  V30 5166 H 509.495 3.03528 -2.4822 0
M  V30 5167 H 510.985 3.76301 -1.81073 0
M  V30 5168 N 511.423 1.38739 0.74761 0
M  V30 5169 C 512.7 1.25791 1.49786 0
M  V30 5170 C 513.08 -0.138075 2.10648 0
M  V30 5171 O 512.428 -1.14815 1.9756 0
M  V30 5172 C 512.638 2.37265 2.55942 0
M  V30 5173 C 513.986 2.75978 3.22679 0
M  V30 5174 O 515.01 2.36621 2.6625 0
M  V30 5175 O 513.869 3.43867 4.24756 0
M  V30 5176 H 510.963 0.492251 0.664543 0
M  V30 5177 H 513.509 1.50582 0.782511 0
M  V30 5178 H 512.281 3.30644 2.0926 0
M  V30 5179 H 511.904 2.14071 3.35051 0
M  V30 5180 N 512.901 -0.976442 1.23707 0
M  V30 5181 C 513.831 -2.08749 1.04624 0
M  V30 5182 C 514.812 -1.70057 -0.0380956 0
M  V30 5183 O 515.997 -1.93782 0.127308 0
M  V30 5184 C 513.127 -3.41335 0.640902 0
M  V30 5185 C 512.081 -3.93947 1.67302 0
M  V30 5186 C 511.407 -5.22774 1.12301 0
M  V30 5187 C 512.707 -4.22769 3.06697 0
M  V30 5188 H 514.401 -2.24972 1.97555 0
M  V30 5189 H 511.947 -1.08108 0.951247 0
M  V30 5190 H 513.9 -4.18489 0.494434 0
M  V30 5191 H 512.624 -3.24988 -0.324099 0
M  V30 5192 H 511.283 -3.18941 1.80755 0
M  V30 5193 H 510.931 -5.0278 0.148877 0
M  V30 5194 H 510.631 -5.58942 1.81267 0
M  V30 5195 H 512.155 -6.02546 0.988479 0
M  V30 5196 H 513.569 -4.90659 2.96524 0
M  V30 5197 H 511.966 -4.70147 3.72937 0
M  V30 5198 H 513.036 -3.29885 3.55392 0
M  V30 5199 N 514.379 -1.04941 -1.1758 0
M  V30 5200 C 515.625 -0.759112 -1.88057 0
M  V30 5201 C 515.958 0.711918 -1.8068 0
M  V30 5202 O 515.233 1.52035 -1.21308 0
M  V30 5203 C 515.516 -1.237 -3.38187 0
M  V30 5204 C 515.369 -2.77078 -3.54327 0
M  V30 5205 C 516.688 -0.834014 -4.32125 0
M  V30 5206 H 513.807 -0.277237 -0.682868 0
M  V30 5207 H 516.449 -1.30296 -1.38286 0
M  V30 5208 H 514.599 -0.774337 -3.80705 0
M  V30 5209 H 516.271 -3.31449 -3.20842 0
M  V30 5210 H 514.514 -3.16477 -2.96689 0
M  V30 5211 H 515.185 -3.05577 -4.59703 0
M  V30 5212 H 517.661 -1.23228 -3.97434 0
M  V30 5213 H 516.537 -1.19603 -5.35711 0
M  V30 5214 H 516.798 0.262195 -4.41322 0
M  V30 5215 N 515.857 1.33968 -0.830081 0
M  V30 5216 C 517.268 1.80439 -0.479455 0
M  V30 5217 C 517.619 1.68756 1.00079 0
M  V30 5218 O 516.744 1.23171 1.77927 0
M  V30 5219 C 517.339 3.27611 -0.863505 0
M  V30 5220 C 515.898 3.72133 -0.565145 0
M  V30 5221 C 515.045 2.55549 -1.07657 0
M  V30 5222 H 517.996 1.21614 -1.0196 0
M  V30 5223 H 518.017 3.8012 -0.170083 0
M  V30 5224 H 517.529 3.36082 -1.94089 0
M  V30 5225 H 515.63 3.69196 0.502536 0
M  V30 5226 H 515.743 4.65963 -1.11422 0
M  V30 5227 H 514.107 2.49788 -0.497807 0
M  V30 5228 H 514.89 2.66786 -2.16055 0
M  V30 5229 N 517.335 0.585699 1.46312 0
M  V30 5230 C 518.582 0.0724211 2.0237 0
M  V30 5231 C 518.91 -1.28868 1.45683 0
M  V30 5232 O 518.165 -1.85853 0.612945 0
M  V30 5233 C 518.464 -0.0401312 3.57377 0
M  V30 5234 C 518.13 1.25376 4.33119 0
M  V30 5235 C 516.792 1.60824 4.5353 0
M  V30 5236 C 519.144 2.10987 4.76586 0
M  V30 5237 C 516.472 2.81676 5.14661 0
M  V30 5238 C 518.824 3.31068 5.39052 0
M  V30 5239 C 517.488 3.66794 5.5769 0
M  V30 5240 H 516.758 0.0265007 0.740526 0
M  V30 5241 H 519.405 0.762935 1.75646 0
M  V30 5242 H 517.71 -0.813791 3.83255 0
M  V30 5243 H 519.407 -0.453078 3.98432 0
M  V30 5244 H 515.997 0.967808 4.1753 0
M  V30 5245 H 520.181 1.84904 4.60569 0
M  V30 5246 H 515.437 3.0949 5.27282 0
M  V30 5247 H 519.611 3.97672 5.71691 0
M  V30 5248 H 517.238 4.60529 6.04828 0
M  V30 5249 N 518.813 -1.54241 0.323641 0
M  V30 5250 C 520.09 -1.92741 -0.333181 0
M  V30 5251 C 520.47 -1.25326 -1.69872 0
M  V30 5252 O 519.818 -0.396991 -2.25025 0
M  V30 5253 C 520.028 -3.46399 -0.425322 0
M  V30 5254 C 521.376 -4.19029 -0.68557 0
M  V30 5255 O 522.4 -3.52555 -0.50824 0
M  V30 5256 O 521.259 -5.36751 -1.02767 0
M  V30 5257 H 518.353 -0.804811 -0.190286 0
M  V30 5258 H 520.899 -1.65542 0.373361 0
M  V30 5259 H 519.671 -3.87643 0.533737 0
M  V30 5260 H 519.294 -3.79704 -1.17944 0
M  V30 5261 N 520.291 -0.0518155 -1.57515 0
M  V30 5262 C 521.516 0.634896 -1.97443 0
M  V30 5263 C 521.941 1.63546 -0.929207 0
M  V30 5264 O 521.299 1.80981 0.107484 0
M  V30 5265 C 521.347 1.29765 -3.36442 0
M  V30 5266 O 520.451 2.41333 -3.34413 0
M  V30 5267 H 519.792 0.164994 -0.643174 0
M  V30 5268 H 522.322 -0.120407 -2.04245 0
M  V30 5269 H 522.332 1.64918 -3.73184 0
M  V30 5270 H 521.007 0.564361 -4.12053 0
M  V30 5271 H 519.584 2.08122 -3.09418 0
M  V30 5272 N 521.769 1.56035 0.221574 0
M  V30 5273 C 523.015 1.80221 0.942973 0
M  V30 5274 C 523.37 0.624799 1.81973 0
M  V30 5275 O 522.663 -0.381145 1.87771 0
M  V30 5276 C 522.857 3.07813 1.8162 0
M  V30 5277 C 522.686 4.37852 1.02548 0
M  V30 5278 C 521.456 5.00138 0.720418 0
M  V30 5279 C 523.654 5.12813 0.390799 0
M  V30 5280 N 521.636 6.13831 -0.0917139 0
M  V30 5281 C 523.007 6.19346 -0.284728 0
M  V30 5282 C 525.062 4.96972 0.303828 0
M  V30 5283 C 523.765 7.11758 -1.03891 0
M  V30 5284 C 525.791 5.89784 -0.436883 0
M  V30 5285 C 525.153 6.95743 -1.10095 0
M  V30 5286 H 521.252 0.711117 0.325325 0
M  V30 5287 H 523.836 1.93522 0.213854 0
M  V30 5288 H 522.007 2.95795 2.51714 0
M  V30 5289 H 523.739 3.20191 2.47508 0
M  V30 5290 H 520.494 4.62075 1.03843 0
M  V30 5291 H 520.918 6.75249 -0.486615 0
M  V30 5292 H 525.56 4.15107 0.802896 0
M  V30 5293 H 523.278 7.93105 -1.54949 0
M  V30 5294 H 526.864 5.79603 -0.505181 0
M  V30 5295 H 525.744 7.66322 -1.66495 0
M  V30 5296 N 523.247 -0.488276 1.49845 0
M  V30 5297 C 524.157 -1.61451 1.70207 0
M  V30 5298 C 525.173 -1.63877 0.584846 0
M  V30 5299 O 526.349 -1.82063 0.861107 0
M  V30 5300 C 523.414 -2.9776 1.77594 0
M  V30 5301 C 522.475 -3.05861 3.01243 0
M  V30 5302 C 521.708 -4.35668 3.08268 0
M  V30 5303 O 521.931 -5.25197 2.22541 0
M  V30 5304 O 520.865 -4.49005 4.00847 0
M  V30 5305 H 524.691 -1.47199 2.65643 0
M  V30 5306 H 522.276 -0.665939 1.33737 0
M  V30 5307 H 524.158 -3.7875 1.84732 0
M  V30 5308 H 522.833 -3.12248 0.8534 0
M  V30 5309 H 521.74 -2.24012 2.99616 0
M  V30 5310 H 523.073 -2.96304 3.9302 0
M  V30 5311 N 524.725 -1.39134 -0.740242 0
M  V30 5312 C 526.136 -1.32208 -1.31825 0
M  V30 5313 C 526.487 0.0159919 -1.96193 0
M  V30 5314 O 525.612 0.918111 -1.95958 0
M  V30 5315 C 526.207 -2.39436 -2.39699 0
M  V30 5316 C 524.766 -2.36048 -2.93187 0
M  V30 5317 C 523.913 -2.21599 -1.66701 0
M  V30 5318 H 526.864 -1.49298 -0.538133 0
M  V30 5319 H 526.885 -2.05922 -3.19963 0
M  V30 5320 H 526.397 -3.36811 -1.92821 0
M  V30 5321 H 524.498 -1.42295 -3.44359 0
M  V30 5322 H 524.611 -3.30704 -3.46658 0
M  V30 5323 H 522.975 -1.68681 -1.90837 0
M  V30 5324 H 523.758 -3.20936 -1.21882 0
M  V30 5325 N 526.204 0.969867 -1.24223 0
M  V30 5326 C 527.134 2.08191 -1.05729 0
M  V30 5327 C 528.115 1.70075 0.0290765 0
M  V30 5328 O 529.3 1.93712 -0.137583 0
M  V30 5329 C 526.43 3.40991 -0.658995 0
M  V30 5330 C 525.384 3.93054 -1.69389 0
M  V30 5331 C 524.71 5.22171 -1.15072 0
M  V30 5332 C 526.01 4.21137 -3.08935 0
M  V30 5333 H 527.704 2.23921 -1.98746 0
M  V30 5334 H 525.25 1.07602 -0.956967 0
M  V30 5335 H 527.203 4.18221 -0.51662 0
M  V30 5336 H 525.927 3.25155 0.30686 0
M  V30 5337 H 524.586 3.17977 -1.82444 0
M  V30 5338 H 524.234 5.02694 -0.175539 0
M  V30 5339 H 523.934 5.57973 -1.84229 0
M  V30 5340 H 525.458 6.02013 -1.02042 0
M  V30 5341 H 526.872 4.8908 -2.99121 0
M  V30 5342 H 525.269 4.68163 -3.75425 0
M  V30 5343 H 526.339 3.27996 -3.57137 0
M  V30 5344 N 527.682 1.05563 1.17022 0
M  V30 5345 C 528.615 0.604197 2.20056 0
M  V30 5346 C 529.593 -0.369169 1.58354 0
M  V30 5347 O 530.777 -0.279898 1.8641 0
M  V30 5348 C 527.904 -0.115265 3.38504 0
M  V30 5349 C 526.95 0.813698 4.18666 0
M  V30 5350 S 527.783 2.30492 4.83357 0
M  V30 5351 C 528.939 1.59674 6.0519 0
M  V30 5352 H 529.172 1.47713 2.58008 0
M  V30 5353 H 526.705 0.867932 1.27696 0
M  V30 5354 H 528.663 -0.524162 4.0714 0
M  V30 5355 H 527.324 -0.964284 2.98932 0
M  V30 5356 H 526.517 0.256736 5.03346 0
M  V30 5357 H 526.119 1.16213 3.55486 0
M  V30 5358 H 528.411 0.898164 6.7152 0
M  V30 5359 H 529.354 2.42115 6.65422 0
M  V30 5360 H 529.762 1.08252 5.54023 0
M  V30 5361 N 529.16 -1.33526 0.837174 0
M  V30 5362 C 530.576 -1.50727 0.524743 0
M  V30 5363 C 530.776 -1.77792 -0.948279 0
M  V30 5364 O 529.832 -1.83719 -1.73216 0
M  V30 5365 C 531.145 -2.66299 1.39661 0
M  V30 5366 C 532.693 -2.80183 1.39521 0
M  V30 5367 C 533.168 -3.98815 2.25189 0
M  V30 5368 N 534.659 -4.06047 2.2289 0
M  V30 5369 C 535.394 -4.97032 2.85915 0
M  V30 5370 N 534.89 -5.93143 3.57985 0
M  V30 5371 N 536.683 -4.90015 2.75394 0
M  V30 5372 H 528.834 -1.1422 1.79074 0
M  V30 5373 H 531.097 -0.561399 0.763894 0
M  V30 5374 H 530.803 -2.52974 2.4433 0
M  V30 5375 H 530.677 -3.61663 1.07145 0
M  V30 5376 H 533.064 -2.92942 0.356253 0
M  V30 5377 H 533.145 -1.85586 1.76044 0
M  V30 5378 H 532.789 -3.86817 3.29143 0
M  V30 5379 H 532.719 -4.92654 1.86009 0
M  V30 5380 H 535.21 -3.37262 1.70478 0
M  V30 5381 H 535.523 -6.59227 4.03286 0
M  V30 5382 H 533.868 -5.93223 3.62093 0
M  V30 5383 H 537.059 -4.13894 2.18654 0
M  V30 5384 H 537.232 -5.60724 3.24796 0
M  V30 5385 N 530.638 -0.59345 -1.46 0
M  V30 5386 C 531.585 0.133618 -2.30413 0
M  V30 5387 C 532.555 0.873736 -1.41262 0
M  V30 5388 O 533.74 0.862279 -1.70204 0
M  V30 5389 C 530.88 1.13434 -3.25924 0
M  V30 5390 C 529.993 0.39656 -4.30176 0
M  V30 5391 C 529.128 1.38575 -5.12806 0
M  V30 5392 C 528.167 0.634984 -6.08797 0
M  V30 5393 N 527.304 1.57276 -6.84258 0
M  V30 5394 H 532.144 -0.592252 -2.92055 0
M  V30 5395 H 529.681 -0.303874 -1.43927 0
M  V30 5396 H 531.639 1.72752 -3.79753 0
M  V30 5397 H 530.269 1.82779 -2.66067 0
M  V30 5398 H 529.321 -0.311861 -3.79119 0
M  V30 5399 H 530.633 -0.189869 -4.98438 0
M  V30 5400 H 529.787 2.05141 -5.70966 0
M  V30 5401 H 528.526 2.00611 -4.44529 0
M  V30 5402 H 527.531 -0.0443925 -5.49782 0
M  V30 5403 H 528.756 0.0198678 -6.79097 0
M  V30 5404 H 526.702 2.18103 -6.18682 0
M  V30 5405 H 526.619 1.03941 -7.48821 0
M  V30 5406 H 527.887 2.22844 -7.46968 0
M  V30 5407 N 532.116 1.54067 -0.331816 0
M  V30 5408 C 533.046 2.27569 0.522932 0
M  V30 5409 C 534.027 1.28679 1.11247 0
M  V30 5410 O 535.212 1.57504 1.13605 0
M  V30 5411 C 532.342 3.0397 1.67987 0
M  V30 5412 C 531.296 4.10267 1.21924 0
M  V30 5413 C 530.622 4.74555 2.46377 0
M  V30 5414 C 531.922 5.21268 0.32815 0
M  V30 5415 H 533.616 2.99264 -0.0901977 0
M  V30 5416 H 531.162 1.4393 -0.044821 0
M  V30 5417 H 533.115 3.54123 2.28418 0
M  V30 5418 H 531.839 2.29906 2.31971 0
M  V30 5419 H 530.498 3.61009 0.637809 0
M  V30 5420 H 530.146 3.97098 3.08743 0
M  V30 5421 H 529.846 5.46363 2.16243 0
M  V30 5422 H 531.37 5.27487 3.07555 0
M  V30 5423 H 532.784 5.67128 0.838978 0
M  V30 5424 H 531.181 5.99982 0.119228 0
M  V30 5425 H 532.251 4.80673 -0.638839 0
M  V30 5426 N 533.594 0.0601682 1.57485 0
M  V30 5427 C 534.842 -0.610386 1.92662 0
M  V30 5428 C 535.163 -1.70849 0.939981 0
M  V30 5429 O 534.433 -1.95895 -0.0137455 0
M  V30 5430 H 533.013 -0.228457 0.711208 0
M  V30 5431 H 535.675 0.115288 1.94559 0
M  V30 5432 H 534.771 -1.0432 2.94149 0
M  V30 5433 N 535.072 -1.5615 -0.213296 0
M  V30 5434 C 536.002 -1.96109 -1.26742 0
M  V30 5435 C 536.983 -0.830448 -1.48451 0
M  V30 5436 O 538.168 -1.09339 -1.60495 0
M  V30 5437 C 535.298 -2.28492 -2.61551 0
M  V30 5438 C 534.252 -3.44124 -2.54485 0
M  V30 5439 C 533.578 -3.62134 -3.93399 0
M  V30 5440 C 534.878 -4.78855 -2.08556 0
M  V30 5441 H 536.572 -2.84412 -0.935434 0
M  V30 5442 H 534.118 -1.36836 -0.44854 0
M  V30 5443 H 536.071 -2.55039 -3.3546 0
M  V30 5444 H 534.795 -1.37052 -2.96453 0
M  V30 5445 H 533.454 -3.17639 -1.83033 0
M  V30 5446 H 533.102 -2.68055 -4.25623 0
M  V30 5447 H 532.802 -4.39913 -3.89551 0
M  V30 5448 H 534.326 -3.91038 -4.68958 0
M  V30 5449 H 535.74 -5.04552 -2.72213 0
M  V30 5450 H 534.137 -5.59975 -2.1575 0
M  V30 5451 H 535.207 -4.73657 -1.03811 0
M  V30 5452 N 536.55 0.480323 -1.50102 0
M  V30 5453 C 537.483 1.59789 -1.62919 0
M  V30 5454 C 538.461 1.55429 -0.477557 0
M  V30 5455 O 539.645 1.75186 -0.695851 0
M  V30 5456 C 536.772 2.98351 -1.60325 0
M  V30 5457 C 535.818 3.20899 -2.80938 0
M  V30 5458 S 536.651 3.01791 -4.4236 0
M  V30 5459 C 537.807 4.42712 -4.42444 0
M  V30 5460 H 538.04 1.48676 -2.57454 0
M  V30 5461 H 535.573 0.666996 -1.3925 0
M  V30 5462 H 537.531 3.7824 -1.59514 0
M  V30 5463 H 536.192 3.06862 -0.670419 0
M  V30 5464 H 535.385 4.22102 -2.75401 0
M  V30 5465 H 534.987 2.48768 -2.79268 0
M  V30 5466 H 537.279 5.3518 -4.15438 0
M  V30 5467 H 538.222 4.53294 -5.43995 0
M  V30 5468 H 538.63 4.24359 -3.72263 0
M  V30 5469 N 538.028 1.39524 0.732853 0
M  V30 5470 C 539.305 1.27373 1.48444 0
M  V30 5471 C 539.685 -0.115725 2.10783 0
M  V30 5472 O 539.033 -1.12713 1.98766 0
M  V30 5473 C 539.243 2.39966 2.53412 0
M  V30 5474 C 540.591 2.79384 3.19733 0
M  V30 5475 O 541.615 2.39431 2.63725 0
M  V30 5476 O 540.474 3.48353 4.21085 0
M  V30 5477 H 537.568 0.499272 0.659285 0
M  V30 5478 H 540.114 1.51403 0.766496 0
M  V30 5479 H 538.886 3.32845 2.05742 0
M  V30 5480 H 538.509 2.17612 3.32762 0
M  V30 5481 N 539.506 -0.963266 1.24736 0
M  V30 5482 C 540.454 -2.07985 1.04139 0
M  V30 5483 C 541.448 -1.69381 -0.0250556 0
M  V30 5484 O 542.654 -1.79531 0.129863 0
M  V30 5485 H 539.029 -0.680627 0.319768 0
M  V30 5486 H 541 -2.22517 1.98818 0
M  V30 5487 C 539.749 -3.4123 0.667615 0
M  V30 5488 H 539.072 -3.71397 1.48 0
M  V30 5489 H 540.512 -4.20244 0.563136 0
M  V30 5490 C 538.971 -3.3104 -0.625647 0
M  V30 5491 O 539.501 -3.65334 -1.67016 0
M  V30 5492 N 537.707 -2.84168 -0.608033 0
M  V30 5493 H 537.254 -2.56458 0.242323 0
M  V30 5494 H 537.212 -2.77732 -1.47352 0
M  V30 5495 N 540.985 -1.06182 -1.16461 0
M  V30 5496 C 541.895 -0.682671 -2.24448 0
M  V30 5497 C 542.911 0.30078 -1.71381 0
M  V30 5498 O 544.087 0.150376 -2.00838 0
M  V30 5499 C 541.152 -0.0737202 -3.46622 0
M  V30 5500 C 540.213 -1.10889 -4.14731 0
M  V30 5501 C 539.446 -0.528908 -5.31073 0
M  V30 5502 O 539.669 0.65868 -5.66584 0
M  V30 5503 O 538.603 -1.26805 -5.88391 0
M  V30 5504 H 542.429 -1.58291 -2.59187 0
M  V30 5505 H 540.014 -0.834013 -1.23954 0
M  V30 5506 H 541.896 0.264192 -4.20571 0
M  V30 5507 H 540.571 0.800015 -3.13658 0
M  V30 5508 H 539.478 -1.49896 -3.42756 0
M  V30 5509 H 540.811 -1.95412 -4.51747 0
M  V30 5510 N 542.463 1.3308 -0.844243 0
M  V30 5511 C 543.712 1.96868 -0.438833 0
M  V30 5512 C 544.025 1.67599 1.00846 0
M  V30 5513 O 545.231 2.25043 1.51881 0
M  V30 5514 C 543.687 3.5234 -0.73377 0
M  V30 5515 C 543.295 3.90481 -2.1961 0
M  V30 5516 C 545.039 4.22653 -0.395574 0
M  V30 5517 C 542.946 5.38954 -2.43481 0
M  V30 5518 H 541.876 0.736749 -0.160364 0
M  V30 5519 H 544.527 1.51623 -1.03358 0
M  V30 5520 H 542.909 3.95941 -0.068589 0
M  V30 5521 H 544.083 3.57922 -2.90221 0
M  V30 5522 H 542.398 3.33165 -2.4978 0
M  V30 5523 H 544.995 5.31848 -0.551477 0
M  V30 5524 H 545.338 4.11004 0.661921 0
M  V30 5525 H 545.871 3.84601 -1.01621 0
M  V30 5526 H 542.61 5.55612 -3.47816 0
M  V30 5527 H 542.13 5.72954 -1.77437 0
M  V30 5528 H 543.809 6.05907 -2.26905 0
M  V30 5529 N 543.941 0.601185 1.45683 0
M  V30 5530 C 544.888 -0.121396 2.30481 0
M  V30 5531 C 545.858 -0.866232 1.41724 0
M  V30 5532 O 547.043 -0.85324 1.70659 0
M  V30 5533 C 544.183 -1.11704 3.26521 0
M  V30 5534 C 543.296 -0.373741 4.3038 0
M  V30 5535 C 542.431 -1.35854 5.13534 0
M  V30 5536 C 541.47 -0.602689 6.09126 0
M  V30 5537 N 540.607 -1.53645 6.85082 0
M  V30 5538 H 545.447 0.607732 2.91737 0
M  V30 5539 H 542.984 0.311502 1.43764 0
M  V30 5540 H 544.942 -1.70735 3.80664 0
M  V30 5541 H 543.572 -1.81366 2.67032 0
M  V30 5542 H 542.624 0.331962 3.78949 0
M  V30 5543 H 543.936 0.2163 4.98331 0
M  V30 5544 H 543.09 -2.02111 5.72046 0
M  V30 5545 H 541.829 -1.98251 4.45587 0
M  V30 5546 H 540.834 0.0735482 5.49751 0
M  V30 5547 H 542.059 0.0161467 6.79098 0
M  V30 5548 H 540.005 -2.14819 6.1983 0
M  V30 5549 H 539.922 -0.999688 7.49361 0
M  V30 5550 H 541.19 -2.1888 7.48139 0
M  V30 5551 N 545.419 -1.53889 0.339982 0
M  V30 5552 C 546.665 -2.01152 -0.258003 0
M  V30 5553 C 546.998 -1.22749 -1.50487 0
M  V30 5554 O 546.273 -0.314156 -1.91946 0
M  V30 5555 C 546.556 -3.55468 -0.575717 0
M  V30 5556 C 546.409 -4.44584 0.682996 0
M  V30 5557 C 547.728 -4.1768 -1.38677 0
M  V30 5558 H 544.847 -0.731198 -0.0922992 0
M  V30 5559 H 547.489 -1.84352 0.459814 0
M  V30 5560 H 545.639 -3.69914 -1.18725 0
M  V30 5561 H 547.311 -4.41981 1.32102 0
M  V30 5562 H 545.554 -4.13592 1.3086 0
M  V30 5563 H 546.225 -5.5043 0.416001 0
M  V30 5564 H 548.701 -4.0691 -0.869705 0
M  V30 5565 H 547.577 -5.25734 -1.57783 0
M  V30 5566 H 547.838 -3.72069 -2.38782 0
M  V30 5567 N 546.897 -0.0685191 -1.57451 0
M  V30 5568 C 547.86 0.885173 -2.11417 0
M  V30 5569 C 548.86 1.22853 -1.03748 0
M  V30 5570 O 550.05 1.16235 -1.2975 0
M  V30 5571 C 547.182 2.18964 -2.61281 0
M  V30 5572 H 548.375 0.417034 -2.96986 0
M  V30 5573 H 545.928 0.18014 -1.55258 0
M  V30 5574 H 546.663 2.70321 -1.79156 0
M  V30 5575 H 546.448 1.9534 -3.39977 0
M  V30 5576 H 547.938 2.87242 -3.0312 0
M  V30 5577 N 548.375 1.56261 0.205012 0
M  V30 5578 C 549.322 1.93754 1.25411 0
M  V30 5579 C 550.292 0.796826 1.45739 0
M  V30 5580 O 551.477 1.05414 1.59036 0
M  V30 5581 C 548.617 2.27383 2.59598 0
M  V30 5582 C 547.73 3.5447 2.46931 0
M  V30 5583 C 546.865 3.77468 3.73753 0
M  V30 5584 C 545.904 4.98014 3.55877 0
M  V30 5585 N 545.041 5.17316 4.74688 0
M  V30 5586 H 549.881 2.83203 0.92737 0
M  V30 5587 H 547.418 1.40158 0.446574 0
M  V30 5588 H 549.376 2.44895 3.37761 0
M  V30 5589 H 548.006 1.41088 2.90335 0
M  V30 5590 H 547.058 3.45061 1.60116 0
M  V30 5591 H 548.37 4.42789 2.29651 0
M  V30 5592 H 547.524 3.95165 4.60358 0
M  V30 5593 H 546.263 2.87461 3.93976 0
M  V30 5594 H 545.268 4.80249 2.67657 0
M  V30 5595 H 546.493 5.8952 3.37109 0
M  V30 5596 H 544.439 4.30255 4.95194 0
M  V30 5597 H 544.356 5.99796 4.60197 0
M  V30 5598 H 545.624 5.39463 5.62672 0
M  V30 5599 N 549.853 -0.472356 1.50355 0
M  V30 5600 C 550.816 -1.5529 1.68576 0
M  V30 5601 C 551.816 -1.50863 0.556511 0
M  V30 5602 O 553.006 -1.53505 0.823516 0
M  V30 5603 C 550.138 -2.94921 1.70981 0
M  V30 5604 H 551.331 -1.40451 2.64978 0
M  V30 5605 H 548.884 -0.698645 1.39816 0
M  V30 5606 H 549.619 -3.15204 0.762675 0
M  V30 5607 H 549.404 -2.99541 2.53017 0
M  V30 5608 H 550.894 -3.73372 1.87037 0
M  V30 5609 N 551.331 -1.39911 -0.725443 0
M  V30 5610 C 552.241 -1.41688 -1.8698 0
M  V30 5611 C 553.257 -0.310579 -1.71206 0
M  V30 5612 O 554.433 -0.55359 -1.93642 0
M  V30 5613 C 551.498 -1.26811 -3.22676 0
M  V30 5614 C 550.559 -2.47497 -3.50776 0
M  V30 5615 C 549.792 -2.3332 -4.79997 0
M  V30 5616 O 550.015 -1.34175 -5.54394 0
M  V30 5617 O 548.949 -3.22498 -5.08211 0
M  V30 5618 H 552.775 -2.38171 -1.88436 0
M  V30 5619 H 550.36 -1.21128 -0.874548 0
M  V30 5620 H 552.242 -1.20684 -4.03749 0
M  V30 5621 H 550.917 -0.334289 -3.21969 0
M  V30 5622 H 549.824 -2.59201 -2.69751 0
M  V30 5623 H 551.157 -3.39606 -3.5627 0
M  V30 5624 N 552.809 0.956637 -1.25245 0
M  V30 5625 C 553.772 2.03457 -1.05537 0
M  V30 5626 C 554.772 1.60798 -0.00886317 0
M  V30 5627 O 555.962 1.72384 -0.250865 0
M  V30 5628 C 553.094 3.35543 -0.601965 0
M  V30 5629 H 554.287 2.22372 -2.01223 0
M  V30 5630 H 551.84 1.13344 -1.07623 0
M  V30 5631 H 552.575 3.22323 0.357584 0
M  V30 5632 H 552.36 3.67854 -1.35743 0
M  V30 5633 H 553.85 4.14769 -0.485454 0
M  V30 5634 N 554.287 1.06798 1.15896 0
M  V30 5635 C 555.25 0.687328 2.18651 0
M  V30 5636 C 556.25 -0.269559 1.58524 0
M  V30 5637 O 557.44 -0.0512627 1.74125 0
M  V30 5638 C 554.572 0.0121642 3.40898 0
M  V30 5639 H 555.765 1.59701 2.53842 0
M  V30 5640 H 553.318 0.863828 1.3026 0
M  V30 5641 H 554.053 -0.910025 3.1127 0
M  V30 5642 H 553.838 0.700309 3.85795 0
M  V30 5643 H 555.328 -0.239703 4.16911 0
M  V30 5644 N 555.766 -1.3263 0.851289 0
M  V30 5645 C 557.014 -1.96978 0.452128 0
M  V30 5646 C 557.335 -1.67715 -0.99482 0
M  V30 5647 O 556.605 -0.98259 -1.69476 0
M  V30 5648 H 555.185 -0.72873 0.164202 0
M  V30 5649 H 557.847 -1.61774 1.08698 0
M  V30 5650 H 556.943 -3.06387 0.594407 0
M  V30 5651 N 557.244 -0.608902 -1.45362 0
M  V30 5652 C 558.194 0.130616 -2.27626 0
M  V30 5653 C 559.178 0.837323 -1.37396 0
M  V30 5654 O 560.37 0.727096 -1.61376 0
M  V30 5655 C 557.499 1.12646 -3.24293 0
M  V30 5656 C 556.585 0.42052 -4.2201 0
M  V30 5657 N 556.976 -0.538569 -5.02925 0
M  V30 5658 C 555.274 0.667901 -4.40971 0
M  V30 5659 C 555.975 -0.953625 -5.7383 0
M  V30 5660 N 554.951 -0.297097 -5.42788 0
M  V30 5661 H 558.753 -0.605996 -2.87585 0
M  V30 5662 H 556.267 -0.432672 -1.5653 0
M  V30 5663 H 558.264 1.67066 -3.81961 0
M  V30 5664 H 556.924 1.86361 -2.65894 0
M  V30 5665 H 557.935 -0.915375 -5.09746 0
M  V30 5666 H 554.612 1.38963 -3.93695 0
M  V30 5667 H 556.002 -1.74473 -6.48852 0
M  V30 5668 N 558.722 1.53707 -0.348139 0
M  V30 5669 C 560.138 1.596 0.00361134 0
M  V30 5670 C 560.338 1.36394 1.4832 0
M  V30 5671 O 559.394 1.16046 2.24253 0
M  V30 5672 C 560.707 2.97512 -0.436682 0
M  V30 5673 C 562.255 3.10568 -0.389416 0
M  V30 5674 C 562.73 4.50866 -0.805249 0
M  V30 5675 N 564.221 4.56929 -0.759616 0
M  V30 5676 C 564.956 5.63643 -1.05327 0
M  V30 5677 N 564.452 6.78189 -1.41531 0
M  V30 5678 N 566.245 5.5354 -0.977207 0
M  V30 5679 H 558.396 1.67044 -1.31187 0
M  V30 5680 H 560.659 0.782559 -0.535075 0
M  V30 5681 H 560.365 3.19575 -1.46849 0
M  V30 5682 H 560.239 3.76742 0.185744 0
M  V30 5683 H 562.626 2.88226 0.633228 0
M  V30 5684 H 562.707 2.33387 -1.04711 0
M  V30 5685 H 562.351 4.73943 -1.82593 0
M  V30 5686 H 562.281 5.26452 -0.124989 0
M  V30 5687 H 564.772 3.74675 -0.49265 0
M  V30 5688 H 565.085 7.55541 -1.62411 0
M  V30 5689 H 563.43 6.79624 -1.45381 0
M  V30 5690 H 566.621 4.62932 -0.693675 0
M  V30 5691 H 566.794 6.36614 -1.2094 0
M  V30 5692 N 560.2 0.0768682 1.57412 0
M  V30 5693 C 561.477 -0.632359 1.85096 0
M  V30 5694 C 561.857 -1.87479 0.9703 0
M  V30 5695 O 561.205 -2.28469 0.0379062 0
M  V30 5696 C 561.415 -0.965174 3.35388 0
M  V30 5697 C 562.763 -1.33648 4.03018 0
M  V30 5698 O 563.787 -1.05675 3.40164 0
M  V30 5699 O 562.646 -1.85959 5.13889 0
M  V30 5700 H 559.74 -0.314574 0.764835 0
M  V30 5701 H 562.286 0.108184 1.69355 0
M  V30 5702 H 561.058 -0.0829745 3.91212 0
M  V30 5703 H 560.681 -1.76231 3.5641 0
M  V30 5704 N 561.678 -1.56367 -0.196722 0
M  V30 5705 C 562.906 -1.84639 -0.933608 0
M  V30 5706 C 563.321 -0.659164 -1.76919 0
M  V30 5707 O 562.678 0.372142 -1.78665 0
M  V30 5708 C 562.729 -3.11694 -1.83109 0
M  V30 5709 O 562.45 -4.25838 -1.02924 0
M  V30 5710 C 563.951 -3.53132 -2.67979 0
M  V30 5711 H 561.171 -0.613188 -0.272473 0
M  V30 5712 H 563.715 -2.03475 -0.204465 0
M  V30 5713 H 561.87 -2.94759 -2.51387 0
M  V30 5714 H 562.284 -4.98178 -1.64069 0
M  V30 5715 H 563.758 -4.45005 -3.26611 0
M  V30 5716 H 564.235 -2.76045 -3.41608 0
M  V30 5717 H 564.841 -3.72592 -2.05074 0
M  V30 5718 N 563.156 0.464375 -1.50603 0
M  V30 5719 C 564.086 1.56944 -1.72889 0
M  V30 5720 C 565.067 1.59979 -0.577997 0
M  V30 5721 O 566.252 1.76138 -0.817855 0
M  V30 5722 C 563.382 2.95225 -1.8292 0
M  V30 5723 C 562.336 3.07056 -2.98162 0
M  V30 5724 C 561.662 4.47051 -2.93343 0
M  V30 5725 C 562.962 2.83648 -4.38567 0
M  V30 5726 H 564.656 1.38547 -2.65415 0
M  V30 5727 H 562.202 0.665082 -1.27721 0
M  V30 5728 H 564.155 3.72467 -1.97095 0
M  V30 5729 H 562.879 3.14793 -0.870209 0
M  V30 5730 H 561.538 2.32248 -2.83648 0
M  V30 5731 H 561.186 4.63547 -1.95276 0
M  V30 5732 H 560.886 4.55902 -3.70712 0
M  V30 5733 H 562.41 5.26304 -3.09575 0
M  V30 5734 H 563.824 3.50636 -4.53572 0
M  V30 5735 H 562.221 3.03937 -5.17438 0
M  V30 5736 H 563.291 1.79451 -4.50472 0
M  V30 5737 N 564.634 1.40294 0.718013 0
M  V30 5738 C 565.864 1.41544 1.50495 0
M  V30 5739 C 566.272 0.0127877 1.89196 0
M  V30 5740 O 565.615 -0.97305 1.55812 0
M  V30 5741 C 565.677 2.24021 2.81167 0
M  V30 5742 C 565.341 3.72463 2.64803 0
M  V30 5743 C 566.338 4.65154 2.32223 0
M  V30 5744 C 564.023 4.1625 2.81143 0
M  V30 5745 C 566.017 5.99618 2.16189 0
M  V30 5746 C 563.704 5.50784 2.64727 0
M  V30 5747 C 564.702 6.42283 2.32297 0
M  V30 5748 O 564.39 7.74337 2.16004 0
M  V30 5749 H 564.122 0.484819 0.471091 0
M  V30 5750 H 566.676 1.84948 0.893488 0
M  V30 5751 H 564.906 1.75393 3.44636 0
M  V30 5752 H 566.595 2.17243 3.42871 0
M  V30 5753 H 567.361 4.32622 2.19234 0
M  V30 5754 H 563.24 3.45352 3.05373 0
M  V30 5755 H 566.784 6.71 1.90799 0
M  V30 5756 H 562.681 5.82902 2.773 0
M  V30 5757 H 563.449 7.85244 2.30942 0
M  V30 5758 N 566.112 -0.949982 1.2575 0
M  V30 5759 C 567.34 -1.72972 1.13527 0
M  V30 5760 C 567.755 -1.8623 -0.310453 0
M  V30 5761 O 567.112 -1.36336 -1.2132 0
M  V30 5762 C 567.163 -3.14108 1.78936 0
M  V30 5763 O 566.884 -3.01493 3.17858 0
M  V30 5764 C 568.385 -4.08338 1.72554 0
M  V30 5765 H 565.605 -0.541864 0.395758 0
M  V30 5766 H 568.149 -1.19151 1.66202 0
M  V30 5767 H 566.304 -3.64858 1.30221 0
M  V30 5768 H 566.718 -3.90559 3.50092 0
M  V30 5769 H 568.192 -5.04963 2.22973 0
M  V30 5770 H 568.669 -4.33742 0.690251 0
M  V30 5771 H 569.275 -3.63506 2.2078 0
M  V30 5772 N 567.59 -1.07411 -1.15328 0
M  V30 5773 C 568.523 -0.63913 -2.19067 0
M  V30 5774 C 569.501 0.343929 -1.58921 0
M  V30 5775 O 570.685 0.250207 -1.86832 0
M  V30 5776 C 567.812 0.0613977 -3.38644 0
M  V30 5777 C 566.858 -0.880201 -4.17318 0
M  V30 5778 S 567.691 -2.38152 -4.79629 0
M  V30 5779 C 568.847 -1.69281 -6.02573 0
M  V30 5780 H 569.08 -1.51799 -2.55626 0
M  V30 5781 H 566.613 -0.888138 -1.26299 0
M  V30 5782 H 568.571 0.459323 -4.07922 0
M  V30 5783 H 567.232 0.916605 -3.00428 0
M  V30 5784 H 566.425 -0.336781 -5.02874 0
M  V30 5785 H 566.027 -1.21854 -3.53592 0
M  V30 5786 H 568.319 -1.00488 -6.70006 0
M  V30 5787 H 569.262 -2.52671 -6.61485 0
M  V30 5788 H 569.67 -1.17053 -5.52231 0
M  V30 5789 N 569.068 1.32177 -0.85831 0
M  V30 5790 C 569.998 2.31282 -0.321041 0
M  V30 5791 C 570.979 1.59841 0.581786 0
M  V30 5792 O 572.164 1.87619 0.501262 0
M  V30 5793 C 569.294 3.4385 0.48832 0
M  V30 5794 C 568.248 4.26799 -0.320391 0
M  V30 5795 C 567.574 5.31164 0.613934 0
M  V30 5796 C 568.874 4.98829 -1.54813 0
M  V30 5797 H 570.568 2.76469 -1.14915 0
M  V30 5798 H 568.114 1.32916 -0.554028 0
M  V30 5799 H 570.067 4.12224 0.874626 0
M  V30 5800 H 568.791 2.97401 1.34983 0
M  V30 5801 H 567.45 3.60077 -0.688497 0
M  V30 5802 H 567.098 4.80967 1.47239 0
M  V30 5803 H 566.798 5.8755 0.0768097 0
M  V30 5804 H 568.322 6.024 0.997336 0
M  V30 5805 H 569.736 5.59864 -1.23392 0
M  V30 5806 H 568.133 5.64957 -2.02346 0
M  V30 5807 H 569.203 4.26483 -2.30739 0
M  V30 5808 N 570.547 0.616602 1.45037 0
M  V30 5809 C 571.796 0.112861 2.01384 0
M  V30 5810 C 572.109 -1.26758 1.48969 0
M  V30 5811 O 573.315 -1.86454 1.9735 0
M  V30 5812 C 571.771 0.151057 3.59583 0
M  V30 5813 C 571.379 1.53191 4.20995 0
M  V30 5814 C 573.123 -0.296974 4.2346 0
M  V30 5815 C 571.03 1.526 5.71373 0
M  V30 5816 H 569.96 0.0384254 0.75302 0
M  V30 5817 H 572.611 0.773262 1.66412 0
M  V30 5818 H 570.993 -0.57617 3.91786 0
M  V30 5819 H 572.167 2.28156 4.00352 0
M  V30 5820 H 570.482 1.92279 3.69348 0
M  V30 5821 H 573.079 -0.320712 5.33737 0
M  V30 5822 H 573.422 -1.32145 3.9477 0
M  V30 5823 H 573.955 0.377279 3.96007 0
M  V30 5824 H 570.694 2.52837 6.04776 0
M  V30 5825 H 570.214 0.819064 5.94181 0
M  V30 5826 H 571.893 1.25357 6.3474 0
M  V30 5827 N 572.025 -1.5352 0.356285 0
M  V30 5828 C 572.972 -2.25439 -0.494569 0
M  V30 5829 C 573.942 -1.25752 -1.08516 0
M  V30 5830 O 575.127 -1.54513 -1.1194 0
M  V30 5831 C 572.267 -3.04011 -1.63313 0
M  V30 5832 C 571.38 -4.18574 -1.06862 0
M  V30 5833 C 570.515 -4.84607 -2.17552 0
M  V30 5834 C 569.554 -5.91218 -1.58518 0
M  V30 5835 N 568.691 -6.50979 -2.63003 0
M  V30 5836 H 573.531 -2.97737 0.125244 0
M  V30 5837 H 571.068 -1.46916 0.0735789 0
M  V30 5838 H 573.026 -3.47834 -2.30363 0
M  V30 5839 H 571.656 -2.33986 -2.22374 0
M  V30 5840 H 570.708 -3.79303 -0.288672 0
M  V30 5841 H 572.02 -4.95215 -0.596924 0
M  V30 5842 H 571.174 -5.31566 -2.92442 0
M  V30 5843 H 569.913 -4.07418 -2.6807 0
M  V30 5844 H 568.918 -5.4363 -0.821391 0
M  V30 5845 H 570.143 -6.70322 -1.08836 0
M  V30 5846 H 568.089 -5.76648 -3.12751 0
M  V30 5847 H 568.006 -7.23131 -2.20493 0
M  V30 5848 H 569.274 -7.02589 -3.37623 0
M  V30 5849 N 573.503 -0.0852151 -1.57369 0
M  V30 5850 C 574.749 0.575588 -1.95086 0
M  V30 5851 C 575.104 1.66402 -0.96582 0
M  V30 5852 O 574.397 1.91598 0.00978463 0
M  V30 5853 C 574.591 1.18482 -3.3719 0
M  V30 5854 C 574.42 0.156928 -4.49426 0
M  V30 5855 C 573.19 -0.263126 -5.04614 0
M  V30 5856 C 575.388 -0.611068 -5.10657 0
M  V30 5857 N 573.37 -1.28032 -6.00401 0
M  V30 5858 C 574.741 -1.48036 -6.02068 0
M  V30 5859 C 576.796 -0.665669 -4.9343 0
M  V30 5860 C 575.499 -2.39943 -6.781 0
M  V30 5861 C 577.525 -1.5723 -5.70116 0
M  V30 5862 C 576.887 -2.42924 -6.61186 0
M  V30 5863 H 572.986 0.181249 -0.760705 0
M  V30 5864 H 575.57 -0.165484 -1.93995 0
M  V30 5865 H 573.741 1.89575 -3.38992 0
M  V30 5866 H 575.473 1.80718 -3.62109 0
M  V30 5867 H 572.228 0.122664 -4.73441 0
M  V30 5868 H 572.652 -1.78682 -6.52994 0
M  V30 5869 H 577.294 -0.0173214 -4.22796 0
M  V30 5870 H 575.012 -3.05807 -7.48002 0
M  V30 5871 H 578.598 -1.61956 -5.58804 0
M  V30 5872 H 577.478 -3.1194 -7.19488 0
M  V30 5873 N 574.981 1.5647 0.188427 0
M  V30 5874 C 576.227 1.81281 0.909124 0
M  V30 5875 C 576.56 0.66034 1.82628 0
M  V30 5876 O 575.835 -0.338737 1.91528 0
M  V30 5877 C 576.118 3.16388 1.7196 0
M  V30 5878 C 575.971 4.42137 0.826714 0
M  V30 5879 C 577.29 3.48256 2.69083 0
M  V30 5880 H 574.409 0.659457 0.329068 0
M  V30 5881 H 577.051 1.89182 0.176156 0
M  V30 5882 H 575.201 3.09784 2.34448 0
M  V30 5883 H 576.873 4.60794 0.216025 0
M  V30 5884 H 575.116 4.33594 0.133792 0
M  V30 5885 H 575.787 5.33184 1.42893 0
M  V30 5886 H 578.263 3.55203 2.16726 0
M  V30 5887 H 577.139 4.43899 3.2287 0
M  V30 5888 H 577.4 2.72088 3.48455 0
M  V30 5889 N 576.459 -0.456382 1.50847 0
M  V30 5890 C 577.407 -1.57318 1.71329 0
M  V30 5891 C 578.401 -1.59187 0.579287 0
M  V30 5892 O 579.607 -1.6316 0.76018 0
M  V30 5893 H 575.982 -0.5223 0.541024 0
M  V30 5894 H 577.953 -1.3721 2.64983 0
M  V30 5895 C 576.702 -2.95142 1.83811 0
M  V30 5896 H 576.025 -2.94428 2.70467 0
M  V30 5897 H 577.465 -3.72702 2.02161 0
M  V30 5898 C 575.924 -3.31636 0.593224 0
M  V30 5899 O 576.454 -4.00852 -0.260898 0
M  V30 5900 N 574.66 -2.87205 0.442902 0
M  V30 5901 H 574.207 -2.31051 1.13901 0
M  V30 5902 H 574.165 -3.11986 -0.38884 0
M  V30 5903 N 577.937 -1.40673 -0.710563 0
M  V30 5904 C 578.884 -1.41336 -1.82463 0
M  V30 5905 C 579.854 -0.269648 -1.63897 0
M  V30 5906 O 581.039 -0.468463 -1.8496 0
M  V30 5907 C 578.179 -1.28665 -3.20218 0
M  V30 5908 C 577.292 -2.52784 -3.5032 0
M  V30 5909 C 576.427 -2.32517 -4.77608 0
M  V30 5910 C 575.466 -3.52187 -5.0063 0
M  V30 5911 N 574.603 -3.31084 -6.19135 0
M  V30 5912 H 579.443 -2.36558 -1.8123 0
M  V30 5913 H 576.98 -1.17483 -0.885226 0
M  V30 5914 H 578.938 -1.19324 -3.99772 0
M  V30 5915 H 577.568 -0.370602 -3.20666 0
M  V30 5916 H 576.62 -2.72634 -2.65283 0
M  V30 5917 H 577.932 -3.41845 -3.63241 0
M  V30 5918 H 577.086 -2.20558 -5.65189 0
M  V30 5919 H 575.825 -1.40889 -4.66906 0
M  V30 5920 H 574.83 -3.64617 -4.11502 0
M  V30 5921 H 576.055 -4.44749 -5.13201 0
M  V30 5922 H 574.001 -2.42143 -6.09674 0
M  V30 5923 H 573.918 -4.13713 -6.32754 0
M  V30 5924 H 575.186 -3.22868 -7.0949 0
M  V30 5925 N 579.415 0.9433 -1.26252 0
M  V30 5926 C 580.643 1.72367 -1.14443 0
M  V30 5927 C 581.058 1.86392 0.300572 0
M  V30 5928 O 580.415 1.36978 1.20596 0
M  V30 5929 C 580.466 3.13155 -1.806 0
M  V30 5930 O 580.187 2.99803 -3.19452 0
M  V30 5931 C 581.688 4.07417 -1.74717 0
M  V30 5932 H 578.908 0.539758 -0.398626 0
M  V30 5933 H 581.452 1.18268 -1.66832 0
M  V30 5934 H 579.607 3.64162 -1.32154 0
M  V30 5935 H 580.021 3.88697 -3.52158 0
M  V30 5936 H 581.495 5.03773 -2.25647 0
M  V30 5937 H 581.972 4.3337 -0.713244 0
M  V30 5938 H 582.578 3.6233 -2.22704 0
M  V30 5939 N 580.893 1.08022 1.14757 0
M  V30 5940 C 582.141 0.805913 1.85336 0
M  V30 5941 C 582.462 -0.670162 1.83122 0
M  V30 5942 O 581.732 -1.48567 1.2769 0
M  V30 5943 H 580.312 0.295138 0.686223 0
M  V30 5944 H 582.974 1.36538 1.3908 0
M  V30 5945 H 582.07 1.14655 2.90277 0
M  V30 5946 N 582.371 -1.3172 0.865308 0
M  V30 5947 C 583.787 -1.4958 0.556596 0
M  V30 5948 C 583.987 -1.79763 -0.910353 0
M  V30 5949 O 583.043 -1.87351 -1.6928 0
M  V30 5950 C 584.356 -2.63277 1.45279 0
M  V30 5951 C 585.904 -2.77161 1.45433 0
M  V30 5952 C 586.379 -3.93949 2.33598 0
M  V30 5953 N 587.87 -4.01228 2.31453 0
M  V30 5954 C 588.605 -4.90855 2.96393 0
M  V30 5955 N 588.101 -5.85416 3.70486 0
M  V30 5956 N 589.894 -4.84063 2.85726 0
M  V30 5957 H 582.045 -1.10396 1.81456 0
M  V30 5958 H 584.308 -0.54507 0.775631 0
M  V30 5959 H 584.014 -2.47734 2.49641 0
M  V30 5960 H 583.888 -3.59309 1.14792 0
M  V30 5961 H 586.275 -2.9212 0.41831 0
M  V30 5962 H 586.356 -1.8181 1.79941 0
M  V30 5963 H 586 -3.79748 3.37274 0
M  V30 5964 H 585.93 -4.88598 1.96417 0
M  V30 5965 H 588.421 -3.3357 1.77593 0
M  V30 5966 H 588.734 -6.50525 4.17178 0
M  V30 5967 H 587.079 -5.85409 3.74594 0
M  V30 5968 H 590.27 -4.09163 2.27384 0
M  V30 5969 H 590.443 -5.53708 3.36617 0
M  V30 5970 N 583.85 -0.624285 -1.44708 0
M  V30 5971 C 585.127 -0.0572781 -1.95516 0
M  V30 5972 C 585.507 1.41516 -1.56641 0
M  V30 5973 O 584.855 2.12614 -0.837111 0
M  V30 5974 C 585.065 -0.272944 -3.47931 0
M  V30 5975 C 586.413 -0.162529 -4.24289 0
M  V30 5976 O 587.437 -0.203946 -3.55616 0
M  V30 5977 O 586.296 -0.0616847 -5.46465 0
M  V30 5978 H 583.389 0.0262219 -0.826584 0
M  V30 5979 H 585.936 -0.695512 -1.54793 0
M  V30 5980 H 584.707 -1.29492 -3.69253 0
M  V30 5981 H 584.331 0.399756 -3.95585 0
M  V30 5982 N 585.328 1.53329 -0.364422 0
M  V30 5983 C 586.291 2.24323 0.470292 0
M  V30 5984 C 587.291 1.25068 1.01067 0
M  V30 5985 O 588.481 1.49354 0.896605 0
M  V30 5986 C 585.613 2.97908 1.65722 0
M  V30 5987 H 586.806 2.9952 -0.150917 0
M  V30 5988 H 584.359 1.55868 -0.116092 0
M  V30 5989 H 585.094 2.2695 2.31655 0
M  V30 5990 H 584.879 3.70732 1.27671 0
M  V30 5991 H 586.369 3.5188 2.24878 0
M  V30 5992 N 586.806 0.0935595 1.57322 0
M  V30 5993 C 588.031 -0.582324 1.99057 0
M  V30 5994 C 588.456 -1.61025 0.972242 0
M  V30 5995 O 587.814 -1.81202 -0.0594622 0
M  V30 5996 C 587.862 -1.20799 3.39765 0
M  V30 5997 O 586.966 -2.32382 3.40694 0
M  V30 5998 H 586.307 -0.147884 0.647323 0
M  V30 5999 H 588.837 0.174516 2.03854 0
M  V30 6000 H 588.847 -1.54966 3.77425 0
M  V30 6001 H 587.522 -0.454914 4.13405 0
M  V30 6002 H 586.099 -1.99845 3.14827 0
M  V30 6003 N 588.284 -1.56567 -0.180126 0
M  V30 6004 C 589.53 -1.81761 -0.899497 0
M  V30 6005 C 589.863 -0.670015 -1.82276 0
M  V30 6006 O 589.138 0.328575 -1.91705 0
M  V30 6007 C 589.421 -3.17296 -1.7028 0
M  V30 6008 C 589.274 -4.4257 -0.803255 0
M  V30 6009 C 590.593 -3.49678 -2.67233 0
M  V30 6010 H 587.712 -0.661192 -0.325567 0
M  V30 6011 H 590.354 -1.89272 -0.16612 0
M  V30 6012 H 588.504 -3.11023 -2.32802 0
M  V30 6013 H 590.176 -4.60902 -0.191585 0
M  V30 6014 H 588.419 -4.33658 -0.110796 0
M  V30 6015 H 589.09 -5.33935 -1.40064 0
M  V30 6016 H 591.566 -3.56347 -2.14839 0
M  V30 6017 H 590.442 -4.45605 -3.20511 0
M  V30 6018 H 590.703 -2.73932 -3.47007 0
M  V30 6019 N 589.762 0.448376 -1.51087 0
M  V30 6020 C 590.712 1.54156 -1.67988 0
M  V30 6021 C 591.696 1.5178 -0.534015 0
M  V30 6022 O 592.888 1.58419 -0.789448 0
M  V30 6023 C 590.017 2.92437 -1.79822 0
M  V30 6024 C 589.103 2.99611 -3.00157 0
M  V30 6025 N 589.494 2.7655 -4.23502 0
M  V30 6026 C 587.792 3.30764 -2.99184 0
M  V30 6027 C 588.493 2.89281 -5.0467 0
M  V30 6028 N 587.469 3.20473 -4.39088 0
M  V30 6029 H 591.271 1.35061 -2.61028 0
M  V30 6030 H 588.785 0.655504 -1.48583 0
M  V30 6031 H 590.782 3.71068 -1.90037 0
M  V30 6032 H 589.442 3.1256 -0.879554 0
M  V30 6033 H 590.453 2.5169 -4.52628 0
M  V30 6034 H 587.13 3.56732 -2.16907 0
M  V30 6035 H 588.52 2.75499 -6.12821 0
M  V30 6036 N 591.24 1.41047 0.703093 0
M  V30 6037 C 592.468 1.4334 1.49202 0
M  V30 6038 C 592.883 0.0365596 1.88765 0
M  V30 6039 O 592.24 -0.942419 1.56284 0
M  V30 6040 C 592.291 2.33538 2.75939 0
M  V30 6041 O 592.012 3.67786 2.38045 0
M  V30 6042 C 593.513 2.44555 3.6974 0
M  V30 6043 H 590.733 0.488472 0.460039 0
M  V30 6044 H 593.277 1.85245 0.86629 0
M  V30 6045 H 591.432 1.94962 3.34766 0
M  V30 6046 H 591.846 4.15816 3.19683 0
M  V30 6047 H 593.32 3.11849 4.55471 0
M  V30 6048 H 593.797 1.47447 4.1371 0
M  V30 6049 H 594.403 2.83735 3.16819 0
M  V30 6050 N 592.718 -0.936591 1.26751 0
M  V30 6051 C 593.648 -2.05315 1.11212 0
M  V30 6052 C 594.629 -1.70092 0.0160262 0
M  V30 6053 O 595.814 -1.93279 0.188894 0
M  V30 6054 C 592.944 -3.39123 0.749171 0
M  V30 6055 C 591.898 -3.88425 1.79751 0
M  V30 6056 C 591.224 -5.18936 1.28876 0
M  V30 6057 C 592.524 -4.12798 3.19992 0
M  V30 6058 H 594.218 -2.18573 2.04613 0
M  V30 6059 H 591.764 -1.05027 0.985159 0
M  V30 6060 H 593.717 -4.16704 0.627323 0
M  V30 6061 H 592.441 -3.25855 -0.220543 0
M  V30 6062 H 591.1 -3.13028 1.90811 0
M  V30 6063 H 590.748 -5.02051 0.308757 0
M  V30 6064 H 590.448 -5.52892 1.98958 0
M  V30 6065 H 591.972 -5.99096 1.17967 0
M  V30 6066 H 593.386 -4.80977 3.11983 0
M  V30 6067 H 591.783 -4.58044 3.87705 0
M  V30 6068 H 592.853 -3.18412 3.65707 0
M  V30 6069 N 594.196 -1.08629 -1.14182 0
M  V30 6070 C 595.126 -0.740003 -2.21464 0
M  V30 6071 C 596.107 0.278591 -1.67803 0
M  V30 6072 O 597.292 0.148461 -1.93632 0
M  V30 6073 C 594.422 -0.150952 -3.46972 0
M  V30 6074 C 593.376 -1.09815 -4.13672 0
M  V30 6075 C 592.702 -0.3712 -5.3341 0
M  V30 6076 C 594.002 -2.43722 -4.61949 0
M  V30 6077 H 595.696 -1.63697 -2.50686 0
M  V30 6078 H 593.242 -0.788526 -1.20492 0
M  V30 6079 H 595.195 0.103325 -4.21273 0
M  V30 6080 H 593.919 0.781164 -3.1712 0
M  V30 6081 H 592.578 -1.33756 -3.41328 0
M  V30 6082 H 592.226 0.564792 -4.99819 0
M  V30 6083 H 591.926 -1.00267 -5.78982 0
M  V30 6084 H 593.45 -0.12503 -6.10472 0
M  V30 6085 H 594.864 -2.24034 -5.27714 0
M  V30 6086 H 593.261 -3.02582 -5.18232 0
M  V30 6087 H 594.331 -3.05082 -3.76899 0
M  V30 6088 N 595.674 1.31259 -0.872281 0
M  V30 6089 C 596.951 1.91362 -0.404943 0
M  V30 6090 C 597.331 1.79362 1.11321 0
M  V30 6091 O 596.679 1.20277 1.94283 0
M  V30 6092 C 596.889 3.3749 -0.888893 0
M  V30 6093 C 598.237 4.14593 -0.916384 0
M  V30 6094 O 599.261 3.46282 -0.834701 0
M  V30 6095 O 598.12 5.3661 -1.03498 0
M  V30 6096 H 595.214 0.818016 -0.121569 0
M  V30 6097 H 597.76 1.39912 -0.960346 0
M  V30 6098 H 596.532 3.40249 -1.93251 0
M  V30 6099 H 596.155 3.96375 -0.311932 0
M  V30 6100 N 597.152 0.631951 1.44375 0
M  V30 6101 C 598.115 -0.0628142 2.29114 0
M  V30 6102 C 599.115 -0.771494 1.41084 0
M  V30 6103 O 600.305 -0.615959 1.62947 0
M  V30 6104 C 597.437 -1.09953 3.22681 0
M  V30 6105 H 598.63 0.682509 2.92031 0
M  V30 6106 H 596.183 0.392128 1.51301 0
M  V30 6107 H 596.918 -1.87481 2.64616 0
M  V30 6108 H 596.703 -0.595286 3.87555 0
M  V30 6109 H 598.193 -1.58538 3.86336 0
M  V30 6110 N 598.631 -1.53133 0.372548 0
M  V30 6111 C 599.561 -2.28876 -0.462412 0
M  V30 6112 C 600.542 -1.31583 -1.07796 0
M  V30 6113 O 601.727 -1.60461 -1.09389 0
M  V30 6114 C 598.857 -3.08317 -1.59868 0
M  V30 6115 C 597.811 -4.13355 -1.11003 0
M  V30 6116 C 597.137 -4.8092 -2.33708 0
M  V30 6117 C 598.437 -5.21955 -0.18983 0
M  V30 6118 H 600.131 -2.9892 0.169511 0
M  V30 6119 H 597.677 -1.43761 0.0829658 0
M  V30 6120 H 599.63 -3.60055 -2.18949 0
M  V30 6121 H 598.354 -2.35976 -2.25794 0
M  V30 6122 H 597.013 -3.62573 -0.541869 0
M  V30 6123 H 596.661 -4.05144 -2.98106 0
M  V30 6124 H 596.361 -5.51904 -2.01682 0
M  V30 6125 H 597.885 -5.35455 -2.93462 0
M  V30 6126 H 599.299 -5.69153 -0.688319 0
M  V30 6127 H 597.696 -6.00087 0.0398887 0
M  V30 6128 H 598.766 -4.78811 0.766057 0
M  V30 6129 N 600.109 -0.101901 -1.5727 0
M  V30 6130 C 601.019 0.868647 -2.17926 0
M  V30 6131 C 602.035 1.30527 -1.1506 0
M  V30 6132 O 603.211 1.37178 -1.47459 0
M  V30 6133 C 600.276 2.10727 -2.75309 0
M  V30 6134 C 599.337 1.7242 -3.93154 0
M  V30 6135 C 598.57 2.90377 -4.47791 0
M  V30 6136 O 598.793 4.05305 -4.01353 0
M  V30 6137 O 597.727 2.6845 -5.38719 0
M  V30 6138 H 601.553 0.382544 -3.01281 0
M  V30 6139 H 599.138 0.122812 -1.48894 0
M  V30 6140 H 601.02 2.83303 -3.11958 0
M  V30 6141 H 599.695 2.58376 -1.94996 0
M  V30 6142 H 598.602 0.970039 -3.61305 0
M  V30 6143 H 599.935 1.29528 -4.74851 0
M  V30 6144 N 601.587 1.56661 0.17182 0
M  V30 6145 C 602.815 1.861 0.904115 0
M  V30 6146 C 603.23 0.687227 1.75848 0
M  V30 6147 O 602.587 -0.343671 1.79235 0
M  V30 6148 C 602.638 3.14568 1.78127 0
M  V30 6149 O 602.359 4.27422 0.961366 0
M  V30 6150 C 603.86 3.5735 2.62327 0
M  V30 6151 H 601.08 0.617445 0.262684 0
M  V30 6152 H 603.624 2.03775 0.172068 0
M  V30 6153 H 601.779 2.98721 2.46666 0
M  V30 6154 H 602.193 5.00725 1.56123 0
M  V30 6155 H 603.667 4.50144 3.1949 0
M  V30 6156 H 604.144 2.81445 3.37173 0
M  V30 6157 H 604.75 3.75807 1.99121 0
M  V30 6158 N 603.065 -0.440357 1.51323 0
M  V30 6159 C 603.995 -1.54174 1.75364 0
M  V30 6160 C 604.976 -1.59039 0.603375 0
M  V30 6161 O 606.161 -1.74815 0.845774 0
M  V30 6162 C 603.291 -2.92277 1.87593 0
M  V30 6163 C 602.245 -3.02274 3.03009 0
M  V30 6164 C 601.571 -4.42327 3.00418 0
M  V30 6165 C 602.871 -2.76634 4.43024 0
M  V30 6166 H 604.565 -1.34307 2.67585 0
M  V30 6167 H 602.111 -0.644678 1.28763 0
M  V30 6168 H 604.064 -3.69284 2.02995 0
M  V30 6169 H 602.788 -3.13369 0.920179 0
M  V30 6170 H 601.447 -2.27706 2.87307 0
M  V30 6171 H 601.095 -4.60382 2.02626 0
M  V30 6172 H 600.795 -4.49946 3.77918 0
M  V30 6173 H 602.319 -5.21312 3.17909 0
M  V30 6174 H 603.733 -3.43376 4.59093 0
M  V30 6175 H 602.13 -2.95666 5.22208 0
M  V30 6176 H 603.2 -1.72262 4.5327 0
M  V30 6177 N 604.543 -1.41418 -0.695603 0
M  V30 6178 C 605.791 -1.40496 -1.45277 0
M  V30 6179 C 606.112 -0.0149538 -1.94994 0
M  V30 6180 O 605.382 0.9432 -1.71699 0
M  V30 6181 H 603.962 -0.517147 -0.539044 0
M  V30 6182 H 606.624 -1.76656 -0.823321 0
M  V30 6183 H 605.72 -2.09214 -2.31595 0
M  V30 6184 N 606.021 0.929856 -1.27246 0
M  V30 6185 C 606.931 2.0636 -1.11592 0
M  V30 6186 C 607.947 1.73938 -0.046496 0
M  V30 6187 O 609.123 1.9981 -0.252544 0
M  V30 6188 C 606.188 3.38213 -0.762437 0
M  V30 6189 C 605.249 3.84346 -1.9125 0
M  V30 6190 C 604.482 5.09906 -1.57579 0
M  V30 6191 O 604.705 5.68354 -0.482694 0
M  V30 6192 O 603.639 5.51359 -2.41426 0
M  V30 6193 H 607.465 2.22478 -2.0673 0
M  V30 6194 H 605.05 1.04865 -1.06413 0
M  V30 6195 H 606.932 4.1741 -0.57854 0
M  V30 6196 H 605.607 3.23307 0.159439 0
M  V30 6197 H 604.514 3.06045 -2.15144 0
M  V30 6198 H 605.847 4.0379 -2.81451 0
M  V30 6199 N 607.499 1.09233 1.13605 0
M  V30 6200 C 608.915 0.82163 1.36826 0
M  V30 6201 C 609.115 -0.565021 1.93416 0
M  V30 6202 O 608.171 -1.32026 2.15234 0
M  V30 6203 C 609.484 1.91124 2.32147 0
M  V30 6204 C 611.032 1.93824 2.45767 0
M  V30 6205 C 611.507 3.01923 3.44393 0
M  V30 6206 N 612.998 3.01149 3.51942 0
M  V30 6207 C 613.733 3.81434 4.2813 0
M  V30 6208 N 613.229 4.71621 5.07489 0
M  V30 6209 N 615.022 3.69702 4.23411 0
M  V30 6210 H 607.173 1.98633 0.752234 0
M  V30 6211 H 609.436 0.862482 0.393482 0
M  V30 6212 H 609.142 2.90862 1.97717 0
M  V30 6213 H 609.016 1.78777 3.32142 0
M  V30 6214 H 611.403 0.94726 2.79483 0
M  V30 6215 H 611.484 2.10248 1.45703 0
M  V30 6216 H 611.128 4.01232 3.11408 0
M  V30 6217 H 611.058 2.82742 4.44257 0
M  V30 6218 H 613.549 2.35789 2.95317 0
M  V30 6219 H 613.862 5.29468 5.62924 0
M  V30 6220 H 612.207 4.75658 5.06729 0
M  V30 6221 H 615.398 2.98606 3.60489 0
M  V30 6222 H 615.571 4.32509 4.82535 0
M  V30 6223 N 608.977 -1.30795 0.87923 0
M  V30 6224 C 609.907 -2.30742 0.357796 0
M  V30 6225 C 610.888 -1.60747 -0.556283 0
M  V30 6226 O 612.073 -1.88393 -0.47135 0
M  V30 6227 C 609.203 -3.44583 -0.433555 0
M  V30 6228 C 608.157 -4.26235 0.388251 0
M  V30 6229 C 607.483 -5.32073 -0.529352 0
M  V30 6230 C 608.783 -4.96303 1.62729 0
M  V30 6231 H 610.477 -2.74605 1.19299 0
M  V30 6232 H 608.023 -1.32017 0.575104 0
M  V30 6233 H 609.976 -4.13563 -0.808934 0
M  V30 6234 H 608.7 -2.99511 -1.30234 0
M  V30 6235 H 607.359 -3.58936 0.745695 0
M  V30 6236 H 607.007 -4.83249 -1.39569 0
M  V30 6237 H 606.707 -5.87598 0.0166741 0
M  V30 6238 H 608.231 -6.0391 -0.901373 0
M  V30 6239 H 609.645 -5.5783 1.32283 0
M  V30 6240 H 608.042 -5.61666 2.11309 0
M  V30 6241 H 609.112 -4.22758 2.37494 0
M  V30 6242 N 610.455 -0.639598 -1.44038 0
M  V30 6243 C 611.418 0.0506628 -2.29144 0
M  V30 6244 C 612.418 0.764001 -1.41491 0
M  V30 6245 O 613.608 0.607309 -1.63271 0
M  V30 6246 C 610.74 1.0824 -3.2326 0
M  V30 6247 H 611.933 -0.697987 -2.91664 0
M  V30 6248 H 609.486 -0.400146 -1.51091 0
M  V30 6249 H 610.221 1.86075 -2.65606 0
M  V30 6250 H 610.006 0.574725 -3.87865 0
M  V30 6251 H 611.496 1.56487 -3.87171 0
M  V30 6252 N 611.933 1.52934 -0.380664 0
M  V30 6253 C 612.88 2.26197 0.458641 0
M  V30 6254 C 613.85 1.27462 1.06502 0
M  V30 6255 O 615.035 1.56274 1.09467 0
M  V30 6256 C 612.175 3.06571 1.58456 0
M  V30 6257 C 611.288 4.20222 1.00189 0
M  V30 6258 C 610.423 4.88007 2.09815 0
M  V30 6259 C 609.462 5.93665 1.49092 0
M  V30 6260 N 608.599 6.55081 2.52613 0
M  V30 6261 H 613.439 2.975 -0.172595 0
M  V30 6262 H 610.976 1.4678 -0.0969426 0
M  V30 6263 H 612.934 3.51455 2.24801 0
M  V30 6264 H 611.564 2.37494 2.18624 0
M  V30 6265 H 610.616 3.79714 0.228292 0
M  V30 6266 H 611.928 4.96102 0.518064 0
M  V30 6267 H 611.082 5.36151 2.83948 0
M  V30 6268 H 609.821 4.11632 2.61555 0
M  V30 6269 H 608.826 5.44868 0.7348 0
M  V30 6270 H 610.051 6.71969 0.981582 0
M  V30 6271 H 607.997 5.8155 3.03538 0
M  V30 6272 H 607.914 7.26548 2.08961 0
M  V30 6273 H 609.182 7.07871 3.26402 0
M  V30 6274 N 613.412 0.11024 1.57214 0
M  V30 6275 C 614.344 -0.873497 2.11902 0
M  V30 6276 C 615.357 -1.23588 1.05971 0
M  V30 6277 O 616.546 -1.18636 1.33371 0
M  V30 6278 C 613.646 -2.17805 2.59643 0
M  V30 6279 C 612.819 -1.98869 3.89576 0
M  V30 6280 C 611.878 -3.12974 4.23006 0
M  V30 6281 O 610.904 -2.86272 4.91973 0
M  V30 6282 N 612.106 -4.39167 3.79622 0
M  V30 6283 H 614.871 -0.406317 2.96933 0
M  V30 6284 H 612.432 -0.074437 1.61729 0
M  V30 6285 H 614.424 -2.93117 2.79042 0
M  V30 6286 H 612.994 -2.55899 1.7954 0
M  V30 6287 H 612.214 -1.078 3.79174 0
M  V30 6288 H 613.502 -1.83512 4.74553 0
M  V30 6289 H 612.9 -4.63739 3.2398 0
M  V30 6290 H 611.457 -5.11379 4.04147 0
M  V30 6291 N 614.89 -1.56749 -0.16351 0
M  V30 6292 C 615.837 -1.97011 -1.2023 0
M  V30 6293 C 616.807 -0.835186 -1.43575 0
M  V30 6294 O 617.992 -1.09594 -1.56185 0
M  V30 6295 C 615.132 -2.34186 -2.53478 0
M  V30 6296 C 614.245 -3.60893 -2.37446 0
M  V30 6297 C 613.38 -3.87245 -3.63614 0
M  V30 6298 C 612.419 -5.07274 -3.42548 0
M  V30 6299 N 611.556 -5.29719 -4.60806 0
M  V30 6300 H 616.396 -2.85562 -0.851958 0
M  V30 6301 H 613.933 -1.41292 -0.409257 0
M  V30 6302 H 615.891 -2.53764 -3.31149 0
M  V30 6303 H 614.521 -1.48736 -2.86492 0
M  V30 6304 H 613.573 -3.49185 -1.50911 0
M  V30 6305 H 614.885 -4.48722 -2.1783 0
M  V30 6306 H 614.039 -4.07232 -4.49719 0
M  V30 6307 H 612.778 -2.97806 -3.86216 0
M  V30 6308 H 611.783 -4.87177 -2.5483 0
M  V30 6309 H 613.008 -5.98251 -3.2136 0
M  V30 6310 H 610.954 -4.43233 -4.83612 0
M  V30 6311 H 610.871 -6.11786 -4.44132 0
M  V30 6312 H 612.139 -5.54192 -5.48171 0
M  V30 6313 N 616.368 0.432326 -1.51554 0
M  V30 6314 C 617.617 1.17831 -1.63703 0
M  V30 6315 C 617.93 1.92229 -0.36156 0
M  V30 6316 O 619.136 2.69069 -0.362495 0
M  V30 6317 C 617.592 2.14318 -2.89129 0
M  V30 6318 C 617.2 1.45544 -4.23699 0
M  V30 6319 C 618.944 2.89319 -3.10636 0
M  V30 6320 C 616.851 2.40545 -5.4027 0
M  V30 6321 H 615.781 0.443533 -0.60975 0
M  V30 6322 H 618.432 0.444878 -1.78026 0
M  V30 6323 H 616.814 2.91117 -2.68452 0
M  V30 6324 H 617.988 0.742693 -4.54775 0
M  V30 6325 H 616.303 0.826772 -4.0811 0
M  V30 6326 H 618.9 3.60495 -3.94902 0
M  V30 6327 H 619.243 3.50951 -2.23918 0
M  V30 6328 H 619.776 2.19625 -3.31677 0
M  V30 6329 H 616.515 1.83594 -6.29264 0
M  V30 6330 H 616.035 3.09859 -5.13563 0
M  V30 6331 H 617.714 3.01569 -5.72421 0
M  V30 6332 N 617.846 1.41785 0.688094 0
M  V30 6333 C 618.756 1.46596 1.83158 0
M  V30 6334 C 619.772 0.355862 1.70322 0
M  V30 6335 O 620.948 0.604737 1.92106 0
M  V30 6336 C 618.013 1.35322 3.192 0
M  V30 6337 C 617.074 2.56711 3.4409 0
M  V30 6338 C 616.307 2.45965 4.73642 0
M  V30 6339 O 616.53 1.48827 5.50642 0
M  V30 6340 O 615.464 3.35859 4.99482 0
M  V30 6341 H 619.29 2.43083 1.82056 0
M  V30 6342 H 616.875 1.23404 0.842126 0
M  V30 6343 H 618.757 1.31347 4.00407 0
M  V30 6344 H 617.432 0.419536 3.2097 0
M  V30 6345 H 616.339 2.66262 2.62784 0
M  V30 6346 H 617.672 3.48933 3.47141 0
M  V30 6347 N 619.324 -0.923095 1.27737 0
M  V30 6348 C 620.601 -1.64989 1.05062 0
M  V30 6349 C 620.981 -2.07018 -0.413124 0
M  V30 6350 O 620.329 -1.80797 -1.39731 0
M  V30 6351 C 620.539 -2.84847 2.01652 0
M  V30 6352 C 621.887 -3.56083 2.31279 0
M  V30 6353 O 622.911 -2.94981 1.99662 0
M  V30 6354 O 621.77 -4.66182 2.85196 0
M  V30 6355 H 618.864 -0.723357 0.400853 0
M  V30 6356 H 621.41 -0.973224 1.3902 0
M  V30 6357 H 620.182 -2.50814 3.00347 0
M  V30 6358 H 619.805 -3.60231 1.68284 0
M  V30 6359 N 620.802 -1.09834 -1.13024 0
M  V30 6360 C 621.752 -0.710899 -2.16634 0
M  V30 6361 C 622.736 0.276836 -1.58501 0
M  V30 6362 O 623.928 0.0865457 -1.76788 0
M  V30 6363 C 621.057 -0.137574 -3.43024 0
M  V30 6364 C 620.143 -1.15198 -4.08155 0
M  V30 6365 N 620.534 -2.34054 -4.48388 0
M  V30 6366 C 618.832 -0.991074 -4.34849 0
M  V30 6367 C 619.533 -2.98616 -4.99203 0
M  V30 6368 N 618.509 -2.26159 -4.94321 0
M  V30 6369 H 622.311 -1.61576 -2.455 0
M  V30 6370 H 619.825 -0.975158 -1.29863 0
M  V30 6371 H 621.822 0.158031 -4.166 0
M  V30 6372 H 620.482 0.762088 -3.1563 0
M  V30 6373 H 621.493 -2.7162 -4.40957 0
M  V30 6374 H 618.17 -0.146448 -4.17243 0
M  V30 6375 H 619.56 -3.99683 -5.40096 0
M  V30 6376 N 622.28 1.30327 -0.886154 0
M  V30 6377 C 623.21 2.30549 -0.370028 0
M  V30 6378 C 624.191 1.61039 0.547751 0
M  V30 6379 O 625.376 1.8864 0.461353 0
M  V30 6380 C 622.506 3.44808 0.415275 0
M  V30 6381 C 621.46 4.26024 -0.41085 0
M  V30 6382 C 620.786 5.32347 0.501128 0
M  V30 6383 C 622.086 4.95433 -1.65359 0
M  V30 6384 H 623.78 2.73969 -1.20754 0
M  V30 6385 H 621.326 1.3171 -0.582097 0
M  V30 6386 H 623.279 4.13986 0.78699 0
M  V30 6387 H 622.003 3.00197 1.28644 0
M  V30 6388 H 620.662 3.58535 -0.764719 0
M  V30 6389 H 620.31 4.83982 1.37004 0
M  V30 6390 H 620.01 5.87581 -0.0478356 0
M  V30 6391 H 621.534 6.0438 0.869333 0
M  V30 6392 H 622.948 5.5712 -1.35239 0
M  V30 6393 H 621.345 5.60537 -2.14284 0
M  V30 6394 H 622.415 4.21493 -2.39733 0
M  V30 6395 N 623.758 0.647228 1.43697 0
M  V30 6396 C 624.688 -0.0345631 2.33474 0
M  V30 6397 C 625.669 -0.818193 1.4913 0
M  V30 6398 O 626.854 -0.780867 1.77809 0
M  V30 6399 C 623.984 -1.00576 3.32418 0
M  V30 6400 C 622.938 -0.33266 4.26705 0
M  V30 6401 C 622.264 -1.41489 5.1564 0
M  V30 6402 C 623.564 0.771204 5.16575 0
M  V30 6403 H 625.258 0.715163 2.90733 0
M  V30 6404 H 622.804 0.345364 1.39797 0
M  V30 6405 H 624.757 -1.49159 3.94119 0
M  V30 6406 H 623.481 -1.78657 2.73403 0
M  V30 6407 H 622.14 0.13267 3.6636 0
M  V30 6408 H 621.788 -2.18698 4.52968 0
M  V30 6409 H 621.488 -0.969799 5.79542 0
M  V30 6410 H 623.012 -1.9022 5.80214 0
M  V30 6411 H 624.426 0.36779 5.72119 0
M  V30 6412 H 622.823 1.1404 5.89165 0
M  V30 6413 H 623.893 1.63169 4.56622 0
M  V30 6414 N 625.236 -1.5273 0.388769 0
M  V30 6415 C 626.461 -2.0647 -0.19621 0
M  V30 6416 C 626.886 -1.25865 -1.39784 0
M  V30 6417 O 626.244 -0.283562 -1.79069 0
M  V30 6418 C 626.292 -3.56456 -0.5451 0
M  V30 6419 O 625.396 -3.78426 -1.63912 0
M  V30 6420 H 624.737 -0.663599 -0.023067 0
M  V30 6421 H 627.267 -1.96898 0.556084 0
M  V30 6422 H 627.277 -3.99888 -0.809557 0
M  V30 6423 H 625.952 -4.14561 0.333417 0
M  V30 6424 H 624.529 -3.46884 -1.36842 0
M  V30 6425 N 626.714 -0.118576 -1.57153 0
M  V30 6426 C 627.939 0.550582 -1.99958 0
M  V30 6427 C 628.364 1.59458 -0.997736 0
M  V30 6428 O 627.722 1.81274 0.0306269 0
M  V30 6429 C 627.77 1.15379 -3.41643 0
M  V30 6430 O 626.874 2.26932 -3.44348 0
M  V30 6431 H 626.215 0.137567 -0.649593 0
M  V30 6432 H 628.745 -0.206926 -2.03551 0
M  V30 6433 H 628.755 1.48942 -3.79843 0
M  V30 6434 H 627.43 0.389087 -4.14076 0
M  V30 6435 H 626.007 1.94812 -3.17967 0
M  V30 6436 N 628.193 1.56834 0.155195 0
M  V30 6437 C 629.441 1.82536 0.867462 0
M  V30 6438 C 629.762 0.698168 1.82073 0
M  V30 6439 O 629.032 -0.280807 1.93877 0
M  V30 6440 H 627.612 0.673401 0.323327 0
M  V30 6441 H 630.274 1.94313 0.151156 0
M  V30 6442 H 629.37 2.77171 1.43466 0
M  V30 6443 N 629.671 -0.424282 1.51781 0
M  V30 6444 C 630.618 -1.51591 1.74037 0
M  V30 6445 C 631.588 -1.55556 0.582358 0
M  V30 6446 O 632.773 -1.72364 0.818245 0
M  V30 6447 C 629.913 -2.89188 1.8832 0
M  V30 6448 C 629.026 -2.9465 3.1592 0
M  V30 6449 C 628.161 -4.23452 3.20721 0
M  V30 6450 C 627.2 -4.22831 4.42584 0
M  V30 6451 N 626.337 -5.43178 4.44862 0
M  V30 6452 H 631.177 -1.31917 2.67212 0
M  V30 6453 H 628.714 -0.640599 1.32419 0
M  V30 6454 H 630.672 -3.69044 1.94583 0
M  V30 6455 H 629.302 -3.07392 0.985402 0
M  V30 6456 H 628.354 -2.07378 3.18902 0
M  V30 6457 H 629.666 -2.90055 4.05795 0
M  V30 6458 H 628.82 -5.1169 3.25973 0
M  V30 6459 H 627.559 -4.30722 2.28757 0
M  V30 6460 H 626.564 -3.32984 4.37495 0
M  V30 6461 H 627.789 -4.17213 5.35826 0
M  V30 6462 H 625.735 -5.51145 3.55775 0
M  V30 6463 H 625.652 -5.40515 5.28563 0
M  V30 6464 H 626.92 -6.33412 4.54324 0
M  V30 6465 N 631.149 -1.42148 -0.680565 0
M  V30 6466 C 632.396 -1.4231 -1.44063 0
M  V30 6467 C 632.724 -0.037488 -1.94464 0
M  V30 6468 O 631.979 0.953184 -1.70918 0
M  V30 6469 C 632.278 -2.38945 -2.65782 0
M  V30 6470 C 631.944 -3.85455 -2.33956 0
M  V30 6471 C 630.606 -4.25364 -2.24987 0
M  V30 6472 C 632.958 -4.77895 -2.08004 0
M  V30 6473 C 630.286 -5.55701 -1.88184 0
M  V30 6474 C 632.638 -6.08568 -1.72706 0
M  V30 6475 C 631.302 -6.47482 -1.62244 0
M  V30 6476 H 630.572 -0.520748 -0.527164 0
M  V30 6477 H 633.219 -1.7505 -0.776524 0
M  V30 6478 H 631.524 -1.99511 -3.37198 0
M  V30 6479 H 633.221 -2.36336 -3.23954 0
M  V30 6480 H 629.811 -3.53855 -2.41836 0
M  V30 6481 H 633.995 -4.47854 -2.1387 0
M  V30 6482 H 629.251 -5.84718 -1.78648 0
M  V30 6483 H 633.425 -6.79688 -1.5165 0
M  V30 6484 H 631.052 -7.48387 -1.33496 0
M  V30 6485 N 632.627 0.916307 -1.28225 0
M  V30 6486 C 633.56 2.01954 -1.06254 0
M  V30 6487 C 634.538 1.62587 0.0205983 0
M  V30 6488 O 635.722 1.88073 -0.126824 0
M  V30 6489 C 632.849 3.33086 -0.614141 0
M  V30 6490 C 631.895 3.91435 -1.69354 0
M  V30 6491 S 632.728 4.22603 -3.28887 0
M  V30 6492 C 633.884 5.568 -2.85876 0
M  V30 6493 H 634.117 2.20281 -1.99659 0
M  V30 6494 H 631.65 1.06085 -1.12184 0
M  V30 6495 H 633.608 4.089 -0.36213 0
M  V30 6496 H 632.269 3.12664 0.300036 0
M  V30 6497 H 631.462 4.86098 -1.33136 0
M  V30 6498 H 631.064 3.22248 -1.89821 0
M  V30 6499 H 633.356 6.3658 -2.31888 0
M  V30 6500 H 634.299 5.97927 -3.79326 0
M  V30 6501 H 634.707 5.17865 -2.24669 0
M  V30 6502 N 634.105 1.10431 1.1244 0
M  V30 6503 C 635.335 0.867612 1.87499 0
M  V30 6504 C 635.743 -0.585475 1.79913 0
M  V30 6505 O 635.086 -1.41539 1.171 0
M  V30 6506 C 635.148 1.2374 3.37533 0
M  V30 6507 C 634.812 2.69751 3.68895 0
M  V30 6508 C 635.809 3.67988 3.67261 0
M  V30 6509 C 633.494 3.06135 3.98229 0
M  V30 6510 C 635.488 5.00632 3.9452 0
M  V30 6511 C 633.175 4.38967 4.25149 0
M  V30 6512 C 634.173 5.36025 4.23281 0
M  V30 6513 O 633.861 6.66465 4.49533 0
M  V30 6514 H 633.593 0.311196 0.600111 0
M  V30 6515 H 636.147 1.47257 1.43194 0
M  V30 6516 H 634.377 0.575537 3.82393 0
M  V30 6517 H 636.066 0.978187 3.93937 0
M  V30 6518 H 636.832 3.41224 3.44661 0
M  V30 6519 H 632.711 2.31214 3.98825 0
M  V30 6520 H 636.255 5.7638 3.92978 0
M  V30 6521 H 632.152 4.6547 4.47223 0
M  V30 6522 H 632.92 6.72095 4.67152 0
M  V30 6523 N 635.583 -1.29855 0.893053 0
M  V30 6524 C 636.513 -2.3035 0.382249 0
M  V30 6525 C 637.494 -1.61328 -0.539203 0
M  V30 6526 O 638.679 -1.88882 -0.451342 0
M  V30 6527 C 635.809 -3.45024 -0.396983 0
M  V30 6528 C 634.763 -4.258 0.433437 0
M  V30 6529 C 634.089 -5.32605 -0.472889 0
M  V30 6530 C 635.389 -4.94549 1.67984 0
M  V30 6531 H 637.083 -2.73325 1.22205 0
M  V30 6532 H 634.629 -1.314 0.589073 0
M  V30 6533 H 636.582 -4.14398 -0.765024 0
M  V30 6534 H 635.306 -3.00875 -1.2705 0
M  V30 6535 H 633.965 -3.58125 0.783723 0
M  V30 6536 H 633.613 -4.84702 -1.34435 0
M  V30 6537 H 633.313 -5.87547 0.0789958 0
M  V30 6538 H 634.837 -6.04832 -0.837269 0
M  V30 6539 H 636.251 -5.56395 1.38192 0
M  V30 6540 H 634.648 -5.59393 2.17254 0
M  V30 6541 H 635.718 -4.20215 2.41965 0
M  V30 6542 N 637.061 -0.65484 -1.43351 0
M  V30 6543 C 637.971 0.0363603 -2.34572 0
M  V30 6544 C 638.987 0.810432 -1.53974 0
M  V30 6545 O 640.163 0.757308 -1.86619 0
M  V30 6546 C 637.228 0.989733 -3.32273 0
M  V30 6547 C 636.289 0.212414 -4.28774 0
M  V30 6548 C 635.522 1.12038 -5.21808 0
M  V30 6549 O 635.745 2.35967 -5.19303 0
M  V30 6550 O 634.679 0.59191 -5.98982 0
M  V30 6551 H 638.505 -0.714527 -2.95175 0
M  V30 6552 H 636.09 -0.415029 -1.4352 0
M  V30 6553 H 637.972 1.53759 -3.92347 0
M  V30 6554 H 636.647 1.72082 -2.74171 0
M  V30 6555 H 635.554 -0.379062 -3.72175 0
M  V30 6556 H 636.887 -0.479138 -4.89862 0
M  V30 6557 N 638.539 1.52521 -0.396863 0
M  V30 6558 C 639.787 2.01274 0.182536 0
M  V30 6559 C 640.108 1.28485 1.46685 0
M  V30 6560 O 639.378 0.407134 1.91623 0
M  V30 6561 H 637.958 0.743671 0.0704442 0
M  V30 6562 H 640.62 1.87547 -0.530289 0
M  V30 6563 H 639.716 3.09687 0.387385 0
M  V30 6564 N 640.017 0.126909 1.57088 0
M  V30 6565 C 640.965 -0.837618 2.16995 0
M  V30 6566 C 641.959 -1.26974 1.12133 0
M  V30 6567 O 643.165 -1.24056 1.30423 0
M  V30 6568 H 639.54 -0.288256 0.694559 0
M  V30 6569 H 641.511 -0.307957 2.96807 0
M  V30 6570 C 640.26 -2.07474 2.79016 0
M  V30 6571 H 639.583 -1.75117 3.59408 0
M  V30 6572 H 641.023 -2.72949 3.24461 0
M  V30 6573 C 639.482 -2.86967 1.76498 0
M  V30 6574 O 640.012 -3.82625 1.22316 0
M  V30 6575 N 638.218 -2.51111 1.46258 0
M  V30 6576 H 637.765 -1.73389 1.90509 0
M  V30 6577 H 637.723 -3.04594 0.779085 0
M  V30 6578 N 641.495 -1.56914 -0.146875 0
M  V30 6579 C 642.458 -1.97368 -1.16526 0
M  V30 6580 C 643.458 -0.860223 -1.35856 0
M  V30 6581 O 644.648 -1.12684 -1.32846 0
M  V30 6582 C 641.78 -2.28974 -2.52555 0
M  V30 6583 H 642.973 -2.88523 -0.818209 0
M  V30 6584 H 640.526 -1.5135 -0.390221 0
M  V30 6585 H 641.261 -1.40611 -2.92231 0
M  V30 6586 H 641.046 -3.10157 -2.39886 0
M  V30 6587 H 642.536 -2.61109 -3.25902 0
M  V30 6588 N 642.974 0.416227 -1.52004 0
M  V30 6589 C 644.251 1.17637 -1.56272 0
M  V30 6590 C 644.631 2.08352 -0.339493 0
M  V30 6591 O 643.979 2.1833 0.674124 0
M  V30 6592 C 644.189 1.95986 -2.88774 0
M  V30 6593 C 645.537 2.52299 -3.41512 0
M  V30 6594 O 646.561 2.06174 -2.90467 0
M  V30 6595 O 645.42 3.3648 -4.30631 0
M  V30 6596 H 642.514 0.536726 -0.629169 0
M  V30 6597 H 645.06 0.423583 -1.64329 0
M  V30 6598 H 643.832 1.29487 -3.69254 0
M  V30 6599 H 643.455 2.78285 -2.83978 0
M  V30 6600 N 644.452 1.42507 0.673017 0
M  V30 6601 C 645.677 1.4668 1.46627 0
M  V30 6602 C 646.102 0.080066 1.8793 0
M  V30 6603 O 645.46 -0.921879 1.56112 0
M  V30 6604 C 645.508 2.40091 2.69051 0
M  V30 6605 O 644.612 1.8735 3.67387 0
M  V30 6606 H 643.953 0.496908 0.44043 0
M  V30 6607 H 646.483 1.87215 0.825334 0
M  V30 6608 H 646.493 2.56731 3.17101 0
M  V30 6609 H 645.168 3.4084 2.3833 0
M  V30 6610 H 643.745 1.80274 3.26429 0
M  V30 6611 N 645.93 -0.909495 1.28709 0
M  V30 6612 C 646.893 -1.99399 1.13016 0
M  V30 6613 C 647.893 -1.60654 0.068536 0
M  V30 6614 O 649.083 -1.71334 0.314671 0
M  V30 6615 C 646.215 -3.33078 0.726085 0
M  V30 6616 H 647.408 -2.14751 2.09338 0
M  V30 6617 H 644.961 -1.09272 1.11756 0
M  V30 6618 H 645.696 -3.23428 -0.23771 0
M  V30 6619 H 645.481 -3.62562 1.49302 0
M  V30 6620 H 646.971 -4.12681 0.639058 0
M  V30 6621 N 647.408 -1.11026 -1.11852 0
M  V30 6622 C 648.341 -0.708501 -2.16923 0
M  V30 6623 C 649.319 0.293196 -1.59935 0
M  V30 6624 O 650.503 0.190641 -1.87533 0
M  V30 6625 C 647.63 -0.0463705 -3.38668 0
M  V30 6626 C 646.676 -1.01252 -4.14307 0
M  V30 6627 S 647.509 -2.53291 -4.71809 0
M  V30 6628 C 648.665 -1.88366 -5.96883 0
M  V30 6629 H 648.898 -1.59854 -2.50667 0
M  V30 6630 H 646.431 -0.927869 -1.2341 0
M  V30 6631 H 648.389 0.329314 -4.09177 0
M  V30 6632 H 647.05 0.820562 -3.03192 0
M  V30 6633 H 646.243 -0.496596 -5.01548 0
M  V30 6634 H 645.845 -1.33042 -3.49537 0
M  V30 6635 H 648.137 -1.21753 -6.6647 0
M  V30 6636 H 649.08 -2.73588 -6.53112 0
M  V30 6637 H 649.488 -1.34562 -5.48227 0
M  V30 6638 N 648.886 1.2938 -0.899927 0
M  V30 6639 C 650.111 2.00228 -0.540692 0
M  V30 6640 C 650.536 1.66909 0.867359 0
M  V30 6641 O 649.894 0.893824 1.57735 0
M  V30 6642 C 649.942 3.52921 -0.740232 0
M  V30 6643 O 649.046 4.11879 0.207154 0
M  V30 6644 H 648.387 0.629505 -0.211233 0
M  V30 6645 H 650.917 1.6487 -1.21158 0
M  V30 6646 H 650.927 4.0287 -0.644973 0
M  V30 6647 H 649.602 3.76508 -1.76677 0
M  V30 6648 H 648.179 3.72845 0.0643315 0
M  V30 6649 O 650.403 0.801822 1.40189 0
M  V30 6650 H 651.094 0.376359 1.90008 0
M  V30 END ATOM
M  V30 BEGIN BOND
M  V30 END BOND
M  V30 END CTAB
M  END
$$$$
