drugbank_target|P15924 Desmoplakin (DB01593; DB11638; DB14487)
 OpenBabel12092121083D

  0  0  0     0  0            999 V3000
M  V30 BEGIN CTAB
M  V30 COUNTS 46639 46918 0 0 0
M  V30 BEGIN ATOM
M  V30 1 H -0.908 1.98254 -0.117106 0
M  V30 2 N 0 1.576 0 0
M  V30 3 C 0.933 2.03868 1.02534 0
M  V30 4 C 1.911 0.928543 1.3348 0
M  V30 5 O 3.095 1.19667 1.45644 0
M  V30 6 C 0.222 2.43627 2.35294 0
M  V30 7 C -0.732 3.65373 2.2001 0
M  V30 8 S 0.101 5.13292 1.52614 0
M  V30 9 C 1.257 5.56322 2.86805 0
M  V30 10 H 1.49 2.90518 0.631377 0
M  V30 11 H -0.977 1.52953 0.210867 0
M  V30 12 H 0.981 2.67203 3.11629 0
M  V30 13 H -0.358 1.57376 2.7183 0
M  V30 14 H -1.165 3.90944 3.18086 0
M  V30 15 H -1.563 3.418 1.51819 0
M  V30 16 H 0.729 5.58782 3.83104 0
M  V30 17 H 1.672 6.56266 2.65933 0
M  V30 18 H 2.08 4.83886 2.90714 0
M  V30 19 N 1.4781 -0.272755 1.55222 0
M  V30 20 C 2.7031 -1.02683 1.80197 0
M  V30 21 C 3.1281 -1.79142 0.573551 0
M  V30 22 O 2.4861 -1.74917 -0.476849 0
M  V30 23 C 2.5341 -1.9609 3.02624 0
M  V30 24 O 1.6381 -3.04863 2.77727 0
M  V30 25 H 0.9791 -0.293557 0.595584 0
M  V30 26 H 3.5091 -0.30159 2.02365 0
M  V30 27 H 3.5191 -2.38039 3.31363 0
M  V30 28 H 2.1941 -1.39851 3.91682 0
M  V30 29 H 0.7711 -2.67228 2.60084 0
M  V30 30 N 2.9562 -1.48159 -0.537278 0
M  V30 31 C 4.1962 -1.57397 -1.30405 0
M  V30 32 C 4.5602 -0.239202 -1.90504 0
M  V30 33 O 5.7612 -0.206528 -2.68005 0
M  V30 34 C 4.0322 -2.6754 -2.36974 0
M  V30 35 S 5.5912 -2.96496 -3.23475 0
M  V30 36 H 2.4092 -0.555577 -0.443684 0
M  V30 37 H 5.0112 -1.85644 -0.612912 0
M  V30 38 H 3.7152 -3.63092 -1.91291 0
M  V30 39 H 3.2462 -2.41172 -3.10805 0
M  V30 40 H 5.2612 -2.35234 -4.36897 0
M  V30 41 N 4.4343 0.785586 -1.36625 0
M  V30 42 C 5.3823 1.91978 -1.31329 0
M  V30 43 C 6.3763 1.68162 -0.204416 0
M  V30 44 O 7.5823 1.76122 -0.371645 0
M  V30 45 H 3.9573 0.631087 -0.408942 0
M  V30 46 H 5.9283 1.93562 -2.27104 0
M  V30 47 C 4.6773 3.29055 -1.12329 0
M  V30 48 H 4.0003 3.4795 -1.96903 0
M  V30 49 H 5.4403 4.08756 -1.12671 0
M  V30 50 C 3.8993 3.36461 0.171861 0
M  V30 51 O 4.4293 3.84576 1.16035 0
M  V30 52 N 2.6353 2.89782 0.217846 0
M  V30 53 H 2.1823 2.50819 -0.587183 0
M  V30 54 H 2.1403 2.95119 1.08408 0
M  V30 55 N 5.9124 1.20967 1.01018 0
M  V30 56 C 7.1604 1.02172 1.74371 0
M  V30 57 C 7.4814 -0.446414 1.89821 0
M  V30 58 O 6.7514 -1.32234 1.44537 0
M  V30 59 H 5.3314 0.375066 0.646014 0
M  V30 60 H 7.9934 1.52187 1.21758 0
M  V30 61 H 7.0894 1.48538 2.74487 0
M  V30 62 N 7.3905 -1.2043 1.01659 0
M  V30 63 C 8.6385 -1.89423 0.704522 0
M  V30 64 C 8.9595 -1.79231 -0.768197 0
M  V30 65 O 8.2295 -1.1947 -1.55254 0
M  V30 66 H 6.8095 -0.701178 0.257602 0
M  V30 67 H 9.4715 -1.4626 1.28818 0
M  V30 68 H 8.5675 -2.96052 0.987916 0
M  V30 69 N 8.8686 -0.792821 -1.36206 0
M  V30 70 C 10.0936 -0.377701 -2.03932 0
M  V30 71 C 10.5186 0.998947 -1.59382 0
M  V30 72 O 9.8766 1.64421 -0.763903 0
M  V30 73 C 9.9246 -0.453635 -3.57735 0
M  V30 74 O 9.0286 0.538151 -4.08874 0
M  V30 75 H 8.3696 -0.159855 -0.644471 0
M  V30 76 H 10.8996 -1.07488 -1.7409 0
M  V30 77 H 10.9096 -0.318464 -4.06755 0
M  V30 78 H 9.5846 -1.45784 -3.89512 0
M  V30 79 H 8.1616 0.364359 -3.71116 0
M  V30 80 N 10.3467 1.47872 -0.545128 0
M  V30 81 C 11.2967 2.26842 0.229456 0
M  V30 82 C 12.2807 1.33626 0.896267 0
M  V30 83 O 13.4727 1.58063 0.79657 0
M  V30 84 C 10.6017 3.19089 1.26638 0
M  V30 85 C 9.6877 4.19783 0.603598 0
M  V30 86 N 10.0787 5.0479 -0.319405 0
M  V30 87 C 8.3767 4.3765 0.858989 0
M  V30 88 C 9.0777 5.77433 -0.703241 0
M  V30 89 N 8.0537 5.43566 -0.0608309 0
M  V30 90 H 11.8557 2.89947 -0.480391 0
M  V30 91 H 9.3697 1.58263 -0.364209 0
M  V30 92 H 11.3667 3.74337 1.83515 0
M  V30 93 H 10.0267 2.5754 1.97745 0
M  V30 94 H 11.0377 5.13244 -0.692889 0
M  V30 95 H 7.7147 3.87281 1.55948 0
M  V30 96 H 9.1047 6.55824 -1.46098 0
M  V30 97 N 11.8248 0.280983 1.55075 0
M  V30 98 C 13.2358 -0.215629 1.85451 0
M  V30 99 C 13.5868 -1.54991 1.203 0
M  V30 100 O 12.7118 -2.10699 0.493435 0
M  V30 101 C 13.3068 -0.398026 3.36454 0
M  V30 102 C 11.8658 -0.838866 3.66933 0
M  V30 103 C 11.0128 0.064458 2.77225 0
M  V30 104 H 13.9638 0.502601 1.50531 0
M  V30 105 H 13.9848 -1.23569 3.59876 0
M  V30 106 H 13.4968 0.573241 3.83843 0
M  V30 107 H 11.5978 -1.8214 3.25048 0
M  V30 108 H 11.7108 -0.672123 4.74362 0
M  V30 109 H 10.0748 -0.452863 2.50642 0
M  V30 110 H 10.8578 1.03172 3.2743 0
M  V30 111 N 13.3029 -1.57598 0.00835791 0
M  V30 112 C 14.7189 -1.55764 -0.347822 0
M  V30 113 C 14.9189 -1.01186 -1.74252 0
M  V30 114 O 13.9749 -0.649371 -2.44007 0
M  V30 115 C 15.2879 -2.99927 -0.215407 0
M  V30 116 C 16.8359 -3.11656 -0.289725 0
M  V30 117 C 17.3109 -4.57621 -0.18634 0
M  V30 118 N 18.8019 -4.62557 -0.243978 0
M  V30 119 C 19.5369 -5.73094 -0.18745 0
M  V30 120 N 19.0329 -6.92753 -0.0810331 0
M  V30 121 N 20.8259 -5.61588 -0.239925 0
M  V30 122 H 12.9769 -1.91411 0.92062 0
M  V30 123 H 15.2399 -0.879562 0.353659 0
M  V30 124 H 14.9459 -3.43729 0.744512 0
M  V30 125 H 14.8199 -3.63865 -0.994097 0
M  V30 126 H 17.2069 -2.67779 -1.24009 0
M  V30 127 H 17.2879 -2.5048 0.51898 0
M  V30 128 H 16.9319 -5.02174 0.760519 0
M  V30 129 H 16.8619 -5.16752 -1.01364 0
M  V30 130 H 19.3529 -3.76481 -0.327217 0
M  V30 131 H 19.6659 -7.72787 -0.0440241 0
M  V30 132 H 18.0109 -6.94984 -0.0465419 0
M  V30 133 H 21.2019 -4.66996 -0.321317 0
M  V30 134 H 21.3749 -6.47714 -0.192407 0
M  V30 135 N 14.781 0.264519 -1.55364 0
M  V30 136 C 16.03 0.992812 -1.75574 0
M  V30 137 C 16.343 1.87142 -0.568979 0
M  V30 138 O 17.549 2.63513 -0.653682 0
M  V30 139 C 16.005 1.81519 -3.10771 0
M  V30 140 C 15.613 0.984839 -4.37041 0
M  V30 141 C 17.357 2.53727 -3.40327 0
M  V30 142 C 15.264 1.80209 -5.63275 0
M  V30 143 H 14.194 0.374412 -0.65447 0
M  V30 144 H 16.845 0.248138 -1.81815 0
M  V30 145 H 15.227 2.60115 -2.98591 0
M  V30 146 H 16.401 0.242455 -4.60162 0
M  V30 147 H 14.716 0.37691 -4.14691 0
M  V30 148 H 17.313 3.15292 -4.3185 0
M  V30 149 H 17.656 3.24447 -2.60845 0
M  V30 150 H 18.189 1.82156 -3.53644 0
M  V30 151 H 14.928 1.13896 -6.45529 0
M  V30 152 H 14.448 2.52022 -5.44284 0
M  V30 153 H 16.127 2.37364 -6.01887 0
M  V30 154 N 16.2591 1.48442 0.529413 0
M  V30 155 C 17.2071 1.63452 1.65487 0
M  V30 156 C 18.2011 0.500955 1.61823 0
M  V30 157 O 19.4071 0.679695 1.66674 0
M  V30 158 H 15.7821 0.514905 0.548066 0
M  V30 159 H 17.7531 2.57975 1.49971 0
M  V30 160 C 16.5021 1.69196 3.03756 0
M  V30 161 H 15.8251 2.55784 3.07269 0
M  V30 162 H 17.2651 1.83743 3.82119 0
M  V30 163 C 15.7241 0.430765 3.34135 0
M  V30 164 O 16.2541 -0.4561 3.99102 0
M  V30 165 N 14.4601 0.302293 2.89023 0
M  V30 166 H 14.0071 1.02496 2.36331 0
M  V30 167 H 13.9651 -0.540546 3.09718 0
M  V30 168 N 17.7372 -0.778329 1.37039 0
M  V30 169 C 18.9652 -1.56734 1.35063 0
M  V30 170 C 19.3802 -1.88686 -0.0655597 0
M  V30 171 O 18.7372 -1.5096 -1.02554 0
M  V30 172 C 18.7882 -2.88163 2.18276 0
M  V30 173 O 18.5092 -2.57583 3.54376 0
M  V30 174 C 20.0102 -3.82422 2.24206 0
M  V30 175 H 17.2302 -0.485778 0.462883 0
M  V30 176 H 19.7742 -0.965185 1.8029 0
M  V30 177 H 17.9292 -3.44818 1.76576 0
M  V30 178 H 18.3432 -3.41699 3.97922 0
M  V30 179 H 19.8172 -4.71667 2.86765 0
M  V30 180 H 20.2942 -4.21078 1.24861 0
M  V30 181 H 20.9002 -3.31697 2.6619 0
M  V30 182 N 19.2153 -1.21501 -1.00376 0
M  V30 183 C 20.1453 -0.999478 -2.11028 0
M  V30 184 C 21.1263 0.0759671 -1.6993 0
M  V30 185 O 22.3113 -0.0841106 -1.94018 0
M  V30 186 C 19.4413 -0.564709 -3.42678 0
M  V30 187 C 18.3953 -1.58486 -3.97576 0
M  V30 188 C 17.7213 -1.00628 -5.25146 0
M  V30 189 C 19.0213 -2.97204 -4.29496 0
M  V30 190 H 20.7153 -1.92495 -2.29317 0
M  V30 191 H 18.2613 -0.92693 -1.102 0
M  V30 192 H 20.2143 -0.401091 -4.19487 0
M  V30 193 H 18.9383 0.396411 -3.24185 0
M  V30 194 H 17.5973 -1.73606 -3.22888 0
M  V30 195 H 17.2453 -0.0368439 -5.02987 0
M  V30 196 H 16.9453 -1.68771 -5.62841 0
M  V30 197 H 18.4693 -0.854015 -6.04598 0
M  V30 198 H 19.8833 -2.8552 -4.97143 0
M  V30 199 H 18.2803 -3.62372 -4.78338 0
M  V30 200 H 19.3503 -3.47956 -3.3772 0
M  V30 201 N 20.6934 1.19889 -1.02296 0
M  V30 202 C 21.9414 1.89046 -0.714558 0
M  V30 203 C 22.2624 1.79636 0.758681 0
M  V30 204 O 21.5324 1.20292 1.54618 0
M  V30 205 H 20.1124 0.699802 -0.261317 0
M  V30 206 H 22.7744 1.45574 -1.29592 0
M  V30 207 H 21.8704 2.95524 -1.0036 0
M  V30 208 N 22.1715 0.800033 1.35784 0
M  V30 209 C 23.5875 0.482977 1.52117 0
M  V30 210 C 23.7875 -0.996948 1.75109 0
M  V30 211 O 22.8435 -1.78216 1.78872 0
M  V30 212 C 24.1565 1.32264 2.70049 0
M  V30 213 C 25.7045 1.31742 2.83924 0
M  V30 214 C 26.1795 2.14106 4.04874 0
M  V30 215 N 27.6705 2.11607 4.12039 0
M  V30 216 C 28.4055 2.72099 5.04727 0
M  V30 217 N 27.9015 3.41492 6.02789 0
M  V30 218 N 29.6945 2.61776 4.97423 0
M  V30 219 H 21.8455 1.75856 1.19115 0
M  V30 220 H 24.1085 0.748122 0.582252 0
M  V30 221 H 23.8145 2.37261 2.59616 0
M  V30 222 H 23.6885 0.971303 3.6448 0
M  V30 223 H 26.0755 0.275333 2.93813 0
M  V30 224 H 26.1565 1.70859 1.9037 0
M  V30 225 H 25.8005 3.18351 3.95746 0
M  V30 226 H 25.7305 1.72353 4.97596 0
M  V30 227 H 28.2215 1.61112 3.41835 0
M  V30 228 H 28.5345 3.84953 6.70098 0
M  V30 229 H 26.8795 3.45596 6.02983 0
M  V30 230 H 30.0705 2.07157 4.19766 0
M  V30 231 H 30.2435 3.0921 5.69468 0
M  V30 232 N 23.6496 -1.47581 0.552962 0
M  V30 233 C 24.5826 -2.26883 -0.244857 0
M  V30 234 C 25.5606 -1.33784 -0.924147 0
M  V30 235 O 26.7446 -1.6316 -0.943981 0
M  V30 236 C 23.8716 -3.10695 -1.34856 0
M  V30 237 C 22.9176 -4.19339 -0.778268 0
M  V30 238 S 23.7506 -5.34207 0.37184 0
M  V30 239 C 24.9066 -6.21584 -0.733779 0
M  V30 240 H 25.1396 -2.94202 0.428087 0
M  V30 241 H 22.6726 -1.50628 0.339197 0
M  V30 242 H 24.6306 -3.59555 -1.98066 0
M  V30 243 H 23.2916 -2.42746 -1.99332 0
M  V30 244 H 22.4846 -4.77695 -1.60696 0
M  V30 245 H 22.0866 -3.73338 -0.222422 0
M  V30 246 H 24.3786 -6.57676 -1.62692 0
M  V30 247 H 25.3216 -7.07851 -0.187668 0
M  V30 248 H 25.7296 -5.55125 -1.02454 0
M  V30 249 N 25.1277 -0.289203 -1.54924 0
M  V30 250 C 26.3767 0.324231 -1.99077 0
M  V30 251 C 26.6897 1.5591 -1.18117 0
M  V30 252 O 27.8957 2.24637 -1.52481 0
M  V30 253 C 26.3517 0.628209 -3.54375 0
M  V30 254 C 25.9597 -0.587647 -4.44129 0
M  V30 255 C 27.7037 1.20349 -4.07083 0
M  V30 256 C 25.6107 -0.257475 -5.90839 0
M  V30 257 H 24.5407 0.124924 -0.743579 0
M  V30 258 H 27.1917 -0.396063 -1.79175 0
M  V30 259 H 25.5737 1.40778 -3.70132 0
M  V30 260 H 26.7477 -1.36418 -4.40144 0
M  V30 261 H 25.0627 -1.08074 -4.0213 0
M  V30 262 H 27.6597 1.46456 -5.14252 0
M  V30 263 H 28.0027 2.14195 -3.56968 0
M  V30 264 H 28.5357 0.485889 -3.94821 0
M  V30 265 H 25.2747 -1.16419 -6.45079 0
M  V30 266 H 24.7947 0.482018 -5.9786 0
M  V30 267 H 26.4737 0.145238 -6.46837 0
M  V30 268 N 26.6058 1.57591 -0.0167156 0
M  V30 269 C 28.0218 1.55946 0.339557 0
M  V30 270 C 28.2218 1.02109 1.73713 0
M  V30 271 O 27.2778 0.662303 2.43659 0
M  V30 272 C 28.5908 3.00037 0.199499 0
M  V30 273 C 30.1388 3.11805 0.273193 0
M  V30 274 C 30.6138 4.57713 0.162068 0
M  V30 275 N 32.1048 4.6268 0.219444 0
M  V30 276 C 32.8398 5.73185 0.157054 0
M  V30 277 N 32.3358 6.92786 0.0442936 0
M  V30 278 N 34.1288 5.61707 0.21014 0
M  V30 279 H 26.2798 1.90921 -0.930758 0
M  V30 280 H 28.5428 0.877674 -0.358319 0
M  V30 281 H 28.2488 3.4333 -0.76273 0
M  V30 282 H 28.1228 3.64387 0.974786 0
M  V30 283 H 30.5098 2.68433 1.22587 0
M  V30 284 H 30.5908 2.50201 -0.532256 0
M  V30 285 H 30.2348 5.01763 -0.78714 0
M  V30 286 H 30.1648 5.17283 0.986222 0
M  V30 287 H 32.6558 3.76649 0.307246 0
M  V30 288 H 32.9688 7.728 0.00304069 0
M  V30 289 H 31.3138 6.94999 0.00968457 0
M  V30 290 H 34.5048 4.6716 0.296546 0
M  V30 291 H 34.6778 6.47807 0.158054 0
M  V30 292 N 28.0839 -0.256276 1.55502 0
M  V30 293 C 29.0469 -1.30047 1.88734 0
M  V30 294 C 30.0469 -1.4154 0.763086 0
M  V30 295 O 31.2369 -1.40403 1.03115 0
M  V30 296 C 28.3689 -2.67953 2.10747 0
M  V30 297 H 29.5619 -1.01802 2.82093 0
M  V30 298 H 27.1149 -0.495134 1.4825 0
M  V30 299 H 27.8499 -3.01351 1.19825 0
M  V30 300 H 27.6349 -2.60993 2.92617 0
M  V30 301 H 29.1249 -3.43368 2.37673 0
M  V30 302 N 29.562 -1.4872 -0.521534 0
M  V30 303 C 30.472 -1.66569 -1.65203 0
M  V30 304 C 31.488 -0.548197 -1.65139 0
M  V30 305 O 32.664 -0.820339 -1.83936 0
M  V30 306 C 29.729 -1.70917 -3.01642 0
M  V30 307 C 28.79 -2.94356 -3.12495 0
M  V30 308 C 28.023 -2.98487 -4.42426 0
M  V30 309 O 28.246 -2.10786 -5.30024 0
M  V30 310 O 27.18 -3.90746 -4.57822 0
M  V30 311 H 31.006 -2.62298 -1.5308 0
M  V30 312 H 28.591 -1.3222 -0.695565 0
M  V30 313 H 30.473 -1.7625 -3.82771 0
M  V30 314 H 29.148 -0.783633 -3.14071 0
M  V30 315 H 28.055 -2.94552 -2.3063 0
M  V30 316 H 29.388 -3.86322 -3.04986 0
M  V30 317 N 31.0401 0.771051 -1.3745 0
M  V30 318 C 32.2651 1.56529 -1.36065 0
M  V30 319 C 32.6901 1.88029 0.0515859 0
M  V30 320 O 32.0481 1.49282 1.02882 0
M  V30 321 C 32.0961 2.85187 -2.20683 0
M  V30 322 O 31.2001 3.79593 -1.61193 0
M  V30 323 H 30.5411 0.47411 -0.464883 0
M  V30 324 H 33.0711 0.954269 -1.80983 0
M  V30 325 H 33.0811 3.34283 -2.33921 0
M  V30 326 H 31.7561 2.61588 -3.23334 0
M  V30 327 H 30.3331 3.38239 -1.56999 0
M  V30 328 N 32.5182 1.22032 0.997298 0
M  V30 329 C 33.7662 1.04016 1.73278 0
M  V30 330 C 34.0872 -0.426255 1.90284 0
M  V30 331 O 33.3572 -1.30694 1.45931 0
M  V30 332 H 31.9372 0.381897 0.642 0
M  V30 333 H 34.5992 1.5347 1.20137 0
M  V30 334 H 33.6952 1.51441 2.72896 0
M  V30 335 N 33.9963 -1.19345 1.0293 0
M  V30 336 C 35.4073 -1.70725 0.755633 0
M  V30 337 C 35.7583 -1.82326 -0.724676 0
M  V30 338 O 34.8833 -1.49471 -1.56484 0
M  V30 339 C 35.4783 -3.10084 1.36503 0
M  V30 340 C 34.0373 -3.58723 1.13994 0
M  V30 341 C 33.1843 -2.35577 1.46283 0
M  V30 342 H 36.1353 -1.0418 1.19718 0
M  V30 343 H 36.1563 -3.72787 0.762217 0
M  V30 344 H 35.6683 -3.01609 2.44241 0
M  V30 345 H 33.7693 -3.72512 0.0807901 0
M  V30 346 H 33.8823 -4.42816 1.82894 0
M  V30 347 H 32.2463 -2.38935 0.88217 0
M  V30 348 H 33.0293 -2.29731 2.55105 0
M  V30 349 N 35.4744 -0.807222 -1.35358 0
M  V30 350 C 36.7514 -0.311126 -1.9311 0
M  V30 351 C 37.1314 1.19937 -1.73719 0
M  V30 352 O 36.4794 1.99918 -1.10657 0
M  V30 353 C 36.6894 -0.723226 -3.41424 0
M  V30 354 C 38.0374 -0.713078 -4.18569 0
M  V30 355 O 39.0614 -0.664811 -3.49941 0
M  V30 356 O 37.9204 -0.772022 -5.41019 0
M  V30 357 H 35.0144 -0.081526 -0.822972 0
M  V30 358 H 37.5604 -0.890962 -1.4443 0
M  V30 359 H 36.3324 -1.76426 -3.4927 0
M  V30 360 H 35.9554 -0.118232 -3.97424 0
M  V30 361 N 36.9525 1.47285 -0.560781 0
M  V30 362 C 37.8825 2.32857 0.173105 0
M  V30 363 C 38.8635 1.44009 0.905281 0
M  V30 364 O 40.0485 1.7286 0.885046 0
M  V30 365 C 37.1785 3.25861 1.20133 0
M  V30 366 C 36.1325 4.23978 0.585388 0
M  V30 367 C 35.4585 5.06332 1.7185 0
M  V30 368 C 36.7585 5.20242 -0.463178 0
M  V30 369 H 38.4525 2.94466 -0.541307 0
M  V30 370 H 35.9985 1.41601 -0.261764 0
M  V30 371 H 37.9515 3.84569 1.72293 0
M  V30 372 H 36.6755 2.62315 1.94573 0
M  V30 373 H 35.3345 3.66501 0.085054 0
M  V30 374 H 34.9825 4.39186 2.45203 0
M  V30 375 H 34.6825 5.72762 1.31213 0
M  V30 376 H 36.2065 5.67899 2.24329 0
M  V30 377 H 37.6205 5.73293 -0.027502 0
M  V30 378 H 36.0175 5.94896 -0.788627 0
M  V30 379 H 37.0875 4.65504 -1.35773 0
M  V30 380 N 38.4306 0.297415 1.54768 0
M  V30 381 C 39.8466 -0.0560823 1.59501 0
M  V30 382 C 40.0466 -1.52725 1.31444 0
M  V30 383 O 39.1026 -2.27947 1.08611 0
M  V30 384 C 40.4156 0.338631 2.98787 0
M  V30 385 C 41.9636 0.287097 3.11681 0
M  V30 386 C 42.4386 0.656579 4.53269 0
M  V30 387 N 43.9296 0.608977 4.59179 0
M  V30 388 C 44.6646 0.867385 5.66802 0
M  V30 389 N 44.1606 1.19157 6.82476 0
M  V30 390 N 45.9536 0.794687 5.56454 0
M  V30 391 H 38.1046 1.25624 1.71267 0
M  V30 392 H 40.3676 0.509057 0.799728 0
M  V30 393 H 40.0736 1.36263 3.2423 0
M  V30 394 H 39.9476 -0.309508 3.75928 0
M  V30 395 H 42.3346 -0.727649 2.85988 0
M  V30 396 H 42.4156 0.969809 2.36703 0
M  V30 397 H 42.0596 1.66912 4.7969 0
M  V30 398 H 41.9896 -0.0481649 5.26578 0
M  V30 399 H 44.4806 0.369198 3.76092 0
M  V30 400 H 44.7936 1.37482 7.60473 0
M  V30 401 H 43.1386 1.22958 6.84037 0
M  V30 402 H 46.3296 0.541098 4.64962 0
M  V30 403 H 46.5026 0.999445 6.40246 0
M  V30 404 N 39.9087 -1.5758 0.0250728 0
M  V30 405 C 41.1387 -1.95646 -0.663783 0
M  V30 406 C 41.5467 -0.899935 -1.66427 0
M  V30 407 O 40.8897 0.127191 -1.83259 0
M  V30 408 C 40.9517 -3.29835 -1.43 0
M  V30 409 C 40.6157 -4.53197 -0.588305 0
M  V30 410 C 41.6127 -5.19726 0.13469 0
M  V30 411 C 39.2977 -4.99529 -0.526897 0
M  V30 412 C 41.2917 -6.30902 0.90781 0
M  V30 413 C 38.9787 -6.10589 0.24993 0
M  V30 414 C 39.9767 -6.76134 0.965994 0
M  V30 415 O 39.6647 -7.85062 1.7301 0
M  V30 416 H 39.3967 -0.649282 -0.188174 0
M  V30 417 H 41.9507 -2.05245 0.0799006 0
M  V30 418 H 40.1807 -3.16716 -2.21873 0
M  V30 419 H 41.8697 -3.52833 -2.00658 0
M  V30 420 H 42.6357 -4.84904 0.0965562 0
M  V30 421 H 38.5147 -4.48319 -1.07381 0
M  V30 422 H 42.0587 -6.81995 1.46724 0
M  V30 423 H 37.9557 -6.44849 0.289795 0
M  V30 424 H 38.7237 -8.01708 1.64944 0
M  V30 425 N 41.3868 0.248026 -1.55636 0
M  V30 426 C 42.2968 1.32859 -1.93354 0
M  V30 427 C 43.3128 1.52719 -0.833838 0
M  V30 428 O 44.4888 1.66363 -1.13513 0
M  V30 429 C 41.5538 2.66337 -2.21958 0
M  V30 430 C 40.6148 2.55008 -3.45354 0
M  V30 431 C 39.8478 3.82121 -3.72584 0
M  V30 432 O 40.0708 4.83951 -3.01907 0
M  V30 433 O 39.0048 3.80822 -4.6611 0
M  V30 434 H 42.8308 1.03862 -2.85388 0
M  V30 435 H 40.4158 0.448686 -1.42503 0
M  V30 436 H 42.2978 3.45216 -2.4167 0
M  V30 437 H 40.9728 2.95068 -1.33103 0
M  V30 438 H 39.8798 1.7442 -3.30951 0
M  V30 439 H 41.2128 2.31222 -4.34508 0
M  V30 440 N 42.8649 1.48995 0.513639 0
M  V30 441 C 44.1109 1.58076 1.27042 0
M  V30 442 C 44.4439 0.261026 1.92438 0
M  V30 443 O 43.7189 -0.734393 1.80103 0
M  V30 444 C 44.0019 2.73091 2.34719 0
M  V30 445 C 43.8549 4.14821 1.73907 0
M  V30 446 C 45.1739 2.83796 3.36375 0
M  V30 447 H 42.2929 0.575391 0.460536 0
M  V30 448 H 44.9349 1.81232 0.570516 0
M  V30 449 H 43.0849 2.53479 2.94416 0
M  V30 450 H 44.7569 4.45917 1.18135 0
M  V30 451 H 42.9999 4.21058 1.0437 0
M  V30 452 H 43.6709 4.91147 2.51949 0
M  V30 453 H 46.1469 3.01611 2.86653 0
M  V30 454 H 45.0229 3.65971 4.09093 0
M  V30 455 H 45.2839 1.92624 3.9793 0
M  V30 456 N 44.343 -0.763751 1.37857 0
M  V30 457 C 45.571 -1.55293 1.36718 0
M  V30 458 C 45.986 -1.88745 -0.0455434 0
M  V30 459 O 45.343 -1.52039 -1.00947 0
M  V30 460 C 45.394 -2.85831 2.2132 0
M  V30 461 O 45.115 -2.5381 3.57089 0
M  V30 462 C 46.616 -3.80023 2.28249 0
M  V30 463 H 43.836 -0.480841 0.468009 0
M  V30 464 H 46.38 -0.946009 1.81303 0
M  V30 465 H 44.535 -3.42926 1.80223 0
M  V30 466 H 44.949 -3.37459 4.01524 0
M  V30 467 H 46.423 -4.68599 2.91752 0
M  V30 468 H 46.9 -4.1973 1.2932 0
M  V30 469 H 47.506 -3.28855 2.69693 0
M  V30 470 N 45.8211 -1.22559 -0.990812 0
M  V30 471 C 47.0461 -1.07862 -1.77145 0
M  V30 472 C 47.4711 0.366447 -1.84496 0
M  V30 473 O 46.8291 1.26478 -1.29896 0
M  V30 474 C 46.8771 -1.69686 -3.18181 0
M  V30 475 O 45.9811 -0.951946 -4.01263 0
M  V30 476 H 45.3221 -0.378712 -0.545411 0
M  V30 477 H 47.8521 -1.62399 -1.2445 0
M  V30 478 H 47.8621 -1.74496 -3.68802 0
M  V30 479 H 46.5371 -2.74841 -3.12146 0
M  V30 480 H 45.1141 -0.980011 -3.59792 0
M  V30 481 N 47.2992 1.18797 -1.03562 0
M  V30 482 C 48.5472 1.88278 -0.734569 0
M  V30 483 C 48.8682 1.8043 0.739586 0
M  V30 484 O 48.1382 1.21925 1.53333 0
M  V30 485 H 46.7182 0.696991 -0.268725 0
M  V30 486 H 49.3802 1.44192 -1.31129 0
M  V30 487 H 48.4762 2.94443 -1.03489 0
M  V30 488 N 48.7773 0.814389 1.34928 0
M  V30 489 C 50.0253 0.397636 1.9815 0
M  V30 490 C 50.3463 -1.04069 1.64908 0
M  V30 491 O 49.6163 -1.72121 0.93548 0
M  V30 492 H 48.1963 0.144043 0.732981 0
M  V30 493 H 50.8583 1.04195 1.6471 0
M  V30 494 H 49.9543 0.509688 3.0791 0
M  V30 495 N 50.2554 -1.46986 0.568584 0
M  V30 496 C 51.5034 -2.02041 0.0487022 0
M  V30 497 C 51.8244 -1.44408 -1.31039 0
M  V30 498 O 51.0944 -0.623477 -1.85714 0
M  V30 499 H 49.6744 -0.746849 0.015014 0
M  V30 500 H 52.3364 -1.80257 0.741168 0
M  V30 501 H 51.4324 -3.12085 -0.0308961 0
M  V30 502 N 51.7335 -0.305618 -1.54608 0
M  V30 503 C 52.9815 0.301701 -1.99835 0
M  V30 504 C 53.3025 1.54054 -1.19551 0
M  V30 505 O 52.5725 1.93702 -0.292658 0
M  V30 506 H 51.1525 0.114468 -0.738178 0
M  V30 507 H 53.8145 -0.418016 -1.90364 0
M  V30 508 H 52.9105 0.570548 -3.06841 0
M  V30 509 N 53.2116 1.57565 -0.0334293 0
M  V30 510 C 54.4396 1.9628 0.654347 0
M  V30 511 C 54.8546 0.910138 1.65414 0
M  V30 512 O 54.2116 -0.107595 1.82183 0
M  V30 513 C 54.2626 3.35067 1.35693 0
M  V30 514 O 53.9836 4.36296 0.397191 0
M  V30 515 C 55.4846 3.88439 2.13613 0
M  V30 516 H 52.7046 0.646369 0.180132 0
M  V30 517 H 55.2486 2.04282 -0.0944721 0
M  V30 518 H 53.4036 3.2827 2.05712 0
M  V30 519 H 53.8176 5.1678 0.896597 0
M  V30 520 H 55.2916 4.8788 2.58219 0
M  V30 521 H 55.7686 3.22914 2.97696 0
M  V30 522 H 56.3746 3.98516 1.48543 0
M  V30 523 N 54.6897 -0.239769 1.55765 0
M  V30 524 C 55.9147 -0.988373 1.82335 0
M  V30 525 C 56.3397 -1.77886 0.611421 0
M  V30 526 O 55.6977 -1.75889 -0.439639 0
M  V30 527 C 55.7457 -1.89627 3.06715 0
M  V30 528 O 54.8497 -2.98904 2.84131 0
M  V30 529 H 54.1907 -0.280858 0.601677 0
M  V30 530 H 56.7207 -0.258597 2.02959 0
M  V30 531 H 56.7307 -2.30957 3.36338 0
M  V30 532 H 55.4057 -1.31511 3.9456 0
M  V30 533 H 53.9827 -2.61651 2.65694 0
M  V30 534 N 56.1678 -1.49265 -0.50573 0
M  V30 535 C 57.5838 -1.35923 -0.836486 0
M  V30 536 C 57.7838 -0.388704 -1.97715 0
M  V30 537 O 56.8398 0.181336 -2.51848 0
M  V30 538 C 58.1528 -2.76531 -1.18115 0
M  V30 539 C 59.7008 -2.85197 -1.28964 0
M  V30 540 C 60.1758 -4.26561 -1.66761 0
M  V30 541 N 61.6668 -4.2935 -1.73819 0
M  V30 542 C 62.4018 -5.35693 -2.045 0
M  V30 543 N 61.8978 -6.52287 -2.33438 0
M  V30 544 N 63.6908 -5.23105 -2.05711 0
M  V30 545 H 55.8418 -2.10965 0.246519 0
M  V30 546 H 58.1048 -0.9468 0.0476887 0
M  V30 547 H 57.8108 -3.49226 -0.416398 0
M  V30 548 H 57.6848 -3.11599 -2.1257 0
M  V30 549 H 60.0718 -2.12742 -2.04511 0
M  V30 550 H 60.1528 -2.53718 -0.325704 0
M  V30 551 H 59.7968 -4.99541 -0.917656 0
M  V30 552 H 59.7268 -4.55502 -2.64246 0
M  V30 553 H 62.2178 -3.4526 -1.53635 0
M  V30 554 H 62.5308 -7.29158 -2.56024 0
M  V30 555 H 60.8758 -6.55521 -2.30905 0
M  V30 556 H 64.0668 -4.31026 -1.82577 0
M  V30 557 H 64.2398 -6.06078 -2.29289 0
M  V30 558 N 57.6459 0.756429 -1.3826 0
M  V30 559 C 58.5789 1.87802 -1.29637 0
M  V30 560 C 59.5569 1.61667 -0.173939 0
M  V30 561 O 60.7409 1.85208 -0.350775 0
M  V30 562 C 57.8679 3.23354 -1.00797 0
M  V30 563 C 56.9139 3.68379 -2.14939 0
M  V30 564 S 57.7469 3.8025 -3.77054 0
M  V30 565 C 58.9029 5.18626 -3.50396 0
M  V30 566 H 59.1359 1.94829 -2.24564 0
M  V30 567 H 56.6689 0.919117 -1.24063 0
M  V30 568 H 58.6269 4.01637 -0.848413 0
M  V30 569 H 57.2879 3.14008 -0.0759369 0
M  V30 570 H 56.4809 4.66693 -1.90299 0
M  V30 571 H 56.0829 2.97242 -2.26988 0
M  V30 572 H 58.3749 6.04289 -3.06334 0
M  V30 573 H 59.3179 5.48286 -4.48094 0
M  V30 574 H 59.7259 4.87289 -2.84973 0
M  V30 575 N 59.124 1.23083 0.984299 0
M  V30 576 C 60.354 1.08556 1.75781 0
M  V30 577 C 60.762 -0.366171 1.85623 0
M  V30 578 O 60.105 -1.26524 1.33182 0
M  V30 579 C 60.167 1.63208 3.20318 0
M  V30 580 C 59.831 3.11922 3.33997 0
M  V30 581 C 60.828 4.09259 3.2063 0
M  V30 582 C 58.513 3.51552 3.58771 0
M  V30 583 C 60.507 5.4421 3.31835 0
M  V30 584 C 58.194 4.86649 3.69616 0
M  V30 585 C 59.192 5.82787 3.56157 0
M  V30 586 O 58.88 7.15431 3.66626 0
M  V30 587 H 58.612 0.380713 0.5586 0
M  V30 588 H 61.166 1.63321 1.2456 0
M  V30 589 H 59.396 1.0286 3.72769 0
M  V30 590 H 61.085 1.44216 3.79416 0
M  V30 591 H 61.851 3.79984 3.01392 0
M  V30 592 H 57.73 2.77239 3.6832 0
M  V30 593 H 61.274 6.1923 3.21247 0
M  V30 594 H 57.171 5.15601 3.88363 0
M  V30 595 H 57.939 7.23127 3.83445 0
M  V30 596 N 60.6021 -1.18246 1.0419 0
M  V30 597 C 61.8321 -1.91916 0.764961 0
M  V30 598 C 62.2401 -1.76485 -0.681898 0
M  V30 599 O 61.5831 -1.09275 -1.47664 0
M  V30 600 C 61.6451 -3.4373 1.05309 0
M  V30 601 C 61.3091 -3.8294 2.4941 0
M  V30 602 C 62.3061 -3.86621 3.47592 0
M  V30 603 C 59.9911 -4.142 2.84155 0
M  V30 604 C 61.9851 -4.21013 4.78568 0
M  V30 605 C 59.6721 -4.48262 4.15337 0
M  V30 606 C 60.6701 -4.51645 5.12353 0
M  V30 607 O 60.3581 -4.84911 6.41183 0
M  V30 608 H 60.0901 -0.61606 0.278292 0
M  V30 609 H 62.6441 -1.50947 1.39299 0
M  V30 610 H 60.8741 -3.84946 0.367933 0
M  V30 611 H 62.5631 -3.9865 0.763752 0
M  V30 612 H 63.3291 -3.62607 3.22089 0
M  V30 613 H 59.2081 -4.10743 2.09311 0
M  V30 614 H 62.7521 -4.23568 5.54289 0
M  V30 615 H 58.6491 -4.71737 4.40607 0
M  V30 616 H 59.4171 -5.02809 6.45852 0
M  V30 617 N 62.0802 -0.821533 -1.34494 0
M  V30 618 C 63.3052 -0.420873 -2.03085 0
M  V30 619 C 63.7302 0.964915 -1.61465 0
M  V30 620 O 63.0882 1.62763 -0.798607 0
M  V30 621 C 63.1362 -0.529414 -3.56693 0
M  V30 622 O 62.2402 0.451302 -4.09923 0
M  V30 623 H 61.5812 -0.173489 -0.640935 0
M  V30 624 H 64.1112 -1.11157 -1.71771 0
M  V30 625 H 64.1212 -0.404671 -4.05988 0
M  V30 626 H 62.7962 -1.54014 -3.86332 0
M  V30 627 H 61.3732 0.285558 -3.71805 0
M  V30 628 N 63.5583 1.46682 -0.576371 0
M  V30 629 C 64.9743 1.57822 -0.237562 0
M  V30 630 C 65.1743 1.57237 1.26011 0
M  V30 631 O 64.2303 1.48596 2.04146 0
M  V30 632 C 65.5433 2.87499 -0.881168 0
M  V30 633 C 67.0913 3.01119 -0.85417 0
M  V30 634 C 67.5663 4.33524 -1.4772 0
M  V30 635 N 69.0573 4.40207 -1.44125 0
M  V30 636 C 69.7923 5.4126 -1.89276 0
M  V30 637 N 69.2883 6.49021 -2.42371 0
M  V30 638 N 71.0813 5.32422 -1.80231 0
M  V30 639 H 63.2323 1.45306 -1.54919 0
M  V30 640 H 65.4953 0.692733 -0.647167 0
M  V30 641 H 65.2013 2.9372 -1.93447 0
M  V30 642 H 65.0753 3.75224 -0.385592 0
M  V30 643 H 67.4623 2.94485 0.190491 0
M  V30 644 H 67.5433 2.14887 -1.3877 0
M  V30 645 H 67.1873 4.40916 -2.52103 0
M  V30 646 H 67.1173 5.1852 -0.918947 0
M  V30 647 H 69.6083 3.62931 -1.05307 0
M  V30 648 H 69.9213 7.2233 -2.74698 0
M  V30 649 H 68.2663 6.49858 -2.46393 0
M  V30 650 H 71.4573 4.47137 -1.38514 0
M  V30 651 H 71.6303 6.11034 -2.15735 0
M  V30 652 N 65.0364 0.313813 1.54444 0
M  V30 653 C 66.4524 -0.0391619 1.59552 0
M  V30 654 C 66.6524 -1.51322 1.33056 0
M  V30 655 O 65.7084 -2.26782 1.11022 0
M  V30 656 C 67.0214 0.370302 2.98411 0
M  V30 657 C 68.5694 0.320139 3.11358 0
M  V30 658 C 69.0444 0.704617 4.52547 0
M  V30 659 N 70.5354 0.657645 4.58508 0
M  V30 660 C 71.2704 0.927453 5.6585 0
M  V30 661 N 70.7664 1.26389 6.81174 0
M  V30 662 N 72.5594 0.853662 5.5558 0
M  V30 663 H 64.7104 1.27433 1.69925 0
M  V30 664 H 66.9734 0.517511 0.794284 0
M  V30 665 H 66.6794 1.39694 3.22767 0
M  V30 666 H 66.5534 -0.269619 3.76235 0
M  V30 667 H 68.9404 -0.697275 2.86744 0
M  V30 668 H 69.0214 0.99486 2.35661 0
M  V30 669 H 68.6654 1.7199 4.77893 0
M  V30 670 H 68.5954 0.00768843 5.26599 0
M  V30 671 H 71.0864 0.409067 3.75679 0
M  V30 672 H 71.3994 1.4554 7.58972 0
M  V30 673 H 69.7444 1.30206 6.82694 0
M  V30 674 H 72.9354 0.590383 4.64362 0
M  V30 675 H 73.1084 1.0673 6.3915 0
M  V30 676 N 66.5145 -1.57545 0.0417849 0
M  V30 677 C 67.7625 -1.91937 -0.632829 0
M  V30 678 C 68.0835 -0.919978 -1.71934 0
M  V30 679 O 67.3535 0.0366064 -1.95866 0
M  V30 680 H 65.9335 -0.708493 -0.236742 0
M  V30 681 H 68.5955 -1.9468 0.0925745 0
M  V30 682 H 67.6915 -2.92912 -1.07746 0
M  V30 683 N 67.9926 0.231505 -1.5589 0
M  V30 684 C 69.2386 0.95877 -1.78705 0
M  V30 685 C 69.5716 1.8438 -0.609725 0
M  V30 686 O 68.8466 1.90521 0.391426 0
M  V30 687 C 69.1296 1.8062 -3.11526 0
M  V30 688 C 68.9826 0.948328 -4.39689 0
M  V30 689 C 70.3016 2.78585 -3.40703 0
M  V30 690 H 67.4206 0.347129 -0.650131 0
M  V30 691 H 70.0626 0.228259 -1.88624 0
M  V30 692 H 68.2126 2.42902 -3.03201 0
M  V30 693 H 69.8846 0.343016 -4.60023 0
M  V30 694 H 68.1276 0.253314 -4.3306 0
M  V30 695 H 68.7986 1.57543 -5.29041 0
M  V30 696 H 71.2746 2.26439 -3.49091 0
M  V30 697 H 70.1506 3.34988 -4.34826 0
M  V30 698 H 70.4116 3.55825 -2.62375 0
M  V30 699 N 69.4707 1.49531 0.497807 0
M  V30 700 C 70.7197 1.58426 1.24837 0
M  V30 701 C 71.0327 0.277643 1.93619 0
M  V30 702 O 72.2387 0.24517 2.70391 0
M  V30 703 C 70.6947 2.79538 2.26686 0
M  V30 704 C 70.3027 4.16971 1.63828 0
M  V30 705 C 72.0467 2.97764 3.0255 0
M  V30 706 C 69.9537 5.29301 2.63807 0
M  V30 707 H 68.8837 0.58989 0.469623 0
M  V30 708 H 71.5347 1.75923 0.521857 0
M  V30 709 H 69.9167 2.55542 3.02514 0
M  V30 710 H 71.0907 4.51116 0.939711 0
M  V30 711 H 69.4057 4.04129 1.00342 0
M  V30 712 H 72.0027 3.78856 3.77323 0
M  V30 713 H 72.3457 2.08448 3.60354 0
M  V30 714 H 72.8787 3.21815 2.33838 0
M  V30 715 H 69.6177 6.20687 2.10779 0
M  V30 716 H 69.1377 4.99606 3.31894 0
M  V30 717 H 70.8167 5.58768 3.2617 0
M  V30 718 N 70.9488 -0.749086 1.3866 0
M  V30 719 C 72.1768 -1.53834 1.38358 0
M  V30 720 C 72.5918 -1.88783 -0.0255219 0
M  V30 721 O 71.9488 -1.53101 -0.993292 0
M  V30 722 C 71.9998 -2.83468 2.2434 0
M  V30 723 O 71.7208 -2.50008 3.5976 0
M  V30 724 C 73.2218 -3.7758 2.32267 0
M  V30 725 H 70.4418 -0.47585 0.473083 0
M  V30 726 H 72.9858 -0.926726 1.82297 0
M  V30 727 H 71.1408 -3.40995 1.83851 0
M  V30 728 H 71.5548 -3.33182 4.05081 0
M  V30 729 H 73.0288 -4.65478 2.96706 0
M  V30 730 H 73.5058 -4.18334 1.33765 0
M  V30 731 H 74.1118 -3.25976 2.73166 0
M  V30 732 N 72.4269 -1.23603 -0.977757 0
M  V30 733 C 73.7039 -0.977897 -1.69401 0
M  V30 734 C 74.0839 0.502738 -2.05026 0
M  V30 735 O 73.4319 1.47459 -1.74551 0
M  V30 736 C 73.6419 -1.89077 -2.93345 0
M  V30 737 C 74.9899 -2.15579 -3.65802 0
M  V30 738 O 76.0139 -1.86648 -3.03383 0
M  V30 739 O 74.8729 -2.64658 -4.78141 0
M  V30 740 H 71.9669 -0.369025 -0.740101 0
M  V30 741 H 74.5129 -1.34657 -1.03274 0
M  V30 742 H 73.2849 -2.89158 -2.63634 0
M  V30 743 H 72.9079 -1.52463 -3.67207 0
M  V30 744 N 73.905 1.17692 -1.04816 0
M  V30 745 C 74.837 2.21103 -0.603822 0
M  V30 746 C 75.85 1.59411 0.33046 0
M  V30 747 O 77.039 1.7807 0.12379 0
M  V30 748 C 74.139 3.38623 0.136898 0
M  V30 749 C 73.312 4.29888 -0.807137 0
M  V30 750 C 72.371 5.26088 -0.10836 0
M  V30 751 O 71.397 5.64353 -0.741232 0
M  V30 752 N 72.599 5.68882 1.15558 0
M  V30 753 H 75.364 2.59848 -1.49329 0
M  V30 754 H 72.925 1.32553 -0.929587 0
M  V30 755 H 74.917 4.00009 0.614401 0
M  V30 756 H 73.487 2.98508 0.927993 0
M  V30 757 H 72.707 3.65993 -1.46434 0
M  V30 758 H 73.995 4.87759 -1.44807 0
M  V30 759 H 73.393 5.39861 1.69015 0
M  V30 760 H 71.95 6.32429 1.57722 0
M  V30 761 N 75.3831 0.828654 1.34056 0
M  V30 762 C 76.3311 0.242973 2.31327 0
M  V30 763 C 77.3251 -0.61944 1.57668 0
M  V30 764 O 78.5311 -0.51014 1.7262 0
M  V30 765 H 74.9061 0.059834 0.749616 0
M  V30 766 H 76.8771 1.07809 2.78244 0
M  V30 767 C 75.6261 -0.575733 3.429 0
M  V30 768 H 74.9491 0.0785582 3.99723 0
M  V30 769 H 76.3891 -0.951547 4.13185 0
M  V30 770 C 74.8481 -1.75044 2.87856 0
M  V30 771 O 75.3781 -2.84882 2.83205 0
M  V30 772 N 73.5841 -1.56903 2.44602 0
M  V30 773 H 73.1311 -0.675547 2.48584 0
M  V30 774 H 73.0891 -2.35652 2.08124 0
M  V30 775 N 76.8612 -1.46375 0.584142 0
M  V30 776 C 78.0862 -2.07268 0.0740405 0
M  V30 777 C 78.5112 -1.42979 -1.22223 0
M  V30 778 O 77.8692 -0.514092 -1.73859 0
M  V30 779 C 77.9172 -3.60518 -0.0767769 0
M  V30 780 O 77.0212 -3.96533 -1.13292 0
M  V30 781 H 76.3622 -0.660961 0.0634524 0
M  V30 782 H 78.8922 -1.87991 0.807492 0
M  V30 783 H 78.9022 -4.07021 -0.282489 0
M  V30 784 H 77.5772 -4.06702 0.86986 0
M  V30 785 H 76.1542 -3.61738 -0.905553 0
M  V30 786 N 78.3393 -0.321999 -1.54275 0
M  V30 787 C 79.6163 0.335232 -1.92706 0
M  V30 788 C 79.9963 1.70006 -1.25145 0
M  V30 789 O 79.3443 2.25067 -0.394596 0
M  V30 790 C 79.5543 0.429008 -3.46353 0
M  V30 791 C 80.9023 0.690029 -4.18956 0
M  V30 792 O 81.9263 0.511992 -3.52501 0
M  V30 793 O 80.7853 1.03338 -5.36641 0
M  V30 794 H 77.8793 0.191143 -0.804608 0
M  V30 795 H 80.4253 -0.3716 -1.65581 0
M  V30 796 H 79.1973 -0.529611 -3.87699 0
M  V30 797 H 78.8203 1.18348 -3.79578 0
M  V30 798 N 79.8174 1.5752 -0.0501392 0
M  V30 799 C 81.0654 1.9227 0.622642 0
M  V30 800 C 81.3864 0.929083 1.71444 0
M  V30 801 O 80.6564 -0.0262186 1.95882 0
M  V30 802 H 79.2364 0.709739 0.232981 0
M  V30 803 H 81.8984 1.94628 -0.102898 0
M  V30 804 H 80.9944 2.93479 1.06191 0
M  V30 805 N 81.2955 -0.223234 1.56011 0
M  V30 806 C 82.5255 -0.963413 1.82762 0
M  V30 807 C 82.9335 -1.78516 0.626804 0
M  V30 808 O 82.2765 -1.78974 -0.414014 0
M  V30 809 C 82.3385 -1.93126 3.0322 0
M  V30 810 C 82.0025 -1.2942 4.38291 0
M  V30 811 C 82.9995 -0.684916 5.15369 0
M  V30 812 C 80.6845 -1.30647 4.85012 0
M  V30 813 C 82.6785 -0.0963971 6.37327 0
M  V30 814 C 80.3655 -0.71411 6.06913 0
M  V30 815 C 81.3635 -0.110123 6.82911 0
M  V30 816 O 81.0515 0.47303 8.02507 0
M  V30 817 H 80.7835 -0.288011 0.611576 0
M  V30 818 H 83.3375 -0.244103 2.03944 0
M  V30 819 H 81.5675 -2.68952 2.77852 0
M  V30 820 H 83.2565 -2.53685 3.16857 0
M  V30 821 H 84.0225 -0.667774 4.80381 0
M  V30 822 H 79.9015 -1.76598 4.25833 0
M  V30 823 H 83.4455 0.375657 6.96588 0
M  V30 824 H 79.3425 -0.728659 6.41374 0
M  V30 825 H 80.1105 0.367186 8.17676 0
M  V30 826 N 82.7736 -1.49793 -0.48987 0
M  V30 827 C 84.0136 -1.61466 -1.25332 0
M  V30 828 C 84.3776 -0.299688 -1.89647 0
M  V30 829 O 85.5786 -0.291687 -2.67213 0
M  V30 830 C 83.8496 -2.74944 -2.28343 0
M  V30 831 S 85.4086 -3.06637 -3.13878 0
M  V30 832 H 82.2266 -0.569411 -0.425784 0
M  V30 833 H 84.8286 -1.875 -0.553541 0
M  V30 834 H 83.5326 -3.68994 -1.79643 0
M  V30 835 H 83.0636 -2.50938 -3.02975 0
M  V30 836 H 85.0786 -2.49015 -4.29192 0
M  V30 837 N 84.2517 0.741722 -1.39055 0
M  V30 838 C 85.1837 1.8657 -1.33133 0
M  V30 839 C 86.1967 1.61001 -0.241329 0
M  V30 840 O 87.3857 1.7136 -0.499784 0
M  V30 841 C 84.4857 3.22457 -1.04283 0
M  V30 842 C 83.6587 3.75435 -2.24427 0
M  V30 843 C 82.7177 4.89867 -1.92138 0
M  V30 844 O 81.7437 5.03879 -2.64754 0
M  V30 845 N 82.9457 5.73738 -0.88347 0
M  V30 846 H 85.7107 1.92156 -2.29991 0
M  V30 847 H 83.2717 0.922172 -1.3307 0
M  V30 848 H 85.2637 3.9657 -0.807128 0
M  V30 849 H 83.8337 3.12181 -0.161807 0
M  V30 850 H 83.0537 2.92751 -2.6399 0
M  V30 851 H 84.3417 4.07563 -3.04581 0
M  V30 852 H 83.7397 5.64999 -0.281517 0
M  V30 853 H 82.2967 6.47947 -0.707662 0
M  V30 854 N 85.7298 1.2412 0.971189 0
M  V30 855 C 86.9578 1.10575 1.74874 0
M  V30 856 C 87.3728 -0.342017 1.85676 0
M  V30 857 O 86.7298 -1.23617 1.34258 0
M  V30 858 C 86.7808 1.73579 3.171 0
M  V30 859 O 86.5018 3.12695 3.06844 0
M  V30 860 C 88.0028 1.65598 4.11208 0
M  V30 861 H 85.2228 0.386504 0.548503 0
M  V30 862 H 87.7668 1.64156 1.21955 0
M  V30 863 H 85.9218 1.24009 3.67016 0
M  V30 864 H 86.3358 3.43412 3.96445 0
M  V30 865 H 87.8098 2.1437 5.08674 0
M  V30 866 H 88.2868 0.616532 4.34851 0
M  V30 867 H 88.8928 2.14578 3.67201 0
M  V30 868 N 87.2079 -1.17134 1.05439 0
M  V30 869 C 88.4559 -1.87085 0.764429 0
M  V30 870 C 88.7769 -1.81584 -0.710787 0
M  V30 871 O 88.0469 -1.24349 -1.51374 0
M  V30 872 H 86.6269 -0.692627 0.279779 0
M  V30 873 H 89.2889 -1.42087 1.33406 0
M  V30 874 H 88.3849 -2.92759 1.0816 0
M  V30 875 N 88.686 -0.835752 -1.33615 0
M  V30 876 C 89.914 -0.443344 -2.02094 0
M  V30 877 C 90.329 0.954522 -1.62894 0
M  V30 878 O 89.686 1.61982 -0.840723 0
M  V30 879 C 89.737 -0.550775 -3.5728 0
M  V30 880 O 89.458 -1.89356 -3.95065 0
M  V30 881 C 90.959 -0.154919 -4.43029 0
M  V30 882 H 88.179 -0.176359 -0.647409 0
M  V30 883 H 90.723 -1.12746 -1.70612 0
M  V30 884 H 88.878 0.0853997 -3.87306 0
M  V30 885 H 89.292 -1.87687 -4.89769 0
M  V30 886 H 90.766 -0.281144 -5.51284 0
M  V30 887 H 91.243 0.902863 -4.2982 0
M  V30 888 H 91.849 -0.765404 -4.18356 0
M  V30 889 N 90.1641 1.46063 -0.591896 0
M  V30 890 C 91.0971 2.27452 0.184617 0
M  V30 891 C 92.0751 1.36188 0.888351 0
M  V30 892 O 93.2591 1.65606 0.90039 0
M  V30 893 C 90.3861 3.14162 1.26571 0
M  V30 894 C 89.4321 4.21255 0.666814 0
M  V30 895 S 90.2651 5.33034 -0.513345 0
M  V30 896 C 91.4211 6.23311 0.56872 0
M  V30 897 H 91.6541 2.92963 -0.505939 0
M  V30 898 H 89.1871 1.49676 -0.379014 0
M  V30 899 H 91.1451 3.6468 1.88463 0
M  V30 900 H 89.8061 2.47946 1.92826 0
M  V30 901 H 88.9991 4.81788 1.47974 0
M  V30 902 H 88.6011 3.73797 0.123359 0
M  V30 903 H 90.8931 6.61758 1.45198 0
M  V30 904 H 91.8361 7.081 -7.23824e-05 0
M  V30 905 H 92.2441 5.57646 0.876996 0
M  V30 906 N 91.6422 0.330177 1.54103 0
M  V30 907 C 92.8672 -0.274893 2.0557 0
M  V30 908 C 93.2922 -1.44487 1.20437 0
M  V30 909 O 92.6502 -1.80021 0.214991 0
M  V30 910 C 92.6982 -0.68079 3.54115 0
M  V30 911 O 91.8022 -1.7824 3.71893 0
M  V30 912 H 91.1432 -0.0483849 0.662235 0
M  V30 913 H 93.6732 0.480508 1.98878 0
M  V30 914 H 93.6832 -0.961635 3.96505 0
M  V30 915 H 92.3582 0.174903 4.15532 0
M  V30 916 H 90.9352 -1.49985 3.41407 0
M  V30 917 N 93.1203 -1.57491 0.0584922 0
M  V30 918 C 94.5363 -1.56792 -0.298091 0
M  V30 919 C 94.7363 -1.06679 -1.70944 0
M  V30 920 O 93.7923 -0.726672 -2.41818 0
M  V30 921 C 95.1053 -3.00461 -0.119879 0
M  V30 922 C 96.6533 -3.1242 -0.190428 0
M  V30 923 C 97.1283 -4.57982 -0.0406567 0
M  V30 924 N 98.6193 -4.63099 -0.0966958 0
M  V30 925 C 99.3543 -5.734 -0.00502943 0
M  V30 926 N 98.8503 -6.9266 0.139402 0
M  V30 927 N 100.643 -5.62067 -0.0611391 0
M  V30 928 H 92.7943 -1.88386 0.98105 0
M  V30 929 H 95.0573 -0.867865 0.381463 0
M  V30 930 H 94.7633 -3.41187 0.85349 0
M  V30 931 H 94.6373 -3.66843 -0.877833 0
M  V30 932 H 97.0243 -2.71589 -1.15427 0
M  V30 933 H 97.1053 -2.48702 0.598405 0
M  V30 934 H 96.7493 -4.995 0.919897 0
M  V30 935 H 96.6793 -5.19715 -0.848727 0
M  V30 936 H 99.1703 -3.77331 -0.207277 0
M  V30 937 H 99.4833 -7.72536 0.201855 0
M  V30 938 H 97.8283 -6.94781 0.174586 0
M  V30 939 H 101.019 -4.67782 -0.172583 0
M  V30 940 H 101.192 -6.47999 0.0137562 0
M  V30 941 N 94.5984 0.214957 -1.56127 0
M  V30 942 C 95.5484 1.27006 -1.8935 0
M  V30 943 C 96.5324 1.41969 -0.757202 0
M  V30 944 O 97.7244 1.44673 -1.01973 0
M  V30 945 C 94.8534 2.61911 -2.2194 0
M  V30 946 C 93.9394 2.50822 -3.41978 0
M  V30 947 N 94.3304 2.09391 -4.60423 0
M  V30 948 C 92.6284 2.81765 -3.45723 0
M  V30 949 C 93.3294 2.09712 -5.42582 0
M  V30 950 N 92.3054 2.50454 -4.82466 0
M  V30 951 H 96.1074 0.940734 -2.78437 0
M  V30 952 H 93.6214 0.423492 -1.56781 0
M  V30 953 H 95.6184 3.38096 -2.43919 0
M  V30 954 H 94.2784 2.95684 -1.34169 0
M  V30 955 H 95.2894 1.80416 -4.85459 0
M  V30 956 H 91.9664 3.19865 -2.68314 0
M  V30 957 H 93.3564 1.79748 -6.4741 0
M  V30 958 N 96.0765 1.50051 0.48192 0
M  V30 959 C 97.0085 1.64263 1.59844 0
M  V30 960 C 98.0215 0.52451 1.54119 0
M  V30 961 O 99.2105 0.797293 1.59704 0
M  V30 962 C 96.3105 1.60102 2.98698 0
M  V30 963 C 95.4835 2.87767 3.29407 0
M  V30 964 C 94.5425 2.76397 4.47762 0
M  V30 965 O 93.5685 3.50348 4.48603 0
M  V30 966 N 94.7705 1.89222 5.48794 0
M  V30 967 H 97.5355 2.60566 1.48073 0
M  V30 968 H 95.0965 1.47379 0.670149 0
M  V30 969 H 97.0885 1.50123 3.75826 0
M  V30 970 H 95.6585 0.715798 3.04294 0
M  V30 971 H 94.8785 3.11954 2.40994 0
M  V30 972 H 96.1665 3.72365 3.4673 0
M  V30 973 H 95.5645 1.28434 5.50928 0
M  V30 974 H 94.1215 1.85154 6.24949 0
M  V30 975 N 97.5546 -0.734337 1.39446 0
M  V30 976 C 98.5026 -1.86971 1.38364 0
M  V30 977 C 99.4966 -1.67288 0.266687 0
M  V30 978 O 100.703 -1.74621 0.436755 0
M  V30 979 H 97.0776 -0.615474 0.432082 0
M  V30 980 H 99.0486 -1.85 2.34132 0
M  V30 981 C 97.7976 -3.2466 1.24465 0
M  V30 982 H 97.1206 -3.40402 2.09682 0
M  V30 983 H 98.5606 -4.04292 1.27764 0
M  V30 984 C 97.0196 -3.36867 -0.0468674 0
M  V30 985 O 97.5496 -3.88618 -1.01681 0
M  V30 986 N 95.7556 -2.90391 -0.110145 0
M  V30 987 H 95.3026 -2.48466 0.679868 0
M  V30 988 H 95.2606 -2.98939 -0.973799 0
M  V30 989 N 99.0327 -1.24633 -0.964593 0
M  V30 990 C 99.9647 -0.999302 -2.06268 0
M  V30 991 C 100.978 0.0323226 -1.62768 0
M  V30 992 O 102.167 -0.205079 -1.77318 0
M  V30 993 C 99.2667 -0.486816 -3.35385 0
M  V30 994 C 98.4397 -1.5823 -4.07777 0
M  V30 995 C 97.4987 -1.07191 -5.15166 0
M  V30 996 O 96.5247 -1.76426 -5.41168 0
M  V30 997 N 97.7267 0.0920373 -5.80427 0
M  V30 998 H 100.492 -1.94477 -2.28033 0
M  V30 999 H 98.0527 -1.15704 -1.13244 0
M  V30 1000 H 100.045 -0.130066 -4.04491 0
M  V30 1001 H 98.6147 0.364459 -3.10468 0
M  V30 1002 H 97.8347 -2.11109 -3.32906 0
M  V30 1003 H 99.1227 -2.31854 -4.52903 0
M  V30 1004 H 98.5207 0.670784 -5.61709 0
M  V30 1005 H 97.0777 0.389905 -6.50633 0
M  V30 1006 N 100.511 1.16574 -1.06058 0
M  V30 1007 C 101.459 2.22941 -0.663343 0
M  V30 1008 C 102.453 1.66358 0.319593 0
M  V30 1009 O 103.659 1.7905 0.184713 0
M  V30 1010 H 100.034 0.725907 -0.196376 0
M  V30 1011 H 102.005 2.53736 -1.57037 0
M  V30 1012 C 100.754 3.47642 -0.0632808 0
M  V30 1013 H 100.077 3.91493 -0.810733 0
M  V30 1014 H 101.517 4.2363 0.177177 0
M  V30 1015 C 99.9758 3.1509 1.19248 0
M  V30 1016 O 100.506 3.30673 2.28075 0
M  V30 1017 N 98.7118 2.6924 1.09353 0
M  V30 1018 H 98.2588 2.5676 0.207912 0
M  V30 1019 H 98.2168 2.47833 1.93458 0
M  V30 1020 N 101.989 0.842826 1.3317 0
M  V30 1021 C 103.217 0.454055 2.01856 0
M  V30 1022 C 103.632 -0.94587 1.63397 0
M  V30 1023 O 102.989 -1.61534 0.849302 0
M  V30 1024 C 103.04 0.569715 3.56982 0
M  V30 1025 O 102.761 1.91448 3.94055 0
M  V30 1026 C 104.262 0.178412 4.42941 0
M  V30 1027 H 101.482 0.17979 0.646465 0
M  V30 1028 H 104.026 1.1365 1.70012 0
M  V30 1029 H 102.181 -0.0648587 3.87346 0
M  V30 1030 H 102.595 1.90282 4.88767 0
M  V30 1031 H 104.069 0.310376 5.51127 0
M  V30 1032 H 104.546 -0.880056 4.30293 0
M  V30 1033 H 105.152 0.787579 4.17944 0
M  V30 1034 N 103.467 -1.45747 0.599634 0
M  V30 1035 C 104.716 -2.01502 0.0893511 0
M  V30 1036 C 105.029 -1.4748 -1.28488 0
M  V30 1037 O 106.235 -1.95161 -1.88745 0
M  V30 1038 C 104.691 -3.59735 0.109082 0
M  V30 1039 C 104.299 -4.22754 1.48267 0
M  V30 1040 C 106.043 -4.23085 -0.346374 0
M  V30 1041 C 103.95 -5.73115 1.45921 0
M  V30 1042 H 102.88 -0.753417 0.0296347 0
M  V30 1043 H 105.531 -1.67303 0.753788 0
M  V30 1044 H 103.913 -3.91087 -0.621854 0
M  V30 1045 H 105.087 -4.02987 2.23468 0
M  V30 1046 H 103.402 -3.71567 1.87955 0
M  V30 1047 H 105.999 -5.33327 -0.38298 0
M  V30 1048 H 106.342 -3.93201 -1.36743 0
M  V30 1049 H 106.875 -3.9642 0.331038 0
M  V30 1050 H 103.614 -6.07685 2.45762 0
M  V30 1051 H 103.134 -5.95097 0.749665 0
M  V30 1052 H 104.813 -6.3616 1.17941 0
M  V30 1053 N 104.945 -0.338344 -1.53925 0
M  V30 1054 C 105.877 0.555117 -2.22376 0
M  V30 1055 C 106.89 1.06812 -1.22862 0
M  V30 1056 O 108.079 0.979163 -1.49247 0
M  V30 1057 C 105.179 1.77609 -2.88631 0
M  V30 1058 C 104.352 1.39927 -4.14414 0
M  V30 1059 C 103.411 2.47936 -4.64127 0
M  V30 1060 O 102.437 2.11461 -5.28463 0
M  V30 1061 N 103.639 3.79107 -4.39612 0
M  V30 1062 H 106.404 -0.0310778 -2.99684 0
M  V30 1063 H 103.965 -0.162226 -1.61085 0
M  V30 1064 H 105.957 2.49287 -3.18807 0
M  V30 1065 H 104.527 2.26978 -2.14941 0
M  V30 1066 H 103.747 0.513481 -3.90841 0
M  V30 1067 H 105.035 1.12341 -4.96243 0
M  V30 1068 H 104.433 4.11531 -3.88148 0
M  V30 1069 H 102.99 4.4697 -4.74406 0
M  V30 1070 N 106.423 1.57458 -0.0668435 0
M  V30 1071 C 107.333 2.15937 0.916975 0
M  V30 1072 C 108.349 1.12123 1.33058 0
M  V30 1073 O 109.525 1.44366 1.40429 0
M  V30 1074 C 106.59 2.70547 2.16807 0
M  V30 1075 C 105.651 3.89215 1.81135 0
M  V30 1076 C 104.884 4.41211 3.0028 0
M  V30 1077 O 105.107 3.92225 4.14144 0
M  V30 1078 O 104.041 5.32605 2.80384 0
M  V30 1079 H 107.867 3.00354 0.449561 0
M  V30 1080 H 105.452 1.48584 0.155949 0
M  V30 1081 H 107.334 3.0557 2.90181 0
M  V30 1082 H 106.009 1.89192 2.62656 0
M  V30 1083 H 104.916 3.59054 1.05028 0
M  V30 1084 H 106.249 4.71848 1.40073 0
M  V30 1085 N 107.901 -0.206675 1.56239 0
M  V30 1086 C 108.831 -1.25909 1.96645 0
M  V30 1087 C 109.812 -1.48097 0.836734 0
M  V30 1088 O 110.997 -1.6003 1.10019 0
M  V30 1089 C 108.127 -2.6058 2.29599 0
M  V30 1090 C 107.081 -2.53024 3.452 0
M  V30 1091 C 106.407 -3.91861 3.63798 0
M  V30 1092 C 107.707 -2.06524 4.79734 0
M  V30 1093 H 109.401 -0.923369 2.84806 0
M  V30 1094 H 106.947 -0.442735 1.37025 0
M  V30 1095 H 108.9 -3.34375 2.56459 0
M  V30 1096 H 107.624 -2.95869 1.38307 0
M  V30 1097 H 106.283 -1.81684 3.18412 0
M  V30 1098 H 105.931 -4.24483 2.69857 0
M  V30 1099 H 105.631 -3.87683 4.4156 0
M  V30 1100 H 107.155 -4.67296 3.93022 0
M  V30 1101 H 108.569 -2.70072 5.05702 0
M  V30 1102 H 106.966 -2.13374 5.60885 0
M  V30 1103 H 108.036 -1.01802 4.74093 0
M  V30 1104 N 109.379 -1.50304 -0.473955 0
M  V30 1105 C 110.309 -1.71886 -1.58042 0
M  V30 1106 C 111.29 -0.567799 -1.60344 0
M  V30 1107 O 112.475 -0.806623 -1.76656 0
M  V30 1108 C 109.605 -1.81036 -2.96384 0
M  V30 1109 C 108.559 -2.962 -3.08949 0
M  V30 1110 C 107.885 -2.9049 -4.48909 0
M  V30 1111 C 109.185 -4.36752 -2.86434 0
M  V30 1112 H 110.879 -2.64527 -1.40234 0
M  V30 1113 H 108.425 -1.27295 -0.673201 0
M  V30 1114 H 110.378 -1.94719 -3.73714 0
M  V30 1115 H 109.102 -0.850147 -3.15341 0
M  V30 1116 H 107.761 -2.82164 -2.3405 0
M  V30 1117 H 107.409 -1.92321 -4.64781 0
M  V30 1118 H 107.109 -3.67802 -4.58253 0
M  V30 1119 H 108.633 -3.06218 -5.28264 0
M  V30 1120 H 110.047 -4.5133 -3.53517 0
M  V30 1121 H 108.444 -5.15493 -3.07225 0
M  V30 1122 H 109.514 -4.49321 -1.82316 0
M  V30 1123 N 110.857 0.726932 -1.39834 0
M  V30 1124 C 111.789 1.85147 -1.35104 0
M  V30 1125 C 112.802 1.60736 -0.258392 0
M  V30 1126 O 113.991 1.70821 -0.517931 0
M  V30 1127 C 111.091 3.21332 -1.07697 0
M  V30 1128 C 110.264 3.73033 -2.28396 0
M  V30 1129 C 109.323 4.87802 -1.97322 0
M  V30 1130 O 108.349 5.01043 -2.70083 0
M  V30 1131 N 109.551 5.72768 -0.944273 0
M  V30 1132 H 112.316 1.89706 -2.32017 0
M  V30 1133 H 109.877 0.908006 -1.3404 0
M  V30 1134 H 111.869 3.95691 -0.849144 0
M  V30 1135 H 110.439 3.11992 -0.194909 0
M  V30 1136 H 109.659 2.89934 -2.6708 0
M  V30 1137 H 110.947 4.0431 -3.08887 0
M  V30 1138 H 110.345 5.64669 -0.341427 0
M  V30 1139 H 108.902 6.4716 -0.776346 0
M  V30 1140 N 112.336 1.25143 0.95797 0
M  V30 1141 C 113.284 1.05019 2.07542 0
M  V30 1142 C 114.278 -0.0178751 1.69391 0
M  V30 1143 O 115.484 0.137472 1.79474 0
M  V30 1144 H 111.859 0.32265 0.679265 0
M  V30 1145 H 113.83 1.99759 2.21673 0
M  V30 1146 C 112.579 0.682074 3.40944 0
M  V30 1147 H 111.902 1.49573 3.70767 0
M  V30 1148 H 113.342 0.580945 4.20001 0
M  V30 1149 C 111.801 -0.611608 3.31302 0
M  V30 1150 O 112.331 -1.65465 3.66038 0
M  V30 1151 N 110.537 -0.595982 2.84423 0
M  V30 1152 H 110.084 0.253192 2.56353 0
M  V30 1153 H 110.042 -1.46173 2.78354 0
M  V30 1154 N 113.814 -1.1601 1.06675 0
M  V30 1155 C 115.054 -1.88304 0.795037 0
M  V30 1156 C 115.418 -1.80062 -0.666466 0
M  V30 1157 O 116.619 -2.47319 -1.05293 0
M  V30 1158 C 114.89 -3.33664 1.28076 0
M  V30 1159 S 116.449 -4.23768 1.13868 0
M  V30 1160 H 113.267 -0.649928 0.288296 0
M  V30 1161 H 115.869 -1.4001 1.36445 0
M  V30 1162 H 114.573 -3.37203 2.33927 0
M  V30 1163 H 114.104 -3.87009 0.706253 0
M  V30 1164 H 116.119 -4.96148 0.0719668 0
M  V30 1165 N 115.292 -0.849877 -1.32721 0
M  V30 1166 C 116.517 -0.463856 -2.02146 0
M  V30 1167 C 116.942 0.930449 -1.63476 0
M  V30 1168 O 116.3 1.61033 -0.832952 0
M  V30 1169 C 116.348 -0.604955 -3.55489 0
M  V30 1170 O 115.452 0.36425 -4.10788 0
M  V30 1171 H 114.793 -0.187046 -0.637111 0
M  V30 1172 H 117.323 -1.14775 -1.69375 0
M  V30 1173 H 117.333 -0.490696 -4.05038 0
M  V30 1174 H 116.008 -1.62174 -3.82978 0
M  V30 1175 H 114.585 0.206628 -3.72327 0
M  V30 1176 N 116.77 1.45427 -0.607355 0
M  V30 1177 C 118.047 1.9557 -0.0344566 0
M  V30 1178 C 118.427 1.54979 1.43334 0
M  V30 1179 O 117.775 0.812241 2.13576 0
M  V30 1180 C 117.985 3.48226 -0.232321 0
M  V30 1181 C 119.333 4.2445 -0.113001 0
M  V30 1182 O 120.357 3.55829 -0.162431 0
M  V30 1183 O 119.216 5.465 0.00209442 0
M  V30 1184 H 116.31 0.826222 0.0358667 0
M  V30 1185 H 118.856 1.55594 -0.6774 0
M  V30 1186 H 117.628 3.70739 -1.25174 0
M  V30 1187 H 117.251 3.95092 0.445896 0
M  V30 1188 N 118.248 0.346503 1.53744 0
M  V30 1189 C 119.488 -0.249413 2.02873 0
M  V30 1190 C 119.852 -1.47532 1.22876 0
M  V30 1191 O 121.053 -2.1456 1.61918 0
M  V30 1192 C 119.324 -0.552909 3.53097 0
M  V30 1193 S 120.883 -1.12521 4.24128 0
M  V30 1194 H 117.701 -0.074042 0.707134 0
M  V30 1195 H 120.303 0.48495 1.8939 0
M  V30 1196 H 119.007 0.347083 4.0893 0
M  V30 1197 H 118.538 -1.31686 3.70705 0
M  V30 1198 H 120.553 -2.41075 4.33702 0
M  V30 1199 N 119.726 -1.57421 0.075193 0
M  V30 1200 C 120.656 -2.15942 -0.888324 0
M  V30 1201 C 121.637 -1.08737 -1.30806 0
M  V30 1202 O 122.822 -1.36787 -1.37851 0
M  V30 1203 C 119.952 -2.72379 -2.1547 0
M  V30 1204 C 118.906 -3.8478 -1.87425 0
M  V30 1205 C 118.232 -4.27834 -3.20721 0
M  V30 1206 C 119.532 -5.08869 -1.17684 0
M  V30 1207 H 121.226 -2.96705 -0.400799 0
M  V30 1208 H 118.772 -1.42723 -0.191342 0
M  V30 1209 H 120.725 -3.11965 -2.83295 0
M  V30 1210 H 119.449 -1.88841 -2.6647 0
M  V30 1211 H 118.108 -3.45703 -1.22004 0
M  V30 1212 H 117.756 -3.41214 -3.6957 0
M  V30 1213 H 117.456 -5.03605 -3.02746 0
M  V30 1214 H 118.98 -4.70039 -3.89738 0
M  V30 1215 H 120.394 -5.4575 -1.75584 0
M  V30 1216 H 118.791 -5.8994 -1.09956 0
M  V30 1217 H 119.861 -4.84648 -0.156453 0
M  V30 1218 N 121.204 0.198386 -1.56346 0
M  V30 1219 C 122.137 1.27381 -1.89339 0
M  V30 1220 C 123.115 1.44106 -0.753134 0
M  V30 1221 O 124.299 1.59549 -1.00381 0
M  V30 1222 C 121.426 2.6409 -2.12071 0
M  V30 1223 C 120.472 2.64253 -3.34772 0
M  V30 1224 S 121.305 2.16013 -4.89999 0
M  V30 1225 C 122.461 3.54553 -5.15794 0
M  V30 1226 H 122.694 0.992058 -2.8026 0
M  V30 1227 H 120.227 0.401726 -1.49082 0
M  V30 1228 H 122.185 3.42786 -2.2585 0
M  V30 1229 H 120.846 2.89478 -1.21906 0
M  V30 1230 H 120.039 3.64768 -3.47794 0
M  V30 1231 H 119.641 1.93637 -3.1997 0
M  V30 1232 H 121.933 4.50396 -5.06112 0
M  V30 1233 H 122.876 3.46428 -6.1757 0
M  V30 1234 H 123.284 3.49313 -4.43442 0
M  V30 1235 N 122.682 1.50554 0.465978 0
M  V30 1236 C 124.098 1.38093 0.800154 0
M  V30 1237 C 124.298 0.440988 1.96615 0
M  V30 1238 O 123.354 -0.114499 2.5224 0
M  V30 1239 C 124.667 2.79565 1.10742 0
M  V30 1240 C 126.215 2.88516 1.21357 0
M  V30 1241 C 126.69 4.30833 1.55393 0
M  V30 1242 N 128.181 4.33807 1.62375 0
M  V30 1243 C 128.916 5.40927 1.90225 0
M  V30 1244 N 128.412 6.58247 2.16062 0
M  V30 1245 N 130.205 5.28376 1.9177 0
M  V30 1246 H 122.356 2.10237 -0.302366 0
M  V30 1247 H 124.619 0.945203 -0.0727746 0
M  V30 1248 H 124.325 3.50208 0.323661 0
M  V30 1249 H 124.199 3.17125 2.04234 0
M  V30 1250 H 126.586 2.1809 1.98799 0
M  V30 1251 H 126.667 2.54492 0.258321 0
M  V30 1252 H 126.311 5.01799 0.784889 0
M  V30 1253 H 126.241 4.62347 2.52076 0
M  V30 1254 H 128.732 3.49212 1.44427 0
M  V30 1255 H 129.045 7.3569 2.36601 0
M  V30 1256 H 127.39 6.61413 2.13444 0
M  V30 1257 H 130.581 4.35715 1.71085 0
M  V30 1258 H 130.754 6.11944 2.13139 0
M  V30 1259 N 124.16 -0.719506 1.40217 0
M  V30 1260 C 125.123 -1.8153 1.39927 0
M  V30 1261 C 126.123 -1.58095 0.293723 0
M  V30 1262 O 127.313 -1.65209 0.552429 0
M  V30 1263 C 124.445 -3.19561 1.18716 0
M  V30 1264 H 125.638 -1.83186 2.37451 0
M  V30 1265 H 123.191 -0.924746 1.26008 0
M  V30 1266 H 123.926 -3.23557 0.219366 0
M  V30 1267 H 123.711 -3.3797 1.98793 0
M  V30 1268 H 125.201 -3.99598 1.21291 0
M  V30 1269 N 125.638 -1.25649 -0.95132 0
M  V30 1270 C 126.548 -1.08073 -2.08224 0
M  V30 1271 C 127.564 -0.0169666 -1.73992 0
M  V30 1272 O 128.74 -0.218593 -2.0021 0
M  V30 1273 C 125.805 -0.704922 -3.39458 0
M  V30 1274 C 124.866 -1.84699 -3.87537 0
M  V30 1275 C 124.099 -1.48902 -5.12508 0
M  V30 1276 O 124.322 -0.386156 -5.69091 0
M  V30 1277 O 123.256 -2.32033 -5.55378 0
M  V30 1278 H 127.082 -2.02924 -2.25954 0
M  V30 1279 H 124.667 -1.04618 -1.06656 0
M  V30 1280 H 126.549 -0.507609 -4.18332 0
M  V30 1281 H 125.224 0.214291 -3.2299 0
M  V30 1282 H 124.131 -2.09919 -3.09653 0
M  V30 1283 H 125.464 -2.74557 -4.08509 0
M  V30 1284 N 127.117 1.15442 -1.07289 0
M  V30 1285 C 128.047 2.22312 -0.714107 0
M  V30 1286 C 129.028 1.67467 0.298155 0
M  V30 1287 O 130.213 1.93445 0.171048 0
M  V30 1288 C 127.343 3.47124 -0.110448 0
M  V30 1289 C 126.297 4.14926 -1.04979 0
M  V30 1290 C 125.623 5.33807 -0.308924 0
M  V30 1291 C 126.923 4.64762 -2.38314 0
M  V30 1292 H 128.617 2.5258 -1.6076 0
M  V30 1293 H 126.163 1.21404 -0.77441 0
M  V30 1294 H 128.116 4.21124 0.152482 0
M  V30 1295 H 126.84 3.16187 0.81812 0
M  V30 1296 H 125.499 3.42866 -1.29764 0
M  V30 1297 H 125.147 4.99126 0.623084 0
M  V30 1298 H 124.847 5.80113 -0.935036 0
M  V30 1299 H 126.371 6.10576 -0.0537771 0
M  V30 1300 H 127.785 5.30292 -2.1786 0
M  V30 1301 H 126.182 5.21728 -2.96514 0
M  V30 1302 H 127.252 3.80434 -3.00663 0
M  V30 1303 N 128.595 0.856903 1.32268 0
M  V30 1304 C 129.844 0.457599 1.96441 0
M  V30 1305 C 130.157 -0.992426 1.68553 0
M  V30 1306 O 131.363 -1.49727 2.26482 0
M  V30 1307 C 129.819 0.767358 3.51624 0
M  V30 1308 C 129.427 2.23326 3.88367 0
M  V30 1309 C 131.171 0.435887 4.22256 0
M  V30 1310 C 129.078 2.48613 5.36606 0
M  V30 1311 H 128.008 0.167387 0.735185 0
M  V30 1312 H 130.659 1.048 1.5063 0
M  V30 1313 H 129.041 0.106367 3.95857 0
M  V30 1314 H 130.215 2.93623 3.55137 0
M  V30 1315 H 128.53 2.52948 3.30766 0
M  V30 1316 H 131.127 0.602202 5.31298 0
M  V30 1317 H 131.47 -0.622672 4.11617 0
M  V30 1318 H 132.003 1.05286 3.83614 0
M  V30 1319 H 128.742 3.53101 5.52268 0
M  V30 1320 H 128.262 1.82896 5.71235 0
M  V30 1321 H 129.941 2.32676 6.03714 0
M  V30 1322 N 130.073 -1.45103 0.615059 0
M  V30 1323 C 131.319 -2.02483 0.113347 0
M  V30 1324 C 131.652 -1.48146 -1.25564 0
M  V30 1325 O 130.927 -0.659104 -1.82992 0
M  V30 1326 C 131.21 -3.60005 0.0825278 0
M  V30 1327 C 131.063 -4.2466 1.48271 0
M  V30 1328 C 132.382 -4.35972 -0.601401 0
M  V30 1329 H 129.501 -0.735764 0.0426632 0
M  V30 1330 H 132.143 -1.72868 0.788461 0
M  V30 1331 H 130.293 -3.85367 -0.492378 0
M  V30 1332 H 131.965 -4.10458 2.10527 0
M  V30 1333 H 130.208 -3.82772 2.04127 0
M  V30 1334 H 130.879 -5.336 1.41332 0
M  V30 1335 H 133.355 -4.15947 -0.112666 0
M  V30 1336 H 132.231 -5.45697 -0.592097 0
M  V30 1337 H 132.492 -4.09391 -1.66887 0
M  V30 1338 N 131.551 -0.354651 -1.53558 0
M  V30 1339 C 132.483 0.5315 -2.22952 0
M  V30 1340 C 133.496 1.05503 -1.23988 0
M  V30 1341 O 134.685 0.963279 -1.50277 0
M  V30 1342 C 131.785 1.74538 -2.90499 0
M  V30 1343 C 130.958 1.35524 -4.15875 0
M  V30 1344 C 130.017 2.42999 -4.66731 0
M  V30 1345 O 129.043 2.05844 -5.30676 0
M  V30 1346 N 130.245 3.74423 -4.43608 0
M  V30 1347 H 133.01 -0.0628615 -2.99634 0
M  V30 1348 H 130.571 -0.179302 -1.60904 0
M  V30 1349 H 132.563 2.45892 -3.21433 0
M  V30 1350 H 131.133 2.24686 -2.17336 0
M  V30 1351 H 130.353 0.471998 -3.91364 0
M  V30 1352 H 131.641 1.07071 -4.97406 0
M  V30 1353 H 131.039 4.07391 -3.92491 0
M  V30 1354 H 129.596 4.41913 -4.7912 0
M  V30 1355 N 133.029 1.57378 -0.0835403 0
M  V30 1356 C 134.44 1.81261 0.447358 0
M  V30 1357 C 134.791 0.998331 1.68902 0
M  V30 1358 O 133.916 0.224282 2.15235 0
M  V30 1359 C 134.511 3.28767 0.818386 0
M  V30 1360 C 133.07 3.53455 1.29409 0
M  V30 1361 C 132.217 2.75831 0.285024 0
M  V30 1362 H 135.168 1.5566 -0.309115 0
M  V30 1363 H 135.189 3.41459 1.67887 0
M  V30 1364 H 134.701 3.88006 -0.0855019 0
M  V30 1365 H 132.802 2.99534 2.21608 0
M  V30 1366 H 132.915 4.62128 1.2639 0
M  V30 1367 H 131.279 2.42947 0.764767 0
M  V30 1368 H 132.062 3.37813 -0.611341 0
M  V30 1369 N 134.507 -0.190092 1.56449 0
M  V30 1370 C 135.417 -1.25591 1.98152 0
M  V30 1371 C 136.433 -1.49519 0.889944 0
M  V30 1372 O 137.609 -1.62036 1.19609 0
M  V30 1373 C 134.674 -2.57916 2.3169 0
M  V30 1374 C 133.735 -2.42015 3.5458 0
M  V30 1375 C 132.968 -3.6803 3.8651 0
M  V30 1376 O 133.191 -4.72413 3.1966 0
M  V30 1377 O 132.125 -3.6326 4.79923 0
M  V30 1378 H 135.951 -0.931988 2.89046 0
M  V30 1379 H 133.536 -0.395488 1.4407 0
M  V30 1380 H 135.418 -3.36008 2.54316 0
M  V30 1381 H 134.093 -2.89925 1.43963 0
M  V30 1382 H 133 -1.62017 3.37196 0
M  V30 1383 H 134.333 -2.14937 4.4279 0
M  V30 1384 N 135.985 -1.50799 -0.457987 0
M  V30 1385 C 136.915 -1.73553 -1.5621 0
M  V30 1386 C 137.896 -0.584774 -1.59732 0
M  V30 1387 O 139.081 -0.825314 -1.7579 0
M  V30 1388 C 136.211 -1.84169 -2.94447 0
M  V30 1389 C 135.165 -2.99461 -3.0579 0
M  V30 1390 C 134.491 -2.95235 -4.45803 0
M  V30 1391 C 135.791 -4.39766 -2.81786 0
M  V30 1392 H 137.485 -2.66 -1.37421 0
M  V30 1393 H 135.031 -1.28002 -0.659662 0
M  V30 1394 H 136.984 -1.98672 -3.71628 0
M  V30 1395 H 135.708 -0.883545 -3.14422 0
M  V30 1396 H 134.367 -2.8463 -2.31044 0
M  V30 1397 H 134.015 -1.97239 -4.62715 0
M  V30 1398 H 133.715 -3.72642 -4.54326 0
M  V30 1399 H 135.239 -3.11803 -5.24987 0
M  V30 1400 H 136.653 -4.55054 -3.4871 0
M  V30 1401 H 135.05 -5.18722 -3.0174 0
M  V30 1402 H 136.12 -4.51229 -1.7754 0
M  V30 1403 N 137.463 0.71206 -1.40597 0
M  V30 1404 C 138.41 1.82613 -1.41142 0
M  V30 1405 C 139.38 1.63925 -0.267903 0
M  V30 1406 O 140.565 1.85009 -0.466495 0
M  V30 1407 C 137.705 3.20354 -1.28324 0
M  V30 1408 C 136.818 3.50589 -2.52411 0
M  V30 1409 C 135.953 4.77855 -2.32009 0
M  V30 1410 C 134.992 5.01005 -3.51654 0
M  V30 1411 N 134.129 6.19487 -3.30425 0
M  V30 1412 H 138.969 1.81482 -2.36365 0
M  V30 1413 H 136.506 0.886475 -1.17388 0
M  V30 1414 H 138.464 3.99899 -1.18899 0
M  V30 1415 H 137.094 3.20705 -0.367189 0
M  V30 1416 H 136.146 2.65573 -2.72351 0
M  V30 1417 H 137.458 3.63604 -3.41458 0
M  V30 1418 H 136.612 5.65424 -2.19956 0
M  V30 1419 H 135.351 4.67056 -1.40392 0
M  V30 1420 H 134.356 4.1189 -3.64179 0
M  V30 1421 H 135.581 5.13674 -4.44202 0
M  V30 1422 H 133.527 6.09932 -2.41494 0
M  V30 1423 H 133.444 6.33194 -4.13039 0
M  V30 1424 H 134.712 7.09834 -3.22113 0
M  V30 1425 N 138.941 1.26152 0.944643 0
M  V30 1426 C 140.171 1.14094 1.72239 0
M  V30 1427 C 140.579 -0.306931 1.86694 0
M  V30 1428 O 139.922 -1.22222 1.3714 0
M  V30 1429 C 139.984 1.73316 3.14963 0
M  V30 1430 C 139.648 3.2239 3.23904 0
M  V30 1431 C 140.645 4.19252 3.07447 0
M  V30 1432 C 138.33 3.62788 3.47405 0
M  V30 1433 C 140.324 5.54491 3.14353 0
M  V30 1434 C 138.011 4.98162 3.53947 0
M  V30 1435 C 139.009 5.93823 3.37436 0
M  V30 1436 O 138.697 7.26732 3.43679 0
M  V30 1437 H 138.429 0.398292 0.546205 0
M  V30 1438 H 140.983 1.67201 1.19301 0
M  V30 1439 H 139.213 1.14667 3.69308 0
M  V30 1440 H 140.902 1.56214 3.74636 0
M  V30 1441 H 141.668 3.8938 2.8915 0
M  V30 1442 H 137.547 2.88816 3.59313 0
M  V30 1443 H 141.091 6.29137 3.01384 0
M  V30 1444 H 136.988 5.27695 3.71763 0
M  V30 1445 H 137.756 7.3496 3.60245 0
M  V30 1446 N 140.419 -1.14872 1.07899 0
M  V30 1447 C 141.667 -1.85422 0.803941 0
M  V30 1448 C 141.988 -1.83051 -0.67211 0
M  V30 1449 O 141.258 -1.27532 -1.48703 0
M  V30 1450 H 139.838 -0.686537 0.294408 0
M  V30 1451 H 142.5 -1.39226 1.3639 0
M  V30 1452 H 141.596 -2.90399 1.14346 0
M  V30 1453 N 141.898 -0.863906 -1.31812 0
M  V30 1454 C 143.175 -0.39275 -1.91616 0
M  V30 1455 C 143.555 1.12461 -1.7865 0
M  V30 1456 O 142.903 1.95045 -1.19037 0
M  V30 1457 C 143.113 -0.867385 -3.38049 0
M  V30 1458 C 144.461 -0.889966 -4.15168 0
M  V30 1459 O 145.485 -0.812635 -3.46806 0
M  V30 1460 O 144.344 -1.00079 -5.37258 0
M  V30 1461 H 141.438 -0.116358 -0.818773 0
M  V30 1462 H 143.984 -0.951418 -1.40521 0
M  V30 1463 H 142.756 -1.91081 -3.41473 0
M  V30 1464 H 142.379 -0.286687 -3.96565 0
M  V30 1465 N 143.376 1.44774 -0.622745 0
M  V30 1466 C 144.624 2.01721 -0.123655 0
M  V30 1467 C 144.945 1.49172 1.25589 0
M  V30 1468 O 144.215 0.691974 1.83272 0
M  V30 1469 H 142.795 0.745777 -0.0427225 0
M  V30 1470 H 145.457 1.77382 -0.807559 0
M  V30 1471 H 144.553 3.11984 -0.0849534 0
M  V30 1472 N 144.854 0.36279 1.53368 0
M  V30 1473 C 146.103 -0.22888 2.00397 0
M  V30 1474 C 146.416 -1.50096 1.25421 0
M  V30 1475 O 147.622 -2.17106 1.63025 0
M  V30 1476 C 146.078 -0.458417 3.56969 0
M  V30 1477 C 145.686 0.798877 4.4082 0
M  V30 1478 C 147.43 -1.00789 4.12361 0
M  V30 1479 C 145.337 0.539078 5.88938 0
M  V30 1480 H 144.267 -0.089305 0.748693 0
M  V30 1481 H 146.918 0.481099 1.77081 0
M  V30 1482 H 145.3 -1.22959 3.76427 0
M  V30 1483 H 146.474 1.57262 4.33134 0
M  V30 1484 H 144.789 1.27137 3.96516 0
M  V30 1485 H 147.386 -1.21754 5.20653 0
M  V30 1486 H 147.729 -1.9692 3.66781 0
M  V30 1487 H 148.262 -0.296961 3.9669 0
M  V30 1488 H 145.001 1.47064 6.3879 0
M  V30 1489 H 144.521 -0.196222 5.99479 0
M  V30 1490 H 146.2 0.163542 6.46793 0
M  V30 1491 N 146.332 -1.57332 0.0918853 0
M  V30 1492 C 147.264 -2.10869 -0.898168 0
M  V30 1493 C 148.277 -1.04521 -1.24817 0
M  V30 1494 O 149.466 -1.31977 -1.20184 0
M  V30 1495 C 146.566 -2.57083 -2.2082 0
M  V30 1496 C 145.739 -3.87229 -2.03402 0
M  V30 1497 C 144.798 -4.19324 -3.17889 0
M  V30 1498 O 143.824 -4.88598 -2.91994 0
M  V30 1499 N 145.026 -3.74471 -4.43567 0
M  V30 1500 H 147.791 -2.96439 -0.440943 0
M  V30 1501 H 145.352 -1.61631 -0.0933064 0
M  V30 1502 H 147.344 -2.75602 -2.96354 0
M  V30 1503 H 145.914 -1.76541 -2.57977 0
M  V30 1504 H 145.134 -3.7789 -1.12218 0
M  V30 1505 H 146.422 -4.72379 -1.89038 0
M  V30 1506 H 145.82 -3.18546 -4.67488 0
M  V30 1507 H 144.377 -3.98151 -5.16061 0
M  V30 1508 N 147.81 0.181792 -1.56548 0
M  V30 1509 C 148.74 1.22765 -1.98623 0
M  V30 1510 C 149.721 1.46747 -0.860189 0
M  V30 1511 O 150.906 1.58259 -1.12551 0
M  V30 1512 C 148.036 2.56894 -2.33715 0
M  V30 1513 C 146.99 2.475 -3.49182 0
M  V30 1514 C 146.316 3.86023 -3.69986 0
M  V30 1515 C 147.616 1.98866 -4.82959 0
M  V30 1516 H 149.31 0.877942 -2.86239 0
M  V30 1517 H 146.856 0.42088 -1.37712 0
M  V30 1518 H 148.809 3.30253 -2.61746 0
M  V30 1519 H 147.533 2.93632 -1.42997 0
M  V30 1520 H 146.192 1.76596 -3.21262 0
M  V30 1521 H 145.84 4.20136 -2.76576 0
M  V30 1522 H 145.54 3.80609 -4.47672 0
M  V30 1523 H 147.064 4.60984 -4.00407 0
M  V30 1524 H 148.478 2.61992 -5.09934 0
M  V30 1525 H 146.875 2.04424 -5.64208 0
M  V30 1526 H 147.945 0.942465 -4.75653 0
M  V30 1527 N 149.288 1.51039 0.449983 0
M  V30 1528 C 150.516 1.66869 1.2232 0
M  V30 1529 C 150.931 0.360727 1.85322 0
M  V30 1530 O 150.288 -0.659531 1.70166 0
M  V30 1531 C 150.339 2.77524 2.31652 0
M  V30 1532 O 150.06 4.03252 1.7123 0
M  V30 1533 C 151.561 3.04512 3.2216 0
M  V30 1534 H 148.781 0.560326 0.369155 0
M  V30 1535 H 151.325 1.97385 0.534719 0
M  V30 1536 H 149.48 2.49642 2.96239 0
M  V30 1537 H 149.894 4.64609 2.43389 0
M  V30 1538 H 151.368 3.85551 3.95038 0
M  V30 1539 H 151.845 2.16415 3.8218 0
M  V30 1540 H 152.451 3.34005 2.63288 0
M  V30 1541 N 150.766 -0.704594 1.40972 0
M  V30 1542 C 152.182 -1.01406 1.23244 0
M  V30 1543 C 152.382 -2.01169 0.115399 0
M  V30 1544 O 151.438 -2.47021 -0.523147 0
M  V30 1545 C 152.751 -1.54728 2.57836 0
M  V30 1546 C 154.299 -1.66658 2.64942 0
M  V30 1547 C 154.774 -2.23383 3.9983 0
M  V30 1548 N 156.265 -2.30756 4.01629 0
M  V30 1549 C 157 -2.75655 5.02794 0
M  V30 1550 N 156.496 -3.20225 6.14352 0
M  V30 1551 N 158.289 -2.75138 4.90159 0
M  V30 1552 H 150.44 -0.0435285 2.12355 0
M  V30 1553 H 152.703 -0.0818951 0.944456 0
M  V30 1554 H 152.409 -0.888832 3.40283 0
M  V30 1555 H 152.283 -2.53084 2.79693 0
M  V30 1556 H 154.67 -2.31617 1.8286 0
M  V30 1557 H 154.751 -0.668717 2.46904 0
M  V30 1558 H 154.395 -1.59043 4.82357 0
M  V30 1559 H 154.325 -3.23904 4.15203 0
M  V30 1560 H 156.816 -1.99291 3.21079 0
M  V30 1561 H 157.129 -3.53084 6.87424 0
M  V30 1562 H 155.474 -3.18156 6.17901 0
M  V30 1563 H 158.665 -2.39661 4.02095 0
M  V30 1564 H 158.838 -3.09812 5.6914 0
M  V30 1565 N 152.244 -1.26651 -0.937939 0
M  V30 1566 C 153.469 -1.15279 -1.72411 0
M  V30 1567 C 153.894 0.287866 -1.85884 0
M  V30 1568 O 153.252 1.20855 -1.35143 0
M  V30 1569 C 153.3 -1.83028 -3.10698 0
M  V30 1570 O 152.404 -1.12128 -3.96864 0
M  V30 1571 H 151.745 -0.401504 -0.528858 0
M  V30 1572 H 154.275 -1.67531 -1.1745 0
M  V30 1573 H 154.285 -1.89981 -3.6107 0
M  V30 1574 H 152.96 -2.87833 -3.00208 0
M  V30 1575 H 151.537 -1.13173 -3.55312 0
M  V30 1576 N 153.722 1.14298 -1.08507 0
M  V30 1577 C 155.138 1.37347 -0.812901 0
M  V30 1578 C 155.338 1.93052 0.577325 0
M  V30 1579 O 154.394 2.14389 1.33393 0
M  V30 1580 C 155.707 2.33359 -1.89642 0
M  V30 1581 C 157.255 2.46996 -1.92255 0
M  V30 1582 C 157.73 3.46309 -2.99724 0
M  V30 1583 N 159.221 3.53853 -2.98902 0
M  V30 1584 C 159.956 4.3055 -3.787 0
M  V30 1585 N 159.452 5.10482 -4.6838 0
M  V30 1586 N 161.245 4.25757 -3.66998 0
M  V30 1587 H 153.396 0.764867 -1.9815 0
M  V30 1588 H 155.659 0.398966 -0.859959 0
M  V30 1589 H 155.365 1.99565 -2.89597 0
M  V30 1590 H 155.239 3.33274 -1.76659 0
M  V30 1591 H 157.626 2.80081 -0.929445 0
M  V30 1592 H 157.707 1.47039 -2.09316 0
M  V30 1593 H 157.351 3.13957 -3.99241 0
M  V30 1594 H 157.281 4.46049 -2.79907 0
M  V30 1595 H 159.772 2.96812 -2.33904 0
M  V30 1596 H 160.085 5.66284 -5.25873 0
M  V30 1597 H 158.43 5.09747 -4.72422 0
M  V30 1598 H 161.621 3.62383 -2.96304 0
M  V30 1599 H 161.794 4.85279 -4.29427 0
M  V30 1600 N 155.201 0.870884 1.31352 0
M  V30 1601 C 156.111 0.330783 2.32256 0
M  V30 1602 C 157.127 -0.559767 1.6475 0
M  V30 1603 O 158.303 -0.456263 1.96164 0
M  V30 1604 C 155.368 -0.458137 3.4366 0
M  V30 1605 C 154.429 0.460482 4.26823 0
M  V30 1606 C 153.662 -0.290881 5.32907 0
M  V30 1607 O 153.885 -1.51885 5.49806 0
M  V30 1608 O 152.819 0.351732 6.00871 0
M  V30 1609 H 156.645 1.16718 2.80376 0
M  V30 1610 H 154.23 0.634285 1.35267 0
M  V30 1611 H 156.112 -0.905343 4.1156 0
M  V30 1612 H 154.787 -1.27106 2.97701 0
M  V30 1613 H 153.694 0.956207 3.61673 0
M  V30 1614 H 155.027 1.23903 4.7635 0
M  V30 1615 N 156.679 -1.44442 0.630414 0
M  V30 1616 C 157.609 -2.33418 -0.0618083 0
M  V30 1617 C 158.59 -1.48165 -0.835541 0
M  V30 1618 O 159.775 -1.76886 -0.801564 0
M  V30 1619 C 156.905 -3.31222 -1.04449 0
M  V30 1620 C 155.859 -4.26288 -0.382436 0
M  V30 1621 C 155.185 -5.13954 -1.47497 0
M  V30 1622 C 156.485 -5.1744 0.710865 0
M  V30 1623 H 158.179 -2.91548 0.681184 0
M  V30 1624 H 155.725 -1.40191 0.329026 0
M  V30 1625 H 157.678 -3.92351 -1.53748 0
M  V30 1626 H 156.402 -2.71299 -1.81836 0
M  V30 1627 H 155.061 -3.6649 0.0899054 0
M  V30 1628 H 154.709 -4.50385 -2.2397 0
M  V30 1629 H 154.409 -5.7837 -1.03737 0
M  V30 1630 H 155.933 -5.77955 -1.96979 0
M  V30 1631 H 157.347 -5.72509 0.300996 0
M  V30 1632 H 155.744 -5.90455 1.07156 0
M  V30 1633 H 156.814 -4.58496 1.57829 0
M  V30 1634 N 158.157 -0.370918 -1.53173 0
M  V30 1635 C 159.434 0.273754 -1.93675 0
M  V30 1636 C 159.814 1.65938 -1.3049 0
M  V30 1637 O 159.162 2.23698 -0.465999 0
M  V30 1638 C 159.372 0.318602 -3.47543 0
M  V30 1639 C 160.72 0.556392 -4.20939 0
M  V30 1640 O 161.744 0.399587 -3.53952 0
M  V30 1641 O 160.603 0.862133 -5.39657 0
M  V30 1642 H 157.697 0.165448 -0.810281 0
M  V30 1643 H 160.243 -0.42409 -1.64315 0
M  V30 1644 H 159.015 -0.652687 -3.85818 0
M  V30 1645 H 158.638 1.06212 -3.83151 0
M  V30 1646 N 159.635 1.57281 -0.100228 0
M  V30 1647 C 160.545 2.17833 0.870965 0
M  V30 1648 C 161.561 1.14921 1.30649 0
M  V30 1649 O 162.737 1.47313 1.37335 0
M  V30 1650 C 159.802 2.75085 2.1102 0
M  V30 1651 C 158.863 3.9297 1.72838 0
M  V30 1652 C 158.096 4.47482 2.90854 0
M  V30 1653 O 158.319 4.00922 4.05731 0
M  V30 1654 O 157.253 5.38433 2.69023 0
M  V30 1655 H 161.079 3.0124 0.38575 0
M  V30 1656 H 158.664 1.48881 0.124397 0
M  V30 1657 H 160.546 3.11656 2.83634 0
M  V30 1658 H 159.221 1.94721 2.58584 0
M  V30 1659 H 158.128 3.61201 0.973883 0
M  V30 1660 H 159.461 4.74713 1.30033 0
M  V30 1661 N 161.113 -0.173488 1.56642 0
M  V30 1662 C 162.353 -0.896984 1.83667 0
M  V30 1663 C 162.717 -1.79523 0.680842 0
M  V30 1664 O 163.918 -2.55616 0.831488 0
M  V30 1665 C 162.189 -1.67351 3.15798 0
M  V30 1666 S 163.748 -2.44607 3.64298 0
M  V30 1667 H 160.566 -0.300464 0.644393 0
M  V30 1668 H 163.168 -0.158775 1.94854 0
M  V30 1669 H 161.872 -1.00462 3.97914 0
M  V30 1670 H 161.403 -2.45313 3.07546 0
M  V30 1671 H 163.418 -3.69261 3.31452 0
M  V30 1672 N 162.591 -1.51276 -0.441967 0
M  V30 1673 C 163.838 -1.63715 -1.19179 0
M  V30 1674 C 164.166 -0.351175 -1.91303 0
M  V30 1675 O 163.421 0.664524 -1.84072 0
M  V30 1676 C 163.72 -2.78746 -2.23686 0
M  V30 1677 C 163.386 -4.18189 -1.68607 0
M  V30 1678 C 162.048 -4.56125 -1.53308 0
M  V30 1679 C 164.4 -5.05222 -1.28062 0
M  V30 1680 C 161.728 -5.78804 -0.959317 0
M  V30 1681 C 164.08 -6.28476 -0.721162 0
M  V30 1682 C 162.744 -6.65188 -0.55504 0
M  V30 1683 H 162.014 -0.599076 -0.436106 0
M  V30 1684 H 164.661 -1.85296 -0.48351 0
M  V30 1685 H 162.966 -2.51369 -3.00535 0
M  V30 1686 H 164.663 -2.8557 -2.81515 0
M  V30 1687 H 161.253 -3.88277 -1.8149 0
M  V30 1688 H 165.437 -4.76524 -1.38704 0
M  V30 1689 H 160.693 -6.05899 -0.81833 0
M  V30 1690 H 164.867 -6.95259 -0.398458 0
M  V30 1691 H 162.494 -7.60123 -0.108311 0
M  V30 1692 N 164.069 0.697108 -1.41344 0
M  V30 1693 C 165.032 1.79281 -1.42797 0
M  V30 1694 C 166.032 1.57607 -0.318837 0
M  V30 1695 O 167.222 1.64309 -0.578642 0
M  V30 1696 C 164.354 3.17632 -1.23785 0
M  V30 1697 H 165.547 1.79385 -2.40335 0
M  V30 1698 H 163.1 0.904582 -1.27464 0
M  V30 1699 H 163.835 3.23167 -0.270814 0
M  V30 1700 H 163.62 3.34765 -2.04144 0
M  V30 1701 H 165.11 3.97617 -1.27633 0
M  V30 1702 N 165.547 1.27147 0.931209 0
M  V30 1703 C 166.479 1.05364 2.03546 0
M  V30 1704 C 167.492 0.0108438 1.62796 0
M  V30 1705 O 168.681 0.25202 1.76712 0
M  V30 1706 C 165.781 0.575566 3.33977 0
M  V30 1707 C 164.954 1.68985 4.03439 0
M  V30 1708 C 164.013 1.20813 5.12143 0
M  V30 1709 O 163.039 1.90712 5.363 0
M  V30 1710 N 164.241 0.0618851 5.80467 0
M  V30 1711 H 167.006 2.00454 2.22796 0
M  V30 1712 H 164.567 1.18666 1.10136 0
M  V30 1713 H 166.559 0.237264 4.04004 0
M  V30 1714 H 165.129 -0.282016 3.11325 0
M  V30 1715 H 164.349 2.19861 3.27192 0
M  V30 1716 H 165.637 2.4378 4.46597 0
M  V30 1717 H 165.035 -0.521621 5.6329 0
M  V30 1718 H 163.592 -0.217264 6.51438 0
M  V30 1719 N 167.025 -1.13721 1.09112 0
M  V30 1720 C 167.988 -2.17222 0.731241 0
M  V30 1721 C 168.988 -1.59035 -0.237566 0
M  V30 1722 O 170.178 -1.74192 -0.0161704 0
M  V30 1723 C 167.31 -3.40804 0.0808443 0
M  V30 1724 H 168.503 -2.50573 1.64783 0
M  V30 1725 H 166.056 -1.28493 0.889897 0
M  V30 1726 H 166.791 -3.1304 -0.847127 0
M  V30 1727 H 166.576 -3.84306 0.777896 0
M  V30 1728 H 168.066 -4.1731 -0.155657 0
M  V30 1729 N 168.503 -0.877838 -1.30888 0
M  V30 1730 C 169.451 -0.328662 -2.30266 0
M  V30 1731 C 170.445 0.560496 -1.59859 0
M  V30 1732 O 171.651 0.445722 -1.74394 0
M  V30 1733 H 168.026 -0.0876142 -0.746879 0
M  V30 1734 H 169.997 -1.18061 -2.74051 0
M  V30 1735 C 168.746 0.448071 -3.44801 0
M  V30 1736 H 168.069 -0.226859 -3.99156 0
M  V30 1737 H 169.509 0.797541 -4.16432 0
M  V30 1738 C 167.968 1.64239 -2.94155 0
M  V30 1739 O 168.498 2.74175 -2.93583 0
M  V30 1740 N 166.704 1.47716 -2.50256 0
M  V30 1741 H 166.251 0.582821 -2.5092 0
M  V30 1742 H 166.209 2.27765 -2.16727 0
M  V30 1743 N 169.982 1.44106 -0.638065 0
M  V30 1744 C 171.259 1.95453 -0.0759321 0
M  V30 1745 C 171.639 1.57984 1.40015 0
M  V30 1746 O 170.987 0.857361 2.11806 0
M  V30 1747 C 171.197 3.47655 -0.306132 0
M  V30 1748 C 172.545 4.24114 -0.203008 0
M  V30 1749 O 173.569 3.55405 -0.237871 0
M  V30 1750 O 172.428 5.46381 -0.113827 0
M  V30 1751 H 169.522 0.826797 0.0183332 0
M  V30 1752 H 172.068 1.54122 -0.710251 0
M  V30 1753 H 170.84 3.68 -1.3301 0
M  V30 1754 H 170.463 3.95949 0.361991 0
M  V30 1755 N 171.46 0.379036 1.52974 0
M  V30 1756 C 172.392 -0.495963 2.2377 0
M  V30 1757 C 173.405 -1.03517 1.25651 0
M  V30 1758 O 174.594 -0.939249 1.51791 0
M  V30 1759 C 171.694 -1.69894 2.93239 0
M  V30 1760 C 170.867 -1.2889 4.17979 0
M  V30 1761 C 169.926 -2.35543 4.70538 0
M  V30 1762 O 168.952 -1.97375 5.33883 0
M  V30 1763 N 170.154 -3.67318 4.49508 0
M  V30 1764 H 172.919 0.110523 2.99496 0
M  V30 1765 H 170.48 0.204878 1.60598 0
M  V30 1766 H 172.472 -2.40747 3.25304 0
M  V30 1767 H 171.042 -2.212 2.20883 0
M  V30 1768 H 170.262 -0.409676 3.92065 0
M  V30 1769 H 171.55 -0.991443 4.99047 0
M  V30 1770 H 170.948 -4.01095 3.98923 0
M  V30 1771 H 169.505 -4.34235 4.8609 0
M  V30 1772 N 172.938 -1.57226 0.108567 0
M  V30 1773 C 173.871 -2.10447 -0.882464 0
M  V30 1774 C 174.849 -1.01829 -1.26766 0
M  V30 1775 O 176.033 -1.29415 -1.37054 0
M  V30 1776 C 173.16 -2.59258 -2.17952 0
M  V30 1777 C 172.206 -3.79662 -1.94318 0
M  V30 1778 S 173.039 -5.22586 -1.16892 0
M  V30 1779 C 174.195 -5.74758 -2.47799 0
M  V30 1780 H 174.428 -2.94178 -0.429745 0
M  V30 1781 H 171.961 -1.54043 -0.105 0
M  V30 1782 H 173.919 -2.88036 -2.92482 0
M  V30 1783 H 172.58 -1.75728 -2.60343 0
M  V30 1784 H 171.773 -4.11928 -2.90399 0
M  V30 1785 H 171.375 -3.51446 -1.27913 0
M  V30 1786 H 173.667 -5.83846 -3.43701 0
M  V30 1787 H 174.61 -6.73027 -2.20093 0
M  V30 1788 H 175.018 -5.02763 -2.56689 0
M  V30 1789 N 174.416 0.165178 -1.56732 0
M  V30 1790 C 175.326 1.22423 -2.00125 0
M  V30 1791 C 176.342 1.48084 -0.913619 0
M  V30 1792 O 177.518 1.60112 -1.22172 0
M  V30 1793 C 174.583 2.54197 -2.35764 0
M  V30 1794 C 173.644 2.36343 -3.58386 0
M  V30 1795 C 172.877 3.61834 -3.92316 0
M  V30 1796 O 173.1 4.67267 -3.27135 0
M  V30 1797 O 172.034 3.55579 -4.85641 0
M  V30 1798 H 175.86 0.885886 -2.90492 0
M  V30 1799 H 173.445 0.372518 -1.44681 0
M  V30 1800 H 175.327 3.3192 -2.59629 0
M  V30 1801 H 174.002 2.87598 -1.48557 0
M  V30 1802 H 172.909 1.56632 -3.39731 0
M  V30 1803 H 174.242 2.07865 -4.46154 0
M  V30 1804 N 175.894 1.51508 0.433938 0
M  V30 1805 C 177.143 1.63578 1.18005 0
M  V30 1806 C 177.456 0.359514 1.92268 0
M  V30 1807 O 178.662 0.359632 2.69108 0
M  V30 1808 C 177.118 2.88901 2.14626 0
M  V30 1809 C 176.726 4.23544 1.45995 0
M  V30 1810 C 178.47 3.10328 2.89649 0
M  V30 1811 C 176.377 5.40014 2.4112 0
M  V30 1812 H 175.307 0.609277 0.444182 0
M  V30 1813 H 177.958 1.77978 0.446773 0
M  V30 1814 H 176.34 2.68142 2.91403 0
M  V30 1815 H 177.514 4.54696 0.747532 0
M  V30 1816 H 175.829 4.08021 0.831115 0
M  V30 1817 H 178.426 3.94518 3.60915 0
M  V30 1818 H 178.769 2.23544 3.51189 0
M  V30 1819 H 179.302 3.31443 2.19978 0
M  V30 1820 H 176.041 6.29068 1.84264 0
M  V30 1821 H 175.561 5.13233 3.10406 0
M  V30 1822 H 177.24 5.72099 3.02177 0
M  V30 1823 N 177.372 -0.689602 1.41712 0
M  V30 1824 C 178.302 -1.81577 1.46806 0
M  V30 1825 C 179.283 -1.66945 0.326105 0
M  V30 1826 O 180.468 -1.86588 0.538377 0
M  V30 1827 C 177.598 -3.19762 1.35535 0
M  V30 1828 C 176.552 -3.49107 2.47605 0
M  V30 1829 C 175.878 -4.86711 2.21397 0
M  V30 1830 C 177.178 -3.47483 3.89939 0
M  V30 1831 H 178.872 -1.7757 2.41058 0
M  V30 1832 H 176.418 -0.852887 1.16025 0
M  V30 1833 H 178.371 -3.98263 1.3771 0
M  V30 1834 H 177.095 -3.24409 0.377708 0
M  V30 1835 H 175.754 -2.72959 2.44722 0
M  V30 1836 H 175.402 -4.8799 1.21961 0
M  V30 1837 H 175.102 -5.0731 2.96497 0
M  V30 1838 H 176.626 -5.67515 2.25297 0
M  V30 1839 H 178.04 -4.1598 3.94505 0
M  V30 1840 H 176.437 -3.79615 4.64771 0
M  V30 1841 H 177.507 -2.46341 4.17665 0
M  V30 1842 N 178.85 -1.27639 -0.924453 0
M  V30 1843 C 180.127 -1.04887 -1.651 0
M  V30 1844 C 180.507 0.415327 -2.06974 0
M  V30 1845 O 179.855 1.39923 -1.80648 0
M  V30 1846 C 180.065 -2.01348 -2.85061 0
M  V30 1847 C 181.413 -2.30899 -3.56329 0
M  V30 1848 O 182.437 -1.99348 -2.95193 0
M  V30 1849 O 181.296 -2.84699 -4.66485 0
M  V30 1850 H 178.39 -0.400083 -0.723784 0
M  V30 1851 H 180.936 -1.38916 -0.974703 0
M  V30 1852 H 179.708 -3.0008 -2.51133 0
M  V30 1853 H 179.331 -1.679 -3.6041 0
M  V30 1854 N 180.328 1.1314 -1.09713 0
M  V30 1855 C 181.553 1.88862 -0.857081 0
M  V30 1856 C 181.978 1.78729 0.586304 0
M  V30 1857 O 181.336 1.13692 1.41222 0
M  V30 1858 C 181.384 3.36325 -1.30069 0
M  V30 1859 O 180.488 4.09815 -0.461007 0
M  V30 1860 H 179.829 0.587108 -0.310162 0
M  V30 1861 H 182.359 1.43129 -1.46203 0
M  V30 1862 H 182.369 3.87157 -1.28738 0
M  V30 1863 H 181.044 3.43017 -2.35185 0
M  V30 1864 H 179.621 3.68986 -0.538888 0
M  V30 1865 N 181.806 0.884767 1.30421 0
M  V30 1866 C 182.736 0.367574 2.30589 0
M  V30 1867 C 183.717 -0.549464 1.60981 0
M  V30 1868 O 184.902 -0.46336 1.88591 0
M  V30 1869 C 182.032 -0.418944 3.44764 0
M  V30 1870 C 180.986 0.406316 4.26067 0
M  V30 1871 C 180.312 -0.506793 5.32293 0
M  V30 1872 C 181.612 1.64832 4.95608 0
M  V30 1873 H 183.306 1.20462 2.74097 0
M  V30 1874 H 180.852 0.580695 1.31772 0
M  V30 1875 H 182.805 -0.791395 4.13902 0
M  V30 1876 H 181.529 -1.28964 3.0006 0
M  V30 1877 H 180.188 0.760903 3.58617 0
M  V30 1878 H 179.836 -1.37519 4.83836 0
M  V30 1879 H 179.536 0.0415828 5.87585 0
M  V30 1880 H 181.06 -0.875764 6.04287 0
M  V30 1881 H 182.474 1.34646 5.57264 0
M  V30 1882 H 180.871 2.13688 5.60765 0
M  V30 1883 H 181.941 2.39284 4.21748 0
M  V30 1884 N 183.284 -1.43765 0.645699 0
M  V30 1885 C 184.533 -2.01116 0.153412 0
M  V30 1886 C 184.846 -1.51493 -1.23731 0
M  V30 1887 O 186.052 -2.01067 -1.8244 0
M  V30 1888 C 184.508 -3.59206 0.223473 0
M  V30 1889 C 184.116 -4.17823 1.61642 0
M  V30 1890 C 185.86 -4.23972 -0.211597 0
M  V30 1891 C 183.767 -5.68183 1.64081 0
M  V30 1892 H 182.697 -0.752093 0.0535891 0
M  V30 1893 H 185.348 -1.6482 0.806633 0
M  V30 1894 H 183.73 -3.92867 -0.497118 0
M  V30 1895 H 184.904 -3.95674 2.36176 0
M  V30 1896 H 183.219 -3.65399 1.99681 0
M  V30 1897 H 185.816 -5.34275 -0.213112 0
M  V30 1898 H 186.159 -3.97352 -1.24165 0
M  V30 1899 H 186.692 -3.95166 0.456988 0
M  V30 1900 H 183.431 -5.99559 2.64971 0
M  V30 1901 H 182.951 -5.9241 0.938611 0
M  V30 1902 H 184.63 -6.32085 1.3812 0
M  V30 1903 N 184.763 -0.387143 -1.52771 0
M  V30 1904 C 186.179 -0.037007 -1.59557 0
M  V30 1905 C 186.379 1.44801 -1.40124 0
M  V30 1906 O 185.435 2.21227 -1.21716 0
M  V30 1907 C 186.748 -0.512256 -2.96305 0
M  V30 1908 C 188.296 -0.468328 -3.09476 0
M  V30 1909 C 188.771 -0.919731 -4.4867 0
M  V30 1910 N 190.262 -0.875656 -4.54848 0
M  V30 1911 C 190.997 -1.19637 -5.6078 0
M  V30 1912 N 190.493 -1.58745 -6.74368 0
M  V30 1913 N 192.286 -1.11776 -5.50874 0
M  V30 1914 H 184.437 -1.35395 -1.63652 0
M  V30 1915 H 186.7 -0.554818 -0.768688 0
M  V30 1916 H 186.406 -1.54935 -3.15734 0
M  V30 1917 H 186.28 0.089805 -3.77093 0
M  V30 1918 H 188.667 0.559671 -2.89744 0
M  V30 1919 H 188.748 -1.10616 -2.30646 0
M  V30 1920 H 188.392 -1.94595 -4.69143 0
M  V30 1921 H 188.322 -0.258927 -5.25963 0
M  V30 1922 H 190.813 -0.587843 -3.733 0
M  V30 1923 H 191.126 -1.81586 -7.51163 0
M  V30 1924 H 189.471 -1.6263 -6.75705 0
M  V30 1925 H 192.662 -0.811264 -4.61016 0
M  V30 1926 H 192.835 -1.37103 -6.3333 0
M  V30 1927 N 186.241 1.57166 -0.116904 0
M  V30 1928 C 187.151 2.18745 0.847812 0
M  V30 1929 C 188.167 1.163 1.29423 0
M  V30 1930 O 189.343 1.48761 1.35765 0
M  V30 1931 C 186.408 2.77307 2.0809 0
M  V30 1932 C 185.469 3.94781 1.68661 0
M  V30 1933 C 184.702 4.50541 2.86091 0
M  V30 1934 O 184.925 4.05202 4.01456 0
M  V30 1935 O 183.859 5.41256 2.63298 0
M  V30 1936 H 187.685 3.01632 0.353778 0
M  V30 1937 H 185.27 1.49005 0.108599 0
M  V30 1938 H 187.152 3.14647 2.80313 0
M  V30 1939 H 185.827 1.97452 2.56504 0
M  V30 1940 H 184.734 3.62214 0.935518 0
M  V30 1941 H 186.067 4.76065 1.24991 0
M  V30 1942 N 187.719 -0.156864 1.56817 0
M  V30 1943 C 188.652 -1.22316 1.9265 0
M  V30 1944 C 189.63 -1.42059 0.791076 0
M  V30 1945 O 190.814 -1.56831 1.04576 0
M  V30 1946 C 187.941 -2.58375 2.18998 0
M  V30 1947 C 186.987 -2.55284 3.41661 0
M  V30 1948 S 187.82 -2.02946 4.95553 0
M  V30 1949 C 188.976 -3.40753 5.25013 0
M  V30 1950 H 189.209 -0.917403 2.82791 0
M  V30 1951 H 186.742 -0.362059 1.50095 0
M  V30 1952 H 188.7 -3.36677 2.34859 0
M  V30 1953 H 187.361 -2.86145 1.29538 0
M  V30 1954 H 186.554 -3.55418 3.57343 0
M  V30 1955 H 186.156 -1.85086 3.24991 0
M  V30 1956 H 188.448 -4.36819 5.17876 0
M  V30 1957 H 189.391 -3.29933 6.26538 0
M  V30 1958 H 189.799 -3.37433 4.52548 0
M  V30 1959 N 189.197 -1.51736 -0.425897 0
M  V30 1960 C 190.613 -1.40166 -0.76326 0
M  V30 1961 C 190.813 -0.492962 -1.95377 0
M  V30 1962 O 189.869 0.0475815 -2.52455 0
M  V30 1963 C 191.182 -2.82403 -1.03291 0
M  V30 1964 C 192.73 -2.91632 -1.13665 0
M  V30 1965 C 193.205 -4.34801 -1.43916 0
M  V30 1966 N 194.696 -4.3796 -1.50816 0
M  V30 1967 C 195.431 -5.4578 -1.75817 0
M  V30 1968 N 194.927 -6.63744 -1.98534 0
M  V30 1969 N 196.72 -5.33274 -1.77694 0
M  V30 1970 H 188.871 -2.09361 0.358 0
M  V30 1971 H 191.134 -0.942941 0.0978094 0
M  V30 1972 H 190.84 -3.50943 -0.230696 0
M  V30 1973 H 190.714 -3.22428 -1.95754 0
M  V30 1974 H 193.101 -2.23284 -1.92947 0
M  V30 1975 H 193.182 -2.55088 -0.190756 0
M  V30 1976 H 192.826 -5.03703 -0.65157 0
M  V30 1977 H 192.756 -4.68868 -2.39729 0
M  V30 1978 H 195.247 -3.52919 -1.35118 0
M  V30 1979 H 195.56 -7.41704 -2.17013 0
M  V30 1980 H 193.905 -6.66839 -1.95832 0
M  V30 1981 H 197.096 -4.40098 -1.59473 0
M  V30 1982 H 197.269 -6.1738 -1.9684 0
M  V30 1983 N 190.675 0.682077 -1.42076 0
M  V30 1984 C 191.607 1.80755 -1.40926 0
M  V30 1985 C 192.62 1.59833 -0.309398 0
M  V30 1986 O 193.809 1.69087 -0.572014 0
M  V30 1987 C 190.909 3.17744 -1.17865 0
M  V30 1988 C 190.082 3.65578 -2.40149 0
M  V30 1989 C 189.141 4.81277 -2.12742 0
M  V30 1990 O 188.167 4.92197 -2.85887 0
M  V30 1991 N 189.369 5.69474 -1.12602 0
M  V30 1992 H 192.134 1.82229 -2.37935 0
M  V30 1993 H 189.695 0.864903 -1.36861 0
M  V30 1994 H 191.687 3.9279 -0.9746 0
M  V30 1995 H 190.257 3.11214 -0.294068 0
M  V30 1996 H 189.477 2.81291 -2.76169 0
M  V30 1997 H 190.765 3.94278 -3.21593 0
M  V30 1998 H 190.163 5.63297 -0.520899 0
M  V30 1999 H 188.72 6.44363 -0.981842 0
M  V30 2000 N 192.153 1.28127 0.917671 0
M  V30 2001 C 193.086 1.06039 2.02067 0
M  V30 2002 C 194.064 -0.0223285 1.62585 0
M  V30 2003 O 195.248 0.124823 1.88086 0
M  V30 2004 C 192.375 0.610596 3.33151 0
M  V30 2005 C 191.421 1.68937 3.91615 0
M  V30 2006 S 192.254 3.28437 4.22953 0
M  V30 2007 C 193.41 2.85283 5.57103 0
M  V30 2008 H 193.643 1.99425 2.20493 0
M  V30 2009 H 191.176 1.12071 1.06205 0
M  V30 2010 H 193.134 0.357778 4.08938 0
M  V30 2011 H 191.795 -0.303364 3.12632 0
M  V30 2012 H 190.988 1.32619 4.86239 0
M  V30 2013 H 190.59 1.89478 3.2245 0
M  V30 2014 H 192.882 2.3121 6.36827 0
M  V30 2015 H 193.825 3.7869 5.98331 0
M  V30 2016 H 194.233 2.24118 5.18104 0
M  V30 2017 N 193.631 -1.12557 1.10312 0
M  V30 2018 C 194.879 -1.83675 0.843091 0
M  V30 2019 C 195.2 -1.84435 -0.633131 0
M  V30 2020 O 194.47 -1.30657 -1.45964 0
M  V30 2021 H 193.05 -0.680138 0.308904 0
M  V30 2022 H 195.712 -1.36301 1.39313 0
M  V30 2023 H 194.808 -2.87908 1.2048 0
M  V30 2024 N 195.109 -0.891671 -1.2995 0
M  V30 2025 C 196.041 -0.320695 -2.26945 0
M  V30 2026 C 197.054 0.528497 -1.53983 0
M  V30 2027 O 198.243 0.346959 -1.75096 0
M  V30 2028 C 195.343 0.562066 -3.34207 0
M  V30 2029 C 194.516 -0.259576 -4.36629 0
M  V30 2030 C 193.575 0.554739 -5.23268 0
M  V30 2031 O 192.601 -0.0249311 -5.69195 0
M  V30 2032 N 193.803 1.8625 -5.4981 0
M  V30 2033 H 196.568 -1.15432 -2.76578 0
M  V30 2034 H 194.129 -0.755336 -1.432 0
M  V30 2035 H 196.121 1.11304 -3.89093 0
M  V30 2036 H 194.691 1.29637 -2.84452 0
M  V30 2037 H 193.911 -0.991986 -3.81514 0
M  V30 2038 H 195.199 -0.822564 -5.02107 0
M  V30 2039 H 194.597 2.35628 -5.14292 0
M  V30 2040 H 193.154 2.36078 -6.07545 0
M  V30 2041 N 196.587 1.43421 -0.653314 0
M  V30 2042 C 197.998 1.85065 -0.246537 0
M  V30 2043 C 198.349 1.54688 1.2069 0
M  V30 2044 O 197.474 0.995896 1.92122 0
M  V30 2045 C 198.069 3.35922 -0.440666 0
M  V30 2046 C 196.628 3.76297 -0.0882064 0
M  V30 2047 C 195.775 2.67147 -0.743484 0
M  V30 2048 H 198.726 1.33572 -0.856979 0
M  V30 2049 H 198.747 3.79204 0.313798 0
M  V30 2050 H 198.259 3.58 -1.49858 0
M  V30 2051 H 196.36 3.5983 0.96711 0
M  V30 2052 H 196.473 4.76338 -0.513738 0
M  V30 2053 H 194.837 2.54086 -0.176712 0
M  V30 2054 H 195.62 2.92053 -1.80443 0
M  V30 2055 N 198.065 0.39524 1.52563 0
M  V30 2056 C 199.305 -0.184744 2.03563 0
M  V30 2057 C 199.669 -1.43548 1.27507 0
M  V30 2058 O 200.87 -2.093 1.68662 0
M  V30 2059 C 199.141 -0.440294 3.54678 0
M  V30 2060 S 200.7 -0.989712 4.27493 0
M  V30 2061 H 197.518 -0.0515075 0.709132 0
M  V30 2062 H 200.12 0.544957 1.87751 0
M  V30 2063 H 198.824 0.477005 4.07618 0
M  V30 2064 H 198.355 -1.19825 3.74707 0
M  V30 2065 H 200.37 -2.27155 4.41152 0
M  V30 2066 N 199.544 -1.57102 0.125237 0
M  V30 2067 C 200.821 -1.86953 -0.575142 0
M  V30 2068 C 201.201 -1.02749 -1.84407 0
M  V30 2069 O 200.549 -0.108144 -2.28244 0
M  V30 2070 C 200.759 -3.38198 -0.861583 0
M  V30 2071 C 202.107 -4.06937 -1.21192 0
M  V30 2072 O 203.131 -3.43252 -0.951645 0
M  V30 2073 O 201.99 -5.19364 -1.70068 0
M  V30 2074 H 199.084 -0.774147 -0.290906 0
M  V30 2075 H 201.63 -1.68942 0.160211 0
M  V30 2076 H 200.402 -3.91282 0.0373647 0
M  V30 2077 H 200.025 -3.61661 -1.65188 0
M  V30 2078 N 201.022 0.148545 -1.56898 0
M  V30 2079 C 201.985 1.16736 -1.97244 0
M  V30 2080 C 202.985 1.35947 -0.858777 0
M  V30 2081 O 204.175 1.32966 -1.12542 0
M  V30 2082 C 201.307 2.52798 -2.28705 0
M  V30 2083 H 202.5 0.821279 -2.88435 0
M  V30 2084 H 200.053 0.391831 -1.51309 0
M  V30 2085 H 200.788 2.92381 -1.403 0
M  V30 2086 H 200.573 2.40216 -3.09901 0
M  V30 2087 H 202.063 3.26179 -2.60762 0
M  V30 2088 N 202.5 1.5196 0.417844 0
M  V30 2089 C 203.73 1.69181 1.18581 0
M  V30 2090 C 204.138 0.397104 1.84986 0
M  V30 2091 O 203.481 -0.636011 1.72339 0
M  V30 2092 C 203.543 2.76497 2.29759 0
M  V30 2093 C 203.207 4.18514 1.83563 0
M  V30 2094 C 204.204 5.02648 1.32821 0
M  V30 2095 C 201.889 4.64708 1.90661 0
M  V30 2096 C 203.883 6.31044 0.897894 0
M  V30 2097 C 201.57 5.93096 1.47241 0
M  V30 2098 C 202.568 6.76093 0.968891 0
M  V30 2099 O 202.256 8.02078 0.540924 0
M  V30 2100 H 201.988 0.570457 0.362705 0
M  V30 2101 H 204.542 1.99249 0.498885 0
M  V30 2102 H 202.772 2.41786 3.01789 0
M  V30 2103 H 204.461 2.82403 2.91553 0
M  V30 2104 H 205.227 4.68154 1.26716 0
M  V30 2105 H 201.106 4.00216 2.28797 0
M  V30 2106 H 204.65 6.95776 0.504192 0
M  V30 2107 H 200.547 6.271 1.53022 0
M  V30 2108 H 201.315 8.15794 0.66502 0
M  V30 2109 N 203.978 -0.674533 1.42435 0
M  V30 2110 C 204.91 -1.80005 1.41883 0
M  V30 2111 C 205.923 -1.59667 0.31787 0
M  V30 2112 O 207.112 -1.68781 0.580973 0
M  V30 2113 C 204.212 -3.17114 1.19549 0
M  V30 2114 C 203.385 -3.64299 2.42084 0
M  V30 2115 C 202.444 -4.80142 2.15291 0
M  V30 2116 O 201.47 -4.90673 2.88493 0
M  V30 2117 N 202.672 -5.68869 1.1562 0
M  V30 2118 H 205.437 -1.80964 2.38898 0
M  V30 2119 H 202.998 -0.857633 1.37318 0
M  V30 2120 H 204.99 -3.92267 0.995417 0
M  V30 2121 H 203.56 -3.11053 0.310569 0
M  V30 2122 H 202.78 -2.79822 2.77657 0
M  V30 2123 H 204.068 -3.92567 3.23679 0
M  V30 2124 H 203.466 -5.63012 0.550765 0
M  V30 2125 H 202.023 -6.43833 1.016 0
M  V30 2126 N 205.456 -1.28612 -0.910864 0
M  V30 2127 C 206.403 -1.12786 -2.01365 0
M  V30 2128 C 207.373 -0.024201 -1.66082 0
M  V30 2129 O 208.558 -0.189667 -1.89855 0
M  V30 2130 C 205.698 -0.798743 -3.35729 0
M  V30 2131 C 204.811 -1.98173 -3.83864 0
M  V30 2132 C 203.946 -1.59298 -5.06752 0
M  V30 2133 C 202.985 -2.74245 -5.47226 0
M  V30 2134 N 202.122 -2.35842 -6.61304 0
M  V30 2135 H 206.962 -2.07142 -2.14234 0
M  V30 2136 H 204.499 -1.03093 -1.0493 0
M  V30 2137 H 206.457 -0.588662 -4.13026 0
M  V30 2138 H 205.087 0.10789 -3.2262 0
M  V30 2139 H 204.139 -2.30386 -3.02699 0
M  V30 2140 H 205.451 -2.84343 -4.09818 0
M  V30 2141 H 204.605 -1.34513 -5.916 0
M  V30 2142 H 203.344 -0.702618 -4.82612 0
M  V30 2143 H 202.349 -2.99725 -4.60918 0
M  V30 2144 H 203.574 -3.63928 -5.73353 0
M  V30 2145 H 201.52 -1.49279 -6.38789 0
M  V30 2146 H 201.437 -3.15546 -6.86998 0
M  V30 2147 H 202.705 -2.14348 -7.4945 0
M  V30 2148 N 206.934 1.1197 -1.10907 0
M  V30 2149 C 208.35 1.35591 -0.841852 0
M  V30 2150 C 208.55 1.94233 0.536246 0
M  V30 2151 O 207.606 2.1717 1.28816 0
M  V30 2152 C 208.919 2.29284 -1.94549 0
M  V30 2153 C 210.467 2.42862 -1.97451 0
M  V30 2154 C 210.942 3.39873 -3.07002 0
M  V30 2155 N 212.433 3.47433 -3.06341 0
M  V30 2156 C 213.168 4.22421 -3.87748 0
M  V30 2157 N 212.664 5.00432 -4.79103 0
M  V30 2158 N 214.457 4.17876 -3.75946 0
M  V30 2159 H 206.608 0.722664 -1.99728 0
M  V30 2160 H 208.871 0.380635 -0.868229 0
M  V30 2161 H 208.577 1.93378 -2.93765 0
M  V30 2162 H 208.451 3.29452 -1.83688 0
M  V30 2163 H 210.838 2.78046 -0.988645 0
M  V30 2164 H 210.919 1.42566 -2.12388 0
M  V30 2165 H 210.563 3.05417 -4.05811 0
M  V30 2166 H 210.493 4.40011 -2.89306 0
M  V30 2167 H 212.984 2.91784 -2.40147 0
M  V30 2168 H 213.297 5.55002 -5.37766 0
M  V30 2169 H 211.642 4.99612 -4.83128 0
M  V30 2170 H 214.833 3.56016 -3.03924 0
M  V30 2171 H 215.006 4.76061 -4.39624 0
M  V30 2172 N 208.412 0.89855 1.29475 0
M  V30 2173 C 209.342 0.39201 2.30186 0
M  V30 2174 C 210.323 -0.532359 1.61555 0
M  V30 2175 O 211.508 -0.443331 1.89072 0
M  V30 2176 C 208.638 -0.382353 3.45189 0
M  V30 2177 C 207.592 0.451483 4.25612 0
M  V30 2178 C 206.918 -0.450307 5.328 0
M  V30 2179 C 208.218 1.70079 4.93832 0
M  V30 2180 H 209.912 1.23362 2.72804 0
M  V30 2181 H 207.458 0.594638 1.31149 0
M  V30 2182 H 209.411 -0.747451 4.14718 0
M  V30 2183 H 208.135 -1.25774 3.01411 0
M  V30 2184 H 206.794 0.798897 3.57789 0
M  V30 2185 H 206.442 -1.32379 4.85268 0
M  V30 2186 H 206.142 0.103902 5.87508 0
M  V30 2187 H 207.666 -0.811623 6.05182 0
M  V30 2188 H 209.08 1.40549 5.55805 0
M  V30 2189 H 207.477 2.19623 5.58467 0
M  V30 2190 H 208.547 2.43744 4.19186 0
M  V30 2191 N 209.89 -1.43072 0.660911 0
M  V30 2192 C 210.82 -2.33497 -0.0122829 0
M  V30 2193 C 211.801 -1.49903 -0.803925 0
M  V30 2194 O 212.986 -1.78546 -0.763864 0
M  V30 2195 C 210.116 -3.33363 -0.973994 0
M  V30 2196 C 209.07 -4.27003 -0.291928 0
M  V30 2197 C 208.396 -5.16967 -1.36562 0
M  V30 2198 C 209.696 -5.15816 0.820462 0
M  V30 2199 H 211.39 -2.90038 0.742873 0
M  V30 2200 H 208.936 -1.39461 0.358688 0
M  V30 2201 H 210.889 -3.95524 -1.45392 0
M  V30 2202 H 209.613 -2.75095 -1.7604 0
M  V30 2203 H 208.272 -3.66217 0.167623 0
M  V30 2204 H 207.92 -4.55034 -2.14366 0
M  V30 2205 H 207.62 -5.80441 -0.914454 0
M  V30 2206 H 209.144 -5.82003 -1.84675 0
M  V30 2207 H 210.558 -5.71742 0.422366 0
M  V30 2208 H 208.955 -5.8805 1.19656 0
M  V30 2209 H 210.025 -4.55045 1.67518 0
M  V30 2210 N 211.368 -0.403325 -1.52352 0
M  V30 2211 C 212.3 0.4603 -2.2453 0
M  V30 2212 C 213.313 1.01505 -1.27282 0
M  V30 2213 O 214.502 0.914982 -1.53266 0
M  V30 2214 C 211.602 1.65208 -2.95905 0
M  V30 2215 C 210.775 1.22224 -4.19976 0
M  V30 2216 C 209.834 2.28028 -4.74226 0
M  V30 2217 O 208.86 1.88857 -5.36956 0
M  V30 2218 N 210.062 3.6012 -4.55295 0
M  V30 2219 H 212.827 -0.158156 -2.99282 0
M  V30 2220 H 210.388 -0.230402 -1.60252 0
M  V30 2221 H 212.38 2.35541 -3.29093 0
M  V30 2222 H 210.95 2.17658 -2.24374 0
M  V30 2223 H 210.17 0.34725 -3.92668 0
M  V30 2224 H 211.458 0.911924 -5.00561 0
M  V30 2225 H 210.856 3.94698 -4.05253 0
M  V30 2226 H 209.413 4.26447 -4.92936 0
M  V30 2227 N 212.846 1.57033 -0.133567 0
M  V30 2228 C 213.776 2.1909 0.807567 0
M  V30 2229 C 214.757 1.13517 1.26681 0
M  V30 2230 O 215.942 1.41809 1.32679 0
M  V30 2231 C 213.072 2.80188 2.05212 0
M  V30 2232 C 212.026 3.91471 1.73015 0
M  V30 2233 C 211.352 4.39443 3.04622 0
M  V30 2234 C 212.652 5.12886 0.987168 0
M  V30 2235 H 214.346 2.97988 0.290403 0
M  V30 2236 H 211.892 1.43335 0.138239 0
M  V30 2237 H 213.845 3.22264 2.71521 0
M  V30 2238 H 212.569 1.98601 2.59278 0
M  V30 2239 H 211.228 3.49993 1.0909 0
M  V30 2240 H 210.876 3.54695 3.56651 0
M  V30 2241 H 210.576 5.14495 2.83847 0
M  V30 2242 H 212.1 4.8418 3.72024 0
M  V30 2243 H 213.514 5.51891 1.55208 0
M  V30 2244 H 211.911 5.93615 0.87985 0
M  V30 2245 H 212.981 4.84894 -0.0235286 0
M  V30 2246 N 214.325 -0.140222 1.56975 0
M  V30 2247 C 215.257 -1.19818 1.95388 0
M  V30 2248 C 216.27 -1.38816 0.850525 0
M  V30 2249 O 217.459 -1.38267 1.12891 0
M  V30 2250 C 214.559 -2.56189 2.21857 0
M  V30 2251 C 213.732 -2.58077 3.5315 0
M  V30 2252 C 212.791 -3.76037 3.6808 0
M  V30 2253 O 211.817 -3.60598 4.40406 0
M  V30 2254 N 213.019 -4.93763 3.05251 0
M  V30 2255 H 215.784 -0.871609 2.86746 0
M  V30 2256 H 213.345 -0.32972 1.58507 0
M  V30 2257 H 215.337 -3.33623 2.2908 0
M  V30 2258 H 213.907 -2.81111 1.36731 0
M  V30 2259 H 213.127 -1.6651 3.57307 0
M  V30 2260 H 214.415 -2.56377 4.39486 0
M  V30 2261 H 213.813 -5.09209 2.46419 0
M  V30 2262 H 212.37 -5.68949 3.18026 0
M  V30 2263 N 215.803 -1.52179 -0.40978 0
M  V30 2264 C 216.713 -1.78364 -1.52392 0
M  V30 2265 C 217.729 -0.669183 -1.60617 0
M  V30 2266 O 218.905 -0.954518 -1.77344 0
M  V30 2267 C 215.97 -1.92822 -2.88133 0
M  V30 2268 C 215.031 -3.16725 -2.898 0
M  V30 2269 C 214.264 -3.30483 -4.19067 0
M  V30 2270 O 214.487 -2.49522 -5.12928 0
M  V30 2271 O 213.421 -4.2363 -4.27576 0
M  V30 2272 H 217.247 -2.72931 -1.33201 0
M  V30 2273 H 214.832 -1.37016 -0.59557 0
M  V30 2274 H 216.714 -2.04157 -3.68643 0
M  V30 2275 H 215.389 -1.01444 -3.07393 0
M  V30 2276 H 214.296 -3.10848 -2.08146 0
M  V30 2277 H 215.629 -4.07881 -2.75489 0
M  V30 2278 N 217.281 0.66697 -1.42791 0
M  V30 2279 C 218.213 1.7925 -1.42836 0
M  V30 2280 C 219.226 1.59496 -0.326333 0
M  V30 2281 O 220.415 1.6847 -0.589916 0
M  V30 2282 C 217.515 3.16476 -1.21229 0
M  V30 2283 C 216.688 3.63011 -2.44013 0
M  V30 2284 C 215.747 4.78993 -2.17834 0
M  V30 2285 O 214.773 4.89137 -2.91091 0
M  V30 2286 N 215.975 5.68248 -1.18635 0
M  V30 2287 H 218.74 1.79695 -2.39854 0
M  V30 2288 H 216.301 0.850338 -1.37771 0
M  V30 2289 H 218.293 3.91734 -1.01621 0
M  V30 2290 H 216.863 3.10884 -0.32706 0
M  V30 2291 H 216.083 2.78346 -2.79137 0
M  V30 2292 H 217.371 3.90845 -3.25757 0
M  V30 2293 H 216.769 5.62712 -0.580615 0
M  V30 2294 H 215.326 6.43285 -1.05013 0
M  V30 2295 N 218.759 1.29093 0.90403 0
M  V30 2296 C 219.692 1.08176 2.00931 0
M  V30 2297 C 220.67 -0.005083 1.62599 0
M  V30 2298 O 221.854 0.144765 1.87943 0
M  V30 2299 C 218.981 0.645897 3.32484 0
M  V30 2300 C 218.027 1.73081 3.89801 0
M  V30 2301 S 218.86 3.32905 4.19446 0
M  V30 2302 C 220.016 2.91176 5.54046 0
M  V30 2303 H 220.249 2.01752 2.18365 0
M  V30 2304 H 217.782 1.13191 1.0501 0
M  V30 2305 H 219.74 0.401131 4.08535 0
M  V30 2306 H 218.401 -0.270188 3.12936 0
M  V30 2307 H 217.594 1.37768 4.84805 0
M  V30 2308 H 217.196 1.92888 3.20422 0
M  V30 2309 H 219.488 2.37952 6.34338 0
M  V30 2310 H 220.431 3.85014 5.94281 0
M  V30 2311 H 220.839 2.296 5.15698 0
M  V30 2312 N 220.237 -1.11381 1.11499 0
M  V30 2313 C 221.653 -1.35143 0.849031 0
M  V30 2314 C 221.853 -1.94515 -0.525938 0
M  V30 2315 O 220.909 -2.1785 -1.27662 0
M  V30 2316 C 222.222 -2.28249 1.95762 0
M  V30 2317 C 223.77 -2.41812 1.98736 0
M  V30 2318 C 224.245 -3.3824 3.088 0
M  V30 2319 N 225.736 -3.45803 3.08179 0
M  V30 2320 C 226.471 -4.20358 3.89982 0
M  V30 2321 N 225.967 -4.97884 4.8175 0
M  V30 2322 N 227.76 -4.15877 3.78157 0
M  V30 2323 H 219.911 -0.712062 2.00109 0
M  V30 2324 H 222.174 -0.376025 0.870235 0
M  V30 2325 H 221.88 -1.91817 2.94787 0
M  V30 2326 H 221.754 -3.28473 1.85433 0
M  V30 2327 H 224.141 -2.77518 1.00338 0
M  V30 2328 H 224.222 -1.41437 2.13141 0
M  V30 2329 H 223.866 -3.03261 4.07425 0
M  V30 2330 H 223.796 -4.38471 2.91635 0
M  V30 2331 H 226.287 -2.90506 2.41691 0
M  V30 2332 H 226.6 -5.52142 5.40702 0
M  V30 2333 H 224.945 -4.97043 4.85771 0
M  V30 2334 H 228.136 -3.544 3.05808 0
M  V30 2335 H 228.309 -4.73723 4.42143 0
M  V30 2336 N 221.715 -0.905404 -1.28997 0
M  V30 2337 C 222.678 -0.392253 -2.25819 0
M  V30 2338 C 223.678 0.476753 -1.5357 0
M  V30 2339 O 224.868 0.280994 -1.71919 0
M  V30 2340 C 222 0.438588 -3.38067 0
M  V30 2341 H 223.193 -1.24743 -2.72725 0
M  V30 2342 H 220.746 -0.684051 -1.40536 0
M  V30 2343 H 221.481 1.31352 -2.96508 0
M  V30 2344 H 221.266 -0.184167 -3.91667 0
M  V30 2345 H 222.756 0.78873 -4.10084 0
M  V30 2346 N 223.193 1.4272 -0.668489 0
M  V30 2347 C 224.123 2.335 -0.000100175 0
M  V30 2348 C 225.104 1.50328 0.795964 0
M  V30 2349 O 226.289 1.78949 0.754385 0
M  V30 2350 C 223.419 3.33874 0.956302 0
M  V30 2351 C 222.373 4.27152 0.269278 0
M  V30 2352 C 221.699 5.17684 1.33818 0
M  V30 2353 C 222.999 5.15373 -0.847805 0
M  V30 2354 H 224.693 2.89639 -0.758244 0
M  V30 2355 H 222.239 1.39269 -0.366079 0
M  V30 2356 H 224.192 3.9629 1.43292 0
M  V30 2357 H 222.916 2.76025 1.74579 0
M  V30 2358 H 221.575 3.66123 -0.187042 0
M  V30 2359 H 221.223 4.56165 2.1195 0
M  V30 2360 H 220.923 5.80918 0.883659 0
M  V30 2361 H 222.447 5.82974 1.81586 0
M  V30 2362 H 223.861 5.7151 -0.452681 0
M  V30 2363 H 222.258 5.87407 -1.22773 0
M  V30 2364 H 223.328 4.5415 -1.69929 0
M  V30 2365 N 224.671 0.411399 1.52136 0
M  V30 2366 C 225.901 -0.16284 2.05957 0
M  V30 2367 C 226.309 -1.3922 1.28119 0
M  V30 2368 O 225.652 -1.80768 0.326881 0
M  V30 2369 C 225.714 -0.575946 3.54856 0
M  V30 2370 C 225.378 0.542998 4.53763 0
M  V30 2371 C 226.375 1.40726 5.00492 0
M  V30 2372 C 224.06 0.716337 4.97166 0
M  V30 2373 C 226.054 2.4298 5.8927 0
M  V30 2374 C 223.741 1.74218 5.8574 0
M  V30 2375 C 224.739 2.59731 6.31687 0
M  V30 2376 O 224.427 3.60558 7.18507 0
M  V30 2377 H 224.159 -0.0229125 0.675612 0
M  V30 2378 H 226.713 0.581634 1.96993 0
M  V30 2379 H 224.943 -1.37274 3.61515 0
M  V30 2380 H 226.632 -1.07836 3.91313 0
M  V30 2381 H 227.398 1.28476 4.67674 0
M  V30 2382 H 223.277 0.0603857 4.6096 0
M  V30 2383 H 226.821 3.0976 6.25055 0
M  V30 2384 H 222.718 1.86498 6.17971 0
M  V30 2385 H 223.486 3.56829 7.36624 0
M  V30 2386 N 226.149 -1.5696 0.141893 0
M  V30 2387 C 227.096 -2.16501 -0.799737 0
M  V30 2388 C 228.066 -1.09643 -1.24771 0
M  V30 2389 O 229.251 -1.3766 -1.32115 0
M  V30 2390 C 226.391 -2.78679 -2.03549 0
M  V30 2391 C 225.504 -3.99914 -1.6338 0
M  V30 2392 C 224.639 -4.50106 -2.82096 0
M  V30 2393 C 223.678 -5.63819 -2.38275 0
M  V30 2394 N 222.815 -6.08651 -3.49983 0
M  V30 2395 H 227.655 -2.96632 -0.285179 0
M  V30 2396 H 225.192 -1.46533 -0.129053 0
M  V30 2397 H 227.15 -3.1287 -2.75986 0
M  V30 2398 H 225.78 -2.012 -2.52425 0
M  V30 2399 H 224.832 -3.71735 -0.807279 0
M  V30 2400 H 226.144 -4.82311 -1.27192 0
M  V30 2401 H 225.298 -4.86325 -3.62729 0
M  V30 2402 H 224.037 -3.66706 -3.21525 0
M  V30 2403 H 223.042 -5.2718 -1.56081 0
M  V30 2404 H 224.267 -6.49 -1.99938 0
M  V30 2405 H 222.213 -5.28188 -3.89042 0
M  V30 2406 H 222.13 -6.85961 -3.17794 0
M  V30 2407 H 223.398 -6.49515 -4.30988 0
M  V30 2408 N 227.627 0.131896 -1.57047 0
M  V30 2409 C 228.59 1.14638 -1.98471 0
M  V30 2410 C 229.59 1.35029 -0.873148 0
M  V30 2411 O 230.78 1.31764 -1.13946 0
M  V30 2412 C 227.912 2.50358 -2.31373 0
M  V30 2413 H 229.105 0.79064 -2.8929 0
M  V30 2414 H 226.658 0.375761 -1.51716 0
M  V30 2415 H 227.393 2.90876 -1.43393 0
M  V30 2416 H 227.178 2.36915 -3.12432 0
M  V30 2417 H 228.668 3.23395 -2.64207 0
M  V30 2418 N 229.106 1.52395 0.401703 0
M  V30 2419 C 230.355 1.66044 1.14509 0
M  V30 2420 C 230.668 0.400216 1.91462 0
M  V30 2421 O 231.874 0.416632 2.68284 0
M  V30 2422 C 230.33 2.93388 2.0845 0
M  V30 2423 C 229.938 4.26545 1.36978 0
M  V30 2424 C 231.682 3.16402 2.83001 0
M  V30 2425 C 229.589 5.45007 2.29611 0
M  V30 2426 H 228.519 0.618562 0.431158 0
M  V30 2427 H 231.17 1.78886 0.40892 0
M  V30 2428 H 229.552 2.74263 2.8565 0
M  V30 2429 H 230.726 4.56179 0.650916 0
M  V30 2430 H 229.041 4.09692 0.74438 0
M  V30 2431 H 231.638 4.02085 3.52465 0
M  V30 2432 H 231.981 2.30943 3.46368 0
M  V30 2433 H 232.514 3.36034 2.12898 0
M  V30 2434 H 229.253 6.32835 1.70879 0
M  V30 2435 H 228.773 5.19702 2.9945 0
M  V30 2436 H 230.452 5.7838 2.89974 0
M  V30 2437 N 230.584 -0.659388 1.43143 0
M  V30 2438 C 231.809 -1.45221 1.48073 0
M  V30 2439 C 232.234 -1.87845 0.097995 0
M  V30 2440 O 231.592 -1.56985 -0.90694 0
M  V30 2441 C 231.64 -2.66748 2.42647 0
M  V30 2442 O 230.744 -3.65583 1.90848 0
M  V30 2443 H 230.085 -0.435669 0.501088 0
M  V30 2444 H 232.615 -0.807432 1.87994 0
M  V30 2445 H 232.625 -3.14637 2.59745 0
M  V30 2446 H 231.3 -2.35067 3.43098 0
M  V30 2447 H 229.877 -3.24693 1.83381 0
M  V30 2448 N 232.062 -1.29571 -0.897171 0
M  V30 2449 C 233.308 -1.17863 -1.65034 0
M  V30 2450 C 233.641 0.268729 -1.92332 0
M  V30 2451 O 232.916 1.19378 -1.53555 0
M  V30 2452 C 233.199 -1.995 -2.99786 0
M  V30 2453 C 233.052 -3.5239 -2.79538 0
M  V30 2454 C 234.371 -1.82335 -4.00552 0
M  V30 2455 H 231.49 -0.429528 -0.598895 0
M  V30 2456 H 234.132 -1.59072 -1.03905 0
M  V30 2457 H 232.282 -1.64485 -3.51962 0
M  V30 2458 H 233.954 -3.97401 -2.34244 0
M  V30 2459 H 232.197 -3.77187 -2.14273 0
M  V30 2460 H 232.868 -4.04787 -3.75302 0
M  V30 2461 H 235.344 -2.12924 -3.57495 0
M  V30 2462 H 234.22 -2.41801 -4.92771 0
M  V30 2463 H 234.481 -0.779209 -4.35179 0
M  V30 2464 N 233.54 1.10788 -1.12088 0
M  V30 2465 C 234.951 1.64181 -0.88891 0
M  V30 2466 C 235.302 1.87508 0.577498 0
M  V30 2467 O 234.427 1.61434 1.44112 0
M  V30 2468 C 235.022 2.98257 -1.60712 0
M  V30 2469 C 233.581 3.4853 -1.42139 0
M  V30 2470 C 232.728 2.23208 -1.6454 0
M  V30 2471 H 235.679 0.943368 -1.27618 0
M  V30 2472 H 235.7 3.65552 -1.05604 0
M  V30 2473 H 235.212 2.81246 -2.67436 0
M  V30 2474 H 233.313 3.70692 -0.376552 0
M  V30 2475 H 233.426 4.26882 -2.17505 0
M  V30 2476 H 231.79 2.31169 -1.06925 0
M  V30 2477 H 232.573 2.08733 -2.72554 0
M  V30 2478 N 235.018 0.912232 1.28515 0
M  V30 2479 C 236.434 0.610159 1.47476 0
M  V30 2480 C 236.634 -0.844955 1.82928 0
M  V30 2481 O 235.69 -1.62416 1.93332 0
M  V30 2482 C 237.003 1.54675 2.57868 0
M  V30 2483 C 238.551 1.55331 2.71738 0
M  V30 2484 C 239.026 2.47649 3.85272 0
M  V30 2485 N 240.517 2.45767 3.92623 0
M  V30 2486 C 241.252 3.13896 4.79851 0
M  V30 2487 N 240.748 3.9135 5.71679 0
M  V30 2488 N 242.541 3.02991 4.73448 0
M  V30 2489 H 234.692 1.85318 1.03783 0
M  V30 2490 H 236.955 0.794777 0.516753 0
M  V30 2491 H 236.661 2.5841 2.38574 0
M  V30 2492 H 236.535 1.27671 3.54937 0
M  V30 2493 H 238.922 0.52335 2.90422 0
M  V30 2494 H 239.003 1.86378 1.75205 0
M  V30 2495 H 238.647 3.50745 3.67342 0
M  V30 2496 H 238.577 2.13904 4.81199 0
M  V30 2497 H 241.068 1.89503 3.26951 0
M  V30 2498 H 241.381 4.40359 6.35062 0
M  V30 2499 H 239.726 3.95455 5.71524 0
M  V30 2500 H 242.917 2.41987 4.007 0
M  V30 2501 H 243.09 3.5636 5.41213 0
M  V30 2502 N 236.496 -1.42363 0.676048 0
M  V30 2503 C 237.742 -2.0182 0.199125 0
M  V30 2504 C 238.075 -1.53339 -1.19168 0
M  V30 2505 O 237.35 -0.736124 -1.80032 0
M  V30 2506 C 237.633 -3.59331 0.235144 0
M  V30 2507 C 237.486 -4.17989 1.66149 0
M  V30 2508 C 238.805 -4.3813 -0.41595 0
M  V30 2509 H 235.924 -0.733293 0.0738311 0
M  V30 2510 H 238.566 -1.69368 0.86107 0
M  V30 2511 H 236.716 -3.87109 -0.328487 0
M  V30 2512 H 238.388 -4.0116 2.27747 0
M  V30 2513 H 236.631 -3.7377 2.20178 0
M  V30 2514 H 237.302 -5.27126 1.63837 0
M  V30 2515 H 239.778 -4.16051 0.0638529 0
M  V30 2516 H 238.654 -5.47717 -0.360115 0
M  V30 2517 H 238.915 -4.16101 -1.49373 0
M  V30 2518 N 237.974 -0.419461 -1.51915 0
M  V30 2519 C 239.39 -0.0708431 -1.59443 0
M  V30 2520 C 239.59 1.41796 -1.43164 0
M  V30 2521 O 238.646 2.18596 -1.26381 0
M  V30 2522 C 239.959 -0.574991 -2.95151 0
M  V30 2523 C 241.507 -0.533867 -3.08413 0
M  V30 2524 C 241.982 -1.01469 -4.46618 0
M  V30 2525 N 243.473 -0.971939 -4.52888 0
M  V30 2526 C 244.208 -1.31505 -5.58116 0
M  V30 2527 N 243.704 -1.73014 -6.70849 0
M  V30 2528 N 245.497 -1.23436 -5.48379 0
M  V30 2529 H 237.648 -1.38836 -1.60743 0
M  V30 2530 H 239.911 -0.570998 -0.756747 0
M  V30 2531 H 239.617 -1.61597 -3.12377 0
M  V30 2532 H 239.491 0.00979777 -3.77199 0
M  V30 2533 H 241.878 0.498086 -2.90866 0
M  V30 2534 H 241.959 -1.15484 -2.28248 0
M  V30 2535 H 241.603 -2.04502 -4.6491 0
M  V30 2536 H 241.533 -0.370433 -5.25295 0
M  V30 2537 H 244.024 -0.666893 -3.71969 0
M  V30 2538 H 244.337 -1.97479 -7.47143 0
M  V30 2539 H 242.682 -1.76926 -6.72103 0
M  V30 2540 H 245.873 -0.908869 -4.59192 0
M  V30 2541 H 246.046 -1.50506 -6.30279 0
M  V30 2542 N 239.452 1.56882 -0.150215 0
M  V30 2543 C 240.868 1.58263 0.20617 0
M  V30 2544 C 241.068 1.16464 1.64434 0
M  V30 2545 O 240.124 0.866422 2.3717 0
M  V30 2546 C 241.437 3.00649 -0.0555025 0
M  V30 2547 C 242.985 3.12999 0.00795388 0
M  V30 2548 C 243.46 4.5744 -0.226429 0
M  V30 2549 N 244.951 4.62875 -0.173469 0
M  V30 2550 C 245.686 5.72454 -0.329288 0
M  V30 2551 N 245.182 6.90669 -0.543005 0
M  V30 2552 N 246.975 5.61467 -0.266666 0
M  V30 2553 H 239.126 1.82345 -1.08922 0
M  V30 2554 H 241.389 0.844149 -0.431413 0
M  V30 2555 H 241.095 3.3563 -1.05096 0
M  V30 2556 H 240.969 3.71337 0.66246 0
M  V30 2557 H 243.356 2.77857 0.993966 0
M  V30 2558 H 243.437 2.4479 -0.742388 0
M  V30 2559 H 243.081 4.93287 -1.20956 0
M  V30 2560 H 243.011 5.2378 0.544274 0
M  V30 2561 H 245.502 3.77898 -0.0130709 0
M  V30 2562 H 245.815 7.70045 -0.651922 0
M  V30 2563 H 244.16 6.92581 -0.579366 0
M  V30 2564 H 247.351 4.67992 -0.100441 0
M  V30 2565 H 247.524 6.46816 -0.391535 0
M  V30 2566 N 240.93 -0.123565 1.57115 0
M  V30 2567 C 241.893 -1.13583 1.99076 0
M  V30 2568 C 242.893 -1.34564 0.880296 0
M  V30 2569 O 244.083 -1.31158 1.14644 0
M  V30 2570 C 241.215 -2.49128 2.32698 0
M  V30 2571 H 242.408 -0.775287 2.89706 0
M  V30 2572 H 239.961 -0.36771 1.51913 0
M  V30 2573 H 240.696 -2.90111 1.44934 0
M  V30 2574 H 240.481 -2.35255 3.13684 0
M  V30 2575 H 241.971 -3.2199 2.65918 0
M  V30 2576 N 242.408 -1.52605 -0.393616 0
M  V30 2577 C 243.633 -1.71592 -1.16495 0
M  V30 2578 C 244.058 -0.43133 -1.83088 0
M  V30 2579 O 243.416 0.612523 -1.7064 0
M  V30 2580 C 243.464 -2.86318 -2.19213 0
M  V30 2581 O 242.568 -2.52969 -3.257 0
M  V30 2582 H 241.909 -0.570734 -0.33935 0
M  V30 2583 H 244.439 -1.99377 -0.459324 0
M  V30 2584 H 244.449 -3.1168 -2.63286 0
M  V30 2585 H 243.124 -3.79511 -1.7013 0
M  V30 2586 H 241.701 -2.38332 -2.86797 0
M  V30 2587 N 243.887 0.651787 -1.4349 0
M  V30 2588 C 245.112 1.44434 -1.48841 0
M  V30 2589 C 245.537 1.8779 -0.107955 0
M  V30 2590 O 244.895 1.57464 0.898602 0
M  V30 2591 C 244.943 2.65458 -2.44059 0
M  V30 2592 O 244.047 3.64566 -1.92784 0
M  V30 2593 H 243.388 0.433005 -0.503391 0
M  V30 2594 H 245.918 0.797451 -1.88419 0
M  V30 2595 H 245.928 3.13255 -2.6141 0
M  V30 2596 H 244.603 2.33244 -3.4434 0
M  V30 2597 H 243.18 3.23716 -1.851 0
M  V30 2598 N 245.365 1.30045 0.890287 0
M  V30 2599 C 246.312 1.15976 1.99545 0
M  V30 2600 C 247.282 0.0506202 1.66023 0
M  V30 2601 O 248.467 0.219847 1.89529 0
M  V30 2602 C 245.607 0.852054 3.34416 0
M  V30 2603 C 244.72 2.04255 3.80662 0
M  V30 2604 C 243.855 1.6734 5.04154 0
M  V30 2605 C 242.894 2.82916 5.42794 0
M  V30 2606 N 242.031 2.46333 6.57468 0
M  V30 2607 H 246.871 2.10524 2.10911 0
M  V30 2608 H 244.408 1.04749 1.03276 0
M  V30 2609 H 246.366 0.654296 4.12037 0
M  V30 2610 H 244.996 -0.0565502 3.2275 0
M  V30 2611 H 244.048 2.35172 2.98995 0
M  V30 2612 H 245.36 2.90826 4.05242 0
M  V30 2613 H 244.514 1.43908 5.89386 0
M  V30 2614 H 243.253 0.779308 4.81433 0
M  V30 2615 H 242.258 3.0702 4.56091 0
M  V30 2616 H 243.483 3.73004 5.6749 0
M  V30 2617 H 241.429 1.59423 6.36334 0
M  V30 2618 H 241.346 3.26436 6.81891 0
M  V30 2619 H 242.614 2.26244 7.45945 0
M  V30 2620 N 246.843 -1.10192 1.12674 0
M  V30 2621 C 248.091 -1.81845 0.881861 0
M  V30 2622 C 248.412 -1.85737 -0.593867 0
M  V30 2623 O 247.682 -1.33724 -1.4316 0
M  V30 2624 H 246.262 -0.673432 0.323261 0
M  V30 2625 H 248.924 -1.33316 1.42172 0
M  V30 2626 H 248.02 -2.85288 1.2656 0
M  V30 2627 N 248.321 -0.919034 -1.28029 0
M  V30 2628 C 249.569 -0.553838 -1.94363 0
M  V30 2629 C 249.89 0.906357 -1.72656 0
M  V30 2630 O 249.16 1.64143 -1.0693 0
M  V30 2631 H 247.74 -0.201834 -0.719216 0
M  V30 2632 H 250.402 -1.16954 -1.55909 0
M  V30 2633 H 249.498 -0.752758 -3.02886 0
M  V30 2634 N 249.799 1.42003 -0.683588 0
M  V30 2635 C 251.047 2.01015 -0.209101 0
M  V30 2636 C 251.368 1.54365 1.19149 0
M  V30 2637 O 250.638 0.769083 1.80172 0
M  V30 2638 H 249.218 0.743294 -0.074315 0
M  V30 2639 H 251.88 1.73798 -0.882066 0
M  V30 2640 H 250.976 3.11343 -0.2172 0
M  V30 2641 N 251.277 0.427512 1.51691 0
M  V30 2642 C 252.525 -0.141948 2.01601 0
M  V30 2643 C 252.846 -1.44067 1.31414 0
M  V30 2644 O 252.116 -1.90763 0.445658 0
M  V30 2645 H 250.696 -0.0554468 0.744939 0
M  V30 2646 H 253.358 0.567968 1.86441 0
M  V30 2647 H 252.454 -0.324913 3.10404 0
M  V30 2648 N 252.755 -1.56801 0.158532 0
M  V30 2649 C 253.985 -2.00568 -0.495583 0
M  V30 2650 C 254.393 -1.03774 -1.58201 0
M  V30 2651 O 253.736 -0.0285797 -1.83678 0
M  V30 2652 C 253.798 -3.40768 -1.14532 0
M  V30 2653 C 253.462 -4.56553 -0.202101 0
M  V30 2654 C 254.459 -5.16714 0.574675 0
M  V30 2655 C 252.144 -5.02197 -0.101648 0
M  V30 2656 C 254.138 -6.20939 1.43924 0
M  V30 2657 C 251.825 -6.06274 0.766508 0
M  V30 2658 C 252.823 -6.65515 1.53555 0
M  V30 2659 O 252.511 -7.67575 2.38922 0
M  V30 2660 H 252.243 -0.662893 -0.13247 0
M  V30 2661 H 254.797 -2.03829 0.253559 0
M  V30 2662 H 253.027 -3.34381 -1.94233 0
M  V30 2663 H 254.716 -3.6857 -1.70033 0
M  V30 2664 H 255.482 -4.82341 0.507167 0
M  V30 2665 H 251.361 -4.55807 -0.689994 0
M  V30 2666 H 254.905 -6.67107 2.03996 0
M  V30 2667 H 250.802 -6.40073 0.835266 0
M  V30 2668 H 251.57 -7.84844 2.32296 0
M  V30 2669 N 254.233 0.115231 -1.57178 0
M  V30 2670 C 255.461 0.836437 -1.89239 0
M  V30 2671 C 255.876 1.73256 -0.750175 0
M  V30 2672 O 255.233 1.80357 0.278832 0
M  V30 2673 C 255.284 1.66671 -3.20785 0
M  V30 2674 O 255.005 0.806652 -4.3061 0
M  V30 2675 C 256.506 2.49274 -3.66575 0
M  V30 2676 H 253.726 0.240253 -0.626514 0
M  V30 2677 H 256.27 0.0984932 -2.04263 0
M  V30 2678 H 254.425 2.35737 -3.0742 0
M  V30 2679 H 254.839 1.37969 -5.06028 0
M  V30 2680 H 256.313 3.03055 -4.6137 0
M  V30 2681 H 256.79 3.26807 -2.93417 0
M  V30 2682 H 257.396 1.85443 -3.82741 0
M  V30 2683 N 255.711 1.52812 0.385517 0
M  V30 2684 C 256.951 1.69716 1.13911 0
M  V30 2685 C 257.315 0.42962 1.87132 0
M  V30 2686 O 258.516 0.475071 2.64569 0
M  V30 2687 C 256.787 2.90021 2.0886 0
M  V30 2688 S 258.346 3.27531 2.92009 0
M  V30 2689 H 255.164 0.59739 0.385547 0
M  V30 2690 H 257.766 1.90868 0.423061 0
M  V30 2691 H 256.47 3.80493 1.53797 0
M  V30 2692 H 256.001 2.71213 2.84969 0
M  V30 2693 H 258.016 2.77989 4.11019 0
M  V30 2694 N 257.189 -0.644168 1.43834 0
M  V30 2695 C 258.121 -1.76955 1.45669 0
M  V30 2696 C 259.134 -1.58956 0.351666 0
M  V30 2697 O 260.323 -1.6751 0.616644 0
M  V30 2698 C 257.423 -3.14507 1.26248 0
M  V30 2699 C 256.596 -3.59083 2.49757 0
M  V30 2700 C 255.655 -4.75467 2.25427 0
M  V30 2701 O 254.681 -4.84444 2.98836 0
M  V30 2702 N 255.883 -5.66289 1.27661 0
M  V30 2703 H 258.648 -1.75856 2.42682 0
M  V30 2704 H 256.209 -0.828312 1.39106 0
M  V30 2705 H 258.201 -3.90067 1.0784 0
M  V30 2706 H 256.771 -3.10325 0.376478 0
M  V30 2707 H 255.991 -2.7387 2.8353 0
M  V30 2708 H 257.279 -3.85613 3.31934 0
M  V30 2709 H 256.677 -5.61718 0.670064 0
M  V30 2710 H 255.234 -6.41533 1.15234 0
M  V30 2711 N 258.668 -1.30515 -0.883378 0
M  V30 2712 C 259.893 -1.22487 -1.67367 0
M  V30 2713 C 260.318 0.208767 -1.86938 0
M  V30 2714 O 259.676 1.15015 -1.40148 0
M  V30 2715 C 259.724 -1.96041 -3.02655 0
M  V30 2716 O 258.828 -1.28859 -3.91751 0
M  V30 2717 H 258.169 -0.423573 -0.511353 0
M  V30 2718 H 260.699 -1.72362 -1.10239 0
M  V30 2719 H 260.709 -2.05124 -3.52687 0
M  V30 2720 H 259.384 -3.00307 -2.8773 0
M  V30 2721 H 257.961 -1.28141 -3.50192 0
M  V30 2722 N 260.146 1.09593 -1.13257 0
M  V30 2723 C 261.394 1.81375 -0.891492 0
M  V30 2724 C 261.715 1.86049 0.584009 0
M  V30 2725 O 260.985 1.34481 1.42449 0
M  V30 2726 H 259.565 0.671708 -0.326828 0
M  V30 2727 H 262.227 1.3256 -1.42877 0
M  V30 2728 H 261.323 2.84612 -1.28071 0
M  V30 2729 N 261.624 0.925811 1.2754 0
M  V30 2730 C 262.849 0.580924 1.99098 0
M  V30 2731 C 263.274 -0.833555 1.68622 0
M  V30 2732 O 262.632 -1.55903 0.925422 0
M  V30 2733 C 262.68 0.811186 3.51358 0
M  V30 2734 O 261.784 -0.124129 4.12213 0
M  V30 2735 H 261.125 0.223873 0.625122 0
M  V30 2736 H 263.655 1.24455 1.62395 0
M  V30 2737 H 263.665 0.72601 4.01489 0
M  V30 2738 H 262.34 1.84227 3.72872 0
M  V30 2739 H 260.917 0.0108006 3.72898 0
M  V30 2740 N 263.102 -1.41638 0.69111 0
M  V30 2741 C 264.35 -2.00902 0.219758 0
M  V30 2742 C 264.671 -1.54994 -1.18329 0
M  V30 2743 O 263.941 -0.778628 -1.79762 0
M  V30 2744 H 262.521 -0.74289 0.0782558 0
M  V30 2745 H 265.183 -1.73327 0.891271 0
M  V30 2746 H 264.279 -3.11224 0.233708 0
M  V30 2747 N 264.58 -0.43555 -1.51462 0
M  V30 2748 C 265.826 0.123979 -2.03022 0
M  V30 2749 C 266.181 1.4054 -1.31401 0
M  V30 2750 O 265.474 1.86948 -0.419634 0
M  V30 2751 C 265.668 0.39942 -3.55161 0
M  V30 2752 C 265.497 -0.853754 -4.41521 0
M  V30 2753 C 264.267 -1.38675 -4.85898 0
M  V30 2754 C 266.465 -1.73939 -4.83994 0
M  V30 2755 N 264.447 -2.59265 -5.56466 0
M  V30 2756 C 265.818 -2.79135 -5.5361 0
M  V30 2757 C 267.873 -1.75402 -4.65981 0
M  V30 2758 C 266.576 -3.85737 -6.07124 0
M  V30 2759 C 268.602 -2.80938 -5.20411 0
M  V30 2760 C 267.964 -3.84854 -5.89972 0
M  V30 2761 H 264.063 0.00624887 -0.781975 0
M  V30 2762 H 266.647 -0.59582 -1.85359 0
M  V30 2763 H 264.818 1.08825 -3.72843 0
M  V30 2764 H 266.55 0.95015 -3.93388 0
M  V30 2765 H 263.305 -0.94094 -4.64159 0
M  V30 2766 H 263.729 -3.2041 -5.96378 0
M  V30 2767 H 268.371 -0.963926 -4.11665 0
M  V30 2768 H 266.089 -4.65586 -6.60496 0
M  V30 2769 H 269.675 -2.8301 -5.08327 0
M  V30 2770 H 268.555 -4.65176 -6.31333 0
M  V30 2771 N 266.058 1.56714 -0.166846 0
M  V30 2772 C 267.335 1.88412 0.525373 0
M  V30 2773 C 267.715 1.07602 1.81618 0
M  V30 2774 O 267.063 0.168621 2.27877 0
M  V30 2775 C 267.273 3.40363 0.771613 0
M  V30 2776 C 268.621 4.10007 1.1036 0
M  V30 2777 O 269.645 3.45655 0.860304 0
M  V30 2778 O 268.504 5.2369 1.56239 0
M  V30 2779 H 265.598 0.781587 0.270278 0
M  V30 2780 H 268.144 1.68458 -0.204946 0
M  V30 2781 H 266.916 3.91046 -0.141093 0
M  V30 2782 H 266.539 3.65914 1.55541 0
M  V30 2783 N 267.536 -0.106894 1.57237 0
M  V30 2784 C 268.446 -1.14911 2.0453 0
M  V30 2785 C 269.462 -1.44592 0.96795 0
M  V30 2786 O 270.638 -1.55468 1.2803 0
M  V30 2787 C 267.703 -2.45272 2.45036 0
M  V30 2788 C 266.764 -2.22879 3.66911 0
M  V30 2789 C 265.997 -3.47024 4.05475 0
M  V30 2790 O 266.22 -4.54804 3.44252 0
M  V30 2791 O 265.154 -3.3731 4.98504 0
M  V30 2792 H 268.98 -0.777461 2.9358 0
M  V30 2793 H 266.565 -0.318563 1.45964 0
M  V30 2794 H 268.447 -3.22055 2.71769 0
M  V30 2795 H 267.122 -2.81886 1.59129 0
M  V30 2796 H 266.029 -1.43915 3.45311 0
M  V30 2797 H 267.362 -1.91163 4.53561 0
M  V30 2798 N 269.014 -1.53014 -0.377408 0
M  V30 2799 C 270.261 -1.68623 -1.12128 0
M  V30 2800 C 270.589 -0.431997 -1.89642 0
M  V30 2801 O 269.844 0.585855 -1.86725 0
M  V30 2802 C 270.143 -2.87982 -2.11663 0
M  V30 2803 C 269.809 -4.24964 -1.50719 0
M  V30 2804 C 268.471 -4.62217 -1.33825 0
M  V30 2805 C 270.823 -5.10199 -1.06519 0
M  V30 2806 C 268.151 -5.82352 -0.712963 0
M  V30 2807 C 270.503 -6.30969 -0.453955 0
M  V30 2808 C 269.167 -6.66944 -0.272411 0
M  V30 2809 H 268.437 -0.617034 -0.410305 0
M  V30 2810 H 271.084 -1.8718 -0.404484 0
M  V30 2811 H 269.389 -2.63889 -2.89603 0
M  V30 2812 H 271.086 -2.97253 -2.6915 0
M  V30 2813 H 267.676 -3.95626 -1.64858 0
M  V30 2814 H 271.86 -4.81978 -1.18368 0
M  V30 2815 H 267.116 -6.08824 -0.560611 0
M  V30 2816 H 271.29 -6.96324 -0.103217 0
M  V30 2817 H 268.917 -7.59898 0.214181 0
M  V30 2818 N 270.492 0.636531 -1.44174 0
M  V30 2819 C 271.72 1.42353 -1.50144 0
M  V30 2820 C 272.135 1.88389 -0.124575 0
M  V30 2821 O 271.492 1.6051 0.868489 0
M  V30 2822 C 271.543 2.64744 -2.46156 0
M  V30 2823 O 271.264 2.20629 -3.7849 0
M  V30 2824 C 272.765 3.57929 -2.61537 0
M  V30 2825 H 269.985 0.436752 -0.5094 0
M  V30 2826 H 272.529 0.778933 -1.89084 0
M  V30 2827 H 270.684 3.25307 -2.10366 0
M  V30 2828 H 271.098 2.99938 -4.30276 0
M  V30 2829 H 272.572 4.40428 -3.32757 0
M  V30 2830 H 273.049 4.06382 -1.66585 0
M  V30 2831 H 273.655 3.03238 -2.98206 0
M  V30 2832 N 271.97 1.30982 0.876444 0
M  V30 2833 C 272.917 1.18085 1.98304 0
M  V30 2834 C 273.887 0.0682263 1.6596 0
M  V30 2835 O 275.072 0.239937 1.89285 0
M  V30 2836 C 272.212 0.887475 3.33493 0
M  V30 2837 C 271.325 2.08281 3.78475 0
M  V30 2838 C 270.46 1.72678 5.0235 0
M  V30 2839 C 269.499 2.88657 5.39762 0
M  V30 2840 N 268.636 2.53292 6.54819 0
M  V30 2841 H 273.476 2.1275 2.08666 0
M  V30 2842 H 271.013 1.05839 1.02159 0
M  V30 2843 H 272.971 0.697961 4.1132 0
M  V30 2844 H 271.601 -0.022315 3.22792 0
M  V30 2845 H 270.653 2.3833 2.96484 0
M  V30 2846 H 271.965 2.95108 4.02135 0
M  V30 2847 H 271.119 1.50151 5.87826 0
M  V30 2848 H 269.858 0.830327 4.8058 0
M  V30 2849 H 268.863 3.1184 4.52809 0
M  V30 2850 H 270.088 3.79002 5.63502 0
M  V30 2851 H 268.034 1.66163 6.34607 0
M  V30 2852 H 267.951 3.3365 6.7839 0
M  V30 2853 H 269.219 2.34143 7.43503 0
M  V30 2854 N 273.449 -1.08991 1.13837 0
M  V30 2855 C 274.399 -2.1393 0.788535 0
M  V30 2856 C 275.383 -1.59396 -0.219516 0
M  V30 2857 O 276.575 -1.76985 -0.0227557 0
M  V30 2858 C 273.704 -3.42305 0.261147 0
M  V30 2859 C 272.79 -4.03736 1.29837 0
M  V30 2860 N 273.181 -4.39659 2.50067 0
M  V30 2861 C 271.479 -4.30993 1.1472 0
M  V30 2862 C 272.18 -4.88113 3.16419 0
M  V30 2863 N 271.156 -4.85846 2.43832 0
M  V30 2864 H 274.958 -2.39516 1.70322 0
M  V30 2865 H 272.472 -1.26263 1.02134 0
M  V30 2866 H 274.469 -4.16899 -0.0077405 0
M  V30 2867 H 273.129 -3.18172 -0.647805 0
M  V30 2868 H 274.14 -4.30878 2.8734 0
M  V30 2869 H 270.817 -4.16444 0.296773 0
M  V30 2870 H 272.207 -5.25336 4.18894 0
M  V30 2871 N 274.927 -0.932562 -1.27047 0
M  V30 2872 C 276.173 -0.576412 -1.94436 0
M  V30 2873 C 276.506 0.880891 -1.73072 0
M  V30 2874 O 275.781 1.62905 -1.06264 0
M  V30 2875 C 276.064 -0.909031 -3.48437 0
M  V30 2876 C 275.917 -2.42044 -3.79123 0
M  V30 2877 C 277.236 -0.418341 -4.38107 0
M  V30 2878 H 274.355 -0.210888 -0.706184 0
M  V30 2879 H 276.997 -1.16522 -1.50075 0
M  V30 2880 H 275.147 -0.407947 -3.86352 0
M  V30 2881 H 276.819 -2.99359 -3.50973 0
M  V30 2882 H 275.062 -2.86758 -3.25503 0
M  V30 2883 H 275.733 -2.6037 -4.86736 0
M  V30 2884 H 278.209 -0.847856 -4.0737 0
M  V30 2885 H 277.085 -0.679981 -5.44672 0
M  V30 2886 H 277.346 0.681642 -4.36814 0
M  V30 2887 N 276.405 1.4127 -0.698611 0
M  V30 2888 C 277.633 2.05503 -0.239992 0
M  V30 2889 C 278.048 1.52584 1.11191 0
M  V30 2890 O 277.405 0.675323 1.69545 0
M  V30 2891 C 277.456 3.60987 -0.192429 0
M  V30 2892 O 277.177 4.1195 -1.49094 0
M  V30 2893 C 278.678 4.42371 0.28681 0
M  V30 2894 H 275.898 0.661748 -0.111045 0
M  V30 2895 H 278.442 1.80987 -0.95205 0
M  V30 2896 H 276.597 3.84533 0.470472 0
M  V30 2897 H 277.011 5.06018 -1.38007 0
M  V30 2898 H 278.485 5.51344 0.26896 0
M  V30 2899 H 278.962 4.18699 1.32619 0
M  V30 2900 H 279.568 4.23897 -0.345201 0
M  V30 2901 N 277.883 0.443576 1.51229 0
M  V30 2902 C 279.108 -0.121648 2.07043 0
M  V30 2903 C 279.533 -1.35156 1.30823 0
M  V30 2904 O 278.891 -1.7793 0.347934 0
M  V30 2905 C 278.939 -0.41624 3.5819 0
M  V30 2906 O 278.043 -1.50163 3.8409 0
M  V30 2907 H 277.384 0.000871367 0.663999 0
M  V30 2908 H 279.914 0.626706 1.94765 0
M  V30 2909 H 279.924 -0.664867 4.02546 0
M  V30 2910 H 278.599 0.482653 4.1309 0
M  V30 2911 H 277.176 -1.24248 3.51592 0
M  V30 2912 N 279.361 -1.56624 0.175154 0
M  V30 2913 C 280.271 -2.21741 -0.766042 0
M  V30 2914 C 281.287 -1.21023 -1.25018 0
M  V30 2915 O 282.463 -1.53697 -1.3015 0
M  V30 2916 C 279.528 -2.84839 -1.97655 0
M  V30 2917 C 278.589 -4.00769 -1.53892 0
M  V30 2918 C 277.822 -4.60849 -2.69173 0
M  V30 2919 O 278.045 -4.19823 -3.86141 0
M  V30 2920 O 276.979 -5.50655 -2.43028 0
M  V30 2921 H 280.805 -3.02738 -0.241585 0
M  V30 2922 H 278.39 -1.49305 -0.053222 0
M  V30 2923 H 280.272 -3.24834 -2.68442 0
M  V30 2924 H 278.947 -2.06836 -2.48999 0
M  V30 2925 H 277.854 -3.65436 -0.80044 0
M  V30 2926 H 279.187 -4.80376 -1.07236 0
M  V30 2927 N 280.839 0.0985539 -1.57292 0
M  V30 2928 C 282.079 0.808332 -1.87737 0
M  V30 2929 C 282.443 1.7607 -0.76572 0
M  V30 2930 O 283.644 2.51358 -0.952499 0
M  V30 2931 C 281.915 1.52093 -3.23423 0
M  V30 2932 S 283.474 2.26947 -3.75554 0
M  V30 2933 H 280.292 0.269377 -0.657995 0
M  V30 2934 H 282.894 0.0656269 -1.9539 0
M  V30 2935 H 281.598 0.81363 -4.02254 0
M  V30 2936 H 281.129 2.30361 -3.189 0
M  V30 2937 H 283.144 3.53027 -3.48692 0
M  V30 2938 N 282.317 1.53212 0.369288 0
M  V30 2939 C 283.247 1.82365 1.45826 0
M  V30 2940 C 284.228 0.676907 1.56051 0
M  V30 2941 O 285.413 0.926401 1.70679 0
M  V30 2942 C 282.543 2.01023 2.83208 0
M  V30 2943 C 281.497 3.1678 2.8781 0
M  V30 2944 C 280.823 3.20724 4.27832 0
M  V30 2945 C 282.123 4.55447 2.55667 0
M  V30 2946 H 283.817 2.73559 1.21678 0
M  V30 2947 H 281.363 1.3163 0.583911 0
M  V30 2948 H 283.316 2.20001 3.59413 0
M  V30 2949 H 282.04 1.06536 3.08736 0
M  V30 2950 H 280.699 2.97616 2.14056 0
M  V30 2951 H 280.347 2.23882 4.50429 0
M  V30 2952 H 280.047 3.98496 4.31827 0
M  V30 2953 H 281.571 3.41881 5.05915 0
M  V30 2954 H 282.985 4.74611 3.21586 0
M  V30 2955 H 281.382 5.35432 2.70984 0
M  V30 2956 H 282.452 4.60812 1.5093 0
M  V30 2957 N 283.795 -0.628877 1.44509 0
M  V30 2958 C 285.043 -1.38565 1.4712 0
M  V30 2959 C 285.364 -1.94712 0.105899 0
M  V30 2960 O 284.634 -1.75912 -0.862079 0
M  V30 2961 H 283.214 -0.514333 0.541729 0
M  V30 2962 H 285.876 -0.740018 1.80305 0
M  V30 2963 H 284.972 -2.21583 2.19789 0
M  V30 2964 N 285.273 -1.31445 -0.869486 0
M  V30 2965 C 286.519 -1.22347 -1.62489 0
M  V30 2966 C 286.874 0.216204 -1.91181 0
M  V30 2967 O 286.167 1.14977 -1.53268 0
M  V30 2968 C 286.361 -2.00145 -2.96102 0
M  V30 2969 C 286.19 -3.51531 -2.80456 0
M  V30 2970 C 284.96 -4.20882 -2.79618 0
M  V30 2971 C 287.158 -4.46471 -2.5528 0
M  V30 2972 N 285.14 -5.58421 -2.55027 0
M  V30 2973 C 286.511 -5.71682 -2.39957 0
M  V30 2974 C 288.566 -4.35892 -2.40629 0
M  V30 2975 C 287.269 -6.87511 -2.11472 0
M  V30 2976 C 289.295 -5.51505 -2.13532 0
M  V30 2977 C 288.657 -6.75707 -1.98998 0
M  V30 2978 H 284.756 -0.502815 -0.598917 0
M  V30 2979 H 287.34 -1.65639 -1.02332 0
M  V30 2980 H 285.511 -1.59221 -3.54264 0
M  V30 2981 H 287.243 -1.83063 -3.60929 0
M  V30 2982 H 283.998 -3.72857 -2.92018 0
M  V30 2983 H 284.422 -6.30841 -2.45701 0
M  V30 2984 H 289.064 -3.40533 -2.50593 0
M  V30 2985 H 286.782 -7.82897 -2.00245 0
M  V30 2986 H 290.368 -5.45238 -2.02995 0
M  V30 2987 H 289.248 -7.63655 -1.78326 0
M  V30 2988 N 286.751 1.08385 -1.14413 0
M  V30 2989 C 287.684 2.14642 -0.774871 0
M  V30 2990 C 288.662 1.60761 0.243876 0
M  V30 2991 O 289.846 1.88031 0.132883 0
M  V30 2992 C 286.973 3.38366 -0.150491 0
M  V30 2993 C 286.019 4.10997 -1.13945 0
M  V30 2994 S 286.852 4.63797 -2.67679 0
M  V30 2995 C 288.008 5.90808 -2.06631 0
M  V30 2996 H 288.241 2.45633 -1.67487 0
M  V30 2997 H 285.774 1.20498 -0.96538 0
M  V30 2998 H 287.732 4.09996 0.203334 0
M  V30 2999 H 286.393 3.05572 0.72694 0
M  V30 3000 H 285.586 4.99783 -0.65059 0
M  V30 3001 H 285.188 3.4528 -1.43727 0
M  V30 3002 H 287.48 6.62411 -1.4219 0
M  V30 3003 H 288.423 6.4439 -2.93542 0
M  V30 3004 H 288.831 5.4383 -1.51357 0
M  V30 3005 N 288.23 0.939286 1.26551 0
M  V30 3006 C 289.646 0.641304 1.46149 0
M  V30 3007 C 289.846 -0.805964 1.84679 0
M  V30 3008 O 288.902 -1.58278 1.96734 0
M  V30 3009 C 290.215 1.6011 2.54529 0
M  V30 3010 C 291.763 1.6106 2.68382 0
M  V30 3011 C 292.238 2.55765 3.79932 0
M  V30 3012 N 293.729 2.5404 3.87322 0
M  V30 3013 C 294.464 3.24004 4.73085 0
M  V30 3014 N 293.96 4.03388 5.63249 0
M  V30 3015 N 295.753 3.12965 4.66914 0
M  V30 3016 H 287.904 1.87478 0.998285 0
M  V30 3017 H 290.167 0.805559 0.499779 0
M  V30 3018 H 289.873 2.63412 2.33039 0
M  V30 3019 H 289.747 1.35171 3.52149 0
M  V30 3020 H 292.134 0.584835 2.89247 0
M  V30 3021 H 292.215 1.90053 1.71212 0
M  V30 3022 H 291.859 3.58458 3.5982 0
M  V30 3023 H 291.789 2.24063 4.76554 0
M  V30 3024 H 294.28 1.96396 3.22858 0
M  V30 3025 H 294.593 4.5373 6.25579 0
M  V30 3026 H 292.938 4.07489 5.63008 0
M  V30 3027 H 296.129 2.50432 3.95476 0
M  V30 3028 H 296.302 3.67759 5.33533 0
M  V30 3029 N 289.708 -1.40897 0.706093 0
M  V30 3030 C 290.64 -2.29199 0.00815776 0
M  V30 3031 C 291.653 -1.45336 -0.733582 0
M  V30 3032 O 292.842 -1.68727 -0.582537 0
M  V30 3033 C 289.942 -3.23417 -1.01265 0
M  V30 3034 C 289.115 -4.36089 -0.338387 0
M  V30 3035 C 288.174 -5.10811 -1.26326 0
M  V30 3036 O 287.2 -5.64215 -0.751651 0
M  V30 3037 N 288.402 -5.19269 -2.595 0
M  V30 3038 H 291.167 -2.89738 0.766297 0
M  V30 3039 H 288.728 -1.52164 0.55296 0
M  V30 3040 H 290.72 -3.70276 -1.63334 0
M  V30 3041 H 289.29 -2.64112 -1.67223 0
M  V30 3042 H 288.51 -3.91479 0.462352 0
M  V30 3043 H 289.798 -5.08634 0.130031 0
M  V30 3044 H 289.196 -4.77347 -3.03573 0
M  V30 3045 H 287.753 -5.69667 -3.16737 0
M  V30 3046 N 291.186 -0.45159 -1.50991 0
M  V30 3047 C 292.118 0.388634 -2.25881 0
M  V30 3048 C 293.131 0.974041 -1.30446 0
M  V30 3049 O 294.32 0.865758 -1.56099 0
M  V30 3050 C 291.42 1.5571 -3.01011 0
M  V30 3051 C 290.593 1.08801 -4.23652 0
M  V30 3052 C 289.652 2.12825 -4.8124 0
M  V30 3053 O 288.678 1.71678 -5.42693 0
M  V30 3054 N 289.88 3.45453 -4.66522 0
M  V30 3055 H 292.645 -0.25329 -2.98628 0
M  V30 3056 H 290.206 -0.281268 -1.59438 0
M  V30 3057 H 292.198 2.24952 -3.3642 0
M  V30 3058 H 290.768 2.10409 -2.31186 0
M  V30 3059 H 289.988 0.22215 -3.93574 0
M  V30 3060 H 291.276 0.752213 -5.03209 0
M  V30 3061 H 290.674 3.81605 -4.17605 0
M  V30 3062 H 289.231 4.10549 -5.06254 0
M  V30 3063 N 292.664 1.56529 -0.183458 0
M  V30 3064 C 294.08 1.58664 0.172554 0
M  V30 3065 C 294.28 1.19925 1.61926 0
M  V30 3066 O 293.336 0.916534 2.35278 0
M  V30 3067 C 294.649 3.00463 -0.119262 0
M  V30 3068 C 296.197 3.12945 -0.0584396 0
M  V30 3069 C 296.672 4.56857 -0.323408 0
M  V30 3070 N 298.163 4.62403 -0.271612 0
M  V30 3071 C 298.898 5.71626 -0.450639 0
M  V30 3072 N 298.394 6.89362 -0.689384 0
M  V30 3073 N 300.187 5.60775 -0.385701 0
M  V30 3074 H 292.338 1.79994 -1.12765 0
M  V30 3075 H 294.601 0.834808 -0.449222 0
M  V30 3076 H 294.307 3.33326 -1.12192 0
M  V30 3077 H 294.181 3.72659 0.583544 0
M  V30 3078 H 296.568 2.79902 0.934805 0
M  V30 3079 H 296.649 2.4316 -0.794144 0
M  V30 3080 H 296.293 4.9061 -1.31392 0
M  V30 3081 H 296.223 5.24816 0.43305 0
M  V30 3082 H 298.714 3.77785 -0.0932256 0
M  V30 3083 H 299.027 7.68489 -0.815113 0
M  V30 3084 H 297.372 6.91196 -0.726142 0
M  V30 3085 H 300.563 4.67674 -0.199687 0
M  V30 3086 H 300.736 6.4584 -0.528646 0
M  V30 3087 N 294.142 -0.090211 1.57342 0
M  V30 3088 C 295.105 -1.09335 2.01441 0
M  V30 3089 C 296.105 -1.32666 0.908641 0
M  V30 3090 O 297.295 -1.28697 1.174 0
M  V30 3091 C 294.427 -2.44136 2.3793 0
M  V30 3092 H 295.62 -0.713662 2.91285 0
M  V30 3093 H 293.173 -0.335404 1.52659 0
M  V30 3094 H 293.908 -2.86972 1.51055 0
M  V30 3095 H 293.693 -2.28548 3.18603 0
M  V30 3096 H 295.183 -3.16277 2.72688 0
M  V30 3097 N 295.62 -1.53406 -0.361157 0
M  V30 3098 C 296.53 -1.83122 -1.4664 0
M  V30 3099 C 297.546 -0.719943 -1.58407 0
M  V30 3100 O 298.722 -1.01046 -1.74218 0
M  V30 3101 C 295.787 -2.01891 -2.81853 0
M  V30 3102 C 294.848 -3.25784 -2.79577 0
M  V30 3103 C 294.081 -3.43648 -4.0834 0
M  V30 3104 O 294.304 -2.65714 -5.0473 0
M  V30 3105 O 293.238 -4.37018 -4.13883 0
M  V30 3106 H 297.064 -2.7703 -1.24451 0
M  V30 3107 H 294.649 -1.38841 -0.551678 0
M  V30 3108 H 296.531 -2.15782 -3.61962 0
M  V30 3109 H 295.206 -1.11173 -3.0401 0
M  V30 3110 H 294.113 -3.17312 -1.98151 0
M  V30 3111 H 295.446 -4.16439 -2.62373 0
M  V30 3112 N 297.098 0.621204 -1.44841 0
M  V30 3113 C 298.031 1.7459 -1.46947 0
M  V30 3114 C 299.009 1.59273 -0.327238 0
M  V30 3115 O 300.193 1.81021 -0.525706 0
M  V30 3116 C 297.32 3.12274 -1.31159 0
M  V30 3117 C 296.366 3.46216 -2.49072 0
M  V30 3118 S 297.199 3.4258 -4.11581 0
M  V30 3119 C 298.355 4.82867 -3.98233 0
M  V30 3120 H 298.588 1.72538 -2.42111 0
M  V30 3121 H 296.121 0.796683 -1.32259 0
M  V30 3122 H 298.079 3.91722 -1.22737 0
M  V30 3123 H 296.74 3.11855 -0.374885 0
M  V30 3124 H 295.933 4.4643 -2.33915 0
M  V30 3125 H 295.535 2.74253 -2.54286 0
M  V30 3126 H 297.827 5.7234 -3.62537 0
M  V30 3127 H 298.77 5.0308 -4.98313 0
M  V30 3128 H 299.178 4.57908 -3.30121 0
M  V30 3129 N 298.576 1.31904 0.862503 0
M  V30 3130 C 299.853 1.12644 1.59908 0
M  V30 3131 C 300.233 -0.316104 2.0872 0
M  V30 3132 O 299.581 -1.31145 1.87118 0
M  V30 3133 C 299.791 2.1472 2.7513 0
M  V30 3134 C 301.139 2.47637 3.44907 0
M  V30 3135 O 302.163 2.13205 2.85346 0
M  V30 3136 O 301.022 3.06632 4.52371 0
M  V30 3137 H 298.116 0.43416 0.703871 0
M  V30 3138 H 300.662 1.43408 0.907314 0
M  V30 3139 H 299.434 3.1172 2.3653 0
M  V30 3140 H 299.057 1.84905 3.51989 0
M  V30 3141 N 300.054 -1.07777 1.14986 0
M  V30 3142 C 300.987 -2.14228 0.786243 0
M  V30 3143 C 301.965 -1.60888 -0.235347 0
M  V30 3144 O 303.149 -1.88099 -0.122909 0
M  V30 3145 C 300.276 -3.38281 0.168433 0
M  V30 3146 C 299.322 -4.10387 1.16123 0
M  V30 3147 S 300.155 -4.62371 2.70135 0
M  V30 3148 C 301.311 -5.89704 2.09762 0
M  V30 3149 H 301.544 -2.44741 1.68787 0
M  V30 3150 H 299.077 -1.19984 0.971756 0
M  V30 3151 H 301.035 -4.10098 -0.181588 0
M  V30 3152 H 299.696 -3.05953 -0.710725 0
M  V30 3153 H 298.889 -4.99431 0.677086 0
M  V30 3154 H 298.491 -3.44513 1.45556 0
M  V30 3155 H 300.783 -6.61648 1.45701 0
M  V30 3156 H 301.726 -6.42824 2.96955 0
M  V30 3157 H 302.134 -5.4302 1.54239 0
M  V30 3158 N 301.532 -0.945985 -1.26051 0
M  V30 3159 C 302.778 -0.597002 -1.93814 0
M  V30 3160 C 303.111 0.862484 -1.73997 0
M  V30 3161 O 302.386 1.61769 -1.07986 0
M  V30 3162 C 302.669 -0.945937 -3.47454 0
M  V30 3163 C 302.522 -2.46052 -3.76535 0
M  V30 3164 C 303.841 -0.464785 -4.37639 0
M  V30 3165 H 300.96 -0.218366 -0.703907 0
M  V30 3166 H 303.602 -1.18107 -1.48831 0
M  V30 3167 H 301.752 -0.448902 -3.85898 0
M  V30 3168 H 303.424 -3.03065 -3.47778 0
M  V30 3169 H 301.667 -2.90194 -3.22444 0
M  V30 3170 H 302.338 -2.65517 -4.83947 0
M  V30 3171 H 304.814 -0.891016 -4.06448 0
M  V30 3172 H 303.69 -0.737712 -5.4392 0
M  V30 3173 H 303.951 0.635274 -4.37512 0
M  V30 3174 N 303.011 1.40521 -0.713556 0
M  V30 3175 C 303.974 2.29098 -0.0684347 0
M  V30 3176 C 304.974 1.45268 0.689472 0
M  V30 3177 O 306.164 1.66205 0.521677 0
M  V30 3178 C 303.296 3.28446 0.913024 0
M  V30 3179 H 304.489 2.87645 -0.84855 0
M  V30 3180 H 302.042 1.48809 -0.47809 0
M  V30 3181 H 302.777 2.74913 1.72027 0
M  V30 3182 H 302.562 3.90327 0.372472 0
M  V30 3183 H 304.052 3.94777 1.36165 0
M  V30 3184 N 304.489 0.459591 1.5075 0
M  V30 3185 C 305.735 -0.091664 2.03193 0
M  V30 3186 C 306.09 -1.38432 1.3362 0
M  V30 3187 O 305.383 -1.86257 0.449322 0
M  V30 3188 C 305.577 -0.342866 3.55752 0
M  V30 3189 C 305.406 0.923888 4.40107 0
M  V30 3190 C 304.176 1.46388 4.83631 0
M  V30 3191 C 306.374 1.81617 4.81165 0
M  V30 3192 N 304.356 2.68086 5.52271 0
M  V30 3193 C 305.727 2.87907 5.49099 0
M  V30 3194 C 307.782 1.82793 4.63132 0
M  V30 3195 C 306.485 3.95347 6.0091 0
M  V30 3196 C 308.511 2.89182 5.15876 0
M  V30 3197 C 307.873 3.94191 5.83774 0
M  V30 3198 H 303.972 0.00619247 0.781975 0
M  V30 3199 H 306.556 0.625233 1.84388 0
M  V30 3200 H 304.727 -1.0288 3.74527 0
M  V30 3201 H 306.459 -0.887445 3.9485 0
M  V30 3202 H 303.214 1.01466 4.62603 0
M  V30 3203 H 303.638 3.29857 5.91205 0
M  V30 3204 H 308.28 1.0293 4.1008 0
M  V30 3205 H 305.998 4.76035 6.53006 0
M  V30 3206 H 309.584 2.91061 5.0376 0
M  V30 3207 H 308.464 4.75161 6.23853 0
M  V30 3208 N 305.967 -1.56429 0.191757 0
M  V30 3209 C 307.215 -1.97095 -0.447006 0
M  V30 3210 C 307.536 -1.07967 -1.62383 0
M  V30 3211 O 306.806 -0.150248 -1.95323 0
M  V30 3212 H 305.386 -0.727832 -0.168135 0
M  V30 3213 H 308.048 -1.92911 0.27771 0
M  V30 3214 H 307.144 -3.01848 -0.793371 0
M  V30 3215 N 307.445 0.0818655 -1.57387 0
M  V30 3216 C 308.691 0.784074 -1.8703 0
M  V30 3217 C 309.024 1.77729 -0.782689 0
M  V30 3218 O 308.299 1.93384 0.208051 0
M  V30 3219 C 308.582 1.50105 -3.27323 0
M  V30 3220 C 308.435 0.524925 -4.46727 0
M  V30 3221 C 309.754 2.44843 -3.65705 0
M  V30 3222 H 306.873 0.283582 -0.680257 0
M  V30 3223 H 309.515 0.0474352 -1.89941 0
M  V30 3224 H 307.665 2.12897 -3.24972 0
M  V30 3225 H 309.337 -0.0970111 -4.61198 0
M  V30 3226 H 307.58 -0.160606 -4.33503 0
M  V30 3227 H 308.251 1.064 -5.41648 0
M  V30 3228 H 310.727 1.92135 -3.69085 0
M  V30 3229 H 309.603 2.92018 -4.64776 0
M  V30 3230 H 309.864 3.29197 -2.95096 0
M  V30 3231 N 308.923 1.53595 0.353017 0
M  V30 3232 C 310.2 1.61002 1.11075 0
M  V30 3233 C 310.58 0.425356 2.0677 0
M  V30 3234 O 309.928 -0.583267 2.2093 0
M  V30 3235 C 310.138 2.96631 1.83877 0
M  V30 3236 C 311.486 3.51653 2.37961 0
M  V30 3237 O 312.51 2.98743 1.93987 0
M  V30 3238 O 311.369 4.44177 3.18386 0
M  V30 3239 H 308.463 0.650825 0.510251 0
M  V30 3240 H 311.009 1.6594 0.35527 0
M  V30 3241 H 309.781 3.74293 1.14108 0
M  V30 3242 H 309.404 2.95242 2.66304 0
M  V30 3243 N 310.401 -0.613514 1.45168 0
M  V30 3244 C 311.331 -1.7354 1.56225 0
M  V30 3245 C 312.312 -1.64981 0.41414 0
M  V30 3246 O 313.497 -1.83472 0.636526 0
M  V30 3247 C 310.627 -3.12128 1.52295 0
M  V30 3248 C 309.581 -3.35491 2.65762 0
M  V30 3249 C 308.907 -4.74291 2.46885 0
M  V30 3250 C 310.207 -3.26325 4.0781 0
M  V30 3251 H 311.901 -1.64543 2.50132 0
M  V30 3252 H 309.447 -0.790185 1.20383 0
M  V30 3253 H 311.4 -3.90404 1.58628 0
M  V30 3254 H 310.124 -3.2195 0.549139 0
M  V30 3255 H 308.783 -2.59603 2.58847 0
M  V30 3256 H 308.431 -4.80839 1.47657 0
M  V30 3257 H 308.131 -4.9088 3.22972 0
M  V30 3258 H 309.655 -5.54775 2.55063 0
M  V30 3259 H 311.069 -3.94483 4.16 0
M  V30 3260 H 309.466 -3.54445 4.8424 0
M  V30 3261 H 310.536 -2.23855 4.30136 0
M  V30 3262 N 311.879 -1.3236 -0.855495 0
M  V30 3263 C 312.842 -1.21164 -1.94556 0
M  V30 3264 C 313.842 -0.134908 -1.60233 0
M  V30 3265 O 315.032 -0.385249 -1.69887 0
M  V30 3266 C 312.164 -0.863192 -3.29791 0
M  V30 3267 H 313.357 -2.18038 -2.05911 0
M  V30 3268 H 310.91 -1.16179 -1.04557 0
M  V30 3269 H 311.645 0.103769 -3.24134 0
M  V30 3270 H 311.43 -1.64166 -3.56078 0
M  V30 3271 H 312.92 -0.809156 -4.09686 0
M  V30 3272 N 313.357 1.07166 -1.15556 0
M  V30 3273 C 314.582 1.84053 -0.955988 0
M  V30 3274 C 315.007 1.81586 0.490739 0
M  V30 3275 O 314.365 1.21018 1.34997 0
M  V30 3276 C 314.413 3.28957 -1.47714 0
M  V30 3277 O 313.517 4.06795 -0.677593 0
M  V30 3278 H 312.858 0.569842 -0.340847 0
M  V30 3279 H 315.388 1.35178 -1.53584 0
M  V30 3280 H 315.398 3.79788 -1.4908 0
M  V30 3281 H 314.073 3.30068 -2.53037 0
M  V30 3282 H 312.65 3.6561 -0.733721 0
M  V30 3283 N 314.835 0.952656 1.25548 0
M  V30 3284 C 316.081 0.607272 1.93494 0
M  V30 3285 C 316.414 -0.853245 1.74452 0
M  V30 3286 O 315.689 -1.61194 1.08843 0
M  V30 3287 C 315.972 0.96435 3.46947 0
M  V30 3288 C 315.825 2.48045 3.75225 0
M  V30 3289 C 317.144 0.487987 4.37386 0
M  V30 3290 H 314.263 0.222096 0.702739 0
M  V30 3291 H 316.905 1.18895 1.48203 0
M  V30 3292 H 315.055 0.469361 3.85654 0
M  V30 3293 H 316.727 3.04905 3.46166 0
M  V30 3294 H 314.97 2.919 3.209 0
M  V30 3295 H 315.641 2.6808 4.82532 0
M  V30 3296 H 318.117 0.912558 4.0597 0
M  V30 3297 H 316.993 0.766547 5.43521 0
M  V30 3298 H 317.254 -0.612063 4.37843 0
M  V30 3299 N 316.313 -1.40141 0.720998 0
M  V30 3300 C 317.223 -2.34486 0.0731031 0
M  V30 3301 C 318.239 -1.57587 -0.737723 0
M  V30 3302 O 319.415 -1.89949 -0.669429 0
M  V30 3303 C 316.48 -3.36528 -0.833656 0
M  V30 3304 C 315.541 -4.29298 -0.0121673 0
M  V30 3305 C 314.774 -5.26466 -0.875742 0
M  V30 3306 O 314.997 -5.29745 -2.11485 0
M  V30 3307 O 313.931 -6.01092 -0.31185 0
M  V30 3308 H 317.757 -2.9152 0.851444 0
M  V30 3309 H 315.342 -1.41427 0.481527 0
M  V30 3310 H 317.224 -3.99093 -1.35289 0
M  V30 3311 H 315.899 -2.81899 -1.59105 0
M  V30 3312 H 314.806 -3.70001 0.552262 0
M  V30 3313 H 316.139 -4.87094 0.707129 0
M  V30 3314 N 317.792 -0.46758 -1.50504 0
M  V30 3315 C 318.724 0.364655 -2.26281 0
M  V30 3316 C 319.737 0.960151 -1.31472 0
M  V30 3317 O 320.926 0.849153 -1.57008 0
M  V30 3318 C 318.026 1.52509 -3.02645 0
M  V30 3319 C 317.199 1.04302 -4.24782 0
M  V30 3320 C 316.258 2.07709 -4.8347 0
M  V30 3321 O 315.284 1.65913 -5.44483 0
M  V30 3322 N 316.486 3.40485 -4.70159 0
M  V30 3323 H 319.251 -0.28495 -2.98342 0
M  V30 3324 H 316.812 -0.298163 -1.59131 0
M  V30 3325 H 318.804 2.21371 -3.38787 0
M  V30 3326 H 317.374 2.07945 -2.33404 0
M  V30 3327 H 316.594 0.180393 -3.93787 0
M  V30 3328 H 317.882 0.698798 -5.03978 0
M  V30 3329 H 317.28 3.77155 -4.21629 0
M  V30 3330 H 315.837 4.05156 -5.1058 0
M  V30 3331 N 319.27 1.56325 -0.20005 0
M  V30 3332 C 320.22 2.15939 0.731743 0
M  V30 3333 C 321.204 1.10154 1.17281 0
M  V30 3334 O 322.396 1.36203 1.13038 0
M  V30 3335 C 319.525 2.82614 1.94895 0
M  V30 3336 C 318.611 3.95596 1.52855 0
M  V30 3337 N 319.002 4.99118 0.819418 0
M  V30 3338 C 317.3 4.07288 1.81748 0
M  V30 3339 C 318.001 5.78513 0.608053 0
M  V30 3340 N 316.977 5.31117 1.15828 0
M  V30 3341 H 320.779 2.9334 0.181285 0
M  V30 3342 H 318.293 1.624 -0.000452172 0
M  V30 3343 H 320.29 3.23718 2.62702 0
M  V30 3344 H 318.95 2.06702 2.50408 0
M  V30 3345 H 319.961 5.15723 0.47436 0
M  V30 3346 H 316.638 3.42509 2.38734 0
M  V30 3347 H 318.028 6.71885 0.0451619 0
M  V30 3348 N 320.748 -0.0735177 1.57428 0
M  V30 3349 C 321.997 -0.771809 1.86349 0
M  V30 3350 C 322.31 -1.78828 0.792452 0
M  V30 3351 O 323.516 -2.53602 0.96945 0
M  V30 3352 C 321.972 -1.42358 3.30548 0
M  V30 3353 C 321.58 -0.445761 4.45777 0
M  V30 3354 C 323.324 -2.10434 3.6867 0
M  V30 3355 C 321.231 -1.10335 5.81016 0
M  V30 3356 H 320.161 -0.291999 0.695164 0
M  V30 3357 H 322.812 -0.0250749 1.83483 0
M  V30 3358 H 321.194 -2.21852 3.28021 0
M  V30 3359 H 322.368 0.319239 4.59693 0
M  V30 3360 H 320.683 0.130457 4.16196 0
M  V30 3361 H 323.28 -2.60405 4.67004 0
M  V30 3362 H 323.623 -2.90298 2.98383 0
M  V30 3363 H 324.156 -1.37773 3.7318 0
M  V30 3364 H 320.895 -0.345061 6.54591 0
M  V30 3365 H 320.415 -1.83925 5.70904 0
M  V30 3366 H 322.094 -1.62367 6.26295 0
M  V30 3367 N 322.226 -1.5378 -0.344866 0
M  V30 3368 C 323.174 -1.82373 -1.4437 0
M  V30 3369 C 324.168 -0.694128 -1.54526 0
M  V30 3370 O 325.374 -0.877442 -1.57165 0
M  V30 3371 H 321.749 -0.577765 -0.481344 0
M  V30 3372 H 323.72 -2.74306 -1.17468 0
M  V30 3373 C 322.469 -2.04898 -2.80913 0
M  V30 3374 H 321.792 -2.9127 -2.73865 0
M  V30 3375 H 323.232 -2.28871 -3.56923 0
M  V30 3376 C 321.691 -0.834116 -3.26411 0
M  V30 3377 O 322.221 -0.0328885 -4.01687 0
M  V30 3378 N 320.427 -0.65171 -2.83198 0
M  V30 3379 H 319.974 -1.30489 -2.22104 0
M  V30 3380 H 319.932 0.159686 -3.13994 0
M  V30 3381 N 323.704 0.605807 -1.45491 0
M  V30 3382 C 324.929 1.39625 -1.53361 0
M  V30 3383 C 325.354 1.87351 -0.167645 0
M  V30 3384 O 324.712 1.60243 0.848051 0
M  V30 3385 C 324.76 2.57559 -2.5238 0
M  V30 3386 O 323.864 3.58248 -2.04285 0
M  V30 3387 H 323.205 0.416771 -0.516912 0
M  V30 3388 H 325.735 0.737103 -1.90861 0
M  V30 3389 H 325.745 3.0478 -2.71244 0
M  V30 3390 H 324.42 2.22171 -3.51586 0
M  V30 3391 H 322.997 3.17664 -1.95305 0
M  V30 3392 N 325.182 1.32811 0.848464 0
M  V30 3393 C 326.132 1.18842 1.94578 0
M  V30 3394 C 327.116 0.0937517 1.60627 0
M  V30 3395 O 328.308 0.320887 1.74067 0
M  V30 3396 C 325.437 0.91999 3.30743 0
M  V30 3397 C 324.523 2.05665 3.70894 0
M  V30 3398 N 324.914 3.30579 3.8282 0
M  V30 3399 C 323.212 1.9612 4.00566 0
M  V30 3400 C 323.913 4.05067 4.17487 0
M  V30 3401 N 322.889 3.33419 4.2934 0
M  V30 3402 H 326.691 2.13536 2.0194 0
M  V30 3403 H 324.205 1.2468 1.0406 0
M  V30 3404 H 326.202 0.800859 4.09136 0
M  V30 3405 H 324.862 -0.0185076 3.24695 0
M  V30 3406 H 325.873 3.65441 3.66978 0
M  V30 3407 H 322.55 1.09871 4.02784 0
M  V30 3408 H 323.94 5.12815 4.34131 0
M  V30 3409 N 326.66 -1.06551 1.16123 0
M  V30 3410 C 328.076 -1.3142 0.905585 0
M  V30 3411 C 328.276 -1.96571 -0.442964 0
M  V30 3412 O 327.332 -2.23068 -1.18308 0
M  V30 3413 C 328.645 -2.19741 2.05267 0
M  V30 3414 C 330.193 -2.33165 2.08813 0
M  V30 3415 C 330.668 -3.24838 3.22868 0
M  V30 3416 N 332.159 -3.32421 3.22568 0
M  V30 3417 C 332.894 -4.0344 4.0746 0
M  V30 3418 N 332.39 -4.77003 5.02434 0
M  V30 3419 N 334.183 -3.99464 3.95456 0
M  V30 3420 H 326.334 -0.626548 2.02949 0
M  V30 3421 H 328.597 -0.338777 0.8854 0
M  V30 3422 H 328.303 -1.79142 3.02657 0
M  V30 3423 H 328.177 -3.20313 1.99198 0
M  V30 3424 H 330.564 -2.73013 1.12018 0
M  V30 3425 H 330.645 -1.3227 2.18948 0
M  V30 3426 H 330.289 -2.85708 4.19921 0
M  V30 3427 H 330.219 -4.25707 3.0997 0
M  V30 3428 H 332.71 -2.79994 2.53795 0
M  V30 3429 H 333.023 -5.28712 5.63634 0
M  V30 3430 H 331.368 -4.75992 5.06415 0
M  V30 3431 H 334.559 -3.4111 3.20564 0
M  V30 3432 H 334.732 -4.54544 4.61837 0
M  V30 3433 N 328.138 -0.959301 -1.25041 0
M  V30 3434 C 329.386 -0.615393 -1.92503 0
M  V30 3435 C 329.707 0.850969 -1.75452 0
M  V30 3436 O 328.977 1.60658 -1.12098 0
M  V30 3437 H 327.557 -0.224613 -0.712431 0
M  V30 3438 H 330.219 -1.21855 -1.5211 0
M  V30 3439 H 329.315 -0.848738 -3.00338 0
M  V30 3440 N 329.616 1.39756 -0.72842 0
M  V30 3441 C 330.865 1.99879 -0.270407 0
M  V30 3442 C 331.178 1.58449 1.14688 0
M  V30 3443 O 332.384 2.11362 1.70407 0
M  V30 3444 C 330.84 3.57292 -0.43252 0
M  V30 3445 C 330.448 4.07688 -1.85727 0
M  V30 3446 C 332.192 4.24485 -0.0359507 0
M  V30 3447 C 330.099 5.5765 -1.96928 0
M  V30 3448 H 329.029 0.747689 -0.0973472 0
M  V30 3449 H 331.68 1.59837 -0.901355 0
M  V30 3450 H 330.062 3.95097 0.267219 0
M  V30 3451 H 331.236 3.81231 -2.58843 0
M  V30 3452 H 329.551 3.53135 -2.20646 0
M  V30 3453 H 332.148 5.34609 -0.0987484 0
M  V30 3454 H 332.491 4.03915 1.00787 0
M  V30 3455 H 333.024 3.9183 -0.686604 0
M  V30 3456 H 329.763 5.8309 -2.99476 0
M  V30 3457 H 329.283 5.8593 -1.28241 0
M  V30 3458 H 330.962 6.22957 -1.74737 0
M  V30 3459 N 331.094 0.475555 1.50254 0
M  V30 3460 C 332.044 -0.335025 2.25525 0
M  V30 3461 C 333.028 -0.957625 1.29299 0
M  V30 3462 O 334.22 -0.869436 1.54175 0
M  V30 3463 C 331.349 -1.41385 3.12834 0
M  V30 3464 C 330.435 -0.798762 4.1651 0
M  V30 3465 N 330.826 0.0835815 5.05731 0
M  V30 3466 C 329.124 -1.06221 4.33166 0
M  V30 3467 C 329.825 0.433113 5.80085 0
M  V30 3468 N 328.801 -0.1928 5.43258 0
M  V30 3469 H 332.603 0.344612 2.91873 0
M  V30 3470 H 330.117 0.289986 1.5979 0
M  V30 3471 H 332.114 -2.00777 3.65368 0
M  V30 3472 H 330.774 -2.09543 2.48036 0
M  V30 3473 H 331.785 0.452715 5.15918 0
M  V30 3474 H 328.462 -1.73844 3.79585 0
M  V30 3475 H 329.852 1.15346 6.61925 0
M  V30 3476 N 332.573 -1.56217 0.208337 0
M  V30 3477 C 333.521 -2.21053 -0.723769 0
M  V30 3478 C 334.515 -1.18578 -1.20978 0
M  V30 3479 O 335.721 -1.36691 -1.17114 0
M  V30 3480 H 332.096 -0.708595 -0.251788 0
M  V30 3481 H 334.067 -2.98006 -0.153365 0
M  V30 3482 C 332.816 -2.89417 -1.927 0
M  V30 3483 H 332.139 -3.68019 -1.56212 0
M  V30 3484 H 333.579 -3.38201 -2.55727 0
M  V30 3485 C 332.038 -1.91166 -2.77411 0
M  V30 3486 O 332.568 -1.42026 -3.75754 0
M  V30 3487 N 330.774 -1.59105 -2.43175 0
M  V30 3488 H 330.321 -1.99259 -1.63259 0
M  V30 3489 H 330.279 -0.936255 -3.00136 0
M  V30 3490 N 334.051 0.0651679 -1.57465 0
M  V30 3491 C 335.276 0.779605 -1.9219 0
M  V30 3492 C 335.701 1.69988 -0.805333 0
M  V30 3493 O 335.059 1.79685 0.241435 0
M  V30 3494 C 335.107 1.54364 -3.2589 0
M  V30 3495 O 334.211 2.65474 -3.1559 0
M  V30 3496 H 333.552 0.212249 -0.629163 0
M  V30 3497 H 336.082 0.0314294 -2.04576 0
M  V30 3498 H 336.092 1.92146 -3.59922 0
M  V30 3499 H 334.767 0.868457 -4.06732 0
M  V30 3500 H 333.344 2.30501 -2.93128 0
M  V30 3501 N 335.529 1.53961 0.336706 0
M  V30 3502 C 336.778 1.70751 1.07363 0
M  V30 3503 C 337.091 0.481061 1.89592 0
M  V30 3504 O 338.297 0.530046 2.66276 0
M  V30 3505 C 336.753 3.01965 1.95818 0
M  V30 3506 C 336.361 4.31971 1.18764 0
M  V30 3507 C 338.105 3.28121 2.69327 0
M  V30 3508 C 336.012 5.54255 2.06289 0
M  V30 3509 H 334.942 0.636292 0.404535 0
M  V30 3510 H 337.593 1.80459 0.332681 0
M  V30 3511 H 335.975 2.86132 2.7376 0
M  V30 3512 H 337.149 4.5853 0.456849 0
M  V30 3513 H 335.464 4.12481 0.569946 0
M  V30 3514 H 338.061 4.16673 3.35094 0
M  V30 3515 H 338.404 2.45426 3.36261 0
M  V30 3516 H 338.937 3.44762 1.98454 0
M  V30 3517 H 335.676 6.39513 1.43885 0
M  V30 3518 H 335.196 5.31935 2.77138 0
M  V30 3519 H 336.875 5.90159 2.65182 0
M  V30 3520 N 337.007 -0.598083 1.45811 0
M  V30 3521 C 338.255 -1.35413 1.50026 0
M  V30 3522 C 338.576 -1.94444 0.147177 0
M  V30 3523 O 337.846 -1.77701 -0.824571 0
M  V30 3524 H 336.426 -0.502727 0.552517 0
M  V30 3525 H 339.088 -0.701606 1.81834 0
M  V30 3526 H 338.184 -2.16871 2.2444 0
M  V30 3527 N 338.485 -1.33259 -0.841409 0
M  V30 3528 C 339.762 -1.15174 -1.58096 0
M  V30 3529 C 340.142 0.282858 -2.09196 0
M  V30 3530 O 339.49 1.28151 -1.89181 0
M  V30 3531 C 339.7 -2.1907 -2.71679 0
M  V30 3532 C 341.048 -2.53093 -3.40924 0
M  V30 3533 O 342.072 -2.17717 -2.81918 0
M  V30 3534 O 340.931 -3.1379 -4.47435 0
M  V30 3535 H 338.025 -0.445303 -0.696875 0
M  V30 3536 H 340.571 -1.44833 -0.884385 0
M  V30 3537 H 339.343 -3.15443 -2.31541 0
M  V30 3538 H 338.966 -1.90481 -3.49002 0
M  V30 3539 N 339.963 1.05934 -1.16686 0
M  V30 3540 C 341.193 1.82226 -0.973515 0
M  V30 3541 C 341.601 1.8297 0.481532 0
M  V30 3542 O 340.944 1.25009 1.34604 0
M  V30 3543 C 341.006 3.29897 -1.42858 0
M  V30 3544 C 340.67 3.52849 -2.90425 0
M  V30 3545 C 341.667 3.45595 -3.88407 0
M  V30 3546 C 339.352 3.80053 -3.28428 0
M  V30 3547 C 341.346 3.65217 -5.22394 0
M  V30 3548 C 339.033 3.99325 -4.62583 0
M  V30 3549 C 340.031 3.91905 -5.59374 0
M  V30 3550 O 339.719 4.10647 -6.91104 0
M  V30 3551 H 339.451 0.581314 -0.345036 0
M  V30 3552 H 342.005 1.3453 -1.55212 0
M  V30 3553 H 340.235 3.78472 -0.793477 0
M  V30 3554 H 341.924 3.87692 -1.20207 0
M  V30 3555 H 342.69 3.24564 -3.60393 0
M  V30 3556 H 338.569 3.84936 -2.53664 0
M  V30 3557 H 342.113 3.59341 -5.9793 0
M  V30 3558 H 338.01 4.19846 -4.90306 0
M  V30 3559 H 338.778 4.27915 -6.97733 0
M  V30 3560 N 341.441 0.965919 1.2453 0
M  V30 3561 C 342.857 0.67216 1.44756 0
M  V30 3562 C 343.057 -0.766609 1.86347 0
M  V30 3563 O 342.113 -1.5407 2.00047 0
M  V30 3564 C 343.426 1.65473 2.51076 0
M  V30 3565 C 344.974 1.66716 2.64905 0
M  V30 3566 C 345.449 2.63766 3.74421 0
M  V30 3567 N 346.94 2.62198 3.81846 0
M  V30 3568 C 347.675 3.33966 4.66106 0
M  V30 3569 N 347.171 4.15245 5.54566 0
M  V30 3570 N 348.964 3.22799 4.60171 0
M  V30 3571 H 341.115 1.89553 0.958293 0
M  V30 3572 H 343.378 0.815979 0.482579 0
M  V30 3573 H 343.084 2.68296 2.27399 0
M  V30 3574 H 342.958 1.4261 3.49202 0
M  V30 3575 H 345.345 0.646057 2.87941 0
M  V30 3576 H 345.426 1.93642 1.67142 0
M  V30 3577 H 345.07 3.6601 3.52135 0
M  V30 3578 H 345 2.34121 4.71694 0
M  V30 3579 H 347.491 2.032 3.18619 0
M  V30 3580 H 347.804 4.66898 6.15814 0
M  V30 3581 H 346.149 4.1934 5.54237 0
M  V30 3582 H 349.34 2.58764 3.90075 0
M  V30 3583 H 349.513 3.78994 5.25612 0
M  V30 3584 N 342.919 -1.39368 0.735821 0
M  V30 3585 C 344.165 -2.01272 0.293439 0
M  V30 3586 C 344.52 -1.57344 -1.10728 0
M  V30 3587 O 343.813 -0.792744 -1.74431 0
M  V30 3588 C 344.007 -3.5583 0.334651 0
M  V30 3589 C 343.836 -4.14764 1.73784 0
M  V30 3590 C 342.606 -4.47315 2.35026 0
M  V30 3591 C 344.804 -4.38246 2.69157 0
M  V30 3592 N 342.786 -4.91756 3.6749 0
M  V30 3593 C 344.157 -4.849 3.86357 0
M  V30 3594 C 346.212 -4.20315 2.66908 0
M  V30 3595 C 344.915 -5.15505 5.01645 0
M  V30 3596 C 346.941 -4.52033 3.8134 0
M  V30 3597 C 346.303 -4.98895 4.97276 0
M  V30 3598 H 342.402 -0.766756 0.153652 0
M  V30 3599 H 344.986 -1.69276 0.961967 0
M  V30 3600 H 343.157 -3.87212 -0.303527 0
M  V30 3601 H 344.889 -4.04503 -0.126358 0
M  V30 3602 H 341.644 -4.35143 1.86943 0
M  V30 3603 H 342.068 -5.18333 4.35499 0
M  V30 3604 H 346.71 -3.83287 1.78468 0
M  V30 3605 H 344.428 -5.51437 5.90713 0
M  V30 3606 H 348.014 -4.39781 3.80899 0
M  V30 3607 H 346.894 -5.22973 5.84353 0
M  V30 3608 N 344.397 -0.483516 -1.5 0
M  V30 3609 C 345.329 0.340634 -2.26655 0
M  V30 3610 C 346.342 0.946152 -1.32483 0
M  V30 3611 O 347.531 0.832453 -1.579 0
M  V30 3612 C 344.631 1.4929 -3.04246 0
M  V30 3613 C 343.804 0.997903 -4.25865 0
M  V30 3614 C 342.863 2.02569 -4.85646 0
M  V30 3615 O 341.889 1.60128 -5.46212 0
M  V30 3616 N 343.091 3.3548 -4.73744 0
M  V30 3617 H 345.856 -0.316577 -2.98023 0
M  V30 3618 H 343.417 -0.315024 -1.58806 0
M  V30 3619 H 345.409 2.17766 -3.41116 0
M  V30 3620 H 343.979 2.05458 -2.35597 0
M  V30 3621 H 343.199 0.138617 -3.93956 0
M  V30 3622 H 344.487 0.645305 -5.04691 0
M  V30 3623 H 343.885 3.72661 -4.25605 0
M  V30 3624 H 342.442 3.99718 -5.14848 0
M  V30 3625 N 345.875 1.56104 -0.216619 0
M  V30 3626 C 346.805 2.23063 0.690296 0
M  V30 3627 C 347.786 1.20072 1.20485 0
M  V30 3628 O 348.971 1.48643 1.24976 0
M  V30 3629 C 346.101 2.90672 1.90072 0
M  V30 3630 C 345.055 4.00092 1.5202 0
M  V30 3631 C 344.381 4.54972 2.80899 0
M  V30 3632 C 345.681 5.17398 0.71391 0
M  V30 3633 H 347.375 2.99109 0.132038 0
M  V30 3634 H 344.921 1.43866 0.0620664 0
M  V30 3635 H 346.874 3.36204 2.54057 0
M  V30 3636 H 345.598 2.12066 2.48386 0
M  V30 3637 H 344.257 3.55283 0.903839 0
M  V30 3638 H 343.905 3.73102 3.37348 0
M  V30 3639 H 343.605 5.28817 2.56176 0
M  V30 3640 H 345.129 5.0322 3.45836 0
M  V30 3641 H 346.543 5.59342 1.25735 0
M  V30 3642 H 344.94 5.97444 0.563951 0
M  V30 3643 H 346.01 4.84088 -0.280527 0
M  V30 3644 N 347.353 -0.0568162 1.57498 0
M  V30 3645 C 348.63 -0.786954 1.79071 0
M  V30 3646 C 349.01 -1.95028 0.80792 0
M  V30 3647 O 348.358 -2.27968 -0.155858 0
M  V30 3648 C 348.568 -1.24594 3.26002 0
M  V30 3649 C 349.916 -1.67323 3.90241 0
M  V30 3650 O 350.94 -1.34124 3.29984 0
M  V30 3651 O 349.799 -2.28842 4.9628 0
M  V30 3652 H 346.893 -0.378262 0.735423 0
M  V30 3653 H 349.439 -0.035734 1.69662 0
M  V30 3654 H 348.211 -0.41423 3.89101 0
M  V30 3655 H 347.834 -2.05803 3.40192 0
M  V30 3656 N 348.832 -1.54138 -0.328536 0
M  V30 3657 C 349.779 -1.83176 -1.40411 0
M  V30 3658 C 350.749 -0.678494 -1.5161 0
M  V30 3659 O 351.934 -0.92443 -1.6691 0
M  V30 3660 C 349.074 -2.06035 -2.76846 0
M  V30 3661 C 348.187 -3.33727 -2.74318 0
M  V30 3662 C 347.322 -3.46574 -4.02567 0
M  V30 3663 C 346.361 -4.68159 -3.94327 0
M  V30 3664 N 345.498 -4.77959 -5.14296 0
M  V30 3665 H 350.338 -2.74938 -1.14948 0
M  V30 3666 H 347.875 -1.36166 -0.556538 0
M  V30 3667 H 349.833 -2.1728 -3.56153 0
M  V30 3668 H 348.463 -1.1757 -3.00628 0
M  V30 3669 H 347.515 -3.31246 -1.8703 0
M  V30 3670 H 348.827 -4.23139 -2.64111 0
M  V30 3671 H 347.981 -3.57333 -4.90304 0
M  V30 3672 H 346.72 -2.55245 -4.15574 0
M  V30 3673 H 345.725 -4.57461 -3.04974 0
M  V30 3674 H 346.95 -5.60868 -3.82889 0
M  V30 3675 H 344.896 -3.89544 -5.27818 0
M  V30 3676 H 344.813 -5.6133 -5.06404 0
M  V30 3677 H 346.081 -4.93044 -6.03761 0
M  V30 3678 N 350.31 0.590341 -1.46126 0
M  V30 3679 C 351.559 1.34499 -1.50309 0
M  V30 3680 C 351.872 1.94977 -0.156021 0
M  V30 3681 O 353.078 2.71395 -0.0756037 0
M  V30 3682 C 351.534 2.43723 -2.64815 0
M  V30 3683 C 351.142 1.89582 -4.0591 0
M  V30 3684 C 352.886 3.20579 -2.78262 0
M  V30 3685 C 350.793 2.9639 -5.11769 0
M  V30 3686 H 349.723 0.505593 -0.559368 0
M  V30 3687 H 352.374 0.630848 -1.72315 0
M  V30 3688 H 350.756 3.17902 -2.36124 0
M  V30 3689 H 351.93 1.21997 -4.44357 0
M  V30 3690 H 350.245 1.25418 -3.97063 0
M  V30 3691 H 352.842 4.00276 -3.54519 0
M  V30 3692 H 353.185 3.72684 -1.85505 0
M  V30 3693 H 353.718 2.53505 -3.06562 0
M  V30 3694 H 350.457 2.49181 -6.06291 0
M  V30 3695 H 349.977 3.62487 -4.77873 0
M  V30 3696 H 351.656 3.60474 -5.37278 0
M  V30 3697 N 351.788 1.33704 0.83433 0
M  V30 3698 C 352.735 1.24335 1.94447 0
M  V30 3699 C 353.705 0.120991 1.65659 0
M  V30 3700 O 354.89 0.300035 1.88426 0
M  V30 3701 C 352.03 0.993124 3.30501 0
M  V30 3702 C 351.143 2.20217 3.71657 0
M  V30 3703 C 350.278 1.88572 4.96602 0
M  V30 3704 C 349.317 3.05683 5.30306 0
M  V30 3705 N 348.454 2.73997 6.46429 0
M  V30 3706 H 353.294 2.1928 2.01792 0
M  V30 3707 H 350.831 1.09035 0.987404 0
M  V30 3708 H 352.789 0.828467 4.08892 0
M  V30 3709 H 351.419 0.0803902 3.227 0
M  V30 3710 H 350.471 2.47642 2.88752 0
M  V30 3711 H 351.783 3.07752 3.92543 0
M  V30 3712 H 350.937 1.68776 5.82752 0
M  V30 3713 H 349.676 0.982799 4.77695 0
M  V30 3714 H 348.681 3.26088 4.42659 0
M  V30 3715 H 349.906 3.96737 5.51159 0
M  V30 3716 H 347.852 1.86268 6.28999 0
M  V30 3717 H 347.769 3.55064 6.67432 0
M  V30 3718 H 349.037 2.57679 7.35678 0
M  V30 3719 N 353.266 -1.05314 1.17247 0
M  V30 3720 C 354.229 -2.112 0.890357 0
M  V30 3721 C 355.229 -1.60359 -0.118943 0
M  V30 3722 O 356.419 -1.73833 0.113086 0
M  V30 3723 C 353.551 -3.39266 0.333422 0
M  V30 3724 H 354.744 -2.37659 1.82916 0
M  V30 3725 H 352.297 -1.21538 0.982758 0
M  V30 3726 H 353.032 -3.18462 -0.612587 0
M  V30 3727 H 352.817 -3.77477 1.06082 0
M  V30 3728 H 354.307 -4.17315 0.154322 0
M  V30 3729 N 354.744 -0.972509 -1.24016 0
M  V30 3730 C 356.021 -0.553733 -1.87598 0
M  V30 3731 C 356.401 0.969158 -1.87538 0
M  V30 3732 O 355.749 1.84255 -1.35139 0
M  V30 3733 C 355.959 -1.15076 -3.29482 0
M  V30 3734 C 357.307 -1.23862 -4.06132 0
M  V30 3735 O 358.331 -1.10363 -3.38672 0
M  V30 3736 O 357.19 -1.45252 -5.26844 0
M  V30 3737 H 354.284 -0.185331 -0.805966 0
M  V30 3738 H 356.83 -1.06709 -1.31952 0
M  V30 3739 H 355.602 -2.19333 -3.2405 0
M  V30 3740 H 355.225 -0.621746 -3.92709 0
M  V30 3741 N 356.222 1.38976 -0.743202 0
M  V30 3742 C 357.152 2.33171 -0.123873 0
M  V30 3743 C 358.133 1.54336 0.71516 0
M  V30 3744 O 359.318 1.82696 0.658467 0
M  V30 3745 C 356.448 3.38474 0.777978 0
M  V30 3746 C 355.402 4.27979 0.0424758 0
M  V30 3747 C 354.728 5.2405 1.06189 0
M  V30 3748 C 356.028 5.10155 -1.1198 0
M  V30 3749 H 357.722 2.85213 -0.910709 0
M  V30 3750 H 355.268 1.37133 -0.439388 0
M  V30 3751 H 357.221 4.03328 1.22084 0
M  V30 3752 H 355.945 2.84891 1.59702 0
M  V30 3753 H 354.604 3.64616 -0.380853 0
M  V30 3754 H 354.252 4.66758 1.87472 0
M  V30 3755 H 353.952 5.84785 0.574485 0
M  V30 3756 H 355.476 5.9178 1.50428 0
M  V30 3757 H 356.89 5.68307 -0.75499 0
M  V30 3758 H 355.287 5.80073 -1.53738 0
M  V30 3759 H 356.357 4.44504 -1.93764 0
M  V30 3760 N 357.7 0.491464 1.49741 0
M  V30 3761 C 359.116 0.146835 1.58923 0
M  V30 3762 C 359.316 -1.34804 1.49767 0
M  V30 3763 O 358.372 -2.12317 1.36667 0
M  V30 3764 C 359.685 0.715157 2.92072 0
M  V30 3765 C 361.233 0.680407 3.05515 0
M  V30 3766 C 361.708 1.22663 4.41269 0
M  V30 3767 N 363.199 1.18691 4.47735 0
M  V30 3768 C 363.934 1.57984 5.51207 0
M  V30 3769 N 363.43 2.04824 6.6183 0
M  V30 3770 N 365.223 1.49459 5.41866 0
M  V30 3771 H 357.374 1.46347 1.53936 0
M  V30 3772 H 359.637 0.606453 0.728642 0
M  V30 3773 H 359.343 1.76317 3.04311 0
M  V30 3774 H 359.217 0.17018 3.76816 0
M  V30 3775 H 361.604 -0.358743 2.92911 0
M  V30 3776 H 361.685 1.26242 2.22478 0
M  V30 3777 H 361.329 2.26451 4.54623 0
M  V30 3778 H 361.259 0.620637 5.2293 0
M  V30 3779 H 363.75 0.843605 3.68364 0
M  V30 3780 H 364.063 2.32901 7.3687 0
M  V30 3781 H 362.408 2.08791 6.62896 0
M  V30 3782 H 365.599 1.12692 4.54333 0
M  V30 3783 H 365.772 1.80406 6.22381 0
M  V30 3784 N 359.178 -1.55987 0.224894 0
M  V30 3785 C 360.088 -2.24066 -0.69511 0
M  V30 3786 C 361.104 -1.24939 -1.21104 0
M  V30 3787 O 362.28 -1.5776 -1.25195 0
M  V30 3788 C 359.345 -2.90983 -1.88493 0
M  V30 3789 C 358.406 -4.05462 -1.41064 0
M  V30 3790 C 357.639 -4.69179 -2.54375 0
M  V30 3791 O 357.862 -4.31895 -3.72589 0
M  V30 3792 O 356.796 -5.58108 -2.25386 0
M  V30 3793 H 360.622 -3.03353 -0.145149 0
M  V30 3794 H 358.207 -1.49399 -0.00569476 0
M  V30 3795 H 360.089 -3.33209 -2.57972 0
M  V30 3796 H 358.764 -2.14653 -2.42293 0
M  V30 3797 H 357.671 -3.67798 -0.683774 0
M  V30 3798 H 359.004 -4.83545 -0.918985 0
M  V30 3799 N 360.656 0.0484629 -1.57525 0
M  V30 3800 C 361.603 1.05504 -2.05275 0
M  V30 3801 C 362.573 1.37084 -0.937927 0
M  V30 3802 O 363.758 1.47754 -1.2072 0
M  V30 3803 C 360.898 2.35676 -2.52093 0
M  V30 3804 C 360.011 2.10423 -3.77288 0
M  V30 3805 C 359.146 3.34327 -4.12794 0
M  V30 3806 C 358.185 3.04542 -5.30962 0
M  V30 3807 N 357.322 4.20841 -5.61994 0
M  V30 3808 H 362.162 0.640885 -2.91027 0
M  V30 3809 H 359.699 0.304854 -1.43906 0
M  V30 3810 H 361.657 3.11709 -2.77297 0
M  V30 3811 H 360.287 2.7485 -1.69285 0
M  V30 3812 H 359.339 1.24976 -3.59284 0
M  V30 3813 H 360.651 1.84438 -4.63448 0
M  V30 3814 H 359.805 4.1874 -4.39024 0
M  V30 3815 H 358.544 3.63408 -3.25247 0
M  V30 3816 H 357.549 2.18528 -5.04505 0
M  V30 3817 H 358.774 2.76758 -6.20146 0
M  V30 3818 H 356.72 4.4991 -4.77406 0
M  V30 3819 H 356.637 3.98212 -6.42622 0
M  V30 3820 H 357.905 5.06184 -5.92789 0
M  V30 3821 N 362.134 1.5431 0.320358 0
M  V30 3822 C 363.359 1.76954 1.08175 0
M  V30 3823 C 363.784 0.518193 1.80821 0
M  V30 3824 O 363.142 -0.530411 1.73368 0
M  V30 3825 C 363.19 2.96451 2.05303 0
M  V30 3826 O 362.294 2.68221 3.13259 0
M  V30 3827 H 361.635 0.586275 0.311733 0
M  V30 3828 H 364.165 2.01342 0.363676 0
M  V30 3829 H 364.175 3.23887 2.48116 0
M  V30 3830 H 362.85 3.87196 1.51829 0
M  V30 3831 H 361.427 2.51744 2.75099 0
M  V30 3832 N 363.613 -0.582584 1.46437 0
M  V30 3833 C 364.576 -1.67366 1.56592 0
M  V30 3834 C 365.576 -1.54575 0.443072 0
M  V30 3835 O 366.766 -1.59191 0.707381 0
M  V30 3836 C 363.898 -3.06791 1.48634 0
M  V30 3837 H 365.091 -1.5972 2.5383 0
M  V30 3838 H 362.644 -0.800432 1.34249 0
M  V30 3839 H 363.379 -3.19993 0.526763 0
M  V30 3840 H 363.164 -3.17484 2.30101 0
M  V30 3841 H 364.654 -3.86218 1.58826 0
M  V30 3842 N 365.091 -1.34144 -0.827227 0
M  V30 3843 C 366.34 -1.25602 -1.5782 0
M  V30 3844 C 366.653 0.173445 -1.94829 0
M  V30 3845 O 367.859 0.380984 -2.68814 0
M  V30 3846 C 366.315 -2.20151 -2.84713 0
M  V30 3847 C 365.923 -3.68331 -2.55021 0
M  V30 3848 C 367.667 -2.20508 -3.62735 0
M  V30 3849 C 365.574 -4.54762 -3.78082 0
M  V30 3850 H 364.504 -0.466573 -0.592306 0
M  V30 3851 H 367.155 -1.59283 -0.911116 0
M  V30 3852 H 365.537 -1.79417 -3.53023 0
M  V30 3853 H 366.711 -4.17577 -1.94849 0
M  V30 3854 H 365.026 -3.7038 -1.90283 0
M  V30 3855 H 367.623 -2.82306 -4.54101 0
M  V30 3856 H 367.966 -1.20322 -3.98533 0
M  V30 3857 H 368.499 -2.59664 -3.01362 0
M  V30 3858 H 365.238 -5.55867 -3.47407 0
M  V30 3859 H 364.758 -4.10254 -4.37552 0
M  V30 3860 H 366.437 -4.69153 -4.45538 0
M  V30 3861 N 366.569 1.04691 -1.17803 0
M  V30 3862 C 367.799 1.81183 -0.992788 0
M  V30 3863 C 368.207 1.8347 0.462098 0
M  V30 3864 O 367.55 1.2643 1.33271 0
M  V30 3865 C 367.612 3.28363 -1.46349 0
M  V30 3866 C 367.276 3.49749 -2.94151 0
M  V30 3867 C 368.273 3.41456 -3.92051 0
M  V30 3868 C 365.958 3.76548 -3.32441 0
M  V30 3869 C 367.952 3.59656 -5.26238 0
M  V30 3870 C 365.639 3.94396 -4.66792 0
M  V30 3871 C 366.637 3.8595 -5.635 0
M  V30 3872 O 366.325 4.03294 -6.9542 0
M  V30 3873 H 366.057 0.577622 -0.351182 0
M  V30 3874 H 368.611 1.32876 -1.5663 0
M  V30 3875 H 366.841 3.77609 -0.833574 0
M  V30 3876 H 368.53 3.86395 -1.24313 0
M  V30 3877 H 369.296 3.20723 -3.63815 0
M  V30 3878 H 365.175 3.82224 -2.57732 0
M  V30 3879 H 368.719 3.52979 -6.01707 0
M  V30 3880 H 364.616 4.14622 -4.94731 0
M  V30 3881 H 365.384 4.2049 -7.02232 0
M  V30 3882 N 368.047 0.979072 1.23499 0
M  V30 3883 C 368.979 0.476271 2.24197 0
M  V30 3884 C 369.992 -0.421166 1.57258 0
M  V30 3885 O 371.181 -0.225515 1.7707 0
M  V30 3886 C 368.281 -0.330503 3.37285 0
M  V30 3887 C 367.454 0.559744 4.33804 0
M  V30 3888 C 366.513 -0.192954 5.25846 0
M  V30 3889 O 365.539 0.416978 5.67671 0
M  V30 3890 N 366.741 -1.47932 5.61334 0
M  V30 3891 H 369.506 1.34211 2.67969 0
M  V30 3892 H 367.067 0.852189 1.37657 0
M  V30 3893 H 369.059 -0.842361 3.95836 0
M  V30 3894 H 367.629 -1.09734 2.92707 0
M  V30 3895 H 366.849 1.25245 3.73775 0
M  V30 3896 H 368.137 1.1665 4.95248 0
M  V30 3897 H 367.535 -1.9964 5.29302 0
M  V30 3898 H 366.092 -1.93664 6.22364 0
M  V30 3899 N 369.525 -1.3858 0.750561 0
M  V30 3900 C 370.455 -2.33102 0.136237 0
M  V30 3901 C 371.436 -1.54713 -0.706965 0
M  V30 3902 O 372.621 -1.83043 -0.648769 0
M  V30 3903 C 369.751 -3.38882 -0.760017 0
M  V30 3904 C 368.705 -4.27995 -0.0197785 0
M  V30 3905 C 368.031 -5.24605 -1.03408 0
M  V30 3906 C 369.331 -5.09554 1.14684 0
M  V30 3907 H 371.025 -2.84726 0.925822 0
M  V30 3908 H 368.571 -1.36898 0.446654 0
M  V30 3909 H 370.524 -4.0397 -1.19943 0
M  V30 3910 H 369.248 -2.85734 -1.58189 0
M  V30 3911 H 367.907 -3.64409 0.400184 0
M  V30 3912 H 367.555 -4.67746 -1.84994 0
M  V30 3913 H 367.255 -5.85081 -0.543464 0
M  V30 3914 H 368.779 -5.9257 -1.47288 0
M  V30 3915 H 370.193 -5.67899 0.785118 0
M  V30 3916 H 368.59 -5.7925 1.56812 0
M  V30 3917 H 369.66 -4.4347 1.96118 0
M  V30 3918 N 371.003 -0.499398 -1.49478 0
M  V30 3919 C 371.913 0.284489 -2.32869 0
M  V30 3920 C 372.929 0.968885 -1.44529 0
M  V30 3921 O 374.105 0.95062 -1.77553 0
M  V30 3922 C 371.17 1.33594 -3.19928 0
M  V30 3923 C 370.231 0.665149 -4.24116 0
M  V30 3924 C 369.464 1.6665 -5.07014 0
M  V30 3925 O 369.687 2.89618 -4.91404 0
M  V30 3926 O 368.621 1.22271 -5.8935 0
M  V30 3927 H 372.447 -0.39802 -3.01081 0
M  V30 3928 H 370.032 -0.260758 -1.47107 0
M  V30 3929 H 371.914 1.94431 -3.73864 0
M  V30 3930 H 370.589 2.0014 -2.54412 0
M  V30 3931 H 369.496 0.0170769 -3.74096 0
M  V30 3932 H 370.829 0.0421555 -4.92182 0
M  V30 3933 N 372.481 1.55866 -0.233164 0
M  V30 3934 C 373.391 2.24431 0.683217 0
M  V30 3935 C 374.407 1.2558 1.2044 0
M  V30 3936 O 375.583 1.58422 1.24356 0
M  V30 3937 C 372.648 2.91979 1.86947 0
M  V30 3938 C 371.709 4.06204 1.38912 0
M  V30 3939 C 370.942 4.70522 2.51883 0
M  V30 3940 O 371.165 4.33865 3.70293 0
M  V30 3941 O 370.099 5.59296 2.22423 0
M  V30 3942 H 373.925 3.03426 0.129059 0
M  V30 3943 H 371.51 1.494 -0.0022283 0
M  V30 3944 H 373.392 3.34573 2.56201 0
M  V30 3945 H 372.067 2.15935 2.41151 0
M  V30 3946 H 370.974 3.68155 0.664259 0
M  V30 3947 H 372.307 4.84025 0.893328 0
M  V30 3948 N 373.959 -0.0401083 1.57549 0
M  V30 3949 C 374.869 -1.06133 2.0922 0
M  V30 3950 C 375.885 -1.40356 1.0284 0
M  V30 3951 O 377.061 -1.49897 1.34509 0
M  V30 3952 C 374.126 -2.34658 2.55218 0
M  V30 3953 C 373.187 -2.07117 3.76033 0
M  V30 3954 C 372.42 -3.29514 4.19829 0
M  V30 3955 O 372.643 -4.39794 3.63232 0
M  V30 3956 O 371.577 -3.15863 5.12362 0
M  V30 3957 H 375.403 -0.652244 2.96613 0
M  V30 3958 H 372.988 -0.256368 1.47184 0
M  V30 3959 H 374.87 -3.10239 2.85184 0
M  V30 3960 H 373.545 -2.74883 1.70941 0
M  V30 3961 H 372.452 -1.29139 3.51104 0
M  V30 3962 H 373.785 -1.71754 4.61261 0
M  V30 3963 N 375.437 -1.54477 -0.31217 0
M  V30 3964 C 376.667 -1.76948 -1.06645 0
M  V30 3965 C 377.075 -0.523593 -1.81811 0
M  V30 3966 O 376.418 0.51578 -1.76311 0
M  V30 3967 C 376.48 -2.91668 -2.10166 0
M  V30 3968 C 376.144 -4.30165 -1.54296 0
M  V30 3969 C 377.141 -5.10603 -0.978793 0
M  V30 3970 C 374.826 -4.76738 -1.58196 0
M  V30 3971 C 376.82 -6.3573 -0.461048 0
M  V30 3972 C 374.507 -6.01831 -1.06034 0
M  V30 3973 C 375.505 -6.81161 -0.500844 0
M  V30 3974 O 375.193 -8.03899 0.0128958 0
M  V30 3975 H 374.925 -0.594088 -0.322546 0
M  V30 3976 H 377.479 -2.02213 -0.360441 0
M  V30 3977 H 375.709 -2.62001 -2.84416 0
M  V30 3978 H 377.398 -3.01817 -2.71406 0
M  V30 3979 H 378.164 -4.75771 -0.941651 0
M  V30 3980 H 374.043 -4.15027 -2.00683 0
M  V30 3981 H 377.587 -6.97596 -0.0236894 0
M  V30 3982 H 373.484 -6.36152 -1.09459 0
M  V30 3983 H 374.252 -8.18437 -0.101457 0
M  V30 3984 N 376.915 0.57481 -1.46744 0
M  V30 3985 C 377.825 1.711 -1.60505 0
M  V30 3986 C 378.841 1.67008 -0.488307 0
M  V30 3987 O 380.017 1.86774 -0.753495 0
M  V30 3988 C 377.082 3.07608 -1.59932 0
M  V30 3989 C 376.143 3.22904 -2.82898 0
M  V30 3990 C 375.376 4.529 -2.82343 0
M  V30 3991 O 375.599 5.37278 -1.91542 0
M  V30 3992 O 374.533 4.71611 -3.73987 0
M  V30 3993 H 378.359 1.62436 -2.56609 0
M  V30 3994 H 375.944 0.742779 -1.29627 0
M  V30 3995 H 377.826 3.88877 -1.62336 0
M  V30 3996 H 376.501 3.16692 -0.669898 0
M  V30 3997 H 375.408 2.41099 -2.86046 0
M  V30 3998 H 376.741 3.18715 -3.75076 0
M  V30 3999 N 378.394 1.34581 0.820102 0
M  V30 4000 C 379.342 1.26401 1.95258 0
M  V30 4001 C 380.336 0.161553 1.68628 0
M  V30 4002 O 381.542 0.326703 1.7701 0
M  V30 4003 H 377.917 0.392749 0.64129 0
M  V30 4004 H 379.888 2.22105 1.99279 0
M  V30 4005 C 378.637 1.03919 3.31807 0
M  V30 4006 H 377.96 1.87984 3.52848 0
M  V30 4007 H 379.4 1.02232 4.11491 0
M  V30 4008 C 377.859 -0.257433 3.35915 0
M  V30 4009 O 378.389 -1.25784 3.81499 0
M  V30 4010 N 376.595 -0.291524 2.89134 0
M  V30 4011 H 376.142 0.523161 2.52232 0
M  V30 4012 H 376.1 -1.15883 2.92264 0
M  V30 4013 N 379.872 -1.04064 1.18357 0
M  V30 4014 C 380.802 -2.14001 0.934113 0
M  V30 4015 C 381.783 -1.69616 -0.128186 0
M  V30 4016 O 382.968 -1.94185 0.0244093 0
M  V30 4017 C 380.098 -3.44253 0.459066 0
M  V30 4018 C 379.052 -4.02261 1.46185 0
M  V30 4019 C 378.378 -5.27992 0.844322 0
M  V30 4020 C 379.678 -4.38432 2.83856 0
M  V30 4021 H 381.372 -2.35127 1.85352 0
M  V30 4022 H 378.918 -1.12998 0.892604 0
M  V30 4023 H 380.871 -4.20522 0.271907 0
M  V30 4024 H 379.595 -3.22813 -0.495912 0
M  V30 4025 H 378.254 -3.28074 1.63595 0
M  V30 4026 H 377.902 -5.02862 -0.117845 0
M  V30 4027 H 377.602 -5.67765 1.51384 0
M  V30 4028 H 379.126 -6.06938 0.667693 0
M  V30 4029 H 380.54 -5.05688 2.70098 0
M  V30 4030 H 378.937 -4.89254 3.47491 0
M  V30 4031 H 380.007 -3.4826 3.37406 0
M  V30 4032 N 381.35 -0.985608 -1.22978 0
M  V30 4033 C 382.28 -0.549649 -2.26939 0
M  V30 4034 C 383.261 0.419803 -1.64838 0
M  V30 4035 O 384.446 0.31203 -1.91677 0
M  V30 4036 C 381.576 0.143652 -3.47003 0
M  V30 4037 C 380.53 -0.743606 -4.21491 0
M  V30 4038 C 379.856 0.0822027 -5.34637 0
M  V30 4039 C 381.156 -2.03694 -4.80943 0
M  V30 4040 H 382.85 -1.41862 -2.63658 0
M  V30 4041 H 380.396 -0.683571 -1.26741 0
M  V30 4042 H 382.349 0.459985 -4.18882 0
M  V30 4043 H 381.073 1.04711 -3.09359 0
M  V30 4044 H 379.732 -1.04347 -3.51436 0
M  V30 4045 H 379.38 0.986359 -4.93234 0
M  V30 4046 H 379.08 -0.508377 -5.85397 0
M  V30 4047 H 380.604 0.392797 -6.09335 0
M  V30 4048 H 382.018 -1.78504 -5.44802 0
M  V30 4049 H 380.415 -2.57573 -5.42011 0
M  V30 4050 H 381.485 -2.72042 -4.01399 0
M  V30 4051 N 382.828 1.3818 -0.7579 0
M  V30 4052 C 383.775 2.30416 -0.133057 0
M  V30 4053 C 384.745 1.50398 0.704957 0
M  V30 4054 O 385.93 1.79014 0.660192 0
M  V30 4055 C 383.07 3.36834 0.750813 0
M  V30 4056 C 382.183 4.31879 -0.102297 0
M  V30 4057 C 381.318 5.25368 0.784979 0
M  V30 4058 C 380.357 6.12058 -0.0715046 0
M  V30 4059 N 379.494 6.97832 0.772972 0
M  V30 4060 H 384.334 2.83274 -0.925186 0
M  V30 4061 H 381.871 1.39461 -0.467866 0
M  V30 4062 H 383.829 3.97145 1.27794 0
M  V30 4063 H 382.459 2.85374 1.50868 0
M  V30 4064 H 381.511 3.72991 -0.747095 0
M  V30 4065 H 382.823 4.92921 -0.763552 0
M  V30 4066 H 381.977 5.90818 1.37911 0
M  V30 4067 H 380.716 4.64703 1.47996 0
M  V30 4068 H 379.721 5.456 -0.678272 0
M  V30 4069 H 380.946 6.74793 -0.763606 0
M  V30 4070 H 378.892 6.3971 1.45282 0
M  V30 4071 H 378.809 7.55812 0.168709 0
M  V30 4072 H 380.077 7.67687 1.35194 0
M  V30 4073 N 384.306 0.507319 1.49211 0
M  V30 4074 C 385.269 -0.256763 2.27757 0
M  V30 4075 C 386.269 -0.888287 1.34038 0
M  V30 4076 O 387.459 -0.751841 1.5714 0
M  V30 4077 C 384.591 -1.36905 3.12202 0
M  V30 4078 H 385.784 0.432557 2.96764 0
M  V30 4079 H 383.337 0.262488 1.5408 0
M  V30 4080 H 384.072 -2.09233 2.47775 0
M  V30 4081 H 383.857 -0.921599 3.81115 0
M  V30 4082 H 385.347 -1.9071 3.7151 0
M  V30 4083 N 385.784 -1.5574 0.241426 0
M  V30 4084 C 387.009 -2.0366 -0.392111 0
M  V30 4085 C 387.434 -1.11969 -1.51144 0
M  V30 4086 O 386.792 -0.111594 -1.80956 0
M  V30 4087 C 386.84 -3.49638 -0.882371 0
M  V30 4088 O 385.944 -3.6108 -1.99235 0
M  V30 4089 H 385.285 -0.658379 -0.0862122 0
M  V30 4090 H 387.815 -2.01302 0.365881 0
M  V30 4091 H 387.825 -3.90351 -1.18702 0
M  V30 4092 H 386.5 -4.15852 -0.0632361 0
M  V30 4093 H 385.077 -3.32262 -1.69282 0
M  V30 4094 N 387.262 0.0317525 -1.57568 0
M  V30 4095 C 388.509 0.723104 -1.89149 0
M  V30 4096 C 388.837 1.75504 -0.838377 0
M  V30 4097 O 388.092 1.95037 0.160982 0
M  V30 4098 C 388.391 1.43167 -3.27472 0
M  V30 4099 C 388.057 0.535972 -4.47703 0
M  V30 4100 C 386.719 0.289262 -4.8033 0
M  V30 4101 C 389.071 -0.0826125 -5.21135 0
M  V30 4102 C 386.399 -0.584853 -5.83778 0
M  V30 4103 C 388.751 -0.944414 -6.25511 0
M  V30 4104 C 387.415 -1.20061 -6.56614 0
M  V30 4105 H 386.685 0.264602 -0.692146 0
M  V30 4106 H 389.332 -0.0169496 -1.91492 0
M  V30 4107 H 387.637 2.24497 -3.21105 0
M  V30 4108 H 389.334 1.97209 -3.49155 0
M  V30 4109 H 385.924 0.738414 -4.22191 0
M  V30 4110 H 390.108 0.0950302 -4.96209 0
M  V30 4111 H 385.364 -0.79168 -6.06253 0
M  V30 4112 H 389.538 -1.43026 -6.81554 0
M  V30 4113 H 387.165 -1.87967 -7.36595 0
M  V30 4114 N 388.74 1.54641 0.303973 0
M  V30 4115 C 389.65 1.88439 1.39743 0
M  V30 4116 C 390.666 0.778239 1.55626 0
M  V30 4117 O 391.842 1.07442 1.70347 0
M  V30 4118 C 388.907 2.12212 2.74166 0
M  V30 4119 C 387.968 3.35936 2.67293 0
M  V30 4120 C 387.201 3.58566 3.95305 0
M  V30 4121 O 387.424 2.84263 4.9452 0
M  V30 4122 O 386.358 4.52078 3.97378 0
M  V30 4123 H 390.184 2.81458 1.14083 0
M  V30 4124 H 387.769 1.40793 0.499768 0
M  V30 4125 H 389.651 2.29067 3.53704 0
M  V30 4126 H 388.326 1.22379 2.99675 0
M  V30 4127 H 387.233 3.24448 1.86237 0
M  V30 4128 H 388.566 4.2589 2.46736 0
M  V30 4129 N 390.218 -0.567019 1.47046 0
M  V30 4130 C 391.634 -0.891975 1.32348 0
M  V30 4131 C 391.834 -1.99154 0.306616 0
M  V30 4132 O 390.89 -2.50883 -0.28532 0
M  V30 4133 C 392.203 -1.29449 2.7141 0
M  V30 4134 C 393.751 -1.40646 2.79621 0
M  V30 4135 C 394.226 -1.84257 4.19301 0
M  V30 4136 N 395.717 -1.91424 4.21795 0
M  V30 4137 C 396.452 -2.26476 5.26779 0
M  V30 4138 N 395.948 -2.60211 6.42077 0
M  V30 4139 N 397.741 -2.27166 5.14152 0
M  V30 4140 H 389.892 0.159074 2.11803 0
M  V30 4141 H 392.155 0.00849752 0.947962 0
M  V30 4142 H 391.861 -0.560448 3.47206 0
M  V30 4143 H 391.735 -2.25273 3.02542 0
M  V30 4144 H 394.122 -2.13133 2.04104 0
M  V30 4145 H 394.203 -0.430339 2.52154 0
M  V30 4146 H 393.847 -1.12343 4.95319 0
M  V30 4147 H 393.777 -2.82855 4.44185 0
M  V30 4148 H 396.268 -1.6778 3.38612 0
M  V30 4149 H 396.581 -2.85956 7.17948 0
M  V30 4150 H 394.926 -2.57813 6.45413 0
M  V30 4151 H 398.117 -2.00244 4.23107 0
M  V30 4152 H 398.29 -2.54154 5.96079 0
M  V30 4153 N 391.696 -1.35014 -0.812953 0
M  V30 4154 C 392.629 -1.21761 -1.93001 0
M  V30 4155 C 393.607 -0.10694 -1.62248 0
M  V30 4156 O 394.791 -0.273891 -1.865 0
M  V30 4157 C 391.918 -0.873404 -3.27245 0
M  V30 4158 C 390.964 -1.99523 -3.76952 0
M  V30 4159 S 391.797 -3.61009 -3.95516 0
M  V30 4160 C 392.953 -3.28651 -5.32672 0
M  V30 4161 H 393.186 -2.16315 -2.03948 0
M  V30 4162 H 390.719 -1.20156 -0.969631 0
M  V30 4163 H 392.677 -0.68161 -4.04802 0
M  V30 4164 H 391.338 0.053971 -3.14054 0
M  V30 4165 H 390.531 -1.70838 -4.74163 0
M  V30 4166 H 390.133 -2.14503 -3.06373 0
M  V30 4167 H 392.425 -2.81085 -6.1644 0
M  V30 4168 H 393.368 -4.25039 -5.66346 0
M  V30 4169 H 393.776 -2.6458 -4.98656 0
M  V30 4170 N 393.175 1.03435 -1.18907 0
M  V30 4171 C 394.452 1.73778 -0.89781 0
M  V30 4172 C 394.832 2.02458 0.597832 0
M  V30 4173 O 394.18 1.67482 1.55441 0
M  V30 4174 C 394.39 3.01845 -1.75187 0
M  V30 4175 C 395.738 3.7546 -1.9828 0
M  V30 4176 O 396.762 3.11759 -1.72293 0
M  V30 4177 O 395.621 4.89966 -2.42065 0
M  V30 4178 H 392.715 0.75651 -0.334098 0
M  V30 4179 H 395.261 1.09444 -1.29693 0
M  V30 4180 H 394.033 2.76836 -2.76545 0
M  V30 4181 H 393.656 3.73919 -1.35167 0
M  V30 4182 N 394.653 0.992116 1.22453 0
M  V30 4183 C 395.603 0.512969 2.22155 0
M  V30 4184 C 396.587 -0.418416 1.55364 0
M  V30 4185 O 397.779 -0.245363 1.75291 0
M  V30 4186 C 394.908 -0.171822 3.4287 0
M  V30 4187 C 393.994 0.779822 4.16869 0
M  V30 4188 N 394.385 1.92734 4.6764 0
M  V30 4189 C 392.683 0.59554 4.42006 0
M  V30 4190 C 393.384 2.52458 5.24061 0
M  V30 4191 N 392.36 1.80735 5.12675 0
M  V30 4192 H 396.162 1.38817 2.5905 0
M  V30 4193 H 393.676 0.854277 1.38115 0
M  V30 4194 H 395.673 -0.532469 4.13486 0
M  V30 4195 H 394.333 -1.04317 3.07487 0
M  V30 4196 H 395.344 2.30816 4.63621 0
M  V30 4197 H 392.021 -0.229805 4.16867 0
M  V30 4198 H 393.411 3.49433 5.73887 0
M  V30 4199 N 396.131 -1.37776 0.765217 0
M  V30 4200 C 397.061 -2.32945 0.160953 0
M  V30 4201 C 398.042 -1.55454 -0.690516 0
M  V30 4202 O 399.227 -1.83721 -0.629318 0
M  V30 4203 C 396.357 -3.39669 -0.724031 0
M  V30 4204 C 395.311 -4.27992 0.0256173 0
M  V30 4205 C 394.637 -5.25673 -0.978383 0
M  V30 4206 C 395.937 -5.08309 1.20082 0
M  V30 4207 H 397.631 -2.83728 0.955969 0
M  V30 4208 H 395.177 -1.36416 0.461149 0
M  V30 4209 H 397.13 -4.05219 -1.15652 0
M  V30 4210 H 395.854 -2.87396 -1.5515 0
M  V30 4211 H 394.513 -3.63964 0.438812 0
M  V30 4212 H 394.161 -4.69682 -1.80022 0
M  V30 4213 H 393.861 -5.85625 -0.481378 0
M  V30 4214 H 395.385 -5.94098 -1.40995 0
M  V30 4215 H 396.799 -5.67034 0.845307 0
M  V30 4216 H 395.196 -5.77554 1.62947 0
M  V30 4217 H 396.266 -4.41365 2.00811 0
M  V30 4218 N 397.609 -0.515225 -1.4894 0
M  V30 4219 C 399.025 -0.172099 -1.58669 0
M  V30 4220 C 399.225 1.32405 -1.51892 0
M  V30 4221 O 398.281 2.10116 -1.40027 0
M  V30 4222 C 399.594 -0.761533 -2.90897 0
M  V30 4223 C 401.142 -0.728926 -3.04394 0
M  V30 4224 C 401.617 -1.29667 -4.39261 0
M  V30 4225 N 403.108 -1.25799 -4.4579 0
M  V30 4226 C 403.843 -1.66733 -5.48623 0
M  V30 4227 N 403.339 -2.15327 -6.58488 0
M  V30 4228 N 405.132 -1.58061 -5.39419 0
M  V30 4229 H 397.283 -1.48778 -1.51588 0
M  V30 4230 H 399.546 -0.617968 -0.718901 0
M  V30 4231 H 399.252 -1.81136 -3.01468 0
M  V30 4232 H 399.126 -0.230106 -3.76497 0
M  V30 4233 H 401.513 0.312098 -2.93445 0
M  V30 4234 H 401.594 -1.29766 -2.20442 0
M  V30 4235 H 401.238 -2.33655 -4.50963 0
M  V30 4236 H 401.168 -0.703752 -5.21876 0
M  V30 4237 H 403.659 -0.902102 -3.66975 0
M  V30 4238 H 403.972 -2.44594 -7.33071 0
M  V30 4239 H 402.317 -2.19311 -6.59491 0
M  V30 4240 H 405.508 -1.19906 -4.52482 0
M  V30 4241 H 405.681 -1.90284 -6.19432 0
M  V30 4242 N 399.087 1.5561 -0.249682 0
M  V30 4243 C 400.019 2.18834 0.681496 0
M  V30 4244 C 401.032 1.16546 1.1367 0
M  V30 4245 O 402.221 1.43397 1.06299 0
M  V30 4246 C 399.321 2.77992 1.9384 0
M  V30 4247 C 398.494 4.05725 1.63419 0
M  V30 4248 C 397.553 4.49174 2.74096 0
M  V30 4249 O 396.579 5.15492 2.41364 0
M  V30 4250 N 397.781 4.17191 4.03649 0
M  V30 4251 H 400.546 2.9937 0.140514 0
M  V30 4252 H 398.107 1.6175 -0.0697541 0
M  V30 4253 H 400.099 3.04015 2.67127 0
M  V30 4254 H 398.669 2.01596 2.38909 0
M  V30 4255 H 397.889 3.87261 0.736358 0
M  V30 4256 H 399.177 4.88999 1.40562 0
M  V30 4257 H 398.575 3.63955 4.33074 0
M  V30 4258 H 397.132 4.48043 4.73393 0
M  V30 4259 N 400.565 -0.0233959 1.57583 0
M  V30 4260 C 401.495 -1.02162 2.09965 0
M  V30 4261 C 402.476 -1.3735 1.00344 0
M  V30 4262 O 403.661 -1.46135 1.27899 0
M  V30 4263 C 400.791 -2.32081 2.58371 0
M  V30 4264 C 399.745 -2.1112 3.72307 0
M  V30 4265 C 399.071 -3.46848 4.06941 0
M  V30 4266 C 400.371 -1.49276 5.00514 0
M  V30 4267 H 402.065 -0.585557 2.93618 0
M  V30 4268 H 399.611 -0.280218 1.41247 0
M  V30 4269 H 401.564 -3.02249 2.93639 0
M  V30 4270 H 400.288 -2.77758 1.71808 0
M  V30 4271 H 398.947 -1.43384 3.37397 0
M  V30 4272 H 398.595 -3.90184 3.17436 0
M  V30 4273 H 398.295 -3.33646 4.83688 0
M  V30 4274 H 399.819 -4.18369 4.44747 0
M  V30 4275 H 401.233 -2.09368 5.33702 0
M  V30 4276 H 399.63 -1.46632 5.8191 0
M  V30 4277 H 400.7 -0.459217 4.82721 0
M  V30 4278 N 402.043 -1.548 -0.295768 0
M  V30 4279 C 402.975 -1.82492 -1.3867 0
M  V30 4280 C 403.988 -0.708134 -1.46592 0
M  V30 4281 O 405.177 -0.985686 -1.48817 0
M  V30 4282 C 402.277 -1.95256 -2.76999 0
M  V30 4283 C 401.45 -3.25709 -2.91946 0
M  V30 4284 C 400.509 -3.28824 -4.10806 0
M  V30 4285 O 399.535 -4.02328 -4.02643 0
M  V30 4286 N 400.737 -2.5459 -5.21694 0
M  V30 4287 H 403.502 -2.76646 -1.15269 0
M  V30 4288 H 401.063 -1.54438 -0.485849 0
M  V30 4289 H 403.055 -1.94736 -3.54768 0
M  V30 4290 H 401.625 -1.08072 -2.93324 0
M  V30 4291 H 400.845 -3.38959 -2.01247 0
M  V30 4292 H 402.133 -4.11786 -2.98847 0
M  V30 4293 H 401.531 -1.94512 -5.31208 0
M  V30 4294 H 400.088 -2.59818 -5.97778 0
M  V30 4295 N 403.521 0.559213 -1.47345 0
M  V30 4296 C 404.469 1.68747 -1.60085 0
M  V30 4297 C 405.463 1.628 -0.46825 0
M  V30 4298 O 406.669 1.68009 -0.645977 0
M  V30 4299 H 403.044 0.558329 -0.503759 0
M  V30 4300 H 405.015 1.55138 -2.54902 0
M  V30 4301 C 403.764 3.07103 -1.63042 0
M  V30 4302 H 403.087 3.12361 -2.49541 0
M  V30 4303 H 404.527 3.85743 -1.76006 0
M  V30 4304 C 402.986 3.34935 -0.363357 0
M  V30 4305 O 403.516 3.98102 0.536416 0
M  V30 4306 N 401.722 2.89574 -0.244 0
M  V30 4307 H 401.269 2.38348 -0.977133 0
M  V30 4308 H 401.227 3.08566 0.602836 0
M  V30 4309 N 404.999 1.35443 0.805782 0
M  V30 4310 C 406.248 1.28097 1.55801 0
M  V30 4311 C 406.561 -0.142428 1.95081 0
M  V30 4312 O 407.767 -0.33817 2.69386 0
M  V30 4313 C 406.223 2.24653 2.81174 0
M  V30 4314 C 405.831 3.72342 2.49129 0
M  V30 4315 C 407.575 2.2625 3.59181 0
M  V30 4316 C 405.482 4.60719 3.70799 0
M  V30 4317 H 404.412 0.475937 0.584808 0
M  V30 4318 H 407.063 1.60712 0.885661 0
M  V30 4319 H 405.445 1.85011 3.50124 0
M  V30 4320 H 406.619 4.20624 1.88181 0
M  V30 4321 H 404.934 3.73361 1.84366 0
M  V30 4322 H 407.531 2.89495 4.49552 0
M  V30 4323 H 407.874 1.26647 3.96568 0
M  V30 4324 H 408.407 2.64426 2.97193 0
M  V30 4325 H 405.146 5.61324 3.3852 0
M  V30 4326 H 404.666 4.17163 4.3097 0
M  V30 4327 H 406.345 4.76182 4.38018 0
M  V30 4328 N 406.477 -1.02803 1.19454 0
M  V30 4329 C 407.726 -1.7562 0.991996 0
M  V30 4330 C 408.039 -1.89672 -0.477901 0
M  V30 4331 O 409.245 -2.59468 -0.799287 0
M  V30 4332 C 407.701 -3.15812 1.72601 0
M  V30 4333 C 407.309 -3.0981 3.23607 0
M  V30 4334 C 409.053 -3.92918 1.60674 0
M  V30 4335 C 406.96 -4.44939 3.89594 0
M  V30 4336 H 405.89 -0.658352 0.367543 0
M  V30 4337 H 408.541 -1.15044 1.42959 0
M  V30 4338 H 406.923 -3.7686 1.21624 0
M  V30 4339 H 408.097 -2.58138 3.81709 0
M  V30 4340 H 406.412 -2.46201 3.35819 0
M  V30 4341 H 409.009 -4.9287 2.07323 0
M  V30 4342 H 409.352 -4.12502 0.561025 0
M  V30 4343 H 409.885 -3.38472 2.09001 0
M  V30 4344 H 406.624 -4.30559 4.94267 0
M  V30 4345 H 406.144 -4.96664 3.36281 0
M  V30 4346 H 407.823 -5.1382 3.93189 0
M  V30 4347 N 407.956 -0.998596 -1.21925 0
M  V30 4348 C 408.888 -0.511879 -2.23411 0
M  V30 4349 C 409.901 0.396094 -1.57908 0
M  V30 4350 O 411.09 0.197316 -1.77406 0
M  V30 4351 C 408.19 0.276802 -3.37768 0
M  V30 4352 C 407.363 -0.628687 -4.32858 0
M  V30 4353 C 406.422 0.109272 -5.26087 0
M  V30 4354 O 405.448 -0.507237 -5.66935 0
M  V30 4355 N 406.65 1.38983 -5.63617 0
M  V30 4356 H 409.415 -1.38457 -2.658 0
M  V30 4357 H 406.976 -0.873981 -1.36283 0
M  V30 4358 H 408.968 0.77928 -3.97126 0
M  V30 4359 H 407.538 1.05063 -2.94415 0
M  V30 4360 H 406.758 -1.31175 -3.71735 0
M  V30 4361 H 408.046 -1.24514 -4.93329 0
M  V30 4362 H 407.444 1.91194 -5.32411 0
M  V30 4363 H 406.001 1.83739 -6.25367 0
M  V30 4364 N 409.434 1.37368 -0.772513 0
M  V30 4365 C 410.397 2.28601 -0.165541 0
M  V30 4366 C 411.397 1.48062 0.627238 0
M  V30 4367 O 412.587 1.68268 0.450715 0
M  V30 4368 C 409.719 3.32023 0.772897 0
M  V30 4369 H 410.912 2.83787 -0.969787 0
M  V30 4370 H 408.465 1.46647 -0.540775 0
M  V30 4371 H 409.2 2.81962 1.60212 0
M  V30 4372 H 408.985 3.91555 0.206585 0
M  V30 4373 H 410.475 4.00197 1.19298 0
M  V30 4374 N 410.912 0.523116 1.48665 0
M  V30 4375 C 412.14 -0.0096312 2.06898 0
M  V30 4376 C 412.555 -1.28784 1.38059 0
M  V30 4377 O 411.912 -1.76453 0.465893 0
M  V30 4378 C 411.963 -0.244386 3.60673 0
M  V30 4379 O 411.684 0.983172 4.26925 0
M  V30 4380 C 413.185 -0.818289 4.35682 0
M  V30 4381 H 410.405 0.0304161 0.67031 0
M  V30 4382 H 412.949 0.726799 1.91149 0
M  V30 4383 H 411.104 -0.930847 3.76051 0
M  V30 4384 H 411.518 0.759653 5.1897 0
M  V30 4385 H 412.992 -0.93201 5.44075 0
M  V30 4386 H 413.469 -1.82153 3.99646 0
M  V30 4387 H 414.075 -0.168609 4.24966 0
M  V30 4388 N 412.39 -1.55475 0.257931 0
M  V30 4389 C 413.615 -2.04064 -0.370488 0
M  V30 4390 C 414.04 -1.13565 -1.49948 0
M  V30 4391 O 413.398 -0.130781 -1.80828 0
M  V30 4392 C 413.446 -3.50554 -0.845237 0
M  V30 4393 O 412.55 -3.63173 -1.95394 0
M  V30 4394 H 411.891 -0.659257 -0.0792243 0
M  V30 4395 H 414.421 -2.00903 0.387212 0
M  V30 4396 H 414.431 -3.91588 -1.14555 0
M  V30 4397 H 413.106 -4.15896 -0.0191259 0
M  V30 4398 H 411.683 -3.34039 -1.65748 0
M  V30 4399 N 413.868 0.0150385 -1.57593 0
M  V30 4400 C 415.284 0.370907 -1.5523 0
M  V30 4401 C 415.484 1.75735 -0.985882 0
M  V30 4402 O 414.54 2.44944 -0.613077 0
M  V30 4403 C 415.853 0.259908 -2.99575 0
M  V30 4404 C 417.401 0.335959 -3.11192 0
M  V30 4405 C 417.876 0.254253 -4.57294 0
M  V30 4406 N 419.367 0.312618 -4.62144 0
M  V30 4407 C 420.102 0.272505 -5.72752 0
M  V30 4408 N 419.598 0.183864 -6.92556 0
M  V30 4409 N 421.391 0.323267 -5.6117 0
M  V30 4410 H 413.542 -0.892104 -1.92757 0
M  V30 4411 H 415.805 -0.340563 -0.884715 0
M  V30 4412 H 415.511 -0.693403 -3.44797 0
M  V30 4413 H 415.385 1.048 -3.62349 0
M  V30 4414 H 417.772 1.27971 -2.65909 0
M  V30 4415 H 417.853 -0.481739 -2.51223 0
M  V30 4416 H 417.497 -0.685887 -5.03247 0
M  V30 4417 H 417.427 1.09024 -5.15191 0
M  V30 4418 H 419.918 0.38307 -3.75953 0
M  V30 4419 H 420.231 0.15874 -7.72637 0
M  V30 4420 H 418.576 0.149708 -6.94839 0
M  V30 4421 H 421.767 0.390607 -4.66467 0
M  V30 4422 H 421.94 0.288539 -6.47357 0
M  V30 4423 N 415.346 1.54954 0.287554 0
M  V30 4424 C 416.256 1.8991 1.37736 0
M  V30 4425 C 417.272 0.794701 1.54792 0
M  V30 4426 O 418.448 1.09243 1.69198 0
M  V30 4427 C 415.513 2.15108 2.71899 0
M  V30 4428 C 414.574 3.38752 2.63715 0
M  V30 4429 C 413.807 3.62739 3.91479 0
M  V30 4430 O 414.03 2.89492 4.91478 0
M  V30 4431 O 412.964 4.56267 3.92561 0
M  V30 4432 H 416.79 2.82652 1.11092 0
M  V30 4433 H 414.375 1.41315 0.484807 0
M  V30 4434 H 416.257 2.32806 3.51254 0
M  V30 4435 H 414.932 1.25551 2.9836 0
M  V30 4436 H 413.839 3.26405 1.82786 0
M  V30 4437 H 415.172 4.28483 2.42205 0
M  V30 4438 N 416.824 -0.551391 1.4764 0
M  V30 4439 C 418.073 -1.30467 1.53822 0
M  V30 4440 C 418.386 -1.94495 0.207661 0
M  V30 4441 O 419.592 -2.71099 0.147533 0
M  V30 4442 C 418.048 -2.36616 2.71184 0
M  V30 4443 C 417.656 -1.78754 4.10793 0
M  V30 4444 C 419.4 -3.13088 2.86663 0
M  V30 4445 C 417.307 -2.82717 5.19447 0
M  V30 4446 H 416.237 -0.490584 0.572576 0
M  V30 4447 H 418.888 -0.58494 1.73927 0
M  V30 4448 H 417.27 -3.11529 2.4447 0
M  V30 4449 H 418.444 -1.10173 4.47435 0
M  V30 4450 H 416.759 -1.14846 4.00249 0
M  V30 4451 H 419.356 -3.90736 3.65007 0
M  V30 4452 H 419.699 -3.67635 1.95321 0
M  V30 4453 H 420.232 -2.45288 3.13175 0
M  V30 4454 H 416.971 -2.33018 6.12685 0
M  V30 4455 H 416.491 -3.4969 4.87316 0
M  V30 4456 H 418.17 -3.46102 5.46646 0
M  V30 4457 N 418.302 -1.35869 -0.798587 0
M  V30 4458 C 419.235 -1.23801 -1.91699 0
M  V30 4459 C 420.213 -0.124143 -1.62125 0
M  V30 4460 O 421.397 -0.293656 -1.86199 0
M  V30 4461 C 418.524 -0.908063 -3.263 0
M  V30 4462 C 417.57 -2.0351 -3.74815 0
M  V30 4463 S 418.403 -3.65183 -3.91665 0
M  V30 4464 C 419.559 -3.34283 -5.29156 0
M  V30 4465 H 419.792 -2.18466 -2.01643 0
M  V30 4466 H 417.325 -1.21178 -0.956833 0
M  V30 4467 H 419.283 -0.724506 -4.04056 0
M  V30 4468 H 417.944 0.0206584 -3.14093 0
M  V30 4469 H 417.137 -1.75858 -4.72324 0
M  V30 4470 H 416.739 -2.1774 -3.04081 0
M  V30 4471 H 419.031 -2.87607 -6.13424 0
M  V30 4472 H 419.974 -4.31022 -5.61806 0
M  V30 4473 H 420.382 -2.69854 -4.95822 0
M  V30 4474 N 419.78 1.02168 -1.19998 0
M  V30 4475 C 421.026 1.7606 -1.01855 0
M  V30 4476 C 421.381 1.87178 0.445222 0
M  V30 4477 O 420.674 1.3828 1.32624 0
M  V30 4478 C 420.868 3.18081 -1.62969 0
M  V30 4479 C 420.697 3.20809 -3.15137 0
M  V30 4480 C 419.467 3.28342 -3.84083 0
M  V30 4481 C 421.665 3.07268 -4.1242 0
M  V30 4482 N 419.647 3.2052 -5.23584 0
M  V30 4483 C 421.018 3.0716 -5.38566 0
M  V30 4484 C 423.073 2.91448 -4.03686 0
M  V30 4485 C 421.776 2.92853 -6.56985 0
M  V30 4486 C 423.802 2.78494 -5.21723 0
M  V30 4487 C 423.164 2.79046 -6.46771 0
M  V30 4488 H 419.263 0.655192 -0.426905 0
M  V30 4489 H 421.847 1.21564 -1.52087 0
M  V30 4490 H 420.018 3.70882 -1.15329 0
M  V30 4491 H 421.75 3.80375 -1.38192 0
M  V30 4492 H 418.505 3.34859 -3.34913 0
M  V30 4493 H 418.929 3.19997 -5.96599 0
M  V30 4494 H 423.571 2.89838 -3.07821 0
M  V30 4495 H 421.289 2.93213 -7.53028 0
M  V30 4496 H 424.875 2.67278 -5.16773 0
M  V30 4497 H 423.755 2.69134 -7.36571 0
M  V30 4498 N 421.258 1.00505 1.21394 0
M  V30 4499 C 422.507 0.683159 1.89778 0
M  V30 4500 C 422.82 -0.789471 1.7896 0
M  V30 4501 O 424.026 -1.22344 2.42372 0
M  V30 4502 C 422.482 1.17146 3.40301 0
M  V30 4503 C 422.09 2.67017 3.5973 0
M  V30 4504 C 423.834 0.924461 4.14311 0
M  V30 4505 C 421.741 3.09387 5.04017 0
M  V30 4506 H 420.671 0.25183 0.710702 0
M  V30 4507 H 423.322 1.21622 1.37406 0
M  V30 4508 H 421.704 0.566451 3.91928 0
M  V30 4509 H 422.878 3.32968 3.18542 0
M  V30 4510 H 421.193 2.89732 2.99073 0
M  V30 4511 H 423.79 1.21658 5.20676 0
M  V30 4512 H 424.133 -0.139286 4.16067 0
M  V30 4513 H 424.666 1.49226 3.6875 0
M  V30 4514 H 421.405 4.14989 5.07409 0
M  V30 4515 H 420.925 2.48149 5.46061 0
M  V30 4516 H 422.604 3.01371 5.72525 0
M  V30 4517 N 422.737 -1.36956 0.779787 0
M  V30 4518 C 423.685 -2.32053 0.15942 0
M  V30 4519 C 424.679 -1.55333 -0.675878 0
M  V30 4520 O 425.885 -1.70668 -0.57204 0
M  V30 4521 H 422.26 -0.751286 0.0327707 0
M  V30 4522 H 424.231 -2.8195 0.977078 0
M  V30 4523 C 422.98 -3.40602 -0.698977 0
M  V30 4524 H 422.303 -3.99746 -0.0655966 0
M  V30 4525 H 423.743 -4.09486 -1.09989 0
M  V30 4526 C 422.202 -2.81359 -1.85307 0
M  V30 4527 O 422.732 -2.72751 -2.94906 0
M  V30 4528 N 420.938 -2.38786 -1.65619 0
M  V30 4529 H 420.485 -2.45987 -0.764725 0
M  V30 4530 H 420.443 -1.99493 -2.43002 0
M  V30 4531 N 424.215 -0.530993 -1.48385 0
M  V30 4532 C 425.492 0.0671788 -1.95485 0
M  V30 4533 C 425.872 1.51191 -1.47324 0
M  V30 4534 O 425.22 2.17507 -0.700202 0
M  V30 4535 C 425.43 -0.0511206 -3.48963 0
M  V30 4536 C 426.778 0.107632 -4.24464 0
M  V30 4537 O 427.802 0.0226248 -3.56193 0
M  V30 4538 O 426.661 0.285972 -5.45751 0
M  V30 4539 H 423.755 0.0787365 -0.823243 0
M  V30 4540 H 426.301 -0.595662 -1.58902 0
M  V30 4541 H 425.073 -1.05747 -3.7674 0
M  V30 4542 H 424.696 0.650525 -3.92242 0
M  V30 4543 N 425.693 1.55336 -0.266172 0
M  V30 4544 C 426.933 2.01303 0.354459 0
M  V30 4545 C 427.297 1.15046 1.53715 0
M  V30 4546 O 428.498 1.50554 2.22681 0
M  V30 4547 C 426.769 3.49748 0.735579 0
M  V30 4548 S 428.328 4.1771 1.34401 0
M  V30 4549 H 425.146 0.702333 0.110674 0
M  V30 4550 H 427.748 1.91653 -0.385916 0
M  V30 4551 H 426.452 4.10181 -0.134196 0
M  V30 4552 H 425.983 3.63364 1.50764 0
M  V30 4553 H 427.998 4.20594 2.63278 0
M  V30 4554 N 427.171 -0.0066808 1.57599 0
M  V30 4555 C 428.081 -1.01671 2.11424 0
M  V30 4556 C 429.097 -1.38143 1.05795 0
M  V30 4557 O 430.273 -1.47011 1.37658 0
M  V30 4558 C 427.338 -2.29192 2.60139 0
M  V30 4559 C 426.399 -1.99094 3.80342 0
M  V30 4560 C 425.632 -3.20535 4.26724 0
M  V30 4561 O 425.855 -4.3199 3.72479 0
M  V30 4562 O 424.789 -3.04924 5.18946 0
M  V30 4563 H 428.615 -0.589181 2.9793 0
M  V30 4564 H 426.2 -0.225091 1.47695 0
M  V30 4565 H 428.082 -3.0412 2.917 0
M  V30 4566 H 426.757 -2.71195 1.76733 0
M  V30 4567 H 425.664 -1.21663 3.53764 0
M  V30 4568 H 426.997 -1.61931 4.648 0
M  V30 4569 N 428.649 -1.55105 -0.279332 0
M  V30 4570 C 429.559 -1.90638 -1.36727 0
M  V30 4571 C 430.575 -0.802899 -1.54368 0
M  V30 4572 O 431.751 -1.10138 -1.68616 0
M  V30 4573 C 428.816 -2.16547 -2.70755 0
M  V30 4574 C 427.877 -3.40146 -2.61915 0
M  V30 4575 C 427.11 -3.6481 -3.8955 0
M  V30 4576 O 427.333 -2.92095 -4.89935 0
M  V30 4577 O 426.267 -4.58343 -3.90135 0
M  V30 4578 H 430.093 -2.83237 -1.09591 0
M  V30 4579 H 427.678 -1.4157 -0.477306 0
M  V30 4580 H 429.56 -2.34665 -3.50014 0
M  V30 4581 H 428.235 -1.27131 -2.9769 0
M  V30 4582 H 427.142 -3.2737 -1.81052 0
M  V30 4583 H 428.475 -4.29761 -2.3993 0
M  V30 4584 N 430.127 0.543554 -1.4793 0
M  V30 4585 C 431.037 1.67657 -1.64098 0
M  V30 4586 C 432.053 1.65934 -0.523622 0
M  V30 4587 O 433.229 1.85133 -0.792943 0
M  V30 4588 C 430.294 3.04146 -1.66421 0
M  V30 4589 C 429.355 3.16831 -2.89684 0
M  V30 4590 C 428.588 4.46809 -2.91886 0
M  V30 4591 O 428.811 5.33095 -2.02895 0
M  V30 4592 O 427.745 4.63573 -3.83906 0
M  V30 4593 H 431.571 1.56957 -2.59997 0
M  V30 4594 H 429.156 0.715116 -1.31173 0
M  V30 4595 H 431.038 3.85346 -1.70548 0
M  V30 4596 H 429.713 3.152 -0.736923 0
M  V30 4597 H 428.62 2.34977 -2.91095 0
M  V30 4598 H 429.953 3.10687 -3.81752 0
M  V30 4599 N 431.605 1.3629 0.791371 0
M  V30 4600 C 432.515 1.32606 1.93527 0
M  V30 4601 C 433.531 0.228541 1.72493 0
M  V30 4602 O 434.707 0.460571 1.96063 0
M  V30 4603 C 431.772 1.11271 3.28359 0
M  V30 4604 C 430.833 2.3048 3.62185 0
M  V30 4605 C 430.066 2.10154 4.90583 0
M  V30 4606 O 430.289 1.07572 5.60165 0
M  V30 4607 O 429.223 2.97884 5.23019 0
M  V30 4608 H 433.049 2.28909 1.99585 0
M  V30 4609 H 430.634 1.16818 0.931344 0
M  V30 4610 H 432.516 1.01283 4.09047 0
M  V30 4611 H 431.191 0.180292 3.23198 0
M  V30 4612 H 430.098 2.46036 2.81811 0
M  V30 4613 H 431.431 3.22221 3.72068 0
M  V30 4614 N 433.083 -1.0153 1.20538 0
M  V30 4615 C 434.013 -2.11972 0.979295 0
M  V30 4616 C 434.994 -1.6985 -0.0921787 0
M  V30 4617 O 436.179 -1.94089 0.0655932 0
M  V30 4618 C 433.309 -3.43201 0.531984 0
M  V30 4619 C 432.263 -3.9907 1.54685 0
M  V30 4620 C 431.589 -5.26082 0.956127 0
M  V30 4621 C 432.889 -4.32313 2.93092 0
M  V30 4622 H 434.583 -2.31143 1.90298 0
M  V30 4623 H 432.129 -1.11079 0.916372 0
M  V30 4624 H 434.082 -4.1985 0.361044 0
M  V30 4625 H 432.806 -3.23792 -0.427327 0
M  V30 4626 H 431.465 -3.2453 1.70517 0
M  V30 4627 H 431.113 -5.02999 -0.0111538 0
M  V30 4628 H 430.813 -5.64426 1.63393 0
M  V30 4629 H 432.337 -6.05386 0.796284 0
M  V30 4630 H 433.751 -4.99845 2.80763 0
M  V30 4631 H 432.148 -4.81774 3.57791 0
M  V30 4632 H 433.218 -3.41025 3.44717 0
M  V30 4633 N 434.561 -1.01147 -1.20859 0
M  V30 4634 C 435.491 -0.597663 -2.25722 0
M  V30 4635 C 436.472 0.384744 -1.65692 0
M  V30 4636 O 437.657 0.271303 -1.92296 0
M  V30 4637 C 434.787 0.0700149 -3.47229 0
M  V30 4638 C 433.741 -0.832843 -4.19819 0
M  V30 4639 C 433.067 -0.0312202 -5.34691 0
M  V30 4640 C 434.367 -2.1385 -4.76514 0
M  V30 4641 H 436.061 -1.47423 -2.60589 0
M  V30 4642 H 433.607 -0.710301 -1.25263 0
M  V30 4643 H 435.56 0.37103 -4.19763 0
M  V30 4644 H 434.284 0.981259 -3.11511 0
M  V30 4645 H 432.943 -1.11778 -3.49144 0
M  V30 4646 H 432.591 0.881515 -4.95215 0
M  V30 4647 H 432.291 -0.632434 -5.84187 0
M  V30 4648 H 433.815 0.26346 -6.10031 0
M  V30 4649 H 435.229 -1.9002 -5.40893 0
M  V30 4650 H 433.626 -2.69012 -5.36426 0
M  V30 4651 H 434.696 -2.80495 -3.95538 0
M  V30 4652 N 436.039 1.36541 -0.78704 0
M  V30 4653 C 437.269 2.03266 -0.369662 0
M  V30 4654 C 437.677 1.59481 1.01796 0
M  V30 4655 O 437.02 0.778612 1.66383 0
M  V30 4656 C 437.082 3.57779 -0.351371 0
M  V30 4657 C 436.746 4.24756 -1.68617 0
M  V30 4658 C 437.743 4.47811 -2.64124 0
M  V30 4659 C 435.428 4.62277 -1.96481 0
M  V30 4660 C 437.422 5.07464 -3.85693 0
M  V30 4661 C 435.109 5.21649 -3.18317 0
M  V30 4662 C 436.107 5.44182 -4.12741 0
M  V30 4663 O 435.795 6.02307 -5.32429 0
M  V30 4664 H 435.527 0.658977 -0.150751 0
M  V30 4665 H 438.081 1.75548 -1.0664 0
M  V30 4666 H 436.311 3.84606 0.401847 0
M  V30 4667 H 438 4.05879 0.0410147 0
M  V30 4668 H 438.766 4.19221 -2.43883 0
M  V30 4669 H 434.645 4.44065 -1.23805 0
M  V30 4670 H 438.189 5.24968 -4.59407 0
M  V30 4671 H 434.086 5.49664 -3.38437 0
M  V30 4672 H 434.854 6.20775 -5.33461 0
M  V30 4673 N 437.518 0.538854 1.48102 0
M  V30 4674 C 438.795 -0.0568108 1.95517 0
M  V30 4675 C 439.175 -1.50408 1.48124 0
M  V30 4676 O 438.523 -2.17133 0.711727 0
M  V30 4677 C 438.733 0.0696262 3.48931 0
M  V30 4678 C 440.081 -0.0851202 4.24515 0
M  V30 4679 O 441.105 -0.0037347 3.562 0
M  V30 4680 O 439.964 -0.257025 5.45895 0
M  V30 4681 H 437.058 -0.0743695 0.823649 0
M  V30 4682 H 439.604 0.604081 1.58584 0
M  V30 4683 H 438.376 1.07744 3.76174 0
M  V30 4684 H 437.999 -0.629714 3.92582 0
M  V30 4685 N 438.996 -1.55193 0.274407 0
M  V30 4686 C 440.242 -2.00604 -0.33608 0
M  V30 4687 C 440.597 -1.15948 -1.53538 0
M  V30 4688 O 439.89 -0.221385 -1.90317 0
M  V30 4689 C 440.084 -3.49019 -0.769458 0
M  V30 4690 C 439.913 -4.48038 0.386301 0
M  V30 4691 C 438.683 -4.97757 0.869854 0
M  V30 4692 C 440.881 -4.99558 1.22254 0
M  V30 4693 N 438.863 -5.80575 1.99515 0
M  V30 4694 C 440.234 -5.79816 2.19575 0
M  V30 4695 C 442.289 -4.81799 1.25597 0
M  V30 4696 C 440.992 -6.44208 3.19981 0
M  V30 4697 C 443.018 -5.46989 2.24848 0
M  V30 4698 C 442.38 -6.27058 3.20901 0
M  V30 4699 H 438.479 -0.777013 -0.088172 0
M  V30 4700 H 441.063 -1.90583 0.398266 0
M  V30 4701 H 439.234 -3.59383 -1.47303 0
M  V30 4702 H 440.966 -3.81263 -1.35722 0
M  V30 4703 H 437.721 -4.71464 0.449281 0
M  V30 4704 H 438.145 -6.26675 2.5614 0
M  V30 4705 H 442.787 -4.19501 0.527158 0
M  V30 4706 H 440.505 -7.05656 3.93796 0
M  V30 4707 H 444.091 -5.35189 2.28174 0
M  V30 4708 H 442.971 -6.7661 3.96445 0
M  V30 4709 N 440.474 -0.00167713 -1.576 0
M  V30 4710 C 441.699 0.69739 -1.95323 0
M  V30 4711 C 442.124 1.6642 -0.876706 0
M  V30 4712 O 441.482 1.80548 0.165007 0
M  V30 4713 C 441.53 1.40403 -3.32144 0
M  V30 4714 O 440.634 2.5185 -3.26566 0
M  V30 4715 H 439.975 0.185373 -0.637599 0
M  V30 4716 H 442.505 -0.0553665 -2.04525 0
M  V30 4717 H 442.515 1.76707 -3.67748 0
M  V30 4718 H 441.19 0.695167 -4.10049 0
M  V30 4719 H 439.767 2.17861 -3.0264 0
M  V30 4720 N 441.952 1.55251 0.271103 0
M  V30 4721 C 443.229 1.66664 1.02384 0
M  V30 4722 C 443.609 0.534363 2.04225 0
M  V30 4723 O 442.957 -0.465337 2.23712 0
M  V30 4724 C 443.167 3.05961 1.67895 0
M  V30 4725 C 444.515 3.63772 2.18986 0
M  V30 4726 O 445.539 3.08606 1.77878 0
M  V30 4727 O 444.398 4.60429 2.94393 0
M  V30 4728 H 441.492 0.676957 0.475035 0
M  V30 4729 H 444.038 1.67589 0.26681 0
M  V30 4730 H 442.81 3.79815 0.941071 0
M  V30 4731 H 442.433 3.08943 2.5028 0
M  V30 4732 N 443.43 -0.535701 1.48216 0
M  V30 4733 C 444.377 -1.64083 1.62312 0
M  V30 4734 C 445.347 -1.59448 0.465365 0
M  V30 4735 O 446.532 -1.77959 0.688135 0
M  V30 4736 C 443.672 -3.0236 1.66349 0
M  V30 4737 C 442.785 -3.17273 2.93193 0
M  V30 4738 C 441.92 -4.46075 2.88427 0
M  V30 4739 C 440.959 -4.54496 4.1 0
M  V30 4740 N 440.096 -5.7468 4.03345 0
M  V30 4741 H 444.936 -1.51374 2.5669 0
M  V30 4742 H 442.473 -0.737059 1.27302 0
M  V30 4743 H 444.431 -3.82461 1.66672 0
M  V30 4744 H 443.061 -3.13854 0.754672 0
M  V30 4745 H 442.113 -2.30462 3.02641 0
M  V30 4746 H 443.425 -3.19357 3.83162 0
M  V30 4747 H 442.579 -5.3446 2.87119 0
M  V30 4748 H 441.318 -4.46504 1.96177 0
M  V30 4749 H 440.323 -3.64519 4.11589 0
M  V30 4750 H 441.548 -4.5581 5.03402 0
M  V30 4751 H 439.494 -5.76017 3.13912 0
M  V30 4752 H 439.411 -5.78234 4.87013 0
M  V30 4753 H 440.679 -6.65367 4.06087 0
M  V30 4754 N 444.908 -1.36708 -0.784132 0
M  V30 4755 C 445.856 -1.31533 -1.91838 0
M  V30 4756 C 446.85 -0.206205 -1.6814 0
M  V30 4757 O 448.056 -0.373519 -1.76082 0
M  V30 4758 H 444.431 -0.409613 -0.630651 0
M  V30 4759 H 446.402 -2.2731 -1.9332 0
M  V30 4760 C 445.151 -1.12679 -3.28936 0
M  V30 4761 H 444.474 -1.97274 -3.4774 0
M  V30 4762 H 445.914 -1.13106 -4.08636 0
M  V30 4763 C 444.373 0.168281 -3.36479 0
M  V30 4764 O 444.903 1.15625 -3.84699 0
M  V30 4765 N 443.109 0.214762 -2.89805 0
M  V30 4766 H 442.656 -0.589852 -2.50756 0
M  V30 4767 H 442.614 1.08094 -2.95234 0
M  V30 4768 N 446.386 1.0089 -1.21074 0
M  V30 4769 C 447.614 1.78191 -1.05145 0
M  V30 4770 C 448.029 1.84537 0.398952 0
M  V30 4771 O 447.386 1.30393 1.27687 0
M  V30 4772 C 447.437 3.22288 -1.63746 0
M  V30 4773 O 447.158 3.16315 -3.03111 0
M  V30 4774 C 448.659 4.16106 -1.52875 0
M  V30 4775 H 445.879 0.560129 -0.369454 0
M  V30 4776 H 448.423 1.26945 -1.60328 0
M  V30 4777 H 446.578 3.70655 -1.12664 0
M  V30 4778 H 446.992 4.06817 -3.31059 0
M  V30 4779 H 448.466 5.15026 -1.98626 0
M  V30 4780 H 448.943 4.36541 -0.482521 0
M  V30 4781 H 449.549 3.73625 -2.03185 0
M  V30 4782 N 447.864 1.01787 1.20321 0
M  V30 4783 C 448.812 0.58254 2.25187 0
M  V30 4784 C 449.806 -0.379359 1.65098 0
M  V30 4785 O 451.012 -0.249142 1.78267 0
M  V30 4786 H 447.387 0.170078 0.732514 0
M  V30 4787 H 449.358 1.47788 2.59232 0
M  V30 4788 C 448.107 -0.0620885 3.47645 0
M  V30 4789 H 447.43 0.669069 3.94162 0
M  V30 4790 H 448.87 -0.329784 4.22716 0
M  V30 4791 C 447.329 -1.3053 3.10586 0
M  V30 4792 O 447.859 -2.39848 3.22236 0
M  V30 4793 N 446.065 -1.18988 2.65123 0
M  V30 4794 H 445.612 -0.300341 2.55843 0
M  V30 4795 H 445.57 -2.02267 2.40698 0
M  V30 4796 N 449.342 -1.36122 0.79427 0
M  V30 4797 C 450.591 -1.98361 0.365464 0
M  V30 4798 C 450.904 -1.6374 -1.06997 0
M  V30 4799 O 452.11 -2.19251 -1.60129 0
M  V30 4800 C 450.566 -3.54821 0.602496 0
M  V30 4801 C 450.174 -3.98362 2.04967 0
M  V30 4802 C 451.918 -4.2383 0.238437 0
M  V30 4803 C 449.825 -5.47619 2.2331 0
M  V30 4804 H 448.755 -0.742193 0.13291 0
M  V30 4805 H 451.406 -1.55354 0.976589 0
M  V30 4806 H 449.788 -3.95922 -0.078409 0
M  V30 4807 H 450.962 -3.68447 2.76737 0
M  V30 4808 H 449.277 -3.42206 2.37243 0
M  V30 4809 H 451.874 -5.33529 0.353705 0
M  V30 4810 H 452.217 -4.08264 -0.814006 0
M  V30 4811 H 452.75 -3.88108 0.872769 0
M  V30 4812 H 449.489 -5.68138 3.26955 0
M  V30 4813 H 449.009 -5.79145 1.5605 0
M  V30 4814 H 450.688 -6.13911 2.0426 0
M  V30 4815 N 450.82 -0.546701 -1.47814 0
M  V30 4816 C 451.783 0.196287 -2.28358 0
M  V30 4817 C 452.783 0.852437 -1.36346 0
M  V30 4818 O 453.973 0.709913 -1.59078 0
M  V30 4819 C 451.105 1.28579 -3.15722 0
M  V30 4820 H 452.298 -0.511086 -2.95513 0
M  V30 4821 H 449.851 -0.303248 -1.5333 0
M  V30 4822 H 450.586 2.0259 -2.53235 0
M  V30 4823 H 450.371 0.820229 -3.83425 0
M  V30 4824 H 451.861 1.80793 -3.76435 0
M  V30 4825 N 452.299 1.55045 -0.282633 0
M  V30 4826 C 453.231 2.2023 0.634924 0
M  V30 4827 C 454.244 1.18931 1.11172 0
M  V30 4828 O 455.433 1.4562 1.03233 0
M  V30 4829 C 452.533 2.82041 1.87899 0
M  V30 4830 C 451.706 4.091 1.54776 0
M  V30 4831 C 450.765 4.54887 2.64507 0
M  V30 4832 O 449.791 5.20496 2.30375 0
M  V30 4833 N 450.993 4.25659 3.94709 0
M  V30 4834 H 453.758 2.99601 0.0769811 0
M  V30 4835 H 451.319 1.61565 -0.104048 0
M  V30 4836 H 453.311 3.09613 2.60619 0
M  V30 4837 H 451.881 2.06618 2.3458 0
M  V30 4838 H 451.101 3.88736 0.654049 0
M  V30 4839 H 452.389 4.9187 1.30158 0
M  V30 4840 H 451.787 3.7306 4.25256 0
M  V30 4841 H 450.344 4.57984 4.63782 0
M  V30 4842 N 453.777 0.010035 1.57597 0
M  V30 4843 C 454.724 -0.978122 2.09049 0
M  V30 4844 C 455.694 -1.33509 0.988159 0
M  V30 4845 O 456.879 -1.43172 1.26121 0
M  V30 4846 C 454.019 -2.26158 2.60666 0
M  V30 4847 C 453.132 -1.96275 3.84838 0
M  V30 4848 C 452.267 -3.18776 4.24918 0
M  V30 4849 C 451.306 -2.84625 5.41899 0
M  V30 4850 N 450.443 -3.99693 5.77226 0
M  V30 4851 H 455.283 -0.532431 2.93205 0
M  V30 4852 H 452.82 -0.251234 1.44939 0
M  V30 4853 H 454.778 -3.01202 2.88675 0
M  V30 4854 H 453.408 -2.68378 1.79369 0
M  V30 4855 H 452.46 -1.11555 3.63675 0
M  V30 4856 H 453.772 -1.67111 4.69974 0
M  V30 4857 H 452.926 -4.02157 4.54262 0
M  V30 4858 H 451.665 -3.51087 3.38511 0
M  V30 4859 H 450.67 -1.99653 5.12268 0
M  V30 4860 H 451.895 -2.53551 6.29991 0
M  V30 4861 H 449.841 -4.31882 4.93776 0
M  V30 4862 H 449.758 -3.74087 6.56959 0
M  V30 4863 H 451.026 -4.83834 6.11167 0
M  V30 4864 N 455.255 -1.55392 -0.262866 0
M  V30 4865 C 456.187 -1.85392 -1.34768 0
M  V30 4866 C 457.2 -0.739069 -1.45057 0
M  V30 4867 O 458.389 -1.01703 -1.46693 0
M  V30 4868 C 455.489 -2.01088 -2.72795 0
M  V30 4869 C 454.662 -3.31828 -2.84972 0
M  V30 4870 C 453.721 -3.37464 -4.03738 0
M  V30 4871 O 452.747 -4.10778 -3.94018 0
M  V30 4872 N 453.949 -2.65599 -5.16176 0
M  V30 4873 H 456.714 -2.79029 -1.09375 0
M  V30 4874 H 454.275 -1.55434 -0.452981 0
M  V30 4875 H 456.267 -2.02217 -3.50557 0
M  V30 4876 H 454.837 -1.1427 -2.90966 0
M  V30 4877 H 454.057 -3.43152 -1.94012 0
M  V30 4878 H 455.345 -4.18032 -2.90045 0
M  V30 4879 H 454.743 -2.05736 -5.26962 0
M  V30 4880 H 453.3 -2.72439 -5.92132 0
M  V30 4881 N 456.733 0.527833 -1.48498 0
M  V30 4882 C 457.643 1.65907 -1.65867 0
M  V30 4883 C 458.659 1.6537 -0.541192 0
M  V30 4884 O 459.835 1.84282 -0.812534 0
M  V30 4885 C 456.9 3.02364 -1.69637 0
M  V30 4886 C 455.961 3.1374 -2.93028 0
M  V30 4887 C 455.194 4.43688 -2.96609 0
M  V30 4888 O 455.417 5.30913 -2.08538 0
M  V30 4889 O 454.351 4.59475 -3.88802 0
M  V30 4890 H 458.177 1.5419 -2.61647 0
M  V30 4891 H 455.762 0.701163 -1.31924 0
M  V30 4892 H 457.644 3.83515 -1.74625 0
M  V30 4893 H 456.319 3.14401 -0.770312 0
M  V30 4894 H 455.226 2.31877 -2.93571 0
M  V30 4895 H 456.559 3.06621 -3.85026 0
M  V30 4896 N 458.211 1.37122 0.776871 0
M  V30 4897 C 459.174 1.32301 1.8716 0
M  V30 4898 C 460.174 0.228099 1.59174 0
M  V30 4899 O 461.364 0.483642 1.67352 0
M  V30 4900 C 458.496 1.054 3.24197 0
M  V30 4901 H 459.689 2.29673 1.92848 0
M  V30 4902 H 457.242 1.22077 0.97606 0
M  V30 4903 H 457.977 0.0853872 3.24188 0
M  V30 4904 H 457.762 1.84648 3.45901 0
M  V30 4905 H 459.252 1.04664 4.04271 0
M  V30 4906 N 459.689 -1.00246 1.21608 0
M  V30 4907 C 460.936 -1.74061 1.03485 0
M  V30 4908 C 461.264 -1.89658 -0.431308 0
M  V30 4909 O 460.519 -1.42976 -1.33627 0
M  V30 4910 C 460.818 -3.15448 1.68009 0
M  V30 4911 C 460.484 -3.19792 3.17874 0
M  V30 4912 C 459.146 -3.20685 3.58768 0
M  V30 4913 C 461.498 -3.16835 4.13842 0
M  V30 4914 C 458.826 -3.16309 4.94131 0
M  V30 4915 C 461.178 -3.14001 5.49169 0
M  V30 4916 C 459.842 -3.13204 5.89457 0
M  V30 4917 H 459.112 -0.636934 0.378677 0
M  V30 4918 H 461.759 -1.17473 1.51236 0
M  V30 4919 H 460.064 -3.75284 1.12557 0
M  V30 4920 H 461.761 -3.71285 1.51487 0
M  V30 4921 H 458.351 -3.19842 2.85305 0
M  V30 4922 H 462.535 -3.15303 3.83272 0
M  V30 4923 H 457.791 -3.14032 5.24589 0
M  V30 4924 H 461.965 -3.10667 6.23265 0
M  V30 4925 H 459.592 -3.09568 6.94314 0
M  V30 4926 N 461.167 -1.02423 -1.1978 0
M  V30 4927 C 462.392 -0.7373 -1.93852 0
M  V30 4928 C 462.817 0.696923 -1.74713 0
M  V30 4929 O 462.175 1.48056 -1.04638 0
M  V30 4930 C 462.223 -1.08783 -3.438 0
M  V30 4931 O 461.327 -0.20383 -4.11896 0
M  V30 4932 H 460.668 -0.27284 -0.605355 0
M  V30 4933 H 463.198 -1.36966 -1.51992 0
M  V30 4934 H 463.208 -1.04276 -3.9445 0
M  V30 4935 H 461.883 -2.13274 -3.57053 0
M  V30 4936 H 460.46 -0.307091 -3.71633 0
M  V30 4937 N 462.645 1.35699 -0.801477 0
M  V30 4938 C 463.894 1.98165 -0.375979 0
M  V30 4939 C 464.207 1.64306 1.06127 0
M  V30 4940 O 465.413 2.20097 1.58964 0
M  V30 4941 C 463.869 3.54497 -0.621305 0
M  V30 4942 C 463.477 3.9727 -2.07076 0
M  V30 4943 C 465.221 4.23697 -0.26091 0
M  V30 4944 C 463.128 5.46427 -2.26211 0
M  V30 4945 H 462.058 0.741478 -0.136844 0
M  V30 4946 H 464.709 1.54834 -0.984814 0
M  V30 4947 H 463.091 3.95958 0.0574112 0
M  V30 4948 H 464.265 3.66974 -2.78687 0
M  V30 4949 H 462.58 3.40943 -2.39054 0
M  V30 4950 H 465.177 5.33334 -0.381994 0
M  V30 4951 H 465.52 4.0869 0.792344 0
M  V30 4952 H 466.053 3.87639 -0.893339 0
M  V30 4953 H 462.792 5.66396 -3.29963 0
M  V30 4954 H 462.312 5.78309 -1.59119 0
M  V30 4955 H 463.991 6.12819 -2.07513 0
M  V30 4956 N 464.123 0.554532 1.47522 0
M  V30 4957 C 465.539 0.214107 1.58157 0
M  V30 4958 C 465.739 -1.28331 1.55349 0
M  V30 4959 O 464.795 -2.06329 1.45549 0
M  V30 4960 C 466.108 0.838391 2.88776 0
M  V30 4961 C 467.656 0.809374 3.02354 0
M  V30 4962 C 468.131 1.41268 4.35669 0
M  V30 4963 N 469.622 1.37574 4.42298 0
M  V30 4964 C 470.357 1.8122 5.4401 0
M  V30 4965 N 469.853 2.3271 6.52547 0
M  V30 4966 N 471.646 1.72307 5.35039 0
M  V30 4967 H 463.797 1.52744 1.4759 0
M  V30 4968 H 466.06 0.636812 0.702264 0
M  V30 4969 H 465.766 1.89065 2.96559 0
M  V30 4970 H 465.64 0.329847 3.75755 0
M  V30 4971 H 468.027 -0.234187 2.94169 0
M  V30 4972 H 468.108 1.35565 2.16924 0
M  V30 4973 H 467.752 2.45529 4.4461 0
M  V30 4974 H 467.682 0.841871 5.19827 0
M  V30 4975 H 470.173 0.999081 3.64454 0
M  V30 4976 H 470.486 2.63944 7.26329 0
M  V30 4977 H 468.831 2.36719 6.53444 0
M  V30 4978 H 472.022 1.3186 4.49144 0
M  V30 4979 H 472.195 2.06641 6.14169 0
M  V30 4980 N 465.601 -1.54893 0.290851 0
M  V30 4981 C 466.534 -2.19289 -0.631489 0
M  V30 4982 C 467.512 -1.15893 -1.14051 0
M  V30 4983 O 468.696 -1.4449 -1.21058 0
M  V30 4984 C 465.823 -2.82866 -1.86291 0
M  V30 4985 C 464.869 -3.997 -1.48801 0
M  V30 4986 S 465.702 -5.32641 -0.552644 0
M  V30 4987 C 466.858 -5.99696 -1.79209 0
M  V30 4988 H 467.091 -2.9718 -0.0843791 0
M  V30 4989 H 464.624 -1.54218 0.075031 0
M  V30 4990 H 466.582 -3.20124 -2.56964 0
M  V30 4991 H 465.243 -2.04839 -2.38117 0
M  V30 4992 H 464.436 -4.42932 -2.40473 0
M  V30 4993 H 464.038 -3.63947 -0.861321 0
M  V30 4994 H 466.33 -6.19886 -2.734 0
M  V30 4995 H 467.273 -6.94071 -1.40251 0
M  V30 4996 H 467.681 -5.29226 -1.96419 0
M  V30 4997 N 467.08 -0.0183926 -1.57589 0
M  V30 4998 C 468.305 0.676634 -1.96052 0
M  V30 4999 C 468.73 1.6548 -0.894307 0
M  V30 5000 O 468.088 1.80712 0.145849 0
M  V30 5001 C 468.136 1.36872 -3.33614 0
M  V30 5002 O 467.24 2.48372 -3.29219 0
M  V30 5003 H 466.581 0.1786 -0.63953 0
M  V30 5004 H 469.111 -0.077056 -2.04455 0
M  V30 5005 H 469.121 1.72797 -3.69601 0
M  V30 5006 H 467.796 0.651636 -4.10763 0
M  V30 5007 H 466.373 2.14639 -3.04934 0
M  V30 5008 N 468.558 1.5553 0.254621 0
M  V30 5009 C 469.49 1.86104 1.33783 0
M  V30 5010 C 470.503 0.746752 1.44663 0
M  V30 5011 O 471.692 1.0248 1.46151 0
M  V30 5012 C 468.792 2.02532 2.71724 0
M  V30 5013 C 467.965 3.33335 2.83208 0
M  V30 5014 C 467.024 3.396 4.01943 0
M  V30 5015 O 466.05 4.12862 3.91834 0
M  V30 5016 N 467.252 2.68332 5.1476 0
M  V30 5017 H 470.017 2.79605 1.07893 0
M  V30 5018 H 467.578 1.55672 0.444732 0
M  V30 5019 H 469.57 2.04074 3.4948 0
M  V30 5020 H 468.14 1.15811 2.90356 0
M  V30 5021 H 467.36 3.44176 1.92189 0
M  V30 5022 H 468.648 4.19565 2.87824 0
M  V30 5023 H 468.046 2.08528 5.25864 0
M  V30 5024 H 466.603 2.75575 5.90679 0
M  V30 5025 N 470.036 -0.519951 1.48776 0
M  V30 5026 C 470.966 -1.63253 1.66945 0
M  V30 5027 C 471.947 -1.62014 0.518224 0
M  V30 5028 O 473.132 -1.79053 0.751919 0
M  V30 5029 C 470.262 -3.0181 1.71836 0
M  V30 5030 C 469.216 -3.17911 2.8656 0
M  V30 5031 C 468.542 -4.5763 2.76548 0
M  V30 5032 C 469.842 -2.99729 4.27738 0
M  V30 5033 H 471.536 -1.48302 2.6009 0
M  V30 5034 H 469.082 -0.712026 1.25165 0
M  V30 5035 H 471.035 -3.79525 1.83135 0
M  V30 5036 H 469.759 -3.17806 0.752775 0
M  V30 5037 H 468.418 -2.42616 2.74833 0
M  V30 5038 H 468.066 -4.70476 1.77937 0
M  V30 5039 H 467.766 -4.69346 3.53536 0
M  V30 5040 H 469.29 -5.37431 2.89828 0
M  V30 5041 H 470.704 -3.67228 4.40246 0
M  V30 5042 H 469.101 -3.22932 5.05801 0
M  V30 5043 H 470.171 -1.96047 4.43502 0
M  V30 5044 N 471.514 -1.37532 -0.769588 0
M  V30 5045 C 472.424 -1.35668 -1.91393 0
M  V30 5046 C 473.44 -0.255954 -1.72107 0
M  V30 5047 O 474.616 -0.491704 -1.95305 0
M  V30 5048 C 471.681 -1.16481 -3.26547 0
M  V30 5049 C 470.742 -2.36212 -3.58472 0
M  V30 5050 C 469.975 -2.17932 -4.87177 0
M  V30 5051 O 470.198 -1.1647 -5.58382 0
M  V30 5052 O 469.132 -3.06167 -5.18214 0
M  V30 5053 H 472.958 -2.32055 -1.95918 0
M  V30 5054 H 470.543 -1.18284 -0.912641 0
M  V30 5055 H 472.425 -1.07778 -4.07384 0
M  V30 5056 H 471.1 -0.231687 -3.2287 0
M  V30 5057 H 470.007 -2.50488 -2.77861 0
M  V30 5058 H 471.34 -3.281 -3.66894 0
M  V30 5059 N 472.992 0.995999 -1.22138 0
M  V30 5060 C 474.238 1.73767 -1.04561 0
M  V30 5061 C 474.571 1.89633 0.418698 0
M  V30 5062 O 473.846 1.43723 1.3105 0
M  V30 5063 C 474.129 3.14505 -1.75382 0
M  V30 5064 C 473.982 3.06306 -3.29388 0
M  V30 5065 C 475.301 4.13615 -1.50369 0
M  V30 5066 H 472.42 0.630728 -0.38125 0
M  V30 5067 H 475.062 1.16057 -1.50435 0
M  V30 5068 H 473.212 3.63775 -1.36383 0
M  V30 5069 H 474.884 2.64681 -3.77812 0
M  V30 5070 H 473.127 2.43186 -3.59226 0
M  V30 5071 H 473.798 4.05884 -3.74116 0
M  V30 5072 H 476.274 3.73089 -1.84239 0
M  V30 5073 H 475.15 5.10212 -2.02421 0
M  V30 5074 H 475.411 4.39949 -0.435611 0
M  V30 5075 N 474.47 1.03057 1.19235 0
M  V30 5076 C 475.417 0.612832 2.22515 0
M  V30 5077 C 476.387 -0.374224 1.61829 0
M  V30 5078 O 477.572 -0.270501 1.88873 0
M  V30 5079 C 474.712 -0.028475 3.45088 0
M  V30 5080 C 473.825 1.00483 4.20151 0
M  V30 5081 C 472.96 0.333102 5.30155 0
M  V30 5082 C 471.999 1.3522 5.96977 0
M  V30 5083 N 471.136 0.70616 6.9854 0
M  V30 5084 H 475.976 1.49812 2.57605 0
M  V30 5085 H 473.513 0.749658 1.26564 0
M  V30 5086 H 475.471 -0.417548 4.15105 0
M  V30 5087 H 474.101 -0.877334 3.10649 0
M  V30 5088 H 473.153 1.51194 3.49062 0
M  V30 5089 H 474.465 1.77929 4.65986 0
M  V30 5090 H 473.619 -0.110725 6.06599 0
M  V30 5091 H 472.358 -0.473547 4.85396 0
M  V30 5092 H 471.363 1.80627 5.19282 0
M  V30 5093 H 472.588 2.16037 6.4382 0
M  V30 5094 H 470.534 -0.0803667 6.55951 0
M  V30 5095 H 470.451 1.41848 7.42573 0
M  V30 5096 H 471.719 0.286391 7.78974 0
M  V30 5097 N 475.948 -1.35272 0.808662 0
M  V30 5098 C 476.858 -2.33546 0.222079 0
M  V30 5099 C 477.874 -1.6196 -0.636011 0
M  V30 5100 O 479.05 -1.93822 -0.547274 0
M  V30 5101 C 476.115 -3.41148 -0.61795 0
M  V30 5102 C 475.176 -4.28507 0.260875 0
M  V30 5103 C 474.409 -5.3097 -0.539156 0
M  V30 5104 O 474.632 -5.42123 -1.77367 0
M  V30 5105 O 473.566 -6.01858 0.0710526 0
M  V30 5106 H 477.392 -2.85515 1.03512 0
M  V30 5107 H 474.977 -1.38079 0.570495 0
M  V30 5108 H 476.859 -4.06889 -1.09634 0
M  V30 5109 H 475.534 -2.91447 -1.40855 0
M  V30 5110 H 474.441 -3.6574 0.786451 0
M  V30 5111 H 475.774 -4.81611 1.01547 0
M  V30 5112 N 477.426 -0.562348 -1.47226 0
M  V30 5113 C 478.373 0.182461 -2.30078 0
M  V30 5114 C 479.343 0.903503 -1.39377 0
M  V30 5115 O 480.528 0.898188 -1.68337 0
M  V30 5116 C 477.668 1.20322 -3.23445 0
M  V30 5117 C 476.781 0.487717 -4.29238 0
M  V30 5118 C 475.916 1.49422 -5.09752 0
M  V30 5119 C 474.955 0.763976 -6.07314 0
M  V30 5120 N 474.092 1.71755 -6.80768 0
M  V30 5121 H 478.932 -0.530169 -2.93246 0
M  V30 5122 H 476.469 -0.273276 -1.44539 0
M  V30 5123 H 478.427 1.80768 -3.76004 0
M  V30 5124 H 477.057 1.88382 -2.6213 0
M  V30 5125 H 476.109 -0.231374 -3.79696 0
M  V30 5126 H 477.421 -0.0841003 -4.98729 0
M  V30 5127 H 476.575 2.17206 -5.66486 0
M  V30 5128 H 475.314 2.09995 -4.40174 0
M  V30 5129 H 474.319 0.0722344 -5.49753 0
M  V30 5130 H 475.544 0.16391 -6.78902 0
M  V30 5131 H 473.49 2.31177 -6.13916 0
M  V30 5132 H 473.407 1.19802 -7.46447 0
M  V30 5133 H 474.675 2.38638 -7.42073 0
M  V30 5134 N 478.904 1.54736 -0.299062 0
M  V30 5135 C 479.814 2.27127 0.587413 0
M  V30 5136 C 480.83 1.30575 1.15005 0
M  V30 5137 O 482.006 1.63554 1.17525 0
M  V30 5138 C 479.071 2.99645 1.74395 0
M  V30 5139 C 478.132 4.11731 1.21559 0
M  V30 5140 C 477.365 4.80781 2.317 0
M  V30 5141 O 477.588 4.4918 3.51558 0
M  V30 5142 O 476.522 5.68226 1.98501 0
M  V30 5143 H 480.348 3.037 0.000250109 0
M  V30 5144 H 477.933 1.49256 -0.0655919 0
M  V30 5145 H 479.815 3.45138 2.4178 0
M  V30 5146 H 478.49 2.25969 2.31775 0
M  V30 5147 H 477.397 3.70641 0.507514 0
M  V30 5148 H 478.73 4.87379 0.687233 0
M  V30 5149 N 480.382 0.0267497 1.57577 0
M  V30 5150 C 481.312 -0.954308 2.13108 0
M  V30 5151 C 482.293 -1.34088 1.04663 0
M  V30 5152 O 483.478 -1.41992 1.32484 0
M  V30 5153 C 480.608 -2.23744 2.65624 0
M  V30 5154 C 479.562 -1.99168 3.78835 0
M  V30 5155 C 478.888 -3.33726 4.17769 0
M  V30 5156 C 480.188 -1.33277 5.0501 0
M  V30 5157 H 481.882 -0.491848 2.95332 0
M  V30 5158 H 479.428 -0.23514 1.42067 0
M  V30 5159 H 481.381 -2.92754 3.03106 0
M  V30 5160 H 480.105 -2.72151 1.80558 0
M  V30 5161 H 478.764 -1.32577 3.41788 0
M  V30 5162 H 478.412 -3.79888 3.29688 0
M  V30 5163 H 478.112 -3.18089 4.94058 0
M  V30 5164 H 479.636 -4.04008 4.57832 0
M  V30 5165 H 481.05 -1.92283 5.40093 0
M  V30 5166 H 479.447 -1.28045 5.8628 0
M  V30 5167 H 480.517 -0.305411 4.83937 0
M  V30 5168 N 481.861 -1.55662 -0.24637 0
M  V30 5169 C 482.809 -1.91186 -1.3248 0
M  V30 5170 C 483.803 -0.790996 -1.49799 0
M  V30 5171 O 485.009 -0.975617 -1.51267 0
M  V30 5172 H 481.384 -0.607207 -0.443626 0
M  V30 5173 H 483.355 -2.81221 -0.997853 0
M  V30 5174 C 482.104 -2.22349 -2.67313 0
M  V30 5175 H 481.427 -3.08097 -2.54786 0
M  V30 5176 H 482.867 -2.51107 -3.41645 0
M  V30 5177 C 481.326 -1.04001 -3.20446 0
M  V30 5178 O 481.856 -0.28828 -4.00664 0
M  V30 5179 N 480.062 -0.830494 -2.7848 0
M  V30 5180 H 479.609 -1.4435 -2.13356 0
M  V30 5181 H 479.567 -0.0403258 -3.14374 0
M  V30 5182 N 483.339 0.512053 -1.4905 0
M  V30 5183 C 484.286 1.6148 -1.64902 0
M  V30 5184 C 485.256 1.58687 -0.490673 0
M  V30 5185 O 486.441 1.76842 -0.71636 0
M  V30 5186 C 483.581 2.99676 -1.71139 0
M  V30 5187 C 482.694 3.12568 -2.98203 0
M  V30 5188 C 481.829 4.4143 -2.95487 0
M  V30 5189 C 480.868 4.47916 -4.17179 0
M  V30 5190 N 480.005 5.68191 -4.12437 0
M  V30 5191 H 484.845 1.47271 -2.59066 0
M  V30 5192 H 482.382 0.716713 -1.28459 0
M  V30 5193 H 484.34 3.79761 -1.72736 0
M  V30 5194 H 482.97 3.12614 -0.804508 0
M  V30 5195 H 482.022 2.25618 -3.06269 0
M  V30 5196 H 483.334 3.1322 -3.88194 0
M  V30 5197 H 482.488 5.29825 -2.95585 0
M  V30 5198 H 481.227 4.43326 -2.03256 0
M  V30 5199 H 480.232 3.57925 -4.17337 0
M  V30 5200 H 481.457 4.47744 -5.1059 0
M  V30 5201 H 479.403 5.7095 -3.23036 0
M  V30 5202 H 479.32 5.70413 -4.96151 0
M  V30 5203 H 480.588 6.58823 -4.16621 0
M  V30 5204 N 484.817 1.37938 0.762283 0
M  V30 5205 C 485.747 1.37176 1.88958 0
M  V30 5206 C 486.728 0.238945 1.68413 0
M  V30 5207 O 487.913 0.440726 1.89133 0
M  V30 5208 C 485.043 1.18742 3.2637 0
M  V30 5209 C 483.997 2.29136 3.61498 0
M  V30 5210 C 483.323 1.95816 4.97554 0
M  V30 5211 C 484.623 3.71363 3.6727 0
M  V30 5212 H 486.317 2.31509 1.89853 0
M  V30 5213 H 483.863 1.11438 0.912005 0
M  V30 5214 H 485.816 1.16837 4.04879 0
M  V30 5215 H 484.54 0.208683 3.25933 0
M  V30 5216 H 483.199 2.30213 2.85303 0
M  V30 5217 H 482.847 0.964475 4.93667 0
M  V30 5218 H 482.547 2.69745 5.22026 0
M  V30 5219 H 484.071 1.95513 5.78452 0
M  V30 5220 H 485.485 3.72364 4.35911 0
M  V30 5221 H 483.882 4.44425 4.03245 0
M  V30 5222 H 484.952 4.04305 2.67704 0
M  V30 5223 N 486.295 -0.989507 1.22664 0
M  V30 5224 C 487.242 -2.08024 0.999733 0
M  V30 5225 C 488.212 -1.65909 -0.0797047 0
M  V30 5226 O 489.397 -1.90669 0.0705715 0
M  V30 5227 C 486.537 -3.40067 0.587234 0
M  V30 5228 C 485.65 -3.95505 1.73781 0
M  V30 5229 C 484.785 -5.15722 1.27297 0
M  V30 5230 C 483.824 -5.63305 2.39488 0
M  V30 5231 N 482.961 -6.74758 1.94026 0
M  V30 5232 H 487.801 -2.26768 1.9334 0
M  V30 5233 H 485.338 -1.11171 0.963297 0
M  V30 5234 H 487.296 -4.15899 0.329227 0
M  V30 5235 H 485.926 -3.21314 -0.309426 0
M  V30 5236 H 484.978 -3.16513 2.11006 0
M  V30 5237 H 486.29 -4.26797 2.58158 0
M  V30 5238 H 485.444 -5.98854 0.972546 0
M  V30 5239 H 484.183 -4.86061 0.399445 0
M  V30 5240 H 483.188 -4.78759 2.70315 0
M  V30 5241 H 484.413 -5.94988 3.27362 0
M  V30 5242 H 482.359 -6.46874 1.09041 0
M  V30 5243 H 482.276 -7.05386 2.71968 0
M  V30 5244 H 483.544 -7.61387 1.67062 0
M  V30 5245 N 487.773 -1.03688 -1.18687 0
M  V30 5246 C 488.705 -0.582696 -2.21669 0
M  V30 5247 C 489.718 0.345656 -1.59088 0
M  V30 5248 O 490.907 0.140776 -1.77944 0
M  V30 5249 C 488.007 0.169204 -3.38477 0
M  V30 5250 C 487.18 -0.766079 -4.30639 0
M  V30 5251 C 486.239 -0.0581541 -5.26168 0
M  V30 5252 O 485.265 -0.687346 -5.65035 0
M  V30 5253 N 486.467 1.20981 -5.67753 0
M  V30 5254 H 489.232 -1.46843 -2.61261 0
M  V30 5255 H 486.793 -0.916896 -1.33434 0
M  V30 5256 H 488.785 0.652543 -3.99405 0
M  V30 5257 H 487.355 0.956435 -2.97609 0
M  V30 5258 H 486.575 -1.42935 -3.67373 0
M  V30 5259 H 487.863 -1.40146 -4.89118 0
M  V30 5260 H 487.261 1.74159 -5.38224 0
M  V30 5261 H 485.818 1.6375 -6.30896 0
M  V30 5262 N 489.251 1.34841 -0.815825 0
M  V30 5263 C 490.161 2.33425 -0.234462 0
M  V30 5264 C 491.177 1.62295 0.627413 0
M  V30 5265 O 492.353 1.94109 0.536987 0
M  V30 5266 C 489.418 3.41471 0.599849 0
M  V30 5267 C 488.479 4.28362 -0.283596 0
M  V30 5268 C 487.712 5.31248 0.51099 0
M  V30 5269 O 487.935 5.43056 1.7449 0
M  V30 5270 O 486.869 6.01812 -0.10297 0
M  V30 5271 H 490.695 2.84962 -1.05024 0
M  V30 5272 H 488.28 1.37774 -0.577809 0
M  V30 5273 H 490.162 4.07464 1.07475 0
M  V30 5274 H 488.837 2.9219 1.39308 0
M  V30 5275 H 487.744 3.65318 -0.805836 0
M  V30 5276 H 489.077 4.81066 -1.041 0
M  V30 5277 N 490.729 0.570148 1.46925 0
M  V30 5278 C 491.954 0.0542592 2.07329 0
M  V30 5279 C 492.379 -1.23582 1.41806 0
M  V30 5280 O 491.737 -1.74341 0.497479 0
M  V30 5281 C 491.785 -0.111175 3.60429 0
M  V30 5282 O 490.889 -1.17071 3.95434 0
M  V30 5283 H 490.23 0.0571425 0.661537 0
M  V30 5284 H 492.76 0.789516 1.88753 0
M  V30 5285 H 492.77 -0.321315 4.06733 0
M  V30 5286 H 491.445 0.831012 4.07513 0
M  V30 5287 H 490.022 -0.940029 3.60857 0
M  V30 5288 N 492.207 -1.54576 0.307264 0
M  V30 5289 C 493.484 -1.92377 -0.353605 0
M  V30 5290 C 493.864 -1.23517 -1.71192 0
M  V30 5291 O 493.212 -0.373101 -2.25433 0
M  V30 5292 C 493.422 -3.45928 -0.462039 0
M  V30 5293 C 494.77 -4.18278 -0.729975 0
M  V30 5294 O 495.794 -3.51997 -0.545605 0
M  V30 5295 O 494.653 -5.3563 -1.08454 0
M  V30 5296 H 491.747 -0.802747 -0.198812 0
M  V30 5297 H 494.293 -1.65929 0.355783 0
M  V30 5298 H 493.065 -3.88187 0.492592 0
M  V30 5299 H 492.688 -3.78431 -1.21965 0
M  V30 5300 N 493.685 -0.035106 -1.57561 0
M  V30 5301 C 494.617 0.973604 -2.07494 0
M  V30 5302 C 495.63 1.28504 -0.999534 0
M  V30 5303 O 496.819 1.24864 -1.27559 0
M  V30 5304 C 493.919 2.29945 -2.48955 0
M  V30 5305 C 493.092 2.1723 -3.79644 0
M  V30 5306 C 492.151 3.328 -4.07592 0
M  V30 5307 O 491.177 3.09418 -4.77754 0
M  V30 5308 N 492.379 4.56779 -3.58236 0
M  V30 5309 H 495.144 0.547525 -2.94656 0
M  V30 5310 H 492.705 0.151515 -1.61189 0
M  V30 5311 H 494.697 3.06097 -2.64739 0
M  V30 5312 H 493.267 2.64173 -1.67126 0
M  V30 5313 H 492.487 1.25768 -3.73599 0
M  V30 5314 H 493.775 2.05945 -4.65257 0
M  V30 5315 H 493.173 4.78668 -3.01485 0
M  V30 5316 H 491.73 5.30079 -3.79288 0
M  V30 5317 N 495.163 1.55791 0.238111 0
M  V30 5318 C 496.093 1.94068 1.29846 0
M  V30 5319 C 497.074 0.806726 1.49753 0
M  V30 5320 O 498.259 1.06772 1.62214 0
M  V30 5321 C 495.389 2.24302 2.65153 0
M  V30 5322 C 494.343 3.40032 2.59927 0
M  V30 5323 C 493.669 3.55829 3.99111 0
M  V30 5324 C 494.969 4.75476 2.16148 0
M  V30 5325 H 496.663 2.82887 0.980563 0
M  V30 5326 H 494.209 1.36105 0.470253 0
M  V30 5327 H 496.162 2.4967 3.39475 0
M  V30 5328 H 494.886 1.32318 2.98596 0
M  V30 5329 H 493.545 3.14687 1.88063 0
M  V30 5330 H 493.193 2.6125 4.29834 0
M  V30 5331 H 492.893 4.3366 3.96501 0
M  V30 5332 H 494.417 3.83528 4.7512 0
M  V30 5333 H 495.831 5.00158 2.80205 0
M  V30 5334 H 494.228 5.56472 2.24631 0
M  V30 5335 H 495.298 4.71946 1.11333 0
M  V30 5336 N 496.642 -0.504142 1.49319 0
M  V30 5337 C 497.888 -1.26033 1.58882 0
M  V30 5338 C 498.221 -1.92268 0.273274 0
M  V30 5339 O 497.496 -1.80567 -0.72291 0
M  V30 5340 C 497.779 -2.32976 2.7458 0
M  V30 5341 C 497.632 -1.71263 4.1592 0
M  V30 5342 C 498.951 -3.34561 2.85932 0
M  V30 5343 H 496.07 -0.456863 0.578312 0
M  V30 5344 H 498.712 -0.558965 1.81592 0
M  V30 5345 H 496.862 -2.92796 2.55348 0
M  V30 5346 H 498.534 -1.15294 4.4666 0
M  V30 5347 H 496.777 -1.01686 4.21714 0
M  V30 5348 H 497.448 -2.48816 4.92742 0
M  V30 5349 H 499.924 -2.84727 3.0343 0
M  V30 5350 H 498.8 -4.06754 3.68568 0
M  V30 5351 H 499.061 -3.96695 1.95154 0
M  V30 5352 N 498.12 -1.38341 -0.754957 0
M  V30 5353 C 499.05 -1.38176 -1.88227 0
M  V30 5354 C 500.031 -0.247873 -1.68284 0
M  V30 5355 O 501.216 -0.45075 -1.88896 0
M  V30 5356 C 498.346 -1.20471 -3.25736 0
M  V30 5357 C 497.3 -2.3105 -3.60278 0
M  V30 5358 C 496.626 -1.98452 -4.96509 0
M  V30 5359 C 497.926 -3.73305 -3.65295 0
M  V30 5360 H 499.62 -2.32512 -1.88622 0
M  V30 5361 H 497.166 -1.1192 -0.906082 0
M  V30 5362 H 499.119 -1.18982 -4.04254 0
M  V30 5363 H 497.843 -0.225965 -3.25817 0
M  V30 5364 H 496.502 -2.31723 -2.84078 0
M  V30 5365 H 496.15 -0.990641 -4.93148 0
M  V30 5366 H 495.85 -2.7251 -5.20588 0
M  V30 5367 H 497.374 -1.98578 -5.77407 0
M  V30 5368 H 498.788 -3.7467 -4.3393 0
M  V30 5369 H 497.185 -4.46557 -4.00883 0
M  V30 5370 H 498.255 -4.05719 -2.65556 0
M  V30 5371 N 499.598 0.982988 -1.23187 0
M  V30 5372 C 500.546 2.09616 -1.00817 0
M  V30 5373 C 501.54 1.6932 0.0519995 0
M  V30 5374 O 502.746 1.79715 -0.101284 0
M  V30 5375 H 499.121 0.685628 -0.308899 0
M  V30 5376 H 501.092 2.25652 -1.95253 0
M  V30 5377 C 499.841 3.42249 -0.613243 0
M  V30 5378 H 499.164 3.73705 -1.42073 0
M  V30 5379 H 500.604 4.21086 -0.496208 0
M  V30 5380 C 499.063 3.30002 0.678233 0
M  V30 5381 O 499.593 3.6263 1.72807 0
M  V30 5382 N 497.799 2.83164 0.653165 0
M  V30 5383 H 497.346 2.56811 -0.201492 0
M  V30 5384 H 497.304 2.75352 1.51752 0
M  V30 5385 N 501.076 1.04316 1.18135 0
M  V30 5386 C 502.008 0.594444 2.21357 0
M  V30 5387 C 503.021 -0.337215 1.59269 0
M  V30 5388 O 504.21 -0.131337 1.78016 0
M  V30 5389 C 501.31 -0.151251 3.38562 0
M  V30 5390 C 500.483 0.788907 4.30227 0
M  V30 5391 C 499.542 0.0860572 5.2613 0
M  V30 5392 O 498.568 0.717302 5.64662 0
M  V30 5393 N 499.77 -1.17969 5.68387 0
M  V30 5394 H 502.535 1.48227 2.60478 0
M  V30 5395 H 500.096 0.92396 1.32946 0
M  V30 5396 H 502.088 -0.631352 3.99745 0
M  V30 5397 H 500.658 -0.940639 2.98112 0
M  V30 5398 H 499.878 1.44882 3.6661 0
M  V30 5399 H 501.166 1.42738 4.88368 0
M  V30 5400 H 500.564 -1.71302 5.3914 0
M  V30 5401 H 499.121 -1.60402 6.31755 0
M  V30 5402 N 502.554 -1.34406 0.822964 0
M  V30 5403 C 503.504 -2.26963 0.217208 0
M  V30 5404 C 504.488 -1.48536 -0.618545 0
M  V30 5405 O 505.68 -1.7056 -0.473118 0
M  V30 5406 C 502.809 -3.37655 -0.619973 0
M  V30 5407 C 501.895 -4.23495 0.226411 0
M  V30 5408 N 502.286 -4.88876 1.29744 0
M  V30 5409 C 500.584 -4.45999 0.0107554 0
M  V30 5410 C 501.285 -5.52642 1.81553 0
M  V30 5411 N 500.261 -5.31949 1.11942 0
M  V30 5412 H 504.063 -2.75017 1.03647 0
M  V30 5413 H 501.577 -1.48126 0.665777 0
M  V30 5414 H 503.574 -4.02932 -1.07011 0
M  V30 5415 H 502.234 -2.91151 -1.43739 0
M  V30 5416 H 503.245 -4.89886 1.68024 0
M  V30 5417 H 499.922 -4.10253 -0.774495 0
M  V30 5418 H 501.312 -6.14755 2.71156 0
M  V30 5419 N 504.032 -0.577932 -1.46621 0
M  V30 5420 C 505.443 -0.150071 -1.86096 0
M  V30 5421 C 505.794 1.28563 -1.48209 0
M  V30 5422 O 504.919 1.97036 -0.894754 0
M  V30 5423 C 505.514 -0.265576 -3.37758 0
M  V30 5424 C 504.073 0.10738 -3.76247 0
M  V30 5425 C 503.22 -0.603711 -2.70649 0
M  V30 5426 H 506.171 -0.786438 -1.37844 0
M  V30 5427 H 506.192 0.510352 -3.77062 0
M  V30 5428 H 505.704 -1.3106 -3.65301 0
M  V30 5429 H 503.805 1.15272 -3.54321 0
M  V30 5430 H 503.918 -0.26561 -4.78363 0
M  V30 5431 H 502.282 -0.0444884 -2.54661 0
M  V30 5432 H 503.065 -1.65029 -3.01032 0
M  V30 5433 N 505.51 1.54411 -0.315457 0
M  V30 5434 C 506.473 2.22713 0.54142 0
M  V30 5435 C 507.473 1.2179 1.04995 0
M  V30 5436 O 508.663 1.46426 0.943667 0
M  V30 5437 C 505.795 2.92485 1.75116 0
M  V30 5438 H 506.988 2.99849 -0.0555508 0
M  V30 5439 H 504.541 1.56159 -0.0664453 0
M  V30 5440 H 505.276 2.19466 2.38758 0
M  V30 5441 H 505.061 3.66483 1.39401 0
M  V30 5442 H 506.551 3.44548 2.35959 0
M  V30 5443 N 506.988 0.0434614 1.5754 0
M  V30 5444 C 508.213 -0.645358 1.97104 0
M  V30 5445 C 508.638 -1.64037 0.920521 0
M  V30 5446 O 507.996 -1.80922 -0.11708 0
M  V30 5447 C 508.044 -1.31547 3.35749 0
M  V30 5448 O 507.148 -2.43103 3.33129 0
M  V30 5449 H 506.489 -0.168403 0.64229 0
M  V30 5450 H 509.019 0.109573 2.04306 0
M  V30 5451 H 509.029 -1.66895 3.72304 0
M  V30 5452 H 507.704 -0.586205 4.11748 0
M  V30 5453 H 506.281 -2.0976 3.0831 0
M  V30 5454 N 508.466 -1.55915 -0.229846 0
M  V30 5455 C 509.743 -1.6932 -0.979295 0
M  V30 5456 C 510.123 -0.588321 -2.02736 0
M  V30 5457 O 509.471 0.40586 -2.24867 0
M  V30 5458 C 509.681 -3.10305 -1.59724 0
M  V30 5459 C 511.029 -3.6945 -2.09264 0
M  V30 5460 O 512.053 -3.13214 -1.69633 0
M  V30 5461 O 510.912 -4.68072 -2.82082 0
M  V30 5462 H 508.006 -0.689314 -0.456919 0
M  V30 5463 H 510.552 -1.68238 -0.222283 0
M  V30 5464 H 509.324 -3.82177 -0.840039 0
M  V30 5465 H 508.947 -3.1547 -2.42001 0
M  V30 5466 N 509.944 0.496216 -1.49584 0
M  V30 5467 C 510.891 1.59722 -1.66606 0
M  V30 5468 C 511.861 1.58158 -0.507477 0
M  V30 5469 O 513.046 1.76072 -0.735076 0
M  V30 5470 C 510.186 2.97844 -1.74308 0
M  V30 5471 C 509.299 3.09388 -3.01502 0
M  V30 5472 C 508.434 4.38271 -3.00153 0
M  V30 5473 C 507.473 4.43466 -4.21906 0
M  V30 5474 N 506.61 5.63784 -4.1844 0
M  V30 5475 H 511.45 1.44515 -2.60613 0
M  V30 5476 H 508.987 0.703048 -1.29212 0
M  V30 5477 H 510.945 3.77907 -1.76754 0
M  V30 5478 H 509.575 3.11743 -0.837619 0
M  V30 5479 H 508.627 2.22357 -3.08645 0
M  V30 5480 H 509.939 3.09085 -3.91494 0
M  V30 5481 H 509.093 5.2666 -3.01188 0
M  V30 5482 H 507.832 4.41146 -2.07947 0
M  V30 5483 H 506.837 3.53478 -4.21109 0
M  V30 5484 H 508.062 4.42303 -5.1531 0
M  V30 5485 H 506.008 5.67491 -3.29074 0
M  V30 5486 H 505.925 5.65118 -5.02173 0
M  V30 5487 H 507.193 6.54367 -4.23585 0
M  V30 5488 N 511.423 1.38739 0.74761 0
M  V30 5489 C 512.672 1.3459 1.50228 0
M  V30 5490 C 512.985 -0.0595592 1.95509 0
M  V30 5491 O 514.191 -0.22361 2.70578 0
M  V30 5492 C 512.647 2.36377 2.71393 0
M  V30 5493 C 512.255 3.82573 2.33113 0
M  V30 5494 C 513.999 2.41281 3.49262 0
M  V30 5495 C 511.906 4.76032 3.50924 0
M  V30 5496 H 510.836 0.500312 0.564096 0
M  V30 5497 H 513.487 1.64324 0.8167 0
M  V30 5498 H 511.869 1.99694 3.41962 0
M  V30 5499 H 513.043 4.28227 1.70171 0
M  V30 5500 H 511.358 3.80844 1.68365 0
M  V30 5501 H 513.955 3.08301 4.36869 0
M  V30 5502 H 514.298 1.43353 3.9084 0
M  V30 5503 H 514.831 2.76793 2.85711 0
M  V30 5504 H 511.57 5.75177 3.14408 0
M  V30 5505 H 511.09 4.35066 4.12889 0
M  V30 5506 H 512.769 4.94331 4.17427 0
M  V30 5507 N 512.901 -0.976442 1.23707 0
M  V30 5508 C 513.811 -2.10359 1.03856 0
M  V30 5509 C 514.827 -1.73991 -0.0180919 0
M  V30 5510 O 516.003 -2.0061 0.178211 0
M  V30 5511 C 513.068 -3.40809 0.636387 0
M  V30 5512 C 512.129 -3.91179 1.76854 0
M  V30 5513 C 511.362 -5.15404 1.38546 0
M  V30 5514 O 511.585 -5.69754 0.27142 0
M  V30 5515 O 510.519 -5.5994 2.20797 0
M  V30 5516 H 514.345 -2.29997 1.98331 0
M  V30 5517 H 511.93 -1.08742 1.02448 0
M  V30 5518 H 513.812 -4.19269 0.423223 0
M  V30 5519 H 512.487 -3.22493 -0.279322 0
M  V30 5520 H 511.394 -3.13819 2.03638 0
M  V30 5521 H 512.727 -4.13958 2.6627 0
M  V30 5522 N 514.379 -1.04941 -1.1758 0
M  V30 5523 C 515.342 -0.652456 -2.19717 0
M  V30 5524 C 516.342 0.294745 -1.58076 0
M  V30 5525 O 517.532 0.0789579 -1.74021 0
M  V30 5526 C 514.664 0.0420712 -3.40874 0
M  V30 5527 H 515.857 -1.55642 -2.5635 0
M  V30 5528 H 513.41 -0.842995 -1.31618 0
M  V30 5529 H 514.145 0.95943 -3.09783 0
M  V30 5530 H 513.93 -0.638844 -3.86861 0
M  V30 5531 H 515.42 0.306 -4.16477 0
M  V30 5532 N 515.857 1.33968 -0.830081 0
M  V30 5533 C 517.087 2.01987 -0.434142 0
M  V30 5534 C 517.495 1.62639 0.96671 0
M  V30 5535 O 516.838 0.831151 1.63822 0
M  V30 5536 C 516.9 3.5648 -0.465018 0
M  V30 5537 C 516.564 4.19176 -1.82045 0
M  V30 5538 C 517.561 4.39181 -2.78237 0
M  V30 5539 C 515.246 4.55792 -2.11089 0
M  V30 5540 C 517.24 4.94937 -4.01642 0
M  V30 5541 C 514.927 5.11258 -3.34752 0
M  V30 5542 C 515.925 5.30775 -4.29845 0
M  V30 5543 O 515.613 5.85064 -5.51322 0
M  V30 5544 H 515.345 0.653847 -0.171639 0
M  V30 5545 H 517.899 1.72066 -1.12171 0
M  V30 5546 H 516.129 3.8569 0.279284 0
M  V30 5547 H 517.818 4.05804 -0.0881334 0
M  V30 5548 H 518.584 4.11249 -2.57097 0
M  V30 5549 H 514.463 4.39901 -1.3787 0
M  V30 5550 H 518.007 5.10086 -4.75876 0
M  V30 5551 H 513.904 5.38619 -3.55753 0
M  V30 5552 H 514.672 6.03489 -5.5294 0
M  V30 5553 N 517.335 0.585699 1.46312 0
M  V30 5554 C 518.268 -0.194257 2.27372 0
M  V30 5555 C 519.246 -0.894116 1.3581 0
M  V30 5556 O 520.43 -0.907402 1.65222 0
M  V30 5557 C 517.557 -1.27901 3.13622 0
M  V30 5558 C 516.603 -0.684666 4.20969 0
M  V30 5559 S 517.436 0.490745 5.33247 0
M  V30 5560 C 518.592 -0.595137 6.23064 0
M  V30 5561 H 518.825 0.493515 2.93175 0
M  V30 5562 H 516.358 0.372666 1.49835 0
M  V30 5563 H 518.316 -1.90008 3.63878 0
M  V30 5564 H 516.977 -1.93875 2.47126 0
M  V30 5565 H 516.17 -1.50015 4.81156 0
M  V30 5566 H 515.772 -0.139204 3.73741 0
M  V30 5567 H 518.064 -1.48002 6.61137 0
M  V30 5568 H 519.007 -0.0299446 7.08094 0
M  V30 5569 H 519.415 -0.900627 5.57269 0
M  V30 5570 N 518.813 -1.54241 0.323641 0
M  V30 5571 C 520.09 -1.92741 -0.333181 0
M  V30 5572 C 520.47 -1.25326 -1.69872 0
M  V30 5573 O 519.818 -0.396991 -2.25025 0
M  V30 5574 C 520.028 -3.46399 -0.425322 0
M  V30 5575 C 521.376 -4.19029 -0.68557 0
M  V30 5576 O 522.4 -3.52555 -0.50824 0
M  V30 5577 O 521.259 -5.36751 -1.02767 0
M  V30 5578 H 518.353 -0.804811 -0.190286 0
M  V30 5579 H 520.899 -1.65542 0.373361 0
M  V30 5580 H 519.671 -3.87643 0.533737 0
M  V30 5581 H 519.294 -3.79704 -1.17944 0
M  V30 5582 N 520.291 -0.0518155 -1.57515 0
M  V30 5583 C 521.519 0.631395 -1.9703 0
M  V30 5584 C 521.934 1.64341 -0.92938 0
M  V30 5585 O 521.291 1.82296 0.0863266 0
M  V30 5586 C 521.342 1.31774 -3.36627 0
M  V30 5587 O 521.063 0.346247 -4.3673 0
M  V30 5588 C 522.564 2.09065 -3.90905 0
M  V30 5589 H 519.784 0.172576 -0.648428 0
M  V30 5590 H 522.328 -0.118306 -2.04158 0
M  V30 5591 H 520.483 2.01867 -3.30649 0
M  V30 5592 H 520.897 0.836226 -5.17791 0
M  V30 5593 H 522.371 2.52508 -4.9086 0
M  V30 5594 H 522.848 2.93908 -3.26366 0
M  V30 5595 H 523.454 1.43882 -4.00223 0
M  V30 5596 N 521.769 1.56035 0.221574 0
M  V30 5597 C 522.699 1.95434 1.2778 0
M  V30 5598 C 523.68 0.822564 1.48889 0
M  V30 5599 O 524.865 1.08486 1.61072 0
M  V30 5600 C 521.995 2.27102 2.62759 0
M  V30 5601 C 520.949 3.4277 2.56306 0
M  V30 5602 C 520.275 3.60043 3.95314 0
M  V30 5603 C 521.575 4.77742 2.11093 0
M  V30 5604 H 523.269 2.83912 0.950504 0
M  V30 5605 H 520.815 1.36596 0.455791 0
M  V30 5606 H 522.768 2.53256 3.36807 0
M  V30 5607 H 521.492 1.35478 2.97176 0
M  V30 5608 H 520.151 3.16664 1.84715 0
M  V30 5609 H 519.799 2.65794 4.27039 0
M  V30 5610 H 519.499 4.37841 3.91879 0
M  V30 5611 H 521.023 3.88545 4.71025 0
M  V30 5612 H 522.437 5.03102 2.74885 0
M  V30 5613 H 520.834 5.58823 2.18716 0
M  V30 5614 H 521.904 4.731 1.06321 0
M  V30 5615 N 523.247 -0.488276 1.49845 0
M  V30 5616 C 524.179 -1.60539 1.63584 0
M  V30 5617 C 525.192 -1.5434 0.517972 0
M  V30 5618 O 526.381 -1.60041 0.790516 0
M  V30 5619 C 523.481 -2.99374 1.58835 0
M  V30 5620 C 522.654 -3.30624 2.86368 0
M  V30 5621 C 521.713 -4.4893 2.74496 0
M  V30 5622 O 520.739 -4.50085 3.48443 0
M  V30 5623 N 521.941 -5.49591 1.86894 0
M  V30 5624 H 524.706 -1.49176 2.59936 0
M  V30 5625 H 522.267 -0.67639 1.47094 0
M  V30 5626 H 524.259 -3.76459 1.48529 0
M  V30 5627 H 522.829 -3.04595 0.702892 0
M  V30 5628 H 522.049 -2.42314 3.1093 0
M  V30 5629 H 523.337 -3.48305 3.70892 0
M  V30 5630 H 522.735 -5.51467 1.26097 0
M  V30 5631 H 521.292 -6.25728 1.82503 0
M  V30 5632 N 524.725 -1.39134 -0.740242 0
M  V30 5633 C 525.953 -1.39334 -1.5295 0
M  V30 5634 C 526.368 0.0135008 -1.88795 0
M  V30 5635 O 525.725 0.983524 -1.5373 0
M  V30 5636 C 525.776 -2.2614 -2.82034 0
M  V30 5637 O 525.497 -3.61345 -2.47712 0
M  V30 5638 C 526.998 -2.34666 -3.76094 0
M  V30 5639 H 524.218 -0.476103 -0.472828 0
M  V30 5640 H 526.762 -1.82883 -0.9151 0
M  V30 5641 H 524.917 -1.86018 -3.39818 0
M  V30 5642 H 525.331 -4.07194 -3.30595 0
M  V30 5643 H 526.805 -2.99663 -4.63579 0
M  V30 5644 H 527.282 -1.36426 -4.17474 0
M  V30 5645 H 527.888 -2.75236 -3.2423 0
M  V30 5646 N 526.204 0.969867 -1.24223 0
M  V30 5647 C 527.136 2.0669 -0.99055 0
M  V30 5648 C 528.149 1.62753 0.0392222 0
M  V30 5649 O 529.338 1.77403 -0.197561 0
M  V30 5650 C 526.438 3.35589 -0.472594 0
M  V30 5651 C 525.611 4.08444 -1.56499 0
M  V30 5652 C 524.67 5.15616 -1.05007 0
M  V30 5653 O 523.696 5.41911 -1.7413 0
M  V30 5654 N 524.898 5.80383 0.116641 0
M  V30 5655 H 527.663 2.28855 -1.93508 0
M  V30 5656 H 525.224 1.13733 -1.15223 0
M  V30 5657 H 527.216 4.04542 -0.112919 0
M  V30 5658 H 525.786 3.10311 0.377617 0
M  V30 5659 H 525.006 3.33798 -2.09696 0
M  V30 5660 H 526.294 4.53882 -2.29932 0
M  V30 5661 H 525.692 5.6142 0.694589 0
M  V30 5662 H 524.249 6.50462 0.417483 0
M  V30 5663 N 527.682 1.05563 1.17022 0
M  V30 5664 C 528.928 0.778872 1.87897 0
M  V30 5665 C 529.283 -0.686839 1.79723 0
M  V30 5666 O 528.576 -1.49612 1.19694 0
M  V30 5667 C 528.77 1.19849 3.36706 0
M  V30 5668 C 528.599 2.70345 3.59366 0
M  V30 5669 C 527.369 3.37707 3.75875 0
M  V30 5670 C 529.567 3.68564 3.58699 0
M  V30 5671 N 527.549 4.7703 3.86414 0
M  V30 5672 C 528.92 4.93634 3.75134 0
M  V30 5673 C 530.975 3.6198 3.4187 0
M  V30 5674 C 529.678 6.12907 3.76481 0
M  V30 5675 C 531.704 4.80697 3.44507 0
M  V30 5676 C 531.066 6.04592 3.61453 0
M  V30 5677 H 527.165 0.337297 0.705517 0
M  V30 5678 H 529.749 1.34832 1.40458 0
M  V30 5679 H 527.92 0.656958 3.82804 0
M  V30 5680 H 529.652 0.871172 3.95212 0
M  V30 5681 H 526.407 2.88108 3.75887 0
M  V30 5682 H 526.831 5.49483 3.95471 0
M  V30 5683 H 531.473 2.67154 3.27702 0
M  V30 5684 H 529.191 7.08073 3.89432 0
M  V30 5685 H 532.777 4.77259 3.32738 0
M  V30 5686 H 531.657 6.94916 3.63403 0
M  V30 5687 N 529.16 -1.33526 0.837174 0
M  V30 5688 C 530.385 -2.0258 0.444545 0
M  V30 5689 C 530.81 -1.6258 -0.946006 0
M  V30 5690 O 530.168 -0.817548 -1.6182 0
M  V30 5691 C 530.216 -3.5605 0.571006 0
M  V30 5692 O 529.32 -4.10422 -0.403431 0
M  V30 5693 H 528.661 -0.638866 0.180958 0
M  V30 5694 H 531.191 -1.70462 1.13154 0
M  V30 5695 H 531.201 -4.05488 0.452024 0
M  V30 5696 H 529.876 -3.84509 1.58512 0
M  V30 5697 H 528.453 -3.72113 -0.242147 0
M  V30 5698 N 530.638 -0.59345 -1.46 0
M  V30 5699 C 531.884 -0.0916503 -2.03193 0
M  V30 5700 C 532.239 1.25839 -1.45541 0
M  V30 5701 O 531.532 1.81455 -0.615191 0
M  V30 5702 C 531.726 0.021178 -3.57394 0
M  V30 5703 C 531.555 -1.31638 -4.30002 0
M  V30 5704 C 530.325 -1.89336 -4.68487 0
M  V30 5705 C 532.523 -2.242 -4.62859 0
M  V30 5706 N 530.505 -3.1672 -5.25891 0
M  V30 5707 C 531.876 -3.36175 -5.20948 0
M  V30 5708 C 533.931 -2.23748 -4.44794 0
M  V30 5709 C 532.634 -4.47844 -5.62875 0
M  V30 5710 C 534.66 -3.34454 -4.87744 0
M  V30 5711 C 534.022 -4.4515 -5.45913 0
M  V30 5712 H 530.121 -0.0765713 -0.778242 0
M  V30 5713 H 532.705 -0.788705 -1.7801 0
M  V30 5714 H 530.876 0.687423 -3.82268 0
M  V30 5715 H 532.608 0.528343 -4.01236 0
M  V30 5716 H 529.363 -1.42704 -4.51589 0
M  V30 5717 H 529.787 -3.81746 -5.59106 0
M  V30 5718 H 534.429 -1.39433 -3.99147 0
M  V30 5719 H 532.147 -5.32894 -6.07495 0
M  V30 5720 H 535.733 -3.35234 -4.75509 0
M  V30 5721 H 534.613 -5.29398 -5.78539 0
M  V30 5722 N 532.116 1.54067 -0.331816 0
M  V30 5723 C 533.365 1.99895 0.269209 0
M  V30 5724 C 533.678 1.22371 1.52593 0
M  V30 5725 O 534.884 1.58618 2.20347 0
M  V30 5726 C 533.34 3.55972 0.530244 0
M  V30 5727 C 532.948 4.4234 -0.709901 0
M  V30 5728 C 534.692 4.10247 1.09077 0
M  V30 5729 C 532.599 5.89905 -0.420312 0
M  V30 5730 H 531.529 0.746741 0.104371 0
M  V30 5731 H 534.18 1.78014 -0.445324 0
M  V30 5732 H 532.562 3.73873 1.30518 0
M  V30 5733 H 533.736 4.36215 -1.48504 0
M  V30 5734 H 532.051 3.98997 -1.19123 0
M  V30 5735 H 534.648 5.18095 1.32219 0
M  V30 5736 H 534.991 3.62739 2.0427 0
M  V30 5737 H 535.524 3.96011 0.376824 0
M  V30 5738 H 532.263 6.41623 -1.34164 0
M  V30 5739 H 531.783 5.98962 0.316962 0
M  V30 5740 H 533.462 6.46991 -0.0331956 0
M  V30 5741 N 533.594 0.0601682 1.57485 0
M  V30 5742 C 534.524 -0.90889 2.15085 0
M  V30 5743 C 535.505 -1.31838 1.07484 0
M  V30 5744 O 536.69 -1.3915 1.35466 0
M  V30 5745 C 533.82 -2.18059 2.7031 0
M  V30 5746 C 532.774 -1.91088 3.82974 0
M  V30 5747 C 532.1 -3.24789 4.24754 0
M  V30 5748 C 533.4 -1.22535 5.07723 0
M  V30 5749 H 535.094 -0.429093 2.96309 0
M  V30 5750 H 532.64 -0.204952 1.42534 0
M  V30 5751 H 534.593 -2.86258 3.09248 0
M  V30 5752 H 533.317 -2.6826 1.8629 0
M  V30 5753 H 531.976 -1.25297 3.44523 0
M  V30 5754 H 531.624 -3.72809 3.37672 0
M  V30 5755 H 531.324 -3.07538 5.00694 0
M  V30 5756 H 532.848 -3.94205 4.66299 0
M  V30 5757 H 534.262 -1.80783 5.4405 0
M  V30 5758 H 532.659 -1.1558 5.88864 0
M  V30 5759 H 533.729 -0.202692 4.84476 0
M  V30 5760 N 535.072 -1.5615 -0.213296 0
M  V30 5761 C 536.004 -1.89586 -1.28802 0
M  V30 5762 C 537.017 -0.784844 -1.42633 0
M  V30 5763 O 538.206 -1.06319 -1.43383 0
M  V30 5764 C 535.306 -2.09665 -2.66259 0
M  V30 5765 C 534.479 -3.40726 -2.7427 0
M  V30 5766 C 533.538 -3.50137 -3.92798 0
M  V30 5767 O 532.564 -4.23105 -3.8075 0
M  V30 5768 N 533.766 -2.81886 -5.07465 0
M  V30 5769 H 536.531 -2.82368 -1.00442 0
M  V30 5770 H 534.092 -1.56796 -0.403302 0
M  V30 5771 H 536.084 -2.13268 -3.43946 0
M  V30 5772 H 534.654 -1.23469 -2.87183 0
M  V30 5773 H 533.874 -3.4915 -1.82997 0
M  V30 5774 H 535.162 -4.27048 -2.76599 0
M  V30 5775 H 534.56 -2.22397 -5.2015 0
M  V30 5776 H 533.117 -2.91139 -5.83165 0
M  V30 5777 N 536.55 0.480323 -1.50102 0
M  V30 5778 C 537.799 1.22979 -1.59872 0
M  V30 5779 C 538.112 1.93282 -0.30022 0
M  V30 5780 O 539.318 2.70086 -0.276709 0
M  V30 5781 C 537.774 2.23408 -2.82164 0
M  V30 5782 C 537.382 1.5895 -4.18854 0
M  V30 5783 C 539.126 2.99055 -3.01275 0
M  V30 5784 C 537.033 2.57611 -5.32344 0
M  V30 5785 H 535.963 0.462707 -0.59533 0
M  V30 5786 H 538.614 0.501291 -1.7652 0
M  V30 5787 H 536.996 2.99511 -2.59055 0
M  V30 5788 H 538.17 0.887 -4.52182 0
M  V30 5789 H 536.485 0.956191 -4.05273 0
M  V30 5790 H 539.082 3.72876 -3.83233 0
M  V30 5791 H 539.425 3.57897 -2.12639 0
M  V30 5792 H 539.958 2.30066 -3.24522 0
M  V30 5793 H 536.697 2.03521 -6.23105 0
M  V30 5794 H 536.217 3.26041 -5.03445 0
M  V30 5795 H 537.896 3.19627 -5.62537 0
M  V30 5796 N 538.028 1.39524 0.732853 0
M  V30 5797 C 539.256 1.40143 1.52209 0
M  V30 5798 C 539.671 -0.00348836 1.888 0
M  V30 5799 O 539.028 -0.975357 1.5425 0
M  V30 5800 C 539.079 2.27632 2.8083 0
M  V30 5801 O 538.8 3.62654 2.45792 0
M  V30 5802 C 540.301 2.36658 3.74844 0
M  V30 5803 H 537.521 0.478604 0.470297 0
M  V30 5804 H 540.065 1.83366 0.905388 0
M  V30 5805 H 538.22 1.87818 3.38826 0
M  V30 5806 H 538.634 4.08941 3.28431 0
M  V30 5807 H 540.108 3.02118 4.61984 0
M  V30 5808 H 540.585 1.38638 4.16745 0
M  V30 5809 H 541.191 2.76951 3.22766 0
M  V30 5810 N 539.506 -0.963266 1.24736 0
M  V30 5811 C 540.453 -2.05857 1.04363 0
M  V30 5812 C 541.423 -1.6604 -0.0444951 0
M  V30 5813 O 542.608 -1.90477 0.110999 0
M  V30 5814 C 539.748 -3.38745 0.659235 0
M  V30 5815 C 538.861 -3.9173 1.82131 0
M  V30 5816 C 537.996 -5.12906 1.38208 0
M  V30 5817 C 537.035 -5.58098 2.51382 0
M  V30 5818 N 536.172 -6.7049 2.08295 0
M  V30 5819 H 541.012 -2.22616 1.98107 0
M  V30 5820 H 538.549 -1.09103 0.986661 0
M  V30 5821 H 540.507 -4.15107 0.417371 0
M  V30 5822 H 539.137 -3.21898 -0.241201 0
M  V30 5823 H 538.189 -3.11966 2.17672 0
M  V30 5824 H 539.501 -4.21225 2.67153 0
M  V30 5825 H 538.655 -5.96657 1.09935 0
M  V30 5826 H 537.394 -4.85105 0.502456 0
M  V30 5827 H 536.399 -4.72917 2.80409 0
M  V30 5828 H 537.624 -5.87911 3.39909 0
M  V30 5829 H 535.57 -6.44416 1.22737 0
M  V30 5830 H 535.487 -6.99458 2.86869 0
M  V30 5831 H 536.755 -7.57672 1.83175 0
M  V30 5832 N 540.985 -1.06182 -1.16461 0
M  V30 5833 C 542.225 -0.787048 -1.8864 0
M  V30 5834 C 542.589 0.674093 -1.79778 0
M  V30 5835 O 543.79 1.06341 -2.46871 0
M  V30 5836 C 542.061 -1.2666 -3.34203 0
M  V30 5837 S 543.62 -1.12071 -4.24247 0
M  V30 5838 H 540.438 -0.285539 -0.651144 0
M  V30 5839 H 543.04 -1.35851 -1.40587 0
M  V30 5840 H 541.744 -2.32496 -3.38192 0
M  V30 5841 H 541.275 -0.689841 -3.87304 0
M  V30 5842 H 543.29 -0.0509341 -4.96174 0
M  V30 5843 N 542.463 1.3308 -0.844243 0
M  V30 5844 C 543.712 1.96868 -0.438833 0
M  V30 5845 C 544.025 1.67599 1.00846 0
M  V30 5846 O 545.231 2.25043 1.51881 0
M  V30 5847 C 543.687 3.5234 -0.73377 0
M  V30 5848 C 543.295 3.90481 -2.1961 0
M  V30 5849 C 545.039 4.22653 -0.395574 0
M  V30 5850 C 542.946 5.38954 -2.43481 0
M  V30 5851 H 541.876 0.736749 -0.160364 0
M  V30 5852 H 544.527 1.51623 -1.03358 0
M  V30 5853 H 542.909 3.95941 -0.068589 0
M  V30 5854 H 544.083 3.57922 -2.90221 0
M  V30 5855 H 542.398 3.33165 -2.4978 0
M  V30 5856 H 544.995 5.31848 -0.551477 0
M  V30 5857 H 545.338 4.11004 0.661921 0
M  V30 5858 H 545.871 3.84601 -1.01621 0
M  V30 5859 H 542.61 5.55612 -3.47816 0
M  V30 5860 H 542.13 5.72954 -1.77437 0
M  V30 5861 H 543.809 6.05907 -2.26905 0
M  V30 5862 N 543.941 0.601185 1.45683 0
M  V30 5863 C 545.218 0.0261659 1.95582 0
M  V30 5864 C 545.598 -1.4399 1.5437 0
M  V30 5865 O 544.946 -2.13919 0.80318 0
M  V30 5866 C 545.156 0.217557 3.48321 0
M  V30 5867 C 546.504 0.0950076 4.24494 0
M  V30 5868 O 547.528 0.147345 3.55895 0
M  V30 5869 O 546.387 -0.025261 5.46494 0
M  V30 5870 H 543.481 -0.0393688 0.826062 0
M  V30 5871 H 546.027 0.670798 1.55879 0
M  V30 5872 H 544.799 1.23601 3.71266 0
M  V30 5873 H 544.422 -0.46264 3.94899 0
M  V30 5874 N 545.419 -1.53889 0.339982 0
M  V30 5875 C 546.665 -2.01152 -0.258003 0
M  V30 5876 C 546.998 -1.22749 -1.50487 0
M  V30 5877 O 546.273 -0.314156 -1.91946 0
M  V30 5878 C 546.556 -3.55468 -0.575717 0
M  V30 5879 C 546.409 -4.44584 0.682996 0
M  V30 5880 C 547.728 -4.1768 -1.38677 0
M  V30 5881 H 544.847 -0.731198 -0.0922992 0
M  V30 5882 H 547.489 -1.84352 0.459814 0
M  V30 5883 H 545.639 -3.69914 -1.18725 0
M  V30 5884 H 547.311 -4.41981 1.32102 0
M  V30 5885 H 545.554 -4.13592 1.3086 0
M  V30 5886 H 546.225 -5.5043 0.416001 0
M  V30 5887 H 548.701 -4.0691 -0.869705 0
M  V30 5888 H 547.577 -5.25734 -1.57783 0
M  V30 5889 H 547.838 -3.72069 -2.38782 0
M  V30 5890 N 546.897 -0.0685191 -1.57451 0
M  V30 5891 C 547.847 0.909895 -2.09057 0
M  V30 5892 C 548.831 1.26088 -0.999528 0
M  V30 5893 O 550.023 1.24041 -1.26265 0
M  V30 5894 C 547.152 2.17863 -2.65312 0
M  V30 5895 C 546.238 1.85427 -3.81415 0
M  V30 5896 N 546.629 1.23426 -4.9051 0
M  V30 5897 C 544.927 2.15196 -3.90649 0
M  V30 5898 C 545.628 1.09008 -5.71395 0
M  V30 5899 N 544.604 1.59871 -5.1956 0
M  V30 5900 H 548.406 0.426145 -2.90794 0
M  V30 5901 H 545.92 0.135462 -1.61834 0
M  V30 5902 H 547.917 2.88872 -3.00597 0
M  V30 5903 H 546.577 2.66829 -1.85021 0
M  V30 5904 H 547.588 0.904305 -5.09944 0
M  V30 5905 H 544.265 2.66562 -3.21327 0
M  V30 5906 H 545.655 0.607305 -6.6915 0
M  V30 5907 N 548.375 1.56261 0.205012 0
M  V30 5908 C 549.305 1.96779 1.257 0
M  V30 5909 C 550.286 0.838309 1.48008 0
M  V30 5910 O 551.471 1.10189 1.59913 0
M  V30 5911 C 548.601 2.29876 2.60335 0
M  V30 5912 C 547.555 3.45469 2.52656 0
M  V30 5913 C 546.881 3.64215 3.91473 0
M  V30 5914 C 548.181 4.79954 2.06014 0
M  V30 5915 H 549.875 2.84904 0.920338 0
M  V30 5916 H 547.421 1.37072 0.441277 0
M  V30 5917 H 549.374 2.56814 3.34102 0
M  V30 5918 H 548.098 1.38622 2.95722 0
M  V30 5919 H 546.757 3.18605 1.81345 0
M  V30 5920 H 546.405 2.70309 4.24196 0
M  V30 5921 H 546.105 4.41973 3.87213 0
M  V30 5922 H 547.629 3.93519 4.66878 0
M  V30 5923 H 549.043 5.05989 2.69533 0
M  V30 5924 H 547.44 5.61111 2.12777 0
M  V30 5925 H 548.51 4.74201 1.01297 0
M  V30 5926 N 549.853 -0.472356 1.50355 0
M  V30 5927 C 550.8 -1.57051 1.69126 0
M  V30 5928 C 551.77 -1.5733 0.532574 0
M  V30 5929 O 552.955 -1.7488 0.762994 0
M  V30 5930 C 550.095 -2.95033 1.79024 0
M  V30 5931 C 549.208 -3.04552 3.06386 0
M  V30 5932 C 548.343 -4.33441 3.07087 0
M  V30 5933 C 547.382 -4.36697 4.28908 0
M  V30 5934 N 546.519 -5.57056 4.27356 0
M  V30 5935 H 551.359 -1.40351 2.62879 0
M  V30 5936 H 548.896 -0.682403 1.30314 0
M  V30 5937 H 550.854 -3.75048 1.82744 0
M  V30 5938 H 549.484 -3.10371 0.887109 0
M  V30 5939 H 548.536 -2.17419 3.12143 0
M  V30 5940 H 549.848 -3.02818 3.96362 0
M  V30 5941 H 549.002 -5.21801 3.09529 0
M  V30 5942 H 547.741 -4.37782 2.14939 0
M  V30 5943 H 546.746 -3.46734 4.2668 0
M  V30 5944 H 547.971 -4.34049 5.22282 0
M  V30 5945 H 545.917 -5.62184 3.3806 0
M  V30 5946 H 545.834 -5.57058 5.111 0
M  V30 5947 H 547.102 -6.47545 4.33942 0
M  V30 5948 N 551.331 -1.39911 -0.725443 0
M  V30 5949 C 552.241 -1.41688 -1.8698 0
M  V30 5950 C 553.257 -0.310579 -1.71206 0
M  V30 5951 O 554.433 -0.55359 -1.93642 0
M  V30 5952 C 551.498 -1.26811 -3.22676 0
M  V30 5953 C 550.559 -2.47497 -3.50776 0
M  V30 5954 C 549.792 -2.3332 -4.79997 0
M  V30 5955 O 550.015 -1.34175 -5.54394 0
M  V30 5956 O 548.949 -3.22498 -5.08211 0
M  V30 5957 H 552.775 -2.38171 -1.88436 0
M  V30 5958 H 550.36 -1.21128 -0.874548 0
M  V30 5959 H 552.242 -1.20684 -4.03749 0
M  V30 5960 H 550.917 -0.334289 -3.21969 0
M  V30 5961 H 549.824 -2.59201 -2.69751 0
M  V30 5962 H 551.157 -3.39606 -3.5627 0
M  V30 5963 N 552.809 0.956637 -1.25245 0
M  V30 5964 C 553.757 2.0743 -1.0524 0
M  V30 5965 C 554.751 1.69392 0.0160725 0
M  V30 5966 O 555.957 1.7946 -0.139382 0
M  V30 5967 H 552.332 0.678921 -0.323373 0
M  V30 5968 H 554.303 2.2146 -1.99995 0
M  V30 5969 C 553.052 3.40872 -0.685702 0
M  V30 5970 H 552.375 3.70607 -1.49968 0
M  V30 5971 H 553.815 4.19939 -0.585415 0
M  V30 5972 C 552.274 3.31367 0.608082 0
M  V30 5973 O 552.804 3.66214 1.65076 0
M  V30 5974 N 551.01 2.84486 0.592955 0
M  V30 5975 H 550.557 2.56326 -0.25592 0
M  V30 5976 H 550.515 2.78509 1.45877 0
M  V30 5977 N 554.287 1.06798 1.15896 0
M  V30 5978 C 555.25 0.687328 2.18651 0
M  V30 5979 C 556.25 -0.269559 1.58524 0
M  V30 5980 O 557.44 -0.0512627 1.74125 0
M  V30 5981 C 554.572 0.0121642 3.40898 0
M  V30 5982 H 555.765 1.59701 2.53842 0
M  V30 5983 H 553.318 0.863828 1.3026 0
M  V30 5984 H 554.053 -0.910025 3.1127 0
M  V30 5985 H 553.838 0.700309 3.85795 0
M  V30 5986 H 555.328 -0.239703 4.16911 0
M  V30 5987 N 555.766 -1.3263 0.851289 0
M  V30 5988 C 556.729 -2.27247 0.298541 0
M  V30 5989 C 557.729 -1.51467 -0.539847 0
M  V30 5990 O 558.919 -1.7061 -0.351843 0
M  V30 5991 C 556.051 -3.35964 -0.578004 0
M  V30 5992 H 557.244 -2.7765 1.13359 0
M  V30 5993 H 554.797 -1.43245 0.625354 0
M  V30 5994 H 555.532 -2.90823 -1.435 0
M  V30 5995 H 555.317 -3.92094 0.0220539 0
M  V30 5996 H 556.807 -4.06472 -0.957626 0
M  V30 5997 N 557.244 -0.608902 -1.45362 0
M  V30 5998 C 558.474 -0.110852 -2.06302 0
M  V30 5999 C 558.882 1.21062 -1.45398 0
M  V30 6000 O 558.225 1.74861 -0.562976 0
M  V30 6001 C 558.287 0.101793 -3.59356 0
M  V30 6002 C 557.951 -1.13808 -4.42602 0
M  V30 6003 C 558.948 -2.05653 -4.77496 0
M  V30 6004 C 556.633 -1.36727 -4.83333 0
M  V30 6005 C 558.627 -3.18745 -5.51978 0
M  V30 6006 C 556.314 -2.5012 -5.57569 0
M  V30 6007 C 557.312 -3.40957 -5.91809 0
M  V30 6008 O 557 -4.52376 -6.64538 0
M  V30 6009 H 556.732 -0.0666001 -0.672711 0
M  V30 6010 H 559.286 -0.836942 -1.87575 0
M  V30 6011 H 557.516 0.88279 -3.76489 0
M  V30 6012 H 559.205 0.551607 -4.02134 0
M  V30 6013 H 559.971 -1.89172 -4.46586 0
M  V30 6014 H 555.85 -0.669216 -4.56117 0
M  V30 6015 H 559.394 -3.8967 -5.78622 0
M  V30 6016 H 555.291 -2.66553 -5.87894 0
M  V30 6017 H 556.059 -4.51075 -6.82989 0
M  V30 6018 N 558.722 1.53707 -0.348139 0
M  V30 6019 C 559.969 2.00988 0.246966 0
M  V30 6020 C 560.297 1.23586 1.50189 0
M  V30 6021 O 559.552 0.312817 1.93184 0
M  V30 6022 C 559.851 3.52292 0.602061 0
M  V30 6023 C 559.517 4.47453 -0.556509 0
M  V30 6024 C 558.179 4.73188 -0.874446 0
M  V30 6025 C 560.531 5.03851 -1.33354 0
M  V30 6026 C 557.859 5.52577 -1.9717 0
M  V30 6027 C 560.211 5.84437 -2.42108 0
M  V30 6028 C 558.875 6.08465 -2.74456 0
M  V30 6029 H 558.145 0.735469 0.0903712 0
M  V30 6030 H 560.792 1.85464 -0.477001 0
M  V30 6031 H 559.097 3.65672 1.40681 0
M  V30 6032 H 560.794 3.86337 1.07447 0
M  V30 6033 H 557.384 4.27558 -0.298652 0
M  V30 6034 H 561.568 4.8393 -1.10117 0
M  V30 6035 H 556.824 5.69418 -2.22651 0
M  V30 6036 H 560.998 6.27151 -3.02745 0
M  V30 6037 H 558.625 6.69768 -3.59604 0
M  V30 6038 N 560.2 0.0768682 1.57412 0
M  V30 6039 C 561.132 -0.918248 2.10002 0
M  V30 6040 C 562.145 -1.25808 1.03325 0
M  V30 6041 O 563.334 -1.21438 1.30824 0
M  V30 6042 C 560.434 -2.23263 2.54964 0
M  V30 6043 C 559.607 -2.07088 3.8527 0
M  V30 6044 C 558.666 -3.21876 4.16272 0
M  V30 6045 O 557.692 -2.96643 4.8579 0
M  V30 6046 N 558.894 -4.4712 3.70221 0
M  V30 6047 H 561.659 -0.469209 2.96004 0
M  V30 6048 H 559.22 -0.108725 1.61535 0
M  V30 6049 H 561.212 -2.9897 2.72762 0
M  V30 6050 H 559.782 -2.59649 1.74072 0
M  V30 6051 H 559.002 -1.15818 3.76802 0
M  V30 6052 H 560.29 -1.93537 4.70554 0
M  V30 6053 H 559.688 -4.70506 3.1407 0
M  V30 6054 H 558.245 -5.19837 3.93209 0
M  V30 6055 N 561.678 -1.56367 -0.196722 0
M  V30 6056 C 562.925 -1.80529 -0.917366 0
M  V30 6057 C 563.253 -0.649817 -1.83324 0
M  V30 6058 O 562.508 0.36451 -1.92275 0
M  V30 6059 C 562.807 -3.10663 -1.767 0
M  V30 6060 C 562.473 -4.3962 -1.00225 0
M  V30 6061 C 561.135 -4.74653 -0.791095 0
M  V30 6062 C 563.487 -5.1913 -0.464035 0
M  V30 6063 C 560.815 -5.86692 -0.0302155 0
M  V30 6064 C 563.167 -6.31964 0.283625 0
M  V30 6065 C 561.831 -6.65581 0.505813 0
M  V30 6066 H 561.101 -0.660602 -0.335688 0
M  V30 6067 H 563.748 -1.90615 -0.183844 0
M  V30 6068 H 562.053 -2.95807 -2.56915 0
M  V30 6069 H 563.75 -3.26563 -2.32718 0
M  V30 6070 H 560.34 -4.12127 -1.17684 0
M  V30 6071 H 564.524 -4.9248 -0.614575 0
M  V30 6072 H 559.78 -6.11211 0.151917 0
M  V30 6073 H 563.954 -6.92791 0.708057 0
M  V30 6074 H 561.581 -7.52239 1.0973 0
M  V30 6075 N 563.156 0.464375 -1.50603 0
M  V30 6076 C 564.403 1.21596 -1.61928 0
M  V30 6077 C 564.731 1.91804 -0.322737 0
M  V30 6078 O 563.986 1.83065 0.691776 0
M  V30 6079 C 564.285 2.278 -2.75394 0
M  V30 6080 C 563.951 1.74797 -4.1564 0
M  V30 6081 C 562.613 1.60063 -4.53799 0
M  V30 6082 C 564.965 1.35548 -5.03266 0
M  V30 6083 C 562.293 1.04514 -5.77316 0
M  V30 6084 C 564.645 0.814381 -6.27336 0
M  V30 6085 C 563.309 0.653726 -6.64291 0
M  V30 6086 H 562.579 0.444951 -0.592536 0
M  V30 6087 H 565.226 0.510964 -1.84557 0
M  V30 6088 H 563.531 3.04233 -2.46879 0
M  V30 6089 H 565.228 2.85723 -2.81359 0
M  V30 6090 H 561.818 1.87234 -3.8554 0
M  V30 6091 H 566.002 1.45763 -4.74412 0
M  V30 6092 H 561.258 0.908186 -6.04617 0
M  V30 6093 H 565.432 0.501626 -6.94591 0
M  V30 6094 H 563.059 0.22114 -7.59878 0
M  V30 6095 N 564.634 1.40294 0.718013 0
M  V30 6096 C 565.544 1.42678 1.86226 0
M  V30 6097 C 566.56 0.319655 1.71039 0
M  V30 6098 O 567.736 0.563852 1.93346 0
M  V30 6099 C 564.801 1.2852 3.21999 0
M  V30 6100 C 563.862 2.49354 3.49458 0
M  V30 6101 C 563.095 2.35863 4.78753 0
M  V30 6102 O 563.318 1.37114 5.53675 0
M  V30 6103 O 562.252 3.25189 5.06494 0
M  V30 6104 H 566.078 2.39167 1.87171 0
M  V30 6105 H 563.663 1.2159 0.868112 0
M  V30 6106 H 565.545 1.22824 4.03103 0
M  V30 6107 H 564.22 0.351359 3.21787 0
M  V30 6108 H 563.127 2.60628 2.68373 0
M  V30 6109 H 564.46 3.41491 3.54464 0
M  V30 6110 N 566.112 -0.949982 1.2575 0
M  V30 6111 C 567.022 -2.08109 1.08295 0
M  V30 6112 C 568.038 -1.7399 0.0188181 0
M  V30 6113 O 569.214 -2.00187 0.220724 0
M  V30 6114 C 566.279 -3.39383 0.708534 0
M  V30 6115 C 565.34 -3.8734 1.85111 0
M  V30 6116 C 564.573 -5.12349 1.49447 0
M  V30 6117 O 564.796 -5.6905 0.392212 0
M  V30 6118 O 563.73 -5.5513 2.32624 0
M  V30 6119 H 567.556 -2.25738 2.03165 0
M  V30 6120 H 565.141 -1.06545 1.04731 0
M  V30 6121 H 567.023 -4.18277 0.512061 0
M  V30 6122 H 565.698 -3.23013 -0.210854 0
M  V30 6123 H 564.605 -3.09429 2.10248 0
M  V30 6124 H 565.938 -4.08216 2.74991 0
M  V30 6125 N 567.59 -1.07411 -1.15328 0
M  V30 6126 C 568.553 -0.698914 -2.18284 0
M  V30 6127 C 569.553 0.261149 -1.58665 0
M  V30 6128 O 570.743 0.0420277 -1.74149 0
M  V30 6129 C 567.875 -0.0302427 -3.40887 0
M  V30 6130 H 569.068 -1.61045 -2.52991 0
M  V30 6131 H 566.621 -0.870724 -1.298 0
M  V30 6132 H 567.356 0.893505 -3.11748 0
M  V30 6133 H 567.141 -0.720759 -3.85419 0
M  V30 6134 H 568.631 0.21759 -4.17033 0
M  V30 6135 N 569.068 1.32177 -0.85831 0
M  V30 6136 C 570 2.27688 -0.262835 0
M  V30 6137 C 571.013 1.52588 0.567513 0
M  V30 6138 O 572.202 1.74156 0.391407 0
M  V30 6139 C 569.302 3.32668 0.646937 0
M  V30 6140 C 568.475 4.37148 -0.148372 0
M  V30 6141 C 567.534 5.21686 0.687728 0
M  V30 6142 O 566.56 5.69074 0.119934 0
M  V30 6143 N 567.762 5.44892 2.00182 0
M  V30 6144 H 570.527 2.79426 -1.08356 0
M  V30 6145 H 568.088 1.45076 -0.718647 0
M  V30 6146 H 570.08 3.86134 1.2117 0
M  V30 6147 H 568.65 2.81061 1.36834 0
M  V30 6148 H 567.87 3.83915 -0.894572 0
M  V30 6149 H 569.158 5.04038 -0.694514 0
M  V30 6150 H 568.556 5.08128 2.4864 0
M  V30 6151 H 567.113 6.0134 2.51463 0
M  V30 6152 N 570.547 0.616602 1.45037 0
M  V30 6153 C 571.772 0.120192 2.07051 0
M  V30 6154 C 572.197 -1.19008 1.45666 0
M  V30 6155 O 571.555 -1.7267 0.552692 0
M  V30 6156 C 571.603 0.00354901 3.606 0
M  V30 6157 O 570.707 -1.04431 3.98958 0
M  V30 6158 H 570.048 0.0781599 0.659384 0
M  V30 6159 H 572.578 0.849167 1.86146 0
M  V30 6160 H 572.588 -0.191754 4.07549 0
M  V30 6161 H 571.263 0.960239 4.04663 0
M  V30 6162 H 569.84 -0.824749 3.63665 0
M  V30 6163 N 572.025 -1.5352 0.356285 0
M  V30 6164 C 573.253 -2.05534 -0.237328 0
M  V30 6165 C 573.668 -1.23043 -1.43199 0
M  V30 6166 O 573.025 -0.268821 -1.80509 0
M  V30 6167 C 573.076 -3.55791 -0.639933 0
M  V30 6168 O 572.797 -4.35154 0.507233 0
M  V30 6169 C 574.298 -4.24027 -1.29292 0
M  V30 6170 H 571.518 -0.669585 -0.0435572 0
M  V30 6171 H 574.062 -1.97988 0.511963 0
M  V30 6172 H 572.217 -3.63518 -1.33915 0
M  V30 6173 H 572.631 -5.24178 0.18375 0
M  V30 6174 H 574.105 -5.30509 -1.52527 0
M  V30 6175 H 574.582 -3.77166 -2.25039 0
M  V30 6176 H 575.188 -4.20527 -0.63539 0
M  V30 6177 N 573.503 -0.0852151 -1.57369 0
M  V30 6178 C 574.413 0.891712 -2.16992 0
M  V30 6179 C 575.429 1.3174 -1.13669 0
M  V30 6180 O 576.605 1.38735 -1.45995 0
M  V30 6181 C 573.67 2.13635 -2.73059 0
M  V30 6182 C 572.731 1.7658 -3.91303 0
M  V30 6183 C 571.964 2.95111 -4.44686 0
M  V30 6184 O 572.187 4.09539 -3.97032 0
M  V30 6185 O 571.121 2.74149 -5.35841 0
M  V30 6186 H 574.947 0.414477 -3.00858 0
M  V30 6187 H 572.532 0.138598 -1.48756 0
M  V30 6188 H 574.414 2.86595 -3.08935 0
M  V30 6189 H 573.089 2.6043 -1.92244 0
M  V30 6190 H 571.996 1.00831 -3.60255 0
M  V30 6191 H 573.329 1.34557 -4.7345 0
M  V30 6192 N 574.981 1.5647 0.188427 0
M  V30 6193 C 575.944 1.9421 1.21718 0
M  V30 6194 C 576.944 0.823901 1.38089 0
M  V30 6195 O 578.134 1.09122 1.35787 0
M  V30 6196 C 575.266 2.22197 2.58537 0
M  V30 6197 H 576.459 2.86252 0.894418 0
M  V30 6198 H 574.012 1.50263 0.430211 0
M  V30 6199 H 574.747 1.32814 2.95856 0
M  V30 6200 H 574.532 3.03688 2.48025 0
M  V30 6201 H 576.022 2.52376 3.3271 0
M  V30 6202 N 576.459 -0.456382 1.50847 0
M  V30 6203 C 577.689 -1.22848 1.66108 0
M  V30 6204 C 578.097 -1.85936 0.349897 0
M  V30 6205 O 577.44 -1.70664 -0.679665 0
M  V30 6206 C 577.502 -2.36722 2.70561 0
M  V30 6207 C 577.166 -1.94154 4.13707 0
M  V30 6208 C 578.163 -1.4557 4.99105 0
M  V30 6209 C 575.848 -2.02426 4.59705 0
M  V30 6210 C 577.842 -1.0582 6.28555 0
M  V30 6211 C 575.529 -1.62287 5.89157 0
M  V30 6212 C 576.527 -1.14064 6.73408 0
M  V30 6213 O 576.215 -0.744873 8.00442 0
M  V30 6214 H 575.947 -0.377105 0.561042 0
M  V30 6215 H 578.501 -0.549431 1.97915 0
M  V30 6216 H 576.731 -3.07844 2.34027 0
M  V30 6217 H 578.42 -2.98646 2.74892 0
M  V30 6218 H 579.186 -1.38589 4.64777 0
M  V30 6219 H 575.065 -2.38908 3.94264 0
M  V30 6220 H 578.609 -0.6811 6.94267 0
M  V30 6221 H 574.506 -1.68932 6.23003 0
M  V30 6222 H 575.274 -0.87242 8.13837 0
M  V30 6223 N 577.937 -1.40673 -0.710563 0
M  V30 6224 C 578.867 -1.44095 -1.83736 0
M  V30 6225 C 579.848 -0.301286 -1.67411 0
M  V30 6226 O 581.033 -0.510618 -1.87367 0
M  V30 6227 C 578.163 -1.30773 -3.21738 0
M  V30 6228 C 577.117 -2.42395 -3.52745 0
M  V30 6229 C 576.443 -2.14147 -4.89944 0
M  V30 6230 C 577.743 -3.84738 -3.53234 0
M  V30 6231 H 579.437 -2.38396 -1.81129 0
M  V30 6232 H 576.983 -1.14746 -0.870017 0
M  V30 6233 H 578.936 -1.31783 -4.00264 0
M  V30 6234 H 577.66 -0.329507 -3.24934 0
M  V30 6235 H 576.319 -2.40643 -2.76562 0
M  V30 6236 H 575.967 -1.14703 -4.89747 0
M  V30 6237 H 575.667 -2.88934 -5.11655 0
M  V30 6238 H 577.191 -2.16848 -5.70797 0
M  V30 6239 H 578.605 -3.88286 -4.2179 0
M  V30 6240 H 577.002 -4.59085 -3.86473 0
M  V30 6241 H 578.072 -4.13962 -2.52514 0
M  V30 6242 N 579.415 0.9433 -1.26252 0
M  V30 6243 C 580.362 2.0417 -1.07625 0
M  V30 6244 C 581.332 1.6609 0.0180738 0
M  V30 6245 O 582.517 1.90276 -0.141289 0
M  V30 6246 C 579.657 3.37653 -0.713043 0
M  V30 6247 C 578.77 3.88783 -1.8834 0
M  V30 6248 C 577.905 5.10642 -1.4635 0
M  V30 6249 C 576.944 5.54028 -2.60229 0
M  V30 6250 N 576.081 6.67092 -2.18936 0
M  V30 6251 H 580.921 2.19436 -2.01623 0
M  V30 6252 H 578.458 1.07519 -1.00389 0
M  V30 6253 H 580.416 4.14391 -0.483358 0
M  V30 6254 H 579.046 3.22241 0.18996 0
M  V30 6255 H 578.098 3.08464 -2.22608 0
M  V30 6256 H 579.41 4.16922 -2.73821 0
M  V30 6257 H 578.564 5.94832 -1.19414 0
M  V30 6258 H 577.303 4.84244 -0.579568 0
M  V30 6259 H 576.308 4.68396 -2.87898 0
M  V30 6260 H 577.533 5.82429 -3.49219 0
M  V30 6261 H 575.479 6.42381 -1.32974 0
M  V30 6262 H 575.396 6.94806 -2.97961 0
M  V30 6263 H 576.664 7.54662 -1.95206 0
M  V30 6264 N 580.893 1.08022 1.14757 0
M  V30 6265 C 582.141 0.805913 1.85336 0
M  V30 6266 C 582.462 -0.670162 1.83122 0
M  V30 6267 O 581.732 -1.48567 1.2769 0
M  V30 6268 H 580.312 0.295138 0.686223 0
M  V30 6269 H 582.974 1.36538 1.3908 0
M  V30 6270 H 582.07 1.14655 2.90277 0
M  V30 6271 N 582.371 -1.3172 0.865308 0
M  V30 6272 C 583.301 -2.31109 0.333302 0
M  V30 6273 C 584.282 -1.60148 -0.573301 0
M  V30 6274 O 585.467 -1.87882 -0.491305 0
M  V30 6275 C 582.597 -3.44104 -0.470078 0
M  V30 6276 C 581.551 -4.26623 0.343021 0
M  V30 6277 C 580.877 -5.31482 -0.585756 0
M  V30 6278 C 582.177 -4.98001 1.57456 0
M  V30 6279 H 583.871 -2.75855 1.1638 0
M  V30 6280 H 581.417 -1.3262 0.561069 0
M  V30 6281 H 583.37 -4.12682 -0.852752 0
M  V30 6282 H 582.094 -2.98112 -1.33404 0
M  V30 6283 H 580.753 -3.59707 0.707583 0
M  V30 6284 H 580.401 -4.81741 -1.44686 0
M  V30 6285 H 580.101 -5.87582 -0.0456494 0
M  V30 6286 H 581.625 -6.0292 -0.965375 0
M  V30 6287 H 583.039 -5.59201 1.26359 0
M  V30 6288 H 581.436 -5.63876 2.05339 0
M  V30 6289 H 582.506 -4.25253 2.32997 0
M  V30 6290 N 583.85 -0.624285 -1.44708 0
M  V30 6291 C 584.782 0.12305 -2.28869 0
M  V30 6292 C 585.795 0.81557 -1.40898 0
M  V30 6293 O 586.984 0.678162 -1.65116 0
M  V30 6294 C 584.084 1.19612 -3.1709 0
M  V30 6295 C 583.257 0.587452 -4.33437 0
M  V30 6296 C 582.316 1.55358 -5.02743 0
M  V30 6297 O 581.341 1.07338 -5.58988 0
M  V30 6298 N 582.543 2.88798 -5.03563 0
M  V30 6299 H 585.308 -0.599193 -2.93649 0
M  V30 6300 H 582.87 -0.464954 -1.5508 0
M  V30 6301 H 584.861 1.84261 -3.60319 0
M  V30 6302 H 583.432 1.82067 -2.54107 0
M  V30 6303 H 582.652 -0.237509 -3.93484 0
M  V30 6304 H 583.94 0.161326 -5.08544 0
M  V30 6305 H 583.338 3.30399 -4.59188 0
M  V30 6306 H 581.894 3.48826 -5.50603 0
M  V30 6307 N 585.328 1.53329 -0.364422 0
M  V30 6308 C 586.605 1.93557 0.281962 0
M  V30 6309 C 586.985 1.29786 1.6649 0
M  V30 6310 O 586.333 0.456512 2.23893 0
M  V30 6311 C 586.543 3.47405 0.333331 0
M  V30 6312 C 587.891 4.20699 0.574231 0
M  V30 6313 O 588.915 3.53779 0.414588 0
M  V30 6314 O 587.774 5.39287 0.885002 0
M  V30 6315 H 584.868 0.809573 0.168881 0
M  V30 6316 H 587.414 1.64494 -0.417121 0
M  V30 6317 H 586.186 3.86091 -0.636326 0
M  V30 6318 H 585.809 3.82697 1.07836 0
M  V30 6319 N 586.806 0.0935595 1.57322 0
M  V30 6320 C 588.031 -0.582324 1.99057 0
M  V30 6321 C 588.456 -1.61025 0.972242 0
M  V30 6322 O 587.814 -1.81202 -0.0594622 0
M  V30 6323 C 587.862 -1.20799 3.39765 0
M  V30 6324 O 586.966 -2.32382 3.40694 0
M  V30 6325 H 586.307 -0.147884 0.647323 0
M  V30 6326 H 588.837 0.174516 2.03854 0
M  V30 6327 H 588.847 -1.54966 3.77425 0
M  V30 6328 H 587.522 -0.454914 4.13405 0
M  V30 6329 H 586.099 -1.99845 3.14827 0
M  V30 6330 N 588.284 -1.56567 -0.180126 0
M  V30 6331 C 589.533 -1.80685 -0.896426 0
M  V30 6332 C 589.846 -0.669335 -1.83791 0
M  V30 6333 O 591.052 -0.795209 -2.59593 0
M  V30 6334 C 589.508 -3.20132 -1.6445 0
M  V30 6335 C 589.116 -4.41727 -0.747088 0
M  V30 6336 C 590.86 -3.53549 -2.34955 0
M  V30 6337 C 588.767 -5.72195 -1.49489 0
M  V30 6338 H 587.697 -0.673758 -0.338477 0
M  V30 6339 H 590.348 -1.8289 -0.149467 0
M  V30 6340 H 588.73 -3.12218 -2.43589 0
M  V30 6341 H 589.904 -4.608 0.00671129 0
M  V30 6342 H 588.219 -4.16122 -0.152134 0
M  V30 6343 H 590.816 -4.48267 -2.91481 0
M  V30 6344 H 591.159 -2.78006 -3.09868 0
M  V30 6345 H 591.692 -3.62976 -1.62768 0
M  V30 6346 H 588.431 -6.50743 -0.788251 0
M  V30 6347 H 587.951 -5.57115 -2.22224 0
M  V30 6348 H 589.63 -6.1384 -2.04472 0
M  V30 6349 N 589.762 0.448376 -1.51087 0
M  V30 6350 C 591.178 0.783984 -1.39017 0
M  V30 6351 C 591.378 1.96087 -0.463904 0
M  V30 6352 O 590.434 2.52357 0.0850534 0
M  V30 6353 C 591.747 1.07471 -2.80839 0
M  V30 6354 C 593.295 1.17981 -2.89913 0
M  V30 6355 C 593.77 1.50354 -4.32617 0
M  V30 6356 N 595.261 1.57301 -4.35673 0
M  V30 6357 C 595.996 1.839 -5.4311 0
M  V30 6358 N 595.492 2.08365 -6.60724 0
M  V30 6359 N 597.285 1.8559 -5.30578 0
M  V30 6360 H 589.436 -0.326881 -2.0987 0
M  V30 6361 H 591.699 -0.0838006 -0.944289 0
M  V30 6362 H 591.405 0.282768 -3.50561 0
M  V30 6363 H 591.279 2.00519 -3.19487 0
M  V30 6364 H 593.666 1.9624 -2.20395 0
M  V30 6365 H 593.747 0.228603 -2.54776 0
M  V30 6366 H 593.391 0.726273 -5.0268 0
M  V30 6367 H 593.321 2.46663 -4.65258 0
M  V30 6368 H 595.812 1.40342 -3.50874 0
M  V30 6369 H 596.125 2.27999 -7.38401 0
M  V30 6370 H 594.47 2.0571 -6.63859 0
M  V30 6371 H 597.661 1.65989 -4.37682 0
M  V30 6372 H 597.834 2.05983 -6.1439 0
M  V30 6373 N 591.24 1.41047 0.703093 0
M  V30 6374 C 592.187 1.42302 1.81711 0
M  V30 6375 C 593.157 0.278336 1.63751 0
M  V30 6376 O 594.342 0.478266 1.84709 0
M  V30 6377 C 591.482 1.30362 3.19531 0
M  V30 6378 C 590.595 2.54638 3.48975 0
M  V30 6379 C 589.73 2.35047 4.76368 0
M  V30 6380 C 588.769 3.54837 4.98756 0
M  V30 6381 N 587.906 3.34363 6.1737 0
M  V30 6382 H 592.746 2.37516 1.79973 0
M  V30 6383 H 590.283 1.1795 0.878983 0
M  V30 6384 H 592.241 1.21443 3.99134 0
M  V30 6385 H 590.871 0.387602 3.20464 0
M  V30 6386 H 589.923 2.74037 2.63833 0
M  V30 6387 H 591.235 3.43766 3.61423 0
M  V30 6388 H 590.389 2.23552 5.64012 0
M  V30 6389 H 589.128 1.43363 4.66153 0
M  V30 6390 H 588.133 3.66795 4.09563 0
M  V30 6391 H 589.358 4.47464 5.10835 0
M  V30 6392 H 587.304 2.45373 6.08382 0
M  V30 6393 H 587.221 4.17063 6.30551 0
M  V30 6394 H 588.489 3.26626 7.07768 0
M  V30 6395 N 592.718 -0.936591 1.26751 0
M  V30 6396 C 593.665 -2.03597 1.08706 0
M  V30 6397 C 594.635 -1.66097 -0.00926542 0
M  V30 6398 O 595.82 -1.90199 0.151377 0
M  V30 6399 C 592.96 -3.3727 0.73094 0
M  V30 6400 C 592.073 -3.87778 1.90399 0
M  V30 6401 C 591.208 -5.09859 1.49056 0
M  V30 6402 C 590.247 -5.5264 2.63164 0
M  V30 6403 N 589.384 -6.65921 2.22471 0
M  V30 6404 H 594.224 -2.18364 2.02784 0
M  V30 6405 H 591.761 -1.06985 1.00958 0
M  V30 6406 H 593.719 -4.14128 0.505328 0
M  V30 6407 H 592.349 -3.22337 -0.172868 0
M  V30 6408 H 591.401 -3.07279 2.2424 0
M  V30 6409 H 592.713 -4.15464 2.76028 0
M  V30 6410 H 591.867 -5.9419 1.22567 0
M  V30 6411 H 590.606 -4.8393 0.60524 0
M  V30 6412 H 589.611 -4.66863 2.90377 0
M  V30 6413 H 590.836 -5.80568 3.52303 0
M  V30 6414 H 588.782 -6.41667 1.36379 0
M  V30 6415 H 588.699 -6.93216 3.01641 0
M  V30 6416 H 589.967 -7.53616 1.99205 0
M  V30 6417 N 594.196 -1.08629 -1.14182 0
M  V30 6418 C 595.426 -0.837673 -1.88856 0
M  V30 6419 C 595.834 0.614024 -1.78959 0
M  V30 6420 O 595.177 1.43384 -1.14833 0
M  V30 6421 C 595.239 -1.18355 -3.39459 0
M  V30 6422 C 594.903 -2.63848 -3.73139 0
M  V30 6423 C 595.9 -3.62099 -3.73069 0
M  V30 6424 C 593.585 -2.99761 -4.03049 0
M  V30 6425 C 595.579 -4.94292 -4.02435 0
M  V30 6426 C 593.266 -4.32147 -4.32078 0
M  V30 6427 C 594.264 -5.29223 -4.31755 0
M  V30 6428 O 593.952 -6.59229 -4.60079 0
M  V30 6429 H 593.684 -0.301609 -0.604986 0
M  V30 6430 H 596.238 -1.44961 -1.45518 0
M  V30 6431 H 594.468 -0.514628 -3.8326 0
M  V30 6432 H 596.157 -0.915391 -3.95443 0
M  V30 6433 H 596.923 -3.35698 -3.50046 0
M  V30 6434 H 592.802 -2.2484 -4.02453 0
M  V30 6435 H 596.346 -5.70055 -4.02098 0
M  V30 6436 H 592.243 -4.58296 -4.54571 0
M  V30 6437 H 593.011 -6.64578 -4.77785 0
M  V30 6438 N 595.674 1.31259 -0.872281 0
M  V30 6439 C 597.085 1.78822 -0.536617 0
M  V30 6440 C 597.436 1.71855 0.946594 0
M  V30 6441 O 596.561 1.28769 1.73918 0
M  V30 6442 C 597.156 3.24698 -0.967294 0
M  V30 6443 C 595.715 3.70147 -0.683251 0
M  V30 6444 C 594.862 2.51994 -1.15733 0
M  V30 6445 H 597.813 1.18308 -1.05777 0
M  V30 6446 H 597.834 3.79386 -0.290929 0
M  V30 6447 H 597.346 3.29737 -2.04683 0
M  V30 6448 H 595.447 3.70607 0.384825 0
M  V30 6449 H 595.56 4.62183 -1.2619 0
M  V30 6450 H 593.924 2.48078 -0.577024 0
M  V30 6451 H 594.707 2.59778 -2.24434 0
M  V30 6452 N 597.152 0.631951 1.44375 0
M  V30 6453 C 598.392 0.14009 2.03919 0
M  V30 6454 C 598.756 -1.21534 1.48639 0
M  V30 6455 O 599.957 -1.79936 1.99691 0
M  V30 6456 C 598.228 0.127174 3.57174 0
M  V30 6457 S 599.787 -0.299946 4.37774 0
M  V30 6458 H 596.605 0.0614891 0.708336 0
M  V30 6459 H 599.207 0.835524 1.76746 0
M  V30 6460 H 597.911 1.11676 3.94913 0
M  V30 6461 H 597.442 -0.589482 3.88958 0
M  V30 6462 H 599.457 -1.54396 4.71568 0
M  V30 6463 N 598.631 -1.53133 0.372548 0
M  V30 6464 C 599.908 -1.93704 -0.271693 0
M  V30 6465 C 600.288 -1.30667 -1.65799 0
M  V30 6466 O 599.636 -0.46838 -2.23648 0
M  V30 6467 C 599.846 -3.47576 -0.314903 0
M  V30 6468 C 601.194 -4.20998 -0.551912 0
M  V30 6469 O 602.218 -3.53994 -0.39582 0
M  V30 6470 O 601.077 -5.39748 -0.85639 0
M  V30 6471 H 598.171 -0.810457 -0.164586 0
M  V30 6472 H 600.717 -1.6427 0.425838 0
M  V30 6473 H 599.489 -3.85749 0.656792 0
M  V30 6474 H 599.112 -3.83264 -1.05804 0
M  V30 6475 N 600.109 -0.101901 -1.5727 0
M  V30 6476 C 601.056 0.854577 -2.14396 0
M  V30 6477 C 602.026 1.27521 -1.06432 0
M  V30 6478 O 603.211 1.35575 -1.34253 0
M  V30 6479 C 600.351 2.10576 -2.73408 0
M  V30 6480 C 599.464 1.73504 -3.95626 0
M  V30 6481 C 598.599 2.9346 -4.42781 0
M  V30 6482 C 597.638 2.52547 -5.57572 0
M  V30 6483 N 596.775 3.65359 -5.99547 0
M  V30 6484 H 601.615 0.360578 -2.9581 0
M  V30 6485 H 599.152 0.166303 -1.46157 0
M  V30 6486 H 601.11 2.83859 -3.05745 0
M  V30 6487 H 599.74 2.57463 -1.94711 0
M  V30 6488 H 598.792 0.901622 -3.6956 0
M  V30 6489 H 600.104 1.39426 -4.78917 0
M  V30 6490 H 599.258 3.74988 -4.76937 0
M  V30 6491 H 597.997 3.30753 -3.58404 0
M  V30 6492 H 597.002 1.69446 -5.23037 0
M  V30 6493 H 598.227 2.1639 -6.43702 0
M  V30 6494 H 596.173 4.02358 -5.18116 0
M  V30 6495 H 596.09 3.35148 -6.77652 0
M  V30 6496 H 597.358 4.47378 -6.38336 0
M  V30 6497 N 601.587 1.56661 0.17182 0
M  V30 6498 C 602.535 1.97289 1.23207 0
M  V30 6499 C 603.529 0.861566 1.45854 0
M  V30 6500 O 604.735 1.04668 1.4644 0
M  V30 6501 H 601.11 0.627681 0.41415 0
M  V30 6502 H 603.081 2.85662 0.862542 0
M  V30 6503 C 601.83 2.34849 2.564 0
M  V30 6504 H 601.153 3.19903 2.39797 0
M  V30 6505 H 602.593 2.67121 3.29276 0
M  V30 6506 C 601.052 1.19172 3.15119 0
M  V30 6507 O 601.582 0.479113 3.98833 0
M  V30 6508 N 599.788 0.962415 2.74201 0
M  V30 6509 H 599.335 1.54365 2.06226 0
M  V30 6510 H 599.293 0.190272 3.13824 0
M  V30 6511 N 603.065 -0.440357 1.51323 0
M  V30 6512 C 603.998 -1.55414 1.67098 0
M  V30 6513 C 604.976 -1.54108 0.518599 0
M  V30 6514 O 606.16 -1.7328 0.742054 0
M  V30 6515 C 603.287 -2.93996 1.68179 0
M  V30 6516 C 602.333 -3.13338 2.89347 0
M  V30 6517 S 603.166 -2.89957 4.50206 0
M  V30 6518 C 604.322 -4.30826 4.54027 0
M  V30 6519 H 604.555 -1.41798 2.61306 0
M  V30 6520 H 602.088 -0.629841 1.40969 0
M  V30 6521 H 604.046 -3.73878 1.69487 0
M  V30 6522 H 602.707 -3.04976 0.751542 0
M  V30 6523 H 601.9 -4.14652 2.86495 0
M  V30 6524 H 601.502 -2.41276 2.85766 0
M  V30 6525 H 603.794 -5.23977 4.29481 0
M  V30 6526 H 604.737 -4.38712 5.55822 0
M  V30 6527 H 605.145 -4.1434 3.83384 0
M  V30 6528 N 604.543 -1.41418 -0.695603 0
M  V30 6529 C 605.954 -1.36335 -1.27552 0
M  V30 6530 C 606.305 -0.0464336 -1.96145 0
M  V30 6531 O 605.43 0.855304 -1.9878 0
M  V30 6532 C 606.025 -2.46941 -2.3196 0
M  V30 6533 C 604.584 -2.45256 -2.85529 0
M  V30 6534 C 603.731 -2.2679 -1.59566 0
M  V30 6535 H 606.682 -1.50934 -0.490362 0
M  V30 6536 H 606.703 -2.15997 -3.1325 0
M  V30 6537 H 606.215 -3.42775 -1.82008 0
M  V30 6538 H 604.316 -1.53179 -3.39657 0
M  V30 6539 H 604.429 -3.41565 -3.35961 0
M  V30 6540 H 602.793 -1.74667 -1.85374 0
M  V30 6541 H 603.576 -3.24651 -1.1161 0
M  V30 6542 N 606.021 0.929856 -1.27246 0
M  V30 6543 C 606.951 2.04722 -1.12299 0
M  V30 6544 C 607.932 1.70082 -0.0250464 0
M  V30 6545 O 609.117 1.93176 -0.199141 0
M  V30 6546 C 606.247 3.38721 -0.767145 0
M  V30 6547 C 605.201 3.87466 -1.81808 0
M  V30 6548 C 604.527 5.18246 -1.31626 0
M  V30 6549 C 605.827 4.11095 -3.22177 0
M  V30 6550 H 607.521 2.17485 -2.05769 0
M  V30 6551 H 605.067 1.04503 -0.990715 0
M  V30 6552 H 607.02 4.16366 -0.649413 0
M  V30 6553 H 605.744 3.25967 0.203259 0
M  V30 6554 H 604.403 3.12012 -1.92468 0
M  V30 6555 H 604.051 5.01881 -0.335378 0
M  V30 6556 H 603.751 5.51829 -2.01887 0
M  V30 6557 H 605.275 5.98462 -1.21143 0
M  V30 6558 H 606.689 4.79316 -3.1453 0
M  V30 6559 H 605.086 4.55982 -3.90129 0
M  V30 6560 H 606.156 3.16468 -3.67391 0
M  V30 6561 N 607.499 1.09233 1.13605 0
M  V30 6562 C 608.431 0.687794 2.18637 0
M  V30 6563 C 609.444 -0.26936 1.60556 0
M  V30 6564 O 610.633 -0.0557162 1.78413 0
M  V30 6565 C 607.733 -0.00751901 3.38899 0
M  V30 6566 C 606.906 0.97067 4.26494 0
M  V30 6567 C 605.965 0.309129 5.25291 0
M  V30 6568 O 604.991 0.956149 5.61112 0
M  V30 6569 N 606.193 -0.937555 5.72879 0
M  V30 6570 H 608.958 1.59141 2.53957 0
M  V30 6571 H 606.519 0.979515 1.28907 0
M  V30 6572 H 608.511 -0.461238 4.02063 0
M  V30 6573 H 607.081 -0.813353 3.01833 0
M  V30 6574 H 606.301 1.603 3.60135 0
M  V30 6575 H 607.589 1.63323 4.81875 0
M  V30 6576 H 606.987 -1.48281 5.4592 0
M  V30 6577 H 605.544 -1.33463 6.3799 0
M  V30 6578 N 608.977 -1.30795 0.87923 0
M  V30 6579 C 609.927 -2.25838 0.313276 0
M  V30 6580 C 610.911 -1.51025 -0.55499 0
M  V30 6581 O 612.103 -1.72413 -0.400353 0
M  V30 6582 C 609.232 -3.39981 -0.476204 0
M  V30 6583 C 608.318 -4.22154 0.405826 0
M  V30 6584 N 608.709 -4.82934 1.50362 0
M  V30 6585 C 607.007 -4.45552 0.199909 0
M  V30 6586 C 607.708 -5.44444 2.0483 0
M  V30 6587 N 606.684 -5.26723 1.34403 0
M  V30 6588 H 610.486 -2.70374 1.15218 0
M  V30 6589 H 608 -1.45168 0.728003 0
M  V30 6590 H 609.997 -4.07108 -0.898251 0
M  V30 6591 H 608.657 -2.96986 -1.31261 0
M  V30 6592 H 609.668 -4.82319 1.8865 0
M  V30 6593 H 606.345 -4.13169 -0.599795 0
M  V30 6594 H 607.735 -6.02701 2.96986 0
M  V30 6595 N 610.455 -0.639598 -1.44038 0
M  V30 6596 C 611.385 0.0469443 -2.33453 0
M  V30 6597 C 612.366 0.82609 -1.48694 0
M  V30 6598 O 613.551 0.790285 -1.77393 0
M  V30 6599 C 610.681 1.02338 -3.3188 0
M  V30 6600 C 609.635 0.355284 -4.26523 0
M  V30 6601 C 608.961 1.44221 -5.14883 0
M  V30 6602 C 610.261 -0.743798 -5.16977 0
M  V30 6603 H 611.955 -0.699735 -2.91108 0
M  V30 6604 H 609.501 -0.337946 -1.39978 0
M  V30 6605 H 611.454 1.51247 -3.93322 0
M  V30 6606 H 610.178 1.80105 -2.72451 0
M  V30 6607 H 608.837 -0.113239 -3.66425 0
M  V30 6608 H 608.485 2.21097 -4.51802 0
M  V30 6609 H 608.185 1.00052 -5.79019 0
M  V30 6610 H 609.709 1.93295 -5.79197 0
M  V30 6611 H 611.123 -0.337444 -5.72306 0
M  V30 6612 H 609.52 -1.10914 -5.89761 0
M  V30 6613 H 610.59 -1.60745 -4.57481 0
M  V30 6614 N 611.933 1.52934 -0.380664 0
M  V30 6615 C 612.863 2.29118 0.450268 0
M  V30 6616 C 613.844 1.32153 1.07096 0
M  V30 6617 O 615.029 1.61038 1.08537 0
M  V30 6618 C 612.159 3.09161 1.58231 0
M  V30 6619 C 611.113 4.13938 1.0881 0
M  V30 6620 C 610.439 4.82153 2.31155 0
M  V30 6621 C 611.739 5.22048 0.162146 0
M  V30 6622 H 613.433 2.98826 -0.185361 0
M  V30 6623 H 610.979 1.43715 -0.0905886 0
M  V30 6624 H 612.932 3.61211 2.17036 0
M  V30 6625 H 611.656 2.3717 2.2454 0
M  V30 6626 H 610.315 3.62855 0.522633 0
M  V30 6627 H 609.963 4.06719 2.95953 0
M  V30 6628 H 609.663 5.52966 1.98752 0
M  V30 6629 H 611.187 5.37004 2.90618 0
M  V30 6630 H 612.601 5.6951 0.658126 0
M  V30 6631 H 610.998 6.00057 -0.0717122 0
M  V30 6632 H 612.068 4.78398 -0.791438 0
M  V30 6633 N 613.412 0.11024 1.57214 0
M  V30 6634 C 614.322 -0.857077 2.18383 0
M  V30 6635 C 615.338 -1.29915 1.1575 0
M  V30 6636 O 616.514 -1.36394 1.48184 0
M  V30 6637 C 613.579 -2.09264 2.76423 0
M  V30 6638 C 612.64 -1.70333 3.94063 0
M  V30 6639 C 611.873 -2.87999 4.49324 0
M  V30 6640 O 612.096 -4.0317 4.03497 0
M  V30 6641 O 611.03 -2.6559 5.40135 0
M  V30 6642 H 614.856 -0.366561 3.0148 0
M  V30 6643 H 612.441 -0.114914 1.48957 0
M  V30 6644 H 614.323 -2.81644 3.13456 0
M  V30 6645 H 612.998 -2.57339 1.96363 0
M  V30 6646 H 611.905 -0.950864 3.61814 0
M  V30 6647 H 613.238 -1.27007 4.75531 0
M  V30 6648 N 614.89 -1.56749 -0.16351 0
M  V30 6649 C 615.822 -1.93587 -1.22705 0
M  V30 6650 C 616.835 -0.829824 -1.40063 0
M  V30 6651 O 618.024 -1.10826 -1.39928 0
M  V30 6652 C 615.124 -2.1803 -2.59454 0
M  V30 6653 C 614.297 -3.4928 -2.63292 0
M  V30 6654 C 613.356 -3.62457 -3.8146 0
M  V30 6655 O 612.382 -4.35004 -3.67096 0
M  V30 6656 N 613.584 -2.97888 -4.9824 0
M  V30 6657 H 616.349 -2.8542 -0.914081 0
M  V30 6658 H 613.91 -1.58 -0.353214 0
M  V30 6659 H 615.902 -2.24102 -3.36987 0
M  V30 6660 H 614.472 -1.32543 -2.8311 0
M  V30 6661 H 613.692 -3.54795 -1.71796 0
M  V30 6662 H 614.98 -4.35632 -2.62873 0
M  V30 6663 H 614.378 -2.38833 -5.12811 0
M  V30 6664 H 612.935 -3.09545 -5.73607 0
M  V30 6665 N 616.368 0.432326 -1.51554 0
M  V30 6666 C 617.617 1.17831 -1.63703 0
M  V30 6667 C 617.93 1.92229 -0.36156 0
M  V30 6668 O 619.136 2.69069 -0.362495 0
M  V30 6669 C 617.592 2.14318 -2.89129 0
M  V30 6670 C 617.2 1.45544 -4.23699 0
M  V30 6671 C 618.944 2.89319 -3.10636 0
M  V30 6672 C 616.851 2.40545 -5.4027 0
M  V30 6673 H 615.781 0.443533 -0.60975 0
M  V30 6674 H 618.432 0.444878 -1.78026 0
M  V30 6675 H 616.814 2.91117 -2.68452 0
M  V30 6676 H 617.988 0.742693 -4.54775 0
M  V30 6677 H 616.303 0.826772 -4.0811 0
M  V30 6678 H 618.9 3.60495 -3.94902 0
M  V30 6679 H 619.243 3.50951 -2.23918 0
M  V30 6680 H 619.776 2.19625 -3.31677 0
M  V30 6681 H 616.515 1.83594 -6.29264 0
M  V30 6682 H 616.035 3.09859 -5.13563 0
M  V30 6683 H 617.714 3.01569 -5.72421 0
M  V30 6684 N 617.846 1.41785 0.688094 0
M  V30 6685 C 618.793 1.44221 1.80191 0
M  V30 6686 C 619.763 0.295688 1.63447 0
M  V30 6687 O 620.948 0.49783 1.84191 0
M  V30 6688 C 618.088 1.33743 3.1813 0
M  V30 6689 C 617.201 2.58325 3.46254 0
M  V30 6690 C 616.336 2.40086 4.73848 0
M  V30 6691 C 615.375 3.60107 4.94964 0
M  V30 6692 N 614.512 3.40892 6.13789 0
M  V30 6693 H 619.352 2.39411 1.77444 0
M  V30 6694 H 616.889 1.18876 0.866423 0
M  V30 6695 H 618.847 1.25669 3.97823 0
M  V30 6696 H 617.477 0.42157 3.20035 0
M  V30 6697 H 616.529 2.7682 2.60912 0
M  V30 6698 H 617.841 3.4758 3.57756 0
M  V30 6699 H 616.995 2.29522 5.61609 0
M  V30 6700 H 615.734 1.483 4.64606 0
M  V30 6701 H 614.739 3.71118 4.05649 0
M  V30 6702 H 615.964 4.52857 5.06061 0
M  V30 6703 H 613.91 2.51812 6.05745 0
M  V30 6704 H 613.827 4.23727 6.26092 0
M  V30 6705 H 615.095 3.34114 7.04264 0
M  V30 6706 N 619.324 -0.923095 1.27737 0
M  V30 6707 C 620.234 -2.05765 1.12685 0
M  V30 6708 C 621.25 -1.73911 0.0557197 0
M  V30 6709 O 622.426 -1.99674 0.263137 0
M  V30 6710 C 619.491 -3.37804 0.780363 0
M  V30 6711 C 618.552 -3.83326 1.93286 0
M  V30 6712 C 617.785 -5.09064 1.60281 0
M  V30 6713 O 618.008 -5.6809 0.512828 0
M  V30 6714 O 616.942 -5.50071 2.44347 0
M  V30 6715 H 620.768 -2.21378 2.07907 0
M  V30 6716 H 618.353 -1.04299 1.06968 0
M  V30 6717 H 620.235 -4.17097 0.600668 0
M  V30 6718 H 618.91 -3.23387 -0.142291 0
M  V30 6719 H 617.817 -3.049 2.16764 0
M  V30 6720 H 619.15 -4.02292 2.83588 0
M  V30 6721 N 620.802 -1.09834 -1.13024 0
M  V30 6722 C 621.732 -0.763451 -2.20666 0
M  V30 6723 C 622.713 0.260778 -1.68089 0
M  V30 6724 O 623.898 0.127915 -1.93778 0
M  V30 6725 C 621.028 -0.187744 -3.46792 0
M  V30 6726 C 619.982 -1.14196 -4.12484 0
M  V30 6727 C 619.308 -0.427755 -5.32986 0
M  V30 6728 C 620.608 -2.48607 -4.59338 0
M  V30 6729 H 622.302 -1.66347 -2.48936 0
M  V30 6730 H 619.848 -0.801261 -1.19649 0
M  V30 6731 H 621.801 0.0586375 -4.21359 0
M  V30 6732 H 620.525 0.747485 -3.17931 0
M  V30 6733 H 619.184 -1.37369 -3.3989 0
M  V30 6734 H 618.832 0.511747 -5.0039 0
M  V30 6735 H 618.532 -1.06403 -5.77886 0
M  V30 6736 H 620.056 -0.189772 -6.10305 0
M  V30 6737 H 621.47 -2.29618 -5.25308 0
M  V30 6738 H 619.867 -3.08062 -5.14993 0
M  V30 6739 H 620.937 -3.09062 -3.73642 0
M  V30 6740 N 622.28 1.30327 -0.886154 0
M  V30 6741 C 623.19 2.31854 -0.357866 0
M  V30 6742 C 624.206 1.65392 0.540502 0
M  V30 6743 O 625.382 1.96683 0.433339 0
M  V30 6744 C 622.447 3.44171 0.417999 0
M  V30 6745 C 621.508 4.26257 -0.510263 0
M  V30 6746 C 620.741 5.3321 0.228669 0
M  V30 6747 O 620.964 5.51542 1.45458 0
M  V30 6748 O 619.898 6.0042 -0.421832 0
M  V30 6749 H 623.724 2.78995 -1.19982 0
M  V30 6750 H 621.309 1.34518 -0.650028 0
M  V30 6751 H 623.191 4.12588 0.857251 0
M  V30 6752 H 621.866 2.99164 1.23623 0
M  V30 6753 H 620.773 3.60533 -0.99835 0
M  V30 6754 H 622.106 4.74871 -1.29454 0
M  V30 6755 N 623.758 0.647228 1.43697 0
M  V30 6756 C 624.705 -0.0480092 2.3075 0
M  V30 6757 C 625.675 -0.820705 1.44408 0
M  V30 6758 O 626.86 -0.798515 1.73287 0
M  V30 6759 C 624 -1.01259 3.2991 0
M  V30 6760 C 623.113 -0.236629 4.31351 0
M  V30 6761 C 622.248 -1.19447 5.17596 0
M  V30 6762 C 621.287 -0.408595 6.10735 0
M  V30 6763 N 620.424 -1.31772 6.89623 0
M  V30 6764 H 625.264 0.700238 2.89656 0
M  V30 6765 H 622.801 0.357082 1.427 0
M  V30 6766 H 624.759 -1.58538 3.85903 0
M  V30 6767 H 623.389 -1.72778 2.72667 0
M  V30 6768 H 622.441 0.452353 3.77701 0
M  V30 6769 H 623.753 0.374731 4.9739 0
M  V30 6770 H 622.907 -1.83809 5.78186 0
M  V30 6771 H 621.646 -1.83975 4.51669 0
M  V30 6772 H 620.651 0.24841 5.49239 0
M  V30 6773 H 621.876 0.232188 6.78703 0
M  V30 6774 H 619.822 -1.94991 6.2635 0
M  V30 6775 H 619.739 -0.760779 7.52162 0
M  V30 6776 H 621.007 -1.94967 7.54724 0
M  V30 6777 N 625.236 -1.5273 0.388769 0
M  V30 6778 C 626.146 -2.30165 -0.453993 0
M  V30 6779 C 627.162 -1.37058 -1.07197 0
M  V30 6780 O 628.338 -1.70127 -1.0779 0
M  V30 6781 C 625.403 -3.09303 -1.56628 0
M  V30 6782 C 624.464 -4.18117 -0.973467 0
M  V30 6783 C 623.697 -4.93472 -2.03275 0
M  V30 6784 O 623.92 -4.68913 -3.24772 0
M  V30 6785 O 622.854 -5.78833 -1.65034 0
M  V30 6786 H 626.68 -3.03185 0.176816 0
M  V30 6787 H 624.265 -1.4862 0.152501 0
M  V30 6788 H 626.147 -3.58648 -2.21246 0
M  V30 6789 H 624.822 -2.39098 -2.18206 0
M  V30 6790 H 623.729 -3.7297 -0.290556 0
M  V30 6791 H 625.062 -4.90556 -0.401908 0
M  V30 6792 N 626.714 -0.118576 -1.57153 0
M  V30 6793 C 628.13 0.238014 -1.57815 0
M  V30 6794 C 628.33 1.66747 -1.13127 0
M  V30 6795 O 627.386 2.38867 -0.818462 0
M  V30 6796 C 628.699 0.00508207 -3.007 0
M  V30 6797 C 630.247 0.0710139 -3.12919 0
M  V30 6798 C 630.722 -0.13422 -4.57803 0
M  V30 6799 N 632.213 -0.0801755 -4.63131 0
M  V30 6800 C 632.948 -0.213885 -5.73001 0
M  V30 6801 N 632.444 -0.403742 -6.91623 0
M  V30 6802 N 634.237 -0.15349 -5.6189 0
M  V30 6803 H 626.388 -1.05226 -1.84503 0
M  V30 6804 H 628.651 -0.414318 -0.852669 0
M  V30 6805 H 628.357 -0.983125 -3.3768 0
M  V30 6806 H 628.231 0.73714 -3.69927 0
M  V30 6807 H 630.618 1.04975 -2.75798 0
M  V30 6808 H 630.699 -0.692918 -2.46236 0
M  V30 6809 H 630.343 -1.10992 -4.95624 0
M  V30 6810 H 630.273 0.649692 -5.22577 0
M  V30 6811 H 632.764 0.0630689 -3.77847 0
M  V30 6812 H 633.077 -0.496645 -7.71202 0
M  V30 6813 H 631.422 -0.43971 -6.93608 0
M  V30 6814 H 634.613 -0.00613174 -4.681 0
M  V30 6815 H 634.786 -0.261138 -6.47474 0
M  V30 6816 N 628.193 1.56834 0.155195 0
M  V30 6817 C 629.103 2.009 1.21146 0
M  V30 6818 C 630.119 0.923029 1.475 0
M  V30 6819 O 631.295 1.23189 1.59331 0
M  V30 6820 C 628.36 2.37378 2.52691 0
M  V30 6821 C 627.421 3.59883 2.34057 0
M  V30 6822 C 626.654 3.94612 3.59329 0
M  V30 6823 O 626.877 3.30104 4.65175 0
M  V30 6824 O 625.811 4.87895 3.52479 0
M  V30 6825 H 629.637 2.9105 0.867371 0
M  V30 6826 H 627.222 1.44916 0.363298 0
M  V30 6827 H 629.104 2.61737 3.3026 0
M  V30 6828 H 627.779 1.50385 2.86646 0
M  V30 6829 H 626.686 3.40722 1.54465 0
M  V30 6830 H 628.019 4.47468 2.0502 0
M  V30 6831 N 629.671 -0.424282 1.51781 0
M  V30 6832 C 630.618 -1.51591 1.74037 0
M  V30 6833 C 631.588 -1.55556 0.582358 0
M  V30 6834 O 632.773 -1.72364 0.818245 0
M  V30 6835 C 629.913 -2.89188 1.8832 0
M  V30 6836 C 629.026 -2.9465 3.1592 0
M  V30 6837 C 628.161 -4.23452 3.20721 0
M  V30 6838 C 627.2 -4.22831 4.42584 0
M  V30 6839 N 626.337 -5.43178 4.44862 0
M  V30 6840 H 631.177 -1.31917 2.67212 0
M  V30 6841 H 628.714 -0.640599 1.32419 0
M  V30 6842 H 630.672 -3.69044 1.94583 0
M  V30 6843 H 629.302 -3.07392 0.985402 0
M  V30 6844 H 628.354 -2.07378 3.18902 0
M  V30 6845 H 629.666 -2.90055 4.05795 0
M  V30 6846 H 628.82 -5.1169 3.25973 0
M  V30 6847 H 627.559 -4.30722 2.28757 0
M  V30 6848 H 626.564 -3.32984 4.37495 0
M  V30 6849 H 627.789 -4.17213 5.35826 0
M  V30 6850 H 625.735 -5.51145 3.55775 0
M  V30 6851 H 625.652 -5.40515 5.28563 0
M  V30 6852 H 626.92 -6.33412 4.54324 0
M  V30 6853 N 631.149 -1.42148 -0.680565 0
M  V30 6854 C 632.398 -1.41604 -1.43636 0
M  V30 6855 C 632.711 -0.0337887 -1.95571 0
M  V30 6856 O 633.917 0.0942588 -2.71336 0
M  V30 6857 C 632.373 -2.49056 -2.59806 0
M  V30 6858 C 631.981 -3.9326 -2.14594 0
M  V30 6859 C 633.725 -2.5767 -3.37352 0
M  V30 6860 C 631.632 -4.92232 -3.27813 0
M  V30 6861 H 630.562 -0.526656 -0.539583 0
M  V30 6862 H 633.213 -1.68033 -0.737369 0
M  V30 6863 H 631.595 -2.15782 -3.32045 0
M  V30 6864 H 632.769 -4.35858 -1.49546 0
M  V30 6865 H 631.084 -3.88443 -1.50002 0
M  V30 6866 H 633.681 -3.28794 -4.21662 0
M  V30 6867 H 634.024 -1.61837 -3.83555 0
M  V30 6868 H 634.557 -2.90109 -2.72179 0
M  V30 6869 H 631.296 -5.89522 -2.86607 0
M  V30 6870 H 630.816 -4.5427 -3.91661 0
M  V30 6871 H 632.495 -5.13684 -3.93367 0
M  V30 6872 N 632.627 0.916307 -1.28225 0
M  V30 6873 C 633.557 2.0352 -1.14464 0
M  V30 6874 C 634.538 1.70045 -0.0430844 0
M  V30 6875 O 635.723 1.92954 -0.219619 0
M  V30 6876 C 632.853 3.37889 -0.803027 0
M  V30 6877 C 631.807 3.85516 -1.85908 0
M  V30 6878 C 631.133 5.1682 -1.37116 0
M  V30 6879 C 632.433 4.07655 -3.26519 0
M  V30 6880 H 634.127 2.1529 -2.08064 0
M  V30 6881 H 631.673 1.03446 -1.00174 0
M  V30 6882 H 633.626 4.15654 -0.693537 0
M  V30 6883 H 632.35 3.26164 0.168674 0
M  V30 6884 H 631.009 3.09953 -1.95767 0
M  V30 6885 H 630.657 5.01497 -0.38859 0
M  V30 6886 H 630.357 5.49657 -2.07728 0
M  V30 6887 H 631.881 5.97143 -1.27484 0
M  V30 6888 H 633.295 4.75953 -3.19596 0
M  V30 6889 H 631.692 4.51818 -3.94943 0
M  V30 6890 H 632.762 3.12553 -3.70727 0
M  V30 6891 N 634.105 1.10431 1.1244 0
M  V30 6892 C 635.015 0.765502 2.21759 0
M  V30 6893 C 636.031 -0.236966 1.72379 0
M  V30 6894 O 637.207 -0.0757329 2.01258 0
M  V30 6895 C 634.272 0.202316 3.46109 0
M  V30 6896 C 633.333 1.26205 4.1033 0
M  V30 6897 C 632.566 0.725648 5.28744 0
M  V30 6898 O 632.789 -0.447942 5.68638 0
M  V30 6899 O 631.723 1.48555 5.83279 0
M  V30 6900 H 635.549 1.67801 2.53133 0
M  V30 6901 H 633.134 0.879443 1.20773 0
M  V30 6902 H 635.016 -0.107918 4.21262 0
M  V30 6903 H 633.691 -0.683052 3.16411 0
M  V30 6904 H 632.598 1.62514 3.36957 0
M  V30 6905 H 633.931 2.12044 4.44183 0
M  V30 6906 N 635.583 -1.29855 0.893053 0
M  V30 6907 C 636.813 -1.99686 0.530019 0
M  V30 6908 C 637.221 -1.67066 -0.888012 0
M  V30 6909 O 636.564 -0.908366 -1.5967 0
M  V30 6910 C 636.626 -3.53855 0.63457 0
M  V30 6911 C 636.29 -4.10013 2.01837 0
M  V30 6912 C 637.287 -4.25406 2.98874 0
M  V30 6913 C 634.972 -4.45202 2.32595 0
M  V30 6914 C 636.966 -4.7521 4.24799 0
M  V30 6915 C 634.653 -4.94704 3.58763 0
M  V30 6916 C 635.651 -5.09662 4.5468 0
M  V30 6917 O 635.339 -5.58093 5.78608 0
M  V30 6918 H 635.071 -0.644913 0.20264 0
M  V30 6919 H 637.625 -1.66518 1.20253 0
M  V30 6920 H 635.855 -3.86583 -0.0949477 0
M  V30 6921 H 637.544 -4.04922 0.281648 0
M  V30 6922 H 638.31 -3.98515 2.76425 0
M  V30 6923 H 634.189 -4.32822 1.58701 0
M  V30 6924 H 637.733 -4.86801 4.99671 0
M  V30 6925 H 633.63 -5.21032 3.81046 0
M  V30 6926 H 634.398 -5.7642 5.81104 0
M  V30 6927 N 637.061 -0.65484 -1.43351 0
M  V30 6928 C 638.008 0.0357713 -2.30772 0
M  V30 6929 C 638.978 0.813035 -1.44841 0
M  V30 6930 O 640.163 0.789314 -1.73708 0
M  V30 6931 C 637.303 0.995084 -3.30442 0
M  V30 6932 C 636.416 0.21375 -4.31471 0
M  V30 6933 C 635.551 1.16701 -5.18222 0
M  V30 6934 C 634.59 0.376201 -6.10943 0
M  V30 6935 N 633.727 1.28113 -6.90313 0
M  V30 6936 H 638.567 -0.71559 -2.89281 0
M  V30 6937 H 636.104 -0.364645 -1.42509 0
M  V30 6938 H 638.062 1.5649 -3.86739 0
M  V30 6939 H 636.692 1.7133 -2.7358 0
M  V30 6940 H 635.744 -0.472377 -3.77456 0
M  V30 6941 H 637.056 -0.401103 -4.97185 0
M  V30 6942 H 636.21 1.8074 -5.79153 0
M  V30 6943 H 634.949 1.81577 -4.52638 0
M  V30 6944 H 633.954 -0.277534 -5.49099 0
M  V30 6945 H 635.179 -0.268178 -6.7857 0
M  V30 6946 H 633.125 1.91666 -6.27376 0
M  V30 6947 H 633.042 0.720879 -7.52555 0
M  V30 6948 H 634.31 1.90962 -7.55747 0
M  V30 6949 N 638.539 1.52521 -0.396863 0
M  V30 6950 C 639.955 1.5953 -0.0471659 0
M  V30 6951 C 640.155 1.41044 1.43906 0
M  V30 6952 O 639.211 1.23122 2.20448 0
M  V30 6953 C 640.524 2.95972 -0.531113 0
M  V30 6954 C 642.072 3.09172 -0.488024 0
M  V30 6955 C 642.547 4.48075 -0.948281 0
M  V30 6956 N 644.038 4.54281 -0.9046 0
M  V30 6957 C 644.773 5.60007 -1.23205 0
M  V30 6958 N 644.269 6.73343 -1.63036 0
M  V30 6959 N 646.062 5.50151 -1.15282 0
M  V30 6960 H 638.213 1.62786 -1.36435 0
M  V30 6961 H 640.476 0.76514 -0.559701 0
M  V30 6962 H 640.182 3.14741 -1.56942 0
M  V30 6963 H 640.056 3.77143 0.0657922 0
M  V30 6964 H 642.443 2.90095 0.541211 0
M  V30 6965 H 642.524 2.29937 -1.12083 0
M  V30 6966 H 642.168 4.67894 -1.97578 0
M  V30 6967 H 642.098 5.25788 -0.292412 0
M  V30 6968 H 644.589 3.72918 -0.6116 0
M  V30 6969 H 644.902 7.49992 -1.86365 0
M  V30 6970 H 643.247 6.74655 -1.66929 0
M  V30 6971 H 646.438 4.6049 -0.840602 0
M  V30 6972 H 646.611 6.32444 -1.41133 0
M  V30 6973 N 640.017 0.126909 1.57088 0
M  V30 6974 C 640.949 -0.850973 2.12817 0
M  V30 6975 C 641.962 -1.22457 1.07276 0
M  V30 6976 O 643.151 -1.17215 1.34622 0
M  V30 6977 C 640.251 -2.15039 2.61938 0
M  V30 6978 C 639.424 -1.94726 3.91664 0
M  V30 6979 C 638.483 -3.0847 4.26301 0
M  V30 6980 O 637.509 -2.81038 4.94981 0
M  V30 6981 N 638.711 -4.35116 3.84259 0
M  V30 6982 H 641.476 -0.3748 2.97347 0
M  V30 6983 H 639.037 -0.0572793 1.61799 0
M  V30 6984 H 641.029 -2.90141 2.82135 0
M  V30 6985 H 639.599 -2.5398 1.82244 0
M  V30 6986 H 638.819 -1.03772 3.80296 0
M  V30 6987 H 640.107 -1.78469 4.76473 0
M  V30 6988 H 639.505 -4.60276 3.2888 0
M  V30 6989 H 638.062 -5.07064 4.09548 0
M  V30 6990 N 641.495 -1.56914 -0.146875 0
M  V30 6991 C 642.741 -1.83628 -0.860741 0
M  V30 6992 C 643.074 -0.708528 -1.80813 0
M  V30 6993 O 642.349 0.287838 -1.92358 0
M  V30 6994 C 642.632 -3.20836 -1.63511 0
M  V30 6995 C 642.485 -4.44174 -0.709199 0
M  V30 6996 C 643.804 -3.55268 -2.59756 0
M  V30 6997 H 640.923 -0.667949 -0.311468 0
M  V30 6998 H 643.565 -1.89582 -0.125936 0
M  V30 6999 H 641.715 -3.15891 -2.26153 0
M  V30 7000 H 643.387 -4.61205 -0.0937781 0
M  V30 7001 H 641.63 -4.33796 -0.0187856 0
M  V30 7002 H 642.301 -5.36785 -1.28707 0
M  V30 7003 H 644.777 -3.60824 -2.07232 0
M  V30 7004 H 643.653 -4.52303 -3.10987 0
M  V30 7005 H 643.914 -2.81231 -3.41118 0
M  V30 7006 N 642.974 0.416227 -1.52004 0
M  V30 7007 C 643.906 1.52552 -1.71058 0
M  V30 7008 C 644.919 1.51693 -0.59102 0
M  V30 7009 O 646.108 1.56087 -0.865973 0
M  V30 7010 C 643.208 2.91455 -1.72937 0
M  V30 7011 C 642.381 3.16584 -3.01816 0
M  V30 7012 C 641.44 4.35322 -2.95603 0
M  V30 7013 O 640.466 4.32947 -3.6952 0
M  V30 7014 N 641.668 5.40049 -2.12903 0
M  V30 7015 H 644.433 1.36604 -2.66757 0
M  V30 7016 H 641.994 0.60544 -1.50153 0
M  V30 7017 H 643.986 3.68944 -1.66321 0
M  V30 7018 H 642.556 3.00895 -0.847418 0
M  V30 7019 H 641.776 2.27203 -3.22137 0
M  V30 7020 H 643.064 3.30213 -3.87088 0
M  V30 7021 H 642.462 5.44823 -1.52265 0
M  V30 7022 H 641.019 6.16308 -2.1215 0
M  V30 7023 N 644.452 1.42507 0.673017 0
M  V30 7024 C 645.4 1.46362 1.80779 0
M  V30 7025 C 646.394 0.339166 1.6597 0
M  V30 7026 O 647.6 0.512262 1.72557 0
M  V30 7027 H 643.975 0.458433 0.596107 0
M  V30 7028 H 645.946 2.41953 1.74646 0
M  V30 7029 C 644.695 1.38462 3.18941 0
M  V30 7030 H 644.018 2.24283 3.30964 0
M  V30 7031 H 645.458 1.45221 3.98355 0
M  V30 7032 C 643.917 0.0996354 3.36753 0
M  V30 7033 O 644.447 -0.846894 3.92671 0
M  V30 7034 N 642.653 0.016211 2.90595 0
M  V30 7035 H 642.2 0.78725 2.45276 0
M  V30 7036 H 642.158 -0.84291 3.0289 0
M  V30 7037 N 645.93 -0.909495 1.28709 0
M  V30 7038 C 646.86 -2.0291 1.15542 0
M  V30 7039 C 647.841 -1.7002 0.0521017 0
M  V30 7040 O 649.026 -1.92835 0.229849 0
M  V30 7041 C 646.156 -3.37458 0.820935 0
M  V30 7042 C 645.11 -3.84524 1.87949 0
M  V30 7043 C 644.436 -5.16086 1.39854 0
M  V30 7044 C 645.736 -4.05918 3.28676 0
M  V30 7045 H 647.43 -2.14183 2.09203 0
M  V30 7046 H 644.976 -1.02913 1.00722 0
M  V30 7047 H 646.929 -4.1528 0.715571 0
M  V30 7048 H 645.653 -3.26249 -0.151374 0
M  V30 7049 H 644.312 -3.08911 1.97408 0
M  V30 7050 H 643.96 -5.01284 0.41518 0
M  V30 7051 H 643.66 -5.48547 2.1064 0
M  V30 7052 H 645.184 -5.96459 1.30649 0
M  V30 7053 H 646.598 -4.74252 3.22115 0
M  V30 7054 H 644.995 -4.49717 3.97334 0
M  V30 7055 H 646.065 -3.10583 3.72379 0
M  V30 7056 N 647.408 -1.11026 -1.11852 0
M  V30 7057 C 648.654 -0.857729 -1.83768 0
M  V30 7058 C 648.987 0.615143 -1.842 0
M  V30 7059 O 648.262 1.45391 -1.29196 0
M  V30 7060 C 648.545 -1.41453 -3.31154 0
M  V30 7061 C 648.398 -2.95471 -3.39142 0
M  V30 7062 C 649.717 -1.0619 -4.27097 0
M  V30 7063 H 646.836 -0.313044 -0.667212 0
M  V30 7064 H 649.478 -1.37443 -1.31185 0
M  V30 7065 H 647.628 -0.975052 -3.76065 0
M  V30 7066 H 649.3 -3.4799 -3.02821 0
M  V30 7067 H 647.543 -3.31759 -2.79497 0
M  V30 7068 H 648.214 -3.29515 -4.42859 0
M  V30 7069 H 650.69 -1.44122 -3.90344 0
M  V30 7070 H 649.566 -1.47832 -5.28618 0
M  V30 7071 H 649.827 0.0278912 -4.42091 0
M  V30 7072 N 648.886 1.2938 -0.899927 0
M  V30 7073 C 649.834 2.29675 -0.367698 0
M  V30 7074 C 650.828 1.60787 0.533282 0
M  V30 7075 O 652.034 1.75126 0.416058 0
M  V30 7076 H 648.409 0.745284 -0.100279 0
M  V30 7077 H 650.38 2.72008 -1.22696 0
M  V30 7078 C 649.129 3.45512 0.389483 0
M  V30 7079 H 648.452 3.98713 -0.294575 0
M  V30 7080 H 649.892 4.17725 0.726744 0
M  V30 7081 C 648.351 2.969 1.59223 0
M  V30 7082 O 648.881 2.98195 2.69152 0
M  V30 7083 N 647.087 2.52728 1.43447 0
M  V30 7084 H 646.634 2.51873 0.540148 0
M  V30 7085 H 646.592 2.20561 2.24054 0
M  V30 7086 N 650.364 0.662433 1.43002 0
M  V30 7087 C 651.311 -0.0235324 2.30788 0
M  V30 7088 C 652.281 -0.805342 1.4527 0
M  V30 7089 O 653.466 -0.78009 1.74124 0
M  V30 7090 C 650.606 -0.977545 3.30965 0
M  V30 7091 C 649.719 -0.190865 4.31578 0
M  V30 7092 C 648.854 -1.13951 5.18834 0
M  V30 7093 C 647.893 -0.343796 6.11134 0
M  V30 7094 N 647.03 -1.2445 6.90982 0
M  V30 7095 H 651.87 0.730921 2.88897 0
M  V30 7096 H 649.407 0.372197 1.42313 0
M  V30 7097 H 651.365 -1.54437 3.87563 0
M  V30 7098 H 649.995 -1.69877 2.74484 0
M  V30 7099 H 649.047 0.492388 3.772 0
M  V30 7100 H 650.359 0.427464 4.96965 0
M  V30 7101 H 649.513 -1.77666 5.80103 0
M  V30 7102 H 648.252 -1.79174 4.53595 0
M  V30 7103 H 647.257 0.30665 5.48944 0
M  V30 7104 H 648.482 0.304161 6.78419 0
M  V30 7105 H 646.428 -1.88336 6.28383 0
M  V30 7106 H 646.345 -0.680959 7.52927 0
M  V30 7107 H 647.613 -1.86952 7.56749 0
M  V30 7108 N 651.842 -1.52309 0.404946 0
M  V30 7109 C 653.067 -2.06666 -0.1743 0
M  V30 7110 C 653.492 -1.27341 -1.38441 0
M  V30 7111 O 652.85 -0.302539 -1.78758 0
M  V30 7112 C 652.898 -3.57014 -0.507262 0
M  V30 7113 O 652.002 -3.80144 -1.59889 0
M  V30 7114 H 651.343 -0.663807 -0.0160273 0
M  V30 7115 H 653.873 -1.96297 0.576937 0
M  V30 7116 H 653.883 -4.00724 -0.767098 0
M  V30 7117 H 652.558 -4.14184 0.377368 0
M  V30 7118 H 651.135 -3.48316 -1.33155 0
M  V30 7119 N 653.32 -0.135238 -1.57019 0
M  V30 7120 C 654.267 0.808908 -2.1616 0
M  V30 7121 C 655.237 1.25234 -1.09113 0
M  V30 7122 O 656.422 1.32697 -1.37099 0
M  V30 7123 C 653.562 2.04729 -2.77813 0
M  V30 7124 C 652.675 1.65074 -3.99218 0
M  V30 7125 C 651.81 2.84002 -4.48906 0
M  V30 7126 C 650.849 2.40663 -5.62803 0
M  V30 7127 N 649.986 3.5256 -6.07162 0
M  V30 7128 H 654.826 0.297751 -2.96509 0
M  V30 7129 H 652.363 0.135264 -1.46477 0
M  V30 7130 H 654.321 2.7731 -3.11697 0
M  V30 7131 H 652.951 2.53275 -2.00128 0
M  V30 7132 H 652.003 0.823029 -3.7139 0
M  V30 7133 H 653.315 1.29236 -4.81767 0
M  V30 7134 H 652.469 3.64788 -4.84783 0
M  V30 7135 H 651.208 3.23076 -3.65339 0
M  V30 7136 H 650.213 1.58314 -5.26514 0
M  V30 7137 H 651.438 2.02687 -6.48147 0
M  V30 7138 H 649.384 3.91278 -5.26534 0
M  V30 7139 H 649.301 3.20699 -6.84608 0
M  V30 7140 H 650.569 4.33738 -6.47682 0
M  V30 7141 N 654.798 1.5699 0.138552 0
M  V30 7142 C 655.745 1.98899 1.17081 0
M  V30 7143 C 656.715 0.857922 1.42228 0
M  V30 7144 O 657.9 1.12065 1.54422 0
M  V30 7145 C 655.04 2.38189 2.4972 0
M  V30 7146 C 654.153 3.64624 2.31674 0
M  V30 7147 C 653.288 3.9298 3.57407 0
M  V30 7148 C 652.327 5.1266 3.34435 0
M  V30 7149 N 651.464 5.36983 4.5232 0
M  V30 7150 H 656.304 2.86881 0.80642 0
M  V30 7151 H 653.841 1.41925 0.386727 0
M  V30 7152 H 655.799 2.59 3.2707 0
M  V30 7153 H 654.429 1.53275 2.84089 0
M  V30 7154 H 653.481 3.51542 1.45337 0
M  V30 7155 H 654.793 4.52131 2.10664 0
M  V30 7156 H 653.947 4.14335 4.43183 0
M  V30 7157 H 652.686 3.03912 3.8143 0
M  V30 7158 H 651.691 4.9117 2.47048 0
M  V30 7159 H 652.916 6.03288 3.11802 0
M  V30 7160 H 650.862 4.50871 4.76499 0
M  V30 7161 H 650.779 6.18775 4.34343 0
M  V30 7162 H 652.047 5.62842 5.39285 0
M  V30 7163 N 656.276 -0.40816 1.52223 0
M  V30 7164 C 657.525 -1.15212 1.65557 0
M  V30 7165 C 657.838 -1.9163 0.392096 0
M  V30 7166 O 659.044 -2.68458 0.405256 0
M  V30 7167 C 657.5 -2.09691 2.92502 0
M  V30 7168 C 657.108 -1.38785 4.25961 0
M  V30 7169 C 658.852 -2.8434 3.152 0
M  V30 7170 C 656.759 -2.31919 5.44029 0
M  V30 7171 H 655.689 -0.433776 0.616729 0
M  V30 7172 H 658.34 -0.4165 1.78711 0
M  V30 7173 H 656.722 -2.8681 2.7305 0
M  V30 7174 H 657.896 -0.670248 4.55899 0
M  V30 7175 H 656.211 -0.761741 4.09373 0
M  V30 7176 H 658.808 -3.54166 4.00587 0
M  V30 7177 H 659.151 -3.47344 2.29473 0
M  V30 7178 H 659.684 -2.14321 3.35129 0
M  V30 7179 H 656.423 -1.7356 6.32105 0
M  V30 7180 H 655.943 -3.0165 5.18428 0
M  V30 7181 H 657.622 -2.92424 5.77146 0
M  V30 7182 N 657.755 -1.42862 -0.66545 0
M  V30 7183 C 659.001 -1.44043 -1.42757 0
M  V30 7184 C 659.334 -0.0599629 -1.94107 0
M  V30 7185 O 658.609 0.917286 -1.71511 0
M  V30 7186 C 658.892 -2.47266 -2.61786 0
M  V30 7187 C 658.745 -3.94539 -2.16007 0
M  V30 7188 C 660.064 -2.47365 -3.64003 0
M  V30 7189 H 657.183 -0.524506 -0.517748 0
M  V30 7190 H 659.825 -1.74335 -0.755466 0
M  V30 7191 H 657.975 -2.21565 -3.19126 0
M  V30 7192 H 659.647 -4.31254 -1.63762 0
M  V30 7193 H 657.89 -4.07957 -1.47491 0
M  V30 7194 H 658.561 -4.62357 -3.01546 0
M  V30 7195 H 661.037 -2.70243 -3.16399 0
M  V30 7196 H 659.913 -3.21552 -4.44854 0
M  V30 7197 H 660.174 -1.50299 -4.15767 0
M  V30 7198 N 659.233 0.902656 -1.29189 0
M  V30 7199 C 660.165 2.01149 -1.09872 0
M  V30 7200 C 661.178 1.62732 -0.0471046 0
M  V30 7201 O 662.367 1.76107 -0.29132 0
M  V30 7202 C 659.467 3.32612 -0.649818 0
M  V30 7203 C 658.64 3.99574 -1.7793 0
M  V30 7204 C 657.699 5.09325 -1.32191 0
M  V30 7205 O 656.725 5.31919 -2.02611 0
M  V30 7206 N 657.927 5.80185 -0.191171 0
M  V30 7207 H 660.692 2.18276 -2.05368 0
M  V30 7208 H 658.253 1.07466 -1.2109 0
M  V30 7209 H 660.245 4.03375 -0.327199 0
M  V30 7210 H 658.815 3.11876 0.212597 0
M  V30 7211 H 658.035 3.22213 -2.27095 0
M  V30 7212 H 659.323 4.41056 -2.53668 0
M  V30 7213 H 658.721 5.64312 0.396016 0
M  V30 7214 H 657.278 6.5176 0.0721001 0
M  V30 7215 N 660.711 1.11618 1.11262 0
M  V30 7216 C 661.641 0.79846 2.19424 0
M  V30 7217 C 662.622 -0.234003 1.68483 0
M  V30 7218 O 663.807 -0.0970704 1.93957 0
M  V30 7219 C 660.937 0.242892 3.4645 0
M  V30 7220 C 659.891 1.20744 4.10615 0
M  V30 7221 C 659.217 0.512494 5.32238 0
M  V30 7222 C 660.517 2.55884 4.55325 0
M  V30 7223 H 662.211 1.70286 2.46258 0
M  V30 7224 H 659.757 0.820195 1.18359 0
M  V30 7225 H 661.71 0.00840447 4.21399 0
M  V30 7226 H 660.434 -0.696811 3.1908 0
M  V30 7227 H 659.093 1.42759 3.37662 0
M  V30 7228 H 658.741 -0.432075 5.01141 0
M  V30 7229 H 658.441 1.15583 5.7612 0
M  V30 7230 H 659.965 0.286842 6.09926 0
M  V30 7231 H 661.379 2.37946 5.21588 0
M  V30 7232 H 659.776 3.16216 5.10027 0
M  V30 7233 H 660.846 3.14968 3.68678 0
M  V30 7234 N 662.189 -1.289 0.906776 0
M  V30 7235 C 663.136 -2.2751 0.388313 0
M  V30 7236 C 664.106 -1.57301 -0.533439 0
M  V30 7237 O 665.291 -1.85243 -0.457148 0
M  V30 7238 C 662.431 -3.43091 -0.37181 0
M  V30 7239 C 661.544 -4.28066 0.581647 0
M  V30 7240 C 660.679 -5.30837 -0.19623 0
M  V30 7241 C 659.718 -6.07472 0.751294 0
M  V30 7242 N 658.855 -7.021 0.00737727 0
M  V30 7243 H 663.695 -2.71237 1.23428 0
M  V30 7244 H 661.232 -1.33397 0.619962 0
M  V30 7245 H 663.19 -4.08888 -0.828641 0
M  V30 7246 H 661.82 -3.00374 -1.18218 0
M  V30 7247 H 660.872 -3.62378 1.157 0
M  V30 7248 H 662.184 -4.81382 1.30665 0
M  V30 7249 H 661.338 -6.02485 -0.71394 0
M  V30 7250 H 660.077 -4.78272 -0.954324 0
M  V30 7251 H 659.082 -5.34682 1.28044 0
M  V30 7252 H 660.307 -6.62126 1.50883 0
M  V30 7253 H 658.253 -6.51894 -0.732854 0
M  V30 7254 H 658.17 -7.53004 0.672334 0
M  V30 7255 H 659.438 -7.77956 -0.490365 0
M  V30 7256 N 663.667 -0.670007 -1.42649 0
M  V30 7257 C 665.078 -0.268118 -1.84765 0
M  V30 7258 C 665.429 1.18877 -1.56086 0
M  V30 7259 O 664.554 1.90947 -1.01825 0
M  V30 7260 C 665.149 -0.47984 -3.35385 0
M  V30 7261 C 663.708 -0.132116 -3.76168 0
M  V30 7262 C 662.855 -0.774611 -2.66261 0
M  V30 7263 H 665.806 -0.872509 -1.32563 0
M  V30 7264 H 665.827 0.269522 -3.79544 0
M  V30 7265 H 665.339 -1.54026 -3.56227 0
M  V30 7266 H 663.44 0.92505 -3.60934 0
M  V30 7267 H 663.553 -0.569294 -4.75706 0
M  V30 7268 H 661.917 -0.206353 -2.53863 0
M  V30 7269 H 662.7 -1.83839 -2.89928 0
M  V30 7270 N 665.145 1.52092 -0.413018 0
M  V30 7271 C 666.561 1.59471 -0.0640836 0
M  V30 7272 C 666.761 1.42562 1.42402 0
M  V30 7273 O 665.817 1.25453 2.19129 0
M  V30 7274 C 667.13 2.95392 -0.562474 0
M  V30 7275 C 668.678 3.08637 -0.520788 0
M  V30 7276 C 669.153 4.47044 -0.995752 0
M  V30 7277 N 670.644 4.53296 -0.952732 0
M  V30 7278 C 671.379 5.58669 -1.29138 0
M  V30 7279 N 670.875 6.71576 -1.70168 0
M  V30 7280 N 672.668 5.48898 -1.2111 0
M  V30 7281 H 664.819 1.6133 -1.38153 0
M  V30 7282 H 667.082 0.75916 -0.567785 0
M  V30 7283 H 666.788 3.13059 -1.60271 0
M  V30 7284 H 666.662 3.77191 0.0257875 0
M  V30 7285 H 669.049 2.90652 0.510412 0
M  V30 7286 H 669.13 2.28735 -1.14515 0
M  V30 7287 H 668.774 4.65773 -2.0253 0
M  V30 7288 H 668.704 5.25448 -0.348162 0
M  V30 7289 H 671.195 3.72248 -0.651119 0
M  V30 7290 H 671.508 7.47973 -1.9431 0
M  V30 7291 H 669.853 6.72847 -1.74075 0
M  V30 7292 H 673.044 4.59573 -0.889396 0
M  V30 7293 H 673.217 6.30912 -1.47833 0
M  V30 7294 N 666.623 0.143563 1.56945 0
M  V30 7295 C 667.571 -0.814556 2.17871 0
M  V30 7296 C 668.565 -1.25778 1.13474 0
M  V30 7297 O 669.771 -1.22666 1.31731 0
M  V30 7298 H 666.146 -0.280873 0.697578 0
M  V30 7299 H 668.117 -0.276459 2.97117 0
M  V30 7300 C 666.866 -2.04503 2.81201 0
M  V30 7301 H 666.189 -1.71296 3.61245 0
M  V30 7302 H 667.629 -2.69493 3.27337 0
M  V30 7303 C 666.088 -2.85079 1.79532 0
M  V30 7304 O 666.618 -3.81306 1.26368 0
M  V30 7305 N 664.824 -2.49546 1.48913 0
M  V30 7306 H 664.371 -1.71359 1.92338 0
M  V30 7307 H 664.329 -3.03751 0.811348 0
M  V30 7308 N 668.101 -1.57061 -0.130224 0
M  V30 7309 C 669.512 -1.73539 -0.68856 0
M  V30 7310 C 669.863 -0.760554 -1.80859 0
M  V30 7311 O 668.988 0.0690796 -2.1629 0
M  V30 7312 C 669.583 -3.14666 -1.25581 0
M  V30 7313 C 668.142 -3.32689 -1.76055 0
M  V30 7314 C 667.289 -2.69436 -0.655712 0
M  V30 7315 H 670.24 -1.58412 0.0956002 0
M  V30 7316 H 670.261 -3.15595 -2.12556 0
M  V30 7317 H 669.773 -3.85593 -0.440412 0
M  V30 7318 H 667.874 -2.66786 -2.60108 0
M  V30 7319 H 667.987 -4.4077 -1.87772 0
M  V30 7320 H 666.351 -2.30362 -1.08654 0
M  V30 7321 H 667.134 -3.42979 0.14852 0
M  V30 7322 N 669.579 0.400081 -1.52437 0
M  V30 7323 C 670.856 1.15973 -1.57511 0
M  V30 7324 C 671.236 2.0798 -0.361572 0
M  V30 7325 O 670.584 2.19032 0.650929 0
M  V30 7326 C 670.794 1.92912 -2.90837 0
M  V30 7327 C 672.142 2.48662 -3.44169 0
M  V30 7328 O 673.166 2.03081 -2.92637 0
M  V30 7329 O 672.025 3.31894 -4.34176 0
M  V30 7330 H 669.119 0.530023 -0.634827 0
M  V30 7331 H 671.665 0.40613 -1.64769 0
M  V30 7332 H 670.437 1.25564 -3.70607 0
M  V30 7333 H 670.06 2.75257 -2.86913 0
M  V30 7334 N 671.057 1.43213 0.657864 0
M  V30 7335 C 672.287 1.478 1.44356 0
M  V30 7336 C 672.695 0.0930206 1.88971 0
M  V30 7337 O 672.038 -0.906089 1.59799 0
M  V30 7338 C 672.1 2.35745 2.71412 0
M  V30 7339 C 671.764 3.83359 2.48767 0
M  V30 7340 C 672.761 4.74585 2.12285 0
M  V30 7341 C 670.446 4.27799 2.63235 0
M  V30 7342 C 672.44 6.08247 1.90562 0
M  V30 7343 C 670.127 5.61516 2.41128 0
M  V30 7344 C 671.125 6.51557 2.04847 0
M  V30 7345 O 670.813 7.82802 1.82967 0
M  V30 7346 H 670.545 0.504363 0.450104 0
M  V30 7347 H 673.099 1.88572 0.814241 0
M  V30 7348 H 671.329 1.89852 3.36887 0
M  V30 7349 H 673.018 2.31589 3.33348 0
M  V30 7350 H 673.784 4.41531 2.00687 0
M  V30 7351 H 669.663 3.57993 2.90451 0
M  V30 7352 H 673.207 6.78489 1.62168 0
M  V30 7353 H 669.104 5.94139 2.52327 0
M  V30 7354 H 669.872 7.94332 1.97429 0
M  V30 7355 N 672.536 -0.895792 1.29666 0
M  V30 7356 C 673.952 -1.17726 1.07763 0
M  V30 7357 C 674.152 -2.00794 -0.168576 0
M  V30 7358 O 673.208 -2.37213 -0.865244 0
M  V30 7359 C 674.521 -1.89441 2.33522 0
M  V30 7360 C 676.069 -2.02251 2.3888 0
M  V30 7361 C 676.544 -2.77378 3.64452 0
M  V30 7362 N 678.035 -2.8493 3.65198 0
M  V30 7363 C 678.77 -3.43606 4.59045 0
M  V30 7364 N 678.266 -4.03417 5.63228 0
M  V30 7365 N 680.059 -3.41317 4.46608 0
M  V30 7366 H 672.21 -0.341652 2.09634 0
M  V30 7367 H 674.473 -0.213865 0.923561 0
M  V30 7368 H 674.179 -1.35842 3.24407 0
M  V30 7369 H 674.053 -2.89893 2.41334 0
M  V30 7370 H 676.44 -2.55025 1.4848 0
M  V30 7371 H 676.521 -1.0092 2.3505 0
M  V30 7372 H 676.165 -2.25279 4.55205 0
M  V30 7373 H 676.095 -3.79062 3.65541 0
M  V30 7374 H 678.586 -2.42453 2.89871 0
M  V30 7375 H 678.899 -4.46224 6.30955 0
M  V30 7376 H 677.244 -4.01868 5.67033 0
M  V30 7377 H 680.435 -2.93812 3.64407 0
M  V30 7378 H 680.608 -3.86751 5.1993 0
M  V30 7379 N 674.014 -1.12206 -1.10668 0
M  V30 7380 C 675.239 -0.898938 -1.86906 0
M  V30 7381 C 675.664 0.546346 -1.79991 0
M  V30 7382 O 675.022 1.38655 -1.1681 0
M  V30 7383 C 675.07 -1.37529 -3.33344 0
M  V30 7384 O 674.174 -0.55218 -4.08687 0
M  V30 7385 H 673.515 -0.323163 -0.580053 0
M  V30 7386 H 676.045 -1.49355 -1.39837 0
M  V30 7387 H 676.055 -1.3733 -3.84193 0
M  V30 7388 H 674.73 -2.42767 -3.37693 0
M  V30 7389 H 673.307 -0.620947 -3.67694 0
M  V30 7390 N 675.492 1.28418 -0.913599 0
M  V30 7391 C 676.44 2.29272 -0.392037 0
M  V30 7392 C 677.434 1.61344 0.516198 0
M  V30 7393 O 678.64 1.75557 0.39746 0
M  V30 7394 H 675.015 0.744178 -0.108178 0
M  V30 7395 H 676.986 2.70691 -1.25574 0
M  V30 7396 C 675.735 3.45905 0.352815 0
M  V30 7397 H 675.058 3.98378 -0.336848 0
M  V30 7398 H 676.498 4.18473 0.682398 0
M  V30 7399 C 674.957 2.98572 1.56065 0
M  V30 7400 O 675.487 3.01033 2.65974 0
M  V30 7401 N 673.693 2.54235 1.40759 0
M  V30 7402 H 673.24 2.52432 0.513403 0
M  V30 7403 H 673.198 2.22925 2.21702 0
M  V30 7404 N 676.97 0.677563 1.42291 0
M  V30 7405 C 677.917 0.000947061 2.308 0
M  V30 7406 C 678.887 -0.789889 1.46116 0
M  V30 7407 O 680.072 -0.761578 1.74942 0
M  V30 7408 C 677.212 -0.942387 3.31984 0
M  V30 7409 C 676.325 -0.14508 4.31756 0
M  V30 7410 C 675.46 -1.08442 5.20013 0
M  V30 7411 C 674.499 -0.278958 6.11464 0
M  V30 7412 N 673.636 -1.17115 6.92263 0
M  V30 7413 H 678.476 0.761521 2.88106 0
M  V30 7414 H 676.013 0.38727 1.41911 0
M  V30 7415 H 677.971 -1.50317 3.89179 0
M  V30 7416 H 676.601 -1.66956 2.76271 0
M  V30 7417 H 675.653 0.532368 3.76656 0
M  V30 7418 H 676.965 0.48015 4.96484 0
M  V30 7419 H 676.119 -1.71504 5.81955 0
M  V30 7420 H 674.858 -1.74353 4.55469 0
M  V30 7421 H 673.863 0.364856 5.48588 0
M  V30 7422 H 675.088 0.376099 6.78058 0
M  V30 7423 H 673.034 -1.81661 6.30345 0
M  V30 7424 H 672.951 -0.601063 7.53607 0
M  V30 7425 H 674.219 -1.78915 7.58689 0
M  V30 7426 N 678.448 -1.51871 0.421078 0
M  V30 7427 C 679.859 -1.86644 -0.0457991 0
M  V30 7428 C 680.21 -1.33919 -1.43388 0
M  V30 7429 O 679.335 -0.683316 -2.05328 0
M  V30 7430 C 679.93 -3.38681 -0.0898844 0
M  V30 7431 C 678.489 -3.73049 -0.501127 0
M  V30 7432 C 677.636 -2.75485 0.316723 0
M  V30 7433 H 680.587 -1.45327 0.637635 0
M  V30 7434 H 680.608 -3.69636 -0.902734 0
M  V30 7435 H 680.12 -3.77025 0.920513 0
M  V30 7436 H 678.221 -3.40288 -1.51773 0
M  V30 7437 H 678.334 -4.78512 -0.237217 0
M  V30 7438 H 676.698 -2.53725 -0.222663 0
M  V30 7439 H 677.481 -3.16671 1.32569 0
M  V30 7440 N 679.926 -0.151884 -1.56866 0
M  V30 7441 C 681.175 0.497992 -1.95456 0
M  V30 7442 C 681.488 1.6569 -1.03953 0
M  V30 7443 O 682.694 2.37173 -1.32142 0
M  V30 7444 C 681.15 0.93732 -3.4748 0
M  V30 7445 C 680.758 -0.194921 -4.47576 0
M  V30 7446 C 682.502 1.55671 -3.94926 0
M  V30 7447 C 680.409 0.26295 -5.90815 0
M  V30 7448 H 679.339 0.189811 -0.729717 0
M  V30 7449 H 681.99 -0.237011 -1.81963 0
M  V30 7450 H 680.372 1.72773 -3.56322 0
M  V30 7451 H 681.546 -0.971951 -4.50433 0
M  V30 7452 H 679.861 -0.72303 -4.10075 0
M  V30 7453 H 682.458 1.91099 -4.99385 0
M  V30 7454 H 682.801 2.44748 -3.36755 0
M  V30 7455 H 683.334 0.831109 -3.89021 0
M  V30 7456 H 680.073 -0.592568 -6.52816 0
M  V30 7457 H 679.593 1.00575 -5.91308 0
M  V30 7458 H 681.272 0.713333 -6.43056 0
M  V30 7459 N 681.404 1.57128 0.121893 0
M  V30 7460 C 682.653 1.83888 0.828748 0
M  V30 7461 C 682.966 0.737087 1.81181 0
M  V30 7462 O 684.172 0.891007 2.56463 0
M  V30 7463 C 682.628 3.26014 1.52455 0
M  V30 7464 C 682.236 4.44195 0.58263 0
M  V30 7465 C 683.98 3.62025 2.21671 0
M  V30 7466 C 681.887 5.77349 1.28149 0
M  V30 7467 H 680.817 0.685856 0.313238 0
M  V30 7468 H 683.468 1.83319 0.0814851 0
M  V30 7469 H 681.85 3.21044 2.31834 0
M  V30 7470 H 683.024 4.60457 -0.177729 0
M  V30 7471 H 681.339 4.164 -0.00241228 0
M  V30 7472 H 683.936 4.58776 2.74643 0
M  V30 7473 H 684.279 2.89315 2.99337 0
M  V30 7474 H 684.812 3.68767 1.49184 0
M  V30 7475 H 681.551 6.53221 0.546189 0
M  V30 7476 H 681.071 5.64978 2.01394 0
M  V30 7477 H 682.75 6.21006 1.81549 0
M  V30 7478 N 682.882 -0.391992 1.52647 0
M  V30 7479 C 683.812 -1.48517 1.8018 0
M  V30 7480 C 684.793 -1.57039 0.653667 0
M  V30 7481 O 685.978 -1.72036 0.900962 0
M  V30 7482 C 683.108 -2.86161 1.96797 0
M  V30 7483 C 682.062 -2.92481 3.12472 0
M  V30 7484 C 681.388 -4.32546 3.14338 0
M  V30 7485 C 682.688 -2.624 4.51601 0
M  V30 7486 H 684.382 -1.25726 2.71723 0
M  V30 7487 H 681.928 -0.603387 1.30749 0
M  V30 7488 H 683.881 -3.62639 2.14641 0
M  V30 7489 H 682.605 -3.10283 1.01941 0
M  V30 7490 H 681.264 -2.18451 2.94406 0
M  V30 7491 H 680.912 -4.53703 2.1717 0
M  V30 7492 H 680.612 -4.37695 3.92042 0
M  V30 7493 H 682.136 -5.10934 3.34333 0
M  V30 7494 H 683.55 -3.28596 4.69785 0
M  V30 7495 H 681.947 -2.78903 5.3135 0
M  V30 7496 H 683.017 -1.57754 4.58521 0
M  V30 7497 N 684.36 -1.4356 -0.65026 0
M  V30 7498 C 685.776 -1.27025 -0.966269 0
M  V30 7499 C 685.976 -0.192117 -2.00582 0
M  V30 7500 O 685.032 0.428459 -2.48838 0
M  V30 7501 C 686.345 -2.63556 -1.44772 0
M  V30 7502 C 687.893 -2.71111 -1.56421 0
M  V30 7503 C 688.368 -4.08067 -2.07956 0
M  V30 7504 N 689.859 -4.10146 -2.15254 0
M  V30 7505 C 690.594 -5.12952 -2.56258 0
M  V30 7506 N 690.09 -6.26129 -2.96537 0
M  V30 7507 N 691.883 -5.00306 -2.56224 0
M  V30 7508 H 684.034 -2.12367 0.0375758 0
M  V30 7509 H 686.297 -0.946894 -0.0457782 0
M  V30 7510 H 686.003 -3.43429 -0.758271 0
M  V30 7511 H 685.877 -2.89152 -2.42221 0
M  V30 7512 H 688.264 -1.91569 -2.24467 0
M  V30 7513 H 688.345 -2.49277 -0.573967 0
M  V30 7514 H 687.989 -4.88077 -1.40511 0
M  V30 7515 H 687.919 -4.27266 -3.07817 0
M  V30 7516 H 690.41 -3.28453 -1.86887 0
M  V30 7517 H 690.723 -7.00403 -3.26582 0
M  V30 7518 H 689.068 -6.29597 -2.94334 0
M  V30 7519 H 692.259 -4.10952 -2.24135 0
M  V30 7520 H 692.432 -5.80553 -2.87857 0
M  V30 7521 N 685.838 0.888903 -1.30139 0
M  V30 7522 C 686.801 1.97576 -1.16174 0
M  V30 7523 C 687.801 1.60525 -0.094086 0
M  V30 7524 O 688.991 1.70812 -0.341889 0
M  V30 7525 C 686.123 3.3188 -0.778983 0
M  V30 7526 H 687.316 2.11393 -2.12728 0
M  V30 7527 H 684.869 1.0748 -1.1348 0
M  V30 7528 H 685.604 3.23765 0.186225 0
M  V30 7529 H 685.389 3.60141 -1.55051 0
M  V30 7530 H 686.879 4.11612 -0.704631 0
M  V30 7531 N 687.317 1.12792 1.10072 0
M  V30 7532 C 688.247 0.821688 2.18565 0
M  V30 7533 C 689.228 -0.21612 1.68721 0
M  V30 7534 O 690.413 -0.0764932 1.94049 0
M  V30 7535 C 687.543 0.279624 3.46172 0
M  V30 7536 C 686.497 1.25092 4.09312 0
M  V30 7537 C 685.823 0.568916 5.31665 0
M  V30 7538 C 687.123 2.60699 4.52585 0
M  V30 7539 H 688.817 1.72888 2.44438 0
M  V30 7540 H 686.363 0.832702 1.17482 0
M  V30 7541 H 688.316 0.053099 4.21367 0
M  V30 7542 H 687.04 -0.662929 3.19801 0
M  V30 7543 H 685.699 1.46332 3.36129 0
M  V30 7544 H 685.347 -0.378898 5.01571 0
M  V30 7545 H 685.047 1.21687 5.74862 0
M  V30 7546 H 686.571 0.351517 6.09587 0
M  V30 7547 H 687.985 2.43465 5.19035 0
M  V30 7548 H 686.382 3.21608 5.06644 0
M  V30 7549 H 687.452 3.1886 3.65317 0
M  V30 7550 N 688.795 -1.27931 0.920396 0
M  V30 7551 C 690.035 -1.96459 0.564198 0
M  V30 7552 C 690.399 -1.70802 -0.876967 0
M  V30 7553 O 691.6 -2.32956 -1.34107 0
M  V30 7554 C 689.871 -3.46583 0.872641 0
M  V30 7555 S 691.43 -4.34343 0.623859 0
M  V30 7556 H 688.248 -0.679735 0.208523 0
M  V30 7557 H 690.85 -1.55319 1.18727 0
M  V30 7558 H 689.554 -3.62753 1.91933 0
M  V30 7559 H 689.085 -3.92677 0.238479 0
M  V30 7560 H 691.1 -4.93449 -0.521744 0
M  V30 7561 N 690.273 -0.685099 -1.4193 0
M  V30 7562 C 691.55 -0.140152 -1.95097 0
M  V30 7563 C 691.93 1.34745 -1.62502 0
M  V30 7564 O 691.278 2.08872 -0.926534 0
M  V30 7565 C 691.488 -0.420268 -3.4646 0
M  V30 7566 C 692.836 -0.342338 -4.23218 0
M  V30 7567 O 693.86 -0.354592 -3.54431 0
M  V30 7568 O 692.719 -0.293404 -5.45712 0
M  V30 7569 H 689.813 -0.00885998 -0.826953 0
M  V30 7570 H 692.359 -0.760539 -1.51703 0
M  V30 7571 H 691.131 -1.45037 -3.63428 0
M  V30 7572 H 690.754 0.231616 -3.96925 0
M  V30 7573 N 691.751 1.51645 -0.429126 0
M  V30 7574 C 692.981 2.06133 0.138793 0
M  V30 7575 C 693.389 1.29735 1.37716 0
M  V30 7576 O 692.732 0.347955 1.80375 0
M  V30 7577 C 692.794 3.55504 0.534493 0
M  V30 7578 C 692.458 4.53098 -0.595917 0
M  V30 7579 C 693.455 4.98815 -1.46558 0
M  V30 7580 C 691.14 4.96296 -0.774309 0
M  V30 7581 C 693.134 5.86394 -2.4984 0
M  V30 7582 C 690.821 5.83667 -1.81042 0
M  V30 7583 C 691.819 6.28613 -2.67086 0
M  V30 7584 O 691.507 7.14251 -3.68919 0
M  V30 7585 H 691.239 0.675833 0.0150263 0
M  V30 7586 H 693.793 1.96301 -0.604584 0
M  V30 7587 H 692.023 3.63092 1.33045 0
M  V30 7588 H 693.712 3.92545 1.03262 0
M  V30 7589 H 694.478 4.66143 -1.33925 0
M  V30 7590 H 690.357 4.60859 -0.114178 0
M  V30 7591 H 693.901 6.21398 -3.17034 0
M  V30 7592 H 689.798 6.15753 -1.93698 0
M  V30 7593 H 690.566 7.3241 -3.65402 0
M  V30 7594 N 693.229 0.160201 1.56784 0
M  V30 7595 C 694.176 -0.774416 2.1742 0
M  V30 7596 C 695.146 -1.23483 1.11091 0
M  V30 7597 O 696.331 -1.30499 1.39193 0
M  V30 7598 C 693.471 -2.00283 2.81035 0
M  V30 7599 C 692.584 -1.58701 4.01793 0
M  V30 7600 C 691.719 -2.76824 4.53367 0
M  V30 7601 C 690.758 -2.31679 5.66561 0
M  V30 7602 N 689.895 -3.42856 6.12694 0
M  V30 7603 H 694.735 -0.250542 2.96945 0
M  V30 7604 H 692.272 -0.111943 1.46673 0
M  V30 7605 H 694.23 -2.72316 3.16069 0
M  V30 7606 H 692.86 -2.5006 2.04132 0
M  V30 7607 H 691.912 -0.76384 3.72652 0
M  V30 7608 H 693.224 -1.21555 4.83762 0
M  V30 7609 H 692.378 -3.57029 4.90525 0
M  V30 7610 H 691.117 -3.17223 3.70433 0
M  V30 7611 H 690.122 -1.49917 5.28966 0
M  V30 7612 H 691.347 -1.9235 6.5129 0
M  V30 7613 H 689.293 -3.82852 5.32692 0
M  V30 7614 H 689.21 -3.09767 6.89624 0
M  V30 7615 H 690.478 -4.23379 6.545 0
M  V30 7616 N 694.707 -1.5719 -0.113559 0
M  V30 7617 C 695.639 -1.97393 -1.16484 0
M  V30 7618 C 696.652 -0.873964 -1.37352 0
M  V30 7619 O 697.841 -1.15222 -1.36331 0
M  V30 7620 C 694.941 -2.26174 -2.52386 0
M  V30 7621 C 694.114 -3.57479 -2.52046 0
M  V30 7622 C 693.173 -3.74409 -3.69735 0
M  V30 7623 O 692.199 -4.46463 -3.53071 0
M  V30 7624 N 693.401 -3.13588 -4.88511 0
M  V30 7625 H 696.166 -2.88184 -0.822814 0
M  V30 7626 H 693.727 -1.59044 -0.302769 0
M  V30 7627 H 695.719 -2.3471 -3.29687 0
M  V30 7628 H 694.289 -1.41483 -2.7875 0
M  V30 7629 H 693.509 -3.60081 -1.60421 0
M  V30 7630 H 694.797 -4.43775 -2.48881 0
M  V30 7631 H 694.195 -2.55026 -5.04953 0
M  V30 7632 H 692.752 -3.27637 -5.63469 0
M  V30 7633 N 696.185 0.383891 -1.52853 0
M  V30 7634 C 697.462 1.14296 -1.58732 0
M  V30 7635 C 697.842 2.07585 -0.383611 0
M  V30 7636 O 697.19 2.1971 0.627661 0
M  V30 7637 C 697.4 1.89816 -2.92867 0
M  V30 7638 C 698.748 2.44998 -3.46787 0
M  V30 7639 O 699.772 1.99966 -2.94774 0
M  V30 7640 O 698.631 3.2727 -4.37672 0
M  V30 7641 H 695.725 0.52326 -0.640413 0
M  V30 7642 H 698.271 0.388631 -1.6519 0
M  V30 7643 H 697.043 1.21626 -3.71918 0
M  V30 7644 H 696.666 2.72199 -2.89816 0
M  V30 7645 N 697.663 1.43903 0.642637 0
M  V30 7646 C 698.595 1.45857 1.768 0
M  V30 7647 C 699.608 0.353358 1.58919 0
M  V30 7648 O 700.797 0.618426 1.67445 0
M  V30 7649 C 697.897 1.26583 3.14372 0
M  V30 7650 C 697.07 2.50139 3.58817 0
M  V30 7651 C 696.129 2.25933 4.75227 0
M  V30 7652 O 695.155 2.99351 4.84125 0
M  V30 7653 N 696.357 1.28263 5.66153 0
M  V30 7654 H 699.122 2.42869 1.75598 0
M  V30 7655 H 696.683 1.39194 0.826832 0
M  V30 7656 H 698.675 1.08255 3.89953 0
M  V30 7657 H 697.245 0.37978 3.10284 0
M  V30 7658 H 696.465 2.83821 2.73568 0
M  V30 7659 H 697.753 3.32344 3.8526 0
M  V30 7660 H 697.151 0.676041 5.61646 0
M  V30 7661 H 695.708 1.15916 6.4141 0
M  V30 7662 N 699.141 -0.881989 1.30609 0
M  V30 7663 C 700.088 -1.98803 1.17244 0
M  V30 7664 C 701.058 -1.65987 0.0611905 0
M  V30 7665 O 702.243 -1.89385 0.231911 0
M  V30 7666 C 699.383 -3.33867 0.87333 0
M  V30 7667 C 698.496 -3.79354 2.06675 0
M  V30 7668 C 697.631 -5.03078 1.70547 0
M  V30 7669 C 696.67 -5.40981 2.86366 0
M  V30 7670 N 695.807 -6.55886 2.50514 0
M  V30 7671 H 700.647 -2.09566 2.11863 0
M  V30 7672 H 698.184 -1.02607 1.05405 0
M  V30 7673 H 700.142 -4.11612 0.680519 0
M  V30 7674 H 698.772 -3.2278 -0.0359983 0
M  V30 7675 H 697.824 -2.97492 2.37071 0
M  V30 7676 H 699.136 -4.03382 2.93401 0
M  V30 7677 H 698.29 -5.88457 1.47658 0
M  V30 7678 H 697.029 -4.80927 0.809947 0
M  V30 7679 H 696.034 -4.54127 3.09917 0
M  V30 7680 H 697.259 -5.65104 3.76609 0
M  V30 7681 H 695.205 -6.35306 1.63471 0
M  V30 7682 H 695.122 -6.79799 3.30771 0
M  V30 7683 H 696.39 -7.44489 2.30989 0
M  V30 7684 N 700.619 -1.13374 -1.09472 0
M  V30 7685 C 701.868 -0.889844 -1.8101 0
M  V30 7686 C 702.181 0.585686 -1.86625 0
M  V30 7687 O 703.387 0.946497 -2.54467 0
M  V30 7688 C 701.843 -1.54241 -3.25174 0
M  V30 7689 C 701.451 -3.05343 -3.27826 0
M  V30 7690 C 703.195 -1.37919 -4.0147 0
M  V30 7691 C 701.102 -3.63486 -4.6651 0
M  V30 7692 H 700.032 -0.329256 -0.678311 0
M  V30 7693 H 702.683 -1.36139 -1.23038 0
M  V30 7694 H 701.065 -0.998525 -3.83204 0
M  V30 7695 H 702.239 -3.66307 -2.79563 0
M  V30 7696 H 700.554 -3.21175 -2.65019 0
M  V30 7697 H 703.151 -1.78771 -5.03929 0
M  V30 7698 H 703.494 -0.323987 -4.15037 0
M  V30 7699 H 704.027 -1.89284 -3.49881 0
M  V30 7700 H 700.766 -4.68811 -4.58145 0
M  V30 7701 H 700.286 -3.073 -5.15099 0
M  V30 7702 H 701.965 -3.63134 -5.35484 0
M  V30 7703 N 702.098 1.27442 -0.927168 0
M  V30 7704 C 703.344 1.94679 -0.568164 0
M  V30 7705 C 703.677 1.72697 0.888219 0
M  V30 7706 O 702.952 1.05573 1.63354 0
M  V30 7707 C 703.235 3.4882 -0.894253 0
M  V30 7708 C 703.088 3.80146 -2.40435 0
M  V30 7709 C 704.407 4.38281 -0.399766 0
M  V30 7710 H 701.526 0.707071 -0.207892 0
M  V30 7711 H 704.168 1.50568 -1.15885 0
M  V30 7712 H 702.318 3.86522 -0.391566 0
M  V30 7713 H 703.99 3.52238 -2.97869 0
M  V30 7714 H 702.233 3.26716 -2.85375 0
M  V30 7715 H 702.904 4.87835 -2.58304 0
M  V30 7716 H 705.38 4.07726 -0.83058 0
M  V30 7717 H 704.256 5.44955 -0.656885 0
M  V30 7718 H 704.517 4.36521 0.700153 0
M  V30 7719 N 703.576 0.692616 1.41565 0
M  V30 7720 C 704.526 0.00231847 2.28 0
M  V30 7721 C 705.51 -0.755793 1.42044 0
M  V30 7722 O 706.702 -0.631772 1.65341 0
M  V30 7723 C 703.831 -0.935468 3.30309 0
M  V30 7724 C 702.917 -0.173761 4.23744 0
M  V30 7725 N 703.308 0.830872 4.98929 0
M  V30 7726 C 701.606 -0.409666 4.44115 0
M  V30 7727 C 702.307 1.28656 5.67294 0
M  V30 7728 N 701.283 0.613053 5.40132 0
M  V30 7729 H 705.085 0.772635 2.83562 0
M  V30 7730 H 702.599 0.523198 1.53741 0
M  V30 7731 H 704.596 -1.44513 3.91052 0
M  V30 7732 H 703.256 -1.70542 2.76307 0
M  V30 7733 H 704.267 1.21101 5.03542 0
M  V30 7734 H 700.944 -1.15773 4.01127 0
M  V30 7735 H 702.334 2.12006 6.37576 0
M  V30 7736 N 705.054 -1.51416 0.437162 0
M  V30 7737 C 706.001 -2.27743 -0.374374 0
M  V30 7738 C 706.971 -1.31327 -1.01698 0
M  V30 7739 O 708.156 -1.60229 -1.03592 0
M  V30 7740 C 705.296 -3.12241 -1.46969 0
M  V30 7741 C 704.409 -4.23651 -0.845236 0
M  V30 7742 C 703.544 -4.95458 -1.91559 0
M  V30 7743 C 702.583 -5.98789 -1.26956 0
M  V30 7744 N 701.72 -6.64005 -2.28126 0
M  V30 7745 H 706.56 -2.96654 0.282892 0
M  V30 7746 H 704.097 -1.46319 0.151352 0
M  V30 7747 H 706.055 -3.59556 -2.11602 0
M  V30 7748 H 704.685 -2.45445 -2.09659 0
M  V30 7749 H 703.737 -3.803 -0.0872059 0
M  V30 7750 H 705.049 -4.97683 -0.333582 0
M  V30 7751 H 704.203 -5.46321 -2.63854 0
M  V30 7752 H 702.942 -4.21055 -2.46097 0
M  V30 7753 H 701.947 -5.47219 -0.53207 0
M  V30 7754 H 703.172 -6.75149 -0.731509 0
M  V30 7755 H 701.118 -5.92415 -2.81745 0
M  V30 7756 H 701.035 -7.33802 -1.81852 0
M  V30 7757 H 702.303 -7.19498 -2.99905 0
M  V30 7758 N 706.532 -0.168513 -1.56696 0
M  V30 7759 C 707.78 0.476216 -1.96409 0
M  V30 7760 C 708.101 1.63968 -1.05544 0
M  V30 7761 O 707.371 1.95525 -0.121235 0
M  V30 7762 H 705.951 0.178921 -0.725256 0
M  V30 7763 H 708.613 -0.249042 -1.93302 0
M  V30 7764 H 707.709 0.838094 -3.00637 0
M  V30 7765 N 708.01 1.57248 0.105221 0
M  V30 7766 C 709.287 1.76566 0.841647 0
M  V30 7767 C 709.667 0.747566 1.9742 0
M  V30 7768 O 709.015 -0.225886 2.27381 0
M  V30 7769 C 709.225 3.22016 1.3456 0
M  V30 7770 C 710.573 3.84911 1.79244 0
M  V30 7771 O 711.597 3.25703 1.44207 0
M  V30 7772 O 710.456 4.89008 2.43995 0
M  V30 7773 H 707.55 0.723443 0.400698 0
M  V30 7774 H 710.096 1.69472 0.0878893 0
M  V30 7775 H 708.868 3.87644 0.533685 0
M  V30 7776 H 708.491 3.33703 2.16167 0
M  V30 7777 N 709.488 -0.375779 1.53054 0
M  V30 7778 C 710.398 -1.48381 1.81715 0
M  V30 7779 C 711.414 -1.59087 0.704795 0
M  V30 7780 O 712.59 -1.75174 0.993785 0
M  V30 7781 C 709.655 -2.83767 1.99192 0
M  V30 7782 C 708.716 -2.82673 3.23102 0
M  V30 7783 C 707.949 -4.11601 3.39736 0
M  V30 7784 O 708.172 -5.07243 2.60885 0
M  V30 7785 O 707.106 -4.18034 4.33049 0
M  V30 7786 H 710.932 -1.27089 2.7583 0
M  V30 7787 H 708.517 -0.564902 1.38308 0
M  V30 7788 H 710.399 -3.64004 2.12318 0
M  V30 7789 H 709.074 -3.05057 1.08267 0
M  V30 7790 H 707.981 -2.0117 3.15407 0
M  V30 7791 H 709.314 -2.66335 4.13916 0
M  V30 7792 N 710.966 -1.44241 -0.634997 0
M  V30 7793 C 712.206 -1.48339 -1.40623 0
M  V30 7794 C 712.57 -0.111479 -1.91676 0
M  V30 7795 O 713.771 -0.0271345 -2.68786 0
M  V30 7796 C 712.042 -2.51122 -2.54308 0
M  V30 7797 S 713.601 -2.74237 -3.42548 0
M  V30 7798 H 710.419 -0.524715 -0.479787 0
M  V30 7799 H 713.021 -1.81138 -0.735489 0
M  V30 7800 H 711.725 -3.49511 -2.15106 0
M  V30 7801 H 711.256 -2.19883 -3.26213 0
M  V30 7802 H 713.271 -2.0554 -4.51628 0
M  V30 7803 N 712.444 0.87505 -1.31075 0
M  V30 7804 C 713.693 1.62245 -1.19831 0
M  V30 7805 C 714.006 1.94078 0.24357 0
M  V30 7806 O 715.212 2.67265 0.477646 0
M  V30 7807 C 713.668 2.92464 -2.09744 0
M  V30 7808 C 713.276 2.68134 -3.58898 0
M  V30 7809 C 715.02 3.70449 -2.07287 0
M  V30 7810 C 712.927 3.9423 -4.40836 0
M  V30 7811 H 711.857 0.608741 -0.444916 0
M  V30 7812 H 714.508 0.967947 -1.55894 0
M  V30 7813 H 712.89 3.59262 -1.66574 0
M  V30 7814 H 714.064 2.09776 -4.10281 0
M  V30 7815 H 712.379 2.03511 -3.6328 0
M  V30 7816 H 714.976 4.63983 -2.65752 0
M  V30 7817 H 715.319 4.02611 -1.05876 0
M  V30 7818 H 715.852 3.10528 -2.48631 0
M  V30 7819 H 712.591 3.67221 -5.42982 0
M  V30 7820 H 712.111 4.52058 -3.94213 0
M  V30 7821 H 713.79 4.62162 -4.52786 0
M  V30 7822 N 713.922 1.13953 1.08869 0
M  V30 7823 C 714.852 0.844824 2.17681 0
M  V30 7824 C 715.833 -0.198213 1.68941 0
M  V30 7825 O 717.018 -0.0559073 1.9412 0
M  V30 7826 C 714.148 0.316325 3.45856 0
M  V30 7827 C 713.102 1.29426 4.07962 0
M  V30 7828 C 712.428 0.625275 5.31031 0
M  V30 7829 C 713.728 2.65484 4.49795 0
M  V30 7830 H 715.422 1.75471 2.42591 0
M  V30 7831 H 712.968 0.845116 1.16592 0
M  V30 7832 H 714.921 0.0977876 4.21287 0
M  V30 7833 H 713.645 -0.628972 3.20486 0
M  V30 7834 H 712.304 1.49889 3.34558 0
M  V30 7835 H 711.952 -0.325678 5.01945 0
M  V30 7836 H 711.652 1.27777 5.73539 0
M  V30 7837 H 713.176 0.416152 6.0918 0
M  V30 7838 H 714.59 2.48957 5.16424 0
M  V30 7839 H 712.987 3.26963 5.03205 0
M  V30 7840 H 714.057 3.22717 3.61914 0
M  V30 7841 N 715.4 -1.26948 0.933913 0
M  V30 7842 C 716.347 -2.26635 0.436484 0
M  V30 7843 C 717.317 -1.58397 -0.499953 0
M  V30 7844 O 718.502 -1.86171 -0.417753 0
M  V30 7845 C 715.642 -3.43803 -0.298951 0
M  V30 7846 C 714.755 -4.26736 0.672316 0
M  V30 7847 C 713.89 -5.31134 -0.0835872 0
M  V30 7848 C 712.929 -6.05742 0.879979 0
M  V30 7849 N 712.066 -7.01926 0.156301 0
M  V30 7850 H 716.906 -2.68558 1.29154 0
M  V30 7851 H 714.443 -1.32052 0.648118 0
M  V30 7852 H 716.401 -4.10554 -0.741723 0
M  V30 7853 H 715.031 -3.02814 -1.1182 0
M  V30 7854 H 714.083 -3.59842 1.23361 0
M  V30 7855 H 715.395 -4.78502 1.40846 0
M  V30 7856 H 714.549 -6.03863 -0.585984 0
M  V30 7857 H 713.288 -4.80188 -0.852661 0
M  V30 7858 H 712.293 -5.31846 1.39357 0
M  V30 7859 H 713.518 -6.58777 1.64894 0
M  V30 7860 H 711.464 -6.53301 -0.594413 0
M  V30 7861 H 711.381 -7.51409 0.831906 0
M  V30 7862 H 712.649 -7.78821 -0.325239 0
M  V30 7863 N 716.879 -0.700114 -1.41195 0
M  V30 7864 C 718.156 -0.160836 -1.94938 0
M  V30 7865 C 718.536 1.33014 -1.63922 0
M  V30 7866 O 717.884 2.07878 -0.948636 0
M  V30 7867 C 718.094 -0.456991 -3.45995 0
M  V30 7868 C 719.442 -0.387207 -4.22831 0
M  V30 7869 O 720.466 -0.392164 -3.54035 0
M  V30 7870 O 719.325 -0.351267 -5.4537 0
M  V30 7871 H 716.419 -0.0176304 -0.826812 0
M  V30 7872 H 718.965 -0.776586 -1.50888 0
M  V30 7873 H 717.737 -1.48884 -3.61869 0
M  V30 7874 H 717.36 0.189503 -3.97148 0
M  V30 7875 N 718.357 1.51182 -0.445186 0
M  V30 7876 C 719.305 2.29531 0.376597 0
M  V30 7877 C 720.299 1.35711 1.01385 0
M  V30 7878 O 721.505 1.53018 0.947922 0
M  V30 7879 H 717.88 0.738803 0.140267 0
M  V30 7880 H 719.851 2.96838 -0.304958 0
M  V30 7881 C 718.6 3.1552 1.4609 0
M  V30 7882 H 717.923 3.87605 0.979912 0
M  V30 7883 H 719.363 3.73384 2.009 0
M  V30 7884 C 717.822 2.31406 2.44852 0
M  V30 7885 O 718.352 1.97912 3.49562 0
M  V30 7886 N 716.558 1.94478 2.15932 0
M  V30 7887 H 716.105 2.21917 1.30808 0
M  V30 7888 H 716.063 1.38498 2.82251 0
M  V30 7889 N 719.835 0.176821 1.56605 0
M  V30 7890 C 720.783 -0.768159 2.1955 0
M  V30 7891 C 721.777 -1.23343 1.16116 0
M  V30 7892 O 722.983 -1.19844 1.34303 0
M  V30 7893 H 719.358 -0.266013 0.703378 0
M  V30 7894 H 721.329 -0.213374 2.97636 0
M  V30 7895 C 720.078 -1.98492 2.85475 0
M  V30 7896 H 719.401 -1.63595 3.64797 0
M  V30 7897 H 720.841 -2.62489 3.3298 0
M  V30 7898 C 719.3 -2.81207 1.85538 0
M  V30 7899 O 719.83 -3.7854 1.34427 0
M  V30 7900 N 718.036 -2.46331 1.54173 0
M  V30 7901 H 717.583 -1.67241 1.95929 0
M  V30 7902 H 717.541 -3.01961 0.875595 0
M  V30 7903 N 721.313 -1.57302 -0.09688 0
M  V30 7904 C 722.223 -2.05258 -1.13606 0
M  V30 7905 C 723.239 -0.977137 -1.43972 0
M  V30 7906 O 724.415 -1.29018 -1.54649 0
M  V30 7907 C 721.48 -2.46593 -2.43706 0
M  V30 7908 C 720.541 -3.68322 -2.20538 0
M  V30 7909 C 719.774 -4.07676 -3.44435 0
M  V30 7910 O 719.997 -3.47141 -4.52603 0
M  V30 7911 O 718.931 -5.00641 -3.34129 0
M  V30 7912 H 722.757 -2.94069 -0.758752 0
M  V30 7913 H 720.342 -1.46164 -0.309263 0
M  V30 7914 H 722.224 -2.73814 -3.20318 0
M  V30 7915 H 720.899 -1.6092 -2.80867 0
M  V30 7916 H 719.806 -3.4622 -1.41713 0
M  V30 7917 H 721.139 -4.54769 -1.88271 0
M  V30 7918 N 722.791 0.367657 -1.53252 0
M  V30 7919 C 724.207 0.709191 -1.42978 0
M  V30 7920 C 724.407 1.93352 -0.567193 0
M  V30 7921 O 723.463 2.52453 -0.0488349 0
M  V30 7922 C 724.776 0.924338 -2.86141 0
M  V30 7923 C 726.324 1.02448 -2.95759 0
M  V30 7924 C 726.799 1.27211 -4.39979 0
M  V30 7925 N 728.29 1.33986 -4.43398 0
M  V30 7926 C 729.025 1.54852 -5.52095 0
M  V30 7927 N 728.521 1.73049 -6.7084 0
M  V30 7928 N 730.314 1.57205 -5.39669 0
M  V30 7929 H 722.465 -0.437669 -2.07842 0
M  V30 7930 H 724.728 -0.133737 -0.938519 0
M  V30 7931 H 724.434 0.0965455 -3.51567 0
M  V30 7932 H 724.308 1.83302 -3.29667 0
M  V30 7933 H 726.695 1.84282 -2.30487 0
M  V30 7934 H 726.776 0.0932301 -2.5563 0
M  V30 7935 H 726.42 0.458792 -5.05824 0
M  V30 7936 H 726.35 2.21654 -4.77679 0
M  V30 7937 H 728.841 1.21545 -3.5782 0
M  V30 7938 H 729.154 1.88538 -7.49449 0
M  V30 7939 H 727.499 1.70231 -6.7383 0
M  V30 7940 H 730.69 1.42555 -4.45865 0
M  V30 7941 H 730.863 1.73126 -6.24445 0
M  V30 7942 N 724.269 1.44576 0.627338 0
M  V30 7943 C 725.494 1.51271 1.41887 0
M  V30 7944 C 725.919 0.139814 1.8758 0
M  V30 7945 O 725.277 -0.871746 1.58966 0
M  V30 7946 C 725.325 2.48529 2.61277 0
M  V30 7947 O 724.429 1.98944 3.61241 0
M  V30 7948 H 723.77 0.510668 0.424399 0
M  V30 7949 H 726.3 1.89746 0.765356 0
M  V30 7950 H 726.31 2.66689 3.08773 0
M  V30 7951 H 724.985 3.48249 2.27366 0
M  V30 7952 H 723.562 1.90568 3.20528 0
M  V30 7953 N 725.747 -0.868086 1.31537 0
M  V30 7954 C 726.694 -1.97548 1.19346 0
M  V30 7955 C 727.664 -1.65913 0.0787922 0
M  V30 7956 O 728.849 -1.89129 0.251985 0
M  V30 7957 C 725.989 -3.32922 0.908692 0
M  V30 7958 C 725.102 -3.77141 2.10687 0
M  V30 7959 C 724.237 -5.01241 1.75873 0
M  V30 7960 C 723.276 -5.37914 2.92088 0
M  V30 7961 N 722.413 -6.53192 2.57457 0
M  V30 7962 H 727.253 -2.07307 2.14074 0
M  V30 7963 H 724.79 -1.01483 1.06487 0
M  V30 7964 H 726.748 -4.10867 0.724138 0
M  V30 7965 H 725.378 -3.228 -0.0017611 0
M  V30 7966 H 724.43 -2.94961 2.40213 0
M  V30 7967 H 725.742 -4.00248 2.97663 0
M  V30 7968 H 724.896 -5.86858 1.53891 0
M  V30 7969 H 723.635 -4.80041 0.86091 0
M  V30 7970 H 722.64 -4.50814 3.14717 0
M  V30 7971 H 723.865 -5.61077 3.82582 0
M  V30 7972 H 721.811 -6.33536 1.702 0
M  V30 7973 H 721.728 -6.76252 3.37963 0
M  V30 7974 H 722.996 -7.41997 2.38873 0
M  V30 7975 N 727.225 -1.14528 -1.08264 0
M  V30 7976 C 728.471 -0.925721 -1.81113 0
M  V30 7977 C 728.826 0.54185 -1.84612 0
M  V30 7978 O 728.119 1.39628 -1.31205 0
M  V30 7979 C 728.313 -1.46226 -3.26117 0
M  V30 7980 C 728.142 -2.98047 -3.36746 0
M  V30 7981 C 726.912 -3.66508 -3.4785 0
M  V30 7982 C 729.11 -3.95903 -3.28277 0
M  V30 7983 N 727.092 -5.06227 -3.47285 0
M  V30 7984 C 728.463 -5.21883 -3.34721 0
M  V30 7985 C 730.518 -3.88002 -3.12024 0
M  V30 7986 C 729.221 -6.40886 -3.26585 0
M  V30 7987 C 731.247 -5.06553 -3.05219 0
M  V30 7988 C 730.609 -6.31403 -3.12266 0
M  V30 7989 H 726.708 -0.392294 -0.676483 0
M  V30 7990 H 729.292 -1.45567 -1.293 0
M  V30 7991 H 727.463 -0.959076 -3.76373 0
M  V30 7992 H 729.195 -1.18247 -3.8704 0
M  V30 7993 H 725.95 -3.17067 -3.51804 0
M  V30 7994 H 726.374 -5.79172 -3.50555 0
M  V30 7995 H 731.016 -2.9235 -3.05436 0
M  V30 7996 H 728.734 -7.36781 -3.31934 0
M  V30 7997 H 732.32 -5.02191 -2.93761 0
M  V30 7998 H 731.2 -7.21596 -3.07032 0
M  V30 7999 N 728.703 1.26451 -0.940633 0
M  V30 8000 C 729.933 1.97581 -0.603766 0
M  V30 8001 C 730.341 1.70246 0.825395 0
M  V30 8002 O 729.684 0.967001 1.56188 0
M  V30 8003 C 729.746 3.51256 -0.765463 0
M  V30 8004 C 729.41 4.0224 -2.16915 0
M  V30 8005 C 730.407 4.1402 -3.14457 0
M  V30 8006 C 728.092 4.36263 -2.48958 0
M  V30 8007 C 730.086 4.59117 -4.42143 0
M  V30 8008 C 727.773 4.81048 -3.76877 0
M  V30 8009 C 728.771 4.92436 -4.73282 0
M  V30 8010 O 728.459 5.36234 -5.98923 0
M  V30 8011 H 728.191 0.636948 -0.226436 0
M  V30 8012 H 730.745 1.61941 -1.2635 0
M  V30 8013 H 728.975 3.86669 -0.0485956 0
M  V30 8014 H 730.664 4.03597 -0.431738 0
M  V30 8015 H 731.43 3.87981 -2.91026 0
M  V30 8016 H 727.309 4.26634 -1.74656 0
M  V30 8017 H 730.853 4.6792 -5.17394 0
M  V30 8018 H 726.75 5.06531 -4.00121 0
M  V30 8019 H 727.518 5.54456 -6.02097 0
M  V30 8020 N 730.181 0.707592 1.40822 0
M  V30 8021 C 731.427 0.244031 2.01326 0
M  V30 8022 C 731.76 -1.15722 1.55955 0
M  V30 8023 O 731.035 -1.78347 0.776044 0
M  V30 8024 C 731.318 0.315128 3.58718 0
M  V30 8025 C 731.171 1.75419 4.14184 0
M  V30 8026 C 732.49 -0.318251 4.38948 0
M  V30 8027 H 729.609 0.0901471 0.731466 0
M  V30 8028 H 732.251 0.898584 1.67408 0
M  V30 8029 H 730.401 -0.242176 3.87744 0
M  V30 8030 H 732.073 2.36626 3.95987 0
M  V30 8031 H 730.316 2.28449 3.68773 0
M  V30 8032 H 730.987 1.75538 5.23345 0
M  V30 8033 H 733.463 0.156514 4.15806 0
M  V30 8034 H 732.339 -0.238019 5.48384 0
M  V30 8035 H 732.6 -1.40067 4.19325 0
M  V30 8036 N 731.66 -1.50943 0.453197 0
M  V30 8037 C 732.888 -2.06628 -0.106135 0
M  V30 8038 C 733.303 -1.31901 -1.35084 0
M  V30 8039 O 732.66 -0.383074 -1.78434 0
M  V30 8040 C 732.711 -3.5914 -0.412368 0
M  V30 8041 O 732.432 -4.31047 0.782948 0
M  V30 8042 C 733.933 -4.31391 -1.02064 0
M  V30 8043 H 731.153 -0.670999 -0.000885896 0
M  V30 8044 H 733.697 -1.94331 0.63684 0
M  V30 8045 H 731.852 -3.71299 -1.10526 0
M  V30 8046 H 732.266 -5.21948 0.516736 0
M  V30 8047 H 733.74 -5.39135 -1.1848 0
M  V30 8048 H 734.217 -3.90714 -2.00598 0
M  V30 8049 H 734.823 -4.23716 -0.366664 0
M  V30 8050 N 733.138 -0.185124 -1.56509 0
M  V30 8051 C 734.386 0.455357 -1.96903 0
M  V30 8052 C 734.707 1.62839 -1.07277 0
M  V30 8053 O 733.977 1.95385 -0.141966 0
M  V30 8054 H 732.557 0.171218 -0.727113 0
M  V30 8055 H 735.219 -0.26953 -1.93027 0
M  V30 8056 H 734.315 0.80616 -3.01509 0
M  V30 8057 N 734.616 1.57351 0.0885366 0
M  V30 8058 C 736.027 1.75303 0.642308 0
M  V30 8059 C 736.378 0.808238 1.78779 0
M  V30 8060 O 735.503 -0.01171 2.16397 0
M  V30 8061 C 736.098 3.17885 1.17194 0
M  V30 8062 C 734.657 3.37239 1.67172 0
M  V30 8063 C 733.804 2.7108 0.584045 0
M  V30 8064 H 736.755 1.58103 -0.137567 0
M  V30 8065 H 736.776 3.2112 2.04114 0
M  V30 8066 H 736.288 3.86625 0.338024 0
M  V30 8067 H 734.389 2.73588 2.52943 0
M  V30 8068 H 734.502 4.45594 1.76019 0
M  V30 8069 H 732.866 2.33161 1.02508 0
M  V30 8070 H 733.649 3.42464 -0.239403 0
M  V30 8071 N 736.094 -0.359525 1.53444 0
M  V30 8072 C 737.342 -1.09935 1.69584 0
M  V30 8073 C 737.663 -1.89656 0.453371 0
M  V30 8074 O 736.933 -1.8852 -0.53263 0
M  V30 8075 H 735.513 -0.408843 0.625185 0
M  V30 8076 H 738.175 -0.40467 1.90653 0
M  V30 8077 H 737.271 -1.78575 2.55964 0
M  V30 8078 N 737.572 -1.44907 -0.619662 0
M  V30 8079 C 738.82 -1.47999 -1.37625 0
M  V30 8080 C 739.141 -0.118295 -1.94641 0
M  V30 8081 O 738.411 0.85086 -1.76457 0
M  V30 8082 H 736.991 -0.544993 -0.510873 0
M  V30 8083 H 739.653 -1.80772 -0.728522 0
M  V30 8084 H 738.749 -2.21196 -2.20179 0
M  V30 8085 N 739.05 0.861098 -1.31996 0
M  V30 8086 C 740.296 1.61721 -1.22369 0
M  V30 8087 C 740.629 1.93 0.215587 0
M  V30 8088 O 739.904 1.56789 1.15098 0
M  V30 8089 C 740.187 2.9417 -2.07691 0
M  V30 8090 C 740.04 2.69714 -3.59965 0
M  V30 8091 C 741.359 3.95372 -1.93312 0
M  V30 8092 H 738.478 0.586822 -0.44588 0
M  V30 8093 H 741.12 0.994788 -1.61876 0
M  V30 8094 H 739.27 3.47292 -1.74128 0
M  V30 8095 H 740.942 2.23196 -4.03709 0
M  V30 8096 H 739.185 2.03789 -3.82952 0
M  V30 8097 H 739.856 3.63996 -4.14983 0
M  V30 8098 H 742.332 3.51487 -2.22701 0
M  V30 8099 H 741.208 4.85916 -2.55298 0
M  V30 8100 H 741.469 4.32865 -0.898922 0
M  V30 8101 N 740.528 1.15101 1.07655 0
M  V30 8102 C 741.805 0.834578 1.76902 0
M  V30 8103 C 742.185 -0.670431 2.00171 0
M  V30 8104 O 741.533 -1.61378 1.6177 0
M  V30 8105 C 741.743 1.64191 3.07965 0
M  V30 8106 C 743.091 1.84615 3.82364 0
M  V30 8107 O 744.115 1.60941 3.17768 0
M  V30 8108 O 742.974 2.24244 4.98374 0
M  V30 8109 H 740.068 0.306608 0.768063 0
M  V30 8110 H 742.614 1.25663 1.14048 0
M  V30 8111 H 741.386 2.66386 2.86626 0
M  V30 8112 H 741.009 1.216 3.78549 0
M  V30 8113 N 742.006 -1.2595 0.947325 0
M  V30 8114 C 742.939 -2.24559 0.406009 0
M  V30 8115 C 743.917 -1.54441 -0.508598 0
M  V30 8116 O 745.101 -1.83181 -0.444644 0
M  V30 8117 C 742.228 -3.36136 -0.415987 0
M  V30 8118 C 741.274 -4.24245 0.437969 0
M  V30 8119 S 742.107 -5.01948 1.86572 0
M  V30 8120 C 743.263 -6.16997 1.05194 0
M  V30 8121 H 743.496 -2.70128 1.24171 0
M  V30 8122 H 741.029 -1.34912 0.750874 0
M  V30 8123 H 742.987 -4.00861 -0.88433 0
M  V30 8124 H 741.648 -2.89167 -1.22643 0
M  V30 8125 H 740.841 -5.03634 -0.192127 0
M  V30 8126 H 740.443 -3.64416 0.841235 0
M  V30 8127 H 742.735 -6.76848 0.297126 0
M  V30 8128 H 743.678 -6.84324 1.8195 0
M  V30 8129 H 744.086 -5.61458 0.585294 0
M  V30 8130 N 743.484 -0.715051 -1.40445 0
M  V30 8131 C 744.414 -0.0768699 -2.33373 0
M  V30 8132 C 745.395 0.746109 -1.52863 0
M  V30 8133 O 746.58 0.695142 -1.81332 0
M  V30 8134 C 743.71 0.846014 -3.36838 0
M  V30 8135 C 742.664 0.128694 -4.27806 0
M  V30 8136 C 741.99 1.16726 -5.21804 0
M  V30 8137 C 743.29 -1.01679 -5.12307 0
M  V30 8138 H 744.984 -0.853061 -2.8699 0
M  V30 8139 H 742.53 -0.41167 -1.3799 0
M  V30 8140 H 744.483 1.30185 -4.00786 0
M  V30 8141 H 743.207 1.6541 -2.81615 0
M  V30 8142 H 741.866 -0.307314 -3.6531 0
M  V30 8143 H 741.514 1.96838 -4.62887 0
M  V30 8144 H 741.214 0.692188 -5.83509 0
M  V30 8145 H 742.738 1.62321 -5.88629 0
M  V30 8146 H 744.152 -0.640337 -5.69713 0
M  V30 8147 H 742.549 -1.4202 -5.83053 0
M  V30 8148 H 743.619 -1.84769 -4.48317 0
M  V30 8149 N 744.962 1.50701 -0.461195 0
M  V30 8150 C 746.208 2.02566 0.0973411 0
M  V30 8151 C 746.541 1.3432 1.40257 0
M  V30 8152 O 745.816 0.465692 1.88843 0
M  V30 8153 C 746.099 3.58919 0.291423 0
M  V30 8154 C 745.952 4.37751 -1.03413 0
M  V30 8155 C 747.271 4.27379 1.05048 0
M  V30 8156 H 744.39 0.73622 0.0339026 0
M  V30 8157 H 747.032 1.80115 -0.604855 0
M  V30 8158 H 745.182 3.78179 0.889539 0
M  V30 8159 H 746.854 4.30085 -1.66806 0
M  V30 8160 H 745.097 4.01885 -1.63313 0
M  V30 8161 H 745.768 5.45384 -0.852085 0
M  V30 8162 H 748.244 4.12534 0.543603 0
M  V30 8163 H 747.12 5.36609 1.15506 0
M  V30 8164 H 747.381 3.89868 2.0846 0
M  V30 8165 N 746.441 0.193421 1.56409 0
M  V30 8166 C 747.852 -0.319471 1.83946 0
M  V30 8167 C 748.203 -1.61505 1.11403 0
M  V30 8168 O 747.328 -2.13139 0.374289 0
M  V30 8169 C 747.923 -0.586411 3.33686 0
M  V30 8170 C 746.482 -1.04368 3.61641 0
M  V30 8171 C 745.629 -0.0913834 2.77149 0
M  V30 8172 H 748.58 0.417242 1.53117 0
M  V30 8173 H 748.601 -1.43591 3.52366 0
M  V30 8174 H 748.113 0.356701 3.86457 0
M  V30 8175 H 746.214 -2.00113 3.14302 0
M  V30 8176 H 746.327 -0.937549 4.69837 0
M  V30 8177 H 744.691 -0.592954 2.47702 0
M  V30 8178 H 745.474 0.846142 3.32709 0
M  V30 8179 N 747.919 -1.57396 -0.0801906 0
M  V30 8180 C 749.144 -1.91437 -0.797909 0
M  V30 8181 C 749.569 -0.789075 -1.70749 0
M  V30 8182 O 748.927 0.25857 -1.79447 0
M  V30 8183 C 748.975 -3.24402 -1.57467 0
M  V30 8184 O 748.079 -3.13043 -2.68473 0
M  V30 8185 H 747.42 -0.627109 -0.218243 0
M  V30 8186 H 749.95 -2.04537 -0.050949 0
M  V30 8187 H 749.96 -3.58072 -1.95571 0
M  V30 8188 H 748.635 -4.05884 -0.907229 0
M  V30 8189 H 747.212 -2.90915 -2.33287 0
M  V30 8190 N 749.397 0.351382 -1.53633 0
M  V30 8191 C 750.643 1.09411 -1.70754 0
M  V30 8192 C 750.976 1.88544 -0.465293 0
M  V30 8193 O 750.251 1.86923 0.537608 0
M  V30 8194 C 750.534 2.04173 -2.96623 0
M  V30 8195 C 750.387 1.28556 -4.31038 0
M  V30 8196 C 751.706 3.04102 -3.18136 0
M  V30 8197 H 748.825 0.396373 -0.621335 0
M  V30 8198 H 751.467 0.373464 -1.86293 0
M  V30 8199 H 749.617 2.65625 -2.83506 0
M  V30 8200 H 751.289 0.697786 -4.55992 0
M  V30 8201 H 749.532 0.587498 -4.29803 0
M  V30 8202 H 750.203 1.97989 -5.15271 0
M  V30 8203 H 752.679 2.5276 -3.30532 0
M  V30 8204 H 751.555 3.67616 -4.07615 0
M  V30 8205 H 751.816 3.75053 -2.34068 0
M  V30 8206 N 750.875 1.45233 0.611969 0
M  V30 8207 C 752.123 1.48727 1.36838 0
M  V30 8208 C 752.444 0.128616 1.94575 0
M  V30 8209 O 751.714 -0.84149 1.76906 0
M  V30 8210 H 750.294 0.547695 0.507976 0
M  V30 8211 H 752.956 1.81156 0.718925 0
M  V30 8212 H 752.052 2.2236 2.19003 0
M  V30 8213 N 752.353 -0.854086 1.3245 0
M  V30 8214 C 753.283 -1.97827 1.24044 0
M  V30 8215 C 754.264 -1.69646 0.124166 0
M  V30 8216 O 755.449 -1.91687 0.31143 0
M  V30 8217 C 752.579 -3.33673 0.963324 0
M  V30 8218 C 751.533 -3.76207 2.04089 0
M  V30 8219 C 750.859 -5.0969 1.61618 0
M  V30 8220 C 752.159 -3.91612 3.45597 0
M  V30 8221 H 753.853 -2.05118 2.18099 0
M  V30 8222 H 751.399 -0.985489 1.04996 0
M  V30 8223 H 753.352 -4.11871 0.891061 0
M  V30 8224 H 752.076 -3.26597 -0.0128649 0
M  V30 8225 H 750.735 -3.0026 2.10332 0
M  V30 8226 H 750.383 -4.99072 0.627418 0
M  V30 8227 H 750.083 -5.3912 2.33717 0
M  V30 8228 H 751.607 -5.90381 1.55829 0
M  V30 8229 H 753.021 -4.60163 3.4194 0
M  V30 8230 H 751.418 -4.3246 4.16051 0
M  V30 8231 H 752.488 -2.9451 3.85217 0
M  V30 8232 N 753.831 -1.1567 -1.07043 0
M  V30 8233 C 755.08 -0.928039 -1.79082 0
M  V30 8234 C 755.393 0.545968 -1.87826 0
M  V30 8235 O 756.599 0.892308 -2.56418 0
M  V30 8236 C 755.055 -1.61103 -3.21829 0
M  V30 8237 C 754.663 -3.12228 -3.21275 0
M  V30 8238 C 756.407 -1.46404 -3.98455 0
M  V30 8239 C 754.314 -3.733 -4.58695 0
M  V30 8240 H 753.244 -0.34357 -0.671175 0
M  V30 8241 H 755.895 -1.38718 -1.20123 0
M  V30 8242 H 754.277 -1.07958 -3.81 0
M  V30 8243 H 755.451 -3.72155 -2.71731 0
M  V30 8244 H 753.766 -3.26725 -2.58147 0
M  V30 8245 H 756.363 -1.8942 -5.00024 0
M  V30 8246 H 756.706 -0.41195 -4.14257 0
M  V30 8247 H 757.239 -1.96663 -3.45787 0
M  V30 8248 H 753.978 -4.78423 -4.48098 0
M  V30 8249 H 753.498 -3.18157 -5.08465 0
M  V30 8250 H 755.177 -3.7441 -5.27661 0
M  V30 8251 N 755.309 1.25446 -0.953992 0
M  V30 8252 C 756.558 1.92441 -0.604101 0
M  V30 8253 C 756.871 1.75543 0.862796 0
M  V30 8254 O 758.077 2.37106 1.32262 0
M  V30 8255 C 756.533 3.44854 -1.02974 0
M  V30 8256 C 756.141 3.70464 -2.51914 0
M  V30 8257 C 757.885 4.1778 -0.752352 0
M  V30 8258 C 755.792 5.1638 -2.88281 0
M  V30 8259 H 754.722 0.720508 -0.222227 0
M  V30 8260 H 757.373 1.42318 -1.15836 0
M  V30 8261 H 755.755 3.93935 -0.403904 0
M  V30 8262 H 756.929 3.32038 -3.19511 0
M  V30 8263 H 755.244 3.10797 -2.77117 0
M  V30 8264 H 757.841 5.25261 -1.00024 0
M  V30 8265 H 758.184 4.15135 0.311212 0
M  V30 8266 H 758.717 3.74605 -1.33851 0
M  V30 8267 H 755.456 5.24135 -3.93653 0
M  V30 8268 H 754.976 5.55855 -2.25357 0
M  V30 8269 H 756.655 5.84497 -2.77439 0
M  V30 8270 N 756.787 0.722489 1.40064 0
M  V30 8271 C 758.198 0.336507 1.83642 0
M  V30 8272 C 758.549 -1.13002 1.6039 0
M  V30 8273 O 757.674 -1.87036 1.08842 0
M  V30 8274 C 758.269 0.603985 3.33373 0
M  V30 8275 C 756.828 0.271637 3.75419 0
M  V30 8276 C 755.975 0.872898 2.63203 0
M  V30 8277 H 758.926 0.921108 1.29233 0
M  V30 8278 H 758.947 -0.128471 3.80283 0
M  V30 8279 H 758.459 1.67141 3.50265 0
M  V30 8280 H 756.56 -0.790455 3.64119 0
M  V30 8281 H 756.673 0.745457 4.73265 0
M  V30 8282 H 755.037 0.300431 2.52922 0
M  V30 8283 H 755.82 1.94473 2.82905 0
M  V30 8284 N 758.265 -1.50454 0.469181 0
M  V30 8285 C 759.676 -1.86695 0.0136034 0
M  V30 8286 C 760.027 -1.38413 -1.39055 0
M  V30 8287 O 759.152 -0.748294 -2.03051 0
M  V30 8288 C 759.747 -3.38795 0.0179098 0
M  V30 8289 C 758.306 -3.74455 -0.382191 0
M  V30 8290 C 757.453 -2.74338 0.404207 0
M  V30 8291 H 760.404 -1.43225 0.683547 0
M  V30 8292 H 760.425 -3.72321 -0.78468 0
M  V30 8293 H 759.937 -3.73906 1.04 0
M  V30 8294 H 758.038 -3.44944 -1.4087 0
M  V30 8295 H 758.151 -4.79025 -0.084862 0
M  V30 8296 H 756.515 -2.54305 -0.141829 0
M  V30 8297 H 757.298 -3.12293 1.42577 0
M  V30 8298 N 759.743 -0.201713 -1.56304 0
M  V30 8299 C 761.154 0.309711 -1.84113 0
M  V30 8300 C 761.505 1.60912 -1.12258 0
M  V30 8301 O 760.63 2.12937 -0.385587 0
M  V30 8302 C 761.225 0.568706 -3.33993 0
M  V30 8303 C 759.784 1.02448 -3.6219 0
M  V30 8304 C 758.931 0.0766842 -2.77194 0
M  V30 8305 H 761.882 -0.425356 -1.52893 0
M  V30 8306 H 761.903 1.41721 -3.53122 0
M  V30 8307 H 761.415 -0.37719 -3.86263 0
M  V30 8308 H 759.516 1.98443 -3.15359 0
M  V30 8309 H 759.629 0.912619 -4.70328 0
M  V30 8310 H 757.993 0.579809 -2.48013 0
M  V30 8311 H 758.776 -0.863774 -3.32256 0
M  V30 8312 N 761.222 1.57436 0.0718424 0
M  V30 8313 C 762.17 2.04725 1.10411 0
M  V30 8314 C 763.164 0.952579 1.4008 0
M  V30 8315 O 764.37 1.13769 1.39487 0
M  V30 8316 H 760.745 0.652749 0.373393 0
M  V30 8317 H 762.716 2.90569 0.679126 0
M  V30 8318 C 761.465 2.5068 2.40946 0
M  V30 8319 H 760.788 3.34505 2.18967 0
M  V30 8320 H 762.228 2.87521 3.11621 0
M  V30 8321 C 760.687 1.38971 3.06902 0
M  V30 8322 O 761.217 0.731786 3.94978 0
M  V30 8323 N 759.423 1.13485 2.67525 0
M  V30 8324 H 758.97 1.67168 1.95991 0
M  V30 8325 H 758.928 0.389467 3.11978 0
M  V30 8326 N 762.7 -0.34323 1.53817 0
M  V30 8327 C 764.111 -0.918823 1.62525 0
M  V30 8328 C 764.462 -1.89542 0.506765 0
M  V30 8329 O 763.587 -2.13326 -0.363441 0
M  V30 8330 C 764.182 -1.67326 2.94597 0
M  V30 8331 C 762.741 -2.19786 3.05567 0
M  V30 8332 C 761.888 -1.01708 2.57974 0
M  V30 8333 H 764.839 -0.121358 1.58235 0
M  V30 8334 H 764.86 -2.53615 2.83654 0
M  V30 8335 H 764.372 -0.962223 3.75983 0
M  V30 8336 H 762.473 -2.94065 2.28816 0
M  V30 8337 H 762.586 -2.46135 4.1104 0
M  V30 8338 H 760.95 -1.39058 2.13389 0
M  V30 8339 H 761.733 -0.320671 3.41799 0
M  V30 8340 N 764.178 -1.45556 -0.604258 0
M  V30 8341 C 765.108 -1.57327 -1.72541 0
M  V30 8342 C 766.089 -0.424637 -1.64714 0
M  V30 8343 O 767.274 -0.648196 -1.83063 0
M  V30 8344 C 764.404 -1.54279 -3.11152 0
M  V30 8345 C 763.358 -2.67893 -3.33792 0
M  V30 8346 C 762.684 -2.499 -4.72709 0
M  V30 8347 C 763.984 -4.0988 -3.23722 0
M  V30 8348 H 765.678 -2.51175 -1.62947 0
M  V30 8349 H 763.224 -1.20884 -0.782504 0
M  V30 8350 H 765.177 -1.6111 -3.89386 0
M  V30 8351 H 763.901 -0.569627 -3.21594 0
M  V30 8352 H 762.56 -2.60495 -2.57949 0
M  V30 8353 H 762.208 -1.50715 -4.79889 0
M  V30 8354 H 761.908 -3.26091 -4.88813 0
M  V30 8355 H 763.432 -2.5859 -5.5314 0
M  V30 8356 H 764.846 -4.18503 -3.91826 0
M  V30 8357 H 763.243 -4.86487 -3.51355 0
M  V30 8358 H 764.313 -4.31553 -2.21111 0
M  V30 8359 N 765.656 0.84705 -1.32902 0
M  V30 8360 C 766.619 1.9378 -1.224 0
M  V30 8361 C 767.619 1.60144 -0.145108 0
M  V30 8362 O 768.809 1.69638 -0.396058 0
M  V30 8363 C 765.941 3.29234 -0.884174 0
M  V30 8364 H 767.134 2.04518 -2.19345 0
M  V30 8365 H 764.687 1.03816 -1.16842 0
M  V30 8366 H 765.422 3.24193 0.0831277 0
M  V30 8367 H 765.207 3.55026 -1.6643 0
M  V30 8368 H 766.697 4.09162 -0.835226 0
M  V30 8369 N 767.134 1.16236 1.06428 0
M  V30 8370 C 768.38 0.944431 1.79467 0
M  V30 8371 C 768.713 -0.526558 1.86925 0
M  V30 8372 O 767.988 -1.39061 1.35986 0
M  V30 8373 C 768.271 1.57092 3.24028 0
M  V30 8374 C 768.124 3.11315 3.24658 0
M  V30 8375 C 769.443 1.26447 4.21544 0
M  V30 8376 H 766.562 0.344521 0.651517 0
M  V30 8377 H 769.204 1.43545 1.24478 0
M  V30 8378 H 767.354 1.15337 3.70985 0
M  V30 8379 H 769.026 3.62042 2.85873 0
M  V30 8380 H 767.269 3.44716 2.6335 0
M  V30 8381 H 767.94 3.50269 4.26633 0
M  V30 8382 H 770.416 1.62581 3.83023 0
M  V30 8383 H 769.292 1.72885 5.20963 0
M  V30 8384 H 769.553 0.183068 4.41721 0
M  V30 8385 N 768.612 -1.24939 0.960631 0
M  V30 8386 C 769.889 -1.88118 0.535807 0
M  V30 8387 C 770.269 -1.86605 -0.987009 0
M  V30 8388 O 769.617 -1.33375 -1.85536 0
M  V30 8389 C 769.827 -3.30565 1.11927 0
M  V30 8390 C 771.175 -4.07296 1.19981 0
M  V30 8391 O 772.199 -3.39709 1.07126 0
M  V30 8392 O 771.058 -5.28206 1.40218 0
M  V30 8393 H 768.152 -0.807698 0.177631 0
M  V30 8394 H 770.698 -1.32964 1.05445 0
M  V30 8395 H 769.47 -3.26128 2.16231 0
M  V30 8396 H 769.093 -3.93284 0.584245 0
M  V30 8397 N 770.09 -0.729906 -1.39679 0
M  V30 8398 C 771.02 -0.101618 -2.33279 0
M  V30 8399 C 772.001 0.729854 -1.53646 0
M  V30 8400 O 773.186 0.67587 -1.82059 0
M  V30 8401 C 770.316 0.81024 -3.37716 0
M  V30 8402 C 769.27 0.0833126 -4.27919 0
M  V30 8403 C 768.596 1.11185 -5.23012 0
M  V30 8404 C 769.896 -1.07107 -5.112 0
M  V30 8405 H 771.59 -0.883452 -2.86069 0
M  V30 8406 H 769.136 -0.426283 -1.37546 0
M  V30 8407 H 771.089 1.25927 -4.02145 0
M  V30 8408 H 769.813 1.62413 -2.83354 0
M  V30 8409 H 768.472 -0.346043 -3.64963 0
M  V30 8410 H 768.12 1.91917 -4.64948 0
M  V30 8411 H 767.82 0.63026 -5.8421 0
M  V30 8412 H 769.344 1.56068 -5.90318 0
M  V30 8413 H 770.758 -0.700726 -5.69002 0
M  V30 8414 H 769.155 -1.48196 -5.81514 0
M  V30 8415 H 770.225 -1.89513 -4.46332 0
M  V30 8416 N 771.568 1.50203 -0.477153 0
M  V30 8417 C 772.793 2.07263 0.0754986 0
M  V30 8418 C 773.218 1.33801 1.32208 0
M  V30 8419 O 772.576 0.387482 1.77111 0
M  V30 8420 C 772.624 3.59028 0.336348 0
M  V30 8421 O 771.728 3.87339 1.4157 0
M  V30 8422 H 771.069 0.663815 -0.015662 0
M  V30 8423 H 773.599 1.93321 -0.669936 0
M  V30 8424 H 773.609 4.03927 0.575034 0
M  V30 8425 H 772.284 4.11912 -0.574551 0
M  V30 8426 H 770.861 3.54272 1.16385 0
M  V30 8427 N 773.046 0.209999 1.56195 0
M  V30 8428 C 774.286 -0.4268 1.99894 0
M  V30 8429 C 774.65 -1.57763 1.0943 0
M  V30 8430 O 775.851 -2.27964 1.42428 0
M  V30 8431 C 774.122 -0.861188 3.46869 0
M  V30 8432 S 775.681 -1.49372 4.12593 0
M  V30 8433 H 772.499 -0.135922 0.697887 0
M  V30 8434 H 775.101 0.316573 1.9292 0
M  V30 8435 H 773.805 -0.0137653 4.10398 0
M  V30 8436 H 773.336 -1.63766 3.57693 0
M  V30 8437 H 775.351 -2.7827 4.10829 0
M  V30 8438 N 774.524 -1.57472 -0.0634922 0
M  V30 8439 C 775.471 -2.04258 -1.07457 0
M  V30 8440 C 776.441 -0.924804 -1.37973 0
M  V30 8441 O 777.626 -1.19305 -1.48899 0
M  V30 8442 C 774.766 -2.49832 -2.38071 0
M  V30 8443 C 773.879 -3.75263 -2.14014 0
M  V30 8444 C 773.014 -4.09585 -3.38251 0
M  V30 8445 C 772.053 -5.28032 -3.09594 0
M  V30 8446 N 771.19 -5.57953 -4.26185 0
M  V30 8447 H 776.03 -2.90402 -0.668626 0
M  V30 8448 H 773.567 -1.43609 -0.318572 0
M  V30 8449 H 775.525 -2.7431 -3.14341 0
M  V30 8450 H 774.155 -1.66654 -2.76453 0
M  V30 8451 H 773.207 -3.58075 -1.28399 0
M  V30 8452 H 774.519 -4.61667 -1.88852 0
M  V30 8453 H 773.673 -4.35008 -4.2291 0
M  V30 8454 H 772.412 -3.21765 -3.66495 0
M  V30 8455 H 771.417 -5.02397 -2.23332 0
M  V30 8456 H 772.642 -6.17477 -2.82663 0
M  V30 8457 H 770.588 -4.73092 -4.54445 0
M  V30 8458 H 770.505 -6.38793 -4.04326 0
M  V30 8459 H 771.773 -5.87931 -5.11817 0
M  V30 8460 N 776.003 0.335068 -1.53997 0
M  V30 8461 C 777.252 1.07182 -1.70865 0
M  V30 8462 C 777.565 1.89541 -0.483078 0
M  V30 8463 O 778.771 2.66219 -0.532879 0
M  V30 8464 C 777.227 1.95497 -3.02174 0
M  V30 8465 C 776.835 1.18304 -4.32097 0
M  V30 8466 C 778.579 2.68978 -3.28407 0
M  V30 8467 C 776.486 2.05699 -5.54474 0
M  V30 8468 H 775.416 0.403857 -0.636722 0
M  V30 8469 H 778.067 0.33076 -1.80494 0
M  V30 8470 H 776.449 2.73456 -2.86423 0
M  V30 8471 H 777.623 0.451969 -4.58578 0
M  V30 8472 H 775.938 0.565556 -4.12541 0
M  V30 8473 H 778.535 3.34651 -4.17029 0
M  V30 8474 H 778.878 3.36 -2.45784 0
M  V30 8475 H 779.411 1.98087 -3.44973 0
M  V30 8476 H 776.15 1.43204 -6.39666 0
M  V30 8477 H 775.67 2.76572 -5.32229 0
M  V30 8478 H 777.349 2.64554 -5.90441 0
M  V30 8479 N 777.481 1.45874 0.596531 0
M  V30 8480 C 778.391 1.57947 1.73464 0
M  V30 8481 C 779.407 0.463461 1.67714 0
M  V30 8482 O 780.583 0.725685 1.87872 0
M  V30 8483 C 777.648 1.55348 3.09948 0
M  V30 8484 C 776.709 2.78074 3.27068 0
M  V30 8485 C 775.942 2.75589 4.57041 0
M  V30 8486 O 776.165 1.83545 5.40063 0
M  V30 8487 O 775.099 3.66945 4.77111 0
M  V30 8488 H 778.925 2.54169 1.66228 0
M  V30 8489 H 776.51 1.2851 0.76194 0
M  V30 8490 H 778.392 1.56545 3.91244 0
M  V30 8491 H 777.067 0.622811 3.17652 0
M  V30 8492 H 775.974 2.82435 2.45319 0
M  V30 8493 H 777.307 3.70303 3.24248 0
M  V30 8494 N 778.959 -0.83999 1.33349 0
M  V30 8495 C 779.891 -1.95678 1.19344 0
M  V30 8496 C 780.904 -1.62322 0.124692 0
M  V30 8497 O 782.093 -1.74516 0.375012 0
M  V30 8498 C 779.193 -3.29133 0.807771 0
M  V30 8499 C 778.366 -3.9063 1.96792 0
M  V30 8500 C 777.425 -5.02438 1.56341 0
M  V30 8501 O 776.451 -5.21646 2.27759 0
M  V30 8502 N 777.653 -5.78612 0.467767 0
M  V30 8503 H 780.418 -2.08229 2.15548 0
M  V30 8504 H 777.979 -1.01566 1.26079 0
M  V30 8505 H 779.971 -4.01355 0.519282 0
M  V30 8506 H 778.541 -3.12535 -0.063555 0
M  V30 8507 H 777.761 -3.11011 2.4221 0
M  V30 8508 H 779.049 -4.2845 2.74422 0
M  V30 8509 H 778.447 -5.65559 -0.126324 0
M  V30 8510 H 777.004 -6.51362 0.238945 0
M  V30 8511 N 780.437 -1.16799 -1.0581 0
M  V30 8512 C 781.667 -0.975454 -1.82122 0
M  V30 8513 C 782.075 0.479584 -1.83021 0
M  V30 8514 O 781.418 1.34471 -1.25153 0
M  V30 8515 C 781.48 -1.43209 -3.29744 0
M  V30 8516 C 781.144 -2.908 -3.5254 0
M  V30 8517 C 782.141 -3.88775 -3.45181 0
M  V30 8518 C 779.826 -3.28832 -3.79703 0
M  V30 8519 C 781.82 -5.22782 -3.64661 0
M  V30 8520 C 779.507 -4.63007 -3.98832 0
M  V30 8521 C 780.505 -5.59791 -3.91309 0
M  V30 8522 O 780.193 -6.9154 -4.09911 0
M  V30 8523 H 779.925 -0.345655 -0.580947 0
M  V30 8524 H 782.479 -1.55355 -1.34365 0
M  V30 8525 H 780.709 -0.797504 -3.78387 0
M  V30 8526 H 782.398 -1.2062 -3.87564 0
M  V30 8527 H 783.164 -3.60738 -3.2418 0
M  V30 8528 H 779.043 -2.54073 -3.84666 0
M  V30 8529 H 782.587 -5.98312 -3.58705 0
M  V30 8530 H 778.484 -4.90752 -4.19324 0
M  V30 8531 H 779.252 -6.98188 -4.27172 0
M  V30 8532 N 781.915 1.24427 -0.967243 0
M  V30 8533 C 783.145 1.96256 -0.64554 0
M  V30 8534 C 783.553 1.71959 0.789098 0
M  V30 8535 O 782.896 0.999913 1.54102 0
M  V30 8536 C 782.958 3.49553 -0.839798 0
M  V30 8537 C 782.622 3.97548 -2.25399 0
M  V30 8538 C 783.619 4.07257 -3.23168 0
M  V30 8539 C 781.304 4.30884 -2.58156 0
M  V30 8540 C 783.298 4.49635 -4.51782 0
M  V30 8541 C 780.985 4.72946 -3.86996 0
M  V30 8542 C 781.983 4.82286 -4.83621 0
M  V30 8543 O 781.671 5.23409 -6.10162 0
M  V30 8544 H 781.403 0.632002 -0.239895 0
M  V30 8545 H 783.957 1.59224 -1.29757 0
M  V30 8546 H 782.187 3.86479 -0.130603 0
M  V30 8547 H 783.876 4.02591 -0.517249 0
M  V30 8548 H 784.642 3.8172 -2.9919 0
M  V30 8549 H 780.521 4.22833 -1.83666 0
M  V30 8550 H 784.065 4.5684 -5.27203 0
M  V30 8551 H 779.962 4.9793 -4.10775 0
M  V30 8552 H 780.73 5.4156 -6.13722 0
M  V30 8553 N 783.393 0.737304 1.3929 0
M  V30 8554 C 784.303 0.100464 2.34385 0
M  V30 8555 C 785.319 -0.719282 1.58437 0
M  V30 8556 O 786.495 -0.647216 1.90717 0
M  V30 8557 C 783.56 -0.794325 3.37478 0
M  V30 8558 C 782.621 0.0379345 4.29283 0
M  V30 8559 C 781.854 -0.814241 5.27452 0
M  V30 8560 O 782.077 -2.05288 5.32177 0
M  V30 8561 O 781.011 -0.241679 6.01415 0
M  V30 8562 H 784.837 0.885407 2.90507 0
M  V30 8563 H 782.422 0.497999 1.40856 0
M  V30 8564 H 784.304 -1.30622 4.00644 0
M  V30 8565 H 782.979 -1.55804 2.83737 0
M  V30 8566 H 781.886 0.595405 3.69331 0
M  V30 8567 H 783.219 0.763926 4.86236 0
M  V30 8568 N 784.871 -1.49948 0.485112 0
M  V30 8569 C 785.834 -2.27351 -0.290546 0
M  V30 8570 C 786.834 -1.32704 -0.908087 0
M  V30 8571 O 788.024 -1.56007 -0.775085 0
M  V30 8572 C 785.156 -3.10135 -1.41524 0
M  V30 8573 H 786.349 -2.97374 0.388454 0
M  V30 8574 H 783.902 -1.54453 0.239586 0
M  V30 8575 H 784.637 -2.44641 -2.12888 0
M  V30 8576 H 784.422 -3.79705 -0.978074 0
M  V30 8577 H 785.912 -3.68638 -1.96204 0
M  V30 8578 N 786.349 -0.21828 -1.56081 0
M  V30 8579 C 787.598 0.414644 -1.97392 0
M  V30 8580 C 787.911 1.61132 -1.10887 0
M  V30 8581 O 789.117 2.31355 -1.42082 0
M  V30 8582 C 787.573 0.789099 -3.51143 0
M  V30 8583 C 787.181 -0.384578 -4.46346 0
M  V30 8584 C 788.925 1.38781 -4.01173 0
M  V30 8585 C 786.832 0.0121288 -5.91399 0
M  V30 8586 H 785.762 0.158691 -0.737111 0
M  V30 8587 H 788.413 -0.313974 -1.80794 0
M  V30 8588 H 786.795 1.57505 -3.6333 0
M  V30 8589 H 787.969 -1.16212 -4.45905 0
M  V30 8590 H 786.284 -0.896306 -4.06639 0
M  V30 8591 H 788.881 1.69746 -5.07041 0
M  V30 8592 H 789.224 2.30245 -3.46833 0
M  V30 8593 H 789.757 0.665364 -3.92196 0
M  V30 8594 H 786.496 -0.868917 -6.49715 0
M  V30 8595 H 786.016 0.754053 -5.95041 0
M  V30 8596 H 787.695 0.439949 -6.45502 0
M  V30 8597 N 787.827 1.57504 0.0551401 0
M  V30 8598 C 788.757 2.07864 1.06372 0
M  V30 8599 C 789.738 0.975565 1.39344 0
M  V30 8600 O 790.923 1.24929 1.48682 0
M  V30 8601 C 788.053 2.53643 2.3724 0
M  V30 8602 C 787.007 3.67978 2.18578 0
M  V30 8603 C 786.333 3.9987 3.54976 0
M  V30 8604 C 787.633 4.97405 1.59329 0
M  V30 8605 H 789.327 2.92379 0.644595 0
M  V30 8606 H 786.873 1.40654 0.308619 0
M  V30 8607 H 788.826 2.8749 3.08103 0
M  V30 8608 H 787.55 1.66177 2.81163 0
M  V30 8609 H 786.209 3.3444 1.50152 0
M  V30 8610 H 785.857 3.0951 3.965 0
M  V30 8611 H 785.557 4.76867 3.43324 0
M  V30 8612 H 787.081 4.36228 4.27244 0
M  V30 8613 H 788.495 5.29375 2.20078 0
M  V30 8614 H 786.892 5.78837 1.58327 0
M  V30 8615 H 787.962 4.81697 0.55638 0
M  V30 8616 N 789.305 -0.326896 1.54172 0
M  V30 8617 C 790.268 -1.38515 1.8261 0
M  V30 8618 C 791.268 -1.44872 0.697771 0
M  V30 8619 O 792.458 -1.44957 0.966078 0
M  V30 8620 C 789.59 -2.77281 1.98313 0
M  V30 8621 H 790.783 -1.14556 2.77159 0
M  V30 8622 H 788.336 -0.562199 1.45839 0
M  V30 8623 H 789.071 -3.065 1.05964 0
M  V30 8624 H 788.856 -2.74061 2.80416 0
M  V30 8625 H 790.346 -3.53845 2.21773 0
M  V30 8626 N 790.784 -1.46188 -0.588786 0
M  V30 8627 C 791.714 -1.59148 -1.70863 0
M  V30 8628 C 792.695 -0.442083 -1.64255 0
M  V30 8629 O 793.88 -0.667575 -1.82365 0
M  V30 8630 C 791.01 -1.5757 -3.09498 0
M  V30 8631 C 789.964 -2.71418 -3.30932 0
M  V30 8632 C 789.29 -2.549 -4.70032 0
M  V30 8633 C 790.59 -4.1329 -3.19356 0
M  V30 8634 H 792.284 -2.52889 -1.60274 0
M  V30 8635 H 789.83 -1.21707 -0.769638 0
M  V30 8636 H 791.783 -1.65231 -3.87655 0
M  V30 8637 H 790.507 -0.603705 -3.20972 0
M  V30 8638 H 789.166 -2.63216 -2.55172 0
M  V30 8639 H 788.814 -1.55797 -4.78264 0
M  V30 8640 H 788.514 -3.31257 -4.85327 0
M  V30 8641 H 790.038 -2.64443 -5.50366 0
M  V30 8642 H 791.452 -4.22636 -3.87365 0
M  V30 8643 H 789.849 -4.90187 -3.46175 0
M  V30 8644 H 790.919 -4.33874 -2.16522 0
M  V30 8645 N 792.262 0.832906 -1.33792 0
M  V30 8646 C 793.508 1.59053 -1.26782 0
M  V30 8647 C 793.863 1.91705 0.163399 0
M  V30 8648 O 793.156 1.5638 1.10706 0
M  V30 8649 C 793.35 2.9047 -2.08235 0
M  V30 8650 C 793.179 2.70656 -3.59132 0
M  V30 8651 C 791.949 2.67905 -4.28433 0
M  V30 8652 C 794.147 2.42871 -4.53341 0
M  V30 8653 N 792.129 2.39531 -5.65242 0
M  V30 8654 C 793.5 2.24101 -5.78082 0
M  V30 8655 C 795.555 2.28517 -4.42362 0
M  V30 8656 C 794.258 1.92432 -6.93082 0
M  V30 8657 C 796.284 1.98242 -5.57184 0
M  V30 8658 C 795.646 1.80288 -6.80937 0
M  V30 8659 H 791.745 0.584823 -0.51914 0
M  V30 8660 H 794.329 0.977252 -1.68398 0
M  V30 8661 H 792.5 3.49739 -1.6893 0
M  V30 8662 H 794.232 3.55744 -1.92947 0
M  V30 8663 H 790.987 2.81624 -3.80768 0
M  V30 8664 H 791.411 2.28211 -6.37377 0
M  V30 8665 H 796.053 2.41107 -3.47314 0
M  V30 8666 H 793.771 1.78579 -7.88121 0
M  V30 8667 H 797.357 1.87882 -5.50628 0
M  V30 8668 H 796.237 1.57199 -7.68283 0
M  V30 8669 N 793.74 1.17359 1.05189 0
M  V30 8670 C 794.688 0.886527 2.15043 0
M  V30 8671 C 795.682 -0.148834 1.68745 0
M  V30 8672 O 796.888 -0.00175123 1.8 0
M  V30 8673 H 793.263 0.269147 0.702185 0
M  V30 8674 H 795.234 1.82016 2.36459 0
M  V30 8675 C 793.983 0.416333 3.45198 0
M  V30 8676 H 793.306 1.20449 3.81225 0
M  V30 8677 H 794.746 0.254362 4.23236 0
M  V30 8678 C 793.205 -0.866016 3.25579 0
M  V30 8679 O 793.735 -1.9328 3.52144 0
M  V30 8680 N 791.941 -0.814179 2.78961 0
M  V30 8681 H 791.488 0.0541618 2.57543 0
M  V30 8682 H 791.446 -1.67264 2.66214 0
M  V30 8683 N 795.218 -1.23913 0.973828 0
M  V30 8684 C 796.15 -2.24397 0.466763 0
M  V30 8685 C 797.163 -1.57078 -0.427828 0
M  V30 8686 O 798.352 -1.76973 -0.233019 0
M  V30 8687 C 795.452 -3.37141 -0.344798 0
M  V30 8688 C 794.625 -4.34037 0.541349 0
M  V30 8689 C 793.684 -5.2576 -0.215243 0
M  V30 8690 O 792.71 -5.67842 0.39291 0
M  V30 8691 N 793.912 -5.60702 -1.5031 0
M  V30 8692 H 796.677 -2.68536 1.33074 0
M  V30 8693 H 794.238 -1.38017 0.846346 0
M  V30 8694 H 796.23 -3.95476 -0.859133 0
M  V30 8695 H 794.8 -2.92239 -1.10974 0
M  V30 8696 H 794.02 -3.74302 1.23659 0
M  V30 8697 H 795.308 -4.95738 1.1455 0
M  V30 8698 H 794.706 -5.28451 -2.01882 0
M  V30 8699 H 793.263 -6.21538 -1.96301 0
M  V30 8700 N 796.696 -0.74468 -1.38897 0
M  V30 8701 C 797.626 -0.126355 -2.33158 0
M  V30 8702 C 798.607 0.713517 -1.54412 0
M  V30 8703 O 799.792 0.656523 -1.82766 0
M  V30 8704 C 796.922 0.774375 -3.38557 0
M  V30 8705 C 795.876 0.0379214 -4.27983 0
M  V30 8706 C 795.202 1.05631 -5.24162 0
M  V30 8707 C 796.502 -1.12523 -5.10035 0
M  V30 8708 H 798.196 -0.913744 -2.85116 0
M  V30 8709 H 795.742 -0.440847 -1.37086 0
M  V30 8710 H 797.695 1.21655 -4.03458 0
M  V30 8711 H 796.419 1.59399 -2.85061 0
M  V30 8712 H 795.078 -0.384733 -3.64576 0
M  V30 8713 H 794.726 1.86975 -4.66958 0
M  V30 8714 H 794.426 0.568261 -5.84846 0
M  V30 8715 H 795.95 1.49799 -5.9194 0
M  V30 8716 H 797.364 -0.761037 -5.68226 0
M  V30 8717 H 795.761 -1.54355 -5.79909 0
M  V30 8718 H 796.831 -1.94237 -4.44297 0
M  V30 8719 N 798.174 1.49689 -0.493057 0
M  V30 8720 C 799.404 2.06536 0.0512397 0
M  V30 8721 C 799.812 1.35459 1.32089 0
M  V30 8722 O 799.155 0.424145 1.78736 0
M  V30 8723 C 799.217 3.57452 0.383231 0
M  V30 8724 C 798.881 4.50163 -0.787555 0
M  V30 8725 C 799.878 4.92151 -1.67582 0
M  V30 8726 C 797.563 4.92565 -0.984109 0
M  V30 8727 C 799.557 5.7527 -2.74487 0
M  V30 8728 C 797.244 5.75463 -2.05634 0
M  V30 8729 C 798.242 6.16719 -2.93507 0
M  V30 8730 O 797.93 6.97961 -3.98881 0
M  V30 8731 H 797.662 0.675862 -0.0136516 0
M  V30 8732 H 800.216 1.9356 -0.687298 0
M  V30 8733 H 798.446 3.68408 1.17526 0
M  V30 8734 H 800.135 3.96572 0.8652 0
M  V30 8735 H 800.901 4.60043 -1.53575 0
M  V30 8736 H 796.78 4.5996 -0.309541 0
M  V30 8737 H 800.324 6.07392 -3.43104 0
M  V30 8738 H 796.221 6.06983 -2.19639 0
M  V30 8739 H 796.989 7.16253 -3.96137 0
M  V30 8740 N 799.652 0.226554 1.55963 0
M  V30 8741 C 800.901 -0.40417 1.97609 0
M  V30 8742 C 801.214 -1.60541 1.1174 0
M  V30 8743 O 802.42 -2.30598 1.43307 0
M  V30 8744 C 800.876 -0.770466 3.51556 0
M  V30 8745 C 800.484 0.408244 4.46136 0
M  V30 8746 C 802.228 -1.36651 4.01904 0
M  V30 8747 C 800.135 0.0192347 5.91397 0
M  V30 8748 H 799.065 -0.15478 0.737943 0
M  V30 8749 H 801.716 0.323558 1.80625 0
M  V30 8750 H 800.098 -1.55575 3.6416 0
M  V30 8751 H 801.272 1.18575 4.45283 0
M  V30 8752 H 799.587 0.917859 4.06158 0
M  V30 8753 H 802.184 -1.67055 5.07934 0
M  V30 8754 H 802.527 -2.28403 3.48049 0
M  V30 8755 H 803.06 -0.644556 3.92543 0
M  V30 8756 H 799.799 0.90336 6.49245 0
M  V30 8757 H 799.319 -0.722485 5.95433 0
M  V30 8758 H 800.998 -0.405711 6.45727 0
M  V30 8759 N 801.13 -1.57531 -0.0467866 0
M  V30 8760 C 802.078 -2.06455 -1.0714 0
M  V30 8761 C 803.072 -0.974744 -1.38546 0
M  V30 8762 O 804.278 -1.15974 -1.37659 0
M  V30 8763 H 800.653 -0.658607 -0.362962 0
M  V30 8764 H 802.624 -2.91613 -0.632813 0
M  V30 8765 C 801.373 -2.54481 -2.36927 0
M  V30 8766 H 800.696 -3.37946 -2.13617 0
M  V30 8767 H 802.136 -2.92442 -3.07007 0
M  V30 8768 C 800.595 -1.43836 -3.04652 0
M  V30 8769 O 801.125 -0.794531 -3.93764 0
M  V30 8770 N 799.331 -1.17727 -2.65686 0
M  V30 8771 H 798.878 -1.70265 -1.93307 0
M  V30 8772 H 798.836 -0.439051 -3.11319 0
M  V30 8773 N 802.608 0.318715 -1.54344 0
M  V30 8774 C 803.541 1.41644 -1.7892 0
M  V30 8775 C 804.519 1.495 -0.639421 0
M  V30 8776 O 805.703 1.66835 -0.877404 0
M  V30 8777 C 802.83 2.79701 -1.9101 0
M  V30 8778 C 801.876 2.89354 -3.13331 0
M  V30 8779 S 802.709 2.53264 -4.71824 0
M  V30 8780 C 803.865 3.93384 -4.86826 0
M  V30 8781 H 804.098 1.20585 -2.71747 0
M  V30 8782 H 801.631 0.515828 -1.45529 0
M  V30 8783 H 803.589 3.59227 -1.98661 0
M  V30 8784 H 802.25 2.9804 -0.991516 0
M  V30 8785 H 801.443 3.90574 -3.1854 0
M  V30 8786 H 801.045 2.17805 -3.04035 0
M  V30 8787 H 803.337 4.88191 -4.69761 0
M  V30 8788 H 804.28 3.93156 -5.88926 0
M  V30 8789 H 804.688 3.82564 -4.15097 0
M  V30 8790 N 804.086 1.46499 0.581025 0
M  V30 8791 C 805.033 1.5719 1.68997 0
M  V30 8792 C 806.003 0.416114 1.60803 0
M  V30 8793 O 807.188 0.633086 1.79991 0
M  V30 8794 C 804.328 1.56973 3.07333 0
M  V30 8795 C 803.441 2.83298 3.26139 0
M  V30 8796 C 802.576 2.74574 4.54734 0
M  V30 8797 C 801.615 3.9583 4.66889 0
M  V30 8798 N 800.752 3.85482 5.86811 0
M  V30 8799 H 805.592 2.51914 1.59196 0
M  V30 8800 H 803.129 1.24975 0.775857 0
M  V30 8801 H 805.087 1.54832 3.87405 0
M  V30 8802 H 803.717 0.657803 3.16027 0
M  V30 8803 H 802.769 2.95411 2.3966 0
M  V30 8804 H 804.081 3.7316 3.30988 0
M  V30 8805 H 803.235 2.70548 5.43036 0
M  V30 8806 H 801.974 1.82354 4.52325 0
M  V30 8807 H 800.979 4.00186 3.77003 0
M  V30 8808 H 802.204 4.89148 4.71075 0
M  V30 8809 H 800.15 2.96051 5.85397 0
M  V30 8810 H 800.067 4.69002 5.92936 0
M  V30 8811 H 801.335 3.85434 6.7754 0
M  V30 8812 N 805.565 -0.825799 1.34232 0
M  V30 8813 C 806.79 -1.61883 1.29648 0
M  V30 8814 C 807.215 -1.87669 -0.127295 0
M  V30 8815 O 806.573 -1.45016 -1.08813 0
M  V30 8816 C 806.621 -2.93846 2.09014 0
M  V30 8817 O 805.725 -3.85778 1.4577 0
M  V30 8818 H 805.066 -0.492454 0.445405 0
M  V30 8819 H 807.596 -1.02641 1.76992 0
M  V30 8820 H 807.606 -3.43435 2.20264 0
M  V30 8821 H 806.281 -2.74401 3.12533 0
M  V30 8822 H 804.858 -3.4429 1.43245 0
M  V30 8823 N 807.043 -1.17915 -1.04565 0
M  V30 8824 C 807.973 -0.925033 -2.14395 0
M  V30 8825 C 808.954 0.135375 -1.6956 0
M  V30 8826 O 810.139 -0.0161774 -1.94193 0
M  V30 8827 C 807.269 -0.444469 -3.44444 0
M  V30 8828 C 806.223 -1.44478 -4.02877 0
M  V30 8829 C 805.549 -0.821933 -5.28345 0
M  V30 8830 C 806.849 -2.81995 -4.39632 0
M  V30 8831 H 808.543 -1.84354 -2.35911 0
M  V30 8832 H 806.089 -0.887806 -1.13375 0
M  V30 8833 H 808.042 -0.254078 -4.20633 0
M  V30 8834 H 806.766 0.509592 -3.226 0
M  V30 8835 H 805.425 -1.62203 -3.28764 0
M  V30 8836 H 805.073 0.139161 -5.02807 0
M  V30 8837 H 804.773 -1.48976 -5.68401 0
M  V30 8838 H 806.297 -0.641959 -6.07216 0
M  V30 8839 H 807.711 -2.67952 -5.06828 0
M  V30 8840 H 806.108 -3.45414 -4.90723 0
M  V30 8841 H 807.178 -3.35927 -3.49687 0
M  V30 8842 N 808.521 1.23394 -0.980386 0
M  V30 8843 C 809.767 1.92094 -0.650223 0
M  V30 8844 C 810.1 1.76309 0.814173 0
M  V30 8845 O 809.375 1.12406 1.5873 0
M  V30 8846 C 809.658 3.44713 -1.04139 0
M  V30 8847 C 809.511 3.69606 -2.56342 0
M  V30 8848 C 810.83 4.36191 -0.585296 0
M  V30 8849 H 807.949 0.697618 -0.237695 0
M  V30 8850 H 810.591 1.45517 -1.22167 0
M  V30 8851 H 808.741 3.84513 -0.55515 0
M  V30 8852 H 810.413 3.39288 -3.1254 0
M  V30 8853 H 808.656 3.14318 -2.98976 0
M  V30 8854 H 809.327 4.76441 -2.78762 0
M  V30 8855 H 811.803 4.03836 -1.00276 0
M  V30 8856 H 810.679 5.41679 -0.887428 0
M  V30 8857 H 810.94 4.39097 0.51438 0
M  V30 8858 N 809.999 0.752036 1.385 0
M  V30 8859 C 811.224 0.316993 2.04963 0
M  V30 8860 C 811.649 -1.04582 1.56346 0
M  V30 8861 O 811.007 -1.66616 0.714755 0
M  V30 8862 C 811.055 0.347235 3.58924 0
M  V30 8863 O 810.159 -0.659296 4.07096 0
M  V30 8864 H 809.5 0.140652 0.648932 0
M  V30 8865 H 812.03 1.02272 1.77205 0
M  V30 8866 H 812.04 0.19757 4.07521 0
M  V30 8867 H 810.715 1.34157 3.93668 0
M  V30 8868 H 809.292 -0.474371 3.6987 0
M  V30 8869 N 811.477 -1.49425 0.500989 0
M  V30 8870 C 812.723 -2.03369 -0.0355945 0
M  V30 8871 C 813.078 -1.37387 -1.34694 0
M  V30 8872 O 812.371 -0.500516 -1.84947 0
M  V30 8873 C 812.565 -3.56562 -0.24463 0
M  V30 8874 C 812.394 -4.37392 1.04491 0
M  V30 8875 C 811.164 -4.7941 1.59669 0
M  V30 8876 C 813.362 -4.75974 1.94817 0
M  V30 8877 N 811.344 -5.44668 2.83214 0
M  V30 8878 C 812.715 -5.4095 3.0294 0
M  V30 8879 C 814.77 -4.57915 1.95495 0
M  V30 8880 C 813.473 -5.89779 4.11768 0
M  V30 8881 C 815.499 -5.07705 3.03298 0
M  V30 8882 C 814.861 -5.72682 4.1014 0
M  V30 8883 H 810.96 -0.781507 0.0277547 0
M  V30 8884 H 813.544 -1.82594 0.675844 0
M  V30 8885 H 811.715 -3.77221 -0.925126 0
M  V30 8886 H 813.447 -3.97147 -0.778219 0
M  V30 8887 H 810.202 -4.59629 1.14185 0
M  V30 8888 H 810.626 -5.81884 3.46035 0
M  V30 8889 H 815.268 -4.07085 1.14199 0
M  V30 8890 H 812.986 -6.3963 4.93862 0
M  V30 8891 H 816.572 -4.95542 3.04843 0
M  V30 8892 H 815.452 -6.10512 4.92184 0
M  V30 8893 N 812.955 -0.234822 -1.55841 0
M  V30 8894 C 813.905 0.68346 -2.17515 0
M  V30 8895 C 814.889 1.14798 -1.1274 0
M  V30 8896 O 816.081 1.09976 -1.38688 0
M  V30 8897 C 813.21 1.88551 -2.86886 0
M  V30 8898 C 812.296 1.44006 -3.98903 0
M  V30 8899 N 812.687 0.708034 -5.0082 0
M  V30 8900 C 810.985 1.7263 -4.11236 0
M  V30 8901 C 811.686 0.479036 -5.79724 0
M  V30 8902 N 810.662 1.03968 -5.33565 0
M  V30 8903 H 814.464 0.115897 -2.93671 0
M  V30 8904 H 811.978 -0.0366273 -1.62359 0
M  V30 8905 H 813.975 2.55425 -3.2949 0
M  V30 8906 H 812.635 2.45742 -2.12229 0
M  V30 8907 H 813.646 0.359363 -5.16652 0
M  V30 8908 H 810.323 2.31046 -3.47741 0
M  V30 8909 H 811.713 -0.104514 -6.71819 0
M  V30 8910 N 814.433 1.57553 0.0384317 0
M  V30 8911 C 815.663 1.92813 0.742064 0
M  V30 8912 C 816.071 0.832157 1.69917 0
M  V30 8913 O 815.414 -0.200917 1.82598 0
M  V30 8914 C 815.476 3.23806 1.56172 0
M  V30 8915 C 815.14 4.50459 0.770407 0
M  V30 8916 C 816.137 5.19846 0.0748006 0
M  V30 8917 C 813.822 4.97001 0.727714 0
M  V30 8918 C 815.816 6.34047 -0.652902 0
M  V30 8919 C 813.503 6.111 -0.00373992 0
M  V30 8920 C 814.501 6.79477 -0.692816 0
M  V30 8921 O 814.189 7.91395 -1.41241 0
M  V30 8922 H 813.921 0.641174 0.214179 0
M  V30 8923 H 816.475 2.054 0.00285095 0
M  V30 8924 H 814.705 3.0752 2.34453 0
M  V30 8925 H 816.394 3.44463 2.14709 0
M  V30 8926 H 817.16 4.84899 0.098875 0
M  V30 8927 H 813.039 4.43629 1.25355 0
M  V30 8928 H 816.583 6.87353 -1.1913 0
M  V30 8929 H 812.48 6.45493 -0.0297703 0
M  V30 8930 H 813.248 8.07702 -1.32512 0
M  V30 8931 N 815.911 -0.310526 1.54511 0
M  V30 8932 C 817.151 -1.05498 1.7507 0
M  V30 8933 C 817.515 -1.84814 0.520381 0
M  V30 8934 O 818.716 -2.61937 0.603547 0
M  V30 8935 C 816.987 -1.94466 2.99863 0
M  V30 8936 S 818.546 -2.75686 3.41383 0
M  V30 8937 H 815.364 -0.355951 0.615483 0
M  V30 8938 H 817.966 -0.329464 1.92704 0
M  V30 8939 H 816.67 -1.35055 3.87541 0
M  V30 8940 H 816.201 -2.71401 2.84789 0
M  V30 8941 H 818.216 -3.96971 2.97706 0
M  V30 8942 N 817.389 -1.46805 -0.573248 0
M  V30 8943 C 818.322 -1.52608 -1.69665 0
M  V30 8944 C 819.3 -0.379426 -1.58111 0
M  V30 8945 O 820.484 -0.584938 -1.79195 0
M  V30 8946 C 817.611 -1.41355 -3.07793 0
M  V30 8947 C 816.657 -2.60321 -3.37839 0
M  V30 8948 S 817.49 -4.22622 -3.28863 0
M  V30 8949 C 818.646 -4.13894 -4.69513 0
M  V30 8950 H 818.879 -2.47653 -1.64485 0
M  V30 8951 H 816.412 -1.34806 -0.752769 0
M  V30 8952 H 818.37 -1.35549 -3.87475 0
M  V30 8953 H 817.031 -0.477213 -3.10454 0
M  V30 8954 H 816.224 -2.48466 -4.38498 0
M  V30 8955 H 815.826 -2.63165 -2.65745 0
M  V30 8956 H 818.118 -3.81158 -5.60111 0
M  V30 8957 H 819.061 -5.14584 -4.86425 0
M  V30 8958 H 819.469 -3.44998 -4.46807 0
M  V30 8959 N 818.867 0.818669 -1.34668 0
M  V30 8960 C 820.116 1.57017 -1.26604 0
M  V30 8961 C 820.429 1.94936 0.161036 0
M  V30 8962 O 821.635 2.69051 0.36386 0
M  V30 8963 C 820.091 2.83305 -2.2196 0
M  V30 8964 C 819.699 2.52671 -3.69948 0
M  V30 8965 C 821.443 3.61324 -2.22813 0
M  V30 8966 C 819.35 3.75178 -4.5716 0
M  V30 8967 H 818.28 0.589323 -0.470335 0
M  V30 8968 H 820.931 0.900956 -1.59859 0
M  V30 8969 H 819.313 3.51874 -1.81661 0
M  V30 8970 H 820.487 1.92186 -4.18809 0
M  V30 8971 H 818.802 1.8792 -3.71584 0
M  V30 8972 H 821.399 4.52294 -2.85192 0
M  V30 8973 H 821.742 3.97759 -1.22857 0
M  V30 8974 H 822.275 2.99703 -2.61578 0
M  V30 8975 H 819.014 3.43861 -5.58068 0
M  V30 8976 H 818.534 4.34931 -4.13031 0
M  V30 8977 H 820.213 4.42542 -4.71981 0
M  V30 8978 N 820.346 1.18468 1.03938 0
M  V30 8979 C 821.623 0.890435 1.74157 0
M  V30 8980 C 822.003 -0.606409 2.02203 0
M  V30 8981 O 821.351 -1.5615 1.66822 0
M  V30 8982 C 821.561 1.73906 3.02585 0
M  V30 8983 C 822.909 1.96686 3.76297 0
M  V30 8984 O 823.933 1.70969 3.12487 0
M  V30 8985 O 822.792 2.39986 4.90988 0
M  V30 8986 H 819.886 0.330889 0.757919 0
M  V30 8987 H 822.432 1.29228 1.09992 0
M  V30 8988 H 821.204 2.75369 2.78006 0
M  V30 8989 H 820.827 1.33581 3.74489 0
M  V30 8990 N 821.824 -1.22873 0.986916 0
M  V30 8991 C 823.073 -1.90772 0.654911 0
M  V30 8992 C 823.386 -1.77768 -0.81595 0
M  V30 8993 O 824.592 -2.40529 -1.25929 0
M  V30 8994 C 823.048 -3.42003 1.12081 0
M  V30 8995 C 822.656 -3.63655 2.61647 0
M  V30 8996 C 824.4 -4.15638 0.862854 0
M  V30 8997 C 822.307 -5.08555 3.01871 0
M  V30 8998 H 821.237 -0.714362 0.241252 0
M  V30 8999 H 823.888 -1.39196 1.19568 0
M  V30 9000 H 822.27 -3.92725 0.508207 0
M  V30 9001 H 823.444 -3.2345 3.28202 0
M  V30 9002 H 821.759 -3.03341 2.8526 0
M  V30 9003 H 824.356 -5.22425 1.13915 0
M  V30 9004 H 824.699 -4.15814 -0.201036 0
M  V30 9005 H 825.232 -3.70924 1.43736 0
M  V30 9006 H 821.971 -5.13514 4.07411 0
M  V30 9007 H 821.491 -5.49684 2.40015 0
M  V30 9008 H 823.17 -5.76936 2.92839 0
M  V30 9009 N 823.302 -0.75937 -1.38099 0
M  V30 9010 C 824.212 -0.13774 -2.34195 0
M  V30 9011 C 825.228 0.693985 -1.59561 0
M  V30 9012 O 826.404 0.616792 -1.91723 0
M  V30 9013 C 823.469 0.740535 -3.38699 0
M  V30 9014 C 822.53 -0.106225 -4.29169 0
M  V30 9015 C 821.763 0.730225 -5.28681 0
M  V30 9016 O 821.986 1.96796 -5.35376 0
M  V30 9017 O 820.92 0.145969 -6.01723 0
M  V30 9018 H 824.746 -0.931512 -2.89061 0
M  V30 9019 H 822.331 -0.520345 -1.40046 0
M  V30 9020 H 824.213 1.24232 -4.02672 0
M  V30 9021 H 822.888 1.51271 -2.8618 0
M  V30 9022 H 821.795 -0.654088 -3.68337 0
M  V30 9023 H 823.128 -0.841186 -4.84959 0
M  V30 9024 N 824.78 1.49157 -0.508906 0
M  V30 9025 C 825.727 2.2927 0.265288 0
M  V30 9026 C 826.697 1.3603 0.953162 0
M  V30 9027 O 827.882 1.64989 0.958291 0
M  V30 9028 C 825.022 3.18897 1.31904 0
M  V30 9029 C 824.135 4.27201 0.642144 0
M  V30 9030 C 823.27 5.04033 1.67701 0
M  V30 9031 C 822.309 6.04165 0.982422 0
M  V30 9032 N 821.446 6.74133 1.96186 0
M  V30 9033 H 826.286 2.94967 -0.424107 0
M  V30 9034 H 823.823 1.45431 -0.220991 0
M  V30 9035 H 825.781 3.69242 1.94206 0
M  V30 9036 H 824.411 2.55168 1.97709 0
M  V30 9037 H 823.463 3.80283 -0.0943395 0
M  V30 9038 H 824.775 4.98708 0.0957507 0
M  V30 9039 H 823.929 5.58287 2.37487 0
M  V30 9040 H 822.668 4.32317 2.25728 0
M  V30 9041 H 821.673 5.49135 0.270378 0
M  V30 9042 H 822.898 6.7787 0.408554 0
M  V30 9043 H 820.844 6.05183 2.53159 0
M  V30 9044 H 820.761 7.41643 1.46634 0
M  V30 9045 H 822.029 7.32987 2.65236 0
M  V30 9046 N 826.258 0.243083 1.55714 0
M  V30 9047 C 827.507 -0.383188 1.98027 0
M  V30 9048 C 827.82 -1.59347 1.13436 0
M  V30 9049 O 829.026 -2.29065 1.45745 0
M  V30 9050 C 827.482 -0.733135 3.52354 0
M  V30 9051 C 827.09 0.455539 4.45678 0
M  V30 9052 C 828.834 -1.32381 4.03331 0
M  V30 9053 C 826.741 0.0819591 5.91343 0
M  V30 9054 H 825.671 -0.146944 0.739543 0
M  V30 9055 H 828.322 0.342697 1.80272 0
M  V30 9056 H 826.704 -1.51704 3.65789 0
M  V30 9057 H 827.878 1.23291 4.44 0
M  V30 9058 H 826.193 0.960886 4.05162 0
M  V30 9059 H 828.79 -1.61658 5.09677 0
M  V30 9060 H 829.133 -2.24698 3.50452 0
M  V30 9061 H 829.666 -0.602885 3.93205 0
M  V30 9062 H 826.405 0.972171 6.48251 0
M  V30 9063 H 825.925 -0.659291 5.96166 0
M  V30 9064 H 827.604 -0.3372 6.46121 0
M  V30 9065 N 827.736 -1.57571 -0.0300757 0
M  V30 9066 C 829.152 -1.54869 -0.385703 0
M  V30 9067 C 829.352 -0.969068 -1.76667 0
M  V30 9068 O 828.408 -0.589676 -2.45518 0
M  V30 9069 C 829.721 -2.99313 -0.288482 0
M  V30 9070 C 831.269 -3.10857 -0.365638 0
M  V30 9071 C 831.744 -4.5703 -0.297878 0
M  V30 9072 N 833.235 -4.61825 -0.356703 0
M  V30 9073 C 833.97 -5.72466 -0.327146 0
M  V30 9074 N 833.466 -6.92349 -0.249941 0
M  V30 9075 N 835.259 -5.60836 -0.376801 0
M  V30 9076 H 827.41 -1.936 0.87367 0
M  V30 9077 H 829.673 -0.887924 0.332106 0
M  V30 9078 H 829.379 -3.45443 0.66047 0
M  V30 9079 H 829.253 -3.61332 -1.08253 0
M  V30 9080 H 831.64 -2.64676 -1.30502 0
M  V30 9081 H 831.721 -2.51671 0.457744 0
M  V30 9082 H 831.365 -5.03879 0.637835 0
M  V30 9083 H 831.295 -5.14127 -1.13935 0
M  V30 9084 H 833.786 -3.75571 -0.418926 0
M  V30 9085 H 834.099 -7.7245 -0.23246 0
M  V30 9086 H 832.444 -6.94664 -0.216004 0
M  V30 9087 H 835.635 -4.66073 -0.435101 0
M  V30 9088 H 835.808 -6.47052 -0.350298 0
M  V30 9089 N 829.214 0.302327 -1.54673 0
M  V30 9090 C 830.177 1.35592 -1.8479 0
M  V30 9091 C 831.177 1.43743 -0.72073 0
M  V30 9092 O 832.367 1.43402 -0.989017 0
M  V30 9093 C 829.499 2.74091 -2.02699 0
M  V30 9094 H 830.692 1.10132 -2.78946 0
M  V30 9095 H 828.245 0.538926 -1.46715 0
M  V30 9096 H 828.98 3.04775 -1.10826 0
M  V30 9097 H 828.765 2.69565 -2.8474 0
M  V30 9098 H 830.255 3.50272 -2.27374 0
M  V30 9099 N 830.692 1.47107 0.565454 0
M  V30 9100 C 831.625 1.53505 1.68853 0
M  V30 9101 C 832.603 0.387806 1.57908 0
M  V30 9102 O 833.787 0.594433 1.78882 0
M  V30 9103 C 830.914 1.42985 3.07039 0
M  V30 9104 C 829.96 2.62109 3.36454 0
M  V30 9105 S 830.793 4.2436 3.26617 0
M  V30 9106 C 831.949 4.16378 4.67312 0
M  V30 9107 H 832.182 2.48522 1.63169 0
M  V30 9108 H 829.715 1.35204 0.745609 0
M  V30 9109 H 831.673 1.37602 3.8675 0
M  V30 9110 H 830.334 0.493671 3.10196 0
M  V30 9111 H 829.527 2.50788 4.37174 0
M  V30 9112 H 829.129 2.64571 2.64345 0
M  V30 9113 H 831.421 3.84123 5.58082 0
M  V30 9114 H 832.364 5.17156 4.83689 0
M  V30 9115 H 832.772 3.47363 4.44971 0
M  V30 9116 N 832.17 -0.811516 1.35101 0
M  V30 9117 C 833.398 -1.59981 1.31201 0
M  V30 9118 C 833.813 -1.8847 -0.111552 0
M  V30 9119 O 833.17 -1.48414 -1.06205 0
M  V30 9120 C 833.221 -2.934 2.11184 0
M  V30 9121 O 832.942 -2.66148 3.4799 0
M  V30 9122 C 834.443 -3.87776 2.14813 0
M  V30 9123 H 831.663 -0.496921 0.450899 0
M  V30 9124 H 834.207 -1.00886 1.77883 0
M  V30 9125 H 832.362 -3.49022 1.68115 0
M  V30 9126 H 832.776 -3.51301 3.89471 0
M  V30 9127 H 834.25 -4.7852 2.75178 0
M  V30 9128 H 834.727 -4.23997 1.14556 0
M  V30 9129 H 835.333 -3.3809 2.58022 0
M  V30 9130 N 833.648 -1.19017 -1.03309 0
M  V30 9131 C 834.897 -0.984542 -1.76039 0
M  V30 9132 C 835.21 0.485937 -1.89468 0
M  V30 9133 O 836.416 0.810278 -2.59127 0
M  V30 9134 C 834.872 -1.71261 -3.1654 0
M  V30 9135 C 834.48 -3.22291 -3.11179 0
M  V30 9136 C 836.224 -1.59007 -3.93595 0
M  V30 9137 C 834.131 -3.87704 -4.46587 0
M  V30 9138 H 833.061 -0.364749 -0.659905 0
M  V30 9139 H 835.712 -1.4247 -1.15649 0
M  V30 9140 H 834.094 -1.20025 -3.77373 0
M  V30 9141 H 835.268 -3.80611 -2.59753 0
M  V30 9142 H 833.583 -3.34772 -2.47622 0
M  V30 9143 H 836.18 -2.05232 -4.93745 0
M  V30 9144 H 836.523 -0.543534 -4.12736 0
M  V30 9145 H 837.056 -2.07564 -3.39355 0
M  V30 9146 H 833.795 -4.92437 -4.3265 0
M  V30 9147 H 833.315 -3.34172 -4.98085 0
M  V30 9148 H 834.994 -3.91008 -5.15482 0
M  V30 9149 N 835.127 1.22348 -0.993418 0
M  V30 9150 C 836.09 2.22522 -0.549251 0
M  V30 9151 C 837.09 1.56529 0.368164 0
M  V30 9152 O 838.28 1.73463 0.16005 0
M  V30 9153 C 835.412 3.40307 0.201037 0
M  V30 9154 H 836.605 2.63332 -1.43515 0
M  V30 9155 H 834.158 1.35407 -0.78068 0
M  V30 9156 H 834.893 3.0497 1.10289 0
M  V30 9157 H 834.678 3.8942 -0.457685 0
M  V30 9158 H 836.168 4.14597 0.499946 0
M  V30 9159 N 836.605 0.766683 1.37694 0
M  V30 9160 C 837.552 0.147725 2.30327 0
M  V30 9161 C 838.522 -0.695366 1.50844 0
M  V30 9162 O 839.707 -0.64878 1.79431 0
M  V30 9163 C 836.847 -0.72935 3.37305 0
M  V30 9164 C 835.96 0.129795 4.31805 0
M  V30 9165 C 835.095 -0.751511 5.25857 0
M  V30 9166 C 834.134 0.110475 6.12 0
M  V30 9167 N 833.271 -0.728522 6.9831 0
M  V30 9168 H 838.111 0.943204 2.82679 0
M  V30 9169 H 835.648 0.476736 1.3916 0
M  V30 9170 H 837.606 -1.25263 3.97951 0
M  V30 9171 H 836.236 -1.49048 2.86329 0
M  V30 9172 H 835.288 0.770829 3.72508 0
M  V30 9173 H 836.6 0.794923 4.92425 0
M  V30 9174 H 835.754 -1.34146 5.91684 0
M  V30 9175 H 834.493 -1.45034 4.65636 0
M  V30 9176 H 833.498 0.712999 5.45157 0
M  V30 9177 H 834.723 0.806557 6.74293 0
M  V30 9178 H 832.669 -1.41206 6.40622 0
M  V30 9179 H 832.586 -0.12058 7.55904 0
M  V30 9180 H 833.854 -1.30303 7.68532 0
M  V30 9181 N 838.083 -1.48885 0.516809 0
M  V30 9182 C 839.013 -2.32241 -0.242157 0
M  V30 9183 C 839.994 -1.41258 -0.947633 0
M  V30 9184 O 841.179 -1.70156 -0.935973 0
M  V30 9185 C 838.309 -3.22151 -1.29754 0
M  V30 9186 C 837.263 -4.22053 -0.710995 0
M  V30 9187 C 836.589 -5.01007 -1.86806 0
M  V30 9188 C 837.889 -5.21388 0.30853 0
M  V30 9189 H 839.583 -2.95943 0.453651 0
M  V30 9190 H 837.129 -1.42316 0.219612 0
M  V30 9191 H 839.082 -3.79284 -1.83634 0
M  V30 9192 H 837.806 -2.56423 -2.02274 0
M  V30 9193 H 836.465 -3.66087 -0.193819 0
M  V30 9194 H 836.113 -4.31713 -2.58133 0
M  V30 9195 H 835.813 -5.68615 -1.48159 0
M  V30 9196 H 837.337 -5.60989 -2.4109 0
M  V30 9197 H 838.751 -5.73122 -0.142703 0
M  V30 9198 H 837.148 -5.96975 0.611673 0
M  V30 9199 H 838.218 -4.69329 1.21894 0
M  V30 9200 N 839.561 -0.251338 -1.55583 0
M  V30 9201 C 840.508 0.646337 -2.21565 0
M  V30 9202 C 841.478 1.16796 -1.18102 0
M  V30 9203 O 842.663 1.22162 -1.46564 0
M  V30 9204 C 839.803 1.83557 -2.92234 0
M  V30 9205 C 838.916 1.35006 -4.10363 0
M  V30 9206 C 838.051 2.4992 -4.68736 0
M  V30 9207 C 837.09 1.98253 -5.79105 0
M  V30 9208 N 836.227 3.06551 -6.31642 0
M  V30 9209 H 841.067 0.0769881 -2.97901 0
M  V30 9210 H 838.604 0.026238 -1.47077 0
M  V30 9211 H 840.562 2.53425 -3.31408 0
M  V30 9212 H 839.192 2.37733 -2.18364 0
M  V30 9213 H 838.244 0.545274 -3.76472 0
M  V30 9214 H 839.556 0.931435 -4.90026 0
M  V30 9215 H 838.71 3.27823 -5.10507 0
M  V30 9216 H 837.449 2.95086 -3.88298 0
M  V30 9217 H 836.454 1.18822 -5.36807 0
M  V30 9218 H 837.679 1.54051 -6.61396 0
M  V30 9219 H 835.625 3.51143 -5.54107 0
M  V30 9220 H 835.542 2.69033 -7.06511 0
M  V30 9221 H 836.81 3.84499 -6.78071 0
M  V30 9222 N 841.039 1.57585 0.0217189 0
M  V30 9223 C 842.267 1.93871 0.722619 0
M  V30 9224 C 842.682 0.851706 1.68498 0
M  V30 9225 O 842.039 -0.17127 1.81695 0
M  V30 9226 C 842.09 3.30114 1.47333 0
M  V30 9227 O 841.811 4.34639 0.549597 0
M  V30 9228 C 843.312 3.80727 2.27072 0
M  V30 9229 H 840.532 0.639671 0.202637 0
M  V30 9230 H 843.076 2.04487 -0.0229414 0
M  V30 9231 H 841.231 3.20872 2.17071 0
M  V30 9232 H 841.645 5.13326 1.07686 0
M  V30 9233 H 843.119 4.78547 2.75131 0
M  V30 9234 H 843.596 3.12301 3.08812 0
M  V30 9235 H 844.202 3.93075 1.62395 0
M  V30 9236 N 842.517 -0.29412 1.54831 0
M  V30 9237 C 843.45 -1.38779 1.81151 0
M  V30 9238 C 844.428 -1.48464 0.663124 0
M  V30 9239 O 845.612 -1.65418 0.903835 0
M  V30 9240 C 842.739 -2.76627 1.95436 0
M  V30 9241 C 841.785 -2.84333 3.17895 0
M  V30 9242 S 842.618 -2.45726 4.75793 0
M  V30 9243 C 843.774 -3.85589 4.93023 0
M  V30 9244 H 844.007 -1.16246 2.73631 0
M  V30 9245 H 841.54 -0.492611 1.46331 0
M  V30 9246 H 843.498 -3.56021 2.04351 0
M  V30 9247 H 842.159 -2.96425 1.03881 0
M  V30 9248 H 841.352 -3.85457 3.24713 0
M  V30 9249 H 840.954 -2.1294 3.07461 0
M  V30 9250 H 843.246 -4.80656 4.77468 0
M  V30 9251 H 844.189 -3.83737 5.95107 0
M  V30 9252 H 844.597 -3.75911 4.21131 0
M  V30 9253 N 843.995 -1.47404 -0.557645 0
M  V30 9254 C 845.411 -1.32913 -0.88353 0
M  V30 9255 C 845.611 -0.31929 -1.98954 0
M  V30 9256 O 844.667 0.26934 -2.51059 0
M  V30 9257 C 845.98 -2.72229 -1.27718 0
M  V30 9258 C 847.528 -2.8051 -1.38863 0
M  V30 9259 C 848.003 -4.20466 -1.81583 0
M  V30 9260 N 849.494 -4.23005 -1.88735 0
M  V30 9261 C 850.229 -5.2821 -2.23118 0
M  V30 9262 N 849.725 -6.4372 -2.56117 0
M  V30 9263 N 851.518 -5.15588 -2.23888 0
M  V30 9264 H 843.669 -2.11698 0.172557 0
M  V30 9265 H 845.932 -0.947889 0.0145334 0
M  V30 9266 H 845.638 -3.47556 -0.538329 0
M  V30 9267 H 845.512 -3.03971 -2.23342 0
M  V30 9268 H 847.899 -2.05457 -2.11829 0
M  V30 9269 H 847.98 -2.52423 -0.414274 0
M  V30 9270 H 847.624 -4.96025 -1.09187 0
M  V30 9271 H 847.554 -4.45977 -2.80021 0
M  V30 9272 H 850.045 -3.39674 -1.65621 0
M  V30 9273 H 850.358 -7.19754 -2.81378 0
M  V30 9274 H 848.703 -6.47041 -2.53698 0
M  V30 9275 H 851.894 -4.24374 -1.97546 0
M  V30 9276 H 852.067 -5.97685 -2.50353 0
M  V30 9277 N 845.473 0.80434 -1.35529 0
M  V30 9278 C 846.405 1.92445 -1.2449 0
M  V30 9279 C 847.418 1.61934 -0.167685 0
M  V30 9280 O 848.607 1.73461 -0.42115 0
M  V30 9281 C 845.707 3.26875 -0.894751 0
M  V30 9282 C 844.88 3.85275 -2.07079 0
M  V30 9283 C 843.939 4.98116 -1.69607 0
M  V30 9284 O 842.965 5.15424 -2.41509 0
M  V30 9285 N 844.167 5.77169 -0.621012 0
M  V30 9286 H 846.932 2.02441 -2.20993 0
M  V30 9287 H 844.493 0.981874 -1.28728 0
M  V30 9288 H 846.485 3.99837 -0.625511 0
M  V30 9289 H 845.055 3.12594 -0.0193306 0
M  V30 9290 H 844.275 3.0448 -2.5037 0
M  V30 9291 H 845.563 4.21024 -2.85685 0
M  V30 9292 H 844.961 5.65695 -0.0236679 0
M  V30 9293 H 843.518 6.50499 -0.411558 0
M  V30 9294 N 846.951 1.19563 1.02676 0
M  V30 9295 C 847.861 0.950691 2.14474 0
M  V30 9296 C 848.877 -0.0900219 1.73767 0
M  V30 9297 O 850.053 0.0951063 2.01175 0
M  V30 9298 C 847.118 0.494917 3.43149 0
M  V30 9299 C 846.179 1.60527 3.98158 0
M  V30 9300 C 845.412 1.17115 5.20692 0
M  V30 9301 O 845.635 0.0355937 5.70389 0
M  V30 9302 O 844.569 1.97454 5.68591 0
M  V30 9303 H 848.395 1.88651 2.38001 0
M  V30 9304 H 845.98 0.978635 1.12885 0
M  V30 9305 H 847.862 0.249492 4.20661 0
M  V30 9306 H 846.537 -0.412434 3.21062 0
M  V30 9307 H 845.444 1.90487 3.21971 0
M  V30 9308 H 846.777 2.48925 4.24614 0
M  V30 9309 N 848.429 -1.21819 0.999893 0
M  V30 9310 C 849.706 -1.86318 0.595384 0
M  V30 9311 C 850.086 -1.8965 -0.927143 0
M  V30 9312 O 849.434 -1.3921 -1.81199 0
M  V30 9313 C 849.644 -3.26837 1.22387 0
M  V30 9314 C 850.992 -4.03272 1.32878 0
M  V30 9315 O 852.016 -3.36129 1.1788 0
M  V30 9316 O 850.875 -5.23477 1.56952 0
M  V30 9317 H 847.969 -0.801638 0.203238 0
M  V30 9318 H 850.515 -1.29542 1.09622 0
M  V30 9319 H 849.287 -3.19084 2.26497 0
M  V30 9320 H 848.91 -3.91226 0.709069 0
M  V30 9321 N 849.908 -0.773975 -1.37286 0
M  V30 9322 C 851.138 -0.350249 -2.03609 0
M  V30 9323 C 851.546 1.03313 -1.58502 0
M  V30 9324 O 850.889 1.67118 -0.7627 0
M  V30 9325 C 850.951 -0.317215 -3.58098 0
M  V30 9326 C 850.615 -1.64556 -4.26345 0
M  V30 9327 C 851.612 -2.59839 -4.50311 0
M  V30 9328 C 849.297 -1.92061 -4.64131 0
M  V30 9329 C 851.291 -3.80833 -5.11122 0
M  V30 9330 C 848.978 -3.13325 -5.24663 0
M  V30 9331 C 849.976 -4.0753 -5.48095 0
M  V30 9332 O 849.664 -5.26658 -6.0736 0
M  V30 9333 H 849.396 -0.144456 -0.660385 0
M  V30 9334 H 851.95 -1.0496 -1.76557 0
M  V30 9335 H 850.18 0.438528 -3.84205 0
M  V30 9336 H 851.869 0.0797428 -4.05822 0
M  V30 9337 H 852.635 -2.39872 -4.21529 0
M  V30 9338 H 848.514 -1.19562 -4.45226 0
M  V30 9339 H 852.058 -4.54377 -5.29327 0
M  V30 9340 H 847.955 -3.33177 -5.52869 0
M  V30 9341 H 848.723 -5.27513 -6.25837 0
M  V30 9342 N 851.386 1.48609 -0.524698 0
M  V30 9343 C 852.319 2.26374 0.288109 0
M  V30 9344 C 853.297 1.31997 0.949509 0
M  V30 9345 O 854.481 1.61329 0.974946 0
M  V30 9346 C 851.608 3.08065 1.4076 0
M  V30 9347 C 850.654 4.17777 0.858152 0
M  V30 9348 S 851.487 5.3482 -0.269827 0
M  V30 9349 C 852.643 6.2007 0.852266 0
M  V30 9350 H 852.876 2.94965 -0.371865 0
M  V30 9351 H 850.409 1.51248 -0.31039 0
M  V30 9352 H 852.367 3.5571 2.04892 0
M  V30 9353 H 851.028 2.38898 2.03928 0
M  V30 9354 H 850.221 4.74542 1.69783 0
M  V30 9355 H 849.823 3.72846 0.293627 0
M  V30 9356 H 852.115 6.54451 1.75213 0
M  V30 9357 H 853.058 7.07364 0.322717 0
M  V30 9358 H 853.466 5.53068 1.13029 0
M  V30 9359 N 852.864 0.259585 1.55447 0
M  V30 9360 C 853.811 -0.634578 2.21905 0
M  V30 9361 C 854.781 -1.16168 1.18719 0
M  V30 9362 O 855.966 -1.21383 1.4721 0
M  V30 9363 C 853.106 -1.82005 2.93203 0
M  V30 9364 C 852.219 -1.32828 4.11073 0
M  V30 9365 C 851.354 -2.47431 4.70055 0
M  V30 9366 C 850.393 -1.95179 5.80148 0
M  V30 9367 N 849.53 -3.03197 6.33258 0
M  V30 9368 H 854.37 -0.0611886 2.97937 0
M  V30 9369 H 851.907 -0.0184378 1.47088 0
M  V30 9370 H 853.865 -2.51664 3.32748 0
M  V30 9371 H 852.495 -2.36571 2.19622 0
M  V30 9372 H 851.547 -0.525301 3.76756 0
M  V30 9373 H 852.859 -0.905435 4.90513 0
M  V30 9374 H 852.013 -3.25111 5.12238 0
M  V30 9375 H 850.752 -2.93023 3.89857 0
M  V30 9376 H 849.757 -1.15974 5.37429 0
M  V30 9377 H 850.982 -1.50541 6.62204 0
M  V30 9378 H 848.928 -3.48199 5.55961 0
M  V30 9379 H 848.845 -2.65282 7.07928 0
M  V30 9380 H 850.113 -3.80898 6.80101 0
M  V30 9381 N 854.342 -1.57594 -0.0133615 0
M  V30 9382 C 855.57 -1.94251 -0.712328 0
M  V30 9383 C 855.985 -0.86063 -1.68043 0
M  V30 9384 O 855.342 0.161632 -1.81783 0
M  V30 9385 C 855.393 -3.30891 -1.45581 0
M  V30 9386 O 855.114 -4.34924 -0.526539 0
M  V30 9387 C 856.615 -3.81926 -2.2505 0
M  V30 9388 H 853.835 -0.640737 -0.199241 0
M  V30 9389 H 856.379 -2.04472 0.0337855 0
M  V30 9390 H 854.534 -3.22019 -2.15366 0
M  V30 9391 H 854.948 -5.1389 -1.04962 0
M  V30 9392 H 856.422 -4.79999 -2.72589 0
M  V30 9393 H 856.899 -3.13934 -3.07152 0
M  V30 9394 H 857.505 -3.93931 -1.60308 0
M  V30 9395 N 855.82 0.285905 -1.54985 0
M  V30 9396 C 857.069 1.01691 -1.74189 0
M  V30 9397 C 857.382 1.87908 -0.543135 0
M  V30 9398 O 858.588 2.64389 -0.617305 0
M  V30 9399 C 857.044 1.85785 -3.0824 0
M  V30 9400 C 856.652 1.04497 -4.35642 0
M  V30 9401 C 858.396 2.58393 -3.36798 0
M  V30 9402 C 856.303 1.87955 -5.60738 0
M  V30 9403 H 855.233 0.383396 -0.649248 0
M  V30 9404 H 857.884 0.27317 -1.81455 0
M  V30 9405 H 856.266 2.64205 -2.94978 0
M  V30 9406 H 857.44 0.305847 -4.59784 0
M  V30 9407 H 855.755 0.434023 -4.14132 0
M  V30 9408 H 858.352 3.21214 -4.27464 0
M  V30 9409 H 858.695 3.28011 -2.56349 0
M  V30 9410 H 859.228 1.87012 -3.511 0
M  V30 9411 H 855.967 1.22781 -6.43898 0
M  V30 9412 H 855.487 2.59499 -5.40759 0
M  V30 9413 H 857.166 2.45636 -5.98558 0
M  V30 9414 N 857.298 1.47698 0.54982 0
M  V30 9415 C 858.261 1.60282 1.63837 0
M  V30 9416 C 859.261 0.477394 1.5355 0
M  V30 9417 O 860.451 0.742665 1.57576 0
M  V30 9418 C 857.583 1.55431 3.03404 0
M  V30 9419 H 858.776 2.57325 1.54026 0
M  V30 9420 H 856.329 1.35999 0.770329 0
M  V30 9421 H 857.064 0.597912 3.1874 0
M  V30 9422 H 856.849 2.37116 3.12279 0
M  V30 9423 H 858.339 1.6739 3.82584 0
M  V30 9424 N 858.776 -0.797141 1.35954 0
M  V30 9425 C 860.053 -1.54224 1.2031 0
M  V30 9426 C 860.433 -2.10013 -0.213926 0
M  V30 9427 O 859.781 -1.93292 -1.21862 0
M  V30 9428 C 859.991 -2.6433 2.27883 0
M  V30 9429 C 861.339 -3.32418 2.64165 0
M  V30 9430 O 862.363 -2.74607 2.26868 0
M  V30 9431 O 861.222 -4.36876 3.28331 0
M  V30 9432 H 858.316 -0.681857 0.467974 0
M  V30 9433 H 860.862 -0.836288 1.47663 0
M  V30 9434 H 859.634 -2.21044 3.22885 0
M  V30 9435 H 859.257 -3.42551 2.01853 0
M  V30 9436 N 860.254 -1.20106 -1.0204 0
M  V30 9437 C 861.184 -0.970301 -2.12385 0
M  V30 9438 C 862.165 0.099378 -1.69809 0
M  V30 9439 O 863.35 -0.057365 -1.94115 0
M  V30 9440 C 860.48 -0.517431 -3.43424 0
M  V30 9441 C 859.434 -1.52992 -3.99722 0
M  V30 9442 C 858.76 -0.933817 -5.26483 0
M  V30 9443 C 860.06 -2.91257 -4.33551 0
M  V30 9444 H 861.754 -1.89316 -2.31948 0
M  V30 9445 H 859.3 -0.911655 -1.11467 0
M  V30 9446 H 861.253 -0.343243 -4.2 0
M  V30 9447 H 859.977 0.441049 -3.23608 0
M  V30 9448 H 858.636 -1.6914 -3.2525 0
M  V30 9449 H 858.284 0.0324763 -5.0299 0
M  V30 9450 H 857.984 -1.60999 -5.65113 0
M  V30 9451 H 859.508 -0.770614 -6.05718 0
M  V30 9452 H 860.922 -2.78642 -5.0103 0
M  V30 9453 H 859.319 -3.55745 -4.83286 0
M  V30 9454 H 860.389 -3.43269 -3.42483 0
M  V30 9455 N 861.732 1.21287 -1.00634 0
M  V30 9456 C 862.642 2.27388 -0.577226 0
M  V30 9457 C 863.658 1.69791 0.380399 0
M  V30 9458 O 864.834 1.99918 0.2439 0
M  V30 9459 C 861.899 3.46588 0.0880532 0
M  V30 9460 C 860.96 4.19453 -0.914222 0
M  V30 9461 C 860.193 5.32962 -0.280596 0
M  V30 9462 O 860.416 5.62895 0.922265 0
M  V30 9463 O 859.35 5.93666 -0.992196 0
M  V30 9464 H 863.176 2.66289 -1.46028 0
M  V30 9465 H 860.761 1.2771 -0.775283 0
M  V30 9466 H 862.643 4.18881 0.460094 0
M  V30 9467 H 861.318 3.09585 0.945461 0
M  V30 9468 H 860.225 3.49376 -1.33744 0
M  V30 9469 H 861.558 4.6037 -1.74126 0
M  V30 9470 N 863.21 0.781244 1.36873 0
M  V30 9471 C 864.14 0.188128 2.32741 0
M  V30 9472 C 865.121 -0.672326 1.56249 0
M  V30 9473 O 866.306 -0.607835 1.84442 0
M  V30 9474 C 863.436 -0.684341 3.40491 0
M  V30 9475 C 862.39 0.0755641 4.27933 0
M  V30 9476 C 861.716 -0.916968 5.26779 0
M  V30 9477 C 863.016 1.26006 5.06873 0
M  V30 9478 H 864.71 0.989016 2.82593 0
M  V30 9479 H 862.256 0.477038 1.35869 0
M  V30 9480 H 864.209 -1.10915 4.06541 0
M  V30 9481 H 862.933 -1.51785 2.89187 0
M  V30 9482 H 861.592 0.481258 3.63427 0
M  V30 9483 H 861.24 -1.74528 4.71751 0
M  V30 9484 H 860.94 -0.413 5.86147 0
M  V30 9485 H 862.464 -1.34052 5.95703 0
M  V30 9486 H 863.878 0.911425 5.66009 0
M  V30 9487 H 862.275 1.69676 5.75613 0
M  V30 9488 H 863.345 2.05948 4.38991 0
M  V30 9489 N 864.689 -1.48329 0.532571 0
M  V30 9490 C 865.639 -2.2664 -0.24868 0
M  V30 9491 C 866.623 -1.32861 -0.907563 0
M  V30 9492 O 867.815 -1.57382 -0.809942 0
M  V30 9493 C 864.944 -3.18004 -1.29339 0
M  V30 9494 C 864.03 -4.19256 -0.639166 0
M  V30 9495 N 864.421 -5.05043 0.276597 0
M  V30 9496 C 862.719 -4.36906 -0.896062 0
M  V30 9497 C 863.42 -5.78009 0.654261 0
M  V30 9498 N 862.396 -5.43598 0.0147447 0
M  V30 9499 H 866.198 -2.90344 0.455792 0
M  V30 9500 H 863.712 -1.58566 0.350778 0
M  V30 9501 H 865.709 -3.72767 -1.86682 0
M  V30 9502 H 864.369 -2.55855 -1.99921 0
M  V30 9503 H 865.38 -5.13813 0.649351 0
M  V30 9504 H 862.057 -3.85945 -1.59226 0
M  V30 9505 H 863.447 -6.57039 1.40532 0
M  V30 9506 N 866.167 -0.267825 -1.55308 0
M  V30 9507 C 867.397 0.354073 -2.03543 0
M  V30 9508 C 867.805 1.50554 -1.14586 0
M  V30 9509 O 867.148 1.83028 -0.156991 0
M  V30 9510 C 867.21 0.904148 -3.47945 0
M  V30 9511 C 866.874 -0.11775 -4.56848 0
M  V30 9512 C 867.871 -0.934707 -5.11429 0
M  V30 9513 C 865.556 -0.249885 -5.01678 0
M  V30 9514 C 867.55 -1.87005 -6.0935 0
M  V30 9515 C 865.237 -1.18872 -5.99427 0
M  V30 9516 C 866.235 -1.99731 -6.53144 0
M  V30 9517 O 865.923 -2.92028 -7.48983 0
M  V30 9518 H 865.655 0.0857765 -0.670536 0
M  V30 9519 H 868.209 -0.395515 -2.01556 0
M  V30 9520 H 866.439 1.70368 -3.47148 0
M  V30 9521 H 868.128 1.43835 -3.79561 0
M  V30 9522 H 868.894 -0.84332 -4.77612 0
M  V30 9523 H 864.773 0.369469 -4.59517 0
M  V30 9524 H 868.317 -2.5016 -6.51203 0
M  V30 9525 H 864.214 -1.28095 -6.32663 0
M  V30 9526 H 864.982 -2.86627 -7.66673 0
M  V30 9527 N 867.645 1.57599 0.00500368 0
M  V30 9528 C 868.577 2.04949 1.02609 0
M  V30 9529 C 869.59 0.966507 1.31006 0
M  V30 9530 O 870.779 1.2434 1.2807 0
M  V30 9531 C 867.879 2.43023 2.36206 0
M  V30 9532 C 867.052 3.73993 2.26821 0
M  V30 9533 C 866.111 3.9899 3.43065 0
M  V30 9534 O 865.137 4.69725 3.21477 0
M  V30 9535 N 866.339 3.46496 4.65748 0
M  V30 9536 H 869.104 2.93167 0.622336 0
M  V30 9537 H 866.665 1.60752 0.192488 0
M  V30 9538 H 868.657 2.56863 3.12735 0
M  V30 9539 H 867.227 1.60349 2.68341 0
M  V30 9540 H 866.447 3.70277 1.35235 0
M  V30 9541 H 867.735 4.59865 2.17719 0
M  V30 9542 H 867.133 2.89206 4.86186 0
M  V30 9543 H 865.69 3.65675 5.3956 0
M  V30 9544 N 869.123 -0.277682 1.55134 0
M  V30 9545 C 870.033 -1.36524 1.90783 0
M  V30 9546 C 871.049 -1.54283 0.804542 0
M  V30 9547 O 872.225 -1.68499 1.10318 0
M  V30 9548 C 869.29 -2.70524 2.16835 0
M  V30 9549 C 868.351 -2.61552 3.40424 0
M  V30 9550 C 867.584 -3.89162 3.65224 0
M  V30 9551 O 867.807 -4.89624 2.92616 0
M  V30 9552 O 866.741 -3.89647 4.58758 0
M  V30 9553 H 870.567 -1.0929 2.83354 0
M  V30 9554 H 868.152 -0.475799 1.41621 0
M  V30 9555 H 870.034 -3.49765 2.35038 0
M  V30 9556 H 868.709 -2.97555 1.27448 0
M  V30 9557 H 867.616 -1.80704 3.27562 0
M  V30 9558 H 868.949 -2.39472 4.30016 0
M  V30 9559 N 870.601 -1.47988 -0.541979 0
M  V30 9560 C 871.848 -1.55393 -1.29843 0
M  V30 9561 C 872.176 -0.222668 -1.93221 0
M  V30 9562 O 871.431 0.785936 -1.79225 0
M  V30 9563 C 871.73 -2.63189 -2.41798 0
M  V30 9564 C 871.396 -4.05999 -1.96151 0
M  V30 9565 C 870.058 -4.44872 -1.83419 0
M  V30 9566 C 872.41 -4.95545 -1.61507 0
M  V30 9567 C 869.738 -5.71108 -1.34361 0
M  V30 9568 C 872.09 -6.22259 -1.13915 0
M  V30 9569 C 870.754 -6.59998 -0.997911 0
M  V30 9570 H 870.024 -0.568623 -0.47513 0
M  V30 9571 H 872.671 -1.81654 -0.606142 0
M  V30 9572 H 870.976 -2.30743 -3.16647 0
M  V30 9573 H 872.673 -2.66138 -2.99953 0
M  V30 9574 H 869.263 -3.75294 -2.07008 0
M  V30 9575 H 873.447 -4.662 -1.70209 0
M  V30 9576 H 868.703 -5.99083 -1.22103 0
M  V30 9577 H 872.877 -6.91048 -0.861755 0
M  V30 9578 H 870.504 -7.57704 -0.615561 0
M  V30 9579 N 872.079 0.78992 -1.36375 0
M  V30 9580 C 873.328 1.54296 -1.29906 0
M  V30 9581 C 873.641 1.95234 0.119651 0
M  V30 9582 O 874.847 2.69762 0.306708 0
M  V30 9583 C 873.303 2.78533 -2.27919 0
M  V30 9584 C 872.911 2.44767 -3.75224 0
M  V30 9585 C 874.655 3.56516 -2.30427 0
M  V30 9586 C 872.562 3.65397 -4.65015 0
M  V30 9587 H 871.492 0.579214 -0.482729 0
M  V30 9588 H 874.143 0.866845 -1.61735 0
M  V30 9589 H 872.525 3.47941 -1.89084 0
M  V30 9590 H 873.699 1.83259 -4.22792 0
M  V30 9591 H 872.014 1.79996 -3.75487 0
M  V30 9592 H 874.611 4.46143 -2.94722 0
M  V30 9593 H 874.954 3.95063 -1.31266 0
M  V30 9594 H 875.487 2.94087 -2.67876 0
M  V30 9595 H 872.226 3.31946 -5.65236 0
M  V30 9596 H 871.746 4.26072 -4.22164 0
M  V30 9597 H 873.425 4.32431 -4.81261 0
M  V30 9598 N 873.557 1.20646 1.01402 0
M  V30 9599 C 874.973 0.961866 1.27359 0
M  V30 9600 C 875.173 -0.357083 1.98311 0
M  V30 9601 O 874.229 -1.08498 2.28001 0
M  V30 9602 C 875.542 2.14627 2.10609 0
M  V30 9603 C 877.09 2.18753 2.23866 0
M  V30 9604 C 877.565 3.36686 3.10494 0
M  V30 9605 N 879.056 3.36716 3.18083 0
M  V30 9606 C 879.791 4.24615 3.85343 0
M  V30 9607 N 879.287 5.22697 4.54708 0
M  V30 9608 N 881.08 4.12449 3.81893 0
M  V30 9609 H 873.231 2.05481 0.537721 0
M  V30 9610 H 875.494 0.899292 0.299963 0
M  V30 9611 H 875.2 3.10159 1.65814 0
M  V30 9612 H 875.074 2.12935 3.11349 0
M  V30 9613 H 877.461 1.23782 2.67885 0
M  V30 9614 H 877.542 2.24492 1.22626 0
M  V30 9615 H 877.186 4.31945 2.67181 0
M  V30 9616 H 877.116 3.28185 4.11828 0
M  V30 9617 H 879.607 2.65728 2.68695 0
M  V30 9618 H 879.92 5.86087 5.03708 0
M  V30 9619 H 878.265 5.26631 4.53525 0
M  V30 9620 H 881.456 3.35091 3.26851 0
M  V30 9621 H 881.629 4.81162 4.34035 0
M  V30 9622 N 875.035 -1.20752 1.01276 0
M  V30 9623 C 875.983 -2.25432 0.572989 0
M  V30 9624 C 876.977 -1.64935 -0.386354 0
M  V30 9625 O 878.183 -1.7816 -0.256696 0
M  V30 9626 H 874.558 -0.733229 0.166972 0
M  V30 9627 H 876.529 -2.59856 1.46687 0
M  V30 9628 C 875.278 -3.47615 -0.0768249 0
M  V30 9629 H 874.601 -3.94442 0.652354 0
M  V30 9630 H 876.041 -4.22572 -0.3477 0
M  V30 9631 C 874.5 -3.1003 -1.31845 0
M  V30 9632 O 875.03 -3.21216 -2.41211 0
M  V30 9633 N 873.236 -2.64616 -1.20111 0
M  V30 9634 H 872.783 -2.55714 -0.311184 0
M  V30 9635 H 872.741 -2.39838 -2.03286 0
M  V30 9636 N 876.513 -0.788492 -1.36457 0
M  V30 9637 C 877.738 -0.371224 -2.04051 0
M  V30 9638 C 878.163 1.004 -1.59064 0
M  V30 9639 O 877.521 1.64663 -0.758679 0
M  V30 9640 C 877.569 -0.442275 -3.57877 0
M  V30 9641 O 876.673 0.55113 -4.08701 0
M  V30 9642 H 876.014 -0.157808 -0.644975 0
M  V30 9643 H 878.544 -1.06935 -1.74431 0
M  V30 9644 H 878.554 -0.305548 -4.06854 0
M  V30 9645 H 877.229 -1.44547 -3.89973 0
M  V30 9646 H 875.806 0.37614 -3.70998 0
M  V30 9647 N 877.991 1.48044 -0.54043 0
M  V30 9648 C 878.923 2.2779 0.253854 0
M  V30 9649 C 879.936 1.35999 0.894883 0
M  V30 9650 O 881.125 1.60963 0.771563 0
M  V30 9651 C 878.225 3.09724 1.37566 0
M  V30 9652 C 877.398 4.29364 0.83459 0
M  V30 9653 C 876.457 4.93026 1.83881 0
M  V30 9654 O 875.483 5.51927 1.39159 0
M  V30 9655 N 876.685 4.86207 3.17149 0
M  V30 9656 H 879.45 2.96597 -0.430125 0
M  V30 9657 H 877.011 1.57487 -0.375423 0
M  V30 9658 H 879.003 3.49181 2.04584 0
M  V30 9659 H 877.573 2.43269 1.96314 0
M  V30 9660 H 876.793 3.94198 -0.0118878 0
M  V30 9661 H 878.081 5.06787 0.452155 0
M  V30 9662 H 877.479 4.39523 3.56141 0
M  V30 9663 H 876.036 5.29733 3.79771 0
M  V30 9664 N 879.47 0.276058 1.55163 0
M  V30 9665 C 880.718 -0.339782 1.99223 0
M  V30 9666 C 881.039 -1.56307 1.16589 0
M  V30 9667 O 880.309 -1.94225 0.25564 0
M  V30 9668 H 878.889 -0.128534 0.735859 0
M  V30 9669 H 881.551 0.381612 1.91128 0
M  V30 9670 H 880.647 -0.629 3.05696 0
M  V30 9671 N 880.948 -1.576 0.00335426 0
M  V30 9672 C 882.173 -1.95398 -0.695311 0
M  V30 9673 C 882.598 -0.878476 -1.66326 0
M  V30 9674 O 881.956 0.163086 -1.80565 0
M  V30 9675 C 882.004 -3.32293 -1.40049 0
M  V30 9676 O 881.108 -3.26834 -2.51502 0
M  V30 9677 H 880.449 -0.637796 -0.184694 0
M  V30 9678 H 882.979 -2.04519 0.057543 0
M  V30 9679 H 882.989 -3.67936 -1.76316 0
M  V30 9680 H 881.664 -4.10123 -0.690803 0
M  V30 9681 H 880.241 -3.02872 -2.17539 0
M  V30 9682 N 882.426 0.269451 -1.5528 0
M  V30 9683 C 883.336 1.35511 -1.91505 0
M  V30 9684 C 884.352 1.53854 -0.812712 0
M  V30 9685 O 885.528 1.67912 -1.1121 0
M  V30 9686 C 882.593 2.6937 -2.18267 0
M  V30 9687 C 881.654 2.59743 -3.41807 0
M  V30 9688 C 880.887 3.87219 -3.67283 0
M  V30 9689 O 881.11 4.88066 -2.95208 0
M  V30 9690 O 880.044 3.87209 -4.60818 0
M  V30 9691 H 883.87 1.07785 -2.8393 0
M  V30 9692 H 881.455 0.468282 -1.41871 0
M  V30 9693 H 883.337 3.48513 -2.36889 0
M  V30 9694 H 882.012 2.96874 -1.29024 0
M  V30 9695 H 880.919 1.78964 -3.28516 0
M  V30 9696 H 882.252 2.37188 -4.3128 0
M  V30 9697 N 883.904 1.48273 0.534124 0
M  V30 9698 C 884.837 1.57053 1.65559 0
M  V30 9699 C 885.815 0.421213 1.5705 0
M  V30 9700 O 886.999 0.632242 1.77581 0
M  V30 9701 C 884.126 1.49465 3.03937 0
M  V30 9702 C 883.172 2.69186 3.30819 0
M  V30 9703 S 884.005 4.31192 3.17543 0
M  V30 9704 C 885.161 4.26197 4.58375 0
M  V30 9705 H 885.394 2.51927 1.57861 0
M  V30 9706 H 882.927 1.36755 0.716763 0
M  V30 9707 H 884.885 1.45775 3.83745 0
M  V30 9708 H 883.546 0.559357 3.09079 0
M  V30 9709 H 882.739 2.60005 4.31756 0
M  V30 9710 H 882.341 2.70118 2.58674 0
M  V30 9711 H 884.633 3.95874 5.49809 0
M  V30 9712 H 885.576 5.27299 4.72611 0
M  V30 9713 H 885.984 3.56723 4.37503 0
M  V30 9714 N 885.382 -0.782676 1.36792 0
M  V30 9715 C 886.629 -1.54083 1.31395 0
M  V30 9716 C 886.957 -1.94217 -0.104797 0
M  V30 9717 O 886.212 -1.63491 -1.0756 0
M  V30 9718 C 886.511 -2.82542 2.18872 0
M  V30 9719 C 886.177 -2.61512 3.67317 0
M  V30 9720 C 884.839 -2.55486 4.07775 0
M  V30 9721 C 887.191 -2.42389 4.61407 0
M  V30 9722 C 884.519 -2.28311 5.40454 0
M  V30 9723 C 886.871 -2.1674 5.94312 0
M  V30 9724 C 885.535 -2.09151 6.33887 0
M  V30 9725 H 884.805 -0.563829 0.48081 0
M  V30 9726 H 887.452 -0.902436 1.68903 0
M  V30 9727 H 885.757 -3.50883 1.74323 0
M  V30 9728 H 887.454 -3.40367 2.12017 0
M  V30 9729 H 884.044 -2.67062 3.35225 0
M  V30 9730 H 888.228 -2.46043 4.31018 0
M  V30 9731 H 883.484 -2.20922 5.70091 0
M  V30 9732 H 887.658 -2.0094 6.6678 0
M  V30 9733 H 885.285 -1.87857 7.36623 0
M  V30 9734 N 886.86 -1.21182 -1.00761 0
M  V30 9735 C 888.108 -1.02543 -1.74153 0
M  V30 9736 C 888.429 0.442372 -1.89916 0
M  V30 9737 O 887.699 1.31927 -1.44818 0
M  V30 9738 H 886.279 -0.37644 -0.645214 0
M  V30 9739 H 888.941 -1.52446 -1.21434 0
M  V30 9740 H 888.037 -1.49122 -2.7417 0
M  V30 9741 N 888.338 1.20213 -1.01915 0
M  V30 9742 C 889.615 1.85348 -0.62495 0
M  V30 9743 C 889.995 1.91101 0.896854 0
M  V30 9744 O 889.343 1.42075 1.78961 0
M  V30 9745 C 889.553 3.24849 -1.27571 0
M  V30 9746 C 890.901 4.01107 -1.39277 0
M  V30 9747 O 891.925 3.34211 -1.23212 0
M  V30 9748 O 890.784 5.20914 -1.6526 0
M  V30 9749 H 887.878 0.798303 -0.215965 0
M  V30 9750 H 890.424 1.27782 -1.11669 0
M  V30 9751 H 889.196 3.1544 -2.31545 0
M  V30 9752 H 888.819 3.90049 -0.77122 0
M  V30 9753 N 889.816 0.795718 1.36037 0
M  V30 9754 C 891.093 0.294743 1.93367 0
M  V30 9755 C 891.473 -1.21406 1.72696 0
M  V30 9756 O 890.821 -2.00849 1.08959 0
M  V30 9757 C 891.031 0.694254 3.42025 0
M  V30 9758 C 892.379 0.677566 4.19159 0
M  V30 9759 O 893.403 0.635119 3.50492 0
M  V30 9760 O 892.262 0.726127 5.41655 0
M  V30 9761 H 889.356 0.0745459 0.823633 0
M  V30 9762 H 891.902 0.878685 1.4518 0
M  V30 9763 H 890.674 1.73458 3.50753 0
M  V30 9764 H 890.297 0.0845338 3.9751 0
M  V30 9765 N 891.294 -1.47756 0.548274 0
M  V30 9766 C 892.571 -1.9555 -0.0443603 0
M  V30 9767 C 892.951 -1.49079 -1.49462 0
M  V30 9768 O 892.299 -0.725538 -2.16675 0
M  V30 9769 C 892.509 -3.48879 0.0918425 0
M  V30 9770 C 893.857 -4.2456 -0.0580879 0
M  V30 9771 O 894.881 -3.56195 0.018946 0
M  V30 9772 O 893.74 -5.46048 -0.222261 0
M  V30 9773 H 890.834 -0.824106 -0.0691235 0
M  V30 9774 H 893.38 -1.58196 0.614166 0
M  V30 9775 H 892.152 -3.7548 1.10137 0
M  V30 9776 H 891.775 -3.92975 -0.604704 0
M  V30 9777 N 892.772 -0.284283 -1.55015 0
M  V30 9778 C 893.719 0.599194 -2.22886 0
M  V30 9779 C 894.689 1.14264 -1.20553 0
M  V30 9780 O 895.874 1.19025 -1.49123 0
M  V30 9781 C 893.014 1.77317 -2.96062 0
M  V30 9782 C 892.127 1.26271 -4.13134 0
M  V30 9783 C 891.262 2.39922 -4.73931 0
M  V30 9784 C 890.301 1.85925 -5.8318 0
M  V30 9785 N 889.438 2.93084 -6.38002 0
M  V30 9786 H 894.278 0.0137816 -2.97997 0
M  V30 9787 H 891.815 -0.00496503 -1.47099 0
M  V30 9788 H 893.773 2.46339 -3.36709 0
M  V30 9789 H 892.403 2.33047 -2.23358 0
M  V30 9790 H 891.455 0.465296 -3.77544 0
M  V30 9791 H 892.767 0.827284 -4.91892 0
M  V30 9792 H 891.921 3.1692 -5.17346 0
M  V30 9793 H 890.66 2.86784 -3.9447 0
M  V30 9794 H 889.665 1.07409 -5.39206 0
M  V30 9795 H 890.89 1.39987 -6.64515 0
M  V30 9796 H 888.836 3.3931 -5.61431 0
M  V30 9797 H 888.753 2.53986 -7.12058 0
M  V30 9798 H 890.021 3.7003 -6.86075 0
M  V30 9799 N 894.251 1.57596 -0.0117121 0
M  V30 9800 C 895.667 1.55837 0.344506 0
M  V30 9801 C 895.867 1.01557 1.74036 0
M  V30 9802 O 894.923 0.654563 2.43868 0
M  V30 9803 C 896.236 2.99973 0.209023 0
M  V30 9804 C 897.784 3.11717 0.283092 0
M  V30 9805 C 898.259 4.57659 0.176599 0
M  V30 9806 N 899.75 4.62608 0.234133 0
M  V30 9807 C 900.485 5.73132 0.175252 0
M  V30 9808 N 899.981 6.92768 0.0662888 0
M  V30 9809 N 901.774 5.61638 0.227972 0
M  V30 9810 H 893.925 1.91215 -0.924692 0
M  V30 9811 H 896.188 0.878807 -0.355531 0
M  V30 9812 H 895.894 3.4357 -0.751826 0
M  V30 9813 H 895.768 3.64075 0.98635 0
M  V30 9814 H 898.155 2.68043 1.23439 0
M  V30 9815 H 898.236 2.50369 -0.52431 0
M  V30 9816 H 897.88 5.02011 -0.771205 0
M  V30 9817 H 897.81 5.16967 1.00264 0
M  V30 9818 H 900.301 3.76549 0.319203 0
M  V30 9819 H 900.614 7.72795 0.0275765 0
M  V30 9820 H 898.959 6.94993 0.0317502 0
M  V30 9821 H 902.15 4.67063 0.311377 0
M  V30 9822 H 902.323 6.47754 0.178621 0
M  V30 9823 N 895.729 -0.261212 1.5542 0
M  V30 9824 C 896.676 -1.32315 1.89107 0
M  V30 9825 C 897.646 -1.48517 0.743767 0
M  V30 9826 O 898.831 -1.62733 0.996123 0
M  V30 9827 C 895.971 -2.67626 2.17877 0
M  V30 9828 C 895.084 -2.59549 3.45338 0
M  V30 9829 C 894.219 -3.87118 3.63748 0
M  V30 9830 C 893.258 -3.736 4.8486 0
M  V30 9831 N 892.395 -4.93029 4.99867 0
M  V30 9832 H 897.235 -1.02886 2.79675 0
M  V30 9833 H 894.772 -0.496812 1.38456 0
M  V30 9834 H 896.73 -3.4637 2.32559 0
M  V30 9835 H 895.36 -2.95232 1.30529 0
M  V30 9836 H 894.412 -1.72452 3.39064 0
M  V30 9837 H 895.724 -2.45465 4.34222 0
M  V30 9838 H 894.878 -4.74305 3.78312 0
M  V30 9839 H 893.617 -4.04084 2.73071 0
M  V30 9840 H 892.622 -2.84797 4.70288 0
M  V30 9841 H 893.847 -3.58143 5.76984 0
M  V30 9842 H 891.793 -5.10383 4.12123 0
M  V30 9843 H 891.71 -4.81521 5.82815 0
M  V30 9844 H 892.978 -5.81754 5.18828 0
M  V30 9845 N 897.207 -1.48554 -0.526253 0
M  V30 9846 C 898.456 -1.56014 -1.27837 0
M  V30 9847 C 898.769 -0.240643 -1.94114 0
M  V30 9848 O 899.975 -0.193525 -2.70809 0
M  V30 9849 C 898.431 -2.75161 -2.31979 0
M  V30 9850 C 898.039 -4.13768 -1.71755 0
M  V30 9851 C 899.783 -2.91936 -3.08178 0
M  V30 9852 C 897.69 -5.24171 -2.7386 0
M  V30 9853 H 896.62 -0.58082 -0.480795 0
M  V30 9854 H 899.271 -1.74895 -0.555335 0
M  V30 9855 H 897.653 -2.49722 -3.07335 0
M  V30 9856 H 898.827 -4.49241 -1.02563 0
M  V30 9857 H 897.142 -4.02141 -1.08036 0
M  V30 9858 H 899.739 -3.71586 -3.84484 0
M  V30 9859 H 900.082 -2.01533 -3.64267 0
M  V30 9860 H 900.615 -3.17294 -2.39937 0
M  V30 9861 H 897.354 -6.16552 -2.22586 0
M  V30 9862 H 896.874 -4.93181 -3.41368 0
M  V30 9863 H 898.553 -5.52442 -3.36774 0
M  V30 9864 N 898.685 0.775411 -1.37205 0
M  V30 9865 C 899.617 1.89761 -1.28544 0
M  V30 9866 C 900.63 1.61542 -0.201996 0
M  V30 9867 O 901.819 1.72528 -0.457848 0
M  V30 9868 C 898.919 3.24904 -0.963885 0
M  V30 9869 C 898.092 3.80796 -2.15205 0
M  V30 9870 C 897.151 4.94407 -1.80135 0
M  V30 9871 O 896.177 5.10185 -2.52388 0
M  V30 9872 N 897.379 5.75722 -0.743298 0
M  V30 9873 H 900.144 1.97708 -2.25237 0
M  V30 9874 H 897.705 0.954348 -1.30782 0
M  V30 9875 H 899.697 3.9842 -0.710182 0
M  V30 9876 H 898.267 3.12483 -0.085632 0
M  V30 9877 H 897.487 2.99101 -2.56773 0
M  V30 9878 H 898.775 4.1487 -2.94552 0
M  V30 9879 H 898.173 5.65518 -0.143655 0
M  V30 9880 H 896.73 6.4948 -0.549446 0
M  V30 9881 N 900.163 1.21714 1.00117 0
M  V30 9882 C 901.388 1.06357 1.78054 0
M  V30 9883 C 901.813 -0.382075 1.84179 0
M  V30 9884 O 901.171 -1.27575 1.28819 0
M  V30 9885 C 901.219 1.66982 3.19608 0
M  V30 9886 O 900.323 0.917892 4.02055 0
M  V30 9887 H 899.664 0.374074 0.548602 0
M  V30 9888 H 902.194 1.61338 1.25822 0
M  V30 9889 H 902.204 1.71363 3.70268 0
M  V30 9890 H 900.879 2.72185 3.14465 0
M  V30 9891 H 899.456 0.949473 3.6061 0
M  V30 9892 N 901.641 -1.19671 1.02551 0
M  V30 9893 C 902.573 -2.22215 0.561517 0
M  V30 9894 C 903.586 -1.58751 -0.360821 0
M  V30 9895 O 904.775 -1.77802 -0.157749 0
M  V30 9896 C 901.875 -3.383 -0.201494 0
M  V30 9897 C 901.048 -4.3135 0.724952 0
M  V30 9898 C 900.107 -5.26199 0.00794334 0
M  V30 9899 O 899.133 -5.65665 0.633398 0
M  V30 9900 N 900.335 -5.66573 -1.26394 0
M  V30 9901 H 903.1 -2.6265 1.44343 0
M  V30 9902 H 900.661 -1.34303 0.904122 0
M  V30 9903 H 902.653 -3.98764 -0.690625 0
M  V30 9904 H 901.223 -2.96683 -0.98479 0
M  V30 9905 H 900.443 -3.6872 1.39423 0
M  V30 9906 H 901.731 -4.90433 1.35472 0
M  V30 9907 H 901.129 -5.36538 -1.79287 0
M  V30 9908 H 899.686 -6.29304 -1.69763 0
M  V30 9909 N 903.119 -0.802921 -1.35613 0
M  V30 9910 C 904.366 -0.381576 -1.98872 0
M  V30 9911 C 904.694 1.0503 -1.63704 0
M  V30 9912 O 903.949 1.7427 -0.890418 0
M  V30 9913 C 904.248 -0.507806 -3.53774 0
M  V30 9914 C 903.914 -1.90245 -4.088 0
M  V30 9915 C 902.576 -2.28401 -4.2354 0
M  V30 9916 C 904.928 -2.81504 -4.3864 0
M  V30 9917 C 902.256 -3.57192 -4.65436 0
M  V30 9918 C 904.608 -4.09737 -4.81973 0
M  V30 9919 C 903.272 -4.47897 -4.94919 0
M  V30 9920 H 902.542 -0.139629 -0.727726 0
M  V30 9921 H 905.189 -1.023 -1.61886 0
M  V30 9922 H 903.494 0.21708 -3.91198 0
M  V30 9923 H 905.191 -0.162625 -4.0067 0
M  V30 9924 H 901.781 -1.596 -3.97776 0
M  V30 9925 H 905.965 -2.53276 -4.26808 0
M  V30 9926 H 901.221 -3.86611 -4.73648 0
M  V30 9927 H 905.395 -4.80555 -5.04024 0
M  V30 9928 H 903.022 -5.47747 -5.27141 0
M  V30 9929 N 904.597 1.47463 -0.556102 0
M  V30 9930 C 905.825 2.06868 -0.0364585 0
M  V30 9931 C 906.24 1.40893 1.25677 0
M  V30 9932 O 905.597 0.505083 1.75371 0
M  V30 9933 C 905.648 3.61128 0.163984 0
M  V30 9934 O 905.369 4.24629 -1.07803 0
M  V30 9935 C 906.87 4.37397 0.721036 0
M  V30 9936 H 904.09 0.669466 -0.0453399 0
M  V30 9937 H 906.634 1.89482 -0.769198 0
M  V30 9938 H 904.789 3.78031 0.84685 0
M  V30 9939 H 905.203 5.17149 -0.875067 0
M  V30 9940 H 906.677 5.46016 0.810584 0
M  V30 9941 H 907.154 4.03604 1.73206 0
M  V30 9942 H 907.76 4.25236 0.073904 0
M  V30 9943 N 906.075 0.2925 1.54862 0
M  V30 9944 C 907.352 -0.371946 1.92031 0
M  V30 9945 C 907.732 -1.72363 1.21878 0
M  V30 9946 O 907.08 -2.25779 0.351573 0
M  V30 9947 C 907.29 -0.495027 3.45471 0
M  V30 9948 C 908.638 -0.769855 4.17562 0
M  V30 9949 O 909.662 -0.579168 3.5146 0
M  V30 9950 O 908.521 -1.13561 5.34571 0
M  V30 9951 H 905.615 -0.206463 0.800813 0
M  V30 9952 H 908.161 0.339933 1.6626 0
M  V30 9953 H 906.933 0.455528 3.88639 0
M  V30 9954 H 906.556 -1.2557 3.7725 0
M  V30 9955 N 907.553 -1.57587 0.0200696 0
M  V30 9956 C 908.516 -2.08595 -0.949767 0
M  V30 9957 C 909.516 -0.999215 -1.25985 0
M  V30 9958 O 910.706 -1.26115 -1.2017 0
M  V30 9959 C 907.838 -2.54424 -2.26895 0
M  V30 9960 H 909.031 -2.95563 -0.508161 0
M  V30 9961 H 906.584 -1.54631 -0.227798 0
M  V30 9962 H 907.319 -1.70758 -2.75703 0
M  V30 9963 H 907.104 -3.3381 -2.05702 0
M  V30 9964 H 908.594 -2.94144 -2.96427 0
M  V30 9965 N 909.032 0.252966 -1.55557 0
M  V30 9966 C 909.964 1.33585 -1.86246 0
M  V30 9967 C 910.977 1.44584 -0.748291 0
M  V30 9968 O 912.166 1.46042 -1.02635 0
M  V30 9969 C 909.266 2.71509 -2.02821 0
M  V30 9970 C 908.439 2.82853 -3.33636 0
M  V30 9971 C 907.498 4.01581 -3.40028 0
M  V30 9972 O 906.524 3.91394 -4.13278 0
M  V30 9973 N 907.726 5.14474 -2.6888 0
M  V30 9974 H 910.491 1.07596 -2.7972 0
M  V30 9975 H 908.052 0.443075 -1.55719 0
M  V30 9976 H 910.044 3.49262 -2.04445 0
M  V30 9977 H 908.614 2.90232 -1.1612 0
M  V30 9978 H 907.834 1.91823 -3.4438 0
M  V30 9979 H 909.122 2.87378 -4.19871 0
M  V30 9980 H 908.52 5.25641 -2.09087 0
M  V30 9981 H 907.077 5.90385 -2.76204 0
M  V30 9982 N 910.51 1.48831 0.518367 0
M  V30 9983 C 911.457 1.64216 1.62178 0
M  V30 9984 C 912.427 0.483942 1.58894 0
M  V30 9985 O 913.612 0.708857 1.77144 0
M  V30 9986 C 910.752 1.69867 3.00399 0
M  V30 9987 C 909.865 2.96875 3.1383 0
M  V30 9988 C 909 2.93613 4.42679 0
M  V30 9989 C 908.039 4.15276 4.4968 0
M  V30 9990 N 907.176 4.10024 5.69934 0
M  V30 9991 H 912.016 2.58439 1.48368 0
M  V30 9992 H 909.553 1.28154 0.722152 0
M  V30 9993 H 911.511 1.71124 3.8049 0
M  V30 9994 H 910.141 0.791249 3.12952 0
M  V30 9995 H 909.193 3.0531 2.26914 0
M  V30 9996 H 910.505 3.86863 3.14863 0
M  V30 9997 H 909.659 2.93337 5.31073 0
M  V30 9998 H 908.398 2.01375 4.44184 0
M  V30 9999 H 907.403 4.15816 3.59691 0
M  V30 10000 H 908.628 5.08687 4.49904 0
M  V30 10001 H 906.574 3.20613 5.72314 0
M  V30 10002 H 906.491 4.93728 5.72511 0
M  V30 10003 H 907.759 4.13824 6.60583 0
M  V30 10004 N 911.988 -0.768124 1.37614 0
M  V30 10005 C 912.938 -1.8718 1.30184 0
M  V30 10006 C 913.922 -1.59787 0.188943 0
M  V30 10007 O 915.114 -1.71855 0.423656 0
M  V30 10008 C 912.243 -3.24698 1.11471 0
M  V30 10009 C 911.329 -3.58031 2.27321 0
M  V30 10010 N 911.72 -3.6252 3.52722 0
M  V30 10011 C 910.018 -3.88216 2.19554 0
M  V30 10012 C 910.719 -3.92704 4.29137 0
M  V30 10013 N 909.695 -4.08789 3.58319 0
M  V30 10014 H 913.497 -1.88907 2.25147 0
M  V30 10015 H 911.011 -0.964753 1.30638 0
M  V30 10016 H 913.008 -4.0366 1.04233 0
M  V30 10017 H 911.668 -3.24232 0.174281 0
M  V30 10018 H 912.679 -3.44636 3.86583 0
M  V30 10019 H 909.356 -3.95551 1.33588 0
M  V30 10020 H 910.746 -4.02922 5.37683 0
M  V30 10021 N 913.466 -1.22244 -0.994698 0
M  V30 10022 C 914.696 -1.07062 -1.76695 0
M  V30 10023 C 915.104 0.381895 -1.85306 0
M  V30 10024 O 914.447 1.27648 -1.32105 0
M  V30 10025 C 914.509 -1.60487 -3.2169 0
M  V30 10026 C 914.173 -3.09079 -3.36629 0
M  V30 10027 C 915.17 -4.06526 -3.24088 0
M  V30 10028 C 912.855 -3.48497 -3.61739 0
M  V30 10029 C 914.849 -5.41377 -3.36437 0
M  V30 10030 C 912.536 -4.83498 -3.73729 0
M  V30 10031 C 913.534 -5.79747 -3.61086 0
M  V30 10032 O 913.222 -7.12297 -3.72678 0
M  V30 10033 H 912.954 -0.375963 -0.561807 0
M  V30 10034 H 915.508 -1.62259 -1.25941 0
M  V30 10035 H 913.738 -0.996957 -3.73628 0
M  V30 10036 H 915.427 -1.40994 -3.80625 0
M  V30 10037 H 916.193 -3.77415 -3.04602 0
M  V30 10038 H 912.072 -2.74106 -3.70657 0
M  V30 10039 H 915.616 -6.16485 -3.26485 0
M  V30 10040 H 911.513 -5.1229 -3.92721 0
M  V30 10041 H 912.281 -7.1985 -3.89562 0
M  V30 10042 N 914.944 1.19125 -1.03184 0
M  V30 10043 C 915.876 2.21914 -0.573294 0
M  V30 10044 C 916.889 1.5894 0.352397 0
M  V30 10045 O 918.078 1.77883 0.148318 0
M  V30 10046 C 915.178 3.38403 0.18355 0
M  V30 10047 C 914.351 4.3096 -0.747817 0
M  V30 10048 C 913.41 5.26188 -0.0358489 0
M  V30 10049 O 912.436 5.65321 -0.663388 0
M  V30 10050 N 913.638 5.67235 1.23387 0
M  V30 10051 H 916.403 2.61881 -1.45734 0
M  V30 10052 H 913.964 1.33821 -0.911231 0
M  V30 10053 H 915.956 3.99124 0.669468 0
M  V30 10054 H 914.526 2.97201 0.969043 0
M  V30 10055 H 913.746 3.67976 -1.41377 0
M  V30 10056 H 915.034 4.89708 -1.38071 0
M  V30 10057 H 914.432 5.37481 1.76439 0
M  V30 10058 H 912.989 6.30196 1.66423 0
M  V30 10059 N 916.422 0.810101 1.35185 0
M  V30 10060 C 917.65 0.404696 2.02903 0
M  V30 10061 C 918.065 -0.985434 1.61042 0
M  V30 10062 O 917.422 -1.63557 0.809658 0
M  V30 10063 C 917.473 0.482493 3.58266 0
M  V30 10064 O 917.194 1.81782 3.98606 0
M  V30 10065 C 918.695 0.070345 4.43244 0
M  V30 10066 H 915.915 0.163972 0.650657 0
M  V30 10067 H 918.459 1.0947 1.72733 0
M  V30 10068 H 916.614 -0.159296 3.87072 0
M  V30 10069 H 917.028 1.78306 4.93262 0
M  V30 10070 H 918.502 0.175888 5.5172 0
M  V30 10071 H 918.979 -0.984724 4.28018 0
M  V30 10072 H 919.585 0.685427 4.1974 0
M  V30 10073 N 917.9 -1.47166 0.563914 0
M  V30 10074 C 918.83 -2.32894 -0.168148 0
M  V30 10075 C 919.811 -1.44202 -0.902214 0
M  V30 10076 O 920.996 -1.73048 -0.881365 0
M  V30 10077 C 918.126 -3.26116 -1.19439 0
M  V30 10078 C 917.08 -4.24101 -0.576363 0
M  V30 10079 C 916.406 -5.06696 -1.70772 0
M  V30 10080 C 917.706 -5.20142 0.47425 0
M  V30 10081 H 919.4 -2.9435 0.547573 0
M  V30 10082 H 916.946 -1.41545 0.264778 0
M  V30 10083 H 918.899 -3.84935 -1.71474 0
M  V30 10084 H 917.623 -2.62728 -1.94014 0
M  V30 10085 H 916.282 -3.66519 -0.0772534 0
M  V30 10086 H 915.93 -4.39707 -2.44268 0
M  V30 10087 H 915.63 -5.7304 -1.29994 0
M  V30 10088 H 917.154 -5.68375 -2.2312 0
M  V30 10089 H 918.568 -5.73286 0.0397035 0
M  V30 10090 H 916.965 -5.94726 0.801287 0
M  V30 10091 H 918.035 -4.65214 1.36764 0
M  V30 10092 N 919.378 -0.300708 -1.54705 0
M  V30 10093 C 920.624 0.309111 -2.0043 0
M  V30 10094 C 920.957 1.53562 -1.1888 0
M  V30 10095 O 920.232 1.92683 -0.265205 0
M  V30 10096 C 920.515 0.665995 -3.53888 0
M  V30 10097 C 920.368 -0.56963 -4.46178 0
M  V30 10098 C 921.687 1.49262 -4.14016 0
M  V30 10099 H 918.806 0.110878 -0.728612 0
M  V30 10100 H 921.448 -0.412748 -1.85463 0
M  V30 10101 H 919.598 1.281 -3.66773 0
M  V30 10102 H 921.27 -1.20811 -4.45199 0
M  V30 10103 H 919.513 -1.20292 -4.16788 0
M  V30 10104 H 920.184 -0.275785 -5.51311 0
M  V30 10105 H 922.66 0.972979 -4.04564 0
M  V30 10106 H 921.536 1.71111 -5.21548 0
M  V30 10107 H 921.797 2.48174 -3.65872 0
M  V30 10108 N 920.856 1.57574 -0.0284266 0
M  V30 10109 C 922.105 1.9095 0.649704 0
M  V30 10110 C 922.418 0.906421 1.7333 0
M  V30 10111 O 923.624 1.1314 2.46803 0
M  V30 10112 C 922.08 3.39061 1.20687 0
M  V30 10113 C 921.688 4.47726 0.156597 0
M  V30 10114 C 923.432 3.81505 1.86156 0
M  V30 10115 C 921.339 5.86935 0.725365 0
M  V30 10116 H 920.269 0.712589 0.24644 0
M  V30 10117 H 922.92 1.83261 -0.0936143 0
M  V30 10118 H 921.302 3.41679 2.00178 0
M  V30 10119 H 922.476 4.56667 -0.6158 0
M  V30 10120 H 920.791 4.14481 -0.399288 0
M  V30 10121 H 923.388 4.82865 2.29665 0
M  V30 10122 H 923.731 3.16529 2.70398 0
M  V30 10123 H 924.264 3.81307 1.13356 0
M  V30 10124 H 921.003 6.55453 -0.0789081 0
M  V30 10125 H 920.523 5.81602 1.46627 0
M  V30 10126 H 922.202 6.35483 1.21532 0
M  V30 10127 N 922.334 -0.244713 1.55689 0
M  V30 10128 C 923.266 -1.32595 1.86952 0
M  V30 10129 C 924.279 -1.44185 0.755948 0
M  V30 10130 O 925.468 -1.45496 1.03408 0
M  V30 10131 C 922.568 -2.70429 2.04258 0
M  V30 10132 C 921.741 -2.8108 3.35131 0
M  V30 10133 C 920.8 -3.99773 3.42152 0
M  V30 10134 O 919.826 -3.89197 4.15348 0
M  V30 10135 N 921.028 -5.13041 2.71604 0
M  V30 10136 H 923.793 -1.06111 2.80287 0
M  V30 10137 H 921.354 -0.434811 1.55952 0
M  V30 10138 H 923.346 -3.48173 2.06295 0
M  V30 10139 H 921.916 -2.89612 1.17658 0
M  V30 10140 H 921.136 -1.89994 3.45392 0
M  V30 10141 H 922.424 -2.85147 4.21389 0
M  V30 10142 H 921.822 -5.24525 2.11872 0
M  V30 10143 H 920.379 -5.88912 2.79331 0
M  V30 10144 N 923.813 -1.49104 -0.510467 0
M  V30 10145 C 924.743 -1.67981 -1.62187 0
M  V30 10146 C 925.724 -0.528529 -1.6168 0
M  V30 10147 O 926.909 -0.763305 -1.7857 0
M  V30 10148 C 924.039 -1.73755 -3.0071 0
M  V30 10149 C 922.993 -2.88579 -3.1608 0
M  V30 10150 C 922.319 -2.79457 -4.5586 0
M  V30 10151 C 923.619 -4.29638 -2.97 0
M  V30 10152 H 925.313 -2.61029 -1.46643 0
M  V30 10153 H 922.859 -1.25615 -0.704042 0
M  V30 10154 H 924.812 -1.85548 -3.78352 0
M  V30 10155 H 923.536 -0.772996 -3.17321 0
M  V30 10156 H 922.195 -2.76372 -2.40861 0
M  V30 10157 H 921.843 -1.80929 -4.69333 0
M  V30 10158 H 921.543 -3.56518 -4.67086 0
M  V30 10159 H 923.067 -2.93245 -5.35574 0
M  V30 10160 H 924.481 -4.42575 -3.64418 0
M  V30 10161 H 922.878 -5.07847 -3.19704 0
M  V30 10162 H 923.948 -4.44741 -1.93219 0
M  V30 10163 N 925.291 0.760815 -1.38019 0
M  V30 10164 C 926.702 1.33773 -1.30237 0
M  V30 10165 C 927.053 1.96148 0.0451153 0
M  V30 10166 O 926.178 1.94574 0.9471 0
M  V30 10167 C 926.773 2.43227 -2.35851 0
M  V30 10168 C 925.332 2.96659 -2.31669 0
M  V30 10169 C 924.479 1.69972 -2.191 0
M  V30 10170 H 927.43 0.560237 -1.48482 0
M  V30 10171 H 927.451 3.22985 -2.01149 0
M  V30 10172 H 926.963 1.978 -3.33911 0
M  V30 10173 H 925.064 3.46433 -1.37167 0
M  V30 10174 H 925.177 3.51529 -3.25521 0
M  V30 10175 H 923.541 1.9332 -1.65829 0
M  V30 10176 H 924.324 1.26633 -3.19091 0
M  V30 10177 N 926.769 1.22769 0.988202 0
M  V30 10178 C 928.017 1.05301 1.725 0
M  V30 10179 C 928.338 -0.412103 1.90596 0
M  V30 10180 O 927.608 -1.29606 1.46898 0
M  V30 10181 H 926.188 0.386658 0.639144 0
M  V30 10182 H 928.85 1.54359 1.18993 0
M  V30 10183 H 927.946 1.53465 2.71763 0
M  V30 10184 N 928.247 -1.18576 1.03814 0
M  V30 10185 C 929.477 -1.92158 0.758864 0
M  V30 10186 C 929.885 -1.76267 -0.687498 0
M  V30 10187 O 929.228 -1.08806 -1.4801 0
M  V30 10188 C 929.29 -3.44063 1.04217 0
M  V30 10189 C 928.954 -3.8373 2.48193 0
M  V30 10190 C 929.951 -3.87722 3.46363 0
M  V30 10191 C 927.636 -4.151 2.82838 0
M  V30 10192 C 929.63 -4.2253 4.77229 0
M  V30 10193 C 927.317 -4.49578 4.13911 0
M  V30 10194 C 928.315 -4.53269 5.10917 0
M  V30 10195 O 928.003 -4.86945 6.39641 0
M  V30 10196 H 927.735 -0.61694 0.276335 0
M  V30 10197 H 930.289 -1.51388 1.38819 0
M  V30 10198 H 928.519 -3.85061 0.355709 0
M  V30 10199 H 930.208 -3.9889 0.751091 0
M  V30 10200 H 930.974 -3.63627 3.20936 0
M  V30 10201 H 926.853 -4.11406 2.08006 0
M  V30 10202 H 930.397 -4.25326 5.52941 0
M  V30 10203 H 926.294 -4.73133 4.39107 0
M  V30 10204 H 927.062 -5.04857 6.44253 0
M  V30 10205 N 929.725 -0.817259 -1.34754 0
M  V30 10206 C 931.136 -0.462215 -1.80888 0
M  V30 10207 C 931.487 1.01685 -1.67794 0
M  V30 10208 O 930.612 1.79094 -1.21468 0
M  V30 10209 C 931.207 -0.832204 -3.2842 0
M  V30 10210 C 929.766 -0.52961 -3.72655 0
M  V30 10211 C 928.913 -1.05214 -2.56564 0
M  V30 10212 H 931.864 -1.00795 -1.22581 0
M  V30 10213 H 931.885 -0.133804 -3.80265 0
M  V30 10214 H 931.397 -1.90873 -3.37919 0
M  V30 10215 H 929.498 0.537743 -3.68699 0
M  V30 10216 H 929.611 -1.06971 -4.67005 0
M  V30 10217 H 927.975 -0.473949 -2.50251 0
M  V30 10218 H 928.758 -2.135 -2.68836 0
M  V30 10219 N 931.203 1.46865 -0.571711 0
M  V30 10220 C 932.135 2.28277 0.205479 0
M  V30 10221 C 933.148 1.37866 0.865835 0
M  V30 10222 O 934.337 1.62564 0.737247 0
M  V30 10223 C 931.437 3.12572 1.30965 0
M  V30 10224 C 930.61 4.31038 0.743328 0
M  V30 10225 C 929.669 4.96815 1.73382 0
M  V30 10226 O 928.695 5.54755 1.2742 0
M  V30 10227 N 929.897 4.92825 3.06764 0
M  V30 10228 H 932.662 2.95618 -0.49294 0
M  V30 10229 H 930.223 1.56655 -0.408744 0
M  V30 10230 H 932.215 3.53442 1.97131 0
M  V30 10231 H 930.785 2.47378 1.91109 0
M  V30 10232 H 930.005 3.94084 -0.0955004 0
M  V30 10233 H 931.293 5.07632 0.344556 0
M  V30 10234 H 930.691 4.46978 3.46738 0
M  V30 10235 H 929.248 5.3767 3.68449 0
M  V30 10236 N 932.681 0.308908 1.54543 0
M  V30 10237 C 933.631 -0.578902 2.20528 0
M  V30 10238 C 934.615 -1.09288 1.18088 0
M  V30 10239 O 935.807 -1.03234 1.43777 0
M  V30 10240 C 932.936 -1.74649 2.95555 0
M  V30 10241 C 932.022 -1.24809 4.05319 0
M  V30 10242 N 932.413 -0.46828 5.03628 0
M  V30 10243 C 930.711 -1.52813 4.19004 0
M  V30 10244 C 931.412 -0.201896 5.8135 0
M  V30 10245 N 930.388 -0.783927 5.37918 0
M  V30 10246 H 934.19 0.0243496 2.9389 0
M  V30 10247 H 931.704 0.114049 1.61999 0
M  V30 10248 H 933.701 -2.39414 3.41301 0
M  V30 10249 H 932.361 -2.35336 2.23712 0
M  V30 10250 H 933.372 -0.112453 5.17778 0
M  V30 10251 H 930.049 -2.14191 3.58369 0
M  V30 10252 H 931.439 0.424929 6.70555 0
M  V30 10253 N 934.159 -1.57557 0.0367827 0
M  V30 10254 C 935.091 -2.07597 -0.971395 0
M  V30 10255 C 936.104 -1.0009 -1.28397 0
M  V30 10256 O 937.293 -1.27692 -1.24728 0
M  V30 10257 C 934.393 -2.492 -2.2968 0
M  V30 10258 C 933.566 -3.79875 -2.16826 0
M  V30 10259 C 932.625 -4.07946 -3.32366 0
M  V30 10260 O 931.651 -4.78083 -3.0891 0
M  V30 10261 N 932.853 -3.58722 -4.56397 0
M  V30 10262 H 935.618 -2.94714 -0.544389 0
M  V30 10263 H 933.179 -1.61205 -0.1498 0
M  V30 10264 H 935.171 -2.65065 -3.05815 0
M  V30 10265 H 933.741 -1.67407 -2.63995 0
M  V30 10266 H 932.961 -3.73732 -1.2537 0
M  V30 10267 H 934.249 -4.65476 -2.0545 0
M  V30 10268 H 933.647 -3.01994 -4.78347 0
M  V30 10269 H 932.204 -3.79852 -5.29675 0
M  V30 10270 N 935.637 0.236453 -1.55816 0
M  V30 10271 C 936.865 0.980295 -1.82203 0
M  V30 10272 C 937.28 1.7854 -0.613926 0
M  V30 10273 O 936.637 1.77661 0.417491 0
M  V30 10274 C 936.688 1.90982 -3.06933 0
M  V30 10275 O 936.409 1.13728 -4.23081 0
M  V30 10276 C 937.91 2.76879 -3.46198 0
M  V30 10277 H 935.13 0.28799 -0.606055 0
M  V30 10278 H 937.674 0.256182 -2.02889 0
M  V30 10279 H 935.829 2.58808 -2.88266 0
M  V30 10280 H 936.243 1.76694 -4.93842 0
M  V30 10281 H 937.717 3.37831 -4.36548 0
M  V30 10282 H 938.194 3.48522 -2.67262 0
M  V30 10283 H 938.8 2.1449 -3.67252 0
M  V30 10284 N 937.115 1.49373 0.502552 0
M  V30 10285 C 938.361 1.59016 1.25864 0
M  V30 10286 C 938.694 0.27532 1.92238 0
M  V30 10287 O 937.969 -0.720988 1.80643 0
M  V30 10288 C 938.252 2.74828 2.32683 0
M  V30 10289 C 938.105 4.16102 1.7082 0
M  V30 10290 C 939.424 2.86288 3.34256 0
M  V30 10291 H 936.543 0.578798 0.456248 0
M  V30 10292 H 939.185 1.81651 0.557032 0
M  V30 10293 H 937.335 2.5566 2.92524 0
M  V30 10294 H 939.007 4.46782 1.14818 0
M  V30 10295 H 937.25 4.21822 1.01238 0
M  V30 10296 H 937.921 4.93006 2.48292 0
M  V30 10297 H 940.397 3.03733 2.84404 0
M  V30 10298 H 939.273 3.69001 4.06362 0
M  V30 10299 H 939.534 1.95576 3.96488 0
M  V30 10300 N 938.594 -0.753485 1.38421 0
M  V30 10301 C 939.822 -1.54272 1.37868 0
M  V30 10302 C 940.237 -1.88774 -0.0315155 0
M  V30 10303 O 939.594 -1.52785 -0.998148 0
M  V30 10304 C 939.645 -2.84179 2.23438 0
M  V30 10305 O 939.366 -2.51149 3.58965 0
M  V30 10306 C 940.867 -3.78316 2.31067 0
M  V30 10307 H 938.087 -0.47735 0.47157 0
M  V30 10308 H 940.631 -0.932509 1.82001 0
M  V30 10309 H 938.786 -3.41577 1.82767 0
M  V30 10310 H 939.2 -3.34466 4.04021 0
M  V30 10311 H 940.674 -4.66418 2.95226 0
M  V30 10312 H 941.151 -4.18757 1.32436 0
M  V30 10313 H 941.757 -3.26842 2.72129 0
M  V30 10314 N 940.072 -1.23292 -0.981677 0
M  V30 10315 C 941.3 -1.09088 -1.75805 0
M  V30 10316 C 941.715 0.357746 -1.8538 0
M  V30 10317 O 941.072 1.24751 -1.33205 0
M  V30 10318 C 941.123 -1.70885 -3.1856 0
M  V30 10319 O 940.844 -3.10082 -3.09484 0
M  V30 10320 C 942.345 -1.62106 -4.12597 0
M  V30 10321 H 939.565 -0.38184 -0.55176 0
M  V30 10322 H 942.109 -1.63116 -1.23342 0
M  V30 10323 H 940.264 -1.20893 -3.68054 0
M  V30 10324 H 940.678 -3.40039 -3.99342 0
M  V30 10325 H 942.152 -2.10049 -5.10474 0
M  V30 10326 H 942.629 -0.579642 -4.35358 0
M  V30 10327 H 943.235 -2.11457 -3.69007 0
M  V30 10328 N 941.55 1.18024 -1.04442 0
M  V30 10329 C 942.778 1.92032 -0.770161 0
M  V30 10330 C 943.193 1.76391 0.673181 0
M  V30 10331 O 942.55 1.09604 1.45922 0
M  V30 10332 C 942.601 3.43328 -1.13173 0
M  V30 10333 O 942.322 3.5848 -2.51841 0
M  V30 10334 C 943.823 4.34427 -0.882523 0
M  V30 10335 H 941.043 0.609518 -0.280586 0
M  V30 10336 H 943.587 1.49711 -1.39308 0
M  V30 10337 H 941.742 3.83423 -0.553704 0
M  V30 10338 H 942.156 4.52166 -2.65794 0
M  V30 10339 H 943.63 5.39123 -1.18533 0
M  V30 10340 H 944.107 4.3882 0.18257 0
M  V30 10341 H 944.713 4.00035 -1.44403 0
M  V30 10342 N 943.028 0.824394 1.34319 0
M  V30 10343 C 943.938 0.24932 2.33271 0
M  V30 10344 C 944.954 -0.617066 1.62691 0
M  V30 10345 O 946.13 -0.524616 1.94447 0
M  V30 10346 C 943.195 -0.578094 3.41846 0
M  V30 10347 C 942.256 0.310866 4.28173 0
M  V30 10348 C 941.489 -0.477153 5.31563 0
M  V30 10349 O 941.712 -1.71028 5.44156 0
M  V30 10350 O 940.646 0.141287 6.01734 0
M  V30 10351 H 944.472 1.06837 2.84288 0
M  V30 10352 H 942.057 0.58657 1.37403 0
M  V30 10353 H 943.939 -1.04878 4.0814 0
M  V30 10354 H 942.614 -1.37444 2.93071 0
M  V30 10355 H 941.521 0.829081 3.64797 0
M  V30 10356 H 942.854 1.07161 4.80393 0
M  V30 10357 N 944.506 -1.46559 0.579492 0
M  V30 10358 C 945.755 -2.01606 0.0615735 0
M  V30 10359 C 946.068 -1.45695 -1.30508 0
M  V30 10360 O 947.274 -1.92541 -1.91416 0
M  V30 10361 C 945.73 -3.59851 0.059496 0
M  V30 10362 C 945.338 -4.24757 1.42427 0
M  V30 10363 C 947.082 -4.22567 -0.404646 0
M  V30 10364 C 944.989 -5.75072 1.38009 0
M  V30 10365 H 943.919 -0.753754 0.0192491 0
M  V30 10366 H 946.57 -1.68326 0.73066 0
M  V30 10367 H 944.952 -3.90193 -0.675691 0
M  V30 10368 H 946.126 -4.06029 2.17893 0
M  V30 10369 H 944.441 -3.74121 1.82817 0
M  V30 10370 H 947.038 -5.32748 -0.456441 0
M  V30 10371 H 947.381 -3.91279 -1.42149 0
M  V30 10372 H 947.914 -3.96839 0.276376 0
M  V30 10373 H 944.653 -6.11014 2.37364 0
M  V30 10374 H 944.173 -5.96073 0.667583 0
M  V30 10375 H 945.852 -6.37724 1.09163 0
M  V30 10376 N 945.984 -0.3171 -1.54377 0
M  V30 10377 C 947.212 0.289558 -2.04864 0
M  V30 10378 C 947.627 1.46284 -1.19359 0
M  V30 10379 O 946.984 1.81135 -0.222795 0
M  V30 10380 C 947.035 0.730273 -3.54047 0
M  V30 10381 O 946.756 -0.396325 -4.36304 0
M  V30 10382 C 948.257 1.40041 -4.20599 0
M  V30 10383 H 945.477 0.0605836 -0.668259 0
M  V30 10384 H 948.021 -0.461411 -1.99227 0
M  V30 10385 H 946.176 1.43123 -3.59992 0
M  V30 10386 H 946.59 -0.0502901 -5.24476 0
M  V30 10387 H 948.064 1.65979 -5.26455 0
M  V30 10388 H 948.541 2.34565 -3.71316 0
M  V30 10389 H 949.147 0.742206 -4.18774 0
M  V30 10390 N 947.462 1.57535 -0.0451378 0
M  V30 10391 C 948.412 2.07683 0.940829 0
M  V30 10392 C 949.396 0.9807 1.27558 0
M  V30 10393 O 950.588 1.2441 1.25901 0
M  V30 10394 C 947.717 2.62049 2.21778 0
M  V30 10395 C 946.803 3.78621 1.91068 0
M  V30 10396 N 947.194 4.88623 1.30694 0
M  V30 10397 C 945.492 3.87411 2.20972 0
M  V30 10398 C 946.193 5.69714 1.17478 0
M  V30 10399 N 945.169 5.17129 1.67566 0
M  V30 10400 H 948.971 2.90129 0.469267 0
M  V30 10401 H 946.485 1.61615 0.159472 0
M  V30 10402 H 948.482 2.96276 2.93302 0
M  V30 10403 H 947.142 1.81039 2.69546 0
M  V30 10404 H 948.153 5.08545 0.979907 0
M  V30 10405 H 944.83 3.17335 2.71302 0
M  V30 10406 H 946.22 6.68174 0.706574 0
M  V30 10407 N 948.94 -0.228186 1.55939 0
M  V30 10408 C 949.89 -1.28607 1.88267 0
M  V30 10409 C 950.874 -1.42606 0.745139 0
M  V30 10410 O 952.066 -1.45533 1.00743 0
M  V30 10411 C 949.195 -2.63783 2.19712 0
M  V30 10412 C 948.281 -2.53712 3.3984 0
M  V30 10413 N 948.672 -2.13287 4.58631 0
M  V30 10414 C 946.97 -2.84686 3.43322 0
M  V30 10415 C 947.671 -2.14305 5.40785 0
M  V30 10416 N 946.647 -2.54536 4.80325 0
M  V30 10417 H 950.449 -0.964307 2.7763 0
M  V30 10418 H 947.963 -0.436769 1.56416 0
M  V30 10419 H 949.96 -3.40152 2.41044 0
M  V30 10420 H 948.62 -2.9681 1.31657 0
M  V30 10421 H 949.631 -1.84525 4.83912 0
M  V30 10422 H 946.308 -3.22129 2.65592 0
M  V30 10423 H 947.698 -1.85231 6.45863 0
M  V30 10424 N 950.418 -1.49637 -0.494624 0
M  V30 10425 C 951.666 -1.5913 -1.24587 0
M  V30 10426 C 951.987 -0.282828 -1.92938 0
M  V30 10427 O 951.257 0.69825 -1.83034 0
M  V30 10428 H 949.837 -0.586329 -0.462847 0
M  V30 10429 H 952.499 -1.86296 -0.572696 0
M  V30 10430 H 951.595 -2.3906 -2.00641 0
M  V30 10431 N 951.896 0.746133 -1.38819 0
M  V30 10432 C 953.124 1.53539 -1.38685 0
M  V30 10433 C 953.539 1.88788 0.0215039 0
M  V30 10434 O 952.896 1.53312 0.990031 0
M  V30 10435 C 952.947 2.8299 -2.24942 0
M  V30 10436 O 952.668 2.49242 -3.60292 0
M  V30 10437 C 954.169 3.77085 -2.3307 0
M  V30 10438 H 951.389 0.474842 -0.474095 0
M  V30 10439 H 953.933 0.922844 -1.82493 0
M  V30 10440 H 952.088 3.40603 -1.84576 0
M  V30 10441 H 952.502 3.32319 -4.05789 0
M  V30 10442 H 953.976 4.64845 -2.97696 0
M  V30 10443 H 954.453 4.18049 -1.34655 0
M  V30 10444 H 955.059 3.25394 -2.73859 0
M  V30 10445 N 953.375 1.23811 0.975125 0
M  V30 10446 C 954.615 1.08517 1.73215 0
M  V30 10447 C 954.979 -0.370777 1.88386 0
M  V30 10448 O 956.18 -0.645036 2.60946 0
M  V30 10449 C 954.451 1.79649 3.08968 0
M  V30 10450 S 956.01 1.79993 4.00185 0
M  V30 10451 H 952.828 0.388256 0.595633 0
M  V30 10452 H 955.43 1.57028 1.16458 0
M  V30 10453 H 954.134 2.8471 2.95581 0
M  V30 10454 H 953.665 1.31441 3.70792 0
M  V30 10455 H 955.68 0.862294 4.8865 0
M  V30 10456 N 954.853 -1.17469 1.05066 0
M  V30 10457 C 955.785 -2.20974 0.608526 0
M  V30 10458 C 956.798 -1.59481 -0.327066 0
M  V30 10459 O 957.987 -1.78096 -0.12 0
M  V30 10460 C 955.087 -3.38652 -0.12969 0
M  V30 10461 C 954.26 -4.29716 0.816285 0
M  V30 10462 C 953.319 -5.26064 0.119556 0
M  V30 10463 O 952.345 -5.64194 0.753241 0
M  V30 10464 N 953.547 -5.69126 -1.14347 0
M  V30 10465 H 956.312 -2.59529 1.49882 0
M  V30 10466 H 953.873 -1.32355 0.932406 0
M  V30 10467 H 955.865 -4.00139 -0.605886 0
M  V30 10468 H 954.435 -2.98705 -0.921638 0
M  V30 10469 H 953.655 -3.6568 1.47213 0
M  V30 10470 H 954.943 -4.87449 1.45845 0
M  V30 10471 H 954.341 -5.4022 -1.67866 0
M  V30 10472 H 952.898 -6.32764 -1.56376 0
M  V30 10473 N 956.331 -0.831506 -1.3388 0
M  V30 10474 C 957.608 -0.345907 -1.92517 0
M  V30 10475 C 957.988 1.16784 -1.75854 0
M  V30 10476 O 957.336 1.97889 -1.14245 0
M  V30 10477 C 957.546 -0.784692 -3.40064 0
M  V30 10478 C 958.894 -0.78846 -4.17215 0
M  V30 10479 O 959.918 -0.727823 -3.48685 0
M  V30 10480 O 958.777 -0.869481 -5.39539 0
M  V30 10481 H 955.871 -0.0963568 -0.821367 0
M  V30 10482 H 958.417 -0.916868 -1.42799 0
M  V30 10483 H 957.189 -1.82697 -3.46031 0
M  V30 10484 H 956.812 -0.189897 -3.97146 0
M  V30 10485 N 957.809 1.4625 -0.587256 0
M  V30 10486 C 959.055 2.02662 -0.0746851 0
M  V30 10487 C 959.388 1.45723 1.28368 0
M  V30 10488 O 958.663 0.624062 1.84216 0
M  V30 10489 C 958.946 3.60097 -0.0138109 0
M  V30 10490 C 958.799 4.27412 -1.4014 0
M  V30 10491 C 960.118 4.34744 0.684491 0
M  V30 10492 H 957.237 0.736444 -0.0286144 0
M  V30 10493 H 959.879 1.74341 -0.755328 0
M  V30 10494 H 958.029 3.84357 0.56583 0
M  V30 10495 H 959.701 4.14401 -2.02656 0
M  V30 10496 H 957.944 3.86598 -1.96785 0
M  V30 10497 H 958.615 5.362 -1.31124 0
M  V30 10498 H 961.091 4.15657 0.192023 0
M  V30 10499 H 959.967 5.44468 0.696127 0
M  V30 10500 H 960.228 4.06132 1.74669 0
M  V30 10501 N 959.287 0.325282 1.54207 0
M  V30 10502 C 960.235 -0.5554 2.25872 0
M  V30 10503 C 961.229 -1.11714 1.27344 0
M  V30 10504 O 962.435 -1.06498 1.45115 0
M  V30 10505 H 958.81 -0.19776 0.725531 0
M  V30 10506 H 960.781 0.0712858 2.98315 0
M  V30 10507 C 959.53 -1.70379 3.03095 0
M  V30 10508 H 958.853 -1.2808 3.78729 0
M  V30 10509 H 960.293 -2.29556 3.56483 0
M  V30 10510 C 958.752 -2.62242 2.11496 0
M  V30 10511 O 959.282 -3.64003 1.69895 0
M  V30 10512 N 957.488 -2.30515 1.7695 0
M  V30 10513 H 957.035 -1.47805 2.10978 0
M  V30 10514 H 956.993 -2.92241 1.15942 0
M  V30 10515 N 960.765 -1.57509 0.0534917 0
M  V30 10516 C 961.715 -2.08179 -0.929802 0
M  V30 10517 C 962.699 -0.987451 -1.27036 0
M  V30 10518 O 963.891 -1.25076 -1.2524 0
M  V30 10519 C 961.02 -2.63221 -2.20385 0
M  V30 10520 C 960.106 -3.79629 -1.89058 0
M  V30 10521 N 960.497 -4.8931 -1.28101 0
M  V30 10522 C 958.795 -3.88578 -2.18914 0
M  V30 10523 C 959.496 -5.70329 -1.14455 0
M  V30 10524 N 958.472 -5.18011 -1.64821 0
M  V30 10525 H 962.274 -2.90374 -0.453874 0
M  V30 10526 H 959.788 -1.61697 -0.150899 0
M  V30 10527 H 961.785 -2.97827 -2.91727 0
M  V30 10528 H 960.445 -1.82466 -2.68582 0
M  V30 10529 H 961.456 -5.09058 -0.952924 0
M  V30 10530 H 958.133 -3.18769 -2.69616 0
M  V30 10531 H 959.523 -6.6854 -0.671129 0
M  V30 10532 N 962.243 0.219913 -1.56058 0
M  V30 10533 C 963.191 1.29215 -1.93407 0
M  V30 10534 C 964.185 1.48434 -0.816307 0
M  V30 10535 O 965.391 1.49589 -1.00115 0
M  V30 10536 H 961.766 0.433256 -0.614649 0
M  V30 10537 H 963.737 0.949977 -2.82875 0
M  V30 10538 C 962.486 2.63501 -2.26854 0
M  V30 10539 H 961.809 2.4952 -3.12377 0
M  V30 10540 H 963.249 3.37334 -2.56869 0
M  V30 10541 C 961.708 3.18634 -1.09425 0
M  V30 10542 O 962.238 4.00117 -0.356243 0
M  V30 10543 N 960.444 2.7703 -0.877642 0
M  V30 10544 H 959.991 2.10875 -1.47951 0
M  V30 10545 H 959.949 3.1426 -0.0936792 0
M  V30 10546 N 963.721 1.49897 0.486681 0
M  V30 10547 C 964.668 1.67619 1.58658 0
M  V30 10548 C 965.638 0.517537 1.57831 0
M  V30 10549 O 966.823 0.746272 1.756 0
M  V30 10550 C 963.963 1.762 2.96728 0
M  V30 10551 C 963.076 3.03465 3.07462 0
M  V30 10552 C 962.211 3.02937 4.36351 0
M  V30 10553 C 961.25 4.24721 4.4077 0
M  V30 10554 N 960.387 4.22021 5.61108 0
M  V30 10555 H 965.227 2.61528 1.42853 0
M  V30 10556 H 962.764 1.29657 0.694807 0
M  V30 10557 H 964.722 1.79156 3.76774 0
M  V30 10558 H 963.352 0.857452 3.11203 0
M  V30 10559 H 962.404 3.10054 2.20387 0
M  V30 10560 H 963.716 3.93454 3.06586 0
M  V30 10561 H 962.87 3.04536 5.24731 0
M  V30 10562 H 961.609 2.10751 4.39813 0
M  V30 10563 H 960.614 4.23352 3.5079 0
M  V30 10564 H 961.839 5.18116 4.39013 0
M  V30 10565 H 959.785 3.3268 5.65385 0
M  V30 10566 H 959.702 5.05761 5.61909 0
M  V30 10567 H 960.97 4.27743 6.51656 0
M  V30 10568 N 965.199 -0.738761 1.39212 0
M  V30 10569 C 966.445 -1.50046 1.36433 0
M  V30 10570 C 966.778 -1.94157 -0.0409474 0
M  V30 10571 O 966.053 -1.66515 -1.00514 0
M  V30 10572 C 966.336 -2.74277 2.33333 0
M  V30 10573 C 966.189 -2.36209 3.82786 0
M  V30 10574 C 967.508 -3.76361 2.28123 0
M  V30 10575 H 964.627 -0.544294 0.496903 0
M  V30 10576 H 967.269 -0.845005 1.70175 0
M  V30 10577 H 965.419 -3.30204 2.04689 0
M  V30 10578 H 967.091 -1.85942 4.22165 0
M  V30 10579 H 965.334 -1.68483 3.99745 0
M  V30 10580 H 966.005 -3.25156 4.46069 0
M  V30 10581 H 968.481 -3.30009 2.53443 0
M  V30 10582 H 967.357 -4.60957 2.9801 0
M  V30 10583 H 967.618 -4.23013 1.28499 0
M  V30 10584 N 966.677 -1.24326 -0.968545 0
M  V30 10585 C 967.926 -1.07647 -1.70572 0
M  V30 10586 C 968.239 0.384821 -1.91777 0
M  V30 10587 O 969.445 0.671782 -2.63058 0
M  V30 10588 C 967.901 -1.87799 -3.07017 0
M  V30 10589 C 967.509 -3.38333 -2.93658 0
M  V30 10590 C 969.253 -1.79647 -3.84613 0
M  V30 10591 C 967.16 -4.10831 -4.25407 0
M  V30 10592 H 966.09 -0.399216 -0.639642 0
M  V30 10593 H 968.741 -1.484 -1.07934 0
M  V30 10594 H 967.123 -1.3986 -3.7048 0
M  V30 10595 H 968.297 -3.93845 -2.39213 0
M  V30 10596 H 966.612 -3.47427 -2.29528 0
M  V30 10597 H 969.209 -2.31116 -4.82172 0
M  V30 10598 H 969.552 -0.761553 -4.09275 0
M  V30 10599 H 970.085 -2.25261 -3.27875 0
M  V30 10600 H 966.824 -5.14679 -4.05939 0
M  V30 10601 H 966.344 -3.60105 -4.79671 0
M  V30 10602 H 968.023 -4.17783 -4.94031 0
M  V30 10603 N 968.156 1.1691 -1.05688 0
M  V30 10604 C 969.066 2.24735 -0.67315 0
M  V30 10605 C 970.082 1.71252 0.308043 0
M  V30 10606 O 971.258 2.00772 0.158889 0
M  V30 10607 C 968.323 3.4665 -0.059026 0
M  V30 10608 C 967.384 4.15198 -1.0913 0
M  V30 10609 C 966.617 5.31292 -0.50639 0
M  V30 10610 O 966.84 5.663 0.682692 0
M  V30 10611 O 965.774 5.88923 -1.2431 0
M  V30 10612 H 969.6 2.59855 -1.57191 0
M  V30 10613 H 967.185 1.24306 -0.828751 0
M  V30 10614 H 969.067 4.20455 0.282018 0
M  V30 10615 H 967.742 3.13316 0.813304 0
M  V30 10616 H 966.649 3.43389 -1.48442 0
M  V30 10617 H 967.982 4.52571 -1.93495 0
M  V30 10618 N 969.634 0.838594 1.33437 0
M  V30 10619 C 970.862 0.447644 2.01999 0
M  V30 10620 C 971.277 -0.951053 1.63096 0
M  V30 10621 O 970.634 -1.61802 0.844169 0
M  V30 10622 C 970.685 0.558378 3.57162 0
M  V30 10623 O 970.406 1.90196 3.94661 0
M  V30 10624 C 971.907 0.164348 4.42995 0
M  V30 10625 H 969.127 0.177736 0.647032 0
M  V30 10626 H 971.671 1.13109 1.70372 0
M  V30 10627 H 969.826 -0.0771563 3.87323 0
M  V30 10628 H 970.24 1.88729 4.89369 0
M  V30 10629 H 971.714 0.292876 5.51222 0
M  V30 10630 H 972.191 -0.893713 4.30011 0
M  V30 10631 H 972.797 0.774306 4.18192 0
M  V30 10632 N 971.112 -1.45937 0.595003 0
M  V30 10633 C 972.06 -2.32155 -0.143798 0
M  V30 10634 C 973.054 -1.45221 -0.872198 0
M  V30 10635 O 974.26 -1.61777 -0.789191 0
M  V30 10636 H 970.635 -0.749165 -0.0652377 0
M  V30 10637 H 972.606 -2.92264 0.602005 0
M  V30 10638 C 971.355 -3.28615 -1.13611 0
M  V30 10639 H 970.678 -3.95496 -0.585044 0
M  V30 10640 H 972.118 -3.91699 -1.62321 0
M  V30 10641 C 970.577 -2.54863 -2.20333 0
M  V30 10642 O 971.107 -2.32071 -3.27881 0
M  V30 10643 N 969.313 -2.15213 -1.95274 0
M  V30 10644 H 968.86 -2.33949 -1.07822 0
M  V30 10645 H 968.818 -1.66188 -2.66888 0
M  V30 10646 N 972.59 -0.333456 -1.54032 0
M  V30 10647 C 974.006 0.0188405 -1.59589 0
M  V30 10648 C 974.206 1.49615 -1.34972 0
M  V30 10649 O 973.262 2.2535 -1.13901 0
M  V30 10650 C 974.575 -0.408273 -2.97915 0
M  V30 10651 C 976.123 -0.359763 -3.10926 0
M  V30 10652 C 976.598 -0.76219 -4.51613 0
M  V30 10653 N 978.089 -0.715981 -4.57633 0
M  V30 10654 C 978.824 -0.999436 -5.64623 0
M  V30 10655 N 978.32 -1.35053 -6.79509 0
M  V30 10656 N 980.113 -0.924343 -5.54448 0
M  V30 10657 H 972.264 -1.29587 -1.68289 0
M  V30 10658 H 974.527 -0.527584 -0.787629 0
M  V30 10659 H 974.233 -1.43793 -3.20962 0
M  V30 10660 H 974.107 0.221685 -3.76548 0
M  V30 10661 H 976.494 0.660703 -2.87609 0
M  V30 10662 H 976.575 -1.02479 -2.34375 0
M  V30 10663 H 976.219 -1.78062 -4.75664 0
M  V30 10664 H 976.149 -0.0747478 -5.26547 0
M  V30 10665 H 978.64 -0.456875 -3.75128 0
M  V30 10666 H 978.953 -1.55194 -7.57057 0
M  V30 10667 H 977.298 -1.38889 -6.80981 0
M  V30 10668 H 980.489 -0.649469 -4.63573 0
M  V30 10669 H 980.662 -1.1486 -6.37739 0
M  V30 10670 N 974.068 1.57479 -0.061844 0
M  V30 10671 C 974.978 2.15645 0.923826 0
M  V30 10672 C 975.994 1.117 1.33413 0
M  V30 10673 O 977.17 1.4392 1.40887 0
M  V30 10674 C 974.235 2.69857 2.17665 0
M  V30 10675 C 973.296 3.88638 1.8237 0
M  V30 10676 C 972.529 4.40256 3.01679 0
M  V30 10677 O 972.752 3.90908 4.15388 0
M  V30 10678 O 971.686 5.31713 2.82073 0
M  V30 10679 H 975.512 3.0021 0.459094 0
M  V30 10680 H 973.097 1.48534 0.160665 0
M  V30 10681 H 974.979 3.04647 2.9115 0
M  V30 10682 H 973.654 1.88357 2.63255 0
M  V30 10683 H 972.561 3.58719 1.06167 0
M  V30 10684 H 973.894 4.71401 1.4157 0
M  V30 10685 N 975.546 -0.211634 1.56173 0
M  V30 10686 C 976.494 -1.28188 1.94089 0
M  V30 10687 C 977.488 -1.47999 0.824167 0
M  V30 10688 O 978.694 -1.49056 1.00907 0
M  V30 10689 H 975.069 -0.42999 0.616938 0
M  V30 10690 H 977.04 -0.934962 2.83374 0
M  V30 10691 C 975.789 -2.62294 2.28248 0
M  V30 10692 H 975.112 -2.4786 3.13696 0
M  V30 10693 H 976.552 -3.35967 2.58655 0
M  V30 10694 C 975.011 -3.18049 1.11113 0
M  V30 10695 O 975.541 -3.99923 0.377458 0
M  V30 10696 N 973.747 -2.76561 0.892321 0
M  V30 10697 H 973.294 -2.10088 1.49067 0
M  V30 10698 H 973.252 -3.14206 0.110344 0
M  V30 10699 N 977.024 -1.50153 -0.478725 0
M  V30 10700 C 978.301 -1.51274 -1.23999 0
M  V30 10701 C 978.681 -0.253048 -2.09578 0
M  V30 10702 O 978.029 0.763827 -2.15355 0
M  V30 10703 C 978.239 -2.80423 -2.07759 0
M  V30 10704 C 979.587 -3.30788 -2.66204 0
M  V30 10705 O 980.611 -2.81693 -2.18008 0
M  V30 10706 O 979.47 -4.1635 -3.53999 0
M  V30 10707 H 976.564 -0.606438 -0.562283 0
M  V30 10708 H 979.11 -1.62436 -0.491171 0
M  V30 10709 H 977.882 -3.63584 -1.44645 0
M  V30 10710 H 977.505 -2.72228 -2.89789 0
M  V30 10711 N 978.502 0.731368 -1.39602 0
M  V30 10712 C 979.449 1.84541 -1.38612 0
M  V30 10713 C 980.419 1.64279 -0.245287 0
M  V30 10714 O 981.604 1.85635 -0.440954 0
M  V30 10715 C 978.744 3.22092 -1.23897 0
M  V30 10716 C 977.857 3.54034 -2.47555 0
M  V30 10717 C 976.992 4.81007 -2.25402 0
M  V30 10718 C 976.031 5.05804 -3.44716 0
M  V30 10719 N 975.168 6.23981 -3.21857 0
M  V30 10720 H 980.008 1.84722 -2.33841 0
M  V30 10721 H 977.545 0.902569 -1.16156 0
M  V30 10722 H 979.503 4.01499 -1.13376 0
M  V30 10723 H 978.133 3.2118 -0.322958 0
M  V30 10724 H 977.185 2.69301 -2.68665 0
M  V30 10725 H 978.497 3.68275 -3.36415 0
M  V30 10726 H 977.651 5.68401 -2.12143 0
M  V30 10727 H 976.39 4.68946 -1.33943 0
M  V30 10728 H 975.395 4.1687 -3.58468 0
M  V30 10729 H 976.62 5.19747 -4.37081 0
M  V30 10730 H 974.566 6.13202 -2.33065 0
M  V30 10731 H 974.483 6.38826 -4.04274 0
M  V30 10732 H 975.751 7.14205 -3.123 0
M  V30 10733 N 979.98 1.24838 0.961938 0
M  V30 10734 C 980.912 1.00369 2.06055 0
M  V30 10735 C 981.925 -0.0288583 1.62774 0
M  V30 10736 O 983.114 0.208853 1.77274 0
M  V30 10737 C 980.214 0.493953 3.35281 0
M  V30 10738 C 979.387 1.59097 4.07439 0
M  V30 10739 C 978.446 1.08288 5.14937 0
M  V30 10740 O 977.472 1.77577 5.40791 0
M  V30 10741 N 978.674 -0.0796836 5.80445 0
M  V30 10742 H 981.439 1.94962 2.27618 0
M  V30 10743 H 979 1.15945 1.12997 0
M  V30 10744 H 980.992 0.138675 4.04462 0
M  V30 10745 H 979.562 -0.357851 3.10545 0
M  V30 10746 H 978.782 2.11817 3.32456 0
M  V30 10747 H 980.07 2.32817 4.52409 0
M  V30 10748 H 979.468 -0.658827 5.6185 0
M  V30 10749 H 978.025 -0.376057 6.50714 0
M  V30 10750 N 981.458 -1.16348 1.06306 0
M  V30 10751 C 982.368 -2.24375 0.685059 0
M  V30 10752 C 983.384 -1.71413 -0.298956 0
M  V30 10753 O 984.56 -2.00854 -0.148239 0
M  V30 10754 C 981.625 -3.46614 0.0774088 0
M  V30 10755 C 980.686 -4.14613 1.11331 0
M  V30 10756 C 979.919 -5.31016 0.534559 0
M  V30 10757 O 980.142 -5.66654 -0.65265 0
M  V30 10758 O 979.076 -5.88256 1.27431 0
M  V30 10759 H 982.902 -2.59018 1.58566 0
M  V30 10760 H 980.487 -1.23865 0.835332 0
M  V30 10761 H 982.369 -4.20599 -0.259716 0
M  V30 10762 H 981.044 -3.13743 -0.796677 0
M  V30 10763 H 979.951 -3.42597 1.50261 0
M  V30 10764 H 981.284 -4.51538 1.95893 0
M  V30 10765 N 982.937 -0.845659 -1.3299 0
M  V30 10766 C 984.165 -0.45835 -2.01759 0
M  V30 10767 C 984.58 0.94239 -1.63598 0
M  V30 10768 O 983.937 1.61353 -0.852738 0
M  V30 10769 C 983.988 -0.577311 -3.5686 0
M  V30 10770 O 983.709 -1.92287 -3.93646 0
M  V30 10771 C 985.21 -0.187839 -4.42902 0
M  V30 10772 H 982.43 -0.181165 -0.646081 0
M  V30 10773 H 984.974 -1.14011 -1.6977 0
M  V30 10774 H 983.129 0.0566146 -3.87359 0
M  V30 10775 H 983.543 -1.91322 -4.88361 0
M  V30 10776 H 985.017 -0.322105 -5.51059 0
M  V30 10777 H 985.494 0.870896 -4.30479 0
M  V30 10778 H 986.1 -0.796473 -4.17776 0
M  V30 10779 N 984.415 1.45619 -0.602734 0
M  V30 10780 C 985.661 2.03131 -0.104587 0
M  V30 10781 C 986.016 1.4634 1.2491 0
M  V30 10782 O 985.309 0.626733 1.8106 0
M  V30 10783 C 985.503 3.574 -0.00157909 0
M  V30 10784 C 985.332 4.29155 -1.34373 0
M  V30 10785 C 984.102 4.67272 -1.92316 0
M  V30 10786 C 986.3 4.61422 -2.27143 0
M  V30 10787 N 984.282 5.23864 -3.20062 0
M  V30 10788 C 985.653 5.18796 -3.39485 0
M  V30 10789 C 987.708 4.4336 -2.26575 0
M  V30 10790 C 986.411 5.60012 -4.51419 0
M  V30 10791 C 988.437 4.85605 -3.37553 0
M  V30 10792 C 987.799 5.43068 -4.48617 0
M  V30 10793 H 983.898 0.777739 -0.0815251 0
M  V30 10794 H 986.482 1.77504 -0.800024 0
M  V30 10795 H 984.653 3.82698 0.663068 0
M  V30 10796 H 986.385 4.01565 0.502784 0
M  V30 10797 H 983.14 4.50671 -1.45577 0
M  V30 10798 H 983.564 5.56664 -3.85298 0
M  V30 10799 H 988.206 3.98251 -1.41971 0
M  V30 10800 H 985.924 6.04089 -5.36751 0
M  V30 10801 H 989.51 4.73365 -3.38255 0
M  V30 10802 H 988.39 5.75156 -5.33072 0
M  V30 10803 N 985.893 0.34162 1.53853 0
M  V30 10804 C 986.826 -0.559051 2.21246 0
M  V30 10805 C 987.804 -1.10179 1.1958 0
M  V30 10806 O 988.988 -1.16242 1.48392 0
M  V30 10807 C 986.115 -1.7689 2.88838 0
M  V30 10808 C 985.161 -1.3558 4.04377 0
M  V30 10809 S 985.994 -0.377225 5.3417 0
M  V30 10810 C 987.15 -1.59395 6.05264 0
M  V30 10811 H 987.383 0.013373 2.97297 0
M  V30 10812 H 984.916 0.125694 1.53888 0
M  V30 10813 H 986.874 -2.463 3.284 0
M  V30 10814 H 985.535 -2.31254 2.12557 0
M  V30 10815 H 984.728 -2.25781 4.50599 0
M  V30 10816 H 984.33 -0.741197 3.66582 0
M  V30 10817 H 986.622 -2.52872 6.2854 0
M  V30 10818 H 987.565 -1.17356 6.98307 0
M  V30 10819 H 987.973 -1.78913 5.35397 0
M  V30 10820 N 987.371 -1.57444 0.0701946 0
M  V30 10821 C 988.301 -2.15659 -0.895176 0
M  V30 10822 C 989.282 -1.08321 -1.31151 0
M  V30 10823 O 990.467 -1.36349 -1.38284 0
M  V30 10824 C 987.597 -2.71693 -2.16334 0
M  V30 10825 C 986.551 -3.84183 -1.88645 0
M  V30 10826 C 985.877 -4.26814 -3.22078 0
M  V30 10827 C 987.177 -5.08493 -1.19299 0
M  V30 10828 H 988.871 -2.96576 -0.410217 0
M  V30 10829 H 986.417 -1.42662 -0.195872 0
M  V30 10830 H 988.37 -3.11064 -2.84284 0
M  V30 10831 H 987.094 -1.87994 -2.67069 0
M  V30 10832 H 985.753 -3.45314 -1.23101 0
M  V30 10833 H 985.401 -3.40039 -3.70651 0
M  V30 10834 H 985.101 -5.02642 -3.04344 0
M  V30 10835 H 986.625 -4.68799 -3.91228 0
M  V30 10836 H 988.039 -5.4519 -1.77316 0
M  V30 10837 H 986.436 -5.89588 -1.11828 0
M  V30 10838 H 987.506 -4.84595 -0.171839 0
M  V30 10839 N 988.849 0.203349 -1.56283 0
M  V30 10840 C 989.782 1.27982 -1.88934 0
M  V30 10841 C 990.76 1.44345 -0.748555 0
M  V30 10842 O 991.944 1.59867 -0.998741 0
M  V30 10843 C 989.071 2.64762 -2.11231 0
M  V30 10844 C 988.117 2.65315 -3.33932 0
M  V30 10845 S 988.95 2.17568 -4.8931 0
M  V30 10846 C 990.106 3.56189 -5.14665 0
M  V30 10847 H 990.339 1.00095 -2.79943 0
M  V30 10848 H 987.872 0.406458 -1.48954 0
M  V30 10849 H 989.83 3.43501 -2.2476 0
M  V30 10850 H 988.491 2.89864 -1.20986 0
M  V30 10851 H 987.684 3.6587 -3.46634 0
M  V30 10852 H 987.286 1.94652 -3.19353 0
M  V30 10853 H 989.578 4.52001 -5.0468 0
M  V30 10854 H 990.521 3.48387 -6.16467 0
M  V30 10855 H 990.929 3.50719 -4.42331 0
M  V30 10856 N 990.327 1.50405 0.470755 0
M  V30 10857 C 991.237 1.7208 1.59454 0
M  V30 10858 C 992.253 0.603932 1.63183 0
M  V30 10859 O 993.429 0.882296 1.81046 0
M  V30 10860 C 990.494 1.81057 2.95667 0
M  V30 10861 C 989.555 3.04792 3.02324 0
M  V30 10862 C 988.788 3.13332 4.3204 0
M  V30 10863 O 989.011 2.28655 5.22564 0
M  V30 10864 O 987.945 4.0606 4.44296 0
M  V30 10865 H 991.771 2.67343 1.44089 0
M  V30 10866 H 989.356 1.34505 0.650286 0
M  V30 10867 H 991.238 1.8914 3.76569 0
M  V30 10868 H 989.913 0.889782 3.11231 0
M  V30 10869 H 988.82 3.0221 2.205 0
M  V30 10870 H 990.153 3.96451 2.91698 0
M  V30 10871 N 991.805 -0.723954 1.39988 0
M  V30 10872 C 992.735 -1.85103 1.42335 0
M  V30 10873 C 993.716 -1.6769 0.285297 0
M  V30 10874 O 994.901 -1.87846 0.492716 0
M  V30 10875 C 992.031 -3.22972 1.27697 0
M  V30 10876 C 990.985 -3.55041 2.39018 0
M  V30 10877 C 990.311 -4.91965 2.09462 0
M  V30 10878 C 991.611 -3.56889 3.8135 0
M  V30 10879 H 993.305 -1.83396 2.36656 0
M  V30 10880 H 990.851 -0.880926 1.13911 0
M  V30 10881 H 992.804 -4.01503 1.27958 0
M  V30 10882 H 991.528 -3.25233 0.298487 0
M  V30 10883 H 990.187 -2.78845 2.37993 0
M  V30 10884 H 989.835 -4.90819 1.10025 0
M  V30 10885 H 989.535 -5.14389 2.84038 0
M  V30 10886 H 991.059 -5.7284 2.11391 0
M  V30 10887 H 992.473 -4.25476 3.84243 0
M  V30 10888 H 990.87 -3.90836 4.55376 0
M  V30 10889 H 991.94 -2.56452 4.11534 0
M  V30 10890 N 993.283 -1.25346 -0.955304 0
M  V30 10891 C 994.215 -1.0146 -2.0552 0
M  V30 10892 C 995.228 0.0202256 -1.62787 0
M  V30 10893 O 996.417 -0.218251 -1.77161 0
M  V30 10894 C 993.517 -0.511727 -3.35014 0
M  V30 10895 C 992.69 -1.61256 -4.0659 0
M  V30 10896 C 991.749 -1.11017 -5.14356 0
M  V30 10897 O 990.775 -1.80443 -5.39842 0
M  V30 10898 N 991.977 0.0489001 -5.80479 0
M  V30 10899 H 994.742 -1.96166 -2.26581 0
M  V30 10900 H 992.303 -1.16543 -1.12381 0
M  V30 10901 H 994.295 -0.160123 -4.04383 0
M  V30 10902 H 992.865 0.341377 -3.1073 0
M  V30 10903 H 992.085 -2.13577 -3.31328 0
M  V30 10904 H 993.373 -2.35213 -4.51168 0
M  V30 10905 H 992.771 0.629021 -5.62192 0
M  V30 10906 H 991.328 0.341542 -6.50905 0
M  V30 10907 N 994.761 1.15782 -1.06922 0
M  V30 10908 C 995.708 2.2038 -0.685659 0
M  V30 10909 C 996.678 1.62972 0.320816 0
M  V30 10910 O 997.863 1.8966 0.208258 0
M  V30 10911 C 995.003 3.44995 -0.084998 0
M  V30 10912 C 994.116 4.16621 -1.14242 0
M  V30 10913 C 993.251 5.28773 -0.507226 0
M  V30 10914 C 992.29 5.92209 -1.54774 0
M  V30 10915 N 991.427 6.9584 -0.935443 0
M  V30 10916 H 996.267 2.5254 -1.58201 0
M  V30 10917 H 993.804 1.24031 -0.790864 0
M  V30 10918 H 995.762 4.16254 0.280845 0
M  V30 10919 H 994.392 3.13365 0.774725 0
M  V30 10920 H 993.444 3.43903 -1.62589 0
M  V30 10921 H 994.756 4.59884 -1.93154 0
M  V30 10922 H 993.91 6.06635 -0.0887719 0
M  V30 10923 H 992.649 4.8669 0.313704 0
M  V30 10924 H 991.654 5.13063 -1.97602 0
M  V30 10925 H 992.879 6.3637 -2.37088 0
M  V30 10926 H 990.825 6.5586 -0.135339 0
M  V30 10927 H 990.742 7.37508 -1.66186 0
M  V30 10928 H 992.01 7.77611 -0.542346 0
M  V30 10929 N 996.239 0.8527 1.3254 0
M  V30 10930 C 997.488 0.45136 1.96585 0
M  V30 10931 C 997.801 -0.997773 1.68237 0
M  V30 10932 O 999.007 -1.50445 2.26006 0
M  V30 10933 C 997.463 0.75619 3.51866 0
M  V30 10934 C 997.071 2.22092 3.89075 0
M  V30 10935 C 998.815 0.422478 4.22392 0
M  V30 10936 C 996.722 2.46908 5.37392 0
M  V30 10937 H 995.652 0.165052 0.735713 0
M  V30 10938 H 998.303 1.04321 1.50962 0
M  V30 10939 H 996.685 0.0937988 3.95889 0
M  V30 10940 H 997.859 2.92494 3.56067 0
M  V30 10941 H 996.174 2.51896 3.31568 0
M  V30 10942 H 998.771 0.58533 5.31487 0
M  V30 10943 H 999.114 -0.635737 4.11417 0
M  V30 10944 H 999.647 1.04068 3.83946 0
M  V30 10945 H 996.386 3.51346 5.53386 0
M  V30 10946 H 995.906 1.81082 5.71812 0
M  V30 10947 H 997.585 2.30758 6.0445 0
M  V30 10948 N 997.718 -1.45297 0.610449 0
M  V30 10949 C 999.134 -1.57225 0.274332 0
M  V30 10950 C 999.334 -1.60136 -1.22306 0
M  V30 10951 O 998.39 -1.5332 -2.00622 0
M  V30 10952 C 999.703 -2.85365 0.948028 0
M  V30 10953 C 1001.25 -2.99044 0.924216 0
M  V30 10954 C 1001.73 -4.29958 1.57798 0
M  V30 10955 N 1003.22 -4.36723 1.5436 0
M  V30 10956 C 1003.95 -5.36695 2.01857 0
M  V30 10957 N 1003.45 -6.43187 2.57453 0
M  V30 10958 N 1005.24 -5.28071 1.92608 0
M  V30 10959 H 997.392 -1.41651 1.58268 0
M  V30 10960 H 999.655 -0.67744 0.663158 0
M  V30 10961 H 999.361 -2.89125 2.00249 0
M  V30 10962 H 999.235 -3.74222 0.473062 0
M  V30 10963 H 1001.62 -2.94849 -0.121709 0
M  V30 10964 H 1001.7 -2.1159 1.43748 0
M  V30 10965 H 1001.35 -4.34912 2.62325 0
M  V30 10966 H 1001.28 -5.16234 1.03972 0
M  V30 10967 H 1003.77 -3.60374 1.13749 0
M  V30 10968 H 1004.08 -7.15722 2.91482 0
M  V30 10969 H 1002.43 -6.4393 2.61493 0
M  V30 10970 H 1005.62 -4.43783 1.48912 0
M  V30 10971 H 1005.79 -6.05832 2.29938 0
M  V30 10972 N 999.196 -0.349774 -1.5367 0
M  V30 10973 C 1000.61 0.00191293 -1.596 0
M  V30 10974 C 1000.81 1.48175 -1.36552 0
M  V30 10975 O 999.868 2.24129 -1.16285 0
M  V30 10976 C 1001.18 -0.439848 -2.97466 0
M  V30 10977 C 1002.73 -0.392721 -3.10526 0
M  V30 10978 C 1003.2 -0.810047 -4.5078 0
M  V30 10979 N 1004.69 -0.764478 -4.56848 0
M  V30 10980 C 1005.43 -1.05927 -5.63531 0
M  V30 10981 N 1004.93 -1.42253 -6.78038 0
M  V30 10982 N 1006.72 -0.983098 -5.53436 0
M  V30 10983 H 998.87 -1.31364 -1.66905 0
M  V30 10984 H 1001.13 -0.535908 -0.781989 0
M  V30 10985 H 1000.84 -1.47189 -3.19419 0
M  V30 10986 H 1000.71 0.181735 -3.76762 0
M  V30 10987 H 1003.1 0.630161 -2.88293 0
M  V30 10988 H 1003.18 -1.04959 -2.33275 0
M  V30 10989 H 1002.82 -1.83097 -4.73749 0
M  V30 10990 H 1002.75 -0.130591 -5.26438 0
M  V30 10991 H 1005.25 -0.496637 -3.74622 0
M  V30 10992 H 1005.56 -1.63215 -7.55368 0
M  V30 10993 H 1003.9 -1.46104 -6.79469 0
M  V30 10994 H 1007.09 -0.698601 -4.62858 0
M  V30 10995 H 1007.27 -1.21618 -6.36485 0
M  V30 10996 N 1000.67 1.57404 -0.0785433 0
M  V30 10997 C 1001.61 2.101 0.916013 0
M  V30 10998 C 1002.62 1.03459 1.25698 0
M  V30 10999 O 1003.81 1.30954 1.21299 0
M  V30 11000 C 1000.91 2.55202 2.22992 0
M  V30 11001 C 1000.08 3.85491 2.06678 0
M  V30 11002 C 999.14 4.16614 3.21433 0
M  V30 11003 O 998.166 4.86105 2.96126 0
M  V30 11004 N 999.368 3.70697 4.46726 0
M  V30 11005 H 1002.13 2.96054 0.466059 0
M  V30 11006 H 999.694 1.61546 0.107006 0
M  V30 11007 H 1001.69 2.7308 2.9868 0
M  V30 11008 H 1000.26 1.74348 2.59464 0
M  V30 11009 H 999.476 3.76925 1.15417 0
M  V30 11010 H 1000.76 4.70759 1.93036 0
M  V30 11011 H 1000.16 3.14571 4.70172 0
M  V30 11012 H 998.719 3.93762 5.19418 0
M  V30 11013 N 1002.15 -0.195058 1.56388 0
M  V30 11014 C 1003.4 -0.913626 1.79821 0
M  V30 11015 C 1003.71 -1.84422 0.651767 0
M  V30 11016 O 1004.92 -2.6034 0.770402 0
M  V30 11017 C 1003.38 -1.67497 3.18548 0
M  V30 11018 C 1002.98 -0.789205 4.40994 0
M  V30 11019 C 1004.73 -2.38318 3.5129 0
M  V30 11020 C 1002.63 -1.54942 5.70742 0
M  V30 11021 H 1001.56 -0.344891 0.670497 0
M  V30 11022 H 1004.22 -0.166912 1.82739 0
M  V30 11023 H 1002.6 -2.46557 3.0988 0
M  V30 11024 H 1003.77 -0.0372595 4.60785 0
M  V30 11025 H 1002.09 -0.191834 4.15958 0
M  V30 11026 H 1004.68 -2.95745 4.45465 0
M  V30 11027 H 1005.03 -3.12507 2.75037 0
M  V30 11028 H 1005.56 -1.66224 3.61406 0
M  V30 11029 H 1002.3 -0.85031 6.49962 0
M  V30 11030 H 1001.82 -2.2753 5.54969 0
M  V30 11031 H 1003.5 -2.1032 6.11861 0
M  V30 11032 N 1003.63 -1.50653 -0.462772 0
M  V30 11033 C 1004.54 -1.72923 -1.58539 0
M  V30 11034 C 1005.56 -0.612577 -1.6286 0
M  V30 11035 O 1006.73 -0.891885 -1.80575 0
M  V30 11036 C 1003.8 -1.82623 -2.94703 0
M  V30 11037 C 1002.86 -3.06392 -3.00704 0
M  V30 11038 C 1002.09 -3.15618 -4.30373 0
M  V30 11039 O 1002.31 -2.31423 -5.21344 0
M  V30 11040 O 1001.25 -4.0841 -4.42136 0
M  V30 11041 H 1005.07 -2.68103 -1.42669 0
M  V30 11042 H 1002.66 -1.34848 -0.643144 0
M  V30 11043 H 1004.54 -1.91134 -3.7556 0
M  V30 11044 H 1003.22 -0.906275 -3.10754 0
M  V30 11045 H 1002.12 -3.03375 -2.18894 0
M  V30 11046 H 1003.46 -3.97992 -2.89591 0
M  V30 11047 N 1005.11 0.71652 -1.4037 0
M  V30 11048 C 1006.06 1.82219 -1.37041 0
M  V30 11049 C 1007.04 1.58975 -0.248116 0
M  V30 11050 O 1008.23 1.70164 -0.487147 0
M  V30 11051 C 1005.36 3.20337 -1.23446 0
M  V30 11052 C 1004.45 3.49347 -2.40452 0
M  V30 11053 N 1004.84 3.49179 -3.65934 0
M  V30 11054 C 1003.14 3.798 -2.33811 0
M  V30 11055 C 1003.84 3.76506 -4.43416 0
M  V30 11056 N 1002.82 3.95209 -3.73244 0
M  V30 11057 H 1006.62 1.80421 -2.32003 0
M  V30 11058 H 1004.13 0.915603 -1.34129 0
M  V30 11059 H 1006.13 3.99513 -1.19143 0
M  V30 11060 H 1004.79 3.23362 -0.294497 0
M  V30 11061 H 1005.8 3.30051 -3.99107 0
M  V30 11062 H 1002.48 3.9032 -1.48177 0
M  V30 11063 H 1003.87 3.82689 -5.52267 0
M  V30 11064 N 1006.59 1.25851 0.948643 0
M  V30 11065 C 1007.83 1.12166 1.70874 0
M  V30 11066 C 1008.19 -0.330734 1.8913 0
M  V30 11067 O 1009.39 -0.58954 2.62255 0
M  V30 11068 C 1007.66 1.86162 3.05088 0
M  V30 11069 S 1009.22 1.88441 3.96277 0
M  V30 11070 H 1006.04 0.400803 0.587263 0
M  V30 11071 H 1008.64 1.59463 1.13101 0
M  V30 11072 H 1007.35 2.90916 2.89476 0
M  V30 11073 H 1006.88 1.39276 3.67921 0
M  V30 11074 H 1008.89 0.96575 4.86711 0
M  V30 11075 N 1008.06 -1.15214 1.07534 0
M  V30 11076 C 1008.97 -2.23636 0.708818 0
M  V30 11077 C 1009.99 -1.7172 -0.280759 0
M  V30 11078 O 1011.17 -2.01 -0.126927 0
M  V30 11079 C 1008.23 -3.46512 0.114167 0
M  V30 11080 C 1007.29 -4.13409 1.15722 0
M  V30 11081 C 1006.53 -5.30419 0.59085 0
M  V30 11082 O 1006.75 -5.67314 -0.592512 0
M  V30 11083 O 1005.68 -5.86871 1.33663 0
M  V30 11084 H 1009.51 -2.57322 1.61305 0
M  V30 11085 H 1007.09 -1.22972 0.848422 0
M  V30 11086 H 1008.98 -4.20851 -0.215091 0
M  V30 11087 H 1007.65 -3.1457 -0.763356 0
M  V30 11088 H 1006.56 -3.40984 1.53886 0
M  V30 11089 H 1007.89 -4.49435 2.00671 0
M  V30 11090 N 1009.54 -0.859717 -1.32086 0
M  V30 11091 C 1010.79 -0.464662 -1.96686 0
M  V30 11092 C 1011.11 0.98412 -1.68345 0
M  V30 11093 O 1010.38 1.68847 -0.993361 0
M  V30 11094 H 1008.96 -0.168838 -0.727669 0
M  V30 11095 H 1011.62 -1.09726 -1.61079 0
M  V30 11096 H 1010.72 -0.613904 -3.06003 0
M  V30 11097 N 1011.02 1.44971 -0.618145 0
M  V30 11098 C 1012.44 1.57077 -0.282666 0
M  V30 11099 C 1012.64 1.60782 1.21456 0
M  V30 11100 O 1011.69 1.54382 1.99806 0
M  V30 11101 C 1013.01 2.84858 -0.963148 0
M  V30 11102 C 1014.55 2.9855 -0.940062 0
M  V30 11103 C 1015.03 4.29115 -1.60076 0
M  V30 11104 N 1016.52 4.35899 -1.56674 0
M  V30 11105 C 1017.25 5.35617 -2.04701 0
M  V30 11106 N 1016.75 6.41813 -2.6086 0
M  V30 11107 N 1018.54 5.27042 -1.95406 0
M  V30 11108 H 1010.69 1.4081 -1.59017 0
M  V30 11109 H 1012.96 0.673914 -0.666741 0
M  V30 11110 H 1012.66 2.88059 -2.0178 0
M  V30 11111 H 1012.54 3.73966 -0.492901 0
M  V30 11112 H 1014.92 2.94909 0.10607 0
M  V30 11113 H 1015.01 2.10825 -1.44868 0
M  V30 11114 H 1014.65 4.33514 -2.64627 0
M  V30 11115 H 1014.58 5.15675 -1.06708 0
M  V30 11116 H 1017.07 3.59766 -1.15659 0
M  V30 11117 H 1017.38 7.14166 -2.95273 0
M  V30 11118 H 1015.73 6.42534 -2.64905 0
M  V30 11119 H 1018.92 4.42987 -1.51263 0
M  V30 11120 H 1019.09 6.04604 -2.33147 0
M  V30 11121 N 1012.5 0.357919 1.53482 0
M  V30 11122 C 1013.43 -0.535553 2.21827 0
M  V30 11123 C 1014.41 -1.08904 1.20742 0
M  V30 11124 O 1015.59 -1.14661 1.49616 0
M  V30 11125 C 1012.72 -1.73817 2.90698 0
M  V30 11126 C 1011.77 -1.31283 4.05792 0
M  V30 11127 S 1012.6 -0.320548 5.3454 0
M  V30 11128 C 1013.76 -1.52967 6.0692 0
M  V30 11129 H 1013.99 0.0449045 2.97266 0
M  V30 11130 H 1011.52 0.142009 1.53746 0
M  V30 11131 H 1013.48 -2.42803 3.30994 0
M  V30 11132 H 1012.14 -2.28987 2.14998 0
M  V30 11133 H 1011.33 -2.20989 4.52968 0
M  V30 11134 H 1010.94 -0.702275 3.67347 0
M  V30 11135 H 1013.23 -2.46191 6.31186 0
M  V30 11136 H 1014.17 -1.09943 6.99513 0
M  V30 11137 H 1014.58 -1.73224 5.37265 0
M  V30 11138 N 1013.98 -1.5736 0.0868897 0
M  V30 11139 C 1015.2 -1.98388 -0.587349 0
M  V30 11140 C 1015.62 -0.965757 -1.6223 0
M  V30 11141 O 1014.98 0.0456981 -1.82443 0
M  V30 11142 C 1015.03 -3.39479 -1.24242 0
M  V30 11143 O 1014.75 -4.37393 -0.248878 0
M  V30 11144 C 1016.25 -3.95465 -2.00305 0
M  V30 11145 H 1013.47 -0.652111 -0.15809 0
M  V30 11146 H 1016.01 -2.03843 0.163754 0
M  V30 11147 H 1014.17 -3.35063 -1.94451 0
M  V30 11148 H 1014.58 -5.19525 -0.720678 0
M  V30 11149 H 1016.06 -4.96363 -2.41511 0
M  V30 11150 H 1016.53 -3.32832 -2.86565 0
M  V30 11151 H 1017.14 -4.03328 -1.34931 0
M  V30 11152 N 1015.45 0.186762 -1.56489 0
M  V30 11153 C 1016.38 1.23395 -1.98232 0
M  V30 11154 C 1017.37 1.4702 -0.855526 0
M  V30 11155 O 1018.55 1.58616 -1.12048 0
M  V30 11156 C 1015.68 2.57635 -2.32898 0
M  V30 11157 C 1014.63 2.48607 -3.48394 0
M  V30 11158 C 1013.96 3.87196 -3.68759 0
M  V30 11159 C 1015.26 2.00398 -4.82325 0
M  V30 11160 H 1016.95 0.887026 -2.85958 0
M  V30 11161 H 1014.5 0.42525 -1.37578 0
M  V30 11162 H 1016.45 3.31082 -2.60696 0
M  V30 11163 H 1015.18 2.94084 -1.42064 0
M  V30 11164 H 1013.84 1.77615 -3.207 0
M  V30 11165 H 1013.48 4.21012 -2.75241 0
M  V30 11166 H 1013.18 3.82029 -4.46462 0
M  V30 11167 H 1014.71 4.62253 -3.98941 0
M  V30 11168 H 1016.12 2.6361 -5.091 0
M  V30 11169 H 1014.52 2.06214 -5.63556 0
M  V30 11170 H 1015.59 0.957562 -4.75351 0
M  V30 11171 N 1016.93 1.50896 0.454776 0
M  V30 11172 C 1017.88 1.70947 1.55067 0
M  V30 11173 C 1018.85 0.550899 1.56698 0
M  V30 11174 O 1020.03 0.783352 1.73978 0
M  V30 11175 C 1017.17 1.82455 2.92924 0
M  V30 11176 C 1016.29 3.09919 3.00956 0
M  V30 11177 C 1015.42 3.12125 4.29827 0
M  V30 11178 C 1014.46 4.33975 4.31662 0
M  V30 11179 N 1013.6 4.33828 5.5203 0
M  V30 11180 H 1018.44 2.645 1.37273 0
M  V30 11181 H 1015.98 1.31101 0.667148 0
M  V30 11182 H 1017.93 1.87108 3.72889 0
M  V30 11183 H 1016.56 0.92327 3.09315 0
M  V30 11184 H 1015.62 3.14659 2.13761 0
M  V30 11185 H 1016.93 3.99869 2.98172 0
M  V30 11186 H 1016.08 3.15598 5.18154 0
M  V30 11187 H 1014.82 2.20033 4.35243 0
M  V30 11188 H 1013.83 4.30697 3.41731 0
M  V30 11189 H 1015.05 5.27312 4.27924 0
M  V30 11190 H 1013 3.44598 5.58201 0
M  V30 11191 H 1012.91 5.17566 5.51055 0
M  V30 11192 H 1014.18 4.4147 6.42437 0
M  V30 11193 N 1018.41 -0.709066 1.40748 0
M  V30 11194 C 1019.36 -1.84445 1.41714 0
M  V30 11195 C 1020.35 -1.66779 0.296818 0
M  V30 11196 O 1021.56 -1.73805 0.468181 0
M  V30 11197 H 1017.93 -0.607581 0.443114 0
M  V30 11198 H 1019.9 -1.80747 2.3743 0
M  V30 11199 C 1018.65 -3.22362 1.303 0
M  V30 11200 H 1017.98 -3.36565 2.15787 0
M  V30 11201 H 1019.42 -4.01922 1.35036 0
M  V30 11202 C 1017.88 -3.36897 0.0139015 0
M  V30 11203 O 1018.41 -3.90389 -0.946553 0
M  V30 11204 N 1016.61 -2.90543 -0.0577491 0
M  V30 11205 H 1016.16 -2.472 0.724574 0
M  V30 11206 H 1016.12 -3.00647 -0.919721 0
M  V30 11207 N 1019.89 -1.26353 -0.941956 0
M  V30 11208 C 1020.82 -1.10341 -2.05784 0
M  V30 11209 C 1021.8 -0.00881565 -1.70098 0
M  V30 11210 O 1022.99 -0.180699 -1.93357 0
M  V30 11211 C 1020.12 -0.734788 -3.39438 0
M  V30 11212 C 1019.07 -1.78103 -3.89183 0
M  V30 11213 C 1018.4 -1.26675 -5.19478 0
M  V30 11214 C 1019.7 -3.1824 -4.14151 0
M  V30 11215 H 1021.39 -2.03684 -2.19438 0
M  V30 11216 H 1018.94 -0.980698 -1.05443 0
M  V30 11217 H 1020.89 -0.609653 -4.16967 0
M  V30 11218 H 1019.61 0.234354 -3.25758 0
M  V30 11219 H 1018.27 -1.89482 -3.13835 0
M  V30 11220 H 1017.92 -0.287472 -5.02178 0
M  V30 11221 H 1017.62 -1.96612 -5.53731 0
M  V30 11222 H 1019.14 -1.15427 -5.99591 0
M  V30 11223 H 1020.56 -3.09942 -4.82296 0
M  V30 11224 H 1018.95 -3.8576 -4.59684 0
M  V30 11225 H 1020.02 -3.64354 -3.19959 0
M  V30 11226 N 1021.37 1.14642 -1.08144 0
M  V30 11227 C 1022.78 1.6719 -0.830923 0
M  V30 11228 C 1023.13 1.85373 0.642749 0
M  V30 11229 O 1022.25 1.56293 1.49671 0
M  V30 11230 C 1022.85 3.03697 -1.50179 0
M  V30 11231 C 1021.41 3.5329 -1.29858 0
M  V30 11232 C 1020.56 2.28828 -1.5663 0
M  V30 11233 H 1023.51 0.987441 -1.24239 0
M  V30 11234 H 1023.53 3.69023 -0.9275 0
M  V30 11235 H 1023.04 2.90431 -2.57432 0
M  V30 11236 H 1021.14 3.71783 -0.246626 0
M  V30 11237 H 1021.25 4.34231 -2.02436 0
M  V30 11238 H 1019.62 2.34769 -0.987716 0
M  V30 11239 H 1020.4 2.18141 -2.65084 0
M  V30 11240 N 1022.85 0.866709 1.31628 0
M  V30 11241 C 1023.78 0.335762 2.31073 0
M  V30 11242 C 1024.76 -0.571597 1.60209 0
M  V30 11243 O 1025.94 -0.489306 1.87935 0
M  V30 11244 C 1023.07 -0.466416 3.44154 0
M  V30 11245 C 1022.03 0.347561 4.26586 0
M  V30 11246 C 1021.35 -0.5801 5.31544 0
M  V30 11247 C 1022.65 1.57986 4.97833 0
M  V30 11248 H 1024.35 1.16673 2.75731 0
M  V30 11249 H 1021.89 0.56248 1.3256 0
M  V30 11250 H 1023.84 -0.84836 4.12772 0
M  V30 11251 H 1022.57 -1.33086 2.98254 0
M  V30 11252 H 1021.23 0.71141 3.59631 0
M  V30 11253 H 1020.88 -1.44174 4.81895 0
M  V30 11254 H 1020.58 -0.0393965 5.87587 0
M  V30 11255 H 1022.1 -0.958958 6.03023 0
M  V30 11256 H 1023.51 1.26954 5.59067 0
M  V30 11257 H 1021.91 2.05939 5.63657 0
M  V30 11258 H 1022.98 2.3345 4.25005 0
M  V30 11259 N 1024.32 -1.44642 0.625825 0
M  V30 11260 C 1025.29 -2.29085 -0.072526 0
M  V30 11261 C 1026.29 -1.40755 -0.777467 0
M  V30 11262 O 1027.48 -1.62684 -0.622861 0
M  V30 11263 C 1024.61 -3.22212 -1.1132 0
M  V30 11264 H 1025.8 -2.92317 0.670124 0
M  V30 11265 H 1023.35 -1.51466 0.38571 0
M  V30 11266 H 1024.09 -2.63819 -1.88601 0
M  V30 11267 H 1023.87 -3.87299 -0.611709 0
M  V30 11268 H 1025.36 -3.8566 -1.60175 0
M  V30 11269 N 1025.8 -0.366053 -1.5329 0
M  V30 11270 C 1027.08 0.279902 -1.93587 0
M  V30 11271 C 1027.46 1.66352 -1.29963 0
M  V30 11272 O 1026.81 2.23845 -0.458895 0
M  V30 11273 C 1027.02 0.329634 -3.4744 0
M  V30 11274 C 1028.36 0.569754 -4.2076 0
M  V30 11275 O 1029.39 0.410823 -3.53823 0
M  V30 11276 O 1028.25 0.879262 -5.3938 0
M  V30 11277 H 1025.34 0.16802 -0.809752 0
M  V30 11278 H 1027.89 -0.418871 -1.64449 0
M  V30 11279 H 1026.66 -0.640434 -3.86023 0
M  V30 11280 H 1026.28 1.07428 -3.82812 0
M  V30 11281 N 1027.28 1.57312 -0.0952337 0
M  V30 11282 C 1028.21 2.11059 0.893678 0
M  V30 11283 C 1029.22 1.04787 1.24594 0
M  V30 11284 O 1030.41 1.32233 1.19903 0
M  V30 11285 C 1027.51 2.57552 2.20272 0
M  V30 11286 C 1026.69 3.87661 2.02578 0
M  V30 11287 C 1025.75 4.2 3.16996 0
M  V30 11288 O 1024.77 4.89219 2.90953 0
M  V30 11289 N 1025.97 3.75414 4.42769 0
M  V30 11290 H 1028.74 2.96532 0.434632 0
M  V30 11291 H 1026.3 1.6165 0.0898661 0
M  V30 11292 H 1028.29 2.76232 2.95766 0
M  V30 11293 H 1026.86 1.7709 2.576 0
M  V30 11294 H 1026.08 3.78128 1.11413 0
M  V30 11295 H 1027.37 4.7278 1.88032 0
M  V30 11296 H 1026.77 3.1954 4.66809 0
M  V30 11297 H 1025.32 3.99249 5.15212 0
M  V30 11298 N 1028.76 -0.17846 1.56586 0
M  V30 11299 C 1030.01 -0.894464 1.81228 0
M  V30 11300 C 1030.33 -1.83089 0.671062 0
M  V30 11301 O 1029.6 -1.93439 -0.309557 0
M  V30 11302 H 1028.18 -0.333288 0.668527 0
M  V30 11303 H 1030.84 -0.179986 1.94067 0
M  V30 11304 H 1029.93 -1.47565 2.75011 0
M  V30 11305 N 1030.24 -1.51135 -0.446768 0
M  V30 11306 C 1031.46 -1.67411 -1.22427 0
M  V30 11307 C 1031.89 -0.367009 -1.84485 0
M  V30 11308 O 1031.24 0.67185 -1.68392 0
M  V30 11309 C 1031.29 -2.78473 -2.29096 0
M  V30 11310 O 1030.4 -2.41419 -3.34351 0
M  V30 11311 H 1029.74 -0.558512 -0.359111 0
M  V30 11312 H 1032.27 -1.97648 -0.5288 0
M  V30 11313 H 1032.28 -3.02277 -2.7403 0
M  V30 11314 H 1030.95 -3.73326 -1.83304 0
M  V30 11315 H 1029.53 -2.28152 -2.9496 0
M  V30 11316 N 1031.71 0.701592 -1.41122 0
M  V30 11317 C 1032.94 1.49553 -1.43696 0
M  V30 11318 C 1033.36 1.88053 -0.0421865 0
M  V30 11319 O 1032.72 1.54223 0.953144 0
M  V30 11320 C 1032.77 2.73834 -2.34622 0
M  V30 11321 O 1031.87 3.71088 -1.7991 0
M  V30 11322 H 1031.21 0.450352 -0.487933 0
M  V30 11323 H 1033.74 0.862886 -1.85514 0
M  V30 11324 H 1033.75 3.22209 -2.5029 0
M  V30 11325 H 1032.43 2.45149 -3.35969 0
M  V30 11326 H 1031.01 3.29994 -1.73661 0
M  V30 11327 N 1033.19 1.2685 0.935242 0
M  V30 11328 C 1034.14 1.05586 2.02078 0
M  V30 11329 C 1035.13 -0.013699 1.60894 0
M  V30 11330 O 1036.32 0.203956 1.75821 0
M  V30 11331 C 1033.45 0.697118 3.36148 0
M  V30 11332 C 1032.53 1.80444 3.83798 0
M  V30 11333 N 1032.92 3.04283 4.04037 0
M  V30 11334 C 1031.22 1.68939 4.12766 0
M  V30 11335 C 1031.92 3.7629 4.436 0
M  V30 11336 N 1030.9 3.04011 4.50642 0
M  V30 11337 H 1034.7 1.99577 2.15746 0
M  V30 11338 H 1032.21 1.17455 1.12153 0
M  V30 11339 H 1034.21 0.525915 4.1357 0
M  V30 11340 H 1032.87 -0.235247 3.23847 0
M  V30 11341 H 1033.88 3.40125 3.90558 0
M  V30 11342 H 1030.56 0.827341 4.0922 0
M  V30 11343 H 1031.95 4.82687 4.67401 0
M  V30 11344 N 1034.67 -1.14067 1.0875 0
M  V30 11345 C 1035.62 -2.17302 0.690195 0
M  V30 11346 C 1036.6 -1.58229 -0.291948 0
M  V30 11347 O 1037.8 -1.76698 -0.103411 0
M  V30 11348 C 1034.93 -3.4314 0.104835 0
M  V30 11349 C 1034.01 -4.09235 1.11298 0
M  V30 11350 N 1034.4 -4.50601 2.29765 0
M  V30 11351 C 1032.7 -4.35775 0.949535 0
M  V30 11352 C 1033.4 -5.02029 2.93839 0
M  V30 11353 N 1032.38 -4.96457 2.21431 0
M  V30 11354 H 1036.18 -2.47031 1.59226 0
M  V30 11355 H 1033.69 -1.30788 0.962722 0
M  V30 11356 H 1035.69 -4.16431 -0.197777 0
M  V30 11357 H 1034.35 -3.14888 -0.792172 0
M  V30 11358 H 1035.36 -4.43529 2.67399 0
M  V30 11359 H 1032.04 -4.17364 0.106627 0
M  V30 11360 H 1033.43 -5.43885 3.94511 0
M  V30 11361 N 1036.15 -0.873678 -1.31166 0
M  V30 11362 C 1037.4 -0.482577 -1.95842 0
M  V30 11363 C 1037.71 0.970881 -1.69804 0
M  V30 11364 O 1038.92 1.4683 -2.28371 0
M  V30 11365 C 1037.37 -0.812074 -3.50619 0
M  V30 11366 C 1036.98 -2.28254 -3.85492 0
M  V30 11367 C 1038.72 -0.489624 -4.21667 0
M  V30 11368 C 1036.63 -2.55426 -5.33396 0
M  V30 11369 H 1035.56 -0.176736 -0.732994 0
M  V30 11370 H 1038.21 -1.06709 -1.49283 0
M  V30 11371 H 1036.59 -0.156769 -3.9569 0
M  V30 11372 H 1037.77 -2.98122 -3.51369 0
M  V30 11373 H 1036.08 -2.5714 -3.27518 0
M  V30 11374 H 1038.68 -0.669811 -5.30488 0
M  V30 11375 H 1039.02 0.570204 -4.12376 0
M  V30 11376 H 1039.56 -1.10163 -3.82242 0
M  V30 11377 H 1036.3 -3.60106 -5.47726 0
M  V30 11378 H 1035.82 -1.90156 -5.68859 0
M  V30 11379 H 1037.49 -2.40345 -6.00702 0
M  V30 11380 N 1037.63 1.44308 -0.633487 0
M  V30 11381 C 1038.85 2.06384 -0.146063 0
M  V30 11382 C 1039.27 1.47357 1.18031 0
M  V30 11383 O 1038.63 0.597334 1.72448 0
M  V30 11384 C 1038.68 3.61489 -0.0276722 0
M  V30 11385 O 1038.4 4.18318 -1.3016 0
M  V30 11386 C 1039.9 4.40604 0.488168 0
M  V30 11387 H 1037.12 0.666122 -0.0807632 0
M  V30 11388 H 1039.66 1.85139 -0.868557 0
M  V30 11389 H 1037.82 3.81988 0.645273 0
M  V30 11390 H 1038.23 5.11783 -1.14797 0
M  V30 11391 H 1039.71 5.49545 0.520013 0
M  V30 11392 H 1040.18 4.12218 1.51568 0
M  V30 11393 H 1040.79 4.2503 -0.151608 0
M  V30 11394 N 1039.1 0.374177 1.53094 0
M  V30 11395 C 1040.35 -0.213131 2.01677 0
M  V30 11396 C 1040.68 -1.47715 1.26071 0
M  V30 11397 O 1039.96 -1.91199 0.356834 0
M  V30 11398 C 1040.24 -0.496392 3.56662 0
M  V30 11399 C 1040.09 0.781859 4.42953 0
M  V30 11400 C 1041.41 -1.29339 4.20666 0
M  V30 11401 H 1038.53 -0.0759885 0.733072 0
M  V30 11402 H 1041.17 0.500765 1.83282 0
M  V30 11403 H 1039.32 -1.10455 3.72467 0
M  V30 11404 H 1041 1.41914 4.38928 0
M  V30 11405 H 1039.24 1.40041 4.10574 0
M  V30 11406 H 1039.91 0.538508 5.49367 0
M  V30 11407 H 1042.39 -0.778848 4.08746 0
M  V30 11408 H 1041.26 -1.46033 5.29118 0
M  V30 11409 H 1041.52 -2.30435 3.77296 0
M  V30 11410 N 1040.58 -1.57259 0.103575 0
M  V30 11411 C 1041.53 -2.14487 -0.852295 0
M  V30 11412 C 1042.5 -1.06567 -1.27407 0
M  V30 11413 O 1043.68 -1.34398 -1.35432 0
M  V30 11414 C 1040.82 -2.73632 -2.10284 0
M  V30 11415 C 1039.94 -3.95811 -1.73083 0
M  V30 11416 C 1039.07 -4.43093 -2.92988 0
M  V30 11417 C 1038.11 -5.5784 -2.51953 0
M  V30 11418 N 1037.25 -5.99936 -3.64721 0
M  V30 11419 H 1042.09 -2.95849 -0.35743 0
M  V30 11420 H 1039.63 -1.46175 -0.164748 0
M  V30 11421 H 1041.58 -3.06046 -2.83534 0
M  V30 11422 H 1040.21 -1.94985 -2.57256 0
M  V30 11423 H 1039.27 -3.69656 -0.897688 0
M  V30 11424 H 1040.58 -4.79066 -1.38916 0
M  V30 11425 H 1039.73 -4.77335 -3.74481 0
M  V30 11426 H 1038.47 -3.58756 -3.30372 0
M  V30 11427 H 1037.48 -5.23217 -1.6889 0
M  V30 11428 H 1038.7 -6.43932 -2.15705 0
M  V30 11429 H 1036.65 -5.18543 -4.01807 0
M  V30 11430 H 1036.56 -6.78008 -3.34427 0
M  V30 11431 H 1037.83 -6.38812 -4.46699 0
M  V30 11432 N 1042.06 0.170153 -1.56679 0
M  V30 11433 C 1043.31 0.884902 -1.81252 0
M  V30 11434 C 1043.62 1.83361 -0.681024 0
M  V30 11435 O 1044.83 2.59082 -0.811722 0
M  V30 11436 C 1043.28 1.62408 -3.21172 0
M  V30 11437 C 1042.89 0.718947 -4.42194 0
M  V30 11438 C 1044.64 2.32699 -3.55037 0
M  V30 11439 C 1042.54 1.45843 -5.73135 0
M  V30 11440 H 1041.47 0.33418 -0.675899 0
M  V30 11441 H 1044.12 0.137818 -1.82982 0
M  V30 11442 H 1042.51 2.41596 -3.13763 0
M  V30 11443 H 1043.68 -0.0360521 -4.60786 0
M  V30 11444 H 1042 0.125634 -4.1621 0
M  V30 11445 H 1044.59 2.88621 -4.50114 0
M  V30 11446 H 1044.94 3.08092 -2.79974 0
M  V30 11447 H 1045.47 1.60453 -3.64005 0
M  V30 11448 H 1042.21 0.746799 -6.51232 0
M  V30 11449 H 1041.73 2.18672 -5.58518 0
M  V30 11450 H 1043.41 2.0056 -6.1513 0
M  V30 11451 N 1043.54 1.5137 0.438746 0
M  V30 11452 C 1044.49 1.73154 1.55308 0
M  V30 11453 C 1045.48 0.597825 1.58501 0
M  V30 11454 O 1046.69 0.77917 1.62262 0
M  V30 11455 H 1043.06 0.547083 0.51595 0
M  V30 11456 H 1045.03 2.66566 1.34108 0
M  V30 11457 C 1043.78 1.87242 2.92977 0
M  V30 11458 H 1043.1 2.73884 2.91252 0
M  V30 11459 H 1044.54 2.06497 3.70317 0
M  V30 11460 C 1043 0.631887 3.30921 0
M  V30 11461 O 1043.53 -0.214099 4.01129 0
M  V30 11462 N 1041.74 0.47639 2.86669 0
M  V30 11463 H 1041.29 1.16589 2.29706 0
M  V30 11464 H 1041.24 -0.352403 3.12419 0
M  V30 11465 N 1045.02 -0.694098 1.41492 0
M  V30 11466 C 1045.93 -1.83778 1.45818 0
M  V30 11467 C 1046.94 -1.70471 0.348639 0
M  V30 11468 O 1048.12 -1.92361 0.596588 0
M  V30 11469 C 1045.18 -3.19771 1.33967 0
M  V30 11470 C 1044.24 -3.45175 2.5525 0
M  V30 11471 C 1043.48 -4.74681 2.43955 0
M  V30 11472 O 1043.7 -5.51268 1.46491 0
M  V30 11473 O 1042.63 -5.00901 3.33739 0
M  V30 11474 H 1046.46 -1.83084 2.42309 0
M  V30 11475 H 1044.05 -0.847349 1.23046 0
M  V30 11476 H 1045.93 -4.00961 1.29648 0
M  V30 11477 H 1044.6 -3.21145 0.405926 0
M  V30 11478 H 1043.51 -2.6391 2.65146 0
M  V30 11479 H 1044.84 -3.48617 3.47458 0
M  V30 11480 N 1046.49 -1.27344 -0.928501 0
M  V30 11481 C 1047.42 -1.12517 -2.04602 0
M  V30 11482 C 1048.41 -0.0268563 -1.70079 0
M  V30 11483 O 1049.59 -0.201197 -1.93155 0
M  V30 11484 C 1046.72 -0.770749 -3.3864 0
M  V30 11485 C 1045.67 -1.8222 -3.87272 0
M  V30 11486 C 1045 -1.32178 -5.18105 0
M  V30 11487 C 1046.3 -3.22614 -4.10752 0
M  V30 11488 H 1047.99 -2.06 -2.17265 0
M  V30 11489 H 1045.54 -0.991827 -1.04397 0
M  V30 11490 H 1047.49 -0.653843 -4.16297 0
M  V30 11491 H 1046.22 0.19979 -3.25988 0
M  V30 11492 H 1044.88 -1.928 -3.11807 0
M  V30 11493 H 1044.52 -0.340719 -5.01845 0
M  V30 11494 H 1044.22 -2.02474 -5.51614 0
M  V30 11495 H 1045.75 -1.2178 -5.98333 0
M  V30 11496 H 1047.16 -3.1504 -4.78981 0
M  V30 11497 H 1045.56 -3.90614 -4.55566 0
M  V30 11498 H 1046.63 -3.67727 -3.16077 0
M  V30 11499 N 1047.97 1.13488 -1.09353 0
M  V30 11500 C 1048.92 2.18876 -0.732251 0
M  V30 11501 C 1049.89 1.63616 0.286175 0
M  V30 11502 O 1051.07 1.90059 0.167981 0
M  V30 11503 C 1048.21 3.44737 -0.158157 0
M  V30 11504 C 1047.33 4.14104 -1.23053 0
M  V30 11505 C 1046.46 5.27578 -0.619272 0
M  V30 11506 C 1045.5 5.88793 -1.67301 0
M  V30 11507 N 1044.64 6.937 -1.08283 0
M  V30 11508 H 1049.48 2.49128 -1.63522 0
M  V30 11509 H 1047.02 1.22326 -0.816995 0
M  V30 11510 H 1048.97 4.16756 0.192488 0
M  V30 11511 H 1047.6 3.14938 0.708082 0
M  V30 11512 H 1046.66 3.40376 -1.69847 0
M  V30 11513 H 1047.97 4.55683 -2.02865 0
M  V30 11514 H 1047.12 6.0631 -0.217428 0
M  V30 11515 H 1045.86 4.87246 0.210399 0
M  V30 11516 H 1044.87 5.08756 -2.0844 0
M  V30 11517 H 1046.09 6.31197 -2.50533 0
M  V30 11518 H 1044.04 6.55426 -0.274426 0
M  V30 11519 H 1043.95 7.33817 -1.81792 0
M  V30 11520 H 1045.22 7.76286 -0.707167 0
M  V30 11521 N 1049.45 0.880621 1.30701 0
M  V30 11522 C 1050.68 0.510909 2.01009 0
M  V30 11523 C 1051.1 -0.892041 1.65603 0
M  V30 11524 O 1050.46 -1.59045 0.870309 0
M  V30 11525 C 1050.51 0.687759 3.53981 0
M  V30 11526 O 1049.61 -0.268275 4.11526 0
M  V30 11527 H 1048.95 0.201864 0.632572 0
M  V30 11528 H 1051.48 1.18697 1.6665 0
M  V30 11529 H 1051.49 0.585095 4.03783 0
M  V30 11530 H 1050.17 1.71068 3.79089 0
M  V30 11531 H 1048.74 -0.119673 3.72708 0
M  V30 11532 N 1050.93 -1.4397 0.641131 0
M  V30 11533 C 1052.18 -2.02246 0.14985 0
M  V30 11534 C 1052.51 -1.50387 -1.22871 0
M  V30 11535 O 1051.78 -0.692003 -1.81773 0
M  V30 11536 C 1052.07 -3.59798 0.147449 0
M  V30 11537 C 1051.92 -4.21916 1.55907 0
M  V30 11538 C 1053.24 -4.36985 -0.522667 0
M  V30 11539 H 1050.36 -0.734875 0.0559274 0
M  V30 11540 H 1053 -1.71418 0.819513 0
M  V30 11541 H 1051.15 -3.86193 -0.422789 0
M  V30 11542 H 1052.82 -4.06594 2.17896 0
M  V30 11543 H 1051.06 -3.79028 2.10998 0
M  V30 11544 H 1051.74 -5.30964 1.50934 0
M  V30 11545 H 1054.21 -4.16083 -0.0376226 0
M  V30 11546 H 1053.09 -5.46676 -0.493572 0
M  V30 11547 H 1053.35 -4.12335 -1.59475 0
M  V30 11548 N 1052.41 -0.382291 -1.52893 0
M  V30 11549 C 1053.34 0.491199 -2.23875 0
M  V30 11550 C 1054.35 1.03249 -1.25871 0
M  V30 11551 O 1055.54 0.936016 -1.5199 0
M  V30 11552 C 1052.64 1.6927 -2.936 0
M  V30 11553 C 1051.81 1.28 -4.18252 0
M  V30 11554 C 1050.87 2.34541 -4.71038 0
M  V30 11555 O 1049.9 1.96239 -5.34302 0
M  V30 11556 N 1051.1 3.6636 -4.50289 0
M  V30 11557 H 1053.87 -0.116897 -2.99472 0
M  V30 11558 H 1051.43 -0.208296 -1.60554 0
M  V30 11559 H 1053.42 2.40054 -3.25816 0
M  V30 11560 H 1051.99 2.20729 -2.21354 0
M  V30 11561 H 1051.21 0.40133 -3.92152 0
M  V30 11562 H 1052.5 0.98082 -4.99257 0
M  V30 11563 H 1051.9 4.00245 -3.99775 0
M  V30 11564 H 1050.45 4.332 -4.87013 0
M  V30 11565 N 1053.89 1.57202 -0.111913 0
M  V30 11566 C 1054.83 2.16186 0.858286 0
M  V30 11567 C 1055.83 1.10917 1.28039 0
M  V30 11568 O 1057.03 1.29233 1.25295 0
M  V30 11569 H 1053.41 0.691777 0.29487 0
M  V30 11570 H 1055.38 2.96499 0.336265 0
M  V30 11571 C 1054.13 2.77024 2.10127 0
M  V30 11572 H 1053.45 3.5772 1.78539 0
M  V30 11573 H 1054.89 3.21841 2.76033 0
M  V30 11574 C 1053.35 1.73752 2.88638 0
M  V30 11575 O 1053.88 1.18659 3.83774 0
M  V30 11576 N 1052.09 1.43855 2.52496 0
M  V30 11577 H 1051.63 1.88846 1.75199 0
M  V30 11578 H 1051.59 0.749985 3.05324 0
M  V30 11579 N 1055.36 -0.161842 1.56767 0
M  V30 11580 C 1056.64 -0.904754 1.73417 0
M  V30 11581 C 1057.02 -1.99987 0.675908 0
M  V30 11582 O 1056.37 -2.26419 -0.307712 0
M  V30 11583 C 1056.58 -1.46082 3.16956 0
M  V30 11584 C 1057.93 -1.93004 3.78199 0
M  V30 11585 O 1058.95 -1.55856 3.20293 0
M  V30 11586 O 1057.81 -2.61465 4.79894 0
M  V30 11587 H 1054.9 -0.426518 0.708528 0
M  V30 11588 H 1057.45 -0.148928 1.69045 0
M  V30 11589 H 1056.22 -0.673087 3.85468 0
M  V30 11590 H 1055.84 -2.28056 3.25693 0
M  V30 11591 N 1056.84 -1.516 -0.430713 0
M  V30 11592 C 1058.07 -1.687 -1.20644 0
M  V30 11593 C 1058.49 -0.386555 -1.84085 0
M  V30 11594 O 1057.85 0.653952 -1.69095 0
M  V30 11595 C 1057.9 -2.80887 -2.2613 0
M  V30 11596 O 1057 -2.44952 -3.31772 0
M  V30 11597 H 1056.34 -0.562289 -0.353167 0
M  V30 11598 H 1058.87 -1.98198 -0.507807 0
M  V30 11599 H 1058.88 -3.05167 -2.70809 0
M  V30 11600 H 1057.56 -3.75249 -1.79334 0
M  V30 11601 H 1056.13 -2.31267 -2.92523 0
M  V30 11602 N 1058.32 0.686584 -1.41858 0
M  V30 11603 C 1059.25 1.81202 -1.40352 0
M  V30 11604 C 1060.26 1.5993 -0.304322 0
M  V30 11605 O 1061.45 1.69267 -0.566643 0
M  V30 11606 C 1058.55 3.18116 -1.16856 0
M  V30 11607 C 1057.73 3.66339 -2.38987 0
M  V30 11608 C 1056.79 4.8195 -2.11212 0
M  V30 11609 O 1055.81 4.93102 -2.84323 0
M  V30 11610 N 1057.01 5.69829 -1.10793 0
M  V30 11611 H 1059.78 1.82983 -2.37355 0
M  V30 11612 H 1057.34 0.869244 -1.36586 0
M  V30 11613 H 1059.33 3.93097 -0.962125 0
M  V30 11614 H 1057.9 3.11306 -0.284186 0
M  V30 11615 H 1057.12 2.82166 -2.75274 0
M  V30 11616 H 1058.41 3.95297 -3.2034 0
M  V30 11617 H 1057.81 5.63459 -0.503012 0
M  V30 11618 H 1056.36 6.44671 -0.961379 0
M  V30 11619 N 1059.8 1.27835 0.921735 0
M  V30 11620 C 1060.76 1.11108 2.00469 0
M  V30 11621 C 1061.76 0.053203 1.60712 0
M  V30 11622 O 1062.95 0.298308 1.71627 0
M  V30 11623 C 1060.08 0.694269 3.33755 0
M  V30 11624 H 1061.28 2.07279 2.16738 0
M  V30 11625 H 1058.83 1.10708 1.10333 0
M  V30 11626 H 1059.56 -0.268561 3.23186 0
M  V30 11627 H 1059.35 1.45836 3.6397 0
M  V30 11628 H 1060.84 0.59965 4.13272 0
M  V30 11629 N 1061.28 -1.12907 1.09954 0
M  V30 11630 C 1062.52 -1.83661 0.833761 0
M  V30 11631 C 1062.84 -1.84736 -0.642798 0
M  V30 11632 O 1064.04 -2.51437 -1.0243 0
M  V30 11633 C 1062.5 -3.29763 1.44168 0
M  V30 11634 C 1062.11 -3.3706 2.95118 0
M  V30 11635 C 1063.85 -4.05522 1.25509 0
M  V30 11636 C 1061.76 -4.77467 3.48969 0
M  V30 11637 H 1060.69 -0.688115 0.308242 0
M  V30 11638 H 1063.34 -1.27166 1.32291 0
M  V30 11639 H 1061.72 -3.86094 0.880215 0
M  V30 11640 H 1062.9 -2.90695 3.57537 0
M  V30 11641 H 1061.21 -2.7477 3.12874 0
M  V30 11642 H 1063.81 -5.09188 1.63191 0
M  V30 11643 H 1064.15 -4.15837 0.196208 0
M  V30 11644 H 1064.68 -3.55536 1.78435 0
M  V30 11645 H 1061.42 -4.72344 4.54501 0
M  V30 11646 H 1060.94 -5.24305 2.91315 0
M  V30 11647 H 1062.62 -5.46397 3.46495 0
M  V30 11648 N 1062.75 -0.88754 -1.30232 0
M  V30 11649 C 1063.72 -0.361095 -2.26338 0
M  V30 11650 C 1064.72 0.497871 -1.52898 0
M  V30 11651 O 1065.91 0.30466 -1.71515 0
M  V30 11652 C 1063.04 0.485135 -3.3743 0
M  V30 11653 H 1064.23 -1.20973 -2.74419 0
M  V30 11654 H 1061.78 -0.664619 -1.41466 0
M  V30 11655 H 1062.52 1.35425 -2.9467 0
M  V30 11656 H 1062.3 -0.130173 -3.91884 0
M  V30 11657 H 1063.79 0.845169 -4.08958 0
M  V30 11658 N 1064.23 1.43628 -0.648757 0
M  V30 11659 C 1065.14 2.34554 0.0463037 0
M  V30 11660 C 1066.16 1.53629 0.816952 0
M  V30 11661 O 1067.33 1.86297 0.765212 0
M  V30 11662 C 1064.4 3.3185 1.00381 0
M  V30 11663 C 1063.46 4.2868 0.230589 0
M  V30 11664 C 1062.69 5.21328 1.14249 0
M  V30 11665 O 1062.92 5.18298 2.38166 0
M  V30 11666 O 1061.85 5.98726 0.617296 0
M  V30 11667 H 1065.68 2.95475 -0.702008 0
M  V30 11668 H 1063.26 1.43694 -0.408942 0
M  V30 11669 H 1065.14 3.91692 1.5542 0
M  V30 11670 H 1063.82 2.73439 1.73243 0
M  V30 11671 H 1062.73 3.72332 -0.363282 0
M  V30 11672 H 1064.06 4.90061 -0.458368 0
M  V30 11673 N 1065.71 0.390394 1.52688 0
M  V30 11674 C 1066.96 -0.191729 2.01892 0
M  V30 11675 C 1067.29 -1.4637 1.27631 0
M  V30 11676 O 1066.56 -1.90809 0.377094 0
M  V30 11677 C 1066.85 -0.458535 3.57169 0
M  V30 11678 C 1066.7 0.828796 4.42098 0
M  V30 11679 C 1068.02 -1.2487 4.22014 0
M  V30 11680 H 1065.14 -0.0682091 0.733837 0
M  V30 11681 H 1067.78 0.520176 1.82741 0
M  V30 11682 H 1065.93 -1.06498 3.73618 0
M  V30 11683 H 1067.6 1.46562 4.37398 0
M  V30 11684 H 1065.85 1.44388 4.09066 0
M  V30 11685 H 1066.52 0.596746 5.48765 0
M  V30 11686 H 1068.99 -0.735452 4.09549 0
M  V30 11687 H 1067.87 -1.40412 5.30637 0
M  V30 11688 H 1068.13 -2.2642 3.79719 0
M  V30 11689 N 1067.19 -1.57141 0.120249 0
M  V30 11690 C 1068.12 -2.18398 -0.826112 0
M  V30 11691 C 1069.1 -1.12439 -1.27638 0
M  V30 11692 O 1070.28 -1.40679 -1.33877 0
M  V30 11693 C 1067.41 -2.78438 -2.0758 0
M  V30 11694 C 1066.37 -3.89991 -1.76327 0
M  V30 11695 C 1065.69 -4.36844 -3.08336 0
M  V30 11696 C 1066.99 -5.12031 -1.03062 0
M  V30 11697 H 1068.69 -2.97731 -0.315656 0
M  V30 11698 H 1066.23 -1.43213 -0.150387 0
M  V30 11699 H 1068.19 -3.19951 -2.74243 0
M  V30 11700 H 1066.91 -1.96396 -2.60953 0
M  V30 11701 H 1065.57 -3.49055 -1.12053 0
M  V30 11702 H 1065.22 -3.51659 -3.59646 0
M  V30 11703 H 1064.92 -5.1207 -2.88199 0
M  V30 11704 H 1066.44 -4.81009 -3.76116 0
M  V30 11705 H 1067.86 -5.50555 -1.59881 0
M  V30 11706 H 1066.25 -5.92848 -0.930146 0
M  V30 11707 H 1067.32 -4.84897 -0.017582 0
M  V30 11708 N 1068.67 0.153526 -1.5685 0
M  V30 11709 C 1069.61 1.20896 -1.98713 0
M  V30 11710 C 1070.61 1.44839 -0.878529 0
M  V30 11711 O 1071.81 1.45208 -1.0637 0
M  V30 11712 H 1068.19 0.406797 -0.632472 0
M  V30 11713 H 1070.16 0.829145 -2.86649 0
M  V30 11714 C 1068.91 2.53642 -2.37825 0
M  V30 11715 H 1068.23 2.36047 -3.22679 0
M  V30 11716 H 1069.67 3.26136 -2.70946 0
M  V30 11717 C 1068.13 3.13706 -1.22841 0
M  V30 11718 O 1068.66 3.98246 -0.525626 0
M  V30 11719 N 1066.87 2.73059 -0.99435 0
M  V30 11720 H 1066.41 2.0441 -1.56761 0
M  V30 11721 H 1066.37 3.1358 -0.226883 0
M  V30 11722 N 1070.14 1.51827 0.422667 0
M  V30 11723 C 1071.08 1.70409 1.53275 0
M  V30 11724 C 1072.09 0.584584 1.51942 0
M  V30 11725 O 1073.28 0.859349 1.56453 0
M  V30 11726 C 1070.38 1.717 2.92185 0
M  V30 11727 C 1069.55 3.00472 3.17861 0
M  V30 11728 C 1068.61 2.93755 4.36571 0
M  V30 11729 O 1067.64 3.67682 4.3451 0
M  V30 11730 N 1068.84 2.10612 5.40946 0
M  V30 11731 H 1071.6 2.66176 1.37734 0
M  V30 11732 H 1069.16 1.49895 0.611799 0
M  V30 11733 H 1071.16 1.64756 3.69645 0
M  V30 11734 H 1069.73 0.834655 3.01251 0
M  V30 11735 H 1068.95 3.21171 2.28567 0
M  V30 11736 H 1070.23 3.85684 3.31851 0
M  V30 11737 H 1069.63 1.49954 5.45463 0
M  V30 11738 H 1068.19 2.09535 6.17202 0
M  V30 11739 N 1071.62 -0.679052 1.4222 0
M  V30 11740 C 1072.55 -1.80481 1.48152 0
M  V30 11741 C 1073.53 -1.66698 0.338502 0
M  V30 11742 O 1074.72 -1.86183 0.552228 0
M  V30 11743 C 1071.85 -3.18746 1.37908 0
M  V30 11744 C 1070.8 -3.47258 2.50192 0
M  V30 11745 C 1070.13 -4.85052 2.25008 0
M  V30 11746 C 1071.43 -3.44576 3.92511 0
M  V30 11747 H 1073.12 -1.75774 2.42371 0
M  V30 11748 H 1070.67 -0.844241 1.16656 0
M  V30 11749 H 1072.62 -3.97229 1.40666 0
M  V30 11750 H 1071.35 -3.24119 0.401806 0
M  V30 11751 H 1070 -2.71133 2.46744 0
M  V30 11752 H 1069.65 -4.8707 1.25584 0
M  V30 11753 H 1069.35 -5.05092 3.00259 0
M  V30 11754 H 1070.88 -5.65825 2.29508 0
M  V30 11755 H 1072.29 -4.13036 3.97585 0
M  V30 11756 H 1070.69 -3.76151 4.67579 0
M  V30 11757 H 1071.76 -2.4323 4.19484 0
M  V30 11758 N 1073.1 -1.28322 -0.914942 0
M  V30 11759 C 1074.05 -1.12146 -2.01722 0
M  V30 11760 C 1075.02 -0.0189279 -1.66089 0
M  V30 11761 O 1076.2 -0.183638 -1.89914 0
M  V30 11762 C 1073.34 -0.78808 -3.35981 0
M  V30 11763 C 1072.46 -1.96954 -3.84491 0
M  V30 11764 C 1071.59 -1.57688 -5.07255 0
M  V30 11765 C 1070.63 -2.72506 -5.48094 0
M  V30 11766 N 1069.77 -2.33741 -6.62049 0
M  V30 11767 H 1074.61 -2.06461 -2.1489 0
M  V30 11768 H 1072.14 -1.0276 -1.05256 0
M  V30 11769 H 1074.1 -0.575546 -4.13211 0
M  V30 11770 H 1072.73 0.118132 -3.22584 0
M  V30 11771 H 1071.78 -2.29423 -3.03429 0
M  V30 11772 H 1073.1 -2.8304 -4.10719 0
M  V30 11773 H 1072.25 -1.32634 -5.92025 0
M  V30 11774 H 1070.99 -0.687291 -4.82833 0
M  V30 11775 H 1069.99 -2.9826 -4.61867 0
M  V30 11776 H 1071.22 -3.62106 -5.74505 0
M  V30 11777 H 1069.16 -1.4725 -6.3926 0
M  V30 11778 H 1069.08 -3.13364 -6.87997 0
M  V30 11779 H 1070.35 -2.11968 -7.50127 0
M  V30 11780 N 1074.58 1.12322 -1.10551 0
M  V30 11781 C 1075.86 1.80201 -0.760715 0
M  V30 11782 C 1076.24 1.97228 0.752628 0
M  V30 11783 O 1075.58 1.54958 1.67929 0
M  V30 11784 C 1075.79 3.14491 -1.51316 0
M  V30 11785 C 1077.14 3.89671 -1.68647 0
M  V30 11786 O 1078.17 3.24151 -1.47664 0
M  V30 11787 O 1077.02 5.0722 -2.03445 0
M  V30 11788 H 1074.12 0.780084 -0.274587 0
M  V30 11789 H 1076.66 1.19147 -1.20839 0
M  V30 11790 H 1075.44 2.97396 -2.54306 0
M  V30 11791 H 1075.06 3.83253 -1.05842 0
M  V30 11792 N 1076.06 0.894434 1.2976 0
M  V30 11793 C 1076.99 0.312806 2.26046 0
M  V30 11794 C 1077.97 -0.572024 1.52206 0
M  V30 11795 O 1079.15 -0.520009 1.81185 0
M  V30 11796 C 1076.28 -0.554624 3.34128 0
M  V30 11797 C 1075.32 0.262168 4.25693 0
M  V30 11798 S 1076.16 1.65656 5.09233 0
M  V30 11799 C 1077.31 0.795914 6.20819 0
M  V30 11800 H 1077.55 1.12895 2.75031 0
M  V30 11801 H 1075.08 0.694446 1.37901 0
M  V30 11802 H 1077.04 -1.04933 3.96862 0
M  V30 11803 H 1075.7 -1.34495 2.83848 0
M  V30 11804 H 1074.89 -0.400216 5.02408 0
M  V30 11805 H 1074.49 0.689829 3.67583 0
M  V30 11806 H 1076.79 0.0169942 6.77498 0
M  V30 11807 H 1077.73 1.53497 6.91263 0
M  V30 11808 H 1078.14 0.35263 5.63398 0
M  V30 11809 N 1077.53 -1.43282 0.656365 0
M  V30 11810 C 1078.46 -2.33492 -0.0196962 0
M  V30 11811 C 1079.45 -1.49647 -0.80868 0
M  V30 11812 O 1080.63 -1.78303 -0.769529 0
M  V30 11813 C 1077.76 -3.33052 -0.984574 0
M  V30 11814 C 1076.71 -4.26908 -0.305483 0
M  V30 11815 C 1076.04 -5.16531 -1.38202 0
M  V30 11816 C 1077.34 -5.16073 0.804081 0
M  V30 11817 H 1079.03 -2.90272 0.733661 0
M  V30 11818 H 1076.58 -1.39574 0.354259 0
M  V30 11819 H 1078.53 -3.9506 -1.46647 0
M  V30 11820 H 1077.26 -2.74535 -1.76913 0
M  V30 11821 H 1075.92 -3.66268 0.155995 0
M  V30 11822 H 1075.56 -4.54351 -2.1581 0
M  V30 11823 H 1075.26 -5.80148 -0.932878 0
M  V30 11824 H 1076.79 -5.81414 -1.86522 0
M  V30 11825 H 1078.2 -5.71873 0.404212 0
M  V30 11826 H 1076.6 -5.88427 1.17789 0
M  V30 11827 H 1077.67 -4.55574 1.66073 0
M  V30 11828 N 1079.01 -0.398486 -1.52479 0
M  V30 11829 C 1079.98 0.420206 -2.25315 0
M  V30 11830 C 1080.98 0.982559 -1.27289 0
M  V30 11831 O 1082.17 0.863113 -1.51314 0
M  V30 11832 C 1079.3 1.59045 -3.01525 0
M  V30 11833 H 1080.49 -0.217599 -2.9911 0
M  V30 11834 H 1078.04 -0.150784 -1.55571 0
M  V30 11835 H 1078.78 2.26542 -2.32054 0
M  V30 11836 H 1078.56 1.19382 -3.73484 0
M  V30 11837 H 1080.05 2.16984 -3.56802 0
M  V30 11838 N 1080.49 1.57075 -0.12858 0
M  V30 11839 C 1081.44 2.17084 0.835308 0
M  V30 11840 C 1082.43 1.12268 1.26855 0
M  V30 11841 O 1083.64 1.30554 1.23917 0
M  V30 11842 H 1080.01 0.694866 0.287516 0
M  V30 11843 H 1081.99 2.96839 0.304798 0
M  V30 11844 C 1080.73 2.79237 2.07177 0
M  V30 11845 H 1080.06 3.59594 1.74735 0
M  V30 11846 H 1081.5 3.24751 2.72604 0
M  V30 11847 C 1079.96 1.76803 2.86779 0
M  V30 11848 O 1080.49 1.22723 3.82494 0
M  V30 11849 N 1078.69 1.46525 2.50956 0
M  V30 11850 H 1078.24 1.90694 1.73187 0
M  V30 11851 H 1078.2 0.782326 3.04511 0
M  V30 11852 N 1081.97 -0.145205 1.5693 0
M  V30 11853 C 1083.22 -0.857516 1.83447 0
M  V30 11854 C 1083.54 -1.81088 0.709739 0
M  V30 11855 O 1082.8 -1.9337 -0.301097 0
M  V30 11856 C 1083.1 -1.66391 3.16305 0
M  V30 11857 C 1082.76 -0.857171 4.42678 0
M  V30 11858 C 1081.43 -0.634611 4.76997 0
M  V30 11859 C 1083.78 -0.293105 5.20375 0
M  V30 11860 C 1081.11 0.162693 5.86474 0
M  V30 11861 C 1083.46 0.491248 6.3069 0
M  V30 11862 C 1082.12 0.724368 6.63558 0
M  V30 11863 H 1081.39 -0.313787 0.671281 0
M  V30 11864 H 1084.04 -0.121074 1.91117 0
M  V30 11865 H 1082.34 -2.47051 3.04094 0
M  V30 11866 H 1084.04 -2.21855 3.34038 0
M  V30 11867 H 1080.63 -1.0407 4.15773 0
M  V30 11868 H 1084.82 -0.452326 4.94234 0
M  V30 11869 H 1080.07 0.352788 6.10381 0
M  V30 11870 H 1084.25 0.935449 6.90089 0
M  V30 11871 H 1081.87 1.34403 7.48224 0
M  V30 11872 N 1083.45 -1.52049 -0.414609 0
M  V30 11873 C 1084.86 -1.40729 -0.752822 0
M  V30 11874 C 1085.06 -0.507468 -1.95005 0
M  V30 11875 O 1084.12 0.0288189 -2.52484 0
M  V30 11876 C 1085.43 -2.83163 -1.01189 0
M  V30 11877 C 1086.98 -2.92469 -1.11494 0
M  V30 11878 C 1087.46 -4.35859 -1.4068 0
M  V30 11879 N 1088.95 -4.39069 -1.47557 0
M  V30 11880 C 1089.68 -5.47072 -1.71756 0
M  V30 11881 N 1089.18 -6.65201 -1.93595 0
M  V30 11882 N 1090.97 -5.3458 -1.73726 0
M  V30 11883 H 1083.12 -2.09089 0.373549 0
M  V30 11884 H 1085.38 -0.942188 0.104814 0
M  V30 11885 H 1085.09 -3.51104 -0.204609 0
M  V30 11886 H 1084.96 -3.23874 -1.93353 0
M  V30 11887 H 1087.35 -2.24711 -1.91282 0
M  V30 11888 H 1087.43 -2.55222 -0.171794 0
M  V30 11889 H 1087.08 -5.04174 -0.614119 0
M  V30 11890 H 1087.01 -4.70637 -2.36238 0
M  V30 11891 H 1089.5 -3.53913 -1.32491 0
M  V30 11892 H 1089.81 -7.43297 -2.11495 0
M  V30 11893 H 1088.16 -6.68276 -1.90871 0
M  V30 11894 H 1091.35 -4.41271 -1.56198 0
M  V30 11895 H 1091.52 -6.18826 -1.92246 0
M  V30 11896 N 1084.93 0.6715 -1.42579 0
M  V30 11897 C 1086.17 1.42871 -1.42941 0
M  V30 11898 C 1086.49 1.94941 -0.0480483 0
M  V30 11899 O 1085.76 1.73275 0.913921 0
M  V30 11900 H 1084.34 0.530189 -0.526221 0
M  V30 11901 H 1087.01 0.793219 -1.78028 0
M  V30 11902 H 1086.1 2.2801 -2.13114 0
M  V30 11903 N 1086.4 1.28806 0.908124 0
M  V30 11904 C 1087.63 1.19271 1.69674 0
M  V30 11905 C 1088.05 -0.244403 1.86505 0
M  V30 11906 O 1087.41 -1.17668 1.37927 0
M  V30 11907 C 1087.46 1.9023 3.06341 0
M  V30 11908 O 1086.56 1.2136 3.94139 0
M  V30 11909 H 1085.9 0.413738 0.519343 0
M  V30 11910 H 1088.43 1.70227 1.13508 0
M  V30 11911 H 1088.44 1.98356 3.56537 0
M  V30 11912 H 1087.12 2.94762 2.93408 0
M  V30 11913 H 1085.7 1.21435 3.52573 0
M  V30 11914 N 1087.88 -1.11734 1.11145 0
M  V30 11915 C 1088.79 -2.21267 0.779607 0
M  V30 11916 C 1089.81 -1.72526 -0.225986 0
M  V30 11917 O 1090.98 -2.01302 -0.0629166 0
M  V30 11918 C 1088.05 -3.45973 0.22435 0
M  V30 11919 C 1087.11 -4.09518 1.28816 0
M  V30 11920 C 1086.34 -5.28271 0.7593 0
M  V30 11921 O 1086.57 -5.68912 -0.411725 0
M  V30 11922 O 1085.5 -5.82322 1.52266 0
M  V30 11923 H 1089.33 -2.5206 1.6941 0
M  V30 11924 H 1086.91 -1.20211 0.887115 0
M  V30 11925 H 1088.79 -4.21322 -0.0810921 0
M  V30 11926 H 1087.47 -3.1684 -0.662891 0
M  V30 11927 H 1086.37 -3.35915 1.64657 0
M  V30 11928 H 1087.71 -4.42824 2.14868 0
M  V30 11929 N 1089.36 -0.901303 -1.29284 0
M  V30 11930 C 1090.31 -0.378666 -2.27672 0
M  V30 11931 C 1091.28 0.540102 -1.57074 0
M  V30 11932 O 1092.46 0.464997 -1.85047 0
M  V30 11933 C 1089.6 0.38635 -3.42931 0
M  V30 11934 C 1088.71 -0.563496 -4.28309 0
M  V30 11935 C 1087.85 0.218731 -5.30749 0
M  V30 11936 C 1086.89 -0.725536 -6.07785 0
M  V30 11937 N 1086.03 0.0223854 -7.02096 0
M  V30 11938 H 1090.87 -1.22277 -2.71758 0
M  V30 11939 H 1088.4 -0.614302 -1.33659 0
M  V30 11940 H 1090.36 0.845967 -4.08533 0
M  V30 11941 H 1088.99 1.1949 -2.9987 0
M  V30 11942 H 1088.04 -1.14163 -3.62865 0
M  V30 11943 H 1089.35 -1.28623 -4.81931 0
M  V30 11944 H 1088.51 0.739473 -6.02177 0
M  V30 11945 H 1087.25 0.97459 -4.77863 0
M  V30 11946 H 1086.25 -1.25776 -5.3522 0
M  V30 11947 H 1087.48 -1.48075 -6.6276 0
M  V30 11948 H 1085.42 0.760482 -6.51577 0
M  V30 11949 H 1085.34 -0.640408 -7.53283 0
M  V30 11950 H 1086.61 0.523339 -7.77741 0
M  V30 11951 N 1090.84 1.42931 -0.663954 0
M  V30 11952 C 1092.07 2.05729 -0.189532 0
M  V30 11953 C 1092.48 1.49914 1.15423 0
M  V30 11954 O 1091.82 0.629324 1.72584 0
M  V30 11955 C 1091.88 3.59482 -0.0354748 0
M  V30 11956 C 1091.54 4.37935 -1.30622 0
M  V30 11957 C 1092.54 4.69297 -2.23733 0
M  V30 11958 C 1090.23 4.77761 -1.5508 0
M  V30 11959 C 1092.22 5.39407 -3.39586 0
M  V30 11960 C 1089.91 5.47613 -2.71224 0
M  V30 11961 C 1090.91 5.7836 -3.63302 0
M  V30 11962 O 1090.59 6.46783 -4.77417 0
M  V30 11963 H 1090.33 0.669678 -0.0922342 0
M  V30 11964 H 1092.88 1.84243 -0.907943 0
M  V30 11965 H 1091.11 3.79584 0.738412 0
M  V30 11966 H 1092.8 4.03947 0.397679 0
M  V30 11967 H 1093.56 4.39038 -2.06084 0
M  V30 11968 H 1089.44 4.53229 -0.842863 0
M  V30 11969 H 1092.99 5.63323 -4.11476 0
M  V30 11970 H 1088.88 5.77289 -2.88804 0
M  V30 11971 H 1089.65 6.6527 -4.76821 0
M  V30 11972 N 1092.32 0.406567 1.52266 0
M  V30 11973 C 1093.56 -0.169611 2.03695 0
M  V30 11974 C 1093.92 -1.42596 1.2857 0
M  V30 11975 O 1095.12 -2.08041 1.70212 0
M  V30 11976 C 1093.39 -0.413924 3.54995 0
M  V30 11977 S 1094.95 -0.957916 4.28217 0
M  V30 11978 H 1091.77 -0.0462362 0.709495 0
M  V30 11979 H 1094.37 0.558895 1.87341 0
M  V30 11980 H 1093.07 0.507285 4.07253 0
M  V30 11981 H 1092.61 -1.17038 3.75587 0
M  V30 11982 H 1094.62 -2.2387 4.42828 0
M  V30 11983 N 1093.79 -1.57004 0.136909 0
M  V30 11984 C 1095.02 -1.99866 -0.523177 0
M  V30 11985 C 1095.43 -1.01584 -1.59616 0
M  V30 11986 O 1094.78 -0.00326426 -1.837 0
M  V30 11987 C 1094.84 -3.39157 -1.19217 0
M  V30 11988 C 1094.5 -4.56231 -0.265 0
M  V30 11989 C 1095.5 -5.17457 0.503412 0
M  V30 11990 C 1093.18 -5.02009 -0.170846 0
M  V30 11991 C 1095.18 -6.22863 1.35353 0
M  V30 11992 C 1092.86 -6.07273 0.682884 0
M  V30 11993 C 1093.86 -6.67568 1.44369 0
M  V30 11994 O 1093.55 -7.70795 2.28321 0
M  V30 11995 H 1093.28 -0.661005 -0.141593 0
M  V30 11996 H 1095.84 -2.04159 0.225445 0
M  V30 11997 H 1094.07 -3.31672 -1.98823 0
M  V30 11998 H 1095.76 -3.66191 -1.75096 0
M  V30 11999 H 1096.52 -4.82994 0.440648 0
M  V30 12000 H 1092.4 -4.54813 -0.752744 0
M  V30 12001 H 1095.94 -6.69855 1.94783 0
M  V30 12002 H 1091.84 -6.41163 0.746978 0
M  V30 12003 H 1092.61 -7.87971 2.21458 0
M  V30 12004 N 1095.27 0.136881 -1.57004 0
M  V30 12005 C 1096.2 1.17026 -2.02057 0
M  V30 12006 C 1097.18 1.44223 -0.901866 0
M  V30 12007 O 1098.37 1.54971 -1.17037 0
M  V30 12008 C 1095.5 2.50095 -2.40977 0
M  V30 12009 C 1094.45 2.37398 -3.56127 0
M  V30 12010 C 1093.78 3.75268 -3.80891 0
M  V30 12011 C 1095.08 1.84952 -4.88457 0
M  V30 12012 H 1096.77 0.795601 -2.88636 0
M  V30 12013 H 1094.32 0.381266 -1.38861 0
M  V30 12014 H 1096.27 3.22621 -2.71097 0
M  V30 12015 H 1095 2.89416 -1.51348 0
M  V30 12016 H 1093.65 1.67322 -3.26188 0
M  V30 12017 H 1093.3 4.12043 -2.88496 0
M  V30 12018 H 1093 3.67631 -4.5839 0
M  V30 12019 H 1094.53 4.49327 -4.13446 0
M  V30 12020 H 1095.94 2.4728 -5.17229 0
M  V30 12021 H 1094.34 1.88181 -5.69832 0
M  V30 12022 H 1095.41 0.805848 -4.78157 0
M  V30 12023 N 1096.75 1.52266 0.40654 0
M  V30 12024 C 1097.68 1.72025 1.51459 0
M  V30 12025 C 1098.7 0.600667 1.51314 0
M  V30 12026 O 1099.88 0.875894 1.55532 0
M  V30 12027 C 1096.98 1.7479 2.90348 0
M  V30 12028 C 1096.16 3.03826 3.14656 0
M  V30 12029 C 1095.22 2.98369 4.33431 0
M  V30 12030 O 1094.24 3.7227 4.30586 0
M  V30 12031 N 1095.44 2.16338 5.38682 0
M  V30 12032 H 1098.21 2.67622 1.34903 0
M  V30 12033 H 1095.77 1.50536 0.595867 0
M  V30 12034 H 1097.76 1.68667 3.67877 0
M  V30 12035 H 1096.33 0.86656 3.00349 0
M  V30 12036 H 1095.55 3.23577 2.25148 0
M  V30 12037 H 1096.84 3.89182 3.27742 0
M  V30 12038 H 1096.24 1.55731 5.43842 0
M  V30 12039 H 1094.8 2.1607 6.14945 0
M  V30 12040 N 1098.23 -0.663929 1.42933 0
M  V30 12041 C 1099.18 -1.79843 1.4751 0
M  V30 12042 C 1100.17 -1.65751 0.349727 0
M  V30 12043 O 1101.38 -1.72227 0.523239 0
M  V30 12044 H 1097.75 -0.593176 0.462219 0
M  V30 12045 H 1099.72 -1.73102 2.4306 0
M  V30 12046 C 1098.47 -3.18053 1.4049 0
M  V30 12047 H 1097.79 -3.29529 2.26386 0
M  V30 12048 H 1099.23 -3.97423 1.47754 0
M  V30 12049 C 1097.69 -3.36682 0.121076 0
M  V30 12050 O 1098.22 -3.93202 -0.821874 0
M  V30 12051 N 1096.43 -2.90579 0.0347141 0
M  V30 12052 H 1095.98 -2.44769 0.802852 0
M  V30 12053 H 1095.93 -3.03421 -0.823607 0
M  V30 12054 N 1099.71 -1.29285 -0.901281 0
M  V30 12055 C 1100.62 -1.16161 -2.03823 0
M  V30 12056 C 1101.63 -0.0852298 -1.73791 0
M  V30 12057 O 1102.81 -0.29699 -1.99198 0
M  V30 12058 C 1099.87 -0.837586 -3.3643 0
M  V30 12059 C 1098.93 -1.99764 -3.7999 0
M  V30 12060 C 1098.17 -1.68898 -5.0627 0
M  V30 12061 O 1098.39 -0.609177 -5.67138 0
M  V30 12062 O 1097.32 -2.53648 -5.45845 0
M  V30 12063 H 1101.15 -2.11635 -2.17817 0
M  V30 12064 H 1098.74 -1.08722 -1.02468 0
M  V30 12065 H 1100.62 -0.671376 -4.16017 0
M  V30 12066 H 1099.29 0.0873811 -3.23582 0
M  V30 12067 H 1098.2 -2.21908 -3.01177 0
M  V30 12068 H 1099.53 -2.90376 -3.9742 0
M  V30 12069 N 1101.18 1.11143 -1.11736 0
M  V30 12070 C 1102.43 1.83219 -0.869413 0
M  V30 12071 C 1102.76 1.84588 0.603402 0
M  V30 12072 O 1102.04 1.30119 1.44566 0
M  V30 12073 C 1102.32 3.30247 -1.43559 0
M  V30 12074 C 1102.17 3.37253 -2.97624 0
M  V30 12075 C 1103.49 4.26412 -1.08907 0
M  V30 12076 H 1100.61 0.665205 -0.317286 0
M  V30 12077 H 1103.25 1.30307 -1.38275 0
M  V30 12078 H 1101.4 3.75437 -0.998978 0
M  V30 12079 H 1103.08 3.00599 -3.49911 0
M  V30 12080 H 1101.32 2.77378 -3.33532 0
M  V30 12081 H 1101.99 4.40752 -3.32328 0
M  V30 12082 H 1104.47 3.89418 -1.46604 0
M  V30 12083 H 1103.34 5.27666 -1.51195 0
M  V30 12084 H 1103.6 4.421 -0.000259009 0
M  V30 12085 N 1102.66 0.908147 1.28804 0
M  V30 12086 C 1103.91 0.538404 1.95211 0
M  V30 12087 C 1104.24 -0.916886 1.71533 0
M  V30 12088 O 1103.49 -1.66643 1.02609 0
M  V30 12089 C 1103.79 0.787327 3.4862 0
M  V30 12090 C 1103.46 2.22129 3.92389 0
M  V30 12091 C 1102.12 2.61336 4.04051 0
M  V30 12092 C 1104.47 3.15471 4.14883 0
M  V30 12093 C 1101.8 3.93048 4.3558 0
M  V30 12094 C 1104.15 4.46741 4.47889 0
M  V30 12095 C 1102.82 4.85809 4.57761 0
M  V30 12096 H 1102.09 0.197016 0.714329 0
M  V30 12097 H 1104.73 1.14841 1.53244 0
M  V30 12098 H 1103.04 0.0944731 3.91686 0
M  V30 12099 H 1104.73 0.480503 3.98111 0
M  V30 12100 H 1101.32 1.90704 3.83836 0
M  V30 12101 H 1105.51 2.86391 4.05332 0
M  V30 12102 H 1100.76 4.23027 4.41428 0
M  V30 12103 H 1104.94 5.19087 4.64243 0
M  V30 12104 H 1102.57 5.87904 4.81947 0
M  V30 12105 N 1104.14 -1.42577 0.671525 0
M  V30 12106 C 1105.39 -2.01185 0.192051 0
M  V30 12107 C 1105.71 -1.53349 -1.20454 0
M  V30 12108 O 1104.98 -0.753781 -1.80817 0
M  V30 12109 H 1103.56 -0.743898 0.0680106 0
M  V30 12110 H 1106.22 -1.74539 0.8673 0
M  V30 12111 H 1105.32 -3.11516 0.190796 0
M  V30 12112 N 1105.62 -0.414636 -1.52048 0
M  V30 12113 C 1106.55 0.399119 -2.30064 0
M  V30 12114 C 1107.53 1.04126 -1.34506 0
M  V30 12115 O 1108.71 1.04923 -1.63416 0
M  V30 12116 C 1105.84 1.51305 -3.12608 0
M  V30 12117 C 1104.8 0.995621 -4.16259 0
M  V30 12118 C 1104.12 2.20357 -4.87183 0
M  V30 12119 C 1105.42 0.0458178 -5.2228 0
M  V30 12120 H 1107.12 -0.251879 -2.98339 0
M  V30 12121 H 1104.66 -0.122579 -1.43477 0
M  V30 12122 H 1106.62 2.08936 -3.65956 0
M  V30 12123 H 1105.34 2.19201 -2.42113 0
M  V30 12124 H 1104 0.441676 -3.6393 0
M  V30 12125 H 1103.65 2.8682 -4.13211 0
M  V30 12126 H 1103.35 1.86385 -5.57256 0
M  V30 12127 H 1104.87 2.78584 -5.43345 0
M  V30 12128 H 1106.29 0.531102 -5.70835 0
M  V30 12129 H 1104.68 -0.20536 -5.99749 0
M  V30 12130 H 1105.75 -0.897807 -4.76516 0
M  V30 12131 N 1107.1 1.56929 -0.145233 0
M  V30 12132 C 1108.34 1.96068 0.50632 0
M  V30 12133 C 1108.67 1.02999 1.64989 0
M  V30 12134 O 1107.93 0.0588581 1.95611 0
M  V30 12135 C 1108.23 3.41467 1.05522 0
M  V30 12136 C 1107.89 4.5089 0.0302827 0
M  V30 12137 C 1106.55 4.80542 -0.251475 0
M  V30 12138 C 1108.91 5.16917 -0.666783 0
M  V30 12139 C 1106.23 5.7353 -1.23614 0
M  V30 12140 C 1108.59 6.10965 -1.64025 0
M  V30 12141 C 1107.25 6.38998 -1.92973 0
M  V30 12142 H 1106.52 0.717464 0.185276 0
M  V30 12143 H 1109.17 1.90093 -0.23169 0
M  V30 12144 H 1107.47 3.44265 1.87053 0
M  V30 12145 H 1109.17 3.69077 1.5679 0
M  V30 12146 H 1105.76 4.2781 0.260069 0
M  V30 12147 H 1109.94 4.94142 -0.462297 0
M  V30 12148 H 1105.2 5.93543 -1.46687 0
M  V30 12149 H 1109.37 6.61204 -2.18591 0
M  V30 12150 H 1107 7.10855 -2.69423 0
M  V30 12151 N 1108.58 -0.128553 1.57075 0
M  V30 12152 C 1109.51 -1.18362 1.96273 0
M  V30 12153 C 1110.52 -1.3818 0.860818 0
M  V30 12154 O 1111.71 -1.37424 1.13916 0
M  V30 12155 C 1108.81 -2.54533 2.23755 0
M  V30 12156 C 1107.98 -2.55446 3.55058 0
M  V30 12157 C 1107.04 -3.73291 3.70864 0
M  V30 12158 O 1106.07 -3.57315 4.43074 0
M  V30 12159 N 1107.27 -4.91481 3.08912 0
M  V30 12160 H 1110.03 -0.850276 2.87385 0
M  V30 12161 H 1107.6 -0.317931 1.58748 0
M  V30 12162 H 1109.59 -3.31912 2.31553 0
M  V30 12163 H 1108.16 -2.80087 1.38816 0
M  V30 12164 H 1107.38 -1.6385 3.58534 0
M  V30 12165 H 1108.67 -2.53104 4.4138 0
M  V30 12166 H 1108.06 -5.07364 2.50196 0
M  V30 12167 H 1106.62 -5.6657 3.22245 0
M  V30 12168 N 1110.05 -1.5248 -0.398459 0
M  V30 12169 C 1111 -1.76585 -1.48615 0
M  V30 12170 C 1111.97 -0.608677 -1.54546 0
M  V30 12171 O 1113.16 -0.847383 -1.7095 0
M  V30 12172 C 1110.3 -1.93201 -2.8595 0
M  V30 12173 C 1109.41 -3.20875 -2.89246 0
M  V30 12174 C 1108.54 -3.27862 -4.17947 0
M  V30 12175 C 1107.58 -4.49697 -4.15258 0
M  V30 12176 N 1106.72 -4.54017 -5.35549 0
M  V30 12177 H 1111.56 -2.69412 -1.27362 0
M  V30 12178 H 1109.1 -1.33487 -0.618031 0
M  V30 12179 H 1111.05 -2.00819 -3.65688 0
M  V30 12180 H 1109.68 -1.03743 -3.05675 0
M  V30 12181 H 1108.74 -3.22376 -2.01935 0
M  V30 12182 H 1110.05 -4.1066 -2.83125 0
M  V30 12183 H 1109.2 -3.34611 -5.06083 0
M  V30 12184 H 1107.94 -2.36035 -4.26777 0
M  V30 12185 H 1106.95 -4.43083 -3.25511 0
M  V30 12186 H 1108.17 -5.42831 -4.08059 0
M  V30 12187 H 1106.12 -3.65078 -5.45027 0
M  V30 12188 H 1106.03 -5.37661 -5.31466 0
M  V30 12189 H 1107.3 -4.65009 -6.25609 0
M  V30 12190 N 1111.53 0.65634 -1.43283 0
M  V30 12191 C 1112.46 1.78101 -1.51004 0
M  V30 12192 C 1113.44 1.66138 -0.36498 0
M  V30 12193 O 1114.63 1.85281 -0.581778 0
M  V30 12194 C 1111.76 3.16511 -1.42961 0
M  V30 12195 C 1110.71 3.43233 -2.55685 0
M  V30 12196 C 1110.04 4.81411 -2.32696 0
M  V30 12197 C 1111.34 3.38288 -3.97943 0
M  V30 12198 H 1113.03 1.71896 -2.45137 0
M  V30 12199 H 1110.58 0.825575 -1.17984 0
M  V30 12200 H 1112.53 3.94941 -1.46968 0
M  V30 12201 H 1111.25 3.23439 -0.45332 0
M  V30 12202 H 1109.91 2.67173 -2.51026 0
M  V30 12203 H 1109.56 4.85011 -1.33317 0
M  V30 12204 H 1109.26 5.00251 -3.08257 0
M  V30 12205 H 1110.79 5.62102 -2.38481 0
M  V30 12206 H 1112.2 4.06659 -4.04106 0
M  V30 12207 H 1110.6 3.68664 -4.73505 0
M  V30 12208 H 1111.67 2.36525 -4.23301 0
M  V30 12209 N 1113.01 1.29761 0.894412 0
M  V30 12210 C 1113.92 1.1724 2.03204 0
M  V30 12211 C 1114.94 0.0944452 1.73743 0
M  V30 12212 O 1116.11 0.307549 1.99038 0
M  V30 12213 C 1113.18 0.855416 3.35981 0
M  V30 12214 C 1112.24 2.01777 3.78926 0
M  V30 12215 C 1111.47 1.71581 5.05367 0
M  V30 12216 O 1111.69 0.639245 5.66807 0
M  V30 12217 O 1110.63 2.56539 5.44492 0
M  V30 12218 H 1114.45 2.12787 2.16692 0
M  V30 12219 H 1112.04 1.09264 1.0189 0
M  V30 12220 H 1113.92 0.693429 4.15656 0
M  V30 12221 H 1112.6 -0.0702195 3.23624 0
M  V30 12222 H 1111.5 2.23502 2.99996 0
M  V30 12223 H 1112.84 2.92479 3.95875 0
M  V30 12224 N 1114.49 -1.10549 1.12324 0
M  V30 12225 C 1115.44 -2.18944 0.785248 0
M  V30 12226 C 1116.43 -1.67867 -0.227389 0
M  V30 12227 O 1117.64 -1.79796 -0.0857162 0
M  V30 12228 H 1114.01 -0.713976 0.236098 0
M  V30 12229 H 1115.98 -2.44692 1.70788 0
M  V30 12230 C 1114.73 -3.46765 0.25485 0
M  V30 12231 H 1114.05 -3.86428 1.02534 0
M  V30 12232 H 1115.49 -4.23962 0.0566526 0
M  V30 12233 C 1113.95 -3.21185 -1.01695 0
M  V30 12234 O 1114.48 -3.42745 -2.09497 0
M  V30 12235 N 1112.69 -2.7486 -0.943423 0
M  V30 12236 H 1112.24 -2.57515 -0.0660366 0
M  V30 12237 H 1112.19 -2.58122 -1.795 0
M  V30 12238 N 1115.97 -0.914965 -1.28321 0
M  V30 12239 C 1117.21 -0.544639 -1.94208 0
M  V30 12240 C 1117.53 0.916368 -1.72806 0
M  V30 12241 O 1118.73 1.39491 -2.32926 0
M  V30 12242 C 1117.19 -0.923209 -3.47858 0
M  V30 12243 C 1116.8 -2.40403 -3.78035 0
M  V30 12244 C 1118.54 -0.623526 -4.19896 0
M  V30 12245 C 1116.45 -2.72266 -5.25 0
M  V30 12246 H 1115.38 -0.199966 -0.727 0
M  V30 12247 H 1118.03 -1.11405 -1.45812 0
M  V30 12248 H 1116.41 -0.282576 -3.94991 0
M  V30 12249 H 1117.59 -3.09149 -3.41706 0
M  V30 12250 H 1115.9 -2.67429 -3.19172 0
M  V30 12251 H 1118.5 -0.838243 -5.28089 0
M  V30 12252 H 1118.84 0.438721 -4.13982 0
M  V30 12253 H 1119.37 -1.22268 -3.78544 0
M  V30 12254 H 1116.11 -3.77349 -5.35993 0
M  V30 12255 H 1115.63 -2.08157 -5.62522 0
M  V30 12256 H 1117.31 -2.59334 -5.92752 0
M  V30 12257 N 1117.44 1.42219 -0.679077 0
M  V30 12258 C 1118.39 2.32599 0.00820028 0
M  V30 12259 C 1119.39 1.50059 0.786046 0
M  V30 12260 O 1120.59 1.66103 0.693528 0
M  V30 12261 H 1116.97 0.751694 0.0214483 0
M  V30 12262 H 1118.94 2.88257 -0.77138 0
M  V30 12263 C 1117.69 3.3468 0.942581 0
M  V30 12264 H 1117.01 3.98234 0.353463 0
M  V30 12265 H 1118.45 4.00496 1.39208 0
M  V30 12266 C 1116.91 2.67275 2.05099 0
M  V30 12267 O 1117.44 2.50793 3.13793 0
M  V30 12268 N 1115.64 2.26232 1.82394 0
M  V30 12269 H 1115.19 2.39838 0.939983 0
M  V30 12270 H 1115.15 1.81465 2.56744 0
M  V30 12271 N 1118.92 0.422693 1.51826 0
M  V30 12272 C 1120.17 -0.148348 2.01555 0
M  V30 12273 C 1120.49 -1.44483 1.30956 0
M  V30 12274 O 1119.76 -1.90904 0.439599 0
M  V30 12275 H 1118.34 -0.0578116 0.74476 0
M  V30 12276 H 1121 0.562046 1.8662 0
M  V30 12277 H 1120.1 -0.334766 3.10299 0
M  V30 12278 N 1120.4 -1.5685 0.153553 0
M  V30 12279 C 1121.65 -1.96625 -0.49665 0
M  V30 12280 C 1121.98 -1.03877 -1.64083 0
M  V30 12281 O 1121.25 -0.0824112 -1.94325 0
M  V30 12282 C 1121.54 -3.46035 -0.996585 0
M  V30 12283 C 1121.39 -4.49561 0.146551 0
M  V30 12284 C 1122.71 -3.98104 -1.8762 0
M  V30 12285 H 1119.83 -0.714917 -0.179059 0
M  V30 12286 H 1122.47 -1.88527 0.236104 0
M  V30 12287 H 1120.62 -3.53066 -1.621 0
M  V30 12288 H 1122.29 -4.54604 0.783108 0
M  V30 12289 H 1120.53 -4.26271 0.804727 0
M  V30 12290 H 1121.21 -5.51456 -0.245078 0
M  V30 12291 H 1123.68 -3.93593 -1.34997 0
M  V30 12292 H 1122.56 -5.03098 -2.19508 0
M  V30 12293 H 1122.82 -3.40852 -2.81554 0
M  V30 12294 N 1121.88 0.120221 -1.57141 0
M  V30 12295 C 1123.11 0.842441 -1.88972 0
M  V30 12296 C 1123.52 1.73494 -0.744671 0
M  V30 12297 O 1122.88 1.80268 0.284557 0
M  V30 12298 C 1122.93 1.67688 -3.20254 0
M  V30 12299 O 1122.65 0.820319 -4.30351 0
M  V30 12300 C 1124.15 2.50436 -3.65782 0
M  V30 12301 H 1121.37 0.242241 -0.625748 0
M  V30 12302 H 1123.91 0.104978 -2.0423 0
M  V30 12303 H 1122.07 2.36712 -3.0667 0
M  V30 12304 H 1122.48 1.39575 -5.05588 0
M  V30 12305 H 1123.96 3.04518 -4.60405 0
M  V30 12306 H 1124.43 3.27737 -2.92378 0
M  V30 12307 H 1125.04 1.86657 -3.82151 0
M  V30 12308 N 1123.36 1.52689 0.390367 0
M  V30 12309 C 1124.63 1.58246 1.14968 0
M  V30 12310 C 1125.01 0.374808 2.07746 0
M  V30 12311 O 1124.36 -0.636969 2.19442 0
M  V30 12312 C 1124.57 2.92059 1.91056 0
M  V30 12313 C 1125.92 3.45745 2.46466 0
M  V30 12314 O 1126.94 2.93924 2.01214 0
M  V30 12315 O 1125.8 4.3628 3.29122 0
M  V30 12316 H 1122.9 0.638189 0.52597 0
M  V30 12317 H 1125.44 1.65024 0.39563 0
M  V30 12318 H 1124.21 3.71399 1.23201 0
M  V30 12319 H 1123.84 2.8866 2.73425 0
M  V30 12320 N 1124.83 -0.648732 1.43629 0
M  V30 12321 C 1126.08 -1.40579 1.45196 0
M  V30 12322 C 1126.4 -1.9484 0.0790556 0
M  V30 12323 O 1125.67 -1.74707 -0.886239 0
M  V30 12324 H 1124.25 -0.52175 0.53459 0
M  V30 12325 H 1126.92 -0.764796 1.79268 0
M  V30 12326 H 1126.01 -2.24591 2.16715 0
M  V30 12327 N 1126.31 -1.30234 -0.887518 0
M  V30 12328 C 1127.54 -1.21652 -1.66986 0
M  V30 12329 C 1127.95 0.223473 -1.87876 0
M  V30 12330 O 1127.29 1.15993 -1.42448 0
M  V30 12331 C 1127.36 -1.87173 -3.06931 0
M  V30 12332 C 1127.02 -3.36496 -3.09224 0
M  V30 12333 C 1128.02 -4.3253 -2.88469 0
M  V30 12334 C 1125.7 -3.77901 -3.30902 0
M  V30 12335 C 1127.7 -5.67942 -2.89344 0
M  V30 12336 C 1125.38 -5.13432 -3.31407 0
M  V30 12337 C 1126.38 -6.08263 -3.10653 0
M  V30 12338 O 1126.07 -7.41318 -3.1097 0
M  V30 12339 H 1125.8 -0.422224 -0.527923 0
M  V30 12340 H 1128.35 -1.72349 -1.11736 0
M  V30 12341 H 1126.58 -1.31002 -3.63834 0
M  V30 12342 H 1128.27 -1.72745 -3.67306 0
M  V30 12343 H 1129.04 -4.01873 -2.7152 0
M  V30 12344 H 1124.92 -3.04534 -3.46093 0
M  V30 12345 H 1128.46 -6.41936 -2.73063 0
M  V30 12346 H 1124.36 -5.4373 -3.47891 0
M  V30 12347 H 1125.13 -7.50275 -3.27153 0
M  V30 12348 N 1127.79 1.09952 -1.12909 0
M  V30 12349 C 1128.72 2.18477 -0.824014 0
M  V30 12350 C 1129.7 1.68744 0.214324 0
M  V30 12351 O 1130.89 1.94057 0.0744281 0
M  V30 12352 C 1128.02 3.46143 -0.283308 0
M  V30 12353 C 1126.97 4.09178 -1.25528 0
M  V30 12354 C 1126.3 5.31604 -0.574574 0
M  V30 12355 C 1127.6 4.52308 -2.6118 0
M  V30 12356 H 1129.29 2.44254 -1.73148 0
M  V30 12357 H 1126.84 1.17394 -0.833952 0
M  V30 12358 H 1128.79 4.21361 -0.057583 0
M  V30 12359 H 1127.51 3.19872 0.659525 0
M  V30 12360 H 1126.17 3.35973 -1.4669 0
M  V30 12361 H 1125.82 5.01611 0.37356 0
M  V30 12362 H 1125.52 5.74732 -1.22299 0
M  V30 12363 H 1127.04 6.0955 -0.358004 0
M  V30 12364 H 1128.46 5.18776 -2.44017 0
M  V30 12365 H 1126.86 5.06302 -3.22147 0
M  V30 12366 H 1127.93 3.64977 -3.19249 0
M  V30 12367 N 1129.27 0.921757 1.27833 0
M  V30 12368 C 1130.22 0.406628 2.29018 0
M  V30 12369 C 1131.21 -0.505914 1.61669 0
M  V30 12370 O 1132.42 -0.386273 1.75807 0
M  V30 12371 H 1128.79 0.112914 0.743475 0
M  V30 12372 H 1130.76 1.27295 2.69886 0
M  V30 12373 C 1129.51 -0.330783 3.46123 0
M  V30 12374 H 1128.83 0.362207 3.98156 0
M  V30 12375 H 1130.27 -0.655738 4.18899 0
M  V30 12376 C 1128.73 -1.54161 2.9956 0
M  V30 12377 O 1129.26 -2.64052 3.0272 0
M  V30 12378 N 1127.47 -1.39137 2.55126 0
M  V30 12379 H 1127.02 -0.497319 2.52754 0
M  V30 12380 H 1126.97 -2.20278 2.24333 0
M  V30 12381 N 1130.75 -1.41857 0.686609 0
M  V30 12382 C 1131.97 -2.06219 0.221037 0
M  V30 12383 C 1132.4 -1.51298 -1.11762 0
M  V30 12384 O 1131.75 -0.636253 -1.69769 0
M  V30 12385 C 1131.8 -3.60153 0.179425 0
M  V30 12386 O 1130.91 -4.03577 -0.848481 0
M  V30 12387 H 1130.25 -0.654787 0.110228 0
M  V30 12388 H 1132.78 -1.81783 0.938948 0
M  V30 12389 H 1132.79 -4.07999 0.00725332 0
M  V30 12390 H 1131.46 -3.99498 1.15647 0
M  V30 12391 H 1130.04 -3.67255 -0.646393 0
M  V30 12392 N 1132.22 -0.430739 -1.51599 0
M  V30 12393 C 1133.15 0.374695 -2.30474 0
M  V30 12394 C 1134.14 1.02694 -1.35602 0
M  V30 12395 O 1135.32 1.03184 -1.6452 0
M  V30 12396 C 1132.45 1.47981 -3.14196 0
M  V30 12397 C 1131.4 0.951415 -4.17291 0
M  V30 12398 C 1130.73 2.15177 -4.89492 0
M  V30 12399 C 1132.03 -0.00957951 -5.22299 0
M  V30 12400 H 1133.72 -0.283508 -2.98055 0
M  V30 12401 H 1131.27 -0.13779 -1.43339 0
M  V30 12402 H 1133.22 2.05043 -3.68151 0
M  V30 12403 H 1131.95 2.16621 -2.44424 0
M  V30 12404 H 1130.61 0.403052 -3.64378 0
M  V30 12405 H 1130.25 2.82421 -4.1623 0
M  V30 12406 H 1129.95 1.80464 -5.59202 0
M  V30 12407 H 1131.48 2.72806 -5.46269 0
M  V30 12408 H 1132.89 0.470527 -5.71366 0
M  V30 12409 H 1131.29 -0.268959 -5.99497 0
M  V30 12410 H 1132.36 -0.948297 -4.75537 0
M  V30 12411 N 1133.7 1.56767 -0.161869 0
M  V30 12412 C 1134.94 1.98487 0.488067 0
M  V30 12413 C 1135.31 1.04527 1.61053 0
M  V30 12414 O 1136.51 1.35351 2.32236 0
M  V30 12415 C 1134.78 3.44057 0.967446 0
M  V30 12416 S 1136.34 4.07805 1.61989 0
M  V30 12417 H 1133.16 0.693377 0.157318 0
M  V30 12418 H 1135.76 1.93802 -0.257099 0
M  V30 12419 H 1134.46 4.10161 0.139959 0
M  V30 12420 H 1133.99 3.52488 1.74688 0
M  V30 12421 H 1136.01 4.02078 2.90772 0
M  V30 12422 N 1135.18 -0.111886 1.57202 0
M  V30 12423 C 1136.41 -0.832407 1.89416 0
M  V30 12424 C 1136.82 -1.73096 0.753861 0
M  V30 12425 O 1136.18 -1.80416 -0.274992 0
M  V30 12426 C 1136.23 -1.65988 3.21139 0
M  V30 12427 O 1135.95 -0.797485 4.3078 0
M  V30 12428 C 1137.45 -2.48493 3.67105 0
M  V30 12429 H 1134.67 -0.238919 0.627024 0
M  V30 12430 H 1137.22 -0.0941456 2.04283 0
M  V30 12431 H 1135.37 -2.35082 3.07921 0
M  V30 12432 H 1135.79 -1.36892 5.06321 0
M  V30 12433 H 1137.26 -3.02072 4.62014 0
M  V30 12434 H 1137.74 -3.26182 2.94112 0
M  V30 12435 H 1138.34 -1.84628 3.83135 0
M  V30 12436 N 1136.66 -1.52894 -0.382264 0
M  V30 12437 C 1137.9 -1.68515 -1.12829 0
M  V30 12438 C 1138.24 -0.427211 -1.89443 0
M  V30 12439 O 1137.51 0.57516 -1.85801 0
M  V30 12440 C 1137.8 -2.92449 -2.10108 0
M  V30 12441 C 1137.65 -4.2836 -1.37214 0
M  V30 12442 C 1138.97 -3.11944 -3.1045 0
M  V30 12443 H 1136.09 -0.613223 -0.408811 0
M  V30 12444 H 1138.73 -1.85503 -0.410921 0
M  V30 12445 H 1136.88 -2.78097 -2.71283 0
M  V30 12446 H 1138.55 -4.54493 -0.789516 0
M  V30 12447 H 1136.79 -4.28532 -0.673973 0
M  V30 12448 H 1137.46 -5.11178 -2.0833 0
M  V30 12449 H 1139.94 -3.25372 -2.59369 0
M  V30 12450 H 1138.82 -4.00125 -3.75754 0
M  V30 12451 H 1139.08 -2.26465 -3.79692 0
M  V30 12452 N 1138.14 0.641106 -1.43971 0
M  V30 12453 C 1139.55 0.958161 -1.27638 0
M  V30 12454 C 1139.75 2.00456 -0.204885 0
M  V30 12455 O 1138.81 2.49106 0.412606 0
M  V30 12456 C 1140.12 1.43091 -2.64472 0
M  V30 12457 C 1141.67 1.54692 -2.72102 0
M  V30 12458 C 1142.15 2.05353 -4.09382 0
M  V30 12459 N 1143.64 2.12638 -4.11509 0
M  V30 12460 C 1144.37 2.52987 -5.14573 0
M  V30 12461 N 1143.87 2.92544 -6.28005 0
M  V30 12462 N 1145.66 2.53033 -5.01927 0
M  V30 12463 H 1137.81 -0.0510973 -2.12339 0
M  V30 12464 H 1140.07 0.039748 -0.947166 0
M  V30 12465 H 1139.78 0.736389 -3.43904 0
M  V30 12466 H 1139.65 2.40375 -2.90688 0
M  V30 12467 H 1142.04 2.23242 -1.92994 0
M  V30 12468 H 1142.12 0.558083 -2.49638 0
M  V30 12469 H 1141.77 1.37401 -4.88962 0
M  V30 12470 H 1141.7 3.0509 -4.29218 0
M  V30 12471 H 1144.19 1.84792 -3.29636 0
M  V30 12472 H 1144.5 3.22116 -7.02468 0
M  V30 12473 H 1142.85 2.90319 -6.31458 0
M  V30 12474 H 1146.04 2.21514 -4.1237 0
M  V30 12475 H 1146.21 2.84155 -5.82375 0
M  V30 12476 N 1139.62 1.30703 0.880598 0
M  V30 12477 C 1140.58 1.17429 1.96832 0
M  V30 12478 C 1141.58 0.104305 1.60461 0
M  V30 12479 O 1142.77 0.352758 1.70591 0
M  V30 12480 C 1139.9 0.800099 3.31378 0
M  V30 12481 H 1141.09 2.14069 2.10034 0
M  V30 12482 H 1138.65 1.14162 1.06755 0
M  V30 12483 H 1139.38 -0.165606 3.23877 0
M  V30 12484 H 1139.17 1.57341 3.59146 0
M  V30 12485 H 1140.66 0.730826 4.11155 0
M  V30 12486 N 1141.09 -1.09351 1.1349 0
M  V30 12487 C 1142.02 -2.18037 0.835588 0
M  V30 12488 C 1143 -1.68856 -0.205373 0
M  V30 12489 O 1144.19 -1.94094 -0.0641357 0
M  V30 12490 C 1141.32 -3.45987 0.301661 0
M  V30 12491 C 1140.27 -4.08507 1.27696 0
M  V30 12492 C 1139.6 -5.31292 0.602758 0
M  V30 12493 C 1140.9 -4.50916 2.63575 0
M  V30 12494 H 1142.59 -2.43332 1.74441 0
M  V30 12495 H 1140.14 -1.1695 0.840166 0
M  V30 12496 H 1142.09 -4.21324 0.079928 0
M  V30 12497 H 1140.82 -3.20217 -0.642552 0
M  V30 12498 H 1139.48 -3.3519 1.4847 0
M  V30 12499 H 1139.12 -5.01802 -0.346953 0
M  V30 12500 H 1138.82 -5.74075 1.25345 0
M  V30 12501 H 1140.35 -6.09351 0.390325 0
M  V30 12502 H 1141.76 -5.17474 2.46765 0
M  V30 12503 H 1140.16 -5.04586 3.24827 0
M  V30 12504 H 1141.23 -3.63279 3.2118 0
M  V30 12505 N 1142.57 -0.928524 -1.27343 0
M  V30 12506 C 1143.5 -0.445627 -2.29208 0
M  V30 12507 C 1144.48 0.494508 -1.62753 0
M  V30 12508 O 1145.67 0.399082 -1.90055 0
M  V30 12509 C 1142.8 0.301684 -3.45987 0
M  V30 12510 C 1141.75 -0.550695 -4.24442 0
M  V30 12511 C 1141.08 0.325833 -5.33706 0
M  V30 12512 C 1142.38 -1.81559 -4.89728 0
M  V30 12513 H 1144.07 -1.29696 -2.69851 0
M  V30 12514 H 1141.62 -0.625085 -1.29725 0
M  V30 12515 H 1143.57 0.650455 -4.1635 0
M  V30 12516 H 1142.29 1.18705 -3.04264 0
M  V30 12517 H 1140.95 -0.882185 -3.55827 0
M  V30 12518 H 1140.6 1.21018 -4.88225 0
M  V30 12519 H 1140.3 -0.240994 -5.87106 0
M  V30 12520 H 1141.83 0.670156 -6.06911 0
M  V30 12521 H 1143.24 -1.53483 -5.52373 0
M  V30 12522 H 1141.64 -2.32598 -5.53189 0
M  V30 12523 H 1142.71 -2.53461 -4.13383 0
M  V30 12524 N 1144.05 1.41491 -0.694123 0
M  V30 12525 C 1144.98 2.29197 0.0112742 0
M  V30 12526 C 1145.99 1.44708 0.745877 0
M  V30 12527 O 1147.18 1.68227 0.596821 0
M  V30 12528 C 1144.28 3.22547 1.04004 0
M  V30 12529 C 1143.46 4.35787 0.375347 0
M  V30 12530 C 1142.52 5.09722 1.30652 0
M  V30 12531 O 1141.54 5.63558 0.799459 0
M  V30 12532 N 1142.74 5.1705 2.63893 0
M  V30 12533 H 1145.51 2.90377 -0.741705 0
M  V30 12534 H 1143.07 1.52628 -0.540039 0
M  V30 12535 H 1145.06 3.68878 1.66468 0
M  V30 12536 H 1143.63 2.62685 1.69456 0
M  V30 12537 H 1142.85 3.91857 -0.429145 0
M  V30 12538 H 1144.14 5.08726 -0.0869041 0
M  V30 12539 H 1143.54 4.74756 3.07609 0
M  V30 12540 H 1142.09 5.66962 3.21555 0
M  V30 12541 N 1145.53 0.438773 1.51369 0
M  V30 12542 C 1146.49 -0.36032 2.2635 0
M  V30 12543 C 1147.49 -0.948465 1.29849 0
M  V30 12544 O 1148.68 -0.822692 1.53549 0
M  V30 12545 C 1145.81 -1.50994 3.05636 0
M  V30 12546 H 1147.01 0.296826 2.98427 0
M  V30 12547 H 1144.56 0.191978 1.55117 0
M  V30 12548 H 1145.29 -2.2031 2.37979 0
M  V30 12549 H 1145.08 -1.09437 3.76518 0
M  V30 12550 H 1146.57 -2.07447 3.6243 0
M  V30 12551 N 1147.01 -1.56678 0.170181 0
M  V30 12552 C 1148.25 -1.96024 -0.475147 0
M  V30 12553 C 1148.57 -1.0588 -1.64465 0
M  V30 12554 O 1149.77 -1.34901 -2.35614 0
M  V30 12555 C 1148.23 -3.4855 -0.896704 0
M  V30 12556 C 1147.84 -4.47318 0.247142 0
M  V30 12557 C 1149.58 -3.96716 -1.51052 0
M  V30 12558 C 1147.49 -5.91082 -0.193982 0
M  V30 12559 H 1146.42 -0.731883 -0.181282 0
M  V30 12560 H 1149.07 -1.81674 0.25823 0
M  V30 12561 H 1147.45 -3.58314 -1.68603 0
M  V30 12562 H 1148.63 -4.49268 1.02445 0
M  V30 12563 H 1146.94 -4.09203 0.770839 0
M  V30 12564 H 1149.54 -5.01581 -1.85258 0
M  V30 12565 H 1149.88 -3.39588 -2.40802 0
M  V30 12566 H 1150.41 -3.89965 -0.785652 0
M  V30 12567 H 1147.15 -6.5208 0.668714 0
M  V30 12568 H 1146.67 -5.92441 -0.936675 0
M  V30 12569 H 1148.35 -6.43844 -0.638237 0
M  V30 12570 N 1148.48 0.103547 -1.57259 0
M  V30 12571 C 1149.41 1.12714 -2.04494 0
M  V30 12572 C 1150.39 1.42278 -0.932255 0
M  V30 12573 O 1151.58 1.52453 -1.20298 0
M  V30 12574 C 1148.71 2.44927 -2.46228 0
M  V30 12575 C 1147.66 2.2979 -3.61082 0
M  V30 12576 C 1146.99 3.67105 -3.88765 0
M  V30 12577 C 1148.29 1.7455 -4.9227 0
M  V30 12578 H 1149.98 0.734198 -2.90258 0
M  V30 12579 H 1147.53 0.351725 -1.39638 0
M  V30 12580 H 1149.48 3.16798 -2.77879 0
M  V30 12581 H 1148.21 2.8614 -1.57453 0
M  V30 12582 H 1146.87 1.60366 -3.29664 0
M  V30 12583 H 1146.51 4.05831 -2.97171 0
M  V30 12584 H 1146.21 3.57825 -4.66084 0
M  V30 12585 H 1147.74 4.40456 -4.22884 0
M  V30 12586 H 1149.15 2.36253 -5.22358 0
M  V30 12587 H 1147.55 1.76051 -5.73695 0
M  V30 12588 H 1148.62 0.704242 -4.79759 0
M  V30 12589 N 1149.96 1.53094 0.37415 0
M  V30 12590 C 1150.89 1.75199 1.47776 0
M  V30 12591 C 1151.91 0.632627 1.50006 0
M  V30 12592 O 1153.1 0.908688 1.5364 0
M  V30 12593 C 1150.2 1.80909 2.86575 0
M  V30 12594 C 1149.37 3.10432 3.08141 0
M  V30 12595 C 1148.43 3.07495 4.27005 0
M  V30 12596 O 1147.45 3.81319 4.22592 0
M  V30 12597 N 1148.66 2.27715 5.33972 0
M  V30 12598 H 1151.42 2.70423 1.29196 0
M  V30 12599 H 1148.98 1.51766 0.563802 0
M  V30 12600 H 1150.97 1.76432 3.64217 0
M  V30 12601 H 1149.54 0.930074 2.98443 0
M  V30 12602 H 1148.76 3.2828 2.18233 0
M  V30 12603 H 1150.05 3.96047 3.19413 0
M  V30 12604 H 1149.45 1.67231 5.40417 0
M  V30 12605 H 1148.01 2.29065 6.10223 0
M  V30 12606 N 1151.44 -0.633461 1.44309 0
M  V30 12607 C 1152.67 -1.42033 1.50447 0
M  V30 12608 C 1153.08 -1.88362 0.128585 0
M  V30 12609 O 1152.44 -1.60695 -0.865071 0
M  V30 12610 C 1152.49 -2.6422 2.46719 0
M  V30 12611 O 1152.21 -2.19823 3.78958 0
M  V30 12612 C 1153.71 -3.57372 2.62298 0
M  V30 12613 H 1150.93 -0.435667 0.510329 0
M  V30 12614 H 1153.48 -0.774907 1.8925 0
M  V30 12615 H 1151.63 -3.24859 2.11058 0
M  V30 12616 H 1152.05 -2.99022 4.30913 0
M  V30 12617 H 1153.52 -4.39719 3.33693 0
M  V30 12618 H 1154 -4.06026 1.67449 0
M  V30 12619 H 1154.6 -3.02603 2.9885 0
M  V30 12620 N 1152.92 -1.31168 -0.873655 0
M  V30 12621 C 1153.83 -1.20458 -2.01313 0
M  V30 12622 C 1154.84 -0.122074 -1.73571 0
M  V30 12623 O 1156.02 -0.339176 -1.98523 0
M  V30 12624 C 1153.09 -0.90876 -3.34578 0
M  V30 12625 C 1152.15 -2.07779 -3.75668 0
M  V30 12626 C 1151.38 -1.79599 -5.02573 0
M  V30 12627 O 1151.6 -0.729338 -5.65718 0
M  V30 12628 O 1150.54 -2.65169 -5.40341 0
M  V30 12629 H 1154.36 -2.16207 -2.13279 0
M  V30 12630 H 1151.95 -1.10871 -1.00139 0
M  V30 12631 H 1153.83 -0.759469 -4.145 0
M  V30 12632 H 1152.5 0.0187249 -3.23695 0
M  V30 12633 H 1151.41 -2.28247 -2.96402 0
M  V30 12634 H 1152.74 -2.9874 -3.91172 0
M  V30 12635 N 1154.4 1.08748 -1.14068 0
M  V30 12636 C 1155.67 1.7769 -0.81766 0
M  V30 12637 C 1156.05 1.99522 0.689501 0
M  V30 12638 O 1155.4 1.60222 1.62914 0
M  V30 12639 C 1155.61 3.09517 -1.61245 0
M  V30 12640 C 1156.96 3.84108 -1.80958 0
M  V30 12641 O 1157.98 3.19289 -1.57902 0
M  V30 12642 O 1156.84 5.00491 -2.19479 0
M  V30 12643 H 1153.94 0.770953 -0.299265 0
M  V30 12644 H 1156.48 1.15242 -1.24569 0
M  V30 12645 H 1155.25 2.89155 -2.63638 0
M  V30 12646 H 1154.88 3.79692 -1.17982 0
M  V30 12647 N 1155.87 0.935264 1.26849 0
M  V30 12648 C 1156.81 0.384563 2.24936 0
M  V30 12649 C 1157.79 -0.523311 1.53949 0
M  V30 12650 O 1158.97 -0.462103 1.82748 0
M  V30 12651 C 1156.1 -0.448043 3.35723 0
M  V30 12652 C 1155.14 0.397466 4.24644 0
M  V30 12653 S 1155.98 1.81773 5.03705 0
M  V30 12654 C 1157.13 0.99302 6.17972 0
M  V30 12655 H 1157.36 1.21588 2.713 0
M  V30 12656 H 1154.9 0.737966 1.35622 0
M  V30 12657 H 1156.86 -0.922541 3.99999 0
M  V30 12658 H 1155.52 -1.25397 2.87983 0
M  V30 12659 H 1154.71 -0.240176 5.03427 0
M  V30 12660 H 1154.31 0.806423 3.65202 0
M  V30 12661 H 1156.6 0.232526 6.77101 0
M  V30 12662 H 1157.55 1.75412 6.86029 0
M  V30 12663 H 1157.95 0.531692 5.6199 0
M  V30 12664 N 1157.35 -1.41121 0.701616 0
M  V30 12665 C 1158.28 -2.33436 0.0545974 0
M  V30 12666 C 1159.26 -1.52144 -0.760662 0
M  V30 12667 O 1160.45 -1.80661 -0.712414 0
M  V30 12668 C 1157.58 -3.36015 -0.878117 0
M  V30 12669 C 1156.53 -4.27664 -0.169511 0
M  V30 12670 C 1155.86 -5.20666 -1.21699 0
M  V30 12671 C 1157.16 -5.13254 0.967859 0
M  V30 12672 H 1158.85 -2.87791 0.825637 0
M  V30 12673 H 1156.4 -1.38377 0.398484 0
M  V30 12674 H 1158.35 -3.99526 -1.34004 0
M  V30 12675 H 1157.08 -2.80024 -1.68089 0
M  V30 12676 H 1155.73 -3.65586 0.272441 0
M  V30 12677 H 1155.38 -4.60987 -2.01246 0
M  V30 12678 H 1155.08 -5.82822 -0.747836 0
M  V30 12679 H 1156.61 -5.87053 -1.6793 0
M  V30 12680 H 1158.02 -5.70298 0.585944 0
M  V30 12681 H 1156.42 -5.84381 1.3645 0
M  V30 12682 H 1157.49 -4.5006 1.80483 0
M  V30 12683 N 1158.83 -0.446794 -1.51134 0
M  V30 12684 C 1159.78 0.359865 -2.27977 0
M  V30 12685 C 1160.75 1.0086 -1.31972 0
M  V30 12686 O 1161.93 1.02569 -1.60886 0
M  V30 12687 C 1159.07 1.44978 -3.1317 0
M  V30 12688 C 1158.19 0.818243 -4.2418 0
M  V30 12689 C 1157.32 1.884 -4.96668 0
M  V30 12690 C 1156.36 1.2314 -5.99586 0
M  V30 12691 N 1155.5 2.23894 -6.65444 0
M  V30 12692 H 1160.34 -0.301775 -2.96468 0
M  V30 12693 H 1157.87 -0.160666 -1.4622 0
M  V30 12694 H 1159.83 2.09308 -3.60896 0
M  V30 12695 H 1158.46 2.08092 -2.46775 0
M  V30 12696 H 1157.51 0.0629889 -3.80348 0
M  V30 12697 H 1158.83 0.301885 -4.97886 0
M  V30 12698 H 1157.98 2.6037 -5.4799 0
M  V30 12699 H 1156.72 2.43411 -4.22614 0
M  V30 12700 H 1155.72 0.497215 -5.47547 0
M  V30 12701 H 1156.95 0.688505 -6.75601 0
M  V30 12702 H 1154.89 2.77967 -5.94197 0
M  V30 12703 H 1154.81 1.77176 -7.34945 0
M  V30 12704 H 1156.08 2.95318 -7.21393 0
M  V30 12705 N 1160.31 1.56586 -0.178487 0
M  V30 12706 C 1161.55 1.9739 0.465306 0
M  V30 12707 C 1161.89 1.06474 1.6241 0
M  V30 12708 O 1161.16 0.113316 1.9417 0
M  V30 12709 C 1161.45 3.47577 0.941408 0
M  V30 12710 C 1161.3 4.49271 -0.218054 0
M  V30 12711 C 1162.62 4.01038 1.81263 0
M  V30 12712 H 1159.74 0.717676 0.167663 0
M  V30 12713 H 1162.38 1.88128 -0.266067 0
M  V30 12714 H 1160.53 3.556 1.56463 0
M  V30 12715 H 1162.2 4.53301 -0.855332 0
M  V30 12716 H 1160.44 4.24936 -0.872441 0
M  V30 12717 H 1161.11 5.51776 0.157315 0
M  V30 12718 H 1163.59 3.9569 1.28718 0
M  V30 12719 H 1162.47 5.06526 2.11476 0
M  V30 12720 H 1162.73 3.45288 2.76096 0
M  V30 12721 N 1161.79 -0.095206 1.57312 0
M  V30 12722 C 1163.02 -0.811092 1.90013 0
M  V30 12723 C 1163.42 -1.72807 0.770359 0
M  V30 12724 O 1162.77 -1.81755 -0.266615 0
M  V30 12725 C 1162.83 -1.67744 3.17966 0
M  V30 12726 C 1162.49 -0.932301 4.47389 0
M  V30 12727 C 1163.49 -0.262161 5.19239 0
M  V30 12728 C 1161.18 -0.906414 4.94054 0
M  V30 12729 C 1163.17 0.423898 6.35989 0
M  V30 12730 C 1160.86 -0.216569 6.10716 0
M  V30 12731 C 1161.85 0.447408 6.81533 0
M  V30 12732 O 1161.54 1.12619 7.95972 0
M  V30 12733 H 1161.27 -0.237154 0.633035 0
M  V30 12734 H 1163.83 -0.0768976 2.05256 0
M  V30 12735 H 1162.06 -2.45387 2.98868 0
M  V30 12736 H 1163.75 -2.26988 3.36498 0
M  V30 12737 H 1164.51 -0.273621 4.84228 0
M  V30 12738 H 1160.39 -1.41267 4.38822 0
M  V30 12739 H 1163.94 0.942727 6.91201 0
M  V30 12740 H 1159.83 -0.202955 6.45181 0
M  V30 12741 H 1160.6 1.03308 8.11954 0
M  V30 12742 N 1163.26 -1.53291 -0.366026 0
M  V30 12743 C 1164.17 -1.82656 -1.47221 0
M  V30 12744 C 1165.19 -0.71491 -1.58635 0
M  V30 12745 O 1166.37 -1.00492 -1.74538 0
M  V30 12746 C 1163.43 -2.00995 -2.82492 0
M  V30 12747 C 1162.49 -3.24895 -2.8061 0
M  V30 12748 C 1161.73 -3.4235 -4.09429 0
M  V30 12749 O 1161.95 -2.6411 -5.05571 0
M  V30 12750 O 1160.88 -4.35702 -4.15268 0
M  V30 12751 H 1164.71 -2.76634 -1.2533 0
M  V30 12752 H 1162.29 -1.38665 -0.556084 0
M  V30 12753 H 1164.18 -2.14632 -3.62645 0
M  V30 12754 H 1162.85 -1.10207 -3.04362 0
M  V30 12755 H 1161.76 -3.16682 -1.99157 0
M  V30 12756 H 1163.09 -4.15604 -2.63694 0
M  V30 12757 N 1164.74 0.6258 -1.44643 0
M  V30 12758 C 1165.71 1.71941 -1.51555 0
M  V30 12759 C 1166.71 1.55822 -0.396988 0
M  V30 12760 O 1167.9 1.61221 -0.65981 0
M  V30 12761 C 1165.03 3.11068 -1.39461 0
M  V30 12762 H 1166.22 1.67185 -2.48976 0
M  V30 12763 H 1163.77 0.839934 -1.31814 0
M  V30 12764 H 1164.51 3.21416 -0.431534 0
M  V30 12765 H 1164.29 3.24175 -2.20574 0
M  V30 12766 H 1165.78 3.90762 -1.4729 0
M  V30 12767 N 1166.22 1.31629 0.866686 0
M  V30 12768 C 1167.64 1.10358 1.15296 0
M  V30 12769 C 1167.84 -0.123807 2.01119 0
M  V30 12770 O 1166.89 -0.81219 2.39081 0
M  V30 12771 C 1168.21 2.37684 1.84193 0
M  V30 12772 C 1169.75 2.43326 1.9688 0
M  V30 12773 C 1170.23 3.70541 2.69191 0
M  V30 12774 N 1171.72 3.71454 2.76724 0
M  V30 12775 C 1172.45 4.66585 3.33295 0
M  V30 12776 N 1171.95 5.72075 3.90771 0
M  V30 12777 N 1173.74 4.541 3.31284 0
M  V30 12778 H 1165.89 2.10343 0.29487 0
M  V30 12779 H 1168.16 0.928096 0.193239 0
M  V30 12780 H 1167.86 3.27352 1.28582 0
M  V30 12781 H 1167.74 2.47731 2.84445 0
M  V30 12782 H 1170.12 1.54124 2.51654 0
M  V30 12783 H 1170.21 2.3724 0.956596 0
M  V30 12784 H 1169.85 4.60111 2.15083 0
M  V30 12785 H 1169.78 3.73894 3.70825 0
M  V30 12786 H 1172.27 2.952 2.35936 0
M  V30 12787 H 1172.58 6.40738 4.32058 0
M  V30 12788 H 1170.93 5.75844 3.89138 0
M  V30 12789 H 1174.12 3.70861 2.85622 0
M  V30 12790 H 1174.29 5.28416 3.75074 0
M  V30 12791 N 1167.7 -1.08142 1.14644 0
M  V30 12792 C 1168.63 -2.17139 0.858667 0
M  V30 12793 C 1169.61 -1.69064 -0.187452 0
M  V30 12794 O 1170.8 -1.94151 -0.0435458 0
M  V30 12795 C 1167.93 -3.45648 0.33834 0
M  V30 12796 C 1166.88 -4.07129 1.32021 0
M  V30 12797 C 1166.21 -5.30623 0.659075 0
M  V30 12798 C 1167.51 -4.48095 2.68343 0
M  V30 12799 H 1169.2 -2.41468 1.77012 0
M  V30 12800 H 1166.75 -1.16052 0.852523 0
M  V30 12801 H 1168.7 -4.21216 0.124611 0
M  V30 12802 H 1167.42 -3.2088 -0.608553 0
M  V30 12803 H 1166.08 -3.33596 1.52016 0
M  V30 12804 H 1165.73 -5.02142 -0.293711 0
M  V30 12805 H 1165.43 -5.72714 1.31427 0
M  V30 12806 H 1166.95 -6.08903 0.454933 0
M  V30 12807 H 1168.37 -5.14828 2.5224 0
M  V30 12808 H 1166.76 -5.01113 3.30161 0
M  V30 12809 H 1167.83 -3.59852 3.25015 0
M  V30 12810 N 1169.18 -0.941978 -1.26351 0
M  V30 12811 C 1170.41 -0.606748 -1.97803 0
M  V30 12812 C 1170.82 0.818441 -1.70138 0
M  V30 12813 O 1170.18 1.54583 -0.970076 0
M  V30 12814 C 1170.23 -0.840431 -3.51595 0
M  V30 12815 O 1169.95 -2.20957 -3.78299 0
M  V30 12816 C 1171.45 -0.515855 -4.40288 0
M  V30 12817 H 1168.67 -0.228591 -0.630862 0
M  V30 12818 H 1171.21 -1.2629 -1.60845 0
M  V30 12819 H 1169.37 -0.230875 -3.86711 0
M  V30 12820 H 1169.78 -2.2702 -4.72824 0
M  V30 12821 H 1171.26 -0.72998 -5.47152 0
M  V30 12822 H 1171.73 0.549178 -4.35753 0
M  V30 12823 H 1172.34 -1.10417 -4.10717 0
M  V30 12824 N 1170.66 1.40747 -0.709091 0
M  V30 12825 C 1171.57 2.3454 -0.0532205 0
M  V30 12826 C 1172.58 1.56956 0.751057 0
M  V30 12827 O 1173.76 1.89375 0.685509 0
M  V30 12828 C 1170.82 3.35809 0.862157 0
M  V30 12829 C 1169.88 4.29273 0.0485632 0
M  V30 12830 C 1169.12 5.25705 0.920345 0
M  V30 12831 O 1169.34 5.27933 2.15969 0
M  V30 12832 O 1168.27 6.00806 0.3628 0
M  V30 12833 H 1172.1 2.92232 -0.826698 0
M  V30 12834 H 1169.68 1.4183 -0.469519 0
M  V30 12835 H 1171.57 3.97931 1.38668 0
M  V30 12836 H 1170.24 2.8054 1.61489 0
M  V30 12837 H 1169.15 3.70456 -0.520873 0
M  V30 12838 H 1170.48 4.87676 -0.665807 0
M  V30 12839 N 1172.13 0.454803 1.50895 0
M  V30 12840 C 1173.04 -0.353495 2.31921 0
M  V30 12841 C 1174.06 -1.01136 1.41589 0
M  V30 12842 O 1175.24 -1.00291 1.74653 0
M  V30 12843 C 1172.3 -1.43032 3.15821 0
M  V30 12844 C 1171.36 -0.790763 4.21954 0
M  V30 12845 C 1170.59 -1.81628 5.01843 0
M  V30 12846 O 1170.82 -3.04078 4.8259 0
M  V30 12847 O 1169.75 -1.39713 5.8546 0
M  V30 12848 H 1173.58 0.308463 3.02129 0
M  V30 12849 H 1171.16 0.216971 1.47816 0
M  V30 12850 H 1173.04 -2.05444 3.67927 0
M  V30 12851 H 1171.72 -2.07605 2.48358 0
M  V30 12852 H 1170.63 -0.128127 3.73881 0
M  V30 12853 H 1171.96 -0.188251 4.9184 0
M  V30 12854 N 1173.61 -1.56489 0.186789 0
M  V30 12855 C 1174.52 -2.22304 -0.749543 0
M  V30 12856 C 1175.54 -1.21949 -1.24115 0
M  V30 12857 O 1176.71 -1.5466 -1.29005 0
M  V30 12858 C 1173.78 -2.863 -1.95533 0
M  V30 12859 C 1172.84 -4.01901 -1.5091 0
M  V30 12860 C 1172.07 -4.62837 -2.6574 0
M  V30 12861 O 1172.3 -4.22681 -3.8301 0
M  V30 12862 O 1171.23 -5.52446 -2.38929 0
M  V30 12863 H 1175.06 -3.02909 -0.21908 0
M  V30 12864 H 1172.64 -1.49341 -0.0421249 0
M  V30 12865 H 1174.52 -3.2682 -2.6602 0
M  V30 12866 H 1173.2 -2.08681 -2.47455 0
M  V30 12867 H 1172.1 -3.66021 -0.773261 0
M  V30 12868 H 1173.44 -4.8116 -1.03663 0
M  V30 12869 N 1175.09 0.086862 -1.5736 0
M  V30 12870 C 1176.32 0.802167 -1.90717 0
M  V30 12871 C 1176.73 1.71875 -0.781304 0
M  V30 12872 O 1176.09 1.80831 0.246255 0
M  V30 12873 C 1176.14 1.60858 -3.23739 0
M  V30 12874 O 1175.86 0.728851 -4.31995 0
M  V30 12875 C 1177.36 2.42621 -3.71012 0
M  V30 12876 H 1174.58 0.228914 -0.630745 0
M  V30 12877 H 1177.13 0.061634 -2.04407 0
M  V30 12878 H 1175.28 2.30153 -3.11622 0
M  V30 12879 H 1175.7 1.2882 -5.08435 0
M  V30 12880 H 1177.17 2.94683 -4.66761 0
M  V30 12881 H 1177.65 3.21462 -2.99264 0
M  V30 12882 H 1178.25 1.78509 -3.86024 0
M  V30 12883 N 1176.57 1.53483 0.357892 0
M  V30 12884 C 1177.81 1.70289 1.10134 0
M  V30 12885 C 1178.15 0.457296 1.88739 0
M  V30 12886 O 1177.42 -0.545527 1.86693 0
M  V30 12887 C 1177.7 2.95755 2.05429 0
M  V30 12888 C 1177.56 4.30489 1.30382 0
M  V30 12889 C 1178.88 3.16844 3.05447 0
M  V30 12890 H 1176 0.61965 0.399003 0
M  V30 12891 H 1178.64 1.86133 0.381357 0
M  V30 12892 H 1176.79 2.82377 2.66825 0
M  V30 12893 H 1178.46 4.55692 0.71711 0
M  V30 12894 H 1176.7 4.2955 0.605712 0
M  V30 12895 H 1177.37 5.14427 2.00171 0
M  V30 12896 H 1179.85 3.29458 2.54159 0
M  V30 12897 H 1178.73 4.06053 3.69341 0
M  V30 12898 H 1178.99 2.32476 3.76041 0
M  V30 12899 N 1178.05 -0.61812 1.44973 0
M  V30 12900 C 1179.29 -1.38882 1.4997 0
M  V30 12901 C 1179.65 -1.91533 0.133841 0
M  V30 12902 O 1180.85 -2.68736 0.0585012 0
M  V30 12903 C 1179.12 -2.5136 2.54073 0
M  V30 12904 S 1180.68 -3.39324 2.78216 0
M  V30 12905 H 1177.5 -0.473631 0.530278 0
M  V30 12906 H 1180.1 -0.714299 1.81984 0
M  V30 12907 H 1178.8 -2.11012 3.51997 0
M  V30 12908 H 1178.34 -3.23625 2.23675 0
M  V30 12909 H 1180.35 -4.49198 2.10797 0
M  V30 12910 N 1179.52 -1.32087 -0.859693 0
M  V30 12911 C 1180.45 -1.23204 -1.98351 0
M  V30 12912 C 1181.43 -0.116974 -1.69697 0
M  V30 12913 O 1182.62 -0.303301 -1.91817 0
M  V30 12914 C 1179.75 -0.949171 -3.34078 0
M  V30 12915 C 1178.7 -2.02493 -3.77069 0
M  V30 12916 C 1178.03 -1.59455 -5.1037 0
M  V30 12917 C 1179.33 -3.43934 -3.93074 0
M  V30 12918 H 1181.02 -2.17227 -2.0604 0
M  V30 12919 H 1178.57 -1.04577 -0.989931 0
M  V30 12920 H 1180.52 -0.873594 -4.12245 0
M  V30 12921 H 1179.25 0.0267095 -3.26589 0
M  V30 12922 H 1177.91 -2.09057 -3.01149 0
M  V30 12923 H 1177.55 -0.606256 -4.99333 0
M  V30 12924 H 1177.25 -2.31429 -5.40106 0
M  V30 12925 H 1178.78 -1.53325 -5.91036 0
M  V30 12926 H 1180.19 -3.39986 -4.61608 0
M  V30 12927 H 1178.59 -4.14214 -4.3422 0
M  V30 12928 H 1179.66 -3.83965 -2.9614 0
M  V30 12929 N 1181 1.07532 -1.15215 0
M  V30 12930 C 1182.28 1.76813 -0.83646 0
M  V30 12931 C 1182.66 2.00242 0.6683 0
M  V30 12932 O 1182.01 1.61941 1.61206 0
M  V30 12933 C 1182.22 3.0779 -1.64519 0
M  V30 12934 C 1183.56 3.82168 -1.85022 0
M  V30 12935 O 1184.59 3.17596 -1.61279 0
M  V30 12936 O 1183.45 4.98135 -2.24775 0
M  V30 12937 H 1180.54 0.767736 -0.307426 0
M  V30 12938 H 1183.09 1.13914 -1.25784 0
M  V30 12939 H 1181.86 2.86342 -2.6669 0
M  V30 12940 H 1181.48 3.78419 -1.22002 0
M  V30 12941 N 1182.48 0.948665 1.2585 0
M  V30 12942 C 1183.41 0.482036 2.2847 0
M  V30 12943 C 1184.39 -0.468553 1.63519 0
M  V30 12944 O 1185.58 -0.368796 1.90666 0
M  V30 12945 C 1182.71 -0.246603 3.46423 0
M  V30 12946 C 1181.66 0.61815 4.23513 0
M  V30 12947 C 1180.99 -0.240884 5.34157 0
M  V30 12948 C 1182.29 1.89327 4.86778 0
M  V30 12949 H 1183.98 1.33973 2.67753 0
M  V30 12950 H 1181.53 0.645645 1.28715 0
M  V30 12951 H 1183.48 -0.584135 4.17332 0
M  V30 12952 H 1182.2 -1.13849 3.06114 0
M  V30 12953 H 1180.86 0.938682 3.54379 0
M  V30 12954 H 1180.51 -1.13235 4.90089 0
M  V30 12955 H 1180.21 0.334367 5.86648 0
M  V30 12956 H 1181.73 -0.573517 6.07901 0
M  V30 12957 H 1183.15 1.62252 5.49861 0
M  V30 12958 H 1181.55 2.41369 5.49419 0
M  V30 12959 H 1182.62 2.60006 4.09298 0
M  V30 12960 N 1183.96 -1.40369 0.716545 0
M  V30 12961 C 1185.24 -1.94737 0.183576 0
M  V30 12962 C 1185.62 -1.65464 -1.31092 0
M  V30 12963 O 1184.96 -0.972832 -2.06756 0
M  V30 12964 C 1185.17 -3.45438 0.497339 0
M  V30 12965 C 1186.52 -4.2235 0.436526 0
M  V30 12966 O 1187.55 -3.53553 0.433454 0
M  V30 12967 O 1186.4 -5.44923 0.41489 0
M  V30 12968 H 1183.5 -0.82655 0.0272785 0
M  V30 12969 H 1186.04 -1.49972 0.794143 0
M  V30 12970 H 1184.82 -3.60107 1.53097 0
M  V30 12971 H 1184.44 -3.97342 -0.143141 0
M  V30 12972 N 1185.44 -0.462799 -1.50652 0
M  V30 12973 C 1186.38 0.335664 -2.28346 0
M  V30 12974 C 1187.35 0.994541 -1.33034 0
M  V30 12975 O 1188.54 1.00857 -1.61964 0
M  V30 12976 C 1185.68 1.41648 -3.1469 0
M  V30 12977 C 1184.79 0.773207 -4.25024 0
M  V30 12978 C 1183.93 1.83121 -4.98638 0
M  V30 12979 C 1182.97 1.16774 -6.00858 0
M  V30 12980 N 1182.1 2.16823 -6.67782 0
M  V30 12981 H 1186.94 -0.333202 -2.96131 0
M  V30 12982 H 1184.48 -0.176166 -1.46041 0
M  V30 12983 H 1186.44 2.05468 -3.63096 0
M  V30 12984 H 1185.07 2.05462 -2.48968 0
M  V30 12985 H 1184.12 0.0226444 -3.80393 0
M  V30 12986 H 1185.43 0.249061 -4.98178 0
M  V30 12987 H 1184.59 2.54543 -5.5072 0
M  V30 12988 H 1183.32 2.38915 -4.25172 0
M  V30 12989 H 1182.33 0.439112 -5.48044 0
M  V30 12990 H 1183.55 0.616809 -6.76293 0
M  V30 12991 H 1181.5 2.71649 -5.97112 0
M  V30 12992 H 1181.42 1.69371 -7.36783 0
M  V30 12993 H 1182.69 2.8765 -7.24484 0
M  V30 12994 N 1186.91 1.56388 -0.195085 0
M  V30 12995 C 1188.16 1.97872 0.444344 0
M  V30 12996 C 1188.49 1.0819 1.61271 0
M  V30 12997 O 1187.77 0.133904 1.94039 0
M  V30 12998 C 1188.05 3.48556 0.90449 0
M  V30 12999 C 1187.9 4.49015 -0.265693 0
M  V30 13000 C 1189.22 4.02938 1.76999 0
M  V30 13001 H 1186.34 0.719413 0.160041 0
M  V30 13002 H 1188.98 1.87835 -0.286005 0
M  V30 13003 H 1187.13 3.5724 1.52682 0
M  V30 13004 H 1188.81 4.52368 -0.903363 0
M  V30 13005 H 1187.05 4.23987 -0.917462 0
M  V30 13006 H 1187.72 5.51912 0.0987834 0
M  V30 13007 H 1190.2 3.97033 1.24514 0
M  V30 13008 H 1189.07 5.08741 2.06092 0
M  V30 13009 H 1189.33 3.48197 2.72418 0
M  V30 13010 N 1188.39 -0.0785156 1.57404 0
M  V30 13011 C 1189.3 -1.11203 2.0657 0
M  V30 13012 C 1190.32 -1.42822 0.993872 0
M  V30 13013 O 1191.49 -1.53133 1.30814 0
M  V30 13014 C 1188.56 -2.40812 2.4942 0
M  V30 13015 C 1187.62 -2.16225 3.70871 0
M  V30 13016 C 1186.85 -3.39654 4.11668 0
M  V30 13017 O 1187.08 -4.48521 3.524 0
M  V30 13018 O 1186.01 -3.28263 5.04507 0
M  V30 13019 H 1189.84 -0.724381 2.94935 0
M  V30 13020 H 1187.42 -0.292184 1.46515 0
M  V30 13021 H 1189.3 -3.17101 2.77534 0
M  V30 13022 H 1187.98 -2.7897 1.64187 0
M  V30 13023 H 1186.89 -1.37663 3.4785 0
M  V30 13024 H 1188.22 -1.82951 4.56935 0
M  V30 13025 N 1189.87 -1.5367 -0.349747 0
M  V30 13026 C 1190.83 -1.80533 -1.41211 0
M  V30 13027 C 1191.83 -0.676188 -1.45892 0
M  V30 13028 O 1193.02 -0.944453 -1.46375 0
M  V30 13029 C 1190.16 -1.94175 -2.80195 0
M  V30 13030 H 1191.35 -2.75428 -1.18658 0
M  V30 13031 H 1188.9 -1.44988 -0.583787 0
M  V30 13032 H 1189.64 -1.01402 -3.08039 0
M  V30 13033 H 1189.42 -2.76316 -2.78194 0
M  V30 13034 H 1190.91 -2.16496 -3.57098 0
M  V30 13035 N 1191.35 0.610423 -1.45298 0
M  V30 13036 C 1192.58 1.39419 -1.52466 0
M  V30 13037 C 1192.99 1.88563 -0.1551 0
M  V30 13038 O 1192.33 1.62692 0.853061 0
M  V30 13039 C 1192.39 2.63515 -2.44541 0
M  V30 13040 C 1192.06 2.36028 -3.91331 0
M  V30 13041 C 1193.05 1.96567 -4.81308 0
M  V30 13042 C 1190.74 2.49028 -4.36223 0
M  V30 13043 C 1192.73 1.70461 -6.14184 0
M  V30 13044 C 1190.42 2.22536 -5.6914 0
M  V30 13045 C 1191.42 1.83314 -6.5794 0
M  V30 13046 O 1191.1 1.57131 -7.88394 0
M  V30 13047 H 1190.84 0.433278 -0.518889 0
M  V30 13048 H 1193.39 0.751803 -1.91147 0
M  V30 13049 H 1191.62 3.30463 -2.00826 0
M  V30 13050 H 1193.31 3.25554 -2.42424 0
M  V30 13051 H 1194.08 1.86062 -4.4789 0
M  V30 13052 H 1189.95 2.78524 -3.67349 0
M  V30 13053 H 1193.5 1.39773 -6.83454 0
M  V30 13054 H 1189.4 2.32657 -6.02114 0
M  V30 13055 H 1190.16 1.71207 -8.00394 0
M  V30 13056 N 1192.83 1.32541 0.852676 0
M  V30 13057 C 1194.24 1.11575 1.14119 0
M  V30 13058 C 1194.44 -0.102469 2.01239 0
M  V30 13059 O 1193.5 -0.786786 2.39929 0
M  V30 13060 C 1194.81 2.39624 1.81661 0
M  V30 13061 C 1196.36 2.454 1.94288 0
M  V30 13062 C 1196.83 3.73375 2.65245 0
M  V30 13063 N 1198.33 3.74368 2.72769 0
M  V30 13064 C 1199.06 4.70094 3.28328 0
M  V30 13065 N 1198.56 5.76187 3.84682 0
M  V30 13066 N 1200.35 4.57588 3.26449 0
M  V30 13067 H 1192.5 2.10644 0.272544 0
M  V30 13068 H 1194.76 0.930094 0.183385 0
M  V30 13069 H 1194.47 3.28698 1.25102 0
M  V30 13070 H 1194.34 2.50734 2.81802 0
M  V30 13071 H 1196.73 1.56784 2.50005 0
M  V30 13072 H 1196.81 2.38241 0.931379 0
M  V30 13073 H 1196.46 4.62366 2.10191 0
M  V30 13074 H 1196.39 3.77806 3.66838 0
M  V30 13075 H 1198.88 2.97685 2.32791 0
M  V30 13076 H 1199.19 6.45285 4.25238 0
M  V30 13077 H 1197.53 5.79939 3.83008 0
M  V30 13078 H 1200.73 3.7387 2.81672 0
M  V30 13079 H 1200.9 5.32365 3.69448 0
M  V30 13080 N 1194.3 -1.0692 1.15784 0
M  V30 13081 C 1195.54 -1.8119 0.946018 0
M  V30 13082 C 1195.91 -1.84899 -0.517338 0
M  V30 13083 O 1197.11 -2.55085 -0.847643 0
M  V30 13084 C 1195.38 -3.22102 1.54871 0
M  V30 13085 S 1196.94 -4.13065 1.48063 0
M  V30 13086 H 1193.76 -0.62424 0.340361 0
M  V30 13087 H 1196.36 -1.28411 1.47414 0
M  V30 13088 H 1195.06 -3.16994 2.60659 0
M  V30 13089 H 1194.59 -3.79956 1.01965 0
M  V30 13090 H 1196.61 -4.93907 0.476517 0
M  V30 13091 N 1195.78 -0.955326 -1.25345 0
M  V30 13092 C 1197.03 -0.609278 -1.92697 0
M  V30 13093 C 1197.35 0.856535 -1.75181 0
M  V30 13094 O 1196.62 1.61013 -1.11587 0
M  V30 13095 H 1195.2 -0.22235 -0.713141 0
M  V30 13096 H 1197.86 -1.21372 -1.52496 0
M  V30 13097 H 1196.96 -0.839198 -3.00606 0
M  V30 13098 N 1197.26 1.39987 -0.723979 0
M  V30 13099 C 1198.19 2.3332 -0.0917282 0
M  V30 13100 C 1199.17 1.53335 0.736361 0
M  V30 13101 O 1200.36 1.81771 0.683582 0
M  V30 13102 C 1197.49 3.3737 0.824549 0
M  V30 13103 C 1196.44 4.2788 0.101452 0
M  V30 13104 C 1195.77 5.22536 1.13401 0
M  V30 13105 C 1197.07 5.11649 -1.04939 0
M  V30 13106 H 1198.76 2.86441 -0.871318 0
M  V30 13107 H 1196.31 1.37725 -0.420448 0
M  V30 13108 H 1198.26 4.01607 1.27631 0
M  V30 13109 H 1196.98 2.82663 1.63613 0
M  V30 13110 H 1195.64 3.65107 -0.330569 0
M  V30 13111 H 1195.29 4.64131 1.93886 0
M  V30 13112 H 1194.99 5.83938 0.65502 0
M  V30 13113 H 1196.52 5.89651 1.58569 0
M  V30 13114 H 1197.93 5.69293 -0.6766 0
M  V30 13115 H 1196.33 5.82137 -1.45729 0
M  V30 13116 H 1197.4 4.47132 -1.8762 0
M  V30 13117 N 1198.74 0.470782 1.50404 0
M  V30 13118 C 1199.69 -0.32355 2.28521 0
M  V30 13119 C 1200.66 -0.987472 1.3356 0
M  V30 13120 O 1201.84 -0.999969 1.62497 0
M  V30 13121 C 1198.98 -1.39977 3.15437 0
M  V30 13122 C 1198.09 -0.750656 4.25428 0
M  V30 13123 C 1197.23 -1.80474 4.99602 0
M  V30 13124 C 1196.27 -1.13586 6.01469 0
M  V30 13125 N 1195.41 -2.13279 6.68922 0
M  V30 13126 H 1200.25 0.348902 2.9595 0
M  V30 13127 H 1197.78 0.183908 1.45946 0
M  V30 13128 H 1199.74 -2.0354 3.6418 0
M  V30 13129 H 1198.37 -2.04139 2.50054 0
M  V30 13130 H 1197.42 -0.00247092 3.804 0
M  V30 13131 H 1198.73 -0.222638 4.98303 0
M  V30 13132 H 1197.89 -2.51619 5.52062 0
M  V30 13133 H 1196.63 -2.36657 4.26433 0
M  V30 13134 H 1195.63 -0.410042 5.48269 0
M  V30 13135 H 1196.86 -0.580935 6.76611 0
M  V30 13136 H 1194.8 -2.68479 5.98544 0
M  V30 13137 H 1194.72 -1.65461 7.37671 0
M  V30 13138 H 1195.99 -2.83804 7.26 0
M  V30 13139 N 1200.22 -1.56282 0.203376 0
M  V30 13140 C 1201.16 -2.19473 -0.714164 0
M  V30 13141 C 1202.13 -1.14454 -1.20372 0
M  V30 13142 O 1203.32 -1.42739 -1.26611 0
M  V30 13143 C 1200.46 -2.86451 -1.92457 0
M  V30 13144 C 1199.57 -4.06017 -1.47561 0
M  V30 13145 C 1198.71 -4.60829 -2.64216 0
M  V30 13146 C 1197.75 -5.72734 -2.15967 0
M  V30 13147 N 1196.88 -6.21916 -3.25829 0
M  V30 13148 H 1201.72 -2.97523 -0.168558 0
M  V30 13149 H 1199.26 -1.46926 -0.0714525 0
M  V30 13150 H 1201.22 -3.23459 -2.63496 0
M  V30 13151 H 1199.85 -2.10951 -2.44335 0
M  V30 13152 H 1198.9 -3.74617 -0.660784 0
M  V30 13153 H 1200.21 -4.8693 -1.08168 0
M  V30 13154 H 1199.37 -5.00185 -3.43366 0
M  V30 13155 H 1198.11 -3.7904 -3.06887 0
M  V30 13156 H 1197.11 -5.32899 -1.35273 0
M  V30 13157 H 1198.34 -6.56346 -1.74316 0
M  V30 13158 H 1196.28 -5.43047 -3.68016 0
M  V30 13159 H 1196.2 -6.97904 -2.90631 0
M  V30 13160 H 1197.47 -6.65927 -4.05168 0
M  V30 13161 N 1201.7 0.070167 -1.57444 0
M  V30 13162 C 1202.94 0.767842 -1.86513 0
M  V30 13163 C 1203.26 1.78659 -0.796257 0
M  V30 13164 O 1204.46 2.53395 -0.974845 0
M  V30 13165 C 1202.92 1.41654 -3.30851 0
M  V30 13166 C 1202.53 0.436273 -4.45871 0
M  V30 13167 C 1204.27 2.09649 -3.69117 0
M  V30 13168 C 1202.18 1.09098 -5.8125 0
M  V30 13169 H 1201.11 0.290519 -0.695784 0
M  V30 13170 H 1203.76 0.0211697 -1.83488 0
M  V30 13171 H 1202.14 2.21153 -3.28493 0
M  V30 13172 H 1203.32 -0.329022 -4.59624 0
M  V30 13173 H 1201.63 -0.139314 -4.16167 0
M  V30 13174 H 1204.23 2.59411 -4.67558 0
M  V30 13175 H 1204.57 2.89663 -2.99 0
M  V30 13176 H 1205.1 1.36979 -3.73472 0
M  V30 13177 H 1201.84 0.331128 -6.54663 0
M  V30 13178 H 1201.36 1.8271 -5.71294 0
M  V30 13179 H 1203.04 1.61034 -6.2664 0
M  V30 13180 N 1203.17 1.53854 0.341593 0
M  V30 13181 C 1204.12 1.81979 1.41959 0
M  V30 13182 C 1205.09 0.665616 1.5218 0
M  V30 13183 O 1206.28 0.910246 1.67688 0
M  V30 13184 C 1203.42 2.03681 2.78583 0
M  V30 13185 C 1202.53 3.31389 2.77137 0
M  V30 13186 C 1201.66 3.43148 4.05491 0
M  V30 13187 C 1200.7 4.64799 3.98282 0
M  V30 13188 N 1199.84 4.73581 5.18329 0
M  V30 13189 H 1204.68 2.73953 1.17275 0
M  V30 13190 H 1202.22 1.35689 0.568062 0
M  V30 13191 H 1204.17 2.14253 3.57983 0
M  V30 13192 H 1202.8 1.15017 3.01614 0
M  V30 13193 H 1201.86 3.29649 1.89832 0
M  V30 13194 H 1203.17 4.20885 2.67689 0
M  V30 13195 H 1202.32 3.53163 4.93316 0
M  V30 13196 H 1201.06 2.51712 4.17723 0
M  V30 13197 H 1200.07 4.54859 3.08842 0
M  V30 13198 H 1201.29 5.57601 3.87631 0
M  V30 13199 H 1199.24 3.85055 5.31102 0
M  V30 13200 H 1199.15 5.57016 5.11145 0
M  V30 13201 H 1200.42 4.87908 6.0792 0
M  V30 13202 N 1204.65 -0.602709 1.4562 0
M  V30 13203 C 1205.6 -1.73425 1.55005 0
M  V30 13204 C 1206.59 -1.64118 0.419713 0
M  V30 13205 O 1207.8 -1.69853 0.595815 0
M  V30 13206 H 1204.17 -0.573038 0.486962 0
M  V30 13207 H 1206.15 -1.62637 2.50184 0
M  V30 13208 C 1204.89 -3.11808 1.53853 0
M  V30 13209 H 1204.22 -3.19631 2.40158 0
M  V30 13210 H 1205.66 -3.90798 1.64477 0
M  V30 13211 C 1204.12 -3.35866 0.263765 0
M  V30 13212 O 1204.65 -3.96334 -0.654364 0
M  V30 13213 N 1202.85 -2.90171 0.157927 0
M  V30 13214 H 1202.4 -2.41144 0.905944 0
M  V30 13215 H 1202.36 -3.06641 -0.694175 0
M  V30 13216 N 1206.13 -1.32992 -0.845635 0
M  V30 13217 C 1207.41 -1.14671 -1.58461 0
M  V30 13218 C 1207.79 0.289498 -2.09106 0
M  V30 13219 O 1207.13 1.28751 -1.88773 0
M  V30 13220 C 1207.34 -2.18206 -2.72373 0
M  V30 13221 C 1208.69 -2.5201 -3.41726 0
M  V30 13222 O 1209.72 -2.16821 -2.82608 0
M  V30 13223 O 1208.58 -3.12368 -4.48429 0
M  V30 13224 H 1205.67 -0.443088 -0.698285 0
M  V30 13225 H 1208.22 -1.44552 -0.888978 0
M  V30 13226 H 1206.99 -3.14707 -2.32541 0
M  V30 13227 H 1206.61 -1.89372 -3.49605 0
M  V30 13228 N 1207.61 1.06304 -1.1635 0
M  V30 13229 C 1208.54 2.15745 -0.893103 0
M  V30 13230 C 1209.52 1.69341 0.160531 0
M  V30 13231 O 1210.7 1.94196 0.0126526 0
M  V30 13232 C 1207.83 3.45066 -0.393287 0
M  V30 13233 C 1206.79 4.04978 -1.38482 0
M  V30 13234 C 1206.11 5.29507 -0.743409 0
M  V30 13235 C 1207.41 4.4377 -2.75438 0
M  V30 13236 H 1209.11 2.38622 -1.80831 0
M  V30 13237 H 1206.65 1.14681 -0.870878 0
M  V30 13238 H 1208.61 4.20964 -0.191607 0
M  V30 13239 H 1207.33 3.21808 0.557426 0
M  V30 13240 H 1205.99 3.31136 -1.57304 0
M  V30 13241 H 1205.64 5.02545 0.213787 0
M  V30 13242 H 1205.34 5.7055 -1.40521 0
M  V30 13243 H 1206.86 6.08102 -0.551746 0
M  V30 13244 H 1208.28 5.1075 -2.60398 0
M  V30 13245 H 1206.67 4.95797 -3.38091 0
M  V30 13246 H 1207.74 3.54636 -3.30699 0
M  V30 13247 N 1209.09 0.96196 1.24836 0
M  V30 13248 C 1210.03 0.479282 2.27609 0
M  V30 13249 C 1211.03 -0.454224 1.63197 0
M  V30 13250 O 1212.23 -0.330146 1.76946 0
M  V30 13251 H 1208.61 0.13651 0.739506 0
M  V30 13252 H 1210.58 1.35817 2.657 0
M  V30 13253 C 1209.33 -0.220499 3.47 0
M  V30 13254 H 1208.65 0.488694 3.96802 0
M  V30 13255 H 1210.09 -0.522137 4.20773 0
M  V30 13256 C 1208.55 -1.44552 3.04313 0
M  V30 13257 O 1209.08 -2.54287 3.10967 0
M  V30 13258 N 1207.29 -1.3095 2.59423 0
M  V30 13259 H 1206.83 -0.416656 2.54208 0
M  V30 13260 H 1206.79 -2.13029 2.31227 0
M  V30 13261 N 1210.56 -1.39601 0.731392 0
M  V30 13262 C 1211.49 -2.33268 0.1041 0
M  V30 13263 C 1212.47 -1.53724 -0.728219 0
M  V30 13264 O 1213.66 -1.82131 -0.673933 0
M  V30 13265 C 1210.79 -3.37802 -0.806646 0
M  V30 13266 C 1209.74 -4.27928 -0.0787588 0
M  V30 13267 C 1209.07 -5.23131 -1.10628 0
M  V30 13268 C 1210.37 -5.11086 1.07651 0
M  V30 13269 H 1212.06 -2.85975 0.886496 0
M  V30 13270 H 1209.61 -1.375 0.427746 0
M  V30 13271 H 1211.56 -4.02278 -1.25499 0
M  V30 13272 H 1210.29 -2.83527 -1.62112 0
M  V30 13273 H 1208.95 -3.64926 0.349926 0
M  V30 13274 H 1208.59 -4.65152 -1.91422 0
M  V30 13275 H 1208.29 -5.84277 -0.624043 0
M  V30 13276 H 1209.82 -5.90483 -1.5544 0
M  V30 13277 H 1211.23 -5.68927 0.706781 0
M  V30 13278 H 1209.63 -5.81356 1.48814 0
M  V30 13279 H 1210.7 -4.46131 1.89988 0
M  V30 13280 N 1212.04 -0.478751 -1.50152 0
M  V30 13281 C 1212.99 0.311426 -2.28689 0
M  V30 13282 C 1213.96 0.980375 -1.34082 0
M  V30 13283 O 1215.14 0.991337 -1.63025 0
M  V30 13284 C 1212.28 1.38302 -3.16175 0
M  V30 13285 C 1211.4 0.728084 -4.2582 0
M  V30 13286 C 1210.53 1.77822 -5.00552 0
M  V30 13287 C 1209.57 1.10395 -6.02063 0
M  V30 13288 N 1208.71 2.09728 -6.70044 0
M  V30 13289 H 1213.55 -0.364592 -2.95761 0
M  V30 13290 H 1211.09 -0.191645 -1.45846 0
M  V30 13291 H 1213.04 2.01606 -3.65255 0
M  V30 13292 H 1211.67 2.0281 -2.51133 0
M  V30 13293 H 1210.73 -0.0177026 -3.80396 0
M  V30 13294 H 1212.04 0.196209 -4.98414 0
M  V30 13295 H 1211.19 2.48687 -5.53389 0
M  V30 13296 H 1209.93 2.34392 -4.27682 0
M  V30 13297 H 1208.94 0.38096 -5.48479 0
M  V30 13298 H 1210.16 0.545045 -6.76909 0
M  V30 13299 H 1208.11 2.65301 -5.9996 0
M  V30 13300 H 1208.02 1.61546 -7.38538 0
M  V30 13301 H 1209.29 2.7995 -7.27495 0
M  V30 13302 N 1213.52 1.56172 -0.211661 0
M  V30 13303 C 1214.47 2.19849 0.702515 0
M  V30 13304 C 1215.44 1.15091 1.19763 0
M  V30 13305 O 1216.62 1.43408 1.25852 0
M  V30 13306 C 1213.76 2.87468 1.90935 0
M  V30 13307 C 1212.88 4.06794 1.45406 0
M  V30 13308 C 1212.01 4.62224 2.61769 0
M  V30 13309 C 1211.05 5.73872 2.12926 0
M  V30 13310 N 1210.19 6.23635 3.22526 0
M  V30 13311 H 1215.03 2.97608 0.152777 0
M  V30 13312 H 1212.56 1.46962 0.0636596 0
M  V30 13313 H 1214.52 3.24851 2.61777 0
M  V30 13314 H 1213.15 2.12244 2.43213 0
M  V30 13315 H 1212.2 3.74962 0.640907 0
M  V30 13316 H 1213.52 4.87497 1.05584 0
M  V30 13317 H 1212.67 5.01999 3.40709 0
M  V30 13318 H 1211.41 3.80662 3.04873 0
M  V30 13319 H 1210.41 5.33609 1.32445 0
M  V30 13320 H 1211.64 6.57262 1.70833 0
M  V30 13321 H 1209.58 5.44991 3.65131 0
M  V30 13322 H 1209.5 6.99435 2.86926 0
M  V30 13323 H 1210.77 6.68066 4.01631 0
M  V30 13324 N 1215 -0.0618163 1.57479 0
M  V30 13325 C 1216.22 -0.775513 1.92355 0
M  V30 13326 C 1216.65 -1.69816 0.808949 0
M  V30 13327 O 1216.01 -1.79736 -0.23761 0
M  V30 13328 C 1216.05 -1.5367 3.26218 0
M  V30 13329 O 1215.16 -2.64802 3.16155 0
M  V30 13330 H 1214.5 -0.210909 0.629614 0
M  V30 13331 H 1217.03 -0.0270752 2.04582 0
M  V30 13332 H 1217.04 -1.91379 3.6033 0
M  V30 13333 H 1215.71 -0.859798 4.06916 0
M  V30 13334 H 1214.29 -2.29876 2.93618 0
M  V30 13335 N 1216.48 -1.54033 -0.333429 0
M  V30 13336 C 1217.41 -1.85719 -1.4153 0
M  V30 13337 C 1218.39 -0.713144 -1.54429 0
M  V30 13338 O 1219.57 -0.965984 -1.68471 0
M  V30 13339 C 1216.7 -2.07578 -2.78439 0
M  V30 13340 C 1215.66 -3.23411 -2.80338 0
M  V30 13341 C 1214.98 -3.30622 -4.2023 0
M  V30 13342 C 1216.28 -4.6129 -2.44968 0
M  V30 13343 H 1217.98 -2.76325 -1.15261 0
M  V30 13344 H 1215.52 -1.32957 -0.55303 0
M  V30 13345 H 1217.48 -2.28329 -3.5418 0
M  V30 13346 H 1216.2 -1.13713 -3.06165 0
M  V30 13347 H 1214.86 -3.02531 -2.07052 0
M  V30 13348 H 1214.51 -2.34333 -4.45081 0
M  V30 13349 H 1214.21 -4.08466 -4.22409 0
M  V30 13350 H 1215.73 -3.53596 -4.97798 0
M  V30 13351 H 1217.14 -4.81987 -3.10421 0
M  V30 13352 H 1215.54 -5.41611 -2.58414 0
M  V30 13353 H 1216.61 -4.6421 -1.40134 0
M  V30 13354 N 1217.95 0.594978 -1.45938 0
M  V30 13355 C 1218.88 1.71536 -1.58422 0
M  V30 13356 C 1219.87 1.64441 -0.435116 0
M  V30 13357 O 1221.05 1.82647 -0.659839 0
M  V30 13358 C 1218.18 3.10163 -1.56257 0
M  V30 13359 C 1217.13 3.3208 -2.70013 0
M  V30 13360 C 1216.46 4.71108 -2.52905 0
M  V30 13361 C 1217.76 3.21105 -4.11933 0
M  V30 13362 H 1219.45 1.61344 -2.52207 0
M  V30 13363 H 1217 0.774791 -1.2138 0
M  V30 13364 H 1218.95 3.88352 -1.63587 0
M  V30 13365 H 1217.68 3.21225 -0.590093 0
M  V30 13366 H 1216.34 2.56286 -2.62132 0
M  V30 13367 H 1215.98 4.7892 -1.53768 0
M  V30 13368 H 1215.68 4.86727 -3.29197 0
M  V30 13369 H 1217.21 5.51482 -2.62107 0
M  V30 13370 H 1218.62 3.89153 -4.2099 0
M  V30 13371 H 1217.02 3.4825 -4.88715 0
M  V30 13372 H 1218.09 2.18359 -4.32952 0
M  V30 13373 N 1219.43 1.33438 0.838571 0
M  V30 13374 C 1220.4 1.23632 1.92997 0
M  V30 13375 C 1221.4 0.155302 1.60048 0
M  V30 13376 O 1222.59 0.406852 1.69382 0
M  V30 13377 C 1219.72 0.90512 3.28665 0
M  V30 13378 H 1220.91 2.20643 2.03117 0
M  V30 13379 H 1218.46 1.17501 1.03069 0
M  V30 13380 H 1219.2 -0.0624833 3.2424 0
M  V30 13381 H 1218.98 1.68688 3.53959 0
M  V30 13382 H 1220.47 0.861262 4.08622 0
M  V30 13383 N 1220.91 -1.05686 1.16912 0
M  V30 13384 C 1222.14 -1.82282 0.978811 0
M  V30 13385 C 1222.55 -1.8278 -0.472972 0
M  V30 13386 O 1221.91 -1.25143 -1.32836 0
M  V30 13387 C 1221.96 -3.28623 1.50629 0
M  V30 13388 O 1221.68 -3.28269 2.90122 0
M  V30 13389 C 1223.18 -4.21927 1.35987 0
M  V30 13390 H 1220.4 -0.574558 0.346588 0
M  V30 13391 H 1222.95 -1.33301 1.55084 0
M  V30 13392 H 1221.1 -3.74893 0.976404 0
M  V30 13393 H 1221.52 -4.19824 3.14401 0
M  V30 13394 H 1222.99 -5.2261 1.77716 0
M  V30 13395 H 1223.47 -4.38131 0.30626 0
M  V30 13396 H 1224.07 -3.81508 1.87968 0
M  V30 13397 N 1222.39 -0.968567 -1.24324 0
M  V30 13398 C 1223.32 -0.444065 -2.23838 0
M  V30 13399 C 1224.3 0.482311 -1.55282 0
M  V30 13400 O 1225.48 0.413489 -1.83909 0
M  V30 13401 C 1222.61 0.358874 -3.36793 0
M  V30 13402 C 1221.66 -0.509913 -4.23441 0
M  V30 13403 S 1222.49 -1.95064 -4.98708 0
M  V30 13404 C 1223.65 -1.15652 -6.15122 0
M  V30 13405 H 1223.88 -1.28738 -2.67981 0
M  V30 13406 H 1221.41 -0.773665 -1.33618 0
M  V30 13407 H 1223.37 0.816164 -4.02305 0
M  V30 13408 H 1222.03 1.17717 -2.91207 0
M  V30 13409 H 1221.22 0.106617 -5.03887 0
M  V30 13410 H 1220.83 -0.902967 -3.62936 0
M  V30 13411 H 1223.12 -0.411966 -6.76246 0
M  V30 13412 H 1224.06 -1.93539 -6.81137 0
M  V30 13413 H 1224.47 -0.680507 -5.60383 0
M  V30 13414 N 1223.87 1.39211 -0.738786 0
M  V30 13415 C 1224.81 2.30578 -0.10129 0
M  V30 13416 C 1225.78 1.49412 0.725616 0
M  V30 13417 O 1226.97 1.78087 0.684799 0
M  V30 13418 C 1224.11 3.35767 0.797161 0
M  V30 13419 C 1223.22 4.31979 -0.0427701 0
M  V30 13420 C 1222.36 5.24236 0.857306 0
M  V30 13421 C 1221.4 6.12099 0.0128501 0
M  V30 13422 N 1220.53 6.96701 0.869067 0
M  V30 13423 H 1225.37 2.84522 -0.88606 0
M  V30 13424 H 1222.91 1.40093 -0.448602 0
M  V30 13425 H 1224.87 3.95347 1.33255 0
M  V30 13426 H 1223.5 2.83268 1.54787 0
M  V30 13427 H 1222.55 3.73986 -0.695622 0
M  V30 13428 H 1223.86 4.93927 -0.69555 0
M  V30 13429 H 1223.02 5.88861 1.4604 0
M  V30 13430 H 1221.75 4.62619 1.54386 0
M  V30 13431 H 1220.76 5.46483 -0.603018 0
M  V30 13432 H 1221.98 6.75781 -0.67054 0
M  V30 13433 H 1219.93 6.37647 1.54084 0
M  V30 13434 H 1219.85 7.55507 0.272852 0
M  V30 13435 H 1221.12 7.65751 1.4576 0
M  V30 13436 N 1225.34 0.486708 1.49896 0
M  V30 13437 C 1226.57 -0.0600816 2.06813 0
M  V30 13438 C 1226.99 -1.32112 1.34877 0
M  V30 13439 O 1226.34 -1.77537 0.422725 0
M  V30 13440 C 1226.4 -0.332266 3.5997 0
M  V30 13441 O 1226.12 0.878771 4.29196 0
M  V30 13442 C 1227.62 -0.924289 4.33557 0
M  V30 13443 H 1224.84 0.0140611 0.670853 0
M  V30 13444 H 1227.38 0.67997 1.92864 0
M  V30 13445 H 1225.54 -1.02227 3.73669 0
M  V30 13446 H 1225.95 0.632873 5.20668 0
M  V30 13447 H 1227.42 -1.06441 5.4164 0
M  V30 13448 H 1227.9 -1.91844 3.95085 0
M  V30 13449 H 1228.51 -0.272189 4.24428 0
M  V30 13450 N 1226.82 -1.56058 0.219941 0
M  V30 13451 C 1227.73 -2.23844 -0.70222 0
M  V30 13452 C 1228.75 -1.24554 -1.215 0
M  V30 13453 O 1229.93 -1.57362 -1.25695 0
M  V30 13454 C 1226.99 -2.90384 -1.89416 0
M  V30 13455 C 1226.05 -4.05012 -1.42351 0
M  V30 13456 C 1225.28 -4.68369 -2.55863 0
M  V30 13457 O 1225.51 -4.3071 -3.73958 0
M  V30 13458 O 1224.44 -5.5739 -2.27157 0
M  V30 13459 H 1228.27 -3.03305 -0.15478 0
M  V30 13460 H 1225.85 -1.49396 -0.010438 0
M  V30 13461 H 1227.73 -3.32389 -2.59028 0
M  V30 13462 H 1226.41 -2.13883 -2.42973 0
M  V30 13463 H 1225.32 -3.67579 -0.695448 0
M  V30 13464 H 1226.65 -4.83251 -0.934332 0
M  V30 13465 N 1228.3 0.053464 -1.57509 0
M  V30 13466 C 1229.23 1.06151 -2.07977 0
M  V30 13467 C 1230.21 1.3924 -0.977047 0
M  V30 13468 O 1231.4 1.48549 -1.25087 0
M  V30 13469 C 1228.53 2.36969 -2.53895 0
M  V30 13470 C 1227.48 2.18186 -3.6821 0
M  V30 13471 C 1226.81 3.54551 -4.00247 0
M  V30 13472 C 1228.11 1.588 -4.97574 0
M  V30 13473 H 1229.8 0.641483 -2.92447 0
M  V30 13474 H 1227.35 0.307122 -1.40687 0
M  V30 13475 H 1229.3 3.07797 -2.87817 0
M  V30 13476 H 1228.02 2.80986 -1.66476 0
M  V30 13477 H 1226.68 1.49796 -3.34599 0
M  V30 13478 H 1226.33 3.96171 -3.09932 0
M  V30 13479 H 1226.03 3.42816 -4.77232 0
M  V30 13480 H 1227.56 4.2678 -4.36682 0
M  V30 13481 H 1228.97 2.19515 -5.29609 0
M  V30 13482 H 1227.37 1.57711 -5.79006 0
M  V30 13483 H 1228.44 0.551254 -4.81756 0
M  V30 13484 N 1229.78 1.54207 0.325255 0
M  V30 13485 C 1230.71 1.79812 1.42128 0
M  V30 13486 C 1231.72 0.68003 1.47917 0
M  V30 13487 O 1232.91 0.957107 1.50671 0
M  V30 13488 C 1230.01 1.89935 2.80674 0
M  V30 13489 C 1229.19 3.20078 2.98108 0
M  V30 13490 C 1228.25 3.20924 4.17006 0
M  V30 13491 O 1227.27 3.94571 4.10247 0
M  V30 13492 N 1228.47 2.44588 5.26457 0
M  V30 13493 H 1231.24 2.74396 1.20527 0
M  V30 13494 H 1228.8 1.53483 0.515233 0
M  V30 13495 H 1230.79 1.8793 3.58419 0
M  V30 13496 H 1229.36 1.02455 2.95333 0
M  V30 13497 H 1228.58 3.35057 2.07679 0
M  V30 13498 H 1229.87 4.06008 3.06651 0
M  V30 13499 H 1229.27 1.8434 5.34823 0
M  V30 13500 H 1227.82 2.48363 6.02627 0
M  V30 13501 N 1231.26 -0.58723 1.46251 0
M  V30 13502 C 1232.2 -1.69662 1.56472 0
M  V30 13503 C 1233.17 -1.60978 0.409294 0
M  V30 13504 O 1234.36 -1.80257 0.625451 0
M  V30 13505 C 1231.5 -3.07996 1.55669 0
M  V30 13506 C 1230.61 -3.27337 2.81913 0
M  V30 13507 C 1229.75 -4.55894 2.72644 0
M  V30 13508 C 1228.79 -4.68562 3.93847 0
M  V30 13509 N 1227.92 -5.8844 3.82991 0
M  V30 13510 H 1232.76 -1.60262 2.51237 0
M  V30 13511 H 1230.3 -0.781148 1.24645 0
M  V30 13512 H 1232.26 -3.88058 1.53189 0
M  V30 13513 H 1230.89 -3.16303 0.6444 0
M  V30 13514 H 1229.94 -2.4091 2.94392 0
M  V30 13515 H 1231.25 -3.32567 3.71754 0
M  V30 13516 H 1230.41 -5.44178 2.68244 0
M  V30 13517 H 1229.15 -4.53094 1.80435 0
M  V30 13518 H 1228.15 -3.78696 3.98584 0
M  V30 13519 H 1229.38 -4.73144 4.87146 0
M  V30 13520 H 1227.32 -5.86647 2.93566 0
M  V30 13521 H 1227.24 -5.94919 4.66484 0
M  V30 13522 H 1228.51 -6.79168 3.82559 0
M  V30 13523 N 1232.74 -1.33881 -0.831482 0
M  V30 13524 C 1233.7 -1.24654 -1.92339 0
M  V30 13525 C 1234.7 -0.163788 -1.59964 0
M  V30 13526 O 1235.89 -0.415829 -1.69164 0
M  V30 13527 C 1233.02 -0.922537 -3.2818 0
M  V30 13528 H 1234.21 -2.21717 -2.01944 0
M  V30 13529 H 1231.77 -1.18046 -1.02445 0
M  V30 13530 H 1232.5 0.0452872 -3.24268 0
M  V30 13531 H 1232.29 -1.70562 -3.53059 0
M  V30 13532 H 1233.78 -0.88292 -4.0816 0
M  V30 13533 N 1234.21 1.05064 -1.1747 0
M  V30 13534 C 1235.15 2.12842 -0.850344 0
M  V30 13535 C 1236.16 1.62128 0.147796 0
M  V30 13536 O 1237.35 1.78327 -0.0786774 0
M  V30 13537 C 1234.45 3.37995 -0.247486 0
M  V30 13538 C 1233.62 4.17981 -1.28881 0
M  V30 13539 C 1232.68 5.21476 -0.703476 0
M  V30 13540 O 1231.71 5.52327 -1.37561 0
M  V30 13541 N 1232.91 5.78309 0.50387 0
M  V30 13542 H 1235.67 2.41264 -1.77797 0
M  V30 13543 H 1233.23 1.21172 -1.07373 0
M  V30 13544 H 1235.23 4.04394 0.157424 0
M  V30 13545 H 1233.8 3.07097 0.583952 0
M  V30 13546 H 1233.02 3.47054 -1.86942 0
M  V30 13547 H 1234.3 4.6822 -1.99116 0
M  V30 13548 H 1233.7 5.5553 1.06787 0
M  V30 13549 H 1232.26 6.46223 0.850828 0
M  V30 13550 N 1235.69 0.975146 1.23809 0
M  V30 13551 C 1236.62 0.469151 2.24347 0
M  V30 13552 C 1237.64 -0.426156 1.57123 0
M  V30 13553 O 1238.83 -0.231136 1.76997 0
M  V30 13554 C 1235.93 -0.34121 3.37178 0
M  V30 13555 C 1235.1 0.545968 4.33979 0
M  V30 13556 C 1234.16 -0.209648 5.25782 0
M  V30 13557 O 1233.18 0.398953 5.678 0
M  V30 13558 N 1234.39 -1.49713 5.60862 0
M  V30 13559 H 1237.15 1.33359 2.68394 0
M  V30 13560 H 1234.71 0.847814 1.37927 0
M  V30 13561 H 1236.7 -0.854924 3.95567 0
M  V30 13562 H 1235.27 -1.10663 2.92357 0
M  V30 13563 H 1234.49 1.24057 3.7417 0
M  V30 13564 H 1235.78 1.15077 4.95615 0
M  V30 13565 H 1235.18 -2.0132 5.28665 0
M  V30 13566 H 1233.74 -1.95639 6.21746 0
M  V30 13567 N 1237.17 -1.38817 0.746158 0
M  V30 13568 C 1238.42 -1.99519 0.295839 0
M  V30 13569 C 1238.73 -1.59897 -1.12661 0
M  V30 13570 O 1239.94 -2.13514 -1.67702 0
M  V30 13571 C 1238.39 -3.56712 0.477984 0
M  V30 13572 C 1238 -4.0529 1.90904 0
M  V30 13573 C 1239.75 -4.24405 0.0900039 0
M  V30 13574 C 1237.65 -5.55097 2.04014 0
M  V30 13575 H 1236.58 -0.746389 0.106861 0
M  V30 13576 H 1239.23 -1.58676 0.921637 0
M  V30 13577 H 1237.62 -3.95406 -0.216884 0
M  V30 13578 H 1238.79 -3.77904 2.63677 0
M  V30 13579 H 1237.1 -3.50297 2.25125 0
M  V30 13580 H 1239.7 -5.3444 0.16682 0
M  V30 13581 H 1240.04 -4.05166 -0.956349 0
M  V30 13582 H 1240.58 -3.90924 0.736446 0
M  V30 13583 H 1237.32 -5.7923 3.06877 0
M  V30 13584 H 1236.84 -5.8425 1.35692 0
M  V30 13585 H 1238.52 -6.20682 1.82656 0
M  V30 13586 N 1238.65 -0.49465 -1.49636 0
M  V30 13587 C 1239.6 0.306278 -2.25933 0
M  V30 13588 C 1240.58 0.941082 -1.30508 0
M  V30 13589 O 1241.77 0.849732 -1.55269 0
M  V30 13590 C 1238.9 1.3739 -3.14609 0
M  V30 13591 C 1237.99 0.745657 -4.17493 0
M  V30 13592 N 1238.38 -0.147977 -5.05583 0
M  V30 13593 C 1236.68 1.00696 -4.34484 0
M  V30 13594 C 1237.38 -0.506949 -5.79487 0
M  V30 13595 N 1236.35 0.123603 -5.43459 0
M  V30 13596 H 1240.16 -0.381753 -2.9141 0
M  V30 13597 H 1237.67 -0.310311 -1.59408 0
M  V30 13598 H 1239.67 1.96108 -3.67896 0
M  V30 13599 H 1238.33 2.06368 -2.50684 0
M  V30 13600 H 1239.34 -0.518378 -5.15299 0
M  V30 13601 H 1236.02 1.68996 -3.81768 0
M  V30 13602 H 1237.41 -1.23766 -6.60403 0
M  V30 13603 N 1240.13 1.55939 -0.228214 0
M  V30 13604 C 1241.35 2.0332 0.409364 0
M  V30 13605 C 1241.78 1.10683 1.52088 0
M  V30 13606 O 1241.13 0.0962484 1.81044 0
M  V30 13607 C 1241.18 3.48877 0.911981 0
M  V30 13608 O 1240.29 3.59378 2.02289 0
M  V30 13609 H 1239.63 0.657625 0.0917909 0
M  V30 13610 H 1242.16 2.01605 -0.348802 0
M  V30 13611 H 1242.17 3.89331 1.22007 0
M  V30 13612 H 1240.84 4.15783 0.0984902 0
M  V30 13613 H 1239.42 3.30815 1.72093 0
M  V30 13614 N 1241.6 -0.0451101 1.57535 0
M  V30 13615 C 1242.54 -1.07792 2.02271 0
M  V30 13616 C 1243.55 -1.33423 0.932854 0
M  V30 13617 O 1244.74 -1.31193 1.2104 0
M  V30 13618 C 1241.84 -2.42314 2.36933 0
M  V30 13619 C 1241.01 -2.36266 3.68099 0
M  V30 13620 C 1240.07 -3.53108 3.9013 0
M  V30 13621 O 1239.1 -3.33327 4.61391 0
M  V30 13622 N 1240.3 -4.74415 3.3453 0
M  V30 13623 H 1243.06 -0.696744 2.91489 0
M  V30 13624 H 1240.62 -0.233336 1.6021 0
M  V30 13625 H 1242.62 -3.19171 2.48821 0
M  V30 13626 H 1241.19 -2.72335 1.53468 0
M  V30 13627 H 1240.41 -1.44615 3.66715 0
M  V30 13628 H 1241.69 -2.29351 4.54175 0
M  V30 13629 H 1241.09 -4.93388 2.76739 0
M  V30 13630 H 1239.65 -5.48692 3.51825 0
M  V30 13631 N 1243.08 -1.54377 -0.317073 0
M  V30 13632 C 1244.31 -1.76865 -1.07362 0
M  V30 13633 C 1244.73 -0.520354 -1.81488 0
M  V30 13634 O 1244.08 0.509213 -1.75252 0
M  V30 13635 C 1244.13 -2.96598 -2.06668 0
M  V30 13636 O 1243.85 -4.16602 -1.35552 0
M  V30 13637 C 1245.36 -3.31348 -2.94489 0
M  V30 13638 H 1242.58 -0.590277 -0.319083 0
M  V30 13639 H 1245.12 -2.01284 -0.361227 0
M  V30 13640 H 1243.27 -2.74433 -2.73432 0
M  V30 13641 H 1243.69 -4.83996 -2.02108 0
M  V30 13642 H 1245.16 -4.1841 -3.60051 0
M  V30 13643 H 1245.64 -2.48797 -3.61935 0
M  V30 13644 H 1246.25 -3.55614 -2.33278 0
M  V30 13645 N 1244.56 0.579466 -1.4656 0
M  V30 13646 C 1245.79 1.36837 -1.55854 0
M  V30 13647 C 1246.21 1.87019 -0.20141 0
M  V30 13648 O 1245.57 1.61746 0.81901 0
M  V30 13649 C 1245.62 2.52965 -2.56985 0
M  V30 13650 O 1244.72 3.54505 -2.10713 0
M  V30 13651 H 1244.06 0.407379 -0.524345 0
M  V30 13652 H 1246.59 0.702558 -1.9216 0
M  V30 13653 H 1246.6 2.99838 -2.76697 0
M  V30 13654 H 1245.28 2.15793 -3.55536 0
M  V30 13655 H 1243.85 3.14089 -2.01003 0
M  V30 13656 N 1246.04 1.3432 0.824371 0
M  V30 13657 C 1246.97 1.21619 1.94271 0
M  V30 13658 C 1247.98 0.143628 1.62165 0
M  V30 13659 O 1249.17 0.395353 1.74067 0
M  V30 13660 C 1246.27 0.846128 3.28167 0
M  V30 13661 C 1245.45 2.01337 3.88307 0
M  V30 13662 C 1244.5 1.62194 5.00579 0
M  V30 13663 O 1243.53 2.33831 5.18953 0
M  V30 13664 N 1244.73 0.535262 5.78027 0
M  V30 13665 H 1247.5 2.17963 2.05699 0
M  V30 13666 H 1245.06 1.27256 1.00088 0
M  V30 13667 H 1247.05 0.566086 4.00721 0
M  V30 13668 H 1245.62 -0.0270764 3.12588 0
M  V30 13669 H 1244.84 2.45823 3.08164 0
M  V30 13670 H 1246.13 2.79404 4.25219 0
M  V30 13671 H 1245.53 -0.0603126 5.65668 0
M  V30 13672 H 1244.08 0.314946 6.51039 0
M  V30 13673 N 1247.52 -1.0444 1.18026 0
M  V30 13674 C 1248.45 -2.12388 0.86162 0
M  V30 13675 C 1249.46 -1.62204 -0.139196 0
M  V30 13676 O 1250.65 -1.78282 0.0881334 0
M  V30 13677 C 1247.75 -3.37859 0.265407 0
M  V30 13678 C 1246.92 -4.17292 1.31096 0
M  V30 13679 C 1245.98 -5.21096 0.731121 0
M  V30 13680 O 1245.01 -5.5159 1.40488 0
M  V30 13681 N 1246.21 -5.78568 -0.473194 0
M  V30 13682 H 1248.98 -2.40317 1.79074 0
M  V30 13683 H 1246.54 -1.20601 1.08014 0
M  V30 13684 H 1248.53 -4.04472 -0.135976 0
M  V30 13685 H 1247.1 -3.07403 -0.567658 0
M  V30 13686 H 1246.32 -3.46057 1.8878 0
M  V30 13687 H 1247.61 -4.67158 2.01596 0
M  V30 13688 H 1247 -5.56088 -1.03839 0
M  V30 13689 H 1245.56 -6.46665 -0.816545 0
M  V30 13690 N 1248.99 -0.981699 -1.2329 0
M  V30 13691 C 1250.22 -0.668399 -1.95489 0
M  V30 13692 C 1250.63 0.768976 -1.72868 0
M  V30 13693 O 1249.98 1.52925 -1.01783 0
M  V30 13694 C 1250.04 -0.880535 -3.4855 0
M  V30 13695 C 1249.7 -2.30023 -3.9489 0
M  V30 13696 C 1250.7 -3.27899 -4.03458 0
M  V30 13697 C 1248.38 -2.63167 -4.27842 0
M  V30 13698 C 1250.38 -4.56999 -4.44332 0
M  V30 13699 C 1248.06 -3.92489 -4.68397 0
M  V30 13700 C 1249.06 -4.89216 -4.76609 0
M  V30 13701 O 1248.75 -6.16229 -5.16253 0
M  V30 13702 H 1248.48 -0.247255 -0.629159 0
M  V30 13703 H 1251.04 -1.31606 -1.57699 0
M  V30 13704 H 1249.27 -0.175698 -3.86301 0
M  V30 13705 H 1250.96 -0.564198 -4.0196 0
M  V30 13706 H 1251.72 -3.03624 -3.78203 0
M  V30 13707 H 1247.6 -1.88588 -4.20661 0
M  V30 13708 H 1251.14 -5.32498 -4.50656 0
M  V30 13709 H 1247.04 -4.16558 -4.93102 0
M  V30 13710 H 1247.81 -6.20001 -5.34361 0
M  V30 13711 N 1250.47 1.3842 -0.753509 0
M  V30 13712 C 1251.88 1.82847 -0.377331 0
M  V30 13713 C 1252.23 1.62867 1.09401 0
M  V30 13714 O 1251.36 1.12981 1.84565 0
M  V30 13715 C 1251.95 3.31945 -0.678095 0
M  V30 13716 C 1250.51 3.7472 -0.355196 0
M  V30 13717 C 1249.66 2.61193 -0.931311 0
M  V30 13718 H 1252.61 1.2715 -0.949667 0
M  V30 13719 H 1252.63 3.80475 0.0437292 0
M  V30 13720 H 1252.14 3.46455 -1.74902 0
M  V30 13721 H 1250.25 3.65789 0.70915 0
M  V30 13722 H 1250.36 4.71487 -0.850693 0
M  V30 13723 H 1248.72 2.5219 -0.356695 0
M  V30 13724 H 1249.51 2.78503 -2.00727 0
M  V30 13725 N 1251.95 0.502579 1.49372 0
M  V30 13726 C 1252.88 -0.264307 2.31999 0
M  V30 13727 C 1253.86 -0.96107 1.40348 0
M  V30 13728 O 1255.05 -0.952167 1.69255 0
M  V30 13729 C 1252.18 -1.32822 3.20898 0
M  V30 13730 C 1251.13 -0.751236 4.21355 0
M  V30 13731 C 1250.46 -1.91578 4.99201 0
M  V30 13732 C 1251.76 0.258764 5.21659 0
M  V30 13733 H 1253.45 0.425391 2.96363 0
M  V30 13734 H 1251 0.206022 1.42519 0
M  V30 13735 H 1252.95 -1.87245 3.77515 0
M  V30 13736 H 1251.67 -2.04712 2.54481 0
M  V30 13737 H 1250.33 -0.228743 3.65886 0
M  V30 13738 H 1249.98 -2.62241 4.2923 0
M  V30 13739 H 1249.68 -1.53578 5.67175 0
M  V30 13740 H 1251.2 -2.46432 5.58663 0
M  V30 13741 H 1252.62 -0.197385 5.7296 0
M  V30 13742 H 1251.02 0.554681 5.97531 0
M  V30 13743 H 1252.09 1.1741 4.70471 0
M  V30 13744 N 1253.43 -1.55816 0.23648 0
M  V30 13745 C 1254.66 -2.02789 -0.39501 0
M  V30 13746 C 1255.07 -1.1153 -1.52832 0
M  V30 13747 O 1254.41 -0.120084 -1.83307 0
M  V30 13748 C 1254.47 -3.46052 -0.974066 0
M  V30 13749 C 1254.14 -4.56993 0.0256825 0
M  V30 13750 C 1255.13 -5.13208 0.831477 0
M  V30 13751 C 1252.82 -5.0208 0.148759 0
M  V30 13752 C 1254.81 -6.12994 1.74691 0
M  V30 13753 C 1252.5 -6.017 1.0677 0
M  V30 13754 C 1253.5 -6.57035 1.86531 0
M  V30 13755 O 1253.18 -7.54714 2.76878 0
M  V30 13756 H 1252.92 -0.668672 -0.0992687 0
M  V30 13757 H 1255.47 -2.02312 0.354826 0
M  V30 13758 H 1253.7 -3.43645 -1.77327 0
M  V30 13759 H 1255.39 -3.76586 -1.51453 0
M  V30 13760 H 1256.16 -4.79214 0.746922 0
M  V30 13761 H 1252.03 -4.58679 -0.461976 0
M  V30 13762 H 1255.58 -6.56111 2.36989 0
M  V30 13763 H 1251.48 -6.35115 1.15322 0
M  V30 13764 H 1252.24 -7.72292 2.71122 0
M  V30 13765 N 1254.91 0.036755 -1.57557 0
M  V30 13766 C 1256.18 0.764087 -1.80059 0
M  V30 13767 C 1256.56 1.93983 -0.83269 0
M  V30 13768 O 1255.91 2.28148 0.126815 0
M  V30 13769 C 1256.12 1.20433 -3.27562 0
M  V30 13770 C 1257.47 1.6234 -3.9234 0
M  V30 13771 O 1258.49 1.29911 -3.31665 0
M  V30 13772 O 1257.35 2.22504 -4.99154 0
M  V30 13773 H 1254.45 0.368866 -0.74018 0
M  V30 13774 H 1256.99 0.0141254 -1.69694 0
M  V30 13775 H 1255.76 0.364646 -3.89597 0
M  V30 13776 H 1255.39 2.01454 -3.42786 0
M  V30 13777 N 1256.39 1.54543 0.308881 0
M  V30 13778 C 1257.32 1.87947 1.38557 0
M  V30 13779 C 1258.3 0.737622 1.53275 0
M  V30 13780 O 1259.48 0.992664 1.66913 0
M  V30 13781 C 1256.61 2.11982 2.75102 0
M  V30 13782 C 1255.57 3.2783 2.75158 0
M  V30 13783 C 1254.89 3.37266 4.14917 0
M  V30 13784 C 1256.19 4.65129 2.37598 0
M  V30 13785 H 1257.89 2.78123 1.1085 0
M  V30 13786 H 1255.43 1.3382 0.531808 0
M  V30 13787 H 1257.38 2.33935 3.50503 0
M  V30 13788 H 1256.11 1.18569 3.04317 0
M  V30 13789 H 1254.77 3.05787 2.02212 0
M  V30 13790 H 1254.42 2.41384 4.41296 0
M  V30 13791 H 1254.12 4.15135 4.15857 0
M  V30 13792 H 1255.64 3.61471 4.92109 0
M  V30 13793 H 1257.05 4.86865 3.02714 0
M  V30 13794 H 1255.45 5.45653 2.49765 0
M  V30 13795 H 1256.52 4.6638 1.32731 0
M  V30 13796 N 1257.86 -0.571685 1.46866 0
M  V30 13797 C 1259.14 -1.33216 1.43223 0
M  V30 13798 C 1259.52 -2.1075 0.121495 0
M  V30 13799 O 1258.87 -2.10157 -0.897003 0
M  V30 13800 C 1259.08 -2.24888 2.66882 0
M  V30 13801 C 1260.43 -2.86369 3.13493 0
M  V30 13802 O 1261.45 -2.35197 2.67509 0
M  V30 13803 O 1260.31 -3.79342 3.93398 0
M  V30 13804 H 1257.4 -0.599106 0.570089 0
M  V30 13805 H 1259.95 -0.591788 1.59047 0
M  V30 13806 H 1258.72 -1.67099 3.53827 0
M  V30 13807 H 1258.34 -3.06246 2.53573 0
M  V30 13808 N 1259.34 -1.34755 -0.817236 0
M  V30 13809 C 1260.27 -1.29452 -1.94331 0
M  V30 13810 C 1261.25 -0.170902 -1.69239 0
M  V30 13811 O 1262.44 -0.364173 -1.90755 0
M  V30 13812 C 1259.57 -1.05497 -3.30889 0
M  V30 13813 C 1258.52 -2.14386 -3.70436 0
M  V30 13814 C 1257.85 -1.75612 -5.05039 0
M  V30 13815 C 1259.15 -3.56265 -3.81933 0
M  V30 13816 H 1260.84 -2.23672 -1.99025 0
M  V30 13817 H 1258.39 -1.07674 -0.956159 0
M  V30 13818 H 1260.34 -1.0043 -4.09257 0
M  V30 13819 H 1259.06 -0.0772059 -3.26509 0
M  V30 13820 H 1257.72 -2.18532 -2.94345 0
M  V30 13821 H 1257.37 -0.764809 -4.97152 0
M  V30 13822 H 1257.07 -2.48495 -5.3247 0
M  V30 13823 H 1258.6 -1.72051 -5.85859 0
M  V30 13824 H 1260.01 -3.545 -4.50558 0
M  V30 13825 H 1258.41 -4.27818 -4.20822 0
M  V30 13826 H 1259.48 -3.93192 -2.83775 0
M  V30 13827 N 1260.82 1.03812 -1.18578 0
M  V30 13828 C 1262.07 1.76706 -0.980776 0
M  V30 13829 C 1262.39 1.88729 0.490562 0
M  V30 13830 O 1261.66 1.41413 1.35569 0
M  V30 13831 H 1260.24 0.654586 -0.359898 0
M  V30 13832 H 1262.9 1.25274 -1.49306 0
M  V30 13833 H 1262 2.77876 -1.42096 0
M  V30 13834 N 1262.3 0.988223 1.22768 0
M  V30 13835 C 1263.24 0.534605 2.24523 0
M  V30 13836 C 1264.21 -0.430615 1.60421 0
M  V30 13837 O 1265.4 -0.336417 1.87811 0
M  V30 13838 C 1262.54 -0.149195 3.44777 0
M  V30 13839 C 1261.65 0.85721 4.2341 0
M  V30 13840 C 1260.79 0.147411 5.30995 0
M  V30 13841 C 1259.83 1.1425 6.01343 0
M  V30 13842 N 1258.96 0.461327 7.00583 0
M  V30 13843 H 1263.8 1.40708 2.62689 0
M  V30 13844 H 1261.34 0.704918 1.2911 0
M  V30 13845 H 1263.3 -0.562527 4.1339 0
M  V30 13846 H 1261.93 -0.985485 3.07389 0
M  V30 13847 H 1260.98 1.38889 3.54138 0
M  V30 13848 H 1262.29 1.61517 4.71926 0
M  V30 13849 H 1261.45 -0.32289 6.0584 0
M  V30 13850 H 1260.19 -0.643085 4.83442 0
M  V30 13851 H 1259.19 1.62348 5.25284 0
M  V30 13852 H 1260.42 1.93379 6.50985 0
M  V30 13853 H 1258.36 -0.309818 6.55268 0
M  V30 13854 H 1258.28 1.15781 7.47082 0
M  V30 13855 H 1259.55 0.0136734 7.79499 0
M  V30 13856 N 1263.78 -1.38018 0.760839 0
M  V30 13857 C 1265.02 -1.99952 0.320241 0
M  V30 13858 C 1265.35 -1.60397 -1.10014 0
M  V30 13859 O 1264.61 -0.836407 -1.76926 0
M  V30 13860 C 1264.9 -3.55168 0.398778 0
M  V30 13861 C 1264.57 -4.14457 1.77585 0
M  V30 13862 C 1263.23 -4.30363 2.15269 0
M  V30 13863 C 1265.58 -4.47089 2.67883 0
M  V30 13864 C 1262.91 -4.762 3.4271 0
M  V30 13865 C 1265.26 -4.94345 3.94722 0
M  V30 13866 C 1263.93 -5.08458 4.32466 0
M  V30 13867 H 1263.2 -0.731675 0.117185 0
M  V30 13868 H 1265.85 -1.64955 0.972736 0
M  V30 13869 H 1264.15 -3.90346 -0.337273 0
M  V30 13870 H 1265.85 -4.00981 0.0393393 0
M  V30 13871 H 1262.44 -4.02496 1.47292 0
M  V30 13872 H 1266.62 -4.34395 2.40031 0
M  V30 13873 H 1261.88 -4.85312 3.71863 0
M  V30 13874 H 1266.05 -5.18563 4.64828 0
M  V30 13875 H 1263.68 -5.43735 5.31278 0
M  V30 13876 N 1265.25 -0.510493 -1.49103 0
M  V30 13877 C 1266.5 0.0305831 -2.02077 0
M  V30 13878 C 1266.82 1.36602 -1.39157 0
M  V30 13879 O 1266.09 1.88016 -0.550154 0
M  V30 13880 H 1264.67 0.0142916 -0.746863 0
M  V30 13881 H 1267.33 -0.669895 -1.83026 0
M  V30 13882 H 1266.43 0.153283 -3.11723 0
M  V30 13883 N 1266.73 1.55688 -0.24474 0
M  V30 13884 C 1267.64 2.24933 0.666519 0
M  V30 13885 C 1268.66 1.26471 1.19503 0
M  V30 13886 O 1269.83 1.59342 1.23176 0
M  V30 13887 C 1266.9 2.9336 1.84772 0
M  V30 13888 C 1265.96 4.07225 1.35889 0
M  V30 13889 C 1265.19 4.72381 2.48379 0
M  V30 13890 O 1265.42 4.36605 3.67059 0
M  V30 13891 O 1264.35 5.60933 2.18261 0
M  V30 13892 H 1268.18 3.03513 0.106507 0
M  V30 13893 H 1265.76 1.49394 -0.0133309 0
M  V30 13894 H 1267.64 3.36468 2.53708 0
M  V30 13895 H 1266.32 2.17721 2.39539 0
M  V30 13896 H 1265.22 3.68639 0.636881 0
M  V30 13897 H 1266.56 4.84676 0.857333 0
M  V30 13898 N 1268.21 -0.0283989 1.57574 0
M  V30 13899 C 1269.16 -1.02881 2.06601 0
M  V30 13900 C 1270.13 -1.35879 0.955308 0
M  V30 13901 O 1271.31 -1.46205 1.22592 0
M  V30 13902 C 1268.45 -2.32447 2.55073 0
M  V30 13903 C 1267.56 -2.05602 3.79937 0
M  V30 13904 C 1266.7 -3.29043 4.17018 0
M  V30 13905 C 1265.74 -2.97755 5.34797 0
M  V30 13906 N 1264.88 -4.1365 5.67308 0
M  V30 13907 H 1269.72 -0.603772 2.91819 0
M  V30 13908 H 1267.25 -0.286503 1.44283 0
M  V30 13909 H 1269.21 -3.08152 2.81244 0
M  V30 13910 H 1267.84 -2.72672 1.72771 0
M  V30 13911 H 1266.89 -1.2039 3.60847 0
M  V30 13912 H 1268.2 -1.78522 4.65759 0
M  V30 13913 H 1267.36 -4.13115 4.4432 0
M  V30 13914 H 1266.1 -3.59237 3.29849 0
M  V30 13915 H 1265.1 -2.12085 5.07247 0
M  V30 13916 H 1266.33 -2.68839 6.23621 0
M  V30 13917 H 1264.27 -4.43794 4.83097 0
M  V30 13918 H 1264.19 -3.89996 6.47641 0
M  V30 13919 H 1265.46 -4.98594 5.99186 0
M  V30 13920 N 1269.69 -1.54705 -0.300681 0
M  V30 13921 C 1270.93 -1.74259 -1.03738 0
M  V30 13922 C 1271.27 -0.52703 -1.86912 0
M  V30 13923 O 1270.54 0.475862 -1.88589 0
M  V30 13924 C 1270.82 -3.03175 -1.94311 0
M  V30 13925 C 1270.68 -4.35031 -1.14315 0
M  V30 13926 C 1272 -3.27962 -2.93478 0
M  V30 13927 H 1269.12 -0.634031 -0.37573 0
M  V30 13928 H 1271.76 -1.87421 -0.312012 0
M  V30 13929 H 1269.91 -2.92086 -2.5616 0
M  V30 13930 H 1271.58 -4.5804 -0.547489 0
M  V30 13931 H 1269.82 -4.31503 -0.44587 0
M  V30 13932 H 1270.49 -5.21502 -1.80941 0
M  V30 13933 H 1272.97 -3.38663 -2.41757 0
M  V30 13934 H 1271.85 -4.19481 -3.54016 0
M  V30 13935 H 1272.11 -2.46273 -3.67154 0
M  V30 13936 N 1271.17 0.563888 -1.47167 0
M  V30 13937 C 1272.39 1.34693 -1.57052 0
M  V30 13938 C 1272.81 1.87534 -0.218308 0
M  V30 13939 O 1272.17 1.64639 0.787416 0
M  V30 13940 C 1272.22 2.52148 -2.59044 0
M  V30 13941 O 1271.94 2.01492 -3.89015 0
M  V30 13942 C 1273.44 3.4445 -2.7905 0
M  V30 13943 H 1270.66 0.410822 -0.530534 0
M  V30 13944 H 1273.2 0.683731 -1.92731 0
M  V30 13945 H 1271.36 3.14419 -2.26317 0
M  V30 13946 H 1271.77 2.78122 -4.44689 0
M  V30 13947 H 1273.25 4.23297 -3.54293 0
M  V30 13948 H 1273.72 3.97575 -1.86631 0
M  V30 13949 H 1274.33 2.88 -3.12948 0
M  V30 13950 N 1272.64 1.35187 0.810078 0
M  V30 13951 C 1273.58 1.23673 1.92971 0
M  V30 13952 C 1274.59 0.160819 1.62004 0
M  V30 13953 O 1275.78 0.413793 1.73638 0
M  V30 13954 C 1272.88 0.880887 3.27252 0
M  V30 13955 C 1272.05 2.05444 3.86149 0
M  V30 13956 C 1271.11 1.67494 4.98831 0
M  V30 13957 O 1270.14 2.39322 5.16443 0
M  V30 13958 N 1271.34 0.596539 5.77427 0
M  V30 13959 H 1274.1 2.20133 2.03376 0
M  V30 13960 H 1271.66 1.2831 0.987322 0
M  V30 13961 H 1273.66 0.608556 4.00098 0
M  V30 13962 H 1272.23 0.00607926 3.12599 0
M  V30 13963 H 1271.45 2.49077 3.05539 0
M  V30 13964 H 1272.73 2.83898 4.22231 0
M  V30 13965 H 1272.13 -0.000312591 5.657 0
M  V30 13966 H 1270.69 0.383979 6.50668 0
M  V30 13967 N 1274.12 -1.03182 1.19127 0
M  V30 13968 C 1275.05 -2.13301 0.94999 0
M  V30 13969 C 1276.03 -1.69707 -0.115577 0
M  V30 13970 O 1277.22 -1.94161 0.0388395 0
M  V30 13971 C 1274.35 -3.43902 0.484637 0
M  V30 13972 C 1273.3 -4.01164 1.4917 0
M  V30 13973 C 1272.63 -5.2735 0.883537 0
M  V30 13974 C 1273.93 -4.36311 2.87107 0
M  V30 13975 H 1275.62 -2.33743 1.87095 0
M  V30 13976 H 1273.17 -1.12332 0.900977 0
M  V30 13977 H 1275.12 -4.20308 0.30315 0
M  V30 13978 H 1273.85 -3.23173 -0.471909 0
M  V30 13979 H 1272.5 -3.26849 1.66028 0
M  V30 13980 H 1272.15 -5.02936 -0.0804712 0
M  V30 13981 H 1271.85 -5.66624 1.55599 0
M  V30 13982 H 1273.38 -6.06425 0.71278 0
M  V30 13983 H 1274.79 -5.03666 2.73848 0
M  V30 13984 H 1273.19 -4.86659 3.51117 0
M  V30 13985 H 1274.26 -3.45743 3.39985 0
M  V30 13986 N 1275.6 -0.99472 -1.22242 0
M  V30 13987 C 1276.83 -0.690097 -1.95052 0
M  V30 13988 C 1277.24 0.745543 -1.73456 0
M  V30 13989 O 1276.6 1.50329 -1.03477 0
M  V30 13990 C 1276.65 -0.988798 -3.47714 0
M  V30 13991 O 1276.37 -2.36803 -3.68587 0
M  V30 13992 C 1277.87 -0.702132 -4.37704 0
M  V30 13993 H 1275.09 -0.255142 -0.620599 0
M  V30 13994 H 1277.64 -1.32998 -1.55344 0
M  V30 13995 H 1275.79 -0.394684 -3.85384 0
M  V30 13996 H 1276.21 -2.4687 -4.62769 0
M  V30 13997 H 1277.68 -0.961389 -5.43564 0
M  V30 13998 H 1278.16 0.363866 -4.3769 0
M  V30 13999 H 1278.76 -1.27738 -4.05664 0
M  V30 14000 N 1277.08 1.37613 -0.768148 0
M  V30 14001 C 1278.36 1.93921 -0.255724 0
M  V30 14002 C 1278.74 1.70215 1.2486 0
M  V30 14003 O 1278.08 1.0489 2.03003 0
M  V30 14004 C 1278.29 3.43354 -0.625204 0
M  V30 14005 C 1279.64 4.20439 -0.592978 0
M  V30 14006 O 1280.67 3.51701 -0.564375 0
M  V30 14007 O 1279.52 5.43008 -0.616849 0
M  V30 14008 H 1276.62 0.824968 -0.0579366 0
M  V30 14009 H 1279.16 1.46921 -0.849257 0
M  V30 14010 H 1277.94 3.54177 -1.66356 0
M  V30 14011 H 1277.56 3.976 -0.00442816 0
M  V30 14012 N 1278.56 0.518393 1.4883 0
M  V30 14013 C 1279.97 0.175476 1.58632 0
M  V30 14014 C 1280.17 -1.32081 1.52174 0
M  V30 14015 O 1279.23 -2.09817 1.40474 0
M  V30 14016 C 1280.54 0.767722 2.90734 0
M  V30 14017 C 1282.09 0.735402 3.04238 0
M  V30 14018 C 1282.56 1.30602 4.38984 0
M  V30 14019 N 1284.06 1.26748 4.45521 0
M  V30 14020 C 1284.79 1.679 5.48267 0
M  V30 14021 N 1284.29 2.16728 6.58028 0
M  V30 14022 N 1286.08 1.59209 5.39082 0
M  V30 14023 H 1278.23 1.491 1.51271 0
M  V30 14024 H 1280.49 0.619497 0.717584 0
M  V30 14025 H 1280.2 1.81777 3.01081 0
M  V30 14026 H 1280.07 0.238119 3.76448 0
M  V30 14027 H 1282.46 -0.305852 2.93511 0
M  V30 14028 H 1282.54 1.30235 2.20165 0
M  V30 14029 H 1282.19 2.34614 4.50465 0
M  V30 14030 H 1282.12 0.714858 5.21725 0
M  V30 14031 H 1284.61 0.90991 3.66782 0
M  V30 14032 H 1284.92 2.46154 7.32549 0
M  V30 14033 H 1283.26 2.20714 6.59022 0
M  V30 14034 H 1286.46 1.20869 4.52226 0
M  V30 14035 H 1286.63 1.91602 6.19025 0
M  V30 14036 N 1280.03 -1.55556 0.252993 0
M  V30 14037 C 1281.28 -2.00122 -0.363693 0
M  V30 14038 C 1281.64 -1.13821 -1.55121 0
M  V30 14039 O 1280.93 -0.195137 -1.90604 0
M  V30 14040 C 1281.12 -3.47925 -0.817484 0
M  V30 14041 C 1280.95 -4.48528 0.32452 0
M  V30 14042 C 1279.72 -4.98908 0.801175 0
M  V30 14043 C 1281.92 -5.01196 1.15358 0
M  V30 14044 N 1279.9 -5.83269 1.91495 0
M  V30 14045 C 1281.27 -5.82787 2.11563 0
M  V30 14046 C 1283.33 -4.83484 1.18945 0
M  V30 14047 C 1282.03 -6.48557 3.11073 0
M  V30 14048 C 1284.06 -5.50036 2.17288 0
M  V30 14049 C 1283.42 -6.31421 3.12229 0
M  V30 14050 H 1279.52 -0.775724 -0.0988716 0
M  V30 14051 H 1282.1 -1.91114 0.371964 0
M  V30 14052 H 1280.27 -3.57319 -1.52242 0
M  V30 14053 H 1282 -3.79357 -1.40963 0
M  V30 14054 H 1278.76 -4.72039 0.384265 0
M  V30 14055 H 1279.18 -6.30145 2.47479 0
M  V30 14056 H 1283.83 -4.20187 0.469296 0
M  V30 14057 H 1281.54 -7.11016 3.84034 0
M  V30 14058 H 1285.13 -5.38283 2.20777 0
M  V30 14059 H 1284.01 -6.82009 3.87083 0
M  V30 14060 N 1281.51 0.0200419 -1.57587 0
M  V30 14061 C 1282.44 1.0456 -2.0396 0
M  V30 14062 C 1283.46 1.31922 -0.953962 0
M  V30 14063 O 1284.65 1.2925 -1.23112 0
M  V30 14064 C 1281.75 2.38514 -2.40758 0
M  V30 14065 C 1280.92 2.3038 -3.71812 0
M  V30 14066 C 1279.98 3.46856 -3.95698 0
M  V30 14067 O 1279 3.25944 -4.66636 0
M  V30 14068 N 1280.21 4.69033 -3.42036 0
M  V30 14069 H 1282.97 0.650282 -2.9256 0
M  V30 14070 H 1280.53 0.207818 -1.60561 0
M  V30 14071 H 1282.52 3.15172 -2.53868 0
M  V30 14072 H 1281.09 2.69859 -1.57781 0
M  V30 14073 H 1280.31 1.38762 -3.6897 0
M  V30 14074 H 1281.6 2.22097 -4.57767 0
M  V30 14075 H 1281 4.88923 -2.84553 0
M  V30 14076 H 1279.56 5.43025 -3.6051 0
M  V30 14077 N 1282.99 1.54862 0.292472 0
M  V30 14078 C 1284.41 1.46267 0.638611 0
M  V30 14079 C 1284.61 0.660824 1.90356 0
M  V30 14080 O 1283.66 0.171909 2.51914 0
M  V30 14081 C 1284.98 2.90309 0.783675 0
M  V30 14082 C 1286.52 3.00404 0.879004 0
M  V30 14083 C 1287 4.4566 1.056 0
M  V30 14084 N 1288.49 4.49406 1.122 0
M  V30 14085 C 1289.22 5.5899 1.2774 0
M  V30 14086 N 1288.72 6.78482 1.40123 0
M  V30 14087 N 1290.51 5.46695 1.30696 0
M  V30 14088 H 1282.66 2.0546 -0.538521 0
M  V30 14089 H 1284.93 0.930879 -0.179354 0
M  V30 14090 H 1284.63 3.5162 -0.0750437 0
M  V30 14091 H 1284.51 3.38215 1.67004 0
M  V30 14092 H 1286.89 2.39201 1.7282 0
M  V30 14093 H 1286.98 2.55781 -0.0315624 0
M  V30 14094 H 1286.62 5.07459 0.211535 0
M  V30 14095 H 1286.55 4.87921 1.98092 0
M  V30 14096 H 1289.04 3.63322 1.03948 0
M  V30 14097 H 1289.35 7.57752 1.5176 0
M  V30 14098 H 1287.7 6.81331 1.37163 0
M  V30 14099 H 1290.89 4.52288 1.20638 0
M  V30 14100 H 1291.06 6.32146 1.42463 0
M  V30 14101 N 1284.47 -0.556076 1.47464 0
M  V30 14102 C 1285.72 -1.30955 1.53407 0
M  V30 14103 C 1286.03 -1.94559 0.201485 0
M  V30 14104 O 1287.24 -2.71144 0.138925 0
M  V30 14105 C 1285.69 -2.37476 2.70431 0
M  V30 14106 C 1285.3 -1.80057 4.10224 0
M  V30 14107 C 1287.04 -3.13997 2.85668 0
M  V30 14108 C 1284.95 -2.84365 5.18547 0
M  V30 14109 H 1283.88 -0.4924 0.571015 0
M  V30 14110 H 1286.53 -0.590459 1.73741 0
M  V30 14111 H 1284.91 -3.12304 2.43479 0
M  V30 14112 H 1286.09 -1.11593 4.47083 0
M  V30 14113 H 1284.4 -1.16116 3.99882 0
M  V30 14114 H 1287 -3.91892 3.63764 0
M  V30 14115 H 1287.34 -3.68253 1.94153 0
M  V30 14116 H 1287.88 -2.46281 3.12395 0
M  V30 14117 H 1284.62 -2.34963 6.11942 0
M  V30 14118 H 1284.14 -3.51235 4.86203 0
M  V30 14119 H 1285.81 -3.47836 5.45545 0
M  V30 14120 N 1285.95 -1.35615 -0.802897 0
M  V30 14121 C 1287.22 -1.19655 -1.54732 0
M  V30 14122 C 1287.6 0.222827 -2.09921 0
M  V30 14123 O 1286.95 1.2268 -1.92774 0
M  V30 14124 C 1287.16 -2.26761 -2.65293 0
M  V30 14125 C 1288.51 -2.62754 -3.33535 0
M  V30 14126 O 1289.53 -2.25702 -2.75567 0
M  V30 14127 O 1288.39 -3.26476 -4.38264 0
M  V30 14128 H 1285.49 -0.465079 -0.683835 0
M  V30 14129 H 1288.03 -1.47307 -0.84254 0
M  V30 14130 H 1286.81 -3.21946 -2.22411 0
M  V30 14131 H 1286.43 -2.00399 -3.43404 0
M  V30 14132 N 1287.43 1.02549 -1.19673 0
M  V30 14133 C 1288.37 2.109 -0.937536 0
M  V30 14134 C 1289.34 1.65599 0.128923 0
M  V30 14135 O 1290.53 1.90795 -0.0139366 0
M  V30 14136 C 1287.67 3.4166 -0.48602 0
M  V30 14137 C 1286.78 4.0049 -1.61963 0
M  V30 14138 C 1285.92 5.19273 -1.11931 0
M  V30 14139 C 1284.95 5.70166 -2.22659 0
M  V30 14140 N 1284.09 6.80221 -1.73909 0
M  V30 14141 H 1288.93 2.32408 -1.86523 0
M  V30 14142 H 1286.47 1.13982 -0.929869 0
M  V30 14143 H 1288.43 4.16693 -0.205614 0
M  V30 14144 H 1287.06 3.20253 0.404678 0
M  V30 14145 H 1286.11 3.22638 -2.01516 0
M  V30 14146 H 1287.42 4.34273 -2.45374 0
M  V30 14147 H 1286.57 6.01478 -0.794336 0
M  V30 14148 H 1285.31 4.87033 -0.254972 0
M  V30 14149 H 1284.32 4.86572 -2.55983 0
M  V30 14150 H 1285.54 6.04444 -3.09554 0
M  V30 14151 H 1283.49 6.49826 -0.897889 0
M  V30 14152 H 1283.41 7.13149 -2.50907 0
M  V30 14153 H 1284.67 7.66011 -1.44386 0
M  V30 14154 N 1288.9 1.00119 1.21713 0
M  V30 14155 C 1289.84 0.516633 2.23301 0
M  V30 14156 C 1290.85 -0.392732 1.57992 0
M  V30 14157 O 1292.04 -0.19354 1.77448 0
M  V30 14158 C 1289.14 -0.269612 3.37826 0
M  V30 14159 C 1288.31 0.637898 4.32723 0
M  V30 14160 C 1287.37 -0.0980745 5.26109 0
M  V30 14161 O 1286.4 0.519302 5.66826 0
M  V30 14162 N 1287.6 -1.37783 5.63911 0
M  V30 14163 H 1290.36 1.39022 2.65505 0
M  V30 14164 H 1287.92 0.87688 1.36097 0
M  V30 14165 H 1289.92 -0.770826 3.97291 0
M  V30 14166 H 1288.49 -1.04436 2.94638 0
M  V30 14167 H 1287.71 1.31966 3.71455 0
M  V30 14168 H 1288.99 1.25564 4.93063 0
M  V30 14169 H 1288.39 -1.90061 5.32817 0
M  V30 14170 H 1286.95 -1.82407 6.25756 0
M  V30 14171 N 1290.38 -1.37203 0.775435 0
M  V30 14172 C 1291.63 -1.98846 0.338093 0
M  V30 14173 C 1291.94 -1.6225 -1.09244 0
M  V30 14174 O 1293.15 -2.17024 -1.63135 0
M  V30 14175 C 1291.61 -3.55618 0.553541 0
M  V30 14176 C 1291.21 -4.01149 1.99457 0
M  V30 14177 C 1292.96 -4.24118 0.180006 0
M  V30 14178 C 1290.86 -5.50644 2.15742 0
M  V30 14179 H 1289.79 -0.743955 0.122669 0
M  V30 14180 H 1292.45 -1.56685 0.955087 0
M  V30 14181 H 1290.83 -3.95777 -0.132964 0
M  V30 14182 H 1292 -3.72226 2.71633 0
M  V30 14183 H 1290.32 -3.45443 2.32504 0
M  V30 14184 H 1292.91 -5.33966 0.280145 0
M  V30 14185 H 1293.26 -4.07104 -0.870192 0
M  V30 14186 H 1293.79 -3.89274 0.819201 0
M  V30 14187 H 1290.53 -5.7259 3.19094 0
M  V30 14188 H 1290.05 -5.8124 1.48054 0
M  V30 14189 H 1291.73 -6.16668 1.95781 0
M  V30 14190 N 1291.86 -0.526279 -1.48553 0
M  V30 14191 C 1293.14 0.073385 -1.95462 0
M  V30 14192 C 1293.52 1.51658 -1.46843 0
M  V30 14193 O 1292.86 2.17729 -0.693293 0
M  V30 14194 C 1293.07 -0.040041 -3.48977 0
M  V30 14195 C 1294.42 0.121108 -4.24427 0
M  V30 14196 O 1295.45 0.0339335 -3.56184 0
M  V30 14197 O 1294.31 0.303297 -5.45658 0
M  V30 14198 H 1291.4 0.0813498 -0.822989 0
M  V30 14199 H 1293.95 -0.590614 -1.59091 0
M  V30 14200 H 1292.72 -1.0455 -3.77074 0
M  V30 14201 H 1292.34 0.662975 -3.92034 0
M  V30 14202 N 1293.34 1.5542 -0.261239 0
M  V30 14203 C 1294.58 1.99284 0.359487 0
M  V30 14204 C 1294.91 1.14954 1.56894 0
M  V30 14205 O 1294.17 0.203796 1.94636 0
M  V30 14206 C 1294.47 3.48354 0.799021 0
M  V30 14207 C 1294.13 4.49872 -0.30426 0
M  V30 14208 C 1292.79 4.77353 -0.607237 0
M  V30 14209 C 1295.15 5.10547 -1.04838 0
M  V30 14210 C 1292.47 5.62781 -1.65816 0
M  V30 14211 C 1294.83 5.97115 -2.08893 0
M  V30 14212 C 1293.49 6.22923 -2.3984 0
M  V30 14213 H 1292.76 0.72923 0.131546 0
M  V30 14214 H 1295.41 1.87851 -0.372058 0
M  V30 14215 H 1293.71 3.57192 1.61001 0
M  V30 14216 H 1295.41 3.7969 1.28981 0
M  V30 14217 H 1292 4.28561 -0.0579863 0
M  V30 14218 H 1296.18 4.89352 -0.827566 0
M  V30 14219 H 1291.44 5.81026 -1.90311 0
M  V30 14220 H 1295.61 6.43168 -2.67035 0
M  V30 14221 H 1293.24 6.88912 -3.2141 0
M  V30 14222 N 1294.82 -0.0116844 1.57596 0
M  V30 14223 C 1296.23 -0.367602 1.55309 0
M  V30 14224 C 1296.43 -1.75524 0.98962 0
M  V30 14225 O 1295.49 -2.44813 0.618289 0
M  V30 14226 C 1296.8 -0.253532 2.99629 0
M  V30 14227 C 1298.35 -0.329335 3.11263 0
M  V30 14228 C 1298.82 -0.24452 4.57347 0
M  V30 14229 N 1300.31 -0.302782 4.62209 0
M  V30 14230 C 1301.05 -0.260315 5.72809 0
M  V30 14231 N 1300.55 -0.169124 6.92594 0
M  V30 14232 N 1302.34 -0.311323 5.61237 0
M  V30 14233 H 1294.49 0.896204 1.92567 0
M  V30 14234 H 1296.75 0.342445 0.883988 0
M  V30 14235 H 1296.46 0.70074 3.44648 0
M  V30 14236 H 1296.33 -1.04029 3.62571 0
M  V30 14237 H 1298.72 -1.27405 2.66181 0
M  V30 14238 H 1298.8 0.487084 2.5112 0
M  V30 14239 H 1298.44 0.696597 5.031 0
M  V30 14240 H 1298.37 -1.07927 5.15421 0
M  V30 14241 H 1300.87 -0.375067 3.76034 0
M  V30 14242 H 1301.18 -0.142296 7.72669 0
M  V30 14243 H 1299.52 -0.134919 6.94869 0
M  V30 14244 H 1302.71 -0.380678 4.6655 0
M  V30 14245 H 1302.89 -0.274761 6.47417 0
M  V30 14246 N 1296.29 -1.55015 -0.284256 0
M  V30 14247 C 1297.22 -1.90128 -1.3555 0
M  V30 14248 C 1298.2 -0.761914 -1.52082 0
M  V30 14249 O 1299.39 -1.01909 -1.65312 0
M  V30 14250 C 1296.52 -2.16332 -2.71695 0
M  V30 14251 C 1295.47 -3.32166 -2.69907 0
M  V30 14252 C 1294.8 -3.43824 -4.09498 0
M  V30 14253 C 1296.1 -4.6885 -2.30168 0
M  V30 14254 H 1297.79 -2.79852 -1.06411 0
M  V30 14255 H 1295.34 -1.34649 -0.510451 0
M  V30 14256 H 1297.29 -2.39482 -3.46737 0
M  V30 14257 H 1296.02 -1.23395 -3.02392 0
M  V30 14258 H 1294.68 -3.08965 -1.97322 0
M  V30 14259 H 1294.32 -2.48375 -4.374 0
M  V30 14260 H 1294.02 -4.21698 -4.092 0
M  V30 14261 H 1295.55 -3.69254 -4.86296 0
M  V30 14262 H 1296.96 -4.91619 -2.9493 0
M  V30 14263 H 1295.36 -5.49558 -2.41052 0
M  V30 14264 H 1296.43 -4.68433 -1.25294 0
M  V30 14265 N 1297.77 0.548248 -1.47757 0
M  V30 14266 C 1299.02 1.30458 -1.56052 0
M  V30 14267 C 1299.37 1.91096 -0.22363 0
M  V30 14268 O 1298.67 1.75375 0.771644 0
M  V30 14269 C 1298.86 2.42911 -2.62162 0
M  V30 14270 C 1298.69 1.93293 -4.06039 0
M  V30 14271 C 1297.46 1.76727 -4.73387 0
M  V30 14272 C 1299.66 1.47214 -4.9278 0
M  V30 14273 N 1297.64 1.21543 -6.01748 0
M  V30 14274 C 1299.01 1.03855 -6.1124 0
M  V30 14275 C 1301.06 1.35348 -4.79151 0
M  V30 14276 C 1299.77 0.498086 -7.17573 0
M  V30 14277 C 1301.79 0.827023 -5.85589 0
M  V30 14278 C 1301.16 0.40341 -7.03244 0
M  V30 14279 H 1297.25 0.469075 -0.625694 0
M  V30 14280 H 1299.84 0.620405 -1.84551 0
M  V30 14281 H 1298.01 3.08847 -2.35516 0
M  V30 14282 H 1299.74 3.09924 -2.60249 0
M  V30 14283 H 1296.5 1.99709 -4.29433 0
M  V30 14284 H 1296.92 0.960132 -6.70157 0
M  V30 14285 H 1301.56 1.66708 -3.88546 0
M  V30 14286 H 1299.28 0.172123 -8.07917 0
M  V30 14287 H 1302.87 0.738641 -5.77092 0
M  V30 14288 H 1301.75 0.00236338 -7.842 0
M  V30 14289 N 1299.25 1.36039 0.795694 0
M  V30 14290 C 1300.53 1.20474 1.54096 0
M  V30 14291 C 1300.91 -0.211691 2.10036 0
M  V30 14292 O 1300.25 -1.21656 1.93422 0
M  V30 14293 C 1300.46 2.28164 2.64087 0
M  V30 14294 C 1301.81 2.64519 3.32137 0
M  V30 14295 O 1302.84 2.2716 2.74366 0
M  V30 14296 O 1301.7 3.28796 4.36527 0
M  V30 14297 H 1298.79 0.468699 0.681359 0
M  V30 14298 H 1301.34 1.47752 0.834716 0
M  V30 14299 H 1300.11 3.23121 2.20701 0
M  V30 14300 H 1299.73 2.02217 3.42336 0
M  V30 14301 N 1300.73 -1.01913 1.20215 0
M  V30 14302 C 1301.66 -2.12282 0.97256 0
M  V30 14303 C 1302.64 -1.6982 -0.0975709 0
M  V30 14304 O 1303.82 -1.94109 0.0594307 0
M  V30 14305 C 1300.95 -3.43369 0.521085 0
M  V30 14306 C 1299.91 -3.99559 1.53417 0
M  V30 14307 C 1299.23 -5.26383 0.93942 0
M  V30 14308 C 1300.53 -4.33241 2.91718 0
M  V30 14309 H 1302.23 -2.31746 1.89563 0
M  V30 14310 H 1299.77 -1.1137 0.912841 0
M  V30 14311 H 1301.73 -4.19963 0.347713 0
M  V30 14312 H 1300.45 -3.23655 -0.437605 0
M  V30 14313 H 1299.11 -3.25069 1.69486 0
M  V30 14314 H 1298.76 -5.02993 -0.0271236 0
M  V30 14315 H 1298.46 -5.64942 1.616 0
M  V30 14316 H 1299.98 -6.05635 0.777059 0
M  V30 14317 H 1301.4 -5.00734 2.79175 0
M  V30 14318 H 1299.79 -4.82907 3.56259 0
M  V30 14319 H 1300.86 -3.42118 3.43633 0
M  V30 14320 N 1302.21 -1.00763 -1.2118 0
M  V30 14321 C 1303.12 -0.579646 -2.27326 0
M  V30 14322 C 1304.13 0.378592 -1.69831 0
M  V30 14323 O 1305.31 0.241772 -1.99944 0
M  V30 14324 C 1302.37 0.0843648 -3.46597 0
M  V30 14325 C 1301.43 -0.918685 -4.19355 0
M  V30 14326 C 1300.67 -0.286267 -5.32932 0
M  V30 14327 O 1300.89 0.916274 -5.62993 0
M  V30 14328 O 1299.82 -0.998513 -5.9356 0
M  V30 14329 H 1303.65 -1.46311 -2.66133 0
M  V30 14330 H 1301.24 -0.776641 -1.27627 0
M  V30 14331 H 1303.12 0.455636 -4.18929 0
M  V30 14332 H 1301.79 0.942166 -3.09685 0
M  V30 14333 H 1300.7 -1.34116 -3.49233 0
M  V30 14334 H 1302.03 -1.74616 -4.60185 0
M  V30 14335 N 1303.68 1.3679 -0.7827 0
M  V30 14336 C 1304.63 2.30139 -0.174595 0
M  V30 14337 C 1305.6 1.51645 0.677714 0
M  V30 14338 O 1306.79 1.80176 0.627796 0
M  V30 14339 C 1303.93 3.38133 0.689936 0
M  V30 14340 C 1303.04 4.31624 -0.180179 0
M  V30 14341 C 1302.17 5.26698 0.69009 0
M  V30 14342 C 1301.21 6.1183 -0.181891 0
M  V30 14343 N 1300.35 6.99113 0.646977 0
M  V30 14344 H 1305.19 2.81559 -0.97613 0
M  V30 14345 H 1302.73 1.38595 -0.492944 0
M  V30 14346 H 1304.69 3.99386 1.2061 0
M  V30 14347 H 1303.32 2.88049 1.45696 0
M  V30 14348 H 1302.37 3.71583 -0.81425 0
M  V30 14349 H 1303.68 4.91464 -0.852337 0
M  V30 14350 H 1302.83 5.93209 1.27232 0
M  V30 14351 H 1301.57 4.67297 1.3959 0
M  V30 14352 H 1300.58 5.44288 -0.776572 0
M  V30 14353 H 1301.8 6.73306 -0.885195 0
M  V30 14354 H 1299.75 6.42227 1.3372 0
M  V30 14355 H 1299.67 7.55993 0.0323547 0
M  V30 14356 H 1300.93 7.7 1.21325 0
M  V30 14357 N 1305.16 0.53415 1.48272 0
M  V30 14358 C 1306.09 -0.263508 2.2768 0
M  V30 14359 C 1307.11 -0.90064 1.35618 0
M  V30 14360 O 1308.3 -0.778379 1.60635 0
M  V30 14361 C 1305.4 -1.38878 3.09138 0
M  V30 14362 C 1304.57 -0.852784 4.29006 0
M  V30 14363 C 1303.63 -1.85969 4.92242 0
M  V30 14364 O 1302.65 -1.41497 5.51332 0
M  V30 14365 N 1303.86 -3.19207 4.84858 0
M  V30 14366 H 1306.62 0.417548 2.96777 0
M  V30 14367 H 1304.18 0.368743 1.57645 0
M  V30 14368 H 1306.17 -2.06062 3.48311 0
M  V30 14369 H 1304.74 -1.97343 2.42434 0
M  V30 14370 H 1303.96 -0.0048227 3.942 0
M  V30 14371 H 1305.25 -0.473634 5.06591 0
M  V30 14372 H 1304.65 -3.58001 4.38009 0
M  V30 14373 H 1303.21 -3.82013 5.28119 0
M  V30 14374 N 1306.64 -1.55279 0.269478 0
M  V30 14375 C 1307.89 -1.98649 -0.349522 0
M  V30 14376 C 1308.2 -1.16125 -1.57399 0
M  V30 14377 O 1309.41 -1.49612 -2.26558 0
M  V30 14378 C 1307.86 -3.53547 -0.673224 0
M  V30 14379 C 1307.47 -4.44841 0.531119 0
M  V30 14380 C 1309.22 -4.05519 -1.25516 0
M  V30 14381 C 1307.12 -5.91119 0.182317 0
M  V30 14382 H 1306.05 -0.74193 -0.13437 0
M  V30 14383 H 1308.7 -1.79664 0.373246 0
M  V30 14384 H 1307.09 -3.68311 -1.45474 0
M  V30 14385 H 1308.26 -4.41843 1.3081 0
M  V30 14386 H 1306.58 -4.03472 1.02952 0
M  V30 14387 H 1309.17 -5.12347 -1.52984 0
M  V30 14388 H 1309.52 -3.54215 -2.18718 0
M  V30 14389 H 1310.05 -3.94172 -0.536059 0
M  V30 14390 H 1306.79 -6.46507 1.08206 0
M  V30 14391 H 1306.31 -5.97199 -0.558008 0
M  V30 14392 H 1307.99 -6.466 -0.227484 0
M  V30 14393 N 1308.12 0.00332656 -1.576 0
M  V30 14394 C 1309.07 0.99581 -2.08212 0
M  V30 14395 C 1310.04 1.34342 -0.976804 0
M  V30 14396 O 1311.22 1.44236 -1.24902 0
M  V30 14397 C 1308.36 2.2836 -2.58739 0
M  V30 14398 C 1307.47 1.99531 -3.8316 0
M  V30 14399 C 1306.61 3.22367 -4.222 0
M  V30 14400 C 1305.65 2.89209 -5.39467 0
M  V30 14401 N 1304.78 4.04572 -5.73817 0
M  V30 14402 H 1309.62 0.55727 -2.92743 0
M  V30 14403 H 1307.16 0.263513 -1.4472 0
M  V30 14404 H 1309.12 3.03639 -2.86111 0
M  V30 14405 H 1307.75 2.69889 -1.77087 0
M  V30 14406 H 1306.8 1.14634 -3.62716 0
M  V30 14407 H 1308.11 1.71089 -4.6854 0
M  V30 14408 H 1307.27 4.05994 -4.50837 0
M  V30 14409 H 1306.01 3.53944 -3.35522 0
M  V30 14410 H 1305.01 2.03989 -5.10557 0
M  V30 14411 H 1306.24 2.58883 -6.27819 0
M  V30 14412 H 1304.18 4.36052 -4.90096 0
M  V30 14413 H 1304.1 3.79643 -6.53764 0
M  V30 14414 H 1305.37 4.88998 -6.07043 0
M  V30 14415 N 1309.6 1.55164 0.276031 0
M  V30 14416 C 1310.53 1.84243 1.36335 0
M  V30 14417 C 1311.54 0.726745 1.45679 0
M  V30 14418 O 1312.73 1.00456 1.4755 0
M  V30 14419 C 1309.83 1.98768 2.7449 0
M  V30 14420 C 1309 3.294 2.87775 0
M  V30 14421 C 1308.06 3.34029 4.06585 0
M  V30 14422 O 1307.09 4.07423 3.97486 0
M  V30 14423 N 1308.29 2.61213 5.18409 0
M  V30 14424 H 1311.06 2.78092 1.11736 0
M  V30 14425 H 1308.62 1.55044 0.466143 0
M  V30 14426 H 1310.61 1.99238 3.52259 0
M  V30 14427 H 1309.18 1.11799 2.91924 0
M  V30 14428 H 1308.4 3.41494 1.96914 0
M  V30 14429 H 1309.69 4.15558 2.93579 0
M  V30 14430 H 1309.08 2.01261 5.28687 0
M  V30 14431 H 1307.64 2.67409 5.9442 0
M  V30 14432 N 1311.07 -0.540404 1.48045 0
M  V30 14433 C 1312 -1.65538 1.6468 0
M  V30 14434 C 1312.99 -1.62713 0.495847 0
M  V30 14435 O 1314.17 -1.80072 0.727172 0
M  V30 14436 C 1311.3 -3.0415 1.67661 0
M  V30 14437 C 1310.25 -3.2183 2.82152 0
M  V30 14438 C 1309.58 -4.61397 2.70216 0
M  V30 14439 C 1310.88 -3.05596 4.23567 0
M  V30 14440 H 1312.57 -1.51873 2.58021 0
M  V30 14441 H 1310.12 -0.729208 1.24171 0
M  V30 14442 H 1312.07 -3.82013 1.77887 0
M  V30 14443 H 1310.8 -3.18814 0.708907 0
M  V30 14444 H 1309.46 -2.4638 2.71463 0
M  V30 14445 H 1309.1 -4.72883 1.71437 0
M  V30 14446 H 1308.8 -4.74174 3.47035 0
M  V30 14447 H 1310.33 -5.41374 2.82395 0
M  V30 14448 H 1311.74 -3.73261 4.35143 0
M  V30 14449 H 1310.14 -3.29871 5.01303 0
M  V30 14450 H 1311.21 -2.0214 4.40758 0
M  V30 14451 N 1312.55 -1.36459 -0.788468 0
M  V30 14452 C 1313.97 -1.16893 -1.08666 0
M  V30 14453 C 1314.17 0.00633808 -2.01499 0
M  V30 14454 O 1313.22 0.671417 -2.4341 0
M  V30 14455 C 1314.54 -2.48018 -1.70022 0
M  V30 14456 C 1316.09 -2.5439 -1.82358 0
M  V30 14457 C 1316.56 -3.85605 -2.47129 0
M  V30 14458 N 1318.05 -3.86956 -2.54597 0
M  V30 14459 C 1318.79 -4.85224 -3.05525 0
M  V30 14460 N 1318.28 -5.93885 -3.56753 0
M  V30 14461 N 1320.08 -4.72643 -3.04246 0
M  V30 14462 H 1312.23 -2.11705 -0.171733 0
M  V30 14463 H 1314.49 -0.937784 -0.1388 0
M  V30 14464 H 1314.2 -3.34292 -1.09277 0
M  V30 14465 H 1314.07 -2.63894 -2.69518 0
M  V30 14466 H 1316.46 -1.68534 -2.4224 0
M  V30 14467 H 1316.54 -2.42414 -0.816651 0
M  V30 14468 H 1316.18 -4.71868 -1.87891 0
M  V30 14469 H 1316.11 -3.94878 -3.48395 0
M  V30 14470 H 1318.6 -3.08453 -2.18323 0
M  V30 14471 H 1318.92 -6.64839 -3.93966 0
M  V30 14472 H 1317.26 -5.97553 -3.54902 0
M  V30 14473 H 1320.45 -3.86883 -2.63513 0
M  V30 14474 H 1320.62 -5.49385 -3.43627 0
M  V30 14475 N 1314.03 1.01274 -1.20754 0
M  V30 14476 C 1314.98 2.12012 -0.95675 0
M  V30 14477 C 1315.97 1.69143 0.0932738 0
M  V30 14478 O 1317.18 1.79908 -0.0574298 0
M  V30 14479 H 1313.55 0.692956 -0.292088 0
M  V30 14480 H 1315.52 2.30347 -1.89692 0
M  V30 14481 C 1314.27 3.43643 -0.529602 0
M  V30 14482 H 1313.6 3.77058 -1.32918 0
M  V30 14483 H 1315.04 4.22171 -0.393376 0
M  V30 14484 C 1313.5 3.2825 0.758505 0
M  V30 14485 O 1314.03 3.58309 1.81598 0
M  V30 14486 N 1312.23 2.81487 0.722022 0
M  V30 14487 H 1311.78 2.57226 -0.138807 0
M  V30 14488 H 1311.74 2.7157 1.58421 0
M  V30 14489 N 1315.51 1.01404 1.20644 0
M  V30 14490 C 1316.74 0.719995 1.93648 0
M  V30 14491 C 1317.15 -0.722872 1.74846 0
M  V30 14492 O 1316.49 -1.50172 1.05802 0
M  V30 14493 C 1316.55 0.972637 3.46092 0
M  V30 14494 C 1316.22 2.40412 3.88653 0
M  V30 14495 C 1317.21 3.38481 3.94622 0
M  V30 14496 C 1314.9 2.74418 4.20714 0
M  V30 14497 C 1316.89 4.68619 4.32059 0
M  V30 14498 C 1314.58 4.04769 4.57826 0
M  V30 14499 C 1315.58 5.01681 4.63471 0
M  V30 14500 O 1315.27 6.297 4.99733 0
M  V30 14501 H 1315 0.263849 0.622382 0
M  V30 14502 H 1317.55 1.35741 1.54154 0
M  V30 14503 H 1315.78 0.278057 3.85699 0
M  V30 14504 H 1317.47 0.670572 4.00323 0
M  V30 14505 H 1318.24 3.13545 3.7002 0
M  V30 14506 H 1314.12 1.99675 4.15513 0
M  V30 14507 H 1317.66 5.4426 4.3638 0
M  V30 14508 H 1313.56 4.29486 4.81884 0
M  V30 14509 H 1314.32 6.3395 5.17735 0
M  V30 14510 N 1316.99 -1.36373 0.789944 0
M  V30 14511 C 1318.4 -1.52471 0.471686 0
M  V30 14512 C 1318.6 -1.74365 -1.0099 0
M  V30 14513 O 1317.66 -1.77546 -1.79538 0
M  V30 14514 C 1318.97 -2.71022 1.30259 0
M  V30 14515 C 1320.52 -2.84893 1.29633 0
M  V30 14516 C 1321 -4.0645 2.11098 0
M  V30 14517 N 1322.49 -4.13597 2.08547 0
M  V30 14518 C 1323.22 -5.06731 2.6835 0
M  V30 14519 N 1322.72 -6.05305 3.37013 0
M  V30 14520 N 1324.51 -4.9935 2.58081 0
M  V30 14521 H 1316.66 -1.20416 1.74968 0
M  V30 14522 H 1318.92 -0.587782 0.743785 0
M  V30 14523 H 1318.63 -2.61368 2.35329 0
M  V30 14524 H 1318.5 -3.6519 0.944254 0
M  V30 14525 H 1320.89 -2.94009 0.253542 0
M  V30 14526 H 1320.97 -1.91632 1.69443 0
M  V30 14527 H 1320.62 -3.98096 3.15408 0
M  V30 14528 H 1320.55 -4.98861 1.68659 0
M  V30 14529 H 1323.04 -3.4302 1.58573 0
M  V30 14530 H 1323.35 -6.72934 3.79974 0
M  V30 14531 H 1321.7 -6.05529 3.41116 0
M  V30 14532 H 1324.89 -4.21291 2.04039 0
M  V30 14533 H 1325.06 -5.71745 3.04979 0
M  V30 14534 N 1318.47 -0.542005 -1.47987 0
M  V30 14535 C 1319.74 0.0526494 -1.95529 0
M  V30 14536 C 1320.12 1.50092 -1.48444 0
M  V30 14537 O 1319.47 2.16981 -0.716347 0
M  V30 14538 C 1319.68 -0.0770524 -3.48915 0
M  V30 14539 C 1321.03 0.0760849 -4.24532 0
M  V30 14540 O 1322.05 -0.00384644 -3.562 0
M  V30 14541 O 1320.91 0.245406 -5.45949 0
M  V30 14542 H 1318.01 0.0726163 -0.823806 0
M  V30 14543 H 1320.55 -0.607454 -1.58455 0
M  V30 14544 H 1319.32 -1.08544 -3.75944 0
M  V30 14545 H 1318.95 0.621357 -3.92715 0
M  V30 14546 N 1319.94 1.55134 -0.277709 0
M  V30 14547 C 1320.89 2.24057 0.624594 0
M  V30 14548 C 1321.89 1.23848 1.15577 0
M  V30 14549 O 1323.09 1.41771 1.1091 0
M  V30 14550 H 1319.47 0.719106 0.219977 0
M  V30 14551 H 1321.44 2.98393 0.0204815 0
M  V30 14552 C 1320.19 2.97712 1.79618 0
M  V30 14553 H 1319.51 3.74611 1.39665 0
M  V30 14554 H 1320.95 3.49255 2.4041 0
M  V30 14555 C 1319.41 2.03332 2.68622 0
M  V30 14556 O 1319.94 1.58622 3.69056 0
M  V30 14557 N 1318.14 1.69778 2.35847 0
M  V30 14558 H 1317.69 2.06333 1.54222 0
M  V30 14559 H 1317.65 1.06901 2.95668 0
M  V30 14560 N 1321.42 0.00503138 1.57599 0
M  V30 14561 C 1322.65 -0.688609 1.94786 0
M  V30 14562 C 1323.06 -1.67558 0.878698 0
M  V30 14563 O 1322.4 -1.83083 -0.150486 0
M  V30 14564 C 1322.46 -1.47183 3.2799 0
M  V30 14565 C 1322.13 -0.64589 4.52413 0
M  V30 14566 C 1323.13 0.0685859 5.19855 0
M  V30 14567 C 1320.81 -0.590379 4.98818 0
M  V30 14568 C 1322.8 0.827505 6.32006 0
M  V30 14569 C 1320.49 0.172262 6.10857 0
M  V30 14570 C 1321.49 0.879932 6.77308 0
M  V30 14571 O 1321.18 1.63012 7.87199 0
M  V30 14572 H 1320.91 -0.196416 0.646836 0
M  V30 14573 H 1323.46 0.0537933 2.0533 0
M  V30 14574 H 1321.69 -2.25883 3.13869 0
M  V30 14575 H 1323.38 -2.05129 3.50253 0
M  V30 14576 H 1324.15 0.0348834 4.84987 0
M  V30 14577 H 1320.03 -1.13074 4.46918 0
M  V30 14578 H 1323.57 1.3804 6.83806 0
M  V30 14579 H 1319.47 0.207767 6.45166 0
M  V30 14580 H 1320.24 1.54736 8.03741 0
M  V30 14581 N 1322.9 -1.55308 -0.267798 0
M  V30 14582 C 1323.83 -1.84963 -1.35356 0
M  V30 14583 C 1324.84 -0.73446 -1.45291 0
M  V30 14584 O 1326.03 -1.01237 -1.47015 0
M  V30 14585 C 1323.13 -2.00221 -2.73432 0
M  V30 14586 C 1322.31 -3.30922 -2.86024 0
M  V30 14587 C 1321.37 -3.3618 -4.04808 0
M  V30 14588 O 1320.39 -4.09525 -3.9532 0
M  V30 14589 N 1321.59 -2.63958 -5.17017 0
M  V30 14590 H 1324.36 -2.7868 -1.1026 0
M  V30 14591 H 1321.92 -1.55289 -0.457914 0
M  V30 14592 H 1323.91 -2.01103 -3.51197 0
M  V30 14593 H 1322.48 -1.13346 -2.91327 0
M  V30 14594 H 1321.7 -3.42534 -1.951 0
M  V30 14595 H 1322.99 -4.17109 -2.91371 0
M  V30 14596 H 1322.39 -2.04062 -5.27613 0
M  V30 14597 H 1320.94 -2.70558 -5.92994 0
M  V30 14598 N 1324.38 0.532545 -1.4833 0
M  V30 14599 C 1325.34 1.61955 -1.62183 0
M  V30 14600 C 1326.34 1.52982 -0.495281 0
M  V30 14601 O 1327.53 1.56698 -0.761005 0
M  V30 14602 C 1324.66 3.0157 -1.58961 0
M  V30 14603 H 1325.86 1.51013 -2.59105 0
M  V30 14604 H 1323.41 0.754405 -1.36888 0
M  V30 14605 H 1324.14 3.18021 -0.635069 0
M  V30 14606 H 1323.93 3.09491 -2.40744 0
M  V30 14607 H 1325.42 3.80604 -1.71843 0
M  V30 14608 N 1325.86 1.36875 0.78122 0
M  V30 14609 C 1327.1 1.31559 1.53943 0
M  V30 14610 C 1327.43 -0.10273 1.94229 0
M  V30 14611 O 1326.69 -1.07386 1.63605 0
M  V30 14612 C 1326.98 2.19173 2.82309 0
M  V30 14613 C 1326.65 3.67595 2.61121 0
M  V30 14614 C 1325.31 4.08047 2.55051 0
M  V30 14615 C 1327.66 4.61665 2.41898 0
M  V30 14616 C 1324.99 5.40697 2.27736 0
M  V30 14617 C 1327.34 5.94542 2.16108 0
M  V30 14618 C 1326.01 6.34109 2.08476 0
M  V30 14619 H 1325.28 0.48141 0.563317 0
M  V30 14620 H 1327.93 1.68999 0.900638 0
M  V30 14621 H 1326.23 1.74696 3.50697 0
M  V30 14622 H 1327.93 2.12379 3.40141 0
M  V30 14623 H 1324.52 3.35509 2.66705 0
M  V30 14624 H 1328.7 4.3128 2.45584 0
M  V30 14625 H 1323.96 5.70325 2.20315 0
M  V30 14626 H 1328.13 6.66994 2.0023 0
M  V30 14627 H 1325.76 7.36823 1.87073 0
M  V30 14628 N 1327.33 -1.00632 1.21289 0
M  V30 14629 C 1328.57 -1.75921 1.04073 0
M  V30 14630 C 1328.94 -1.87381 -0.4186 0
M  V30 14631 O 1330.14 -2.5922 -0.711236 0
M  V30 14632 C 1328.41 -3.1344 1.71727 0
M  V30 14633 S 1329.97 -4.04636 1.6975 0
M  V30 14634 H 1326.79 -0.605321 0.372972 0
M  V30 14635 H 1329.39 -1.20417 1.54013 0
M  V30 14636 H 1328.09 -3.02731 2.77096 0
M  V30 14637 H 1327.62 -3.74017 1.21962 0
M  V30 14638 H 1329.64 -4.90686 0.737656 0
M  V30 14639 N 1328.81 -1.02043 -1.20104 0
M  V30 14640 C 1329.76 -0.593945 -2.23027 0
M  V30 14641 C 1330.73 0.387931 -1.61506 0
M  V30 14642 O 1331.91 0.286504 -1.88637 0
M  V30 14643 C 1329.05 0.0577309 -3.45052 0
M  V30 14644 C 1328.17 -0.969169 -4.20988 0
M  V30 14645 C 1327.3 -0.288143 -5.30418 0
M  V30 14646 C 1326.34 -1.30154 -5.98102 0
M  V30 14647 N 1325.48 -0.646912 -6.99113 0
M  V30 14648 H 1330.32 -1.47623 -2.58866 0
M  V30 14649 H 1327.85 -0.738901 -1.27195 0
M  V30 14650 H 1329.81 0.452726 -4.14736 0
M  V30 14651 H 1328.44 0.90364 -3.09894 0
M  V30 14652 H 1327.49 -1.48229 -3.50332 0
M  V30 14653 H 1328.81 -1.73972 -4.67477 0
M  V30 14654 H 1327.96 0.162149 -6.06483 0
M  V30 14655 H 1326.7 0.514683 -4.84977 0
M  V30 14656 H 1325.7 -1.76218 -5.20795 0
M  V30 14657 H 1326.93 -2.10571 -6.45629 0
M  V30 14658 H 1324.88 0.135976 -6.55859 0
M  V30 14659 H 1324.79 -1.35548 -7.43749 0
M  V30 14660 H 1326.06 -0.220339 -7.79189 0
M  V30 14661 N 1330.29 1.35952 -0.797165 0
M  V30 14662 C 1331.54 1.99765 -0.382794 0
M  V30 14663 C 1331.89 1.62119 1.0361 0
M  V30 14664 O 1331.18 0.869648 1.70727 0
M  V30 14665 C 1331.38 3.53986 -0.492805 0
M  V30 14666 C 1331.21 4.06612 -1.92085 0
M  V30 14667 C 1329.98 4.36403 -2.54716 0
M  V30 14668 C 1332.18 4.25823 -2.88409 0
M  V30 14669 N 1330.16 4.749 -3.89028 0
M  V30 14670 C 1331.53 4.67211 -4.07571 0
M  V30 14671 C 1333.58 4.0801 -2.85364 0
M  V30 14672 C 1332.29 4.9265 -5.24107 0
M  V30 14673 C 1334.31 4.346 -4.01095 0
M  V30 14674 C 1333.67 4.76252 -5.19003 0
M  V30 14675 H 1329.77 0.759152 -0.18765 0
M  V30 14676 H 1332.36 1.64823 -1.03641 0
M  V30 14677 H 1330.53 3.8818 0.130762 0
M  V30 14678 H 1332.26 4.04664 -0.0539319 0
M  V30 14679 H 1329.02 4.26384 -2.06139 0
M  V30 14680 H 1329.44 4.98422 -4.58154 0
M  V30 14681 H 1334.08 3.74958 -1.95363 0
M  V30 14682 H 1331.8 5.2458 -6.14688 0
M  V30 14683 H 1335.39 4.2238 -4.00108 0
M  V30 14684 H 1334.27 4.96427 -6.07066 0
M  V30 14685 N 1331.77 0.549846 1.47697 0
M  V30 14686 C 1332.7 -0.190364 2.32723 0
M  V30 14687 C 1333.68 -0.915933 1.43334 0
M  V30 14688 O 1334.86 -0.897838 1.72199 0
M  V30 14689 C 1331.99 -1.22545 3.24961 0
M  V30 14690 C 1330.95 -0.616805 4.23532 0
M  V30 14691 C 1330.27 -1.75599 5.05044 0
M  V30 14692 C 1331.57 0.424595 5.20571 0
M  V30 14693 H 1333.27 0.519461 2.94859 0
M  V30 14694 H 1330.81 0.251259 1.41791 0
M  V30 14695 H 1332.77 -1.75139 3.83281 0
M  V30 14696 H 1331.49 -1.96512 2.60865 0
M  V30 14697 H 1330.15 -0.112224 3.66428 0
M  V30 14698 H 1329.8 -2.48453 4.37356 0
M  V30 14699 H 1329.5 -1.35456 5.71774 0
M  V30 14700 H 1331.02 -2.28533 5.6622 0
M  V30 14701 H 1332.44 -0.0150025 5.73298 0
M  V30 14702 H 1330.83 0.7445 5.95464 0
M  V30 14703 H 1331.9 1.32318 4.66497 0
M  V30 14704 N 1333.25 -1.54984 0.285932 0
M  V30 14705 C 1334.48 -2.03943 -0.330295 0
M  V30 14706 C 1334.88 -1.16336 -1.49207 0
M  V30 14707 O 1334.23 -0.178341 -1.82832 0
M  V30 14708 C 1334.29 -3.48976 -0.863479 0
M  V30 14709 C 1333.95 -4.5668 0.171058 0
M  V30 14710 C 1334.95 -5.10303 0.994329 0
M  V30 14711 C 1332.64 -5.01352 0.308416 0
M  V30 14712 C 1334.63 -6.07126 1.94104 0
M  V30 14713 C 1332.32 -5.97999 1.25859 0
M  V30 14714 C 1333.31 -6.50768 2.0734 0
M  V30 14715 O 1333 -7.45524 3.00749 0
M  V30 14716 H 1332.73 -0.671491 -0.0779452 0
M  V30 14717 H 1335.29 -2.01081 0.419011 0
M  V30 14718 H 1333.52 -3.49113 -1.66305 0
M  V30 14719 H 1335.21 -3.81213 -1.39396 0
M  V30 14720 H 1335.97 -4.76595 0.899002 0
M  V30 14721 H 1331.85 -4.59917 -0.315817 0
M  V30 14722 H 1335.4 -6.48239 2.57743 0
M  V30 14723 H 1331.29 -6.31125 1.35469 0
M  V30 14724 H 1332.06 -7.63276 2.95554 0
M  V30 14725 N 1334.72 -0.0133892 -1.57594 0
M  V30 14726 C 1336 0.706416 -1.82398 0
M  V30 14727 C 1336.38 1.91236 -0.893983 0
M  V30 14728 O 1335.73 2.28436 0.0541675 0
M  V30 14729 C 1335.94 1.09951 -3.31228 0
M  V30 14730 C 1337.29 1.49776 -3.97306 0
M  V30 14731 O 1338.31 1.19293 -3.3563 0
M  V30 14732 O 1337.17 2.06511 -5.0598 0
M  V30 14733 H 1334.26 0.345131 -0.751541 0
M  V30 14734 H 1336.81 -0.0398687 -1.69653 0
M  V30 14735 H 1335.58 0.240514 -3.9056 0
M  V30 14736 H 1335.21 1.90447 -3.49021 0
M  V30 14737 N 1336.2 1.55448 0.259558 0
M  V30 14738 C 1337.17 1.88459 1.30445 0
M  V30 14739 C 1338.17 0.760096 1.41701 0
M  V30 14740 O 1339.36 1.02819 1.4062 0
M  V30 14741 C 1336.49 2.10181 2.68397 0
M  V30 14742 H 1337.68 2.81877 1.02398 0
M  V30 14743 H 1335.23 1.48145 0.498262 0
M  V30 14744 H 1335.97 1.19189 3.01603 0
M  V30 14745 H 1335.75 2.92066 2.6161 0
M  V30 14746 H 1337.24 2.36947 3.43869 0
M  V30 14747 N 1337.68 -0.524672 1.4861 0
M  V30 14748 C 1338.63 -1.62872 1.63527 0
M  V30 14749 C 1339.6 -1.59097 0.477202 0
M  V30 14750 O 1340.78 -1.77443 0.701341 0
M  V30 14751 C 1337.92 -3.01116 1.68592 0
M  V30 14752 C 1337.04 -3.15085 2.95542 0
M  V30 14753 C 1336.17 -4.4392 2.91734 0
M  V30 14754 C 1335.21 -4.51436 4.13366 0
M  V30 14755 N 1334.35 -5.71667 4.07605 0
M  V30 14756 H 1339.19 -1.49462 2.57808 0
M  V30 14757 H 1336.72 -0.727578 1.27846 0
M  V30 14758 H 1338.68 -3.81212 1.6951 0
M  V30 14759 H 1337.31 -3.13285 0.777975 0
M  V30 14760 H 1336.36 -2.28207 3.04345 0
M  V30 14761 H 1337.68 -3.165 3.85524 0
M  V30 14762 H 1336.83 -5.32312 2.91083 0
M  V30 14763 H 1335.57 -4.45034 1.9949 0
M  V30 14764 H 1334.57 -3.6145 4.14287 0
M  V30 14765 H 1335.8 -4.52057 5.06776 0
M  V30 14766 H 1333.74 -5.73668 3.18184 0
M  V30 14767 H 1333.66 -5.74599 4.91297 0
M  V30 14768 H 1334.93 -6.62331 4.1102 0
M  V30 14769 N 1339.16 -1.37287 -0.77395 0
M  V30 14770 C 1340.57 -1.18039 -1.0742 0
M  V30 14771 C 1340.77 -0.0150339 -2.01494 0
M  V30 14772 O 1339.83 0.645562 -2.44108 0
M  V30 14773 C 1341.14 -2.49808 -1.67382 0
M  V30 14774 C 1342.69 -2.5631 -1.7965 0
M  V30 14775 C 1343.17 -3.88204 -2.43025 0
M  V30 14776 N 1344.66 -3.89634 -2.50478 0
M  V30 14777 C 1345.39 -4.88437 -3.00361 0
M  V30 14778 N 1344.89 -5.97635 -3.50434 0
M  V30 14779 N 1346.68 -4.75843 -2.99215 0
M  V30 14780 H 1338.83 -2.11875 -0.149269 0
M  V30 14781 H 1341.1 -0.939203 -0.128846 0
M  V30 14782 H 1340.8 -3.35433 -1.05726 0
M  V30 14783 H 1340.68 -2.66737 -2.66704 0
M  V30 14784 H 1343.06 -1.71094 -2.40439 0
M  V30 14785 H 1343.14 -2.43266 -0.790894 0
M  V30 14786 H 1342.79 -4.73834 -1.82876 0
M  V30 14787 H 1342.72 -3.98551 -3.44187 0
M  V30 14788 H 1345.21 -3.10751 -2.15039 0
M  V30 14789 H 1345.52 -6.6898 -3.86893 0
M  V30 14790 H 1343.87 -6.01283 -3.48545 0
M  V30 14791 H 1347.06 -3.89656 -2.59395 0
M  V30 14792 H 1347.23 -5.52999 -3.37781 0
M  V30 14793 N 1340.64 0.999871 -1.21821 0
M  V30 14794 C 1342.05 1.26228 -0.976664 0
M  V30 14795 C 1342.25 1.98714 0.333915 0
M  V30 14796 O 1341.31 2.29252 1.05829 0
M  V30 14797 C 1342.62 2.08089 -2.1707 0
M  V30 14798 C 1344.17 2.21298 -2.21351 0
M  V30 14799 C 1344.64 3.06544 -3.40287 0
M  V30 14800 N 1346.14 3.14131 -3.40405 0
M  V30 14801 C 1346.87 3.80362 -4.29083 0
M  V30 14802 N 1346.37 4.48577 -5.27968 0
M  V30 14803 N 1348.16 3.77053 -4.16878 0
M  V30 14804 H 1340.31 0.513704 -2.06094 0
M  V30 14805 H 1342.57 0.289447 -0.902732 0
M  V30 14806 H 1342.28 1.62183 -3.12073 0
M  V30 14807 H 1342.15 3.08843 -2.16554 0
M  V30 14808 H 1344.54 2.66422 -1.269 0
M  V30 14809 H 1344.62 1.19997 -2.25908 0
M  V30 14810 H 1344.27 2.62122 -4.35034 0
M  V30 14811 H 1344.2 4.0797 -3.32969 0
M  V30 14812 H 1346.69 2.65576 -2.68846 0
M  V30 14813 H 1347 4.96833 -5.91926 0
M  V30 14814 H 1345.34 4.47348 -5.31888 0
M  V30 14815 H 1348.54 3.22918 -3.38883 0
M  V30 14816 H 1348.71 4.2839 -4.86195 0
M  V30 14817 N 1342.11 1.02678 1.19562 0
M  V30 14818 C 1343.05 0.563882 2.22155 0
M  V30 14819 C 1344.06 -0.359132 1.58789 0
M  V30 14820 O 1345.25 -0.155857 1.77818 0
M  V30 14821 C 1342.35 -0.197894 3.38322 0
M  V30 14822 C 1341.52 0.729542 4.31273 0
M  V30 14823 C 1340.58 0.013543 5.26198 0
M  V30 14824 O 1339.61 0.639417 5.65597 0
M  V30 14825 N 1340.81 -1.25791 5.66707 0
M  V30 14826 H 1343.57 1.44623 2.62496 0
M  V30 14827 H 1341.13 0.90555 1.34207 0
M  V30 14828 H 1343.13 -0.686381 3.98837 0
M  V30 14829 H 1341.7 -0.981632 2.96787 0
M  V30 14830 H 1340.92 1.39816 3.68572 0
M  V30 14831 H 1342.2 1.35994 4.90289 0
M  V30 14832 H 1341.6 -1.78716 5.36728 0
M  V30 14833 H 1340.16 -1.69093 6.29485 0
M  V30 14834 N 1343.59 -1.35528 0.804364 0
M  V30 14835 C 1344.87 -1.93175 0.307049 0
M  V30 14836 C 1345.25 -1.73466 -1.20303 0
M  V30 14837 O 1344.6 -1.10235 -2.00151 0
M  V30 14838 C 1344.81 -3.41576 0.716018 0
M  V30 14839 C 1346.16 -4.18719 0.704242 0
M  V30 14840 O 1347.18 -3.50081 0.657423 0
M  V30 14841 O 1346.04 -5.41181 0.760601 0
M  V30 14842 H 1343.13 -0.823142 0.0797888 0
M  V30 14843 H 1345.68 -1.44617 0.887912 0
M  V30 14844 H 1344.45 -3.49642 1.75688 0
M  V30 14845 H 1344.07 -3.97448 0.109843 0
M  V30 14846 N 1345.07 -0.557671 -1.47404 0
M  V30 14847 C 1346.3 -0.0366797 -2.07368 0
M  V30 14848 C 1346.72 1.2478 -1.40754 0
M  V30 14849 O 1346.08 1.74757 -0.48268 0
M  V30 14850 C 1346.13 0.141728 -3.60321 0
M  V30 14851 O 1345.23 1.20419 -3.94427 0
M  V30 14852 H 1344.57 -0.0515319 -0.661997 0
M  V30 14853 H 1347.1 -0.773485 -1.89416 0
M  V30 14854 H 1347.11 0.355787 -4.06446 0
M  V30 14855 H 1345.79 -0.796433 -4.08203 0
M  V30 14856 H 1344.36 0.970589 -3.60047 0
M  V30 14857 N 1346.55 1.54831 -0.294147 0
M  V30 14858 C 1347.48 2.26226 0.57827 0
M  V30 14859 C 1348.46 1.25928 1.14351 0
M  V30 14860 O 1349.65 1.54687 1.17412 0
M  V30 14861 C 1346.78 2.99783 1.75349 0
M  V30 14862 C 1345.73 4.07171 1.31892 0
M  V30 14863 C 1345.06 4.68406 2.57876 0
M  V30 14864 C 1346.36 5.20313 0.455167 0
M  V30 14865 H 1348.05 2.99395 -0.0171936 0
M  V30 14866 H 1345.6 1.43997 -0.00970944 0
M  V30 14867 H 1347.55 3.48448 2.36986 0
M  V30 14868 H 1346.27 2.24181 2.37509 0
M  V30 14869 H 1344.93 3.59346 0.725653 0
M  V30 14870 H 1344.58 3.89451 3.18335 0
M  V30 14871 H 1344.28 5.40927 2.29502 0
M  V30 14872 H 1345.8 5.1983 3.20327 0
M  V30 14873 H 1347.22 5.64913 0.977026 0
M  V30 14874 H 1345.61 5.99512 0.265501 0
M  V30 14875 H 1346.68 4.82088 -0.521434 0
M  V30 14876 N 1348.03 0.0217466 1.57585 0
M  V30 14877 C 1348.94 -0.978407 2.13224 0
M  V30 14878 C 1349.95 -1.36212 1.08269 0
M  V30 14879 O 1351.13 -1.44504 1.40288 0
M  V30 14880 C 1348.19 -2.24462 2.6423 0
M  V30 14881 C 1347.26 -1.92201 3.83871 0
M  V30 14882 C 1346.49 -3.12786 4.32436 0
M  V30 14883 O 1346.71 -4.25201 3.8021 0
M  V30 14884 O 1345.65 -2.95514 5.24362 0
M  V30 14885 H 1349.47 -0.535347 2.98944 0
M  V30 14886 H 1347.06 -0.198414 1.48077 0
M  V30 14887 H 1348.94 -2.98809 2.97138 0
M  V30 14888 H 1347.61 -2.67964 1.81596 0
M  V30 14889 H 1346.52 -1.15262 3.55901 0
M  V30 14890 H 1347.85 -1.53521 4.67645 0
M  V30 14891 N 1349.51 -1.55583 -0.251311 0
M  V30 14892 C 1350.73 -1.81597 -1.00186 0
M  V30 14893 C 1351.16 -0.598216 -1.78334 0
M  V30 14894 O 1350.51 0.452667 -1.75558 0
M  V30 14895 C 1350.56 -3.05301 -1.91895 0
M  V30 14896 O 1349.67 -2.81907 -3.01002 0
M  V30 14897 H 1349.01 -0.599578 -0.285311 0
M  V30 14898 H 1351.54 -2.02762 -0.273638 0
M  V30 14899 H 1351.55 -3.34616 -2.33444 0
M  V30 14900 H 1350.22 -3.93574 -1.34433 0
M  V30 14901 H 1348.8 -2.63747 -2.63613 0
M  V30 14902 N 1350.98 0.516783 -1.48886 0
M  V30 14903 C 1351.92 1.63715 -1.58974 0
M  V30 14904 C 1352.89 1.56547 -0.439513 0
M  V30 14905 O 1354.08 1.76831 -0.652924 0
M  V30 14906 C 1351.21 3.02172 -1.53002 0
M  V30 14907 C 1350.25 3.27655 -2.73029 0
M  V30 14908 S 1351.08 3.12489 -4.34869 0
M  V30 14909 C 1352.24 4.53369 -4.31517 0
M  V30 14910 H 1352.47 1.5491 -2.53752 0
M  V30 14911 H 1350.01 0.700754 -1.37582 0
M  V30 14912 H 1351.96 3.82017 -1.50243 0
M  V30 14913 H 1350.63 3.08405 -0.59539 0
M  V30 14914 H 1349.82 4.28693 -2.65026 0
M  V30 14915 H 1349.42 2.55504 -2.73119 0
M  V30 14916 H 1351.71 5.45151 -4.02264 0
M  V30 14917 H 1352.66 4.66425 -5.32779 0
M  V30 14918 H 1353.06 4.3331 -3.61804 0
M  V30 14919 N 1352.46 1.37696 0.766659 0
M  V30 14920 C 1353.41 1.33871 1.88009 0
M  V30 14921 C 1354.38 0.2034 1.6485 0
M  V30 14922 O 1355.56 0.393569 1.86697 0
M  V30 14923 C 1352.7 1.1566 3.25141 0
M  V30 14924 C 1351.82 2.38465 3.6022 0
M  V30 14925 C 1350.95 2.13087 4.86587 0
M  V30 14926 C 1349.99 3.31732 5.14413 0
M  V30 14927 N 1349.13 3.05872 6.3197 0
M  V30 14928 H 1353.97 2.29065 1.90613 0
M  V30 14929 H 1351.5 1.13821 0.931837 0
M  V30 14930 H 1353.46 1.03122 4.04255 0
M  V30 14931 H 1352.09 0.241115 3.21898 0
M  V30 14932 H 1351.14 2.61725 2.76051 0
M  V30 14933 H 1352.46 3.26933 3.76718 0
M  V30 14934 H 1351.61 1.97609 5.73616 0
M  V30 14935 H 1350.35 1.21965 4.72203 0
M  V30 14936 H 1349.35 3.47743 4.25858 0
M  V30 14937 H 1350.58 4.23712 5.30702 0
M  V30 14938 H 1348.53 2.17384 6.18935 0
M  V30 14939 H 1348.44 3.87885 6.48908 0
M  V30 14940 H 1349.71 2.94023 7.21922 0
M  V30 14941 N 1353.94 -0.993397 1.22349 0
M  V30 14942 C 1355.19 -1.73287 1.04775 0
M  V30 14943 C 1355.51 -1.89973 -0.417201 0
M  V30 14944 O 1354.77 -1.43966 -1.32561 0
M  V30 14945 C 1355.07 -3.14191 1.70349 0
M  V30 14946 C 1354.73 -3.17421 3.20241 0
M  V30 14947 C 1353.4 -3.1801 3.61141 0
M  V30 14948 C 1355.75 -3.13751 4.16185 0
M  V30 14949 C 1353.08 -3.12628 4.96468 0
M  V30 14950 C 1355.43 -3.09911 5.51487 0
M  V30 14951 C 1354.09 -3.08815 5.91768 0
M  V30 14952 H 1353.36 -0.634102 0.3834 0
M  V30 14953 H 1356.01 -1.16346 1.52105 0
M  V30 14954 H 1354.31 -3.74437 1.15343 0
M  V30 14955 H 1356.01 -3.70149 1.54242 0
M  V30 14956 H 1352.6 -3.17713 2.87674 0
M  V30 14957 H 1356.79 -3.12446 3.85605 0
M  V30 14958 H 1352.04 -3.10125 5.26909 0
M  V30 14959 H 1356.22 -3.06026 6.25556 0
M  V30 14960 H 1353.84 -3.044 6.96595 0
M  V30 14961 N 1355.42 -1.03311 -1.19015 0
M  V30 14962 C 1356.67 -0.730593 -1.88432 0
M  V30 14963 C 1356.99 0.743392 -1.80274 0
M  V30 14964 O 1356.26 1.5359 -1.21601 0
M  V30 14965 H 1354.84 -0.267253 -0.697556 0
M  V30 14966 H 1357.5 -1.30824 -1.44468 0
M  V30 14967 H 1356.59 -1.02867 -2.9466 0
M  V30 14968 N 1356.9 1.35099 -0.81154 0
M  V30 14969 C 1358.17 1.93009 -0.317289 0
M  V30 14970 C 1358.55 1.74101 1.19382 0
M  V30 14971 O 1357.9 1.11295 1.99564 0
M  V30 14972 C 1358.11 3.41191 -0.734123 0
M  V30 14973 C 1359.46 4.1834 -0.726437 0
M  V30 14974 O 1360.48 3.49727 -0.67598 0
M  V30 14975 O 1359.34 5.4077 -0.789291 0
M  V30 14976 H 1356.44 0.822707 -0.084153 0
M  V30 14977 H 1358.98 1.44145 -0.895569 0
M  V30 14978 H 1357.75 3.48705 -1.7754 0
M  V30 14979 H 1357.38 3.97384 -0.130919 0
M  V30 14980 N 1358.37 0.56548 1.47106 0
M  V30 14981 C 1359.6 0.0476763 2.07345 0
M  V30 14982 C 1360.02 -1.24032 1.41413 0
M  V30 14983 O 1359.38 -1.74498 0.491941 0
M  V30 14984 C 1359.43 -0.122618 3.60391 0
M  V30 14985 O 1358.53 -1.18326 3.9506 0
M  V30 14986 H 1357.87 0.0550419 0.661715 0
M  V30 14987 H 1360.4 0.78352 1.89003 0
M  V30 14988 H 1360.41 -0.334227 4.06629 0
M  V30 14989 H 1359.09 0.81807 4.07775 0
M  V30 14990 H 1357.67 -0.951481 3.60557 0
M  V30 14991 N 1359.85 -1.54672 0.302354 0
M  V30 14992 C 1360.8 -2.25022 -0.58887 0
M  V30 14993 C 1361.79 -1.25671 -1.13592 0
M  V30 14994 O 1363 -1.43518 -1.0864 0
M  V30 14995 H 1359.38 -0.722515 -0.208509 0
M  V30 14996 H 1361.35 -2.98388 0.0269928 0
M  V30 14997 C 1360.1 -3.00532 -1.74859 0
M  V30 14998 H 1359.42 -3.76786 -1.33688 0
M  V30 14999 H 1360.86 -3.53036 -2.34823 0
M  V30 15000 C 1359.32 -2.0758 -2.65353 0
M  V30 15001 O 1359.85 -1.64473 -3.66485 0
M  V30 15002 N 1358.05 -1.73508 -2.33116 0
M  V30 15003 H 1357.6 -2.0876 -1.5092 0
M  V30 15004 H 1357.56 -1.11591 -2.9393 0
M  V30 15005 N 1361.33 -0.0301034 -1.57571 0
M  V30 15006 C 1362.56 0.658488 -1.96142 0
M  V30 15007 C 1362.97 1.65606 -0.906644 0
M  V30 15008 O 1362.33 1.82159 0.111441 0
M  V30 15009 C 1362.38 1.364 -3.34779 0
M  V30 15010 O 1362.1 0.4064 -4.36211 0
M  V30 15011 C 1363.6 2.14432 -3.87987 0
M  V30 15012 H 1360.82 0.181496 -0.645988 0
M  V30 15013 H 1363.37 -0.09016 -2.04301 0
M  V30 15014 H 1361.52 2.06404 -3.27836 0
M  V30 15015 H 1361.94 0.907503 -5.16589 0
M  V30 15016 H 1363.41 2.59248 -4.87334 0
M  V30 15017 H 1363.89 2.98377 -3.22285 0
M  V30 15018 H 1364.49 1.49383 -3.98202 0
M  V30 15019 N 1362.81 1.55714 0.243056 0
M  V30 15020 C 1364.05 1.77989 0.971993 0
M  V30 15021 C 1364.39 0.596038 1.84827 0
M  V30 15022 O 1363.66 -0.40554 1.90225 0
M  V30 15023 C 1363.95 3.10178 1.82925 0
M  V30 15024 C 1363.8 4.38974 0.9809 0
M  V30 15025 C 1365.12 3.38628 2.81103 0
M  V30 15026 H 1362.24 0.64754 0.35194 0
M  V30 15027 H 1364.88 1.88449 0.242237 0
M  V30 15028 H 1363.03 3.01392 2.45143 0
M  V30 15029 H 1364.7 4.59756 0.377113 0
M  V30 15030 H 1362.94 4.3286 0.285414 0
M  V30 15031 H 1363.61 5.27858 1.61461 0
M  V30 15032 H 1366.09 3.47403 2.29021 0
M  V30 15033 H 1364.97 4.32331 3.38203 0
M  V30 15034 H 1365.23 2.5973 3.57761 0
M  V30 15035 N 1364.29 -0.50888 1.49158 0
M  V30 15036 C 1365.22 -1.62869 1.5984 0
M  V30 15037 C 1366.2 -1.56312 0.447809 0
M  V30 15038 O 1367.38 -1.76482 0.662292 0
M  V30 15039 C 1364.51 -3.01356 1.54603 0
M  V30 15040 C 1363.55 -3.26202 2.74763 0
M  V30 15041 S 1364.39 -3.10178 4.3652 0
M  V30 15042 C 1365.54 -4.51075 4.33915 0
M  V30 15043 H 1365.78 -1.53562 2.5457 0
M  V30 15044 H 1363.31 -0.693448 1.37952 0
M  V30 15045 H 1365.27 -3.81215 1.52267 0
M  V30 15046 H 1363.93 -3.08085 0.611737 0
M  V30 15047 H 1363.12 -4.27281 2.67296 0
M  V30 15048 H 1362.72 -2.54052 2.7447 0
M  V30 15049 H 1365.02 -5.4301 4.05149 0
M  V30 15050 H 1365.96 -4.63593 5.35245 0
M  V30 15051 H 1366.37 -4.31385 3.64097 0
M  V30 15052 N 1365.76 -1.381 -0.759346 0
M  V30 15053 C 1367.18 -1.19171 -1.06162 0
M  V30 15054 C 1367.38 -0.0364043 -2.01467 0
M  V30 15055 O 1366.44 0.619635 -2.44779 0
M  V30 15056 C 1367.75 -2.51569 -1.64723 0
M  V30 15057 C 1369.3 -2.58201 -1.76921 0
M  V30 15058 C 1369.77 -3.9076 -2.38894 0
M  V30 15059 N 1371.26 -3.92269 -2.46331 0
M  V30 15060 C 1372 -4.91595 -2.95164 0
M  V30 15061 N 1371.49 -6.01318 -3.44075 0
M  V30 15062 N 1373.29 -4.7899 -2.94152 0
M  V30 15063 H 1365.44 -2.12021 -0.126788 0
M  V30 15064 H 1367.7 -0.940517 -0.118877 0
M  V30 15065 H 1367.41 -3.36535 -1.02162 0
M  V30 15066 H 1367.28 -2.69551 -2.6386 0
M  V30 15067 H 1369.67 -1.73634 -2.38611 0
M  V30 15068 H 1369.75 -2.44092 -0.765047 0
M  V30 15069 H 1369.39 -4.75747 -1.7784 0
M  V30 15070 H 1369.32 -4.02179 -3.39941 0
M  V30 15071 H 1371.81 -3.13015 -2.11731 0
M  V30 15072 H 1372.13 -6.73046 -3.79776 0
M  V30 15073 H 1370.47 -6.04946 -3.42148 0
M  V30 15074 H 1373.66 -3.92385 -2.55248 0
M  V30 15075 H 1373.84 -5.5655 -3.31897 0
M  V30 15076 N 1367.24 0.986894 -1.22875 0
M  V30 15077 C 1368.49 1.72729 -1.05693 0
M  V30 15078 C 1368.82 1.90191 0.407121 0
M  V30 15079 O 1368.07 1.44667 1.31796 0
M  V30 15080 C 1368.37 3.13283 -1.72012 0
M  V30 15081 C 1368.04 3.15719 -3.2192 0
M  V30 15082 C 1366.7 3.1609 -3.62823 0
M  V30 15083 C 1369.05 3.11539 -4.17843 0
M  V30 15084 C 1366.38 3.09991 -4.98119 0
M  V30 15085 C 1368.73 3.06982 -5.53123 0
M  V30 15086 C 1367.4 3.05672 -5.93397 0
M  V30 15087 H 1366.67 0.63206 -0.386758 0
M  V30 15088 H 1369.31 1.15538 -1.52719 0
M  V30 15089 H 1367.62 3.7382 -1.17327 0
M  V30 15090 H 1369.31 3.69326 -1.56203 0
M  V30 15091 H 1365.9 3.16183 -2.89355 0
M  V30 15092 H 1370.09 3.10397 -3.87256 0
M  V30 15093 H 1365.34 3.07326 -5.28546 0
M  V30 15094 H 1369.52 3.02705 -6.27171 0
M  V30 15095 H 1367.15 3.00701 -6.982 0
M  V30 15096 N 1368.72 1.0394 1.18466 0
M  V30 15097 C 1369.65 0.650182 2.24265 0
M  V30 15098 C 1370.63 -0.345968 1.66545 0
M  V30 15099 O 1371.82 -0.226348 1.92876 0
M  V30 15100 C 1368.95 0.0110451 3.47298 0
M  V30 15101 C 1367.9 0.930599 4.17761 0
M  V30 15102 C 1367.23 0.156005 5.34472 0
M  V30 15103 C 1368.53 2.24913 4.71393 0
M  V30 15104 H 1370.22 1.53465 2.57078 0
M  V30 15105 H 1367.77 0.739343 1.23571 0
M  V30 15106 H 1369.72 -0.272959 4.20515 0
M  V30 15107 H 1368.44 -0.908288 3.13716 0
M  V30 15108 H 1367.1 1.19897 3.4644 0
M  V30 15109 H 1366.75 -0.765695 4.97138 0
M  V30 15110 H 1366.45 0.768606 5.82551 0
M  V30 15111 H 1367.97 -0.121011 6.1048 0
M  V30 15112 H 1369.39 2.02592 5.36311 0
M  V30 15113 H 1367.79 2.81459 5.30001 0
M  V30 15114 H 1368.86 2.8965 3.88884 0
M  V30 15115 N 1370.2 -1.34667 0.818693 0
M  V30 15116 C 1371.15 -2.31501 0.225816 0
M  V30 15117 C 1372.14 -1.57205 -0.631112 0
M  V30 15118 O 1373.35 -1.72237 -0.522924 0
M  V30 15119 H 1369.72 -0.750039 0.0542747 0
M  V30 15120 H 1371.69 -2.79036 1.05743 0
M  V30 15121 C 1370.44 -3.42464 -0.60114 0
M  V30 15122 H 1369.76 -3.9977 0.0489207 0
M  V30 15123 H 1371.2 -4.12468 -0.982154 0
M  V30 15124 C 1369.66 -2.86551 -1.77173 0
M  V30 15125 O 1370.19 -2.81085 -2.86974 0
M  V30 15126 N 1368.4 -2.43432 -1.58712 0
M  V30 15127 H 1367.95 -2.48077 -0.693958 0
M  V30 15128 H 1367.9 -2.06371 -2.37188 0
M  V30 15129 N 1371.68 -0.573274 -1.46804 0
M  V30 15130 C 1372.59 0.168081 -2.33997 0
M  V30 15131 C 1373.6 0.895652 -1.49178 0
M  V30 15132 O 1374.78 0.860951 -1.8207 0
M  V30 15133 C 1371.84 1.17483 -3.26188 0
M  V30 15134 C 1370.9 0.452956 -4.26904 0
M  V30 15135 C 1370.14 1.41175 -5.1469 0
M  V30 15136 O 1370.36 2.64767 -5.05227 0
M  V30 15137 O 1369.29 0.927472 -5.94711 0
M  V30 15138 H 1373.12 -0.547576 -2.98723 0
M  V30 15139 H 1370.71 -0.333747 -1.45624 0
M  V30 15140 H 1372.59 1.75557 -3.8309 0
M  V30 15141 H 1371.26 1.87213 -2.6407 0
M  V30 15142 H 1370.17 -0.169383 -3.73716 0
M  V30 15143 H 1371.5 -0.203186 -4.9178 0
M  V30 15144 N 1373.15 1.5451 -0.310553 0
M  V30 15145 C 1374.09 2.2134 0.595098 0
M  V30 15146 C 1375.1 1.20917 1.09009 0
M  V30 15147 O 1376.29 1.47458 1.0059 0
M  V30 15148 C 1373.39 2.85384 1.82782 0
M  V30 15149 C 1372.56 4.11826 1.47372 0
M  V30 15150 C 1371.62 4.59584 2.56259 0
M  V30 15151 O 1370.65 5.24567 2.20949 0
M  V30 15152 N 1371.85 4.32709 3.86967 0
M  V30 15153 H 1374.61 2.99691 0.0229291 0
M  V30 15154 H 1372.17 1.61351 -0.133173 0
M  V30 15155 H 1374.17 3.14263 2.54992 0
M  V30 15156 H 1372.74 2.10816 2.30815 0
M  V30 15157 H 1371.96 3.89853 0.583826 0
M  V30 15158 H 1373.24 4.94138 1.21265 0
M  V30 15159 H 1372.64 3.80669 4.18458 0
M  V30 15160 H 1371.2 4.66275 4.55446 0
M  V30 15161 N 1374.63 0.0384594 1.57553 0
M  V30 15162 C 1375.58 -0.940256 2.10779 0
M  V30 15163 C 1376.55 -1.31705 1.01208 0
M  V30 15164 O 1377.74 -1.40874 1.28683 0
M  V30 15165 C 1374.88 -2.21419 2.64703 0
M  V30 15166 C 1373.99 -1.89302 3.88315 0
M  V30 15167 C 1373.12 -3.1106 4.30599 0
M  V30 15168 C 1372.16 -2.74805 5.46945 0
M  V30 15169 N 1371.3 -3.89217 5.84341 0
M  V30 15170 H 1376.14 -0.479458 2.94118 0
M  V30 15171 H 1373.68 -0.22505 1.45368 0
M  V30 15172 H 1375.63 -2.95946 2.94061 0
M  V30 15173 H 1374.26 -2.65099 1.84181 0
M  V30 15174 H 1373.32 -1.04977 3.65628 0
M  V30 15175 H 1374.63 -1.58607 4.72912 0
M  V30 15176 H 1373.78 -3.93898 4.61442 0
M  V30 15177 H 1372.52 -3.44924 3.44788 0
M  V30 15178 H 1371.53 -1.9038 5.15786 0
M  V30 15179 H 1372.75 -2.42147 6.34462 0
M  V30 15180 H 1370.7 -4.22905 5.01485 0
M  V30 15181 H 1370.61 -3.62177 6.63599 0
M  V30 15182 H 1371.88 -4.72732 6.19794 0
M  V30 15183 N 1376.11 -1.55841 -0.234795 0
M  V30 15184 C 1377.06 -1.92165 -1.31055 0
M  V30 15185 C 1378.05 -0.802106 -1.49207 0
M  V30 15186 O 1379.26 -0.986832 -1.50538 0
M  V30 15187 H 1375.63 -0.610487 -0.439101 0
M  V30 15188 H 1377.61 -2.81955 -0.976926 0
M  V30 15189 C 1376.35 -2.24329 -2.65654 0
M  V30 15190 H 1375.68 -3.09982 -2.5249 0
M  V30 15191 H 1377.12 -2.53639 -3.3977 0
M  V30 15192 C 1375.58 -1.0638 -3.19664 0
M  V30 15193 O 1376.11 -0.318047 -4.00439 0
M  V30 15194 N 1374.31 -0.851167 -2.77855 0
M  V30 15195 H 1373.86 -1.45932 -2.12277 0
M  V30 15196 H 1373.82 -0.0636875 -3.14335 0
M  V30 15197 N 1377.59 0.500963 -1.49426 0
M  V30 15198 C 1378.52 1.61114 -1.69011 0
M  V30 15199 C 1379.5 1.61341 -0.538813 0
M  V30 15200 O 1380.69 1.78081 -0.77466 0
M  V30 15201 C 1377.82 2.99598 -1.75666 0
M  V30 15202 C 1376.77 3.14236 -2.90585 0
M  V30 15203 C 1376.1 4.54071 -2.82354 0
M  V30 15204 C 1377.4 2.94258 -4.3152 0
M  V30 15205 H 1379.09 1.44978 -2.61957 0
M  V30 15206 H 1376.64 0.69603 -1.26061 0
M  V30 15207 H 1378.59 3.77163 -1.87953 0
M  V30 15208 H 1377.31 3.16822 -0.793186 0
M  V30 15209 H 1375.97 2.39096 -2.779 0
M  V30 15210 H 1375.62 4.68172 -1.83914 0
M  V30 15211 H 1375.32 4.64806 -3.59485 0
M  V30 15212 H 1376.84 5.33696 -2.96649 0
M  V30 15213 H 1378.26 3.61592 -4.44886 0
M  V30 15214 H 1376.65 3.16464 -5.09873 0
M  V30 15215 H 1377.72 1.90383 -4.45962 0
M  V30 15216 N 1379.07 1.38501 0.752011 0
M  V30 15217 C 1380.02 1.32359 1.85648 0
M  V30 15218 C 1381 0.207578 1.59555 0
M  V30 15219 O 1382.19 0.443683 1.71349 0
M  V30 15220 C 1379.32 1.15253 3.23375 0
M  V30 15221 C 1378.41 2.31483 3.55354 0
M  V30 15222 N 1378.8 3.56929 3.58379 0
M  V30 15223 C 1377.1 2.2407 3.85628 0
M  V30 15224 C 1377.8 4.33691 3.87669 0
M  V30 15225 N 1376.77 3.63065 4.04579 0
M  V30 15226 H 1380.58 2.27336 1.86267 0
M  V30 15227 H 1378.09 1.31755 0.949441 0
M  V30 15228 H 1380.09 1.08937 4.02416 0
M  V30 15229 H 1378.75 0.212108 3.24006 0
M  V30 15230 H 1379.76 3.90578 3.40101 0
M  V30 15231 H 1376.44 1.38196 3.93965 0
M  V30 15232 H 1377.83 5.42349 3.9662 0
M  V30 15233 N 1380.55 -0.980364 1.23396 0
M  V30 15234 C 1381.77 -1.76223 1.09363 0
M  V30 15235 C 1382.2 -1.84801 -0.350759 0
M  V30 15236 O 1381.55 -1.30966 -1.2537 0
M  V30 15237 C 1381.6 -3.16728 1.72383 0
M  V30 15238 O 1380.71 -4.00439 0.986002 0
M  V30 15239 H 1380.05 -0.542174 0.383332 0
M  V30 15240 H 1382.58 -1.23066 1.6345 0
M  V30 15241 H 1382.59 -3.67307 1.77623 0
M  V30 15242 H 1381.26 -3.098 2.77483 0
M  V30 15243 H 1379.84 -3.58946 1.01054 0
M  V30 15244 N 1382.02 -1.04567 -1.17913 0
M  V30 15245 C 1382.93 -0.651674 -2.25367 0
M  V30 15246 C 1383.95 0.32437 -1.7095 0
M  V30 15247 O 1385.13 0.178039 -2.00612 0
M  V30 15248 C 1382.19 -0.0259452 -3.4669 0
M  V30 15249 C 1381.25 -1.05163 -4.1622 0
M  V30 15250 C 1380.48 -0.45567 -5.31751 0
M  V30 15251 O 1380.71 0.736698 -5.65623 0
M  V30 15252 O 1379.64 -1.18684 -5.90083 0
M  V30 15253 H 1383.47 -1.54704 -2.61344 0
M  V30 15254 H 1381.05 -0.816852 -1.25092 0
M  V30 15255 H 1382.93 0.322126 -4.20167 0
M  V30 15256 H 1381.61 0.843165 -3.12526 0
M  V30 15257 H 1380.52 -1.45159 -3.44789 0
M  V30 15258 H 1381.85 -1.89168 -4.54397 0
M  V30 15259 N 1383.5 1.34231 -0.825823 0
M  V30 15260 C 1384.75 1.97454 -0.411661 0
M  V30 15261 C 1385.06 1.66193 1.03147 0
M  V30 15262 O 1386.27 2.22929 1.54968 0
M  V30 15263 C 1384.73 3.53318 -0.685145 0
M  V30 15264 C 1384.33 3.9347 -2.14208 0
M  V30 15265 C 1386.08 4.23158 -0.337291 0
M  V30 15266 C 1383.98 5.42258 -2.3603 0
M  V30 15267 H 1382.91 0.738889 -0.150196 0
M  V30 15268 H 1385.57 1.53033 -1.01258 0
M  V30 15269 H 1383.95 3.95998 -0.0140178 0
M  V30 15270 H 1385.12 3.61888 -2.85261 0
M  V30 15271 H 1383.44 3.36575 -2.45165 0
M  V30 15272 H 1386.03 5.32558 -0.47813 0
M  V30 15273 H 1386.38 4.10053 0.718499 0
M  V30 15274 H 1386.91 3.85965 -0.963113 0
M  V30 15275 H 1383.65 5.60352 -3.40126 0
M  V30 15276 H 1383.17 5.75345 -1.69524 0
M  V30 15277 H 1384.85 6.08976 -2.18533 0
M  V30 15278 N 1384.98 0.581051 1.46498 0
M  V30 15279 C 1386.2 0.0696654 2.07283 0
M  V30 15280 C 1386.63 -1.22525 1.42721 0
M  V30 15281 O 1385.99 -1.73967 0.510421 0
M  V30 15282 C 1386.04 -0.0843864 3.60501 0
M  V30 15283 O 1385.14 -1.14129 3.96293 0
M  V30 15284 H 1384.48 0.0620572 0.661094 0
M  V30 15285 H 1387.01 0.803522 1.88161 0
M  V30 15286 H 1387.02 -0.29108 4.0696 0
M  V30 15287 H 1385.7 0.861274 4.06884 0
M  V30 15288 H 1384.27 -0.913186 3.61546 0
M  V30 15289 N 1386.46 -1.54343 0.318742 0
M  V30 15290 C 1387.71 -2.00084 -0.284713 0
M  V30 15291 C 1388.03 -1.20855 -1.53033 0
M  V30 15292 O 1387.3 -0.309104 -1.93446 0
M  V30 15293 H 1385.88 -0.739123 -0.108193 0
M  V30 15294 H 1388.54 -1.90002 0.434174 0
M  V30 15295 H 1387.63 -3.07314 -0.544459 0
M  V30 15296 N 1387.94 -0.0468143 -1.5753 0
M  V30 15297 C 1388.88 0.929065 -2.11275 0
M  V30 15298 C 1389.85 1.31166 -1.01905 0
M  V30 15299 O 1391.04 1.40189 -1.29428 0
M  V30 15300 C 1388.18 2.20012 -2.65873 0
M  V30 15301 C 1387.29 1.8724 -3.89314 0
M  V30 15302 C 1386.43 3.08772 -4.32242 0
M  V30 15303 C 1385.46 2.719 -5.48395 0
M  V30 15304 N 1384.6 3.86112 -5.86397 0
M  V30 15305 H 1389.44 0.463854 -2.94368 0
M  V30 15306 H 1386.98 0.217338 -1.45486 0
M  V30 15307 H 1388.94 2.94383 -2.95626 0
M  V30 15308 H 1387.57 2.64118 -1.85584 0
M  V30 15309 H 1386.62 1.03037 -3.6618 0
M  V30 15310 H 1387.93 1.56096 -4.73746 0
M  V30 15311 H 1387.08 3.91446 -4.63525 0
M  V30 15312 H 1385.82 3.4309 -3.46613 0
M  V30 15313 H 1384.83 1.87642 -5.16789 0
M  V30 15314 H 1386.05 2.38779 -6.35737 0
M  V30 15315 H 1384 4.2024 -5.03721 0
M  V30 15316 H 1383.92 3.58652 -6.65511 0
M  V30 15317 H 1385.18 4.69438 -6.22293 0
M  V30 15318 N 1389.41 1.55964 0.226527 0
M  V30 15319 C 1390.83 1.48844 0.575999 0
M  V30 15320 C 1391.03 0.740966 1.87382 0
M  V30 15321 O 1390.09 0.278599 2.50958 0
M  V30 15322 C 1391.4 2.93371 0.65984 0
M  V30 15323 C 1392.95 3.03862 0.750802 0
M  V30 15324 C 1393.42 4.49738 0.86603 0
M  V30 15325 N 1394.91 4.5376 0.930379 0
M  V30 15326 C 1395.65 5.63905 1.03916 0
M  V30 15327 N 1395.14 6.83814 1.1122 0
M  V30 15328 N 1396.94 5.51746 1.07391 0
M  V30 15329 H 1389.09 2.02991 -0.625179 0
M  V30 15330 H 1391.35 0.922435 -0.218674 0
M  V30 15331 H 1391.06 3.50985 -0.22411 0
M  V30 15332 H 1390.93 3.44994 1.52509 0
M  V30 15333 H 1393.32 2.46316 1.6252 0
M  V30 15334 H 1393.4 2.55416 -0.140019 0
M  V30 15335 H 1393.04 5.079 -0.00388632 0
M  V30 15336 H 1392.97 4.95884 1.77219 0
M  V30 15337 H 1395.46 3.67404 0.884451 0
M  V30 15338 H 1395.78 7.63507 1.19484 0
M  V30 15339 H 1394.12 6.86535 1.08142 0
M  V30 15340 H 1397.31 4.56997 1.01347 0
M  V30 15341 H 1397.49 6.37619 1.15523 0
M  V30 15342 N 1390.89 -0.493031 1.4969 0
M  V30 15343 C 1392.17 -1.25436 1.50084 0
M  V30 15344 C 1392.55 -2.0981 0.233038 0
M  V30 15345 O 1391.9 -2.14617 -0.784342 0
M  V30 15346 C 1392.11 -2.10425 2.78428 0
M  V30 15347 C 1393.46 -2.69349 3.28232 0
M  V30 15348 O 1394.48 -2.20686 2.796 0
M  V30 15349 O 1393.34 -3.57956 4.12953 0
M  V30 15350 H 1390.43 -0.568044 0.601045 0
M  V30 15351 H 1392.98 -0.506648 1.6196 0
M  V30 15352 H 1391.75 -1.48108 3.62187 0
M  V30 15353 H 1391.37 -2.92374 2.6945 0
M  V30 15354 N 1392.37 -1.38898 -0.744656 0
M  V30 15355 C 1393.32 -1.36845 -1.85855 0
M  V30 15356 C 1394.29 -0.2296 -1.64505 0
M  V30 15357 O 1395.47 -0.423221 -1.86047 0
M  V30 15358 C 1392.61 -1.20818 -3.2326 0
M  V30 15359 C 1391.73 -2.44166 -3.5638 0
M  V30 15360 C 1390.86 -2.20801 -4.83136 0
M  V30 15361 C 1389.9 -3.39874 -5.0907 0
M  V30 15362 N 1389.04 -3.15888 -6.27024 0
M  V30 15363 H 1393.88 -2.32068 -1.86945 0
M  V30 15364 H 1391.41 -1.15289 -0.913611 0
M  V30 15365 H 1393.37 -1.0954 -4.02563 0
M  V30 15366 H 1392 -0.292295 -3.21474 0
M  V30 15367 H 1391.05 -2.66083 -2.71852 0
M  V30 15368 H 1392.37 -3.32885 -3.71469 0
M  V30 15369 H 1391.52 -2.0671 -5.704 0
M  V30 15370 H 1390.26 -1.29462 -4.70203 0
M  V30 15371 H 1389.26 -3.54474 -4.20271 0
M  V30 15372 H 1390.49 -4.32102 -5.23894 0
M  V30 15373 H 1388.43 -2.27204 -6.15398 0
M  V30 15374 H 1388.35 -3.9816 -6.42655 0
M  V30 15375 H 1389.62 -3.0547 -7.17153 0
M  V30 15376 N 1393.85 0.973806 -1.23914 0
M  V30 15377 C 1395.07 1.7564 -1.10296 0
M  V30 15378 C 1395.5 1.84984 0.340954 0
M  V30 15379 O 1394.86 1.31629 1.24674 0
M  V30 15380 C 1394.9 3.15809 -1.7406 0
M  V30 15381 O 1394.01 3.99911 -1.00722 0
M  V30 15382 H 1393.35 0.540133 -0.386202 0
M  V30 15383 H 1395.88 1.22197 -1.64101 0
M  V30 15384 H 1395.89 3.66359 -1.79568 0
M  V30 15385 H 1394.56 3.08324 -2.79122 0
M  V30 15386 H 1393.14 3.58405 -1.02956 0
M  V30 15387 N 1395.33 1.05191 1.17357 0
M  V30 15388 C 1396.24 0.663617 2.25018 0
M  V30 15389 C 1397.25 -0.315299 1.71119 0
M  V30 15390 O 1398.43 -0.167398 2.00703 0
M  V30 15391 C 1395.49 0.0443307 3.46672 0
M  V30 15392 C 1394.55 1.07369 4.15656 0
M  V30 15393 C 1393.79 0.483864 5.31502 0
M  V30 15394 O 1394.01 -0.706692 5.66005 0
M  V30 15395 O 1392.94 1.21812 5.89445 0
M  V30 15396 H 1396.77 1.56088 2.60519 0
M  V30 15397 H 1394.36 0.823474 1.24657 0
M  V30 15398 H 1396.24 -0.299839 4.20332 0
M  V30 15399 H 1394.91 -0.826579 3.12969 0
M  V30 15400 H 1393.82 1.46985 3.44015 0
M  V30 15401 H 1395.15 1.91575 4.53387 0
M  V30 15402 N 1396.8 -1.33791 0.83293 0
M  V30 15403 C 1397.71 -2.33108 0.264169 0
M  V30 15404 C 1398.73 -1.6308 -0.606694 0
M  V30 15405 O 1399.91 -1.94777 -0.512225 0
M  V30 15406 C 1396.97 -3.42208 -0.556315 0
M  V30 15407 C 1396.03 -4.27966 0.338123 0
M  V30 15408 C 1395.27 -5.31856 -0.443297 0
M  V30 15409 O 1395.49 -5.45234 -1.6756 0
M  V30 15410 O 1394.42 -6.01632 0.179599 0
M  V30 15411 H 1398.25 -2.83602 1.08645 0
M  V30 15412 H 1395.83 -1.37027 0.595307 0
M  V30 15413 H 1397.72 -4.088 -1.02277 0
M  V30 15414 H 1396.39 -2.9394 -1.35575 0
M  V30 15415 H 1395.3 -3.64262 0.852293 0
M  V30 15416 H 1396.63 -4.79701 1.10217 0
M  V30 15417 N 1398.28 -0.588812 -1.46187 0
M  V30 15418 C 1399.53 -0.0768417 -2.02654 0
M  V30 15419 C 1399.86 1.28213 -1.4586 0
M  V30 15420 O 1399.14 1.8415 -0.626022 0
M  V30 15421 C 1399.42 -0.0176429 -3.60096 0
M  V30 15422 C 1399.27 -1.40595 -4.27262 0
M  V30 15423 C 1400.59 0.679864 -4.34817 0
M  V30 15424 H 1397.71 -0.0293981 -0.736413 0
M  V30 15425 H 1400.35 -0.757183 -1.74261 0
M  V30 15426 H 1398.5 0.56174 -3.84417 0
M  V30 15427 H 1400.17 -2.03097 -4.14185 0
M  V30 15428 H 1398.42 -1.97196 -3.86388 0
M  V30 15429 H 1399.09 -1.31694 -5.3606 0
M  V30 15430 H 1401.56 0.1876 -4.15677 0
M  V30 15431 H 1400.44 0.690333 -5.44542 0
M  V30 15432 H 1400.7 1.74237 -4.06318 0
M  V30 15433 N 1399.76 1.54172 -0.326923 0
M  V30 15434 C 1400.69 2.21958 0.571588 0
M  V30 15435 C 1401.71 1.22067 1.0772 0
M  V30 15436 O 1402.89 1.48517 0.990202 0
M  V30 15437 C 1399.99 2.87307 1.79744 0
M  V30 15438 C 1399.17 4.13366 1.42995 0
M  V30 15439 C 1398.23 4.62276 2.5137 0
M  V30 15440 O 1397.25 5.2688 2.15373 0
M  V30 15441 N 1398.45 4.36789 3.82355 0
M  V30 15442 H 1401.22 2.99699 -0.00885848 0
M  V30 15443 H 1398.78 1.61201 -0.150279 0
M  V30 15444 H 1400.77 3.1695 2.51644 0
M  V30 15445 H 1399.34 2.13252 2.28566 0
M  V30 15446 H 1398.56 3.9045 0.542444 0
M  V30 15447 H 1399.85 4.95396 1.16017 0
M  V30 15448 H 1399.25 3.85086 4.14397 0
M  V30 15449 H 1397.81 4.71079 4.50475 0
M  V30 15450 N 1401.24 0.0551678 1.57503 0
M  V30 15451 C 1402.19 -0.917847 2.11764 0
M  V30 15452 C 1403.16 -1.30624 1.02599 0
M  V30 15453 O 1404.34 -1.39501 1.30169 0
M  V30 15454 C 1401.48 -2.18599 2.67036 0
M  V30 15455 C 1400.59 -1.85173 3.90301 0
M  V30 15456 C 1399.73 -3.06475 4.33874 0
M  V30 15457 C 1398.77 -2.68988 5.49829 0
M  V30 15458 N 1397.9 -3.82997 5.88437 0
M  V30 15459 H 1402.74 -0.448236 2.9461 0
M  V30 15460 H 1400.28 -0.209619 1.45599 0
M  V30 15461 H 1402.24 -2.92811 2.97183 0
M  V30 15462 H 1400.87 -2.6313 1.86982 0
M  V30 15463 H 1399.92 -1.01094 3.66721 0
M  V30 15464 H 1401.23 -1.53582 4.74567 0
M  V30 15465 H 1400.39 -3.88982 4.65594 0
M  V30 15466 H 1399.13 -3.41247 3.48427 0
M  V30 15467 H 1398.13 -1.84899 5.17776 0
M  V30 15468 H 1399.36 -2.35404 6.36994 0
M  V30 15469 H 1397.3 -4.17562 5.05942 0
M  V30 15470 H 1397.22 -3.55118 6.67403 0
M  V30 15471 H 1398.49 -4.66131 6.24773 0
M  V30 15472 N 1402.72 -1.56081 -0.218252 0
M  V30 15473 C 1403.97 -1.78445 -0.94022 0
M  V30 15474 C 1404.28 -0.624317 -1.85369 0
M  V30 15475 O 1405.48 -0.731669 -2.61455 0
M  V30 15476 C 1403.94 -3.16026 -1.72208 0
M  V30 15477 C 1403.55 -4.39774 -0.854584 0
M  V30 15478 C 1405.29 -3.47714 -2.43506 0
M  V30 15479 C 1403.2 -5.68379 -1.63398 0
M  V30 15480 H 1402.13 -0.665303 -0.354806 0
M  V30 15481 H 1404.78 -1.82471 -0.194021 0
M  V30 15482 H 1403.16 -3.06185 -2.5113 0
M  V30 15483 H 1404.34 -4.60679 -0.105659 0
M  V30 15484 H 1402.65 -4.15627 -0.253562 0
M  V30 15485 H 1405.25 -4.41026 -3.02325 0
M  V30 15486 H 1405.59 -2.70367 -3.16555 0
M  V30 15487 H 1406.12 -3.58899 -1.71571 0
M  V30 15488 H 1402.86 -6.48628 -0.946704 0
M  V30 15489 H 1402.38 -5.5153 -2.35743 0
M  V30 15490 H 1404.06 -6.08672 -2.1938 0
M  V30 15491 N 1404.2 0.485086 -1.49949 0
M  V30 15492 C 1405.16 1.56713 -1.67253 0
M  V30 15493 C 1406.16 1.51329 -0.543701 0
M  V30 15494 O 1407.35 1.54198 -0.810472 0
M  V30 15495 C 1404.48 2.9636 -1.68475 0
M  V30 15496 H 1405.67 1.42693 -2.63778 0
M  V30 15497 H 1403.23 0.710473 -1.39219 0
M  V30 15498 H 1403.96 3.1584 -0.735924 0
M  V30 15499 H 1403.75 3.01675 -2.50469 0
M  V30 15500 H 1405.24 3.74945 -1.83865 0
M  V30 15501 N 1405.67 1.39291 0.737279 0
M  V30 15502 C 1406.58 1.40098 1.88175 0
M  V30 15503 C 1407.6 0.296053 1.71463 0
M  V30 15504 O 1408.78 0.537153 1.94105 0
M  V30 15505 C 1405.84 1.24071 3.2374 0
M  V30 15506 C 1404.9 2.44515 3.52861 0
M  V30 15507 C 1404.13 2.29243 4.81958 0
M  V30 15508 O 1404.36 1.2947 5.55512 0
M  V30 15509 O 1403.29 3.18178 5.10927 0
M  V30 15510 H 1407.12 2.36565 1.90449 0
M  V30 15511 H 1404.7 1.20382 0.884786 0
M  V30 15512 H 1406.58 1.17257 4.04758 0
M  V30 15513 H 1405.26 0.30698 3.22241 0
M  V30 15514 H 1404.17 2.56905 2.71939 0
M  V30 15515 H 1405.5 3.36573 3.59137 0
M  V30 15516 N 1407.15 -0.967221 1.24429 0
M  V30 15517 C 1408.08 -2.07966 1.06172 0
M  V30 15518 C 1409.06 -1.70081 -0.0254566 0
M  V30 15519 O 1410.25 -1.93682 0.141705 0
M  V30 15520 C 1407.38 -3.4085 0.666251 0
M  V30 15521 C 1406.33 -3.92692 1.70225 0
M  V30 15522 C 1405.66 -5.21925 1.16183 0
M  V30 15523 C 1406.96 -4.20478 3.09831 0
M  V30 15524 H 1408.65 -2.23497 1.99222 0
M  V30 15525 H 1406.2 -1.07398 0.959255 0
M  V30 15526 H 1408.15 -4.1811 0.52552 0
M  V30 15527 H 1406.87 -3.2522 -0.299939 0
M  V30 15528 H 1405.53 -3.17588 1.83121 0
M  V30 15529 H 1405.18 -5.02655 0.186237 0
M  V30 15530 H 1404.88 -5.57579 1.85416 0
M  V30 15531 H 1406.41 -6.01795 1.03323 0
M  V30 15532 H 1407.82 -4.88442 3.00162 0
M  V30 15533 H 1406.22 -4.67362 3.7642 0
M  V30 15534 H 1407.29 -3.27235 3.57834 0
M  V30 15535 N 1408.63 -1.05812 -1.16797 0
M  V30 15536 C 1409.87 -0.781055 -1.88889 0
M  V30 15537 C 1410.23 0.679797 -1.79563 0
M  V30 15538 O 1411.43 1.07124 -2.46532 0
M  V30 15539 C 1409.71 -1.25598 -3.34604 0
M  V30 15540 S 1411.26 -1.10724 -4.24601 0
M  V30 15541 H 1408.08 -0.28347 -0.652047 0
M  V30 15542 H 1410.68 -1.35404 -1.41018 0
M  V30 15543 H 1409.39 -2.31421 -3.38928 0
M  V30 15544 H 1408.92 -0.677541 -3.87522 0
M  V30 15545 H 1410.93 -0.0351807 -4.96188 0
M  V30 15546 N 1410.11 1.33347 -0.840014 0
M  V30 15547 C 1411.07 2.27492 -0.279264 0
M  V30 15548 C 1412.07 1.51004 0.552669 0
M  V30 15549 O 1413.26 1.70305 0.366295 0
M  V30 15550 C 1410.39 3.35462 0.606466 0
M  V30 15551 H 1411.59 2.78601 -1.11001 0
M  V30 15552 H 1409.14 1.4377 -0.613187 0
M  V30 15553 H 1409.87 2.89596 1.45961 0
M  V30 15554 H 1409.66 3.92098 0.0111889 0
M  V30 15555 H 1411.15 4.05645 0.992052 0
M  V30 15556 N 1411.59 0.596556 1.45873 0
M  V30 15557 C 1412.53 -0.141327 2.3217 0
M  V30 15558 C 1413.53 -0.870652 1.45314 0
M  V30 15559 O 1414.73 -0.787469 1.61861 0
M  V30 15560 H 1411.11 -0.0644404 0.749234 0
M  V30 15561 H 1413.08 0.605115 2.922 0
M  V30 15562 C 1411.83 -1.13261 3.28736 0
M  V30 15563 H 1411.15 -0.580835 3.95558 0
M  V30 15564 H 1412.59 -1.61904 3.91871 0
M  V30 15565 C 1411.05 -2.20062 2.55097 0
M  V30 15566 O 1411.58 -3.27634 2.3242 0
M  V30 15567 N 1409.79 -1.95044 2.15421 0
M  V30 15568 H 1409.33 -1.07573 2.34064 0
M  V30 15569 H 1409.29 -2.66711 1.66472 0
M  V30 15570 N 1413.06 -1.53996 0.335095 0
M  V30 15571 C 1414.29 -2.05657 -0.268328 0
M  V30 15572 C 1414.71 -1.20897 -1.44102 0
M  V30 15573 O 1414.07 -0.220737 -1.79951 0
M  V30 15574 C 1414.12 -3.54331 -0.669481 0
M  V30 15575 O 1413.22 -3.7246 -1.77052 0
M  V30 15576 H 1412.56 -0.662386 -0.0462705 0
M  V30 15577 H 1415.09 -1.98723 0.486854 0
M  V30 15578 H 1415.1 -3.9681 -0.948971 0
M  V30 15579 H 1413.78 -4.15474 0.188168 0
M  V30 15580 H 1412.36 -3.41884 -1.48895 0
M  V30 15581 N 1414.54 -0.0635198 -1.57472 0
M  V30 15582 C 1415.79 0.607008 -1.92349 0
M  V30 15583 C 1416.1 1.71268 -0.944806 0
M  V30 15584 O 1417.31 2.44221 -1.18609 0
M  V30 15585 C 1415.77 1.13105 -3.41666 0
M  V30 15586 C 1415.37 0.0568256 -4.47964 0
M  V30 15587 C 1417.12 1.77611 -3.85557 0
M  V30 15588 C 1415.02 0.594443 -5.88405 0
M  V30 15589 H 1413.95 0.230506 -0.717902 0
M  V30 15590 H 1416.61 -0.134413 -1.83007 0
M  V30 15591 H 1414.99 1.92517 -3.46054 0
M  V30 15592 H 1416.16 -0.717371 -4.55182 0
M  V30 15593 H 1414.48 -0.491517 -4.13489 0
M  V30 15594 H 1417.07 2.18852 -4.87861 0
M  V30 15595 H 1417.42 2.6328 -3.22474 0
M  V30 15596 H 1417.95 1.04834 -3.83738 0
M  V30 15597 H 1414.69 -0.224893 -6.55114 0
M  V30 15598 H 1414.21 1.33635 -5.84724 0
M  V30 15599 H 1415.89 1.07346 -6.38033 0
M  V30 15600 N 1416.02 1.56195 0.209972 0
M  V30 15601 C 1416.97 1.93355 1.26026 0
M  V30 15602 C 1417.94 0.792195 1.45991 0
M  V30 15603 O 1419.12 1.04909 1.5937 0
M  V30 15604 C 1416.26 2.26558 2.60318 0
M  V30 15605 C 1415.37 3.53685 2.48055 0
M  V30 15606 C 1414.51 3.76279 3.7495 0
M  V30 15607 C 1413.55 4.96881 3.57457 0
M  V30 15608 N 1412.69 5.15806 4.76328 0
M  V30 15609 H 1417.53 2.82907 0.936357 0
M  V30 15610 H 1415.06 1.40015 0.451022 0
M  V30 15611 H 1417.02 2.43821 3.38537 0
M  V30 15612 H 1415.65 1.40165 2.90781 0
M  V30 15613 H 1414.7 3.44551 1.61211 0
M  V30 15614 H 1416.01 4.42057 2.31056 0
M  V30 15615 H 1415.17 3.93702 4.6161 0
M  V30 15616 H 1413.91 2.86209 3.94887 0
M  V30 15617 H 1412.91 4.79397 2.69181 0
M  V30 15618 H 1414.14 5.88447 3.38979 0
M  V30 15619 H 1412.08 4.28681 4.96557 0
M  V30 15620 H 1412 5.98332 4.62099 0
M  V30 15621 H 1413.27 5.37674 5.64382 0
M  V30 15622 N 1417.5 -0.477127 1.50204 0
M  V30 15623 C 1418.77 -1.23837 1.51406 0
M  V30 15624 C 1419.15 -2.09551 0.255278 0
M  V30 15625 O 1418.5 -2.15437 -0.761535 0
M  V30 15626 C 1418.71 -2.0746 2.80644 0
M  V30 15627 C 1420.06 -2.65852 3.31071 0
M  V30 15628 O 1421.08 -2.17708 2.81925 0
M  V30 15629 O 1419.94 -3.53556 4.16726 0
M  V30 15630 H 1417.04 -0.561638 0.607036 0
M  V30 15631 H 1419.58 -0.489442 1.62489 0
M  V30 15632 H 1418.36 -1.44258 3.63738 0
M  V30 15633 H 1417.98 -2.895 2.72536 0
M  V30 15634 N 1418.98 -1.3968 -0.729882 0
M  V30 15635 C 1420.21 -1.40263 -1.5169 0
M  V30 15636 C 1420.61 0.00325293 -1.892 0
M  V30 15637 O 1419.96 0.986225 -1.54982 0
M  V30 15638 C 1420.02 -2.21629 -2.83056 0
M  V30 15639 C 1419.68 -3.70204 -2.67951 0
M  V30 15640 C 1420.68 -4.63169 -2.36158 0
M  V30 15641 C 1418.37 -4.13851 -2.84662 0
M  V30 15642 C 1420.36 -5.97763 -2.21265 0
M  V30 15643 C 1418.05 -5.4852 -2.69387 0
M  V30 15644 C 1419.04 -6.4029 -2.37734 0
M  V30 15645 O 1418.73 -7.72478 -2.22561 0
M  V30 15646 H 1418.46 -0.480808 -0.475184 0
M  V30 15647 H 1421.02 -1.84184 -0.909136 0
M  V30 15648 H 1419.25 -1.72465 -3.46111 0
M  V30 15649 H 1420.94 -2.14328 -3.447 0
M  V30 15650 H 1421.7 -4.30748 -2.22893 0
M  V30 15651 H 1417.58 -3.42751 -3.0829 0
M  V30 15652 H 1421.13 -6.69359 -1.96481 0
M  V30 15653 H 1417.02 -5.8053 -2.82232 0
M  V30 15654 H 1417.79 -7.83258 -2.37591 0
M  V30 15655 N 1420.45 0.960609 -1.2494 0
M  V30 15656 C 1421.36 2.0902 -1.06527 0
M  V30 15657 C 1422.38 1.74 -0.00406641 0
M  V30 15658 O 1423.56 2.00367 -0.203744 0
M  V30 15659 C 1420.62 3.39971 -0.679736 0
M  V30 15660 C 1419.68 3.88895 -1.81821 0
M  V30 15661 C 1418.92 5.13597 -1.45098 0
M  V30 15662 O 1419.14 5.69362 -0.343954 0
M  V30 15663 O 1418.07 5.57083 -2.27909 0
M  V30 15664 H 1421.9 2.27453 -2.01243 0
M  V30 15665 H 1419.48 1.07429 -1.03824 0
M  V30 15666 H 1421.37 4.18696 -0.47658 0
M  V30 15667 H 1420.04 3.22822 0.238231 0
M  V30 15668 H 1418.95 3.11201 -2.07617 0
M  V30 15669 H 1420.28 4.10533 -2.7152 0
M  V30 15670 N 1421.93 1.0643 1.16234 0
M  V30 15671 C 1422.86 0.697605 2.22836 0
M  V30 15672 C 1423.84 -0.310563 1.67241 0
M  V30 15673 O 1425.03 -0.185385 1.93313 0
M  V30 15674 C 1422.16 0.0847097 3.47197 0
M  V30 15675 C 1421.11 1.019 4.15693 0
M  V30 15676 C 1420.44 0.269339 5.34021 0
M  V30 15677 C 1421.74 2.34861 4.66516 0
M  V30 15678 H 1423.43 1.58883 2.53765 0
M  V30 15679 H 1420.98 0.765388 1.21975 0
M  V30 15680 H 1422.93 -0.1837 4.20999 0
M  V30 15681 H 1421.66 -0.84154 3.15572 0
M  V30 15682 H 1420.31 1.27218 3.43818 0
M  V30 15683 H 1419.96 -0.660072 4.9865 0
M  V30 15684 H 1419.66 0.892001 5.8079 0
M  V30 15685 H 1421.19 0.00850775 6.10599 0
M  V30 15686 H 1422.6 2.13922 5.31893 0
M  V30 15687 H 1421 2.92637 5.23912 0
M  V30 15688 H 1422.07 2.97834 3.82653 0
M  V30 15689 N 1423.41 -1.329 0.847073 0
M  V30 15690 C 1424.34 -2.27903 0.243522 0
M  V30 15691 C 1425.36 -1.52101 -0.58043 0
M  V30 15692 O 1426.54 -1.73818 -0.406158 0
M  V30 15693 C 1423.64 -3.32107 -0.675118 0
M  V30 15694 C 1422.82 -4.37258 0.111305 0
M  V30 15695 C 1421.88 -5.21085 -0.731933 0
M  V30 15696 O 1420.9 -5.68951 -0.168176 0
M  V30 15697 N 1422.1 -5.43175 -2.04794 0
M  V30 15698 H 1424.87 -2.80335 1.05983 0
M  V30 15699 H 1422.43 -1.4568 0.706322 0
M  V30 15700 H 1424.42 -3.85093 -1.2444 0
M  V30 15701 H 1422.99 -2.79891 -1.39212 0
M  V30 15702 H 1422.21 -3.8466 0.861991 0
M  V30 15703 H 1423.5 -5.04608 0.651756 0
M  V30 15704 H 1422.9 -5.06002 -2.5294 0
M  V30 15705 H 1421.46 -5.99186 -2.56552 0
M  V30 15706 N 1424.89 -0.604284 -1.45555 0
M  V30 15707 C 1425.82 0.103859 -2.33269 0
M  V30 15708 C 1426.8 0.862104 -1.46635 0
M  V30 15709 O 1427.98 0.833308 -1.75413 0
M  V30 15710 C 1425.11 1.104 -3.29286 0
M  V30 15711 C 1424.07 0.459189 -4.2553 0
M  V30 15712 C 1423.39 1.56734 -5.11213 0
M  V30 15713 C 1424.69 -0.617509 -5.18637 0
M  V30 15714 H 1426.39 -0.628538 -2.92728 0
M  V30 15715 H 1423.93 -0.303711 -1.40761 0
M  V30 15716 H 1425.89 1.60794 -3.89517 0
M  V30 15717 H 1424.61 1.86695 -2.67979 0
M  V30 15718 H 1423.27 -0.0238508 -3.66592 0
M  V30 15719 H 1422.92 2.32049 -4.46276 0
M  V30 15720 H 1422.62 1.14142 -5.76407 0
M  V30 15721 H 1424.14 2.07361 -5.74312 0
M  V30 15722 H 1425.56 -0.197784 -5.72959 0
M  V30 15723 H 1423.95 -0.96499 -5.9229 0
M  V30 15724 H 1425.02 -1.49541 -4.61265 0
M  V30 15725 N 1426.37 1.53816 -0.343257 0
M  V30 15726 C 1427.33 2.23654 0.501161 0
M  V30 15727 C 1428.33 1.23664 1.02781 0
M  V30 15728 O 1429.52 1.48104 0.917103 0
M  V30 15729 C 1426.65 2.95596 1.69812 0
M  V30 15730 H 1427.84 2.997 -0.109626 0
M  V30 15731 H 1425.4 1.56013 -0.0946011 0
M  V30 15732 H 1426.13 2.23736 2.34761 0
M  V30 15733 H 1425.92 3.68938 1.32768 0
M  V30 15734 H 1427.41 3.48748 2.29706 0
M  V30 15735 N 1427.84 0.0718701 1.57436 0
M  V30 15736 C 1429.07 -0.609701 1.98236 0
M  V30 15737 C 1429.49 -1.6235 0.949959 0
M  V30 15738 O 1428.85 -1.81103 -0.0844281 0
M  V30 15739 C 1428.9 -1.2547 3.38068 0
M  V30 15740 O 1428 -2.37055 3.37459 0
M  V30 15741 H 1427.35 -0.15679 0.645223 0
M  V30 15742 H 1429.88 0.146407 2.04076 0
M  V30 15743 H 1429.89 -1.60152 3.75254 0
M  V30 15744 H 1428.56 -0.511842 4.12738 0
M  V30 15745 H 1427.14 -2.04165 3.12043 0
M  V30 15746 N 1429.32 -1.56304 -0.201686 0
M  V30 15747 C 1430.55 -1.84074 -0.938103 0
M  V30 15748 C 1430.96 -0.651377 -1.77634 0
M  V30 15749 O 1430.3 0.389278 -1.79528 0
M  V30 15750 C 1430.37 -3.05856 -1.88924 0
M  V30 15751 C 1430.03 -4.40036 -1.2336 0
M  V30 15752 C 1431.03 -5.16265 -0.613737 0
M  V30 15753 C 1428.71 -4.86768 -1.23942 0
M  V30 15754 C 1430.71 -6.37399 -0.00844569 0
M  V30 15755 C 1428.39 -6.07841 -0.630296 0
M  V30 15756 C 1429.39 -6.82998 -0.0158799 0
M  V30 15757 O 1429.08 -8.01778 0.58372 0
M  V30 15758 H 1428.81 -0.615492 -0.279545 0
M  V30 15759 H 1431.36 -2.04262 -0.215938 0
M  V30 15760 H 1429.59 -2.81536 -2.65093 0
M  V30 15761 H 1431.28 -3.20328 -2.49289 0
M  V30 15762 H 1432.05 -4.81257 -0.601424 0
M  V30 15763 H 1427.93 -4.2823 -1.70705 0
M  V30 15764 H 1431.47 -6.96003 0.47174 0
M  V30 15765 H 1427.37 -6.42319 -0.640089 0
M  V30 15766 H 1428.14 -8.17091 0.479979 0
M  V30 15767 N 1430.8 0.469154 -1.50455 0
M  V30 15768 C 1432.03 1.24432 -1.653 0
M  V30 15769 C 1432.44 1.85766 -0.33713 0
M  V30 15770 O 1431.8 1.69313 0.681118 0
M  V30 15771 C 1431.85 2.35163 -2.74555 0
M  V30 15772 O 1431.57 1.76344 -4.01042 0
M  V30 15773 C 1433.07 3.26006 -3.00391 0
M  V30 15774 H 1430.29 0.376251 -0.555587 0
M  V30 15775 H 1432.84 0.559777 -1.96689 0
M  V30 15776 H 1430.99 2.99389 -2.45855 0
M  V30 15777 H 1431.41 2.49278 -4.61477 0
M  V30 15778 H 1432.88 3.99909 -3.80496 0
M  V30 15779 H 1433.36 3.84901 -2.11537 0
M  V30 15780 H 1433.96 2.67515 -3.3063 0
M  V30 15781 N 1432.28 1.40065 0.722464 0
M  V30 15782 C 1433.5 1.4146 1.5167 0
M  V30 15783 C 1433.93 0.0142653 1.88095 0
M  V30 15784 O 1433.29 -0.975934 1.52791 0
M  V30 15785 C 1433.33 2.30531 2.77287 0
M  V30 15786 O 1432.44 1.74382 3.73717 0
M  V30 15787 H 1431.78 0.481194 0.457546 0
M  V30 15788 H 1434.31 1.84213 0.890331 0
M  V30 15789 H 1434.32 2.45479 3.25889 0
M  V30 15790 H 1432.99 3.32292 2.50109 0
M  V30 15791 H 1431.57 1.68743 3.32536 0
M  V30 15792 N 1433.76 -0.95397 1.25448 0
M  V30 15793 C 1435.01 -1.6953 1.10018 0
M  V30 15794 C 1435.33 -1.9166 -0.359385 0
M  V30 15795 O 1434.6 -1.50417 -1.25506 0
M  V30 15796 H 1433.18 -0.628238 0.404136 0
M  V30 15797 H 1435.84 -1.14691 1.57581 0
M  V30 15798 H 1434.93 -2.67427 1.60901 0
M  V30 15799 N 1435.24 -1.07045 -1.15668 0
M  V30 15800 C 1436.17 -0.709413 -2.22463 0
M  V30 15801 C 1437.15 0.30169 -1.67403 0
M  V30 15802 O 1438.33 0.175131 -1.93409 0
M  V30 15803 C 1435.46 -0.103121 -3.47147 0
M  V30 15804 C 1434.42 -1.04103 -4.15146 0
M  V30 15805 C 1433.74 -0.297656 -5.33871 0
M  V30 15806 C 1435.04 -2.37332 -4.65264 0
M  V30 15807 H 1436.74 -1.60227 -2.52918 0
M  V30 15808 H 1434.28 -0.771846 -1.21567 0
M  V30 15809 H 1436.23 0.161371 -4.21091 0
M  V30 15810 H 1434.96 0.824792 -3.16014 0
M  V30 15811 H 1433.62 -1.2904 -3.43139 0
M  V30 15812 H 1433.27 0.633618 -4.98993 0
M  V30 15813 H 1432.97 -0.922789 -5.80309 0
M  V30 15814 H 1434.49 -0.0408892 -6.10586 0
M  V30 15815 H 1435.9 -2.1674 -5.30751 0
M  V30 15816 H 1434.3 -2.95412 -5.22352 0
M  V30 15817 H 1435.37 -2.99859 -3.81068 0
M  V30 15818 N 1436.71 1.32449 -0.85411 0
M  V30 15819 C 1437.62 2.32658 -0.301221 0
M  V30 15820 C 1438.64 1.64025 0.580673 0
M  V30 15821 O 1439.82 1.95568 0.481172 0
M  V30 15822 C 1436.88 3.43049 0.501803 0
M  V30 15823 C 1435.94 4.27374 -0.406166 0
M  V30 15824 C 1435.17 5.32494 0.358627 0
M  V30 15825 O 1435.4 5.4783 1.58865 0
M  V30 15826 O 1434.33 6.0127 -0.275291 0
M  V30 15827 H 1438.16 2.81838 -1.13143 0
M  V30 15828 H 1435.74 1.36063 -0.617032 0
M  V30 15829 H 1437.62 4.10375 0.957608 0
M  V30 15830 H 1436.3 2.9606 1.30882 0
M  V30 15831 H 1435.21 3.6286 -0.910136 0
M  V30 15832 H 1436.54 4.77887 -1.17835 0
M  V30 15833 N 1438.19 0.611994 1.45232 0
M  V30 15834 C 1439.42 0.115409 2.06578 0
M  V30 15835 C 1439.83 -1.20206 1.45588 0
M  V30 15836 O 1439.19 -1.73315 0.571668 0
M  V30 15837 C 1439.24 -0.0259943 3.61491 0
M  V30 15838 O 1438.96 1.23936 4.20204 0
M  V30 15839 C 1440.46 -0.553522 4.39831 0
M  V30 15840 H 1437.68 0.0708656 0.667247 0
M  V30 15841 H 1440.23 0.840977 1.86408 0
M  V30 15842 H 1438.38 -0.701909 3.80988 0
M  V30 15843 H 1438.8 1.07187 5.13431 0
M  V30 15844 H 1440.27 -0.601536 5.48713 0
M  V30 15845 H 1440.75 -1.57671 4.09923 0
M  V30 15846 H 1441.35 0.0884954 4.25208 0
M  V30 15847 N 1439.67 -1.53632 0.351409 0
M  V30 15848 C 1440.6 -2.28217 -0.49391 0
M  V30 15849 C 1441.58 -1.30085 -1.09599 0
M  V30 15850 O 1442.77 -1.58938 -1.1159 0
M  V30 15851 C 1439.9 -3.06085 -1.64102 0
M  V30 15852 C 1438.85 -4.11786 -1.16689 0
M  V30 15853 C 1438.18 -4.77654 -2.40314 0
M  V30 15854 C 1439.48 -5.21644 -0.261742 0
M  V30 15855 H 1441.17 -2.99125 0.1283 0
M  V30 15856 H 1438.72 -1.43861 0.0631462 0
M  V30 15857 H 1440.67 -3.57003 -2.2389 0
M  V30 15858 H 1439.39 -2.32842 -2.29025 0
M  V30 15859 H 1438.05 -3.61792 -0.591784 0
M  V30 15860 H 1437.7 -4.00997 -3.03661 0
M  V30 15861 H 1437.4 -5.49072 -2.09268 0
M  V30 15862 H 1438.92 -5.3136 -3.00813 0
M  V30 15863 H 1440.34 -5.6815 -0.766689 0
M  V30 15864 H 1438.73 -6.00085 -0.0428132 0
M  V30 15865 H 1439.8 -4.79821 0.699999 0
M  V30 15866 N 1441.15 -0.0802183 -1.57396 0
M  V30 15867 C 1442.08 0.881426 -2.16225 0
M  V30 15868 C 1443.06 1.30459 -1.09154 0
M  V30 15869 O 1444.24 1.37413 -1.37227 0
M  V30 15870 C 1441.37 2.14599 -2.73065 0
M  V30 15871 C 1440.33 1.86195 -3.85377 0
M  V30 15872 C 1439.65 3.19354 -4.28856 0
M  V30 15873 C 1440.95 1.16059 -5.09242 0
M  V30 15874 H 1442.65 0.391325 -2.96832 0
M  V30 15875 H 1440.19 0.186785 -1.42783 0
M  V30 15876 H 1442.15 2.82297 -3.12868 0
M  V30 15877 H 1440.87 2.65866 -1.89691 0
M  V30 15878 H 1439.53 1.209 -3.46091 0
M  V30 15879 H 1439.18 3.68479 -3.42392 0
M  V30 15880 H 1438.88 3.01137 -5.04569 0
M  V30 15881 H 1440.4 3.88235 -4.71281 0
M  V30 15882 H 1441.82 1.7384 -5.46308 0
M  V30 15883 H 1440.21 1.08072 -5.90288 0
M  V30 15884 H 1441.28 0.14098 -4.84695 0
M  V30 15885 N 1442.63 1.56409 0.193394 0
M  V30 15886 C 1443.57 1.95572 1.25914 0
M  V30 15887 C 1444.57 0.841384 1.47028 0
M  V30 15888 O 1445.77 1.0264 1.47868 0
M  V30 15889 H 1442.15 0.621914 0.422761 0
M  V30 15890 H 1444.12 2.84446 0.901827 0
M  V30 15891 C 1442.87 2.31293 2.59613 0
M  V30 15892 H 1442.19 3.16568 2.44182 0
M  V30 15893 H 1443.63 2.62558 3.32926 0
M  V30 15894 C 1442.09 1.14818 3.16731 0
M  V30 15895 O 1442.62 0.424105 3.99455 0
M  V30 15896 N 1440.83 0.924536 2.75501 0
M  V30 15897 H 1440.37 1.51509 2.08334 0
M  V30 15898 H 1440.33 0.147006 3.14056 0
M  V30 15899 N 1444.1 -0.461169 1.50702 0
M  V30 15900 C 1445.35 -1.20934 1.61425 0
M  V30 15901 C 1445.67 -1.92884 0.32481 0
M  V30 15902 O 1446.87 -2.69712 0.311081 0
M  V30 15903 C 1445.33 -2.19797 2.84987 0
M  V30 15904 C 1444.94 -1.53604 4.20844 0
M  V30 15905 C 1446.68 -2.95194 3.05059 0
M  V30 15906 C 1444.59 -2.50811 5.35582 0
M  V30 15907 H 1443.52 -0.455088 0.601174 0
M  V30 15908 H 1446.17 -0.478771 1.77144 0
M  V30 15909 H 1444.55 -2.96187 2.62848 0
M  V30 15910 H 1445.72 -0.829345 4.53275 0
M  V30 15911 H 1444.04 -0.904504 4.06457 0
M  V30 15912 H 1446.64 -3.67965 3.87951 0
M  V30 15913 H 1446.98 -3.5516 2.1718 0
M  V30 15914 H 1447.51 -2.25915 3.27425 0
M  V30 15915 H 1444.25 -1.9557 6.25646 0
M  V30 15916 H 1443.77 -3.19604 5.07556 0
M  V30 15917 H 1445.45 -3.12437 5.66561 0
M  V30 15918 N 1445.58 -1.40446 -0.715026 0
M  V30 15919 C 1446.99 -1.34564 -1.29419 0
M  V30 15920 C 1447.34 -0.0193984 -1.9619 0
M  V30 15921 O 1446.47 0.882616 -1.97582 0
M  V30 15922 C 1447.06 -2.43721 -2.35342 0
M  V30 15923 C 1445.62 -2.41297 -2.88881 0
M  V30 15924 C 1444.77 -2.2457 -1.62676 0
M  V30 15925 H 1447.72 -1.50244 -0.511116 0
M  V30 15926 H 1447.74 -2.1166 -3.16197 0
M  V30 15927 H 1447.25 -3.40234 -1.86715 0
M  V30 15928 H 1445.35 -1.48483 -3.41736 0
M  V30 15929 H 1445.47 -3.36903 -3.40637 0
M  V30 15930 H 1443.83 -1.72096 -1.87763 0
M  V30 15931 H 1444.61 -3.23082 -1.16074 0
M  V30 15932 N 1447.06 0.947303 -1.25952 0
M  V30 15933 C 1448.31 1.68721 -1.10527 0
M  V30 15934 C 1448.62 1.92403 0.352215 0
M  V30 15935 O 1449.83 2.6416 0.627036 0
M  V30 15936 C 1448.28 3.03785 -1.92983 0
M  V30 15937 C 1447.89 2.87873 -3.43268 0
M  V30 15938 C 1449.64 3.81509 -1.86149 0
M  V30 15939 C 1447.54 4.18373 -4.17993 0
M  V30 15940 H 1446.47 0.632774 -0.410016 0
M  V30 15941 H 1449.12 1.054 -1.5021 0
M  V30 15942 H 1447.51 3.68052 -1.46128 0
M  V30 15943 H 1448.68 2.32493 -3.97848 0
M  V30 15944 H 1446.99 2.23598 -3.51273 0
M  V30 15945 H 1449.59 4.78179 -2.39267 0
M  V30 15946 H 1449.93 4.07923 -0.83091 0
M  V30 15947 H 1450.47 3.24005 -2.30794 0
M  V30 15948 H 1447.21 3.97145 -5.21494 0
M  V30 15949 H 1446.73 4.7349 -3.68194 0
M  V30 15950 H 1448.41 4.86869 -4.26108 0
M  V30 15951 N 1448.54 1.07657 1.15099 0
M  V30 15952 C 1449.49 0.699678 2.19939 0
M  V30 15953 C 1450.46 -0.310432 1.63173 0
M  V30 15954 O 1451.64 -0.196177 1.89789 0
M  V30 15955 C 1448.78 0.106963 3.44934 0
M  V30 15956 C 1447.89 1.16892 4.15885 0
M  V30 15957 C 1447.03 0.540884 5.28439 0
M  V30 15958 C 1446.07 1.58542 5.91211 0
M  V30 15959 N 1445.2 0.979731 6.95231 0
M  V30 15960 H 1450.04 1.59805 2.51528 0
M  V30 15961 H 1447.58 0.798746 1.23525 0
M  V30 15962 H 1449.54 -0.254335 4.16424 0
M  V30 15963 H 1448.17 -0.754756 3.13852 0
M  V30 15964 H 1447.22 1.64775 3.4286 0
M  V30 15965 H 1448.53 1.96078 4.58645 0
M  V30 15966 H 1447.69 0.127397 6.06566 0
M  V30 15967 H 1446.43 -0.282708 4.8688 0
M  V30 15968 H 1445.43 2.00865 5.11794 0
M  V30 15969 H 1446.66 2.41135 6.34847 0
M  V30 15970 H 1444.6 0.177098 6.55761 0
M  V30 15971 H 1444.52 1.70878 7.36435 0
M  V30 15972 H 1445.79 0.591849 7.7725 0
M  V30 15973 N 1450.02 -1.31994 0.861122 0
M  V30 15974 C 1451.43 -1.49756 0.551844 0
M  V30 15975 C 1451.63 -1.79473 -0.916056 0
M  V30 15976 O 1450.69 -1.86813 -1.69874 0
M  V30 15977 C 1452 -2.63737 1.44442 0
M  V30 15978 C 1453.55 -2.77621 1.44552 0
M  V30 15979 C 1454.02 -3.94689 2.32346 0
M  V30 15980 N 1455.52 -4.01961 2.30177 0
M  V30 15981 C 1456.25 -4.91794 2.94833 0
M  V30 15982 N 1455.75 -5.86589 3.68626 0
M  V30 15983 N 1457.54 -4.84968 2.84188 0
M  V30 15984 H 1449.69 -1.10972 1.81105 0
M  V30 15985 H 1451.95 -0.54753 0.773896 0
M  V30 15986 H 1451.66 -2.48526 2.48853 0
M  V30 15987 H 1451.53 -3.59671 1.13651 0
M  V30 15988 H 1453.92 -2.92251 0.409034 0
M  V30 15989 H 1454 -1.8238 1.79363 0
M  V30 15990 H 1453.65 -3.80817 3.36067 0
M  V30 15991 H 1453.58 -4.89219 1.94865 0
M  V30 15992 H 1456.07 -3.34132 1.76533 0
M  V30 15993 H 1456.38 -6.51846 4.15111 0
M  V30 15994 H 1454.72 -5.86596 3.72734 0
M  V30 15995 H 1457.92 -4.09883 2.26084 0
M  V30 15996 H 1458.09 -5.54774 3.34857 0
M  V30 15997 N 1451.49 -0.619688 -1.44906 0
M  V30 15998 C 1452.72 -0.126363 -2.06514 0
M  V30 15999 C 1453.14 1.19432 -1.46224 0
M  V30 16000 O 1452.49 1.7301 -0.580851 0
M  V30 16001 C 1452.55 0.00682319 -3.61499 0
M  V30 16002 O 1452.27 -1.26162 -4.19541 0
M  V30 16003 C 1453.77 0.530189 -4.40118 0
M  V30 16004 H 1450.99 -0.0744032 -0.666862 0
M  V30 16005 H 1453.53 -0.850851 -1.85959 0
M  V30 16006 H 1451.69 0.681694 -3.81355 0
M  V30 16007 H 1452.1 -1.09908 -5.12855 0
M  V30 16008 H 1453.57 0.572428 -5.49024 0
M  V30 16009 H 1454.05 1.55494 -4.10753 0
M  V30 16010 H 1454.66 -0.111044 -4.25155 0
M  V30 16011 N 1452.97 1.53444 -0.359552 0
M  V30 16012 C 1453.91 2.21884 0.533192 0
M  V30 16013 C 1454.88 1.20858 1.08776 0
M  V30 16014 O 1456.07 1.49738 1.14502 0
M  V30 16015 C 1453.19 2.90883 1.73507 0
M  V30 16016 C 1452.24 4.05931 1.30851 0
M  V30 16017 S 1453.07 5.34574 0.314859 0
M  V30 16018 C 1454.23 6.07083 1.52321 0
M  V30 16019 H 1454.46 2.97261 -0.0480679 0
M  V30 16020 H 1452 1.5373 -0.143645 0
M  V30 16021 H 1453.95 3.31252 2.42451 0
M  V30 16022 H 1452.61 2.15241 2.28758 0
M  V30 16023 H 1451.81 4.53203 2.20507 0
M  V30 16024 H 1451.41 3.67422 0.698365 0
M  V30 16025 H 1453.7 6.31448 2.45519 0
M  V30 16026 H 1454.64 6.99629 1.09198 0
M  V30 16027 H 1455.05 5.37449 1.72652 0
M  V30 16028 N 1454.45 0.0885642 1.57351 0
M  V30 16029 C 1455.7 -0.57633 1.93291 0
M  V30 16030 C 1456.01 -1.69743 0.971934 0
M  V30 16031 O 1457.22 -2.42304 1.22479 0
M  V30 16032 C 1455.67 -1.07655 3.43422 0
M  V30 16033 C 1455.28 0.0144488 4.47998 0
M  V30 16034 C 1457.03 -1.71455 3.88334 0
M  V30 16035 C 1454.93 -0.500758 5.89276 0
M  V30 16036 H 1453.86 -0.219055 0.721478 0
M  V30 16037 H 1456.51 0.163511 1.8277 0
M  V30 16038 H 1454.9 -1.86988 3.49072 0
M  V30 16039 H 1456.07 0.789696 4.53983 0
M  V30 16040 H 1454.39 0.557237 4.12655 0
M  V30 16041 H 1456.98 -2.11063 4.91281 0
M  V30 16042 H 1457.33 -2.58116 3.26621 0
M  V30 16043 H 1457.86 -0.987159 3.85357 0
M  V30 16044 H 1454.6 0.329088 6.54673 0
M  V30 16045 H 1454.12 -1.24315 5.86776 0
M  V30 16046 H 1455.8 -0.971821 6.3966 0
M  V30 16047 N 1455.93 -1.56509 -0.185096 0
M  V30 16048 C 1456.86 -1.91878 -1.25361 0
M  V30 16049 C 1457.87 -0.810443 -1.41194 0
M  V30 16050 O 1459.06 -1.08887 -1.41442 0
M  V30 16051 C 1456.16 -2.14433 -2.62434 0
M  V30 16052 C 1455.34 -3.45618 -2.6808 0
M  V30 16053 C 1454.39 -3.57165 -3.86419 0
M  V30 16054 O 1453.42 -4.29904 -3.73056 0
M  V30 16055 N 1454.62 -2.90993 -5.02298 0
M  V30 16056 H 1457.39 -2.84133 -0.953328 0
M  V30 16057 H 1454.95 -1.57498 -0.374955 0
M  V30 16058 H 1456.94 -2.19437 -3.40044 0
M  V30 16059 H 1455.51 -1.28629 -2.84909 0
M  V30 16060 H 1454.73 -3.52394 -1.76669 0
M  V30 16061 H 1456.02 -4.31968 -2.68851 0
M  V30 16062 H 1455.42 -2.31743 -5.16054 0
M  V30 16063 H 1453.97 -3.01611 -5.77819 0
M  V30 16064 N 1457.41 0.45317 -1.50944 0
M  V30 16065 C 1458.63 1.23136 -1.6689 0
M  V30 16066 C 1459.06 1.84639 -0.359185 0
M  V30 16067 O 1458.41 1.68106 0.678983 0
M  V30 16068 C 1458.46 2.30275 -2.77499 0
M  V30 16069 O 1457.57 3.35371 -2.39999 0
M  V30 16070 H 1456.91 0.361475 -0.556984 0
M  V30 16071 H 1459.44 0.537174 -1.97422 0
M  V30 16072 H 1459.45 2.75309 -3.01113 0
M  V30 16073 H 1458.12 1.84885 -3.72546 0
M  V30 16074 H 1456.7 2.95924 -2.26899 0
M  V30 16075 N 1458.88 1.40823 0.707568 0
M  V30 16076 C 1460.3 1.35249 1.28704 0
M  V30 16077 C 1460.65 0.0298026 1.96177 0
M  V30 16078 O 1459.77 -0.872126 1.98048 0
M  V30 16079 C 1460.37 2.44965 2.34046 0
M  V30 16080 C 1458.93 2.42826 2.87598 0
M  V30 16081 C 1458.07 2.25429 1.61483 0
M  V30 16082 H 1461.02 1.50513 0.503141 0
M  V30 16083 H 1461.04 2.13334 3.1507 0
M  V30 16084 H 1460.56 3.41219 1.84908 0
M  V30 16085 H 1458.66 1.50294 3.40944 0
M  V30 16086 H 1458.77 3.38704 3.38845 0
M  V30 16087 H 1457.13 1.73089 1.86848 0
M  V30 16088 H 1457.92 3.23693 1.14359 0
M  V30 16089 N 1460.36 -0.94061 1.26453 0
M  V30 16090 C 1461.59 -1.72654 1.14914 0
M  V30 16091 C 1462.01 -1.85823 -0.291789 0
M  V30 16092 O 1461.37 -1.34888 -1.2114 0
M  V30 16093 C 1461.42 -3.11083 1.82372 0
M  V30 16094 O 1460.52 -3.971 1.1129 0
M  V30 16095 H 1459.86 -0.529704 0.400387 0
M  V30 16096 H 1462.39 -1.17803 1.67283 0
M  V30 16097 H 1462.4 -3.6147 1.89219 0
M  V30 16098 H 1461.08 -3.00815 2.87199 0
M  V30 16099 H 1459.66 -3.5555 1.12423 0
M  V30 16100 N 1461.84 -1.08266 -1.14527 0
M  V30 16101 C 1463.09 -0.809856 -1.85164 0
M  V30 16102 C 1463.41 0.666263 -1.83265 0
M  V30 16103 O 1462.68 1.48295 -1.28006 0
M  V30 16104 H 1461.26 -0.296598 -0.685594 0
M  V30 16105 H 1463.92 -1.36834 -1.38789 0
M  V30 16106 H 1463.02 -1.15272 -2.90032 0
M  V30 16107 N 1463.32 1.31536 -0.86811 0
M  V30 16108 C 1464.57 1.97066 -0.478829 0
M  V30 16109 C 1464.9 1.68469 0.966021 0
M  V30 16110 O 1464.17 0.980166 1.67997 0
M  V30 16111 C 1464.46 3.52533 -0.734313 0
M  V30 16112 C 1464.31 3.90711 -2.22856 0
M  V30 16113 C 1465.63 4.39647 -0.199559 0
M  V30 16114 H 1462.75 0.715813 -0.175444 0
M  V30 16115 H 1465.39 1.55694 -1.08901 0
M  V30 16116 H 1463.54 3.87905 -0.214962 0
M  V30 16117 H 1465.21 3.65451 -2.81502 0
M  V30 16118 H 1463.45 3.39385 -2.70185 0
M  V30 16119 H 1464.13 4.99103 -2.35797 0
M  V30 16120 H 1466.6 4.11088 -0.643853 0
M  V30 16121 H 1465.48 5.47383 -0.407783 0
M  V30 16122 H 1465.74 4.32875 0.898414 0
M  V30 16123 N 1464.8 0.627364 1.44575 0
M  V30 16124 C 1466.05 0.127824 2.01295 0
M  V30 16125 C 1466.36 -1.25647 1.49907 0
M  V30 16126 O 1467.57 -1.84982 1.9873 0
M  V30 16127 C 1466.02 0.177775 3.59461 0
M  V30 16128 C 1465.63 1.56315 4.19845 0
M  V30 16129 C 1467.37 -0.265497 4.23669 0
M  V30 16130 C 1465.28 1.56842 5.70223 0
M  V30 16131 H 1464.21 0.0440205 0.752714 0
M  V30 16132 H 1466.86 0.785607 1.65833 0
M  V30 16133 H 1465.24 -0.547038 3.92203 0
M  V30 16134 H 1466.42 2.31125 3.98645 0
M  V30 16135 H 1464.73 1.95019 3.67909 0
M  V30 16136 H 1467.33 -0.281038 5.33961 0
M  V30 16137 H 1467.67 -1.29208 3.95741 0
M  V30 16138 H 1468.21 0.406698 3.95716 0
M  V30 16139 H 1464.94 2.57325 6.0288 0
M  V30 16140 H 1464.46 0.863198 5.93556 0
M  V30 16141 H 1466.14 1.30071 6.33791 0
M  V30 16142 N 1466.28 -1.53251 0.367684 0
M  V30 16143 C 1467.21 -2.28728 -0.469676 0
M  V30 16144 C 1468.19 -1.3124 -1.08213 0
M  V30 16145 O 1469.37 -1.60112 -1.09898 0
M  V30 16146 C 1466.5 -3.07808 -1.60846 0
M  V30 16147 C 1465.46 -4.13 -1.12315 0
M  V30 16148 C 1464.78 -4.80176 -2.35234 0
M  V30 16149 C 1466.08 -5.21892 -0.2064 0
M  V30 16150 H 1467.78 -2.98972 0.160019 0
M  V30 16151 H 1465.32 -1.43786 0.0784011 0
M  V30 16152 H 1467.27 -3.59358 -2.20091 0
M  V30 16153 H 1466 -2.35258 -2.26542 0
M  V30 16154 H 1464.66 -3.62399 -0.553378 0
M  V30 16155 H 1464.31 -4.04196 -2.99391 0
M  V30 16156 H 1464.01 -5.51261 -2.03433 0
M  V30 16157 H 1465.53 -5.34521 -2.9516 0
M  V30 16158 H 1466.94 -5.68932 -0.706386 0
M  V30 16159 H 1465.34 -6.00096 0.0208362 0
M  V30 16160 H 1466.41 -4.79051 0.750851 0
M  V30 16161 N 1467.75 -0.0969077 -1.57302 0
M  V30 16162 C 1468.69 0.891431 -2.11154 0
M  V30 16163 C 1469.7 1.24482 -1.04919 0
M  V30 16164 O 1470.89 1.19762 -1.3236 0
M  V30 16165 C 1467.99 2.19998 -2.57787 0
M  V30 16166 C 1467.16 2.02165 -3.87876 0
M  V30 16167 C 1466.22 3.16549 -4.20337 0
M  V30 16168 O 1465.25 2.90432 -4.89528 0
M  V30 16169 N 1466.45 4.42369 -3.75885 0
M  V30 16170 H 1469.21 0.431477 -2.96578 0
M  V30 16171 H 1466.77 0.0881458 -1.6166 0
M  V30 16172 H 1468.77 2.95472 -2.76547 0
M  V30 16173 H 1467.34 2.57412 -1.77364 0
M  V30 16174 H 1466.56 1.11011 -3.78246 0
M  V30 16175 H 1467.84 1.87529 -4.7298 0
M  V30 16176 H 1467.24 4.66469 -3.20036 0
M  V30 16177 H 1465.8 5.14787 -3.99797 0
M  V30 16178 N 1469.23 1.56605 0.176793 0
M  V30 16179 C 1470.14 1.99211 1.23903 0
M  V30 16180 C 1471.16 0.902614 1.48758 0
M  V30 16181 O 1472.33 1.20982 1.61014 0
M  V30 16182 C 1469.4 2.33873 2.55938 0
M  V30 16183 C 1468.46 3.56624 2.38994 0
M  V30 16184 C 1467.69 3.89623 3.64733 0
M  V30 16185 O 1467.92 3.23662 4.6968 0
M  V30 16186 O 1466.85 4.82992 3.5917 0
M  V30 16187 H 1470.68 2.89827 0.907398 0
M  V30 16188 H 1468.26 1.44401 0.383234 0
M  V30 16189 H 1470.14 2.57161 3.33836 0
M  V30 16190 H 1468.82 1.46421 2.88691 0
M  V30 16191 H 1467.72 3.38561 1.59146 0
M  V30 16192 H 1469.06 4.446 2.11167 0
M  V30 16193 N 1470.71 -0.445159 1.51182 0
M  V30 16194 C 1471.67 -1.52224 1.71349 0
M  V30 16195 C 1472.67 -1.49834 0.583632 0
M  V30 16196 O 1473.86 -1.51995 0.85107 0
M  V30 16197 C 1470.99 -2.91789 1.76273 0
M  V30 16198 H 1472.19 -1.35649 2.67468 0
M  V30 16199 H 1469.74 -0.673312 1.41054 0
M  V30 16200 H 1470.48 -3.13777 0.819405 0
M  V30 16201 H 1470.26 -2.94928 2.58379 0
M  V30 16202 H 1471.75 -3.69938 1.93741 0
M  V30 16203 N 1472.19 -1.41197 -0.700089 0
M  V30 16204 C 1473.15 -1.42419 -1.79582 0
M  V30 16205 C 1474.15 -0.31551 -1.57674 0
M  V30 16206 O 1475.34 -0.575173 -1.64431 0
M  V30 16207 C 1472.47 -1.23114 -3.17893 0
M  V30 16208 H 1473.67 -2.39956 -1.79892 0
M  V30 16209 H 1471.22 -1.27273 -0.907271 0
M  V30 16210 H 1471.95 -0.263992 -3.23224 0
M  V30 16211 H 1471.74 -2.03437 -3.35195 0
M  V30 16212 H 1473.23 -1.26793 -3.97886 0
M  V30 16213 N 1473.67 0.933891 -1.2695 0
M  V30 16214 C 1474.94 1.65874 -1.0366 0
M  V30 16215 C 1475.32 2.0666 0.43066 0
M  V30 16216 O 1474.67 1.79606 1.41259 0
M  V30 16217 C 1474.88 2.86546 -1.99229 0
M  V30 16218 C 1476.23 3.58031 -2.28251 0
M  V30 16219 O 1477.25 2.96663 -1.97154 0
M  V30 16220 O 1476.11 4.68583 -2.81233 0
M  V30 16221 H 1473.21 0.72673 -0.394706 0
M  V30 16222 H 1475.75 0.984975 -1.38189 0
M  V30 16223 H 1474.52 2.53351 -2.9821 0
M  V30 16224 H 1474.15 3.61645 -1.65224 0
M  V30 16225 N 1475.14 1.08871 1.13951 0
M  V30 16226 C 1476.39 0.822504 1.85372 0
M  V30 16227 C 1476.72 -0.650183 1.82993 0
M  V30 16228 O 1476 -1.4783 1.26398 0
M  V30 16229 C 1476.28 1.35107 3.33793 0
M  V30 16230 C 1476.13 2.88945 3.44719 0
M  V30 16231 C 1477.45 0.980203 4.29045 0
M  V30 16232 H 1474.57 0.300255 0.673065 0
M  V30 16233 H 1477.21 1.34914 1.33784 0
M  V30 16234 H 1475.36 0.903108 3.77857 0
M  V30 16235 H 1477.04 3.42148 3.09407 0
M  V30 16236 H 1475.28 3.26365 2.85777 0
M  V30 16237 H 1475.95 3.21004 4.49066 0
M  V30 16238 H 1478.43 1.36646 3.93023 0
M  V30 16239 H 1477.3 1.37717 5.31343 0
M  V30 16240 H 1477.56 -0.112253 4.41957 0
M  V30 16241 N 1476.62 -1.31073 0.875073 0
M  V30 16242 C 1477.57 -2.25936 0.306104 0
M  V30 16243 C 1478.56 -1.50848 -0.559782 0
M  V30 16244 O 1479.75 -1.72285 -0.405824 0
M  V30 16245 C 1476.88 -3.39828 -0.486995 0
M  V30 16246 C 1475.96 -4.22281 0.392421 0
M  V30 16247 N 1476.35 -4.83409 1.48828 0
M  V30 16248 C 1474.65 -4.45613 0.185762 0
M  V30 16249 C 1475.35 -5.45092 2.031 0
M  V30 16250 N 1474.33 -5.27147 1.3273 0
M  V30 16251 H 1478.13 -2.70738 1.14359 0
M  V30 16252 H 1475.64 -1.45399 0.72339 0
M  V30 16253 H 1477.64 -4.06821 -0.911171 0
M  V30 16254 H 1476.3 -2.96568 -1.32203 0
M  V30 16255 H 1477.31 -4.82915 1.87118 0
M  V30 16256 H 1473.99 -4.12977 -0.61291 0
M  V30 16257 H 1475.38 -6.03641 2.95071 0
M  V30 16258 N 1478.1 -0.635022 -1.4424 0
M  V30 16259 C 1479.06 0.0579377 -2.29127 0
M  V30 16260 C 1480.06 0.768489 -1.41248 0
M  V30 16261 O 1481.25 0.612489 -1.63077 0
M  V30 16262 C 1478.39 1.09266 -3.22914 0
M  V30 16263 H 1479.58 -0.688723 -2.91885 0
M  V30 16264 H 1477.13 -0.395347 -1.51217 0
M  V30 16265 H 1477.87 1.86917 -2.65014 0
M  V30 16266 H 1477.65 0.587036 -3.87681 0
M  V30 16267 H 1479.14 1.57716 -3.86672 0
M  V30 16268 N 1479.58 1.53054 -0.375806 0
M  V30 16269 C 1480.99 1.5958 -0.0251765 0
M  V30 16270 C 1481.19 1.39047 1.45836 0
M  V30 16271 O 1480.25 1.20073 2.22123 0
M  V30 16272 C 1481.56 2.96676 -0.490274 0
M  V30 16273 C 1483.11 3.09815 -0.44537 0
M  V30 16274 C 1483.59 4.4934 -0.886442 0
M  V30 16275 N 1485.08 4.55484 -0.84191 0
M  V30 16276 C 1485.81 5.61652 -1.15476 0
M  V30 16277 N 1485.31 6.75526 -1.53741 0
M  V30 16278 N 1487.1 5.51688 -1.07689 0
M  V30 16279 H 1479.25 1.64651 -1.34178 0
M  V30 16280 H 1481.52 0.77278 -0.549104 0
M  V30 16281 H 1481.22 3.16874 -1.52589 0
M  V30 16282 H 1481.1 3.77016 0.11776 0
M  V30 16283 H 1483.48 2.89321 0.581138 0
M  V30 16284 H 1483.56 2.3146 -1.08903 0
M  V30 16285 H 1483.21 4.70573 -1.91111 0
M  V30 16286 H 1483.14 5.26141 -0.219925 0
M  V30 16287 H 1485.63 3.73725 -0.56015 0
M  V30 16288 H 1485.94 7.52489 -1.76012 0
M  V30 16289 H 1484.29 6.76892 -1.57616 0
M  V30 16290 H 1487.48 4.61605 -0.777062 0
M  V30 16291 H 1487.65 6.34329 -1.32403 0
M  V30 16292 N 1481.06 0.105248 1.57248 0
M  V30 16293 C 1482.29 -0.563339 1.98771 0
M  V30 16294 C 1482.69 -1.6163 0.98348 0
M  V30 16295 O 1482.04 -1.83669 -0.0337474 0
M  V30 16296 C 1482.1 -1.26026 3.36686 0
M  V30 16297 C 1481.76 -0.356865 4.55605 0
M  V30 16298 C 1482.76 0.399055 5.18366 0
M  V30 16299 C 1480.45 -0.271954 5.01563 0
M  V30 16300 C 1482.44 1.22776 6.25464 0
M  V30 16301 C 1480.13 0.560395 6.08525 0
M  V30 16302 C 1481.12 1.30889 6.70341 0
M  V30 16303 O 1480.81 2.12745 7.75239 0
M  V30 16304 H 1480.54 -0.154882 0.658018 0
M  V30 16305 H 1483.1 0.184266 2.04572 0
M  V30 16306 H 1481.33 -2.05465 3.27599 0
M  V30 16307 H 1483.02 -1.82439 3.62589 0
M  V30 16308 H 1483.78 0.343247 4.83784 0
M  V30 16309 H 1479.66 -0.844224 4.53204 0
M  V30 16310 H 1483.21 1.81248 6.73643 0
M  V30 16311 H 1479.1 0.617647 6.42538 0
M  V30 16312 H 1479.87 2.05537 7.92273 0
M  V30 16313 N 1482.53 -1.56697 -0.168486 0
M  V30 16314 C 1483.78 -1.81346 -0.882973 0
M  V30 16315 C 1484.1 -0.682975 -1.83289 0
M  V30 16316 O 1485.3 -0.814479 -2.58995 0
M  V30 16317 C 1483.76 -3.21345 -1.62066 0
M  V30 16318 C 1483.37 -4.4227 -0.714241 0
M  V30 16319 C 1485.11 -3.55285 -2.32321 0
M  V30 16320 C 1483.02 -5.7329 -1.45233 0
M  V30 16321 H 1481.95 -0.676254 -0.333461 0
M  V30 16322 H 1484.6 -1.82996 -0.135871 0
M  V30 16323 H 1482.98 -3.1402 -2.41262 0
M  V30 16324 H 1484.15 -4.60782 0.0409556 0
M  V30 16325 H 1482.47 -4.16224 -0.121205 0
M  V30 16326 H 1485.07 -4.50421 -2.88141 0
M  V30 16327 H 1485.41 -2.80301 -3.07793 0
M  V30 16328 H 1485.94 -3.64176 -1.60066 0
M  V30 16329 H 1482.68 -6.51311 -0.739869 0
M  V30 16330 H 1482.2 -5.58751 -2.18077 0
M  V30 16331 H 1483.88 -6.15343 -1.99905 0
M  V30 16332 N 1484.01 0.437135 -1.51416 0
M  V30 16333 C 1484.92 1.55581 -1.75589 0
M  V30 16334 C 1485.94 1.61797 -0.640132 0
M  V30 16335 O 1487.11 1.79035 -0.922406 0
M  V30 16336 C 1484.18 2.91561 -1.87598 0
M  V30 16337 C 1483.24 2.9546 -3.11451 0
M  V30 16338 C 1482.47 4.24954 -3.22878 0
M  V30 16339 O 1482.7 5.17341 -2.40238 0
M  V30 16340 O 1481.63 4.35141 -4.15856 0
M  V30 16341 H 1485.46 1.38098 -2.70486 0
M  V30 16342 H 1483.04 0.620163 -1.3592 0
M  V30 16343 H 1484.92 3.72262 -1.97481 0
M  V30 16344 H 1483.6 3.09171 -0.958889 0
M  V30 16345 H 1482.51 2.13713 -3.07046 0
M  V30 16346 H 1483.84 2.82794 -4.0285 0
M  V30 16347 N 1485.49 1.41566 0.692592 0
M  V30 16348 C 1486.42 1.46423 1.81886 0
M  V30 16349 C 1487.4 0.32258 1.67013 0
M  V30 16350 O 1488.59 0.534437 1.86701 0
M  V30 16351 C 1485.72 1.3486 3.20047 0
M  V30 16352 C 1484.67 2.46867 3.49629 0
M  V30 16353 C 1484 2.20369 4.87177 0
M  V30 16354 C 1485.3 3.89205 3.48306 0
M  V30 16355 H 1486.99 2.40683 1.78079 0
M  V30 16356 H 1484.54 1.15845 0.855334 0
M  V30 16357 H 1486.49 1.36869 3.98553 0
M  V30 16358 H 1485.21 0.370859 3.24488 0
M  V30 16359 H 1483.87 2.44146 2.73475 0
M  V30 16360 H 1483.52 1.20931 4.88247 0
M  V30 16361 H 1483.22 2.95426 5.07934 0
M  V30 16362 H 1484.74 2.24099 5.6799 0
M  V30 16363 H 1486.16 3.93626 4.16811 0
M  V30 16364 H 1484.56 4.63969 3.80595 0
M  V30 16365 H 1485.63 4.17144 2.47222 0
M  V30 16366 N 1486.97 -0.927146 1.27443 0
M  V30 16367 C 1487.9 -2.04483 1.12735 0
M  V30 16368 C 1488.88 -1.70076 0.0286662 0
M  V30 16369 O 1490.06 -1.93133 0.203252 0
M  V30 16370 C 1487.19 -3.38557 0.774352 0
M  V30 16371 C 1486.15 -3.87078 1.82632 0
M  V30 16372 C 1485.47 -5.17964 1.32729 0
M  V30 16373 C 1486.77 -4.10409 3.23051 0
M  V30 16374 H 1488.47 -2.17046 2.06231 0
M  V30 16375 H 1486.01 -1.04292 0.992937 0
M  V30 16376 H 1487.97 -4.16227 0.658273 0
M  V30 16377 H 1486.69 -3.26009 -0.196321 0
M  V30 16378 H 1485.35 -3.11602 1.93132 0
M  V30 16379 H 1485 -5.01808 0.346059 0
M  V30 16380 H 1484.7 -5.51398 2.03061 0
M  V30 16381 H 1486.22 -5.98203 1.22416 0
M  V30 16382 H 1487.64 -4.78646 3.15549 0
M  V30 16383 H 1486.03 -4.5515 3.91099 0
M  V30 16384 H 1487.1 -3.15685 3.68064 0
M  V30 16385 N 1488.45 -1.09474 -1.13372 0
M  V30 16386 C 1489.67 -0.852921 -1.88502 0
M  V30 16387 C 1490.09 0.595855 -1.79151 0
M  V30 16388 O 1489.45 1.41019 -1.15845 0
M  V30 16389 C 1489.5 -1.27993 -3.38083 0
M  V30 16390 O 1489.22 -2.67189 -3.47191 0
M  V30 16391 C 1490.72 -1.07056 -4.30179 0
M  V30 16392 H 1487.94 -0.30682 -0.596743 0
M  V30 16393 H 1490.48 -1.45685 -1.43513 0
M  V30 16394 H 1488.64 -0.719879 -3.80653 0
M  V30 16395 H 1489.05 -2.85202 -4.40182 0
M  V30 16396 H 1490.53 -1.4186 -5.3346 0
M  V30 16397 H 1491 -0.00838732 -4.39199 0
M  V30 16398 H 1491.61 -1.61659 -3.93378 0
M  V30 16399 N 1489.92 1.30607 -0.882012 0
M  V30 16400 C 1491.34 1.48859 -0.575599 0
M  V30 16401 C 1491.54 1.80908 0.887388 0
M  V30 16402 O 1490.6 1.89492 1.6688 0
M  V30 16403 C 1491.91 2.61405 -1.48619 0
M  V30 16404 C 1493.46 2.75286 -1.48951 0
M  V30 16405 C 1493.93 3.90942 -2.38596 0
M  V30 16406 N 1495.42 3.98248 -2.36543 0
M  V30 16407 C 1496.16 4.87041 -3.0262 0
M  V30 16408 N 1495.65 5.80651 -3.77911 0
M  V30 16409 N 1497.45 4.80385 -2.91867 0
M  V30 16410 H 1489.6 1.08076 -1.82848 0
M  V30 16411 H 1491.86 0.535148 -0.782509 0
M  V30 16412 H 1491.57 2.44535 -2.52775 0
M  V30 16413 H 1491.44 3.57818 -1.19358 0
M  V30 16414 H 1493.83 2.91564 -0.455477 0
M  V30 16415 H 1493.91 1.79504 -1.82242 0
M  V30 16416 H 1493.55 3.75422 -3.42083 0
M  V30 16417 H 1493.48 4.86057 -2.02623 0
M  V30 16418 H 1495.97 3.31282 -1.81827 0
M  V30 16419 H 1496.29 6.45159 -4.25428 0
M  V30 16420 H 1494.63 5.80592 -3.82019 0
M  V30 16421 H 1497.82 4.06234 -2.32576 0
M  V30 16422 H 1498 5.49377 -3.43641 0
M  V30 16423 N 1491.4 0.642663 1.43901 0
M  V30 16424 C 1492.63 0.157518 2.06801 0
M  V30 16425 C 1493.05 -1.16361 1.47789 0
M  V30 16426 O 1492.41 -1.71645 0.583747 0
M  V30 16427 C 1492.46 0.0685904 3.60535 0
M  V30 16428 O 1491.56 -0.972183 4.00777 0
M  V30 16429 H 1490.9 0.0900406 0.657867 0
M  V30 16430 H 1493.43 0.882604 1.84584 0
M  V30 16431 H 1493.44 -0.118212 4.07829 0
M  V30 16432 H 1492.12 1.03307 4.02865 0
M  V30 16433 H 1490.7 -0.75902 3.65094 0
M  V30 16434 N 1492.88 -1.52852 0.383918 0
M  V30 16435 C 1494.13 -2.01112 -0.199594 0
M  V30 16436 C 1494.45 -1.27237 -1.47769 0
M  V30 16437 O 1493.72 -0.390873 -1.91961 0
M  V30 16438 H 1492.3 -0.743047 -0.0767466 0
M  V30 16439 H 1494.96 -1.8799 0.51437 0
M  V30 16440 H 1494.06 -3.09347 -0.413627 0
M  V30 16441 N 1494.36 -0.113586 -1.5719 0
M  V30 16442 C 1495.64 0.588987 -1.86522 0
M  V30 16443 C 1496.02 1.85163 -1.01379 0
M  V30 16444 O 1495.36 2.28318 -0.0912188 0
M  V30 16445 C 1495.57 0.886633 -3.3755 0
M  V30 16446 C 1496.92 1.24206 -4.06027 0
M  V30 16447 O 1497.95 0.977068 -3.42537 0
M  V30 16448 O 1496.81 1.73914 -5.18089 0
M  V30 16449 H 1493.9 0.296637 -0.771968 0
M  V30 16450 H 1496.45 -0.147681 -1.69056 0
M  V30 16451 H 1495.22 -0.00835421 -3.91299 0
M  V30 16452 H 1494.84 1.67865 -3.60426 0
M  V30 16453 N 1495.84 1.56784 0.160173 0
M  V30 16454 C 1497.07 1.86496 0.888969 0
M  V30 16455 C 1497.48 0.698244 1.75844 0
M  V30 16456 O 1496.82 -0.341543 1.80497 0
M  V30 16457 C 1496.88 3.10758 1.80748 0
M  V30 16458 C 1496.54 4.43152 1.1165 0
M  V30 16459 C 1497.54 5.1771 0.476643 0
M  V30 16460 C 1495.23 4.89883 1.10993 0
M  V30 16461 C 1497.22 6.37198 -0.160552 0
M  V30 16462 C 1494.91 6.09298 0.468916 0
M  V30 16463 C 1495.91 6.828 -0.165211 0
M  V30 16464 O 1495.59 7.99948 -0.796092 0
M  V30 16465 H 1495.33 0.622688 0.263128 0
M  V30 16466 H 1497.88 2.04762 0.161706 0
M  V30 16467 H 1496.11 2.88466 2.57535 0
M  V30 16468 H 1497.8 3.26825 2.40708 0
M  V30 16469 H 1498.56 4.82682 0.473616 0
M  V30 16470 H 1494.44 4.32605 1.59292 0
M  V30 16471 H 1497.99 6.94508 -0.656107 0
M  V30 16472 H 1493.88 6.4379 0.469565 0
M  V30 16473 H 1494.65 8.15532 -0.696448 0
M  V30 16474 N 1497.32 -0.429099 1.51646 0
M  V30 16475 C 1498.55 -1.19832 1.68297 0
M  V30 16476 C 1498.95 -1.85275 0.383378 0
M  V30 16477 O 1498.3 -1.71862 -0.648771 0
M  V30 16478 C 1498.36 -2.31803 2.74786 0
M  V30 16479 C 1498.02 -1.8666 4.17141 0
M  V30 16480 C 1499.02 -1.36544 5.01649 0
M  V30 16481 C 1496.7 -1.94101 4.63282 0
M  V30 16482 C 1498.7 -0.944655 6.30361 0
M  V30 16483 C 1496.39 -1.51634 5.91988 0
M  V30 16484 C 1497.38 -1.01899 6.75356 0
M  V30 16485 O 1497.07 -0.600375 8.01655 0
M  V30 16486 H 1496.8 -0.366924 0.567752 0
M  V30 16487 H 1499.36 -0.513643 1.98874 0
M  V30 16488 H 1497.59 -3.03573 2.39542 0
M  V30 16489 H 1499.28 -2.93639 2.80234 0
M  V30 16490 H 1500.04 -1.30184 4.67201 0
M  V30 16491 H 1495.92 -2.31758 3.98509 0
M  V30 16492 H 1499.47 -0.555763 6.95383 0
M  V30 16493 H 1495.36 -1.57667 6.25948 0
M  V30 16494 H 1496.13 -0.725485 8.15278 0
M  V30 16495 N 1498.79 -1.41931 -0.685074 0
M  V30 16496 C 1500.21 -1.24631 -0.996957 0
M  V30 16497 C 1500.41 -0.143146 -2.00991 0
M  V30 16498 O 1499.47 0.489012 -2.47719 0
M  V30 16499 C 1500.78 -2.59947 -1.51156 0
M  V30 16500 C 1502.33 -2.67216 -1.62986 0
M  V30 16501 C 1502.8 -4.02874 -2.17845 0
M  V30 16502 N 1504.29 -4.04775 -2.25192 0
M  V30 16503 C 1505.03 -5.0655 -2.68691 0
M  V30 16504 N 1504.52 -6.18712 -3.11717 0
M  V30 16505 N 1506.32 -4.93909 -2.68348 0
M  V30 16506 H 1498.47 -2.12395 -0.0142223 0
M  V30 16507 H 1500.73 -0.945496 -0.0688552 0
M  V30 16508 H 1500.44 -3.41477 -0.841793 0
M  V30 16509 H 1500.31 -2.83159 -2.49201 0
M  V30 16510 H 1502.7 -1.86038 -2.29071 0
M  V30 16511 H 1502.78 -2.47804 -0.634584 0
M  V30 16512 H 1502.42 -4.84505 -1.52372 0
M  V30 16513 H 1502.35 -4.19633 -3.18144 0
M  V30 16514 H 1504.84 -3.23798 -1.94841 0
M  V30 16515 H 1505.16 -6.9223 -3.43565 0
M  V30 16516 H 1503.5 -6.22232 -3.096 0
M  V30 16517 H 1506.69 -4.05364 -2.34089 0
M  V30 16518 H 1506.87 -5.73361 -3.01929 0
M  V30 16519 N 1500.27 0.920374 -1.27933 0
M  V30 16520 C 1501.52 1.66883 -1.147 0
M  V30 16521 C 1501.85 1.92082 0.305732 0
M  V30 16522 O 1501.1 1.51449 1.23942 0
M  V30 16523 C 1501.4 3.03725 -1.88377 0
M  V30 16524 C 1501.07 2.9821 -3.38203 0
M  V30 16525 C 1499.73 2.96413 -3.79068 0
M  V30 16526 C 1502.08 2.88952 -4.3377 0
M  V30 16527 C 1499.41 2.83151 -5.13851 0
M  V30 16528 C 1501.76 2.77231 -5.68618 0
M  V30 16529 C 1500.42 2.73788 -6.08766 0
M  V30 16530 H 1499.69 0.61067 -0.419718 0
M  V30 16531 H 1502.34 1.0728 -1.58629 0
M  V30 16532 H 1500.65 3.67075 -1.36978 0
M  V30 16533 H 1502.34 3.60527 -1.7556 0
M  V30 16534 H 1498.93 3.004 -3.05709 0
M  V30 16535 H 1503.12 2.89433 -4.03165 0
M  V30 16536 H 1498.37 2.78877 -5.44093 0
M  V30 16537 H 1502.55 2.69034 -6.42335 0
M  V30 16538 H 1500.17 2.63268 -7.13158 0
M  V30 16539 N 1501.75 1.10074 1.1279 0
M  V30 16540 C 1502.68 0.768146 2.20503 0
M  V30 16541 C 1503.66 -0.257199 1.68144 0
M  V30 16542 O 1504.85 -0.12379 1.93805 0
M  V30 16543 C 1501.98 0.195125 3.46751 0
M  V30 16544 C 1500.93 1.15074 4.1224 0
M  V30 16545 C 1500.26 0.439098 5.32894 0
M  V30 16546 C 1501.56 2.49584 4.58808 0
M  V30 16547 H 1503.25 1.66876 2.48581 0
M  V30 16548 H 1500.8 0.803806 1.19478 0
M  V30 16549 H 1502.75 -0.0496695 4.21371 0
M  V30 16550 H 1501.47 -0.740717 3.1809 0
M  V30 16551 H 1500.13 1.38092 3.39597 0
M  V30 16552 H 1499.78 -0.501096 5.00498 0
M  V30 16553 H 1499.48 1.07632 5.77658 0
M  V30 16554 H 1501 0.202761 6.10263 0
M  V30 16555 H 1502.42 2.30736 5.24818 0
M  V30 16556 H 1500.81 3.09157 5.14336 0
M  V30 16557 H 1501.88 3.09857 3.72984 0
M  V30 16558 N 1503.23 -1.30138 0.888926 0
M  V30 16559 C 1504.45 -2.00679 0.523697 0
M  V30 16560 C 1504.88 -1.66167 -0.881479 0
M  V30 16561 O 1504.24 -0.880418 -1.58488 0
M  V30 16562 C 1504.28 -3.53535 0.710284 0
M  V30 16563 O 1503.39 -4.11689 -0.242066 0
M  V30 16564 H 1502.73 -0.631273 0.205888 0
M  V30 16565 H 1505.26 -1.65891 1.19756 0
M  V30 16566 H 1505.27 -4.03402 0.610794 0
M  V30 16567 H 1503.94 -3.77992 1.73478 0
M  V30 16568 H 1502.52 -3.72777 -0.0959393 0
M  V30 16569 N 1504.71 -0.650285 -1.43559 0
M  V30 16570 C 1505.62 0.0438076 -2.34559 0
M  V30 16571 C 1506.63 0.815316 -1.53716 0
M  V30 16572 O 1507.81 0.76323 -1.86378 0
M  V30 16573 C 1504.87 1.00028 -3.31957 0
M  V30 16574 C 1503.93 0.226027 -4.28705 0
M  V30 16575 C 1503.17 1.13694 -5.21449 0
M  V30 16576 O 1503.39 2.37614 -5.18551 0
M  V30 16577 O 1502.32 0.610924 -5.98792 0
M  V30 16578 H 1506.15 -0.705152 -2.954 0
M  V30 16579 H 1503.73 -0.410471 -1.43651 0
M  V30 16580 H 1505.62 1.55004 -3.91857 0
M  V30 16581 H 1504.29 1.72952 -2.73623 0
M  V30 16582 H 1503.2 -0.367244 -3.72293 0
M  V30 16583 H 1504.53 -0.463582 -4.90012 0
M  V30 16584 N 1506.18 1.52647 -0.392018 0
M  V30 16585 C 1507.12 2.22965 0.486007 0
M  V30 16586 C 1508.09 1.23138 1.06188 0
M  V30 16587 O 1509.28 1.52133 1.113 0
M  V30 16588 C 1506.41 2.94498 1.67298 0
M  V30 16589 C 1505.45 4.08616 1.22211 0
M  V30 16590 S 1506.28 5.35121 0.201397 0
M  V30 16591 C 1507.44 6.10177 1.39409 0
M  V30 16592 H 1507.67 2.97092 -0.111111 0
M  V30 16593 H 1505.21 1.53391 -0.176221 0
M  V30 16594 H 1507.16 3.3632 2.3537 0
M  V30 16595 H 1505.83 2.20045 2.24141 0
M  V30 16596 H 1505.02 4.57778 2.10844 0
M  V30 16597 H 1504.62 3.68821 0.620272 0
M  V30 16598 H 1506.91 6.36514 2.3207 0
M  V30 16599 H 1507.86 7.01788 0.943337 0
M  V30 16600 H 1508.26 5.4099 1.61213 0
M  V30 16601 N 1507.66 0.121921 1.57128 0
M  V30 16602 C 1508.59 -0.823788 2.18486 0
M  V30 16603 C 1509.57 -1.27519 1.12574 0
M  V30 16604 O 1510.76 -1.33727 1.40822 0
M  V30 16605 C 1507.89 -2.07284 2.78659 0
M  V30 16606 C 1506.84 -1.75912 3.90178 0
M  V30 16607 C 1506.17 -3.07871 4.37172 0
M  V30 16608 C 1507.47 -1.02517 5.1214 0
M  V30 16609 H 1509.16 -0.312488 2.97765 0
M  V30 16610 H 1506.71 -0.148862 1.43228 0
M  V30 16611 H 1508.66 -2.73903 3.20242 0
M  V30 16612 H 1507.39 -2.60743 1.96673 0
M  V30 16613 H 1506.04 -1.11681 3.49174 0
M  V30 16614 H 1505.69 -3.59271 3.52041 0
M  V30 16615 H 1505.39 -2.87653 5.12376 0
M  V30 16616 H 1506.92 -3.75604 4.81409 0
M  V30 16617 H 1508.33 -1.59295 5.50725 0
M  V30 16618 H 1506.73 -0.923836 5.92946 0
M  V30 16619 H 1507.8 -0.0124219 4.84898 0
M  V30 16620 N 1509.14 -1.56867 -0.151857 0
M  V30 16621 C 1510.09 -1.97899 -1.18763 0
M  V30 16622 C 1511.06 -0.845833 -1.42951 0
M  V30 16623 O 1512.24 -1.10751 -1.55367 0
M  V30 16624 C 1509.38 -2.36063 -2.5173 0
M  V30 16625 C 1508.5 -3.62647 -2.34757 0
M  V30 16626 C 1507.63 -3.89936 -3.60726 0
M  V30 16627 C 1506.67 -5.09806 -3.38769 0
M  V30 16628 N 1505.81 -5.33129 -4.56856 0
M  V30 16629 H 1510.65 -2.86187 -0.830713 0
M  V30 16630 H 1508.18 -1.41592 -0.398745 0
M  V30 16631 H 1510.14 -2.56218 -3.29254 0
M  V30 16632 H 1508.77 -1.50861 -2.85379 0
M  V30 16633 H 1507.82 -3.50297 -1.48312 0
M  V30 16634 H 1509.14 -4.50328 -2.1449 0
M  V30 16635 H 1508.29 -4.10563 -4.4668 0
M  V30 16636 H 1507.03 -3.00668 -3.83993 0
M  V30 16637 H 1506.03 -4.89057 -2.51203 0
M  V30 16638 H 1507.26 -6.00623 -3.16906 0
M  V30 16639 H 1505.2 -4.46815 -4.80305 0
M  V30 16640 H 1505.12 -6.1507 -4.39574 0
M  V30 16641 H 1506.39 -5.5825 -5.44038 0
M  V30 16642 N 1510.62 0.421051 -1.51871 0
M  V30 16643 C 1511.84 1.19568 -1.69465 0
M  V30 16644 C 1512.27 1.83835 -0.398269 0
M  V30 16645 O 1511.63 1.69508 0.643172 0
M  V30 16646 C 1511.67 2.24337 -2.82321 0
M  V30 16647 O 1510.78 3.30205 -2.47059 0
M  V30 16648 H 1510.12 0.349579 -0.564527 0
M  V30 16649 H 1512.65 0.495177 -1.98517 0
M  V30 16650 H 1512.66 2.6886 -3.06885 0
M  V30 16651 H 1511.33 1.76941 -3.76384 0
M  V30 16652 H 1509.91 2.91045 -2.33125 0
M  V30 16653 N 1512.1 1.42293 0.677538 0
M  V30 16654 C 1513.03 1.48344 1.80323 0
M  V30 16655 C 1514.01 0.340276 1.66662 0
M  V30 16656 O 1515.19 0.554209 1.86124 0
M  V30 16657 C 1512.32 1.38247 3.18599 0
M  V30 16658 C 1511.28 2.50562 3.46991 0
M  V30 16659 C 1510.6 2.25524 4.84812 0
M  V30 16660 C 1511.9 3.92877 3.44158 0
M  V30 16661 H 1513.6 2.42558 1.75516 0
M  V30 16662 H 1511.14 1.16746 0.842999 0
M  V30 16663 H 1513.1 1.41089 3.97079 0
M  V30 16664 H 1511.82 0.405255 3.24076 0
M  V30 16665 H 1510.48 2.47032 2.7087 0
M  V30 16666 H 1510.13 1.26102 4.86937 0
M  V30 16667 H 1509.83 3.00797 5.04772 0
M  V30 16668 H 1511.35 2.3011 5.65581 0
M  V30 16669 H 1512.76 3.98024 4.12613 0
M  V30 16670 H 1511.16 4.6798 3.75653 0
M  V30 16671 H 1512.23 4.19743 2.42783 0
M  V30 16672 N 1513.57 -0.913576 1.28419 0
M  V30 16673 C 1514.48 -2.04922 1.14211 0
M  V30 16674 C 1515.5 -1.73865 0.0686424 0
M  V30 16675 O 1516.68 -1.99473 0.277968 0
M  V30 16676 C 1513.74 -3.37214 0.805445 0
M  V30 16677 C 1512.8 -3.81879 1.96129 0
M  V30 16678 C 1512.04 -5.07858 1.6406 0
M  V30 16679 O 1512.26 -5.67693 0.555032 0
M  V30 16680 O 1511.19 -5.4824 2.48428 0
M  V30 16681 H 1515.02 -2.19827 2.09547 0
M  V30 16682 H 1512.6 -1.03501 1.0774 0
M  V30 16683 H 1514.49 -4.16639 0.631648 0
M  V30 16684 H 1513.16 -3.23484 -0.118254 0
M  V30 16685 H 1512.07 -3.03281 2.19024 0
M  V30 16686 H 1513.4 -4.00173 2.8657 0
M  V30 16687 N 1515.05 -1.1067 -1.12204 0
M  V30 16688 C 1516.33 -0.762632 -1.8012 0
M  V30 16689 C 1516.71 0.750529 -1.97308 0
M  V30 16690 O 1516.06 1.67764 -1.55137 0
M  V30 16691 C 1516.27 -1.51651 -3.14329 0
M  V30 16692 C 1517.62 -1.69061 -3.89491 0
M  V30 16693 O 1518.64 -1.48009 -3.23994 0
M  V30 16694 O 1517.5 -2.03984 -5.07004 0
M  V30 16695 H 1514.59 -0.275417 -0.779791 0
M  V30 16696 H 1517.14 -1.20966 -1.19018 0
M  V30 16697 H 1515.91 -2.54622 -2.97125 0
M  V30 16698 H 1515.53 -1.0625 -3.83141 0
M  V30 16699 N 1516.53 1.29665 -0.895815 0
M  V30 16700 C 1517.46 2.30268 -0.387151 0
M  V30 16701 C 1518.44 1.61442 0.535768 0
M  V30 16702 O 1519.63 1.88978 0.447321 0
M  V30 16703 C 1516.76 3.45107 0.389639 0
M  V30 16704 C 1515.71 4.25706 -0.442498 0
M  V30 16705 C 1515.04 5.32704 0.461552 0
M  V30 16706 C 1516.34 4.9419 -1.69036 0
M  V30 16707 H 1518.03 2.73064 -1.22786 0
M  V30 16708 H 1515.58 1.31274 -0.591869 0
M  V30 16709 H 1517.53 4.14559 0.756203 0
M  V30 16710 H 1516.25 3.01145 1.2641 0
M  V30 16711 H 1514.91 3.57957 -0.791343 0
M  V30 16712 H 1514.56 4.84987 1.33403 0
M  V30 16713 H 1514.26 5.87529 -0.0915006 0
M  V30 16714 H 1515.78 6.05009 0.824395 0
M  V30 16715 H 1517.2 5.561 -1.39376 0
M  V30 16716 H 1515.6 5.5893 -2.18444 0
M  V30 16717 H 1516.67 4.19699 -2.42859 0
M  V30 16718 N 1518.01 0.657889 1.43212 0
M  V30 16719 C 1518.96 -0.0308596 2.30779 0
M  V30 16720 C 1519.93 -0.809951 1.45014 0
M  V30 16721 O 1521.11 -0.785615 1.73876 0
M  V30 16722 C 1518.25 -0.988048 3.30653 0
M  V30 16723 C 1517.36 -0.204567 4.31515 0
M  V30 16724 C 1516.5 -1.15598 5.1847 0
M  V30 16725 C 1515.54 -0.363197 6.11022 0
M  V30 16726 N 1514.67 -1.26644 6.90584 0
M  V30 16727 H 1519.51 0.721745 2.89128 0
M  V30 16728 H 1517.05 0.367677 1.42431 0
M  V30 16729 H 1519.01 -1.55666 3.87071 0
M  V30 16730 H 1517.64 -1.70747 2.73944 0
M  V30 16731 H 1516.69 0.48041 3.77354 0
M  V30 16732 H 1518 0.411684 4.97098 0
M  V30 16733 H 1517.16 -1.79507 5.79536 0
M  V30 16734 H 1515.9 -1.80613 4.53023 0
M  V30 16735 H 1514.9 0.28922 5.49039 0
M  V30 16736 H 1516.13 0.28262 6.78512 0
M  V30 16737 H 1514.07 -1.90331 6.27782 0
M  V30 16738 H 1513.99 -0.70486 7.52707 0
M  V30 16739 H 1515.26 -1.89353 7.56152 0
M  V30 16740 N 1519.49 -1.52437 0.400108 0
M  V30 16741 C 1520.42 -2.29672 -0.421054 0
M  V30 16742 C 1521.4 -1.33506 -1.05405 0
M  V30 16743 O 1522.58 -1.62408 -1.06477 0
M  V30 16744 C 1519.71 -3.1115 -1.54281 0
M  V30 16745 C 1518.67 -4.1529 -1.0353 0
M  V30 16746 C 1517.99 -4.85058 -2.24996 0
M  V30 16747 C 1519.29 -5.22212 -0.0956529 0
M  V30 16748 H 1520.99 -2.98565 0.2234 0
M  V30 16749 H 1518.53 -1.43588 0.108883 0
M  V30 16750 H 1520.49 -3.63945 -2.12419 0
M  V30 16751 H 1519.21 -2.4001 -2.21501 0
M  V30 16752 H 1517.87 -3.63492 -0.476383 0
M  V30 16753 H 1517.52 -4.10455 -2.9075 0
M  V30 16754 H 1517.22 -5.55452 -1.91694 0
M  V30 16755 H 1518.74 -5.40661 -2.83756 0
M  V30 16756 H 1520.15 -5.70302 -0.585548 0
M  V30 16757 H 1518.55 -5.99917 0.148121 0
M  V30 16758 H 1519.62 -4.77351 0.852296 0
M  V30 16759 N 1520.96 -0.130252 -1.57061 0
M  V30 16760 C 1521.91 0.815767 -2.15902 0
M  V30 16761 C 1522.88 1.2558 -1.08715 0
M  V30 16762 O 1524.07 1.33132 -1.36677 0
M  V30 16763 C 1521.21 2.0561 -2.77162 0
M  V30 16764 C 1520.32 1.6634 -3.98692 0
M  V30 16765 C 1519.45 2.85425 -4.48002 0
M  V30 16766 C 1518.49 2.42449 -5.62036 0
M  V30 16767 N 1517.63 3.54486 -6.0604 0
M  V30 16768 H 1522.47 0.307164 -2.96413 0
M  V30 16769 H 1520.01 0.139913 -1.46433 0
M  V30 16770 H 1521.97 2.78298 -3.10815 0
M  V30 16771 H 1520.6 2.5391 -1.99323 0
M  V30 16772 H 1519.65 0.834817 -3.71127 0
M  V30 16773 H 1520.96 1.30765 -4.81354 0
M  V30 16774 H 1520.11 3.66325 -4.83623 0
M  V30 16775 H 1518.85 3.24235 -3.64312 0
M  V30 16776 H 1517.86 1.59985 -5.26008 0
M  V30 16777 H 1519.08 2.04744 -6.475 0
M  V30 16778 H 1517.03 3.92948 -5.25289 0
M  V30 16779 H 1516.95 3.22871 -6.83586 0
M  V30 16780 H 1518.21 4.35792 -6.46302 0
M  V30 16781 N 1522.44 1.56945 0.143535 0
M  V30 16782 C 1523.39 1.99479 1.19628 0
M  V30 16783 C 1524.39 0.887733 1.44276 0
M  V30 16784 O 1525.59 1.07292 1.44528 0
M  V30 16785 H 1521.97 0.635049 0.402761 0
M  V30 16786 H 1523.94 2.87171 0.810877 0
M  V30 16787 C 1522.69 2.39436 2.52123 0
M  V30 16788 H 1522.01 3.24176 2.33987 0
M  V30 16789 H 1523.45 2.73017 3.24404 0
M  V30 16790 C 1521.91 1.24836 3.12918 0
M  V30 16791 O 1522.44 0.550973 3.97903 0
M  V30 16792 N 1520.64 1.01172 2.7242 0
M  V30 16793 H 1520.19 1.5806 2.03408 0
M  V30 16794 H 1520.15 0.246846 3.13429 0
M  V30 16795 N 1523.92 -0.412991 1.52093 0
M  V30 16796 C 1525.15 -1.18212 1.69805 0
M  V30 16797 C 1525.56 -1.84386 0.405844 0
M  V30 16798 O 1524.92 -1.71725 -0.617809 0
M  V30 16799 C 1524.97 -2.24811 2.83094 0
M  V30 16800 O 1524.69 -1.61338 4.0731 0
M  V30 16801 C 1526.19 -3.14633 3.12283 0
M  V30 16802 H 1523.41 -0.355371 0.569168 0
M  V30 16803 H 1525.96 -0.486392 1.98632 0
M  V30 16804 H 1524.11 -2.90058 2.56797 0
M  V30 16805 H 1524.53 -2.31979 4.7041 0
M  V30 16806 H 1526 -3.85511 3.95076 0
M  V30 16807 H 1526.48 -3.76785 2.25677 0
M  V30 16808 H 1527.08 -2.55059 3.40331 0
M  V30 16809 N 1525.4 -1.4265 -0.669982 0
M  V30 16810 C 1526.35 -1.46504 -1.7834 0
M  V30 16811 C 1527.32 -0.316478 -1.63057 0
M  V30 16812 O 1528.5 -0.521245 -1.83542 0
M  V30 16813 C 1525.64 -1.37784 -3.16401 0
M  V30 16814 C 1524.75 -2.62714 -3.42937 0
M  V30 16815 C 1523.89 -2.46101 -4.70752 0
M  V30 16816 C 1522.93 -3.66381 -4.90338 0
M  V30 16817 N 1522.07 -3.48681 -6.09398 0
M  V30 16818 H 1526.91 -2.41651 -1.74381 0
M  V30 16819 H 1524.44 -1.1997 -0.851215 0
M  V30 16820 H 1526.4 -1.30725 -3.9619 0
M  V30 16821 H 1525.03 -0.462291 -3.19473 0
M  V30 16822 H 1524.08 -2.8012 -2.57366 0
M  V30 16823 H 1525.39 -3.52108 -3.53301 0
M  V30 16824 H 1524.55 -2.36655 -5.58641 0
M  V30 16825 H 1523.29 -1.54204 -4.6268 0
M  V30 16826 H 1522.29 -3.76254 -4.00891 0
M  V30 16827 H 1523.52 -4.59265 -5.00253 0
M  V30 16828 H 1521.46 -2.59505 -6.02489 0
M  V30 16829 H 1521.38 -4.31666 -6.20645 0
M  V30 16830 H 1522.65 -3.43056 -6.99952 0
M  V30 16831 N 1526.88 0.906753 -1.28902 0
M  V30 16832 C 1528.13 1.65119 -1.15839 0
M  V30 16833 C 1528.44 1.93426 0.290825 0
M  V30 16834 O 1529.65 2.66021 0.542678 0
M  V30 16835 C 1528.1 2.97492 -2.0255 0
M  V30 16836 C 1527.71 2.76807 -3.52253 0
M  V30 16837 C 1529.45 3.75393 -1.98192 0
M  V30 16838 C 1527.36 4.04863 -4.31091 0
M  V30 16839 H 1526.29 0.619409 -0.429939 0
M  V30 16840 H 1528.94 1.00567 -1.53488 0
M  V30 16841 H 1527.32 3.63217 -1.57763 0
M  V30 16842 H 1528.5 2.19719 -4.05044 0
M  V30 16843 H 1526.81 2.1231 -3.58209 0
M  V30 16844 H 1529.41 4.70325 -2.54358 0
M  V30 16845 H 1529.75 4.05074 -0.960267 0
M  V30 16846 H 1530.29 3.16498 -2.40985 0
M  V30 16847 H 1527.02 3.80353 -5.33865 0
M  V30 16848 H 1526.54 4.61537 -3.83072 0
M  V30 16849 H 1528.22 4.73066 -4.41381 0
M  V30 16850 N 1528.36 1.11264 1.11616 0
M  V30 16851 C 1529.27 0.781961 2.21184 0
M  V30 16852 C 1530.28 -0.224149 1.7255 0
M  V30 16853 O 1531.46 -0.0607743 2.01308 0
M  V30 16854 C 1528.52 0.228031 3.45949 0
M  V30 16855 C 1527.58 1.29251 4.09381 0
M  V30 16856 C 1526.82 0.764921 5.2819 0
M  V30 16857 O 1527.04 -0.405671 5.68956 0
M  V30 16858 O 1525.97 1.52886 5.82159 0
M  V30 16859 H 1529.8 1.69678 2.51879 0
M  V30 16860 H 1527.38 0.888394 1.20116 0
M  V30 16861 H 1529.27 -0.0766085 4.2133 0
M  V30 16862 H 1527.94 -0.659519 3.1691 0
M  V30 16863 H 1526.85 1.65014 3.3574 0
M  V30 16864 H 1528.18 2.15339 4.42595 0
M  V30 16865 N 1529.83 -1.29188 0.902679 0
M  V30 16866 C 1531.08 -1.95727 0.530909 0
M  V30 16867 C 1531.41 -1.70971 -0.921014 0
M  V30 16868 O 1530.69 -1.02436 -1.65339 0
M  V30 16869 C 1530.97 -3.50463 0.827523 0
M  V30 16870 C 1530.82 -3.84665 2.33137 0
M  V30 16871 C 1532.14 -4.38964 0.316053 0
M  V30 16872 H 1529.26 -0.71091 0.194361 0
M  V30 16873 H 1531.9 -1.52752 1.1299 0
M  V30 16874 H 1530.05 -3.87199 0.317732 0
M  V30 16875 H 1531.73 -3.57859 2.91093 0
M  V30 16876 H 1529.97 -3.32102 2.79088 0
M  V30 16877 H 1530.64 -4.92676 2.48947 0
M  V30 16878 H 1533.12 -4.09237 0.75262 0
M  V30 16879 H 1531.99 -5.4611 0.552769 0
M  V30 16880 H 1532.25 -4.35105 -0.783329 0
M  V30 16881 N 1531.31 -0.665475 -1.42861 0
M  V30 16882 C 1532.24 0.00482845 -2.335 0
M  V30 16883 C 1533.22 0.799135 -1.50159 0
M  V30 16884 O 1534.41 0.75816 -1.78789 0
M  V30 16885 C 1531.54 0.963347 -3.33672 0
M  V30 16886 C 1530.49 0.278294 -4.27094 0
M  V30 16887 C 1529.82 1.34911 -5.174 0
M  V30 16888 C 1531.12 -0.836925 -5.15551 0
M  V30 16889 H 1532.81 -0.752129 -2.89799 0
M  V30 16890 H 1530.36 -0.363139 -1.39346 0
M  V30 16891 H 1532.31 1.44128 -3.95986 0
M  V30 16892 H 1531.03 1.75161 -2.75656 0
M  V30 16893 H 1529.69 -0.179314 -3.66161 0
M  V30 16894 H 1529.34 2.12912 -4.55716 0
M  V30 16895 H 1529.04 0.895919 -5.8073 0
M  V30 16896 H 1530.57 1.82816 -5.8259 0
M  V30 16897 H 1531.98 -0.440617 -5.71604 0
M  V30 16898 H 1530.38 -1.21533 -5.87665 0
M  V30 16899 H 1531.45 -1.6897 -4.54507 0
M  V30 16900 N 1532.79 1.52222 -0.408187 0
M  V30 16901 C 1533.7 2.30725 0.424645 0
M  V30 16902 C 1534.72 1.38412 1.05442 0
M  V30 16903 O 1535.89 1.71486 1.05614 0
M  V30 16904 C 1532.96 3.11273 1.52677 0
M  V30 16905 C 1532.02 4.19323 0.920143 0
M  V30 16906 C 1531.25 4.96021 1.96974 0
M  V30 16907 O 1531.47 4.73011 3.18774 0
M  V30 16908 O 1530.41 5.80887 1.5765 0
M  V30 16909 H 1534.23 3.02935 -0.215411 0
M  V30 16910 H 1531.82 1.48413 -0.171414 0
M  V30 16911 H 1533.7 3.61436 2.16661 0
M  V30 16912 H 1532.38 2.41857 2.15144 0
M  V30 16913 H 1531.28 3.7331 0.243037 0
M  V30 16914 H 1532.62 4.91028 0.339405 0
M  V30 16915 N 1534.27 0.138579 1.5699 0
M  V30 16916 C 1535.18 -0.817548 2.19894 0
M  V30 16917 C 1536.19 -1.27806 1.18075 0
M  V30 16918 O 1537.37 -1.33699 1.5062 0
M  V30 16919 C 1534.43 -2.04244 2.80152 0
M  V30 16920 C 1533.5 -1.63197 3.97071 0
M  V30 16921 C 1532.73 -2.79847 4.54446 0
M  V30 16922 O 1532.95 -3.95827 4.10703 0
M  V30 16923 O 1531.89 -2.55804 5.44838 0
M  V30 16924 H 1535.71 -0.312123 3.02092 0
M  V30 16925 H 1533.3 -0.0880281 1.4914 0
M  V30 16926 H 1535.18 -2.75945 3.18485 0
M  V30 16927 H 1533.85 -2.53755 2.00973 0
M  V30 16928 H 1532.76 -0.885448 3.6347 0
M  V30 16929 H 1534.09 -1.1841 4.77745 0
M  V30 16930 N 1535.75 -1.57019 -0.13521 0
M  V30 16931 C 1536.66 -2.02427 -1.18578 0
M  V30 16932 C 1537.67 -0.941738 -1.46312 0
M  V30 16933 O 1538.85 -1.25208 -1.57749 0
M  V30 16934 C 1535.91 -2.40577 -2.49647 0
M  V30 16935 C 1534.97 -3.62835 -2.29455 0
M  V30 16936 C 1534.21 -3.99156 -3.54274 0
M  V30 16937 O 1534.43 -3.36001 -4.60933 0
M  V30 16938 O 1533.36 -4.92345 -3.46238 0
M  V30 16939 H 1537.19 -2.92131 -0.830237 0
M  V30 16940 H 1534.77 -1.45366 -0.344814 0
M  V30 16941 H 1536.66 -2.65922 -3.269 0
M  V30 16942 H 1535.33 -1.54023 -2.84708 0
M  V30 16943 H 1534.24 -3.42661 -1.50114 0
M  V30 16944 H 1535.57 -4.50043 -1.99305 0
M  V30 16945 N 1537.22 0.404919 -1.52309 0
M  V30 16946 C 1538.15 1.50039 -1.78915 0
M  V30 16947 C 1539.14 1.57587 -0.640329 0
M  V30 16948 O 1540.32 1.72793 -0.886344 0
M  V30 16949 C 1537.45 2.87819 -1.94364 0
M  V30 16950 C 1536.4 2.9512 -3.09981 0
M  V30 16951 C 1535.73 4.35195 -3.10659 0
M  V30 16952 C 1537.03 2.66219 -4.4936 0
M  V30 16953 H 1538.72 1.28025 -2.70647 0
M  V30 16954 H 1536.27 0.61445 -1.30233 0
M  V30 16955 H 1538.22 3.64446 -2.11559 0
M  V30 16956 H 1536.95 3.11136 -0.993067 0
M  V30 16957 H 1535.61 2.20939 -2.92543 0
M  V30 16958 H 1535.25 4.55528 -2.13316 0
M  V30 16959 H 1534.95 4.41003 -3.88317 0
M  V30 16960 H 1536.48 5.1375 -3.29989 0
M  V30 16961 H 1537.89 3.32567 -4.66982 0
M  V30 16962 H 1536.29 2.83398 -5.28967 0
M  V30 16963 H 1537.36 1.61636 -4.57167 0
M  V30 16964 N 1538.7 1.43003 0.662408 0
M  V30 16965 C 1540.12 1.26201 0.977003 0
M  V30 16966 C 1540.32 0.175104 2.00738 0
M  V30 16967 O 1539.37 -0.44954 2.48466 0
M  V30 16968 C 1540.69 2.62319 1.47001 0
M  V30 16969 C 1542.24 2.69776 1.58714 0
M  V30 16970 C 1542.71 4.06289 2.11408 0
M  V30 16971 N 1544.2 4.08307 2.18724 0
M  V30 16972 C 1544.94 5.10761 2.60598 0
M  V30 16973 N 1544.43 6.23593 3.01834 0
M  V30 16974 N 1546.23 4.98115 2.60456 0
M  V30 16975 H 1538.38 2.12391 -0.0195698 0
M  V30 16976 H 1540.64 0.946472 0.0538044 0
M  V30 16977 H 1540.35 3.42773 0.78736 0
M  V30 16978 H 1540.22 2.87088 2.44664 0
M  V30 16979 H 1542.61 1.89659 2.26083 0
M  V30 16980 H 1542.69 2.48782 0.595081 0
M  V30 16981 H 1542.33 4.86868 1.44644 0
M  V30 16982 H 1542.26 4.24641 3.11428 0
M  V30 16983 H 1544.75 3.26857 1.89665 0
M  V30 16984 H 1545.07 6.97609 3.32509 0
M  V30 16985 H 1543.41 6.27079 2.99661 0
M  V30 16986 H 1546.6 4.09037 2.27611 0
M  V30 16987 H 1546.77 5.78092 2.92769 0
M  V30 16988 N 1540.18 -0.899904 1.29381 0
M  V30 16989 C 1541.11 -2.02045 1.17047 0
M  V30 16990 C 1542.09 -1.69977 0.0647354 0
M  V30 16991 O 1543.28 -1.92659 0.244173 0
M  V30 16992 C 1540.41 -3.36839 0.845991 0
M  V30 16993 C 1539.36 -3.83117 1.90802 0
M  V30 16994 C 1538.69 -5.15032 1.43686 0
M  V30 16995 C 1539.99 -4.03464 3.31684 0
M  V30 16996 H 1541.68 -2.12623 2.10789 0
M  V30 16997 H 1539.23 -1.02162 1.01484 0
M  V30 16998 H 1541.18 -4.14737 0.746413 0
M  V30 16999 H 1539.9 -3.26352 -0.127125 0
M  V30 17000 H 1538.56 -3.07435 1.99698 0
M  V30 17001 H 1538.21 -5.00961 0.452422 0
M  V30 17002 H 1537.91 -5.46967 2.14711 0
M  V30 17003 H 1539.43 -5.95472 1.35078 0
M  V30 17004 H 1540.85 -4.71845 3.25631 0
M  V30 17005 H 1539.25 -4.46752 4.00665 0
M  V30 17006 H 1540.32 -3.07807 3.74677 0
M  V30 17007 N 1541.66 -1.11854 -1.11024 0
M  V30 17008 C 1542.62 -0.784033 -2.15373 0
M  V30 17009 C 1543.62 0.198686 -1.59568 0
M  V30 17010 O 1544.81 -0.0263428 -1.7418 0
M  V30 17011 C 1541.94 -0.163987 -3.40505 0
M  V30 17012 H 1543.14 -1.70849 -2.46477 0
M  V30 17013 H 1540.69 -0.920988 -1.26283 0
M  V30 17014 H 1541.42 0.770483 -3.15014 0
M  V30 17015 H 1541.21 -0.871447 -3.82293 0
M  V30 17016 H 1542.7 0.0537739 -4.17565 0
M  V30 17017 N 1543.14 1.28707 -0.909517 0
M  V30 17018 C 1544.55 1.47605 -0.607045 0
M  V30 17019 C 1544.75 1.8275 0.848815 0
M  V30 17020 O 1543.81 1.92989 1.62823 0
M  V30 17021 C 1545.12 2.58194 -1.54131 0
M  V30 17022 C 1546.67 2.72065 -1.54757 0
M  V30 17023 C 1547.14 3.85793 -2.46835 0
M  V30 17024 N 1548.64 3.93141 -2.44937 0
M  V30 17025 C 1549.37 4.80512 -3.12883 0
M  V30 17026 N 1548.87 5.72504 -3.90142 0
M  V30 17027 N 1550.66 4.74086 -3.01991 0
M  V30 17028 H 1542.81 1.04174 -1.85099 0
M  V30 17029 H 1545.07 0.51843 -0.793684 0
M  V30 17030 H 1544.78 2.39119 -2.57905 0
M  V30 17031 H 1544.65 3.55205 -1.26921 0
M  V30 17032 H 1547.04 2.90532 -0.517219 0
M  V30 17033 H 1547.12 1.75598 -1.86008 0
M  V30 17034 H 1546.77 3.68082 -3.49969 0
M  V30 17035 H 1546.7 4.8165 -2.12888 0
M  V30 17036 H 1549.19 3.2735 -1.88813 0
M  V30 17037 H 1549.5 6.3599 -4.39017 0
M  V30 17038 H 1547.84 5.72358 -3.94248 0
M  V30 17039 H 1551.04 4.01209 -2.4114 0
M  V30 17040 H 1551.21 5.41964 -3.55217 0
M  V30 17041 N 1544.61 0.673042 1.42506 0
M  V30 17042 C 1545.89 0.123606 1.95209 0
M  V30 17043 C 1546.27 -1.36118 1.61354 0
M  V30 17044 O 1545.62 -2.0965 0.908793 0
M  V30 17045 C 1545.83 0.39088 3.46804 0
M  V30 17046 C 1547.18 0.306445 4.23493 0
M  V30 17047 O 1548.2 0.32453 3.54719 0
M  V30 17048 O 1547.06 0.247127 5.45941 0
M  V30 17049 H 1544.15 0.00184868 0.826998 0
M  V30 17050 H 1546.7 0.74765 1.52343 0
M  V30 17051 H 1545.47 1.41951 3.64645 0
M  V30 17052 H 1545.1 -0.265259 3.96714 0
M  V30 17053 N 1546.09 -1.52004 0.416254 0
M  V30 17054 C 1547.06 -2.2579 -0.393882 0
M  V30 17055 C 1548.06 -1.28427 -0.967637 0
M  V30 17056 O 1549.25 -1.52311 -0.845396 0
M  V30 17057 C 1546.38 -3.03361 -1.55515 0
M  V30 17058 H 1547.57 -2.98835 0.252492 0
M  V30 17059 H 1545.12 -1.55384 0.168929 0
M  V30 17060 H 1545.86 -2.34682 -2.23818 0
M  V30 17061 H 1545.64 -3.74852 -1.15015 0
M  V30 17062 H 1547.13 -3.5931 -2.12805 0
M  V30 17063 N 1547.57 -0.146903 -1.56914 0
M  V30 17064 C 1548.52 0.809917 -2.18044 0
M  V30 17065 C 1549.51 1.25536 -1.13741 0
M  V30 17066 O 1550.72 1.22385 -1.31992 0
M  V30 17067 H 1547.09 0.279387 -0.698174 0
M  V30 17068 H 1549.06 0.270135 -2.97175 0
M  V30 17069 C 1547.81 2.03904 -2.81635 0
M  V30 17070 H 1547.14 1.70526 -3.61609 0
M  V30 17071 H 1548.58 2.68795 -3.2791 0
M  V30 17072 C 1547.04 2.84696 -1.80138 0
M  V30 17073 O 1547.57 3.81036 -1.27179 0
M  V30 17074 N 1545.77 2.49229 -1.49444 0
M  V30 17075 H 1545.32 1.70949 -1.92702 0
M  V30 17076 H 1545.28 3.03577 -0.817811 0
M  V30 17077 N 1549.05 1.57088 0.126881 0
M  V30 17078 C 1550.27 1.88984 0.854389 0
M  V30 17079 C 1550.7 0.738037 1.73016 0
M  V30 17080 O 1550.06 -0.311728 1.786 0
M  V30 17081 C 1550.1 3.19584 1.67028 0
M  V30 17082 O 1549.21 3.04935 2.77648 0
M  V30 17083 H 1548.55 0.620354 0.236763 0
M  V30 17084 H 1551.08 2.04295 0.111647 0
M  V30 17085 H 1551.09 3.52109 2.06115 0
M  V30 17086 H 1549.76 4.03012 1.02732 0
M  V30 17087 H 1548.34 2.83861 2.41821 0
M  V30 17088 N 1550.53 -0.396836 1.52522 0
M  V30 17089 C 1551.44 -1.50871 1.79653 0
M  V30 17090 C 1552.45 -1.60043 0.682804 0
M  V30 17091 O 1553.63 -1.76527 0.96955 0
M  V30 17092 C 1550.69 -2.86485 1.95263 0
M  V30 17093 C 1549.75 -2.87099 3.19175 0
M  V30 17094 C 1548.99 -4.16244 3.34031 0
M  V30 17095 O 1549.21 -5.1079 2.5387 0
M  V30 17096 O 1548.14 -4.23962 4.27247 0
M  V30 17097 H 1551.97 -1.30878 2.74052 0
M  V30 17098 H 1549.56 -0.583908 1.37517 0
M  V30 17099 H 1551.44 -3.66895 2.07282 0
M  V30 17100 H 1550.11 -3.0652 1.04052 0
M  V30 17101 H 1549.02 -2.05497 3.12605 0
M  V30 17102 H 1550.35 -2.72014 4.10206 0
M  V30 17103 N 1552.01 -1.43353 -0.654814 0
M  V30 17104 C 1552.95 -1.48652 -1.789 0
M  V30 17105 C 1553.95 -0.360274 -1.65525 0
M  V30 17106 O 1555.15 -0.534194 -1.71891 0
M  V30 17107 H 1551.53 -0.465987 -0.590221 0
M  V30 17108 H 1553.5 -2.44158 -1.7155 0
M  V30 17109 C 1552.25 -1.42512 -3.17152 0
M  V30 17110 H 1551.57 -2.28479 -3.28081 0
M  V30 17111 H 1553.01 -1.50282 -3.96474 0
M  V30 17112 C 1551.47 -0.142511 -3.36598 0
M  V30 17113 O 1552 0.796821 -3.93718 0
M  V30 17114 N 1550.21 -0.0532157 -2.90551 0
M  V30 17115 H 1549.75 -0.818421 -2.44253 0
M  V30 17116 H 1549.71 0.80427 -3.03939 0
M  V30 17117 N 1553.48 0.89303 -1.29857 0
M  V30 17118 C 1554.72 1.65836 -1.19489 0
M  V30 17119 C 1555.09 1.90389 0.248194 0
M  V30 17120 O 1556.29 2.6457 0.474963 0
M  V30 17121 C 1554.56 2.96706 -1.9925 0
M  V30 17122 S 1556.12 3.8771 -2.05492 0
M  V30 17123 H 1552.94 0.569282 -0.425956 0
M  V30 17124 H 1555.54 1.06061 -1.64229 0
M  V30 17125 H 1554.24 2.76554 -3.03226 0
M  V30 17126 H 1553.77 3.61518 -1.55141 0
M  V30 17127 H 1555.79 4.82052 -1.17644 0
M  V30 17128 N 1554.96 1.12442 1.10429 0
M  V30 17129 C 1555.91 0.787578 2.18861 0
M  V30 17130 C 1556.9 -0.225602 1.67891 0
M  V30 17131 O 1558.11 -0.0838029 1.79805 0
M  V30 17132 H 1554.48 0.236858 0.713724 0
M  V30 17133 H 1556.46 1.71048 2.4451 0
M  V30 17134 C 1555.2 0.25854 3.46737 0
M  V30 17135 H 1554.53 1.02945 3.86319 0
M  V30 17136 H 1555.97 0.0611642 4.23956 0
M  V30 17137 C 1554.43 -1.01353 3.21293 0
M  V30 17138 O 1554.96 -2.09132 3.42967 0
M  V30 17139 N 1553.16 -0.940498 2.7496 0
M  V30 17140 H 1552.71 -0.0632962 2.57522 0
M  V30 17141 H 1552.67 -1.79226 2.58313 0
M  V30 17142 N 1556.44 -1.28223 0.91633 0
M  V30 17143 C 1557.39 -2.27215 0.40521 0
M  V30 17144 C 1558.36 -1.57693 -0.521734 0
M  V30 17145 O 1559.54 -1.85577 -0.443369 0
M  V30 17146 C 1556.68 -3.43358 -0.346303 0
M  V30 17147 C 1555.79 -4.27622 0.613443 0
M  V30 17148 C 1554.93 -5.30969 -0.156775 0
M  V30 17149 C 1553.97 -6.06897 0.796418 0
M  V30 17150 N 1553.11 -7.02075 0.0595539 0
M  V30 17151 H 1557.95 -2.70312 1.2544 0
M  V30 17152 H 1555.48 -1.32933 0.629859 0
M  V30 17153 H 1557.44 -4.09492 -0.798231 0
M  V30 17154 H 1556.07 -3.01244 -1.15982 0
M  V30 17155 H 1555.12 -3.61508 1.1839 0
M  V30 17156 H 1556.43 -4.80397 1.34239 0
M  V30 17157 H 1555.59 -6.02999 -0.669146 0
M  V30 17158 H 1554.33 -4.78968 -0.918755 0
M  V30 17159 H 1553.33 -5.33716 1.32014 0
M  V30 17160 H 1554.56 -6.60987 1.558 0
M  V30 17161 H 1552.5 -6.5242 -0.684388 0
M  V30 17162 H 1552.42 -7.52484 0.728275 0
M  V30 17163 H 1553.69 -7.78299 -0.432538 0
M  V30 17164 N 1557.92 -0.68059 -1.42147 0
M  V30 17165 C 1558.87 0.00572503 -2.32599 0
M  V30 17166 C 1559.86 0.784449 -1.50142 0
M  V30 17167 O 1561.07 0.69176 -1.66177 0
M  V30 17168 H 1557.44 0.0206483 -0.751716 0
M  V30 17169 H 1559.41 -0.774447 -2.88175 0
M  V30 17170 C 1558.16 0.939019 -3.3478 0
M  V30 17171 H 1557.48 0.349225 -3.98272 0
M  V30 17172 H 1558.92 1.38782 -4.00644 0
M  V30 17173 C 1557.38 2.04814 -2.67493 0
M  V30 17174 O 1557.91 3.13526 -2.51126 0
M  V30 17175 N 1556.12 1.82153 -2.26426 0
M  V30 17176 H 1555.67 0.93743 -2.39938 0
M  V30 17177 H 1555.62 2.56551 -1.81738 0
M  V30 17178 N 1559.4 1.51781 -0.424309 0
M  V30 17179 C 1560.34 2.27418 0.393668 0
M  V30 17180 C 1561.31 1.3046 1.02808 0
M  V30 17181 O 1562.5 1.59345 1.04946 0
M  V30 17182 C 1559.64 3.10983 1.49611 0
M  V30 17183 C 1558.75 4.22919 0.881123 0
M  V30 17184 C 1557.89 4.93816 1.95752 0
M  V30 17185 C 1556.92 5.97691 1.32028 0
M  V30 17186 N 1556.06 6.62047 2.33747 0
M  V30 17187 H 1560.9 2.96883 -0.257731 0
M  V30 17188 H 1558.44 1.46442 -0.138942 0
M  V30 17189 H 1560.4 3.57749 2.14642 0
M  V30 17190 H 1559.03 2.43658 2.11732 0
M  V30 17191 H 1558.08 3.80212 0.119445 0
M  V30 17192 H 1559.39 4.97383 0.375764 0
M  V30 17193 H 1558.54 5.44064 2.68476 0
M  V30 17194 H 1557.28 4.18954 2.49658 0
M  V30 17195 H 1556.29 5.46749 0.578444 0
M  V30 17196 H 1557.51 6.74504 0.788722 0
M  V30 17197 H 1555.46 5.90005 2.86757 0
M  V30 17198 H 1555.38 7.32234 1.88066 0
M  V30 17199 H 1556.64 7.16929 3.05995 0
M  V30 17200 N 1560.87 0.155222 1.56834 0
M  V30 17201 C 1562.12 -0.493826 1.96386 0
M  V30 17202 C 1562.45 -1.6433 1.04048 0
M  V30 17203 O 1561.7 -1.9557 0.0713123 0
M  V30 17204 C 1562 -1.03346 3.42132 0
M  V30 17205 C 1561.67 -0.00157215 4.509 0
M  V30 17206 C 1560.33 0.282068 4.80373 0
M  V30 17207 C 1562.68 0.699684 5.16482 0
M  V30 17208 C 1560.01 1.27263 5.72731 0
M  V30 17209 C 1562.36 1.67912 6.09908 0
M  V30 17210 C 1561.03 1.97037 6.37756 0
M  V30 17211 H 1560.3 -0.180704 0.718629 0
M  V30 17212 H 1562.94 0.243789 1.89942 0
M  V30 17213 H 1561.25 -1.84857 3.45449 0
M  V30 17214 H 1562.95 -1.54437 3.70068 0
M  V30 17215 H 1559.54 -0.232824 4.27967 0
M  V30 17216 H 1563.72 0.493751 4.93838 0
M  V30 17217 H 1558.98 1.50464 5.92597 0
M  V30 17218 H 1563.15 2.22796 6.59799 0
M  V30 17219 H 1560.78 2.73944 7.09125 0
M  V30 17220 N 1562.35 -1.57153 -0.118549 0
M  V30 17221 C 1563.28 -2.03409 -1.1466 0
M  V30 17222 C 1564.26 -0.918636 -1.43161 0
M  V30 17223 O 1565.45 -1.18838 -1.53594 0
M  V30 17224 C 1562.58 -2.43879 -2.47265 0
M  V30 17225 C 1561.53 -3.58873 -2.33225 0
M  V30 17226 C 1560.86 -3.85244 -3.70798 0
M  V30 17227 C 1562.16 -4.90582 -1.79239 0
M  V30 17228 H 1563.85 -2.89545 -0.761862 0
M  V30 17229 H 1561.4 -1.39296 -0.365034 0
M  V30 17230 H 1563.35 -2.74844 -3.19435 0
M  V30 17231 H 1562.07 -1.54715 -2.8763 0
M  V30 17232 H 1560.73 -3.28119 -1.63504 0
M  V30 17233 H 1560.38 -2.93285 -4.08648 0
M  V30 17234 H 1560.08 -4.62649 -3.62257 0
M  V30 17235 H 1561.61 -4.18661 -4.44472 0
M  V30 17236 H 1563.02 -5.20079 -2.41227 0
M  V30 17237 H 1561.42 -5.71989 -1.81518 0
M  V30 17238 H 1562.49 -4.79065 -0.74999 0
M  V30 17239 N 1563.83 0.388742 -1.5273 0
M  V30 17240 C 1565.11 1.14799 -1.58368 0
M  V30 17241 C 1565.49 2.07706 -0.377018 0
M  V30 17242 O 1564.83 2.1951 0.634634 0
M  V30 17243 C 1565.04 1.90745 -2.92262 0
M  V30 17244 C 1566.39 2.46098 -3.46007 0
M  V30 17245 O 1567.42 2.00901 -2.94138 0
M  V30 17246 O 1566.28 3.28658 -4.3663 0
M  V30 17247 H 1563.37 0.52529 -0.638748 0
M  V30 17248 H 1565.92 0.393874 -1.65066 0
M  V30 17249 H 1564.69 1.22806 -3.7153 0
M  V30 17250 H 1564.31 2.73118 -2.88951 0
M  V30 17251 N 1565.31 1.43698 0.647203 0
M  V30 17252 C 1566.24 1.45295 1.77262 0
M  V30 17253 C 1567.25 0.34831 1.5903 0
M  V30 17254 O 1568.44 0.613106 1.6764 0
M  V30 17255 C 1565.54 1.25584 3.14773 0
M  V30 17256 C 1564.71 2.48998 3.59609 0
M  V30 17257 C 1563.77 2.24423 4.75942 0
M  V30 17258 O 1562.8 2.97813 4.85073 0
M  V30 17259 N 1564 1.26465 5.66557 0
M  V30 17260 H 1566.77 2.42311 1.76368 0
M  V30 17261 H 1564.33 1.38931 0.831247 0
M  V30 17262 H 1566.32 1.07016 3.90294 0
M  V30 17263 H 1564.89 0.369927 3.10403 0
M  V30 17264 H 1564.11 2.82951 2.74467 0
M  V30 17265 H 1565.4 3.31119 3.86313 0
M  V30 17266 H 1564.8 0.658206 5.61858 0
M  V30 17267 H 1563.35 1.13879 6.41775 0
M  V30 17268 N 1566.79 -0.886131 1.30328 0
M  V30 17269 C 1567.73 -2.01312 1.16516 0
M  V30 17270 C 1568.73 -1.69223 0.0773431 0
M  V30 17271 O 1569.93 -1.78418 0.238111 0
M  V30 17272 H 1566.31 -0.66006 0.360312 0
M  V30 17273 H 1568.28 -2.10097 2.11901 0
M  V30 17274 C 1567.03 -3.36573 0.872592 0
M  V30 17275 H 1566.35 -3.61775 1.70172 0
M  V30 17276 H 1567.79 -4.16073 0.816049 0
M  V30 17277 C 1566.25 -3.34215 -0.424465 0
M  V30 17278 O 1566.78 -3.74758 -1.44634 0
M  V30 17279 N 1564.99 -2.87323 -0.435207 0
M  V30 17280 H 1564.53 -2.54525 0.396851 0
M  V30 17281 H 1564.49 -2.86128 -1.303 0
M  V30 17282 N 1568.26 -1.13026 -1.09832 0
M  V30 17283 C 1569.19 -0.826338 -2.18389 0
M  V30 17284 C 1570.18 0.212529 -1.68767 0
M  V30 17285 O 1571.36 0.072363 -1.94065 0
M  V30 17286 C 1568.49 -0.286991 -3.46112 0
M  V30 17287 C 1567.44 -1.25963 -4.09044 0
M  V30 17288 C 1566.77 -0.580231 -5.31542 0
M  V30 17289 C 1568.07 -2.61661 -4.5203 0
M  V30 17290 H 1569.76 -1.73408 -2.4407 0
M  V30 17291 H 1567.31 -0.835201 -1.17305 0
M  V30 17292 H 1569.26 -0.062067 -4.21354 0
M  V30 17293 H 1567.99 0.656121 -3.19942 0
M  V30 17294 H 1566.65 -1.47047 -3.35816 0
M  V30 17295 H 1566.29 0.368222 -5.0165 0
M  V30 17296 H 1565.99 -1.2291 -5.74601 0
M  V30 17297 H 1567.52 -0.36449 -6.09511 0
M  V30 17298 H 1568.93 -2.44569 -5.18516 0
M  V30 17299 H 1567.33 -3.22685 -5.05959 0
M  V30 17300 H 1568.4 -3.19637 -3.64637 0
M  V30 17301 N 1569.74 1.27735 -0.923117 0
M  V30 17302 C 1570.67 2.26095 -0.375982 0
M  V30 17303 C 1571.69 1.55227 0.490763 0
M  V30 17304 O 1572.88 1.7589 0.304127 0
M  V30 17305 C 1569.98 3.35479 0.480342 0
M  V30 17306 C 1569.15 4.35866 -0.36605 0
M  V30 17307 C 1568.21 5.24466 0.42688 0
M  V30 17308 O 1567.23 5.68964 -0.163825 0
M  V30 17309 N 1568.44 5.54192 1.72777 0
M  V30 17310 H 1571.2 2.73679 -1.22147 0
M  V30 17311 H 1568.76 1.41314 -0.790056 0
M  V30 17312 H 1570.75 3.91693 1.01776 0
M  V30 17313 H 1569.32 2.87531 1.22657 0
M  V30 17314 H 1568.54 3.7898 -1.08479 0
M  V30 17315 H 1569.83 4.9995 -0.944849 0
M  V30 17316 H 1569.23 5.19888 2.23008 0
M  V30 17317 H 1567.79 6.13125 2.21181 0
M  V30 17318 N 1571.22 0.688118 1.41784 0
M  V30 17319 C 1572.17 0.018099 2.30793 0
M  V30 17320 C 1573.14 -0.779009 1.46699 0
M  V30 17321 O 1574.32 -0.748556 1.75503 0
M  V30 17322 C 1571.46 -0.91769 3.32675 0
M  V30 17323 C 1570.58 -0.11299 4.31852 0
M  V30 17324 C 1569.71 -1.04574 5.20805 0
M  V30 17325 C 1568.75 -0.233509 6.11654 0
M  V30 17326 N 1567.89 -1.11967 6.93115 0
M  V30 17327 H 1572.73 0.782911 2.87532 0
M  V30 17328 H 1570.26 0.397806 1.41619 0
M  V30 17329 H 1572.22 -1.47421 3.90286 0
M  V30 17330 H 1570.85 -1.64898 2.77504 0
M  V30 17331 H 1569.9 0.560344 3.7625 0
M  V30 17332 H 1571.22 0.517033 4.96113 0
M  V30 17333 H 1570.37 -1.67174 5.83213 0
M  V30 17334 H 1569.11 -1.70963 4.56753 0
M  V30 17335 H 1568.11 0.405614 5.48302 0
M  V30 17336 H 1569.34 0.426479 6.7776 0
M  V30 17337 H 1567.28 -1.76972 6.31678 0
M  V30 17338 H 1567.2 -0.545042 7.54033 0
M  V30 17339 H 1568.47 -1.73272 7.59998 0
M  V30 17340 N 1572.7 -1.51554 0.432352 0
M  V30 17341 C 1573.93 -2.06162 -0.134405 0
M  V30 17342 C 1574.34 -1.30027 -1.37439 0
M  V30 17343 O 1573.68 -0.351793 -1.803 0
M  V30 17344 C 1573.74 -3.55617 -0.526926 0
M  V30 17345 C 1573.41 -4.5297 0.605559 0
M  V30 17346 C 1574.4 -4.98502 1.47619 0
M  V30 17347 C 1572.09 -4.9613 0.784871 0
M  V30 17348 C 1574.08 -5.85861 2.51088 0
M  V30 17349 C 1571.77 -5.8328 1.82284 0
M  V30 17350 C 1572.77 -6.28043 2.68423 0
M  V30 17351 O 1572.45 -7.13464 3.70438 0
M  V30 17352 H 1572.19 -0.675863 -0.0135879 0
M  V30 17353 H 1574.74 -1.96172 0.608761 0
M  V30 17354 H 1572.97 -3.63374 -1.32272 0
M  V30 17355 H 1574.66 -3.92764 -1.02426 0
M  V30 17356 H 1575.43 -4.65857 1.34917 0
M  V30 17357 H 1571.3 -4.60833 0.123986 0
M  V30 17358 H 1574.85 -6.20722 3.18356 0
M  V30 17359 H 1570.75 -6.15339 1.95008 0
M  V30 17360 H 1571.51 -7.3163 3.6696 0
M  V30 17361 N 1574.18 -0.163538 -1.56749 0
M  V30 17362 C 1575.11 0.801071 -2.14745 0
M  V30 17363 C 1576.12 1.1992 -1.10104 0
M  V30 17364 O 1577.31 1.14041 -1.37321 0
M  V30 17365 C 1574.41 2.08867 -2.66886 0
M  V30 17366 C 1573.58 1.85532 -3.96102 0
M  V30 17367 C 1572.64 2.98436 -4.33385 0
M  V30 17368 O 1571.67 2.69408 -5.01406 0
M  V30 17369 N 1572.87 4.26029 -3.94309 0
M  V30 17370 H 1575.64 0.3053 -2.98141 0
M  V30 17371 H 1573.2 0.019501 -1.61888 0
M  V30 17372 H 1575.19 2.83477 -2.8883 0
M  V30 17373 H 1573.76 2.49657 -1.88122 0
M  V30 17374 H 1572.98 0.94868 -3.82614 0
M  V30 17375 H 1574.27 1.673 -4.80508 0
M  V30 17376 H 1573.66 4.52475 -3.39533 0
M  V30 17377 H 1572.22 4.97367 -4.21271 0
M  V30 17378 N 1575.65 1.57214 0.110213 0
M  V30 17379 C 1576.62 2.00034 1.11888 0
M  V30 17380 C 1577.62 0.891697 1.33811 0
M  V30 17381 O 1578.81 1.15754 1.3018 0
M  V30 17382 C 1575.94 2.34806 2.47142 0
M  V30 17383 H 1577.13 2.90354 0.750647 0
M  V30 17384 H 1574.69 1.5222 0.35479 0
M  V30 17385 H 1575.42 1.47393 2.8887 0
M  V30 17386 H 1575.21 3.15671 2.32581 0
M  V30 17387 H 1576.7 2.68644 3.19719 0
M  V30 17388 N 1577.13 -0.380637 1.52934 0
M  V30 17389 C 1578.04 -1.48957 1.81243 0
M  V30 17390 C 1579.06 -1.5931 0.69974 0
M  V30 17391 O 1580.23 -1.75488 0.988218 0
M  V30 17392 C 1577.3 -2.84397 1.9829 0
M  V30 17393 C 1576.36 -2.83697 3.22202 0
M  V30 17394 C 1575.59 -4.12677 3.38427 0
M  V30 17395 O 1575.82 -5.08068 2.59274 0
M  V30 17396 O 1574.75 -4.19407 4.31719 0
M  V30 17397 H 1578.58 -1.27964 2.75425 0
M  V30 17398 H 1576.16 -0.56929 1.38128 0
M  V30 17399 H 1578.04 -3.64676 2.11161 0
M  V30 17400 H 1576.72 -3.054 1.07298 0
M  V30 17401 H 1575.63 -2.0217 3.14767 0
M  V30 17402 H 1576.96 -2.67648 4.13068 0
M  V30 17403 N 1578.61 -1.44039 -0.639573 0
M  V30 17404 C 1579.85 -1.47892 -1.41093 0
M  V30 17405 C 1580.21 -0.105393 -1.91711 0
M  V30 17406 O 1581.42 -0.0186006 -2.68794 0
M  V30 17407 C 1579.69 -2.50313 -2.55104 0
M  V30 17408 S 1581.25 -2.73148 -3.43417 0
M  V30 17409 H 1578.06 -0.523189 -0.48145 0
M  V30 17410 H 1580.67 -1.80903 -0.741236 0
M  V30 17411 H 1579.37 -3.48826 -2.16214 0
M  V30 17412 H 1578.9 -2.18846 -3.2691 0
M  V30 17413 H 1580.92 -2.04105 -4.52278 0
M  V30 17414 N 1580.09 0.879207 -1.30796 0
M  V30 17415 C 1581.31 1.66975 -1.23021 0
M  V30 17416 C 1581.74 1.87004 0.202798 0
M  V30 17417 O 1581.1 1.40514 1.14566 0
M  V30 17418 C 1581.14 3.02028 -1.97007 0
M  V30 17419 O 1580.25 3.91338 -1.30109 0
M  V30 17420 H 1579.59 0.509998 -0.425204 0
M  V30 17421 H 1582.12 1.09688 -1.72713 0
M  V30 17422 H 1582.13 3.5203 -2.06249 0
M  V30 17423 H 1580.8 2.8677 -3.01224 0
M  V30 17424 H 1579.38 3.49781 -1.29258 0
M  V30 17425 N 1581.57 1.13606 1.09231 0
M  V30 17426 C 1582.5 0.77306 2.15769 0
M  V30 17427 C 1583.51 -0.206148 1.6149 0
M  V30 17428 O 1584.7 0.014338 1.78494 0
M  V30 17429 C 1581.8 0.125475 3.38668 0
M  V30 17430 C 1580.97 1.13728 4.22356 0
M  V30 17431 C 1580.03 0.515021 5.23674 0
M  V30 17432 O 1579.06 1.1756 5.56928 0
M  V30 17433 N 1580.26 -0.712028 5.76117 0
M  V30 17434 H 1583.03 1.68984 2.47517 0
M  V30 17435 H 1580.59 1.02935 1.24964 0
M  V30 17436 H 1582.58 -0.303109 4.03563 0
M  V30 17437 H 1581.15 -0.694284 3.04792 0
M  V30 17438 H 1580.37 1.74309 3.53568 0
M  V30 17439 H 1581.66 1.82106 4.75094 0
M  V30 17440 H 1581.06 -1.26745 5.51319 0
M  V30 17441 H 1579.61 -1.08324 6.42736 0
M  V30 17442 N 1583.05 -1.27244 0.929878 0
M  V30 17443 C 1584.29 -1.94269 0.57146 0
M  V30 17444 C 1584.62 -1.73064 -0.887639 0
M  V30 17445 O 1583.88 -1.05422 -1.64878 0
M  V30 17446 C 1584.17 -3.47233 0.846386 0
M  V30 17447 C 1583.84 -3.88563 2.28757 0
M  V30 17448 C 1582.5 -3.99557 2.68156 0
M  V30 17449 C 1584.85 -4.09468 3.22467 0
M  V30 17450 C 1582.18 -4.28846 4.00385 0
M  V30 17451 C 1584.53 -4.40242 4.54279 0
M  V30 17452 C 1583.2 -4.4945 4.93509 0
M  V30 17453 H 1582.47 -0.710882 0.209112 0
M  V30 17454 H 1585.12 -1.51273 1.17425 0
M  V30 17455 H 1583.42 -3.91469 0.160941 0
M  V30 17456 H 1585.12 -3.97238 0.548006 0
M  V30 17457 H 1581.71 -3.80544 1.97192 0
M  V30 17458 H 1585.89 -4.00412 2.9323 0
M  V30 17459 H 1581.15 -4.34184 4.30458 0
M  V30 17460 H 1585.32 -4.55365 5.26892 0
M  V30 17461 H 1582.95 -4.71899 5.95999 0
M  V30 17462 N 1584.52 -0.695628 -1.41417 0
M  V30 17463 C 1585.47 -0.0303383 -2.3078 0
M  V30 17464 C 1586.44 0.771218 -1.4711 0
M  V30 17465 O 1587.63 0.739239 -1.75897 0
M  V30 17466 C 1584.77 0.900034 -3.33157 0
M  V30 17467 C 1583.88 0.0900862 -4.31906 0
M  V30 17468 C 1583.01 1.01811 -5.21352 0
M  V30 17469 C 1582.05 0.201068 -6.1177 0
M  V30 17470 N 1581.19 1.0829 -6.93699 0
M  V30 17471 H 1586.03 -0.798148 -2.87113 0
M  V30 17472 H 1583.57 -0.405311 -1.41406 0
M  V30 17473 H 1585.52 1.45349 -3.91062 0
M  V30 17474 H 1584.15 1.63424 -2.78375 0
M  V30 17475 H 1583.21 -0.58029 -3.75948 0
M  V30 17476 H 1584.52 -0.543336 -4.95832 0
M  V30 17477 H 1583.67 1.64079 -5.84092 0
M  V30 17478 H 1582.41 1.68538 -4.57653 0
M  V30 17479 H 1581.42 -0.434686 -5.48079 0
M  V30 17480 H 1582.64 -0.462416 -6.77524 0
M  V30 17481 H 1580.59 1.73619 -6.32608 0
M  V30 17482 H 1580.5 0.505046 -7.54311 0
M  V30 17483 H 1581.77 1.69239 -7.60906 0
M  V30 17484 N 1586 1.51322 -0.440383 0
M  V30 17485 C 1586.96 2.26388 0.357911 0
M  V30 17486 C 1587.96 1.2995 0.947083 0
M  V30 17487 O 1589.15 1.53637 0.821057 0
M  V30 17488 C 1586.29 3.05797 1.50669 0
M  V30 17489 H 1587.48 2.98396 -0.300002 0
M  V30 17490 H 1585.03 1.55096 -0.193628 0
M  V30 17491 H 1585.77 2.38213 2.20057 0
M  V30 17492 H 1585.55 3.76634 1.09037 0
M  V30 17493 H 1587.04 3.6265 2.07062 0
M  V30 17494 N 1587.48 0.171848 1.5666 0
M  V30 17495 C 1588.43 -0.758237 2.17989 0
M  V30 17496 C 1589.4 -1.22654 1.12006 0
M  V30 17497 O 1590.58 -1.29461 1.40159 0
M  V30 17498 C 1587.72 -1.98189 2.82516 0
M  V30 17499 C 1586.83 -1.55711 4.02962 0
M  V30 17500 C 1585.97 -2.73447 4.55412 0
M  V30 17501 C 1585.01 -2.27462 5.68267 0
M  V30 17502 N 1584.15 -3.38293 6.15225 0
M  V30 17503 H 1588.99 -0.228467 2.97123 0
M  V30 17504 H 1586.52 -0.10104 1.46753 0
M  V30 17505 H 1588.48 -2.6996 3.18084 0
M  V30 17506 H 1587.11 -2.48536 2.05985 0
M  V30 17507 H 1586.16 -0.736126 3.7321 0
M  V30 17508 H 1587.47 -1.17957 4.84652 0
M  V30 17509 H 1586.63 -3.53374 4.93165 0
M  V30 17510 H 1585.37 -3.14462 3.7278 0
M  V30 17511 H 1584.37 -1.45982 5.30065 0
M  V30 17512 H 1585.6 -1.87505 6.52701 0
M  V30 17513 H 1583.54 -3.78882 5.35522 0
M  V30 17514 H 1583.46 -3.04633 6.91907 0
M  V30 17515 H 1584.73 -4.18503 6.57629 0
M  V30 17516 N 1588.96 -1.5727 -0.101874 0
M  V30 17517 C 1589.89 -2.04614 -1.12496 0
M  V30 17518 C 1590.87 -0.933768 -1.42179 0
M  V30 17519 O 1592.05 -1.2046 -1.52325 0
M  V30 17520 C 1589.18 -2.46488 -2.44665 0
M  V30 17521 C 1588.14 -3.61327 -2.29406 0
M  V30 17522 C 1587.46 -3.89155 -3.66691 0
M  V30 17523 C 1588.76 -4.92455 -1.74026 0
M  V30 17524 H 1590.46 -2.90336 -0.731109 0
M  V30 17525 H 1588 -1.39676 -0.350239 0
M  V30 17526 H 1589.96 -2.78216 -3.16502 0
M  V30 17527 H 1588.68 -1.57757 -2.85972 0
M  V30 17528 H 1587.34 -3.29835 -1.60015 0
M  V30 17529 H 1586.99 -2.97603 -4.05514 0
M  V30 17530 H 1586.69 -4.66465 -3.57329 0
M  V30 17531 H 1588.21 -4.23352 -4.40006 0
M  V30 17532 H 1589.63 -5.22609 -2.35697 0
M  V30 17533 H 1588.02 -5.73882 -1.75441 0
M  V30 17534 H 1589.09 -4.79833 -0.699136 0
M  V30 17535 N 1590.44 0.372521 -1.53134 0
M  V30 17536 C 1591.4 1.43875 -1.78417 0
M  V30 17537 C 1592.4 1.46879 -0.654455 0
M  V30 17538 O 1593.59 1.47761 -0.922619 0
M  V30 17539 C 1590.72 2.83046 -1.89994 0
M  V30 17540 H 1591.91 1.22733 -2.73636 0
M  V30 17541 H 1589.47 0.605247 -1.44106 0
M  V30 17542 H 1590.2 3.09511 -0.968179 0
M  V30 17543 H 1589.99 2.82265 -2.72156 0
M  V30 17544 H 1591.48 3.60273 -2.11171 0
M  V30 17545 N 1591.91 1.44376 0.631925 0
M  V30 17546 C 1593.14 1.5082 1.42366 0
M  V30 17547 C 1593.56 0.133858 1.87623 0
M  V30 17548 O 1592.92 -0.876789 1.58689 0
M  V30 17549 C 1592.97 2.47698 2.62065 0
M  V30 17550 O 1592.07 1.97796 3.61871 0
M  V30 17551 H 1591.41 0.509318 0.426018 0
M  V30 17552 H 1593.94 1.89502 0.771376 0
M  V30 17553 H 1593.95 2.65708 3.09618 0
M  V30 17554 H 1592.63 3.47526 2.2847 0
M  V30 17555 H 1591.21 1.89549 3.21131 0
M  V30 17556 N 1593.39 -0.872258 1.31261 0
M  V30 17557 C 1594.32 -1.99517 1.21306 0
M  V30 17558 C 1595.3 -1.69801 0.100775 0
M  V30 17559 O 1596.49 -1.92098 0.284984 0
M  V30 17560 C 1593.62 -3.34968 0.917249 0
M  V30 17561 C 1592.57 -3.78984 1.98885 0
M  V30 17562 C 1591.9 -5.11869 1.54578 0
M  V30 17563 C 1593.2 -3.96338 3.40167 0
M  V30 17564 H 1594.89 -2.08104 2.15251 0
M  V30 17565 H 1592.44 -0.999865 1.03628 0
M  V30 17566 H 1594.39 -4.1306 0.834217 0
M  V30 17567 H 1593.11 -3.26549 -0.0578721 0
M  V30 17568 H 1591.77 -3.0313 2.06174 0
M  V30 17569 H 1591.42 -4.99889 0.558581 0
M  V30 17570 H 1591.12 -5.4229 2.26265 0
M  V30 17571 H 1592.65 -5.92472 1.47678 0
M  V30 17572 H 1594.06 -4.64831 3.35566 0
M  V30 17573 H 1592.46 -4.38153 4.10051 0
M  V30 17574 H 1593.53 -2.9979 3.81122 0
M  V30 17575 N 1594.87 -1.14184 -1.08627 0
M  V30 17576 C 1595.78 -0.84033 -2.19033 0
M  V30 17577 C 1596.8 0.178322 -1.73084 0
M  V30 17578 O 1597.97 0.00737963 -2.01399 0
M  V30 17579 C 1595.04 -0.319674 -3.45223 0
M  V30 17580 C 1594.1 -1.4006 -4.0581 0
M  V30 17581 C 1593.33 -0.904693 -5.25976 0
M  V30 17582 O 1593.55 0.25468 -5.69831 0
M  V30 17583 O 1592.49 -1.68267 -5.77901 0
M  V30 17584 H 1596.31 -1.76296 -2.47292 0
M  V30 17585 H 1593.9 -0.919929 -1.17719 0
M  V30 17586 H 1595.78 -0.0351268 -4.21385 0
M  V30 17587 H 1594.46 0.575264 -3.18547 0
M  V30 17588 H 1593.36 -1.73858 -3.31247 0
M  V30 17589 H 1594.7 -2.26998 -4.3673 0
M  V30 17590 N 1596.35 1.26749 -0.936613 0
M  V30 17591 C 1597.26 2.30272 -0.448573 0
M  V30 17592 C 1598.27 1.67386 0.475184 0
M  V30 17593 O 1599.45 1.98232 0.355825 0
M  V30 17594 C 1596.52 3.45546 0.28262 0
M  V30 17595 C 1595.58 4.23926 -0.677138 0
M  V30 17596 C 1594.81 5.33697 0.019255 0
M  V30 17597 O 1595.03 5.56825 1.23703 0
M  V30 17598 O 1593.97 5.98302 -0.657119 0
M  V30 17599 H 1597.79 2.74072 -1.30838 0
M  V30 17600 H 1595.38 1.31863 -0.702314 0
M  V30 17601 H 1597.26 4.15635 0.694686 0
M  V30 17602 H 1595.93 3.03784 1.11789 0
M  V30 17603 H 1594.84 3.56337 -1.13906 0
M  V30 17604 H 1596.17 4.69425 -1.47988 0
M  V30 17605 N 1597.83 0.703118 1.41046 0
M  V30 17606 C 1598.76 0.0570815 2.3343 0
M  V30 17607 C 1599.74 -0.759042 1.52225 0
M  V30 17608 O 1600.92 -0.710491 1.80736 0
M  V30 17609 C 1598.05 -0.874541 3.36109 0
M  V30 17610 C 1597.01 -0.16496 4.27682 0
M  V30 17611 C 1596.33 -1.21145 5.20795 0
M  V30 17612 C 1597.63 0.97332 5.13151 0
M  V30 17613 H 1599.33 0.828699 2.87703 0
M  V30 17614 H 1596.87 0.399956 1.38334 0
M  V30 17615 H 1598.83 -1.33579 3.99668 0
M  V30 17616 H 1597.55 -1.67791 2.80203 0
M  V30 17617 H 1596.21 0.276332 3.65557 0
M  V30 17618 H 1595.86 -2.00755 4.61201 0
M  V30 17619 H 1595.56 -0.741633 5.82901 0
M  V30 17620 H 1597.08 -1.67305 5.87232 0
M  V30 17621 H 1598.49 0.592013 5.70235 0
M  V30 17622 H 1596.89 1.37071 5.84236 0
M  V30 17623 H 1597.96 1.80961 4.49868 0
M  V30 17624 N 1599.3 -1.51086 0.448402 0
M  V30 17625 C 1600.25 -2.28015 -0.357438 0
M  V30 17626 C 1601.22 -1.32079 -1.00719 0
M  V30 17627 O 1602.41 -1.60995 -1.02398 0
M  V30 17628 C 1599.55 -3.13324 -1.44644 0
M  V30 17629 C 1598.66 -4.24267 -0.813729 0
M  V30 17630 C 1597.79 -4.96868 -1.87871 0
M  V30 17631 C 1596.83 -5.99716 -1.22502 0
M  V30 17632 N 1595.97 -6.65682 -2.23185 0
M  V30 17633 H 1600.81 -2.96436 0.30493 0
M  V30 17634 H 1598.35 -1.46203 0.162222 0
M  V30 17635 H 1600.31 -3.61119 -2.08924 0
M  V30 17636 H 1598.94 -2.46996 -2.07829 0
M  V30 17637 H 1597.99 -3.80354 -0.0589414 0
M  V30 17638 H 1599.3 -4.97917 -0.296587 0
M  V30 17639 H 1598.45 -5.48266 -2.59786 0
M  V30 17640 H 1597.19 -4.22873 -2.42961 0
M  V30 17641 H 1596.2 -5.476 -0.491388 0
M  V30 17642 H 1597.42 -6.75674 -0.681315 0
M  V30 17643 H 1595.37 -5.94493 -2.77334 0
M  V30 17644 H 1595.29 -7.35134 -1.76393 0
M  V30 17645 H 1596.55 -7.21707 -2.9455 0
M  V30 17646 N 1600.78 -0.180154 -1.56567 0
M  V30 17647 C 1602.2 0.175902 -1.58628 0
M  V30 17648 C 1602.4 1.62179 -1.19583 0
M  V30 17649 O 1601.45 2.35471 -0.911566 0
M  V30 17650 C 1602.77 -0.11292 -3.00488 0
M  V30 17651 C 1604.32 -0.051834 -3.12957 0
M  V30 17652 C 1604.79 -0.313764 -4.56924 0
M  V30 17653 N 1606.28 -0.261852 -4.62459 0
M  V30 17654 C 1607.02 -0.438573 -5.7172 0
M  V30 17655 N 1606.51 -0.674832 -6.89506 0
M  V30 17656 N 1608.31 -0.373864 -5.60855 0
M  V30 17657 H 1600.46 -1.12385 -1.80232 0
M  V30 17658 H 1602.72 -0.447459 -0.835754 0
M  V30 17659 H 1602.43 -1.11488 -3.33562 0
M  V30 17660 H 1602.3 0.591409 -3.72535 0
M  V30 17661 H 1604.69 0.940711 -2.79705 0
M  V30 17662 H 1604.77 -0.78901 -2.43327 0
M  V30 17663 H 1604.41 -1.30356 -4.90887 0
M  V30 17664 H 1604.34 0.444127 -5.24724 0
M  V30 17665 H 1606.83 -0.0852513 -3.77804 0
M  V30 17666 H 1607.15 -0.798891 -7.6866 0
M  V30 17667 H 1605.49 -0.711551 -6.91348 0
M  V30 17668 H 1608.68 -0.189815 -4.67715 0
M  V30 17669 H 1608.85 -0.515012 -6.4595 0
M  V30 17670 N 1602.26 1.57322 0.0935319 0
M  V30 17671 C 1603.19 1.98861 1.13961 0
M  V30 17672 C 1604.21 0.891385 1.36228 0
M  V30 17673 O 1605.39 1.16949 1.34853 0
M  V30 17674 C 1602.49 2.29369 2.49485 0
M  V30 17675 C 1601.67 3.6066 2.47473 0
M  V30 17676 C 1600.73 3.79087 3.64937 0
M  V30 17677 O 1599.75 4.50923 3.47357 0
M  V30 17678 N 1600.95 3.19784 4.84478 0
M  V30 17679 H 1603.72 2.89208 0.786048 0
M  V30 17680 H 1601.28 1.59416 0.282491 0
M  V30 17681 H 1603.27 2.38889 3.26671 0
M  V30 17682 H 1601.84 1.45021 2.76925 0
M  V30 17683 H 1601.06 3.62095 1.55823 0
M  V30 17684 H 1602.35 4.46908 2.43209 0
M  V30 17685 H 1601.75 2.61436 5.01665 0
M  V30 17686 H 1600.31 3.34786 5.59251 0
M  V30 17687 N 1603.74 -0.364395 1.53329 0
M  V30 17688 C 1604.7 -1.42927 1.79178 0
M  V30 17689 C 1605.7 -1.4653 0.662235 0
M  V30 17690 O 1606.89 -1.4727 0.930442 0
M  V30 17691 C 1604.02 -2.82035 1.91492 0
M  V30 17692 H 1605.22 -1.21281 2.74283 0
M  V30 17693 H 1602.77 -0.597596 1.44425 0
M  V30 17694 H 1603.5 -3.08993 0.984579 0
M  V30 17695 H 1603.29 -2.80818 2.73649 0
M  V30 17696 H 1604.78 -3.59148 2.13078 0
M  V30 17697 N 1605.22 -1.44709 -0.62426 0
M  V30 17698 C 1606.13 -1.54608 -1.76447 0
M  V30 17699 C 1607.14 -0.43137 -1.68568 0
M  V30 17700 O 1608.32 -0.6897 -1.89222 0
M  V30 17701 C 1605.38 -1.49404 -3.12857 0
M  V30 17702 C 1604.44 -2.71782 -3.32315 0
M  V30 17703 C 1603.68 -2.66817 -4.62217 0
M  V30 17704 O 1603.9 -1.73205 -5.43467 0
M  V30 17705 O 1602.83 -3.57773 -4.84027 0
M  V30 17706 H 1606.66 -2.50951 -1.71048 0
M  V30 17707 H 1604.25 -1.27033 -0.786326 0
M  V30 17708 H 1606.13 -1.4905 -3.9416 0
M  V30 17709 H 1604.8 -0.562078 -3.18783 0
M  V30 17710 H 1603.71 -2.77702 -2.50664 0
M  V30 17711 H 1605.04 -3.64048 -3.31255 0
M  V30 17712 N 1606.69 0.865285 -1.31722 0
M  V30 17713 C 1607.62 1.98871 -1.22362 0
M  V30 17714 C 1608.61 1.69745 -0.109779 0
M  V30 17715 O 1609.79 1.91944 -0.295167 0
M  V30 17716 C 1606.92 3.34477 -0.935 0
M  V30 17717 C 1605.87 3.77924 -2.00892 0
M  V30 17718 C 1605.2 5.11042 -1.57291 0
M  V30 17719 C 1606.5 3.94528 -3.42264 0
M  V30 17720 H 1608.19 2.06959 -2.16352 0
M  V30 17721 H 1605.74 0.994355 -1.04157 0
M  V30 17722 H 1607.69 4.12612 -0.856111 0
M  V30 17723 H 1606.42 3.26575 0.0405536 0
M  V30 17724 H 1605.08 3.02032 -2.07779 0
M  V30 17725 H 1604.72 4.99586 -0.585084 0
M  V30 17726 H 1604.42 5.41082 -2.29138 0
M  V30 17727 H 1605.95 5.91681 -1.50818 0
M  V30 17728 H 1607.36 4.63045 -3.38027 0
M  V30 17729 H 1605.76 4.35972 -4.12369 0
M  V30 17730 H 1606.83 2.97765 -3.82706 0
M  V30 17731 N 1608.17 1.14759 1.0802 0
M  V30 17732 C 1609.45 0.828957 1.77166 0
M  V30 17733 C 1609.83 -0.676783 1.99957 0
M  V30 17734 O 1609.18 -1.61891 1.61256 0
M  V30 17735 C 1609.39 1.63213 3.08484 0
M  V30 17736 C 1610.74 1.834 3.82948 0
M  V30 17737 O 1611.76 1.59932 3.18277 0
M  V30 17738 O 1610.62 2.22661 4.99083 0
M  V30 17739 H 1607.71 0.304168 0.769032 0
M  V30 17740 H 1610.26 1.253 1.14446 0
M  V30 17741 H 1609.03 2.65474 2.8747 0
M  V30 17742 H 1608.65 1.20397 3.78933 0
M  V30 17743 N 1609.65 -1.26251 0.943322 0
M  V30 17744 C 1610.9 -1.9327 0.590863 0
M  V30 17745 C 1611.22 -1.74356 -0.873212 0
M  V30 17746 O 1610.49 -1.10046 -1.6207 0
M  V30 17747 H 1609.07 -0.71523 0.215535 0
M  V30 17748 H 1611.73 -1.53647 1.19911 0
M  V30 17749 H 1610.83 -3.01393 0.810475 0
M  V30 17750 N 1611.13 -0.710588 -1.40671 0
M  V30 17751 C 1612.08 -0.0548139 -2.30735 0
M  V30 17752 C 1613.05 0.755572 -1.4792 0
M  V30 17753 O 1614.23 0.720541 -1.76672 0
M  V30 17754 C 1611.37 0.864648 -3.34093 0
M  V30 17755 C 1610.48 0.0442717 -4.31977 0
M  V30 17756 C 1609.62 0.962752 -5.22403 0
M  V30 17757 C 1608.66 0.13617 -6.11949 0
M  V30 17758 N 1607.8 1.00926 -6.94808 0
M  V30 17759 H 1612.64 -0.828555 -2.8625 0
M  V30 17760 H 1610.17 -0.420286 -1.40968 0
M  V30 17761 H 1612.13 1.41193 -3.92582 0
M  V30 17762 H 1610.76 1.60462 -2.80092 0
M  V30 17763 H 1609.81 -0.620132 -3.75311 0
M  V30 17764 H 1611.12 -0.595895 -4.95228 0
M  V30 17765 H 1610.28 1.57874 -5.85799 0
M  V30 17766 H 1609.02 1.63675 -4.59415 0
M  V30 17767 H 1608.02 -0.492793 -5.47587 0
M  V30 17768 H 1609.25 -0.534251 -6.76995 0
M  V30 17769 H 1607.19 1.669 -6.34413 0
M  V30 17770 H 1607.11 0.425013 -7.54804 0
M  V30 17771 H 1608.38 1.61159 -7.62659 0
M  V30 17772 N 1612.61 1.50847 -0.456408 0
M  V30 17773 C 1613.83 2.07139 0.104054 0
M  V30 17774 C 1614.26 1.31966 1.34039 0
M  V30 17775 O 1613.62 0.363038 1.77628 0
M  V30 17776 C 1613.66 3.5853 0.385794 0
M  V30 17777 O 1612.77 3.85351 1.46895 0
M  V30 17778 H 1612.11 0.663968 -0.00651246 0
M  V30 17779 H 1614.64 1.94226 -0.64323 0
M  V30 17780 H 1614.65 4.03097 0.630644 0
M  V30 17781 H 1613.32 4.12665 -0.51773 0
M  V30 17782 H 1611.9 3.52635 1.21256 0
M  V30 17783 N 1614.09 0.188454 1.56469 0
M  V30 17784 C 1615.05 -0.721282 2.17555 0
M  V30 17785 C 1616.05 -1.14579 1.1282 0
M  V30 17786 O 1617.24 -1.05996 1.38241 0
M  V30 17787 C 1614.37 -1.9839 2.77226 0
M  V30 17788 H 1615.56 -0.189218 2.99302 0
M  V30 17789 H 1613.12 -0.0611533 1.5618 0
M  V30 17790 H 1613.85 -2.55864 1.99259 0
M  V30 17791 H 1613.64 -1.68831 3.53891 0
M  V30 17792 H 1615.13 -2.63277 3.24153 0
M  V30 17793 N 1615.56 -1.5737 -0.0851874 0
M  V30 17794 C 1616.51 -2.02758 -1.10262 0
M  V30 17795 C 1617.48 -0.905702 -1.39235 0
M  V30 17796 O 1618.67 -1.17241 -1.50529 0
M  V30 17797 C 1615.81 -2.46528 -2.41492 0
M  V30 17798 C 1614.92 -3.72278 -2.19165 0
M  V30 17799 C 1614.05 -4.04885 -3.43863 0
M  V30 17800 C 1613.09 -5.23715 -3.16842 0
M  V30 17801 N 1612.23 -5.52026 -4.33833 0
M  V30 17802 H 1617.07 -2.89453 -0.708583 0
M  V30 17803 H 1614.61 -1.43156 -0.338332 0
M  V30 17804 H 1616.56 -2.69952 -3.18091 0
M  V30 17805 H 1615.19 -1.62829 -2.78723 0
M  V30 17806 H 1614.25 -3.56272 -1.33321 0
M  V30 17807 H 1615.56 -4.5902 -1.95197 0
M  V30 17808 H 1614.71 -4.29138 -4.28865 0
M  V30 17809 H 1613.45 -3.16683 -3.70895 0
M  V30 17810 H 1612.46 -4.99272 -2.30234 0
M  V30 17811 H 1613.68 -6.13523 -2.91146 0
M  V30 17812 H 1611.63 -4.66784 -4.60922 0
M  V30 17813 H 1611.54 -6.3316 -4.13091 0
M  V30 17814 H 1612.81 -5.80822 -5.19871 0
M  V30 17815 N 1617.04 0.356258 -1.53521 0
M  V30 17816 C 1617.97 1.45722 -1.76912 0
M  V30 17817 C 1618.99 1.49257 -0.650091 0
M  V30 17818 O 1620.18 1.52569 -0.926557 0
M  V30 17819 C 1617.28 2.84444 -1.84241 0
M  V30 17820 C 1616.45 3.04497 -3.14007 0
M  V30 17821 C 1615.51 4.23387 -3.12458 0
M  V30 17822 O 1614.53 4.18113 -3.86225 0
M  V30 17823 N 1615.74 5.31278 -2.33931 0
M  V30 17824 H 1618.5 1.26031 -2.71912 0
M  V30 17825 H 1616.06 0.546052 -1.52414 0
M  V30 17826 H 1618.05 3.62133 -1.80671 0
M  V30 17827 H 1616.62 2.97338 -0.96484 0
M  V30 17828 H 1615.84 2.14387 -3.30805 0
M  V30 17829 H 1617.13 3.14769 -3.99747 0
M  V30 17830 H 1616.53 5.38428 -1.73527 0
M  V30 17831 H 1615.09 6.07508 -2.36171 0
M  V30 17832 N 1618.52 1.45038 0.616577 0
M  V30 17833 C 1619.47 1.53343 1.74896 0
M  V30 17834 C 1620.46 0.404033 1.64511 0
M  V30 17835 O 1621.67 0.57958 1.70414 0
M  V30 17836 H 1618.04 0.481471 0.577658 0
M  V30 17837 H 1620.01 2.4862 1.65017 0
M  V30 17838 C 1618.76 1.50871 3.13262 0
M  V30 17839 H 1618.09 2.37098 3.21908 0
M  V30 17840 H 1619.53 1.60741 3.9235 0
M  V30 17841 C 1617.98 0.231704 3.36102 0
M  V30 17842 O 1618.51 -0.692154 3.95692 0
M  V30 17843 N 1616.72 0.130232 2.90308 0
M  V30 17844 H 1616.27 0.882893 2.41997 0
M  V30 17845 H 1616.23 -0.723403 3.05964 0
M  V30 17846 N 1620 -0.858287 1.32179 0
M  V30 17847 C 1620.93 -1.98219 1.23415 0
M  V30 17848 C 1621.91 -1.69685 0.118779 0
M  V30 17849 O 1623.09 -1.91785 0.305342 0
M  V30 17850 C 1620.22 -3.33977 0.952725 0
M  V30 17851 C 1619.18 -3.76853 2.02894 0
M  V30 17852 C 1618.5 -5.10201 1.59999 0
M  V30 17853 C 1619.8 -3.92707 3.44352 0
M  V30 17854 H 1621.5 -2.05809 2.17446 0
M  V30 17855 H 1619.04 -0.988817 1.04682 0
M  V30 17856 H 1621 -4.12152 0.87798 0
M  V30 17857 H 1619.72 -3.26592 -0.023234 0
M  V30 17858 H 1618.38 -3.00926 2.09378 0
M  V30 17859 H 1618.03 -4.99268 0.61157 0
M  V30 17860 H 1617.73 -5.39859 2.32004 0
M  V30 17861 H 1619.25 -5.90873 1.53954 0
M  V30 17862 H 1620.67 -4.61246 3.40477 0
M  V30 17863 H 1619.06 -4.33779 4.14675 0
M  V30 17864 H 1620.13 -2.95731 3.8428 0
M  V30 17865 N 1621.48 -1.1533 -1.07409 0
M  V30 17866 C 1622.75 -0.838341 -1.76724 0
M  V30 17867 C 1623.13 0.666169 -2.00313 0
M  V30 17868 O 1622.48 1.61033 -1.62113 0
M  V30 17869 C 1622.69 -1.64846 -3.07615 0
M  V30 17870 C 1624.04 -1.85429 -3.8197 0
M  V30 17871 O 1625.06 -1.61617 -3.17424 0
M  V30 17872 O 1623.92 -2.25305 -4.97896 0
M  V30 17873 H 1621.02 -0.308242 -0.767408 0
M  V30 17874 H 1623.56 -1.25905 -1.1378 0
M  V30 17875 H 1622.33 -2.66995 -2.86058 0
M  V30 17876 H 1621.96 -1.22405 -3.78289 0
M  V30 17877 N 1622.95 1.25748 -0.950004 0
M  V30 17878 C 1623.9 2.26061 -0.46531 0
M  V30 17879 C 1624.87 1.59021 0.479742 0
M  V30 17880 O 1626.06 1.86687 0.394011 0
M  V30 17881 C 1623.2 3.44156 0.255146 0
M  V30 17882 C 1622.31 4.25846 -0.726604 0
M  V30 17883 C 1621.44 5.31198 0.0159429 0
M  V30 17884 C 1620.48 6.04572 -0.957046 0
M  V30 17885 N 1619.62 7.0167 -0.245676 0
M  V30 17886 H 1624.46 2.66891 -1.32563 0
M  V30 17887 H 1622 1.31216 -0.664882 0
M  V30 17888 H 1623.95 4.11465 0.689381 0
M  V30 17889 H 1622.58 3.04213 1.07954 0
M  V30 17890 H 1621.64 3.58242 -1.27933 0
M  V30 17891 H 1622.95 4.76669 -1.46928 0
M  V30 17892 H 1622.1 6.04561 0.509037 0
M  V30 17893 H 1620.84 4.81235 0.791442 0
M  V30 17894 H 1619.85 5.30028 -1.46118 0
M  V30 17895 H 1621.07 6.56624 -1.7327 0
M  V30 17896 H 1619.02 6.54005 0.51117 0
M  V30 17897 H 1618.93 7.50289 -0.927527 0
M  V30 17898 H 1620.2 7.79172 0.226034 0
M  V30 17899 N 1624.43 0.718038 1.40292 0
M  V30 17900 C 1625.67 0.263057 2.027 0
M  V30 17901 C 1626.04 -1.1233 1.55711 0
M  V30 17902 O 1627.24 -1.67541 2.10199 0
M  V30 17903 C 1625.51 0.342773 3.55752 0
M  V30 17904 S 1627.07 -0.0348622 4.38786 0
M  V30 17905 H 1623.88 0.10418 0.703326 0
M  V30 17906 H 1626.49 0.940801 1.71374 0
M  V30 17907 H 1625.19 1.35336 3.87443 0
M  V30 17908 H 1624.72 -0.353367 3.9181 0
M  V30 17909 H 1626.74 -1.25618 4.80036 0
M  V30 17910 N 1625.91 -1.50602 0.464402 0
M  V30 17911 C 1627.14 -2.06401 -0.0906449 0
M  V30 17912 C 1627.55 -1.32913 -1.3465 0
M  V30 17913 O 1626.89 -0.389959 -1.79513 0
M  V30 17914 C 1626.95 -3.56655 -0.451375 0
M  V30 17915 C 1626.62 -4.51584 0.701504 0
M  V30 17916 C 1627.61 -4.95259 1.5816 0
M  V30 17917 C 1625.3 -4.94354 0.88993 0
M  V30 17918 C 1627.29 -5.80404 2.63458 0
M  V30 17919 C 1624.98 -5.79283 1.94615 0
M  V30 17920 C 1625.98 -6.22208 2.81684 0
M  V30 17921 O 1625.67 -7.05446 3.85489 0
M  V30 17922 H 1625.4 -0.676 0.000751268 0
M  V30 17923 H 1627.95 -1.94836 0.650235 0
M  V30 17924 H 1626.18 -3.66098 -1.24535 0
M  V30 17925 H 1627.87 -3.94848 -0.940722 0
M  V30 17926 H 1628.64 -4.6289 1.44768 0
M  V30 17927 H 1624.52 -4.60467 0.221708 0
M  V30 17928 H 1628.06 -6.13829 3.3145 0
M  V30 17929 H 1623.96 -6.11064 2.08016 0
M  V30 17930 H 1624.73 -7.23682 3.82396 0
M  V30 17931 N 1627.39 -0.19675 -1.56367 0
M  V30 17932 C 1628.64 0.440711 -1.97236 0
M  V30 17933 C 1628.96 1.62037 -1.08485 0
M  V30 17934 O 1628.23 1.95274 -0.156483 0
M  V30 17935 H 1626.81 0.16581 -0.728365 0
M  V30 17936 H 1629.47 -0.283867 -1.92822 0
M  V30 17937 H 1628.57 0.783731 -3.02099 0
M  V30 17938 N 1628.87 1.57413 0.0768405 0
M  V30 17939 C 1629.8 2.00058 1.11845 0
M  V30 17940 C 1630.81 0.905783 1.35275 0
M  V30 17941 O 1632 1.18372 1.33605 0
M  V30 17942 C 1629.1 2.32002 2.47039 0
M  V30 17943 C 1628.27 3.63265 2.43634 0
M  V30 17944 C 1627.33 3.82937 3.60896 0
M  V30 17945 O 1626.36 4.54582 3.42555 0
M  V30 17946 N 1627.56 3.24904 4.81059 0
M  V30 17947 H 1630.33 2.90026 0.75533 0
M  V30 17948 H 1627.89 1.59707 0.265567 0
M  V30 17949 H 1629.88 2.4234 3.24119 0
M  V30 17950 H 1628.45 1.4795 2.75372 0
M  V30 17951 H 1627.67 3.63727 1.51974 0
M  V30 17952 H 1628.96 4.49462 2.38455 0
M  V30 17953 H 1628.35 2.66742 4.98864 0
M  V30 17954 H 1626.91 3.40699 5.55669 0
M  V30 17955 N 1630.34 -0.348112 1.53707 0
M  V30 17956 C 1631.59 -1.08626 1.69951 0
M  V30 17957 C 1631.91 -1.89944 0.466992 0
M  V30 17958 O 1633.11 -2.66661 0.51029 0
M  V30 17959 C 1631.57 -1.98052 3.00505 0
M  V30 17960 C 1631.18 -1.21963 4.31079 0
M  V30 17961 C 1632.92 -2.71752 3.26115 0
M  V30 17962 C 1630.83 -2.10392 5.52711 0
M  V30 17963 H 1629.76 -0.409241 0.633275 0
M  V30 17964 H 1632.41 -0.346051 1.80207 0
M  V30 17965 H 1630.79 -2.75874 2.84094 0
M  V30 17966 H 1631.96 -0.490831 4.58178 0
M  V30 17967 H 1630.28 -0.600511 4.12047 0
M  V30 17968 H 1632.88 -3.38174 4.14177 0
M  V30 17969 H 1633.22 -3.38072 2.42926 0
M  V30 17970 H 1633.75 -2.01005 3.43281 0
M  V30 17971 H 1630.49 -1.48622 6.38429 0
M  V30 17972 H 1630.01 -2.81074 5.29866 0
M  V30 17973 H 1631.69 -2.69551 5.88176 0
M  V30 17974 N 1631.82 -1.45363 -0.608876 0
M  V30 17975 C 1632.77 -1.53936 -1.71966 0
M  V30 17976 C 1633.74 -0.385352 -1.61568 0
M  V30 17977 O 1634.92 -0.598622 -1.81166 0
M  V30 17978 C 1632.06 -1.51079 -3.10272 0
M  V30 17979 C 1631.18 -2.77022 -3.31486 0
M  V30 17980 C 1630.31 -2.65846 -4.59891 0
M  V30 17981 C 1629.35 -3.86848 -4.74357 0
M  V30 17982 N 1628.49 -3.74214 -5.94061 0
M  V30 17983 H 1633.33 -2.4883 -1.63974 0
M  V30 17984 H 1630.87 -1.23472 -0.799565 0
M  V30 17985 H 1632.82 -1.47411 -3.90289 0
M  V30 17986 H 1631.45 -0.597374 -3.17224 0
M  V30 17987 H 1630.51 -2.90783 -2.45253 0
M  V30 17988 H 1631.82 -3.66776 -3.38049 0
M  V30 17989 H 1630.97 -2.60136 -5.48101 0
M  V30 17990 H 1629.71 -1.73689 -4.55723 0
M  V30 17991 H 1628.72 -3.92918 -3.84572 0
M  V30 17992 H 1629.94 -4.80069 -4.80324 0
M  V30 17993 H 1627.89 -2.84825 -5.9094 0
M  V30 17994 H 1627.8 -4.57601 -6.01779 0
M  V30 17995 H 1629.07 -3.72434 -6.84772 0
M  V30 17996 N 1633.3 0.851265 -1.32632 0
M  V30 17997 C 1634.21 1.99239 -1.23858 0
M  V30 17998 C 1635.23 1.73339 -0.151517 0
M  V30 17999 O 1636.4 1.97919 -0.372822 0
M  V30 18000 C 1633.47 3.32987 -0.965417 0
M  V30 18001 C 1632.53 3.72087 -2.14126 0
M  V30 18002 C 1631.76 4.99453 -1.88103 0
M  V30 18003 O 1631.98 5.64399 -0.825253 0
M  V30 18004 O 1630.92 5.35763 -2.74302 0
M  V30 18005 H 1634.74 2.09579 -2.19796 0
M  V30 18006 H 1632.33 0.98243 -1.12555 0
M  V30 18007 H 1634.21 4.13151 -0.829713 0
M  V30 18008 H 1632.89 3.2368 -0.036219 0
M  V30 18009 H 1631.79 2.92485 -2.33245 0
M  V30 18010 H 1633.13 3.86045 -3.05336 0
M  V30 18011 N 1634.78 1.15898 1.06796 0
M  V30 18012 C 1635.71 0.88395 2.16122 0
M  V30 18013 C 1636.69 -0.167708 1.69271 0
M  V30 18014 O 1637.87 -0.0208846 1.94189 0
M  V30 18015 C 1635 0.378656 3.4523 0
M  V30 18016 C 1633.96 1.36764 4.05561 0
M  V30 18017 C 1633.28 0.720956 5.29817 0
M  V30 18018 C 1634.58 2.73554 4.44933 0
M  V30 18019 H 1636.28 1.79818 2.39386 0
M  V30 18020 H 1633.82 0.866008 1.15049 0
M  V30 18021 H 1635.78 0.17376 4.21042 0
M  V30 18022 H 1634.5 -0.571063 3.21569 0
M  V30 18023 H 1633.16 1.55899 3.318 0
M  V30 18024 H 1632.81 -0.235089 5.0245 0
M  V30 18025 H 1632.51 1.38101 5.71141 0
M  V30 18026 H 1634.03 0.525963 6.0833 0
M  V30 18027 H 1635.45 2.58231 5.11849 0
M  V30 18028 H 1633.84 3.35986 4.97226 0
M  V30 18029 H 1634.91 3.29192 3.56034 0
M  V30 18030 N 1636.26 -1.25243 0.956659 0
M  V30 18031 C 1637.2 -2.2781 0.46963 0
M  V30 18032 C 1638.2 -1.63003 -0.461138 0
M  V30 18033 O 1639.4 -1.76805 -0.337644 0
M  V30 18034 H 1635.78 -0.740078 0.133374 0
M  V30 18035 H 1637.75 -2.66273 1.34689 0
M  V30 18036 C 1636.5 -3.46904 -0.235206 0
M  V30 18037 H 1635.82 -3.97006 0.471869 0
M  V30 18038 H 1637.26 -4.20548 -0.539969 0
M  V30 18039 C 1635.72 -3.03697 -1.45841 0
M  V30 18040 O 1636.25 -3.09887 -2.55603 0
M  V30 18041 N 1634.46 -2.58866 -1.32049 0
M  V30 18042 H 1634 -2.54029 -0.427428 0
M  V30 18043 H 1633.96 -2.30322 -2.14008 0
M  V30 18044 N 1637.73 -0.725468 -1.3991 0
M  V30 18045 C 1638.64 -0.0805887 -2.34462 0
M  V30 18046 C 1639.66 0.732689 -1.57822 0
M  V30 18047 O 1640.84 0.663362 -1.90162 0
M  V30 18048 C 1637.9 0.822908 -3.36792 0
M  V30 18049 C 1636.96 -0.00153812 -4.293 0
M  V30 18050 C 1636.2 0.85893 -5.26743 0
M  V30 18051 O 1636.42 2.09793 -5.30418 0
M  V30 18052 O 1635.35 0.292659 -6.01188 0
M  V30 18053 H 1639.18 -0.860746 -2.91247 0
M  V30 18054 H 1636.76 -0.48604 -1.41273 0
M  V30 18055 H 1638.65 1.34014 -3.99522 0
M  V30 18056 H 1637.32 1.58204 -2.82406 0
M  V30 18057 H 1636.23 -0.564072 -3.69823 0
M  V30 18058 H 1637.56 -0.722675 -4.86866 0
M  V30 18059 N 1639.21 1.50354 -0.472382 0
M  V30 18060 C 1640.16 2.28555 0.321118 0
M  V30 18061 C 1641.13 1.33665 0.98605 0
M  V30 18062 O 1642.31 1.62603 0.998239 0
M  V30 18063 C 1639.45 3.15586 1.39641 0
M  V30 18064 C 1638.57 4.25508 0.746129 0
M  V30 18065 C 1637.7 4.99794 1.79943 0
M  V30 18066 C 1636.74 6.01589 1.12946 0
M  V30 18067 N 1635.88 6.69149 2.12567 0
M  V30 18068 H 1640.72 2.95913 -0.352051 0
M  V30 18069 H 1638.26 1.45926 -0.185461 0
M  V30 18070 H 1640.21 3.64397 2.03152 0
M  V30 18071 H 1638.84 2.50271 2.03873 0
M  V30 18072 H 1637.9 3.804 -0.00157718 0
M  V30 18073 H 1639.21 4.98326 0.217335 0
M  V30 18074 H 1638.36 5.5233 2.51031 0
M  V30 18075 H 1637.1 4.26684 2.36203 0
M  V30 18076 H 1636.11 5.48312 0.404207 0
M  V30 18077 H 1637.33 6.76672 0.573735 0
M  V30 18078 H 1635.28 5.9883 2.67841 0
M  V30 18079 H 1635.19 7.37847 1.64676 0
M  V30 18080 H 1636.46 7.26301 2.83031 0
M  V30 18081 N 1640.69 0.205039 1.56261 0
M  V30 18082 C 1641.94 -0.431364 1.97033 0
M  V30 18083 C 1642.25 -1.62066 1.09517 0
M  V30 18084 O 1643.46 -2.32551 1.40116 0
M  V30 18085 C 1641.92 -0.818841 3.50461 0
M  V30 18086 C 1641.52 0.346723 4.46656 0
M  V30 18087 C 1643.27 -1.42177 3.99982 0
M  V30 18088 C 1641.17 -0.0622677 5.91367 0
M  V30 18089 H 1640.1 -0.164934 0.73574 0
M  V30 18090 H 1642.76 0.298635 1.81054 0
M  V30 18091 H 1641.14 -1.60579 3.61981 0
M  V30 18092 H 1642.31 1.12427 4.46874 0
M  V30 18093 H 1640.63 0.861799 4.07384 0
M  V30 18094 H 1643.22 -1.74039 5.05583 0
M  V30 18095 H 1643.57 -2.33177 3.44868 0
M  V30 18096 H 1644.1 -0.698591 3.91618 0
M  V30 18097 H 1640.84 0.813802 6.50429 0
M  V30 18098 H 1640.36 -0.804474 5.94381 0
M  V30 18099 H 1642.04 -0.49466 6.45106 0
M  V30 18100 N 1642.17 -1.57451 -0.0684915 0
M  V30 18101 C 1643.4 -1.9164 -0.779855 0
M  V30 18102 C 1643.81 -0.801309 -1.70952 0
M  V30 18103 O 1643.17 0.225134 -1.81106 0
M  V30 18104 C 1643.22 -3.25594 -1.57068 0
M  V30 18105 O 1642.94 -4.32816 -0.678385 0
M  V30 18106 C 1644.44 -3.73818 -2.38275 0
M  V30 18107 H 1641.66 -0.633374 -0.221537 0
M  V30 18108 H 1644.21 -2.04465 -0.0377746 0
M  V30 18109 H 1642.36 -3.14287 -2.26501 0
M  V30 18110 H 1642.78 -5.09903 -1.22877 0
M  V30 18111 H 1644.25 -4.70168 -2.89216 0
M  V30 18112 H 1644.73 -3.02995 -3.17947 0
M  V30 18113 H 1645.33 -3.88081 -1.73992 0
M  V30 18114 N 1643.65 0.339955 -1.5389 0
M  V30 18115 C 1645.06 0.683287 -1.44234 0
M  V30 18116 C 1645.26 1.92298 -0.601976 0
M  V30 18117 O 1644.32 2.52324 -0.0943623 0
M  V30 18118 C 1645.63 0.872576 -2.87761 0
M  V30 18119 C 1647.18 0.970965 -2.97559 0
M  V30 18120 C 1647.66 1.19254 -4.42202 0
M  V30 18121 N 1649.15 1.25966 -4.45743 0
M  V30 18122 C 1649.88 1.44869 -5.54798 0
M  V30 18123 N 1649.38 1.6092 -6.73852 0
M  V30 18124 N 1651.17 1.47445 -5.42417 0
M  V30 18125 H 1643.32 -0.475086 -2.07019 0
M  V30 18126 H 1645.58 -0.150644 -0.935954 0
M  V30 18127 H 1645.29 0.033117 -3.51684 0
M  V30 18128 H 1645.16 1.77326 -3.32919 0
M  V30 18129 H 1647.55 1.80094 -2.33774 0
M  V30 18130 H 1647.63 0.0471065 -2.55757 0
M  V30 18131 H 1647.28 0.367482 -5.06569 0
M  V30 18132 H 1647.21 2.13002 -4.81599 0
M  V30 18133 H 1649.7 1.15072 -3.59954 0
M  V30 18134 H 1650.01 1.74989 -7.52727 0
M  V30 18135 H 1648.36 1.58049 -6.7679 0
M  V30 18136 H 1651.55 1.34489 -4.48364 0
M  V30 18137 H 1651.72 1.61834 -6.27466 0
M  V30 18138 N 1645.13 1.45684 0.601159 0
M  V30 18139 C 1646.06 1.57694 1.72206 0
M  V30 18140 C 1647.04 0.428141 1.64624 0
M  V30 18141 O 1648.22 0.65209 1.82925 0
M  V30 18142 C 1645.35 1.54941 3.10822 0
M  V30 18143 C 1644.31 2.68603 3.33222 0
M  V30 18144 C 1643.63 2.50906 4.72176 0
M  V30 18145 C 1644.93 4.10568 3.22849 0
M  V30 18146 H 1646.63 2.51521 1.62412 0
M  V30 18147 H 1644.17 1.2105 0.779929 0
M  V30 18148 H 1646.12 1.61939 3.89042 0
M  V30 18149 H 1644.85 0.576471 3.21472 0
M  V30 18150 H 1643.51 2.61043 2.57394 0
M  V30 18151 H 1643.16 1.51736 4.79568 0
M  V30 18152 H 1642.86 3.27131 4.88118 0
M  V30 18153 H 1644.38 2.59767 5.52588 0
M  V30 18154 H 1645.79 4.19336 3.90935 0
M  V30 18155 H 1644.19 4.87234 3.50318 0
M  V30 18156 H 1645.26 4.32022 2.20192 0
M  V30 18157 N 1646.6 -0.84422 1.33082 0
M  V30 18158 C 1647.83 -1.63133 1.27261 0
M  V30 18159 C 1648.25 -1.88142 -0.157479 0
M  V30 18160 O 1647.6 -1.4578 -1.09793 0
M  V30 18161 C 1647.65 -2.98462 2.03967 0
M  V30 18162 O 1647.38 -2.74555 3.41396 0
M  V30 18163 C 1648.88 -3.92899 2.05293 0
M  V30 18164 H 1646.1 -0.507769 0.438647 0
M  V30 18165 H 1648.64 -1.05194 1.75369 0
M  V30 18166 H 1646.8 -3.53017 1.59554 0
M  V30 18167 H 1647.21 -3.60694 3.80789 0
M  V30 18168 H 1648.68 -4.85088 2.63427 0
M  V30 18169 H 1649.16 -4.26665 1.04183 0
M  V30 18170 H 1649.77 -3.44281 2.49701 0
M  V30 18171 N 1648.08 -1.16463 -1.0618 0
M  V30 18172 C 1649.31 -0.969667 -1.82431 0
M  V30 18173 C 1649.72 0.485393 -1.82868 0
M  V30 18174 O 1649.06 1.34868 -1.24725 0
M  V30 18175 C 1649.12 -1.42161 -3.30198 0
M  V30 18176 C 1648.79 -2.89679 -3.53461 0
M  V30 18177 C 1649.79 -3.87677 -3.46414 0
M  V30 18178 C 1647.47 -3.27625 -3.80745 0
M  V30 18179 C 1649.46 -5.21622 -3.66319 0
M  V30 18180 C 1647.15 -4.61739 -4.003 0
M  V30 18181 C 1648.15 -5.58546 -3.93084 0
M  V30 18182 O 1647.84 -6.90235 -4.12105 0
M  V30 18183 H 1647.57 -0.343808 -0.582041 0
M  V30 18184 H 1650.12 -1.54928 -1.34857 0
M  V30 18185 H 1648.35 -0.785486 -3.78638 0
M  V30 18186 H 1650.04 -1.19389 -3.87945 0
M  V30 18187 H 1650.81 -3.59707 -3.25324 0
M  V30 18188 H 1646.69 -2.52851 -3.85471 0
M  V30 18189 H 1650.23 -5.9717 -3.60602 0
M  V30 18190 H 1646.13 -4.89418 -4.2088 0
M  V30 18191 H 1646.9 -6.96828 -4.29387 0
M  V30 18192 N 1649.56 1.24734 -0.963288 0
M  V30 18193 C 1650.47 2.29268 -0.497316 0
M  V30 18194 C 1651.49 1.68356 0.439572 0
M  V30 18195 O 1652.66 1.98942 0.313697 0
M  V30 18196 C 1649.73 3.46068 0.209261 0
M  V30 18197 C 1648.79 4.22394 -0.766907 0
M  V30 18198 C 1648.02 5.33617 -0.0939542 0
M  V30 18199 O 1648.24 5.59323 1.11864 0
M  V30 18200 O 1647.18 5.96774 -0.78388 0
M  V30 18201 H 1651 2.71235 -1.36622 0
M  V30 18202 H 1648.59 1.30344 -0.730126 0
M  V30 18203 H 1650.47 4.17015 0.606367 0
M  V30 18204 H 1649.15 3.06087 1.0532 0
M  V30 18205 H 1648.05 3.53841 -1.21439 0
M  V30 18206 H 1649.39 4.66181 -1.57912 0
M  V30 18207 N 1651.04 0.732878 1.39523 0
M  V30 18208 C 1652.29 0.276787 1.99792 0
M  V30 18209 C 1652.6 -1.14181 1.58814 0
M  V30 18210 O 1653.81 -1.69731 2.11905 0
M  V30 18211 C 1652.26 0.443924 3.57152 0
M  V30 18212 C 1651.87 1.87027 4.07093 0
M  V30 18213 C 1653.61 0.0495022 4.24471 0
M  V30 18214 C 1651.52 1.98708 5.57018 0
M  V30 18215 H 1650.45 0.0997337 0.747375 0
M  V30 18216 H 1653.1 0.906454 1.59548 0
M  V30 18217 H 1651.48 -0.254605 3.95181 0
M  V30 18218 H 1652.66 2.60059 3.80403 0
M  V30 18219 H 1650.97 2.21772 3.52429 0
M  V30 18220 H 1653.57 0.115815 5.34575 0
M  V30 18221 H 1653.91 -0.994967 4.04235 0
M  V30 18222 H 1654.45 0.69911 3.91609 0
M  V30 18223 H 1651.18 3.01336 5.82131 0
M  V30 18224 H 1650.7 1.30111 5.85518 0
M  V30 18225 H 1652.38 1.76725 6.22396 0
M  V30 18226 N 1652.52 -1.50101 0.480349 0
M  V30 18227 C 1653.43 -2.32488 -0.31408 0
M  V30 18228 C 1654.44 -1.43285 -0.987186 0
M  V30 18229 O 1655.62 -1.7633 -0.973123 0
M  V30 18230 C 1652.68 -3.18203 -1.37651 0
M  V30 18231 C 1651.74 -4.23236 -0.71903 0
M  V30 18232 C 1650.98 -5.04854 -1.73084 0
M  V30 18233 O 1651.2 -4.87681 -2.95843 0
M  V30 18234 O 1650.13 -5.87748 -1.29755 0
M  V30 18235 H 1653.96 -3.01562 0.3597 0
M  V30 18236 H 1651.54 -1.47427 0.242029 0
M  V30 18237 H 1653.43 -3.71362 -1.9917 0
M  V30 18238 H 1652.1 -2.51846 -2.0336 0
M  V30 18239 H 1651.01 -3.74044 -0.0646492 0
M  V30 18240 H 1652.34 -4.92089 -0.104743 0
M  V30 18241 N 1653.99 -0.213323 -1.5615 0
M  V30 18242 C 1655.27 0.469174 -1.8989 0
M  V30 18243 C 1655.65 1.78341 -1.1295 0
M  V30 18244 O 1655 2.27276 -0.236236 0
M  V30 18245 C 1655.21 0.67017 -3.42505 0
M  V30 18246 C 1656.56 0.981324 -4.13104 0
M  V30 18247 O 1657.58 0.757249 -3.48058 0
M  V30 18248 O 1656.44 1.40614 -5.281 0
M  V30 18249 H 1653.53 0.246943 -0.789271 0
M  V30 18250 H 1656.08 -0.254896 -1.67775 0
M  V30 18251 H 1654.85 -0.257189 -3.90454 0
M  V30 18252 H 1654.47 1.44603 -3.70372 0
M  V30 18253 N 1655.47 1.57485 0.0601405 0
M  V30 18254 C 1656.38 2.07853 1.08785 0
M  V30 18255 C 1657.4 1.01047 1.41653 0
M  V30 18256 O 1658.57 1.32592 1.51596 0
M  V30 18257 C 1655.64 2.52214 2.37885 0
M  V30 18258 C 1654.7 3.73369 2.11882 0
M  V30 18259 C 1653.93 4.15604 3.34827 0
M  V30 18260 O 1654.16 3.5761 4.44377 0
M  V30 18261 O 1653.09 5.08303 3.22353 0
M  V30 18262 H 1656.92 2.9576 0.689912 0
M  V30 18263 H 1654.5 1.46846 0.275065 0
M  V30 18264 H 1656.38 2.81216 3.1384 0
M  V30 18265 H 1655.06 1.67432 2.77035 0
M  V30 18266 H 1653.97 3.49433 1.33594 0
M  V30 18267 H 1655.3 4.59039 1.77606 0
M  V30 18268 N 1656.95 -0.331789 1.54068 0
M  V30 18269 C 1657.9 -1.40798 1.82879 0
M  V30 18270 C 1658.87 -1.51753 0.675292 0
M  V30 18271 O 1660.05 -1.67105 0.920905 0
M  V30 18272 C 1657.19 -2.7728 2.0545 0
M  V30 18273 C 1656.31 -2.75022 3.33147 0
M  V30 18274 C 1655.44 -4.03297 3.45723 0
M  V30 18275 C 1654.48 -3.95314 4.67326 0
M  V30 18276 N 1653.62 -5.15303 4.76872 0
M  V30 18277 H 1658.46 -1.15529 2.74695 0
M  V30 18278 H 1655.99 -0.559411 1.36048 0
M  V30 18279 H 1657.95 -3.56611 2.16528 0
M  V30 18280 H 1656.58 -3.00875 1.16935 0
M  V30 18281 H 1655.63 -1.87729 3.30851 0
M  V30 18282 H 1656.95 -2.65003 4.22581 0
M  V30 18283 H 1656.1 -4.91057 3.56297 0
M  V30 18284 H 1654.84 -4.16112 2.54367 0
M  V30 18285 H 1653.84 -3.05939 4.56817 0
M  V30 18286 H 1655.07 -3.84072 5.60058 0
M  V30 18287 H 1653.01 -5.28639 3.88429 0
M  V30 18288 H 1652.93 -5.07588 5.60259 0
M  V30 18289 H 1654.2 -6.04801 4.91769 0
M  V30 18290 N 1658.43 -1.46001 -0.593424 0
M  V30 18291 C 1659.84 -1.30719 -0.915678 0
M  V30 18292 C 1660.04 -0.270679 -1.99674 0
M  V30 18293 O 1659.1 0.330482 -2.50328 0
M  V30 18294 C 1660.41 -2.69034 -1.34318 0
M  V30 18295 C 1661.96 -2.77041 -1.45662 0
M  V30 18296 C 1662.44 -4.15913 -1.91783 0
M  V30 18297 N 1663.93 -4.18277 -1.98994 0
M  V30 18298 C 1664.66 -5.22612 -2.35932 0
M  V30 18299 N 1664.16 -6.37283 -2.71738 0
M  V30 18300 N 1665.95 -5.09975 -2.36394 0
M  V30 18301 H 1658.1 -2.12056 0.120882 0
M  V30 18302 H 1660.37 -0.947961 -0.00858574 0
M  V30 18303 H 1660.07 -3.4614 -0.622922 0
M  V30 18304 H 1659.95 -2.98434 -2.30688 0
M  V30 18305 H 1662.33 -2.0023 -2.16776 0
M  V30 18306 H 1662.41 -2.51338 -0.475706 0
M  V30 18307 H 1662.06 -4.93215 -1.2125 0
M  V30 18308 H 1661.99 -4.39016 -2.90813 0
M  V30 18309 H 1664.48 -3.35534 -1.73855 0
M  V30 18310 H 1664.79 -7.12679 -2.98846 0
M  V30 18311 H 1663.14 -6.40662 -2.69401 0
M  V30 18312 H 1666.33 -4.1943 -2.07836 0
M  V30 18313 H 1666.5 -5.91402 -2.64854 0
M  V30 18314 N 1659.91 0.83715 -1.33527 0
M  V30 18315 C 1661.32 1.12809 -1.12899 0
M  V30 18316 C 1661.52 2.01345 0.0789761 0
M  V30 18317 O 1660.58 2.40831 0.758732 0
M  V30 18318 C 1661.89 1.78852 -2.41728 0
M  V30 18319 C 1663.44 1.91411 -2.47651 0
M  V30 18320 C 1663.91 2.6087 -3.76445 0
M  V30 18321 N 1665.41 2.68381 -3.77526 0
M  V30 18322 C 1666.14 3.22819 -4.73894 0
M  V30 18323 N 1665.64 3.77931 -5.80638 0
M  V30 18324 N 1667.43 3.21087 -4.61367 0
M  V30 18325 H 1659.58 0.247942 -2.10948 0
M  V30 18326 H 1661.84 0.172518 -0.93217 0
M  V30 18327 H 1661.55 1.21258 -3.30135 0
M  V30 18328 H 1661.42 2.78856 -2.54006 0
M  V30 18329 H 1663.81 2.48159 -1.59691 0
M  V30 18330 H 1663.89 0.903512 -2.39312 0
M  V30 18331 H 1663.54 2.0478 -4.64787 0
M  V30 18332 H 1663.47 3.62404 -3.82061 0
M  V30 18333 H 1665.96 2.29301 -3.00382 0
M  V30 18334 H 1666.27 4.17678 -6.50204 0
M  V30 18335 H 1664.61 3.76214 -5.8437 0
M  V30 18336 H 1667.81 2.7729 -3.77131 0
M  V30 18337 H 1667.98 3.6321 -5.3664 0
M  V30 18338 N 1661.38 1.17024 1.05561 0
M  V30 18339 C 1662.8 0.916718 1.30646 0
M  V30 18340 C 1663 -0.426248 1.9694 0
M  V30 18341 O 1662.06 -1.16408 2.24065 0
M  V30 18342 C 1663.37 2.07126 2.17989 0
M  V30 18343 C 1664.92 2.10787 2.31383 0
M  V30 18344 C 1665.39 3.25616 3.22084 0
M  V30 18345 N 1666.88 3.25381 3.29669 0
M  V30 18346 C 1667.62 4.10873 3.99964 0
M  V30 18347 N 1667.11 5.06468 4.72718 0
M  V30 18348 N 1668.91 3.98835 3.9609 0
M  V30 18349 H 1661.06 2.03474 0.609284 0
M  V30 18350 H 1663.32 0.888247 0.331243 0
M  V30 18351 H 1663.03 3.04168 1.76564 0
M  V30 18352 H 1662.9 2.01912 3.18609 0
M  V30 18353 H 1665.29 1.14333 2.72051 0
M  V30 18354 H 1665.37 2.20064 1.30405 0
M  V30 18355 H 1665.01 4.22333 2.8213 0
M  V30 18356 H 1664.94 3.13575 4.23058 0
M  V30 18357 H 1667.43 2.56164 2.77828 0
M  V30 18358 H 1667.75 5.68105 5.23905 0
M  V30 18359 H 1666.09 5.10441 4.71673 0
M  V30 18360 H 1669.28 3.23451 3.38375 0
M  V30 18361 H 1669.46 4.65682 4.50604 0
M  V30 18362 N 1662.86 -1.24221 0.969889 0
M  V30 18363 C 1663.81 -2.25292 0.501215 0
M  V30 18364 C 1664.78 -1.59764 -0.454382 0
M  V30 18365 O 1665.96 -1.87291 -0.364261 0
M  V30 18366 C 1663.1 -3.44518 -0.200361 0
M  V30 18367 C 1662.22 -4.24636 0.79426 0
M  V30 18368 C 1661.35 -5.31156 0.068568 0
M  V30 18369 C 1660.39 -6.02973 1.05311 0
M  V30 18370 N 1659.53 -7.0119 0.357274 0
M  V30 18371 H 1664.37 -2.64749 1.36792 0
M  V30 18372 H 1661.91 -1.30142 0.685673 0
M  V30 18373 H 1663.86 -4.1251 -0.623833 0
M  V30 18374 H 1662.49 -3.05892 -1.03101 0
M  V30 18375 H 1661.55 -3.56161 1.33616 0
M  V30 18376 H 1662.86 -4.74271 1.54493 0
M  V30 18377 H 1662.01 -6.05294 -0.412792 0
M  V30 18378 H 1660.75 -4.82434 -0.714781 0
M  V30 18379 H 1659.76 -5.27636 1.54532 0
M  V30 18380 H 1660.98 -6.53784 1.83694 0
M  V30 18381 H 1658.93 -6.54736 -0.407059 0
M  V30 18382 H 1658.84 -7.48718 1.04677 0
M  V30 18383 H 1660.11 -7.79433 -0.102045 0
M  V30 18384 N 1664.34 -0.740267 -1.39132 0
M  V30 18385 C 1665.57 -0.299605 -2.05225 0
M  V30 18386 C 1665.99 1.05904 -1.55454 0
M  V30 18387 O 1665.35 1.67216 -0.700603 0
M  V30 18388 C 1665.4 -0.316792 -3.59206 0
M  V30 18389 O 1664.5 0.693786 -4.06522 0
M  V30 18390 H 1663.84 -0.135146 -0.650101 0
M  V30 18391 H 1666.37 -1.00766 -1.78065 0
M  V30 18392 H 1666.38 -0.163013 -4.07674 0
M  V30 18393 H 1665.06 -1.30814 -3.94792 0
M  V30 18394 H 1663.63 0.505712 -3.69455 0
M  V30 18395 N 1665.82 1.49844 -0.488302 0
M  V30 18396 C 1667.06 2.02709 0.060788 0
M  V30 18397 C 1667.4 1.36828 1.37811 0
M  V30 18398 O 1666.67 0.499679 1.87972 0
M  V30 18399 C 1666.96 3.59386 0.226637 0
M  V30 18400 C 1666.81 4.35814 -1.11292 0
M  V30 18401 C 1668.13 4.29204 0.973218 0
M  V30 18402 H 1665.25 0.736712 0.0206177 0
M  V30 18403 H 1667.89 1.78995 -0.637245 0
M  V30 18404 H 1666.04 3.79722 0.821182 0
M  V30 18405 H 1667.71 4.27007 -1.74536 0
M  V30 18406 H 1665.95 3.98874 -1.70535 0
M  V30 18407 H 1666.62 5.43758 -0.950319 0
M  V30 18408 H 1669.1 4.13447 0.469106 0
M  V30 18409 H 1667.98 5.38605 1.05809 0
M  V30 18410 H 1668.24 3.93564 2.01394 0
M  V30 18411 N 1667.3 0.221601 1.56034 0
M  V30 18412 C 1668.21 -0.699837 2.23918 0
M  V30 18413 C 1669.22 -1.21367 1.24683 0
M  V30 18414 O 1670.4 -1.25527 1.57495 0
M  V30 18415 C 1667.46 -1.89107 2.90585 0
M  V30 18416 C 1666.52 -1.4192 4.05163 0
M  V30 18417 C 1665.76 -2.55365 4.68641 0
M  V30 18418 O 1665.98 -3.735 4.31108 0
M  V30 18419 O 1664.91 -2.26564 5.57631 0
M  V30 18420 H 1668.74 -0.151552 3.03322 0
M  V30 18421 H 1666.33 -0.0088482 1.49397 0
M  V30 18422 H 1668.21 -2.58674 3.32664 0
M  V30 18423 H 1666.88 -2.42745 2.14141 0
M  V30 18424 H 1665.79 -0.691536 3.67653 0
M  V30 18425 H 1667.12 -0.929189 4.8335 0
M  V30 18426 N 1668.77 -1.57515 -0.0517878 0
M  V30 18427 C 1670.05 -1.79321 -0.781233 0
M  V30 18428 C 1670.43 -0.814142 -1.94769 0
M  V30 18429 O 1669.78 0.14858 -2.28016 0
M  V30 18430 C 1669.99 -3.26398 -1.23553 0
M  V30 18431 C 1671.34 -3.90773 -1.66077 0
M  V30 18432 O 1672.36 -3.3041 -1.33069 0
M  V30 18433 O 1671.22 -4.97008 -2.27257 0
M  V30 18434 H 1668.31 -0.736627 -0.375912 0
M  V30 18435 H 1670.86 -1.69673 -0.0303173 0
M  V30 18436 H 1669.63 -3.89232 -0.401806 0
M  V30 18437 H 1669.26 -3.40848 -2.04716 0
M  V30 18438 N 1670.25 0.323614 -1.54242 0
M  V30 18439 C 1671.67 0.66795 -1.4495 0
M  V30 18440 C 1671.87 1.91649 -0.622338 0
M  V30 18441 O 1670.93 2.52209 -0.121119 0
M  V30 18442 C 1672.24 0.842006 -2.88671 0
M  V30 18443 C 1673.79 0.93935 -2.98572 0
M  V30 18444 C 1674.26 1.14557 -4.43442 0
M  V30 18445 N 1675.75 1.21231 -4.47054 0
M  V30 18446 C 1676.49 1.38976 -5.56303 0
M  V30 18447 N 1675.98 1.53764 -6.75521 0
M  V30 18448 N 1677.78 1.41684 -5.4395 0
M  V30 18449 H 1669.93 -0.497017 -2.06503 0
M  V30 18450 H 1672.19 -0.160563 -0.934304 0
M  V30 18451 H 1671.9 -0.00418568 -3.517 0
M  V30 18452 H 1671.77 1.73785 -3.34782 0
M  V30 18453 H 1674.16 1.77605 -2.35671 0
M  V30 18454 H 1674.24 0.0199775 -2.55792 0
M  V30 18455 H 1673.88 0.313732 -5.0693 0
M  V30 18456 H 1673.81 2.07882 -4.83831 0
M  V30 18457 H 1676.3 1.11247 -3.61154 0
M  V30 18458 H 1676.62 1.66996 -7.54541 0
M  V30 18459 H 1674.96 1.50862 -6.78429 0
M  V30 18460 H 1678.15 1.29726 -4.49765 0
M  V30 18461 H 1678.33 1.5517 -6.29147 0
M  V30 18462 N 1671.73 1.46313 0.585673 0
M  V30 18463 C 1672.98 1.5147 1.34399 0
M  V30 18464 C 1673.31 0.165209 1.93797 0
M  V30 18465 O 1672.56 -0.838796 1.76813 0
M  V30 18466 C 1672.86 2.55895 2.49504 0
M  V30 18467 C 1672.53 3.99997 2.08118 0
M  V30 18468 C 1671.19 4.3923 1.96545 0
M  V30 18469 C 1673.54 4.90532 1.76147 0
M  V30 18470 C 1670.87 5.66867 1.51256 0
M  V30 18471 C 1673.22 6.18603 1.32338 0
M  V30 18472 C 1671.88 6.56745 1.1934 0
M  V30 18473 H 1671.15 0.554268 0.491801 0
M  V30 18474 H 1673.8 1.79774 0.659803 0
M  V30 18475 H 1672.11 2.21241 3.23357 0
M  V30 18476 H 1673.8 2.57116 3.07722 0
M  V30 18477 H 1670.39 3.68983 2.18058 0
M  V30 18478 H 1674.58 4.60942 1.83974 0
M  V30 18479 H 1669.83 5.95194 1.39834 0
M  V30 18480 H 1674.01 6.88185 1.06653 0
M  V30 18481 H 1671.63 7.55542 0.840228 0
M  V30 18482 N 1673.21 -0.830057 1.33969 0
M  V30 18483 C 1674.49 -1.57112 1.16513 0
M  V30 18484 C 1674.87 -2.09429 -0.265075 0
M  V30 18485 O 1674.21 -1.90263 -1.26539 0
M  V30 18486 C 1674.42 -2.69808 2.2137 0
M  V30 18487 C 1675.77 -3.38761 2.55981 0
M  V30 18488 O 1676.8 -2.80058 2.20104 0
M  V30 18489 O 1675.66 -4.44753 3.1758 0
M  V30 18490 H 1672.75 -0.693066 0.451207 0
M  V30 18491 H 1675.3 -0.872048 1.4558 0
M  V30 18492 H 1674.07 -2.28852 3.17399 0
M  V30 18493 H 1673.69 -3.47372 1.93439 0
M  V30 18494 N 1674.69 -1.17582 -1.04939 0
M  V30 18495 C 1675.62 -0.852608 -2.12752 0
M  V30 18496 C 1676.63 0.14607 -1.62143 0
M  V30 18497 O 1677.82 -0.0805751 -1.78318 0
M  V30 18498 C 1674.92 -0.251083 -3.37969 0
M  V30 18499 C 1674.09 -1.29325 -4.17844 0
M  V30 18500 C 1673.15 -0.709025 -5.21401 0
M  V30 18501 O 1672.18 -1.38149 -5.52181 0
M  V30 18502 N 1673.38 0.497716 -5.78362 0
M  V30 18503 H 1676.15 -1.78054 -2.41074 0
M  V30 18504 H 1673.71 -1.07502 -1.21058 0
M  V30 18505 H 1675.7 0.15312 -4.0441 0
M  V30 18506 H 1674.27 0.580684 -3.07159 0
M  V30 18507 H 1673.49 -1.87311 -3.46855 0
M  V30 18508 H 1674.78 -1.99614 -4.68008 0
M  V30 18509 H 1674.18 1.06196 -5.55643 0
M  V30 18510 H 1672.73 0.843951 -6.46313 0
M  V30 18511 N 1676.17 1.23705 -0.976463 0
M  V30 18512 C 1677.1 2.24297 -0.471538 0
M  V30 18513 C 1678.11 1.57169 0.424484 0
M  V30 18514 O 1679.3 1.77022 0.229252 0
M  V30 18515 C 1676.4 3.37214 0.337621 0
M  V30 18516 C 1675.57 4.33921 -0.550586 0
M  V30 18517 C 1674.63 5.25804 0.204053 0
M  V30 18518 O 1673.66 5.67757 -0.404995 0
M  V30 18519 N 1674.86 5.61021 1.49116 0
M  V30 18520 H 1677.62 2.68252 -1.33645 0
M  V30 18521 H 1675.19 1.37836 -0.849281 0
M  V30 18522 H 1677.18 3.95658 0.850714 0
M  V30 18523 H 1675.75 2.92474 1.10351 0
M  V30 18524 H 1674.97 3.74038 -1.24455 0
M  V30 18525 H 1676.26 4.95493 -1.15604 0
M  V30 18526 H 1675.65 5.28879 2.00757 0
M  V30 18527 H 1674.21 6.21954 1.94978 0
M  V30 18528 N 1677.64 0.747635 1.38738 0
M  V30 18529 C 1678.59 0.11597 2.30508 0
M  V30 18530 C 1679.56 -0.716088 1.49871 0
M  V30 18531 O 1680.75 -0.673446 1.7852 0
M  V30 18532 C 1677.89 -0.775765 3.36268 0
M  V30 18533 C 1677 0.070275 4.31943 0
M  V30 18534 C 1676.13 -0.823908 5.24772 0
M  V30 18535 C 1675.17 0.0261249 6.12094 0
M  V30 18536 N 1674.31 -0.824688 6.9724 0
M  V30 18537 H 1679.15 0.904158 2.83952 0
M  V30 18538 H 1676.69 0.457513 1.39804 0
M  V30 18539 H 1678.64 -1.30735 3.96187 0
M  V30 18540 H 1677.27 -1.5298 2.84248 0
M  V30 18541 H 1676.33 0.719421 3.73535 0
M  V30 18542 H 1677.64 0.726987 4.93474 0
M  V30 18543 H 1676.79 -1.42287 5.89779 0
M  V30 18544 H 1675.53 -1.51437 4.63593 0
M  V30 18545 H 1674.54 0.637803 5.46088 0
M  V30 18546 H 1675.76 0.713556 6.75341 0
M  V30 18547 H 1673.71 -1.50021 6.38616 0
M  V30 18548 H 1673.62 -0.22474 7.55666 0
M  V30 18549 H 1674.89 -1.40882 7.66663 0
M  V30 18550 N 1679.12 -1.49583 0.496242 0
M  V30 18551 C 1680.07 -2.30677 -0.298474 0
M  V30 18552 C 1681.06 -1.39074 -0.967207 0
M  V30 18553 O 1682.27 -1.56147 -0.895439 0
M  V30 18554 H 1678.64 -0.743138 -0.11511 0
M  V30 18555 H 1680.62 -2.95632 0.405533 0
M  V30 18556 C 1679.36 -3.20297 -1.35297 0
M  V30 18557 H 1678.69 -3.90708 -0.847789 0
M  V30 18558 H 1680.13 -3.79987 -1.88111 0
M  V30 18559 C 1678.59 -2.39584 -2.36857 0
M  V30 18560 O 1679.12 -2.09662 -3.42644 0
M  V30 18561 N 1677.32 -2.01695 -2.09206 0
M  V30 18562 H 1676.87 -2.26229 -1.23201 0
M  V30 18563 H 1676.83 -1.47998 -2.77388 0
M  V30 18564 N 1680.6 -0.229873 -1.55915 0
M  V30 18565 C 1681.88 0.449007 -1.90377 0
M  V30 18566 C 1682.26 1.77133 -1.14835 0
M  V30 18567 O 1681.6 2.27012 -0.260328 0
M  V30 18568 C 1681.81 0.633805 -3.43197 0
M  V30 18569 C 1683.16 0.937453 -4.14122 0
M  V30 18570 O 1684.19 0.72029 -3.48841 0
M  V30 18571 O 1683.05 1.35005 -5.29562 0
M  V30 18572 H 1680.14 0.238557 -0.791846 0
M  V30 18573 H 1682.69 -0.272676 -1.67495 0
M  V30 18574 H 1681.46 -0.298587 -3.90159 0
M  V30 18575 H 1681.08 1.40667 -3.71885 0
M  V30 18576 N 1682.08 1.5754 0.0434337 0
M  V30 18577 C 1683.31 1.92577 0.748182 0
M  V30 18578 C 1683.72 0.826758 1.7018 0
M  V30 18579 O 1683.06 -0.206713 1.82533 0
M  V30 18580 C 1683.12 3.23309 1.57199 0
M  V30 18581 C 1682.78 4.50213 0.784705 0
M  V30 18582 C 1683.78 5.1982 0.091305 0
M  V30 18583 C 1681.47 4.96767 0.74349 0
M  V30 18584 C 1683.46 6.34251 -0.632768 0
M  V30 18585 C 1681.15 6.11098 0.0156621 0
M  V30 18586 C 1682.15 6.79694 -0.67124 0
M  V30 18587 O 1681.83 7.91839 -1.38728 0
M  V30 18588 H 1681.57 0.64049 0.216213 0
M  V30 18589 H 1684.12 2.05398 0.00937223 0
M  V30 18590 H 1682.35 3.06775 2.35428 0
M  V30 18591 H 1684.04 3.43779 2.15802 0
M  V30 18592 H 1684.8 4.84865 0.11427 0
M  V30 18593 H 1680.68 4.43229 1.26763 0
M  V30 18594 H 1684.23 6.87728 -1.16947 0
M  V30 18595 H 1680.12 6.45499 -0.00927628 0
M  V30 18596 H 1680.89 8.08119 -1.29947 0
M  V30 18597 N 1683.56 -0.31543 1.54411 0
M  V30 18598 C 1684.83 -1.07113 1.63665 0
M  V30 18599 C 1685.21 -2.05671 0.475688 0
M  V30 18600 O 1684.56 -2.22288 -0.52918 0
M  V30 18601 C 1684.77 -1.76584 3.0103 0
M  V30 18602 C 1686.12 -2.29309 3.57355 0
M  V30 18603 O 1687.14 -1.86638 3.03388 0
M  V30 18604 O 1686 -3.07452 4.51814 0
M  V30 18605 H 1683.1 -0.494217 0.663083 0
M  V30 18606 H 1685.64 -0.31467 1.66757 0
M  V30 18607 H 1684.41 -1.0494 3.76966 0
M  V30 18608 H 1684.04 -2.5902 3.01653 0
M  V30 18609 N 1685.03 -1.46622 -0.577906 0
M  V30 18610 C 1685.97 -1.53587 -1.70128 0
M  V30 18611 C 1686.98 -0.423789 -1.57187 0
M  V30 18612 O 1688.17 -0.692392 -1.64524 0
M  V30 18613 C 1685.27 -1.40459 -3.08422 0
M  V30 18614 C 1684.44 -2.65872 -3.47319 0
M  V30 18615 C 1683.5 -2.46875 -4.64693 0
M  V30 18616 O 1682.53 -3.20617 -4.70312 0
M  V30 18617 N 1683.73 -1.53352 -5.59878 0
M  V30 18618 H 1686.49 -2.50449 -1.64606 0
M  V30 18619 H 1684.05 -1.42739 -0.764014 0
M  V30 18620 H 1686.05 -1.25516 -3.84744 0
M  V30 18621 H 1684.62 -0.517603 -3.08285 0
M  V30 18622 H 1683.84 -2.95724 -2.60655 0
M  V30 18623 H 1685.12 -3.49173 -3.70075 0
M  V30 18624 H 1684.52 -0.925526 -5.58078 0
M  V30 18625 H 1683.08 -1.4437 -6.3561 0
M  V30 18626 N 1686.51 0.822941 -1.34408 0
M  V30 18627 C 1687.44 1.94878 -1.28627 0
M  V30 18628 C 1688.42 1.6931 -0.163727 0
M  V30 18629 O 1689.61 1.90908 -0.356083 0
M  V30 18630 C 1686.74 3.31333 -1.04094 0
M  V30 18631 C 1685.69 3.71341 -2.12814 0
M  V30 18632 C 1685.02 5.05779 -1.73469 0
M  V30 18633 C 1686.32 3.83439 -3.54643 0
M  V30 18634 H 1688.01 1.99972 -2.22827 0
M  V30 18635 H 1685.56 0.960715 -1.07267 0
M  V30 18636 H 1687.51 4.0968 -0.986947 0
M  V30 18637 H 1686.24 3.26539 -0.0633642 0
M  V30 18638 H 1684.89 2.95269 -2.17282 0
M  V30 18639 H 1684.54 4.97471 -0.743727 0
M  V30 18640 H 1684.24 5.33518 -2.46236 0
M  V30 18641 H 1685.77 5.86583 -1.69566 0
M  V30 18642 H 1687.18 4.52057 -3.52587 0
M  V30 18643 H 1685.58 4.22632 -4.2603 0
M  V30 18644 H 1686.65 2.85439 -3.91986 0
M  V30 18645 N 1687.99 1.18137 1.04314 0
M  V30 18646 C 1688.92 0.863879 2.12296 0
M  V30 18647 C 1689.94 -0.137469 1.62219 0
M  V30 18648 O 1691.12 0.0900306 1.78273 0
M  V30 18649 C 1688.22 0.269002 3.37831 0
M  V30 18650 C 1687.4 1.3154 4.17152 0
M  V30 18651 C 1686.46 0.736666 5.21018 0
M  V30 18652 O 1685.48 1.41075 5.5144 0
M  V30 18653 N 1686.68 -0.467037 5.78618 0
M  V30 18654 H 1689.45 1.7933 2.40127 0
M  V30 18655 H 1687.01 1.08142 1.20486 0
M  V30 18656 H 1689 -0.131671 4.04486 0
M  V30 18657 H 1687.57 -0.564386 3.07463 0
M  V30 18658 H 1686.79 1.89148 3.45856 0
M  V30 18659 H 1688.08 2.02093 4.66943 0
M  V30 18660 H 1687.48 -1.03247 5.56198 0
M  V30 18661 H 1686.04 -0.809663 6.46752 0
M  V30 18662 N 1689.47 -1.23186 0.98301 0
M  V30 18663 C 1690.42 -2.24748 0.525082 0
M  V30 18664 C 1691.39 -1.60237 -0.437411 0
M  V30 18665 O 1692.57 -1.87666 -0.344376 0
M  V30 18666 C 1689.71 -3.44711 -0.163809 0
M  V30 18667 C 1688.82 -4.23769 0.839254 0
M  V30 18668 C 1687.96 -5.31053 0.1249 0
M  V30 18669 C 1687 -6.01822 1.117 0
M  V30 18670 N 1686.13 -7.00772 0.431625 0
M  V30 18671 H 1690.97 -2.63283 1.39593 0
M  V30 18672 H 1688.51 -1.29407 0.699438 0
M  V30 18673 H 1690.47 -4.13148 -0.580046 0
M  V30 18674 H 1689.1 -3.06969 -0.998507 0
M  V30 18675 H 1688.15 -3.54724 1.37386 0
M  V30 18676 H 1689.46 -4.72606 1.59515 0
M  V30 18677 H 1688.62 -6.05698 -0.348569 0
M  V30 18678 H 1687.36 -4.83165 -0.663573 0
M  V30 18679 H 1686.36 -5.25967 1.6012 0
M  V30 18680 H 1687.59 -6.51799 1.90618 0
M  V30 18681 H 1685.53 -6.55131 -0.337592 0
M  V30 18682 H 1685.45 -7.47566 1.12613 0
M  V30 18683 H 1686.72 -7.79498 -0.0193703 0
M  V30 18684 N 1690.95 -0.754982 -1.38339 0
M  V30 18685 C 1691.91 -0.136457 -2.28793 0
M  V30 18686 C 1692.91 0.646016 -1.47252 0
M  V30 18687 O 1694.1 0.472077 -1.67681 0
M  V30 18688 C 1691.23 0.815058 -3.31013 0
M  V30 18689 H 1692.42 -0.933619 -2.84997 0
M  V30 18690 H 1689.98 -0.522082 -1.47323 0
M  V30 18691 H 1690.71 1.63785 -2.79902 0
M  V30 18692 H 1690.5 0.256363 -3.91261 0
M  V30 18693 H 1691.99 1.24378 -3.98648 0
M  V30 18694 N 1692.42 1.49318 -0.504168 0
M  V30 18695 C 1693.84 1.58793 -0.160331 0
M  V30 18696 C 1694.04 1.50906 1.33527 0
M  V30 18697 O 1693.1 1.38466 2.11148 0
M  V30 18698 C 1694.41 2.91454 -0.739945 0
M  V30 18699 C 1695.96 3.04926 -0.706338 0
M  V30 18700 C 1696.43 4.4021 -1.26407 0
M  V30 18701 N 1697.92 4.46711 -1.22491 0
M  V30 18702 C 1698.66 5.49844 -1.62661 0
M  V30 18703 N 1698.15 6.60066 -2.10439 0
M  V30 18704 N 1699.95 5.40576 -1.54058 0
M  V30 18705 H 1692.1 1.52687 -1.4765 0
M  V30 18706 H 1694.36 0.723463 -0.612622 0
M  V30 18707 H 1694.07 3.02802 -1.78896 0
M  V30 18708 H 1693.94 3.76658 -0.202187 0
M  V30 18709 H 1696.33 2.93206 0.333845 0
M  V30 18710 H 1696.41 2.21398 -1.28128 0
M  V30 18711 H 1696.05 4.52683 -2.30305 0
M  V30 18712 H 1695.98 5.22384 -0.665041 0
M  V30 18713 H 1698.47 3.67634 -0.874869 0
M  V30 18714 H 1698.79 7.34865 -2.39153 0
M  V30 18715 H 1697.13 6.61098 -2.14415 0
M  V30 18716 H 1700.32 4.53359 -1.16548 0
M  V30 18717 H 1700.5 6.20826 -1.85687 0
M  V30 18718 N 1693.9 0.238138 1.5579 0
M  V30 18719 C 1694.83 -0.697701 2.18323 0
M  V30 18720 C 1695.85 -1.1453 1.15701 0
M  V30 18721 O 1697.04 -1.07359 1.42605 0
M  V30 18722 C 1694.14 -1.95895 2.76547 0
M  V30 18723 C 1693.31 -1.66422 4.04503 0
M  V30 18724 C 1692.37 -2.77419 4.4713 0
M  V30 18725 O 1691.39 -2.45179 5.13689 0
M  V30 18726 N 1692.6 -4.06731 4.14187 0
M  V30 18727 H 1695.36 -0.162705 2.99258 0
M  V30 18728 H 1692.92 0.0577602 1.61797 0
M  V30 18729 H 1694.91 -2.69374 3.02026 0
M  V30 18730 H 1693.48 -2.40398 1.99819 0
M  V30 18731 H 1692.7 -0.76505 3.86705 0
M  V30 18732 H 1693.99 -1.44183 4.87943 0
M  V30 18733 H 1693.39 -4.3576 3.60735 0
M  V30 18734 H 1691.95 -4.76701 4.44521 0
M  V30 18735 N 1695.38 -1.57561 -0.0350783 0
M  V30 18736 C 1696.62 -1.90843 -0.732009 0
M  V30 18737 C 1696.98 -0.836062 -1.72841 0
M  V30 18738 O 1698.19 -1.05303 -2.47315 0
M  V30 18739 C 1696.46 -3.2929 -1.38934 0
M  V30 18740 S 1698.02 -3.84395 -2.11626 0
M  V30 18741 H 1694.83 -0.668317 -0.242638 0
M  V30 18742 H 1697.44 -1.95496 0.0131773 0
M  V30 18743 H 1696.14 -4.05206 -0.650842 0
M  V30 18744 H 1695.67 -3.27926 -2.1732 0
M  V30 18745 H 1697.69 -3.62638 -3.38686 0
M  V30 18746 N 1696.86 0.307236 -1.54576 0
M  V30 18747 C 1697.77 1.4014 -1.88143 0
M  V30 18748 C 1698.78 1.5579 -0.774952 0
M  V30 18749 O 1699.96 1.70574 -1.07082 0
M  V30 18750 C 1697.03 2.74613 -2.11633 0
M  V30 18751 C 1696.09 2.68001 -3.35371 0
M  V30 18752 C 1695.32 3.96061 -3.57731 0
M  V30 18753 O 1695.54 4.95119 -2.83219 0
M  V30 18754 O 1694.48 3.98331 -4.51238 0
M  V30 18755 H 1698.3 1.14677 -2.81217 0
M  V30 18756 H 1695.89 0.502739 -1.40687 0
M  V30 18757 H 1697.77 3.54186 -2.2832 0
M  V30 18758 H 1696.44 2.99933 -1.21746 0
M  V30 18759 H 1695.35 1.86922 -3.24054 0
M  V30 18760 H 1696.68 2.47635 -4.25368 0
M  V30 18761 N 1698.34 1.46926 0.570122 0
M  V30 18762 C 1699.28 1.58442 1.67824 0
M  V30 18763 C 1700.25 0.428053 1.6049 0
M  V30 18764 O 1701.44 0.646445 1.79515 0
M  V30 18765 C 1698.58 1.59253 3.06158 0
M  V30 18766 C 1697.69 2.85714 3.24024 0
M  V30 18767 C 1696.83 2.77945 4.52681 0
M  V30 18768 C 1695.87 3.99289 4.63934 0
M  V30 18769 N 1695 3.89833 5.83931 0
M  V30 18770 H 1699.84 2.5309 1.5732 0
M  V30 18771 H 1697.38 1.25549 0.766548 0
M  V30 18772 H 1699.34 1.57707 3.86244 0
M  V30 18773 H 1697.97 0.68127 3.15529 0
M  V30 18774 H 1697.02 2.97184 2.37458 0
M  V30 18775 H 1698.33 3.7561 3.28206 0
M  V30 18776 H 1697.49 2.74576 5.41011 0
M  V30 18777 H 1696.22 1.85711 4.50958 0
M  V30 18778 H 1695.23 4.02976 3.74019 0
M  V30 18779 H 1696.45 4.92635 4.67427 0
M  V30 18780 H 1694.4 3.00393 5.83181 0
M  V30 18781 H 1694.32 4.73395 5.89434 0
M  V30 18782 H 1695.59 3.90459 6.74657 0
M  V30 18783 N 1699.82 -0.815801 1.34842 0
M  V30 18784 C 1700.73 -1.95886 1.29097 0
M  V30 18785 C 1701.74 -1.72876 0.197422 0
M  V30 18786 O 1702.92 -1.96861 0.425166 0
M  V30 18787 C 1699.98 -3.30311 1.05336 0
M  V30 18788 C 1699.04 -3.66279 2.23916 0
M  V30 18789 C 1698.28 -4.9429 2.01279 0
M  V30 18790 O 1698.5 -5.62012 0.974603 0
M  V30 18791 O 1697.43 -5.28302 2.88411 0
M  V30 18792 H 1701.26 -2.03678 2.25276 0
M  V30 18793 H 1698.84 -0.952243 1.1512 0
M  V30 18794 H 1700.73 -4.10806 0.938961 0
M  V30 18795 H 1699.4 -3.2347 0.122024 0
M  V30 18796 H 1698.31 -2.86198 2.40918 0
M  V30 18797 H 1699.64 -3.77814 3.15464 0
M  V30 18798 N 1701.29 -1.18689 -1.03686 0
M  V30 18799 C 1702.24 -0.91384 -2.13897 0
M  V30 18800 C 1703.24 0.127333 -1.68921 0
M  V30 18801 O 1704.44 -0.0211711 -1.79988 0
M  V30 18802 H 1700.82 -0.278067 -0.698701 0
M  V30 18803 H 1702.79 -1.85013 -2.34122 0
M  V30 18804 C 1701.54 -0.460259 -3.4464 0
M  V30 18805 H 1700.86 -1.25294 -3.7966 0
M  V30 18806 H 1702.3 -0.308239 -4.22878 0
M  V30 18807 C 1700.76 0.824485 -3.26656 0
M  V30 18808 O 1701.29 1.8878 -3.54577 0
M  V30 18809 N 1699.49 0.778588 -2.79976 0
M  V30 18810 H 1699.04 -0.0869543 -2.57453 0
M  V30 18811 H 1699 1.6386 -2.68323 0
M  V30 18812 N 1702.77 1.22662 -0.989529 0
M  V30 18813 C 1703.7 2.26762 -0.556891 0
M  V30 18814 C 1704.68 1.64971 0.414538 0
M  V30 18815 O 1705.87 1.91775 0.305909 0
M  V30 18816 C 1703 3.47047 0.132573 0
M  V30 18817 C 1701.95 4.21251 -0.757058 0
M  V30 18818 C 1701.28 5.3466 0.065134 0
M  V30 18819 C 1702.58 4.8029 -2.05229 0
M  V30 18820 H 1704.27 2.63204 -1.42703 0
M  V30 18821 H 1701.82 1.26522 -0.687614 0
M  V30 18822 H 1703.77 4.19027 0.446609 0
M  V30 18823 H 1702.49 3.09692 1.03723 0
M  V30 18824 H 1701.15 3.51101 -1.05469 0
M  V30 18825 H 1700.8 4.93547 0.970607 0
M  V30 18826 H 1700.5 5.85231 -0.527063 0
M  V30 18827 H 1702.03 6.09458 0.373342 0
M  V30 18828 H 1703.44 5.44229 -1.80242 0
M  V30 18829 H 1701.84 5.41186 -2.59302 0
M  V30 18830 H 1702.91 4.00529 -2.73322 0
M  V30 18831 N 1704.25 0.762308 1.37937 0
M  V30 18832 C 1705.5 0.321732 1.99523 0
M  V30 18833 C 1705.82 -1.10286 1.60816 0
M  V30 18834 O 1705.09 -1.75565 0.869117 0
M  V30 18835 H 1703.67 0.115967 0.737943 0
M  V30 18836 H 1706.33 0.978339 1.68566 0
M  V30 18837 H 1705.43 0.391818 3.09631 0
M  V30 18838 N 1705.73 -1.49049 0.51208 0
M  V30 18839 C 1706.97 -2.0339 -0.0204801 0
M  V30 18840 C 1707.33 -1.38384 -1.33669 0
M  V30 18841 O 1706.62 -0.514246 -1.8457 0
M  V30 18842 C 1706.82 -3.56734 -0.218125 0
M  V30 18843 C 1706.64 -4.36603 1.07738 0
M  V30 18844 C 1705.41 -4.7821 1.63228 0
M  V30 18845 C 1707.61 -4.74513 1.98349 0
M  V30 18846 N 1705.59 -5.42548 2.87253 0
M  V30 18847 C 1706.97 -5.38684 3.06952 0
M  V30 18848 C 1709.02 -4.56449 1.98893 0
M  V30 18849 C 1707.72 -5.86703 4.1614 0
M  V30 18850 C 1709.75 -5.05437 3.07063 0
M  V30 18851 C 1709.11 -5.69618 4.14385 0
M  V30 18852 H 1705.21 -0.781279 0.0335617 0
M  V30 18853 H 1707.79 -1.82086 0.689395 0
M  V30 18854 H 1705.97 -3.77898 -0.897067 0
M  V30 18855 H 1707.7 -3.97714 -0.748684 0
M  V30 18856 H 1704.45 -4.58768 1.17598 0
M  V30 18857 H 1704.88 -5.79296 3.5035 0
M  V30 18858 H 1709.52 -4.06225 1.17221 0
M  V30 18859 H 1707.24 -6.35942 4.98602 0
M  V30 18860 H 1710.82 -4.93263 3.08517 0
M  V30 18861 H 1709.7 -6.06837 4.96707 0
M  V30 18862 N 1707.21 -0.246397 -1.55662 0
M  V30 18863 C 1708.14 0.686113 -2.1869 0
M  V30 18864 C 1709.15 1.13915 -1.16306 0
M  V30 18865 O 1710.34 1.06601 -1.43173 0
M  V30 18866 C 1707.44 1.94426 -2.77582 0
M  V30 18867 C 1706.61 1.64275 -4.0538 0
M  V30 18868 C 1705.67 2.75044 -4.48595 0
M  V30 18869 O 1704.7 2.42451 -5.14982 0
M  V30 18870 N 1705.9 4.04528 -4.16338 0
M  V30 18871 H 1708.66 0.146832 -2.9934 0
M  V30 18872 H 1706.23 -0.0663398 -1.61764 0
M  V30 18873 H 1708.22 2.67768 -3.0345 0
M  V30 18874 H 1706.79 2.39334 -2.01091 0
M  V30 18875 H 1706.01 0.744531 -3.87105 0
M  V30 18876 H 1707.3 1.41594 -4.88701 0
M  V30 18877 H 1706.69 4.33841 -3.6304 0
M  V30 18878 H 1705.25 4.74337 -4.47043 0
M  V30 18879 N 1708.68 1.57577 0.026722 0
M  V30 18880 C 1709.63 2.06711 1.02661 0
M  V30 18881 C 1710.6 0.956754 1.35777 0
M  V30 18882 O 1711.79 1.22747 1.46074 0
M  V30 18883 C 1708.93 2.55321 2.32175 0
M  V30 18884 C 1708.04 3.80155 2.05197 0
M  V30 18885 C 1707.17 4.17368 3.28599 0
M  V30 18886 C 1706.21 5.35114 2.97186 0
M  V30 18887 N 1705.35 5.67747 4.13046 0
M  V30 18888 H 1710.19 2.91884 0.600666 0
M  V30 18889 H 1707.73 1.44313 0.284968 0
M  V30 18890 H 1709.68 2.81572 3.07853 0
M  V30 18891 H 1708.31 1.73061 2.72488 0
M  V30 18892 H 1707.37 3.60975 1.20006 0
M  V30 18893 H 1708.68 4.65949 1.78026 0
M  V30 18894 H 1707.83 4.4476 4.12642 0
M  V30 18895 H 1706.57 3.30231 3.58886 0
M  V30 18896 H 1705.58 5.07473 2.11545 0
M  V30 18897 H 1706.8 6.23906 2.68175 0
M  V30 18898 H 1704.75 4.83569 4.4328 0
M  V30 18899 H 1704.66 6.48056 3.89307 0
M  V30 18900 H 1705.93 5.99717 4.97956 0
M  V30 18901 N 1710.16 -0.299034 1.54737 0
M  V30 18902 C 1711.09 -1.37358 1.88826 0
M  V30 18903 C 1712.07 -1.52802 0.747367 0
M  V30 18904 O 1713.26 -1.66277 1.00327 0
M  V30 18905 C 1710.39 -2.73746 2.13729 0
M  V30 18906 C 1709.34 -2.73065 3.29575 0
M  V30 18907 C 1708.67 -4.12761 3.39901 0
M  V30 18908 C 1709.97 -2.34631 4.66632 0
M  V30 18909 H 1711.66 -1.09077 2.78824 0
M  V30 18910 H 1709.21 -0.523276 1.34156 0
M  V30 18911 H 1711.16 -3.49006 2.36162 0
M  V30 18912 H 1709.88 -3.03556 1.20504 0
M  V30 18913 H 1708.54 -2.00261 3.07068 0
M  V30 18914 H 1708.19 -4.39751 2.44189 0
M  V30 18915 H 1707.89 -4.13205 4.17774 0
M  V30 18916 H 1709.42 -4.89797 3.64597 0
M  V30 18917 H 1710.83 -2.99608 4.88782 0
M  V30 18918 H 1709.23 -2.46285 5.47233 0
M  V30 18919 H 1710.3 -1.29759 4.67216 0
M  V30 18920 N 1711.64 -1.47227 -0.562322 0
M  V30 18921 C 1712.55 -1.61953 -1.69731 0
M  V30 18922 C 1713.57 -0.502478 -1.66587 0
M  V30 18923 O 1714.74 -0.769335 -1.86127 0
M  V30 18924 C 1711.81 -1.62539 -3.06238 0
M  V30 18925 C 1710.87 -2.85632 -3.20489 0
M  V30 18926 C 1710.1 -2.86181 -4.50485 0
M  V30 18927 O 1710.32 -1.96099 -5.35632 0
M  V30 18928 O 1709.26 -3.7798 -4.68417 0
M  V30 18929 H 1713.08 -2.5798 -1.6025 0
M  V30 18930 H 1710.67 -1.30253 -0.73174 0
M  V30 18931 H 1712.55 -1.65634 -3.87483 0
M  V30 18932 H 1711.23 -0.696779 -3.16112 0
M  V30 18933 H 1710.13 -2.88084 -2.3866 0
M  V30 18934 H 1711.47 -3.7777 -3.15517 0
M  V30 18935 N 1713.12 0.808639 -1.35273 0
M  V30 18936 C 1714.34 1.60219 -1.31699 0
M  V30 18937 C 1714.77 1.87816 0.103386 0
M  V30 18938 O 1714.13 1.46389 1.06957 0
M  V30 18939 C 1714.17 2.9116 -2.12739 0
M  V30 18940 O 1713.28 3.83891 -1.5067 0
M  V30 18941 H 1712.62 0.486742 -0.45164 0
M  V30 18942 H 1715.15 1.00378 -1.78284 0
M  V30 18943 H 1715.16 3.40602 -2.2462 0
M  V30 18944 H 1713.83 2.70399 -3.16002 0
M  V30 18945 H 1712.41 3.42437 -1.47618 0
M  V30 18946 N 1714.6 1.19237 1.03055 0
M  V30 18947 C 1715.51 0.943876 2.14775 0
M  V30 18948 C 1716.52 -0.0955384 1.73738 0
M  V30 18949 O 1717.7 0.0887187 2.01204 0
M  V30 18950 C 1714.76 0.48402 3.43305 0
M  V30 18951 C 1713.82 1.59262 3.98665 0
M  V30 18952 C 1713.06 1.15461 5.21061 0
M  V30 18953 O 1713.28 0.0174841 5.70397 0
M  V30 18954 O 1712.21 1.95648 5.69215 0
M  V30 18955 H 1716.04 1.87894 2.38599 0
M  V30 18956 H 1713.63 0.975046 1.13195 0
M  V30 18957 H 1715.51 0.236135 4.20738 0
M  V30 18958 H 1714.18 -0.422626 3.20929 0
M  V30 18959 H 1713.09 1.89464 3.22574 0
M  V30 18960 H 1714.42 2.47576 4.25402 0
M  V30 18961 N 1716.07 -1.22136 0.99602 0
M  V30 18962 C 1717.02 -2.24178 0.54889 0
M  V30 18963 C 1717.99 -1.60692 -0.420391 0
M  V30 18964 O 1719.18 -1.88021 -0.324452 0
M  V30 18965 C 1716.32 -3.44865 -0.127239 0
M  V30 18966 C 1715.43 -4.22855 0.884153 0
M  V30 18967 C 1714.56 -5.30891 0.181219 0
M  V30 18968 C 1713.6 -6.00603 1.18077 0
M  V30 18969 N 1712.74 -7.00275 0.505927 0
M  V30 18970 H 1717.58 -2.61788 1.42377 0
M  V30 18971 H 1715.12 -1.28658 0.713124 0
M  V30 18972 H 1717.08 -4.1374 -0.536194 0
M  V30 18973 H 1715.71 -3.0801 -0.965892 0
M  V30 18974 H 1714.76 -3.53247 1.41141 0
M  V30 18975 H 1716.07 -4.70888 1.64518 0
M  V30 18976 H 1715.22 -6.06033 -0.284307 0
M  V30 18977 H 1713.96 -4.83841 -0.612289 0
M  V30 18978 H 1712.97 -5.2424 1.65689 0
M  V30 18979 H 1714.19 -6.4974 1.9752 0
M  V30 18980 H 1712.14 -6.55452 -0.268088 0
M  V30 18981 H 1712.06 -7.46329 1.20535 0
M  V30 18982 H 1713.32 -7.79474 0.0633069 0
M  V30 18983 N 1717.55 -0.769612 -1.37531 0
M  V30 18984 C 1718.52 -0.160716 -2.28636 0
M  V30 18985 C 1719.52 0.630362 -1.47929 0
M  V30 18986 O 1720.71 0.454265 -1.68173 0
M  V30 18987 C 1717.84 0.779904 -3.31859 0
M  V30 18988 H 1719.03 -0.963794 -2.83991 0
M  V30 18989 H 1716.58 -0.537678 -1.46761 0
M  V30 18990 H 1717.32 1.60807 -2.81623 0
M  V30 18991 H 1717.1 0.21485 -3.91511 0
M  V30 18992 H 1718.59 1.20143 -3.99944 0
M  V30 18993 N 1719.03 1.48775 -0.519977 0
M  V30 18994 C 1720.28 2.0169 0.0196973 0
M  V30 18995 C 1720.59 1.40319 1.36272 0
M  V30 18996 O 1721.8 1.84673 1.99018 0
M  V30 18997 C 1720.25 3.59798 0.085525 0
M  V30 18998 C 1719.86 4.3015 -1.25199 0
M  V30 18999 C 1721.61 4.20594 0.574557 0
M  V30 19000 C 1719.51 5.80165 -1.14729 0
M  V30 19001 H 1718.44 0.753918 0.011133 0
M  V30 19002 H 1721.09 1.71133 -0.662254 0
M  V30 19003 H 1719.48 3.87154 0.832339 0
M  V30 19004 H 1720.65 4.14477 -2.01359 0
M  V30 19005 H 1718.97 3.81183 -1.67596 0
M  V30 19006 H 1721.56 5.30477 0.670698 0
M  V30 19007 H 1721.91 3.85235 1.57797 0
M  V30 19008 H 1722.44 3.9763 -0.116277 0
M  V30 19009 H 1719.18 6.20081 -2.12555 0
M  V30 19010 H 1718.7 5.98279 -0.426902 0
M  V30 19011 H 1720.38 6.41605 -0.83382 0
M  V30 19012 N 1720.51 0.254649 1.55529 0
M  V30 19013 C 1721.46 -0.64162 2.21702 0
M  V30 19014 C 1722.43 -1.16544 1.1835 0
M  V30 19015 O 1723.61 -1.2185 1.46824 0
M  V30 19016 C 1720.75 -1.82935 2.92624 0
M  V30 19017 C 1719.86 -1.34132 4.10649 0
M  V30 19018 C 1719 -2.48922 4.69267 0
M  V30 19019 C 1718.04 -1.9702 5.79525 0
M  V30 19020 N 1717.17 -3.05206 6.32293 0
M  V30 19021 H 1722.01 -0.0706476 2.97916 0
M  V30 19022 H 1719.55 -0.0231077 1.47082 0
M  V30 19023 H 1721.51 -2.52719 3.31947 0
M  V30 19024 H 1720.14 -2.37267 2.1887 0
M  V30 19025 H 1719.19 -0.53726 3.76587 0
M  V30 19026 H 1720.5 -0.921003 4.90223 0
M  V30 19027 H 1719.66 -3.26735 5.11203 0
M  V30 19028 H 1718.4 -2.94259 3.88925 0
M  V30 19029 H 1717.4 -1.17679 5.37058 0
M  V30 19030 H 1718.63 -1.52643 6.61723 0
M  V30 19031 H 1716.57 -3.49963 5.54853 0
M  V30 19032 H 1716.49 -2.67528 7.07082 0
M  V30 19033 H 1717.76 -3.83055 6.78888 0
M  V30 19034 N 1721.99 -1.57589 -0.0183649 0
M  V30 19035 C 1722.9 -2.10665 -1.03235 0
M  V30 19036 C 1723.91 -1.04767 -1.38924 0
M  V30 19037 O 1725.09 -1.36565 -1.48027 0
M  V30 19038 C 1722.15 -2.58432 -2.31114 0
M  V30 19039 C 1721.21 -3.78856 -2.01908 0
M  V30 19040 C 1720.45 -4.24335 -3.2369 0
M  V30 19041 O 1720.67 -3.69266 -4.3474 0
M  V30 19042 O 1719.6 -5.16671 -3.08763 0
M  V30 19043 H 1723.43 -2.97485 -0.611254 0
M  V30 19044 H 1721.02 -1.47524 -0.236035 0
M  V30 19045 H 1722.9 -2.89438 -3.06274 0
M  V30 19046 H 1721.57 -1.74718 -2.72498 0
M  V30 19047 H 1720.48 -3.52852 -1.24282 0
M  V30 19048 H 1721.81 -4.63587 -1.65373 0
M  V30 19049 N 1723.46 0.290824 -1.54893 0
M  V30 19050 C 1724.41 1.35899 -1.86548 0
M  V30 19051 C 1725.38 1.49909 -0.71529 0
M  V30 19052 O 1726.57 1.64604 -0.964886 0
M  V30 19053 C 1723.71 2.71735 -2.1273 0
M  V30 19054 C 1722.82 2.66092 -3.40322 0
M  V30 19055 C 1721.95 3.93989 -3.56295 0
M  V30 19056 C 1720.99 3.82785 -4.77642 0
M  V30 19057 N 1720.13 5.02479 -4.90367 0
M  V30 19058 H 1724.97 1.08205 -2.77661 0
M  V30 19059 H 1722.51 0.523144 -1.37483 0
M  V30 19060 H 1724.47 3.50745 -2.25907 0
M  V30 19061 H 1723.1 2.97669 -1.24871 0
M  V30 19062 H 1722.15 1.78891 -3.35712 0
M  V30 19063 H 1723.46 2.53706 -4.29458 0
M  V30 19064 H 1722.61 4.81438 -3.69192 0
M  V30 19065 H 1721.35 4.09221 -2.6531 0
M  V30 19066 H 1720.36 2.9372 -4.64767 0
M  V30 19067 H 1721.58 3.69088 -5.70044 0
M  V30 19068 H 1719.53 5.18155 -4.02308 0
M  V30 19069 H 1719.45 4.92555 -5.7352 0
M  V30 19070 H 1720.71 5.9155 -5.07631 0
M  V30 19071 N 1724.94 1.47523 0.554506 0
M  V30 19072 C 1725.85 1.62851 1.68869 0
M  V30 19073 C 1726.87 0.511305 1.66318 0
M  V30 19074 O 1728.04 0.779195 1.85716 0
M  V30 19075 C 1725.11 1.64161 3.05372 0
M  V30 19076 C 1724.17 2.87327 3.1897 0
M  V30 19077 C 1723.4 2.88566 4.48961 0
M  V30 19078 O 1723.63 1.98937 5.34584 0
M  V30 19079 O 1722.56 3.80459 4.66406 0
M  V30 19080 H 1726.39 2.58826 1.5888 0
M  V30 19081 H 1723.97 1.3064 0.724822 0
M  V30 19082 H 1725.85 1.67686 3.866 0
M  V30 19083 H 1724.53 0.713534 3.15738 0
M  V30 19084 H 1723.44 2.89345 2.37129 0
M  V30 19085 H 1724.77 3.79438 3.13509 0
M  V30 19086 N 1726.42 -0.801453 1.357 0
M  V30 19087 C 1727.65 -1.58771 1.32194 0
M  V30 19088 C 1728.06 -1.88927 -0.101529 0
M  V30 19089 O 1727.4 -1.49649 -1.0654 0
M  V30 19090 C 1727.46 -2.94186 2.06627 0
M  V30 19091 C 1727.13 -2.86819 3.55786 0
M  V30 19092 C 1728.12 -2.59898 4.50276 0
M  V30 19093 C 1725.81 -3.05775 3.98506 0
M  V30 19094 C 1727.8 -2.52017 5.85462 0
M  V30 19095 C 1725.49 -2.97516 5.33786 0
M  V30 19096 C 1726.49 -2.70673 6.27076 0
M  V30 19097 O 1726.18 -2.62387 7.59874 0
M  V30 19098 H 1725.91 -0.499518 0.455475 0
M  V30 19099 H 1728.46 -1.00358 1.79213 0
M  V30 19100 H 1726.69 -3.54602 1.54253 0
M  V30 19101 H 1728.38 -3.55368 1.96133 0
M  V30 19102 H 1729.15 -2.44968 4.18588 0
M  V30 19103 H 1725.03 -3.25678 3.26274 0
M  V30 19104 H 1728.57 -2.30985 6.58249 0
M  V30 19105 H 1724.47 -3.12006 5.65086 0
M  V30 19106 H 1725.24 -2.77957 7.69859 0
M  V30 19107 N 1727.9 -1.19782 -1.02421 0
M  V30 19108 C 1728.81 -0.955253 -2.14271 0
M  V30 19109 C 1729.82 0.0863233 -1.73786 0
M  V30 19110 O 1731 -0.0993878 -2.01155 0
M  V30 19111 C 1728.07 -0.502219 -3.43043 0
M  V30 19112 C 1727.13 -1.61374 -3.97815 0
M  V30 19113 C 1726.36 -1.18223 -5.20441 0
M  V30 19114 O 1726.58 -0.0477334 -5.7038 0
M  V30 19115 O 1725.52 -1.98664 -5.68169 0
M  V30 19116 H 1729.34 -1.89157 -2.37599 0
M  V30 19117 H 1726.93 -0.981035 -1.12677 0
M  V30 19118 H 1728.81 -0.258445 -4.20607 0
M  V30 19119 H 1727.48 0.4056 -3.21149 0
M  V30 19120 H 1726.39 -1.91172 -3.21565 0
M  V30 19121 H 1727.72 -2.49829 -4.24083 0
M  V30 19122 N 1729.38 1.21606 -1.00248 0
M  V30 19123 C 1730.63 1.89922 -0.679152 0
M  V30 19124 C 1730.94 1.78793 0.793246 0
M  V30 19125 O 1732.15 2.42113 1.22856 0
M  V30 19126 C 1730.6 3.40548 -1.16427 0
M  V30 19127 C 1730.21 3.60293 -2.66257 0
M  V30 19128 C 1731.95 4.14506 -0.915714 0
M  V30 19129 C 1729.86 5.04669 -3.08323 0
M  V30 19130 H 1728.79 0.711232 -0.250329 0
M  V30 19131 H 1731.44 1.37663 -1.21331 0
M  V30 19132 H 1729.82 3.92046 -0.558177 0
M  V30 19133 H 1731 3.19245 -3.32294 0
M  V30 19134 H 1729.31 2.99683 -2.891 0
M  V30 19135 H 1731.91 5.20932 -1.20558 0
M  V30 19136 H 1732.25 4.16037 0.148068 0
M  V30 19137 H 1732.79 3.69064 -1.48448 0
M  V30 19138 H 1729.52 5.08284 -4.13917 0
M  V30 19139 H 1729.04 5.46583 -2.46996 0
M  V30 19140 H 1730.72 5.7316 -3.00162 0
M  V30 19141 N 1730.86 0.776895 1.37121 0
M  V30 19142 C 1731.77 0.167552 2.34001 0
M  V30 19143 C 1732.78 -0.673609 1.60432 0
M  V30 19144 O 1733.96 -0.592327 1.92493 0
M  V30 19145 C 1731.02 -0.697343 3.39615 0
M  V30 19146 C 1730.08 0.160869 4.28998 0
M  V30 19147 C 1729.32 -0.662841 5.29568 0
M  V30 19148 O 1729.54 -1.89962 5.37839 0
M  V30 19149 O 1728.47 -0.0693304 6.0186 0
M  V30 19150 H 1732.3 0.968247 2.87852 0
M  V30 19151 H 1729.88 0.538137 1.39372 0
M  V30 19152 H 1731.77 -1.19094 4.04221 0
M  V30 19153 H 1730.44 -1.47614 2.88083 0
M  V30 19154 H 1729.35 0.700941 3.67475 0
M  V30 19155 H 1730.68 0.902875 4.83848 0
M  V30 19156 N 1732.33 -1.48497 0.527859 0
M  V30 19157 C 1733.75 -1.58517 0.185573 0
M  V30 19158 C 1733.95 -1.53012 -1.31109 0
M  V30 19159 O 1733.01 -1.41807 -2.08919 0
M  V30 19160 C 1734.32 -2.9024 0.786219 0
M  V30 19161 C 1735.87 -3.03764 0.75476 0
M  V30 19162 C 1736.34 -4.38144 1.33394 0
M  V30 19163 N 1737.83 -4.44705 1.29582 0
M  V30 19164 C 1738.57 -5.47187 1.71388 0
M  V30 19165 N 1738.06 -6.56635 2.20913 0
M  V30 19166 N 1739.86 -5.38057 1.62638 0
M  V30 19167 H 1732.01 -1.50319 1.5006 0
M  V30 19168 H 1734.27 -0.713625 0.624054 0
M  V30 19169 H 1733.98 -2.99918 1.8369 0
M  V30 19170 H 1733.85 -3.76288 0.262084 0
M  V30 19171 H 1736.24 -2.937 -0.287157 0
M  V30 19172 H 1736.32 -2.19331 1.31634 0
M  V30 19173 H 1735.96 -4.48962 2.37478 0
M  V30 19174 H 1735.89 -5.2126 0.748063 0
M  V30 19175 H 1738.38 -3.66195 0.933246 0
M  V30 19176 H 1738.7 -7.30967 2.50813 0
M  V30 19177 H 1737.04 -6.57604 2.24906 0
M  V30 19178 H 1740.23 -4.51447 1.23746 0
M  V30 19179 H 1740.41 -6.17793 1.9554 0
M  V30 19180 N 1733.81 -0.262893 -1.55392 0
M  V30 19181 C 1734.74 0.623732 -2.25015 0
M  V30 19182 C 1735.72 1.16865 -1.23598 0
M  V30 19183 O 1736.91 1.20505 -1.5229 0
M  V30 19184 C 1734.04 1.81353 -2.9619 0
M  V30 19185 C 1732.99 1.40069 -4.04431 0
M  V30 19186 C 1732.32 2.67261 -4.63115 0
M  V30 19187 C 1733.62 0.559905 -5.1929 0
M  V30 19188 H 1735.31 0.0431306 -2.99369 0
M  V30 19189 H 1732.86 0.0193043 -1.43987 0
M  V30 19190 H 1734.81 2.43958 -3.43602 0
M  V30 19191 H 1733.53 2.41977 -2.1935 0
M  V30 19192 H 1732.19 0.797905 -3.57811 0
M  V30 19193 H 1731.84 3.26117 -3.82958 0
M  V30 19194 H 1731.54 2.40354 -5.36194 0
M  V30 19195 H 1733.07 3.30735 -5.1327 0
M  V30 19196 H 1734.48 1.09064 -5.6283 0
M  V30 19197 H 1732.88 0.386234 -5.98856 0
M  V30 19198 H 1733.95 -0.424199 -4.83041 0
M  V30 19199 N 1735.29 1.57597 0.0100073 0
M  V30 19200 C 1736.71 1.55348 0.365949 0
M  V30 19201 C 1736.91 0.991487 1.75419 0
M  V30 19202 O 1735.96 0.620894 2.44747 0
M  V30 19203 C 1737.27 2.99656 0.250343 0
M  V30 19204 C 1738.82 3.11297 0.326023 0
M  V30 19205 C 1739.3 4.57373 0.239653 0
M  V30 19206 N 1740.79 4.62241 0.297863 0
M  V30 19207 C 1741.52 5.72836 0.254219 0
M  V30 19208 N 1741.02 6.92611 0.161753 0
M  V30 19209 N 1742.81 5.6127 0.30535 0
M  V30 19210 H 1734.96 1.92471 -0.898253 0
M  V30 19211 H 1737.23 0.883623 -0.343386 0
M  V30 19212 H 1736.93 3.44574 -0.704407 0
M  V30 19213 H 1736.81 3.62682 1.03643 0
M  V30 19214 H 1739.19 2.66316 1.27121 0
M  V30 19215 H 1739.27 2.51068 -0.489756 0
M  V30 19216 H 1738.92 5.03026 -0.70195 0
M  V30 19217 H 1738.85 5.15536 1.07379 0
M  V30 19218 H 1741.34 3.76074 0.371065 0
M  V30 19219 H 1741.65 7.72684 0.134073 0
M  V30 19220 H 1740 6.94883 0.127524 0
M  V30 19221 H 1743.19 4.6659 0.375713 0
M  V30 19222 H 1743.36 6.47446 0.267871 0
M  V30 19223 N 1736.77 -0.282606 1.55045 0
M  V30 19224 C 1738.01 -1.01698 1.75458 0
M  V30 19225 C 1738.35 -1.86284 0.548808 0
M  V30 19226 O 1737.62 -1.89131 -0.45382 0
M  V30 19227 C 1737.9 -1.90759 3.05423 0
M  V30 19228 C 1737.76 -1.0923 4.36336 0
M  V30 19229 C 1739.08 -2.8963 3.31364 0
M  V30 19230 H 1736.2 -0.368305 0.638373 0
M  V30 19231 H 1738.84 -0.290118 1.87772 0
M  V30 19232 H 1736.99 -2.52734 2.95055 0
M  V30 19233 H 1738.66 -0.493996 4.58647 0
M  V30 19234 H 1736.9 -0.395481 4.31994 0
M  V30 19235 H 1737.57 -1.74842 5.23578 0
M  V30 19236 H 1740.05 -2.37788 3.41462 0
M  V30 19237 H 1738.93 -3.49096 4.23584 0
M  V30 19238 H 1739.19 -3.64255 2.50541 0
M  V30 19239 N 1738.25 -1.47815 -0.546675 0
M  V30 19240 C 1739.18 -1.63976 -1.66235 0
M  V30 19241 C 1740.16 -0.488945 -1.62921 0
M  V30 19242 O 1741.34 -0.719532 -1.80378 0
M  V30 19243 C 1738.47 -1.6637 -3.04858 0
M  V30 19244 C 1737.43 -2.80785 -3.23023 0
M  V30 19245 C 1736.75 -2.68257 -4.62539 0
M  V30 19246 C 1738.05 -4.22267 -3.07388 0
M  V30 19247 H 1739.75 -2.57375 -1.52965 0
M  V30 19248 H 1737.29 -1.23861 -0.734465 0
M  V30 19249 H 1739.24 -1.76266 -3.82764 0
M  V30 19250 H 1737.97 -0.695386 -3.19111 0
M  V30 19251 H 1736.63 -2.70417 -2.47529 0
M  V30 19252 H 1736.28 -1.69431 -4.73606 0
M  V30 19253 H 1735.98 -3.45022 -4.75641 0
M  V30 19254 H 1737.5 -2.80097 -5.42566 0
M  V30 19255 H 1738.91 -4.33557 -3.75102 0
M  V30 19256 H 1737.31 -4.999 -3.31994 0
M  V30 19257 H 1738.38 -4.39897 -2.04006 0
M  V30 19258 N 1739.72 0.794246 -1.36123 0
M  V30 19259 C 1740.65 1.92105 -1.32732 0
M  V30 19260 C 1741.63 1.68925 -0.199603 0
M  V30 19261 O 1742.82 1.90109 -0.396498 0
M  V30 19262 C 1739.95 3.29051 -1.11098 0
M  V30 19263 C 1738.9 3.66743 -2.20643 0
M  V30 19264 C 1738.23 5.01986 -1.84159 0
M  V30 19265 C 1739.53 3.75831 -3.62696 0
M  V30 19266 H 1741.22 1.952 -2.27018 0
M  V30 19267 H 1738.77 0.937746 -1.09281 0
M  V30 19268 H 1740.72 4.07494 -1.07362 0
M  V30 19269 H 1739.45 3.26331 -0.132614 0
M  V30 19270 H 1738.11 2.90594 -2.23497 0
M  V30 19271 H 1737.75 4.95782 -0.849081 0
M  V30 19272 H 1737.45 5.28175 -2.57497 0
M  V30 19273 H 1738.98 5.82855 -1.8197 0
M  V30 19274 H 1740.39 4.44476 -3.62096 0
M  V30 19275 H 1738.79 4.135 -4.34899 0
M  V30 19276 H 1739.86 2.7706 -3.97952 0
M  V30 19277 N 1741.2 1.20323 1.01785 0
M  V30 19278 C 1742.13 0.908716 2.10416 0
M  V30 19279 C 1743.15 -0.103029 1.62474 0
M  V30 19280 O 1744.34 0.127825 1.78042 0
M  V30 19281 C 1741.44 0.340601 3.37184 0
M  V30 19282 C 1740.61 1.40358 4.14268 0
M  V30 19283 C 1739.67 0.847016 5.19338 0
M  V30 19284 O 1738.69 1.5274 5.48324 0
M  V30 19285 N 1739.9 -0.344198 5.79479 0
M  V30 19286 H 1742.66 1.84383 2.36269 0
M  V30 19287 H 1740.22 1.10673 1.18165 0
M  V30 19288 H 1742.21 -0.0458443 4.04674 0
M  V30 19289 H 1740.78 -0.499042 3.08591 0
M  V30 19290 H 1740 1.96442 3.41766 0
M  V30 19291 H 1741.29 2.11952 4.62551 0
M  V30 19292 H 1740.69 -0.914263 5.58263 0
M  V30 19293 H 1739.25 -0.672296 6.48324 0
M  V30 19294 N 1742.68 -1.21073 1.00892 0
M  V30 19295 C 1743.59 -2.27265 0.582065 0
M  V30 19296 C 1744.61 -1.69872 -0.376785 0
M  V30 19297 O 1745.78 -1.99969 -0.239644 0
M  V30 19298 C 1742.85 -3.46606 -0.0806764 0
M  V30 19299 C 1741.91 -4.19257 0.923147 0
M  V30 19300 C 1741.14 -5.32901 0.291938 0
M  V30 19301 O 1741.36 -5.6309 -0.910282 0
M  V30 19302 O 1740.3 -5.93453 1.00483 0
M  V30 19303 H 1744.12 -2.65977 1.46594 0
M  V30 19304 H 1741.71 -1.27544 0.777999 0
M  V30 19305 H 1743.59 -4.18978 -0.451177 0
M  V30 19306 H 1742.27 -3.09785 -0.93887 0
M  V30 19307 H 1741.17 -3.4909 1.34488 0
M  V30 19308 H 1742.51 -4.59999 1.75106 0
M  V30 19309 N 1744.16 -0.784156 -1.36707 0
M  V30 19310 C 1745.07 -0.179959 -2.33909 0
M  V30 19311 C 1746.08 0.665092 -1.60787 0
M  V30 19312 O 1747.26 0.582111 -1.92804 0
M  V30 19313 C 1744.33 0.679323 -3.3998 0
M  V30 19314 C 1743.39 -0.183618 -4.28907 0
M  V30 19315 C 1742.62 0.634747 -5.29912 0
M  V30 19316 O 1742.84 1.87107 -5.38839 0
M  V30 19317 O 1741.78 0.0374113 -6.01888 0
M  V30 19318 H 1745.6 -0.983499 -2.87334 0
M  V30 19319 H 1743.19 -0.545521 -1.39084 0
M  V30 19320 H 1745.07 1.16948 -4.04847 0
M  V30 19321 H 1743.74 1.46084 -2.88862 0
M  V30 19322 H 1742.65 -0.720419 -3.67098 0
M  V30 19323 H 1743.98 -0.928522 -4.83363 0
M  V30 19324 N 1745.64 1.48215 -0.535727 0
M  V30 19325 C 1746.88 2.021 -0.00372016 0
M  V30 19326 C 1747.21 1.41456 1.34221 0
M  V30 19327 O 1746.48 0.581987 1.87055 0
M  V30 19328 H 1745.06 0.746998 0.00161295 0
M  V30 19329 H 1747.72 1.81862 -0.700863 0
M  V30 19330 H 1746.81 3.11939 0.100352 0
M  V30 19331 N 1747.11 0.27113 1.5525 0
M  V30 19332 C 1748.34 -0.350248 2.03914 0
M  V30 19333 C 1748.76 -1.49763 1.14963 0
M  V30 19334 O 1748.11 -1.81717 0.168923 0
M  V30 19335 C 1748.17 -0.835056 3.51723 0
M  V30 19336 O 1747.89 0.266625 4.37288 0
M  V30 19337 C 1749.39 -1.52466 4.16256 0
M  V30 19338 H 1746.61 -0.0803955 0.666166 0
M  V30 19339 H 1749.15 0.402063 2.00509 0
M  V30 19340 H 1747.31 -1.53747 3.55585 0
M  V30 19341 H 1747.72 -0.105433 5.24394 0
M  V30 19342 H 1749.19 -1.81534 5.21296 0
M  V30 19343 H 1749.67 -2.45485 3.64189 0
M  V30 19344 H 1750.28 -0.8662 4.16386 0
M  V30 19345 N 1748.59 -1.576 -0.00164943 0
M  V30 19346 C 1750.01 -1.5554 -0.357706 0
M  V30 19347 C 1750.21 -1.00078 -1.74891 0
M  V30 19348 O 1749.26 -0.633864 -2.44414 0
M  V30 19349 C 1750.58 -2.99785 -0.234448 0
M  V30 19350 C 1752.13 -3.11466 -0.309509 0
M  V30 19351 C 1752.6 -4.57493 -0.215394 0
M  V30 19352 N 1754.09 -4.62393 -0.273345 0
M  V30 19353 C 1754.83 -5.72963 -0.223836 0
M  V30 19354 N 1754.32 -6.92687 -0.12502 0
M  V30 19355 N 1756.12 -5.61424 -0.27558 0
M  V30 19356 H 1748.27 -1.91992 0.908448 0
M  V30 19357 H 1750.53 -0.88179 0.348067 0
M  V30 19358 H 1750.24 -3.44195 0.722671 0
M  V30 19359 H 1750.11 -3.63226 -1.01718 0
M  V30 19360 H 1752.5 -2.66986 -1.25707 0
M  V30 19361 H 1752.58 -2.50805 0.503064 0
M  V30 19362 H 1752.22 -5.02647 0.728617 0
M  V30 19363 H 1752.15 -5.16098 -1.04643 0
M  V30 19364 H 1754.64 -3.76265 -0.351116 0
M  V30 19365 H 1754.96 -7.72744 -0.0930938 0
M  V30 19366 H 1753.3 -6.94941 -0.0906712 0
M  V30 19367 H 1756.49 -4.66782 -0.350963 0
M  V30 19368 H 1756.66 -6.47579 -0.233531 0
M  V30 19369 N 1750.07 0.274379 -1.55193 0
M  V30 19370 C 1751.02 1.33913 -1.87978 0
M  V30 19371 C 1751.99 1.49142 -0.731149 0
M  V30 19372 O 1753.17 1.63572 -0.98229 0
M  V30 19373 C 1750.31 2.69464 -2.156 0
M  V30 19374 C 1749.43 2.62468 -3.43125 0
M  V30 19375 C 1748.56 3.90188 -3.60453 0
M  V30 19376 C 1747.6 3.77697 -4.81675 0
M  V30 19377 N 1746.74 4.97249 -4.95669 0
M  V30 19378 H 1751.58 1.05254 -2.78793 0
M  V30 19379 H 1749.11 0.508532 -1.3803 0
M  V30 19380 H 1751.07 3.48329 -2.29614 0
M  V30 19381 H 1749.7 2.96328 -1.28021 0
M  V30 19382 H 1748.75 1.7532 -3.3759 0
M  V30 19383 H 1750.07 2.49137 -4.32125 0
M  V30 19384 H 1749.22 4.77495 -3.74277 0
M  V30 19385 H 1747.96 4.06384 -2.69635 0
M  V30 19386 H 1746.96 2.88774 -4.67857 0
M  V30 19387 H 1748.19 3.63022 -5.73927 0
M  V30 19388 H 1746.13 5.13858 -4.07781 0
M  V30 19389 H 1746.05 4.86444 -5.78712 0
M  V30 19390 H 1747.32 5.86132 -5.13877 0
M  V30 19391 N 1751.55 1.48103 0.538828 0
M  V30 19392 C 1752.96 1.34028 0.866532 0
M  V30 19393 C 1753.16 0.3446 1.98531 0
M  V30 19394 O 1752.22 -0.237347 2.51382 0
M  V30 19395 C 1753.53 2.73833 1.24241 0
M  V30 19396 C 1755.08 2.82256 1.35279 0
M  V30 19397 C 1755.56 4.22744 1.76214 0
M  V30 19398 N 1757.05 4.25374 1.83332 0
M  V30 19399 C 1757.78 5.31009 2.16373 0
M  V30 19400 N 1757.28 6.4693 2.47899 0
M  V30 19401 N 1759.07 5.18397 2.17304 0
M  V30 19402 H 1751.22 2.11461 -0.199502 0
M  V30 19403 H 1753.49 0.947627 -0.0266031 0
M  V30 19404 H 1753.19 3.48213 0.494025 0
M  V30 19405 H 1753.07 3.0679 2.19453 0
M  V30 19406 H 1755.45 2.08137 2.09196 0
M  V30 19407 H 1755.53 2.5293 0.382096 0
M  V30 19408 H 1755.18 4.97375 1.02862 0
M  V30 19409 H 1755.11 4.49507 2.74319 0
M  V30 19410 H 1757.6 3.41755 1.61282 0
M  V30 19411 H 1757.91 7.23279 2.7219 0
M  V30 19412 H 1756.26 6.50219 2.45438 0
M  V30 19413 H 1759.45 4.26855 1.92126 0
M  V30 19414 H 1759.62 6.00824 2.42722 0
M  V30 19415 N 1753.03 -0.787016 1.36542 0
M  V30 19416 C 1753.94 -1.93103 1.33223 0
M  V30 19417 C 1754.95 -1.72419 0.234047 0
M  V30 19418 O 1756.13 -1.95915 0.466828 0
M  V30 19419 C 1753.19 -3.28002 1.12319 0
M  V30 19420 C 1752.25 -3.61447 2.31635 0
M  V30 19421 C 1751.49 -4.89909 2.11719 0
M  V30 19422 O 1751.71 -5.59818 1.0936 0
M  V30 19423 O 1750.64 -5.22065 2.99552 0
M  V30 19424 H 1754.47 -1.98853 2.29545 0
M  V30 19425 H 1752.06 -0.92761 1.17114 0
M  V30 19426 H 1753.94 -4.08722 1.02589 0
M  V30 19427 H 1752.61 -3.23138 0.19061 0
M  V30 19428 H 1751.52 -2.81024 2.46934 0
M  V30 19429 H 1752.85 -3.71037 3.23407 0
M  V30 19430 N 1754.5 -1.20861 -1.01145 0
M  V30 19431 C 1755.73 -1.04617 -1.78154 0
M  V30 19432 C 1756.14 0.407396 -1.84762 0
M  V30 19433 O 1755.49 1.29457 -1.30333 0
M  V30 19434 C 1755.55 -1.56038 -3.23871 0
M  V30 19435 C 1755.21 -3.0441 -3.40857 0
M  V30 19436 C 1756.21 -4.02021 -3.29659 0
M  V30 19437 C 1753.89 -3.43479 -3.66507 0
M  V30 19438 C 1755.89 -5.36689 -3.43866 0
M  V30 19439 C 1753.57 -4.78301 -3.80356 0
M  V30 19440 C 1754.57 -5.74715 -3.69041 0
M  V30 19441 O 1754.26 -7.07093 -3.82459 0
M  V30 19442 H 1753.99 -0.368185 -0.566935 0
M  V30 19443 H 1756.55 -1.60508 -1.28165 0
M  V30 19444 H 1754.78 -0.945373 -3.74966 0
M  V30 19445 H 1756.47 -1.35735 -3.82532 0
M  V30 19446 H 1757.23 -3.73182 -3.09775 0
M  V30 19447 H 1753.11 -2.68972 -3.74399 0
M  V30 19448 H 1756.65 -6.11927 -3.3495 0
M  V30 19449 H 1752.55 -5.06829 -3.99743 0
M  V30 19450 H 1753.32 -7.14413 -3.99445 0
M  V30 19451 N 1755.98 1.20536 -1.01532 0
M  V30 19452 C 1756.89 2.26953 -0.594109 0
M  V30 19453 C 1757.91 1.70069 0.367771 0
M  V30 19454 O 1759.08 2.00093 0.229036 0
M  V30 19455 C 1756.15 3.46644 0.0622939 0
M  V30 19456 C 1755.21 4.18762 -0.945368 0
M  V30 19457 C 1754.44 5.32739 -0.320195 0
M  V30 19458 O 1754.67 5.63565 0.880407 0
M  V30 19459 O 1753.6 5.92912 -1.03629 0
M  V30 19460 H 1757.43 2.65196 -1.48003 0
M  V30 19461 H 1755.01 1.2713 -0.784752 0
M  V30 19462 H 1756.89 4.19211 0.428952 0
M  V30 19463 H 1755.57 3.10279 0.922428 0
M  V30 19464 H 1754.48 3.48372 -1.36337 0
M  V30 19465 H 1755.81 4.59064 -1.77543 0
M  V30 19466 N 1757.46 0.791395 1.36289 0
M  V30 19467 C 1758.41 0.179128 2.31909 0
M  V30 19468 C 1759.4 -0.662657 1.55901 0
M  V30 19469 O 1760.61 -0.55752 1.71148 0
M  V30 19470 H 1756.98 0.0391522 0.75098 0
M  V30 19471 H 1758.95 1.001 2.8111 0
M  V30 19472 C 1757.7 -0.670016 3.41183 0
M  V30 19473 H 1757.03 -0.0316331 3.99787 0
M  V30 19474 H 1758.47 -1.06506 4.10405 0
M  V30 19475 C 1756.93 -1.8291 2.82923 0
M  V30 19476 O 1757.46 -2.92579 2.75247 0
M  V30 19477 N 1755.66 -1.63584 2.40185 0
M  V30 19478 H 1755.21 -0.743799 2.46628 0
M  V30 19479 H 1755.17 -2.41298 2.01551 0
M  V30 19480 N 1758.94 -1.47929 0.54358 0
M  V30 19481 C 1759.85 -2.33611 -0.215191 0
M  V30 19482 C 1760.87 -1.47343 -0.925526 0
M  V30 19483 O 1762.04 -1.80299 -0.897459 0
M  V30 19484 C 1759.11 -3.23755 -1.24031 0
M  V30 19485 C 1758.17 -4.25904 -0.538874 0
M  V30 19486 C 1757.4 -5.11741 -1.51516 0
M  V30 19487 O 1757.62 -4.9979 -2.74893 0
M  V30 19488 O 1756.56 -5.92722 -1.0471 0
M  V30 19489 H 1760.38 -2.99765 0.487279 0
M  V30 19490 H 1757.97 -1.46267 0.30434 0
M  V30 19491 H 1759.85 -3.79475 -1.8324 0
M  V30 19492 H 1758.53 -2.60245 -1.92495 0
M  V30 19493 H 1757.43 -3.73982 0.0940539 0
M  V30 19494 H 1758.77 -4.9209 0.104063 0
M  V30 19495 N 1760.42 -0.27936 -1.55104 0
M  V30 19496 C 1761.35 0.599831 -2.25664 0
M  V30 19497 C 1762.33 1.15548 -1.24831 0
M  V30 19498 O 1763.51 1.18883 -1.53559 0
M  V30 19499 C 1760.64 1.78202 -2.98096 0
M  V30 19500 C 1759.6 1.35771 -4.05894 0
M  V30 19501 C 1758.92 2.62334 -4.65924 0
M  V30 19502 C 1760.22 0.504795 -5.19855 0
M  V30 19503 H 1761.92 0.0113761 -2.99398 0
M  V30 19504 H 1759.46 0.00403149 -1.43999 0
M  V30 19505 H 1761.42 2.403 -3.4617 0
M  V30 19506 H 1760.14 2.39637 -2.21905 0
M  V30 19507 H 1758.8 0.75991 -3.58638 0
M  V30 19508 H 1758.45 3.22036 -3.86396 0
M  V30 19509 H 1758.15 2.34654 -5.38713 0
M  V30 19510 H 1759.67 3.25273 -5.16749 0
M  V30 19511 H 1761.09 1.03089 -5.63955 0
M  V30 19512 H 1759.48 0.322696 -5.99232 0
M  V30 19513 H 1760.55 -0.475409 -4.82564 0
M  V30 19514 N 1761.9 1.57599 -0.0067085 0
M  V30 19515 C 1762.86 2.07783 0.967417 0
M  V30 19516 C 1763.86 0.988498 1.26828 0
M  V30 19517 O 1765.05 1.25091 1.21235 0
M  V30 19518 C 1762.18 2.52491 2.29044 0
M  V30 19519 H 1763.37 2.95122 0.533201 0
M  V30 19520 H 1760.93 1.54432 0.2409 0
M  V30 19521 H 1761.66 1.68415 2.77141 0
M  V30 19522 H 1761.45 3.32054 2.08525 0
M  V30 19523 H 1762.94 2.9162 2.98911 0
M  V30 19524 N 1763.37 -0.266145 1.55336 0
M  V30 19525 C 1764.32 -1.32914 1.88686 0
M  V30 19526 C 1765.29 -1.48752 0.739048 0
M  V30 19527 O 1766.48 -1.63048 0.990951 0
M  V30 19528 C 1763.62 -2.68317 2.17026 0
M  V30 19529 C 1762.73 -2.60644 3.44512 0
M  V30 19530 C 1761.86 -3.88271 3.62517 0
M  V30 19531 C 1760.9 -3.75137 4.83672 0
M  V30 19532 N 1760.04 -4.94614 4.98299 0
M  V30 19533 H 1764.88 -1.03774 2.79347 0
M  V30 19534 H 1762.42 -0.501205 1.38298 0
M  V30 19535 H 1764.37 -3.47107 2.31458 0
M  V30 19536 H 1763 -2.95645 1.29591 0
M  V30 19537 H 1762.06 -1.73527 3.38515 0
M  V30 19538 H 1763.37 -2.46842 4.3344 0
M  V30 19539 H 1762.52 -4.75503 3.76804 0
M  V30 19540 H 1761.26 -4.04949 2.71787 0
M  V30 19541 H 1760.27 -2.86289 4.69381 0
M  V30 19542 H 1761.49 -3.59973 5.75844 0
M  V30 19543 H 1759.44 -5.11689 4.10501 0
M  V30 19544 H 1759.35 -4.83369 5.81284 0
M  V30 19545 H 1760.62 -5.83399 5.16978 0
M  V30 19546 N 1764.85 -1.48386 -0.530967 0
M  V30 19547 C 1766.1 -1.56585 -1.28875 0
M  V30 19548 C 1766.43 -0.238583 -1.92729 0
M  V30 19549 O 1765.71 0.75533 -1.79235 0
M  V30 19550 C 1765.99 -2.70338 -2.37886 0
M  V30 19551 C 1765.84 -4.12766 -1.78729 0
M  V30 19552 C 1767.16 -2.79857 -3.39659 0
M  V30 19553 H 1764.28 -0.569986 -0.46721 0
M  V30 19554 H 1766.92 -1.80555 -0.591596 0
M  V30 19555 H 1765.07 -2.50031 -2.9735 0
M  V30 19556 H 1766.74 -4.4451 -1.23324 0
M  V30 19557 H 1764.99 -4.19813 -1.09269 0
M  V30 19558 H 1765.66 -4.88178 -2.57655 0
M  V30 19559 H 1768.13 -2.9825 -2.90149 0
M  V30 19560 H 1767.01 -3.61179 -4.13329 0
M  V30 19561 H 1767.27 -1.87974 -4.00148 0
M  V30 19562 N 1766.33 0.779763 -1.36958 0
M  V30 19563 C 1767.75 1.07919 -1.17582 0
M  V30 19564 C 1767.95 2.01499 -0.00649229 0
M  V30 19565 O 1767 2.43832 0.655905 0
M  V30 19566 C 1768.31 1.68439 -2.49096 0
M  V30 19567 C 1769.86 1.80735 -2.55546 0
M  V30 19568 C 1770.34 2.44669 -3.87171 0
M  V30 19569 N 1771.83 2.52127 -3.88569 0
M  V30 19570 C 1772.56 3.02429 -4.87159 0
M  V30 19571 N 1772.06 3.52964 -5.96144 0
M  V30 19572 N 1773.85 3.0123 -4.7457 0
M  V30 19573 H 1766 0.158249 -2.1181 0
M  V30 19574 H 1768.27 0.132826 -0.938649 0
M  V30 19575 H 1767.97 1.07147 -3.34981 0
M  V30 19576 H 1767.85 2.67832 -2.65604 0
M  V30 19577 H 1770.23 2.41162 -1.70073 0
M  V30 19578 H 1770.31 0.801199 -2.42929 0
M  V30 19579 H 1769.96 1.84883 -4.73055 0
M  V30 19580 H 1769.89 3.45874 -3.97088 0
M  V30 19581 H 1772.38 2.16355 -3.09837 0
M  V30 19582 H 1772.69 3.89725 -6.67334 0
M  V30 19583 H 1771.04 3.5109 -5.998 0
M  V30 19584 H 1774.23 2.61045 -3.88553 0
M  V30 19585 H 1774.4 3.40122 -5.51562 0
M  V30 19586 N 1767.81 1.21396 1.00503 0
M  V30 19587 C 1768.76 0.97023 2.11398 0
M  V30 19588 C 1769.75 -0.0825019 1.69199 0
M  V30 19589 O 1770.96 0.0688841 1.79868 0
M  V30 19590 H 1767.33 0.296494 0.691083 0
M  V30 19591 H 1769.3 1.91155 2.29134 0
M  V30 19592 C 1768.05 0.551472 3.43299 0
M  V30 19593 H 1767.37 1.35316 3.76204 0
M  V30 19594 H 1768.81 0.420249 4.21912 0
M  V30 19595 C 1767.27 -0.737588 3.28727 0
M  V30 19596 O 1767.8 -1.79313 3.59458 0
M  V30 19597 N 1766.01 -0.704084 2.81942 0
M  V30 19598 H 1765.56 0.155183 2.57132 0
M  V30 19599 H 1765.51 -1.56689 2.72573 0
M  V30 19600 N 1769.29 -1.19996 1.0217 0
M  V30 19601 C 1770.24 -2.20837 0.567029 0
M  V30 19602 C 1771.22 -1.56339 -0.380377 0
M  V30 19603 O 1772.41 -1.75838 -0.202513 0
M  V30 19604 C 1769.54 -3.43187 -0.0880995 0
M  V30 19605 C 1768.63 -4.14842 0.881318 0
M  V30 19606 N 1769.02 -4.62798 2.04088 0
M  V30 19607 C 1767.32 -4.40421 0.703226 0
M  V30 19608 C 1768.02 -5.17744 2.65172 0
M  V30 19609 N 1766.99 -5.08112 1.93192 0
M  V30 19610 H 1770.79 -2.55586 1.45097 0
M  V30 19611 H 1768.31 -1.3599 0.887727 0
M  V30 19612 H 1770.31 -4.14662 -0.431407 0
M  V30 19613 H 1768.97 -3.09941 -0.967819 0
M  V30 19614 H 1769.98 -4.57851 2.42061 0
M  V30 19615 H 1766.65 -4.17304 -0.128008 0
M  V30 19616 H 1768.04 -5.65189 3.63333 0
M  V30 19617 N 1770.76 -0.798611 -1.35867 0
M  V30 19618 C 1771.99 -0.386918 -2.02945 0
M  V30 19619 C 1772.4 1.00438 -1.6034 0
M  V30 19620 O 1771.74 1.65716 -0.792719 0
M  V30 19621 C 1771.81 -0.381754 -3.57467 0
M  V30 19622 C 1771.47 -1.72219 -4.23308 0
M  V30 19623 C 1772.47 -2.67919 -4.45551 0
M  V30 19624 C 1770.15 -2.00402 -4.60591 0
M  V30 19625 C 1772.15 -3.8999 -5.04169 0
M  V30 19626 C 1769.83 -3.22737 -5.18926 0
M  V30 19627 C 1770.83 -4.1735 -5.40655 0
M  V30 19628 O 1770.52 -5.37527 -5.97762 0
M  V30 19629 H 1770.25 -0.156344 -0.657672 0
M  V30 19630 H 1772.81 -1.08128 -1.74635 0
M  V30 19631 H 1771.04 0.369157 -3.84934 0
M  V30 19632 H 1772.72 0.00653107 -4.05899 0
M  V30 19633 H 1773.49 -2.47436 -4.17134 0
M  V30 19634 H 1769.37 -1.27573 -4.42997 0
M  V30 19635 H 1772.91 -4.6385 -5.21046 0
M  V30 19636 H 1768.81 -3.43094 -5.46769 0
M  V30 19637 H 1769.58 -5.38716 -6.16221 0
M  V30 19638 N 1772.24 1.47639 -0.551417 0
M  V30 19639 C 1773.19 2.31626 0.212654 0
M  V30 19640 C 1774.18 1.42567 0.914925 0
M  V30 19641 O 1775.39 1.59363 0.836869 0
M  V30 19642 H 1771.76 0.746898 0.0874493 0
M  V30 19643 H 1773.74 2.93923 -0.514976 0
M  V30 19644 C 1772.48 3.25098 1.23316 0
M  V30 19645 H 1771.81 3.93585 0.702196 0
M  V30 19646 H 1773.25 3.86707 1.73878 0
M  V30 19647 C 1771.71 2.48209 2.27802 0
M  V30 19648 O 1772.24 2.22235 3.34626 0
M  V30 19649 N 1770.44 2.09321 2.01577 0
M  V30 19650 H 1769.99 2.30645 1.14719 0
M  V30 19651 H 1769.95 1.58191 2.71704 0
M  V30 19652 N 1773.72 0.287581 1.54954 0
M  V30 19653 C 1774.63 -0.604236 2.26685 0
M  V30 19654 C 1775.65 -1.1597 1.29719 0
M  V30 19655 O 1776.82 -1.18735 1.62678 0
M  V30 19656 C 1773.89 -1.76612 2.98344 0
M  V30 19657 C 1772.95 -1.24608 4.10818 0
M  V30 19658 C 1772.18 -2.35258 4.7905 0
M  V30 19659 O 1772.4 -3.54879 4.46561 0
M  V30 19660 O 1771.34 -2.02709 5.66739 0
M  V30 19661 H 1775.16 -0.0227663 3.03691 0
M  V30 19662 H 1772.75 0.0545243 1.493 0
M  V30 19663 H 1774.63 -2.44332 3.43336 0
M  V30 19664 H 1773.31 -2.33444 2.24244 0
M  V30 19665 H 1772.21 -0.53498 3.70255 0
M  V30 19666 H 1773.55 -0.723348 4.86856 0
M  V30 19667 N 1775.2 -1.57593 0.0150662 0
M  V30 19668 C 1776.11 -2.12807 -0.987437 0
M  V30 19669 C 1777.12 -1.07691 -1.3667 0
M  V30 19670 O 1778.3 -1.39674 -1.45097 0
M  V30 19671 C 1775.37 -2.63276 -2.2558 0
M  V30 19672 C 1774.43 -3.83053 -1.93827 0
M  V30 19673 C 1773.66 -4.31106 -3.14616 0
M  V30 19674 O 1773.88 -3.78405 -4.26809 0
M  V30 19675 O 1772.82 -5.23104 -2.97734 0
M  V30 19676 H 1776.64 -2.98715 -0.548015 0
M  V30 19677 H 1774.23 -1.47991 -0.20469 0
M  V30 19678 H 1776.11 -2.95869 -3.00066 0
M  V30 19679 H 1774.78 -1.80459 -2.68731 0
M  V30 19680 H 1773.69 -3.55409 -1.1677 0
M  V30 19681 H 1775.02 -4.6699 -1.55502 0
M  V30 19682 N 1776.68 0.257904 -1.55475 0
M  V30 19683 C 1777.61 1.34514 -1.8434 0
M  V30 19684 C 1778.59 1.46875 -0.697594 0
M  V30 19685 O 1779.77 1.63263 -0.942196 0
M  V30 19686 C 1776.9 2.71991 -2.01839 0
M  V30 19687 C 1775.94 2.76836 -3.24445 0
M  V30 19688 S 1776.78 2.34554 -4.81399 0
M  V30 19689 C 1777.93 3.73977 -5.01888 0
M  V30 19690 H 1778.17 1.09828 -2.7627 0
M  V30 19691 H 1775.7 0.458324 -1.47441 0
M  V30 19692 H 1777.66 3.51155 -2.12604 0
M  V30 19693 H 1776.32 2.9392 -1.10771 0
M  V30 19694 H 1775.51 3.77774 -3.33621 0
M  V30 19695 H 1775.11 2.05706 -3.12348 0
M  V30 19696 H 1777.41 4.69381 -4.88556 0
M  V30 19697 H 1778.35 3.69743 -6.03901 0
M  V30 19698 H 1778.76 3.6598 -4.29789 0
M  V30 19699 N 1778.15 1.48666 0.52309 0
M  V30 19700 C 1779.38 1.60965 1.30787 0
M  V30 19701 C 1779.8 0.272663 1.86113 0
M  V30 19702 O 1779.16 -0.756662 1.64755 0
M  V30 19703 C 1779.21 2.66455 2.42969 0
M  V30 19704 O 1778.31 2.24094 3.46202 0
M  V30 19705 H 1777.66 0.539516 0.387064 0
M  V30 19706 H 1780.19 1.94702 0.628683 0
M  V30 19707 H 1780.2 2.87942 2.89056 0
M  V30 19708 H 1778.87 3.63516 2.02062 0
M  V30 19709 H 1777.45 2.12848 3.06186 0
M  V30 19710 N 1779.63 -0.772489 1.37369 0
M  V30 19711 C 1780.58 -1.90713 1.33158 0
M  V30 19712 C 1781.57 -1.67959 0.220482 0
M  V30 19713 O 1782.78 -1.75758 0.388465 0
M  V30 19714 H 1779.16 -0.627149 0.414956 0
M  V30 19715 H 1781.13 -1.91382 2.28944 0
M  V30 19716 C 1779.88 -3.27966 1.1547 0
M  V30 19717 H 1779.2 -3.46052 2.00221 0
M  V30 19718 H 1780.64 -4.0766 1.16574 0
M  V30 19719 C 1779.1 -3.3661 -0.139688 0
M  V30 19720 O 1779.63 -3.85668 -1.12353 0
M  V30 19721 N 1777.83 -2.89977 -0.190134 0
M  V30 19722 H 1777.38 -2.50246 0.611134 0
M  V30 19723 H 1777.34 -2.96142 -1.05582 0
M  V30 19724 N 1781.11 -1.21927 -0.998575 0
M  V30 19725 C 1782.04 -1.00845 -2.106 0
M  V30 19726 C 1783.02 0.068733 -1.69961 0
M  V30 19727 O 1784.21 -0.0923686 -1.9398 0
M  V30 19728 C 1781.34 -0.57929 -3.42435 0
M  V30 19729 C 1780.29 -1.60177 -3.96897 0
M  V30 19730 C 1779.62 -1.02863 -5.24713 0
M  V30 19731 C 1780.92 -2.9903 -4.28227 0
M  V30 19732 H 1782.61 -1.93469 -2.28495 0
M  V30 19733 H 1780.16 -0.931612 -1.09804 0
M  V30 19734 H 1782.11 -0.418944 -4.19312 0
M  V30 19735 H 1780.83 0.382608 -3.24351 0
M  V30 19736 H 1779.49 -1.74979 -3.22146 0
M  V30 19737 H 1779.14 -0.058254 -5.02966 0
M  V30 19738 H 1778.84 -1.71166 -5.62117 0
M  V30 19739 H 1780.36 -0.879743 -6.04229 0
M  V30 19740 H 1781.78 -2.87634 -4.95923 0
M  V30 19741 H 1780.18 -3.64404 -4.76791 0
M  V30 19742 H 1781.25 -3.4939 -3.36236 0
M  V30 19743 N 1782.59 1.19452 -1.02805 0
M  V30 19744 C 1784 1.41147 -0.744969 0
M  V30 19745 C 1784.2 1.90008 0.670765 0
M  V30 19746 O 1783.26 2.0763 1.43688 0
M  V30 19747 C 1784.57 2.42328 -1.78039 0
M  V30 19748 C 1786.12 2.56076 -1.79984 0
M  V30 19749 C 1786.6 3.6051 -2.82483 0
M  V30 19750 N 1788.09 3.68005 -2.81294 0
M  V30 19751 C 1788.82 4.48502 -3.57258 0
M  V30 19752 N 1788.32 5.32711 -4.42934 0
M  V30 19753 N 1790.11 4.43144 -3.45803 0
M  V30 19754 H 1782.26 0.860569 -1.94185 0
M  V30 19755 H 1784.53 0.44042 -0.839484 0
M  V30 19756 H 1784.23 2.13448 -2.79523 0
M  V30 19757 H 1784.11 3.41491 -1.60199 0
M  V30 19758 H 1786.49 2.84279 -0.791782 0
M  V30 19759 H 1786.57 1.57069 -2.01898 0
M  V30 19760 H 1786.22 3.33049 -3.83459 0
M  V30 19761 H 1786.15 4.59166 -2.57827 0
M  V30 19762 H 1788.64 3.07863 -2.19154 0
M  V30 19763 H 1788.95 5.9125 -4.97637 0
M  V30 19764 H 1787.3 5.32175 -4.47007 0
M  V30 19765 H 1790.49 3.76399 -2.78283 0
M  V30 19766 H 1790.66 5.0564 -4.05256 0
M  V30 19767 N 1784.07 0.805805 1.35442 0
M  V30 19768 C 1785.01 0.203715 2.31706 0
M  V30 19769 C 1786.01 -0.646084 1.56595 0
M  V30 19770 O 1787.21 -0.539336 1.7173 0
M  V30 19771 H 1783.59 0.0471152 0.750523 0
M  V30 19772 H 1785.56 1.03076 2.80032 0
M  V30 19773 C 1784.31 -0.633791 3.41875 0
M  V30 19774 H 1783.63 0.0107715 3.99799 0
M  V30 19775 H 1785.07 -1.02147 4.11512 0
M  V30 19776 C 1783.53 -1.79899 2.84847 0
M  V30 19777 O 1784.06 -2.89643 2.78334 0
M  V30 19778 N 1782.27 -1.61027 2.41906 0
M  V30 19779 H 1781.81 -0.717599 2.47403 0
M  V30 19780 H 1781.77 -2.39147 2.04099 0
M  V30 19781 N 1785.54 -1.47344 0.559239 0
M  V30 19782 C 1786.49 -2.30039 -0.187317 0
M  V30 19783 C 1787.46 -1.39186 -0.906443 0
M  V30 19784 O 1788.65 -1.68147 -0.901739 0
M  V30 19785 C 1785.79 -3.2319 -1.21004 0
M  V30 19786 C 1784.9 -4.29134 -0.496776 0
M  V30 19787 C 1784.03 -5.09435 -1.50497 0
M  V30 19788 C 1783.07 -6.07151 -0.776794 0
M  V30 19789 N 1782.21 -6.80404 -1.73192 0
M  V30 19790 H 1787.05 -2.93357 0.523978 0
M  V30 19791 H 1784.59 -1.44597 0.270225 0
M  V30 19792 H 1786.55 -3.75621 -1.81561 0
M  V30 19793 H 1785.18 -2.61732 -1.88935 0
M  V30 19794 H 1784.23 -3.79744 0.223359 0
M  V30 19795 H 1785.54 -4.98746 0.0735731 0
M  V30 19796 H 1784.69 -5.66026 -2.18402 0
M  V30 19797 H 1783.43 -4.3973 -2.10924 0
M  V30 19798 H 1782.44 -5.49736 -0.0838382 0
M  V30 19799 H 1783.66 -6.78866 -0.178239 0
M  V30 19800 H 1781.61 -6.13427 -2.32472 0
M  V30 19801 H 1781.53 -7.46193 -1.21377 0
M  V30 19802 H 1782.79 -7.41567 -2.40204 0
M  V30 19803 N 1787.02 -0.295795 -1.54799 0
M  V30 19804 C 1788.25 0.317302 -2.04149 0
M  V30 19805 C 1788.66 1.48463 -1.17283 0
M  V30 19806 O 1788 1.82715 -0.189979 0
M  V30 19807 C 1788.07 0.841241 -3.49519 0
M  V30 19808 C 1787.73 -0.200133 -4.56562 0
M  V30 19809 C 1788.73 -1.0268 -5.09659 0
M  V30 19810 C 1786.41 -0.340333 -5.01146 0
M  V30 19811 C 1788.41 -1.97966 -6.05878 0
M  V30 19812 C 1786.09 -1.29664 -5.97185 0
M  V30 19813 C 1787.09 -2.11479 -6.49435 0
M  V30 19814 O 1786.78 -3.0549 -7.43593 0
M  V30 19815 H 1786.51 0.0736679 -0.671974 0
M  V30 19816 H 1789.06 -0.431806 -2.0081 0
M  V30 19817 H 1787.29 1.64078 -3.50165 0
M  V30 19818 H 1788.98 1.36966 -3.82093 0
M  V30 19819 H 1789.75 -0.92933 -4.76013 0
M  V30 19820 H 1785.63 0.286525 -4.60109 0
M  V30 19821 H 1789.17 -2.61865 -6.46585 0
M  V30 19822 H 1785.07 -1.39485 -6.30249 0
M  V30 19823 H 1785.84 -3.00409 -7.61378 0
M  V30 19824 N 1788.5 1.57583 -0.0234236 0
M  V30 19825 C 1789.41 2.13328 0.976138 0
M  V30 19826 C 1790.43 1.08414 1.36097 0
M  V30 19827 O 1791.6 1.40441 1.44354 0
M  V30 19828 C 1788.67 2.64469 2.24181 0
M  V30 19829 C 1787.73 3.84076 1.91793 0
M  V30 19830 C 1786.96 4.32768 3.12326 0
M  V30 19831 O 1787.19 3.80663 4.24797 0
M  V30 19832 O 1786.12 5.24676 2.94956 0
M  V30 19833 H 1789.95 2.99001 0.532166 0
M  V30 19834 H 1787.53 1.48098 0.196838 0
M  V30 19835 H 1789.41 2.97456 2.98492 0
M  V30 19836 H 1788.09 1.81881 2.6777 0
M  V30 19837 H 1786.99 3.56023 1.14883 0
M  V30 19838 H 1788.33 4.67808 1.53024 0
M  V30 19839 N 1789.98 -0.249655 1.5561 0
M  V30 19840 C 1791.21 -0.995707 1.81365 0
M  V30 19841 C 1791.62 -1.79054 0.598767 0
M  V30 19842 O 1790.98 -1.773 -0.432538 0
M  V30 19843 C 1791.03 -1.93577 3.05303 0
M  V30 19844 O 1790.75 -1.17311 4.22102 0
M  V30 19845 C 1792.25 -2.79804 3.43838 0
M  V30 19846 H 1789.47 -0.293118 0.603591 0
M  V30 19847 H 1792.02 -0.273374 2.02665 0
M  V30 19848 H 1790.17 -2.61242 2.86062 0
M  V30 19849 H 1790.59 -1.80875 4.92326 0
M  V30 19850 H 1792.06 -3.4152 4.33668 0
M  V30 19851 H 1792.54 -3.50776 2.64298 0
M  V30 19852 H 1793.14 -2.17596 3.6542 0
M  V30 19853 N 1791.46 -1.48941 -0.515198 0
M  V30 19854 C 1792.37 -1.67271 -1.64492 0
M  V30 19855 C 1793.38 -0.555222 -1.64904 0
M  V30 19856 O 1794.56 -0.828161 -1.83585 0
M  V30 19857 C 1791.62 -1.722 -3.00912 0
M  V30 19858 C 1790.69 -2.95683 -3.11239 0
M  V30 19859 C 1789.92 -3.00368 -4.41152 0
M  V30 19860 O 1790.14 -2.13041 -5.29122 0
M  V30 19861 O 1789.08 -3.92691 -4.56155 0
M  V30 19862 H 1792.9 -2.62947 -1.51962 0
M  V30 19863 H 1790.49 -1.32515 -0.68993 0
M  V30 19864 H 1792.37 -1.77877 -3.82018 0
M  V30 19865 H 1791.04 -0.796995 -3.13735 0
M  V30 19866 H 1789.95 -2.95531 -2.29374 0
M  V30 19867 H 1791.28 -3.87617 -3.03338 0
M  V30 19868 N 1792.94 0.765193 -1.37777 0
M  V30 19869 C 1794.18 1.51928 -1.32668 0
M  V30 19870 C 1794.5 1.95418 0.0844172 0
M  V30 19871 O 1795.7 2.70271 0.258001 0
M  V30 19872 C 1794.16 2.74377 -2.32906 0
M  V30 19873 C 1793.77 2.37959 -3.79578 0
M  V30 19874 C 1795.51 3.52302 -2.3682 0
M  V30 19875 C 1793.42 3.5695 -4.7153 0
M  V30 19876 H 1792.35 0.570412 -0.493098 0
M  V30 19877 H 1795 0.837531 -1.63272 0
M  V30 19878 H 1793.38 3.44474 -1.95329 0
M  V30 19879 H 1794.56 1.75603 -4.26028 0
M  V30 19880 H 1792.87 1.73194 -3.78672 0
M  V30 19881 H 1795.47 4.40754 -3.02721 0
M  V30 19882 H 1795.81 3.92631 -1.38371 0
M  V30 19883 H 1796.34 2.89207 -2.73137 0
M  V30 19884 H 1793.08 3.21697 -5.71132 0
M  V30 19885 H 1792.6 4.18388 -4.2978 0
M  V30 19886 H 1794.28 4.2368 -4.88983 0
M  V30 19887 N 1794.41 1.22455 0.992094 0
M  V30 19888 C 1795.36 0.992597 2.10357 0
M  V30 19889 C 1796.36 -0.0645514 1.69277 0
M  V30 19890 O 1797.56 0.0879577 1.79785 0
M  V30 19891 H 1793.94 0.303808 0.687899 0
M  V30 19892 H 1795.91 1.93574 2.27094 0
M  V30 19893 C 1794.66 0.587852 3.42695 0
M  V30 19894 H 1793.98 1.39298 3.74748 0
M  V30 19895 H 1795.42 0.464975 4.21443 0
M  V30 19896 C 1793.88 -0.702681 3.29491 0
M  V30 19897 O 1794.41 -1.7549 3.61339 0
M  V30 19898 N 1792.61 -0.674141 2.82672 0
M  V30 19899 H 1792.16 0.182446 2.56953 0
M  V30 19900 H 1792.12 -1.53789 2.7422 0
M  V30 19901 N 1795.89 -1.18905 1.03437 0
M  V30 19902 C 1797.14 -1.88055 0.729268 0
M  V30 19903 C 1797.45 -1.80833 -0.745564 0
M  V30 19904 O 1798.66 -2.45285 -1.16393 0
M  V30 19905 C 1797.12 -3.37341 1.25415 0
M  V30 19906 C 1796.72 -3.53107 2.75716 0
M  V30 19907 C 1798.47 -4.11932 1.02529 0
M  V30 19908 C 1796.37 -4.96317 3.21595 0
M  V30 19909 H 1795.3 -0.704345 0.269098 0
M  V30 19910 H 1797.96 -1.34397 1.24938 0
M  V30 19911 H 1796.34 -3.90429 0.661925 0
M  V30 19912 H 1797.51 -3.10322 3.40642 0
M  V30 19913 H 1795.83 -2.91913 2.96944 0
M  V30 19914 H 1798.42 -5.17552 1.34328 0
M  V30 19915 H 1798.77 -4.16283 -0.0377114 0
M  V30 19916 H 1799.3 -3.64998 1.5818 0
M  V30 19917 H 1796.04 -4.97131 4.27248 0
M  V30 19918 H 1795.56 -5.39842 2.61401 0
M  V30 19919 H 1797.24 -5.65 3.15253 0
M  V30 19920 N 1797.37 -0.812977 -1.35013 0
M  V30 19921 C 1798.6 -0.409014 -2.02817 0
M  V30 19922 C 1799.01 0.982004 -1.61252 0
M  V30 19923 O 1798.37 1.63384 -0.813137 0
M  V30 19924 C 1798.42 -0.490117 -3.58162 0
M  V30 19925 O 1798.14 -1.8263 -3.98218 0
M  V30 19926 C 1799.64 -0.0797786 -4.43228 0
M  V30 19927 H 1796.86 -0.165356 -0.650306 0
M  V30 19928 H 1799.41 -1.09837 -1.72499 0
M  V30 19929 H 1797.56 0.151057 -3.87105 0
M  V30 19930 H 1797.98 -1.79356 -4.92881 0
M  V30 19931 H 1799.45 -0.18763 -5.51681 0
M  V30 19932 H 1799.93 0.975612 -4.28227 0
M  V30 19933 H 1800.53 -0.694359 -4.19594 0
M  V30 19934 N 1798.85 1.47045 -0.567045 0
M  V30 19935 C 1799.79 2.30135 0.175115 0
M  V30 19936 C 1800.76 1.39665 0.899049 0
M  V30 19937 O 1801.95 1.68623 0.892809 0
M  V30 19938 C 1799.09 3.23827 1.19289 0
M  V30 19939 C 1798.2 4.29392 0.474011 0
M  V30 19940 C 1797.34 5.10226 1.47793 0
M  V30 19941 C 1796.38 6.07554 0.744584 0
M  V30 19942 N 1795.51 6.81313 1.69581 0
M  V30 19943 H 1800.35 2.93075 -0.539529 0
M  V30 19944 H 1797.89 1.44451 -0.277889 0
M  V30 19945 H 1799.85 3.76579 1.79567 0
M  V30 19946 H 1798.48 2.6273 1.87544 0
M  V30 19947 H 1797.53 3.7962 -0.243494 0
M  V30 19948 H 1798.84 4.987 -0.100022 0
M  V30 19949 H 1798 5.67176 2.15397 0
M  V30 19950 H 1796.74 4.40842 2.08589 0
M  V30 19951 H 1795.74 5.49773 0.0546832 0
M  V30 19952 H 1796.97 6.78951 0.142235 0
M  V30 19953 H 1794.91 6.14651 2.29216 0
M  V30 19954 H 1794.83 7.46826 1.17418 0
M  V30 19955 H 1796.1 7.42831 2.36268 0
M  V30 19956 N 1800.33 0.304 1.5464 0
M  V30 19957 C 1801.55 -0.306916 2.04611 0
M  V30 19958 C 1801.97 -1.4729 1.18114 0
M  V30 19959 O 1801.33 -1.81317 0.20743 0
M  V30 19960 C 1801.38 -0.760263 3.53415 0
M  V30 19961 O 1801.1 0.359321 4.36624 0
M  V30 19962 C 1802.6 -1.43602 4.19396 0
M  V30 19963 H 1799.82 -0.066247 0.667722 0
M  V30 19964 H 1802.36 0.444504 1.99611 0
M  V30 19965 H 1800.52 -1.4617 3.58766 0
M  V30 19966 H 1800.93 0.00582275 5.245 0
M  V30 19967 H 1802.41 -1.70436 5.25029 0
M  V30 19968 H 1802.88 -2.37705 3.69314 0
M  V30 19969 H 1803.49 -0.777683 4.18129 0
M  V30 19970 N 1801.8 -1.57568 0.0317802 0
M  V30 19971 C 1803.03 -1.96212 -0.656401 0
M  V30 19972 C 1803.45 -0.908406 -1.6551 0
M  V30 19973 O 1802.8 0.109502 -1.82171 0
M  V30 19974 C 1802.85 -3.34924 -1.36044 0
M  V30 19975 O 1802.58 -4.36254 -0.401757 0
M  V30 19976 C 1804.08 -3.88215 -2.14019 0
M  V30 19977 H 1801.3 -0.646181 -0.180808 0
M  V30 19978 H 1803.84 -2.04291 0.0923341 0
M  V30 19979 H 1802 -3.28055 -2.06055 0
M  V30 19980 H 1802.41 -5.16686 -0.902005 0
M  V30 19981 H 1803.88 -4.87609 -2.5873 0
M  V30 19982 H 1804.36 -3.22602 -2.98034 0
M  V30 19983 H 1804.97 -3.98361 -1.4896 0
M  V30 19984 N 1803.28 0.241399 -1.5574 0
M  V30 19985 C 1804.53 0.966607 -1.7703 0
M  V30 19986 C 1804.84 1.86275 -0.59673 0
M  V30 19987 O 1806.05 2.62513 -0.692775 0
M  V30 19988 C 1804.51 1.7688 -3.13435 0
M  V30 19989 C 1804.11 0.919775 -4.38457 0
M  V30 19990 C 1805.86 2.48641 -3.44061 0
M  V30 19991 C 1803.77 1.71817 -5.65891 0
M  V30 19992 H 1802.7 0.364644 -0.659963 0
M  V30 19993 H 1805.35 0.221088 -1.82163 0
M  V30 19994 H 1803.73 2.55648 -3.02424 0
M  V30 19995 H 1804.9 0.174036 -4.60471 0
M  V30 19996 H 1803.22 0.315234 -4.15205 0
M  V30 19997 H 1805.81 3.08839 -4.36489 0
M  V30 19998 H 1806.16 3.20534 -2.65638 0
M  V30 19999 H 1806.69 1.7688 -3.56312 0
M  V30 20000 H 1803.43 1.04289 -6.47151 0
M  V30 20001 H 1802.95 2.43905 -5.47969 0
M  V30 20002 H 1804.63 2.28392 -6.05348 0
M  V30 20003 N 1804.76 1.49212 0.507292 0
M  V30 20004 C 1805.71 1.65417 1.60953 0
M  V30 20005 C 1806.68 0.495737 1.5853 0
M  V30 20006 O 1807.86 0.722002 1.76612 0
M  V30 20007 C 1805 1.72095 2.99128 0
M  V30 20008 C 1804.12 2.99199 3.11615 0
M  V30 20009 C 1803.25 2.96895 4.40485 0
M  V30 20010 C 1802.29 4.18607 4.46581 0
M  V30 20011 N 1801.43 4.14248 5.66871 0
M  V30 20012 H 1806.27 2.59535 1.46444 0
M  V30 20013 H 1803.8 1.28687 0.712609 0
M  V30 20014 H 1805.76 1.73947 3.79207 0
M  V30 20015 H 1804.39 0.814484 3.12356 0
M  V30 20016 H 1803.44 3.06988 2.24639 0
M  V30 20017 H 1804.76 3.89192 3.11979 0
M  V30 20018 H 1803.91 2.97275 5.28878 0
M  V30 20019 H 1802.65 2.0467 4.42675 0
M  V30 20020 H 1801.65 4.18477 3.56591 0
M  V30 20021 H 1802.88 5.12017 4.46112 0
M  V30 20022 H 1800.82 3.24857 5.69916 0
M  V30 20023 H 1800.74 4.97969 5.68826 0
M  V30 20024 H 1802.01 4.18722 6.57489 0
M  V30 20025 N 1806.24 -0.757876 1.38181 0
M  V30 20026 C 1807.15 -1.90234 1.37289 0
M  V30 20027 C 1808.16 -1.71883 0.270567 0
M  V30 20028 O 1809.34 -1.94881 0.508279 0
M  V30 20029 C 1806.41 -3.25546 1.19251 0
M  V30 20030 C 1805.47 -3.56452 2.39249 0
M  V30 20031 C 1804.7 -4.85308 2.22063 0
M  V30 20032 O 1804.92 -5.57373 1.2121 0
M  V30 20033 O 1803.86 -5.15594 3.10558 0
M  V30 20034 H 1807.68 -1.9394 2.33711 0
M  V30 20035 H 1805.27 -0.902559 1.19056 0
M  V30 20036 H 1807.15 -4.06454 1.11235 0
M  V30 20037 H 1805.82 -3.22661 0.259109 0
M  V30 20038 H 1804.73 -2.75723 2.52839 0
M  V30 20039 H 1806.06 -3.64094 3.31205 0
M  V30 20040 N 1807.72 -1.22979 -0.985586 0
M  V30 20041 C 1808.97 -1.05286 -1.7204 0
M  V30 20042 C 1809.28 0.411213 -1.91229 0
M  V30 20043 O 1810.48 0.70797 -2.62107 0
M  V30 20044 C 1808.94 -1.8355 -3.09576 0
M  V30 20045 C 1808.55 -3.34254 -2.98293 0
M  V30 20046 C 1810.29 -1.74329 -3.87052 0
M  V30 20047 C 1808.2 -4.0493 -4.31029 0
M  V30 20048 H 1807.13 -0.390364 -0.645083 0
M  V30 20049 H 1809.78 -1.46898 -1.09969 0
M  V30 20050 H 1808.16 -1.34741 -3.72372 0
M  V30 20051 H 1809.34 -3.90511 -2.44618 0
M  V30 20052 H 1807.65 -3.44231 -2.34294 0
M  V30 20053 H 1810.25 -2.24449 -4.85311 0
M  V30 20054 H 1810.59 -0.705078 -4.10286 0
M  V30 20055 H 1811.12 -2.20721 -3.30949 0
M  V30 20056 H 1807.86 -5.09035 -4.12993 0
M  V30 20057 H 1807.38 -3.5346 -4.84588 0
M  V30 20058 H 1809.06 -4.10935 -4.99742 0
M  V30 20059 N 1809.19 1.18355 -1.04066 0
M  V30 20060 C 1810.42 1.92816 -0.763979 0
M  V30 20061 C 1810.84 1.75658 0.672749 0
M  V30 20062 O 1810.2 1.06671 1.46598 0
M  V30 20063 C 1810.25 3.42267 -1.13516 0
M  V30 20064 O 1809.35 4.11576 -0.260646 0
M  V30 20065 H 1808.7 0.601532 -0.281167 0
M  V30 20066 H 1811.23 1.50087 -1.3905 0
M  V30 20067 H 1811.24 3.92973 -1.09709 0
M  V30 20068 H 1809.91 3.54076 -2.18181 0
M  V30 20069 H 1808.49 3.71174 -0.358342 0
M  V30 20070 N 1810.67 0.820125 1.3458 0
M  V30 20071 C 1811.61 0.185324 2.27446 0
M  V30 20072 C 1812.58 -0.656627 1.48752 0
M  V30 20073 O 1813.77 -0.620975 1.77978 0
M  V30 20074 C 1810.89 -0.741455 3.30485 0
M  V30 20075 C 1809.94 0.0226077 4.26494 0
M  V30 20076 S 1810.77 1.36787 5.17735 0
M  V30 20077 C 1811.93 0.445893 6.2431 0
M  V30 20078 H 1812.16 0.972658 2.80939 0
M  V30 20079 H 1809.7 0.615879 1.41585 0
M  V30 20080 H 1811.65 -1.27062 3.9034 0
M  V30 20081 H 1810.31 -1.50229 2.75844 0
M  V30 20082 H 1809.51 -0.681827 4.99367 0
M  V30 20083 H 1809.11 0.482239 3.70878 0
M  V30 20084 H 1811.4 -0.363637 6.76523 0
M  V30 20085 H 1812.34 1.14421 6.98794 0
M  V30 20086 H 1812.75 0.0355676 5.64489 0
M  V30 20087 N 1812.15 -1.46743 0.574835 0
M  V30 20088 C 1813.08 -2.2832 -0.20062 0
M  V30 20089 C 1814.1 -1.3805 -0.862898 0
M  V30 20090 O 1815.28 -1.6272 -0.733785 0
M  V30 20091 C 1812.38 -3.1285 -1.303 0
M  V30 20092 C 1811.56 -4.31195 -0.734153 0
M  V30 20093 C 1810.62 -4.97183 -1.72324 0
M  V30 20094 O 1809.64 -5.55025 -1.26239 0
M  V30 20095 N 1810.84 -4.93476 -3.05714 0
M  V30 20096 H 1813.61 -2.95513 0.499231 0
M  V30 20097 H 1811.17 -1.56568 0.412077 0
M  V30 20098 H 1813.16 -3.53861 -1.96378 0
M  V30 20099 H 1811.73 -2.47784 -1.90583 0
M  V30 20100 H 1810.95 -3.94063 0.103888 0
M  V30 20101 H 1812.24 -5.07704 -0.333751 0
M  V30 20102 H 1811.64 -4.47715 -3.45786 0
M  V30 20103 H 1810.2 -5.38453 -3.67304 0
M  V30 20104 N 1813.63 -0.312197 -1.54477 0
M  V30 20105 C 1814.58 0.558894 -2.23931 0
M  V30 20106 C 1815.55 1.12071 -1.22594 0
M  V30 20107 O 1816.73 1.16316 -1.51245 0
M  V30 20108 C 1813.87 1.71948 -2.99212 0
M  V30 20109 C 1812.98 1.18799 -4.15344 0
M  V30 20110 C 1812.12 2.31334 -4.78182 0
M  V30 20111 C 1811.16 1.75375 -5.86438 0
M  V30 20112 N 1810.29 2.81528 -6.43184 0
M  V30 20113 H 1815.13 -0.0399708 -2.97973 0
M  V30 20114 H 1812.67 -0.0314967 -1.47066 0
M  V30 20115 H 1814.63 2.40225 -3.41098 0
M  V30 20116 H 1813.26 2.28981 -2.27525 0
M  V30 20117 H 1812.31 0.397122 -3.78321 0
M  V30 20118 H 1813.62 0.738426 -4.93304 0
M  V30 20119 H 1812.78 3.07537 -5.22978 0
M  V30 20120 H 1811.52 2.79622 -3.99578 0
M  V30 20121 H 1810.52 0.976658 -5.41056 0
M  V30 20122 H 1811.75 1.27978 -6.66932 0
M  V30 20123 H 1809.69 3.29129 -5.6746 0
M  V30 20124 H 1809.61 2.41101 -7.16524 0
M  V30 20125 H 1810.88 3.57595 -6.92637 0
M  V30 20126 N 1815.11 1.57549 -0.040136 0
M  V30 20127 C 1816.02 2.14351 0.953457 0
M  V30 20128 C 1817.03 1.09851 1.3494 0
M  V30 20129 O 1818.21 1.41965 1.42857 0
M  V30 20130 C 1815.27 2.66832 2.21363 0
M  V30 20131 C 1814.33 3.86088 1.87708 0
M  V30 20132 C 1813.57 4.36057 3.07718 0
M  V30 20133 O 1813.79 3.85147 4.20735 0
M  V30 20134 O 1812.72 5.27775 2.89374 0
M  V30 20135 H 1816.55 2.99549 0.500423 0
M  V30 20136 H 1814.14 1.48298 0.18112 0
M  V30 20137 H 1816.02 3.00605 2.95321 0
M  V30 20138 H 1814.69 1.84711 2.65826 0
M  V30 20139 H 1813.6 3.57222 1.11101 0
M  V30 20140 H 1814.93 4.69405 1.48053 0
M  V30 20141 N 1816.58 -0.233136 1.55866 0
M  V30 20142 C 1817.86 -0.982866 1.69113 0
M  V30 20143 C 1818.24 -2.0286 0.584041 0
M  V30 20144 O 1817.59 -2.24781 -0.410606 0
M  V30 20145 C 1817.8 -1.60378 3.09967 0
M  V30 20146 C 1819.15 -2.10044 3.69008 0
M  V30 20147 O 1820.17 -1.70294 3.12855 0
M  V30 20148 O 1819.03 -2.8307 4.67476 0
M  V30 20149 H 1816.12 -0.458373 0.688348 0
M  V30 20150 H 1818.67 -0.225833 1.68191 0
M  V30 20151 H 1817.44 -0.848104 3.81999 0
M  V30 20152 H 1817.07 -2.42666 3.14959 0
M  V30 20153 N 1818.06 -1.49479 -0.499372 0
M  V30 20154 C 1819.34 -1.4955 -1.26071 0
M  V30 20155 C 1819.72 -0.224142 -2.09907 0
M  V30 20156 O 1819.07 0.793432 -2.14282 0
M  V30 20157 C 1819.28 -2.77534 -2.11604 0
M  V30 20158 C 1820.63 -3.27088 -2.70738 0
M  V30 20159 O 1821.65 -2.78662 -2.2187 0
M  V30 20160 O 1820.51 -4.11432 -3.59703 0
M  V30 20161 H 1817.6 -0.598631 -0.570587 0
M  V30 20162 H 1820.15 -1.61744 -0.513509 0
M  V30 20163 H 1818.92 -3.61556 -1.49642 0
M  V30 20164 H 1818.54 -2.68208 -2.93514 0
M  V30 20165 N 1819.54 0.750537 -1.38581 0
M  V30 20166 C 1820.77 1.54489 -1.38376 0
M  V30 20167 C 1821.19 1.88085 0.023634 0
M  V30 20168 O 1820.55 1.50794 1.00652 0
M  V30 20169 C 1820.6 2.81875 -2.24897 0
M  V30 20170 O 1819.7 3.77155 -1.66817 0
M  V30 20171 H 1819.04 0.467148 -0.471878 0
M  V30 20172 H 1821.57 0.927264 -1.82381 0
M  V30 20173 H 1821.58 3.30769 -2.38864 0
M  V30 20174 H 1820.26 2.56753 -3.27186 0
M  V30 20175 H 1818.83 3.35868 -1.62009 0
M  V30 20176 N 1821.02 1.235 0.979051 0
M  V30 20177 C 1821.97 1.01737 2.07167 0
M  V30 20178 C 1822.94 -0.0656067 1.6597 0
M  V30 20179 O 1824.12 0.0867676 1.90603 0
M  V30 20180 C 1821.26 0.616104 3.39556 0
M  V30 20181 C 1820.37 1.77135 3.94014 0
M  V30 20182 C 1819.51 1.31674 5.14622 0
M  V30 20183 C 1818.55 2.44265 5.6125 0
M  V30 20184 N 1817.69 1.99752 6.73085 0
M  V30 20185 H 1822.53 1.9526 2.25117 0
M  V30 20186 H 1820.06 0.972707 1.10349 0
M  V30 20187 H 1822.02 0.364549 4.15604 0
M  V30 20188 H 1820.65 -0.282117 3.21565 0
M  V30 20189 H 1819.7 2.13687 3.14709 0
M  V30 20190 H 1821.01 2.61775 4.24588 0
M  V30 20191 H 1820.17 1.02339 5.98006 0
M  V30 20192 H 1818.91 0.440724 4.85705 0
M  V30 20193 H 1817.91 2.74373 4.76445 0
M  V30 20194 H 1819.14 3.32405 5.92186 0
M  V30 20195 H 1817.08 1.14532 6.45924 0
M  V30 20196 H 1817 2.77951 7.0305 0
M  V30 20197 H 1818.27 1.73525 7.5994 0
M  V30 20198 N 1822.5 -1.17802 1.04693 0
M  V30 20199 C 1823.45 -2.23698 0.637319 0
M  V30 20200 C 1824.44 -1.65974 -0.338957 0
M  V30 20201 O 1825.65 -1.78822 -0.205565 0
M  V30 20202 H 1822.02 -0.728146 0.187903 0
M  V30 20203 H 1823.99 -2.55549 1.5407 0
M  V30 20204 C 1822.74 -3.47693 0.0227662 0
M  V30 20205 H 1822.06 -3.92412 0.765058 0
M  V30 20206 H 1823.5 -4.23394 -0.22653 0
M  V30 20207 C 1821.96 -3.13679 -1.22912 0
M  V30 20208 O 1822.49 -3.27993 -2.31913 0
M  V30 20209 N 1820.7 -2.67948 -1.12483 0
M  V30 20210 H 1820.25 -2.565 -0.237818 0
M  V30 20211 H 1820.2 -2.45562 -1.96333 0
M  V30 20212 N 1823.98 -0.827251 -1.34143 0
M  V30 20213 C 1824.91 -0.267015 -2.31968 0
M  V30 20214 C 1825.89 0.618906 -1.58441 0
M  V30 20215 O 1827.07 0.544882 -1.86399 0
M  V30 20216 C 1824.2 0.568379 -3.42617 0
M  V30 20217 C 1823.16 -0.220767 -4.2743 0
M  V30 20218 C 1822.48 0.737643 -5.29587 0
M  V30 20219 C 1823.78 -1.43137 -5.02304 0
M  V30 20220 H 1825.48 -1.08436 -2.79073 0
M  V30 20221 H 1823.02 -0.522879 -1.34171 0
M  V30 20222 H 1824.97 0.970525 -4.10072 0
M  V30 20223 H 1823.7 1.41882 -2.94172 0
M  V30 20224 H 1822.36 -0.604333 -3.61585 0
M  V30 20225 H 1822.01 1.58416 -4.77403 0
M  V30 20226 H 1821.71 0.213815 -5.87211 0
M  V30 20227 H 1823.23 1.13755 -5.9991 0
M  V30 20228 H 1824.64 -1.10301 -5.62589 0
M  V30 20229 H 1823.04 -1.89115 -5.69522 0
M  V30 20230 H 1824.11 -2.2073 -4.31748 0
M  V30 20231 N 1825.45 1.46436 -0.582609 0
M  V30 20232 C 1826.87 1.5772 -0.244278 0
M  V30 20233 C 1827.07 1.57772 1.2534 0
M  V30 20234 O 1826.13 1.49463 2.03512 0
M  V30 20235 C 1827.44 2.87122 -0.893398 0
M  V30 20236 C 1828.99 3.00753 -0.866979 0
M  V30 20237 C 1829.46 4.32891 -1.49564 0
M  V30 20238 N 1830.95 4.3959 -1.45998 0
M  V30 20239 C 1831.69 5.40449 -1.91578 0
M  V30 20240 N 1831.18 6.47983 -2.45132 0
M  V30 20241 N 1832.98 5.3165 -1.82496 0
M  V30 20242 H 1825.13 1.44646 -1.55536 0
M  V30 20243 H 1827.39 0.689972 -0.650109 0
M  V30 20244 H 1827.1 2.92894 -1.94695 0
M  V30 20245 H 1826.97 3.75056 -0.40156 0
M  V30 20246 H 1829.36 2.94563 0.177954 0
M  V30 20247 H 1829.44 2.14295 -1.39684 0
M  V30 20248 H 1829.08 4.39839 -2.53977 0
M  V30 20249 H 1829.01 5.18124 -0.94101 0
M  V30 20250 H 1831.5 3.62479 -1.06851 0
M  V30 20251 H 1831.82 7.21154 -2.7777 0
M  V30 20252 H 1830.16 6.48803 -2.49157 0
M  V30 20253 H 1833.35 4.46543 -1.40416 0
M  V30 20254 H 1833.53 6.1011 -2.18334 0
M  V30 20255 N 1826.93 0.320385 1.54309 0
M  V30 20256 C 1827.88 -0.562569 2.25694 0
M  V30 20257 C 1828.87 -1.12117 1.26988 0
M  V30 20258 O 1830.08 -1.06958 1.44776 0
M  V30 20259 H 1826.45 -0.200063 0.724899 0
M  V30 20260 H 1828.43 0.0618142 2.98336 0
M  V30 20261 C 1827.17 -1.7134 3.02552 0
M  V30 20262 H 1826.5 -1.29281 3.7832 0
M  V30 20263 H 1827.94 -2.30687 3.55752 0
M  V30 20264 C 1826.4 -2.62912 2.10663 0
M  V30 20265 O 1826.93 -3.64541 1.68739 0
M  V30 20266 N 1825.13 -2.31076 1.76217 0
M  V30 20267 H 1824.68 -1.48474 2.10507 0
M  V30 20268 H 1824.64 -2.92608 1.15014 0
M  V30 20269 N 1828.41 -1.57525 0.0484906 0
M  V30 20270 C 1829.34 -2.08313 -0.955941 0
M  V30 20271 C 1830.35 -1.01042 -1.2765 0
M  V30 20272 O 1831.54 -1.28615 -1.23776 0
M  V30 20273 C 1828.64 -2.509 -2.27821 0
M  V30 20274 C 1827.82 -3.81476 -2.13997 0
M  V30 20275 C 1826.88 -4.10404 -3.29325 0
M  V30 20276 O 1825.9 -4.80366 -3.05348 0
M  V30 20277 N 1827.1 -3.62104 -4.53719 0
M  V30 20278 H 1829.87 -2.95111 -0.522472 0
M  V30 20279 H 1827.43 -1.61312 -0.137816 0
M  V30 20280 H 1829.42 -2.6733 -3.03837 0
M  V30 20281 H 1827.99 -1.69365 -2.62744 0
M  V30 20282 H 1827.21 -3.74654 -1.22589 0
M  V30 20283 H 1828.5 -4.6699 -2.01985 0
M  V30 20284 H 1827.9 -3.05541 -4.7609 0
M  V30 20285 H 1826.45 -3.83778 -5.26838 0
M  V30 20286 N 1829.89 0.224867 -1.55988 0
M  V30 20287 C 1830.82 1.28192 -1.95164 0
M  V30 20288 C 1831.8 1.49062 -0.81942 0
M  V30 20289 O 1832.98 1.61301 -1.08146 0
M  V30 20290 C 1830.11 2.63237 -2.26547 0
M  V30 20291 C 1829.07 2.57029 -3.42228 0
M  V30 20292 C 1828.39 3.96073 -3.59207 0
M  V30 20293 C 1829.69 2.12101 -4.77295 0
M  V30 20294 H 1831.39 0.956495 -2.8371 0
M  V30 20295 H 1828.93 0.458673 -1.365 0
M  V30 20296 H 1830.89 3.37341 -2.52545 0
M  V30 20297 H 1829.61 2.97461 -1.3485 0
M  V30 20298 H 1828.27 1.85382 -3.16273 0
M  V30 20299 H 1827.92 4.27599 -2.64892 0
M  V30 20300 H 1827.62 3.92802 -4.37013 0
M  V30 20301 H 1829.14 4.71844 -3.8755 0
M  V30 20302 H 1830.56 2.75946 -5.0252 0
M  V30 20303 H 1828.95 2.19895 -5.5836 0
M  V30 20304 H 1830.02 1.07319 -4.72875 0
M  V30 20305 N 1831.37 1.49742 0.491438 0
M  V30 20306 C 1832.64 1.50217 1.25277 0
M  V30 20307 C 1833.02 0.235271 2.09785 0
M  V30 20308 O 1832.37 -0.782057 2.147 0
M  V30 20309 C 1832.58 2.78652 2.10129 0
M  V30 20310 C 1833.93 3.28519 2.68999 0
M  V30 20311 O 1834.95 2.79834 2.20389 0
M  V30 20312 O 1833.81 4.13333 3.57516 0
M  V30 20313 H 1830.91 0.601649 0.567405 0
M  V30 20314 H 1833.45 1.62014 0.504924 0
M  V30 20315 H 1832.22 3.62345 1.47723 0
M  V30 20316 H 1831.85 2.69761 2.92087 0
M  V30 20317 N 1832.84 -0.743177 1.38977 0
M  V30 20318 C 1834.26 -1.04764 1.20402 0
M  V30 20319 C 1834.46 -2.01411 0.0599139 0
M  V30 20320 O 1833.52 -2.45485 -0.591026 0
M  V30 20321 C 1834.83 -1.61775 2.53474 0
M  V30 20322 C 1836.38 -1.73896 2.60248 0
M  V30 20323 C 1836.85 -2.34318 3.93522 0
M  V30 20324 N 1838.34 -2.41737 3.95117 0
M  V30 20325 C 1839.08 -2.89407 4.95006 0
M  V30 20326 N 1838.57 -3.37034 6.05293 0
M  V30 20327 N 1840.37 -2.88542 4.8239 0
M  V30 20328 H 1832.52 -0.102036 2.12155 0
M  V30 20329 H 1834.78 -0.107893 0.94184 0
M  V30 20330 H 1834.49 -0.982274 3.37704 0
M  V30 20331 H 1834.36 -2.60696 2.72612 0
M  V30 20332 H 1836.75 -2.36568 1.76407 0
M  V30 20333 H 1836.83 -0.736509 2.44968 0
M  V30 20334 H 1836.47 -1.72276 4.7779 0
M  V30 20335 H 1836.4 -3.35224 4.06119 0
M  V30 20336 H 1838.89 -2.08064 3.15464 0
M  V30 20337 H 1839.21 -3.71895 6.77432 0
M  V30 20338 H 1837.55 -3.35064 6.08898 0
M  V30 20339 H 1840.74 -2.50651 3.95337 0
M  V30 20340 H 1840.92 -3.25379 5.60386 0
M  V30 20341 N 1834.32 -1.24018 -0.972487 0
M  V30 20342 C 1835.25 -1.0529 -2.08414 0
M  V30 20343 C 1836.23 0.0326663 -1.70069 0
M  V30 20344 O 1837.42 -0.133494 -1.93741 0
M  V30 20345 C 1834.55 -0.651796 -3.41129 0
M  V30 20346 C 1833.5 -1.68559 -3.9341 0
M  V30 20347 C 1832.83 -1.1397 -5.22413 0
M  V30 20348 C 1834.13 -3.08046 -4.21788 0
M  V30 20349 H 1835.82 -1.98272 -2.2434 0
M  V30 20350 H 1833.37 -0.954694 -1.07804 0
M  V30 20351 H 1835.32 -0.507792 -4.18329 0
M  V30 20352 H 1834.05 0.313722 -3.2509 0
M  V30 20353 H 1832.7 -1.81773 -3.18362 0
M  V30 20354 H 1832.35 -0.164928 -5.0273 0
M  V30 20355 H 1832.05 -1.83051 -5.5836 0
M  V30 20356 H 1833.58 -1.00771 -6.02227 0
M  V30 20357 H 1834.99 -2.98088 -4.8971 0
M  V30 20358 H 1833.39 -3.74436 -4.68954 0
M  V30 20359 H 1834.46 -3.56444 -3.28749 0
M  V30 20360 N 1835.8 1.17245 -1.05316 0
M  V30 20361 C 1837.03 1.91995 -0.784387 0
M  V30 20362 C 1837.45 1.76362 0.65408 0
M  V30 20363 O 1836.81 1.0822 1.45458 0
M  V30 20364 C 1836.86 3.41043 -1.1714 0
M  V30 20365 O 1835.96 4.11276 -0.304285 0
M  V30 20366 H 1835.3 0.598516 -0.287532 0
M  V30 20367 H 1837.83 1.48604 -1.40634 0
M  V30 20368 H 1837.84 3.91788 -1.13871 0
M  V30 20369 H 1836.52 3.51742 -2.21924 0
M  V30 20370 H 1835.09 3.70773 -0.39769 0
M  V30 20371 N 1837.28 0.834353 1.33702 0
M  V30 20372 C 1838.69 0.52156 1.50837 0
M  V30 20373 C 1838.89 -0.95203 1.77591 0
M  V30 20374 O 1837.95 -1.73603 1.83353 0
M  V30 20375 C 1839.26 1.39099 2.66593 0
M  V30 20376 C 1840.81 1.3893 2.80477 0
M  V30 20377 C 1841.29 2.24347 3.9929 0
M  V30 20378 N 1842.78 2.22032 4.06517 0
M  V30 20379 C 1843.51 2.84865 4.97634 0
M  V30 20380 N 1843.01 3.56732 5.93897 0
M  V30 20381 N 1844.8 2.74359 4.90595 0
M  V30 20382 H 1836.95 1.78832 1.14598 0
M  V30 20383 H 1839.22 0.762708 0.563011 0
M  V30 20384 H 1838.92 2.43795 2.53489 0
M  V30 20385 H 1838.8 1.06381 3.61888 0
M  V30 20386 H 1841.18 0.350069 2.93016 0
M  V30 20387 H 1841.26 1.75652 1.85957 0
M  V30 20388 H 1840.91 3.28326 3.8751 0
M  V30 20389 H 1840.84 1.84969 4.93046 0
M  V30 20390 H 1843.33 1.69765 3.37621 0
M  V30 20391 H 1843.64 4.01893 6.60077 0
M  V30 20392 H 1841.99 3.6084 5.93986 0
M  V30 20393 H 1845.18 2.17779 4.14355 0
M  V30 20394 H 1845.35 3.23612 5.61408 0
M  V30 20395 N 1838.76 -1.46125 0.590367 0
M  V30 20396 C 1839.67 -2.34177 -0.140761 0
M  V30 20397 C 1840.68 -1.50213 -0.878181 0
M  V30 20398 O 1841.86 -1.83063 -0.839644 0
M  V30 20399 C 1838.92 -3.27537 -1.13669 0
M  V30 20400 C 1837.98 -4.27403 -0.403103 0
M  V30 20401 C 1837.22 -5.16302 -1.35159 0
M  V30 20402 O 1837.44 -5.08283 -2.58853 0
M  V30 20403 O 1836.37 -5.95753 -0.858003 0
M  V30 20404 H 1840.2 -2.98063 0.582401 0
M  V30 20405 H 1837.79 -1.45225 0.35072 0
M  V30 20406 H 1839.67 -3.85112 -1.71074 0
M  V30 20407 H 1838.34 -2.66237 -1.84118 0
M  V30 20408 H 1837.25 -3.73493 0.212986 0
M  V30 20409 H 1838.58 -4.9151 0.260565 0
M  V30 20410 N 1840.23 -0.328564 -1.54137 0
M  V30 20411 C 1841.18 0.550592 -2.25989 0
M  V30 20412 C 1842.18 1.11442 -1.27581 0
M  V30 20413 O 1843.38 1.06189 -1.45341 0
M  V30 20414 H 1839.76 0.196215 -0.72595 0
M  V30 20415 H 1841.73 -0.0776348 -2.98299 0
M  V30 20416 C 1840.48 1.69733 -3.03457 0
M  V30 20417 H 1839.8 1.27273 -3.79001 0
M  V30 20418 H 1841.24 2.28797 -3.56971 0
M  V30 20419 C 1839.7 2.61791 -2.12054 0
M  V30 20420 O 1840.23 3.63641 -1.7067 0
M  V30 20421 N 1838.44 2.30138 -1.7744 0
M  V30 20422 H 1837.98 1.47355 -2.11292 0
M  V30 20423 H 1837.94 2.91994 -1.16564 0
M  V30 20424 N 1841.71 1.57497 -0.0568439 0
M  V30 20425 C 1843.13 1.5676 0.299732 0
M  V30 20426 C 1843.33 1.065 1.71056 0
M  V30 20427 O 1842.38 0.72414 2.41893 0
M  V30 20428 C 1843.7 3.00448 0.123023 0
M  V30 20429 C 1845.25 3.124 0.193697 0
M  V30 20430 C 1845.72 4.57977 0.0454499 0
M  V30 20431 N 1847.21 4.63089 0.101543 0
M  V30 20432 C 1847.95 5.73399 0.0110306 0
M  V30 20433 N 1847.44 6.92674 -0.132152 0
M  V30 20434 N 1849.24 5.6206 0.0670216 0
M  V30 20435 H 1841.39 1.88488 -0.979078 0
M  V30 20436 H 1843.65 0.868264 -0.380554 0
M  V30 20437 H 1843.36 3.41276 -0.849919 0
M  V30 20438 H 1843.23 3.66751 0.881672 0
M  V30 20439 H 1845.62 2.71468 1.15712 0
M  V30 20440 H 1845.7 2.48765 -0.595802 0
M  V30 20441 H 1845.34 4.99596 -0.914669 0
M  V30 20442 H 1845.27 5.19626 0.854166 0
M  V30 20443 H 1847.76 3.77309 0.211226 0
M  V30 20444 H 1848.08 7.72557 -0.193769 0
M  V30 20445 H 1846.42 6.94799 -0.167314 0
M  V30 20446 H 1849.61 4.67763 0.177478 0
M  V30 20447 H 1849.78 6.48 -0.00697432 0
M  V30 20448 N 1843.19 -0.216591 1.56105 0
M  V30 20449 C 1844.47 -0.964874 1.70146 0
M  V30 20450 C 1844.85 -2.02229 0.605524 0
M  V30 20451 O 1844.2 -2.25203 -0.386742 0
M  V30 20452 C 1844.41 -1.57082 3.11651 0
M  V30 20453 C 1845.75 -2.06118 3.71215 0
M  V30 20454 O 1846.78 -1.66966 3.14644 0
M  V30 20455 O 1845.64 -2.78095 4.70452 0
M  V30 20456 H 1842.73 -0.451047 0.693171 0
M  V30 20457 H 1845.28 -0.207982 1.68421 0
M  V30 20458 H 1844.05 -0.80754 3.82877 0
M  V30 20459 H 1843.67 -2.39312 3.17515 0
M  V30 20460 N 1844.67 -1.5 -0.48349 0
M  V30 20461 C 1845.6 -1.70879 -1.5913 0
M  V30 20462 C 1846.58 -0.557606 -1.60701 0
M  V30 20463 O 1847.76 -0.79539 -1.77164 0
M  V30 20464 C 1844.89 -1.7915 -2.97527 0
M  V30 20465 C 1843.85 -2.94233 -3.10823 0
M  V30 20466 C 1843.17 -2.87634 -4.50745 0
M  V30 20467 C 1844.47 -4.34925 -2.89202 0
M  V30 20468 H 1846.17 -2.63632 -1.41911 0
M  V30 20469 H 1843.71 -1.26865 -0.68127 0
M  V30 20470 H 1845.67 -1.92342 -3.74943 0
M  V30 20471 H 1844.39 -0.830106 -3.15875 0
M  V30 20472 H 1843.05 -2.80672 -2.35837 0
M  V30 20473 H 1842.7 -1.89365 -4.65993 0
M  V30 20474 H 1842.4 -3.64885 -4.60579 0
M  V30 20475 H 1843.92 -3.02857 -5.30198 0
M  V30 20476 H 1845.34 -4.49076 -3.56376 0
M  V30 20477 H 1843.73 -5.13531 -3.10492 0
M  V30 20478 H 1844.8 -4.48154 -1.85165 0
M  V30 20479 N 1846.15 0.735796 -1.39369 0
M  V30 20480 C 1847.09 1.8498 -1.38025 0
M  V30 20481 C 1848.06 1.64356 -0.24007 0
M  V30 20482 O 1849.25 1.85774 -0.435058 0
M  V30 20483 C 1846.39 3.22484 -1.22874 0
M  V30 20484 C 1845.5 3.54819 -2.4643 0
M  V30 20485 C 1844.64 4.8172 -2.23873 0
M  V30 20486 C 1843.68 5.06895 -3.43108 0
M  V30 20487 N 1842.81 6.25 -3.19874 0
M  V30 20488 H 1847.65 1.85463 -2.33254 0
M  V30 20489 H 1845.19 0.906252 -1.15868 0
M  V30 20490 H 1847.15 4.01857 -1.12101 0
M  V30 20491 H 1845.78 3.21281 -0.312759 0
M  V30 20492 H 1844.83 2.70153 -2.67809 0
M  V30 20493 H 1846.14 3.69342 -3.35244 0
M  V30 20494 H 1845.3 5.69072 -2.10338 0
M  V30 20495 H 1844.03 4.69369 -1.32453 0
M  V30 20496 H 1843.04 4.18006 -3.57143 0
M  V30 20497 H 1844.26 5.21132 -4.35429 0
M  V30 20498 H 1842.21 6.13939 -2.31117 0
M  V30 20499 H 1842.13 6.40106 -4.02244 0
M  V30 20500 H 1843.4 7.15193 -3.10031 0
M  V30 20501 N 1847.63 1.24532 0.965897 0
M  V30 20502 C 1848.9 0.994047 1.68458 0
M  V30 20503 C 1849.28 -0.483115 2.05497 0
M  V30 20504 O 1848.63 -1.45784 1.75953 0
M  V30 20505 C 1848.84 1.91872 2.91524 0
M  V30 20506 C 1850.19 2.19066 3.63724 0
M  V30 20507 O 1851.21 1.8954 3.01584 0
M  V30 20508 O 1850.07 2.69217 4.75589 0
M  V30 20509 H 1847.17 0.376083 0.73654 0
M  V30 20510 H 1849.71 1.35638 1.01982 0
M  V30 20511 H 1848.48 2.91665 2.60858 0
M  V30 20512 H 1848.11 1.55966 3.65732 0
M  V30 20513 N 1849.1 -1.16685 1.05936 0
M  V30 20514 C 1850.01 -2.24591 0.677931 0
M  V30 20515 C 1851.03 -1.71317 -0.304397 0
M  V30 20516 O 1852.21 -2.00806 -0.154615 0
M  V30 20517 C 1849.27 -3.46636 0.0664037 0
M  V30 20518 C 1848.33 -4.14964 1.10014 0
M  V30 20519 C 1847.56 -5.31183 0.517697 0
M  V30 20520 O 1847.79 -5.66444 -0.670637 0
M  V30 20521 O 1846.72 -5.88657 1.25563 0
M  V30 20522 H 1850.55 -2.5952 1.57743 0
M  V30 20523 H 1848.13 -1.2413 0.831395 0
M  V30 20524 H 1850.01 -4.20514 -0.273069 0
M  V30 20525 H 1848.69 -3.13489 -0.806634 0
M  V30 20526 H 1847.6 -3.43072 1.49173 0
M  V30 20527 H 1848.93 -4.52158 1.94458 0
M  V30 20528 N 1850.58 -0.841432 -1.33258 0
M  V30 20529 C 1851.83 -0.434677 -1.96961 0
M  V30 20530 C 1852.14 1.012 -1.67386 0
M  V30 20531 O 1853.35 1.52356 -2.24722 0
M  V30 20532 C 1851.81 -0.726332 -3.52495 0
M  V30 20533 C 1851.41 -2.18786 -3.90943 0
M  V30 20534 C 1853.16 -0.386652 -4.22735 0
M  V30 20535 C 1851.06 -2.42343 -5.39466 0
M  V30 20536 H 1849.99 -0.158809 -0.737086 0
M  V30 20537 H 1852.65 -1.03037 -1.51841 0
M  V30 20538 H 1851.03 -0.0602315 -3.95954 0
M  V30 20539 H 1852.2 -2.89465 -3.58534 0
M  V30 20540 H 1850.52 -2.49076 -3.33691 0
M  V30 20541 H 1853.11 -0.540249 -5.31964 0
M  V30 20542 H 1853.46 0.670595 -4.10863 0
M  V30 20543 H 1853.99 -1.00809 -3.84815 0
M  V30 20544 H 1850.73 -3.46642 -5.56345 0
M  V30 20545 H 1850.25 -1.76227 -5.73327 0
M  V30 20546 H 1851.93 -2.25625 -6.06385 0
M  V30 20547 N 1852.06 1.4581 -0.598108 0
M  V30 20548 C 1853.31 2.02601 -0.089744 0
M  V30 20549 C 1853.64 1.46673 1.27282 0
M  V30 20550 O 1852.91 0.637735 1.83748 0
M  V30 20551 C 1853.2 3.60077 -0.0405712 0
M  V30 20552 C 1853.05 4.26358 -1.43313 0
M  V30 20553 C 1854.37 4.35241 0.652164 0
M  V30 20554 H 1851.49 0.736211 -0.0340865 0
M  V30 20555 H 1854.13 1.73775 -0.768263 0
M  V30 20556 H 1852.28 3.84767 0.537251 0
M  V30 20557 H 1853.95 4.12884 -2.0573 0
M  V30 20558 H 1852.19 3.85125 -1.99653 0
M  V30 20559 H 1852.87 5.35211 -1.35105 0
M  V30 20560 H 1855.34 4.15788 0.161128 0
M  V30 20561 H 1854.22 5.4497 0.655646 0
M  V30 20562 H 1854.48 4.07419 1.71646 0
M  V30 20563 N 1853.54 0.336733 1.53961 0
M  V30 20564 C 1854.95 -0.0154439 1.59593 0
M  V30 20565 C 1855.15 -1.49328 1.35291 0
M  V30 20566 O 1854.21 -2.25107 1.14381 0
M  V30 20567 C 1855.52 0.414613 2.97828 0
M  V30 20568 C 1857.07 0.36638 3.10848 0
M  V30 20569 C 1857.55 0.7718 4.5145 0
M  V30 20570 N 1859.04 0.725719 4.5748 0
M  V30 20571 C 1859.77 1.01145 5.64409 0
M  V30 20572 N 1859.27 1.36499 6.7922 0
M  V30 20573 N 1861.06 0.936141 5.5425 0
M  V30 20574 H 1853.21 1.29944 1.68012 0
M  V30 20575 H 1855.47 0.529259 0.786504 0
M  V30 20576 H 1855.18 1.44476 3.20655 0
M  V30 20577 H 1855.05 -0.21367 3.76594 0
M  V30 20578 H 1857.44 -0.65458 2.87749 0
M  V30 20579 H 1857.52 1.02978 2.34157 0
M  V30 20580 H 1857.17 1.79074 4.75284 0
M  V30 20581 H 1857.1 0.0859543 5.2653 0
M  V30 20582 H 1859.59 0.464858 3.7503 0
M  V30 20583 H 1859.9 1.56805 7.56725 0
M  V30 20584 H 1858.25 1.40338 6.80684 0
M  V30 20585 H 1861.44 0.659334 4.63433 0
M  V30 20586 H 1861.61 1.16217 6.37493 0
M  V30 20587 N 1855.02 -1.57465 0.0651956 0
M  V30 20588 C 1855.95 -2.15374 -0.902018 0
M  V30 20589 C 1856.93 -1.07904 -1.31494 0
M  V30 20590 O 1858.11 -1.35909 -1.38717 0
M  V30 20591 C 1855.24 -2.71005 -2.17195 0
M  V30 20592 C 1854.2 -3.83583 -1.89864 0
M  V30 20593 C 1853.52 -4.25789 -3.23432 0
M  V30 20594 C 1854.82 -5.08112 -1.20913 0
M  V30 20595 H 1856.52 -2.96445 -0.419631 0
M  V30 20596 H 1854.06 -1.42599 -0.200401 0
M  V30 20597 H 1856.01 -3.1016 -2.8527 0
M  V30 20598 H 1854.74 -1.87146 -2.67664 0
M  V30 20599 H 1853.4 -3.44921 -1.24197 0
M  V30 20600 H 1853.05 -3.38861 -3.71729 0
M  V30 20601 H 1852.75 -5.01673 -3.05938 0
M  V30 20602 H 1854.27 -4.67555 -3.92715 0
M  V30 20603 H 1855.68 -5.44624 -1.79046 0
M  V30 20604 H 1854.08 -5.8923 -1.137 0
M  V30 20605 H 1855.15 -4.84538 -0.187224 0
M  V30 20606 N 1856.49 0.20831 -1.56217 0
M  V30 20607 C 1857.44 1.27775 -1.94362 0
M  V30 20608 C 1858.44 1.47824 -0.827316 0
M  V30 20609 O 1859.64 1.48841 -1.01224 0
M  V30 20610 H 1856.02 0.428676 -0.617852 0
M  V30 20611 H 1857.99 0.928929 -2.83573 0
M  V30 20612 C 1856.74 2.61808 -2.28806 0
M  V30 20613 H 1856.06 2.47192 -3.14223 0
M  V30 20614 H 1857.5 3.35416 -2.59369 0
M  V30 20615 C 1855.96 3.17812 -1.1179 0
M  V30 20616 O 1856.49 3.99841 -0.385968 0
M  V30 20617 N 1854.69 2.7637 -0.898205 0
M  V30 20618 H 1854.24 2.0977 -1.49514 0
M  V30 20619 H 1854.2 3.14182 -0.117031 0
M  V30 20620 N 1857.97 1.50255 0.475528 0
M  V30 20621 C 1859.25 1.51537 1.23676 0
M  V30 20622 C 1859.63 0.257508 2.09524 0
M  V30 20623 O 1858.98 -0.759242 2.15517 0
M  V30 20624 C 1859.19 2.80865 2.07162 0
M  V30 20625 C 1860.53 3.31353 2.655 0
M  V30 20626 O 1861.56 2.82156 2.17408 0
M  V30 20627 O 1860.42 4.17102 3.53112 0
M  V30 20628 H 1857.51 0.607633 0.560991 0
M  V30 20629 H 1860.06 1.62541 0.487712 0
M  V30 20630 H 1858.83 3.63891 1.43871 0
M  V30 20631 H 1858.45 2.72844 2.89209 0
M  V30 20632 N 1859.45 -0.728395 1.39758 0
M  V30 20633 C 1860.67 -1.52268 1.40816 0
M  V30 20634 C 1861.1 -1.88099 0.00629167 0
M  V30 20635 O 1860.46 -1.52376 -0.982402 0
M  V30 20636 C 1860.51 -2.78262 2.29353 0
M  V30 20637 O 1859.61 -3.74453 1.72796 0
M  V30 20638 H 1858.95 -0.459582 0.47925 0
M  V30 20639 H 1861.48 -0.898132 1.83833 0
M  V30 20640 H 1861.49 -3.26927 2.44096 0
M  V30 20641 H 1860.17 -2.51515 3.31229 0
M  V30 20642 H 1858.74 -3.33248 1.67332 0
M  V30 20643 N 1860.93 -1.25042 -0.959279 0
M  V30 20644 C 1862.18 -1.08912 -1.69768 0
M  V30 20645 C 1862.49 0.370558 -1.92058 0
M  V30 20646 O 1863.7 0.652214 -2.6355 0
M  V30 20647 C 1862.15 -1.90075 -3.05613 0
M  V30 20648 C 1861.76 -3.40506 -2.91136 0
M  V30 20649 C 1863.5 -1.825 -3.83268 0
M  V30 20650 C 1861.41 -4.13982 -4.22343 0
M  V30 20651 H 1860.34 -0.403959 -0.636658 0
M  V30 20652 H 1862.99 -1.49198 -1.06828 0
M  V30 20653 H 1861.37 -1.42609 -3.6943 0
M  V30 20654 H 1862.55 -3.95612 -2.36279 0
M  V30 20655 H 1860.86 -3.49123 -2.2694 0
M  V30 20656 H 1863.46 -2.34693 -4.80441 0
M  V30 20657 H 1863.8 -0.791947 -4.08698 0
M  V30 20658 H 1864.34 -2.27691 -3.26192 0
M  V30 20659 H 1861.07 -5.17681 -4.02103 0
M  V30 20660 H 1860.59 -3.6366 -4.76982 0
M  V30 20661 H 1862.27 -4.21443 -4.90913 0
M  V30 20662 N 1862.41 1.16121 -1.06553 0
M  V30 20663 C 1863.34 2.22761 -0.699976 0
M  V30 20664 C 1864.32 1.67274 0.308783 0
M  V30 20665 O 1865.5 1.93333 0.183328 0
M  V30 20666 C 1862.63 3.47187 -0.0884044 0
M  V30 20667 C 1861.59 4.15584 -1.02343 0
M  V30 20668 C 1860.91 5.33992 -0.275022 0
M  V30 20669 C 1862.21 4.66266 -2.35358 0
M  V30 20670 H 1863.91 2.53595 -1.59153 0
M  V30 20671 H 1861.45 1.21893 -0.766686 0
M  V30 20672 H 1863.41 4.21019 0.17922 0
M  V30 20673 H 1862.13 3.15661 0.838181 0
M  V30 20674 H 1860.79 3.43683 -1.27584 0
M  V30 20675 H 1860.44 4.9872 0.654765 0
M  V30 20676 H 1860.14 5.80695 -0.898181 0
M  V30 20677 H 1861.66 6.10598 -0.0150056 0
M  V30 20678 H 1863.07 5.31665 -2.14488 0
M  V30 20679 H 1861.47 5.236 -2.93195 0
M  V30 20680 H 1862.54 3.82335 -2.98241 0
M  V30 20681 N 1863.88 0.848487 1.3281 0
M  V30 20682 C 1864.82 0.245947 2.27877 0
M  V30 20683 C 1865.83 -0.578811 1.52163 0
M  V30 20684 O 1867.02 -0.404308 1.73861 0
M  V30 20685 C 1864.12 -0.671584 3.32179 0
M  V30 20686 C 1863.29 0.115958 4.37246 0
M  V30 20687 C 1862.35 -0.726387 5.21162 0
M  V30 20688 O 1861.38 -0.162121 5.68969 0
M  V30 20689 N 1862.58 -2.04216 5.43393 0
M  V30 20690 H 1865.34 1.06281 2.80222 0
M  V30 20691 H 1862.9 0.707872 1.45605 0
M  V30 20692 H 1864.9 -1.2403 3.85225 0
M  V30 20693 H 1863.47 -1.38914 2.80039 0
M  V30 20694 H 1862.69 0.866084 3.84568 0
M  V30 20695 H 1863.97 0.657126 5.04539 0
M  V30 20696 H 1863.37 -2.52401 5.06271 0
M  V30 20697 H 1861.93 -2.55914 5.99459 0
M  V30 20698 N 1865.36 -1.4549 0.605832 0
M  V30 20699 C 1866.33 -2.28964 -0.104089 0
M  V30 20700 C 1867.33 -1.39671 -0.796791 0
M  V30 20701 O 1868.52 -1.6181 -0.645221 0
M  V30 20702 C 1865.65 -3.20647 -1.1575 0
M  V30 20703 H 1866.84 -2.93213 0.629776 0
M  V30 20704 H 1864.39 -1.51983 0.3648 0
M  V30 20705 H 1865.13 -2.61194 -1.92219 0
M  V30 20706 H 1864.91 -3.86419 -0.665025 0
M  V30 20707 H 1866.4 -3.83416 -1.65474 0
M  V30 20708 N 1866.84 -0.344893 -1.5378 0
M  V30 20709 C 1868.07 0.252559 -2.05353 0
M  V30 20710 C 1868.48 1.44107 -1.21978 0
M  V30 20711 O 1867.84 1.80704 -0.25543 0
M  V30 20712 C 1867.89 0.666294 -3.55307 0
M  V30 20713 O 1867.61 -0.474957 -4.35518 0
M  V30 20714 C 1869.11 1.32432 -4.23056 0
M  V30 20715 H 1866.33 0.0485202 -0.669243 0
M  V30 20716 H 1868.88 -0.497271 -1.98362 0
M  V30 20717 H 1867.03 1.36606 -3.62515 0
M  V30 20718 H 1867.45 -0.144883 -5.243 0
M  V30 20719 H 1868.92 1.56456 -5.29363 0
M  V30 20720 H 1869.4 2.27829 -3.75487 0
M  V30 20721 H 1870 0.66655 -4.20044 0
M  V30 20722 N 1868.32 1.57428 -0.0735454 0
M  V30 20723 C 1869.23 2.16325 0.907775 0
M  V30 20724 C 1870.24 1.12689 1.32579 0
M  V30 20725 O 1871.42 1.44963 1.39813 0
M  V30 20726 C 1868.49 2.71467 2.15654 0
M  V30 20727 C 1867.55 3.89983 1.79476 0
M  V30 20728 C 1866.78 4.42486 2.98399 0
M  V30 20729 O 1867 3.93985 4.12471 0
M  V30 20730 O 1865.94 5.33794 2.78114 0
M  V30 20731 H 1869.76 3.00543 0.436771 0
M  V30 20732 H 1867.35 1.48649 0.149623 0
M  V30 20733 H 1869.23 3.06802 2.88878 0
M  V30 20734 H 1867.9 1.90308 2.61848 0
M  V30 20735 H 1866.81 3.59498 1.03499 0
M  V30 20736 H 1868.14 4.7244 1.38063 0
M  V30 20737 N 1869.8 -0.200022 1.56326 0
M  V30 20738 C 1870.73 -1.27187 1.90673 0
M  V30 20739 C 1871.74 -1.41961 0.796933 0
M  V30 20740 O 1872.93 -1.42474 1.07533 0
M  V30 20741 C 1870.03 -2.64468 2.11919 0
M  V30 20742 C 1869.2 -2.71366 3.43044 0
M  V30 20743 C 1868.26 -3.89809 3.53462 0
M  V30 20744 O 1867.29 -3.77142 4.26325 0
M  V30 20745 N 1868.49 -5.05052 2.86187 0
M  V30 20746 H 1871.26 -0.980397 2.83211 0
M  V30 20747 H 1868.82 -0.389967 1.57133 0
M  V30 20748 H 1870.81 -3.42122 2.16182 0
M  V30 20749 H 1869.38 -2.86124 1.25904 0
M  V30 20750 H 1868.6 -1.80024 3.50692 0
M  V30 20751 H 1869.89 -2.72961 4.29383 0
M  V30 20752 H 1869.28 -5.18242 2.26808 0
M  V30 20753 H 1867.84 -5.8067 2.96083 0
M  V30 20754 N 1871.27 -1.50505 -0.467553 0
M  V30 20755 C 1872.69 -1.38009 -0.801599 0
M  V30 20756 C 1872.89 -0.43893 -1.96661 0
M  V30 20757 O 1871.95 0.117139 -2.52228 0
M  V30 20758 C 1873.26 -2.79449 -1.11034 0
M  V30 20759 C 1874.81 -2.88389 -1.21659 0
M  V30 20760 C 1875.28 -4.3067 -1.55844 0
M  V30 20761 N 1876.77 -4.33637 -1.62829 0
M  V30 20762 C 1877.51 -5.40727 -1.90791 0
M  V30 20763 N 1877 -6.58021 -2.16751 0
M  V30 20764 N 1878.8 -5.28175 -1.92323 0
M  V30 20765 H 1870.95 -2.10268 0.300165 0
M  V30 20766 H 1873.21 -0.945278 0.0717853 0
M  V30 20767 H 1872.92 -3.50173 -0.327326 0
M  V30 20768 H 1872.79 -3.16911 -2.04566 0
M  V30 20769 H 1875.18 -2.17881 -1.99027 0
M  V30 20770 H 1875.26 -2.54465 -0.260984 0
M  V30 20771 H 1874.9 -5.01716 -0.79014 0
M  V30 20772 H 1874.83 -4.62083 -2.5256 0
M  V30 20773 H 1877.32 -3.49061 -1.44793 0
M  V30 20774 H 1877.64 -7.35442 -2.37371 0
M  V30 20775 H 1875.98 -6.61189 -2.14136 0
M  V30 20776 H 1879.17 -4.35536 -1.71541 0
M  V30 20777 H 1879.35 -6.11721 -2.13779 0
M  V30 20778 N 1872.75 0.720973 -1.40142 0
M  V30 20779 C 1874.17 1.02835 -1.22054 0
M  V30 20780 C 1874.37 2.0129 -0.091949 0
M  V30 20781 O 1873.42 2.46395 0.551897 0
M  V30 20782 C 1874.74 1.57722 -2.56016 0
M  V30 20783 C 1876.29 1.69734 -2.62982 0
M  V30 20784 C 1876.76 2.28027 -3.972 0
M  V30 20785 N 1878.25 2.3542 -3.98913 0
M  V30 20786 C 1878.99 2.81495 -4.99548 0
M  V30 20787 N 1878.48 3.27362 -6.10578 0
M  V30 20788 N 1880.28 2.80831 -4.86919 0
M  V30 20789 H 1872.43 0.068271 -2.1229 0
M  V30 20790 H 1874.69 0.0928952 -0.943438 0
M  V30 20791 H 1874.4 0.928424 -3.39224 0
M  V30 20792 H 1874.27 2.56326 -2.76725 0
M  V30 20793 H 1876.66 2.33732 -1.80148 0
M  V30 20794 H 1876.74 0.697443 -2.46108 0
M  V30 20795 H 1876.38 1.64653 -4.80471 0
M  V30 20796 H 1876.31 3.28721 -4.114 0
M  V30 20797 H 1878.8 2.03019 -3.18735 0
M  V30 20798 H 1879.12 3.61071 -6.83263 0
M  V30 20799 H 1877.46 3.25335 -6.14152 0
M  V30 20800 H 1880.65 2.4433 -3.99275 0
M  V30 20801 H 1880.82 3.16423 -5.65492 0
M  V30 20802 N 1874.23 1.25549 0.952634 0
M  V30 20803 C 1875.65 1.02414 1.22407 0
M  V30 20804 C 1875.85 -0.257807 1.99844 0
M  V30 20805 O 1874.9 -0.969999 2.33125 0
M  V30 20806 C 1876.22 2.24856 1.9965 0
M  V30 20807 C 1877.76 2.29638 2.12686 0
M  V30 20808 C 1878.24 3.51742 2.93329 0
M  V30 20809 N 1879.73 3.5215 3.00907 0
M  V30 20810 C 1880.46 4.43292 3.63703 0
M  V30 20811 N 1879.96 5.44709 4.28094 0
M  V30 20812 N 1881.75 4.30969 3.60863 0
M  V30 20813 H 1873.9 2.07905 0.434647 0
M  V30 20814 H 1876.17 0.913124 0.254772 0
M  V30 20815 H 1875.87 3.18037 1.5015 0
M  V30 20816 H 1875.75 2.28188 3.0035 0
M  V30 20817 H 1878.13 1.36978 2.61383 0
M  V30 20818 H 1878.22 2.30324 1.11285 0
M  V30 20819 H 1877.86 4.44724 2.45322 0
M  V30 20820 H 1877.79 3.48301 3.9496 0
M  V30 20821 H 1880.28 2.78789 2.55118 0
M  V30 20822 H 1880.59 6.10462 4.73873 0
M  V30 20823 H 1878.94 5.48579 4.26715 0
M  V30 20824 H 1882.13 3.50964 3.09745 0
M  V30 20825 H 1882.3 5.02196 4.09516 0
M  V30 20826 N 1875.71 -1.15554 1.07168 0
M  V30 20827 C 1876.67 -2.18431 0.694305 0
M  V30 20828 C 1877.67 -1.5861 -0.264497 0
M  V30 20829 O 1878.86 -1.7414 -0.0457035 0
M  V30 20830 C 1875.99 -3.40892 0.0230473 0
M  V30 20831 H 1877.19 -2.53331 1.60511 0
M  V30 20832 H 1874.74 -1.29984 0.867982 0
M  V30 20833 H 1875.47 -3.11559 -0.900083 0
M  V30 20834 H 1875.26 -3.8557 0.712622 0
M  V30 20835 H 1876.75 -4.16986 -0.226392 0
M  V30 20836 N 1877.19 -0.855519 -1.32358 0
M  V30 20837 C 1878.1 -0.303696 -2.32626 0
M  V30 20838 C 1879.11 0.578927 -1.64087 0
M  V30 20839 O 1880.29 0.479091 -1.95619 0
M  V30 20840 C 1877.35 0.498152 -3.43103 0
M  V30 20841 C 1876.42 -0.410714 -4.27331 0
M  V30 20842 C 1875.65 0.35296 -5.32532 0
M  V30 20843 O 1875.87 1.58282 -5.47999 0
M  V30 20844 O 1874.81 -0.281689 -6.0124 0
M  V30 20845 H 1878.63 -1.13443 -2.81717 0
M  V30 20846 H 1876.22 -0.618479 -1.35997 0
M  V30 20847 H 1878.1 0.95324 -4.10477 0
M  V30 20848 H 1876.77 1.30567 -2.96199 0
M  V30 20849 H 1875.68 -0.913997 -3.62763 0
M  V30 20850 H 1877.01 -1.18344 -4.77761 0
M  V30 20851 N 1878.67 1.45167 -0.61354 0
M  V30 20852 C 1879.58 2.34372 0.103487 0
M  V30 20853 C 1880.59 1.51591 0.854172 0
M  V30 20854 O 1881.77 1.84375 0.810414 0
M  V30 20855 C 1878.83 3.29304 1.08443 0
M  V30 20856 C 1877.89 4.2799 0.335056 0
M  V30 20857 C 1877.13 5.18387 1.26928 0
M  V30 20858 O 1877.35 5.12336 2.50734 0
M  V30 20859 O 1876.28 5.97043 0.763115 0
M  V30 20860 H 1880.11 2.97099 -0.629746 0
M  V30 20861 H 1877.69 1.44649 -0.373779 0
M  V30 20862 H 1879.58 3.87785 1.64926 0
M  V30 20863 H 1878.25 2.69133 1.79859 0
M  V30 20864 H 1877.16 3.73107 -0.272378 0
M  V30 20865 H 1878.49 4.91033 -0.338727 0
M  V30 20866 N 1880.14 0.353044 1.53595 0
M  V30 20867 C 1881.09 -0.514569 2.26837 0
M  V30 20868 C 1882.09 -1.09398 1.29338 0
M  V30 20869 O 1883.29 -1.03863 1.47012 0
M  V30 20870 H 1879.67 -0.184641 0.72898 0
M  V30 20871 H 1881.64 0.125082 2.98138 0
M  V30 20872 C 1880.39 -1.64884 3.06119 0
M  V30 20873 H 1879.71 -1.21227 3.80978 0
M  V30 20874 H 1881.15 -2.23089 3.60565 0
M  V30 20875 C 1879.61 -2.58385 2.16192 0
M  V30 20876 O 1880.14 -3.6088 1.76433 0
M  V30 20877 N 1878.34 -2.27286 1.81079 0
M  V30 20878 H 1877.89 -1.43975 2.13609 0
M  V30 20879 H 1877.85 -2.90102 1.21194 0
M  V30 20880 N 1881.62 -1.57387 0.0818932 0
M  V30 20881 C 1882.58 -2.12162 -0.86718 0
M  V30 20882 C 1883.58 -1.04788 -1.21967 0
M  V30 20883 O 1884.77 -1.30733 -1.15128 0
M  V30 20884 C 1881.91 -2.63132 -2.16736 0
M  V30 20885 H 1883.1 -2.9733 -0.391788 0
M  V30 20886 H 1880.65 -1.55406 -0.166944 0
M  V30 20887 H 1881.39 -1.81446 -2.6879 0
M  V30 20888 H 1881.17 -3.41625 -1.92445 0
M  V30 20889 H 1882.66 -3.05549 -2.84657 0
M  V30 20890 N 1883.1 0.191729 -1.56429 0
M  V30 20891 C 1884.03 1.24024 -1.97839 0
M  V30 20892 C 1885.01 1.47291 -0.850853 0
M  V30 20893 O 1886.2 1.58971 -1.11543 0
M  V30 20894 C 1883.33 2.58373 -2.32079 0
M  V30 20895 C 1882.28 2.49712 -3.47603 0
M  V30 20896 C 1881.61 3.88365 -3.67528 0
M  V30 20897 C 1882.91 2.01929 -4.81687 0
M  V30 20898 H 1884.6 0.8961 -2.85675 0
M  V30 20899 H 1882.15 0.429616 -1.37442 0
M  V30 20900 H 1884.1 3.31908 -2.59643 0
M  V30 20901 H 1882.82 2.94534 -1.41129 0
M  V30 20902 H 1881.48 1.78632 -3.20135 0
M  V30 20903 H 1881.13 4.21884 -2.73903 0
M  V30 20904 H 1880.83 3.83444 -4.45246 0
M  V30 20905 H 1882.35 4.63518 -3.97472 0
M  V30 20906 H 1883.77 2.65225 -5.0826 0
M  V30 20907 H 1882.16 2.08002 -5.62899 0
M  V30 20908 H 1883.23 0.972649 -4.75045 0
M  V30 20909 N 1884.58 1.50751 0.459565 0
M  V30 20910 C 1885.51 1.66621 1.57385 0
M  V30 20911 C 1886.52 0.547358 1.53323 0
M  V30 20912 O 1887.71 0.820941 1.58502 0
M  V30 20913 C 1884.81 1.64524 2.96285 0
M  V30 20914 C 1883.98 2.92631 3.25093 0
M  V30 20915 C 1883.04 2.83021 4.43605 0
M  V30 20916 O 1882.07 3.56977 4.43347 0
M  V30 20917 N 1883.27 1.97358 5.45921 0
M  V30 20918 H 1886.04 2.62738 1.44184 0
M  V30 20919 H 1883.6 1.48359 0.64817 0
M  V30 20920 H 1885.59 1.55693 3.73553 0
M  V30 20921 H 1884.16 0.760945 3.03197 0
M  V30 20922 H 1883.38 3.15502 2.36331 0
M  V30 20923 H 1884.67 3.77477 3.41157 0
M  V30 20924 H 1884.07 1.36608 5.48958 0
M  V30 20925 H 1882.62 1.94422 6.22128 0
M  V30 20926 N 1886.06 -0.713531 1.40522 0
M  V30 20927 C 1886.99 -1.83847 1.36868 0
M  V30 20928 C 1888 -1.60482 0.273746 0
M  V30 20929 O 1889.19 -1.70318 0.534238 0
M  V30 20930 C 1886.29 -3.20288 1.10764 0
M  V30 20931 C 1885.46 -3.70833 2.31952 0
M  V30 20932 C 1884.52 -4.85893 2.01977 0
M  V30 20933 O 1883.55 -4.98438 2.74861 0
M  V30 20934 N 1884.75 -5.7184 0.998985 0
M  V30 20935 H 1887.51 -1.87479 2.3382 0
M  V30 20936 H 1885.08 -0.895151 1.34902 0
M  V30 20937 H 1887.07 -3.94861 0.886932 0
M  V30 20938 H 1885.64 -3.11791 0.224726 0
M  V30 20939 H 1884.86 -2.87368 2.6984 0
M  V30 20940 H 1886.15 -4.01339 3.12738 0
M  V30 20941 H 1885.54 -5.64317 0.395392 0
M  V30 20942 H 1884.1 -6.46388 0.838178 0
M  V30 20943 N 1887.53 -1.26053 -0.945962 0
M  V30 20944 C 1888.48 -1.07194 -2.04397 0
M  V30 20945 C 1889.45 0.0215796 -1.66086 0
M  V30 20946 O 1890.64 -0.137272 -1.90306 0
M  V30 20947 C 1887.78 -0.705915 -3.37803 0
M  V30 20948 C 1886.89 -1.87519 -3.89179 0
M  V30 20949 C 1886.02 -1.45272 -5.1095 0
M  V30 20950 C 1885.06 -2.59059 -5.54576 0
M  V30 20951 N 1884.2 -2.17527 -6.67552 0
M  V30 20952 H 1889.04 -2.01159 -2.19861 0
M  V30 20953 H 1886.58 -1.00162 -1.07731 0
M  V30 20954 H 1888.53 -0.474611 -4.14492 0
M  V30 20955 H 1887.16 0.196761 -3.222 0
M  V30 20956 H 1886.22 -2.21956 -3.08933 0
M  V30 20957 H 1887.53 -2.7294 -4.17499 0
M  V30 20958 H 1886.68 -1.18158 -5.95083 0
M  V30 20959 H 1885.42 -0.569345 -4.84365 0
M  V30 20960 H 1884.43 -2.86908 -4.69003 0
M  V30 20961 H 1885.65 -3.47989 -5.83164 0
M  V30 20962 H 1883.6 -1.31618 -6.42661 0
M  V30 20963 H 1883.51 -2.96493 -6.95433 0
M  V30 20964 H 1884.78 -1.93612 -7.55073 0
M  V30 20965 N 1889.01 1.14984 -1.07779 0
M  V30 20966 C 1889.97 2.1806 -0.705879 0
M  V30 20967 C 1890.97 1.58748 0.256082 0
M  V30 20968 O 1892.16 1.74162 0.0364678 0
M  V30 20969 C 1889.3 3.40875 -0.0411253 0
M  V30 20970 H 1890.49 2.52476 -1.61852 0
M  V30 20971 H 1888.04 1.29522 -0.874863 0
M  V30 20972 H 1888.78 3.12032 0.883548 0
M  V30 20973 H 1888.56 3.85186 -0.73306 0
M  V30 20974 H 1890.05 4.171 0.204275 0
M  V30 20975 N 1890.49 0.862526 1.31902 0
M  V30 20976 C 1891.73 0.47617 1.98776 0
M  V30 20977 C 1892.09 -0.952142 1.66728 0
M  V30 20978 O 1893.29 -1.44346 2.26754 0
M  V30 20979 C 1891.57 0.71747 3.50124 0
M  V30 20980 S 1893.12 0.429862 4.36689 0
M  V30 20981 H 1889.94 0.178053 0.688344 0
M  V30 20982 H 1892.54 1.11694 1.60451 0
M  V30 20983 H 1891.25 1.75592 3.70939 0
M  V30 20984 H 1890.78 0.0634148 3.93349 0
M  V30 20985 H 1892.79 -0.740921 4.90637 0
M  V30 20986 N 1891.97 -1.4484 0.62123 0
M  V30 20987 C 1893.22 -2.01734 0.121544 0
M  V30 20988 C 1893.54 -1.49041 -1.25745 0
M  V30 20989 O 1892.81 -0.690056 -1.83344 0
M  V30 20990 H 1891.39 -0.745822 0.0419419 0
M  V30 20991 H 1894.05 -1.77467 0.805702 0
M  V30 20992 H 1893.15 -3.11993 0.0816882 0
M  V30 20993 N 1893.45 -0.361184 -1.53405 0
M  V30 20994 C 1894.67 0.233383 -2.06083 0
M  V30 20995 C 1895.1 1.42029 -1.23326 0
M  V30 20996 O 1894.45 1.79551 -0.251249 0
M  V30 20997 C 1894.5 0.609243 -3.55416 0
M  V30 20998 O 1893.61 1.70705 -3.75411 0
M  V30 20999 H 1892.95 0.035021 -0.663076 0
M  V30 21000 H 1895.48 -0.520514 -1.97868 0
M  V30 21001 H 1895.49 0.881483 -3.98364 0
M  V30 21002 H 1894.16 -0.25866 -4.15095 0
M  V30 21003 H 1892.74 1.4307 -3.44362 0
M  V30 21004 N 1894.92 1.57341 -0.0902386 0
M  V30 21005 C 1895.83 2.17276 0.88478 0
M  V30 21006 C 1896.85 1.14089 1.31376 0
M  V30 21007 O 1898.03 1.46438 1.38268 0
M  V30 21008 C 1895.09 2.73739 2.12762 0
M  V30 21009 C 1894.15 3.91865 1.7533 0
M  V30 21010 C 1893.39 4.45626 2.93689 0
M  V30 21011 O 1893.61 3.98337 4.08269 0
M  V30 21012 O 1892.54 5.36714 2.72437 0
M  V30 21013 H 1896.37 3.00989 0.40487 0
M  V30 21014 H 1893.95 1.48799 0.133848 0
M  V30 21015 H 1895.84 3.09849 2.85608 0
M  V30 21016 H 1894.51 1.93075 2.59815 0
M  V30 21017 H 1893.42 3.60576 0.996799 0
M  V30 21018 H 1894.75 4.73878 1.33045 0
M  V30 21019 N 1896.4 -0.183431 1.56529 0
M  V30 21020 C 1897.65 -0.900237 1.80495 0
M  V30 21021 C 1897.96 -1.83932 0.665454 0
M  V30 21022 O 1899.17 -2.59761 0.789728 0
M  V30 21023 C 1897.63 -1.65125 3.19784 0
M  V30 21024 C 1897.23 -0.756411 4.41568 0
M  V30 21025 C 1898.98 -2.357 3.53052 0
M  V30 21026 C 1896.89 -1.50696 5.71878 0
M  V30 21027 H 1895.82 -0.339898 0.673042 0
M  V30 21028 H 1898.47 -0.153327 1.82858 0
M  V30 21029 H 1896.85 -2.44248 3.11703 0
M  V30 21030 H 1898.02 -0.00301509 4.608 0
M  V30 21031 H 1896.34 -0.160916 4.16089 0
M  V30 21032 H 1898.93 -2.92426 4.4765 0
M  V30 21033 H 1899.28 -3.10454 2.77352 0
M  V30 21034 H 1899.81 -1.63533 3.62632 0
M  V30 21035 H 1896.55 -0.801985 6.50575 0
M  V30 21036 H 1896.07 -2.23399 5.56644 0
M  V30 21037 H 1897.75 -2.05768 6.13407 0
M  V30 21038 N 1897.88 -1.50992 -0.451564 0
M  V30 21039 C 1898.81 -1.65941 -1.56648 0
M  V30 21040 C 1899.79 -0.507159 -1.54488 0
M  V30 21041 O 1900.98 -0.729186 -1.73825 0
M  V30 21042 C 1898.1 -1.65995 -2.95234 0
M  V30 21043 C 1897.15 -2.87016 -3.15474 0
M  V30 21044 S 1897.98 -4.48044 -2.93287 0
M  V30 21045 C 1899.14 -4.5082 -4.3418 0
M  V30 21046 H 1899.37 -2.60247 -1.43731 0
M  V30 21047 H 1896.9 -1.40499 -0.640276 0
M  V30 21048 H 1898.86 -1.6671 -3.75124 0
M  V30 21049 H 1897.52 -0.728911 -3.05525 0
M  V30 21050 H 1896.72 -2.83413 -4.16765 0
M  V30 21051 H 1896.32 -2.83969 -2.43388 0
M  V30 21052 H 1898.61 -4.25585 -5.27147 0
M  V30 21053 H 1899.55 -5.52554 -4.4282 0
M  V30 21054 H 1899.96 -3.80301 -4.17171 0
M  V30 21055 N 1899.36 0.706069 -1.40899 0
M  V30 21056 C 1900.29 1.83119 -1.37841 0
M  V30 21057 C 1901.3 1.60335 -0.282253 0
M  V30 21058 O 1902.49 1.70032 -0.543263 0
M  V30 21059 C 1899.59 3.19696 -1.12461 0
M  V30 21060 C 1898.77 3.69598 -2.33915 0
M  V30 21061 C 1897.82 4.84815 -2.04551 0
M  V30 21062 O 1896.85 4.96973 -2.775 0
M  V30 21063 N 1898.05 5.71302 -1.0293 0
M  V30 21064 H 1900.82 1.86237 -2.34811 0
M  V30 21065 H 1898.38 0.887984 -1.35375 0
M  V30 21066 H 1900.37 3.94386 -0.90786 0
M  V30 21067 H 1898.94 3.11668 -0.241258 0
M  V30 21068 H 1898.16 2.85933 -2.7136 0
M  V30 21069 H 1899.45 3.99674 -3.14862 0
M  V30 21070 H 1898.85 5.64099 -0.425314 0
M  V30 21071 H 1897.4 6.45935 -0.872446 0
M  V30 21072 N 1900.84 1.26553 0.939264 0
M  V30 21073 C 1901.78 1.08276 2.03826 0
M  V30 21074 C 1902.75 -0.0127713 1.66095 0
M  V30 21075 O 1903.94 0.147362 1.9023 0
M  V30 21076 C 1901.08 0.723819 3.37424 0
M  V30 21077 C 1900.19 1.8958 3.88179 0
M  V30 21078 C 1899.33 1.4798 5.10172 0
M  V30 21079 C 1898.37 2.61997 5.53194 0
M  V30 21080 N 1897.5 2.21064 6.66389 0
M  V30 21081 H 1902.34 2.02323 2.18791 0
M  V30 21082 H 1899.88 1.00732 1.07198 0
M  V30 21083 H 1901.84 0.496585 4.14234 0
M  V30 21084 H 1900.47 -0.179671 3.223 0
M  V30 21085 H 1899.52 2.23591 3.07752 0
M  V30 21086 H 1900.83 2.7515 4.16045 0
M  V30 21087 H 1899.99 1.21312 5.94448 0
M  V30 21088 H 1898.72 0.595025 4.84057 0
M  V30 21089 H 1897.73 2.89391 4.67475 0
M  V30 21090 H 1898.95 3.51076 5.81311 0
M  V30 21091 H 1896.9 1.35024 6.41954 0
M  V30 21092 H 1896.82 3.00177 6.93851 0
M  V30 21093 H 1898.09 1.97614 7.54035 0
M  V30 21094 N 1902.31 -1.14411 1.08387 0
M  V30 21095 C 1903.26 -2.19489 0.713668 0
M  V30 21096 C 1904.23 -1.63368 -0.300036 0
M  V30 21097 O 1905.42 -1.8991 -0.184088 0
M  V30 21098 C 1902.56 -3.44859 0.128925 0
M  V30 21099 C 1901.67 -4.15132 1.19538 0
M  V30 21100 C 1900.8 -5.28084 0.574521 0
M  V30 21101 C 1899.84 -5.9019 1.62303 0
M  V30 21102 N 1898.98 -6.94593 1.02398 0
M  V30 21103 H 1903.82 -2.50505 1.61404 0
M  V30 21104 H 1901.36 -1.23014 0.806595 0
M  V30 21105 H 1903.32 -4.16578 -0.227814 0
M  V30 21106 H 1901.95 -3.14327 -0.734757 0
M  V30 21107 H 1901 -3.41804 1.66955 0
M  V30 21108 H 1902.31 -4.57387 1.98994 0
M  V30 21109 H 1901.46 -6.06473 0.166017 0
M  V30 21110 H 1900.2 -4.8705 -0.251701 0
M  V30 21111 H 1899.21 -5.10505 2.0412 0
M  V30 21112 H 1900.43 -6.33299 2.45172 0
M  V30 21113 H 1898.38 -6.55635 0.218849 0
M  V30 21114 H 1898.3 -7.35332 1.75564 0
M  V30 21115 H 1899.56 -7.76857 0.641327 0
M  V30 21116 N 1903.79 -0.869509 -1.31443 0
M  V30 21117 C 1904.72 -0.282169 -2.27456 0
M  V30 21118 C 1905.74 0.55453 -1.53065 0
M  V30 21119 O 1906.93 0.376597 -1.74482 0
M  V30 21120 C 1904.03 0.618652 -3.33206 0
M  V30 21121 C 1903.2 -0.185505 -4.37006 0
M  V30 21122 C 1902.26 0.643383 -5.22252 0
M  V30 21123 O 1901.28 0.0715827 -5.69155 0
M  V30 21124 N 1902.49 1.95545 -5.46573 0
M  V30 21125 H 1905.25 -1.10726 -2.78496 0
M  V30 21126 H 1902.81 -0.730947 -1.4446 0
M  V30 21127 H 1904.8 1.17886 -3.8715 0
M  V30 21128 H 1903.37 1.34442 -2.82213 0
M  V30 21129 H 1902.59 -0.927156 -3.83142 0
M  V30 21130 H 1903.88 -0.73731 -5.03429 0
M  V30 21131 H 1903.28 2.44315 -5.10222 0
M  V30 21132 H 1901.84 2.46345 -6.03455 0
M  V30 21133 N 1905.27 1.44508 -0.628902 0
M  V30 21134 C 1906.22 2.27784 0.0991943 0
M  V30 21135 C 1907.2 1.38538 0.818285 0
M  V30 21136 O 1908.4 1.62364 0.704759 0
M  V30 21137 C 1905.53 3.25816 1.0816 0
M  V30 21138 C 1904.61 4.2255 0.362249 0
M  V30 21139 N 1905 5.02133 -0.607915 0
M  V30 21140 C 1903.3 4.4185 0.60699 0
M  V30 21141 C 1904 5.7246 -1.03271 0
M  V30 21142 N 1902.98 5.42326 -0.371966 0
M  V30 21143 H 1906.78 2.86721 -0.645621 0
M  V30 21144 H 1904.29 1.55918 -0.45423 0
M  V30 21145 H 1906.29 3.8423 1.6178 0
M  V30 21146 H 1904.95 2.6844 1.82674 0
M  V30 21147 H 1905.96 5.08435 -0.985626 0
M  V30 21148 H 1902.64 3.95575 1.33517 0
M  V30 21149 H 1904.03 6.46383 -1.83409 0
M  V30 21150 N 1906.75 0.369315 1.53212 0
M  V30 21151 C 1907.68 -0.467242 2.28777 0
M  V30 21152 C 1908.66 -1.08073 1.31355 0
M  V30 21153 O 1909.85 -1.09728 1.60229 0
M  V30 21154 C 1906.98 -1.60519 3.07979 0
M  V30 21155 C 1905.93 -1.11876 4.1312 0
M  V30 21156 C 1905.26 -2.34723 4.80426 0
M  V30 21157 C 1906.56 -0.200846 5.21914 0
M  V30 21158 H 1908.25 0.163201 2.98955 0
M  V30 21159 H 1905.8 0.0799312 1.43778 0
M  V30 21160 H 1907.75 -2.19708 3.59592 0
M  V30 21161 H 1906.47 -2.26292 2.35499 0
M  V30 21162 H 1905.13 -0.549521 3.62458 0
M  V30 21163 H 1904.78 -2.98961 4.04514 0
M  V30 21164 H 1904.48 -2.02846 5.51477 0
M  V30 21165 H 1906 -2.94592 5.34835 0
M  V30 21166 H 1907.42 -0.700331 5.69006 0
M  V30 21167 H 1905.81 0.0272222 6.00094 0
M  V30 21168 H 1906.88 0.755948 4.78971 0
M  V30 21169 N 1908.23 -1.57291 0.0985816 0
M  V30 21170 C 1909.14 -2.17742 -0.873245 0
M  V30 21171 C 1910.15 -1.14784 -1.3077 0
M  V30 21172 O 1911.33 -1.47169 -1.37489 0
M  V30 21173 C 1908.39 -2.74864 -2.11308 0
M  V30 21174 C 1907.46 -3.92789 -1.73249 0
M  V30 21175 C 1906.69 -4.47177 -2.91322 0
M  V30 21176 O 1906.91 -4.00497 -4.06151 0
M  V30 21177 O 1905.85 -5.38151 -2.69587 0
M  V30 21178 H 1909.67 -3.012 -0.388902 0
M  V30 21179 H 1907.26 -1.48868 -0.125955 0
M  V30 21180 H 1909.14 -3.11359 -2.8396 0
M  V30 21181 H 1907.81 -1.9445 -2.58787 0
M  V30 21182 H 1906.72 -3.61099 -0.977663 0
M  V30 21183 H 1908.05 -4.74577 -1.3053 0
M  V30 21184 N 1909.71 0.175127 -1.56624 0
M  V30 21185 C 1910.95 0.890653 -1.8097 0
M  V30 21186 C 1911.27 1.83577 -0.675199 0
M  V30 21187 O 1912.47 2.59338 -0.803492 0
M  V30 21188 C 1910.93 1.63427 -3.20655 0
M  V30 21189 C 1910.54 0.732982 -4.41963 0
M  V30 21190 C 1912.28 2.33825 -3.54297 0
M  V30 21191 C 1910.19 1.47661 -5.72669 0
M  V30 21192 H 1909.12 0.336324 -0.674835 0
M  V30 21193 H 1911.77 0.143627 -1.82937 0
M  V30 21194 H 1910.15 2.42591 -3.12994 0
M  V30 21195 H 1911.33 -0.0214223 -4.60795 0
M  V30 21196 H 1909.64 0.138848 -4.16168 0
M  V30 21197 H 1912.24 2.90048 -4.49195 0
M  V30 21198 H 1912.58 3.08979 -2.78994 0
M  V30 21199 H 1913.11 1.61608 -3.63494 0
M  V30 21200 H 1909.85 0.767472 -6.50992 0
M  V30 21201 H 1909.37 2.20444 -5.57821 0
M  V30 21202 H 1911.05 2.02512 -6.1449 0
M  V30 21203 N 1911.18 1.5123 0.44355 0
M  V30 21204 C 1912.09 1.74928 1.56324 0
M  V30 21205 C 1913.11 0.633267 1.62067 0
M  V30 21206 O 1914.29 0.914808 1.79425 0
M  V30 21207 C 1911.35 1.86361 2.92354 0
M  V30 21208 C 1910.41 3.10196 2.96778 0
M  V30 21209 C 1909.64 3.21073 4.26319 0
M  V30 21210 O 1909.87 2.38043 5.18355 0
M  V30 21211 O 1908.8 4.14008 4.369 0
M  V30 21212 H 1912.63 2.69898 1.39243 0
M  V30 21213 H 1910.21 1.35656 0.62592 0
M  V30 21214 H 1912.09 1.95901 3.73096 0
M  V30 21215 H 1910.77 0.945775 3.09575 0
M  V30 21216 H 1909.68 3.06138 2.15013 0
M  V30 21217 H 1911.01 4.01648 2.84499 0
M  V30 21218 N 1912.66 -0.698586 1.41271 0
M  V30 21219 C 1913.59 -1.82505 1.4565 0
M  V30 21220 C 1914.57 -1.67149 0.315497 0
M  V30 21221 O 1915.76 -1.86926 0.526518 0
M  V30 21222 C 1912.89 -3.20616 1.33502 0
M  V30 21223 C 1911.84 -3.50672 2.45383 0
M  V30 21224 C 1911.17 -4.88107 2.18302 0
M  V30 21225 C 1912.47 -3.49952 3.87725 0
M  V30 21226 H 1914.16 -1.79098 2.39926 0
M  V30 21227 H 1911.71 -0.860237 1.15481 0
M  V30 21228 H 1913.66 -3.9913 1.35179 0
M  V30 21229 H 1912.38 -3.24642 0.357101 0
M  V30 21230 H 1911.04 -2.74507 2.42984 0
M  V30 21231 H 1910.69 -4.88755 1.1886 0
M  V30 21232 H 1910.39 -5.09182 2.9327 0
M  V30 21233 H 1911.92 -5.68934 2.21689 0
M  V30 21234 H 1913.33 -4.18476 3.91855 0
M  V30 21235 H 1911.73 -3.82559 4.62351 0
M  V30 21236 H 1912.8 -2.48988 4.16093 0
M  V30 21237 N 1914.14 -1.27049 -0.93254 0
M  V30 21238 C 1915.09 -1.09356 -2.03249 0
M  V30 21239 C 1916.06 0.00396271 -1.661 0
M  V30 21240 O 1917.24 -0.157449 -1.90149 0
M  V30 21241 C 1914.38 -0.741704 -3.37035 0
M  V30 21242 C 1913.49 -1.91636 -3.87169 0
M  V30 21243 C 1912.63 -1.50683 -5.0938 0
M  V30 21244 C 1911.67 -2.64927 -5.51797 0
M  V30 21245 N 1910.81 -2.24595 -6.65208 0
M  V30 21246 H 1915.65 -2.0348 -2.17715 0
M  V30 21247 H 1913.18 -1.01299 -1.06662 0
M  V30 21248 H 1915.14 -0.518546 -4.13965 0
M  V30 21249 H 1913.77 0.162576 -3.2239 0
M  V30 21250 H 1912.82 -2.2522 -3.06562 0
M  V30 21251 H 1914.13 -2.77353 -4.1458 0
M  V30 21252 H 1913.29 -1.24463 -5.93796 0
M  V30 21253 H 1912.03 -0.620687 -4.83734 0
M  V30 21254 H 1911.03 -2.91866 -4.65933 0
M  V30 21255 H 1912.26 -3.54154 -5.79441 0
M  V30 21256 H 1910.2 -1.38427 -6.41229 0
M  V30 21257 H 1910.12 -3.03853 -6.9225 0
M  V30 21258 H 1911.39 -2.0161 -7.52977 0
M  V30 21259 N 1915.62 1.13835 -1.08993 0
M  V30 21260 C 1916.55 2.18781 -0.683177 0
M  V30 21261 C 1917.56 1.60499 0.272748 0
M  V30 21262 O 1918.75 1.78401 0.059482 0
M  V30 21263 C 1915.85 3.38897 0.0146723 0
M  V30 21264 C 1915.02 4.26697 -0.961666 0
M  V30 21265 C 1914.08 5.25355 -0.298041 0
M  V30 21266 O 1913.11 5.61312 -0.944303 0
M  V30 21267 N 1914.31 5.7268 0.949645 0
M  V30 21268 H 1917.08 2.54293 -1.58605 0
M  V30 21269 H 1914.64 1.29114 -0.976792 0
M  V30 21270 H 1916.63 4.01965 0.469724 0
M  V30 21271 H 1915.2 3.01661 0.819722 0
M  V30 21272 H 1914.42 3.60473 -1.5954 0
M  V30 21273 H 1915.71 4.82218 -1.62305 0
M  V30 21274 H 1915.11 5.45606 1.49433 0
M  V30 21275 H 1913.66 6.37707 1.34809 0
M  V30 21276 N 1917.1 0.876467 1.3098 0
M  V30 21277 C 1918.34 0.491367 1.96757 0
M  V30 21278 C 1918.67 -0.955274 1.6908 0
M  V30 21279 O 1917.95 -1.6737 0.990843 0
M  V30 21280 C 1918.23 0.756745 3.52059 0
M  V30 21281 C 1918.09 2.25339 3.89284 0
M  V30 21282 C 1919.4 0.227549 4.39511 0
M  V30 21283 H 1916.52 0.179998 0.714681 0
M  V30 21284 H 1919.17 1.0989 1.54997 0
M  V30 21285 H 1917.32 0.239657 3.8776 0
M  V30 21286 H 1918.99 2.83824 3.63651 0
M  V30 21287 H 1917.23 2.72341 3.37658 0
M  V30 21288 H 1917.9 2.38971 4.97591 0
M  V30 21289 H 1920.38 0.670016 4.1067 0
M  V30 21290 H 1919.25 0.442629 5.47112 0
M  V30 21291 H 1919.51 -0.870833 4.33438 0
M  V30 21292 N 1918.57 -1.44173 0.636557 0
M  V30 21293 C 1919.51 -2.27912 -0.114546 0
M  V30 21294 C 1920.48 -1.38856 -0.846028 0
M  V30 21295 O 1921.67 -1.68298 -0.84901 0
M  V30 21296 C 1918.8 -3.17907 -1.16844 0
M  V30 21297 C 1917.84 -4.23107 -0.536886 0
M  V30 21298 S 1918.67 -5.31202 0.677107 0
M  V30 21299 C 1919.83 -6.24766 -0.376669 0
M  V30 21300 H 1920.06 -2.91268 0.595839 0
M  V30 21301 H 1917.6 -1.48439 0.424887 0
M  V30 21302 H 1919.55 -3.70306 -1.77154 0
M  V30 21303 H 1918.22 -2.53761 -1.85105 0
M  V30 21304 H 1917.41 -4.86113 -1.3308 0
M  V30 21305 H 1917.01 -3.73999 -0.00829068 0
M  V30 21306 H 1919.3 -6.65912 -1.24768 0
M  V30 21307 H 1920.25 -7.07765 0.217942 0
M  V30 21308 H 1920.65 -5.6008 -0.705003 0
M  V30 21309 N 1920.05 -0.377435 -1.53014 0
M  V30 21310 C 1920.98 0.498304 -2.23718 0
M  V30 21311 C 1922 1.03648 -1.25542 0
M  V30 21312 O 1923.19 0.940837 -1.51692 0
M  V30 21313 C 1920.29 1.70201 -2.93061 0
M  V30 21314 C 1919.46 1.29328 -4.17843 0
M  V30 21315 C 1918.52 2.36036 -4.70291 0
M  V30 21316 O 1917.54 1.97934 -5.33677 0
M  V30 21317 N 1918.75 3.67788 -4.49124 0
M  V30 21318 H 1921.51 -0.107388 -2.99508 0
M  V30 21319 H 1919.07 -0.203197 -1.6062 0
M  V30 21320 H 1921.06 2.41087 -3.25052 0
M  V30 21321 H 1919.63 2.21431 -2.20652 0
M  V30 21322 H 1918.85 0.413779 -3.92022 0
M  V30 21323 H 1920.14 0.996666 -4.98943 0
M  V30 21324 H 1919.54 4.01512 -3.98503 0
M  V30 21325 H 1918.1 4.34744 -4.85635 0
M  V30 21326 N 1921.53 1.57237 -0.106922 0
M  V30 21327 C 1922.46 2.11718 0.877968 0
M  V30 21328 C 1923.48 1.0571 1.23812 0
M  V30 21329 O 1924.66 1.3312 1.18917 0
M  V30 21330 C 1921.76 2.59182 2.18352 0
M  V30 21331 C 1920.94 3.89156 1.99691 0
M  V30 21332 C 1920 4.22344 3.13866 0
M  V30 21333 O 1919.02 4.91367 2.87309 0
M  V30 21334 N 1920.22 3.78694 4.39967 0
M  V30 21335 H 1922.99 2.96846 0.412584 0
M  V30 21336 H 1920.55 1.61713 0.0778505 0
M  V30 21337 H 1922.54 2.78423 2.93706 0
M  V30 21338 H 1921.11 1.78999 2.56277 0
M  V30 21339 H 1920.33 3.78945 1.086 0
M  V30 21340 H 1921.62 4.74165 1.84514 0
M  V30 21341 H 1921.02 3.23 4.64422 0
M  V30 21342 H 1919.58 4.03067 5.12231 0
M  V30 21343 N 1923.01 -0.166818 1.56715 0
M  V30 21344 C 1924.42 -0.518754 1.50934 0
M  V30 21345 C 1924.62 -1.84416 0.811964 0
M  V30 21346 O 1923.68 -2.49712 0.374207 0
M  V30 21347 C 1924.99 -0.547356 2.95676 0
M  V30 21348 C 1926.54 -0.634247 3.06507 0
M  V30 21349 C 1927.02 -0.693699 4.52716 0
M  V30 21350 N 1928.51 -0.756466 4.56981 0
M  V30 21351 C 1929.24 -0.823116 5.67461 0
M  V30 21352 N 1928.74 -0.850325 6.87562 0
M  V30 21353 N 1930.53 -0.862482 5.55444 0
M  V30 21354 H 1922.68 0.70222 2.00456 0
M  V30 21355 H 1924.95 0.253731 0.913414 0
M  V30 21356 H 1924.65 0.357945 3.49874 0
M  V30 21357 H 1924.53 -1.39227 3.50565 0
M  V30 21358 H 1926.91 -1.52997 2.52341 0
M  V30 21359 H 1926.99 0.23743 2.54696 0
M  V30 21360 H 1926.64 0.197788 5.07515 0
M  V30 21361 H 1926.57 -1.58158 5.02288 0
M  V30 21362 H 1929.06 -0.74354 3.70513 0
M  V30 21363 H 1929.37 -0.902481 7.67512 0
M  V30 21364 H 1927.72 -0.818528 6.90163 0
M  V30 21365 H 1930.91 -0.838257 4.60533 0
M  V30 21366 H 1931.08 -0.910962 6.41565 0
M  V30 21367 N 1924.49 -1.51463 -0.435524 0
M  V30 21368 C 1925.71 -1.68316 -1.21179 0
M  V30 21369 C 1926.14 -0.380709 -1.84207 0
M  V30 21370 O 1925.49 0.659318 -1.68887 0
M  V30 21371 C 1925.54 -2.80168 -2.27021 0
M  V30 21372 O 1924.65 -2.43897 -3.32548 0
M  V30 21373 H 1923.99 -0.561165 -0.35495 0
M  V30 21374 H 1926.52 -1.98036 -0.514097 0
M  V30 21375 H 1926.53 -3.04305 -2.71776 0
M  V30 21376 H 1925.2 -3.74678 -1.80524 0
M  V30 21377 H 1923.78 -2.30337 -2.93256 0
M  V30 21378 N 1925.96 0.691085 -1.4164 0
M  V30 21379 C 1926.87 1.83467 -1.46209 0
M  V30 21380 C 1927.89 1.70397 -0.352267 0
M  V30 21381 O 1929.07 1.92234 -0.60068 0
M  V30 21382 C 1926.13 3.19485 -1.34648 0
M  V30 21383 C 1925.19 3.44631 -2.55984 0
M  V30 21384 C 1924.43 4.7416 -2.44964 0
M  V30 21385 O 1924.65 5.50955 -1.47664 0
M  V30 21386 O 1923.58 5.0019 -3.34804 0
M  V30 21387 H 1927.41 1.82568 -2.42698 0
M  V30 21388 H 1924.99 0.844729 -1.23226 0
M  V30 21389 H 1926.88 4.00684 -1.30501 0
M  V30 21390 H 1925.55 3.21058 -0.41276 0
M  V30 21391 H 1924.46 2.63345 -2.65707 0
M  V30 21392 H 1925.79 3.47877 -3.48199 0
M  V30 21393 N 1927.44 1.27542 0.925789 0
M  V30 21394 C 1928.72 1.04714 1.6521 0
M  V30 21395 C 1929.1 -0.417492 2.0693 0
M  V30 21396 O 1928.45 -1.40112 1.80502 0
M  V30 21397 C 1928.66 2.0105 2.85272 0
M  V30 21398 C 1930.01 2.30526 3.56571 0
M  V30 21399 O 1931.03 1.99038 2.95402 0
M  V30 21400 O 1929.89 2.84211 4.66783 0
M  V30 21401 H 1926.98 0.399325 0.724202 0
M  V30 21402 H 1929.53 1.38814 0.976156 0
M  V30 21403 H 1928.3 2.99817 2.51447 0
M  V30 21404 H 1927.92 1.67523 3.60585 0
M  V30 21405 N 1928.92 -1.13255 1.09595 0
M  V30 21406 C 1929.87 -2.20794 0.731624 0
M  V30 21407 C 1930.86 -1.67263 -0.268256 0
M  V30 21408 O 1932.07 -1.79533 -0.129535 0
M  V30 21409 H 1928.44 -0.719521 0.218618 0
M  V30 21410 H 1930.41 -2.48784 1.6477 0
M  V30 21411 C 1929.16 -3.47283 0.170214 0
M  V30 21412 H 1928.49 -3.88814 0.930805 0
M  V30 21413 H 1929.93 -4.23974 -0.0467499 0
M  V30 21414 C 1928.39 -3.18609 -1.09497 0
M  V30 21415 O 1928.92 -3.37534 -2.17793 0
M  V30 21416 N 1927.12 -2.72477 -1.01017 0
M  V30 21417 H 1926.67 -2.57278 -0.128814 0
M  V30 21418 H 1926.63 -2.53668 -1.85741 0
M  V30 21419 N 1930.4 -0.883401 -1.30514 0
M  V30 21420 C 1931.36 -0.353908 -2.26451 0
M  V30 21421 C 1932.36 0.502723 -1.52739 0
M  V30 21422 O 1933.55 0.310104 -1.71418 0
M  V30 21423 C 1930.68 0.495846 -3.37275 0
M  V30 21424 H 1931.88 -1.20101 -2.74801 0
M  V30 21425 H 1929.43 -0.660124 -1.41676 0
M  V30 21426 H 1930.16 1.3636 -2.94239 0
M  V30 21427 H 1929.95 -0.117731 -3.91923 0
M  V30 21428 H 1931.44 0.858149 -4.08688 0
M  V30 21429 N 1931.88 1.43833 -0.644194 0
M  V30 21430 C 1933.29 1.56542 -0.310952 0
M  V30 21431 C 1933.49 1.62946 1.18536 0
M  V30 21432 O 1932.55 1.57961 1.96989 0
M  V30 21433 C 1933.86 2.83074 -1.01437 0
M  V30 21434 C 1935.41 2.96805 -0.993759 0
M  V30 21435 C 1935.88 4.26158 -1.6779 0
M  V30 21436 N 1937.38 4.33002 -1.64511 0
M  V30 21437 C 1938.11 5.31837 -2.14328 0
M  V30 21438 N 1937.61 6.37003 -2.72394 0
M  V30 21439 N 1939.4 5.23431 -2.04881 0
M  V30 21440 H 1931.55 1.37919 -1.61531 0
M  V30 21441 H 1933.81 0.661778 -0.678789 0
M  V30 21442 H 1933.52 2.84372 -2.06943 0
M  V30 21443 H 1933.39 3.73016 -0.560273 0
M  V30 21444 H 1935.78 2.95053 0.0528599 0
M  V30 21445 H 1935.86 2.08177 -1.48647 0
M  V30 21446 H 1935.51 4.28671 -2.72404 0
M  V30 21447 H 1935.44 5.13667 -1.15992 0
M  V30 21448 H 1937.93 3.57621 -1.22129 0
M  V30 21449 H 1938.24 7.08724 -3.08107 0
M  V30 21450 H 1936.58 6.37652 -2.76451 0
M  V30 21451 H 1939.78 4.40186 -1.59229 0
M  V30 21452 H 1939.95 6.00301 -2.44015 0
M  V30 21453 N 1933.35 0.385544 1.52811 0
M  V30 21454 C 1934.3 -0.468278 2.23139 0
M  V30 21455 C 1935.29 -1.03267 1.23388 0
M  V30 21456 O 1936.48 -0.959402 1.48743 0
M  V30 21457 C 1933.61 -1.59702 3.03892 0
M  V30 21458 C 1932.7 -1.04454 4.11035 0
M  V30 21459 N 1933.09 -0.216705 5.05336 0
M  V30 21460 C 1931.38 -1.31741 4.26099 0
M  V30 21461 C 1932.09 0.0880825 5.81633 0
M  V30 21462 N 1931.06 -0.514871 5.41156 0
M  V30 21463 H 1934.86 0.170786 2.93403 0
M  V30 21464 H 1932.38 0.194643 1.61229 0
M  V30 21465 H 1934.37 -2.22107 3.52809 0
M  V30 21466 H 1933.03 -2.23894 2.35162 0
M  V30 21467 H 1934.05 0.145732 5.17695 0
M  V30 21468 H 1930.72 -1.96065 3.68598 0
M  V30 21469 H 1932.11 0.758586 6.67604 0
M  V30 21470 N 1934.83 -1.57178 0.115259 0
M  V30 21471 C 1935.78 -2.15114 -0.836331 0
M  V30 21472 C 1936.75 -1.07511 -1.26612 0
M  V30 21473 O 1937.93 -1.354 -1.3443 0
M  V30 21474 C 1935.07 -2.75187 -2.08245 0
M  V30 21475 C 1934.19 -3.97086 -1.70137 0
M  V30 21476 C 1933.32 -4.45258 -2.89687 0
M  V30 21477 C 1932.36 -5.59697 -2.47801 0
M  V30 21478 N 1931.5 -6.0263 -3.60252 0
M  V30 21479 H 1936.34 -2.96106 -0.335434 0
M  V30 21480 H 1933.88 -1.46293 -0.15388 0
M  V30 21481 H 1935.83 -3.08145 -2.81252 0
M  V30 21482 H 1934.46 -1.96891 -2.558 0
M  V30 21483 H 1933.52 -3.70313 -0.870192 0
M  V30 21484 H 1934.83 -4.80085 -1.35352 0
M  V30 21485 H 1933.98 -4.80105 -3.70923 0
M  V30 21486 H 1932.72 -3.61201 -3.27696 0
M  V30 21487 H 1931.73 -5.24458 -1.64997 0
M  V30 21488 H 1932.95 -6.45517 -2.10913 0
M  V30 21489 H 1930.9 -5.21515 -3.97942 0
M  V30 21490 H 1930.81 -6.80474 -3.29379 0
M  V30 21491 H 1932.08 -6.42114 -4.41939 0
M  V30 21492 N 1936.31 0.158505 -1.56801 0
M  V30 21493 C 1937.24 1.22086 -1.93978 0
M  V30 21494 C 1938.26 1.39798 -0.834291 0
M  V30 21495 O 1939.45 1.39573 -1.11272 0
M  V30 21496 C 1936.55 2.58757 -2.18857 0
M  V30 21497 C 1935.72 2.62175 -3.50118 0
M  V30 21498 C 1934.78 3.80301 -3.63673 0
M  V30 21499 O 1933.8 3.65706 -4.36174 0
M  V30 21500 N 1935.01 4.97286 -2.99477 0
M  V30 21501 H 1937.77 0.904964 -2.8571 0
M  V30 21502 H 1935.33 0.348168 -1.58112 0
M  V30 21503 H 1937.32 3.3627 -2.25177 0
M  V30 21504 H 1935.89 2.82685 -1.33446 0
M  V30 21505 H 1935.11 1.70662 -3.55342 0
M  V30 21506 H 1936.4 2.61481 -4.36469 0
M  V30 21507 H 1935.8 5.12046 -2.40469 0
M  V30 21508 H 1934.36 5.72616 -3.11375 0
M  V30 21509 N 1937.79 1.51692 0.427485 0
M  V30 21510 C 1939.01 1.68956 1.20285 0
M  V30 21511 C 1939.44 0.390472 1.84003 0
M  V30 21512 O 1938.8 -0.650352 1.69234 0
M  V30 21513 C 1938.85 2.81368 2.25532 0
M  V30 21514 O 1937.95 2.45657 3.3125 0
M  V30 21515 H 1937.29 0.56304 0.351969 0
M  V30 21516 H 1939.82 1.98306 0.503588 0
M  V30 21517 H 1939.83 3.05742 2.70158 0
M  V30 21518 H 1938.51 3.7563 1.78535 0
M  V30 21519 H 1937.08 2.31889 2.9203 0
M  V30 21520 N 1939.27 -0.683564 1.42004 0
M  V30 21521 C 1940.2 -1.8095 1.47578 0
M  V30 21522 C 1941.18 -1.66804 0.333208 0
M  V30 21523 O 1942.36 -1.86357 0.546314 0
M  V30 21524 C 1939.49 -3.19182 1.36895 0
M  V30 21525 C 1938.45 -3.4805 2.49089 0
M  V30 21526 C 1937.77 -4.85764 2.23467 0
M  V30 21527 C 1939.07 -3.4582 3.91415 0
M  V30 21528 H 1940.77 -1.76543 2.41812 0
M  V30 21529 H 1938.31 -0.84794 1.16387 0
M  V30 21530 H 1940.27 -3.97674 1.39404 0
M  V30 21531 H 1938.99 -3.24245 0.391513 0
M  V30 21532 H 1937.65 -2.71915 2.45882 0
M  V30 21533 H 1937.3 -4.87467 1.24037 0
M  V30 21534 H 1937 -5.06043 2.98654 0
M  V30 21535 H 1938.52 -5.66551 2.27711 0
M  V30 21536 H 1939.94 -4.14297 3.96272 0
M  V30 21537 H 1938.33 -3.77633 4.66383 0
M  V30 21538 H 1939.4 -2.4456 4.1871 0
M  V30 21539 N 1940.75 -1.28031 -0.919012 0
M  V30 21540 C 1941.66 -1.13341 -2.05404 0
M  V30 21541 C 1942.67 -0.0612715 -1.73892 0
M  V30 21542 O 1943.85 -0.26951 -1.99589 0
M  V30 21543 C 1940.91 -0.791143 -3.37553 0
M  V30 21544 C 1939.97 -1.94509 -3.82707 0
M  V30 21545 C 1939.21 -1.61905 -5.08549 0
M  V30 21546 O 1939.43 -0.530962 -5.67923 0
M  V30 21547 O 1938.36 -2.46102 -5.49288 0
M  V30 21548 H 1942.19 -2.08613 -2.20713 0
M  V30 21549 H 1939.77 -1.073 -1.03957 0
M  V30 21550 H 1941.66 -0.613981 -4.16903 0
M  V30 21551 H 1940.33 0.131966 -3.23431 0
M  V30 21552 H 1939.24 -2.17737 -3.04206 0
M  V30 21553 H 1940.57 -2.84871 -4.01384 0
M  V30 21554 N 1942.22 1.12672 -1.10194 0
M  V30 21555 C 1943.13 2.2192 -0.76082 0
M  V30 21556 C 1944.15 1.72328 0.240604 0
M  V30 21557 O 1945.33 2.01241 0.0799808 0
M  V30 21558 C 1942.39 3.46151 -0.19501 0
M  V30 21559 C 1941.45 4.10595 -1.25339 0
M  V30 21560 C 1940.68 5.28896 -0.714485 0
M  V30 21561 O 1940.91 5.68543 0.459943 0
M  V30 21562 O 1939.84 5.83592 -1.47324 0
M  V30 21563 H 1943.67 2.53487 -1.67266 0
M  V30 21564 H 1941.25 1.20959 -0.876892 0
M  V30 21565 H 1943.13 4.21238 0.116809 0
M  V30 21566 H 1941.81 3.16266 0.689729 0
M  V30 21567 H 1940.72 3.37299 -1.61803 0
M  V30 21568 H 1942.05 4.44629 -2.11106 0
M  V30 21569 N 1943.7 0.89031 1.30043 0
M  V30 21570 C 1944.66 0.365912 2.2626 0
M  V30 21571 C 1945.66 -0.494616 1.53004 0
M  V30 21572 O 1946.85 -0.301009 1.7158 0
M  V30 21573 C 1943.99 -0.477952 3.37533 0
M  V30 21574 H 1945.18 1.21557 2.7416 0
M  V30 21575 H 1942.73 0.667628 1.41324 0
M  V30 21576 H 1943.47 -1.34798 2.94958 0
M  V30 21577 H 1943.25 0.138514 3.91855 0
M  V30 21578 H 1944.74 -0.836463 4.09137 0
M  V30 21579 N 1945.18 -1.43489 0.651812 0
M  V30 21580 C 1946.14 -2.29179 -0.0311937 0
M  V30 21581 C 1947.14 -1.42135 -0.751953 0
M  V30 21582 O 1948.33 -1.63781 -0.593416 0
M  V30 21583 C 1945.46 -3.24168 -1.0549 0
M  V30 21584 H 1946.66 -2.91061 0.722741 0
M  V30 21585 H 1944.21 -1.50746 0.412968 0
M  V30 21586 H 1944.95 -2.67177 -1.83812 0
M  V30 21587 H 1944.73 -3.88339 -0.541752 0
M  V30 21588 H 1946.22 -3.88487 -1.53193 0
M  V30 21589 N 1946.66 -0.393643 -1.52605 0
M  V30 21590 C 1947.6 0.439408 -2.26579 0
M  V30 21591 C 1948.57 1.05415 -1.28362 0
M  V30 21592 O 1949.76 1.08136 -1.57198 0
M  V30 21593 C 1946.9 1.55846 -3.07906 0
M  V30 21594 C 1946.01 0.966152 -4.21058 0
M  V30 21595 C 1945.15 2.05662 -4.89772 0
M  V30 21596 C 1944.19 1.44043 -5.9491 0
M  V30 21597 N 1943.32 2.47039 -6.57203 0
M  V30 21598 H 1948.16 -0.197864 -2.97342 0
M  V30 21599 H 1945.7 -0.109409 -1.46693 0
M  V30 21600 H 1947.66 2.21807 -3.53352 0
M  V30 21601 H 1946.29 2.16598 -2.39343 0
M  V30 21602 H 1945.34 0.196024 -3.79895 0
M  V30 21603 H 1946.65 0.475898 -4.96525 0
M  V30 21604 H 1945.81 2.79383 -5.38544 0
M  V30 21605 H 1944.55 2.58048 -4.13839 0
M  V30 21606 H 1943.55 0.688483 -5.45472 0
M  V30 21607 H 1944.78 0.924458 -6.72778 0
M  V30 21608 H 1942.72 2.98586 -5.84108 0
M  V30 21609 H 1942.64 2.02781 -7.28297 0
M  V30 21610 H 1943.91 3.20377 -7.10619 0
M  V30 21611 N 1948.14 1.57115 -0.123593 0
M  V30 21612 C 1949.36 1.99705 0.540887 0
M  V30 21613 C 1949.78 1.00336 1.59932 0
M  V30 21614 O 1949.14 -0.00310477 1.825 0
M  V30 21615 C 1949.19 3.42286 1.16285 0
M  V30 21616 O 1948.91 4.37854 0.146725 0
M  V30 21617 C 1950.41 4.00032 1.91021 0
M  V30 21618 H 1947.63 0.655623 0.142827 0
M  V30 21619 H 1950.17 2.03406 -0.211285 0
M  V30 21620 H 1948.33 3.39511 1.86578 0
M  V30 21621 H 1948.74 5.21066 0.599228 0
M  V30 21622 H 1950.22 5.01865 2.29861 0
M  V30 21623 H 1950.69 3.3943 2.78719 0
M  V30 21624 H 1951.3 4.06368 1.25481 0
M  V30 21625 N 1949.61 -0.150187 1.56883 0
M  V30 21626 C 1950.86 -0.861749 1.82364 0
M  V30 21627 C 1951.18 -1.82479 0.704319 0
M  V30 21628 O 1952.38 -2.58027 0.844649 0
M  V30 21629 C 1950.84 -1.58305 3.23214 0
M  V30 21630 C 1950.45 -0.662577 4.43073 0
M  V30 21631 C 1952.19 -2.28159 3.57972 0
M  V30 21632 C 1950.1 -1.38532 5.74946 0
M  V30 21633 H 1949.03 -0.325546 0.6801 0
M  V30 21634 H 1951.68 -0.114505 1.83142 0
M  V30 21635 H 1950.06 -2.37581 3.16814 0
M  V30 21636 H 1951.23 0.0947281 4.60703 0
M  V30 21637 H 1949.55 -0.0726217 4.16337 0
M  V30 21638 H 1952.15 -2.82865 4.53753 0
M  V30 21639 H 1952.49 -3.04501 2.83874 0
M  V30 21640 H 1953.02 -1.55805 3.66019 0
M  V30 21641 H 1949.76 -0.663808 6.5213 0
M  V30 21642 H 1949.28 -2.11542 5.61258 0
M  V30 21643 H 1950.96 -1.9271 6.17634 0
M  V30 21644 N 1951.09 -1.51916 -0.419434 0
M  V30 21645 C 1952.02 -1.70735 -1.52912 0
M  V30 21646 C 1953.04 -0.587816 -1.51818 0
M  V30 21647 O 1954.23 -0.862677 -1.56269 0
M  V30 21648 C 1951.33 -1.72322 -2.91819 0
M  V30 21649 C 1950.5 -3.01148 -3.17221 0
M  V30 21650 C 1949.56 -2.94683 -4.35945 0
M  V30 21651 O 1948.58 -3.68606 -4.33726 0
M  V30 21652 N 1949.79 -2.11763 -5.40497 0
M  V30 21653 H 1952.55 -2.66468 -1.37167 0
M  V30 21654 H 1950.11 -1.50025 -0.608608 0
M  V30 21655 H 1952.1 -1.65542 -3.69294 0
M  V30 21656 H 1950.67 -0.841065 -3.01073 0
M  V30 21657 H 1949.89 -3.21657 -2.27883 0
M  V30 21658 H 1951.18 -3.8639 -3.31029 0
M  V30 21659 H 1950.58 -1.51114 -5.45143 0
M  V30 21660 H 1949.14 -2.10848 -6.16755 0
M  V30 21661 N 1952.57 0.676023 -1.42365 0
M  V30 21662 C 1953.85 1.43189 -1.33252 0
M  V30 21663 C 1954.23 2.11078 0.0306765 0
M  V30 21664 O 1953.58 2.03148 1.0461 0
M  V30 21665 C 1953.79 2.43534 -2.49984 0
M  V30 21666 C 1955.13 3.08213 -2.92044 0
M  V30 21667 O 1956.16 2.53861 -2.49866 0
M  V30 21668 O 1955.02 4.06702 -3.65042 0
M  V30 21669 H 1952.11 0.638626 -0.525438 0
M  V30 21670 H 1954.66 0.704851 -1.5437 0
M  V30 21671 H 1953.43 1.92159 -3.40867 0
M  V30 21672 H 1953.05 3.23721 -2.30847 0
M  V30 21673 N 1954.05 1.28517 0.912209 0
M  V30 21674 C 1955 1.12575 2.01483 0
M  V30 21675 C 1955.97 0.0224628 1.66085 0
M  V30 21676 O 1957.15 0.18768 1.89875 0
M  V30 21677 C 1954.29 0.795229 3.35813 0
M  V30 21678 C 1953.4 1.97772 3.84071 0
M  V30 21679 C 1952.54 1.58768 5.06918 0
M  V30 21680 C 1951.58 2.73672 5.47513 0
M  V30 21681 N 1950.71 2.3515 6.6155 0
M  V30 21682 H 1955.55 2.06918 2.1445 0
M  V30 21683 H 1953.09 1.02983 1.05037 0
M  V30 21684 H 1955.05 0.584339 4.13088 0
M  V30 21685 H 1953.68 -0.111266 3.22608 0
M  V30 21686 H 1952.73 2.30069 3.0294 0
M  V30 21687 H 1954.04 2.83913 4.10115 0
M  V30 21688 H 1953.2 1.33894 5.91741 0
M  V30 21689 H 1951.94 0.697566 4.82686 0
M  V30 21690 H 1950.94 2.99242 4.61231 0
M  V30 21691 H 1952.17 3.63328 5.73733 0
M  V30 21692 H 1950.11 1.4861 6.38945 0
M  V30 21693 H 1950.03 3.14827 6.87328 0
M  V30 21694 H 1951.3 2.13564 7.49674 0
M  V30 21695 N 1955.53 -1.12086 1.1079 0
M  V30 21696 C 1956.47 -2.20006 0.755001 0
M  V30 21697 C 1957.47 -1.67538 -0.250501 0
M  V30 21698 O 1958.67 -1.79661 -0.110486 0
M  V30 21699 H 1955.05 -0.717162 0.226237 0
M  V30 21700 H 1957.02 -2.47022 1.67399 0
M  V30 21701 C 1955.77 -3.47083 0.207038 0
M  V30 21702 H 1955.09 -3.87805 0.971991 0
M  V30 21703 H 1956.53 -4.24 -0.00177915 0
M  V30 21704 C 1954.99 -3.19753 -1.06112 0
M  V30 21705 O 1955.52 -3.39825 -2.142 0
M  V30 21706 N 1953.73 -2.73534 -0.981212 0
M  V30 21707 H 1953.27 -2.574 -0.101519 0
M  V30 21708 H 1953.23 -2.55624 -1.83041 0
M  V30 21709 N 1957 -0.897194 -1.29569 0
M  V30 21710 C 1957.95 -0.371435 -2.27792 0
M  V30 21711 C 1958.92 0.545087 -1.56901 0
M  V30 21712 O 1960.11 0.47087 -1.84899 0
M  V30 21713 C 1957.25 0.397236 -3.42806 0
M  V30 21714 C 1956.36 -0.549895 -4.28486 0
M  V30 21715 C 1955.49 0.23558 -5.30677 0
M  V30 21716 C 1954.53 -0.706236 -6.08012 0
M  V30 21717 N 1953.67 0.0446763 -7.02086 0
M  V30 21718 H 1958.51 -1.21414 -2.72145 0
M  V30 21719 H 1956.05 -0.610055 -1.33853 0
M  V30 21720 H 1958.01 0.858933 -4.08262 0
M  V30 21721 H 1956.64 1.20441 -2.99489 0
M  V30 21722 H 1955.69 -1.13011 -3.63226 0
M  V30 21723 H 1957 -1.27092 -4.82337 0
M  V30 21724 H 1956.15 0.758588 -6.01939 0
M  V30 21725 H 1954.89 0.989757 -4.77551 0
M  V30 21726 H 1953.9 -1.24077 -5.35617 0
M  V30 21727 H 1955.12 -1.4597 -6.63227 0
M  V30 21728 H 1953.07 0.781165 -6.51332 0
M  V30 21729 H 1952.99 -0.616488 -7.53482 0
M  V30 21730 H 1954.25 0.548029 -7.77571 0
M  V30 21731 N 1958.48 1.43142 -0.659413 0
M  V30 21732 C 1959.39 2.34582 0.0288714 0
M  V30 21733 C 1960.41 1.54232 0.805512 0
M  V30 21734 O 1961.58 1.8686 0.751347 0
M  V30 21735 C 1958.65 3.32587 0.97912 0
M  V30 21736 C 1957.71 4.2884 0.198725 0
M  V30 21737 C 1956.94 5.22163 1.10371 0
M  V30 21738 O 1957.17 5.20054 2.34308 0
M  V30 21739 O 1956.1 5.99168 0.572785 0
M  V30 21740 H 1959.93 2.94945 -0.723947 0
M  V30 21741 H 1957.51 1.43386 -0.419609 0
M  V30 21742 H 1959.39 3.92836 1.52505 0
M  V30 21743 H 1958.07 2.74719 1.71206 0
M  V30 21744 H 1956.98 3.72052 -0.390942 0
M  V30 21745 H 1958.31 4.89707 -0.494774 0
M  V30 21746 N 1959.96 0.40173 1.52394 0
M  V30 21747 C 1961.21 -0.177771 2.00915 0
M  V30 21748 C 1961.52 -1.46854 1.29203 0
M  V30 21749 O 1962.73 -2.12884 1.68501 0
M  V30 21750 C 1961.18 -0.367359 3.5802 0
M  V30 21751 C 1960.79 0.910882 4.38642 0
M  V30 21752 C 1962.54 -0.902552 4.14794 0
M  V30 21753 C 1960.44 0.688888 5.87374 0
M  V30 21754 H 1959.37 -0.0702091 0.750724 0
M  V30 21755 H 1962.02 0.52604 1.75798 0
M  V30 21756 H 1960.41 -1.13332 3.79436 0
M  V30 21757 H 1961.58 1.68242 4.28989 0
M  V30 21758 H 1959.9 1.37194 3.9315 0
M  V30 21759 H 1962.49 -1.08455 5.23585 0
M  V30 21760 H 1962.84 -1.87515 3.71677 0
M  V30 21761 H 1963.37 -0.19584 3.97318 0
M  V30 21762 H 1960.11 1.63284 6.34837 0
M  V30 21763 H 1959.63 -0.0434889 5.99784 0
M  V30 21764 H 1961.31 0.328207 6.46167 0
M  V30 21765 N 1961.44 -1.57047 0.131923 0
M  V30 21766 C 1962.35 -2.19545 -0.826862 0
M  V30 21767 C 1963.36 -1.17532 -1.28305 0
M  V30 21768 O 1964.54 -1.50052 -1.34337 0
M  V30 21769 C 1961.61 -2.79284 -2.0543 0
M  V30 21770 C 1960.67 -3.96375 -1.64879 0
M  V30 21771 C 1959.9 -4.53256 -2.81771 0
M  V30 21772 O 1960.12 -4.09022 -3.97564 0
M  V30 21773 O 1959.06 -5.43748 -2.58111 0
M  V30 21774 H 1962.88 -3.01957 -0.324926 0
M  V30 21775 H 1960.47 -1.49102 -0.0943495 0
M  V30 21776 H 1962.35 -3.17312 -2.77292 0
M  V30 21777 H 1961.02 -1.99895 -2.54605 0
M  V30 21778 H 1959.93 -3.63092 -0.900848 0
M  V30 21779 H 1961.26 -4.77238 -1.20434 0
M  V30 21780 N 1962.92 0.141865 -1.5696 0
M  V30 21781 C 1964.33 0.494676 -1.5174 0
M  V30 21782 C 1964.53 1.83101 -0.8412 0
M  V30 21783 O 1963.59 2.49085 -0.413886 0
M  V30 21784 C 1964.9 0.500247 -2.9651 0
M  V30 21785 C 1966.45 0.585404 -3.07477 0
M  V30 21786 C 1966.92 0.621588 -4.53762 0
M  V30 21787 N 1968.42 0.683668 -4.58127 0
M  V30 21788 C 1969.15 0.732734 -5.68699 0
M  V30 21789 N 1968.65 0.740833 -6.88828 0
M  V30 21790 N 1970.44 0.774006 -5.56745 0
M  V30 21791 H 1962.59 -0.734022 -1.99314 0
M  V30 21792 H 1964.85 -0.268231 -0.909261 0
M  V30 21793 H 1964.56 -0.413562 -3.4926 0
M  V30 21794 H 1964.43 1.33632 -3.52735 0
M  V30 21795 H 1966.82 1.48963 -2.54743 0
M  V30 21796 H 1966.9 -0.277919 -2.54286 0
M  V30 21797 H 1966.55 -0.278504 -5.07136 0
M  V30 21798 H 1966.48 1.50147 -5.04741 0
M  V30 21799 H 1968.97 0.6845 -3.71649 0
M  V30 21800 H 1969.28 0.780262 -7.68851 0
M  V30 21801 H 1967.62 0.708625 -6.91378 0
M  V30 21802 H 1970.82 0.764885 -4.61809 0
M  V30 21803 H 1970.99 0.808779 -6.42933 0
M  V30 21804 N 1964.39 1.52136 0.411372 0
M  V30 21805 C 1965.32 1.78277 1.50796 0
M  V30 21806 C 1966.31 0.633643 1.57857 0
M  V30 21807 O 1967.49 0.879011 1.73168 0
M  V30 21808 C 1964.62 1.93142 2.88641 0
M  V30 21809 C 1963.57 3.08727 2.96431 0
M  V30 21810 C 1962.9 3.08812 4.36508 0
M  V30 21811 C 1964.2 4.48228 2.68122 0
M  V30 21812 H 1965.89 2.70102 1.29171 0
M  V30 21813 H 1963.44 1.29971 0.619965 0
M  V30 21814 H 1965.39 2.10012 3.65339 0
M  V30 21815 H 1964.12 0.979869 3.11554 0
M  V30 21816 H 1962.78 2.91604 2.22177 0
M  V30 21817 H 1962.42 2.11383 4.56428 0
M  V30 21818 H 1962.12 3.86444 4.42645 0
M  V30 21819 H 1963.65 3.27809 5.15144 0
M  V30 21820 H 1965.06 4.65568 3.34544 0
M  V30 21821 H 1963.46 5.27761 2.85638 0
M  V30 21822 H 1964.53 4.56478 1.63572 0
M  V30 21823 N 1965.87 -0.668464 1.42721 0
M  V30 21824 C 1966.82 -1.78184 1.46694 0
M  V30 21825 C 1967.79 -1.63023 0.318213 0
M  V30 21826 O 1968.98 -1.83486 0.523198 0
M  V30 21827 C 1966.12 -3.16254 1.3812 0
M  V30 21828 C 1965.23 -3.42657 2.63078 0
M  V30 21829 C 1964.36 -4.7049 2.46602 0
M  V30 21830 C 1963.4 -4.89948 3.66902 0
M  V30 21831 N 1962.54 -6.09027 3.49329 0
M  V30 21832 H 1967.38 -1.74123 2.41837 0
M  V30 21833 H 1964.92 -0.849937 1.2006 0
M  V30 21834 H 1966.87 -3.96051 1.31146 0
M  V30 21835 H 1965.5 -3.19423 0.46569 0
M  V30 21836 H 1964.56 -2.57068 2.80393 0
M  V30 21837 H 1965.87 -3.52926 3.52484 0
M  V30 21838 H 1965.02 -5.58388 2.37249 0
M  V30 21839 H 1963.76 -4.62515 1.54696 0
M  V30 21840 H 1962.77 -4.0049 3.7668 0
M  V30 21841 H 1963.99 -4.99764 4.59797 0
M  V30 21842 H 1961.94 -6.02213 2.60146 0
M  V30 21843 H 1961.85 -6.20186 4.32326 0
M  V30 21844 H 1963.12 -6.99587 3.438 0
M  V30 21845 N 1967.35 -1.28999 -0.905381 0
M  V30 21846 C 1968.31 -1.13652 -1.99038 0
M  V30 21847 C 1969.31 -0.0736646 -1.60631 0
M  V30 21848 O 1970.5 -0.320139 -1.71233 0
M  V30 21849 C 1967.64 -0.736715 -3.32844 0
M  V30 21850 H 1968.83 -2.10022 -2.14081 0
M  V30 21851 H 1966.38 -1.12104 -1.08915 0
M  V30 21852 H 1967.12 0.227383 -3.23502 0
M  V30 21853 H 1966.9 -1.50459 -3.62084 0
M  V30 21854 H 1968.39 -0.65223 -4.12475 0
M  V30 21855 N 1968.83 1.11497 -1.11383 0
M  V30 21856 C 1969.74 2.21101 -0.784315 0
M  V30 21857 C 1970.76 1.72574 0.222313 0
M  V30 21858 O 1971.93 2.01315 0.058632 0
M  V30 21859 C 1969 3.45925 -0.231713 0
M  V30 21860 C 1968.06 4.09243 -1.29687 0
M  V30 21861 C 1967.29 5.28108 -0.770542 0
M  V30 21862 O 1967.51 5.68998 0.399616 0
M  V30 21863 O 1966.45 5.81996 -1.53505 0
M  V30 21864 H 1970.27 2.51699 -1.69946 0
M  V30 21865 H 1967.86 1.20022 -0.889672 0
M  V30 21866 H 1969.74 4.21338 0.0721248 0
M  V30 21867 H 1968.42 3.1698 0.656146 0
M  V30 21868 H 1967.32 3.35564 -1.65371 0
M  V30 21869 H 1968.66 4.42365 -2.1581 0
M  V30 21870 N 1970.31 0.904053 1.29092 0
M  V30 21871 C 1971.55 0.532203 1.95381 0
M  V30 21872 C 1971.88 -0.922327 1.71241 0
M  V30 21873 O 1971.14 -1.66968 1.02079 0
M  V30 21874 C 1971.44 0.776255 3.48868 0
M  V30 21875 C 1971.1 2.20882 3.93093 0
M  V30 21876 C 1969.76 2.60052 4.04878 0
M  V30 21877 C 1972.12 3.14152 4.15882 0
M  V30 21878 C 1969.44 3.91663 4.36826 0
M  V30 21879 C 1971.8 4.45317 4.49306 0
M  V30 21880 C 1970.46 4.84354 4.59301 0
M  V30 21881 H 1969.73 0.194747 0.714951 0
M  V30 21882 H 1972.38 1.14354 1.53608 0
M  V30 21883 H 1970.68 0.0820369 3.91714 0
M  V30 21884 H 1972.38 0.467861 3.98261 0
M  V30 21885 H 1968.97 1.89485 3.84439 0
M  V30 21886 H 1973.15 2.85103 4.06239 0
M  V30 21887 H 1968.41 4.21623 4.42769 0
M  V30 21888 H 1972.58 5.17611 4.65888 0
M  V30 21889 H 1970.21 5.86371 4.83811 0
M  V30 21890 N 1971.79 -1.4279 0.666995 0
M  V30 21891 C 1972.72 -2.29134 -0.0550112 0
M  V30 21892 C 1973.73 -1.43259 -0.773357 0
M  V30 21893 O 1974.92 -1.67057 -0.628816 0
M  V30 21894 C 1972.02 -3.20503 -1.1014 0
M  V30 21895 C 1971.19 -4.34991 -0.458443 0
M  V30 21896 C 1970.25 -5.07136 -1.40356 0
M  V30 21897 O 1969.28 -5.61929 -0.90686 0
M  V30 21898 N 1970.48 -5.1192 -2.73712 0
M  V30 21899 H 1973.24 -2.9174 0.686156 0
M  V30 21900 H 1970.81 -1.5363 0.510814 0
M  V30 21901 H 1972.8 -3.65634 -1.73477 0
M  V30 21902 H 1971.37 -2.59403 -1.74439 0
M  V30 21903 H 1970.59 -3.92605 0.354287 0
M  V30 21904 H 1971.88 -5.08799 -0.0101948 0
M  V30 21905 H 1971.27 -4.68799 -3.16613 0
M  V30 21906 H 1969.83 -5.60722 -3.32316 0
M  V30 21907 N 1973.26 -0.409806 -1.52179 0
M  V30 21908 C 1974.17 0.42219 -2.3077 0
M  V30 21909 C 1975.19 1.05295 -1.38524 0
M  V30 21910 O 1976.37 1.05432 -1.71599 0
M  V30 21911 C 1973.43 1.52345 -3.11435 0
M  V30 21912 C 1972.49 0.91568 -4.19421 0
M  V30 21913 C 1971.72 1.96446 -4.9623 0
M  V30 21914 O 1971.95 3.18271 -4.7335 0
M  V30 21915 O 1970.88 1.57032 -5.81055 0
M  V30 21916 H 1974.71 -0.218635 -3.02912 0
M  V30 21917 H 1972.29 -0.172994 -1.48395 0
M  V30 21918 H 1974.17 2.16276 -3.61666 0
M  V30 21919 H 1972.85 2.14886 -2.42086 0
M  V30 21920 H 1971.76 0.239064 -3.73335 0
M  V30 21921 H 1973.09 0.33418 -4.91064 0
M  V30 21922 N 1974.74 1.56975 -0.14025 0
M  V30 21923 C 1975.65 2.19981 0.815207 0
M  V30 21924 C 1976.67 1.18211 1.2768 0
M  V30 21925 O 1977.84 1.50762 1.33539 0
M  V30 21926 C 1974.91 2.80369 2.03946 0
M  V30 21927 C 1973.97 3.97244 1.62774 0
M  V30 21928 C 1973.2 4.54744 2.79363 0
M  V30 21929 O 1973.43 4.11124 3.9539 0
M  V30 21930 O 1972.36 5.45109 2.55224 0
M  V30 21931 H 1976.19 3.02125 0.308908 0
M  V30 21932 H 1973.77 1.4915 0.0864409 0
M  V30 21933 H 1975.65 3.18778 2.75606 0
M  V30 21934 H 1974.33 2.01243 2.53541 0
M  V30 21935 H 1973.23 3.63564 0.88158 0
M  V30 21936 H 1974.57 4.7787 1.17901 0
M  V30 21937 N 1976.22 -0.133539 1.57033 0
M  V30 21938 C 1977.18 -1.14845 1.98351 0
M  V30 21939 C 1978.18 -1.3512 0.871734 0
M  V30 21940 O 1979.37 -1.31884 1.13808 0
M  V30 21941 C 1976.5 -2.506 2.31111 0
M  V30 21942 H 1977.7 -0.793667 2.89207 0
M  V30 21943 H 1975.25 -0.377348 1.51677 0
M  V30 21944 H 1975.99 -2.91026 1.43089 0
M  V30 21945 H 1975.77 -2.37242 3.12184 0
M  V30 21946 H 1977.26 -3.23672 2.63868 0
M  V30 21947 N 1977.7 -1.52352 -0.403298 0
M  V30 21948 C 1978.64 -1.76112 -1.49175 0
M  V30 21949 C 1979.61 -0.603767 -1.54738 0
M  V30 21950 O 1980.8 -0.841951 -1.71219 0
M  V30 21951 C 1977.94 -1.92292 -2.86562 0
M  V30 21952 C 1977.05 -3.19955 -2.90263 0
M  V30 21953 C 1976.19 -3.26534 -4.18986 0
M  V30 21954 C 1975.23 -4.48376 -4.16684 0
M  V30 21955 N 1974.36 -4.52315 -5.36988 0
M  V30 21956 H 1979.2 -2.69006 -1.28217 0
M  V30 21957 H 1976.74 -1.3329 -0.622266 0
M  V30 21958 H 1978.7 -1.99657 -3.66324 0
M  V30 21959 H 1977.33 -1.02772 -3.06003 0
M  V30 21960 H 1976.38 -3.21733 -2.02958 0
M  V30 21961 H 1977.69 -4.09759 -2.84428 0
M  V30 21962 H 1976.85 -3.33003 -5.07143 0
M  V30 21963 H 1975.59 -2.34679 -4.27524 0
M  V30 21964 H 1974.59 -4.42048 -3.26916 0
M  V30 21965 H 1975.82 -5.41532 -4.0978 0
M  V30 21966 H 1973.76 -3.63346 -5.46183 0
M  V30 21967 H 1973.68 -5.35971 -5.3317 0
M  V30 21968 H 1974.95 -4.6302 -6.27082 0
M  V30 21969 N 1979.18 0.660885 -1.43074 0
M  V30 21970 C 1980.59 0.97566 -1.26305 0
M  V30 21971 C 1980.79 2.00719 -0.17724 0
M  V30 21972 O 1979.85 2.48514 0.446896 0
M  V30 21973 C 1981.16 1.46722 -2.62475 0
M  V30 21974 C 1982.71 1.58427 -2.69944 0
M  V30 21975 C 1983.18 2.10976 -4.06514 0
M  V30 21976 N 1984.67 2.18289 -4.08539 0
M  V30 21977 C 1985.41 2.60054 -5.11038 0
M  V30 21978 N 1984.91 3.01171 -6.23913 0
M  V30 21979 N 1986.7 2.59926 -4.98392 0
M  V30 21980 H 1978.85 -0.02183 -2.12389 0
M  V30 21981 H 1981.11 0.0527972 -0.946529 0
M  V30 21982 H 1980.82 0.783712 -3.42857 0
M  V30 21983 H 1980.69 2.44359 -2.87348 0
M  V30 21984 H 1983.08 2.25881 -1.899 0
M  V30 21985 H 1983.16 0.592433 -2.48845 0
M  V30 21986 H 1982.8 1.44126 -4.87022 0
M  V30 21987 H 1982.73 3.10976 -4.24972 0
M  V30 21988 H 1985.23 1.89317 -3.27059 0
M  V30 21989 H 1985.54 3.31766 -6.97962 0
M  V30 21990 H 1983.88 2.98994 -6.27398 0
M  V30 21991 H 1987.07 2.27175 -4.09279 0
M  V30 21992 H 1987.25 2.92154 -5.78403 0
M  V30 21993 N 1980.65 1.29477 0.898527 0
M  V30 21994 C 1982.07 1.07514 1.17953 0
M  V30 21995 C 1982.27 -0.172814 2.00758 0
M  V30 21996 O 1981.33 -0.87025 2.37029 0
M  V30 21997 C 1982.64 2.33121 1.89934 0
M  V30 21998 C 1984.19 2.38452 2.02755 0
M  V30 21999 C 1984.66 3.63866 2.78146 0
M  V30 22000 N 1986.15 3.64595 2.857 0
M  V30 22001 C 1986.89 4.58319 3.44574 0
M  V30 22002 N 1986.38 5.62376 4.04605 0
M  V30 22003 N 1988.18 4.45887 3.42259 0
M  V30 22004 H 1980.33 2.09562 0.346076 0
M  V30 22005 H 1982.59 0.923108 0.215814 0
M  V30 22006 H 1982.3 3.2412 1.36526 0
M  V30 22007 H 1982.17 2.40721 2.90402 0
M  V30 22008 H 1984.56 1.47941 2.55338 0
M  V30 22009 H 1984.64 2.34837 1.01416 0
M  V30 22010 H 1984.28 4.54729 2.26239 0
M  V30 22011 H 1984.21 3.6474 3.79832 0
M  V30 22012 H 1986.7 2.89358 2.43064 0
M  V30 22013 H 1987.02 6.30012 4.47555 0
M  V30 22014 H 1985.36 5.66184 4.03064 0
M  V30 22015 H 1988.55 3.63786 2.9458 0
M  V30 22016 H 1988.73 5.19113 3.87848 0
M  V30 22017 N 1982.13 -1.10905 1.11972 0
M  V30 22018 C 1983.38 -1.83223 0.88323 0
M  V30 22019 C 1983.73 -1.83299 -0.584758 0
M  V30 22020 O 1983.03 -1.27913 -1.4265 0
M  V30 22021 C 1983.22 -3.29439 1.38581 0
M  V30 22022 C 1983.05 -3.43605 2.90113 0
M  V30 22023 C 1981.82 -3.56303 3.58296 0
M  V30 22024 C 1984.02 -3.37421 3.88139 0
M  V30 22025 N 1982 -3.58997 4.97991 0
M  V30 22026 C 1983.37 -3.46801 5.13935 0
M  V30 22027 C 1985.43 -3.20988 3.80619 0
M  V30 22028 C 1984.13 -3.41443 6.33095 0
M  V30 22029 C 1986.15 -3.16949 4.99297 0
M  V30 22030 C 1985.52 -3.26906 6.23948 0
M  V30 22031 H 1981.62 -0.685448 0.376411 0
M  V30 22032 H 1984.2 -1.32659 1.42512 0
M  V30 22033 H 1982.37 -3.78507 0.871038 0
M  V30 22034 H 1984.1 -3.89692 1.09189 0
M  V30 22035 H 1980.86 -3.59102 3.08776 0
M  V30 22036 H 1981.28 -3.63967 5.70839 0
M  V30 22037 H 1985.92 -3.12171 2.85147 0
M  V30 22038 H 1983.64 -3.49026 7.28839 0
M  V30 22039 H 1987.23 -3.05393 4.95204 0
M  V30 22040 H 1986.11 -3.23777 7.14239 0
M  V30 22041 N 1983.61 -0.910886 -1.2861 0
M  V30 22042 C 1984.52 -0.402088 -2.31129 0
M  V30 22043 C 1985.54 0.508811 -1.66394 0
M  V30 22044 O 1986.71 0.395691 -1.97475 0
M  V30 22045 C 1983.78 0.352182 -3.44907 0
M  V30 22046 C 1982.84 -0.59159 -4.25204 0
M  V30 22047 C 1982.07 0.126778 -5.33549 0
M  V30 22048 O 1982.29 1.34897 -5.54219 0
M  V30 22049 O 1981.23 -0.536442 -5.99505 0
M  V30 22050 H 1985.05 -1.25289 -2.76652 0
M  V30 22051 H 1982.64 -0.675604 -1.33251 0
M  V30 22052 H 1984.52 0.778285 -4.14151 0
M  V30 22053 H 1983.2 1.17886 -3.01471 0
M  V30 22054 H 1982.1 -1.06703 -3.5856 0
M  V30 22055 H 1983.44 -1.38501 -4.72312 0
M  V30 22056 N 1985.09 1.42434 -0.674558 0
M  V30 22057 C 1986.32 2.05582 -0.204816 0
M  V30 22058 C 1986.73 1.50768 1.14305 0
M  V30 22059 O 1986.07 0.642132 1.72111 0
M  V30 22060 C 1986.13 3.59446 -0.0621889 0
M  V30 22061 C 1985.8 4.36952 -1.33873 0
M  V30 22062 C 1986.79 4.67621 -2.27215 0
M  V30 22063 C 1984.48 4.76595 -1.58626 0
M  V30 22064 C 1986.47 5.36868 -3.43586 0
M  V30 22065 C 1984.16 5.45583 -2.75287 0
M  V30 22066 C 1985.16 5.75644 -3.6759 0
M  V30 22067 O 1984.84 6.43217 -4.8221 0
M  V30 22068 H 1984.58 0.668974 -0.0972083 0
M  V30 22069 H 1987.13 1.83563 -0.92161 0
M  V30 22070 H 1985.36 3.80123 0.710183 0
M  V30 22071 H 1987.05 4.04232 0.367648 0
M  V30 22072 H 1987.82 4.37494 -2.09341 0
M  V30 22073 H 1983.69 4.5259 -0.876522 0
M  V30 22074 H 1987.24 5.6025 -4.15651 0
M  V30 22075 H 1983.14 5.75127 -2.93086 0
M  V30 22076 H 1983.9 6.61708 -4.81752 0
M  V30 22077 N 1986.57 0.417871 1.51959 0
M  V30 22078 C 1987.48 -0.409946 2.3099 0
M  V30 22079 C 1988.49 -1.04559 1.39081 0
M  V30 22080 O 1989.67 -1.0452 1.72155 0
M  V30 22081 C 1986.73 -1.50691 3.12239 0
M  V30 22082 C 1985.79 -0.893424 4.199 0
M  V30 22083 C 1985.03 -1.93812 4.97265 0
M  V30 22084 O 1985.25 -3.15756 4.75031 0
M  V30 22085 O 1984.18 -1.53948 5.81879 0
M  V30 22086 H 1988.01 0.234696 3.02792 0
M  V30 22087 H 1985.6 0.180861 1.48301 0
M  V30 22088 H 1987.48 -2.14355 3.62808 0
M  V30 22089 H 1986.15 -2.136 2.43222 0
M  V30 22090 H 1985.06 -0.219262 3.73457 0
M  V30 22091 H 1986.39 -0.308133 4.91235 0
M  V30 22092 N 1988.04 -1.56898 0.148573 0
M  V30 22093 C 1988.99 -2.1813 -0.807596 0
M  V30 22094 C 1989.99 -1.13875 -1.25415 0
M  V30 22095 O 1991.19 -1.32122 -1.22245 0
M  V30 22096 H 1987.57 -0.698471 -0.278644 0
M  V30 22097 H 1989.54 -2.97203 -0.266972 0
M  V30 22098 C 1988.29 -2.81852 -2.03604 0
M  V30 22099 H 1987.61 -3.6179 -1.70141 0
M  V30 22100 H 1989.05 -3.28196 -2.68446 0
M  V30 22101 C 1987.51 -1.80441 -2.84504 0
M  V30 22102 O 1988.04 -1.27584 -3.809 0
M  V30 22103 N 1986.25 -1.49709 -2.49069 0
M  V30 22104 H 1985.79 -1.92884 -1.70744 0
M  V30 22105 H 1985.75 -0.821041 -3.0349 0
M  V30 22106 N 1989.52 0.125209 -1.57102 0
M  V30 22107 C 1990.43 1.17286 -2.03177 0
M  V30 22108 C 1991.45 1.4571 -0.951035 0
M  V30 22109 O 1992.62 1.56949 -1.2621 0
M  V30 22110 C 1989.69 2.4811 -2.42161 0
M  V30 22111 C 1988.75 2.2714 -3.64288 0
M  V30 22112 C 1987.98 3.51726 -4.01404 0
M  V30 22113 O 1988.21 4.58785 -3.38929 0
M  V30 22114 O 1987.14 3.43096 -4.94539 0
M  V30 22115 H 1990.97 0.811619 -2.92654 0
M  V30 22116 H 1988.55 0.335551 -1.45583 0
M  V30 22117 H 1990.43 3.252 -2.67998 0
M  V30 22118 H 1989.11 2.83721 -1.55833 0
M  V30 22119 H 1988.02 1.47929 -3.4361 0
M  V30 22120 H 1989.35 1.96435 -4.51303 0
M  V30 22121 N 1991 1.52564 0.395213 0
M  V30 22122 C 1991.93 1.79867 1.48897 0
M  V30 22123 C 1992.91 0.650351 1.57176 0
M  V30 22124 O 1994.1 0.897328 1.72226 0
M  V30 22125 C 1991.23 1.96192 2.86576 0
M  V30 22126 C 1990.18 3.11854 2.9314 0
M  V30 22127 C 1989.51 3.13424 4.33208 0
M  V30 22128 C 1990.81 4.51046 2.63353 0
M  V30 22129 H 1992.5 2.71457 1.26299 0
M  V30 22130 H 1990.05 1.30621 0.606145 0
M  V30 22131 H 1992 2.13875 3.63091 0
M  V30 22132 H 1990.72 1.01286 3.10498 0
M  V30 22133 H 1989.38 2.93944 2.19072 0
M  V30 22134 H 1989.03 2.16212 4.5416 0
M  V30 22135 H 1988.73 3.91117 4.38522 0
M  V30 22136 H 1990.25 3.33254 5.11639 0
M  V30 22137 H 1991.67 4.6909 3.29587 0
M  V30 22138 H 1990.07 5.3076 2.80024 0
M  V30 22139 H 1991.14 4.58187 1.58722 0
M  V30 22140 N 1992.48 -0.653289 1.43422 0
M  V30 22141 C 1993.7 -1.4459 1.4869 0
M  V30 22142 C 1994.13 -1.87801 0.10599 0
M  V30 22143 O 1993.49 -1.5737 -0.90025 0
M  V30 22144 C 1993.53 -2.65713 2.43781 0
M  V30 22145 O 1992.64 -3.64767 1.92402 0
M  V30 22146 H 1991.98 -0.433532 0.502938 0
M  V30 22147 H 1994.51 -0.799423 1.88336 0
M  V30 22148 H 1994.52 -3.13528 2.61082 0
M  V30 22149 H 1993.19 -2.33604 3.44096 0
M  V30 22150 H 1991.77 -3.2391 1.84761 0
M  V30 22151 N 1993.96 -1.29952 -0.891648 0
M  V30 22152 C 1994.9 -1.15767 -1.99667 0
M  V30 22153 C 1995.87 -0.0488826 -1.66028 0
M  V30 22154 O 1997.06 -0.217864 -1.89552 0
M  V30 22155 C 1994.2 -0.848553 -3.34505 0
M  V30 22156 C 1993.31 -2.03857 -3.80876 0
M  V30 22157 C 1992.45 -1.66812 -5.04328 0
M  V30 22158 C 1991.49 -2.82348 -5.4309 0
M  V30 22159 N 1990.62 -2.45645 -6.57726 0
M  V30 22160 H 1995.46 -2.10304 -2.11131 0
M  V30 22161 H 1993 -1.04641 -1.03386 0
M  V30 22162 H 1994.96 -0.649983 -4.12106 0
M  V30 22163 H 1993.59 0.059928 -3.22744 0
M  V30 22164 H 1992.64 -2.34859 -2.99241 0
M  V30 22165 H 1993.95 -2.90402 -4.05547 0
M  V30 22166 H 1993.11 -1.43291 -5.89536 0
M  V30 22167 H 1991.84 -0.774269 -4.81515 0
M  V30 22168 H 1990.85 -3.06542 -4.56412 0
M  V30 22169 H 1992.07 -3.72409 -5.6788 0
M  V30 22170 H 1990.02 -1.58757 -6.365 0
M  V30 22171 H 1989.94 -3.25722 -6.82232 0
M  V30 22172 H 1991.21 -2.25463 -7.46181 0
M  V30 22173 N 1995.44 1.1031 -1.12559 0
M  V30 22174 C 1996.68 1.82567 -0.883005 0
M  V30 22175 C 1997.01 1.85031 0.589667 0
M  V30 22176 O 1996.29 1.3119 1.43595 0
M  V30 22177 C 1996.57 3.29171 -1.46009 0
M  V30 22178 C 1996.43 3.35032 -3.00122 0
M  V30 22179 C 1997.74 4.25591 -1.12073 0
M  V30 22180 H 1994.86 0.662829 -0.322221 0
M  V30 22181 H 1997.51 1.29276 -1.3924 0
M  V30 22182 H 1995.66 3.74684 -1.02685 0
M  V30 22183 H 1997.33 2.9799 -3.52135 0
M  V30 22184 H 1995.57 2.74892 -3.35584 0
M  V30 22185 H 1996.24 4.3827 -3.35595 0
M  V30 22186 H 1998.72 3.88318 -1.49494 0
M  V30 22187 H 1997.59 5.26528 -1.55112 0
M  V30 22188 H 1997.85 4.42088 -0.0331138 0
M  V30 22189 N 1996.91 0.917694 1.28125 0
M  V30 22190 C 1998.33 0.616431 1.47215 0
M  V30 22191 C 1998.53 -0.837161 1.83286 0
M  V30 22192 O 1997.59 -1.61591 1.94022 0
M  V30 22193 C 1998.9 1.55772 2.57207 0
M  V30 22194 C 2000.45 1.56486 2.71074 0
M  V30 22195 C 2000.92 2.49286 3.84214 0
M  V30 22196 N 2002.41 2.47436 3.91573 0
M  V30 22197 C 2003.15 3.15936 4.7851 0
M  V30 22198 N 2002.64 3.9378 5.70008 0
M  V30 22199 N 2004.44 3.05004 4.72154 0
M  V30 22200 H 1996.59 1.85758 1.02993 0
M  V30 22201 H 1998.85 0.796969 0.513366 0
M  V30 22202 H 1998.56 2.59423 2.37471 0
M  V30 22203 H 1998.43 1.2918 3.5439 0
M  V30 22204 H 2000.82 0.535708 2.90197 0
M  V30 22205 H 2000.9 1.87122 1.7441 0
M  V30 22206 H 2000.54 3.52306 3.65846 0
M  V30 22207 H 2000.47 2.1595 4.80284 0
M  V30 22208 H 2002.96 1.90893 3.26141 0
M  V30 22209 H 2003.28 4.43058 6.33182 0
M  V30 22210 H 2001.62 3.97885 5.69836 0
M  V30 22211 H 2004.81 2.4369 3.99666 0
M  V30 22212 H 2004.99 3.5866 5.39691 0
M  V30 22213 N 1998.39 -1.42074 0.682102 0
M  V30 22214 C 1999.34 -2.326 -0.00324978 0
M  V30 22215 C 2000.33 -1.50226 -0.782851 0
M  V30 22216 O 2001.54 -1.6625 -0.689991 0
M  V30 22217 H 1997.91 -0.751738 -0.0198484 0
M  V30 22218 H 1999.89 -2.88093 0.777513 0
M  V30 22219 C 1998.63 -3.3488 -0.935455 0
M  V30 22220 H 1997.96 -3.98309 -0.344986 0
M  V30 22221 H 1999.4 -4.00791 -1.38355 0
M  V30 22222 C 1997.86 -2.67711 -2.0453 0
M  V30 22223 O 1998.39 -2.5146 -3.13258 0
M  V30 22224 N 1996.59 -2.2662 -1.81912 0
M  V30 22225 H 1996.14 -2.40037 -0.934876 0
M  V30 22226 H 1996.1 -1.82011 -2.56358 0
M  V30 22227 N 1999.87 -0.425924 -1.51735 0
M  V30 22228 C 2000.82 0.405756 -2.29034 0
M  V30 22229 C 2001.81 1.03103 -1.3441 0
M  V30 22230 O 2003.02 0.967304 -1.518 0
M  V30 22231 H 1999.39 0.149651 -0.736959 0
M  V30 22232 H 2001.36 -0.267185 -2.97201 0
M  V30 22233 C 2000.11 1.50091 -3.13637 0
M  V30 22234 H 1999.44 1.02912 -3.86328 0
M  V30 22235 H 2000.88 2.05632 -3.70799 0
M  V30 22236 C 1999.33 2.47775 -2.28274 0
M  V30 22237 O 1999.86 3.52051 -1.9345 0
M  V30 22238 N 1998.07 2.18387 -1.91717 0
M  V30 22239 H 1997.62 1.3362 -2.20235 0
M  V30 22240 H 1997.58 2.83989 -1.34897 0
M  V30 22241 N 2001.35 1.56817 -0.156891 0
M  V30 22242 C 2002.58 2.00516 0.497682 0
M  V30 22243 C 2002.99 1.03609 1.58309 0
M  V30 22244 O 2002.33 0.0266573 1.83681 0
M  V30 22245 C 2002.39 3.40648 1.14888 0
M  V30 22246 C 2002.05 4.56531 0.206879 0
M  V30 22247 C 2003.05 5.16774 -0.569267 0
M  V30 22248 C 2000.74 5.02186 0.106904 0
M  V30 22249 C 2002.73 6.21089 -1.43274 0
M  V30 22250 C 2000.42 6.06354 -0.760162 0
M  V30 22251 C 2001.42 6.65675 -1.52858 0
M  V30 22252 O 2001.1 7.67825 -2.38118 0
M  V30 22253 H 2000.84 0.662754 0.133164 0
M  V30 22254 H 2003.39 2.03855 -0.251425 0
M  V30 22255 H 2001.62 3.34177 1.94583 0
M  V30 22256 H 2003.31 3.68391 1.70419 0
M  V30 22257 H 2004.07 4.82394 -0.502119 0
M  V30 22258 H 1999.95 4.55735 0.694764 0
M  V30 22259 H 2003.5 6.6732 -2.03298 0
M  V30 22260 H 1999.39 6.4016 -0.828566 0
M  V30 22261 H 2000.16 7.85087 -2.31475 0
M  V30 22262 N 2002.83 -0.116876 1.57166 0
M  V30 22263 C 2004.1 -0.854715 1.75937 0
M  V30 22264 C 2004.48 -1.97969 0.732908 0
M  V30 22265 O 2003.83 -2.27207 -0.242738 0
M  V30 22266 C 2004.04 -1.36944 3.2101 0
M  V30 22267 C 2005.39 -1.82093 3.83572 0
M  V30 22268 O 2006.41 -1.46618 3.24625 0
M  V30 22269 O 2005.27 -2.47614 4.87186 0
M  V30 22270 H 2002.37 -0.40605 0.720453 0
M  V30 22271 H 2004.91 -0.100451 1.69402 0
M  V30 22272 H 2003.68 -0.56241 3.87237 0
M  V30 22273 H 2003.31 -2.18635 3.32091 0
M  V30 22274 N 2004.3 -1.52772 -0.387116 0
M  V30 22275 C 2005.21 -1.8061 -1.49724 0
M  V30 22276 C 2006.23 -0.692981 -1.59605 0
M  V30 22277 O 2007.41 -0.98077 -1.75906 0
M  V30 22278 C 2004.47 -1.97083 -2.85236 0
M  V30 22279 C 2003.53 -3.20997 -2.8506 0
M  V30 22280 C 2002.76 -3.36675 -4.14108 0
M  V30 22281 O 2002.99 -2.57118 -5.09163 0
M  V30 22282 O 2001.92 -4.29938 -4.21233 0
M  V30 22283 H 2005.75 -2.7488 -1.2913 0
M  V30 22284 H 2003.33 -1.37886 -0.57514 0
M  V30 22285 H 2005.21 -2.09614 -3.65568 0
M  V30 22286 H 2003.89 -1.06002 -3.05852 0
M  V30 22287 H 2002.8 -3.13907 -2.03503 0
M  V30 22288 H 2004.13 -4.1193 -2.69396 0
M  V30 22289 N 2005.78 0.645673 -1.43767 0
M  V30 22290 C 2006.69 1.78723 -1.51972 0
M  V30 22291 C 2007.71 1.6919 -0.406299 0
M  V30 22292 O 2008.88 1.90225 -0.661534 0
M  V30 22293 C 2005.95 3.1504 -1.44744 0
M  V30 22294 C 2005.01 3.36313 -2.66818 0
M  V30 22295 C 2004.24 4.66127 -2.59926 0
M  V30 22296 O 2004.47 5.45978 -1.65118 0
M  V30 22297 O 2003.4 4.89285 -3.50548 0
M  V30 22298 H 2007.23 1.74755 -2.48384 0
M  V30 22299 H 2004.81 0.805097 -1.25851 0
M  V30 22300 H 2006.69 3.96329 -1.43182 0
M  V30 22301 H 2005.37 3.19582 -0.514693 0
M  V30 22302 H 2004.27 2.54759 -2.7395 0
M  V30 22303 H 2005.61 3.36623 -3.5909 0
M  V30 22304 N 2007.26 1.30423 0.884744 0
M  V30 22305 C 2008.51 1.18625 1.63129 0
M  V30 22306 C 2008.82 -0.257953 1.93892 0
M  V30 22307 O 2010.03 -0.497448 2.66904 0
M  V30 22308 C 2008.48 2.0757 2.94011 0
M  V30 22309 C 2008.09 3.569 2.70788 0
M  V30 22310 C 2009.84 2.04535 3.71975 0
M  V30 22311 C 2007.74 4.37901 3.97488 0
M  V30 22312 H 2006.67 0.440391 0.612023 0
M  V30 22313 H 2009.32 1.55172 0.979478 0
M  V30 22314 H 2007.71 1.63905 3.60487 0
M  V30 22315 H 2008.88 4.08715 2.12812 0
M  V30 22316 H 2007.19 3.61761 2.06199 0
M  V30 22317 H 2009.79 2.62305 4.6594 0
M  V30 22318 H 2010.13 1.02888 4.03385 0
M  V30 22319 H 2010.67 2.46322 3.12362 0
M  V30 22320 H 2007.41 5.40244 3.71236 0
M  V30 22321 H 2006.93 3.9085 4.54968 0
M  V30 22322 H 2008.61 4.49347 4.65506 0
M  V30 22323 N 2008.74 -1.09711 1.13142 0
M  V30 22324 C 2009.99 -1.81198 0.886021 0
M  V30 22325 C 2010.3 -1.86501 -0.589624 0
M  V30 22326 O 2011.51 -2.54267 -0.951866 0
M  V30 22327 C 2009.96 -3.25498 1.53554 0
M  V30 22328 C 2009.57 -3.2847 3.0465 0
M  V30 22329 C 2011.31 -4.01761 1.37072 0
M  V30 22330 C 2009.22 -4.67276 3.62501 0
M  V30 22331 H 2008.15 -0.679005 0.327824 0
M  V30 22332 H 2010.8 -1.23325 1.35879 0
M  V30 22333 H 2009.18 -3.83414 0.990434 0
M  V30 22334 H 2010.36 -2.80336 3.65716 0
M  V30 22335 H 2008.67 -2.65697 3.20615 0
M  V30 22336 H 2011.27 -5.04306 1.77707 0
M  V30 22337 H 2011.61 -4.15105 0.315226 0
M  V30 22338 H 2012.15 -3.50279 1.88545 0
M  V30 22339 H 2008.88 -4.59133 4.67843 0
M  V30 22340 H 2008.4 -5.15746 3.06212 0
M  V30 22341 H 2010.08 -5.36249 3.62002 0
M  V30 22342 N 2010.22 -0.924476 -1.27637 0
M  V30 22343 C 2011.44 -0.57884 -1.99159 0
M  V30 22344 C 2011.87 0.83532 -1.68535 0
M  V30 22345 O 2011.22 1.55999 -0.92379 0
M  V30 22346 C 2011.27 -0.807508 -3.51442 0
M  V30 22347 O 2010.38 0.128443 -4.122 0
M  V30 22348 H 2009.72 -0.223218 -0.625356 0
M  V30 22349 H 2012.25 -1.24285 -1.62525 0
M  V30 22350 H 2012.26 -0.721808 -4.01564 0
M  V30 22351 H 2010.93 -1.83836 -3.73064 0
M  V30 22352 H 2009.51 -0.00689785 -3.72899 0
M  V30 22353 N 2011.69 1.41711 -0.689627 0
M  V30 22354 C 2012.62 2.33474 -0.0348045 0
M  V30 22355 C 2013.61 1.51494 0.773533 0
M  V30 22356 O 2014.79 1.8005 0.727705 0
M  V30 22357 C 2011.92 3.35259 0.906573 0
M  V30 22358 C 2010.87 4.27505 0.205762 0
M  V30 22359 C 2010.2 5.19616 1.26109 0
M  V30 22360 C 2011.5 5.14056 -0.92431 0
M  V30 22361 H 2013.19 2.88481 -0.801208 0
M  V30 22362 H 2010.74 1.3871 -0.386738 0
M  V30 22363 H 2012.69 3.98375 1.37386 0
M  V30 22364 H 2011.42 2.78589 1.70457 0
M  V30 22365 H 2010.08 3.65804 -0.241437 0
M  V30 22366 H 2009.72 4.59264 2.05147 0
M  V30 22367 H 2009.42 5.82167 0.797221 0
M  V30 22368 H 2010.95 5.85609 1.72901 0
M  V30 22369 H 2012.36 5.70774 -0.537573 0
M  V30 22370 H 2010.76 5.85517 -1.3149 0
M  V30 22371 H 2011.83 4.51574 -1.7666 0
M  V30 22372 N 2013.17 0.433965 1.51507 0
M  V30 22373 C 2014.12 -0.37918 2.27664 0
M  V30 22374 C 2015.09 -1.01975 1.31112 0
M  V30 22375 O 2016.27 -1.0393 1.6001 0
M  V30 22376 C 2013.41 -1.47628 3.1193 0
M  V30 22377 C 2012.53 -0.854176 4.23471 0
M  V30 22378 C 2011.66 -1.92604 4.95053 0
M  V30 22379 C 2010.7 -1.28219 5.9852 0
M  V30 22380 N 2009.84 -2.29527 6.63522 0
M  V30 22381 H 2014.68 0.276629 2.96713 0
M  V30 22382 H 2012.22 0.148264 1.46351 0
M  V30 22383 H 2014.17 -2.1236 3.59109 0
M  V30 22384 H 2012.8 -2.10176 2.45002 0
M  V30 22385 H 2011.86 -0.0952329 3.80281 0
M  V30 22386 H 2013.17 -0.344086 4.97612 0
M  V30 22387 H 2012.32 -2.65006 5.45762 0
M  V30 22388 H 2011.06 -2.46985 4.20535 0
M  V30 22389 H 2010.07 -0.543619 5.47106 0
M  V30 22390 H 2011.29 -0.745758 6.74993 0
M  V30 22391 H 2009.24 -2.82995 5.91819 0
M  V30 22392 H 2009.15 -1.834 7.33417 0
M  V30 22393 H 2010.42 -3.01423 7.18863 0
M  V30 22394 N 2014.65 -1.56732 0.165206 0
M  V30 22395 C 2015.6 -2.18974 -0.784415 0
M  V30 22396 C 2016.59 -1.15199 -1.242 0
M  V30 22397 O 2017.8 -1.33411 -1.20837 0
M  V30 22398 H 2014.17 -0.701387 -0.27122 0
M  V30 22399 H 2016.14 -2.9747 -0.235435 0
M  V30 22400 C 2014.89 -2.83996 -2.00603 0
M  V30 22401 H 2014.22 -3.63574 -1.66295 0
M  V30 22402 H 2015.66 -3.31025 -2.6495 0
M  V30 22403 C 2014.12 -1.83448 -2.82574 0
M  V30 22404 O 2014.65 -1.31617 -3.79526 0
M  V30 22405 N 2012.85 -1.52342 -2.47468 0
M  V30 22406 H 2012.4 -1.94684 -1.68689 0
M  V30 22407 H 2012.36 -0.853184 -3.02602 0
M  V30 22408 N 2016.13 0.10854 -1.57226 0
M  V30 22409 C 2017.06 1.15853 -1.97764 0
M  V30 22410 C 2018.07 1.37073 -0.878345 0
M  V30 22411 O 2019.26 1.35963 -1.15657 0
M  V30 22412 C 2016.36 2.51663 -2.26978 0
M  V30 22413 C 2015.54 2.50904 -3.58282 0
M  V30 22414 C 2014.59 3.68538 -3.75588 0
M  V30 22415 O 2013.62 3.51644 -4.47588 0
M  V30 22416 N 2014.82 4.87507 -3.15146 0
M  V30 22417 H 2017.59 0.81361 -2.88445 0
M  V30 22418 H 2015.15 0.29769 -1.5914 0
M  V30 22419 H 2017.14 3.28936 -2.35761 0
M  V30 22420 H 2015.71 2.78297 -1.42372 0
M  V30 22421 H 2014.93 1.59271 -3.60592 0
M  V30 22422 H 2016.22 2.47463 -4.44567 0
M  V30 22423 H 2015.62 5.04137 -2.56637 0
M  V30 22424 H 2014.17 5.6242 -3.29434 0
M  V30 22425 N 2017.61 1.52975 0.379009 0
M  V30 22426 C 2018.85 1.68505 1.12304 0
M  V30 22427 C 2019.18 0.430012 1.89687 0
M  V30 22428 O 2018.44 -0.587809 1.86664 0
M  V30 22429 C 2018.74 2.8776 2.11964 0
M  V30 22430 C 2018.4 4.24806 1.51163 0
M  V30 22431 C 2017.06 4.62077 1.34308 0
M  V30 22432 C 2019.42 5.10087 1.07053 0
M  V30 22433 C 2016.74 5.82277 0.719058 0
M  V30 22434 C 2019.1 6.30921 0.460559 0
M  V30 22435 C 2017.76 6.66915 0.279391 0
M  V30 22436 H 2017.03 0.616604 0.41095 0
M  V30 22437 H 2019.68 1.87137 0.406443 0
M  V30 22438 H 2017.98 2.63586 2.89879 0
M  V30 22439 H 2019.68 2.96971 2.69461 0
M  V30 22440 H 2016.27 3.95453 1.65272 0
M  V30 22441 H 2020.45 4.81854 1.18872 0
M  V30 22442 H 2015.71 6.08765 0.566983 0
M  V30 22443 H 2019.88 6.96312 0.110504 0
M  V30 22444 H 2017.51 7.5992 -0.206228 0
M  V30 22445 N 2019.08 -0.63804 1.44107 0
M  V30 22446 C 2019.99 -1.77914 1.52917 0
M  V30 22447 C 2021.01 -1.68972 0.415266 0
M  V30 22448 O 2022.19 -1.89872 0.671613 0
M  V30 22449 C 2019.25 -3.14268 1.46412 0
M  V30 22450 C 2018.31 -3.34893 2.68598 0
M  V30 22451 C 2017.55 -4.64742 2.62394 0
M  V30 22452 O 2017.77 -5.45095 1.68011 0
M  V30 22453 O 2016.7 -4.87419 3.53138 0
M  V30 22454 H 2020.53 -1.73435 2.49307 0
M  V30 22455 H 2018.11 -0.798412 1.26276 0
M  V30 22456 H 2020 -3.95564 1.45282 0
M  V30 22457 H 2018.67 -3.19304 0.531634 0
M  V30 22458 H 2017.58 -2.53302 2.75297 0
M  V30 22459 H 2018.91 -3.34714 3.6087 0
M  V30 22460 N 2020.56 -1.3089 -0.877815 0
M  V30 22461 C 2021.79 -1.23068 -1.66319 0
M  V30 22462 C 2022.21 0.205309 -1.8768 0
M  V30 22463 O 2021.56 1.13467 -1.42939 0
M  V30 22464 C 2021.61 -1.96305 -3.03557 0
M  V30 22465 O 2021.33 -3.34298 -2.83154 0
M  V30 22466 C 2022.84 -1.95228 -3.97996 0
M  V30 22467 H 2020.06 -0.425583 -0.518768 0
M  V30 22468 H 2022.6 -1.72636 -1.09623 0
M  V30 22469 H 2020.75 -1.50518 -3.56964 0
M  V30 22470 H 2021.17 -3.71486 -3.70268 0
M  V30 22471 H 2022.64 -2.50997 -4.91635 0
M  V30 22472 H 2023.12 -0.932904 -4.29178 0
M  V30 22473 H 2023.73 -2.40858 -3.50525 0
M  V30 22474 N 2022.04 1.0911 -1.13723 0
M  V30 22475 C 2022.95 2.19388 -0.831037 0
M  V30 22476 C 2023.97 1.73007 0.185658 0
M  V30 22477 O 2025.14 2.01394 0.015917 0
M  V30 22478 C 2022.21 3.45355 -0.305036 0
M  V30 22479 C 2021.27 4.064 -1.38338 0
M  V30 22480 C 2020.5 5.26355 -0.882388 0
M  V30 22481 O 2020.72 5.69718 0.278833 0
M  V30 22482 O 2019.66 5.78609 -1.65816 0
M  V30 22483 H 2023.48 2.48037 -1.75246 0
M  V30 22484 H 2021.07 1.18108 -0.91493 0
M  V30 22485 H 2022.95 4.21396 -0.0172636 0
M  V30 22486 H 2021.63 3.18301 0.588762 0
M  V30 22487 H 2020.53 3.31981 -1.72452 0
M  V30 22488 H 2021.87 4.37688 -2.25144 0
M  V30 22489 N 2023.52 0.931232 1.27145 0
M  V30 22490 C 2024.77 0.569326 1.93498 0
M  V30 22491 C 2025.08 -0.894288 1.73959 0
M  V30 22492 O 2026.29 -1.36513 2.34684 0
M  V30 22493 C 2024.74 0.967432 3.46654 0
M  V30 22494 C 2024.35 2.45197 3.74943 0
M  V30 22495 C 2026.09 0.676947 4.19068 0
M  V30 22496 C 2024 2.7893 5.2149 0
M  V30 22497 H 2022.93 0.209208 0.724395 0
M  V30 22498 H 2025.58 1.13252 1.44382 0
M  V30 22499 H 2023.96 0.332853 3.94599 0
M  V30 22500 H 2025.14 3.13476 3.37742 0
M  V30 22501 H 2023.45 2.71472 3.1574 0
M  V30 22502 H 2026.05 0.905425 5.26978 0
M  V30 22503 H 2026.39 -0.385967 4.14507 0
M  V30 22504 H 2026.93 1.27079 3.76956 0
M  V30 22505 H 2023.67 3.84144 5.31144 0
M  V30 22506 H 2023.19 2.15304 5.59825 0
M  V30 22507 H 2024.86 2.66862 5.89401 0
M  V30 22508 N 2025 -1.41343 0.697132 0
M  V30 22509 C 2025.95 -2.3259 0.0214207 0
M  V30 22510 C 2026.94 -1.51048 -0.766873 0
M  V30 22511 O 2028.15 -1.66973 -0.672319 0
M  V30 22512 H 2024.52 -0.751906 -0.0118741 0
M  V30 22513 H 2026.49 -2.87252 0.808025 0
M  V30 22514 C 2025.24 -3.35853 -0.899884 0
M  V30 22515 H 2024.56 -3.98652 -0.302721 0
M  V30 22516 H 2026 -4.02236 -1.34097 0
M  V30 22517 C 2024.46 -2.69865 -2.01679 0
M  V30 22518 O 2024.99 -2.54768 -3.10574 0
M  V30 22519 N 2023.2 -2.28536 -1.79498 0
M  V30 22520 H 2022.75 -2.41015 -0.909364 0
M  V30 22521 H 2022.7 -1.8472 -2.54413 0
M  V30 22522 N 2026.48 -0.441993 -1.51275 0
M  V30 22523 C 2027.72 0.124439 -2.01316 0
M  V30 22524 C 2028.04 1.43376 -1.33051 0
M  V30 22525 O 2029.24 2.08342 -1.74086 0
M  V30 22526 C 2027.7 0.272307 -3.58868 0
M  V30 22527 C 2027.31 -1.02686 -4.36073 0
M  V30 22528 C 2029.05 0.792259 -4.17041 0
M  V30 22529 C 2026.96 -0.844378 -5.85341 0
M  V30 22530 H 2025.89 0.0502803 -0.752322 0
M  V30 22531 H 2028.54 -0.572465 -1.74342 0
M  V30 22532 H 2026.92 1.03232 -3.82308 0
M  V30 22533 H 2028.1 -1.79557 -4.24377 0
M  V30 22534 H 2026.41 -1.4757 -3.89374 0
M  V30 22535 H 2029.01 0.94535 -5.26277 0
M  V30 22536 H 2029.35 1.77595 -3.76518 0
M  V30 22537 H 2029.88 0.0904292 -3.97697 0
M  V30 22538 H 2026.62 -1.80058 -6.30285 0
M  V30 22539 H 2026.14 -0.115549 -5.99689 0
M  V30 22540 H 2027.82 -0.499412 -6.4507 0
M  V30 22541 N 2027.95 1.56642 -0.173515 0
M  V30 22542 C 2029.18 2.01325 0.477079 0
M  V30 22543 C 2029.6 1.05373 1.56659 0
M  V30 22544 O 2028.95 0.0549577 1.82417 0
M  V30 22545 C 2029 3.45813 1.05337 0
M  V30 22546 O 2028.73 4.38099 0.00735116 0
M  V30 22547 C 2030.23 4.05907 1.78198 0
M  V30 22548 H 2027.45 0.659835 0.121896 0
M  V30 22549 H 2029.99 2.0263 -0.27589 0
M  V30 22550 H 2028.15 3.45275 1.75682 0
M  V30 22551 H 2028.56 5.22708 0.433152 0
M  V30 22552 H 2030.03 5.08923 2.13778 0
M  V30 22553 H 2030.51 3.48125 2.67779 0
M  V30 22554 H 2031.12 4.10154 1.12489 0
M  V30 22555 N 2029.43 -0.1002 1.57281 0
M  V30 22556 C 2030.38 -1.12192 2.01697 0
M  V30 22557 C 2031.35 -1.40092 0.892374 0
M  V30 22558 O 2032.53 -1.51641 1.158 0
M  V30 22559 C 2029.67 -2.43833 2.44212 0
M  V30 22560 C 2028.79 -2.22707 3.70169 0
M  V30 22561 C 2027.92 -3.47711 4.01585 0
M  V30 22562 C 2026.96 -3.21825 5.20668 0
M  V30 22563 N 2026.1 -4.39081 5.47862 0
M  V30 22564 H 2030.94 -0.736171 2.88764 0
M  V30 22565 H 2028.47 -0.351977 1.42827 0
M  V30 22566 H 2030.43 -3.20652 2.66904 0
M  V30 22567 H 2029.06 -2.80264 1.60162 0
M  V30 22568 H 2028.11 -1.36715 3.54983 0
M  V30 22569 H 2029.43 -1.99568 4.57137 0
M  V30 22570 H 2028.58 -4.3294 4.25027 0
M  V30 22571 H 2027.32 -3.739 3.1313 0
M  V30 22572 H 2026.32 -2.34988 4.97052 0
M  V30 22573 H 2027.55 -2.96987 6.10717 0
M  V30 22574 H 2025.5 -4.65355 4.62364 0
M  V30 22575 H 2025.41 -4.19114 6.2919 0
M  V30 22576 H 2026.68 -5.2539 5.75835 0
M  V30 22577 N 2030.91 -1.53174 -0.370891 0
M  V30 22578 C 2032.14 -1.73 -1.13484 0
M  V30 22579 C 2032.55 -0.456538 -1.83197 0
M  V30 22580 O 2031.91 0.570218 -1.73363 0
M  V30 22581 C 2031.96 -2.89186 -2.16919 0
M  V30 22582 O 2031.68 -4.11604 -1.50045 0
M  V30 22583 C 2033.18 -3.20841 -3.05901 0
M  V30 22584 H 2030.4 -0.578752 -0.33954 0
M  V30 22585 H 2032.95 -1.99897 -0.43143 0
M  V30 22586 H 2031.1 -2.64699 -2.82866 0
M  V30 22587 H 2031.52 -4.76629 -2.18918 0
M  V30 22588 H 2032.99 -4.05557 -3.7447 0
M  V30 22589 H 2033.47 -2.35982 -3.70418 0
M  V30 22590 H 2034.07 -3.47235 -2.45577 0
M  V30 22591 N 2032.39 0.630389 -1.44443 0
M  V30 22592 C 2033.62 1.41712 -1.50749 0
M  V30 22593 C 2034.03 1.88334 -0.132593 0
M  V30 22594 O 2033.39 1.60878 0.861649 0
M  V30 22595 C 2033.44 2.63694 -2.47281 0
M  V30 22596 O 2033.16 2.19016 -3.79425 0
M  V30 22597 C 2034.66 3.56813 -2.63058 0
M  V30 22598 H 2031.88 0.43458 -0.511255 0
M  V30 22599 H 2034.42 0.770878 -1.89414 0
M  V30 22600 H 2032.58 3.24409 -2.11749 0
M  V30 22601 H 2032.99 2.98104 -4.31549 0
M  V30 22602 H 2034.47 4.39008 -3.34628 0
M  V30 22603 H 2034.94 4.05669 -1.68313 0
M  V30 22604 H 2035.55 3.01966 -2.99494 0
M  V30 22605 N 2033.87 1.31354 0.870861 0
M  V30 22606 C 2035.11 1.20348 1.61862 0
M  V30 22607 C 2035.43 -0.237373 1.94154 0
M  V30 22608 O 2036.63 -0.469111 2.67417 0
M  V30 22609 C 2035.09 2.10677 2.91793 0
M  V30 22610 C 2034.7 3.59752 2.66987 0
M  V30 22611 C 2036.44 2.08469 3.69785 0
M  V30 22612 C 2034.35 4.42092 3.92821 0
M  V30 22613 H 2033.28 0.446857 0.607317 0
M  V30 22614 H 2035.93 1.56203 0.962965 0
M  V30 22615 H 2034.31 1.6772 3.58728 0
M  V30 22616 H 2035.49 4.10949 2.08465 0
M  V30 22617 H 2033.8 3.63927 2.02351 0
M  V30 22618 H 2036.4 2.67232 4.63132 0
M  V30 22619 H 2036.74 1.07161 4.02271 0
M  V30 22620 H 2037.27 2.49621 3.09732 0
M  V30 22621 H 2034.01 5.44151 3.65486 0
M  V30 22622 H 2033.53 3.95654 4.50797 0
M  V30 22623 H 2035.21 4.54259 4.60714 0
M  V30 22624 N 2035.34 -1.08505 1.143 0
M  V30 22625 C 2036.29 -2.13593 0.797635 0
M  V30 22626 C 2037.28 -1.59488 -0.212729 0
M  V30 22627 O 2038.47 -1.76993 -0.0152218 0
M  V30 22628 C 2035.6 -3.42191 0.275716 0
M  V30 22629 C 2034.68 -4.0318 1.31554 0
M  V30 22630 N 2035.08 -4.38591 2.51936 0
M  V30 22631 C 2033.37 -4.30501 1.16553 0
M  V30 22632 C 2034.07 -4.86762 3.18494 0
M  V30 22633 N 2033.05 -4.84804 2.45898 0
M  V30 22634 H 2036.85 -2.38788 1.7134 0
M  V30 22635 H 2034.37 -1.25827 1.02671 0
M  V30 22636 H 2036.36 -4.16899 0.0100056 0
M  V30 22637 H 2035.02 -3.18445 -0.634256 0
M  V30 22638 H 2036.03 -4.29651 2.89171 0
M  V30 22639 H 2032.71 -4.16314 0.314497 0
M  V30 22640 H 2034.1 -5.23548 4.21126 0
M  V30 22641 N 2036.82 -0.937962 -1.26649 0
M  V30 22642 C 2037.75 -0.402342 -2.25641 0
M  V30 22643 C 2038.77 0.472614 -1.55789 0
M  V30 22644 O 2039.96 0.283579 -1.76233 0
M  V30 22645 C 2037.06 0.441157 -3.36016 0
M  V30 22646 C 2036.23 -0.416892 -4.35409 0
M  V30 22647 C 2035.29 0.365644 -5.24928 0
M  V30 22648 O 2034.31 -0.230215 -5.68734 0
M  V30 22649 N 2035.52 1.66298 -5.5617 0
M  V30 22650 H 2038.28 -1.25333 -2.72235 0
M  V30 22651 H 2035.84 -0.806494 -1.40383 0
M  V30 22652 H 2037.83 0.971979 -3.92855 0
M  V30 22653 H 2036.4 1.19293 -2.88943 0
M  V30 22654 H 2035.62 -1.12895 -3.77688 0
M  V30 22655 H 2036.91 -1.00313 -4.98813 0
M  V30 22656 H 2036.31 2.16925 -5.22456 0
M  V30 22657 H 2034.87 2.14011 -6.15664 0
M  V30 22658 N 2038.3 1.40971 -0.704618 0
M  V30 22659 C 2039.23 2.33424 -0.0595656 0
M  V30 22660 C 2040.21 1.52306 0.757422 0
M  V30 22661 O 2041.4 1.80812 0.708567 0
M  V30 22662 C 2038.53 3.36202 0.870964 0
M  V30 22663 C 2037.48 4.27699 0.160408 0
M  V30 22664 C 2036.81 5.20924 1.20591 0
M  V30 22665 C 2038.11 5.13047 -0.97878 0
M  V30 22666 H 2039.8 2.87615 -0.83176 0
M  V30 22667 H 2037.35 1.38292 -0.401428 0
M  V30 22668 H 2039.3 3.9981 1.33153 0
M  V30 22669 H 2038.02 2.80381 1.67493 0
M  V30 22670 H 2036.68 3.65527 -0.280222 0
M  V30 22671 H 2036.33 4.61414 2.00264 0
M  V30 22672 H 2036.03 5.8298 0.73543 0
M  V30 22673 H 2037.55 5.8741 1.6668 0
M  V30 22674 H 2038.97 5.70172 -0.598081 0
M  V30 22675 H 2037.36 5.8409 -1.37693 0
M  V30 22676 H 2038.43 4.49675 -1.8144 0
M  V30 22677 N 2039.78 0.45001 1.51039 0
M  V30 22678 C 2041.01 -0.110496 2.06605 0
M  V30 22679 C 2041.42 -1.35362 1.31615 0
M  V30 22680 O 2040.78 -1.78515 0.379306 0
M  V30 22681 C 2040.83 -0.419948 3.59052 0
M  V30 22682 O 2040.55 0.773848 4.31211 0
M  V30 22683 C 2042.05 -1.02974 4.31174 0
M  V30 22684 H 2039.27 -0.00230221 0.670996 0
M  V30 22685 H 2041.82 0.632737 1.94465 0
M  V30 22686 H 2039.97 -1.11309 3.71065 0
M  V30 22687 H 2040.38 0.505717 5.22056 0
M  V30 22688 H 2041.86 -1.19617 5.38884 0
M  V30 22689 H 2042.34 -2.01422 3.9029 0
M  V30 22690 H 2042.94 -0.375607 4.23638 0
M  V30 22691 N 2041.26 -1.56548 0.18182 0
M  V30 22692 C 2042.19 -2.14336 -0.783296 0
M  V30 22693 C 2043.17 -1.07634 -1.21876 0
M  V30 22694 O 2044.35 -1.3567 -1.30866 0
M  V30 22695 C 2041.48 -2.69146 -2.05616 0
M  V30 22696 C 2040.52 -3.88316 -1.76389 0
M  V30 22697 S 2041.36 -5.27472 -0.923777 0
M  V30 22698 C 2042.51 -5.85695 -2.20708 0
M  V30 22699 H 2042.75 -2.95863 -0.291996 0
M  V30 22700 H 2040.28 -1.54365 -0.033 0
M  V30 22701 H 2042.24 -3.01371 -2.78722 0
M  V30 22702 H 2040.9 -1.87685 -2.51859 0
M  V30 22703 H 2040.09 -4.25031 -2.7086 0
M  V30 22704 H 2039.69 -3.57032 -1.11373 0
M  V30 22705 H 2041.99 -5.99249 -3.16081 0
M  V30 22706 H 2042.93 -6.82564 -1.88446 0
M  V30 22707 H 2043.34 -5.14194 -2.32948 0
M  V30 22708 N 2042.73 0.0918577 -1.57332 0
M  V30 22709 C 2043.67 1.13749 -1.98982 0
M  V30 22710 C 2044.68 1.36133 -0.892834 0
M  V30 22711 O 2045.87 1.34728 -1.17092 0
M  V30 22712 C 2042.97 2.49241 -2.29635 0
M  V30 22713 C 2042.14 2.4709 -3.60923 0
M  V30 22714 C 2041.2 3.64534 -3.79475 0
M  V30 22715 O 2040.23 3.46877 -4.51292 0
M  V30 22716 N 2041.43 4.84137 -3.20299 0
M  V30 22717 H 2044.19 0.78297 -2.89292 0
M  V30 22718 H 2041.75 0.280794 -1.59446 0
M  V30 22719 H 2043.75 3.26417 -2.39236 0
M  V30 22720 H 2042.32 2.76771 -1.45316 0
M  V30 22721 H 2041.54 1.55438 -3.62261 0
M  V30 22722 H 2042.82 2.42733 -4.47167 0
M  V30 22723 H 2042.22 5.01386 -2.6197 0
M  V30 22724 H 2040.78 5.58894 -3.35381 0
M  V30 22725 N 2044.21 1.53368 0.362763 0
M  V30 22726 C 2045.16 1.80005 1.44454 0
M  V30 22727 C 2046.13 0.644581 1.53083 0
M  V30 22728 O 2047.31 0.887051 1.68926 0
M  V30 22729 C 2044.45 1.99822 2.81363 0
M  V30 22730 C 2043.57 3.27539 2.81678 0
M  V30 22731 C 2042.7 3.37528 4.10181 0
M  V30 22732 C 2041.74 4.59266 4.04649 0
M  V30 22733 N 2040.88 4.66393 5.24806 0
M  V30 22734 H 2045.72 2.72311 1.2104 0
M  V30 22735 H 2043.26 1.34893 0.586708 0
M  V30 22736 H 2045.21 2.09299 3.60901 0
M  V30 22737 H 2043.84 1.10849 3.0317 0
M  V30 22738 H 2042.9 3.27001 1.94356 0
M  V30 22739 H 2044.21 4.17156 2.73464 0
M  V30 22740 H 2043.36 3.46331 4.98136 0
M  V30 22741 H 2042.1 2.45932 4.21152 0
M  V30 22742 H 2041.11 4.5056 3.15081 0
M  V30 22743 H 2042.33 5.52206 3.95278 0
M  V30 22744 H 2040.28 3.77699 5.36358 0
M  V30 22745 H 2040.19 5.49919 5.18773 0
M  V30 22746 H 2041.46 4.79484 6.14586 0
M  V30 22747 N 2045.69 -0.62272 1.44776 0
M  V30 22748 C 2046.6 -1.76282 1.54796 0
M  V30 22749 C 2047.62 -1.68522 0.433164 0
M  V30 22750 O 2048.79 -1.89149 0.691713 0
M  V30 22751 C 2045.86 -3.12697 1.49737 0
M  V30 22752 C 2044.92 -3.32026 2.72135 0
M  V30 22753 C 2044.15 -4.61933 2.67308 0
M  V30 22754 O 2044.37 -5.43282 1.73783 0
M  V30 22755 O 2043.31 -4.83646 3.58288 0
M  V30 22756 H 2047.13 -1.70781 2.51133 0
M  V30 22757 H 2044.72 -0.784974 1.27116 0
M  V30 22758 H 2046.6 -3.94001 1.4947 0
M  V30 22759 H 2045.28 -3.18723 0.565471 0
M  V30 22760 H 2044.18 -2.50368 2.77969 0
M  V30 22761 H 2045.52 -3.30868 3.644 0
M  V30 22762 N 2047.17 -1.31814 -0.863883 0
M  V30 22763 C 2048.08 -1.21951 -2.00412 0
M  V30 22764 C 2049.09 -0.13497 -1.73476 0
M  V30 22765 O 2050.27 -0.35392 -1.98266 0
M  V30 22766 C 2047.34 -0.933599 -3.33893 0
M  V30 22767 C 2046.4 -2.10565 -3.74113 0
M  V30 22768 C 2045.63 -1.83329 -5.01225 0
M  V30 22769 O 2045.85 -0.77136 -5.6516 0
M  V30 22770 O 2044.79 -2.69178 -5.38356 0
M  V30 22771 H 2048.61 -2.17786 -2.11667 0
M  V30 22772 H 2046.2 -1.11613 -0.993126 0
M  V30 22773 H 2048.08 -0.790251 -4.13924 0
M  V30 22774 H 2046.75 -0.00533113 -3.237 0
M  V30 22775 H 2045.66 -2.30443 -2.94698 0
M  V30 22776 H 2046.99 -3.01639 -3.88941 0
M  V30 22777 N 2048.65 1.07897 -1.14873 0
M  V30 22778 C 2049.92 1.77077 -0.830842 0
M  V30 22779 C 2050.3 2.00029 0.674654 0
M  V30 22780 O 2049.65 1.61429 1.61719 0
M  V30 22781 C 2049.86 3.08311 -1.63541 0
M  V30 22782 C 2051.21 3.82753 -1.83808 0
M  V30 22783 O 2052.23 3.18107 -1.6027 0
M  V30 22784 O 2051.09 4.98846 -2.23192 0
M  V30 22785 H 2048.19 0.768708 -0.304987 0
M  V30 22786 H 2050.73 1.14313 -1.25422 0
M  V30 22787 H 2049.5 2.87188 -2.6578 0
M  V30 22788 H 2049.13 3.78805 -1.208 0
M  V30 22789 N 2050.12 0.944665 1.2615 0
M  V30 22790 C 2051.35 0.610956 1.97674 0
M  V30 22791 C 2051.77 -0.814818 1.70312 0
M  V30 22792 O 2051.12 -1.54376 0.973364 0
M  V30 22793 C 2051.18 0.847912 3.51415 0
M  V30 22794 O 2050.9 2.21761 3.77827 0
M  V30 22795 C 2052.4 0.525225 4.40178 0
M  V30 22796 H 2049.62 0.229933 0.630374 0
M  V30 22797 H 2052.16 1.26632 1.60576 0
M  V30 22798 H 2050.32 0.239105 3.86661 0
M  V30 22799 H 2050.73 2.28026 4.72339 0
M  V30 22800 H 2052.2 0.741624 5.46995 0
M  V30 22801 H 2052.68 -0.539903 4.35869 0
M  V30 22802 H 2053.29 1.11291 4.10481 0
M  V30 22803 N 2051.6 -1.40596 0.712085 0
M  V30 22804 C 2052.83 -2.05787 0.258197 0
M  V30 22805 C 2053.25 -1.53289 -1.09015 0
M  V30 22806 O 2052.61 -0.666771 -1.68594 0
M  V30 22807 C 2052.66 -3.59771 0.244357 0
M  V30 22808 O 2051.76 -4.05042 -0.77555 0
M  V30 22809 H 2051.1 -0.652692 0.12202 0
M  V30 22810 H 2053.63 -1.80059 0.971583 0
M  V30 22811 H 2053.64 -4.0792 0.0808437 0
M  V30 22812 H 2052.32 -3.97347 1.22834 0
M  V30 22813 H 2050.9 -3.68361 -0.580045 0
M  V30 22814 N 2053.08 -0.458013 -1.50798 0
M  V30 22815 C 2054.33 0.101266 -2.01846 0
M  V30 22816 C 2054.65 1.41388 -1.34293 0
M  V30 22817 O 2053.92 1.89826 -0.484035 0
M  V30 22818 H 2052.5 0.0404137 -0.745906 0
M  V30 22819 H 2055.16 -0.605448 -1.85257 0
M  V30 22820 H 2054.26 0.262253 -3.10996 0
M  V30 22821 N 2054.56 1.56449 -0.190119 0
M  V30 22822 C 2055.79 2.01527 0.455038 0
M  V30 22823 C 2056.2 1.06944 1.56076 0
M  V30 22824 O 2055.54 0.0656127 1.83583 0
M  V30 22825 C 2055.6 3.43008 1.07637 0
M  V30 22826 C 2055.27 4.56868 0.109996 0
M  V30 22827 C 2056.26 5.1545 -0.678755 0
M  V30 22828 C 2053.95 5.023 0.000358787 0
M  V30 22829 C 2055.94 6.1791 -1.56416 0
M  V30 22830 C 2053.63 6.04605 -0.888608 0
M  V30 22831 C 2054.63 6.62283 -1.66944 0
M  V30 22832 O 2054.32 7.62601 -2.54351 0
M  V30 22833 H 2054.05 0.66543 0.119076 0
M  V30 22834 H 2056.6 2.03276 -0.29461 0
M  V30 22835 H 2054.83 3.38229 1.87451 0
M  V30 22836 H 2056.52 3.71923 1.62566 0
M  V30 22837 H 2057.29 4.8122 -0.604329 0
M  V30 22838 H 2053.17 4.57106 0.59794 0
M  V30 22839 H 2056.71 6.62858 -2.17407 0
M  V30 22840 H 2052.61 6.38259 -0.964167 0
M  V30 22841 H 2053.37 7.80001 -2.48075 0
M  V30 22842 N 2056.04 -0.0835127 1.57379 0
M  V30 22843 C 2057.45 -0.438018 1.53472 0
M  V30 22844 C 2057.65 -1.79853 0.908578 0
M  V30 22845 O 2056.71 -2.47377 0.506047 0
M  V30 22846 C 2058.02 -0.389855 2.98162 0
M  V30 22847 C 2059.57 -0.470883 3.09438 0
M  V30 22848 C 2060.05 -0.452749 4.55757 0
M  V30 22849 N 2061.54 -0.513166 4.60349 0
M  V30 22850 C 2062.27 -0.52116 5.71027 0
M  V30 22851 N 2061.77 -0.484668 6.91103 0
M  V30 22852 N 2063.56 -0.566841 5.59235 0
M  V30 22853 H 2055.71 0.807491 1.96452 0
M  V30 22854 H 2057.97 0.301793 0.89868 0
M  V30 22855 H 2057.68 0.542902 3.47484 0
M  V30 22856 H 2057.55 -1.20449 3.57452 0
M  V30 22857 H 2059.94 -1.39406 2.60096 0
M  V30 22858 H 2060.02 0.372104 2.53079 0
M  V30 22859 H 2059.67 0.466533 5.05753 0
M  V30 22860 H 2059.6 -1.31311 5.09966 0
M  V30 22861 H 2062.09 -0.546093 3.73933 0
M  V30 22862 H 2062.4 -0.494371 7.71217 0
M  V30 22863 H 2060.75 -0.451537 6.93532 0
M  V30 22864 H 2063.94 -0.59296 4.64329 0
M  V30 22865 H 2064.11 -0.569602 6.45492 0
M  V30 22866 N 2057.52 -1.53558 -0.354624 0
M  V30 22867 C 2058.48 -1.80084 -1.41783 0
M  V30 22868 C 2059.48 -0.671552 -1.46105 0
M  V30 22869 O 2060.67 -0.939801 -1.46674 0
M  V30 22870 C 2057.8 -1.93284 -2.8081 0
M  V30 22871 H 2058.99 -2.75049 -1.19532 0
M  V30 22872 H 2056.55 -1.44802 -0.588388 0
M  V30 22873 H 2057.28 -1.00423 -3.0836 0
M  V30 22874 H 2057.07 -2.75432 -2.7907 0
M  V30 22875 H 2058.56 -2.15361 -3.57784 0
M  V30 22876 N 2058.99 0.615033 -1.45104 0
M  V30 22877 C 2059.93 1.73982 -1.49208 0
M  V30 22878 C 2060.94 1.58215 -0.383649 0
M  V30 22879 O 2062.13 1.66233 -0.650297 0
M  V30 22880 C 2059.23 3.11897 -1.32565 0
M  V30 22881 C 2058.4 3.53973 -2.56947 0
M  V30 22882 C 2057.46 4.70825 -2.34969 0
M  V30 22883 O 2056.49 4.78319 -3.08544 0
M  V30 22884 N 2057.69 5.63599 -1.39054 0
M  V30 22885 H 2060.45 1.70927 -2.46179 0
M  V30 22886 H 2058.01 0.800093 -1.40748 0
M  V30 22887 H 2060.01 3.87814 -1.15684 0
M  V30 22888 H 2058.58 3.09502 -0.438979 0
M  V30 22889 H 2057.8 2.68096 -2.88995 0
M  V30 22890 H 2059.08 3.78841 -3.39642 0
M  V30 22891 H 2058.48 5.60252 -0.783199 0
M  V30 22892 H 2057.04 6.39079 -1.28147 0
M  V30 22893 N 2060.47 1.3227 0.85688 0
M  V30 22894 C 2061.72 1.22058 1.60576 0
M  V30 22895 C 2062.03 -0.216767 1.94395 0
M  V30 22896 O 2063.24 -0.440721 2.67899 0
M  V30 22897 C 2061.7 2.1376 2.89542 0
M  V30 22898 C 2061.3 3.62564 2.63157 0
M  V30 22899 C 2063.05 2.12379 3.67553 0
M  V30 22900 C 2060.95 4.46234 3.8811 0
M  V30 22901 H 2059.88 0.453274 0.602544 0
M  V30 22902 H 2062.54 1.57215 0.946344 0
M  V30 22903 H 2060.92 1.71515 3.56929 0
M  V30 22904 H 2062.09 4.13137 2.04095 0
M  V30 22905 H 2060.41 3.66053 1.98479 0
M  V30 22906 H 2063 2.72129 4.60272 0
M  V30 22907 H 2063.35 1.11421 4.01112 0
M  V30 22908 H 2063.88 2.52892 3.07067 0
M  V30 22909 H 2060.62 5.47997 3.59693 0
M  V30 22910 H 2060.14 4.00413 4.46575 0
M  V30 22911 H 2061.82 4.5912 4.5587 0
M  V30 22912 N 2061.95 -1.07287 1.15444 0
M  V30 22913 C 2063.23 -1.76634 0.840221 0
M  V30 22914 C 2063.61 -2.00384 -0.664037 0
M  V30 22915 O 2062.95 -1.62284 -1.60861 0
M  V30 22916 C 2063.16 -3.07439 1.65174 0
M  V30 22917 C 2064.51 -3.81773 1.85835 0
M  V30 22918 O 2065.54 -3.17252 1.61955 0
M  V30 22919 O 2064.4 -4.97656 2.25834 0
M  V30 22920 H 2061.49 -0.76708 0.309059 0
M  V30 22921 H 2064.04 -1.13646 1.26026 0
M  V30 22922 H 2062.81 -2.85774 2.67299 0
M  V30 22923 H 2062.43 -3.78159 1.22807 0
M  V30 22924 N 2063.43 -0.951342 -1.25647 0
M  V30 22925 C 2064.38 -0.459968 -2.28007 0
M  V30 22926 C 2065.37 0.468044 -1.62806 0
M  V30 22927 O 2066.58 0.345136 -1.7666 0
M  V30 22928 H 2062.95 -0.130235 -0.740637 0
M  V30 22929 H 2064.92 -1.33559 -2.66842 0
M  V30 22930 C 2063.67 0.24991 -3.46801 0
M  V30 22931 H 2062.99 -0.455035 -3.97202 0
M  V30 22932 H 2064.43 0.557792 -4.20315 0
M  V30 22933 C 2062.89 1.47127 -3.03076 0
M  V30 22934 O 2063.42 2.56915 -3.088 0
M  V30 22935 N 2061.63 1.33145 -2.58304 0
M  V30 22936 H 2061.18 0.438193 -2.53846 0
M  V30 22937 H 2061.13 2.14982 -2.29413 0
M  V30 22938 N 2064.91 1.40216 -0.719531 0
M  V30 22939 C 2065.84 2.33348 -0.08432 0
M  V30 22940 C 2066.82 1.53101 0.741225 0
M  V30 22941 O 2068 1.81553 0.68935 0
M  V30 22942 C 2065.13 3.37106 0.835256 0
M  V30 22943 C 2064.09 4.27845 0.115036 0
M  V30 22944 C 2063.41 5.22174 1.15059 0
M  V30 22945 C 2064.71 5.1198 -1.03314 0
M  V30 22946 H 2066.41 2.86716 -0.862219 0
M  V30 22947 H 2063.95 1.37858 -0.416073 0
M  V30 22948 H 2065.9 4.012 1.28905 0
M  V30 22949 H 2064.63 2.82142 1.6451 0
M  V30 22950 H 2063.29 3.6521 -0.318975 0
M  V30 22951 H 2062.94 4.63513 1.95359 0
M  V30 22952 H 2062.64 5.83727 0.673556 0
M  V30 22953 H 2064.16 5.89144 1.60441 0
M  V30 22954 H 2065.57 5.69505 -0.658522 0
M  V30 22955 H 2063.97 5.82596 -1.4388 0
M  V30 22956 H 2065.04 4.47725 -1.86199 0
M  V30 22957 N 2066.38 0.466004 1.50553 0
M  V30 22958 C 2067.61 -0.0885768 2.0671 0
M  V30 22959 C 2068.03 -1.33958 1.33044 0
M  V30 22960 O 2067.38 -1.78102 0.398219 0
M  V30 22961 C 2067.43 -0.381842 3.59478 0
M  V30 22962 O 2067.16 0.81954 4.30366 0
M  V30 22963 C 2068.66 -0.98395 4.32242 0
M  V30 22964 H 2065.88 0.00481473 0.670983 0
M  V30 22965 H 2068.42 0.653327 1.93783 0
M  V30 22966 H 2066.58 -1.07367 3.72224 0
M  V30 22967 H 2066.99 0.56106 5.21491 0
M  V30 22968 H 2068.46 -1.13895 5.40122 0
M  V30 22969 H 2068.94 -1.97271 3.92404 0
M  V30 22970 H 2069.55 -0.330654 4.24013 0
M  V30 22971 N 2067.86 -1.56346 0.198413 0
M  V30 22972 C 2069.28 -1.58822 -0.157378 0
M  V30 22973 C 2069.48 -1.21468 -1.60773 0
M  V30 22974 O 2068.53 -0.938985 -2.34391 0
M  V30 22975 C 2069.85 -3.00336 0.14798 0
M  V30 22976 C 2071.39 -3.12875 0.0883539 0
M  V30 22977 C 2071.87 -4.56527 0.367068 0
M  V30 22978 N 2073.36 -4.62122 0.315805 0
M  V30 22979 C 2074.1 -5.7117 0.505265 0
M  V30 22980 N 2073.59 -6.88671 0.755254 0
M  V30 22981 N 2075.38 -5.60381 0.439293 0
M  V30 22982 H 2067.54 -1.78908 1.1448 0
M  V30 22983 H 2069.8 -0.830475 0.457182 0
M  V30 22984 H 2069.5 -3.32238 1.15373 0
M  V30 22985 H 2069.38 -3.732 -0.547892 0
M  V30 22986 H 2071.77 -2.80783 -0.908004 0
M  V30 22987 H 2071.85 -2.4239 0.817354 0
M  V30 22988 H 2071.49 -4.89332 1.36076 0
M  V30 22989 H 2071.42 -5.25206 -0.382859 0
M  V30 22990 H 2073.91 -3.77679 0.129337 0
M  V30 22991 H 2074.22 -7.67675 0.888542 0
M  V30 22992 H 2072.57 -6.9047 0.792186 0
M  V30 22993 H 2075.76 -4.67462 0.244386 0
M  V30 22994 H 2075.93 -6.45305 0.590363 0
M  V30 22995 N 2069.34 0.0751653 -1.57421 0
M  V30 22996 C 2070.25 1.10763 -2.06806 0
M  V30 22997 C 2071.27 1.4261 -0.99691 0
M  V30 22998 O 2072.44 1.52854 -1.31139 0
M  V30 22999 C 2069.51 2.40281 -2.49932 0
M  V30 23000 C 2068.57 2.15435 -3.7133 0
M  V30 23001 C 2067.8 3.38777 -4.1239 0
M  V30 23002 O 2068.02 4.4777 -3.53353 0
M  V30 23003 O 2066.96 3.27189 -5.05204 0
M  V30 23004 H 2070.78 0.718102 -2.95088 0
M  V30 23005 H 2068.37 0.289065 -1.46577 0
M  V30 23006 H 2070.25 3.16509 -2.78208 0
M  V30 23007 H 2068.93 2.7862 -1.64781 0
M  V30 23008 H 2067.83 1.36922 -3.48142 0
M  V30 23009 H 2069.17 1.81978 -4.57324 0
M  V30 23010 N 2070.82 1.53744 0.346476 0
M  V30 23011 C 2071.77 1.82222 1.44561 0
M  V30 23012 C 2072.76 0.69251 1.54598 0
M  V30 23013 O 2073.97 0.875797 1.57257 0
M  V30 23014 H 2070.34 0.577261 0.481948 0
M  V30 23015 H 2072.31 2.74183 1.17755 0
M  V30 23016 C 2071.06 2.04604 2.81127 0
M  V30 23017 H 2070.38 2.90983 2.74169 0
M  V30 23018 H 2071.82 2.28497 3.57162 0
M  V30 23019 C 2070.28 0.830699 3.26498 0
M  V30 23020 O 2070.81 0.0286844 4.0169 0
M  V30 23021 N 2069.02 0.648746 2.83266 0
M  V30 23022 H 2068.57 1.30257 2.22241 0
M  V30 23023 H 2068.52 -0.162972 3.13977 0
M  V30 23024 N 2072.3 -0.607329 1.45428 0
M  V30 23025 C 2073.71 -0.92811 1.29839 0
M  V30 23026 C 2073.91 -1.99923 0.251614 0
M  V30 23027 O 2072.97 -2.50001 -0.354354 0
M  V30 23028 C 2074.28 -1.36879 2.6774 0
M  V30 23029 C 2075.83 -1.48299 2.75638 0
M  V30 23030 C 2076.3 -1.95743 4.14064 0
M  V30 23031 N 2077.8 -2.02976 4.16359 0
M  V30 23032 C 2078.53 -2.40908 5.20337 0
M  V30 23033 N 2078.03 -2.77807 6.34661 0
M  V30 23034 N 2079.82 -2.41249 5.07696 0
M  V30 23035 H 2071.97 0.100642 2.12161 0
M  V30 23036 H 2074.23 -0.017631 0.947836 0
M  V30 23037 H 2073.94 -0.655923 3.45529 0
M  V30 23038 H 2073.81 -2.33525 2.96219 0
M  V30 23039 H 2076.2 -2.18677 1.98152 0
M  V30 23040 H 2076.28 -0.499667 2.50872 0
M  V30 23041 H 2075.93 -1.25951 4.92035 0
M  V30 23042 H 2075.86 -2.94989 4.36221 0
M  V30 23043 H 2078.35 -1.77048 3.3386 0
M  V30 23044 H 2078.66 -3.05633 7.09794 0
M  V30 23045 H 2077 -2.75502 6.38062 0
M  V30 23046 H 2080.2 -2.11829 4.17428 0
M  V30 23047 H 2080.37 -2.70485 5.88848 0
M  V30 23048 N 2073.77 -1.32722 -0.849853 0
M  V30 23049 C 2075 -1.2671 -1.64193 0
M  V30 23050 C 2075.42 0.161092 -1.87409 0
M  V30 23051 O 2074.78 1.11408 -1.43031 0
M  V30 23052 C 2074.83 -2.03686 -2.97564 0
M  V30 23053 O 2073.93 -1.38794 -3.88343 0
M  V30 23054 H 2073.28 -0.436459 -0.5004 0
M  V30 23055 H 2075.81 -1.75113 -1.05813 0
M  V30 23056 H 2075.82 -2.1404 -3.47349 0
M  V30 23057 H 2074.49 -3.07537 -2.79989 0
M  V30 23058 H 2073.07 -1.37018 -3.46815 0
M  V30 23059 N 2075.25 1.06673 -1.16011 0
M  V30 23060 C 2076.18 2.16027 -0.886249 0
M  V30 23061 C 2077.16 1.69289 0.165907 0
M  V30 23062 O 2078.35 1.94191 0.0188181 0
M  V30 23063 C 2075.48 3.45189 -0.382329 0
M  V30 23064 C 2074.43 4.05415 -1.37195 0
M  V30 23065 C 2073.76 5.2974 -0.726594 0
M  V30 23066 C 2075.06 4.44642 -2.74027 0
M  V30 23067 H 2076.75 2.39195 -1.80073 0
M  V30 23068 H 2074.3 1.14957 -0.867232 0
M  V30 23069 H 2076.25 4.21023 -0.17824 0
M  V30 23070 H 2074.98 3.21629 0.567641 0
M  V30 23071 H 2073.63 3.31634 -1.56252 0
M  V30 23072 H 2073.28 5.02475 0.229742 0
M  V30 23073 H 2072.98 5.70993 -1.38709 0
M  V30 23074 H 2074.51 6.08274 -0.532437 0
M  V30 23075 H 2075.92 5.11574 -2.58775 0
M  V30 23076 H 2074.32 4.96868 -3.36515 0
M  V30 23077 H 2075.39 3.55684 -3.29571 0
M  V30 23078 N 2076.73 0.957992 1.25141 0
M  V30 23079 C 2077.96 0.631439 1.97554 0
M  V30 23080 C 2078.38 -0.790342 1.7069 0
M  V30 23081 O 2077.74 -1.53495 0.964826 0
M  V30 23082 C 2077.79 0.900403 3.49178 0
M  V30 23083 O 2076.89 -0.01911 4.12396 0
M  V30 23084 H 2076.23 0.23972 0.619217 0
M  V30 23085 H 2078.76 1.2855 1.59173 0
M  V30 23086 H 2078.77 0.828022 3.99509 0
M  V30 23087 H 2077.45 1.93663 3.68059 0
M  V30 23088 H 2076.02 0.105763 3.7275 0
M  V30 23089 N 2078.21 -1.39832 0.726957 0
M  V30 23090 C 2079.12 -2.34453 0.0830837 0
M  V30 23091 C 2080.13 -1.579 -0.731009 0
M  V30 23092 O 2081.31 -1.90232 -0.661338 0
M  V30 23093 C 2078.38 -3.3688 -0.819324 0
M  V30 23094 C 2077.44 -4.293 0.00610659 0
M  V30 23095 C 2076.67 -5.26834 -0.853324 0
M  V30 23096 O 2076.89 -5.30641 -2.09228 0
M  V30 23097 O 2075.83 -6.01219 -0.286261 0
M  V30 23098 H 2079.65 -2.91155 0.863845 0
M  V30 23099 H 2077.24 -1.41221 0.487543 0
M  V30 23100 H 2079.12 -3.99665 -1.33589 0
M  V30 23101 H 2077.79 -2.82574 -1.57904 0
M  V30 23102 H 2076.7 -3.69763 0.568007 0
M  V30 23103 H 2078.03 -4.86789 0.727856 0
M  V30 23104 N 2079.69 -0.473982 -1.50304 0
M  V30 23105 C 2080.6 0.323933 -2.32353 0
M  V30 23106 C 2081.61 0.993251 -1.42865 0
M  V30 23107 O 2082.79 0.980589 -1.75916 0
M  V30 23108 C 2079.85 1.38999 -3.17616 0
M  V30 23109 C 2078.91 0.736965 -4.22927 0
M  V30 23110 C 2078.15 1.75223 -5.04116 0
M  V30 23111 O 2078.37 2.97908 -4.86423 0
M  V30 23112 O 2077.3 1.32246 -5.87192 0
M  V30 23113 H 2081.13 -0.346913 -3.01712 0
M  V30 23114 H 2078.72 -0.235777 -1.47528 0
M  V30 23115 H 2080.6 2.00742 -3.70514 0
M  V30 23116 H 2079.27 2.04425 -2.50982 0
M  V30 23117 H 2078.18 0.0805047 -3.74013 0
M  V30 23118 H 2079.51 0.125602 -4.9204 0
M  V30 23119 N 2081.16 1.56239 -0.206702 0
M  V30 23120 C 2082.41 1.97079 0.429267 0
M  V30 23121 C 2082.73 1.09689 1.6195 0
M  V30 23122 O 2083.93 1.40363 2.32402 0
M  V30 23123 C 2082.39 3.50548 0.815111 0
M  V30 23124 C 2082 4.46619 -0.351476 0
M  V30 23125 C 2083.74 4.00133 1.41751 0
M  V30 23126 C 2081.65 5.91374 0.0559745 0
M  V30 23127 H 2080.58 0.735915 0.164151 0
M  V30 23128 H 2083.23 1.81022 -0.300562 0
M  V30 23129 H 2081.61 3.62152 1.60194 0
M  V30 23130 H 2082.78 4.46754 -1.12903 0
M  V30 23131 H 2081.1 4.07292 -0.866134 0
M  V30 23132 H 2083.7 5.05768 1.73501 0
M  V30 23133 H 2084.04 3.45116 2.3281 0
M  V30 23134 H 2084.57 3.91692 0.694423 0
M  V30 23135 H 2081.31 6.50342 -0.820723 0
M  V30 23136 H 2080.83 5.94466 0.798148 0
M  V30 23137 H 2082.51 6.45159 0.487795 0
M  V30 23138 N 2082.64 -0.0668159 1.57458 0
M  V30 23139 C 2083.59 -1.07888 2.04031 0
M  V30 23140 C 2084.56 -1.38168 0.921889 0
M  V30 23141 O 2085.74 -1.49151 1.1899 0
M  V30 23142 C 2082.88 -2.38598 2.49329 0
M  V30 23143 C 2082 -2.14805 3.7481 0
M  V30 23144 C 2081.13 -3.39114 4.0887 0
M  V30 23145 C 2080.17 -3.10708 5.27377 0
M  V30 23146 N 2079.31 -4.27361 5.57052 0
M  V30 23147 H 2084.15 -0.674755 2.9026 0
M  V30 23148 H 2081.69 -0.321602 1.43541 0
M  V30 23149 H 2083.64 -3.14919 2.73646 0
M  V30 23150 H 2082.27 -2.76804 1.6607 0
M  V30 23151 H 2081.33 -1.29154 3.57804 0
M  V30 23152 H 2082.64 -1.89826 4.61267 0
M  V30 23153 H 2081.79 -4.23827 4.34114 0
M  V30 23154 H 2080.53 -3.67174 3.2099 0
M  V30 23155 H 2079.54 -2.24392 5.01925 0
M  V30 23156 H 2080.76 -2.83966 6.16879 0
M  V30 23157 H 2078.71 -4.55443 4.72131 0
M  V30 23158 H 2078.62 -4.05673 6.37938 0
M  V30 23159 H 2079.89 -5.13057 5.8685 0
M  V30 23160 N 2084.12 -1.53926 -0.338317 0
M  V30 23161 C 2085.54 -1.44306 -0.681751 0
M  V30 23162 C 2085.74 -0.604022 -1.92234 0
M  V30 23163 O 2084.79 -0.0970474 -2.52313 0
M  V30 23164 C 2086.11 -2.87854 -0.869513 0
M  V30 23165 C 2087.65 -2.97662 -0.967798 0
M  V30 23166 C 2088.13 -4.42328 -1.18784 0
M  V30 23167 N 2089.62 -4.45877 -1.25492 0
M  V30 23168 C 2090.36 -5.54952 -1.44278 0
M  V30 23169 N 2089.85 -6.74023 -1.60203 0
M  V30 23170 N 2091.64 -5.42574 -1.46868 0
M  V30 23171 H 2083.8 -2.06968 0.477289 0
M  V30 23172 H 2086.06 -0.935793 0.15164 0
M  V30 23173 H 2085.76 -3.51688 -0.0293745 0
M  V30 23174 H 2085.64 -3.33108 -1.76971 0
M  V30 23175 H 2088.03 -2.33965 -1.79845 0
M  V30 23176 H 2088.11 -2.55761 -0.0443848 0
M  V30 23177 H 2087.75 -5.06608 -0.362091 0
M  V30 23178 H 2087.68 -4.81825 -2.1249 0
M  V30 23179 H 2090.17 -3.60076 -1.14688 0
M  V30 23180 H 2090.48 -7.52913 -1.74188 0
M  V30 23181 H 2088.83 -6.76958 -1.57329 0
M  V30 23182 H 2092.02 -4.48507 -1.34012 0
M  V30 23183 H 2092.19 -6.27638 -1.61167 0
M  V30 23184 N 2085.6 0.599608 -1.45748 0
M  V30 23185 C 2086.53 1.72038 -1.57877 0
M  V30 23186 C 2087.51 1.64578 -0.429893 0
M  V30 23187 O 2088.7 1.82855 -0.654037 0
M  V30 23188 C 2085.83 3.10657 -1.55272 0
M  V30 23189 C 2084.78 3.32936 -2.68957 0
M  V30 23190 C 2084.11 4.71909 -2.51408 0
M  V30 23191 C 2085.41 3.22412 -4.10911 0
M  V30 23192 H 2087.1 1.62144 -2.51694 0
M  V30 23193 H 2084.65 0.778641 -1.21133 0
M  V30 23194 H 2086.6 3.8887 -1.62353 0
M  V30 23195 H 2085.32 3.21411 -0.579891 0
M  V30 23196 H 2083.98 2.57117 -2.61317 0
M  V30 23197 H 2083.63 4.79406 -1.52247 0
M  V30 23198 H 2083.33 4.8777 -3.2765 0
M  V30 23199 H 2084.85 5.52311 -2.60355 0
M  V30 23200 H 2086.27 3.90488 -4.19752 0
M  V30 23201 H 2084.66 3.498 -4.87607 0
M  V30 23202 H 2085.73 2.19732 -4.32256 0
M  V30 23203 N 2087.08 1.33171 0.842803 0
M  V30 23204 C 2088.02 1.23097 1.95232 0
M  V30 23205 C 2088.99 0.110469 1.65732 0
M  V30 23206 O 2090.18 0.288065 1.88613 0
M  V30 23207 C 2087.32 0.972118 3.31125 0
M  V30 23208 C 2086.43 2.17852 3.73047 0
M  V30 23209 C 2085.57 1.85415 4.9779 0
M  V30 23210 C 2084.61 3.0231 5.32236 0
M  V30 23211 N 2083.74 2.69887 6.48156 0
M  V30 23212 H 2088.58 2.17995 2.03181 0
M  V30 23213 H 2086.12 1.08406 0.994308 0
M  V30 23214 H 2088.08 0.802486 4.09409 0
M  V30 23215 H 2086.71 0.0598977 3.22744 0
M  V30 23216 H 2085.76 2.45803 2.90318 0
M  V30 23217 H 2087.07 3.05254 3.94489 0
M  V30 23218 H 2086.23 1.65073 5.83812 0
M  V30 23219 H 2084.97 0.952447 4.78309 0
M  V30 23220 H 2083.97 3.2327 4.44721 0
M  V30 23221 H 2085.2 3.93229 5.53667 0
M  V30 23222 H 2083.14 1.82271 6.30169 0
M  V30 23223 H 2083.06 3.50818 6.69673 0
M  V30 23224 H 2084.33 2.53002 7.37299 0
M  V30 23225 N 2088.56 -1.06056 1.16576 0
M  V30 23226 C 2089.5 -2.15694 0.87056 0
M  V30 23227 C 2090.5 -1.6863 -0.161341 0
M  V30 23228 O 2091.7 -1.79994 -0.0150963 0
M  V30 23229 H 2088.08 -0.704161 0.263934 0
M  V30 23230 H 2090.05 -2.37802 1.80258 0
M  V30 23231 C 2088.8 -3.45498 0.390729 0
M  V30 23232 H 2088.12 -3.82107 1.17619 0
M  V30 23233 H 2089.56 -4.23413 0.222977 0
M  V30 23234 C 2088.02 -3.24928 -0.890131 0
M  V30 23235 O 2088.55 -3.50702 -1.95886 0
M  V30 23236 N 2086.76 -2.7835 -0.834838 0
M  V30 23237 H 2086.3 -2.57576 0.0350662 0
M  V30 23238 H 2086.26 -2.64967 -1.69233 0
M  V30 23239 N 2090.03 -0.964615 -1.24631 0
M  V30 23240 C 2091.26 -0.642327 -1.96677 0
M  V30 23241 C 2091.68 0.787619 -1.71587 0
M  V30 23242 O 2091.03 1.52808 -0.9978 0
M  V30 23243 C 2091.08 -0.903712 -3.50022 0
M  V30 23244 O 2090.81 -2.27744 -3.74252 0
M  V30 23245 C 2092.31 -0.595187 -4.39286 0
M  V30 23246 H 2089.53 -0.239932 -0.626637 0
M  V30 23247 H 2092.07 -1.29171 -1.58541 0
M  V30 23248 H 2090.23 -0.300589 -3.86232 0
M  V30 23249 H 2090.64 -2.35512 -4.68652 0
M  V30 23250 H 2092.11 -0.828552 -5.45746 0
M  V30 23251 H 2092.59 0.470491 -4.36673 0
M  V30 23252 H 2093.2 -1.17808 -4.08658 0
M  V30 23253 N 2091.51 1.39445 -0.734362 0
M  V30 23254 C 2092.44 2.33245 -0.109065 0
M  V30 23255 C 2093.42 1.53878 0.724945 0
M  V30 23256 O 2094.61 1.82274 0.670055 0
M  V30 23257 C 2091.74 3.37973 0.799454 0
M  V30 23258 C 2090.69 4.27943 0.0696508 0
M  V30 23259 C 2090.02 5.23365 1.09514 0
M  V30 23260 C 2091.32 5.10855 -1.08738 0
M  V30 23261 H 2093.01 2.85786 -0.892581 0
M  V30 23262 H 2090.56 1.37409 -0.430672 0
M  V30 23263 H 2092.51 4.02545 1.24643 0
M  V30 23264 H 2091.23 2.83871 1.61508 0
M  V30 23265 H 2089.89 3.64851 -0.357693 0
M  V30 23266 H 2089.54 4.65559 1.90432 0
M  V30 23267 H 2089.24 5.84408 0.611606 0
M  V30 23268 H 2090.77 5.90813 1.54183 0
M  V30 23269 H 2092.18 5.68775 -0.718888 0
M  V30 23270 H 2090.58 5.81038 -1.50051 0
M  V30 23271 H 2091.65 4.45725 -1.90937 0
M  V30 23272 N 2092.99 0.481946 1.5005 0
M  V30 23273 C 2094.22 -0.0666474 2.06793 0
M  V30 23274 C 2094.63 -1.3254 1.34457 0
M  V30 23275 O 2093.99 -1.7767 0.417087 0
M  V30 23276 C 2094.04 -0.343693 3.59862 0
M  V30 23277 O 2093.76 0.86514 4.29473 0
M  V30 23278 C 2095.26 -0.93805 4.33261 0
M  V30 23279 H 2092.48 0.0119311 0.670894 0
M  V30 23280 H 2095.03 0.673843 1.93079 0
M  V30 23281 H 2093.18 -1.03413 3.73342 0
M  V30 23282 H 2093.6 0.616339 5.20866 0
M  V30 23283 H 2095.07 -1.0816 5.413 0
M  V30 23284 H 2095.55 -1.93098 3.94474 0
M  V30 23285 H 2096.15 -0.285663 4.2434 0
M  V30 23286 N 2094.47 -1.56127 0.214985 0
M  V30 23287 C 2095.4 -2.17263 -0.730035 0
M  V30 23288 C 2096.41 -1.13988 -1.16235 0
M  V30 23289 O 2097.6 -1.40996 -1.09464 0
M  V30 23290 C 2094.7 -2.73608 -1.99979 0
M  V30 23291 C 2093.87 -4.01988 -1.72409 0
M  V30 23292 C 2092.93 -4.42962 -2.84026 0
M  V30 23293 O 2091.96 -5.09992 -2.52778 0
M  V30 23294 N 2093.16 -4.08103 -4.12834 0
M  V30 23295 H 2095.93 -2.98984 -0.207112 0
M  V30 23296 H 2093.49 -1.61865 0.0337349 0
M  V30 23297 H 2095.48 -2.97994 -2.73828 0
M  V30 23298 H 2094.05 -1.96229 -2.43337 0
M  V30 23299 H 2093.27 -3.85527 -0.822372 0
M  V30 23300 H 2094.56 -4.85749 -1.51411 0
M  V30 23301 H 2093.96 -3.54226 -4.41067 0
M  V30 23302 H 2092.51 -4.37396 -4.83248 0
M  V30 23303 N 2095.95 0.0584645 -1.57492 0
M  V30 23304 C 2097.17 0.767637 -1.92133 0
M  V30 23305 C 2097.59 1.70438 -0.812178 0
M  V30 23306 O 2096.95 1.81246 0.213598 0
M  V30 23307 C 2097 1.54992 -3.26588 0
M  V30 23308 O 2096.72 0.650813 -4.33239 0
M  V30 23309 C 2098.22 2.3589 -3.75328 0
M  V30 23310 H 2095.44 0.2175 -0.634772 0
M  V30 23311 H 2097.98 0.0247547 -2.04485 0
M  V30 23312 H 2096.14 2.24495 -3.15722 0
M  V30 23313 H 2096.55 1.19628 -5.10675 0
M  V30 23314 H 2098.03 2.86216 -4.72 0
M  V30 23315 H 2098.5 3.16011 -3.05014 0
M  V30 23316 H 2099.11 1.71518 -3.89181 0
M  V30 23317 N 2097.42 1.54103 0.330149 0
M  V30 23318 C 2098.65 1.75948 1.08857 0
M  V30 23319 C 2099.07 0.504949 1.81922 0
M  V30 23320 O 2098.42 -0.524053 1.74814 0
M  V30 23321 C 2098.47 2.94836 2.09175 0
M  V30 23322 O 2098.2 4.15438 1.39079 0
M  V30 23323 C 2099.7 3.28839 2.97287 0
M  V30 23324 H 2096.92 0.587551 0.324076 0
M  V30 23325 H 2099.46 2.00971 0.378279 0
M  V30 23326 H 2097.62 2.72105 2.75749 0
M  V30 23327 H 2098.03 4.82266 2.06204 0
M  V30 23328 H 2099.5 4.15343 3.63586 0
M  V30 23329 H 2099.98 2.4572 3.64031 0
M  V30 23330 H 2100.59 3.53624 2.36284 0
M  V30 23331 N 2098.9 -0.59187 1.46064 0
M  V30 23332 C 2099.81 -1.72959 1.585 0
M  V30 23333 C 2100.83 -1.67565 0.468813 0
M  V30 23334 O 2102 -1.87639 0.731679 0
M  V30 23335 C 2099.07 -3.09451 1.56336 0
M  V30 23336 C 2098.13 -3.26179 2.79117 0
M  V30 23337 C 2097.36 -4.56159 2.77046 0
M  V30 23338 O 2097.59 -5.39474 1.85268 0
M  V30 23339 O 2096.52 -4.75937 3.68466 0
M  V30 23340 H 2100.35 -1.65416 2.54699 0
M  V30 23341 H 2097.93 -0.757834 1.28753 0
M  V30 23342 H 2099.81 -3.90742 1.57793 0
M  V30 23343 H 2098.49 -3.17451 0.632949 0
M  V30 23344 H 2097.4 -2.44416 2.83217 0
M  V30 23345 H 2098.73 -3.23064 3.71336 0
M  V30 23346 N 2100.38 -1.33616 -0.835729 0
M  V30 23347 C 2101.33 -1.24117 -1.96717 0
M  V30 23348 C 2102.32 -0.141892 -1.68805 0
M  V30 23349 O 2103.53 -0.306054 -1.77379 0
M  V30 23350 H 2099.9 -0.385249 -0.645823 0
M  V30 23351 H 2101.87 -2.19767 -2.01854 0
M  V30 23352 C 2100.62 -1.00045 -3.32996 0
M  V30 23353 H 2099.95 -1.8386 -3.55015 0
M  V30 23354 H 2101.39 -0.974302 -4.12654 0
M  V30 23355 C 2099.85 0.296559 -3.35592 0
M  V30 23356 O 2100.38 1.30221 -3.80007 0
M  V30 23357 N 2098.58 0.325196 -2.88775 0
M  V30 23358 H 2098.13 -0.493733 -2.52824 0
M  V30 23359 H 2098.09 1.19281 -2.90894 0
M  V30 23360 N 2101.86 1.05436 -1.17136 0
M  V30 23361 C 2102.79 2.15075 -0.909112 0
M  V30 23362 C 2103.77 1.69455 0.147942 0
M  V30 23363 O 2104.95 1.942 -0.00177952 0
M  V30 23364 C 2102.08 3.44764 -0.41892 0
M  V30 23365 C 2101.04 4.03937 -1.41488 0
M  V30 23366 C 2100.36 5.2894 -0.782739 0
M  V30 23367 C 2101.66 4.4171 -2.78728 0
M  V30 23368 H 2103.36 2.37271 -1.826 0
M  V30 23369 H 2100.9 1.14031 -0.879376 0
M  V30 23370 H 2102.86 4.2081 -0.222885 0
M  V30 23371 H 2101.58 3.22213 0.533496 0
M  V30 23372 H 2100.24 3.29958 -1.59761 0
M  V30 23373 H 2099.89 5.0269 0.176435 0
M  V30 23374 H 2099.59 5.6949 -1.44758 0
M  V30 23375 H 2101.11 6.07675 -0.596922 0
M  V30 23376 H 2102.53 5.08801 -2.64187 0
M  V30 23377 H 2100.92 4.93271 -3.41766 0
M  V30 23378 H 2101.99 3.52168 -3.33325 0
M  V30 23379 N 2103.34 0.971211 1.24118 0
M  V30 23380 C 2104.75 0.678316 1.44468 0
M  V30 23381 C 2104.95 -0.75867 1.86672 0
M  V30 23382 O 2104.01 -1.53217 2.00701 0
M  V30 23383 C 2105.32 1.66541 2.50369 0
M  V30 23384 C 2106.87 1.67842 2.64193 0
M  V30 23385 C 2107.34 2.65358 3.73295 0
M  V30 23386 N 2108.84 2.63821 3.80727 0
M  V30 23387 C 2109.57 3.35947 4.6468 0
M  V30 23388 N 2109.07 4.17602 5.52794 0
M  V30 23389 N 2110.86 3.24755 4.58793 0
M  V30 23390 H 2103.01 1.8996 0.950216 0
M  V30 23391 H 2105.27 0.818026 0.479101 0
M  V30 23392 H 2104.98 2.69261 2.26255 0
M  V30 23393 H 2104.85 1.44095 3.48592 0
M  V30 23394 H 2107.24 0.658308 2.87664 0
M  V30 23395 H 2107.32 1.94351 1.66316 0
M  V30 23396 H 2106.97 3.67505 3.50574 0
M  V30 23397 H 2106.9 2.36127 4.70693 0
M  V30 23398 H 2109.39 2.04554 3.17751 0
M  V30 23399 H 2109.7 4.69515 6.13821 0
M  V30 23400 H 2108.04 4.21695 5.52447 0
M  V30 23401 H 2111.24 2.60422 3.8897 0
M  V30 23402 H 2111.41 3.81228 5.23994 0
M  V30 23403 N 2104.81 -1.39054 0.741747 0
M  V30 23404 C 2106.23 -1.54028 0.418052 0
M  V30 23405 C 2106.43 -1.70725 -1.07029 0
M  V30 23406 O 2105.49 -1.71155 -1.8564 0
M  V30 23407 C 2106.8 -2.75414 1.20697 0
M  V30 23408 C 2108.35 -2.89254 1.19586 0
M  V30 23409 C 2108.82 -4.13587 1.96748 0
M  V30 23410 N 2110.31 -4.2064 1.93948 0
M  V30 23411 C 2111.05 -5.15809 2.50456 0
M  V30 23412 N 2110.54 -6.16725 3.15629 0
M  V30 23413 N 2112.34 -5.08074 2.40452 0
M  V30 23414 H 2104.49 -1.26464 1.70648 0
M  V30 23415 H 2106.75 -0.613446 0.722764 0
M  V30 23416 H 2106.46 -2.69441 2.26041 0
M  V30 23417 H 2106.33 -3.6827 0.815905 0
M  V30 23418 H 2108.72 -2.94716 0.150521 0
M  V30 23419 H 2108.8 -1.97443 1.62635 0
M  V30 23420 H 2108.44 -4.08887 3.01287 0
M  V30 23421 H 2108.37 -5.04456 1.51102 0
M  V30 23422 H 2110.86 -3.48358 1.46475 0
M  V30 23423 H 2111.18 -6.85816 3.56197 0
M  V30 23424 H 2109.52 -6.17093 3.19721 0
M  V30 23425 H 2112.71 -4.28172 1.89174 0
M  V30 23426 H 2112.89 -5.82065 2.84788 0
M  V30 23427 N 2106.29 -0.489897 -1.49792 0
M  V30 23428 C 2107.54 0.0586308 -2.02715 0
M  V30 23429 C 2107.87 1.37665 -1.36974 0
M  V30 23430 O 2107.15 1.87919 -0.501679 0
M  V30 23431 C 2107.43 0.222812 -3.5941 0
M  V30 23432 C 2107.28 -1.11755 -4.35696 0
M  V30 23433 C 2108.6 0.96865 -4.29308 0
M  V30 23434 H 2105.72 0.0198337 -0.736733 0
M  V30 23435 H 2108.36 -0.639149 -1.78927 0
M  V30 23436 H 2106.51 0.81714 -3.79809 0
M  V30 23437 H 2108.18 -1.74991 -4.26821 0
M  V30 23438 H 2106.43 -1.70959 -3.98692 0
M  V30 23439 H 2107.1 -0.956105 -5.43657 0
M  V30 23440 H 2109.57 0.464706 -4.13497 0
M  V30 23441 H 2108.45 1.05235 -5.38718 0
M  V30 23442 H 2108.71 2.00975 -3.93778 0
M  V30 23443 N 2107.77 1.56011 -0.223262 0
M  V30 23444 C 2108.68 2.23993 0.697454 0
M  V30 23445 C 2109.7 1.24812 1.21235 0
M  V30 23446 O 2110.87 1.57629 1.2536 0
M  V30 23447 C 2107.94 2.90786 1.88797 0
M  V30 23448 C 2107 4.05314 1.41489 0
M  V30 23449 C 2106.23 4.68913 2.54866 0
M  V30 23450 O 2106.45 4.31505 3.73041 0
M  V30 23451 O 2105.39 5.57872 2.2597 0
M  V30 23452 H 2109.21 3.03338 0.148324 0
M  V30 23453 H 2106.8 1.49398 0.00725836 0
M  V30 23454 H 2108.68 3.32939 2.5832 0
M  V30 23455 H 2107.36 2.144 2.42517 0
M  V30 23456 H 2106.26 3.67726 0.687623 0
M  V30 23457 H 2107.6 4.83448 0.924045 0
M  V30 23458 N 2109.25 -0.0501116 1.5752 0
M  V30 23459 C 2110.16 -1.07459 2.08542 0
M  V30 23460 C 2111.17 -1.41006 1.01947 0
M  V30 23461 O 2112.35 -1.50749 1.33555 0
M  V30 23462 C 2109.42 -2.36274 2.53723 0
M  V30 23463 C 2108.48 -2.095 3.74711 0
M  V30 23464 C 2107.71 -3.32174 4.17728 0
M  V30 23465 O 2107.93 -4.42091 3.60432 0
M  V30 23466 O 2106.87 -3.1911 5.10346 0
M  V30 23467 H 2110.69 -0.671065 2.96193 0
M  V30 23468 H 2108.28 -0.265709 1.47018 0
M  V30 23469 H 2110.16 -3.12043 2.83208 0
M  V30 23470 H 2108.83 -2.75963 1.69192 0
M  V30 23471 H 2107.74 -1.31366 3.50277 0
M  V30 23472 H 2109.07 -1.74679 4.60161 0
M  V30 23473 N 2110.73 -1.54276 -0.321972 0
M  V30 23474 C 2112 -1.63209 -1.07806 0
M  V30 23475 C 2112.38 -0.466965 -2.0587 0
M  V30 23476 O 2111.73 0.538598 -2.22062 0
M  V30 23477 C 2111.94 -3.00279 -1.77858 0
M  V30 23478 C 2113.29 -3.5638 -2.30822 0
M  V30 23479 O 2114.31 -3.02594 -1.87923 0
M  V30 23480 O 2113.17 -4.50507 -3.09364 0
M  V30 23481 H 2110.27 -0.660982 -0.497023 0
M  V30 23482 H 2112.81 -1.66622 -0.321736 0
M  V30 23483 H 2111.58 -3.76518 -1.06537 0
M  V30 23484 H 2111.21 -3.00552 -2.60297 0
M  V30 23485 N 2112.2 0.584116 -1.46376 0
M  V30 23486 C 2113.45 1.33858 -1.5088 0
M  V30 23487 C 2113.77 1.94909 -0.164319 0
M  V30 23488 O 2114.97 2.7136 -0.0871554 0
M  V30 23489 C 2113.43 2.42594 -2.6585 0
M  V30 23490 C 2113.04 1.87853 -4.06713 0
M  V30 23491 C 2114.78 3.19391 -2.79624 0
M  V30 23492 C 2112.69 2.94209 -5.13026 0
M  V30 23493 H 2111.62 0.503207 -0.561515 0
M  V30 23494 H 2114.27 0.623507 -1.72582 0
M  V30 23495 H 2112.65 3.16894 -2.37475 0
M  V30 23496 H 2113.82 1.20105 -4.44872 0
M  V30 23497 H 2112.14 1.23726 -3.97594 0
M  V30 23498 H 2114.74 3.98763 -3.56219 0
M  V30 23499 H 2115.08 3.71891 -1.8709 0
M  V30 23500 H 2115.61 2.52197 -3.07638 0
M  V30 23501 H 2112.35 2.46598 -6.07347 0
M  V30 23502 H 2111.87 3.6045 -4.79412 0
M  V30 23503 H 2113.55 3.58184 -5.38807 0
M  V30 23504 N 2113.68 1.34058 0.828631 0
M  V30 23505 C 2114.62 1.21002 1.94657 0
M  V30 23506 C 2115.63 0.138478 1.6221 0
M  V30 23507 O 2116.82 0.389824 1.74191 0
M  V30 23508 C 2113.92 0.835704 3.28434 0
M  V30 23509 C 2113.09 2.00103 3.88944 0
M  V30 23510 C 2112.15 1.60604 5.01092 0
M  V30 23511 O 2111.18 2.32182 5.19692 0
M  V30 23512 N 2112.38 0.516907 5.78194 0
M  V30 23513 H 2115.14 2.17309 2.0639 0
M  V30 23514 H 2112.7 1.26938 1.00491 0
M  V30 23515 H 2114.7 0.553361 4.00899 0
M  V30 23516 H 2113.27 -0.0370007 3.12578 0
M  V30 23517 H 2112.49 2.44843 3.08943 0
M  V30 23518 H 2113.77 2.78052 4.26104 0
M  V30 23519 H 2113.17 -0.0782718 5.65646 0
M  V30 23520 H 2111.73 0.294274 6.51135 0
M  V30 23521 N 2115.16 -1.04814 1.17694 0
M  V30 23522 C 2116.09 -2.12661 0.854872 0
M  V30 23523 C 2117.11 -1.62159 -0.144345 0
M  V30 23524 O 2118.3 -1.78309 0.0824726 0
M  V30 23525 C 2115.4 -3.37942 0.254679 0
M  V30 23526 C 2114.57 -4.17706 1.2977 0
M  V30 23527 C 2113.63 -5.21326 0.714573 0
M  V30 23528 O 2112.65 -5.52033 1.38736 0
M  V30 23529 N 2113.86 -5.78415 -0.491561 0
M  V30 23530 H 2116.62 -2.40885 1.7831 0
M  V30 23531 H 2114.18 -1.20943 1.0763 0
M  V30 23532 H 2116.17 -4.04426 -0.148817 0
M  V30 23533 H 2114.74 -3.07221 -0.577415 0
M  V30 23534 H 2113.96 -3.46655 1.8768 0
M  V30 23535 H 2115.25 -4.67796 2.00112 0
M  V30 23536 H 2114.65 -5.55756 -1.05604 0
M  V30 23537 H 2113.21 -6.46403 -0.837072 0
M  V30 23538 N 2116.64 -0.977779 -1.23601 0
M  V30 23539 C 2117.57 -0.473925 -2.24247 0
M  V30 23540 C 2118.58 0.422811 -1.57214 0
M  V30 23541 O 2119.77 0.227368 -1.77046 0
M  V30 23542 C 2116.87 0.334033 -3.3725 0
M  V30 23543 C 2116.05 -0.555203 -4.33862 0
M  V30 23544 C 2115.11 0.198457 -5.25826 0
M  V30 23545 O 2114.13 -0.411037 -5.67714 0
M  V30 23546 N 2115.33 1.48519 -5.61179 0
M  V30 23547 H 2118.1 -1.3393 -2.6811 0
M  V30 23548 H 2115.66 -0.850748 -1.37746 0
M  V30 23549 H 2117.65 0.846503 -3.95748 0
M  V30 23550 H 2116.22 1.1004 -2.92592 0
M  V30 23551 H 2115.44 -1.24853 -3.73905 0
M  V30 23552 H 2116.73 -1.16132 -4.95369 0
M  V30 23553 H 2116.13 2.00194 -5.29092 0
M  V30 23554 H 2114.68 1.94316 -6.22161 0
M  V30 23555 N 2118.12 1.38658 -0.749111 0
M  V30 23556 C 2119.06 2.30496 -0.118423 0
M  V30 23557 C 2120.03 1.49947 0.714492 0
M  V30 23558 O 2121.22 1.78591 0.671546 0
M  V30 23559 C 2118.36 3.3635 0.772186 0
M  V30 23560 C 2117.47 4.31935 -0.0748716 0
M  V30 23561 C 2116.61 5.24859 0.818323 0
M  V30 23562 C 2115.65 6.12091 -0.0326386 0
M  V30 23563 N 2114.78 6.97327 0.817267 0
M  V30 23564 H 2119.62 2.83856 -0.90718 0
M  V30 23565 H 2117.16 1.39755 -0.459001 0
M  V30 23566 H 2119.12 3.96326 1.30313 0
M  V30 23567 H 2117.75 2.84411 1.52677 0
M  V30 23568 H 2116.8 3.73458 -0.723395 0
M  V30 23569 H 2118.11 4.93396 -0.732237 0
M  V30 23570 H 2117.27 5.8993 1.4166 0
M  V30 23571 H 2116.01 4.63754 1.50943 0
M  V30 23572 H 2115.01 5.4602 -0.643614 0
M  V30 23573 H 2116.24 6.75264 -0.720742 0
M  V30 23574 H 2114.18 6.38775 1.49341 0
M  V30 23575 H 2114.1 7.55689 0.216698 0
M  V30 23576 H 2115.37 7.66813 1.40066 0
M  V30 23577 N 2119.6 0.497834 1.49531 0
M  V30 23578 C 2120.56 -0.27122 2.2759 0
M  V30 23579 C 2121.56 -0.89678 1.33471 0
M  V30 23580 O 2122.75 -0.761804 1.56659 0
M  V30 23581 C 2119.88 -1.38885 3.11326 0
M  V30 23582 H 2121.07 0.413704 2.97033 0
M  V30 23583 H 2118.63 0.252699 1.54244 0
M  V30 23584 H 2119.36 -2.10802 2.46441 0
M  V30 23585 H 2119.15 -0.94578 3.80523 0
M  V30 23586 H 2120.64 -1.93065 3.70291 0
M  V30 23587 N 2121.07 -1.5589 0.231532 0
M  V30 23588 C 2122.3 -2.02956 -0.40203 0
M  V30 23589 C 2122.72 -1.11115 -1.5264 0
M  V30 23590 O 2122.07 -0.122623 -1.82088 0
M  V30 23591 C 2122.12 -3.49484 -0.924297 0
M  V30 23592 O 2121.85 -4.37825 0.155252 0
M  V30 23593 C 2123.35 -4.12241 -1.6301 0
M  V30 23594 H 2120.57 -0.663905 -0.097323 0
M  V30 23595 H 2123.11 -2.01467 0.350905 0
M  V30 23596 H 2121.27 -3.51557 -1.62747 0
M  V30 23597 H 2121.68 -5.23956 -0.238854 0
M  V30 23598 H 2123.15 -5.16507 -1.94742 0
M  V30 23599 H 2123.63 -3.57824 -2.54674 0
M  V30 23600 H 2124.24 -4.14046 -0.971887 0
M  V30 23601 N 2122.55 0.0417572 -1.57545 0
M  V30 23602 C 2123.8 0.733648 -1.88314 0
M  V30 23603 C 2124.12 1.76568 -0.827577 0
M  V30 23604 O 2123.39 1.95397 0.140345 0
M  V30 23605 H 2121.97 0.273952 -0.694953 0
M  V30 23606 H 2124.63 0.010717 -1.94897 0
M  V30 23607 H 2123.73 1.23116 -2.8679 0
M  V30 23608 N 2124.03 1.54445 0.313786 0
M  V30 23609 C 2125.25 1.77413 1.07421 0
M  V30 23610 C 2125.68 0.525885 1.80599 0
M  V30 23611 O 2125.04 -0.523027 1.73592 0
M  V30 23612 C 2125.09 2.97322 2.04039 0
M  V30 23613 O 2124.19 2.69552 3.12115 0
M  V30 23614 H 2123.53 0.587597 0.309235 0
M  V30 23615 H 2126.06 2.01495 0.355102 0
M  V30 23616 H 2126.07 3.2494 2.46735 0
M  V30 23617 H 2124.75 3.87839 1.5018 0
M  V30 23618 H 2123.32 2.52913 2.74025 0
M  V30 23619 N 2125.51 -0.576345 1.46683 0
M  V30 23620 C 2126.42 -1.71268 1.60326 0
M  V30 23621 C 2127.43 -1.67059 0.486559 0
M  V30 23622 O 2128.61 -1.86852 0.75154 0
M  V30 23623 C 2125.67 -3.07775 1.5961 0
M  V30 23624 C 2124.74 -3.232 2.8256 0
M  V30 23625 C 2123.97 -4.53195 2.81869 0
M  V30 23626 O 2124.19 -5.37478 1.90979 0
M  V30 23627 O 2123.13 -4.72003 3.73493 0
M  V30 23628 H 2126.95 -1.62705 2.56439 0
M  V30 23629 H 2124.54 -0.744135 1.29549 0
M  V30 23630 H 2126.42 -3.89046 1.61929 0
M  V30 23631 H 2125.09 -3.16762 0.666583 0
M  V30 23632 H 2124 -2.41398 2.85793 0
M  V30 23633 H 2125.33 -3.19107 3.74742 0
M  V30 23634 N 2126.99 -1.34495 -0.82151 0
M  V30 23635 C 2128.23 -1.27119 -1.58014 0
M  V30 23636 C 2128.56 0.158163 -1.93555 0
M  V30 23637 O 2127.84 1.10389 -1.60139 0
M  V30 23638 C 2128.12 -2.16338 -2.87871 0
M  V30 23639 C 2127.98 -3.67818 -2.58902 0
M  V30 23640 C 2129.29 -2.04971 -3.89455 0
M  V30 23641 H 2126.41 -0.463115 -0.573318 0
M  V30 23642 H 2129.06 -1.6476 -0.946264 0
M  V30 23643 H 2127.21 -1.84367 -3.41966 0
M  V30 23644 H 2128.88 -4.10161 -2.11106 0
M  V30 23645 H 2127.12 -3.88837 -1.92324 0
M  V30 23646 H 2127.79 -4.25612 -3.51509 0
M  V30 23647 H 2130.27 -2.33044 -3.44717 0
M  V30 23648 H 2129.14 -2.6962 -4.78118 0
M  V30 23649 H 2129.4 -1.02711 -4.30003 0
M  V30 23650 N 2128.46 1.04188 -1.18248 0
M  V30 23651 C 2129.69 1.81559 -1.00255 0
M  V30 23652 C 2130.11 1.82777 0.444336 0
M  V30 23653 O 2129.47 1.24417 1.31872 0
M  V30 23654 C 2129.52 3.25089 -1.56044 0
M  V30 23655 O 2128.62 4.04938 -0.780971 0
M  V30 23656 H 2127.97 0.560976 -0.355248 0
M  V30 23657 H 2130.5 1.31223 -1.56977 0
M  V30 23658 H 2130.51 3.75869 -1.58703 0
M  V30 23659 H 2129.18 3.23517 -2.61361 0
M  V30 23660 H 2127.76 3.63623 -0.826593 0
M  V30 23661 N 2129.94 0.98432 1.23081 0
M  V30 23662 C 2130.87 0.48581 2.23992 0
M  V30 23663 C 2131.89 -0.414468 1.57436 0
M  V30 23664 O 2133.08 -0.217976 1.77164 0
M  V30 23665 C 2130.18 -0.316143 3.37422 0
M  V30 23666 C 2129.35 0.578204 4.33561 0
M  V30 23667 C 2128.41 -0.170568 5.25923 0
M  V30 23668 O 2127.43 0.441138 5.67488 0
M  V30 23669 N 2128.64 -1.45541 5.61959 0
M  V30 23670 H 2131.4 1.3535 2.67396 0
M  V30 23671 H 2128.96 0.858041 1.37293 0
M  V30 23672 H 2130.95 -0.825504 3.96191 0
M  V30 23673 H 2129.52 -1.08487 2.93171 0
M  V30 23674 H 2128.74 1.26835 3.73238 0
M  V30 23675 H 2130.03 1.18757 4.94747 0
M  V30 23676 H 2129.43 -1.97385 5.30147 0
M  V30 23677 H 2127.99 -1.91013 6.23183 0
M  V30 23678 N 2131.42 -1.38259 0.756453 0
M  V30 23679 C 2132.84 -1.53575 0.434365 0
M  V30 23680 C 2133.04 -1.71851 -1.05212 0
M  V30 23681 O 2132.09 -1.73115 -1.83814 0
M  V30 23682 C 2133.41 -2.74118 1.23611 0
M  V30 23683 C 2134.95 -2.8797 1.22647 0
M  V30 23684 C 2135.43 -4.11477 2.01124 0
M  V30 23685 N 2136.92 -4.1856 1.98399 0
M  V30 23686 C 2137.65 -5.13124 2.55913 0
M  V30 23687 N 2137.15 -6.13343 3.22153 0
M  V30 23688 N 2138.94 -5.05495 2.45827 0
M  V30 23689 H 2131.09 -1.24647 1.7198 0
M  V30 23690 H 2133.36 -0.605745 0.72923 0
M  V30 23691 H 2133.06 -2.67028 2.28886 0
M  V30 23692 H 2132.94 -3.67384 0.854919 0
M  V30 23693 H 2135.32 -2.9454 0.181771 0
M  V30 23694 H 2135.41 -1.95707 1.6472 0
M  V30 23695 H 2135.05 -4.05669 3.05607 0
M  V30 23696 H 2134.98 -5.02825 1.56444 0
M  V30 23697 H 2137.47 -3.46785 1.50161 0
M  V30 23698 H 2137.78 -6.81999 3.63451 0
M  V30 23699 H 2136.13 -6.13667 3.26248 0
M  V30 23700 H 2139.32 -4.26141 1.93705 0
M  V30 23701 H 2139.49 -5.79012 2.90946 0
M  V30 23702 N 2132.9 -0.505757 -1.49264 0
M  V30 23703 C 2133.85 0.270127 -2.29214 0
M  V30 23704 C 2134.82 0.956031 -1.35828 0
M  V30 23705 O 2136 0.961771 -1.64787 0
M  V30 23706 C 2133.14 1.32577 -3.18618 0
M  V30 23707 C 2132.25 0.65116 -4.27064 0
M  V30 23708 C 2131.39 1.68765 -5.03678 0
M  V30 23709 C 2130.43 0.995172 -6.03956 0
M  V30 23710 N 2129.56 1.97608 -6.73718 0
M  V30 23711 H 2134.4 -0.41788 -2.95056 0
M  V30 23712 H 2131.94 -0.217921 -1.45477 0
M  V30 23713 H 2133.9 1.94985 -3.68832 0
M  V30 23714 H 2132.53 1.98248 -2.5475 0
M  V30 23715 H 2131.58 -0.0863124 -3.80302 0
M  V30 23716 H 2132.89 0.106277 -4.98687 0
M  V30 23717 H 2132.05 2.38665 -5.57785 0
M  V30 23718 H 2130.79 2.2664 -4.3184 0
M  V30 23719 H 2129.79 0.281968 -5.49076 0
M  V30 23720 H 2131.02 0.422861 -6.77782 0
M  V30 23721 H 2128.96 2.54436 -6.04647 0
M  V30 23722 H 2128.88 1.48199 -7.41332 0
M  V30 23723 H 2130.15 2.66782 -7.32426 0
M  V30 23724 N 2134.38 1.55765 -0.239796 0
M  V30 23725 C 2135.31 2.18397 0.695377 0
M  V30 23726 C 2136.32 1.15822 1.14407 0
M  V30 23727 O 2137.51 1.4272 1.07207 0
M  V30 23728 C 2134.61 2.76755 1.95601 0
M  V30 23729 C 2133.78 4.0468 1.65992 0
M  V30 23730 C 2132.84 4.47425 2.76943 0
M  V30 23731 O 2131.87 5.13949 2.44632 0
M  V30 23732 N 2133.07 4.14619 4.0629 0
M  V30 23733 H 2135.84 2.99275 0.15952 0
M  V30 23734 H 2133.4 1.61791 -0.0594819 0
M  V30 23735 H 2135.39 3.02313 2.69052 0
M  V30 23736 H 2133.96 2.00075 2.40185 0
M  V30 23737 H 2133.18 3.86786 0.760934 0
M  V30 23738 H 2134.47 4.88096 1.43664 0
M  V30 23739 H 2133.86 3.61198 4.35376 0
M  V30 23740 H 2132.42 4.45028 4.76228 0
M  V30 23741 N 2135.85 -0.0334016 1.57565 0
M  V30 23742 C 2136.79 -1.06286 2.03066 0
M  V30 23743 C 2137.8 -1.32726 0.942744 0
M  V30 23744 O 2138.99 -1.3029 1.22012 0
M  V30 23745 C 2136.09 -2.40547 2.38727 0
M  V30 23746 C 2135.26 -2.33524 3.69845 0
M  V30 23747 C 2134.32 -3.50199 3.92743 0
M  V30 23748 O 2133.35 -3.29889 4.63856 0
M  V30 23749 N 2134.55 -4.71916 3.38047 0
M  V30 23750 H 2137.31 -0.675062 2.91998 0
M  V30 23751 H 2134.87 -0.221423 1.60379 0
M  V30 23752 H 2136.87 -3.17313 2.51186 0
M  V30 23753 H 2135.44 -2.71187 1.55488 0
M  V30 23754 H 2134.66 -1.41885 3.6778 0
M  V30 23755 H 2135.94 -2.2597 4.55867 0
M  V30 23756 H 2135.34 -4.91318 2.80398 0
M  V30 23757 H 2133.9 -5.46062 3.55893 0
M  V30 23758 N 2137.33 -1.54609 -0.305591 0
M  V30 23759 C 2138.26 -1.88242 -1.38157 0
M  V30 23760 C 2139.24 -0.740883 -1.53117 0
M  V30 23761 O 2140.43 -0.996214 -1.66701 0
M  V30 23762 C 2137.56 -2.12567 -2.7465 0
M  V30 23763 C 2136.51 -3.28415 -2.74459 0
M  V30 23764 C 2135.84 -3.38148 -4.14198 0
M  V30 23765 C 2137.14 -4.65633 -2.36607 0
M  V30 23766 H 2138.83 -2.78359 -1.10258 0
M  V30 23767 H 2136.38 -1.33933 -0.528959 0
M  V30 23768 H 2138.33 -2.34681 -3.50004 0
M  V30 23769 H 2137.06 -1.19216 -3.04064 0
M  V30 23770 H 2135.71 -3.06217 -2.01561 0
M  V30 23771 H 2135.36 -2.42323 -4.40782 0
M  V30 23772 H 2135.06 -4.16019 -4.14973 0
M  V30 23773 H 2136.59 -3.62517 -4.91339 0
M  V30 23774 H 2138 -4.87508 -3.01677 0
M  V30 23775 H 2136.4 -5.46184 -2.48603 0
M  V30 23776 H 2137.47 -4.66662 -1.31738 0
M  V30 23777 N 2138.81 0.568558 -1.46987 0
M  V30 23778 C 2139.72 1.70416 -1.61232 0
M  V30 23779 C 2140.74 1.66798 -0.495411 0
M  V30 23780 O 2141.91 1.86451 -0.761438 0
M  V30 23781 C 2138.98 3.06924 -1.6124 0
M  V30 23782 C 2138.04 3.21697 -2.8427 0
M  V30 23783 C 2137.27 4.51694 -2.84268 0
M  V30 23784 O 2137.49 5.36458 -1.93827 0
M  V30 23785 O 2136.43 4.70015 -3.75991 0
M  V30 23786 H 2140.25 1.61343 -2.57298 0
M  V30 23787 H 2137.84 0.737255 -1.29942 0
M  V30 23788 H 2139.72 3.88182 -1.6399 0
M  V30 23789 H 2138.4 3.16404 -0.683373 0
M  V30 23790 H 2137.3 2.39879 -2.87069 0
M  V30 23791 H 2138.64 3.17115 -3.76429 0
M  V30 23792 N 2140.29 1.34929 0.814366 0
M  V30 23793 C 2141.53 1.27956 1.57338 0
M  V30 23794 C 2141.87 -0.147896 1.93636 0
M  V30 23795 O 2141.14 -1.09539 1.60722 0
M  V30 23796 C 2141.43 2.17862 2.8672 0
M  V30 23797 C 2141.28 3.69185 2.56948 0
M  V30 23798 C 2142.6 2.07033 3.88362 0
M  V30 23799 H 2139.72 0.466149 0.570854 0
M  V30 23800 H 2142.36 1.65259 0.937513 0
M  V30 23801 H 2140.51 1.86178 3.40984 0
M  V30 23802 H 2142.18 4.11275 2.08927 0
M  V30 23803 H 2140.42 3.89851 1.90259 0
M  V30 23804 H 2141.09 4.2747 3.49247 0
M  V30 23805 H 2143.57 2.34869 3.43476 0
M  V30 23806 H 2142.45 2.72151 4.76681 0
M  V30 23807 H 2142.71 1.04989 4.29453 0
M  V30 23808 N 2141.77 -1.0356 1.18799 0
M  V30 23809 C 2142.68 -2.15173 0.934763 0
M  V30 23810 C 2143.69 -1.73695 -0.102902 0
M  V30 23811 O 2144.87 -2.0124 0.0801886 0
M  V30 23812 C 2141.93 -3.43507 0.469463 0
M  V30 23813 C 2140.99 -3.99337 1.57571 0
M  V30 23814 C 2140.23 -5.21546 1.13251 0
M  V30 23815 O 2140.45 -5.704 -0.0066957 0
M  V30 23816 O 2139.38 -5.70039 1.93233 0
M  V30 23817 H 2143.21 -2.39393 1.86881 0
M  V30 23818 H 2140.8 -1.13608 0.970239 0
M  V30 23819 H 2142.68 -4.20834 0.218298 0
M  V30 23820 H 2141.35 -3.20747 -0.436226 0
M  V30 23821 H 2140.26 -3.23375 1.88095 0
M  V30 23822 H 2141.59 -4.26448 2.45771 0
M  V30 23823 N 2143.25 -0.990834 -1.22557 0
M  V30 23824 C 2144.18 -0.559304 -2.26703 0
M  V30 23825 C 2145.16 0.412782 -1.65016 0
M  V30 23826 O 2146.34 0.303868 -1.91808 0
M  V30 23827 C 2143.47 0.12888 -3.47061 0
M  V30 23828 C 2142.43 -0.76154 -4.2117 0
M  V30 23829 C 2141.75 0.0594442 -5.34667 0
M  V30 23830 C 2143.05 -2.0574 -4.80071 0
M  V30 23831 H 2144.75 -1.42983 -2.63052 0
M  V30 23832 H 2142.29 -0.68896 -1.26449 0
M  V30 23833 H 2144.24 0.44215 -4.19074 0
M  V30 23834 H 2142.97 1.03394 -3.09802 0
M  V30 23835 H 2141.63 -1.05842 -3.50989 0
M  V30 23836 H 2141.28 0.965355 -4.9365 0
M  V30 23837 H 2140.98 -0.533291 -5.85175 0
M  V30 23838 H 2142.5 0.366857 -6.09497 0
M  V30 23839 H 2143.91 -1.80821 -5.44037 0
M  V30 23840 H 2142.31 -2.59878 -5.4091 0
M  V30 23841 H 2143.38 -2.73748 -4.00237 0
M  V30 23842 N 2144.72 1.37856 -0.763775 0
M  V30 23843 C 2146.14 1.53343 -0.442503 0
M  V30 23844 C 2146.34 1.72406 1.04299 0
M  V30 23845 O 2145.4 1.74087 1.82893 0
M  V30 23846 C 2146.71 2.73459 -1.25063 0
M  V30 23847 C 2148.26 2.87315 -1.24173 0
M  V30 23848 C 2148.73 4.10404 -2.03303 0
M  V30 23849 N 2150.22 4.17501 -2.00616 0
M  V30 23850 C 2150.96 5.11759 -2.58631 0
M  V30 23851 N 2150.45 6.11626 -3.25401 0
M  V30 23852 N 2152.25 5.04184 -2.48505 0
M  V30 23853 H 2144.4 1.23733 -1.72638 0
M  V30 23854 H 2146.66 0.601869 -0.732432 0
M  V30 23855 H 2146.37 2.65811 -2.30299 0
M  V30 23856 H 2146.24 3.66925 -0.87439 0
M  V30 23857 H 2148.63 2.94439 -0.197389 0
M  V30 23858 H 2148.71 1.9483 -1.65755 0
M  V30 23859 H 2148.35 4.04042 -3.07754 0
M  V30 23860 H 2148.28 5.01988 -1.59108 0
M  V30 23861 H 2150.77 3.45984 -1.51998 0
M  V30 23862 H 2151.09 6.80062 -3.67063 0
M  V30 23863 H 2149.43 6.11928 -3.29498 0
M  V30 23864 H 2152.62 4.25108 -1.95962 0
M  V30 23865 H 2152.8 5.7746 -2.94013 0
M  V30 23866 N 2146.2 0.513665 1.48994 0
M  V30 23867 C 2147.13 -0.29486 2.27295 0
M  V30 23868 C 2148.15 -0.919245 1.34364 0
M  V30 23869 O 2149.34 -0.800442 1.59547 0
M  V30 23870 C 2146.44 -1.43125 3.07195 0
M  V30 23871 C 2145.61 -0.911824 4.2779 0
M  V30 23872 C 2144.67 -1.92735 4.89632 0
M  V30 23873 O 2143.69 -1.49081 5.4933 0
M  V30 23874 N 2144.9 -3.25858 4.80413 0
M  V30 23875 H 2147.66 0.376609 2.97324 0
M  V30 23876 H 2145.22 0.346983 1.58138 0
M  V30 23877 H 2147.21 -2.10843 3.45438 0
M  V30 23878 H 2145.78 -2.00665 2.39692 0
M  V30 23879 H 2145 -0.059147 3.94156 0
M  V30 23880 H 2146.29 -0.543402 5.0589 0
M  V30 23881 H 2145.69 -3.64003 4.33034 0
M  V30 23882 H 2144.25 -3.89255 5.22804 0
M  V30 23883 N 2147.68 -1.55636 0.248053 0
M  V30 23884 C 2148.93 -1.99266 -0.376927 0
M  V30 23885 C 2149.26 -1.13602 -1.57506 0
M  V30 23886 O 2148.53 -0.199686 -1.93472 0
M  V30 23887 C 2148.82 -3.51425 -0.785664 0
M  V30 23888 C 2148.67 -4.47854 0.417942 0
M  V30 23889 C 2149.99 -4.08714 -1.63221 0
M  V30 23890 H 2147.11 -0.724431 -0.135531 0
M  V30 23891 H 2149.75 -1.86756 0.349594 0
M  V30 23892 H 2147.9 -3.62216 -1.40469 0
M  V30 23893 H 2149.57 -4.49041 1.05638 0
M  V30 23894 H 2147.81 -4.20629 1.06084 0
M  V30 23895 H 2148.49 -5.51929 0.0886002 0
M  V30 23896 H 2150.96 -4.01031 -1.10966 0
M  V30 23897 H 2149.84 -5.15443 -1.88706 0
M  V30 23898 H 2150.1 -3.57242 -2.60443 0
M  V30 23899 N 2149.16 0.0250451 -1.5758 0
M  V30 23900 C 2150.39 0.72671 -1.93718 0
M  V30 23901 C 2150.8 1.68677 -0.848148 0
M  V30 23902 O 2150.16 1.81658 0.175105 0
M  V30 23903 C 2150.21 1.4803 -3.29802 0
M  V30 23904 O 2149.93 0.55877 -4.34522 0
M  V30 23905 C 2151.43 2.27876 -3.80247 0
M  V30 23906 H 2148.65 0.203986 -0.639242 0
M  V30 23907 H 2151.19 -0.0186251 -2.04492 0
M  V30 23908 H 2149.35 2.17748 -3.20413 0
M  V30 23909 H 2149.76 1.08769 -5.13098 0
M  V30 23910 H 2151.24 2.7614 -4.77965 0
M  V30 23911 H 2151.71 3.09471 -3.11648 0
M  V30 23912 H 2152.32 1.63224 -3.92731 0
M  V30 23913 N 2150.64 1.54769 0.297388 0
M  V30 23914 C 2151.57 1.82346 1.38861 0
M  V30 23915 C 2152.58 0.7066 1.46666 0
M  V30 23916 O 2153.77 0.984128 1.4892 0
M  V30 23917 C 2150.87 1.94966 2.77203 0
M  V30 23918 C 2150.04 3.25403 2.92287 0
M  V30 23919 C 2149.1 3.28394 4.1115 0
M  V30 23920 O 2148.13 4.01906 4.03063 0
M  V30 23921 N 2149.33 2.54044 5.2196 0
M  V30 23922 H 2152.09 2.76526 1.15558 0
M  V30 23923 H 2149.66 1.54387 0.487465 0
M  V30 23924 H 2151.65 1.94365 3.54971 0
M  V30 23925 H 2150.22 1.07765 2.93437 0
M  V30 23926 H 2149.44 3.38748 2.01602 0
M  V30 23927 H 2150.73 4.11473 2.99278 0
M  V30 23928 H 2150.12 1.93956 5.31411 0
M  V30 23929 H 2148.68 2.59192 5.98049 0
M  V30 23930 N 2152.11 -0.560755 1.47286 0
M  V30 23931 C 2153.05 -1.68362 1.54044 0
M  V30 23932 C 2154.02 -1.57783 0.392845 0
M  V30 23933 O 2155.21 -1.78691 0.60014 0
M  V30 23934 C 2152.34 -3.06581 1.43964 0
M  V30 23935 C 2151.38 -3.35616 2.63181 0
M  V30 23936 S 2152.21 -3.25261 4.254 0
M  V30 23937 C 2153.37 -4.6598 4.17868 0
M  V30 23938 H 2153.6 -1.62375 2.49042 0
M  V30 23939 H 2151.14 -0.741289 1.35441 0
M  V30 23940 H 2153.09 -3.86309 1.38836 0
M  V30 23941 H 2151.76 -3.10037 0.503571 0
M  V30 23942 H 2150.95 -4.36371 2.52182 0
M  V30 23943 H 2150.55 -2.63499 2.65413 0
M  V30 23944 H 2152.84 -5.56853 3.85903 0
M  V30 23945 H 2153.79 -4.82036 5.18698 0
M  V30 23946 H 2154.19 -4.4386 3.48781 0
M  V30 23947 N 2153.59 -1.35359 -0.807199 0
M  V30 23948 C 2155.01 -1.15384 -1.10266 0
M  V30 23949 C 2155.21 0.0341061 -2.01471 0
M  V30 23950 O 2154.26 0.704898 -2.42461 0
M  V30 23951 C 2155.58 -2.45652 -1.73423 0
M  V30 23952 C 2157.12 -2.51853 -1.85847 0
M  V30 23953 C 2157.6 -3.82163 -2.5242 0
M  V30 23954 N 2159.09 -3.83411 -2.59905 0
M  V30 23955 C 2159.83 -4.80967 -3.12183 0
M  V30 23956 N 2159.32 -5.88912 -3.64903 0
M  V30 23957 N 2161.11 -4.68405 -3.1073 0
M  V30 23958 H 2153.27 -2.11448 -0.200891 0
M  V30 23959 H 2155.53 -0.935782 -0.151711 0
M  V30 23960 H 2155.23 -3.32755 -1.13874 0
M  V30 23961 H 2155.11 -2.60154 -2.73129 0
M  V30 23962 H 2157.5 -1.6518 -2.4454 0
M  V30 23963 H 2157.58 -2.41265 -0.84998 0
M  V30 23964 H 2157.22 -4.69234 -1.94376 0
M  V30 23965 H 2157.15 -3.90039 -3.53804 0
M  V30 23966 H 2159.64 -3.05415 -2.22553 0
M  V30 23967 H 2159.95 -6.59346 -4.03091 0
M  V30 23968 H 2158.3 -5.92605 -3.63104 0
M  V30 23969 H 2161.49 -3.83215 -2.6882 0
M  V30 23970 H 2161.66 -5.44598 -3.51166 0
M  V30 23971 N 2155.07 1.02928 -1.19346 0
M  V30 23972 C 2156.3 1.79948 -1.02109 0
M  V30 23973 C 2156.71 1.83834 0.430184 0
M  V30 23974 O 2156.07 1.28209 1.2988 0
M  V30 23975 C 2156.12 3.25018 -1.58258 0
M  V30 23976 O 2155.84 3.21409 -2.97705 0
M  V30 23977 C 2157.34 4.18638 -1.45798 0
M  V30 23978 H 2154.56 0.566313 -0.359904 0
M  V30 23979 H 2157.11 1.29645 -1.58153 0
M  V30 23980 H 2155.26 3.72512 -1.06364 0
M  V30 23981 H 2155.68 4.12372 -3.24113 0
M  V30 23982 H 2157.15 5.1832 -1.89865 0
M  V30 23983 H 2157.63 4.37297 -0.408433 0
M  V30 23984 H 2158.23 3.77017 -1.96821 0
M  V30 23985 N 2156.55 0.997319 1.2203 0
M  V30 23986 C 2157.46 0.560352 2.2781 0
M  V30 23987 C 2158.47 -0.392977 1.69504 0
M  V30 23988 O 2159.65 -0.258715 1.99731 0
M  V30 23989 C 2156.71 -0.113747 3.46513 0
M  V30 23990 C 2155.78 0.883099 4.20119 0
M  V30 23991 C 2155.01 0.241074 5.33155 0
M  V30 23992 O 2155.23 -0.963972 5.62195 0
M  V30 23993 O 2154.17 0.948154 5.94385 0
M  V30 23994 H 2157.99 1.44049 2.67364 0
M  V30 23995 H 2155.58 0.765793 1.28281 0
M  V30 23996 H 2157.46 -0.491137 4.18528 0
M  V30 23997 H 2156.13 -0.968387 3.08875 0
M  V30 23998 H 2155.04 1.3115 3.50358 0
M  V30 23999 H 2156.37 1.70708 4.61649 0
M  V30 24000 N 2158.03 -1.37449 0.771075 0
M  V30 24001 C 2158.94 -2.3407 0.157631 0
M  V30 24002 C 2159.95 -1.60145 -0.680404 0
M  V30 24003 O 2161.13 -1.9224 -0.600482 0
M  V30 24004 C 2158.19 -3.39316 -0.711733 0
M  V30 24005 C 2157.25 -4.29063 0.142682 0
M  V30 24006 C 2156.49 -5.29282 -0.685284 0
M  V30 24007 O 2156.71 -5.37029 -1.92241 0
M  V30 24008 O 2155.64 -6.01825 -0.0948431 0
M  V30 24009 H 2159.47 -2.8826 0.956036 0
M  V30 24010 H 2157.06 -1.39598 0.532224 0
M  V30 24011 H 2158.94 -4.03713 -1.20806 0
M  V30 24012 H 2157.61 -2.87455 -1.48834 0
M  V30 24013 H 2156.52 -3.67769 0.685357 0
M  V30 24014 H 2157.85 -4.84227 0.882356 0
M  V30 24015 N 2159.5 -0.52156 -1.4872 0
M  V30 24016 C 2160.73 0.013899 -2.07395 0
M  V30 24017 C 2161.15 1.28175 -1.37669 0
M  V30 24018 O 2160.51 1.75882 -0.439921 0
M  V30 24019 C 2160.56 0.229553 -3.59869 0
M  V30 24020 O 2159.66 1.30002 -3.91374 0
M  V30 24021 H 2159.01 -0.0353734 -0.663057 0
M  V30 24022 H 2161.54 -0.727065 -1.91246 0
M  V30 24023 H 2161.55 0.454795 -4.05457 0
M  V30 24024 H 2160.22 -0.696653 -4.10024 0
M  V30 24025 H 2158.8 1.0581 -3.57573 0
M  V30 24026 N 2160.98 1.55502 -0.256304 0
M  V30 24027 C 2162.23 1.99463 0.366354 0
M  V30 24028 C 2162.56 1.14436 1.56902 0
M  V30 24029 O 2161.84 0.209944 1.93364 0
M  V30 24030 C 2162.12 3.51836 0.767016 0
M  V30 24031 C 2161.97 4.47626 -0.441687 0
M  V30 24032 C 2163.29 4.09574 1.61051 0
M  V30 24033 H 2160.41 0.72514 0.131688 0
M  V30 24034 H 2163.05 1.86568 -0.359494 0
M  V30 24035 H 2161.2 3.62956 1.38546 0
M  V30 24036 H 2162.87 4.48475 -1.08018 0
M  V30 24037 H 2161.12 4.2006 -1.08313 0
M  V30 24038 H 2161.79 5.51874 -0.117869 0
M  V30 24039 H 2164.26 4.01614 1.08838 0
M  V30 24040 H 2163.14 5.16436 1.85969 0
M  V30 24041 H 2163.4 3.58619 2.58544 0
M  V30 24042 N 2162.46 -0.0166879 1.57591 0
M  V30 24043 C 2163.88 -0.372531 1.55191 0
M  V30 24044 C 2164.08 -1.75838 0.984042 0
M  V30 24045 O 2163.13 -2.45008 0.610513 0
M  V30 24046 C 2164.45 -0.263043 2.99547 0
M  V30 24047 C 2165.99 -0.339216 3.11156 0
M  V30 24048 C 2166.47 -0.259039 4.57267 0
M  V30 24049 N 2167.96 -0.317455 4.62111 0
M  V30 24050 C 2168.69 -0.278499 5.72723 0
M  V30 24051 N 2168.19 -0.191112 6.92536 0
M  V30 24052 N 2169.98 -0.32914 5.61136 0
M  V30 24053 H 2162.13 0.890086 1.9285 0
M  V30 24054 H 2164.4 0.339637 0.885071 0
M  V30 24055 H 2164.1 0.689794 3.44869 0
M  V30 24056 H 2163.98 -1.0518 3.62239 0
M  V30 24057 H 2166.36 -1.28249 2.65775 0
M  V30 24058 H 2166.45 0.479109 2.51273 0
M  V30 24059 H 2166.09 0.68062 5.03319 0
M  V30 24060 H 2166.02 -1.09563 5.15076 0
M  V30 24061 H 2168.51 -0.387004 3.75913 0
M  V30 24062 H 2168.82 -0.166827 7.7262 0
M  V30 24063 H 2167.17 -0.15698 6.94823 0
M  V30 24064 H 2170.36 -0.395489 4.66426 0
M  V30 24065 H 2170.53 -0.295314 6.47327 0
M  V30 24066 N 2163.94 -1.54924 -0.289176 0
M  V30 24067 C 2165.17 -1.78513 -1.04003 0
M  V30 24068 C 2165.58 -0.550557 -1.81012 0
M  V30 24069 O 2164.92 0.489519 -1.77058 0
M  V30 24070 C 2164.98 -2.9476 -2.05808 0
M  V30 24071 C 2164.65 -4.32411 -1.47886 0
M  V30 24072 C 2165.64 -5.12002 -0.902795 0
M  V30 24073 C 2163.33 -4.79037 -1.51092 0
M  V30 24074 C 2165.32 -6.36345 -0.366511 0
M  V30 24075 C 2163.01 -6.0334 -0.970774 0
M  V30 24076 C 2164.01 -6.8183 -0.39955 0
M  V30 24077 O 2163.69 -8.03791 0.132375 0
M  V30 24078 H 2163.43 -0.598816 -0.31368 0
M  V30 24079 H 2165.98 -2.02726 -0.330347 0
M  V30 24080 H 2164.21 -2.66199 -2.8049 0
M  V30 24081 H 2165.9 -3.05817 -2.6689 0
M  V30 24082 H 2166.67 -4.77118 -0.870835 0
M  V30 24083 H 2162.54 -4.17964 -1.94493 0
M  V30 24084 H 2166.09 -6.97554 0.0799946 0
M  V30 24085 H 2161.99 -6.37708 -0.99992 0
M  V30 24086 H 2162.75 -8.18498 0.0201954 0
M  V30 24087 N 2165.42 0.552936 -1.47582 0
M  V30 24088 C 2166.36 1.65963 -1.60389 0
M  V30 24089 C 2167.33 1.59979 -0.446754 0
M  V30 24090 O 2168.52 1.78749 -0.667351 0
M  V30 24091 C 2165.66 3.04278 -1.62815 0
M  V30 24092 C 2164.77 3.20668 -2.89476 0
M  V30 24093 C 2163.91 4.49406 -2.8321 0
M  V30 24094 C 2162.95 4.59243 -4.04676 0
M  V30 24095 N 2162.08 5.79341 -3.96621 0
M  V30 24096 H 2166.92 1.54355 -2.54909 0
M  V30 24097 H 2164.46 0.751844 -1.26435 0
M  V30 24098 H 2166.42 3.84377 -1.62204 0
M  V30 24099 H 2165.05 3.14712 -0.718048 0
M  V30 24100 H 2164.1 2.33973 -2.99935 0
M  V30 24101 H 2165.41 3.238 -3.79414 0
M  V30 24102 H 2164.57 5.3777 -2.80872 0
M  V30 24103 H 2163.3 4.4876 -1.90961 0
M  V30 24104 H 2162.31 3.69291 -4.07314 0
M  V30 24105 H 2163.53 4.61645 -4.98057 0
M  V30 24106 H 2161.48 5.79636 -3.07178 0
M  V30 24107 H 2161.4 5.8387 -4.80242 0
M  V30 24108 H 2162.67 6.70054 -3.98306 0
M  V30 24109 N 2166.89 1.35785 0.800009 0
M  V30 24110 C 2167.83 1.25104 1.92046 0
M  V30 24111 C 2168.84 0.172854 1.6188 0
M  V30 24112 O 2170.03 0.426685 1.73325 0
M  V30 24113 C 2167.13 0.905182 3.26588 0
M  V30 24114 C 2166.3 2.08308 3.84612 0
M  V30 24115 C 2165.36 1.71196 4.97572 0
M  V30 24116 O 2164.39 2.43153 5.1465 0
M  V30 24117 N 2165.59 0.639434 5.76967 0
M  V30 24118 H 2168.35 2.21638 2.01734 0
M  V30 24119 H 2165.91 1.29041 0.977759 0
M  V30 24120 H 2167.91 0.638273 3.99635 0
M  V30 24121 H 2166.48 0.02931 3.12586 0
M  V30 24122 H 2165.7 2.51341 3.0368 0
M  V30 24123 H 2166.98 2.87028 4.2011 0
M  V30 24124 H 2166.38 0.0417276 5.65685 0
M  V30 24125 H 2164.94 0.432323 6.50365 0
M  V30 24126 N 2168.37 -1.02294 1.19891 0
M  V30 24127 C 2169.6 -1.79941 1.03131 0
M  V30 24128 C 2170.02 -1.8346 -0.415201 0
M  V30 24129 O 2169.38 -1.26499 -1.29876 0
M  V30 24130 C 2169.43 -3.22565 1.61196 0
M  V30 24131 O 2168.53 -4.03644 0.845295 0
M  V30 24132 H 2167.87 -0.555254 0.364128 0
M  V30 24133 H 2170.4 -1.28709 1.59045 0
M  V30 24134 H 2170.41 -3.73296 1.64663 0
M  V30 24135 H 2169.09 -3.19318 2.66474 0
M  V30 24136 H 2167.67 -3.62262 0.884338 0
M  V30 24137 N 2169.85 -1.00378 -1.21499 0
M  V30 24138 C 2170.78 -0.583318 -2.26097 0
M  V30 24139 C 2171.76 0.395257 -1.65444 0
M  V30 24140 O 2172.95 0.283508 -1.92119 0
M  V30 24141 C 2170.08 0.0920619 -3.47178 0
M  V30 24142 C 2169.03 -0.806168 -4.20339 0
M  V30 24143 C 2168.36 0.0027323 -5.347 0
M  V30 24144 C 2169.66 -2.1082 -4.77862 0
M  V30 24145 H 2171.35 -1.45765 -2.6152 0
M  V30 24146 H 2168.9 -0.702333 -1.25711 0
M  V30 24147 H 2170.85 0.397677 -4.19519 0
M  V30 24148 H 2169.57 1.00102 -3.10881 0
M  V30 24149 H 2168.23 -1.09559 -3.49846 0
M  V30 24150 H 2167.88 0.912942 -4.94646 0
M  V30 24151 H 2167.58 -0.595326 -5.84576 0
M  V30 24152 H 2169.1 0.302191 -6.09852 0
M  V30 24153 H 2170.52 -1.86581 -5.42089 0
M  V30 24154 H 2168.92 -2.656 -5.38123 0
M  V30 24155 H 2169.99 -2.77978 -3.97311 0
M  V30 24156 N 2171.33 1.37038 -0.778354 0
M  V30 24157 C 2172.61 1.93726 -0.270129 0
M  V30 24158 C 2172.99 1.71138 1.23592 0
M  V30 24159 O 2172.33 1.06396 2.02218 0
M  V30 24160 C 2172.54 3.4288 -0.650703 0
M  V30 24161 C 2173.89 4.19987 -0.624207 0
M  V30 24162 O 2174.92 3.51271 -0.590496 0
M  V30 24163 O 2173.77 5.42534 -0.657186 0
M  V30 24164 H 2170.87 0.824515 -0.0640657 0
M  V30 24165 H 2173.41 1.46286 -0.860152 0
M  V30 24166 H 2172.19 3.52931 -1.68984 0
M  V30 24167 H 2171.81 3.97585 -0.0339758 0
M  V30 24168 N 2172.81 0.529439 1.48441 0
M  V30 24169 C 2174.08 -0.0692247 1.95477 0
M  V30 24170 C 2174.46 -1.51345 1.47166 0
M  V30 24171 O 2173.81 -2.1758 0.697925 0
M  V30 24172 C 2174.02 0.0474683 3.48968 0
M  V30 24173 C 2175.37 -0.112074 4.24452 0
M  V30 24174 O 2176.39 -0.0263527 3.5619 0
M  V30 24175 O 2175.25 -0.291683 5.45721 0
M  V30 24176 H 2172.35 -0.079598 0.82316 0
M  V30 24177 H 2174.89 0.593999 1.58965 0
M  V30 24178 H 2173.67 1.05353 3.76851 0
M  V30 24179 H 2173.29 -0.65463 3.92174 0
M  V30 24180 N 2174.29 -1.55364 0.264547 0
M  V30 24181 C 2175.25 -2.20814 -0.614312 0
M  V30 24182 C 2176.25 -1.18274 -1.0894 0
M  V30 24183 O 2177.44 -1.43246 -0.991274 0
M  V30 24184 C 2174.57 -2.86572 -1.84632 0
M  V30 24185 H 2175.76 -2.99869 -0.0430102 0
M  V30 24186 H 2173.32 -1.56293 0.0150952 0
M  V30 24187 H 2174.05 -2.11501 -2.45841 0
M  V30 24188 H 2173.84 -3.61704 -1.51369 0
M  V30 24189 H 2175.33 -3.36608 -2.47153 0
M  V30 24190 N 2175.76 0.00833021 -1.57598 0
M  V30 24191 C 2176.73 0.9872 -2.0685 0
M  V30 24192 C 2177.73 1.27766 -0.976351 0
M  V30 24193 O 2178.92 1.22423 -1.23929 0
M  V30 24194 C 2176.05 2.31443 -2.50294 0
M  V30 24195 H 2177.24 0.561338 -2.946 0
M  V30 24196 H 2174.79 0.255625 -1.54195 0
M  V30 24197 H 2175.53 2.78735 -1.65763 0
M  V30 24198 H 2175.31 2.11684 -3.30049 0
M  V30 24199 H 2176.8 3.0168 -2.88754 0
M  V30 24200 N 2177.24 1.55075 0.280956 0
M  V30 24201 C 2178.19 1.87409 1.34709 0
M  V30 24202 C 2179.16 0.72482 1.49451 0
M  V30 24203 O 2180.34 0.975348 1.63987 0
M  V30 24204 C 2177.48 2.14456 2.70375 0
M  V30 24205 C 2176.6 3.42009 2.6392 0
M  V30 24206 C 2175.73 3.58796 3.91713 0
M  V30 24207 C 2174.77 4.8007 3.79736 0
M  V30 24208 N 2173.91 4.93556 4.99346 0
M  V30 24209 H 2178.75 2.78344 1.06435 0
M  V30 24210 H 2176.28 1.37813 0.514379 0
M  V30 24211 H 2178.24 2.28135 3.493 0
M  V30 24212 H 2176.87 1.26764 2.96868 0
M  V30 24213 H 2175.92 3.36844 1.7675 0
M  V30 24214 H 2177.24 4.31065 2.50967 0
M  V30 24215 H 2176.39 3.7225 4.79077 0
M  V30 24216 H 2175.13 2.6791 4.07524 0
M  V30 24217 H 2174.13 4.66628 2.90754 0
M  V30 24218 H 2175.36 5.72383 3.65451 0
M  V30 24219 H 2173.31 4.05599 5.15582 0
M  V30 24220 H 2173.22 5.76645 4.88893 0
M  V30 24221 H 2174.49 5.11387 5.88305 0
M  V30 24222 N 2178.72 -0.545102 1.47873 0
M  V30 24223 C 2179.95 -1.32682 1.58755 0
M  V30 24224 C 2180.36 -1.8724 0.242172 0
M  V30 24225 O 2179.72 -1.65628 -0.766386 0
M  V30 24226 C 2179.77 -2.48828 2.62234 0
M  V30 24227 O 2179.49 -1.96522 3.91549 0
M  V30 24228 C 2180.99 -3.40869 2.83414 0
M  V30 24229 H 2178.21 -0.404033 0.535722 0
M  V30 24230 H 2180.76 -0.659132 1.93586 0
M  V30 24231 H 2178.91 -3.11511 2.30303 0
M  V30 24232 H 2179.33 -2.72436 4.48195 0
M  V30 24233 H 2180.8 -4.18751 3.59655 0
M  V30 24234 H 2181.28 -3.95166 1.91679 0
M  V30 24235 H 2181.88 -2.83991 3.1659 0
M  V30 24236 N 2180.2 -1.36208 -0.792797 0
M  V30 24237 C 2181.45 -1.2958 -1.5457 0
M  V30 24238 C 2181.76 0.123772 -1.95208 0
M  V30 24239 O 2182.97 0.312401 -2.69697 0
M  V30 24240 C 2181.42 -2.27331 -2.79014 0
M  V30 24241 C 2181.03 -3.74707 -2.45558 0
M  V30 24242 C 2182.77 -2.29674 -3.57002 0
M  V30 24243 C 2180.68 -4.64243 -3.66377 0
M  V30 24244 H 2179.61 -0.481506 -0.580231 0
M  V30 24245 H 2182.26 -1.61551 -0.870256 0
M  V30 24246 H 2180.64 -1.88349 -3.4834 0
M  V30 24247 H 2181.82 -4.22404 -1.84151 0
M  V30 24248 H 2180.13 -3.75106 -1.80788 0
M  V30 24249 H 2182.73 -2.93779 -4.46764 0
M  V30 24250 H 2183.07 -1.30432 -3.95339 0
M  V30 24251 H 2183.61 -2.67255 -2.94652 0
M  V30 24252 H 2180.34 -5.64534 -3.33138 0
M  V30 24253 H 2179.86 -4.21264 -4.26963 0
M  V30 24254 H 2181.54 -4.80348 -4.33446 0
M  V30 24255 N 2181.68 1.01656 -1.20431 0
M  V30 24256 C 2182.61 2.10319 -0.910955 0
M  V30 24257 C 2183.62 1.62485 0.1013 0
M  V30 24258 O 2184.81 1.78028 -0.129719 0
M  V30 24259 C 2181.91 3.37148 -0.344189 0
M  V30 24260 C 2181.08 4.14119 -1.40799 0
M  V30 24261 C 2180.14 5.19248 -0.852542 0
M  V30 24262 O 2179.17 5.48161 -1.53324 0
M  V30 24263 N 2180.37 5.79515 0.338032 0
M  V30 24264 H 2183.13 2.36073 -1.84634 0
M  V30 24265 H 2180.7 1.18047 -1.10799 0
M  V30 24266 H 2182.69 4.04679 0.0415379 0
M  V30 24267 H 2181.26 3.08644 0.495757 0
M  V30 24268 H 2180.48 3.41557 -1.96805 0
M  V30 24269 H 2181.77 4.62326 -2.12444 0
M  V30 24270 H 2181.16 5.5836 0.908322 0
M  V30 24271 H 2179.72 6.48395 0.665396 0
M  V30 24272 N 2183.15 1.01021 1.20965 0
M  V30 24273 C 2184.43 0.611192 1.85806 0
M  V30 24274 C 2184.81 -0.910997 1.90431 0
M  V30 24275 O 2184.16 -1.80009 1.40744 0
M  V30 24276 C 2184.37 1.25159 3.25785 0
M  V30 24277 C 2185.72 1.36299 4.02129 0
M  V30 24278 O 2186.74 1.20731 3.35116 0
M  V30 24279 O 2185.6 1.61393 5.22125 0
M  V30 24280 H 2182.69 0.210041 0.799882 0
M  V30 24281 H 2185.24 1.10718 1.28606 0
M  V30 24282 H 2184.01 2.292 3.17148 0
M  V30 24283 H 2183.63 0.742281 3.9061 0
M  V30 24284 N 2184.63 -1.36623 0.78561 0
M  V30 24285 C 2185.58 -2.30101 0.179493 0
M  V30 24286 C 2186.55 -1.51789 -0.674485 0
M  V30 24287 O 2187.73 -1.80309 -0.623959 0
M  V30 24288 C 2184.87 -3.38279 -0.682737 0
M  V30 24289 C 2183.99 -4.31585 0.189365 0
M  V30 24290 C 2183.12 -5.26844 -0.678879 0
M  V30 24291 C 2182.16 -6.1179 0.194912 0
M  V30 24292 N 2181.3 -6.99249 -0.632096 0
M  V30 24293 H 2186.14 -2.81351 0.98212 0
M  V30 24294 H 2183.67 -1.38489 0.495893 0
M  V30 24295 H 2185.63 -3.99642 -1.19759 0
M  V30 24296 H 2184.26 -2.88359 -1.45083 0
M  V30 24297 H 2183.31 -3.71409 0.822157 0
M  V30 24298 H 2184.63 -4.91281 0.862795 0
M  V30 24299 H 2183.78 -5.93478 -1.25969 0
M  V30 24300 H 2182.52 -4.67593 -1.38595 0
M  V30 24301 H 2181.52 -5.44121 0.788155 0
M  V30 24302 H 2182.75 -6.73116 0.899523 0
M  V30 24303 H 2180.7 -6.4251 -1.32353 0
M  V30 24304 H 2180.61 -7.55998 -0.0162646 0
M  V30 24305 H 2181.88 -7.70257 -1.19686 0
M  V30 24306 N 2186.11 -0.537304 -1.48158 0
M  V30 24307 C 2187.06 0.234747 -2.31412 0
M  V30 24308 C 2188.05 0.928487 -1.41688 0
M  V30 24309 O 2189.26 0.852038 -1.58557 0
M  V30 24310 H 2185.63 0.0945724 -0.74603 0
M  V30 24311 H 2187.6 -0.486905 -2.94401 0
M  V30 24312 C 2186.35 1.26413 -3.23906 0
M  V30 24313 H 2185.68 0.739721 -3.92897 0
M  V30 24314 H 2187.12 1.7756 -3.8503 0
M  V30 24315 C 2185.57 2.3016 -2.46024 0
M  V30 24316 O 2186.1 3.36731 -2.19032 0
M  V30 24317 N 2184.31 2.03565 -2.07388 0
M  V30 24318 H 2183.86 1.16915 -2.2954 0
M  V30 24319 H 2183.82 2.73201 -1.55592 0
M  V30 24320 N 2187.59 1.55221 -0.272782 0
M  V30 24321 C 2188.54 2.22436 0.615702 0
M  V30 24322 C 2189.51 1.19702 1.15155 0
M  V30 24323 O 2190.69 1.48236 1.20128 0
M  V30 24324 C 2187.83 2.94739 1.79507 0
M  V30 24325 C 2186.94 4.12186 1.2933 0
M  V30 24326 C 2186.08 4.7214 2.43429 0
M  V30 24327 C 2185.12 5.81785 1.90243 0
M  V30 24328 N 2184.25 6.35811 2.97806 0
M  V30 24329 H 2189.09 2.97978 0.0358746 0
M  V30 24330 H 2186.63 1.47099 0.00594098 0
M  V30 24331 H 2188.59 3.34874 2.48828 0
M  V30 24332 H 2187.22 2.21624 2.34697 0
M  V30 24333 H 2186.27 3.77188 0.493274 0
M  V30 24334 H 2187.58 4.91265 0.86373 0
M  V30 24335 H 2186.74 5.14982 3.20747 0
M  V30 24336 H 2185.48 3.92333 2.897 0
M  V30 24337 H 2184.48 5.38395 1.11404 0
M  V30 24338 H 2185.71 6.63459 1.4491 0
M  V30 24339 H 2183.65 5.589 3.43464 0
M  V30 24340 H 2183.57 7.10156 2.59258 0
M  V30 24341 H 2184.84 6.83312 3.75106 0
M  V30 24342 N 2189.07 2.77022e-05 1.576 0
M  V30 24343 C 2189.98 -1.0077 2.11855 0
M  V30 24344 C 2190.99 -1.37692 1.06382 0
M  V30 24345 O 2192.17 -1.46423 1.38283 0
M  V30 24346 C 2189.23 -2.28082 2.61112 0
M  V30 24347 C 2188.29 -1.97473 3.81186 0
M  V30 24348 C 2187.53 -3.18716 4.28084 0
M  V30 24349 O 2187.75 -4.30401 3.74315 0
M  V30 24350 O 2186.68 -3.02712 5.20239 0
M  V30 24351 H 2190.51 -0.576494 2.98178 0
M  V30 24352 H 2188.1 -0.218802 1.47789 0
M  V30 24353 H 2189.98 -3.02875 2.92992 0
M  V30 24354 H 2188.65 -2.70441 1.77886 0
M  V30 24355 H 2187.56 -1.20156 3.54279 0
M  V30 24356 H 2188.89 -1.59951 4.65485 0
M  V30 24357 N 2190.54 -1.55222 -0.272728 0
M  V30 24358 C 2191.79 -1.75047 -1.00208 0
M  V30 24359 C 2192.11 -0.559079 -1.8744 0
M  V30 24360 O 2193.31 -0.639745 -2.63855 0
M  V30 24361 C 2191.77 -3.09808 -1.83159 0
M  V30 24362 C 2191.38 -4.36514 -1.00793 0
M  V30 24363 C 2193.12 -3.38981 -2.55523 0
M  V30 24364 C 2191.03 -5.62315 -1.83184 0
M  V30 24365 H 2189.96 -0.652482 -0.377866 0
M  V30 24366 H 2192.61 -1.81681 -0.257744 0
M  V30 24367 H 2190.99 -2.97212 -2.61689 0
M  V30 24368 H 2192.16 -4.60027 -0.266774 0
M  V30 24369 H 2190.48 -4.14486 -0.398824 0
M  V30 24370 H 2193.08 -4.30178 -3.17571 0
M  V30 24371 H 2193.42 -2.59126 -3.25821 0
M  V30 24372 H 2193.95 -3.52676 -1.84022 0
M  V30 24373 H 2190.69 -6.44918 -1.17306 0
M  V30 24374 H 2190.21 -5.42944 -2.54896 0
M  V30 24375 H 2191.89 -6.00624 -2.40542 0
M  V30 24376 N 2192.02 0.537252 -1.4816 0
M  V30 24377 C 2192.93 1.66957 -1.6481 0
M  V30 24378 C 2193.95 1.6571 -0.53068 0
M  V30 24379 O 2195.12 1.84794 -0.800816 0
M  V30 24380 C 2192.19 3.03435 -1.67714 0
M  V30 24381 C 2191.25 3.15595 -2.9103 0
M  V30 24382 C 2190.48 4.45562 -2.93786 0
M  V30 24383 O 2190.71 5.32226 -2.05162 0
M  V30 24384 O 2189.64 4.61934 -3.85876 0
M  V30 24385 H 2193.47 1.55849 -2.60662 0
M  V30 24386 H 2191.05 0.709526 -1.31477 0
M  V30 24387 H 2192.93 3.84616 -1.72187 0
M  V30 24388 H 2191.61 3.14884 -0.750333 0
M  V30 24389 H 2190.52 2.33736 -2.92093 0
M  V30 24390 H 2191.85 3.09059 -3.83071 0
M  V30 24391 N 2193.5 1.36626 0.785562 0
M  V30 24392 C 2194.92 1.17124 1.08417 0
M  V30 24393 C 2195.12 -0.00204949 2.015 0
M  V30 24394 O 2194.17 -0.666235 2.43552 0
M  V30 24395 C 2195.49 2.4838 1.69493 0
M  V30 24396 C 2197.03 2.54778 1.81816 0
M  V30 24397 C 2197.51 3.8613 2.46308 0
M  V30 24398 N 2199 3.87497 2.53772 0
M  V30 24399 C 2199.73 4.85873 3.04492 0
M  V30 24400 N 2199.23 5.94643 3.55488 0
M  V30 24401 N 2201.02 4.73289 3.03239 0
M  V30 24402 H 2193.17 2.11741 0.167227 0
M  V30 24403 H 2195.44 0.938077 0.136804 0
M  V30 24404 H 2195.14 3.34524 1.08566 0
M  V30 24405 H 2195.02 2.64467 2.68956 0
M  V30 24406 H 2197.4 1.69049 2.41881 0
M  V30 24407 H 2197.49 2.42587 0.81149 0
M  V30 24408 H 2197.13 4.72267 1.86887 0
M  V30 24409 H 2197.06 3.95618 3.47554 0
M  V30 24410 H 2199.55 3.08917 2.17666 0
M  V30 24411 H 2199.86 6.65676 3.92551 0
M  V30 24412 H 2198.21 5.98307 3.5363 0
M  V30 24413 H 2201.4 3.87443 2.62689 0
M  V30 24414 H 2201.57 5.50115 3.42457 0
M  V30 24415 N 2194.98 -1.01016 1.20969 0
M  V30 24416 C 2195.91 -2.11553 0.988309 0
M  V30 24417 C 2196.89 -1.69888 -0.084948 0
M  V30 24418 O 2198.07 -1.9406 0.0738543 0
M  V30 24419 C 2195.2 -3.42972 0.546588 0
M  V30 24420 C 2194.16 -3.98408 1.56382 0
M  V30 24421 C 2193.48 -5.2567 0.978512 0
M  V30 24422 C 2194.78 -4.31061 2.9493 0
M  V30 24423 H 2196.48 -2.30331 1.9128 0
M  V30 24424 H 2194.02 -1.10688 0.921092 0
M  V30 24425 H 2195.98 -4.19693 0.378913 0
M  V30 24426 H 2194.7 -3.23971 -0.413541 0
M  V30 24427 H 2193.36 -3.23801 1.71897 0
M  V30 24428 H 2193.01 -5.02999 0.0102572 0
M  V30 24429 H 2192.71 -5.63725 1.65794 0
M  V30 24430 H 2194.23 -6.05041 0.822046 0
M  V30 24431 H 2195.65 -4.98645 2.82889 0
M  V30 24432 H 2194.04 -4.80246 3.59838 0
M  V30 24433 H 2195.11 -3.39555 3.46166 0
M  V30 24434 N 2196.46 -1.01661 -1.20428 0
M  V30 24435 C 2197.4 -0.586861 -2.23214 0
M  V30 24436 C 2198.37 0.393056 -1.61382 0
M  V30 24437 O 2199.56 0.292492 -1.88545 0
M  V30 24438 C 2196.7 0.0686858 -3.45032 0
M  V30 24439 C 2195.81 -0.955798 -4.21294 0
M  V30 24440 C 2194.95 -0.271301 -5.30507 0
M  V30 24441 C 2193.99 -1.28254 -5.98513 0
M  V30 24442 N 2193.12 -0.624713 -6.99315 0
M  V30 24443 H 2197.96 -1.468 -2.59333 0
M  V30 24444 H 2195.5 -0.734859 -1.27429 0
M  V30 24445 H 2197.46 0.465892 -4.14591 0
M  V30 24446 H 2196.09 0.913474 -3.09605 0
M  V30 24447 H 2195.14 -1.47116 -3.508 0
M  V30 24448 H 2196.45 -1.72487 -4.68027 0
M  V30 24449 H 2195.61 0.181403 -6.06429 0
M  V30 24450 H 2194.34 0.530078 -4.84811 0
M  V30 24451 H 2193.35 -1.74563 -5.21352 0
M  V30 24452 H 2194.57 -2.0852 -6.46294 0
M  V30 24453 H 2192.52 0.156798 -6.55813 0
M  V30 24454 H 2192.44 -1.33185 -7.44176 0
M  V30 24455 H 2193.71 -0.195599 -7.79255 0
M  V30 24456 N 2197.93 1.36205 -0.792844 0
M  V30 24457 C 2198.87 2.28699 -0.15151 0
M  V30 24458 C 2199.88 1.4964 0.641235 0
M  V30 24459 O 2201.07 1.7204 0.475854 0
M  V30 24460 C 2198.17 3.29118 0.808366 0
M  V30 24461 C 2197.34 4.37352 0.0649434 0
M  V30 24462 C 2196.4 5.17713 0.941267 0
M  V30 24463 O 2195.43 5.67812 0.397252 0
M  V30 24464 N 2196.63 5.34484 2.26511 0
M  V30 24465 H 2199.39 2.84377 -0.946032 0
M  V30 24466 H 2196.95 1.48407 -0.647058 0
M  V30 24467 H 2198.95 3.79767 1.39853 0
M  V30 24468 H 2197.52 2.74055 1.50375 0
M  V30 24469 H 2196.74 3.8782 -0.706324 0
M  V30 24470 H 2198.02 5.06824 -0.447936 0
M  V30 24471 H 2197.42 4.95401 2.73119 0
M  V30 24472 H 2195.98 5.88364 2.80483 0
M  V30 24473 N 2199.41 0.545154 1.47871 0
M  V30 24474 C 2200.34 -0.197752 2.32661 0
M  V30 24475 C 2201.32 -0.920479 1.43043 0
M  V30 24476 O 2202.51 -0.9033 1.71913 0
M  V30 24477 C 2199.64 -1.23576 3.24571 0
M  V30 24478 C 2198.59 -0.630249 4.23334 0
M  V30 24479 C 2197.92 -1.77202 5.04483 0
M  V30 24480 C 2199.22 0.408065 5.20703 0
M  V30 24481 H 2200.91 0.510097 2.95023 0
M  V30 24482 H 2198.46 0.246756 1.4187 0
M  V30 24483 H 2200.41 -1.76355 3.82723 0
M  V30 24484 H 2199.14 -1.9734 2.6024 0
M  V30 24485 H 2197.79 -0.123857 3.66391 0
M  V30 24486 H 2197.44 -2.4984 4.36565 0
M  V30 24487 H 2197.14 -1.37271 5.71341 0
M  V30 24488 H 2198.67 -2.3033 5.65491 0
M  V30 24489 H 2200.08 -0.0332043 5.7329 0
M  V30 24490 H 2198.48 0.725591 5.95697 0
M  V30 24491 H 2199.55 1.30837 4.66915 0
M  V30 24492 N 2200.89 -1.55074 0.28101 0
M  V30 24493 C 2202.14 -1.98903 -0.334749 0
M  V30 24494 C 2202.45 -1.17291 -1.56532 0
M  V30 24495 O 2203.66 -1.51291 -2.2544 0
M  V30 24496 C 2202.11 -3.54038 -0.646931 0
M  V30 24497 C 2201.72 -4.44434 0.564163 0
M  V30 24498 C 2203.47 -4.06441 -1.22499 0
M  V30 24499 C 2201.37 -5.90967 0.226241 0
M  V30 24500 H 2200.3 -0.742908 -0.128853 0
M  V30 24501 H 2202.95 -1.79382 0.386587 0
M  V30 24502 H 2201.34 -3.69382 -1.42733 0
M  V30 24503 H 2202.51 -4.40859 1.3409 0
M  V30 24504 H 2200.83 -4.02696 1.05947 0
M  V30 24505 H 2203.42 -5.1347 -1.49173 0
M  V30 24506 H 2203.77 -3.55831 -2.16079 0
M  V30 24507 H 2204.3 -3.94559 -0.506751 0
M  V30 24508 H 2201.04 -6.45685 1.13007 0
M  V30 24509 H 2200.56 -5.97597 -0.513612 0
M  V30 24510 H 2202.24 -6.46751 -0.179426 0
M  V30 24511 N 2202.37 -0.00838561 -1.57598 0
M  V30 24512 C 2203.65 0.712203 -1.82173 0
M  V30 24513 C 2204.03 1.91519 -0.887907 0
M  V30 24514 O 2203.37 2.28417 0.0614199 0
M  V30 24515 C 2203.58 1.11002 -3.30877 0
M  V30 24516 C 2204.93 1.51037 -3.96829 0
M  V30 24517 O 2205.96 1.20358 -3.3525 0
M  V30 24518 O 2204.82 2.08116 -5.05322 0
M  V30 24519 H 2201.91 0.347515 -0.750441 0
M  V30 24520 H 2204.46 -0.0344821 -1.69665 0
M  V30 24521 H 2203.23 0.252913 -3.90482 0
M  V30 24522 H 2202.85 1.91554 -3.48415 0
M  V30 24523 N 2203.85 1.55365 0.264492 0
M  V30 24524 C 2204.79 1.88827 1.32714 0
M  V30 24525 C 2205.76 0.740631 1.48674 0
M  V30 24526 O 2206.95 0.992686 1.62943 0
M  V30 24527 C 2204.09 2.17311 2.68086 0
M  V30 24528 C 2203.2 3.44789 2.60278 0
M  V30 24529 C 2202.34 3.6293 3.87885 0
M  V30 24530 C 2201.38 4.84071 3.74623 0
M  V30 24531 N 2200.51 4.98825 4.94083 0
M  V30 24532 H 2205.35 2.79458 1.03477 0
M  V30 24533 H 2202.89 1.38351 0.499733 0
M  V30 24534 H 2204.85 2.31827 3.4686 0
M  V30 24535 H 2203.48 1.29906 2.95507 0
M  V30 24536 H 2202.53 3.387 1.73167 0
M  V30 24537 H 2203.84 4.33703 2.46381 0
M  V30 24538 H 2203 3.7731 4.75102 0
M  V30 24539 H 2201.74 2.72217 4.04659 0
M  V30 24540 H 2200.74 4.69686 2.85789 0
M  V30 24541 H 2201.97 5.76227 3.5936 0
M  V30 24542 H 2199.91 4.11045 5.11252 0
M  V30 24543 H 2199.83 5.81798 4.8275 0
M  V30 24544 H 2201.1 5.17598 5.82848 0
M  V30 24545 N 2205.33 -0.529387 1.48443 0
M  V30 24546 C 2206.24 -1.66081 1.65693 0
M  V30 24547 C 2207.25 -1.65426 0.539461 0
M  V30 24548 O 2208.43 -1.84367 0.810605 0
M  V30 24549 C 2205.49 -3.02542 1.69321 0
M  V30 24550 C 2204.55 -3.14047 2.927 0
M  V30 24551 C 2203.79 -4.43998 2.96144 0
M  V30 24552 O 2204.01 -5.31131 2.07982 0
M  V30 24553 O 2202.94 -4.59881 3.8832 0
M  V30 24554 H 2206.77 -1.54464 2.61485 0
M  V30 24555 H 2204.35 -0.702544 1.31851 0
M  V30 24556 H 2206.24 -3.83698 1.74224 0
M  V30 24557 H 2204.91 -3.14481 0.767022 0
M  V30 24558 H 2203.82 -2.32184 2.93328 0
M  V30 24559 H 2205.15 -3.07023 3.84704 0
M  V30 24560 N 2206.8 -1.37041 -0.778305 0
M  V30 24561 C 2208.03 -1.35066 -1.56731 0
M  V30 24562 C 2208.45 0.0655266 -1.88686 0
M  V30 24563 O 2207.8 1.02552 -1.50962 0
M  V30 24564 C 2207.85 -2.18281 -2.88159 0
M  V30 24565 O 2207.58 -3.54381 -2.57577 0
M  V30 24566 C 2209.08 -2.24212 -3.82418 0
M  V30 24567 H 2206.3 -0.462891 -0.48577 0
M  V30 24568 H 2208.84 -1.80292 -0.965154 0
M  V30 24569 H 2207 -1.76582 -3.44815 0
M  V30 24570 H 2207.41 -3.97928 -3.41692 0
M  V30 24571 H 2208.88 -2.86774 -4.71662 0
M  V30 24572 H 2209.36 -1.24869 -4.21075 0
M  V30 24573 H 2209.97 -2.66196 -3.31693 0
M  V30 24574 N 2208.28 1.00373 -1.21503 0
M  V30 24575 C 2209.23 2.11295 -0.972479 0
M  V30 24576 C 2210.22 1.69208 0.0807013 0
M  V30 24577 O 2211.43 1.79861 -0.0707982 0
M  V30 24578 H 2207.8 0.690767 -0.29723 0
M  V30 24579 H 2209.78 2.2893 -1.91399 0
M  V30 24580 C 2208.52 3.4324 -0.555125 0
M  V30 24581 H 2207.85 3.7606 -1.35716 0
M  V30 24582 H 2209.29 4.21867 -0.424739 0
M  V30 24583 C 2207.75 3.28805 0.73409 0
M  V30 24584 O 2208.28 3.59648 1.7893 0
M  V30 24585 N 2206.48 2.82016 0.701083 0
M  V30 24586 H 2206.03 2.57115 -0.157919 0
M  V30 24587 H 2205.99 2.7274 1.56398 0
M  V30 24588 N 2209.76 1.02298 1.19887 0
M  V30 24589 C 2211.04 0.630864 1.85147 0
M  V30 24590 C 2211.42 -0.890748 1.91387 0
M  V30 24591 O 2210.76 -1.78506 1.42645 0
M  V30 24592 C 2210.97 1.28608 3.2444 0
M  V30 24593 C 2212.32 1.40557 4.00661 0
M  V30 24594 O 2213.35 1.24279 3.33816 0
M  V30 24595 O 2212.21 1.66922 5.20384 0
M  V30 24596 H 2209.3 0.218513 0.79761 0
M  V30 24597 H 2211.85 1.12076 1.27425 0
M  V30 24598 H 2210.62 2.32551 3.147 0
M  V30 24599 H 2210.24 0.783669 3.898 0
M  V30 24600 N 2211.24 -1.35782 0.800057 0
M  V30 24601 C 2212.65 -1.52116 0.483004 0
M  V30 24602 C 2212.85 -1.75111 -0.996917 0
M  V30 24603 O 2211.91 -1.78875 -1.78213 0
M  V30 24604 C 2213.22 -2.70047 1.32269 0
M  V30 24605 C 2214.77 -2.83922 1.31747 0
M  V30 24606 C 2215.25 -4.0487 2.14113 0
M  V30 24607 N 2216.74 -4.12036 2.11615 0
M  V30 24608 C 2217.47 -5.04722 2.72108 0
M  V30 24609 N 2216.97 -6.02783 3.41503 0
M  V30 24610 N 2218.76 -4.97419 2.61785 0
M  V30 24611 H 2210.91 -1.19112 1.75858 0
M  V30 24612 H 2213.17 -0.582239 0.748132 0
M  V30 24613 H 2212.88 -2.59611 2.37265 0
M  V30 24614 H 2212.75 -3.64478 0.971367 0
M  V30 24615 H 2215.14 -2.93812 0.275385 0
M  V30 24616 H 2215.22 -1.90367 1.70862 0
M  V30 24617 H 2214.87 -3.95741 3.18358 0
M  V30 24618 H 2214.8 -4.97593 1.72361 0
M  V30 24619 H 2217.29 -3.41832 1.61118 0
M  V30 24620 H 2217.6 -6.70091 3.84964 0
M  V30 24621 H 2215.95 -6.02977 3.45606 0
M  V30 24622 H 2219.14 -4.19763 2.07164 0
M  V30 24623 H 2219.31 -5.69462 3.0922 0
M  V30 24624 N 2212.72 -0.552988 -1.4758 0
M  V30 24625 C 2213.66 0.197067 -2.29957 0
M  V30 24626 C 2214.63 0.912335 -1.38801 0
M  V30 24627 O 2215.82 0.908859 -1.67763 0
M  V30 24628 C 2212.96 1.22373 -3.22674 0
M  V30 24629 C 2212.07 0.514963 -4.2892 0
M  V30 24630 C 2211.21 1.52655 -5.08792 0
M  V30 24631 C 2210.24 0.802524 -6.06816 0
M  V30 24632 N 2209.38 1.76074 -6.79663 0
M  V30 24633 H 2214.22 -0.511538 -2.93577 0
M  V30 24634 H 2211.76 -0.264093 -1.4471 0
M  V30 24635 H 2213.72 1.83152 -3.74848 0
M  V30 24636 H 2212.35 1.90042 -2.60929 0
M  V30 24637 H 2211.4 -0.207259 -3.79835 0
M  V30 24638 H 2212.71 -0.0524302 -4.98772 0
M  V30 24639 H 2211.86 2.20799 -5.65095 0
M  V30 24640 H 2210.6 2.12786 -4.38832 0
M  V30 24641 H 2209.61 0.107141 -5.49696 0
M  V30 24642 H 2210.83 0.207016 -6.78784 0
M  V30 24643 H 2208.78 2.35071 -6.12436 0
M  V30 24644 H 2208.7 1.24539 -7.45672 0
M  V30 24645 H 2209.96 2.43346 -7.40542 0
M  V30 24646 N 2214.19 1.54923 -0.28923 0
M  V30 24647 C 2215.43 2.01808 0.324501 0
M  V30 24648 C 2215.8 1.17318 1.51988 0
M  V30 24649 O 2217 1.53847 2.20419 0
M  V30 24650 C 2215.27 3.50803 0.683516 0
M  V30 24651 S 2216.83 4.19662 1.28178 0
M  V30 24652 H 2213.65 0.703901 0.100223 0
M  V30 24653 H 2216.25 1.91058 -0.414358 0
M  V30 24654 H 2214.95 4.09936 -0.195145 0
M  V30 24655 H 2214.48 3.65565 1.45347 0
M  V30 24656 H 2216.5 4.2446 2.56998 0
M  V30 24657 N 2215.67 0.0167433 1.57591 0
M  V30 24658 C 2216.6 -0.96782 2.12498 0
M  V30 24659 C 2217.58 -1.3475 1.03809 0
M  V30 24660 O 2218.77 -1.4283 1.31579 0
M  V30 24661 C 2215.9 -2.25426 2.64198 0
M  V30 24662 C 2214.85 -2.0157 3.77563 0
M  V30 24663 C 2214.18 -3.36372 4.15642 0
M  V30 24664 C 2215.48 -1.36481 5.04153 0
M  V30 24665 H 2217.17 -0.510591 2.95014 0
M  V30 24666 H 2214.72 -0.244156 1.41915 0
M  V30 24667 H 2216.67 -2.94672 3.01241 0
M  V30 24668 H 2215.39 -2.73292 1.78826 0
M  V30 24669 H 2214.05 -1.34745 3.40939 0
M  V30 24670 H 2213.7 -3.81973 3.27269 0
M  V30 24671 H 2213.4 -3.2122 4.92028 0
M  V30 24672 H 2214.93 -4.06907 4.55258 0
M  V30 24673 H 2216.34 -1.95708 5.38861 0
M  V30 24674 H 2214.74 -1.31765 5.85455 0
M  V30 24675 H 2215.81 -0.336134 4.83734 0
M  V30 24676 N 2217.15 -1.55503 -0.256249 0
M  V30 24677 C 2218.06 -1.92649 -1.33879 0
M  V30 24678 C 2219.08 -0.825754 -1.53158 0
M  V30 24679 O 2220.25 -1.12632 -1.66961 0
M  V30 24680 C 2217.32 -2.20548 -2.67506 0
M  V30 24681 C 2216.38 -3.44001 -2.5683 0
M  V30 24682 C 2215.61 -3.70559 -3.84085 0
M  V30 24683 O 2215.83 -2.99344 -4.8554 0
M  V30 24684 O 2214.77 -4.64091 -3.8328 0
M  V30 24685 H 2218.59 -2.84835 -1.05369 0
M  V30 24686 H 2216.18 -1.42264 -0.456212 0
M  V30 24687 H 2218.06 -2.39842 -3.46488 0
M  V30 24688 H 2216.74 -1.31542 -2.95768 0
M  V30 24689 H 2215.64 -3.30024 -1.76167 0
M  V30 24690 H 2216.98 -4.3328 -2.33516 0
M  V30 24691 N 2218.63 0.521507 -1.48721 0
M  V30 24692 C 2219.91 1.28278 -1.47662 0
M  V30 24693 C 2220.29 2.10216 -0.192957 0
M  V30 24694 O 2219.63 2.13081 0.825155 0
M  V30 24695 C 2219.84 2.157 -2.74362 0
M  V30 24696 C 2221.19 2.75563 -3.23032 0
M  V30 24697 O 2222.22 2.25982 -2.75337 0
M  V30 24698 O 2221.07 3.65771 -4.06046 0
M  V30 24699 H 2218.17 0.579411 -0.590095 0
M  V30 24700 H 2220.71 0.537464 -1.60964 0
M  V30 24701 H 2219.49 1.54993 -3.59295 0
M  V30 24702 H 2219.11 2.97463 -2.63821 0
M  V30 24703 N 2220.11 1.37452 0.771027 0
M  V30 24704 C 2221.02 1.35467 1.91535 0
M  V30 24705 C 2222.03 0.254153 1.72134 0
M  V30 24706 O 2223.21 0.48966 1.95357 0
M  V30 24707 C 2220.27 1.16139 3.26669 0
M  V30 24708 C 2219.33 2.35837 3.58719 0
M  V30 24709 C 2218.57 2.17422 4.87405 0
M  V30 24710 O 2218.79 1.15885 5.58504 0
M  V30 24711 O 2217.72 3.05624 5.18534 0
M  V30 24712 H 2221.55 2.3185 1.96161 0
M  V30 24713 H 2219.14 1.18189 0.913879 0
M  V30 24714 H 2221.02 1.07352 4.07497 0
M  V30 24715 H 2219.69 0.228308 3.22894 0
M  V30 24716 H 2218.6 2.50197 2.78123 0
M  V30 24717 H 2219.93 3.27716 3.67237 0
M  V30 24718 N 2221.58 -0.997276 1.22033 0
M  V30 24719 C 2222.53 -2.10776 0.983671 0
M  V30 24720 C 2223.53 -1.69248 -0.0717267 0
M  V30 24721 O 2224.73 -1.79821 0.0803357 0
M  V30 24722 H 2221.11 -0.689181 0.300889 0
M  V30 24723 H 2223.08 -2.27912 1.9261 0
M  V30 24724 C 2221.83 -3.42941 0.57332 0
M  V30 24725 H 2221.15 -3.75335 1.37708 0
M  V30 24726 H 2222.59 -4.21636 0.447105 0
M  V30 24727 C 2221.05 -3.2919 -0.716642 0
M  V30 24728 O 2221.58 -3.60592 -1.77021 0
M  V30 24729 N 2219.79 -2.82384 -0.686117 0
M  V30 24730 H 2219.33 -2.57028 0.171552 0
M  V30 24731 H 2219.29 -2.73565 -1.5495 0
M  V30 24732 N 2223.06 -1.02932 -1.19343 0
M  V30 24733 C 2224.03 -0.615107 -2.20792 0
M  V30 24734 C 2225.03 0.321505 -1.57553 0
M  V30 24735 O 2226.22 0.108453 -1.73862 0
M  V30 24736 C 2223.35 0.0998623 -3.40754 0
M  V30 24737 H 2224.54 -1.51273 -2.58952 0
M  V30 24738 H 2222.09 -0.820558 -1.33028 0
M  V30 24739 H 2222.83 1.01182 -3.08112 0
M  V30 24740 H 2222.61 -0.573158 -3.87888 0
M  V30 24741 H 2224.1 0.376572 -4.15899 0
M  V30 24742 N 2224.54 1.35356 -0.807246 0
M  V30 24743 C 2225.96 1.51858 -0.491064 0
M  V30 24744 C 2226.16 1.75637 0.987617 0
M  V30 24745 O 2225.21 1.79818 1.77262 0
M  V30 24746 C 2226.53 2.69342 -1.337 0
M  V30 24747 C 2228.07 2.83219 -1.33251 0
M  V30 24748 C 2228.55 4.03729 -2.16257 0
M  V30 24749 N 2230.04 4.10908 -2.13797 0
M  V30 24750 C 2230.77 5.03272 -2.74781 0
M  V30 24751 N 2230.27 6.00964 -3.44694 0
M  V30 24752 N 2232.06 4.96023 -2.64419 0
M  V30 24753 H 2224.21 1.18178 -1.76487 0
M  V30 24754 H 2226.48 0.578263 -0.75121 0
M  V30 24755 H 2226.18 2.5835 -2.38639 0
M  V30 24756 H 2226.06 3.63958 -0.990682 0
M  V30 24757 H 2228.44 2.93662 -0.290963 0
M  V30 24758 H 2228.53 1.89458 -1.7187 0
M  V30 24759 H 2228.17 3.94047 -3.20452 0
M  V30 24760 H 2228.1 4.96672 -1.74998 0
M  V30 24761 H 2230.59 3.40973 -1.62929 0
M  V30 24762 H 2230.9 6.6804 -3.88513 0
M  V30 24763 H 2229.25 6.01136 -3.48799 0
M  V30 24764 H 2232.44 4.18658 -2.09387 0
M  V30 24765 H 2232.61 5.67814 -3.12235 0
M  V30 24766 N 2226.02 0.560807 1.47284 0
M  V30 24767 C 2226.95 -0.173064 2.32858 0
M  V30 24768 C 2227.93 -0.905255 1.44011 0
M  V30 24769 O 2229.11 -0.885016 1.72862 0
M  V30 24770 C 2226.24 -1.20127 3.25863 0
M  V30 24771 C 2225.2 -0.585313 4.23979 0
M  V30 24772 C 2224.52 -1.71841 5.06335 0
M  V30 24773 C 2225.82 0.46327 5.20241 0
M  V30 24774 H 2227.52 0.541359 2.94465 0
M  V30 24775 H 2225.06 0.261789 1.416 0
M  V30 24776 H 2227.02 -1.72286 3.84572 0
M  V30 24777 H 2225.74 -1.94568 2.62318 0
M  V30 24778 H 2224.4 -0.0849896 3.66501 0
M  V30 24779 H 2224.05 -2.45195 4.3919 0
M  V30 24780 H 2223.75 -1.31203 5.72765 0
M  V30 24781 H 2225.27 -2.24319 5.67902 0
M  V30 24782 H 2226.69 0.0276027 5.73293 0
M  V30 24783 H 2225.08 0.788731 5.94894 0
M  V30 24784 H 2226.15 1.35782 4.65501 0
M  V30 24785 N 2227.5 -1.54768 0.297442 0
M  V30 24786 C 2228.43 -2.20827 -0.613842 0
M  V30 24787 C 2229.44 -1.19989 -1.1003 0
M  V30 24788 O 2230.63 -1.466 -1.01836 0
M  V30 24789 C 2227.73 -2.83824 -1.85195 0
M  V30 24790 C 2226.9 -4.10561 -1.50858 0
M  V30 24791 C 2225.96 -4.57395 -2.60146 0
M  V30 24792 O 2224.99 -5.22674 -2.25389 0
M  V30 24793 N 2226.19 -4.29413 -3.90621 0
M  V30 24794 H 2228.96 -2.99661 -0.0483364 0
M  V30 24795 H 2226.52 -1.61458 0.119488 0
M  V30 24796 H 2228.51 -3.1209 -2.57647 0
M  V30 24797 H 2227.08 -2.08852 -2.32594 0
M  V30 24798 H 2226.3 -3.89344 -0.616857 0
M  V30 24799 H 2227.59 -4.93092 -1.2545 0
M  V30 24800 H 2226.98 -3.77108 -4.21671 0
M  V30 24801 H 2225.54 -4.62396 -4.59383 0
M  V30 24802 N 2228.97 -0.0251005 -1.5758 0
M  V30 24803 C 2230.39 0.331254 -1.56125 0
M  V30 24804 C 2230.59 1.73167 -1.03032 0
M  V30 24805 O 2229.65 2.43303 -0.675258 0
M  V30 24806 C 2230.96 0.183531 -3.00139 0
M  V30 24807 C 2232.51 0.256599 -3.11946 0
M  V30 24808 C 2232.98 0.137712 -4.57793 0
M  V30 24809 N 2234.47 0.194823 -4.6279 0
M  V30 24810 C 2235.21 0.126554 -5.7326 0
M  V30 24811 N 2234.7 0.0074311 -6.928 0
M  V30 24812 N 2236.5 0.180249 -5.61811 0
M  V30 24813 H 2228.65 -0.940904 -1.90423 0
M  V30 24814 H 2230.91 -0.362984 -0.875755 0
M  V30 24815 H 2230.62 -0.780987 -3.42919 0
M  V30 24816 H 2230.49 0.955384 -3.649 0
M  V30 24817 H 2232.88 1.21157 -2.69082 0
M  V30 24818 H 2232.96 -0.545561 -2.49915 0
M  V30 24819 H 2232.6 -0.813827 -5.01337 0
M  V30 24820 H 2232.53 0.958684 -5.178 0
M  V30 24821 H 2235.02 0.287201 -3.76807 0
M  V30 24822 H 2235.34 -0.0380786 -7.72791 0
M  V30 24823 H 2233.68 -0.0272952 -6.94995 0
M  V30 24824 H 2236.87 0.271685 -4.67311 0
M  V30 24825 H 2237.05 0.123583 -6.47882 0
M  V30 24826 N 2230.45 1.55637 0.247999 0
M  V30 24827 C 2231.7 1.7768 0.977639 0
M  V30 24828 C 2232.03 0.590167 1.85015 0
M  V30 24829 O 2231.31 -0.411578 1.90095 0
M  V30 24830 C 2231.59 3.09596 1.83908 0
M  V30 24831 C 2231.44 4.38661 0.994833 0
M  V30 24832 C 2232.76 3.37734 2.82177 0
M  V30 24833 H 2229.88 0.646419 0.353994 0
M  V30 24834 H 2232.52 1.88372 0.248219 0
M  V30 24835 H 2230.67 3.00612 2.46099 0
M  V30 24836 H 2232.34 4.59634 0.391708 0
M  V30 24837 H 2230.59 4.32767 0.299155 0
M  V30 24838 H 2231.26 5.27343 1.63136 0
M  V30 24839 H 2233.73 3.46674 2.30123 0
M  V30 24840 H 2232.61 4.31255 3.39574 0
M  V30 24841 H 2232.87 2.58593 3.58584 0
M  V30 24842 N 2231.93 -0.513613 1.48996 0
M  V30 24843 C 2232.86 -1.6329 1.60839 0
M  V30 24844 C 2233.88 -1.55196 0.491728 0
M  V30 24845 O 2235.07 -1.61358 0.763266 0
M  V30 24846 C 2232.17 -3.02024 1.53736 0
M  V30 24847 C 2231.34 -3.35432 2.80721 0
M  V30 24848 C 2230.4 -4.5352 2.66845 0
M  V30 24849 O 2229.42 -4.55928 3.40761 0
M  V30 24850 N 2230.63 -5.52681 1.77549 0
M  V30 24851 H 2233.39 -1.53562 2.57369 0
M  V30 24852 H 2230.95 -0.701234 1.45926 0
M  V30 24853 H 2232.94 -3.78923 1.42125 0
M  V30 24854 H 2231.51 -3.05743 0.651145 0
M  V30 24855 H 2230.73 -2.47551 3.06777 0
M  V30 24856 H 2232.02 -3.54544 3.64933 0
M  V30 24857 H 2231.42 -5.53526 1.16728 0
M  V30 24858 H 2229.98 -6.28733 1.71867 0
M  V30 24859 N 2233.41 -1.37859 -0.763727 0
M  V30 24860 C 2234.64 -1.36523 -1.55065 0
M  V30 24861 C 2235.05 0.0493894 -1.89136 0
M  V30 24862 O 2234.39 1.02372 -1.52531 0
M  V30 24863 C 2234.45 -2.14661 -2.88376 0
M  V30 24864 C 2234.12 -3.6356 -2.76899 0
M  V30 24865 C 2235.11 -4.57272 -2.47382 0
M  V30 24866 C 2232.8 -4.06787 -2.94669 0
M  V30 24867 C 2234.79 -5.9219 -2.35776 0
M  V30 24868 C 2232.48 -5.41787 -2.82683 0
M  V30 24869 C 2233.48 -6.34302 -2.53278 0
M  V30 24870 O 2233.17 -7.66821 -2.41332 0
M  V30 24871 H 2232.9 -0.469077 -0.486768 0
M  V30 24872 H 2235.45 -1.81913 -0.953781 0
M  V30 24873 H 2233.68 -1.63973 -3.50214 0
M  V30 24874 H 2235.37 -2.05858 -3.49824 0
M  V30 24875 H 2236.14 -4.25184 -2.33331 0
M  V30 24876 H 2232.02 -3.35131 -3.16557 0
M  V30 24877 H 2235.56 -6.64368 -2.12745 0
M  V30 24878 H 2231.46 -5.73475 -2.96304 0
M  V30 24879 H 2232.22 -7.77231 -2.56621 0
M  V30 24880 N 2234.89 0.990791 -1.22561 0
M  V30 24881 C 2236.16 1.70426 -0.959905 0
M  V30 24882 C 2236.54 2.04482 0.524419 0
M  V30 24883 O 2235.89 1.7298 1.49299 0
M  V30 24884 C 2236.1 2.9533 -1.8596 0
M  V30 24885 C 2237.45 3.68064 -2.11693 0
M  V30 24886 O 2238.47 3.05342 -1.83425 0
M  V30 24887 O 2237.33 4.80916 -2.5958 0
M  V30 24888 H 2234.43 0.743967 -0.361167 0
M  V30 24889 H 2236.97 1.04695 -1.33556 0
M  V30 24890 H 2235.75 2.66682 -2.86351 0
M  V30 24891 H 2235.37 3.68801 -1.48566 0
M  V30 24892 N 2236.37 1.03564 1.18795 0
M  V30 24893 C 2237.3 0.643058 2.24471 0
M  V30 24894 C 2238.28 -0.351253 1.66434 0
M  V30 24895 O 2239.46 -0.232471 1.92804 0
M  V30 24896 C 2236.59 1.85533e-05 3.473 0
M  V30 24897 C 2235.55 0.91733 4.18054 0
M  V30 24898 C 2234.87 0.139035 5.34519 0
M  V30 24899 C 2236.17 2.23415 4.72105 0
M  V30 24900 H 2237.87 1.52648 2.57564 0
M  V30 24901 H 2235.41 0.735416 1.23805 0
M  V30 24902 H 2237.36 -0.286309 4.20426 0
M  V30 24903 H 2236.09 -0.918243 3.13426 0
M  V30 24904 H 2234.75 1.18796 3.46818 0
M  V30 24905 H 2234.4 -0.781475 4.96892 0
M  V30 24906 H 2234.1 0.750107 5.82793 0
M  V30 24907 H 2235.62 -0.140393 6.10439 0
M  V30 24908 H 2237.03 2.00888 5.36951 0
M  V30 24909 H 2235.43 2.79774 5.30892 0
M  V30 24910 H 2236.5 2.88414 3.89802 0
M  V30 24911 N 2237.84 -1.34926 0.814413 0
M  V30 24912 C 2238.78 -2.28429 0.187874 0
M  V30 24913 C 2239.79 -1.50641 -0.617348 0
M  V30 24914 O 2240.98 -1.72776 -0.448424 0
M  V30 24915 C 2238.08 -3.30362 -0.755904 0
M  V30 24916 C 2237.25 -4.374 0.00464374 0
M  V30 24917 C 2236.31 -5.19145 -0.858785 0
M  V30 24918 O 2235.34 -5.68372 -0.306868 0
M  V30 24919 N 2236.54 -5.3802 -2.17979 0
M  V30 24920 H 2239.3 -2.82836 0.991154 0
M  V30 24921 H 2236.86 -1.47359 0.670587 0
M  V30 24922 H 2238.86 -3.81944 -1.33793 0
M  V30 24923 H 2237.43 -2.76413 -1.45996 0
M  V30 24924 H 2236.65 -3.86648 0.767933 0
M  V30 24925 H 2237.93 -5.06048 0.528511 0
M  V30 24926 H 2237.33 -4.99684 -2.65203 0
M  V30 24927 H 2235.89 -5.92752 -2.71087 0
M  V30 24928 N 2239.32 -0.56861 -1.46985 0
M  V30 24929 C 2240.27 0.172666 -2.30153 0
M  V30 24930 C 2241.24 0.897562 -1.39761 0
M  V30 24931 O 2242.42 0.891014 -1.68717 0
M  V30 24932 C 2239.56 1.18944 -3.23954 0
M  V30 24933 C 2238.68 0.469441 -4.29442 0
M  V30 24934 C 2237.81 1.4725 -5.10383 0
M  V30 24935 C 2236.85 0.738118 -6.07633 0
M  V30 24936 N 2235.99 1.68856 -6.81493 0
M  V30 24937 H 2240.83 -0.542647 -2.93018 0
M  V30 24938 H 2238.36 -0.279426 -1.44422 0
M  V30 24939 H 2240.32 1.79166 -3.7677 0
M  V30 24940 H 2238.95 1.87264 -2.62929 0
M  V30 24941 H 2238 -0.247534 -3.79594 0
M  V30 24942 H 2239.32 -0.105329 -4.98689 0
M  V30 24943 H 2238.47 2.14793 -5.67405 0
M  V30 24944 H 2237.21 2.0812 -4.41064 0
M  V30 24945 H 2236.21 0.0488326 -5.49778 0
M  V30 24946 H 2237.44 0.13501 -6.78966 0
M  V30 24947 H 2235.39 2.28562 -6.14895 0
M  V30 24948 H 2235.3 1.16623 -7.4695 0
M  V30 24949 H 2236.57 2.35477 -7.43082 0
M  V30 24950 N 2240.8 1.54608 -0.305646 0
M  V30 24951 C 2241.76 2.22365 0.555551 0
M  V30 24952 C 2242.76 1.21121 1.05766 0
M  V30 24953 O 2243.95 1.45824 0.952946 0
M  V30 24954 C 2241.08 2.91367 1.76969 0
M  V30 24955 H 2242.28 2.99878 -0.0365099 0
M  V30 24956 H 2239.83 1.56198 -0.0565281 0
M  V30 24957 H 2240.57 2.17945 2.40147 0
M  V30 24958 H 2240.35 3.6559 1.41726 0
M  V30 24959 H 2241.84 3.43043 2.38142 0
M  V30 24960 N 2242.28 0.033457 1.57564 0
M  V30 24961 C 2243.23 -0.964923 2.11641 0
M  V30 24962 C 2244.22 -1.33405 1.044 0
M  V30 24963 O 2245.43 -1.31578 1.2283 0
M  V30 24964 H 2241.8 -0.328968 0.676228 0
M  V30 24965 H 2243.77 -0.483562 2.94456 0
M  V30 24966 C 2242.52 -2.23667 2.66211 0
M  V30 24967 H 2241.84 -1.96139 3.48381 0
M  V30 24968 H 2243.28 -2.91724 3.0769 0
M  V30 24969 C 2241.74 -2.96936 1.59156 0
M  V30 24970 O 2242.27 -3.89209 0.993927 0
M  V30 24971 N 2240.48 -2.59349 1.31097 0
M  V30 24972 H 2240.03 -1.8439 1.79883 0
M  V30 24973 H 2239.98 -3.08681 0.596943 0
M  V30 24974 N 2243.76 -1.55766 -0.239741 0
M  V30 24975 C 2244.98 -1.82336 -0.988341 0
M  V30 24976 C 2245.41 -0.611452 -1.77884 0
M  V30 24977 O 2244.76 0.439608 -1.7589 0
M  V30 24978 C 2244.81 -3.06718 -1.89621 0
M  V30 24979 O 2243.92 -2.84136 -2.98899 0
M  V30 24980 H 2243.26 -0.601681 -0.280848 0
M  V30 24981 H 2245.79 -2.0296 -0.258562 0
M  V30 24982 H 2245.8 -3.36342 -2.30951 0
M  V30 24983 H 2244.47 -3.94562 -1.31504 0
M  V30 24984 H 2243.05 -2.65699 -2.61646 0
M  V30 24985 N 2245.23 0.505704 -1.49266 0
M  V30 24986 C 2246.46 1.28899 -1.6248 0
M  V30 24987 C 2246.88 1.85782 -0.294365 0
M  V30 24988 O 2246.24 1.65627 0.737383 0
M  V30 24989 C 2246.29 2.39843 -2.69273 0
M  V30 24990 O 2245.39 3.43563 -2.28119 0
M  V30 24991 H 2244.73 0.380741 -0.543996 0
M  V30 24992 H 2247.26 0.605918 -1.95422 0
M  V30 24993 H 2247.27 2.85676 -2.91296 0
M  V30 24994 H 2245.95 1.97806 -3.65849 0
M  V30 24995 H 2244.53 3.03682 -2.16407 0
M  V30 24996 N 2246.71 1.38262 0.756405 0
M  V30 24997 C 2247.68 1.35068 1.85173 0
M  V30 24998 C 2248.68 0.251731 1.58817 0
M  V30 24999 O 2249.87 0.508462 1.66614 0
M  V30 25000 C 2247 1.10207 3.22595 0
M  V30 25001 H 2248.19 2.32514 1.89413 0
M  V30 25002 H 2245.74 1.23514 0.957808 0
M  V30 25003 H 2246.48 0.133561 3.24025 0
M  V30 25004 H 2246.26 1.89768 3.43119 0
M  V30 25005 H 2247.75 1.10661 4.02671 0
M  V30 25006 N 2248.19 -0.984277 1.23084 0
M  V30 25007 C 2249.42 -1.76035 1.08717 0
M  V30 25008 C 2249.83 -1.85304 -0.361659 0
M  V30 25009 O 2249.19 -1.32941 -1.25032 0
M  V30 25010 C 2249.24 -3.1892 1.70212 0
M  V30 25011 O 2248.96 -3.10138 3.09428 0
M  V30 25012 C 2250.46 -4.12939 1.61235 0
M  V30 25013 H 2247.68 -0.552565 0.380674 0
M  V30 25014 H 2250.23 -1.23686 1.62856 0
M  V30 25015 H 2248.38 -3.68308 1.20116 0
M  V30 25016 H 2248.8 -4.00059 3.39195 0
M  V30 25017 H 2250.27 -5.10916 2.08971 0
M  V30 25018 H 2250.75 -4.3548 0.570452 0
M  V30 25019 H 2251.35 -3.69452 2.10678 0
M  V30 25020 N 2249.67 -1.04192 -1.18244 0
M  V30 25021 C 2250.58 -0.644516 -2.25573 0
M  V30 25022 C 2251.59 0.329796 -1.70846 0
M  V30 25023 O 2252.77 0.184408 -2.00554 0
M  V30 25024 C 2249.84 -0.0149379 -3.46697 0
M  V30 25025 C 2248.9 -1.03841 -4.16552 0
M  V30 25026 C 2248.13 -0.438785 -5.31893 0
M  V30 25027 O 2248.35 0.754653 -5.65386 0
M  V30 25028 O 2247.29 -1.1681 -5.90457 0
M  V30 25029 H 2251.11 -1.53873 -2.61833 0
M  V30 25030 H 2248.7 -0.812876 -1.2535 0
M  V30 25031 H 2250.58 0.335464 -4.20063 0
M  V30 25032 H 2249.25 0.853083 -3.12257 0
M  V30 25033 H 2248.16 -1.44063 -3.45249 0
M  V30 25034 H 2249.49 -1.87724 -4.54995 0
M  V30 25035 N 2251.15 1.34492 -0.821557 0
M  V30 25036 C 2252.37 2.02552 -0.42192 0
M  V30 25037 C 2252.79 1.61874 0.971717 0
M  V30 25038 O 2252.15 0.823524 1.62863 0
M  V30 25039 C 2252.2 3.57843 -0.512913 0
M  V30 25040 O 2251.92 3.97047 -1.85162 0
M  V30 25041 C 2253.42 4.43168 -0.107999 0
M  V30 25042 H 2250.64 0.64924 -0.169494 0
M  V30 25043 H 2253.18 1.71796 -1.10933 0
M  V30 25044 H 2251.34 3.87194 0.126406 0
M  V30 25045 H 2251.75 4.91729 -1.82491 0
M  V30 25046 H 2253.23 5.5155 -0.222754 0
M  V30 25047 H 2253.7 4.2884 0.948325 0
M  V30 25048 H 2254.31 4.19143 -0.721062 0
M  V30 25049 N 2252.62 0.576397 1.46681 0
M  V30 25050 C 2253.87 0.057318 2.01619 0
M  V30 25051 C 2254.19 -1.30815 1.45419 0
M  V30 25052 O 2255.39 -1.91822 1.92137 0
M  V30 25053 C 2253.85 0.0519003 3.59863 0
M  V30 25054 C 2253.46 1.4153 4.25057 0
M  V30 25055 C 2255.2 -0.413565 4.22481 0
M  V30 25056 C 2253.11 1.36795 5.75362 0
M  V30 25057 H 2252.04 0.017658 0.753793 0
M  V30 25058 H 2254.69 0.727106 1.6848 0
M  V30 25059 H 2253.07 -0.683925 3.90049 0
M  V30 25060 H 2254.24 2.17036 4.06488 0
M  V30 25061 H 2252.56 1.82027 3.74507 0
M  V30 25062 H 2255.16 -0.467685 5.32651 0
M  V30 25063 H 2255.5 -1.42975 3.90978 0
M  V30 25064 H 2256.03 0.267999 3.96896 0
M  V30 25065 H 2252.77 2.36074 6.11514 0
M  V30 25066 H 2252.29 0.655 5.96213 0
M  V30 25067 H 2253.97 1.07816 6.37953 0
M  V30 25068 N 2254.1 -1.54444 0.313841 0
M  V30 25069 C 2255.05 -2.25454 -0.572131 0
M  V30 25070 C 2256.04 -1.26512 -1.12655 0
M  V30 25071 O 2257.25 -1.44321 -1.07571 0
M  V30 25072 H 2253.63 -0.724045 -0.203134 0
M  V30 25073 H 2255.6 -2.98359 0.0491669 0
M  V30 25074 C 2254.35 -3.01823 -1.72621 0
M  V30 25075 H 2253.67 -3.77769 -1.30884 0
M  V30 25076 H 2255.11 -3.54771 -2.32193 0
M  V30 25077 C 2253.57 -2.09546 -2.63803 0
M  V30 25078 O 2254.1 -1.67192 -3.65253 0
M  V30 25079 N 2252.3 -1.75236 -2.31821 0
M  V30 25080 H 2251.85 -2.09876 -1.49365 0
M  V30 25081 H 2251.81 -1.13772 -2.93093 0
M  V30 25082 N 2255.58 -0.0418125 -1.57545 0
M  V30 25083 C 2256.53 0.935768 -2.10979 0
M  V30 25084 C 2257.5 1.31489 -1.01488 0
M  V30 25085 O 2258.68 1.406 -1.28982 0
M  V30 25086 C 2255.82 2.20855 -2.65173 0
M  V30 25087 C 2254.94 1.88475 -3.88717 0
M  V30 25088 C 2254.07 3.10143 -4.3126 0
M  V30 25089 C 2253.11 2.7364 -5.47529 0
M  V30 25090 N 2252.25 3.87972 -5.85168 0
M  V30 25091 H 2257.09 0.473197 -2.94219 0
M  V30 25092 H 2254.62 0.221956 -1.45416 0
M  V30 25093 H 2256.58 2.9532 -2.9469 0
M  V30 25094 H 2255.21 2.64706 -1.84744 0
M  V30 25095 H 2254.26 1.04199 -3.65851 0
M  V30 25096 H 2255.58 1.576 -4.73248 0
M  V30 25097 H 2254.73 3.92915 -4.6228 0
M  V30 25098 H 2253.47 3.44189 -3.45522 0
M  V30 25099 H 2252.47 1.89282 -5.1619 0
M  V30 25100 H 2253.7 2.40796 -6.34976 0
M  V30 25101 H 2251.64 4.21837 -5.02384 0
M  V30 25102 H 2251.56 3.60763 -6.64369 0
M  V30 25103 H 2252.83 4.71411 -6.20799 0
M  V30 25104 N 2257.06 1.55891 0.231477 0
M  V30 25105 C 2257.99 1.94619 1.29018 0
M  V30 25106 C 2258.97 0.813093 1.49408 0
M  V30 25107 O 2260.15 1.07462 1.61758 0
M  V30 25108 C 2257.28 2.25429 2.64195 0
M  V30 25109 C 2256.24 3.41135 2.58478 0
M  V30 25110 C 2255.56 3.57525 3.97593 0
M  V30 25111 C 2256.86 4.76392 2.14122 0
M  V30 25112 H 2258.56 2.83302 0.968513 0
M  V30 25113 H 2256.1 1.36304 0.464455 0
M  V30 25114 H 2258.06 2.51112 3.38409 0
M  V30 25115 H 2256.78 1.33588 2.9803 0
M  V30 25116 H 2255.44 3.15485 1.86722 0
M  V30 25117 H 2255.09 2.63077 4.28718 0
M  V30 25118 H 2254.79 4.35344 3.94651 0
M  V30 25119 H 2256.31 3.85547 4.73483 0
M  V30 25120 H 2257.73 5.01346 2.78074 0
M  V30 25121 H 2256.12 5.57423 2.2226 0
M  V30 25122 H 2257.19 4.72416 1.09323 0
M  V30 25123 N 2258.54 -0.497781 1.49532 0
M  V30 25124 C 2259.48 -1.59896 1.66439 0
M  V30 25125 C 2260.45 -1.58211 0.505821 0
M  V30 25126 O 2261.64 -1.76149 0.733233 0
M  V30 25127 C 2258.78 -2.98026 1.73996 0
M  V30 25128 C 2257.89 -3.09703 3.01178 0
M  V30 25129 C 2257.03 -4.38585 2.99694 0
M  V30 25130 C 2256.07 -4.43907 4.21442 0
M  V30 25131 N 2255.2 -5.64222 4.1785 0
M  V30 25132 H 2260.04 -1.44788 2.60462 0
M  V30 25133 H 2257.58 -0.7044 1.29138 0
M  V30 25134 H 2259.54 -3.78092 1.76358 0
M  V30 25135 H 2258.17 -3.11831 0.834356 0
M  V30 25136 H 2257.22 -2.2268 3.08412 0
M  V30 25137 H 2258.53 -3.09495 3.9117 0
M  V30 25138 H 2257.69 -5.26975 3.00637 0
M  V30 25139 H 2256.42 -4.41363 2.07485 0
M  V30 25140 H 2255.43 -3.53919 4.20739 0
M  V30 25141 H 2256.65 -4.42842 5.14847 0
M  V30 25142 H 2254.6 -5.67836 3.28479 0
M  V30 25143 H 2254.52 -5.65643 5.01581 0
M  V30 25144 H 2255.79 -6.5481 4.229 0
M  V30 25145 N 2260.01 -1.38661 -0.749062 0
M  V30 25146 C 2261.26 -1.35317 -1.51054 0
M  V30 25147 C 2261.59 0.055341 -1.94121 0
M  V30 25148 O 2260.87 1.01746 -1.65765 0
M  V30 25149 C 2261.15 -2.31293 -2.75999 0
M  V30 25150 C 2261 -3.81024 -2.39041 0
M  V30 25151 C 2262.32 -2.25327 -3.78042 0
M  V30 25152 H 2259.44 -0.492854 -0.547963 0
M  V30 25153 H 2262.08 -1.69544 -0.857598 0
M  V30 25154 H 2260.23 -2.02235 -3.31713 0
M  V30 25155 H 2261.91 -4.20775 -1.89067 0
M  V30 25156 H 2260.15 -3.98485 -1.71442 0
M  V30 25157 H 2260.82 -4.43646 -3.28454 0
M  V30 25158 H 2263.3 -2.50989 -3.31879 0
M  V30 25159 H 2262.17 -2.94584 -4.63154 0
M  V30 25160 H 2262.43 -1.2536 -4.23954 0
M  V30 25161 N 2261.49 0.977736 -1.23605 0
M  V30 25162 C 2262.43 2.07315 -0.977405 0
M  V30 25163 C 2263.44 1.62725 0.0495559 0
M  V30 25164 O 2264.63 1.77525 -0.186292 0
M  V30 25165 C 2261.73 3.35882 -0.451275 0
M  V30 25166 C 2260.9 4.0943 -1.53903 0
M  V30 25167 C 2259.96 5.16273 -1.01731 0
M  V30 25168 O 2258.99 5.43006 -1.70686 0
M  V30 25169 N 2260.19 5.80297 0.153492 0
M  V30 25170 H 2262.95 2.30079 -1.92051 0
M  V30 25171 H 2260.51 1.14463 -1.14499 0
M  V30 25172 H 2262.51 4.04606 -0.0872286 0
M  V30 25173 H 2261.08 3.10065 0.397314 0
M  V30 25174 H 2260.3 3.35123 -2.07572 0
M  V30 25175 H 2261.58 4.55333 -2.27045 0
M  V30 25176 H 2260.98 5.60967 0.730224 0
M  V30 25177 H 2259.54 6.50183 0.458777 0
M  V30 25178 N 2262.97 1.04818 1.1769 0
M  V30 25179 C 2263.88 0.65647 2.25228 0
M  V30 25180 C 2264.9 -0.320731 1.71018 0
M  V30 25181 O 2266.07 -0.173769 2.00649 0
M  V30 25182 C 2263.14 0.0333239 3.46684 0
M  V30 25183 C 2262.2 1.06049 4.15995 0
M  V30 25184 C 2261.43 0.466987 5.31653 0
M  V30 25185 O 2261.66 -0.724658 5.65778 0
M  V30 25186 O 2260.59 1.1994 5.89829 0
M  V30 25187 H 2264.42 1.5526 2.61014 0
M  V30 25188 H 2262 0.819512 1.24917 0
M  V30 25189 H 2263.88 -0.313183 4.20235 0
M  V30 25190 H 2262.56 -0.836511 3.12705 0
M  V30 25191 H 2261.46 1.45892 3.4448 0
M  V30 25192 H 2262.8 1.90135 4.53993 0
M  V30 25193 N 2264.45 -1.34055 0.828678 0
M  V30 25194 C 2265.38 -2.28217 0.212092 0
M  V30 25195 C 2266.39 -1.51287 -0.601336 0
M  V30 25196 O 2267.58 -1.73241 -0.430074 0
M  V30 25197 C 2264.68 -3.31146 -0.720822 0
M  V30 25198 C 2263.86 -4.3737 0.0510356 0
M  V30 25199 C 2262.92 -5.20026 -0.803674 0
M  V30 25200 O 2261.94 -5.68666 -0.246567 0
M  V30 25201 N 2263.14 -5.40302 -2.1226 0
M  V30 25202 H 2265.91 -2.81769 1.0211 0
M  V30 25203 H 2263.47 -1.4664 0.686179 0
M  V30 25204 H 2265.46 -3.83342 -1.29735 0
M  V30 25205 H 2264.03 -2.77945 -1.43056 0
M  V30 25206 H 2263.25 -3.85811 0.808899 0
M  V30 25207 H 2264.54 -5.05459 0.582154 0
M  V30 25208 H 2263.94 -5.02468 -2.59889 0
M  V30 25209 H 2262.49 -5.95594 -2.64785 0
M  V30 25210 N 2265.93 -0.584167 -1.46374 0
M  V30 25211 C 2266.84 0.150686 -2.34116 0
M  V30 25212 C 2267.85 0.884541 -1.4984 0
M  V30 25213 O 2269.03 0.847397 -1.82705 0
M  V30 25214 C 2266.09 1.15056 -3.27052 0
M  V30 25215 C 2265.16 0.421218 -4.27229 0
M  V30 25216 C 2264.39 1.37346 -5.15725 0
M  V30 25217 O 2264.61 2.61006 -5.07181 0
M  V30 25218 O 2263.55 0.88325 -5.95384 0
M  V30 25219 H 2267.37 -0.56976 -2.98308 0
M  V30 25220 H 2264.96 -0.34456 -1.45372 0
M  V30 25221 H 2266.84 1.72705 -3.84384 0
M  V30 25222 H 2265.51 1.85245 -2.65454 0
M  V30 25223 H 2264.42 -0.197151 -3.7358 0
M  V30 25224 H 2265.75 -0.239727 -4.91616 0
M  V30 25225 N 2267.41 1.54275 -0.322027 0
M  V30 25226 C 2268.34 2.27232 0.537371 0
M  V30 25227 C 2269.32 1.2797 1.12061 0
M  V30 25228 O 2270.5 1.56779 1.14603 0
M  V30 25229 C 2267.63 3.02897 1.69913 0
M  V30 25230 C 2266.59 4.09484 1.24526 0
M  V30 25231 C 2265.91 4.72981 2.49385 0
M  V30 25232 C 2267.21 5.21049 0.361243 0
M  V30 25233 H 2268.91 2.99315 -0.0711932 0
M  V30 25234 H 2266.45 1.43956 -0.0356808 0
M  V30 25235 H 2268.4 3.52666 2.30662 0
M  V30 25236 H 2267.13 2.28429 2.33427 0
M  V30 25237 H 2265.79 3.60597 0.660719 0
M  V30 25238 H 2265.44 3.95129 3.11258 0
M  V30 25239 H 2265.14 5.44979 2.19708 0
M  V30 25240 H 2266.66 5.25523 3.10899 0
M  V30 25241 H 2268.07 5.66584 0.874972 0
M  V30 25242 H 2266.47 5.99894 0.157323 0
M  V30 25243 H 2267.54 4.81069 -0.608304 0
M  V30 25244 N 2268.88 0.0501669 1.5752 0
M  V30 25245 C 2270.11 -0.633457 1.96964 0
M  V30 25246 C 2270.53 -1.64438 0.92766 0
M  V30 25247 O 2269.88 -1.82287 -0.0882344 0
M  V30 25248 C 2269.93 -1.32126 3.36489 0
M  V30 25249 O 2269.66 -0.350817 4.36693 0
M  V30 25250 C 2271.16 -2.09474 3.90686 0
M  V30 25251 H 2268.38 -0.173255 0.648247 0
M  V30 25252 H 2270.92 0.116169 2.0417 0
M  V30 25253 H 2269.08 -2.02212 3.30437 0
M  V30 25254 H 2269.49 -0.841644 5.17703 0
M  V30 25255 H 2270.96 -2.53021 4.90596 0
M  V30 25256 H 2271.44 -2.94249 3.26059 0
M  V30 25257 H 2272.05 -1.443 4.00072 0
M  V30 25258 N 2270.36 -1.56011 -0.223207 0
M  V30 25259 C 2271.78 -1.48966 -0.57283 0
M  V30 25260 C 2271.98 -0.744952 -1.87224 0
M  V30 25261 O 2271.03 -0.28394 -2.50898 0
M  V30 25262 C 2272.35 -2.93511 -0.653594 0
M  V30 25263 C 2273.89 -3.04021 -0.744333 0
M  V30 25264 C 2274.37 -4.49921 -0.856456 0
M  V30 25265 N 2275.86 -4.53957 -0.92072 0
M  V30 25266 C 2276.6 -5.64125 -1.02716 0
M  V30 25267 N 2276.09 -6.84049 -1.09764 0
M  V30 25268 N 2277.88 -5.51973 -1.06216 0
M  V30 25269 H 2270.04 -2.02857 0.629498 0
M  V30 25270 H 2272.3 -0.921967 0.220637 0
M  V30 25271 H 2272 -3.50937 0.23158 0
M  V30 25272 H 2271.88 -3.45318 -1.51775 0
M  V30 25273 H 2274.27 -2.46661 -1.61995 0
M  V30 25274 H 2274.35 -2.55386 0.145455 0
M  V30 25275 H 2273.99 -5.07898 0.0146961 0
M  V30 25276 H 2273.92 -4.9626 -1.76164 0
M  V30 25277 H 2276.41 -3.67592 -0.87663 0
M  V30 25278 H 2276.72 -7.6376 -1.17859 0
M  V30 25279 H 2275.07 -6.86764 -1.06681 0
M  V30 25280 H 2278.26 -4.57212 -1.00374 0
M  V30 25281 H 2278.43 -6.37864 -1.14166 0
M  V30 25282 N 2271.84 0.489844 -1.49794 0
M  V30 25283 C 2272.77 1.59853 -1.70203 0
M  V30 25284 C 2273.75 1.60936 -0.550789 0
M  V30 25285 O 2274.94 1.775 -0.787872 0
M  V30 25286 C 2272.07 2.98284 -1.77888 0
M  V30 25287 C 2271.02 3.12068 -2.92912 0
M  V30 25288 C 2270.35 4.5196 -2.8572 0
M  V30 25289 C 2271.65 2.91043 -4.33695 0
M  V30 25290 H 2273.34 1.43027 -2.63028 0
M  V30 25291 H 2270.89 0.686642 -1.26575 0
M  V30 25292 H 2272.84 3.75755 -1.90751 0
M  V30 25293 H 2271.56 3.16224 -0.816708 0
M  V30 25294 H 2270.22 2.37024 -2.79669 0
M  V30 25295 H 2269.87 4.66792 -1.87388 0
M  V30 25296 H 2269.57 4.62122 -3.62929 0
M  V30 25297 H 2271.09 5.31477 -3.00607 0
M  V30 25298 H 2272.51 3.58276 -4.47561 0
M  V30 25299 H 2270.9 3.12666 -5.12211 0
M  V30 25300 H 2271.97 1.87063 -4.47365 0
M  V30 25301 N 2273.32 1.39056 0.741698 0
M  V30 25302 C 2274.73 1.20514 1.04636 0
M  V30 25303 C 2274.93 0.0620572 2.01404 0
M  V30 25304 O 2273.99 -0.588414 2.45548 0
M  V30 25305 C 2275.3 2.53646 1.61506 0
M  V30 25306 C 2276.85 2.60433 1.73619 0
M  V30 25307 C 2277.33 3.93771 2.33899 0
M  V30 25308 N 2278.82 3.95374 2.41316 0
M  V30 25309 C 2279.55 4.95314 2.8888 0
M  V30 25310 N 2279.05 6.05651 3.3639 0
M  V30 25311 N 2280.84 4.82697 2.88028 0
M  V30 25312 H 2272.99 2.12166 0.0997782 0
M  V30 25313 H 2275.25 0.941955 0.10689 0
M  V30 25314 H 2274.96 3.37809 0.97868 0
M  V30 25315 H 2274.83 2.72889 2.60406 0
M  V30 25316 H 2277.22 1.76659 2.3638 0
M  V30 25317 H 2277.3 2.45046 0.733902 0
M  V30 25318 H 2276.95 4.77973 1.71767 0
M  V30 25319 H 2276.88 4.06475 3.34792 0
M  V30 25320 H 2279.37 3.15686 2.07728 0
M  V30 25321 H 2279.68 6.77827 3.71174 0
M  V30 25322 H 2278.03 6.09254 3.34416 0
M  V30 25323 H 2281.22 3.95604 2.5023 0
M  V30 25324 H 2281.39 5.60732 3.24783 0
M  V30 25325 N 2274.8 -0.971167 1.24121 0
M  V30 25326 C 2276.04 -1.70799 1.07287 0
M  V30 25327 C 2276.36 -1.91696 -0.388868 0
M  V30 25328 O 2277.56 -2.62915 -0.677333 0
M  V30 25329 C 2276.02 -3.07413 1.8715 0
M  V30 25330 C 2275.63 -2.94371 3.37712 0
M  V30 25331 C 2277.37 -3.84992 1.78834 0
M  V30 25332 C 2275.28 -4.26274 4.09933 0
M  V30 25333 H 2274.21 -0.640483 0.397865 0
M  V30 25334 H 2276.86 -1.08247 1.48172 0
M  V30 25335 H 2275.24 -3.70774 1.39078 0
M  V30 25336 H 2276.42 -2.40044 3.93339 0
M  V30 25337 H 2274.73 -2.30261 3.46942 0
M  V30 25338 H 2277.33 -4.82658 2.30098 0
M  V30 25339 H 2277.67 -4.09435 0.752912 0
M  V30 25340 H 2278.2 -3.2835 2.24568 0
M  V30 25341 H 2274.94 -4.07024 5.13821 0
M  V30 25342 H 2274.46 -4.8043 3.59091 0
M  V30 25343 H 2276.14 -4.94912 4.16739 0
M  V30 25344 N 2276.27 -1.05441 -1.17133 0
M  V30 25345 C 2277.55 -0.679731 -1.83409 0
M  V30 25346 C 2277.93 0.839692 -1.93681 0
M  V30 25347 O 2277.28 1.74662 -1.47328 0
M  V30 25348 C 2277.49 -1.37164 -3.20916 0
M  V30 25349 C 2278.84 -1.5113 -3.96793 0
M  V30 25350 O 2279.86 -1.33086 -3.30404 0
M  V30 25351 O 2278.72 -1.8066 -5.15775 0
M  V30 25352 H 2275.81 -0.239583 -0.791536 0
M  V30 25353 H 2278.36 -1.15415 -1.24408 0
M  V30 25354 H 2277.13 -2.40813 -3.08423 0
M  V30 25355 H 2276.76 -0.886742 -3.87586 0
M  V30 25356 N 2277.75 1.33613 -0.835776 0
M  V30 25357 C 2278.98 2.018 -0.442736 0
M  V30 25358 C 2279.39 1.63049 0.959779 0
M  V30 25359 O 2278.73 0.838117 1.63466 0
M  V30 25360 C 2278.8 3.56279 -0.480188 0
M  V30 25361 C 2278.46 4.18397 -1.83828 0
M  V30 25362 C 2279.46 4.37993 -2.80104 0
M  V30 25363 C 2277.14 4.5489 -2.13027 0
M  V30 25364 C 2279.14 4.93223 -4.03745 0
M  V30 25365 C 2276.82 5.09828 -3.36925 0
M  V30 25366 C 2277.82 5.28941 -4.32101 0
M  V30 25367 O 2277.51 5.82711 -5.53807 0
M  V30 25368 H 2277.24 0.65311 -0.174421 0
M  V30 25369 H 2279.79 1.71587 -1.12903 0
M  V30 25370 H 2278.02 3.85806 0.262863 0
M  V30 25371 H 2279.71 4.05763 -0.105406 0
M  V30 25372 H 2280.48 4.10151 -2.58845 0
M  V30 25373 H 2276.36 4.3931 -1.39741 0
M  V30 25374 H 2279.9 5.08056 -4.78043 0
M  V30 25375 H 2275.8 5.371 -3.58042 0
M  V30 25376 H 2276.57 6.0113 -5.55504 0
M  V30 25377 N 2279.23 0.591922 1.46062 0
M  V30 25378 C 2280.14 -0.138269 2.34192 0
M  V30 25379 C 2281.16 -0.876582 1.50306 0
M  V30 25380 O 2282.33 -0.837696 1.83152 0
M  V30 25381 C 2279.4 -1.1332 3.27658 0
M  V30 25382 C 2278.46 -0.398555 4.27446 0
M  V30 25383 C 2277.69 -1.34609 5.16446 0
M  V30 25384 O 2277.91 -2.58312 5.08558 0
M  V30 25385 O 2276.85 -0.851663 5.95844 0
M  V30 25386 H 2280.67 0.585572 2.98001 0
M  V30 25387 H 2278.26 0.352265 1.45188 0
M  V30 25388 H 2280.14 -1.70664 3.85294 0
M  V30 25389 H 2278.82 -1.83835 2.66433 0
M  V30 25390 H 2277.72 0.21696 3.7347 0
M  V30 25391 H 2279.06 0.265795 4.91482 0
M  V30 25392 N 2280.71 -1.54102 0.330204 0
M  V30 25393 C 2282.12 -1.59585 -0.022209 0
M  V30 25394 C 2282.32 -1.34656 -1.499 0
M  V30 25395 O 2281.38 -1.13425 -2.2559 0
M  V30 25396 C 2282.69 -2.98001 0.401984 0
M  V30 25397 C 2284.24 -3.11001 0.353199 0
M  V30 25398 C 2284.72 -4.51773 0.752656 0
M  V30 25399 N 2286.21 -4.57783 0.706319 0
M  V30 25400 C 2286.94 -5.64832 0.987516 0
M  V30 25401 N 2286.44 -6.79792 1.33619 0
M  V30 25402 N 2288.23 -5.54642 0.912638 0
M  V30 25403 H 2280.38 -1.68562 1.29231 0
M  V30 25404 H 2282.65 -0.788741 0.52592 0
M  V30 25405 H 2282.35 -3.21265 1.43115 0
M  V30 25406 H 2282.23 -3.765 -0.229633 0
M  V30 25407 H 2284.61 -2.87469 -0.666772 0
M  V30 25408 H 2284.69 -2.34591 1.01984 0
M  V30 25409 H 2284.34 -4.76039 1.77057 0
M  V30 25410 H 2284.27 -5.26562 0.0636335 0
M  V30 25411 H 2286.76 -3.75224 0.448956 0
M  V30 25412 H 2287.07 -7.57383 1.53595 0
M  V30 25413 H 2285.42 -6.81272 1.37451 0
M  V30 25414 H 2288.61 -4.63709 0.639683 0
M  V30 25415 H 2288.78 -6.3798 1.13514 0
M  V30 25416 N 2282.19 -0.0585199 -1.57491 0
M  V30 25417 C 2283.43 0.614524 -1.93265 0
M  V30 25418 C 2283.77 1.70059 -0.937746 0
M  V30 25419 O 2283.04 1.94468 0.0351311 0
M  V30 25420 C 2283.32 1.2038 -3.39383 0
M  V30 25421 C 2283.18 0.125296 -4.49625 0
M  V30 25422 C 2284.5 2.11327 -3.86043 0
M  V30 25423 H 2281.61 0.22192 -0.702795 0
M  V30 25424 H 2284.26 -0.121783 -1.89609 0
M  V30 25425 H 2282.41 1.83133 -3.42629 0
M  V30 25426 H 2284.08 -0.507051 -4.58505 0
M  V30 25427 H 2282.32 -0.545747 -4.30353 0
M  V30 25428 H 2282.99 0.577765 -5.48968 0
M  V30 25429 H 2285.47 1.58527 -3.84719 0
M  V30 25430 H 2284.34 2.49499 -4.88919 0
M  V30 25431 H 2284.61 3.0163 -3.23221 0
M  V30 25432 N 2283.66 1.56128 0.21493 0
M  V30 25433 C 2284.89 1.83886 0.959207 0
M  V30 25434 C 2285.31 0.639675 1.76889 0
M  V30 25435 O 2284.67 -0.41157 1.76567 0
M  V30 25436 C 2284.72 3.09696 1.84718 0
M  V30 25437 O 2283.82 2.88855 2.94341 0
M  V30 25438 H 2283.17 0.606073 0.27124 0
M  V30 25439 H 2285.7 2.03345 0.22624 0
M  V30 25440 H 2285.71 3.39973 2.2557 0
M  V30 25441 H 2284.38 3.96605 1.25211 0
M  V30 25442 H 2282.96 2.69828 2.57386 0
M  V30 25443 N 2285.14 -0.481893 1.50052 0
M  V30 25444 C 2286.07 -1.59841 1.64266 0
M  V30 25445 C 2287.09 -1.54118 0.524537 0
M  V30 25446 O 2288.28 -1.59703 0.797321 0
M  V30 25447 C 2285.38 -2.98695 1.60108 0
M  V30 25448 C 2284.55 -3.29402 2.87773 0
M  V30 25449 C 2283.61 -4.47758 2.76405 0
M  V30 25450 O 2282.63 -4.48597 3.50356 0
M  V30 25451 N 2283.84 -5.48791 1.89232 0
M  V30 25452 H 2286.6 -1.48068 2.60568 0
M  V30 25453 H 2284.16 -0.670123 1.4738 0
M  V30 25454 H 2286.15 -3.75823 1.5013 0
M  V30 25455 H 2284.72 -3.04293 0.715851 0
M  V30 25456 H 2283.94 -2.40988 3.11959 0
M  V30 25457 H 2285.23 -3.46724 3.72371 0
M  V30 25458 H 2284.63 -5.50925 1.28443 0
M  V30 25459 H 2283.19 -6.24946 1.85165 0
M  V30 25460 N 2286.62 -1.39448 -0.734313 0
M  V30 25461 C 2287.53 -1.40498 -1.87876 0
M  V30 25462 C 2288.55 -0.299702 -1.71399 0
M  V30 25463 O 2289.72 -0.541283 -1.9399 0
M  V30 25464 C 2286.79 -1.2476 -3.23475 0
M  V30 25465 C 2285.85 -2.45265 -3.5234 0
M  V30 25466 C 2285.08 -2.30268 -4.81469 0
M  V30 25467 O 2285.3 -1.30652 -5.55235 0
M  V30 25468 O 2284.24 -3.19265 -5.10249 0
M  V30 25469 H 2288.06 -2.3697 -1.89945 0
M  V30 25470 H 2285.65 -1.2057 -0.882222 0
M  V30 25471 H 2287.53 -1.18118 -4.04507 0
M  V30 25472 H 2286.21 -0.313838 -3.22175 0
M  V30 25473 H 2285.11 -2.57483 -2.71392 0
M  V30 25474 H 2286.45 -3.37337 -3.5842 0
M  V30 25475 N 2288.1 0.964571 -1.24635 0
M  V30 25476 C 2289.51 1.23379 -1.01242 0
M  V30 25477 C 2289.71 1.99589 0.276865 0
M  V30 25478 O 2288.77 2.32189 0.9922 0
M  V30 25479 C 2290.08 2.01787 -2.22941 0
M  V30 25480 C 2291.63 2.14868 -2.27598 0
M  V30 25481 C 2292.11 2.96672 -3.48927 0
M  V30 25482 N 2293.6 3.04253 -3.49262 0
M  V30 25483 C 2294.33 3.67916 -4.39801 0
M  V30 25484 N 2293.83 4.33272 -5.40599 0
M  V30 25485 N 2295.62 3.64959 -4.27506 0
M  V30 25486 H 2287.77 0.454466 -2.07481 0
M  V30 25487 H 2290.04 0.263474 -0.910651 0
M  V30 25488 H 2289.74 1.53178 -3.1659 0
M  V30 25489 H 2289.62 3.02514 -2.25311 0
M  V30 25490 H 2292 2.62678 -1.34478 0
M  V30 25491 H 2292.08 1.13478 -2.29252 0
M  V30 25492 H 2291.73 2.49555 -4.42363 0
M  V30 25493 H 2291.66 3.98266 -3.44517 0
M  V30 25494 H 2294.15 2.57767 -2.76342 0
M  V30 25495 H 2294.46 4.79676 -6.05913 0
M  V30 25496 H 2292.81 4.31931 -5.44482 0
M  V30 25497 H 2296 3.13079 -3.47993 0
M  V30 25498 H 2296.17 4.1429 -4.98265 0
M  V30 25499 N 2289.58 1.0606 1.16572 0
M  V30 25500 C 2290.8 0.796585 1.90951 0
M  V30 25501 C 2291.22 -0.648777 1.77303 0
M  V30 25502 O 2290.58 -1.44395 1.11607 0
M  V30 25503 C 2290.63 1.179 3.41734 0
M  V30 25504 O 2290.35 2.56764 3.5497 0
M  V30 25505 C 2291.85 0.942384 4.33167 0
M  V30 25506 H 2289.07 0.28897 0.605589 0
M  V30 25507 H 2291.61 1.41361 1.47775 0
M  V30 25508 H 2289.77 0.606558 3.82622 0
M  V30 25509 H 2290.18 2.72008 4.48455 0
M  V30 25510 H 2291.66 1.25961 5.37436 0
M  V30 25511 H 2292.13 -0.122001 4.39031 0
M  V30 25512 H 2292.74 1.49909 3.98004 0
M  V30 25513 N 2291.06 -1.33168 0.84285 0
M  V30 25514 C 2292.3 -1.97944 0.441134 0
M  V30 25515 C 2292.63 -1.66594 -0.997994 0
M  V30 25516 O 2291.91 -0.947927 -1.69837 0
M  V30 25517 C 2292.19 -3.53871 0.666903 0
M  V30 25518 C 2292.05 -3.94893 2.15359 0
M  V30 25519 C 2293.36 -4.39948 0.115622 0
M  V30 25520 H 2290.48 -0.719031 0.161752 0
M  V30 25521 H 2293.13 -1.57744 1.0591 0
M  V30 25522 H 2291.28 -3.88244 0.140896 0
M  V30 25523 H 2292.95 -3.70756 2.74477 0
M  V30 25524 H 2291.19 -3.4448 2.63659 0
M  V30 25525 H 2291.86 -5.03512 2.2623 0
M  V30 25526 H 2294.34 -4.12242 0.565286 0
M  V30 25527 H 2293.21 -5.48062 0.303249 0
M  V30 25528 H 2293.47 -4.31082 -0.980859 0
M  V30 25529 N 2292.53 -0.599659 -1.45746 0
M  V30 25530 C 2293.48 0.123808 -2.30468 0
M  V30 25531 C 2294.45 0.867715 -1.41633 0
M  V30 25532 O 2295.64 0.855026 -1.70569 0
M  V30 25533 C 2292.78 1.12046 -3.26404 0
M  V30 25534 C 2291.89 0.378245 -4.30341 0
M  V30 25535 C 2291.02 1.36391 -5.13392 0
M  V30 25536 C 2290.06 0.609064 -6.09062 0
M  V30 25537 N 2289.2 1.54362 -6.84921 0
M  V30 25538 H 2294.04 -0.604678 -2.91801 0
M  V30 25539 H 2291.58 -0.309997 -1.43796 0
M  V30 25540 H 2293.53 1.71134 -3.80485 0
M  V30 25541 H 2292.16 1.81645 -2.66842 0
M  V30 25542 H 2291.22 -0.327996 -3.78983 0
M  V30 25543 H 2292.53 -0.211084 -4.98353 0
M  V30 25544 H 2291.68 2.02709 -5.71834 0
M  V30 25545 H 2290.42 1.98717 -4.45379 0
M  V30 25546 H 2289.43 -0.0677945 -5.49758 0
M  V30 25547 H 2290.65 -0.00903928 -6.79099 0
M  V30 25548 H 2288.6 2.15467 -6.19605 0
M  V30 25549 H 2288.51 1.00753 -7.49256 0
M  V30 25550 H 2289.78 2.19663 -7.47909 0
M  V30 25551 N 2294.01 1.53925 -0.338371 0
M  V30 25552 C 2295.29 1.93051 0.31474 0
M  V30 25553 C 2295.67 1.26944 1.68667 0
M  V30 25554 O 2295.02 0.418484 2.24635 0
M  V30 25555 C 2295.23 3.46789 0.392188 0
M  V30 25556 C 2296.57 4.19665 0.645481 0
M  V30 25557 O 2297.6 3.53025 0.474513 0
M  V30 25558 O 2296.46 5.37708 0.976314 0
M  V30 25559 H 2293.55 0.806593 0.182584 0
M  V30 25560 H 2296.1 1.65177 -0.38917 0
M  V30 25561 H 2294.87 3.87115 -0.57077 0
M  V30 25562 H 2294.49 3.80814 1.14309 0
M  V30 25563 N 2295.49 0.0668712 1.57458 0
M  V30 25564 C 2296.42 -0.931565 2.09415 0
M  V30 25565 C 2297.43 -1.26462 1.02524 0
M  V30 25566 O 2298.62 -1.22266 1.30051 0
M  V30 25567 C 2295.72 -2.24878 2.53541 0
M  V30 25568 C 2294.9 -2.0953 3.83948 0
M  V30 25569 C 2293.96 -3.24513 4.1422 0
M  V30 25570 O 2292.98 -2.99721 4.83896 0
M  V30 25571 N 2294.18 -4.49462 3.67375 0
M  V30 25572 H 2296.95 -0.487996 2.957 0
M  V30 25573 H 2294.51 -0.11898 1.61462 0
M  V30 25574 H 2296.5 -3.00696 2.70858 0
M  V30 25575 H 2295.07 -2.6075 1.72419 0
M  V30 25576 H 2294.29 -1.18209 3.76059 0
M  V30 25577 H 2295.58 -1.96521 4.69315 0
M  V30 25578 H 2294.98 -4.72491 3.11076 0
M  V30 25579 H 2293.53 -5.22323 3.899 0
M  V30 25580 N 2296.97 -1.56239 -0.206647 0
M  V30 25581 C 2298.24 -1.70757 -0.954021 0
M  V30 25582 C 2298.62 -0.618388 -2.01839 0
M  V30 25583 O 2297.97 0.372394 -2.25445 0
M  V30 25584 C 2298.18 -3.12645 -1.55094 0
M  V30 25585 C 2299.53 -3.7252 -2.0375 0
M  V30 25586 O 2300.55 -3.15701 -1.64959 0
M  V30 25587 O 2299.41 -4.72213 -2.75094 0
M  V30 25588 H 2296.51 -0.696029 -0.446624 0
M  V30 25589 H 2299.05 -1.6855 -0.197254 0
M  V30 25590 H 2297.83 -3.83383 -0.783145 0
M  V30 25591 H 2297.45 -3.19032 -2.37285 0
M  V30 25592 N 2298.45 0.473929 -1.50305 0
M  V30 25593 C 2299.69 1.22298 -1.60394 0
M  V30 25594 C 2300.01 1.93153 -0.308445 0
M  V30 25595 O 2301.21 2.69966 -0.288204 0
M  V30 25596 C 2299.67 2.22205 -2.83113 0
M  V30 25597 C 2299.28 1.57166 -4.19527 0
M  V30 25598 C 2301.02 2.9777 -3.02545 0
M  V30 25599 C 2298.93 2.55343 -5.33436 0
M  V30 25600 H 2297.86 0.460169 -0.597294 0
M  V30 25601 H 2300.51 0.493772 -1.76732 0
M  V30 25602 H 2298.89 2.98405 -2.60327 0
M  V30 25603 H 2300.07 0.867744 -4.52556 0
M  V30 25604 H 2298.38 0.938931 -4.05676 0
M  V30 25605 H 2300.98 3.71241 -3.84817 0
M  V30 25606 H 2301.32 3.56989 -2.14161 0
M  V30 25607 H 2301.85 2.28683 -3.25498 0
M  V30 25608 H 2298.59 2.00867 -6.23965 0
M  V30 25609 H 2298.11 3.23895 -5.04829 0
M  V30 25610 H 2299.79 3.1723 -5.63892 0
M  V30 25611 N 2299.92 1.39835 0.726907 0
M  V30 25612 C 2301.15 1.4079 1.51611 0
M  V30 25613 C 2301.57 0.00454824 1.88799 0
M  V30 25614 O 2300.92 -0.968782 1.54664 0
M  V30 25615 C 2300.97 2.28826 2.79859 0
M  V30 25616 O 2300.7 3.63697 2.44247 0
M  V30 25617 C 2302.2 2.38251 3.73833 0
M  V30 25618 H 2299.42 0.480602 0.468255 0
M  V30 25619 H 2301.96 1.83749 0.897575 0
M  V30 25620 H 2300.12 1.89258 3.38024 0
M  V30 25621 H 2300.53 4.10336 3.26688 0
M  V30 25622 H 2302 3.04081 4.60693 0
M  V30 25623 H 2302.48 1.40411 4.16151 0
M  V30 25624 H 2303.09 2.78323 3.21584 0
M  V30 25625 N 2301.4 -0.957948 1.25144 0
M  V30 25626 C 2302.82 -1.2284 1.01894 0
M  V30 25627 C 2303.02 -1.99733 -0.266276 0
M  V30 25628 O 2302.07 -2.32712 -0.979872 0
M  V30 25629 C 2303.39 -2.00602 2.24008 0
M  V30 25630 C 2304.93 -2.13658 2.28734 0
M  V30 25631 C 2305.41 -2.94817 3.50495 0
M  V30 25632 N 2306.9 -3.02397 3.50871 0
M  V30 25633 C 2307.64 -3.65579 4.41746 0
M  V30 25634 N 2307.13 -4.30399 5.42889 0
M  V30 25635 N 2308.92 -3.62687 4.29435 0
M  V30 25636 H 2301.08 -0.443456 2.07719 0
M  V30 25637 H 2303.34 -0.258641 0.912036 0
M  V30 25638 H 2303.04 -1.51497 3.17398 0
M  V30 25639 H 2302.92 -3.01315 2.26912 0
M  V30 25640 H 2305.31 -2.61961 1.35869 0
M  V30 25641 H 2305.39 -1.12261 2.2985 0
M  V30 25642 H 2305.03 -2.47205 4.4368 0
M  V30 25643 H 2304.96 -3.96433 3.46624 0
M  V30 25644 H 2307.45 -2.56297 2.77705 0
M  V30 25645 H 2307.76 -4.76456 6.08448 0
M  V30 25646 H 2306.11 -4.29037 5.46765 0
M  V30 25647 H 2309.3 -3.1123 3.49648 0
M  V30 25648 H 2309.47 -4.11641 5.00455 0
M  V30 25649 N 2302.88 -1.06677 -1.16008 0
M  V30 25650 C 2304.13 -0.785814 -1.86631 0
M  V30 25651 C 2304.45 0.687864 -1.8193 0
M  V30 25652 O 2303.71 1.52009 -1.23255 0
M  V30 25653 C 2304.01 -1.23062 -3.35545 0
M  V30 25654 C 2303.67 -2.70908 -3.60444 0
M  V30 25655 C 2302.34 -3.11292 -3.66948 0
M  V30 25656 C 2304.69 -3.66372 -3.70703 0
M  V30 25657 C 2302.02 -4.45972 -3.81217 0
M  V30 25658 C 2304.37 -5.00804 -3.86494 0
M  V30 25659 C 2303.03 -5.4082 -3.91242 0
M  V30 25660 H 2302.3 -0.28755 -0.682932 0
M  V30 25661 H 2304.95 -1.33656 -1.37143 0
M  V30 25662 H 2303.25 -0.599138 -3.87192 0
M  V30 25663 H 2304.95 -0.990231 -3.88581 0
M  V30 25664 H 2301.54 -2.38642 -3.56017 0
M  V30 25665 H 2305.73 -3.36303 -3.64985 0
M  V30 25666 H 2300.98 -4.76454 -3.83147 0
M  V30 25667 H 2305.16 -5.74656 -3.93375 0
M  V30 25668 H 2302.78 -6.45181 -4.02051 0
M  V30 25669 N 2304.36 1.32719 -0.8499 0
M  V30 25670 C 2305.29 2.2785 -0.248372 0
M  V30 25671 C 2306.3 1.52225 0.577191 0
M  V30 25672 O 2307.49 1.73904 0.402458 0
M  V30 25673 C 2304.59 3.3225 0.668048 0
M  V30 25674 C 2303.76 4.37234 -0.120611 0
M  V30 25675 C 2302.82 5.21239 0.720841 0
M  V30 25676 O 2301.85 5.68986 0.156066 0
M  V30 25677 N 2303.05 5.4361 2.03638 0
M  V30 25678 H 2305.82 2.80109 -1.06579 0
M  V30 25679 H 2303.38 1.45529 -0.709421 0
M  V30 25680 H 2305.37 3.85357 1.2362 0
M  V30 25681 H 2303.94 2.80186 1.38616 0
M  V30 25682 H 2303.16 3.84476 -0.870176 0
M  V30 25683 H 2304.45 5.04468 -0.662494 0
M  V30 25684 H 2303.85 5.06539 2.51862 0
M  V30 25685 H 2302.4 5.99731 2.55276 0
M  V30 25686 N 2305.84 0.60738 1.45426 0
M  V30 25687 C 2306.78 -0.12407 2.32269 0
M  V30 25688 C 2307.78 -0.859829 1.45957 0
M  V30 25689 O 2308.98 -0.775418 1.62442 0
M  V30 25690 H 2305.36 -0.0588707 0.749692 0
M  V30 25691 H 2307.33 0.626813 2.91742 0
M  V30 25692 C 2306.08 -1.10815 3.29569 0
M  V30 25693 H 2305.4 -0.551422 3.95979 0
M  V30 25694 H 2306.84 -1.58988 3.93063 0
M  V30 25695 C 2305.3 -2.1816 2.56725 0
M  V30 25696 O 2305.83 -3.25898 2.34848 0
M  V30 25697 N 2304.04 -1.93438 2.16864 0
M  V30 25698 H 2303.58 -1.0583 2.34857 0
M  V30 25699 H 2303.54 -2.65466 1.68449 0
M  V30 25700 N 2307.31 -1.53743 0.34653 0
M  V30 25701 C 2308.54 -2.05851 -0.253038 0
M  V30 25702 C 2308.96 -1.21965 -1.432 0
M  V30 25703 O 2308.32 -0.234104 -1.79782 0
M  V30 25704 C 2308.37 -3.54819 -0.64313 0
M  V30 25705 O 2307.47 -3.73765 -1.74279 0
M  V30 25706 H 2306.82 -0.662711 -0.0413466 0
M  V30 25707 H 2309.35 -1.98356 0.501609 0
M  V30 25708 H 2309.36 -3.97505 -0.919456 0
M  V30 25709 H 2308.03 -4.15323 0.219039 0
M  V30 25710 H 2306.61 -3.42981 -1.4635 0
M  V30 25711 N 2308.79 -0.0752207 -1.5742 0
M  V30 25712 C 2309.72 0.888286 -2.15944 0
M  V30 25713 C 2310.7 1.30804 -1.08739 0
M  V30 25714 O 2311.89 1.37848 -1.3679 0
M  V30 25715 C 2309.02 2.15465 -2.72382 0
M  V30 25716 C 2307.97 1.87418 -3.84784 0
M  V30 25717 C 2307.3 3.20714 -4.2784 0
M  V30 25718 C 2308.6 1.17675 -5.08871 0
M  V30 25719 H 2310.29 0.400747 -2.96706 0
M  V30 25720 H 2307.84 0.191317 -1.42723 0
M  V30 25721 H 2309.79 2.83289 -3.1197 0
M  V30 25722 H 2308.52 2.66467 -1.88846 0
M  V30 25723 H 2307.17 1.21998 -3.45705 0
M  V30 25724 H 2306.82 3.69564 -3.41221 0
M  V30 25725 H 2306.52 3.02738 -5.03611 0
M  V30 25726 H 2308.05 3.8973 -4.70046 0
M  V30 25727 H 2309.46 1.75574 -5.45753 0
M  V30 25728 H 2307.86 1.09946 -5.89942 0
M  V30 25729 H 2308.93 0.156368 -4.84648 0
M  V30 25730 N 2310.27 1.56347 0.198358 0
M  V30 25731 C 2311.22 1.94286 1.24585 0
M  V30 25732 C 2312.19 0.803022 1.45399 0
M  V30 25733 O 2313.37 1.0609 1.58586 0
M  V30 25734 C 2310.51 2.28486 2.58627 0
M  V30 25735 C 2309.63 3.55518 2.4542 0
M  V30 25736 C 2308.76 3.79055 3.72143 0
M  V30 25737 C 2307.8 4.99524 3.53754 0
M  V30 25738 N 2306.94 5.19332 4.72482 0
M  V30 25739 H 2311.78 2.83595 0.915307 0
M  V30 25740 H 2309.31 1.40346 0.440604 0
M  V30 25741 H 2311.27 2.4633 3.36715 0
M  V30 25742 H 2309.9 1.42322 2.89731 0
M  V30 25743 H 2308.95 3.45739 1.58646 0
M  V30 25744 H 2310.27 4.43762 2.27764 0
M  V30 25745 H 2309.42 3.97121 4.58672 0
M  V30 25746 H 2308.16 2.89135 3.92749 0
M  V30 25747 H 2307.16 4.81384 2.65611 0
M  V30 25748 H 2308.39 5.9095 3.34597 0
M  V30 25749 H 2306.33 4.32359 4.93358 0
M  V30 25750 H 2306.25 6.01749 4.57639 0
M  V30 25751 H 2307.52 5.41853 5.60371 0
M  V30 25752 N 2311.75 -0.465951 1.50554 0
M  V30 25753 C 2312.66 -1.58904 1.72588 0
M  V30 25754 C 2313.67 -1.62989 0.609138 0
M  V30 25755 O 2314.85 -1.80763 0.888072 0
M  V30 25756 C 2311.92 -2.95088 1.82 0
M  V30 25757 C 2310.98 -3.0135 3.05756 0
M  V30 25758 C 2310.21 -4.31038 3.14709 0
M  V30 25759 O 2310.43 -5.21831 2.30322 0
M  V30 25760 O 2309.37 -4.42997 4.07476 0
M  V30 25761 H 2313.19 -1.43235 2.67801 0
M  V30 25762 H 2310.78 -0.645989 1.34712 0
M  V30 25763 H 2312.66 -3.75963 1.90341 0
M  V30 25764 H 2311.33 -3.10945 0.899714 0
M  V30 25765 H 2310.24 -2.19534 3.02912 0
M  V30 25766 H 2311.57 -2.9043 3.9738 0
M  V30 25767 N 2313.23 -1.40218 -0.719481 0
M  V30 25768 C 2314.16 -1.42925 -1.84647 0
M  V30 25769 C 2315.14 -0.290649 -1.67598 0
M  V30 25770 O 2316.32 -0.49871 -1.87687 0
M  V30 25771 C 2313.45 -1.28728 -3.22562 0
M  V30 25772 C 2312.41 -2.4015 -3.54277 0
M  V30 25773 C 2311.73 -2.11032 -4.91294 0
M  V30 25774 C 2313.03 -3.82487 -3.5567 0
M  V30 25775 H 2314.73 -2.37241 -1.8264 0
M  V30 25776 H 2312.27 -1.14192 -0.877285 0
M  V30 25777 H 2314.23 -1.29239 -4.01093 0
M  V30 25778 H 2312.95 -0.308868 -3.25136 0
M  V30 25779 H 2311.61 -2.38882 -2.78084 0
M  V30 25780 H 2311.26 -1.11591 -4.90466 0
M  V30 25781 H 2310.96 -2.85679 -5.1348 0
M  V30 25782 H 2312.48 -2.13219 -5.72163 0
M  V30 25783 H 2313.89 -3.856 -4.24247 0
M  V30 25784 H 2312.29 -4.56621 -3.8938 0
M  V30 25785 H 2313.36 -4.12351 -2.55137 0
M  V30 25786 N 2314.7 0.951297 -1.25651 0
M  V30 25787 C 2315.64 2.05195 -1.02116 0
M  V30 25788 C 2316.65 1.62793 0.0150285 0
M  V30 25789 O 2317.84 1.7709 -0.223906 0
M  V30 25790 C 2314.94 3.34849 -0.522419 0
M  V30 25791 C 2314.11 4.06073 -1.62553 0
M  V30 25792 C 2313.17 5.13999 -1.12659 0
M  V30 25793 O 2312.2 5.39263 -1.82165 0
M  V30 25794 N 2313.4 5.80492 0.030368 0
M  V30 25795 H 2316.16 2.25954 -1.96888 0
M  V30 25796 H 2313.72 1.12008 -1.16901 0
M  V30 25797 H 2315.72 4.0433 -0.173032 0
M  V30 25798 H 2314.29 3.10838 0.331455 0
M  V30 25799 H 2313.51 3.30645 -2.14634 0
M  V30 25800 H 2314.79 4.50414 -2.36652 0
M  V30 25801 H 2314.19 5.6239 0.61107 0
M  V30 25802 H 2312.75 6.5101 0.320761 0
M  V30 25803 N 2316.18 1.07291 1.1544 0
M  V30 25804 C 2317.11 0.714146 2.22311 0
M  V30 25805 C 2318.09 -0.298126 1.67467 0
M  V30 25806 O 2319.28 -0.171014 1.93446 0
M  V30 25807 C 2316.41 0.110509 3.47124 0
M  V30 25808 C 2315.36 1.04987 4.14924 0
M  V30 25809 C 2314.69 0.309018 5.33806 0
M  V30 25810 C 2315.99 2.38322 4.64758 0
M  V30 25811 H 2317.68 1.60765 2.52577 0
M  V30 25812 H 2315.23 0.774431 1.21402 0
M  V30 25813 H 2317.18 -0.152408 4.21124 0
M  V30 25814 H 2315.91 -0.818065 3.16189 0
M  V30 25815 H 2314.56 1.2977 3.42864 0
M  V30 25816 H 2314.21 -0.622997 4.99127 0
M  V30 25817 H 2313.91 0.935138 5.80111 0
M  V30 25818 H 2315.44 0.0538844 6.10576 0
M  V30 25819 H 2316.85 2.17869 5.30289 0
M  V30 25820 H 2315.25 2.96523 5.21722 0
M  V30 25821 H 2316.32 3.00669 3.80429 0
M  V30 25822 N 2317.66 -1.32267 0.856927 0
M  V30 25823 C 2318.59 -2.27715 0.260452 0
M  V30 25824 C 2319.61 -1.52529 -0.56911 0
M  V30 25825 O 2320.79 -1.74115 -0.39323 0
M  V30 25826 C 2317.89 -3.326 -0.650419 0
M  V30 25827 C 2317.07 -4.37164 0.143797 0
M  V30 25828 C 2316.13 -5.21614 -0.693188 0
M  V30 25829 O 2315.15 -5.69061 -0.12589 0
M  V30 25830 N 2316.35 -5.44682 -2.00752 0
M  V30 25831 H 2319.12 -2.7954 1.08063 0
M  V30 25832 H 2316.68 -1.45151 0.717129 0
M  V30 25833 H 2318.67 -3.86007 -1.21574 0
M  V30 25834 H 2317.24 -2.80917 -1.37128 0
M  V30 25835 H 2316.46 -3.84009 0.890553 0
M  V30 25836 H 2317.75 -5.0411 0.689238 0
M  V30 25837 H 2317.15 -5.07868 -2.49172 0
M  V30 25838 H 2315.71 -6.01076 -2.52092 0
M  V30 25839 N 2319.14 -0.615084 -1.45102 0
M  V30 25840 C 2320.09 0.0993573 -2.30586 0
M  V30 25841 C 2321.06 0.852644 -1.42545 0
M  V30 25842 O 2322.24 0.836887 -1.71467 0
M  V30 25843 C 2319.38 1.08577 -3.27574 0
M  V30 25844 C 2318.49 0.33258 -4.30718 0
M  V30 25845 C 2317.63 1.30938 -5.14809 0
M  V30 25846 C 2316.67 0.544431 -6.09674 0
M  V30 25847 N 2315.8 1.47089 -6.8652 0
M  V30 25848 H 2320.64 -0.635594 -2.91143 0
M  V30 25849 H 2318.18 -0.325231 -1.4346 0
M  V30 25850 H 2320.14 1.67089 -3.82279 0
M  V30 25851 H 2318.77 1.78805 -2.68754 0
M  V30 25852 H 2317.82 -0.368173 -3.78614 0
M  V30 25853 H 2319.13 -0.263929 -4.98101 0
M  V30 25854 H 2318.29 1.96633 -5.73952 0
M  V30 25855 H 2317.03 1.93982 -4.47462 0
M  V30 25856 H 2316.03 -0.1261 -5.49655 0
M  V30 25857 H 2317.26 -0.0810663 -6.79052 0
M  V30 25858 H 2315.2 2.08884 -6.21855 0
M  V30 25859 H 2315.12 0.928005 -7.50283 0
M  V30 25860 H 2316.39 2.11718 -7.50197 0
M  V30 25861 N 2320.62 1.53557 -0.354678 0
M  V30 25862 C 2321.55 2.22953 0.53146 0
M  V30 25863 C 2322.56 1.2399 1.05501 0
M  V30 25864 O 2323.75 1.50279 0.963252 0
M  V30 25865 C 2320.85 2.90502 1.74533 0
M  V30 25866 C 2320.02 4.15878 1.35516 0
M  V30 25867 C 2319.08 4.66735 2.42991 0
M  V30 25868 O 2318.11 5.30679 2.05835 0
M  V30 25869 N 2319.31 4.43614 3.74415 0
M  V30 25870 H 2322.08 2.99634 -0.0629142 0
M  V30 25871 H 2319.64 1.60904 -0.17933 0
M  V30 25872 H 2321.63 3.21437 2.45886 0
M  V30 25873 H 2320.2 2.1734 2.24682 0
M  V30 25874 H 2319.42 3.91365 0.471929 0
M  V30 25875 H 2320.71 4.97408 1.07062 0
M  V30 25876 H 2320.11 3.92498 4.07384 0
M  V30 25877 H 2318.66 4.79128 4.41905 0
M  V30 25878 N 2322.1 0.083568 1.57378 0
M  V30 25879 C 2323.04 -0.879502 2.13386 0
M  V30 25880 C 2324.01 -1.28752 1.04939 0
M  V30 25881 O 2325.2 -1.3713 1.32665 0
M  V30 25882 C 2322.34 -2.13747 2.70936 0
M  V30 25883 C 2321.45 -1.78103 3.93578 0
M  V30 25884 C 2320.59 -2.98599 4.39331 0
M  V30 25885 C 2319.62 -2.59027 5.54591 0
M  V30 25886 N 2318.76 -3.72321 5.95249 0
M  V30 25887 H 2323.6 -0.395024 2.9537 0
M  V30 25888 H 2321.14 -0.183323 1.45953 0
M  V30 25889 H 2323.1 -2.87403 3.02416 0
M  V30 25890 H 2321.73 -2.59715 1.91698 0
M  V30 25891 H 2320.78 -0.944625 3.68485 0
M  V30 25892 H 2322.09 -1.44997 4.7726 0
M  V30 25893 H 2321.24 -3.80521 4.72535 0
M  V30 25894 H 2319.98 -3.34907 3.54526 0
M  V30 25895 H 2318.99 -1.7553 5.21027 0
M  V30 25896 H 2320.21 -2.23876 6.41137 0
M  V30 25897 H 2318.16 -4.08369 5.13392 0
M  V30 25898 H 2318.08 -3.43022 6.737 0
M  V30 25899 H 2319.34 -4.54786 6.3308 0
M  V30 25900 N 2323.57 -1.5645 -0.190064 0
M  V30 25901 C 2324.82 -1.81186 -0.911021 0
M  V30 25902 C 2325.15 -0.658428 -1.82697 0
M  V30 25903 O 2324.43 0.340741 -1.91492 0
M  V30 25904 C 2324.71 -3.16208 -1.72291 0
M  V30 25905 C 2324.56 -4.42051 -0.831341 0
M  V30 25906 C 2325.88 -3.47974 -2.69448 0
M  V30 25907 H 2323 -0.659112 -0.329758 0
M  V30 25908 H 2325.64 -1.89163 -0.178135 0
M  V30 25909 H 2323.79 -3.09539 -2.34773 0
M  V30 25910 H 2325.47 -4.60771 -0.220848 0
M  V30 25911 H 2323.71 -4.33579 -0.13833 0
M  V30 25912 H 2324.38 -5.33034 -1.43451 0
M  V30 25913 H 2326.86 -3.54976 -2.17097 0
M  V30 25914 H 2325.73 -4.43561 -3.23334 0
M  V30 25915 H 2325.99 -2.71723 -3.48739 0
M  V30 25916 N 2325.05 0.45796 -1.50799 0
M  V30 25917 C 2325.96 1.57986 -1.73429 0
M  V30 25918 C 2326.98 1.62664 -0.617773 0
M  V30 25919 O 2328.15 1.80289 -0.897646 0
M  V30 25920 C 2325.22 2.94119 -1.83562 0
M  V30 25921 C 2324.28 2.99724 -3.0735 0
M  V30 25922 C 2323.51 4.29363 -3.16991 0
M  V30 25923 O 2323.74 5.20603 -2.33086 0
M  V30 25924 O 2322.67 4.4083 -4.0982 0
M  V30 25925 H 2326.5 1.41812 -2.68557 0
M  V30 25926 H 2324.08 0.638836 -1.35053 0
M  V30 25927 H 2325.96 3.74948 -1.92332 0
M  V30 25928 H 2324.64 3.10464 -0.916191 0
M  V30 25929 H 2323.54 2.17924 -3.04072 0
M  V30 25930 H 2324.88 2.88319 -3.98915 0
M  V30 25931 N 2326.53 1.40598 0.712035 0
M  V30 25932 C 2327.44 1.43469 1.85617 0
M  V30 25933 C 2328.46 0.326932 1.70901 0
M  V30 25934 O 2329.63 0.572077 1.93104 0
M  V30 25935 C 2326.7 1.2989 3.21449 0
M  V30 25936 C 2325.76 2.50839 3.48394 0
M  V30 25937 C 2324.99 2.37899 4.77745 0
M  V30 25938 O 2325.21 1.39469 5.53086 0
M  V30 25939 O 2324.15 3.27342 5.05105 0
M  V30 25940 H 2327.97 2.39961 1.86151 0
M  V30 25941 H 2325.56 1.21959 0.862929 0
M  V30 25942 H 2327.44 1.24538 4.02577 0
M  V30 25943 H 2326.12 0.365053 3.21635 0
M  V30 25944 H 2325.02 2.61768 2.67261 0
M  V30 25945 H 2326.36 3.42996 3.53007 0
M  V30 25946 N 2328.01 -0.94462 1.26153 0
M  V30 25947 C 2328.92 -2.07646 1.0918 0
M  V30 25948 C 2329.93 -1.7398 0.0262241 0
M  V30 25949 O 2331.11 -2.00091 0.229243 0
M  V30 25950 C 2328.17 -3.39078 0.722974 0
M  V30 25951 C 2327.24 -3.86549 1.86758 0
M  V30 25952 C 2326.47 -5.11708 1.51626 0
M  V30 25953 O 2326.69 -5.68878 0.416431 0
M  V30 25954 O 2325.63 -5.54135 2.34985 0
M  V30 25955 H 2329.45 -2.24872 2.04124 0
M  V30 25956 H 2327.04 -1.06098 1.05184 0
M  V30 25957 H 2328.92 -4.18056 0.529861 0
M  V30 25958 H 2327.59 -3.23099 -0.197102 0
M  V30 25959 H 2326.5 -3.08531 2.11564 0
M  V30 25960 H 2327.83 -4.07042 2.76726 0
M  V30 25961 N 2329.49 -1.07901 -1.1487 0
M  V30 25962 C 2330.42 -0.725926 -2.21929 0
M  V30 25963 C 2331.4 0.289241 -1.67623 0
M  V30 25964 O 2332.58 0.160753 -1.93534 0
M  V30 25965 C 2329.71 -0.128917 -3.47061 0
M  V30 25966 C 2328.67 -1.07186 -4.14361 0
M  V30 25967 C 2327.99 -0.337322 -5.33635 0
M  V30 25968 C 2329.29 -2.40783 -4.63488 0
M  V30 25969 H 2330.99 -1.62102 -2.51721 0
M  V30 25970 H 2328.53 -0.780859 -1.2099 0
M  V30 25971 H 2330.48 0.130073 -4.21199 0
M  V30 25972 H 2329.21 0.801285 -3.16618 0
M  V30 25973 H 2327.87 -1.31586 -3.42171 0
M  V30 25974 H 2327.52 0.596518 -4.9945 0
M  V30 25975 H 2327.22 -0.96589 -5.79607 0
M  V30 25976 H 2328.74 -0.086264 -6.10539 0
M  V30 25977 H 2330.15 -2.20678 -5.29126 0
M  V30 25978 H 2328.55 -2.99285 -5.20143 0
M  V30 25979 H 2329.62 -3.02683 -3.78829 0
M  V30 25980 N 2330.96 1.31811 -0.863929 0
M  V30 25981 C 2331.91 2.30601 -0.304261 0
M  V30 25982 C 2332.91 1.59256 0.577391 0
M  V30 25983 O 2334.11 1.73912 0.464163 0
M  V30 25984 H 2330.49 0.747765 -0.0797008 0
M  V30 25985 H 2332.46 2.75286 -1.15153 0
M  V30 25986 C 2331.21 3.44307 0.484556 0
M  V30 25987 H 2330.53 3.99374 -0.18458 0
M  V30 25988 H 2331.97 4.15564 0.841591 0
M  V30 25989 C 2330.43 2.92399 1.67345 0
M  V30 25990 O 2330.96 2.90664 2.77268 0
M  V30 25991 N 2329.16 2.48678 1.50358 0
M  V30 25992 H 2328.71 2.50289 0.609358 0
M  V30 25993 H 2328.67 2.14303 2.30047 0
M  V30 25994 N 2332.44 0.62277 1.44773 0
M  V30 25995 C 2333.86 0.287679 1.56986 0
M  V30 25996 C 2334.06 -1.20942 1.61169 0
M  V30 25997 O 2333.11 -1.99312 1.55019 0
M  V30 25998 C 2334.43 0.972238 2.84549 0
M  V30 25999 C 2335.97 0.949588 2.98248 0
M  V30 26000 C 2336.45 1.61445 4.28602 0
M  V30 26001 N 2337.94 1.58065 4.35396 0
M  V30 26002 C 2338.68 2.0641 5.3496 0
M  V30 26003 N 2338.17 2.62908 6.40977 0
M  V30 26004 N 2339.96 1.97088 5.26415 0
M  V30 26005 H 2332.12 1.59465 1.40302 0
M  V30 26006 H 2334.38 0.66889 0.671782 0
M  V30 26007 H 2334.08 2.02698 2.87413 0
M  V30 26008 H 2333.96 0.504837 3.73806 0
M  V30 26009 H 2336.35 -0.0966549 2.94942 0
M  V30 26010 H 2336.43 1.4554 2.10361 0
M  V30 26011 H 2336.07 2.6601 4.32667 0
M  V30 26012 H 2336 1.08354 5.15332 0
M  V30 26013 H 2338.49 1.16807 3.59395 0
M  V30 26014 H 2338.8 2.97552 7.1322 0
M  V30 26015 H 2337.15 2.66955 6.41685 0
M  V30 26016 H 2340.34 1.52677 4.42501 0
M  V30 26017 H 2340.51 2.35076 6.03857 0
M  V30 26018 N 2333.92 -1.53367 0.362817 0
M  V30 26019 C 2334.85 -2.28577 -0.476936 0
M  V30 26020 C 2335.83 -1.30896 -1.08629 0
M  V30 26021 O 2337.02 -1.59763 -1.10406 0
M  V30 26022 C 2334.15 -3.07296 -1.61823 0
M  V30 26023 C 2333.1 -4.12642 -1.13626 0
M  V30 26024 C 2332.43 -4.79427 -2.36757 0
M  V30 26025 C 2333.73 -5.21824 -0.222969 0
M  V30 26026 H 2335.42 -2.99021 0.150526 0
M  V30 26027 H 2332.97 -1.43811 0.0738356 0
M  V30 26028 H 2334.92 -3.58657 -2.21231 0
M  V30 26029 H 2333.64 -2.34537 -2.27288 0
M  V30 26030 H 2332.3 -3.62222 -0.564881 0
M  V30 26031 H 2331.95 -4.03243 -3.00673 0
M  V30 26032 H 2331.65 -5.50612 -2.05182 0
M  V30 26033 H 2333.17 -5.33581 -2.96856 0
M  V30 26034 H 2334.59 -5.68704 -0.724445 0
M  V30 26035 H 2332.98 -6.001 0.00178349 0
M  V30 26036 H 2334.05 -4.79287 0.735638 0
M  V30 26037 N 2335.4 -0.091913 -1.57332 0
M  V30 26038 C 2336.35 0.868173 -2.13849 0
M  V30 26039 C 2337.32 1.28194 -1.0562 0
M  V30 26040 O 2338.5 1.36425 -1.3339 0
M  V30 26041 C 2335.64 2.12307 -2.72065 0
M  V30 26042 C 2334.75 1.76013 -3.94517 0
M  V30 26043 C 2333.89 2.96265 -4.40908 0
M  V30 26044 C 2332.93 2.56082 -5.55957 0
M  V30 26045 N 2332.06 3.69159 -5.97215 0
M  V30 26046 H 2336.9 0.379354 -2.95576 0
M  V30 26047 H 2334.44 0.17558 -1.46048 0
M  V30 26048 H 2336.4 2.85795 -3.03936 0
M  V30 26049 H 2335.03 2.58695 -1.93072 0
M  V30 26050 H 2334.08 0.92507 -3.68981 0
M  V30 26051 H 2335.39 1.42464 -4.78022 0
M  V30 26052 H 2334.55 3.78009 -4.74546 0
M  V30 26053 H 2333.29 3.33022 -3.56297 0
M  V30 26054 H 2332.29 1.72764 -5.21951 0
M  V30 26055 H 2333.52 2.20473 -6.42315 0
M  V30 26056 H 2331.46 4.0564 -5.1555 0
M  V30 26057 H 2331.38 3.39444 -6.7551 0
M  V30 26058 H 2332.65 4.51423 -6.35482 0
M  V30 26059 N 2336.88 1.56548 0.181765 0
M  V30 26060 C 2338.29 1.50432 0.533133 0
M  V30 26061 C 2338.49 0.79433 1.85183 0
M  V30 26062 O 2337.55 0.350361 2.50057 0
M  V30 26063 C 2338.86 2.95141 0.575545 0
M  V30 26064 C 2340.41 3.05887 0.663466 0
M  V30 26065 C 2340.88 4.52033 0.736866 0
M  V30 26066 N 2342.38 4.56239 0.800037 0
M  V30 26067 C 2343.11 5.6665 0.877227 0
M  V30 26068 N 2342.61 6.86719 0.915895 0
M  V30 26069 N 2344.4 5.54595 0.915444 0
M  V30 26070 H 2336.55 2.01117 -0.68306 0
M  V30 26071 H 2338.81 0.915793 -0.245004 0
M  V30 26072 H 2338.52 3.50199 -0.324543 0
M  V30 26073 H 2338.39 3.4922 1.42566 0
M  V30 26074 H 2340.78 2.50869 1.55398 0
M  V30 26075 H 2340.86 2.54911 -0.213115 0
M  V30 26076 H 2340.51 5.0768 -0.149351 0
M  V30 26077 H 2340.44 5.00756 1.62944 0
M  V30 26078 H 2342.93 3.69787 0.778861 0
M  V30 26079 H 2343.24 7.66616 0.975678 0
M  V30 26080 H 2341.58 6.89351 0.884348 0
M  V30 26081 H 2344.78 4.59712 0.882164 0
M  V30 26082 H 2344.95 6.40666 0.97214 0
M  V30 26083 N 2338.35 -0.449957 1.5104 0
M  V30 26084 C 2339.58 -1.22317 1.66871 0
M  V30 26085 C 2340 -1.85321 0.360759 0
M  V30 26086 O 2339.35 -1.70167 -0.659501 0
M  V30 26087 C 2339.41 -2.31648 2.77528 0
M  V30 26088 O 2339.13 -1.71223 4.03255 0
M  V30 26089 C 2340.63 -3.22155 3.04518 0
M  V30 26090 H 2337.85 -0.369145 0.560333 0
M  V30 26091 H 2340.39 -0.534684 1.97386 0
M  V30 26092 H 2338.55 -2.96234 2.49648 0
M  V30 26093 H 2338.96 -2.43381 4.64614 0
M  V30 26094 H 2340.43 -3.95031 3.85557 0
M  V30 26095 H 2340.91 -3.82176 2.16422 0
M  V30 26096 H 2341.52 -2.63282 3.3401 0
M  V30 26097 N 2339.83 -1.40974 -0.704569 0
M  V30 26098 C 2340.8 -1.41848 -1.80033 0
M  V30 26099 C 2341.8 -0.310502 -1.57774 0
M  V30 26100 O 2342.99 -0.569949 -1.64612 0
M  V30 26101 C 2340.12 -1.22104 -3.18282 0
M  V30 26102 H 2341.31 -2.39383 -1.80653 0
M  V30 26103 H 2338.86 -1.26984 -0.911307 0
M  V30 26104 H 2339.6 -0.253728 -3.23306 0
M  V30 26105 H 2339.38 -2.02372 -3.35839 0
M  V30 26106 H 2340.87 -1.25529 -3.98286 0
M  V30 26107 N 2341.31 0.937917 -1.26653 0
M  V30 26108 C 2342.54 1.72409 -1.15282 0
M  V30 26109 C 2342.96 1.85885 0.287833 0
M  V30 26110 O 2342.32 1.35145 1.20853 0
M  V30 26111 C 2342.37 3.10694 -1.83034 0
M  V30 26112 O 2341.47 3.96862 -1.12135 0
M  V30 26113 H 2340.81 0.528851 -0.401513 0
M  V30 26114 H 2343.34 1.17447 -1.67533 0
M  V30 26115 H 2343.35 3.61066 -1.89987 0
M  V30 26116 H 2342.03 3.00203 -2.87839 0
M  V30 26117 H 2340.6 3.5531 -1.13179 0
M  V30 26118 N 2342.79 1.08509 1.14296 0
M  V30 26119 C 2343.7 0.727792 2.23025 0
M  V30 26120 C 2344.71 -0.26616 1.71952 0
M  V30 26121 O 2345.89 -0.109846 2.011 0
M  V30 26122 C 2342.96 0.143602 3.46402 0
M  V30 26123 C 2342.02 1.1923 4.12411 0
M  V30 26124 C 2341.25 0.635892 5.29898 0
M  V30 26125 O 2341.47 -0.544293 5.67797 0
M  V30 26126 O 2340.41 1.38644 5.85714 0
M  V30 26127 H 2344.23 1.63485 2.55942 0
M  V30 26128 H 2341.82 0.858839 1.22247 0
M  V30 26129 H 2343.7 -0.17933 4.21018 0
M  V30 26130 H 2342.37 -0.736603 3.15208 0
M  V30 26131 H 2341.28 1.56778 3.39664 0
M  V30 26132 H 2342.61 2.04482 4.47714 0
M  V30 26133 N 2344.27 -1.31351 0.870907 0
M  V30 26134 C 2345.54 -1.91405 0.40294 0
M  V30 26135 C 2345.92 -1.79246 -1.11509 0
M  V30 26136 O 2345.27 -1.20073 -1.94409 0
M  V30 26137 C 2345.48 -3.37583 0.88536 0
M  V30 26138 C 2346.83 -4.14689 0.912044 0
M  V30 26139 O 2347.85 -3.46369 0.831076 0
M  V30 26140 O 2346.71 -5.36718 1.02936 0
M  V30 26141 H 2343.81 -0.818143 0.120713 0
M  V30 26142 H 2346.35 -1.40013 0.958881 0
M  V30 26143 H 2345.12 -3.40451 1.92895 0
M  V30 26144 H 2344.75 -3.96407 0.307783 0
M  V30 26145 N 2345.74 -0.630439 -1.44441 0
M  V30 26146 C 2346.97 -0.13998 -2.06927 0
M  V30 26147 C 2347.39 1.1761 -1.46797 0
M  V30 26148 O 2346.75 1.72134 -0.569174 0
M  V30 26149 C 2346.8 -0.0380215 -3.6058 0
M  V30 26150 O 2345.9 1.00613 -3.99939 0
M  V30 26151 H 2345.25 -0.0844599 -0.658607 0
M  V30 26152 H 2347.78 -0.866923 -1.85326 0
M  V30 26153 H 2347.79 0.152784 -4.07714 0
M  V30 26154 H 2346.46 -0.99888 -4.03727 0
M  V30 26155 H 2345.04 0.789946 -3.64437 0
M  V30 26156 N 2347.22 1.53172 -0.370945 0
M  V30 26157 C 2348.46 2.03244 0.217071 0
M  V30 26158 C 2348.83 1.2521 1.45556 0
M  V30 26159 O 2350.03 1.65314 2.11954 0
M  V30 26160 C 2348.3 3.53933 0.496602 0
M  V30 26161 S 2349.86 4.25866 1.05752 0
M  V30 26162 H 2346.68 0.708224 0.0627702 0
M  V30 26163 H 2349.28 1.88593 -0.515052 0
M  V30 26164 H 2347.98 4.08325 -0.412168 0
M  V30 26165 H 2347.51 3.72756 1.25765 0
M  V30 26166 H 2349.53 4.37486 2.34137 0
M  V30 26167 N 2348.7 0.100255 1.57281 0
M  V30 26168 C 2349.65 -0.85682 2.14306 0
M  V30 26169 C 2350.62 -1.27632 1.06298 0
M  V30 26170 O 2351.8 -1.35716 1.34112 0
M  V30 26171 C 2348.94 -2.10862 2.73187 0
M  V30 26172 C 2348.06 -1.73918 3.95445 0
M  V30 26173 C 2347.19 -2.93923 4.42473 0
M  V30 26174 C 2346.23 -2.5313 5.57307 0
M  V30 26175 N 2345.37 -3.65987 5.99165 0
M  V30 26176 H 2350.21 -0.363674 2.95773 0
M  V30 26177 H 2347.74 -0.167833 1.46139 0
M  V30 26178 H 2349.7 -2.84179 3.05447 0
M  V30 26179 H 2348.33 -2.57667 1.94441 0
M  V30 26180 H 2347.38 -0.905489 3.69466 0
M  V30 26181 H 2348.7 -1.39927 4.78771 0
M  V30 26182 H 2347.85 -3.75487 4.76544 0
M  V30 26183 H 2346.59 -3.31128 3.58058 0
M  V30 26184 H 2345.59 -1.69994 5.2286 0
M  V30 26185 H 2346.82 -2.17063 6.43475 0
M  V30 26186 H 2344.76 -4.029 5.17694 0
M  V30 26187 H 2344.68 -3.35857 6.773 0
M  V30 26188 H 2345.95 -4.48046 6.37868 0
M  V30 26189 N 2350.18 -1.56643 -0.17346 0
M  V30 26190 C 2351.6 -1.50713 -0.525148 0
M  V30 26191 C 2351.8 -0.804139 -1.84759 0
M  V30 26192 O 2350.85 -0.363618 -2.49868 0
M  V30 26193 C 2352.16 -2.95442 -0.559885 0
M  V30 26194 C 2353.71 -3.06235 -0.647234 0
M  V30 26195 C 2354.19 -4.52418 -0.712884 0
M  V30 26196 N 2355.68 -4.56656 -0.775831 0
M  V30 26197 C 2356.41 -5.67107 -0.847164 0
M  V30 26198 N 2355.91 -6.87195 -0.879464 0
M  V30 26199 N 2357.7 -5.55073 -0.88602 0
M  V30 26200 H 2349.85 -2.00752 0.693717 0
M  V30 26201 H 2352.12 -0.914481 0.249857 0
M  V30 26202 H 2351.82 -3.50022 0.34311 0
M  V30 26203 H 2351.7 -3.49971 -1.40712 0
M  V30 26204 H 2354.08 -2.5169 -1.54066 0
M  V30 26205 H 2354.16 -2.54794 0.226631 0
M  V30 26206 H 2353.81 -5.07594 0.176273 0
M  V30 26207 H 2353.74 -5.01613 -1.60286 0
M  V30 26208 H 2356.23 -3.70194 -0.759239 0
M  V30 26209 H 2356.54 -7.67123 -0.935009 0
M  V30 26210 H 2354.89 -6.8981 -0.847777 0
M  V30 26211 H 2358.08 -4.60174 -0.857772 0
M  V30 26212 H 2358.25 -6.41173 -0.93815 0
M  V30 26213 N 2351.66 0.44194 -1.51277 0
M  V30 26214 C 2352.6 1.53609 -1.72258 0
M  V30 26215 C 2353.57 1.56224 -0.564191 0
M  V30 26216 O 2354.76 1.73306 -0.798104 0
M  V30 26217 C 2351.9 2.91363 -1.84937 0
M  V30 26218 C 2351.01 2.98312 -3.12465 0
M  V30 26219 C 2350.15 4.2716 -3.15765 0
M  V30 26220 C 2349.19 4.2796 -4.37627 0
M  V30 26221 N 2348.32 5.48325 -4.38502 0
M  V30 26222 H 2353.16 1.35021 -2.65656 0
M  V30 26223 H 2350.7 0.655986 -1.31663 0
M  V30 26224 H 2352.66 3.71286 -1.90269 0
M  V30 26225 H 2351.29 3.08519 -0.949515 0
M  V30 26226 H 2350.34 2.1108 -3.16464 0
M  V30 26227 H 2351.65 2.94764 -4.02388 0
M  V30 26228 H 2350.81 5.15454 -3.19988 0
M  V30 26229 H 2349.55 4.33358 -2.23723 0
M  V30 26230 H 2348.55 3.3806 -4.33585 0
M  V30 26231 H 2349.78 4.23429 -5.30928 0
M  V30 26232 H 2347.72 5.55253 -3.49328 0
M  V30 26233 H 2347.64 5.46638 -5.22229 0
M  V30 26234 H 2348.91 6.38663 -4.46912 0
M  V30 26235 N 2353.14 1.41345 0.697083 0
M  V30 26236 C 2354.08 1.43074 1.81103 0
M  V30 26237 C 2355.05 0.285303 1.63631 0
M  V30 26238 O 2356.24 0.486124 1.84503 0
M  V30 26239 C 2353.38 1.31721 3.18973 0
M  V30 26240 C 2352.49 2.56121 3.47888 0
M  V30 26241 C 2351.63 2.37072 4.75363 0
M  V30 26242 C 2350.66 3.56957 4.97241 0
M  V30 26243 N 2349.8 3.36988 6.15941 0
M  V30 26244 H 2354.64 2.3828 1.7896 0
M  V30 26245 H 2352.18 1.18324 0.873954 0
M  V30 26246 H 2354.14 1.2314 3.98613 0
M  V30 26247 H 2352.77 0.40124 3.20297 0
M  V30 26248 H 2351.82 2.75157 2.62665 0
M  V30 26249 H 2353.13 3.45301 3.59956 0
M  V30 26250 H 2352.28 2.25951 5.63055 0
M  V30 26251 H 2351.02 1.45346 4.65538 0
M  V30 26252 H 2350.03 3.68535 4.07998 0
M  V30 26253 H 2351.25 4.49634 5.08926 0
M  V30 26254 H 2349.2 2.4796 6.07332 0
M  V30 26255 H 2349.12 4.19743 6.2877 0
M  V30 26256 H 2350.38 3.29636 7.06371 0
M  V30 26257 N 2354.61 -0.931187 1.27148 0
M  V30 26258 C 2355.54 -2.0484 1.12085 0
M  V30 26259 C 2356.52 -1.70084 0.0232663 0
M  V30 26260 O 2357.71 -1.93197 0.197119 0
M  V30 26261 C 2354.84 -3.38801 0.763599 0
M  V30 26262 C 2353.79 -3.87656 1.81403 0
M  V30 26263 C 2353.12 -5.18383 1.31084 0
M  V30 26264 C 2354.42 -4.11432 3.21747 0
M  V30 26265 H 2356.11 -2.177 2.05541 0
M  V30 26266 H 2353.66 -1.04606 0.989621 0
M  V30 26267 H 2355.61 -4.16434 0.645055 0
M  V30 26268 H 2354.34 -3.25945 -0.20667 0
M  V30 26269 H 2353 -3.12213 1.92141 0
M  V30 26270 H 2352.64 -5.01916 0.330125 0
M  V30 26271 H 2352.34 -5.5204 2.01309 0
M  V30 26272 H 2353.87 -5.98588 1.20517 0
M  V30 26273 H 2355.28 -4.79645 3.14028 0
M  V30 26274 H 2353.68 -4.5639 3.89652 0
M  V30 26275 H 2354.75 -3.16852 3.67059 0
M  V30 26276 N 2356.09 -1.09114 -1.13719 0
M  V30 26277 C 2357 -0.739609 -2.22636 0
M  V30 26278 C 2358.02 0.257037 -1.72091 0
M  V30 26279 O 2359.19 0.0991801 -2.01156 0
M  V30 26280 C 2356.26 -0.16197 -3.46321 0
M  V30 26281 C 2355.32 -1.21415 -4.11773 0
M  V30 26282 C 2354.55 -0.663984 -5.29554 0
M  V30 26283 O 2354.78 0.514174 -5.68078 0
M  V30 26284 O 2353.71 -1.41748 -5.84971 0
M  V30 26285 H 2357.54 -1.6484 -2.55071 0
M  V30 26286 H 2355.12 -0.86531 -1.2179 0
M  V30 26287 H 2357 0.156999 -4.21107 0
M  V30 26288 H 2355.68 0.719877 -3.15594 0
M  V30 26289 H 2354.58 -1.58577 -3.38828 0
M  V30 26290 H 2355.92 -2.06853 -4.46624 0
M  V30 26291 N 2357.57 1.30887 -0.877861 0
M  V30 26292 C 2358.48 2.32077 -0.343136 0
M  V30 26293 C 2359.5 1.65046 0.550993 0
M  V30 26294 O 2360.67 1.96404 0.445819 0
M  V30 26295 C 2357.74 3.43899 0.439845 0
M  V30 26296 C 2356.8 4.26572 -0.483186 0
M  V30 26297 C 2356.03 5.33054 0.262522 0
M  V30 26298 O 2356.25 5.50607 1.48958 0
M  V30 26299 O 2355.19 6.00676 -0.383698 0
M  V30 26300 H 2359.01 2.79751 -1.18208 0
M  V30 26301 H 2356.6 1.34928 -0.641473 0
M  V30 26302 H 2358.48 4.12036 0.883432 0
M  V30 26303 H 2357.16 2.98373 1.25521 0
M  V30 26304 H 2356.06 3.61159 -0.975437 0
M  V30 26305 H 2357.4 4.75684 -1.26436 0
M  V30 26306 N 2359.05 0.638091 1.44105 0
M  V30 26307 C 2359.96 -0.0636922 2.34514 0
M  V30 26308 C 2360.97 -0.828319 1.53019 0
M  V30 26309 O 2362.15 -0.779003 1.85724 0
M  V30 26310 C 2359.21 -1.02839 3.31097 0
M  V30 26311 C 2358.28 -0.262364 4.28498 0
M  V30 26312 C 2357.51 -1.18111 5.20467 0
M  V30 26313 O 2357.73 -2.42002 5.16518 0
M  V30 26314 O 2356.67 -0.661668 5.98252 0
M  V30 26315 H 2360.49 0.680082 2.95987 0
M  V30 26316 H 2358.08 0.398277 1.43993 0
M  V30 26317 H 2359.96 -1.5832 3.90529 0
M  V30 26318 H 2358.63 -1.75265 2.72147 0
M  V30 26319 H 2357.54 0.335667 3.72591 0
M  V30 26320 H 2358.87 0.422022 4.90387 0
M  V30 26321 N 2360.53 -1.52973 0.379063 0
M  V30 26322 C 2361.46 -2.2907 -0.452665 0
M  V30 26323 C 2362.44 -1.32041 -1.07235 0
M  V30 26324 O 2363.62 -1.60925 -1.08705 0
M  V30 26325 C 2360.75 -3.08995 -1.58554 0
M  V30 26326 C 2359.71 -4.13824 -1.09243 0
M  V30 26327 C 2359.03 -4.81911 -2.31659 0
M  V30 26328 C 2360.33 -5.22031 -0.16761 0
M  V30 26329 H 2362.03 -2.98845 0.182233 0
M  V30 26330 H 2359.57 -1.43724 0.0890845 0
M  V30 26331 H 2361.52 -3.60983 -2.17414 0
M  V30 26332 H 2360.25 -2.36935 -2.24788 0
M  V30 26333 H 2358.91 -3.62801 -0.526431 0
M  V30 26334 H 2358.56 -4.06409 -2.96379 0
M  V30 26335 H 2358.26 -5.52758 -1.9933 0
M  V30 26336 H 2359.78 -5.367 -2.9118 0
M  V30 26337 H 2361.19 -5.69441 -0.664086 0
M  V30 26338 H 2359.59 -6.00064 0.065432 0
M  V30 26339 H 2360.66 -4.7848 0.786431 0
M  V30 26340 N 2362 -0.108595 -1.57225 0
M  V30 26341 C 2362.91 0.859363 -2.18294 0
M  V30 26342 C 2363.93 1.30036 -1.15614 0
M  V30 26343 O 2365.11 1.36549 -1.48041 0
M  V30 26344 C 2362.17 2.09553 -2.76204 0
M  V30 26345 C 2361.23 1.70745 -3.93884 0
M  V30 26346 C 2360.46 2.88469 -4.49023 0
M  V30 26347 O 2360.69 4.03592 -4.03075 0
M  V30 26348 O 2359.62 2.66155 -5.39857 0
M  V30 26349 H 2363.45 0.369716 -3.01441 0
M  V30 26350 H 2361.03 0.116473 -1.48945 0
M  V30 26351 H 2362.91 2.81972 -3.13161 0
M  V30 26352 H 2361.59 2.57544 -1.96094 0
M  V30 26353 H 2360.5 0.95465 -3.61714 0
M  V30 26354 H 2361.83 1.27505 -4.75398 0
M  V30 26355 N 2363.48 1.56732 0.16515 0
M  V30 26356 C 2364.73 1.81982 0.879036 0
M  V30 26357 C 2365.05 0.686593 1.82513 0
M  V30 26358 O 2364.32 -0.293112 1.93695 0
M  V30 26359 H 2362.9 0.671334 0.327596 0
M  V30 26360 H 2365.56 1.94213 0.163492 0
M  V30 26361 H 2364.66 2.76255 1.45223 0
M  V30 26362 N 2364.96 -0.433911 1.51509 0
M  V30 26363 C 2365.89 -1.54701 1.67758 0
M  V30 26364 C 2366.87 -1.53886 0.525154 0
M  V30 26365 O 2368.05 -1.72962 0.749423 0
M  V30 26366 C 2365.18 -2.93277 1.69429 0
M  V30 26367 C 2364.23 -3.12103 2.90678 0
M  V30 26368 S 2365.06 -2.88038 4.51436 0
M  V30 26369 C 2366.22 -4.28889 4.55856 0
M  V30 26370 H 2366.45 -1.40684 2.61907 0
M  V30 26371 H 2363.98 -0.623835 1.41236 0
M  V30 26372 H 2365.94 -3.73153 1.71077 0
M  V30 26373 H 2364.6 -3.04654 0.764517 0
M  V30 26374 H 2363.8 -4.13429 2.88258 0
M  V30 26375 H 2363.4 -2.40057 2.8679 0
M  V30 26376 H 2365.69 -5.22144 4.31708 0
M  V30 26377 H 2366.63 -4.36342 5.57684 0
M  V30 26378 H 2367.04 -4.12704 3.85144 0
M  V30 26379 N 2366.44 -1.41713 -0.689577 0
M  V30 26380 C 2367.85 -1.24314 -1.00091 0
M  V30 26381 C 2368.05 -0.136764 -2.01035 0
M  V30 26382 O 2367.11 0.496874 -2.47563 0
M  V30 26383 C 2368.42 -2.59466 -1.5198 0
M  V30 26384 C 2369.97 -2.66698 -1.63833 0
M  V30 26385 C 2370.45 -4.0218 -2.19123 0
M  V30 26386 N 2371.94 -4.04058 -2.26476 0
M  V30 26387 C 2372.67 -5.05694 -2.70297 0
M  V30 26388 N 2372.17 -6.17719 -3.1368 0
M  V30 26389 N 2373.96 -4.93054 -2.69915 0
M  V30 26390 H 2366.11 -2.1239 -0.0209656 0
M  V30 26391 H 2368.38 -0.945273 -0.0718567 0
M  V30 26392 H 2368.08 -3.41208 -0.85263 0
M  V30 26393 H 2367.96 -2.82366 -2.50098 0
M  V30 26394 H 2370.34 -1.8531 -2.29661 0
M  V30 26395 H 2370.42 -2.47601 -0.642449 0
M  V30 26396 H 2370.07 -4.84019 -1.53909 0
M  V30 26397 H 2370 -4.18621 -3.19475 0
M  V30 26398 H 2372.49 -3.23178 -1.95868 0
M  V30 26399 H 2372.8 -6.91136 -3.45761 0
M  V30 26400 H 2371.15 -6.21246 -3.11574 0
M  V30 26401 H 2374.34 -4.04618 -2.35375 0
M  V30 26402 H 2374.51 -5.724 -3.03748 0
M  V30 26403 N 2367.92 0.924431 -1.2764 0
M  V30 26404 C 2369.33 1.20095 -1.05116 0
M  V30 26405 C 2369.53 2.00369 0.213227 0
M  V30 26406 O 2368.59 2.35228 0.917828 0
M  V30 26407 C 2369.9 1.94592 -2.29247 0
M  V30 26408 C 2371.45 2.07518 -2.34319 0
M  V30 26409 C 2371.92 2.85421 -3.58188 0
M  V30 26410 N 2373.42 2.92988 -3.58765 0
M  V30 26411 C 2374.15 3.53738 -4.51284 0
M  V30 26412 N 2373.65 4.15854 -5.5411 0
M  V30 26413 N 2375.44 3.51173 -4.389 0
M  V30 26414 H 2367.59 0.388227 -2.08822 0
M  V30 26415 H 2369.85 0.234369 -0.918572 0
M  V30 26416 H 2369.56 1.43029 -3.21303 0
M  V30 26417 H 2369.43 2.95193 -2.34821 0
M  V30 26418 H 2371.82 2.58267 -1.42767 0
M  V30 26419 H 2371.9 1.06127 -2.32746 0
M  V30 26420 H 2371.55 2.35355 -4.50078 0
M  V30 26421 H 2371.48 3.87104 -3.57013 0
M  V30 26422 H 2373.97 2.48845 -2.84403 0
M  V30 26423 H 2374.28 4.60157 -6.20867 0
M  V30 26424 H 2372.62 4.1439 -5.57948 0
M  V30 26425 H 2375.82 3.0185 -3.57777 0
M  V30 26426 H 2375.99 3.98228 -5.11193 0
M  V30 26427 N 2369.39 1.09715 1.13139 0
M  V30 26428 C 2370.62 0.857114 1.88861 0
M  V30 26429 C 2371.04 -0.586273 1.7873 0
M  V30 26430 O 2370.4 -1.4122 1.13695 0
M  V30 26431 C 2370.45 1.30075 3.36323 0
M  V30 26432 O 2369.55 0.461079 4.09814 0
M  V30 26433 H 2368.9 0.310172 0.587103 0
M  V30 26434 H 2371.43 1.46205 1.43127 0
M  V30 26435 H 2371.44 1.28745 3.87155 0
M  V30 26436 H 2370.11 2.35191 3.43013 0
M  V30 26437 H 2368.69 0.538953 3.68985 0
M  V30 26438 N 2370.87 -1.30419 0.88479 0
M  V30 26439 C 2371.8 -2.30588 0.367614 0
M  V30 26440 C 2372.78 -1.60982 -0.549436 0
M  V30 26441 O 2373.97 -1.88592 -0.463327 0
M  V30 26442 C 2371.1 -3.44765 -0.418883 0
M  V30 26443 C 2370.05 -4.26066 0.406391 0
M  V30 26444 C 2369.38 -5.32294 -0.506699 0
M  V30 26445 C 2370.68 -4.95606 1.64841 0
M  V30 26446 H 2372.37 -2.74095 1.20467 0
M  V30 26447 H 2369.92 -1.31771 0.580718 0
M  V30 26448 H 2371.87 -4.13903 -0.791322 0
M  V30 26449 H 2370.6 -3.00062 -1.28958 0
M  V30 26450 H 2369.25 -3.58615 0.760967 0
M  V30 26451 H 2368.9 -4.83839 -1.3751 0
M  V30 26452 H 2368.6 -5.87585 0.041686 0
M  V30 26453 H 2370.13 -6.04288 -0.875658 0
M  V30 26454 H 2371.54 -5.57262 1.34656 0
M  V30 26455 H 2369.94 -5.60761 2.13698 0
M  V30 26456 H 2371.01 -4.21743 2.39292 0
M  V30 26457 N 2372.35 -0.645724 -1.43764 0
M  V30 26458 C 2373.3 0.0504242 -2.30745 0
M  V30 26459 C 2374.27 0.822216 -1.44322 0
M  V30 26460 O 2375.45 0.800328 -1.73203 0
M  V30 26461 C 2372.59 1.01605 -3.29804 0
M  V30 26462 C 2371.71 0.241144 -4.31326 0
M  V30 26463 C 2370.84 1.19989 -5.17471 0
M  V30 26464 C 2369.88 0.414987 -6.10692 0
M  V30 26465 N 2369.02 1.32494 -6.89485 0
M  V30 26466 H 2373.86 -0.697206 -2.89729 0
M  V30 26467 H 2371.39 -0.355588 -1.42737 0
M  V30 26468 H 2373.35 1.58942 -3.85737 0
M  V30 26469 H 2371.98 1.73064 -2.72486 0
M  V30 26470 H 2371.03 -0.4484 -3.77748 0
M  V30 26471 H 2372.35 -0.369525 -4.97429 0
M  V30 26472 H 2371.5 1.84414 -5.77993 0
M  V30 26473 H 2370.24 1.84447 -4.51476 0
M  V30 26474 H 2369.24 -0.242662 -5.49264 0
M  V30 26475 H 2370.47 -0.225085 -6.78727 0
M  V30 26476 H 2368.41 1.95646 -6.26146 0
M  V30 26477 H 2368.33 0.76865 -7.52082 0
M  V30 26478 H 2369.6 1.95757 -7.54519 0
M  V30 26479 N 2373.83 1.5277 -0.38717 0
M  V30 26480 C 2374.74 2.30118 0.456401 0
M  V30 26481 C 2375.75 1.36946 1.0734 0
M  V30 26482 O 2376.93 1.70015 1.07968 0
M  V30 26483 C 2374 3.09139 1.56952 0
M  V30 26484 C 2373.06 4.18015 0.977842 0
M  V30 26485 C 2372.29 4.93259 2.03791 0
M  V30 26486 O 2372.51 4.68573 3.25263 0
M  V30 26487 O 2371.45 5.7866 1.6564 0
M  V30 26488 H 2375.27 3.03203 -0.173643 0
M  V30 26489 H 2372.86 1.48636 -0.150945 0
M  V30 26490 H 2374.74 3.58416 2.21621 0
M  V30 26491 H 2373.41 2.38869 2.18456 0
M  V30 26492 H 2372.32 3.72939 0.29446 0
M  V30 26493 H 2373.65 4.90514 0.407042 0
M  V30 26494 N 2375.31 0.116931 1.57166 0
M  V30 26495 C 2376.24 -0.864469 2.12272 0
M  V30 26496 C 2377.25 -1.23136 1.06496 0
M  V30 26497 O 2378.44 -1.18067 1.33875 0
M  V30 26498 C 2375.54 -2.16698 2.60567 0
M  V30 26499 C 2374.71 -1.97209 3.90419 0
M  V30 26500 C 2373.77 -3.1117 4.24334 0
M  V30 26501 O 2372.8 -2.84175 4.93187 0
M  V30 26502 N 2374 -4.37547 3.81488 0
M  V30 26503 H 2376.77 -0.393674 2.97103 0
M  V30 26504 H 2374.33 -0.0675521 1.61759 0
M  V30 26505 H 2376.32 -2.91927 2.80287 0
M  V30 26506 H 2374.89 -2.55132 1.80628 0
M  V30 26507 H 2374.11 -1.06185 3.79629 0
M  V30 26508 H 2375.4 -1.81491 4.7533 0
M  V30 26509 H 2374.79 -4.62355 3.25951 0
M  V30 26510 H 2373.35 -5.09654 4.0632 0
M  V30 26511 N 2376.78 -1.56818 -0.156836 0
M  V30 26512 C 2377.75 -1.96624 -1.17777 0
M  V30 26513 C 2378.75 -0.851579 -1.36399 0
M  V30 26514 O 2379.94 -1.11838 -1.33559 0
M  V30 26515 C 2377.07 -2.27365 -2.54004 0
M  V30 26516 H 2378.26 -2.87997 -0.836513 0
M  V30 26517 H 2375.82 -1.511 -0.399823 0
M  V30 26518 H 2376.55 -1.38753 -2.93118 0
M  V30 26519 H 2376.34 -3.08627 -2.4185 0
M  V30 26520 H 2377.83 -2.59034 -3.27553 0
M  V30 26521 N 2378.26 0.425871 -1.51737 0
M  V30 26522 C 2379.51 1.17133 -1.64203 0
M  V30 26523 C 2379.82 1.92074 -0.369739 0
M  V30 26524 O 2381.03 2.68912 -0.373945 0
M  V30 26525 C 2379.49 2.13086 -2.90039 0
M  V30 26526 C 2379.09 1.4374 -4.24315 0
M  V30 26527 C 2380.84 2.87994 -3.11865 0
M  V30 26528 C 2378.75 2.38243 -5.41289 0
M  V30 26529 H 2377.68 0.440933 -0.611632 0
M  V30 26530 H 2380.33 0.437296 -1.78213 0
M  V30 26531 H 2378.71 2.89972 -2.69689 0
M  V30 26532 H 2379.88 0.723328 -4.55087 0
M  V30 26533 H 2378.2 0.809393 -4.08458 0
M  V30 26534 H 2380.79 3.5881 -3.96433 0
M  V30 26535 H 2381.14 3.49995 -2.2541 0
M  V30 26536 H 2381.67 2.18212 -3.32609 0
M  V30 26537 H 2378.41 1.80914 -6.3004 0
M  V30 26538 H 2377.93 3.07671 -5.14878 0
M  V30 26539 H 2379.61 2.99129 -5.73699 0
M  V30 26540 N 2379.74 1.42077 0.682052 0
M  V30 26541 C 2380.69 1.44987 1.79576 0
M  V30 26542 C 2381.66 0.302643 1.6332 0
M  V30 26543 O 2382.84 0.505665 1.83977 0
M  V30 26544 C 2379.98 1.35096 3.17558 0
M  V30 26545 C 2379.1 2.59797 3.45152 0
M  V30 26546 C 2378.23 2.42101 4.72822 0
M  V30 26547 C 2377.27 3.6221 4.93427 0
M  V30 26548 N 2376.41 3.43502 6.12332 0
M  V30 26549 H 2381.25 2.40164 1.76423 0
M  V30 26550 H 2378.78 1.19244 0.861355 0
M  V30 26551 H 2380.74 1.27361 3.97284 0
M  V30 26552 H 2379.37 0.435189 3.19853 0
M  V30 26553 H 2378.42 2.77928 2.59731 0
M  V30 26554 H 2379.74 3.491 3.56273 0
M  V30 26555 H 2378.89 2.3191 5.60627 0
M  V30 26556 H 2377.63 1.50276 4.6397 0
M  V30 26557 H 2376.63 3.72841 4.04066 0
M  V30 26558 H 2377.86 4.55007 5.04128 0
M  V30 26559 H 2375.8 2.54388 6.04668 0
M  V30 26560 H 2375.72 4.26388 6.24283 0
M  V30 26561 H 2376.99 3.37109 7.02835 0
M  V30 26562 N 2381.22 -0.917649 1.28129 0
M  V30 26563 C 2382.47 -1.66095 1.14435 0
M  V30 26564 C 2382.78 -1.93172 -0.307213 0
M  V30 26565 O 2383.99 -2.65552 -0.565212 0
M  V30 26566 C 2382.44 -2.99199 2.0002 0
M  V30 26567 C 2382.05 -2.79783 3.49893 0
M  V30 26568 C 2383.8 -3.7706 1.95002 0
M  V30 26569 C 2381.7 -4.08503 4.27643 0
M  V30 26570 H 2380.63 -0.623032 0.424673 0
M  V30 26571 H 2383.28 -1.01865 1.52629 0
M  V30 26572 H 2381.67 -3.64542 1.54678 0
M  V30 26573 H 2382.84 -2.23145 4.03166 0
M  V30 26574 H 2381.15 -2.15339 3.56396 0
M  V30 26575 H 2383.75 -4.72465 2.50362 0
M  V30 26576 H 2384.09 -4.05873 0.92589 0
M  V30 26577 H 2384.63 -3.1853 2.38293 0
M  V30 26578 H 2381.37 -3.84865 5.30621 0
M  V30 26579 H 2380.89 -4.64768 3.79145 0
M  V30 26580 H 2382.57 -4.76791 4.37355 0
M  V30 26581 N 2382.7 -1.10314 -1.12555 0
M  V30 26582 C 2383.93 -0.866906 -1.87863 0
M  V30 26583 C 2384.34 0.582525 -1.79589 0
M  V30 26584 O 2383.7 1.40154 -1.1689 0
M  V30 26585 C 2383.75 -1.30502 -3.37122 0
M  V30 26586 O 2383.47 -2.69761 -3.45196 0
M  V30 26587 C 2384.97 -1.1025 -4.29371 0
M  V30 26588 H 2382.19 -0.311246 -0.594447 0
M  V30 26589 H 2384.73 -1.46748 -1.42426 0
M  V30 26590 H 2382.89 -0.748148 -3.80107 0
M  V30 26591 H 2383.3 -2.88465 -4.3805 0
M  V30 26592 H 2384.78 -1.45821 -5.32391 0
M  V30 26593 H 2385.25 -0.0410263 -4.39181 0
M  V30 26594 H 2385.86 -1.64578 -3.92166 0
M  V30 26595 N 2384.18 1.29948 -0.891694 0
M  V30 26596 C 2385.12 2.29904 -0.353106 0
M  V30 26597 C 2386.12 1.60445 0.543481 0
M  V30 26598 O 2387.32 1.74858 0.427169 0
M  V30 26599 H 2383.7 0.745906 -0.0955441 0
M  V30 26600 H 2385.67 2.72781 -1.20966 0
M  V30 26601 C 2384.42 3.45257 0.411414 0
M  V30 26602 H 2383.74 3.98892 -0.269252 0
M  V30 26603 H 2385.18 4.17255 0.753254 0
M  V30 26604 C 2383.64 2.95883 1.61105 0
M  V30 26605 O 2384.17 2.9648 2.7104 0
M  V30 26606 N 2382.38 2.51812 1.45049 0
M  V30 26607 H 2381.92 2.51525 0.556131 0
M  V30 26608 H 2381.88 2.19134 2.2545 0
M  V30 26609 N 2385.65 0.653339 1.4342 0
M  V30 26610 C 2386.58 -0.0246246 2.33487 0
M  V30 26611 C 2387.56 -0.811837 1.49476 0
M  V30 26612 O 2388.75 -0.773291 1.7814 0
M  V30 26613 C 2385.88 -0.991601 3.32843 0
M  V30 26614 C 2384.83 -0.314493 4.26843 0
M  V30 26615 C 2384.16 -1.39292 5.16238 0
M  V30 26616 C 2385.46 0.793186 5.16242 0
M  V30 26617 H 2387.15 0.727532 2.90426 0
M  V30 26618 H 2384.7 0.351312 1.39649 0
M  V30 26619 H 2386.65 -1.4748 3.9475 0
M  V30 26620 H 2385.38 -1.77492 2.74161 0
M  V30 26621 H 2384.04 0.148264 3.663 0
M  V30 26622 H 2383.68 -2.16768 4.53895 0
M  V30 26623 H 2383.38 -0.945121 5.79949 0
M  V30 26624 H 2384.91 -1.87749 5.81019 0
M  V30 26625 H 2386.32 0.39214 5.71957 0
M  V30 26626 H 2384.72 1.16547 5.88674 0
M  V30 26627 H 2385.79 1.65111 4.55924 0
M  V30 26628 N 2387.13 -1.52563 0.395266 0
M  V30 26629 C 2388.36 -2.06072 -0.184907 0
M  V30 26630 C 2388.77 -1.2665 -1.40019 0
M  V30 26631 O 2388.13 -0.314704 -1.79766 0
M  V30 26632 C 2388.18 -3.57305 -0.549116 0
M  V30 26633 O 2387.9 -4.33721 0.617889 0
M  V30 26634 C 2389.4 -4.27182 -1.18451 0
M  V30 26635 H 2386.62 -0.670477 -0.0264907 0
M  V30 26636 H 2389.17 -1.9662 0.562219 0
M  V30 26637 H 2387.32 -3.66811 -1.24614 0
M  V30 26638 H 2387.74 -5.2354 0.317183 0
M  V30 26639 H 2389.21 -5.34221 -1.38967 0
M  V30 26640 H 2389.69 -3.82774 -2.15361 0
M  V30 26641 H 2390.29 -4.22009 -0.528088 0
M  V30 26642 N 2388.61 -0.125265 -1.57101 0
M  V30 26643 C 2389.54 0.8532 -2.12728 0
M  V30 26644 C 2390.55 1.2257 -1.07147 0
M  V30 26645 O 2391.74 1.17355 -1.34499 0
M  V30 26646 C 2388.84 2.15313 -2.61713 0
M  V30 26647 C 2388.02 1.95136 -3.9146 0
M  V30 26648 C 2387.08 3.08916 -4.25978 0
M  V30 26649 O 2386.1 2.81555 -4.94687 0
M  V30 26650 N 2387.3 4.35518 -3.83803 0
M  V30 26651 H 2390.07 0.377912 -2.97308 0
M  V30 26652 H 2387.63 0.0589726 -1.61793 0
M  V30 26653 H 2389.62 2.90436 -2.81831 0
M  V30 26654 H 2388.19 2.54171 -1.81978 0
M  V30 26655 H 2387.41 1.0417 -3.80187 0
M  V30 26656 H 2388.7 1.78967 -4.76286 0
M  V30 26657 H 2388.1 4.6062 -3.28398 0
M  V30 26658 H 2386.65 5.07492 -4.09017 0
M  V30 26659 N 2390.09 1.56899 0.148518 0
M  V30 26660 C 2391.02 1.94752 1.20849 0
M  V30 26661 C 2392.03 0.843176 1.39264 0
M  V30 26662 O 2393.22 1.12159 1.38862 0
M  V30 26663 C 2390.32 2.205 2.57358 0
M  V30 26664 C 2389.49 3.51781 2.59941 0
M  V30 26665 C 2388.55 3.66087 3.77977 0
M  V30 26666 O 2387.58 4.38494 3.62921 0
M  V30 26667 N 2388.78 3.02637 4.95369 0
M  V30 26668 H 2391.55 2.86281 0.886754 0
M  V30 26669 H 2389.11 1.5833 0.338094 0
M  V30 26670 H 2391.1 2.27313 3.34829 0
M  V30 26671 H 2389.67 1.35243 2.8183 0
M  V30 26672 H 2388.89 3.56422 1.68396 0
M  V30 26673 H 2390.18 4.38125 2.58696 0
M  V30 26674 H 2389.58 2.43724 5.10505 0
M  V30 26675 H 2388.13 3.15014 5.70622 0
M  V30 26676 N 2391.57 -0.417818 1.51961 0
M  V30 26677 C 2392.5 -1.51551 1.77636 0
M  V30 26678 C 2393.48 -1.58125 0.626946 0
M  V30 26679 O 2394.66 -1.73539 0.871662 0
M  V30 26680 C 2391.79 -2.89457 1.91917 0
M  V30 26681 C 2390.75 -2.97737 3.07468 0
M  V30 26682 C 2390.07 -4.37813 3.06959 0
M  V30 26683 C 2391.37 -2.70019 4.47087 0
M  V30 26684 H 2393.07 -1.30315 2.69552 0
M  V30 26685 H 2390.61 -0.625469 1.29707 0
M  V30 26686 H 2392.56 -3.66226 2.08461 0
M  V30 26687 H 2391.29 -3.11967 0.966653 0
M  V30 26688 H 2389.95 -2.23411 2.9066 0
M  V30 26689 H 2389.6 -4.5732 2.09446 0
M  V30 26690 H 2389.3 -4.4428 3.84564 0
M  V30 26691 H 2390.82 -5.16529 3.25622 0
M  V30 26692 H 2392.23 -3.36514 4.64145 0
M  V30 26693 H 2390.63 -2.87872 5.26545 0
M  V30 26694 H 2391.7 -1.65506 4.5578 0
M  V30 26695 N 2393.04 -1.42436 -0.674508 0
M  V30 26696 C 2393.95 -1.4834 -1.81748 0
M  V30 26697 C 2394.97 -0.372129 -1.69974 0
M  V30 26698 O 2396.15 -0.623074 -1.9152 0
M  V30 26699 C 2393.21 -1.38367 -3.17892 0
M  V30 26700 C 2392.27 -2.59988 -3.41621 0
M  V30 26701 C 2391.5 -2.50481 -4.71269 0
M  V30 26702 O 2391.73 -1.54084 -5.49194 0
M  V30 26703 O 2390.66 -3.40619 -4.96248 0
M  V30 26704 H 2394.49 -2.44813 -1.79723 0
M  V30 26705 H 2392.07 -1.24204 -0.83029 0
M  V30 26706 H 2393.95 -1.35168 -3.99133 0
M  V30 26707 H 2392.63 -0.450201 -3.20554 0
M  V30 26708 H 2391.54 -2.68762 -2.60227 0
M  V30 26709 H 2392.87 -3.52235 -3.43789 0
M  V30 26710 N 2394.52 0.910841 -1.28614 0
M  V30 26711 C 2395.45 2.01842 -1.08592 0
M  V30 26712 C 2396.47 1.62758 -0.0367705 0
M  V30 26713 O 2397.66 1.76288 -0.280132 0
M  V30 26714 C 2394.76 3.33018 -0.628685 0
M  V30 26715 C 2393.93 4.00696 -1.75389 0
M  V30 26716 C 2392.99 5.10154 -1.28954 0
M  V30 26717 O 2392.01 5.33195 -1.99229 0
M  V30 26718 N 2393.22 5.80295 -0.154326 0
M  V30 26719 H 2395.98 2.19575 -2.03977 0
M  V30 26720 H 2393.54 1.08232 -1.20405 0
M  V30 26721 H 2395.53 4.03575 -0.301579 0
M  V30 26722 H 2394.1 3.11735 0.232397 0
M  V30 26723 H 2393.32 3.23649 -2.25044 0
M  V30 26724 H 2394.61 4.42657 -2.50862 0
M  V30 26725 H 2394.01 5.64049 0.431841 0
M  V30 26726 H 2392.57 6.51701 0.113484 0
M  V30 26727 N 2396 1.10909 1.11969 0
M  V30 26728 C 2396.96 0.765745 2.1603 0
M  V30 26729 C 2397.96 -0.212207 1.59394 0
M  V30 26730 O 2399.15 0.0115747 1.74196 0
M  V30 26731 C 2396.29 0.135113 3.40632 0
M  V30 26732 H 2397.48 1.68753 2.47916 0
M  V30 26733 H 2395.03 0.910249 1.2706 0
M  V30 26734 H 2395.77 -0.797162 3.1435 0
M  V30 26735 H 2395.55 0.839004 3.83018 0
M  V30 26736 H 2397.04 -0.0891735 4.17505 0
M  V30 26737 N 2397.48 -1.29474 0.898573 0
M  V30 26738 C 2398.7 -2.00285 0.538596 0
M  V30 26739 C 2399.13 -1.66818 -0.869106 0
M  V30 26740 O 2398.49 -0.892172 -1.57829 0
M  V30 26741 C 2398.53 -3.52998 0.736537 0
M  V30 26742 O 2397.64 -4.11857 -0.211465 0
M  V30 26743 H 2396.98 -0.629726 0.210574 0
M  V30 26744 H 2399.51 -1.64996 1.20985 0
M  V30 26745 H 2399.52 -4.02937 0.640756 0
M  V30 26746 H 2398.19 -3.76693 1.76283 0
M  V30 26747 H 2396.77 -3.72838 -0.0682336 0
M  V30 26748 N 2398.96 -0.660936 -1.43071 0
M  V30 26749 C 2400.21 -0.17477 -2.00941 0
M  V30 26750 C 2400.52 1.22114 -1.52799 0
M  V30 26751 O 2401.72 1.80294 -2.02994 0
M  V30 26752 C 2400.18 -0.261622 -3.58948 0
M  V30 26753 C 2399.79 -1.66071 -4.16082 0
M  V30 26754 C 2401.53 0.166543 -4.24173 0
M  V30 26755 C 2399.44 -1.70108 -5.66407 0
M  V30 26756 H 2398.37 -0.0615763 -0.751481 0
M  V30 26757 H 2401.02 -0.824098 -1.63954 0
M  V30 26758 H 2399.4 0.455352 -3.93373 0
M  V30 26759 H 2400.58 -2.40366 -3.93142 0
M  V30 26760 H 2398.89 -2.03552 -3.63257 0
M  V30 26761 H 2401.49 0.156339 -5.34471 0
M  V30 26762 H 2401.83 1.19936 -3.98649 0
M  V30 26763 H 2402.36 -0.498945 -3.94659 0
M  V30 26764 H 2399.1 -2.71325 -5.9671 0
M  V30 26765 H 2398.62 -1.00149 -5.9138 0
M  V30 26766 H 2400.3 -1.44827 -6.30582 0
M  V30 26767 N 2400.43 1.52351 -0.403352 0
M  V30 26768 C 2401.68 2.02047 0.17457 0
M  V30 26769 C 2402.01 1.2887 1.4528 0
M  V30 26770 O 2401.29 0.393291 1.90482 0
M  V30 26771 C 2401.57 3.57545 0.428175 0
M  V30 26772 C 2401.42 4.41378 -0.866326 0
M  V30 26773 C 2402.74 4.23059 1.2128 0
M  V30 26774 H 2399.86 0.73439 0.0619722 0
M  V30 26775 H 2402.5 1.82292 -0.535682 0
M  V30 26776 H 2400.65 3.74509 1.03321 0
M  V30 26777 H 2402.33 4.36138 -1.50272 0
M  V30 26778 H 2400.57 4.07824 -1.47858 0
M  V30 26779 H 2401.24 5.48238 -0.643345 0
M  V30 26780 H 2403.72 4.10159 0.700631 0
M  V30 26781 H 2402.59 5.31811 1.35899 0
M  V30 26782 H 2402.85 3.81629 2.23186 0
M  V30 26783 N 2401.91 0.133594 1.57033 0
M  V30 26784 C 2402.86 -0.81117 2.16076 0
M  V30 26785 C 2403.83 -1.25348 1.08982 0
M  V30 26786 O 2405.01 -1.3284 1.3696 0
M  V30 26787 C 2402.15 -2.05019 2.77599 0
M  V30 26788 C 2401.27 -1.65491 3.99045 0
M  V30 26789 C 2400.4 -2.84471 4.48608 0
M  V30 26790 C 2399.44 -2.41252 5.62551 0
M  V30 26791 N 2398.58 -3.53195 6.06793 0
M  V30 26792 H 2403.42 -0.300854 2.96477 0
M  V30 26793 H 2400.96 -0.136796 1.46463 0
M  V30 26794 H 2402.91 -2.77636 3.11406 0
M  V30 26795 H 2401.54 -2.53485 1.99863 0
M  V30 26796 H 2400.6 -0.826916 3.71303 0
M  V30 26797 H 2401.91 -1.2974 4.81632 0
M  V30 26798 H 2401.06 -3.65295 4.84401 0
M  V30 26799 H 2399.8 -3.23459 3.65001 0
M  V30 26800 H 2398.81 -1.58865 5.26348 0
M  V30 26801 H 2400.03 -2.03366 6.47935 0
M  V30 26802 H 2397.98 -3.91829 5.26124 0
M  V30 26803 H 2397.89 -3.21415 6.84272 0
M  V30 26804 H 2399.16 -4.34415 6.47228 0
M  V30 26805 N 2403.39 -1.56975 -0.140195 0
M  V30 26806 C 2404.34 -1.98776 -1.17289 0
M  V30 26807 C 2405.31 -0.856433 -1.42318 0
M  V30 26808 O 2406.49 -1.11903 -1.54539 0
M  V30 26809 C 2403.63 -2.37927 -2.49969 0
M  V30 26810 C 2402.75 -3.64382 -2.32056 0
M  V30 26811 C 2401.88 -3.92606 -3.57818 0
M  V30 26812 C 2400.92 -5.12309 -3.34971 0
M  V30 26813 N 2400.06 -5.3651 -4.52882 0
M  V30 26814 H 2404.9 -2.86797 -0.809422 0
M  V30 26815 H 2402.43 -1.41885 -0.388212 0
M  V30 26816 H 2404.39 -2.58657 -3.27341 0
M  V30 26817 H 2403.02 -1.52977 -2.8425 0
M  V30 26818 H 2402.07 -3.51389 -1.45704 0
M  V30 26819 H 2403.39 -4.5191 -2.11137 0
M  V30 26820 H 2402.54 -4.13871 -4.43617 0
M  V30 26821 H 2401.28 -3.03513 -3.81748 0
M  V30 26822 H 2400.28 -4.90911 -2.47561 0
M  V30 26823 H 2401.51 -6.02961 -3.12433 0
M  V30 26824 H 2399.45 -4.50372 -4.76971 0
M  V30 26825 H 2399.37 -6.1832 -4.3499 0
M  V30 26826 H 2400.64 -5.62278 -5.39874 0
M  V30 26827 N 2404.87 0.409753 -1.5218 0
M  V30 26828 C 2406.28 0.748326 -1.40969 0
M  V30 26829 C 2406.48 1.94842 -0.513691 0
M  V30 26830 O 2405.54 2.52491 0.0207582 0
M  V30 26831 C 2406.85 1.00285 -2.83485 0
M  V30 26832 C 2408.4 1.1056 -2.92823 0
M  V30 26833 C 2408.88 1.39288 -4.36306 0
M  V30 26834 N 2410.37 1.46155 -4.39537 0
M  V30 26835 C 2411.1 1.70009 -5.47617 0
M  V30 26836 N 2410.6 1.91471 -6.65816 0
M  V30 26837 N 2412.39 1.72018 -5.35132 0
M  V30 26838 H 2404.54 -0.380222 -2.08969 0
M  V30 26839 H 2406.81 -0.107822 -0.941848 0
M  V30 26840 H 2406.51 0.193399 -3.51168 0
M  V30 26841 H 2406.39 1.92318 -3.2449 0
M  V30 26842 H 2408.77 1.90564 -2.25321 0
M  V30 26843 H 2408.85 0.163645 -2.55276 0
M  V30 26844 H 2408.5 0.59802 -5.04367 0
M  V30 26845 H 2408.43 2.34735 -4.71389 0
M  V30 26846 H 2410.92 1.31361 -3.54334 0
M  V30 26847 H 2411.23 2.09121 -7.43968 0
M  V30 26848 H 2409.58 1.88737 -6.68882 0
M  V30 26849 H 2412.77 1.54788 -4.41767 0
M  V30 26850 H 2412.94 1.90269 -6.19436 0
M  V30 26851 N 2406.35 1.42792 0.666944 0
M  V30 26852 C 2407.57 1.47303 1.46002 0
M  V30 26853 C 2408 0.0880648 1.87894 0
M  V30 26854 O 2407.35 -0.915225 1.56503 0
M  V30 26855 C 2407.4 2.41234 2.68027 0
M  V30 26856 O 2406.51 1.88913 3.66587 0
M  V30 26857 H 2405.85 0.498778 0.438311 0
M  V30 26858 H 2408.38 1.87564 0.817358 0
M  V30 26859 H 2408.39 2.58079 3.16006 0
M  V30 26860 H 2407.06 3.41851 2.36877 0
M  V30 26861 H 2405.64 1.81662 3.25658 0
M  V30 26862 N 2407.82 -0.904008 1.29095 0
M  V30 26863 C 2408.73 -2.04068 1.15731 0
M  V30 26864 C 2409.75 -1.73809 0.0815613 0
M  V30 26865 O 2410.93 -1.9926 0.292784 0
M  V30 26866 C 2407.99 -3.36606 0.830483 0
M  V30 26867 C 2407.05 -3.80411 1.98962 0
M  V30 26868 C 2406.29 -5.06625 1.67829 0
M  V30 26869 O 2406.51 -5.67265 0.597205 0
M  V30 26870 O 2405.44 -5.46379 2.52495 0
M  V30 26871 H 2409.27 -2.18264 2.11174 0
M  V30 26872 H 2406.85 -1.02698 1.08506 0
M  V30 26873 H 2408.74 -4.16158 0.662594 0
M  V30 26874 H 2407.41 -3.23563 -0.0942109 0
M  V30 26875 H 2406.32 -3.01645 2.21272 0
M  V30 26876 H 2407.65 -3.98032 2.89536 0
M  V30 26877 N 2409.3 -1.11501 -1.11379 0
M  V30 26878 C 2410.58 -0.775997 -1.79548 0
M  V30 26879 C 2410.96 0.735845 -1.9786 0
M  V30 26880 O 2410.31 1.66607 -1.56379 0
M  V30 26881 C 2410.52 -1.53983 -3.13194 0
M  V30 26882 C 2411.87 -1.71951 -3.88224 0
M  V30 26883 O 2412.89 -1.50412 -3.22885 0
M  V30 26884 O 2411.75 -2.07747 -5.05474 0
M  V30 26885 H 2408.84 -0.281204 -0.777723 0
M  V30 26886 H 2411.39 -1.21847 -1.18116 0
M  V30 26887 H 2410.16 -2.56823 -2.95225 0
M  V30 26888 H 2409.78 -1.09095 -3.8234 0
M  V30 26889 N 2410.78 1.28995 -0.905426 0
M  V30 26890 C 2412.06 1.90269 -0.453546 0
M  V30 26891 C 2412.44 1.82139 1.06717 0
M  V30 26892 O 2411.79 1.25185 1.91157 0
M  V30 26893 C 2412 3.35117 -0.974553 0
M  V30 26894 C 2413.34 4.12125 -1.02167 0
M  V30 26895 O 2414.37 3.44044 -0.922618 0
M  V30 26896 O 2413.23 5.338 -1.1713 0
M  V30 26897 H 2410.32 0.814655 -0.142362 0
M  V30 26898 H 2412.87 1.37421 -0.995666 0
M  V30 26899 H 2411.64 3.35218 -2.01854 0
M  V30 26900 H 2411.26 3.95452 -0.412775 0
M  V30 26901 N 2412.26 0.668514 1.42719 0
M  V30 26902 C 2413.19 0.000141219 2.335 0
M  V30 26903 C 2414.17 -0.795938 1.50329 0
M  V30 26904 O 2415.36 -0.754353 1.7895 0
M  V30 26905 C 2412.49 -0.956243 3.33876 0
M  V30 26906 C 2411.44 -0.269203 4.27153 0
M  V30 26907 C 2410.77 -1.33809 5.17686 0
M  V30 26908 C 2412.07 0.847896 5.15372 0
M  V30 26909 H 2413.76 0.758295 2.89638 0
M  V30 26910 H 2411.31 0.366104 1.39268 0
M  V30 26911 H 2413.26 -1.43285 3.96292 0
M  V30 26912 H 2411.98 -1.74574 2.76028 0
M  V30 26913 H 2410.64 0.187106 3.66122 0
M  V30 26914 H 2410.29 -2.11942 4.56168 0
M  V30 26915 H 2409.99 -0.883557 5.80919 0
M  V30 26916 H 2411.51 -1.81576 5.82977 0
M  V30 26917 H 2412.93 0.452782 5.71509 0
M  V30 26918 H 2411.32 1.22784 5.87405 0
M  V30 26919 H 2412.39 1.69937 4.54147 0
M  V30 26920 N 2413.74 -1.52135 0.411426 0
M  V30 26921 C 2415.15 -1.59478 0.0624145 0
M  V30 26922 C 2415.35 -1.42413 -1.42551 0
M  V30 26923 O 2414.41 -1.25224 -2.19261 0
M  V30 26924 C 2415.72 -2.95451 0.559383 0
M  V30 26925 C 2417.27 -3.08691 0.517558 0
M  V30 26926 C 2417.75 -4.47148 0.991073 0
M  V30 26927 N 2419.24 -4.53395 0.947987 0
M  V30 26928 C 2419.97 -5.58804 1.28553 0
M  V30 26929 N 2419.47 -6.71754 1.69465 0
M  V30 26930 N 2421.26 -5.49024 1.20536 0
M  V30 26931 H 2413.41 -1.61475 1.37985 0
M  V30 26932 H 2415.67 -0.759754 0.56699 0
M  V30 26933 H 2415.38 -3.13227 1.59944 0
M  V30 26934 H 2415.25 -3.77188 -0.0297351 0
M  V30 26935 H 2417.64 -2.90599 -0.513454 0
M  V30 26936 H 2417.72 -2.28855 1.14276 0
M  V30 26937 H 2417.37 -4.65984 2.02042 0
M  V30 26938 H 2417.3 -5.25484 0.342663 0
M  V30 26939 H 2419.79 -3.72316 0.647223 0
M  V30 26940 H 2420.1 -7.48176 1.93527 0
M  V30 26941 H 2418.45 -6.73029 1.73371 0
M  V30 26942 H 2421.64 -4.59666 0.884585 0
M  V30 26943 H 2421.81 -6.31066 1.47172 0
M  V30 26944 N 2415.22 -0.14192 -1.5696 0
M  V30 26945 C 2416.15 0.830589 -2.13621 0
M  V30 26946 C 2417.16 1.21426 -1.08441 0
M  V30 26947 O 2418.35 1.15922 -1.35736 0
M  V30 26948 C 2415.45 2.12525 -2.63982 0
M  V30 26949 C 2414.62 1.90973 -3.93507 0
M  V30 26950 C 2413.68 3.0438 -4.29231 0
M  V30 26951 O 2412.71 2.76293 -4.97645 0
M  V30 26952 N 2413.91 4.31422 -3.88401 0
M  V30 26953 H 2416.67 0.346357 -2.97692 0
M  V30 26954 H 2414.24 0.041809 -1.61846 0
M  V30 26955 H 2416.23 2.87431 -2.84896 0
M  V30 26956 H 2414.8 2.52226 -1.84664 0
M  V30 26957 H 2414.02 1.00132 -3.81271 0
M  V30 26958 H 2415.31 1.73906 -4.78157 0
M  V30 26959 H 2414.7 4.57111 -3.33265 0
M  V30 26960 H 2413.26 5.03125 -4.14377 0
M  V30 26961 N 2416.69 1.57047 0.131868 0
M  V30 26962 C 2417.63 1.96022 1.18776 0
M  V30 26963 C 2418.64 0.857899 1.38362 0
M  V30 26964 O 2419.83 1.13625 1.37664 0
M  V30 26965 C 2416.93 2.23217 2.55005 0
M  V30 26966 C 2416.1 3.54518 2.56195 0
M  V30 26967 C 2415.16 3.70075 3.74073 0
M  V30 26968 O 2414.19 4.42318 3.5825 0
M  V30 26969 N 2415.39 3.07874 4.92132 0
M  V30 26970 H 2418.15 2.87205 0.85634 0
M  V30 26971 H 2415.71 1.5868 0.321282 0
M  V30 26972 H 2417.71 2.30852 3.324 0
M  V30 26973 H 2416.28 1.38225 2.80379 0
M  V30 26974 H 2415.5 3.58188 1.64607 0
M  V30 26975 H 2416.78 4.40844 2.54035 0
M  V30 26976 H 2416.18 2.49125 5.07891 0
M  V30 26977 H 2414.74 3.21049 5.67249 0
M  V30 26978 N 2418.17 -0.401677 1.52395 0
M  V30 26979 C 2419.59 -0.740839 1.41364 0
M  V30 26980 C 2419.79 -1.94567 0.524017 0
M  V30 26981 O 2418.84 -2.52499 -0.00736765 0
M  V30 26982 C 2420.16 -0.987797 2.84012 0
M  V30 26983 C 2421.7 -1.09005 2.93406 0
M  V30 26984 C 2422.18 -1.36972 4.37038 0
M  V30 26985 N 2423.67 -1.43821 4.40306 0
M  V30 26986 C 2424.41 -1.67102 5.48511 0
M  V30 26987 N 2423.9 -1.87937 6.66822 0
M  V30 26988 N 2425.69 -1.69178 5.36037 0
M  V30 26989 H 2417.85 0.391299 2.08764 0
M  V30 26990 H 2420.11 0.112815 0.941263 0
M  V30 26991 H 2419.81 -0.174773 3.51265 0
M  V30 26992 H 2419.69 -1.90594 3.25505 0
M  V30 26993 H 2422.08 -1.89366 2.26328 0
M  V30 26994 H 2422.16 -0.150105 2.55359 0
M  V30 26995 H 2421.8 -0.571264 5.04677 0
M  V30 26996 H 2421.73 -2.32231 4.72627 0
M  V30 26997 H 2424.22 -1.2948 3.55026 0
M  V30 26998 H 2424.53 -2.05172 7.45067 0
M  V30 26999 H 2422.88 -1.85187 6.69874 0
M  V30 27000 H 2426.07 -1.52443 4.42582 0
M  V30 27001 H 2426.24 -1.86982 6.20437 0
M  V30 27002 N 2419.65 -1.43144 -0.659362 0
M  V30 27003 C 2420.93 -1.34914 -1.41624 0
M  V30 27004 C 2421.31 0.00604075 -2.11099 0
M  V30 27005 O 2420.65 1.02232 -2.04355 0
M  V30 27006 C 2420.86 -2.5281 -2.406 0
M  V30 27007 C 2422.21 -2.95621 -3.04784 0
M  V30 27008 O 2423.24 -2.52812 -2.50928 0
M  V30 27009 O 2422.1 -3.69763 -4.02415 0
M  V30 27010 H 2419.19 -0.532856 -0.632451 0
M  V30 27011 H 2421.74 -1.55182 -0.686787 0
M  V30 27012 H 2420.51 -3.43087 -1.88168 0
M  V30 27013 H 2420.13 -2.3461 -3.21005 0
M  V30 27014 N 2421.13 0.897149 -1.29572 0
M  V30 27015 C 2422.37 1.65032 -1.17866 0
M  V30 27016 C 2422.71 1.92332 0.268695 0
M  V30 27017 O 2421.98 1.53557 1.19375 0
M  V30 27018 C 2422.26 2.99783 -1.99505 0
M  V30 27019 C 2422.12 2.79532 -3.52395 0
M  V30 27020 C 2423.44 4.00549 -1.82342 0
M  V30 27021 H 2420.56 0.598887 -0.429538 0
M  V30 27022 H 2423.2 1.03902 -1.59073 0
M  V30 27023 H 2421.35 3.51959 -1.64491 0
M  V30 27024 H 2423.02 2.34237 -3.97405 0
M  V30 27025 H 2421.26 2.14266 -3.7719 0
M  V30 27026 H 2421.93 3.75295 -4.04794 0
M  V30 27027 H 2424.41 3.57491 -2.1293 0
M  V30 27028 H 2423.29 4.92767 -2.4181 0
M  V30 27029 H 2423.55 4.35178 -0.779285 0
M  V30 27030 N 2422.61 1.1209 1.10786 0
M  V30 27031 C 2423.54 0.807793 2.19082 0
M  V30 27032 C 2424.52 -0.226829 1.68581 0
M  V30 27033 O 2425.7 -0.0888134 1.93997 0
M  V30 27034 C 2422.83 0.257637 3.46343 0
M  V30 27035 C 2421.79 1.22491 4.10098 0
M  V30 27036 C 2421.11 0.535145 5.32015 0
M  V30 27037 C 2422.41 2.57819 4.54232 0
M  V30 27038 H 2424.11 1.71333 2.45531 0
M  V30 27039 H 2421.65 0.825225 1.18009 0
M  V30 27040 H 2423.6 0.0263419 4.21392 0
M  V30 27041 H 2422.33 -0.683222 3.19374 0
M  V30 27042 H 2420.99 1.44195 3.37051 0
M  V30 27043 H 2420.64 -0.410739 5.0132 0
M  V30 27044 H 2420.34 1.18034 5.75623 0
M  V30 27045 H 2421.86 0.312802 6.09798 0
M  V30 27046 H 2423.27 2.40164 5.20571 0
M  V30 27047 H 2421.67 3.18384 5.08676 0
M  V30 27048 H 2422.74 3.16534 3.67334 0
M  V30 27049 N 2424.08 -1.28513 0.912254 0
M  V30 27050 C 2425.36 -1.90026 0.46363 0
M  V30 27051 C 2425.74 -1.82702 -1.0575 0
M  V30 27052 O 2425.09 -1.26197 -1.9049 0
M  V30 27053 C 2425.3 -3.34596 0.992311 0
M  V30 27054 C 2426.65 -4.11577 1.04351 0
M  V30 27055 O 2427.67 -3.4355 0.94085 0
M  V30 27056 O 2426.53 -5.33172 1.1996 0
M  V30 27057 H 2423.62 -0.813888 0.14668 0
M  V30 27058 H 2426.17 -1.36891 1.00294 0
M  V30 27059 H 2424.94 -3.34142 2.03629 0
M  V30 27060 H 2424.56 -3.95227 0.433741 0
M  V30 27061 N 2425.56 -0.676073 -1.42362 0
M  V30 27062 C 2426.81 -0.198473 -2.01123 0
M  V30 27063 C 2427.13 1.19963 -1.53733 0
M  V30 27064 O 2426.4 1.80576 -0.759549 0
M  V30 27065 H 2424.98 -0.0703852 -0.743677 0
M  V30 27066 H 2427.64 -0.872867 -1.74261 0
M  V30 27067 H 2426.74 -0.200741 -3.11454 0
M  V30 27068 N 2427.04 1.51915 -0.419488 0
M  V30 27069 C 2427.99 2.24127 0.418457 0
M  V30 27070 C 2428.97 1.25658 1.00493 0
M  V30 27071 O 2430.17 1.50843 0.926031 0
M  V30 27072 C 2427.3 3.07374 1.52893 0
M  V30 27073 C 2426.38 4.1326 0.952724 0
M  V30 27074 N 2426.77 5.05693 0.104086 0
M  V30 27075 C 2425.07 4.28928 1.22217 0
M  V30 27076 C 2425.77 5.81293 -0.217622 0
M  V30 27077 N 2424.75 5.42169 0.394198 0
M  V30 27078 H 2428.55 2.9295 -0.2361 0
M  V30 27079 H 2426.06 1.60756 -0.230509 0
M  V30 27080 H 2428.06 3.57669 2.14193 0
M  V30 27081 H 2426.72 2.40091 2.18601 0
M  V30 27082 H 2427.73 5.17242 -0.261015 0
M  V30 27083 H 2424.41 3.72874 1.87806 0
M  V30 27084 H 2425.8 6.65749 -0.907109 0
M  V30 27085 N 2428.52 0.150242 1.56882 0
M  V30 27086 C 2429.45 -0.784245 2.19936 0
M  V30 27087 C 2430.43 -1.25467 1.14856 0
M  V30 27088 O 2431.61 -1.31165 1.43211 0
M  V30 27089 C 2428.74 -2.02224 2.82352 0
M  V30 27090 C 2427.7 -1.68846 3.93287 0
M  V30 27091 C 2427.02 -2.99936 4.42654 0
M  V30 27092 C 2428.32 -0.932623 5.13906 0
M  V30 27093 H 2430.02 -0.258729 2.9828 0
M  V30 27094 H 2427.56 -0.123004 1.43474 0
M  V30 27095 H 2429.52 -2.68082 3.25131 0
M  V30 27096 H 2428.24 -2.57154 2.01345 0
M  V30 27097 H 2426.9 -1.05365 3.51132 0
M  V30 27098 H 2426.55 -3.52863 3.58464 0
M  V30 27099 H 2426.25 -2.78365 5.17481 0
M  V30 27100 H 2427.77 -3.66859 4.88105 0
M  V30 27101 H 2429.19 -1.49336 5.53509 0
M  V30 27102 H 2427.58 -0.816735 5.94516 0
M  V30 27103 H 2428.65 0.0750421 4.84842 0
M  V30 27104 N 2430 -1.57115 -0.123538 0
M  V30 27105 C 2431.41 -1.52307 -0.476934 0
M  V30 27106 C 2431.61 -0.862512 -1.82107 0
M  V30 27107 O 2430.67 -0.442927 -2.48585 0
M  V30 27108 C 2431.98 -2.97073 -0.465609 0
M  V30 27109 C 2433.53 -3.08139 -0.54948 0
M  V30 27110 C 2434 -4.54457 -0.568589 0
M  V30 27111 N 2435.5 -4.58894 -0.630156 0
M  V30 27112 C 2436.23 -5.69515 -0.666315 0
M  V30 27113 N 2435.73 -6.89645 -0.660393 0
M  V30 27114 N 2437.52 -5.57611 -0.708979 0
M  V30 27115 H 2429.67 -1.98443 0.757233 0
M  V30 27116 H 2431.93 -0.906069 0.278824 0
M  V30 27117 H 2431.64 -3.48754 0.454294 0
M  V30 27118 H 2431.51 -3.54271 -1.29507 0
M  V30 27119 H 2433.9 -2.56464 -1.4598 0
M  V30 27120 H 2433.98 -2.53944 0.307577 0
M  V30 27121 H 2433.63 -5.06776 0.33767 0
M  V30 27122 H 2433.56 -5.06459 -1.44247 0
M  V30 27123 H 2436.05 -3.72423 -0.64108 0
M  V30 27124 H 2436.36 -7.69709 -0.690481 0
M  V30 27125 H 2434.7 -6.92158 -0.62789 0
M  V30 27126 H 2437.9 -4.6267 -0.710937 0
M  V30 27127 H 2438.07 -6.43833 -0.733691 0
M  V30 27128 N 2431.47 0.393589 -1.52606 0
M  V30 27129 C 2432.38 1.50489 -1.79973 0
M  V30 27130 C 2433.4 1.59897 -0.686209 0
M  V30 27131 O 2434.58 1.7632 -0.973305 0
M  V30 27132 C 2431.64 2.86068 -1.95872 0
M  V30 27133 C 2430.7 2.86419 -3.19786 0
M  V30 27134 C 2429.94 4.15532 -3.34916 0
M  V30 27135 O 2430.16 5.10248 -2.54957 0
M  V30 27136 O 2429.09 4.23052 -4.28148 0
M  V30 27137 H 2432.92 1.30294 -2.7433 0
M  V30 27138 H 2430.5 0.58098 -1.37641 0
M  V30 27139 H 2432.39 3.66453 -2.08062 0
M  V30 27140 H 2431.06 3.06298 -1.04704 0
M  V30 27141 H 2429.97 2.04831 -3.13041 0
M  V30 27142 H 2431.3 2.7114 -4.10784 0
M  V30 27143 N 2432.95 1.43492 0.651762 0
M  V30 27144 C 2433.9 1.48763 1.7646 0
M  V30 27145 C 2434.87 0.337217 1.62641 0
M  V30 27146 O 2436.05 0.544576 1.82863 0
M  V30 27147 C 2433.19 1.41802 3.14621 0
M  V30 27148 C 2432.31 2.67059 3.39563 0
M  V30 27149 C 2431.44 2.52076 4.6758 0
M  V30 27150 C 2430.48 3.72595 4.85633 0
M  V30 27151 N 2429.62 3.56413 6.04908 0
M  V30 27152 H 2434.46 2.43852 1.71289 0
M  V30 27153 H 2432 1.21044 0.835868 0
M  V30 27154 H 2433.95 1.3576 3.94494 0
M  V30 27155 H 2432.58 0.502936 3.18858 0
M  V30 27156 H 2431.64 2.83374 2.53778 0
M  V30 27157 H 2432.95 3.56578 3.48788 0
M  V30 27158 H 2432.1 2.4375 5.55582 0
M  V30 27159 H 2430.84 1.60084 4.60678 0
M  V30 27160 H 2429.85 3.81328 3.96067 0
M  V30 27161 H 2431.07 4.65598 4.94364 0
M  V30 27162 H 2429.02 2.67156 5.99136 0
M  V30 27163 H 2428.93 4.39534 6.15098 0
M  V30 27164 H 2430.2 3.51941 6.95527 0
M  V30 27165 N 2434.43 -0.890264 1.30046 0
M  V30 27166 C 2435.36 -2.00089 1.1179 0
M  V30 27167 C 2436.38 -1.62679 0.0626593 0
M  V30 27168 O 2437.56 -1.7582 0.308143 0
M  V30 27169 C 2434.66 -3.31975 0.681585 0
M  V30 27170 C 2433.84 -3.97855 1.81742 0
M  V30 27171 C 2432.9 -5.08038 1.37054 0
M  V30 27172 O 2431.92 -5.29957 2.07687 0
M  V30 27173 N 2433.12 -5.79976 0.246627 0
M  V30 27174 H 2435.89 -2.16302 2.07445 0
M  V30 27175 H 2433.45 -1.06303 1.22112 0
M  V30 27176 H 2435.44 -4.03044 0.365746 0
M  V30 27177 H 2434.01 -3.12065 -0.182773 0
M  V30 27178 H 2433.23 -3.20028 2.30165 0
M  V30 27179 H 2434.52 -4.3861 2.57873 0
M  V30 27180 H 2433.92 -5.64665 -0.342051 0
M  V30 27181 H 2432.48 -6.51799 -0.00978981 0
M  V30 27182 N 2435.91 -1.12676 -1.1019 0
M  V30 27183 C 2437.32 -0.86334 -1.34233 0
M  V30 27184 C 2437.52 0.505243 -1.95063 0
M  V30 27185 O 2436.58 1.25341 -2.19194 0
M  V30 27186 C 2437.89 -1.98176 -2.26156 0
M  V30 27187 C 2439.44 -2.01294 -2.39687 0
M  V30 27188 C 2439.92 -3.12376 -3.3494 0
M  V30 27189 N 2441.41 -3.11835 -3.4251 0
M  V30 27190 C 2442.14 -3.94426 -4.16192 0
M  V30 27191 N 2441.64 -4.87012 -4.92738 0
M  V30 27192 N 2443.43 -3.82554 -4.11836 0
M  V30 27193 H 2435.58 -2.00854 -0.690762 0
M  V30 27194 H 2437.85 -0.874181 -0.366759 0
M  V30 27195 H 2437.55 -2.96808 -1.88675 0
M  V30 27196 H 2437.43 -1.88912 -3.26484 0
M  V30 27197 H 2439.81 -1.0328 -2.76437 0
M  V30 27198 H 2439.89 -2.14632 -1.39165 0
M  V30 27199 H 2439.54 -4.10624 -2.98915 0
M  V30 27200 H 2439.47 -2.96277 -4.35348 0
M  V30 27201 H 2441.96 -2.44764 -2.87922 0
M  V30 27202 H 2442.27 -5.46537 -5.46367 0
M  V30 27203 H 2440.62 -4.91024 -4.91854 0
M  V30 27204 H 2443.81 -3.09556 -3.51131 0
M  V30 27205 H 2443.98 -4.47151 -4.68999 0
M  V30 27206 N 2437.39 1.28028 -0.919057 0
M  V30 27207 C 2438.61 1.98865 -0.571006 0
M  V30 27208 C 2439.03 1.68636 0.848966 0
M  V30 27209 O 2438.39 0.942063 1.56306 0
M  V30 27210 C 2438.44 3.53052 -0.776939 0
M  V30 27211 O 2438.16 3.82219 -2.14104 0
M  V30 27212 C 2439.66 4.41146 -0.436433 0
M  V30 27213 H 2436.88 0.634879 -0.217186 0
M  V30 27214 H 2439.42 1.63094 -1.23371 0
M  V30 27215 H 2437.58 3.87065 -0.161153 0
M  V30 27216 H 2437.99 4.76838 -2.18463 0
M  V30 27217 H 2439.47 5.48379 -0.631267 0
M  V30 27218 H 2439.94 4.34693 0.62761 0
M  V30 27219 H 2440.55 4.1264 -1.02999 0
M  V30 27220 N 2438.86 0.683613 1.42002 0
M  V30 27221 C 2439.8 -0.0282665 2.29183 0
M  V30 27222 C 2440.81 -0.756585 1.44151 0
M  V30 27223 O 2442 -0.609277 1.6778 0
M  V30 27224 C 2439.1 -1.06392 3.21767 0
M  V30 27225 C 2438.27 -0.407646 4.35496 0
M  V30 27226 C 2437.33 -1.34428 5.08739 0
M  V30 27227 O 2436.36 -0.841219 5.6295 0
M  V30 27228 N 2437.56 -2.67719 5.15079 0
M  V30 27229 H 2440.32 0.720156 2.90919 0
M  V30 27230 H 2437.88 0.528709 1.53024 0
M  V30 27231 H 2439.88 -1.69198 3.67633 0
M  V30 27232 H 2438.45 -1.71399 2.61421 0
M  V30 27233 H 2437.67 0.400081 3.92164 0
M  V30 27234 H 2438.95 0.049185 5.08776 0
M  V30 27235 H 2438.35 -3.1112 4.72462 0
M  V30 27236 H 2436.91 -3.2575 5.64562 0
M  V30 27237 N 2440.34 -1.5169 0.427538 0
M  V30 27238 C 2441.25 -2.31247 -0.395229 0
M  V30 27239 C 2442.27 -1.39744 -1.03671 0
M  V30 27240 O 2443.45 -1.72817 -1.03422 0
M  V30 27241 C 2440.51 -3.13192 -1.487 0
M  V30 27242 C 2439.57 -4.20461 -0.866669 0
M  V30 27243 C 2438.8 -4.98489 -1.90642 0
M  V30 27244 O 2439.03 -4.77032 -3.12725 0
M  V30 27245 O 2437.96 -5.82848 -1.5024 0
M  V30 27246 H 2441.79 -3.02636 0.253971 0
M  V30 27247 H 2439.37 -1.48183 0.1903 0
M  V30 27248 H 2441.25 -3.64166 -2.12041 0
M  V30 27249 H 2439.93 -2.44577 -2.12047 0
M  V30 27250 H 2438.84 -3.73589 -0.195478 0
M  V30 27251 H 2440.17 -4.91421 -0.276848 0
M  V30 27252 N 2441.82 -0.15856 -1.568 0
M  V30 27253 C 2442.73 0.789479 -2.20917 0
M  V30 27254 C 2443.75 1.26292 -1.19693 0
M  V30 27255 O 2444.92 1.3177 -1.52311 0
M  V30 27256 C 2441.99 2.0066 -2.82731 0
M  V30 27257 C 2441.05 1.58127 -3.99117 0
M  V30 27258 C 2440.28 2.74037 -4.57973 0
M  V30 27259 O 2440.51 3.90565 -4.15711 0
M  V30 27260 O 2439.44 2.48845 -5.48051 0
M  V30 27261 H 2443.27 0.273628 -3.02465 0
M  V30 27262 H 2440.85 0.0690286 -1.4924 0
M  V30 27263 H 2442.73 2.71866 -3.21973 0
M  V30 27264 H 2441.41 2.51175 -2.04188 0
M  V30 27265 H 2440.31 0.83909 -3.64568 0
M  V30 27266 H 2441.65 1.12316 -4.79214 0
M  V30 27267 N 2443.3 1.57178 0.115204 0
M  V30 27268 C 2444.23 2.03653 1.14227 0
M  V30 27269 C 2445.21 0.921681 1.42965 0
M  V30 27270 O 2446.4 1.19164 1.53341 0
M  V30 27271 C 2443.53 2.44405 2.46746 0
M  V30 27272 C 2442.48 3.59369 2.32461 0
M  V30 27273 C 2441.81 3.86033 3.69977 0
M  V30 27274 C 2443.11 4.90962 1.78194 0
M  V30 27275 H 2444.8 2.89706 0.755698 0
M  V30 27276 H 2442.35 1.39374 0.362068 0
M  V30 27277 H 2444.3 2.75523 3.1885 0
M  V30 27278 H 2443.02 1.55327 2.873 0
M  V30 27279 H 2441.68 3.28466 1.62805 0
M  V30 27280 H 2441.33 2.94154 4.08023 0
M  V30 27281 H 2441.03 4.63419 3.61271 0
M  V30 27282 H 2442.55 4.19606 4.4358 0
M  V30 27283 H 2443.97 5.20592 2.40119 0
M  V30 27284 H 2442.36 5.72374 1.803 0
M  V30 27285 H 2443.43 4.79223 0.739792 0
M  V30 27286 N 2444.78 -0.38549 1.52813 0
M  V30 27287 C 2446.19 -0.725804 1.42142 0
M  V30 27288 C 2446.39 -1.94 0.544624 0
M  V30 27289 O 2445.45 -2.52493 0.0194136 0
M  V30 27290 C 2446.76 -0.957618 2.85044 0
M  V30 27291 C 2448.31 -1.05887 2.94545 0
M  V30 27292 C 2448.79 -1.32329 4.38467 0
M  V30 27293 N 2450.28 -1.39143 4.41807 0
M  V30 27294 C 2451.01 -1.61275 5.50253 0
M  V30 27295 N 2450.51 -1.80854 6.68778 0
M  V30 27296 N 2452.3 -1.63483 5.37801 0
M  V30 27297 H 2444.45 0.413419 2.08338 0
M  V30 27298 H 2446.71 0.122792 0.940014 0
M  V30 27299 H 2446.42 -0.137507 3.51431 0
M  V30 27300 H 2446.29 -1.87131 3.27509 0
M  V30 27301 H 2448.68 -1.86955 2.28324 0
M  V30 27302 H 2448.76 -0.123012 2.55504 0
M  V30 27303 H 2448.41 -0.517704 5.05255 0
M  V30 27304 H 2448.34 -2.27205 4.75063 0
M  V30 27305 H 2450.83 -1.25707 3.56379 0
M  V30 27306 H 2451.14 -1.97258 7.47201 0
M  V30 27307 H 2449.49 -1.78072 6.718 0
M  V30 27308 H 2452.68 -1.47741 4.44174 0
M  V30 27309 H 2452.85 -1.80391 6.22385 0
M  V30 27310 N 2446.26 -1.43835 -0.644143 0
M  V30 27311 C 2447.67 -1.27435 -0.960853 0
M  V30 27312 C 2447.87 -0.200653 -2.00498 0
M  V30 27313 O 2446.93 0.417863 -2.49018 0
M  V30 27314 C 2448.24 -2.64169 -1.43649 0
M  V30 27315 C 2449.79 -2.71775 -1.55266 0
M  V30 27316 C 2450.26 -4.08948 -2.06217 0
M  V30 27317 N 2451.75 -4.11059 -2.13506 0
M  V30 27318 C 2452.49 -5.14038 -2.54072 0
M  V30 27319 N 2451.99 -6.27386 -2.93869 0
M  V30 27320 N 2453.78 -5.01392 -2.54092 0
M  V30 27321 H 2445.93 -2.12349 0.0466152 0
M  V30 27322 H 2448.19 -0.94708 -0.0417472 0
M  V30 27323 H 2447.9 -3.43748 -0.743646 0
M  V30 27324 H 2447.77 -2.9018 -2.40988 0
M  V30 27325 H 2450.16 -1.92523 -2.23649 0
M  V30 27326 H 2450.24 -2.4952 -0.563351 0
M  V30 27327 H 2449.88 -4.8867 -1.38433 0
M  V30 27328 H 2449.81 -4.28573 -3.05995 0
M  V30 27329 H 2452.31 -3.29246 -1.85488 0
M  V30 27330 H 2452.62 -7.01786 -3.23598 0
M  V30 27331 H 2450.96 -6.30844 -2.91651 0
M  V30 27332 H 2454.15 -4.11902 -2.22383 0
M  V30 27333 H 2454.33 -5.81773 -2.85383 0
M  V30 27334 N 2447.73 0.883355 -1.30517 0
M  V30 27335 C 2448.66 2.00538 -1.1961 0
M  V30 27336 C 2449.64 1.69881 -0.0863759 0
M  V30 27337 O 2450.83 1.92332 -0.268687 0
M  V30 27338 C 2447.96 3.35734 -0.888817 0
M  V30 27339 C 2446.91 3.80656 -1.95665 0
M  V30 27340 C 2446.24 5.13161 -1.50233 0
M  V30 27341 C 2447.54 3.99207 -3.36795 0
M  V30 27342 H 2449.23 2.09921 -2.13479 0
M  V30 27343 H 2446.78 1.00861 -1.02776 0
M  V30 27344 H 2448.73 4.13753 -0.799167 0
M  V30 27345 H 2447.46 3.26488 0.0855552 0
M  V30 27346 H 2446.12 3.04867 -2.03597 0
M  V30 27347 H 2445.76 5.00344 -0.51618 0
M  V30 27348 H 2445.46 5.44188 -2.21659 0
M  V30 27349 H 2446.99 5.93703 -1.4265 0
M  V30 27350 H 2448.4 4.6766 -3.31613 0
M  V30 27351 H 2446.8 4.41614 -4.06322 0
M  V30 27352 H 2447.87 3.03011 -3.78566 0
M  V30 27353 N 2449.21 1.13259 1.09591 0
M  V30 27354 C 2450.44 0.916765 1.86038 0
M  V30 27355 C 2450.86 -0.529114 1.80505 0
M  V30 27356 O 2450.22 -1.37532 1.1813 0
M  V30 27357 C 2450.27 1.40709 3.32014 0
M  V30 27358 O 2449.37 0.591225 4.0814 0
M  V30 27359 H 2448.71 0.328693 0.576937 0
M  V30 27360 H 2451.24 1.50685 1.38403 0
M  V30 27361 H 2451.25 1.40997 3.82863 0
M  V30 27362 H 2449.93 2.45985 3.35357 0
M  V30 27363 H 2448.5 0.656069 3.67083 0
M  V30 27364 N 2450.69 -1.27539 0.925834 0
M  V30 27365 C 2451.91 -1.99097 0.580959 0
M  V30 27366 C 2452.34 -1.68624 -0.833526 0
M  V30 27367 O 2451.7 -0.925449 -1.55901 0
M  V30 27368 C 2451.75 -3.51356 0.811248 0
M  V30 27369 O 2450.85 -4.12213 -0.124056 0
M  V30 27370 H 2450.19 -0.625118 0.223884 0
M  V30 27371 H 2452.72 -1.62393 1.24458 0
M  V30 27372 H 2452.73 -4.01487 0.726081 0
M  V30 27373 H 2451.41 -3.72869 1.84233 0
M  V30 27374 H 2449.98 -3.72898 0.0108661 0
M  V30 27375 N 2452.17 -0.691135 -1.41637 0
M  V30 27376 C 2453.08 -0.0233899 -2.34588 0
M  V30 27377 C 2454.09 0.770957 -1.55988 0
M  V30 27378 O 2455.27 0.709536 -1.88488 0
M  V30 27379 C 2452.33 0.904792 -3.34686 0
M  V30 27380 C 2451.4 0.10315 -4.29176 0
M  V30 27381 C 2450.63 0.987124 -5.24492 0
M  V30 27382 O 2450.85 2.22665 -5.25144 0
M  V30 27383 O 2449.79 0.439175 -6.00296 0
M  V30 27384 H 2453.61 -0.789468 -2.93259 0
M  V30 27385 H 2451.2 -0.451445 -1.42416 0
M  V30 27386 H 2453.08 1.43717 -3.96136 0
M  V30 27387 H 2451.75 1.65044 -2.78464 0
M  V30 27388 H 2450.66 -0.473721 -3.71089 0
M  V30 27389 H 2451.99 -0.603735 -4.88483 0
M  V30 27390 N 2453.65 1.51461 -0.435577 0
M  V30 27391 C 2454.89 2.02372 0.131673 0
M  V30 27392 C 2455.22 1.31922 1.42514 0
M  V30 27393 O 2454.5 0.433606 1.89605 0
M  V30 27394 C 2454.78 3.58373 0.352238 0
M  V30 27395 C 2454.64 4.39441 -0.959754 0
M  V30 27396 C 2455.95 4.25537 1.12279 0
M  V30 27397 H 2453.07 0.735539 0.0463807 0
M  V30 27398 H 2455.72 1.81115 -0.574229 0
M  V30 27399 H 2453.87 3.76616 0.953534 0
M  V30 27400 H 2455.54 4.32852 -1.5949 0
M  V30 27401 H 2453.78 4.04596 -1.56475 0
M  V30 27402 H 2454.45 5.4675 -0.75949 0
M  V30 27403 H 2456.93 4.11553 0.613473 0
M  V30 27404 H 2455.8 5.34574 1.24588 0
M  V30 27405 H 2456.06 3.86277 2.15041 0
M  V30 27406 N 2455.12 0.166873 1.56714 0
M  V30 27407 C 2456.03 -0.777752 2.21333 0
M  V30 27408 C 2457.05 -1.25656 1.20361 0
M  V30 27409 O 2458.23 -1.30961 1.53007 0
M  V30 27410 C 2455.29 -1.99158 2.83791 0
M  V30 27411 C 2454.35 -1.56009 3.9995 0
M  V30 27412 C 2453.59 -2.71605 4.5942 0
M  V30 27413 O 2453.81 -3.88355 4.17776 0
M  V30 27414 O 2452.74 -2.45935 5.49363 0
M  V30 27415 H 2456.57 -0.257583 3.02606 0
M  V30 27416 H 2454.15 -0.061113 1.49275 0
M  V30 27417 H 2456.04 -2.70155 3.2341 0
M  V30 27418 H 2454.71 -2.50089 2.05517 0
M  V30 27419 H 2453.62 -0.819745 3.65008 0
M  V30 27420 H 2454.95 -1.09773 4.79803 0
M  V30 27421 N 2456.6 -1.57237 -0.106866 0
M  V30 27422 C 2457.57 -2.00272 -1.11462 0
M  V30 27423 C 2458.57 -0.894542 -1.33621 0
M  V30 27424 O 2459.76 -1.1603 -1.29933 0
M  V30 27425 C 2456.89 -2.35331 -2.46642 0
M  V30 27426 H 2458.08 -2.90513 -0.744465 0
M  V30 27427 H 2455.63 -1.52295 -0.35155 0
M  V30 27428 H 2456.37 -1.48008 -2.88555 0
M  V30 27429 H 2456.15 -3.16165 -2.31909 0
M  V30 27430 H 2457.64 -2.69324 -3.19146 0
M  V30 27431 N 2458.08 0.377381 -1.53015 0
M  V30 27432 C 2459.01 1.46788 -1.81592 0
M  V30 27433 C 2459.99 1.56407 -0.66865 0
M  V30 27434 O 2461.18 1.71167 -0.917367 0
M  V30 27435 C 2458.31 2.84267 -1.99524 0
M  V30 27436 C 2457.26 2.8948 -3.15254 0
M  V30 27437 C 2456.59 4.29521 -3.18459 0
M  V30 27438 C 2457.89 2.58071 -4.54089 0
M  V30 27439 H 2459.58 1.23123 -2.72912 0
M  V30 27440 H 2457.13 0.59086 -1.3132 0
M  V30 27441 H 2459.08 3.60571 -2.18098 0
M  V30 27442 H 2457.8 3.09294 -1.04903 0
M  V30 27443 H 2456.46 2.15626 -2.96481 0
M  V30 27444 H 2456.11 4.51606 -2.21498 0
M  V30 27445 H 2455.81 4.33927 -3.96208 0
M  V30 27446 H 2457.33 5.07715 -3.39202 0
M  V30 27447 H 2458.75 3.2409 -4.72904 0
M  V30 27448 H 2457.15 2.73811 -5.33992 0
M  V30 27449 H 2458.22 1.53364 -4.60008 0
M  V30 27450 N 2459.56 1.44175 0.636506 0
M  V30 27451 C 2460.97 1.27943 0.954081 0
M  V30 27452 C 2461.17 0.211283 2.00389 0
M  V30 27453 O 2460.23 -0.404651 2.49236 0
M  V30 27454 C 2461.54 2.64928 1.42246 0
M  V30 27455 C 2463.09 2.72594 1.53822 0
M  V30 27456 C 2463.57 4.10036 2.04045 0
M  V30 27457 N 2465.06 4.12185 2.11323 0
M  V30 27458 C 2465.79 5.15378 2.51343 0
M  V30 27459 N 2465.29 6.28935 2.90538 0
M  V30 27460 N 2467.08 5.02732 2.51429 0
M  V30 27461 H 2459.23 2.12321 -0.0578759 0
M  V30 27462 H 2461.5 0.947288 0.036724 0
M  V30 27463 H 2461.2 3.44138 0.725406 0
M  V30 27464 H 2461.08 2.91454 2.39446 0
M  V30 27465 H 2463.46 1.93706 2.22625 0
M  V30 27466 H 2463.54 2.49815 0.550111 0
M  V30 27467 H 2463.19 4.89398 1.35839 0
M  V30 27468 H 2463.12 4.30189 3.03718 0
M  V30 27469 H 2465.61 3.30225 1.83739 0
M  V30 27470 H 2465.92 7.03493 3.19872 0
M  V30 27471 H 2464.27 6.32382 2.88302 0
M  V30 27472 H 2467.46 4.13075 2.20196 0
M  V30 27473 H 2467.63 5.83279 2.82294 0
M  V30 27474 N 2461.04 -0.876421 1.30983 0
M  V30 27475 C 2462.45 -1.16111 1.095 0
M  V30 27476 C 2462.65 -2.01022 -0.138714 0
M  V30 27477 O 2461.71 -2.38472 -0.829893 0
M  V30 27478 C 2463.02 -1.8595 2.36312 0
M  V30 27479 C 2464.57 -1.98678 2.41859 0
M  V30 27480 C 2465.04 -2.7193 3.68535 0
M  V30 27481 N 2466.54 -2.7947 3.69392 0
M  V30 27482 C 2467.27 -3.36745 4.64101 0
M  V30 27483 N 2466.77 -3.95002 5.69162 0
M  V30 27484 N 2468.56 -3.34642 4.51632 0
M  V30 27485 H 2460.71 -0.310457 2.10119 0
M  V30 27486 H 2462.97 -0.200115 0.926638 0
M  V30 27487 H 2462.68 -1.31005 3.2639 0
M  V30 27488 H 2462.55 -2.86274 2.45615 0
M  V30 27489 H 2464.94 -2.5279 1.52254 0
M  V30 27490 H 2465.02 -0.974158 2.36524 0
M  V30 27491 H 2464.67 -2.18488 4.58503 0
M  V30 27492 H 2464.6 -3.73587 3.71134 0
M  V30 27493 H 2467.09 -2.38118 2.93442 0
M  V30 27494 H 2467.4 -4.36797 6.37517 0
M  V30 27495 H 2465.74 -3.93396 5.72944 0
M  V30 27496 H 2468.94 -2.88363 3.68733 0
M  V30 27497 H 2469.11 -3.78981 5.25621 0
M  V30 27498 N 2462.51 -1.13839 -1.08989 0
M  V30 27499 C 2463.45 -0.77765 -2.15604 0
M  V30 27500 C 2464.46 0.202711 -1.61533 0
M  V30 27501 O 2465.65 -0.0181369 -1.78491 0
M  V30 27502 C 2462.75 -0.132682 -3.3864 0
M  V30 27503 C 2461.92 -1.14627 -4.22113 0
M  V30 27504 C 2460.98 -0.526166 -5.23563 0
M  V30 27505 O 2460.01 -1.18745 -5.56676 0
M  V30 27506 N 2461.21 0.699765 -5.76267 0
M  V30 27507 H 2463.97 -1.6951 -2.47156 0
M  V30 27508 H 2461.53 -1.032 -1.24745 0
M  V30 27509 H 2463.53 0.294519 -4.03627 0
M  V30 27510 H 2462.1 0.687795 -3.0494 0
M  V30 27511 H 2461.32 -1.75061 -3.53196 0
M  V30 27512 H 2462.6 -1.83117 -4.74706 0
M  V30 27513 H 2462 1.25571 -5.51587 0
M  V30 27514 H 2460.56 1.06956 -6.42965 0
M  V30 27515 N 2463.99 1.27046 -0.932584 0
M  V30 27516 C 2464.92 2.29065 -0.452942 0
M  V30 27517 C 2465.9 1.6291 0.48931 0
M  V30 27518 O 2467.09 1.90182 0.393013 0
M  V30 27519 C 2464.22 3.46082 0.290637 0
M  V30 27520 C 2463.17 4.24264 -0.564242 0
M  V30 27521 C 2462.5 5.33808 0.308793 0
M  V30 27522 C 2463.8 4.89146 -1.83121 0
M  V30 27523 H 2465.49 2.69435 -1.30557 0
M  V30 27524 H 2463.04 1.29525 -0.629224 0
M  V30 27525 H 2464.99 4.16555 0.63716 0
M  V30 27526 H 2463.72 3.04642 1.17733 0
M  V30 27527 H 2462.37 3.55544 -0.89354 0
M  V30 27528 H 2462.02 4.88609 1.19458 0
M  V30 27529 H 2461.72 5.87026 -0.259736 0
M  V30 27530 H 2463.25 6.07122 0.650777 0
M  V30 27531 H 2464.66 5.5188 -1.55246 0
M  V30 27532 H 2463.06 5.52444 -2.34363 0
M  V30 27533 H 2464.13 4.12572 -2.5478 0
M  V30 27534 N 2465.47 0.698636 1.41269 0
M  V30 27535 C 2466.4 0.04967 2.33447 0
M  V30 27536 C 2467.38 -0.763871 1.51984 0
M  V30 27537 O 2468.57 -0.716225 1.8051 0
M  V30 27538 C 2465.7 -0.885208 3.35829 0
M  V30 27539 C 2464.65 -0.178537 4.27627 0
M  V30 27540 C 2463.98 -1.22798 5.20408 0
M  V30 27541 C 2465.28 0.957023 5.13457 0
M  V30 27542 H 2466.97 0.819561 2.87965 0
M  V30 27543 H 2464.52 0.395562 1.3846 0
M  V30 27544 H 2466.47 -1.34847 3.99242 0
M  V30 27545 H 2465.19 -1.6868 2.79669 0
M  V30 27546 H 2463.85 0.264724 3.65643 0
M  V30 27547 H 2463.5 -2.02218 4.60561 0
M  V30 27548 H 2463.2 -0.760136 5.82663 0
M  V30 27549 H 2464.72 -1.69169 5.86698 0
M  V30 27550 H 2466.14 0.573905 5.7042 0
M  V30 27551 H 2464.54 1.35216 5.84668 0
M  V30 27552 H 2465.61 1.79532 4.5044 0
M  V30 27553 N 2466.95 -1.51228 0.443603 0
M  V30 27554 C 2467.88 -2.25673 -0.400568 0
M  V30 27555 C 2468.89 -1.2993 -0.980922 0
M  V30 27556 O 2470.08 -1.55639 -0.873997 0
M  V30 27557 C 2467.18 -3.00184 -1.57299 0
M  V30 27558 C 2466.36 -4.23071 -1.11039 0
M  V30 27559 C 2465.41 -4.80108 -2.15366 0
M  V30 27560 O 2464.44 -5.41778 -1.74544 0
M  V30 27561 N 2465.64 -4.64689 -3.47914 0
M  V30 27562 H 2468.41 -2.98757 0.237502 0
M  V30 27563 H 2465.97 -1.59584 0.272837 0
M  V30 27564 H 2467.96 -3.35227 -2.26727 0
M  V30 27565 H 2466.53 -2.3007 -2.11628 0
M  V30 27566 H 2465.75 -3.93451 -0.24295 0
M  V30 27567 H 2467.04 -5.02804 -0.7788 0
M  V30 27568 H 2466.44 -4.15582 -3.83807 0
M  V30 27569 H 2464.99 -5.04077 -4.13219 0
M  V30 27570 N 2468.43 -0.175182 -1.56623 0
M  V30 27571 C 2469.34 0.766003 -2.21742 0
M  V30 27572 C 2470.35 1.25015 -1.21025 0
M  V30 27573 O 2471.53 1.30148 -1.537 0
M  V30 27574 C 2468.59 1.9765 -2.84843 0
M  V30 27575 C 2467.65 1.53885 -4.00772 0
M  V30 27576 C 2466.89 2.69165 -4.60854 0
M  V30 27577 O 2467.11 3.86134 -4.1983 0
M  V30 27578 O 2466.04 2.43018 -5.50659 0
M  V30 27579 H 2469.87 0.241532 -3.02738 0
M  V30 27580 H 2467.46 0.0531958 -1.49305 0
M  V30 27581 H 2469.34 2.68436 -3.24838 0
M  V30 27582 H 2468.01 2.48995 -2.06841 0
M  V30 27583 H 2466.92 0.800376 -3.65438 0
M  V30 27584 H 2468.25 1.07227 -4.80378 0
M  V30 27585 N 2469.91 1.57292 0.0985263 0
M  V30 27586 C 2470.84 1.98498 1.14592 0
M  V30 27587 C 2471.85 0.887055 1.36511 0
M  V30 27588 O 2473.04 1.1652 1.35223 0
M  V30 27589 C 2470.14 2.28576 2.50212 0
M  V30 27590 C 2469.31 3.59872 2.48617 0
M  V30 27591 C 2468.37 3.77927 3.66139 0
M  V30 27592 O 2467.4 4.49818 3.48787 0
M  V30 27593 N 2468.6 3.18244 4.85491 0
M  V30 27594 H 2471.36 2.88957 0.795227 0
M  V30 27595 H 2468.93 1.59326 0.287551 0
M  V30 27596 H 2470.92 2.37851 3.27428 0
M  V30 27597 H 2469.49 1.44141 2.77384 0
M  V30 27598 H 2468.71 3.61599 1.56972 0
M  V30 27599 H 2470 4.46134 2.44627 0
M  V30 27600 H 2469.39 2.59842 5.02492 0
M  V30 27601 H 2467.95 3.33009 5.60311 0
M  V30 27602 N 2471.38 -0.369261 1.53213 0
M  V30 27603 C 2472.29 -1.47606 1.82345 0
M  V30 27604 C 2473.31 -1.58785 0.71156 0
M  V30 27605 O 2474.49 -1.74749 1.00123 0
M  V30 27606 C 2471.55 -2.82916 2.00398 0
M  V30 27607 C 2470.61 -2.81295 3.24302 0
M  V30 27608 C 2469.84 -4.10151 3.41485 0
M  V30 27609 O 2470.07 -5.06127 2.63042 0
M  V30 27610 O 2469 -4.16187 4.34824 0
M  V30 27611 H 2472.83 -1.25913 2.76368 0
M  V30 27612 H 2470.41 -0.559009 1.38548 0
M  V30 27613 H 2472.29 -3.63097 2.13866 0
M  V30 27614 H 2470.97 -3.04594 1.09564 0
M  V30 27615 H 2469.88 -1.99825 3.1626 0
M  V30 27616 H 2471.21 -2.64571 4.15046 0
M  V30 27617 N 2472.86 -1.4451 -0.628851 0
M  V30 27618 C 2474.09 -1.51122 -1.42045 0
M  V30 27619 C 2474.51 -0.13785 -1.87594 0
M  V30 27620 O 2473.87 0.873409 -1.58875 0
M  V30 27621 C 2473.92 -2.48256 -2.61537 0
M  V30 27622 O 2473.02 -1.98566 -3.61449 0
M  V30 27623 H 2472.36 -0.510224 -0.424933 0
M  V30 27624 H 2474.89 -1.89666 -0.767341 0
M  V30 27625 H 2474.9 -2.66366 -3.09052 0
M  V30 27626 H 2473.58 -3.48011 -2.2773 0
M  V30 27627 H 2472.15 -1.90232 -3.20727 0
M  V30 27628 N 2474.34 0.869463 -1.31446 0
M  V30 27629 C 2475.59 1.62494 -1.2134 0
M  V30 27630 C 2475.92 1.92859 0.227838 0
M  V30 27631 O 2475.19 1.56055 1.16091 0
M  V30 27632 C 2475.48 2.95483 -2.05819 0
M  V30 27633 C 2475.33 2.71994 -3.58245 0
M  V30 27634 C 2476.65 3.96591 -1.90797 0
M  V30 27635 H 2473.77 0.589641 -0.442145 0
M  V30 27636 H 2476.41 1.00505 -1.61241 0
M  V30 27637 H 2474.56 3.48391 -1.71919 0
M  V30 27638 H 2476.23 2.25755 -4.02284 0
M  V30 27639 H 2474.47 2.06217 -3.8165 0
M  V30 27640 H 2475.15 3.66624 -4.12663 0
M  V30 27641 H 2477.62 3.52894 -2.20465 0
M  V30 27642 H 2476.5 4.87527 -2.52208 0
M  V30 27643 H 2476.76 4.33427 -0.871417 0
M  V30 27644 N 2475.82 1.14415 1.08383 0
M  V30 27645 C 2476.76 0.831303 2.15309 0
M  V30 27646 C 2477.73 -0.211263 1.64751 0
M  V30 27647 O 2478.92 -0.0811339 1.90627 0
M  V30 27648 C 2476.06 0.315203 3.43658 0
M  V30 27649 C 2475.17 1.4181 4.08061 0
M  V30 27650 C 2474.31 0.859218 5.24205 0
M  V30 27651 C 2473.35 1.93977 5.80551 0
M  V30 27652 N 2472.48 1.39805 6.8804 0
M  V30 27653 H 2477.32 1.74713 2.41411 0
M  V30 27654 H 2474.86 0.871929 1.18473 0
M  V30 27655 H 2476.82 -0.0022355 4.172 0
M  V30 27656 H 2475.45 -0.563724 3.1784 0
M  V30 27657 H 2474.5 1.85193 3.32277 0
M  V30 27658 H 2475.81 2.23434 4.45958 0
M  V30 27659 H 2474.97 0.493697 6.04688 0
M  V30 27660 H 2473.71 0.0120177 4.87699 0
M  V30 27661 H 2472.71 2.31424 4.98721 0
M  V30 27662 H 2473.94 2.79057 6.19116 0
M  V30 27663 H 2471.88 0.573034 6.53492 0
M  V30 27664 H 2471.8 2.15067 7.24764 0
M  V30 27665 H 2473.07 1.06044 7.72253 0
M  V30 27666 N 2477.3 -1.26549 0.939309 0
M  V30 27667 C 2478.23 -2.25598 0.404743 0
M  V30 27668 C 2479.24 -1.55839 -0.470955 0
M  V30 27669 O 2480.43 -1.76263 -0.281703 0
M  V30 27670 C 2477.53 -3.36063 -0.437581 0
M  V30 27671 C 2476.7 -4.35364 0.421525 0
M  V30 27672 C 2475.76 -5.24967 -0.360058 0
M  V30 27673 O 2474.79 -5.68709 0.236267 0
M  V30 27674 N 2475.99 -5.56347 -1.65706 0
M  V30 27675 H 2478.75 -2.72101 1.25622 0
M  V30 27676 H 2476.32 -1.40297 0.807988 0
M  V30 27677 H 2478.31 -3.92958 -0.967797 0
M  V30 27678 H 2476.88 -2.8907 -1.18986 0
M  V30 27679 H 2476.1 -3.77568 1.13297 0
M  V30 27680 H 2477.39 -4.98706 1.00844 0
M  V30 27681 H 2476.78 -5.22686 -2.16369 0
M  V30 27682 H 2475.34 -6.15892 -2.13356 0
M  V30 27683 N 2478.77 -0.706118 -1.40896 0
M  V30 27684 C 2479.74 -0.0563244 -2.29131 0
M  V30 27685 C 2480.74 0.697141 -1.44902 0
M  V30 27686 O 2481.93 0.530455 -1.65927 0
M  V30 27687 C 2479.06 0.930372 -3.27959 0
M  V30 27688 H 2480.25 -0.833334 -2.88089 0
M  V30 27689 H 2477.8 -0.470218 -1.49059 0
M  V30 27690 H 2478.54 1.73477 -2.74 0
M  V30 27691 H 2478.32 0.393098 -3.90125 0
M  V30 27692 H 2479.81 1.38249 -3.94052 0
M  V30 27693 N 2480.25 1.50991 -0.451617 0
M  V30 27694 C 2481.2 2.24964 0.370822 0
M  V30 27695 C 2482.19 1.27761 0.978052 0
M  V30 27696 O 2483.38 1.52773 0.893827 0
M  V30 27697 C 2480.51 3.10548 1.46339 0
M  V30 27698 C 2479.59 4.15188 0.864852 0
M  V30 27699 N 2479.98 5.058 -0.00320245 0
M  V30 27700 C 2478.28 4.31424 1.13091 0
M  V30 27701 C 2478.98 5.807 -0.340874 0
M  V30 27702 N 2477.96 5.42883 0.279107 0
M  V30 27703 H 2481.76 2.92383 -0.298186 0
M  V30 27704 H 2479.27 1.60231 -0.264556 0
M  V30 27705 H 2481.27 3.62132 2.06558 0
M  V30 27706 H 2479.93 2.44674 2.13459 0
M  V30 27707 H 2480.94 5.16572 -0.370671 0
M  V30 27708 H 2477.62 3.76774 1.79854 0
M  V30 27709 H 2479.01 6.63675 -1.04812 0
M  V30 27710 N 2481.73 0.183486 1.56528 0
M  V30 27711 C 2482.66 -0.737417 2.2155 0
M  V30 27712 C 2483.64 -1.23003 1.17492 0
M  V30 27713 O 2484.83 -1.28098 1.45961 0
M  V30 27714 C 2481.96 -1.96189 2.86578 0
M  V30 27715 C 2480.91 -1.60466 3.9678 0
M  V30 27716 C 2480.24 -2.90479 4.48917 0
M  V30 27717 C 2481.54 -0.823406 5.15769 0
M  V30 27718 H 2483.23 -0.195401 2.98762 0
M  V30 27719 H 2480.78 -0.0925433 1.43702 0
M  V30 27720 H 2482.73 -2.61125 3.30744 0
M  V30 27721 H 2481.45 -2.52825 2.06754 0
M  V30 27722 H 2480.11 -0.978935 3.53288 0
M  V30 27723 H 2479.76 -3.4518 3.65869 0
M  V30 27724 H 2479.46 -2.67326 5.23269 0
M  V30 27725 H 2480.98 -3.56423 4.95777 0
M  V30 27726 H 2482.4 -1.37561 5.56552 0
M  V30 27727 H 2480.79 -0.690446 5.96115 0
M  V30 27728 H 2481.86 0.177867 4.84574 0
M  V30 27729 N 2483.21 -1.57342 -0.0901833 0
M  V30 27730 C 2484.62 -1.53285 -0.44452 0
M  V30 27731 C 2484.82 -0.900945 -1.80237 0
M  V30 27732 O 2483.88 -0.495556 -2.47589 0
M  V30 27733 C 2485.19 -2.97994 -0.402491 0
M  V30 27734 C 2486.74 -3.09235 -0.483996 0
M  V30 27735 C 2487.22 -4.55561 -0.472064 0
M  V30 27736 N 2488.71 -4.60127 -0.532676 0
M  V30 27737 C 2489.44 -5.70801 -0.545362 0
M  V30 27738 N 2488.94 -6.90891 -0.51396 0
M  V30 27739 N 2490.73 -5.58989 -0.590542 0
M  V30 27740 H 2482.88 -1.96792 0.799156 0
M  V30 27741 H 2485.14 -0.899951 0.29798 0
M  V30 27742 H 2484.85 -3.47711 0.528167 0
M  V30 27743 H 2484.72 -3.56938 -1.21963 0
M  V30 27744 H 2487.11 -2.59503 -1.40507 0
M  V30 27745 H 2487.19 -2.53235 0.361373 0
M  V30 27746 H 2486.84 -5.05946 0.445089 0
M  V30 27747 H 2486.77 -5.09404 -1.33471 0
M  V30 27748 H 2489.26 -3.73699 -0.56194 0
M  V30 27749 H 2489.57 -7.71001 -0.527059 0
M  V30 27750 H 2487.92 -6.93334 -0.480932 0
M  V30 27751 H 2491.11 -4.64074 -0.612638 0
M  V30 27752 H 2491.28 -6.45244 -0.59696 0
M  V30 27753 N 2484.69 0.36113 -1.53407 0
M  V30 27754 C 2485.63 1.46293 -1.80834 0
M  V30 27755 C 2486.63 1.55252 -0.677727 0
M  V30 27756 O 2487.83 1.58086 -0.860751 0
M  V30 27757 H 2484.21 0.487435 -0.572635 0
M  V30 27758 H 2486.18 1.20366 -2.73047 0
M  V30 27759 C 2484.93 2.83067 -2.01912 0
M  V30 27760 H 2484.25 2.76933 -2.88354 0
M  V30 27761 H 2485.69 3.59327 -2.25079 0
M  V30 27762 C 2484.15 3.27276 -0.799506 0
M  V30 27763 O 2484.68 4.01699 0.00964701 0
M  V30 27764 N 2482.89 2.83872 -0.621687 0
M  V30 27765 H 2482.43 2.23474 -1.2813 0
M  V30 27766 H 2482.39 3.13808 0.192925 0
M  V30 27767 N 2486.16 1.44842 0.621179 0
M  V30 27768 C 2487.07 1.54983 1.76117 0
M  V30 27769 C 2488.09 0.434957 1.68476 0
M  V30 27770 O 2489.27 0.693726 1.89075 0
M  V30 27771 C 2486.33 1.5007 3.12538 0
M  V30 27772 C 2485.39 2.72488 3.31736 0
M  V30 27773 C 2484.63 2.678 4.61648 0
M  V30 27774 O 2484.85 1.74361 5.43097 0
M  V30 27775 O 2483.78 3.58802 4.83265 0
M  V30 27776 H 2487.61 2.51314 1.70514 0
M  V30 27777 H 2485.19 1.272 0.783621 0
M  V30 27778 H 2487.08 1.49889 3.93842 0
M  V30 27779 H 2485.75 0.568862 3.18662 0
M  V30 27780 H 2484.66 2.78235 2.50072 0
M  V30 27781 H 2485.99 3.64752 3.3048 0
M  V30 27782 N 2487.64 -0.862479 1.31905 0
M  V30 27783 C 2488.59 -1.95825 1.16775 0
M  V30 27784 C 2489.58 -1.60717 0.076738 0
M  V30 27785 O 2490.77 -1.74397 0.302437 0
M  V30 27786 C 2487.9 -3.31699 0.884916 0
M  V30 27787 C 2486.98 -3.73051 2.01726 0
M  V30 27788 N 2487.37 -3.86299 3.26507 0
M  V30 27789 C 2485.67 -4.0262 1.91868 0
M  V30 27790 C 2486.37 -4.21753 4.00624 0
M  V30 27791 N 2485.35 -4.32846 3.28854 0
M  V30 27792 H 2489.15 -2.0419 2.11385 0
M  V30 27793 H 2486.67 -1.05375 1.23571 0
M  V30 27794 H 2488.66 -4.09961 0.757492 0
M  V30 27795 H 2487.32 -3.24657 -0.0528877 0
M  V30 27796 H 2488.33 -3.70827 3.61535 0
M  V30 27797 H 2485.01 -4.03924 1.056 0
M  V30 27798 H 2486.4 -4.39537 5.0819 0
M  V30 27799 N 2489.12 -1.14988 -1.07775 0
M  V30 27800 C 2490.37 -0.922088 -1.80288 0
M  V30 27801 C 2490.7 0.551017 -1.86532 0
M  V30 27802 O 2489.95 1.42447 -1.34191 0
M  V30 27803 C 2490.25 -1.47613 -3.25492 0
M  V30 27804 C 2489.92 -2.96898 -3.39355 0
M  V30 27805 C 2488.58 -3.37653 -3.42846 0
M  V30 27806 C 2490.93 -3.9286 -3.42506 0
M  V30 27807 C 2488.26 -4.73021 -3.47086 0
M  V30 27808 C 2490.61 -5.28094 -3.48281 0
M  V30 27809 C 2489.27 -5.68351 -3.50048 0
M  V30 27810 H 2488.54 -0.337416 -0.659721 0
M  V30 27811 H 2491.19 -1.43461 -1.26851 0
M  V30 27812 H 2489.5 -0.884697 -3.81681 0
M  V30 27813 H 2491.19 -1.27574 -3.80165 0
M  V30 27814 H 2487.78 -2.64393 -3.37334 0
M  V30 27815 H 2491.97 -3.6245 -3.39033 0
M  V30 27816 H 2487.22 -5.03562 -3.46749 0
M  V30 27817 H 2491.4 -6.02252 -3.49665 0
M  V30 27818 H 2489.02 -6.73227 -3.53085 0
M  V30 27819 N 2490.6 1.26049 -0.946007 0
M  V30 27820 C 2491.53 2.2538 -0.416702 0
M  V30 27821 C 2492.54 1.56087 0.462684 0
M  V30 27822 O 2493.73 1.7641 0.272352 0
M  V30 27823 C 2490.83 3.3629 0.419753 0
M  V30 27824 C 2490.01 4.35134 -0.444608 0
M  V30 27825 C 2489.06 5.2515 0.332212 0
M  V30 27826 O 2488.09 5.68576 -0.266423 0
M  V30 27827 N 2489.29 5.57218 1.62753 0
M  V30 27828 H 2492.06 2.71431 -1.27064 0
M  V30 27829 H 2489.62 1.39866 -0.815417 0
M  V30 27830 H 2491.61 3.93465 0.946944 0
M  V30 27831 H 2490.18 2.89696 1.17451 0
M  V30 27832 H 2489.4 3.76962 -1.15297 0
M  V30 27833 H 2490.69 4.98164 -1.03487 0
M  V30 27834 H 2490.09 5.23826 2.13594 0
M  V30 27835 H 2488.64 6.17015 2.10086 0
M  V30 27836 N 2492.08 0.71358 1.4052 0
M  V30 27837 C 2493.02 0.0597246 2.30723 0
M  V30 27838 C 2493.99 -0.752422 1.4808 0
M  V30 27839 O 2495.18 -0.716779 1.76825 0
M  V30 27840 C 2492.32 -0.857535 3.34276 0
M  V30 27841 C 2491.43 -0.0350776 4.31986 0
M  V30 27842 C 2490.57 -0.951632 5.22606 0
M  V30 27843 C 2489.61 -0.123146 6.11976 0
M  V30 27844 N 2488.74 -0.994468 6.95021 0
M  V30 27845 H 2493.58 0.834646 2.86073 0
M  V30 27846 H 2491.12 0.423285 1.40878 0
M  V30 27847 H 2493.08 -1.40357 3.92881 0
M  V30 27848 H 2491.71 -1.59866 2.80433 0
M  V30 27849 H 2490.76 0.628118 3.75178 0
M  V30 27850 H 2492.07 0.606434 4.951 0
M  V30 27851 H 2491.23 -1.56627 5.86134 0
M  V30 27852 H 2489.96 -1.62697 4.59762 0
M  V30 27853 H 2488.97 0.504446 5.47481 0
M  V30 27854 H 2490.19 0.548658 6.7688 0
M  V30 27855 H 2488.14 -1.65549 6.34767 0
M  V30 27856 H 2488.06 -0.408947 7.54893 0
M  V30 27857 H 2489.33 -1.59535 7.63 0
M  V30 27858 N 2493.55 -1.50749 0.459618 0
M  V30 27859 C 2494.52 -2.26826 -0.329053 0
M  V30 27860 C 2495.52 -1.31145 -0.930458 0
M  V30 27861 O 2496.71 -1.5467 -0.801426 0
M  V30 27862 C 2493.84 -3.07691 -1.46763 0
M  V30 27863 H 2495.03 -2.97989 0.337977 0
M  V30 27864 H 2492.59 -1.54837 0.213363 0
M  V30 27865 H 2493.32 -2.40996 -2.17005 0
M  V30 27866 H 2493.11 -3.77992 -1.04231 0
M  V30 27867 H 2494.6 -3.65258 -2.02427 0
M  V30 27868 N 2495.03 -0.191784 -1.56429 0
M  V30 27869 C 2496.28 0.448053 -1.96661 0
M  V30 27870 C 2496.59 1.62989 -1.08139 0
M  V30 27871 O 2497.8 2.3373 -1.38139 0
M  V30 27872 C 2496.26 0.848524 -3.49754 0
M  V30 27873 C 2495.86 -0.308842 -4.46934 0
M  V30 27874 C 2497.61 1.45563 -3.98763 0
M  V30 27875 C 2495.52 0.112402 -5.91293 0
M  V30 27876 H 2494.45 0.171166 -0.734315 0
M  V30 27877 H 2497.1 -0.283274 -1.813 0
M  V30 27878 H 2495.48 1.63642 -3.60607 0
M  V30 27879 H 2496.65 -1.08635 -4.47811 0
M  V30 27880 H 2494.97 -0.827229 -4.081 0
M  V30 27881 H 2497.56 1.78319 -5.0409 0
M  V30 27882 H 2497.91 2.36093 -3.42879 0
M  V30 27883 H 2498.44 0.731768 -3.91012 0
M  V30 27884 H 2495.18 -0.758629 -6.51095 0
M  V30 27885 H 2494.7 0.854837 -5.93677 0
M  V30 27886 H 2496.38 0.549335 -6.44664 0
M  V30 27887 N 2496.51 1.57387 0.0818378 0
M  V30 27888 C 2497.42 2.06335 1.11639 0
M  V30 27889 C 2498.44 0.990856 1.43032 0
M  V30 27890 O 2499.61 1.3049 1.53409 0
M  V30 27891 C 2496.68 2.48911 2.41338 0
M  V30 27892 C 2495.74 3.70414 2.17007 0
M  V30 27893 C 2494.97 4.1095 3.40522 0
M  V30 27894 O 2495.19 3.51452 4.49263 0
M  V30 27895 O 2494.13 5.03813 3.29327 0
M  V30 27896 H 2497.95 2.94781 0.730605 0
M  V30 27897 H 2495.54 1.46453 0.295276 0
M  V30 27898 H 2497.42 2.76864 3.17686 0
M  V30 27899 H 2496.1 1.63598 2.79316 0
M  V30 27900 H 2495 3.47559 1.38397 0
M  V30 27901 H 2496.34 4.56548 1.83915 0
M  V30 27902 N 2497.99 -0.35299 1.53596 0
M  V30 27903 C 2499.27 -1.11072 1.61004 0
M  V30 27904 C 2499.65 -2.06769 0.425393 0
M  V30 27905 O 2498.99 -2.20931 -0.583229 0
M  V30 27906 C 2499.2 -1.83872 2.96635 0
M  V30 27907 C 2500.55 -2.37955 3.51657 0
M  V30 27908 O 2501.58 -1.93981 2.98747 0
M  V30 27909 O 2500.43 -3.18378 4.44182 0
M  V30 27910 H 2497.53 -0.510239 0.650834 0
M  V30 27911 H 2500.07 -0.355241 1.6594 0
M  V30 27912 H 2498.85 -1.14101 3.74295 0
M  V30 27913 H 2498.47 -2.66299 2.95246 0
M  V30 27914 N 2499.47 -1.45169 -0.613489 0
M  V30 27915 C 2500.41 -1.5339 -1.72454 0
M  V30 27916 C 2501.38 -0.38022 -1.6169 0
M  V30 27917 O 2502.57 -0.592868 -1.81355 0
M  V30 27918 C 2499.71 -1.50094 -3.10751 0
M  V30 27919 C 2498.82 -2.75968 -3.32363 0
M  V30 27920 C 2497.96 -2.64384 -4.60732 0
M  V30 27921 C 2497 -3.8534 -4.75583 0
M  V30 27922 N 2496.13 -3.72326 -5.95246 0
M  V30 27923 H 2500.97 -2.48308 -1.64764 0
M  V30 27924 H 2498.51 -1.23218 -0.803481 0
M  V30 27925 H 2500.47 -1.46171 -3.90755 0
M  V30 27926 H 2499.1 -0.587299 -3.17412 0
M  V30 27927 H 2498.15 -2.90003 -2.46175 0
M  V30 27928 H 2499.46 -3.65701 -3.39212 0
M  V30 27929 H 2498.62 -2.58394 -5.48924 0
M  V30 27930 H 2497.36 -1.72241 -4.56272 0
M  V30 27931 H 2496.36 -3.91695 -3.85817 0
M  V30 27932 H 2497.59 -4.78541 -4.81845 0
M  V30 27933 H 2495.53 -2.82948 -5.91842 0
M  V30 27934 H 2495.45 -4.55688 -6.03228 0
M  V30 27935 H 2496.72 -3.70258 -6.85951 0
M  V30 27936 N 2500.95 0.855472 -1.32361 0
M  V30 27937 C 2502.17 1.64729 -1.26013 0
M  V30 27938 C 2502.6 1.87339 0.169035 0
M  V30 27939 O 2501.95 1.42558 1.12013 0
M  V30 27940 C 2502 2.98425 -2.02422 0
M  V30 27941 O 2501.11 3.88927 -1.37147 0
M  V30 27942 H 2500.45 0.502245 -0.434334 0
M  V30 27943 H 2502.98 1.06555 -1.74663 0
M  V30 27944 H 2502.99 3.48253 -2.12565 0
M  V30 27945 H 2501.66 2.8129 -3.06348 0
M  V30 27946 H 2500.24 3.47393 -1.35546 0
M  V30 27947 N 2502.42 1.15558 1.07164 0
M  V30 27948 C 2503.84 0.898626 1.31897 0
M  V30 27949 C 2504.04 -0.453348 1.96334 0
M  V30 27950 O 2503.1 -1.19485 2.2244 0
M  V30 27951 C 2504.41 2.04103 2.20823 0
M  V30 27952 C 2505.96 2.07578 2.34266 0
M  V30 27953 C 2506.43 3.21147 3.26541 0
M  V30 27954 N 2507.92 3.20807 3.34122 0
M  V30 27955 C 2508.66 4.05322 4.05588 0
M  V30 27956 N 2508.15 4.99905 4.79652 0
M  V30 27957 N 2509.95 3.93339 4.01548 0
M  V30 27958 H 2502.1 2.02615 0.637267 0
M  V30 27959 H 2504.36 0.883597 0.343453 0
M  V30 27960 H 2504.07 3.01706 1.80739 0
M  V30 27961 H 2503.94 1.97502 3.21361 0
M  V30 27962 H 2506.33 1.10573 2.73601 0
M  V30 27963 H 2506.41 2.18246 1.33425 0
M  V30 27964 H 2506.05 4.18405 2.87923 0
M  V30 27965 H 2505.98 3.07715 4.27339 0
M  V30 27966 H 2508.47 2.52311 2.81331 0
M  V30 27967 H 2508.79 5.60831 5.31684 0
M  V30 27968 H 2507.13 5.03892 4.78662 0
M  V30 27969 H 2510.32 3.18757 3.428 0
M  V30 27970 H 2510.5 4.59428 4.56979 0
M  V30 27971 N 2503.9 -1.25546 0.952678 0
M  V30 27972 C 2505.13 -1.9782 0.623059 0
M  V30 27973 C 2505.55 -1.70354 -0.79757 0
M  V30 27974 O 2504.91 -0.95831 -1.53903 0
M  V30 27975 C 2504.96 -3.49556 0.885593 0
M  V30 27976 O 2504.06 -4.12384 -0.0365917 0
M  V30 27977 H 2503.4 -0.620228 0.237093 0
M  V30 27978 H 2505.93 -1.59716 1.27874 0
M  V30 27979 H 2505.94 -3.99857 0.811079 0
M  V30 27980 H 2504.62 -3.68877 1.92101 0
M  V30 27981 H 2503.19 -3.72791 0.089961 0
M  V30 27982 N 2505.38 -0.721022 -1.40139 0
M  V30 27983 C 2506.31 -0.0868031 -2.33339 0
M  V30 27984 C 2507.29 0.739596 -1.5318 0
M  V30 27985 O 2508.48 0.687417 -1.81627 0
M  V30 27986 C 2505.61 0.831668 -3.37195 0
M  V30 27987 C 2504.56 0.110483 -4.27857 0
M  V30 27988 C 2503.89 1.14503 -5.22296 0
M  V30 27989 C 2505.19 -1.03859 -5.1187 0
M  V30 27990 H 2506.88 -0.86527 -2.86624 0
M  V30 27991 H 2504.43 -0.41754 -1.37814 0
M  V30 27992 H 2506.38 1.28478 -4.01337 0
M  V30 27993 H 2505.1 1.64209 -2.82317 0
M  V30 27994 H 2503.76 -0.322861 -3.65176 0
M  V30 27995 H 2503.41 1.94865 -4.6372 0
M  V30 27996 H 2503.11 0.667344 -5.83798 0
M  V30 27997 H 2504.63 1.59814 -5.89315 0
M  V30 27998 H 2506.05 -0.664582 -5.69435 0
M  V30 27999 H 2504.44 -1.445 -5.82443 0
M  V30 28000 H 2505.51 -1.86676 -4.47527 0
M  V30 28001 N 2506.86 1.50503 -0.467606 0
M  V30 28002 C 2507.81 2.30065 0.342441 0
M  V30 28003 C 2508.8 1.37202 0.993572 0
M  V30 28004 O 2510.01 1.5441 0.925075 0
M  V30 28005 H 2506.38 0.740806 0.12927 0
M  V30 28006 H 2508.35 2.96352 -0.349042 0
M  V30 28007 C 2507.1 3.17657 1.41385 0
M  V30 28008 H 2506.42 3.89019 0.922196 0
M  V30 28009 H 2507.86 3.76328 1.95328 0
M  V30 28010 C 2506.32 2.3502 2.41386 0
M  V30 28011 O 2506.85 2.03085 3.46582 0
M  V30 28012 N 2505.06 1.97666 2.13017 0
M  V30 28013 H 2504.61 2.23836 1.27495 0
M  V30 28014 H 2504.56 1.42678 2.80161 0
M  V30 28015 N 2508.34 0.200077 1.56325 0
M  V30 28016 C 2509.25 -0.730629 2.22933 0
M  V30 28017 C 2510.26 -1.23074 1.22999 0
M  V30 28018 O 2511.44 -1.27686 1.55751 0
M  V30 28019 C 2508.5 -1.93093 2.87951 0
M  V30 28020 C 2507.56 -1.4749 4.03169 0
M  V30 28021 C 2506.8 -2.61799 4.65078 0
M  V30 28022 O 2507.02 -3.79406 4.2592 0
M  V30 28023 O 2505.95 -2.34227 5.54456 0
M  V30 28024 H 2509.78 -0.193338 3.03084 0
M  V30 28025 H 2507.36 -0.0294359 1.49371 0
M  V30 28026 H 2509.25 -2.63234 3.29068 0
M  V30 28027 H 2507.92 -2.45673 2.10776 0
M  V30 28028 H 2506.83 -0.742137 3.66665 0
M  V30 28029 H 2508.16 -0.995711 4.82023 0
M  V30 28030 N 2509.81 -1.57429 -0.0734901 0
M  V30 28031 C 2511.04 -1.91775 -0.789753 0
M  V30 28032 C 2511.46 -0.796336 -1.70412 0
M  V30 28033 O 2510.82 0.250929 -1.79555 0
M  V30 28034 C 2510.87 -3.25069 -1.56084 0
M  V30 28035 O 2509.97 -3.14183 -2.67138 0
M  V30 28036 H 2509.31 -0.628033 -0.215571 0
M  V30 28037 H 2511.84 -2.04556 -0.0422421 0
M  V30 28038 H 2511.85 -3.58902 -1.94045 0
M  V30 28039 H 2510.53 -4.06267 -0.889943 0
M  V30 28040 H 2509.11 -2.91905 -2.32047 0
M  V30 28041 N 2511.29 0.344839 -1.53781 0
M  V30 28042 C 2512.24 1.42343 -1.81679 0
M  V30 28043 C 2513.21 1.5232 -0.662402 0
M  V30 28044 O 2514.39 1.67879 -0.906705 0
M  V30 28045 C 2511.53 2.79012 -2.03092 0
M  V30 28046 C 2510.65 2.77836 -3.30804 0
M  V30 28047 C 2509.78 4.06214 -3.42292 0
M  V30 28048 C 2508.82 3.99262 -4.63957 0
M  V30 28049 N 2507.96 5.19328 -4.72486 0
M  V30 28050 H 2512.8 1.17853 -2.73705 0
M  V30 28051 H 2510.33 0.570925 -1.35569 0
M  V30 28052 H 2512.29 3.58434 -2.13497 0
M  V30 28053 H 2510.92 3.01856 -1.1438 0
M  V30 28054 H 2509.97 1.90527 -3.29247 0
M  V30 28055 H 2511.29 2.68577 -4.20319 0
M  V30 28056 H 2510.44 4.9406 -3.52121 0
M  V30 28057 H 2509.18 4.18253 -2.5083 0
M  V30 28058 H 2508.18 3.09801 -4.54206 0
M  V30 28059 H 2509.41 3.88807 -5.56782 0
M  V30 28060 H 2507.36 5.31913 -3.83933 0
M  V30 28061 H 2507.27 5.1232 -5.55936 0
M  V30 28062 H 2508.54 6.08948 -4.86623 0
M  V30 28063 N 2512.77 1.45492 0.605781 0
M  V30 28064 C 2514.02 1.48876 1.36084 0
M  V30 28065 C 2514.33 0.135367 1.95131 0
M  V30 28066 O 2515.54 0.0468621 2.7146 0
M  V30 28067 C 2513.99 2.6222 2.46513 0
M  V30 28068 C 2513.6 4.03879 1.9387 0
M  V30 28069 C 2515.35 2.74851 3.23507 0
M  V30 28070 C 2513.25 5.08601 3.01792 0
M  V30 28071 H 2512.18 0.553983 0.511487 0
M  V30 28072 H 2514.83 1.71638 0.649059 0
M  V30 28073 H 2513.22 2.32745 3.20384 0
M  V30 28074 H 2514.39 4.4304 1.26696 0
M  V30 28075 H 2512.7 3.95713 1.29615 0
M  V30 28076 H 2515.3 3.5026 4.04007 0
M  V30 28077 H 2515.64 1.81549 3.74627 0
M  V30 28078 H 2516.18 3.0386 2.56737 0
M  V30 28079 H 2512.92 6.03619 2.55587 0
M  V30 28080 H 2512.44 4.74008 3.67527 0
M  V30 28081 H 2514.12 5.33431 3.66143 0
M  V30 28082 N 2514.25 -0.848441 1.32813 0
M  V30 28083 C 2515.16 -1.98975 1.24282 0
M  V30 28084 C 2516.17 -1.73306 0.155206 0
M  V30 28085 O 2517.35 -1.97839 0.377034 0
M  V30 28086 C 2514.42 -3.32781 0.972502 0
M  V30 28087 C 2513.48 -3.7163 2.14917 0
M  V30 28088 C 2512.71 -4.99051 1.89166 0
M  V30 28089 O 2512.93 -5.64222 0.837264 0
M  V30 28090 O 2511.87 -5.35178 2.75442 0
M  V30 28091 H 2515.69 -2.09111 2.20242 0
M  V30 28092 H 2513.28 -0.980032 1.12764 0
M  V30 28093 H 2515.16 -4.12973 0.838504 0
M  V30 28094 H 2513.83 -3.23671 0.0431079 0
M  V30 28095 H 2512.74 -2.91988 2.33867 0
M  V30 28096 H 2514.07 -3.85394 3.06157 0
M  V30 28097 N 2515.73 -1.16125 -1.06549 0
M  V30 28098 C 2516.98 -0.935653 -1.78685 0
M  V30 28099 C 2517.29 0.537968 -1.88057 0
M  V30 28100 O 2518.49 0.881385 -2.56795 0
M  V30 28101 C 2516.95 -1.62472 -3.2114 0
M  V30 28102 C 2516.56 -3.13592 -3.19943 0
M  V30 28103 C 2518.3 -1.48099 -3.97828 0
M  V30 28104 C 2516.21 -3.75249 -4.57102 0
M  V30 28105 H 2515.14 -0.346424 -0.669706 0
M  V30 28106 H 2517.79 -1.39228 -1.19531 0
M  V30 28107 H 2516.17 -1.09579 -3.80537 0
M  V30 28108 H 2517.35 -3.73308 -2.70144 0
M  V30 28109 H 2515.66 -3.27821 -2.56754 0
M  V30 28110 H 2518.26 -1.91547 -4.99213 0
M  V30 28111 H 2518.6 -0.42958 -4.14078 0
M  V30 28112 H 2519.13 -1.98133 -3.44947 0
M  V30 28113 H 2515.87 -4.80326 -4.46057 0
M  V30 28114 H 2515.39 -3.20318 -5.07106 0
M  V30 28115 H 2517.07 -3.76653 -5.26062 0
M  V30 28116 N 2517.2 1.25039 -0.959323 0
M  V30 28117 C 2518.11 2.29425 -0.490034 0
M  V30 28118 C 2519.13 1.68216 0.444915 0
M  V30 28119 O 2520.31 1.98841 0.320011 0
M  V30 28120 C 2517.37 3.46 0.220248 0
M  V30 28121 C 2516.43 4.22636 -0.753492 0
M  V30 28122 C 2515.67 5.33644 -0.0770118 0
M  V30 28123 O 2515.89 5.58965 1.13639 0
M  V30 28124 O 2514.82 5.9702 -0.764929 0
M  V30 28125 H 2518.65 2.71667 -1.3576 0
M  V30 28126 H 2516.23 1.30575 -0.725984 0
M  V30 28127 H 2518.12 4.1682 0.619604 0
M  V30 28128 H 2516.79 3.05751 1.06291 0
M  V30 28129 H 2515.7 3.54225 -1.20315 0
M  V30 28130 H 2517.03 4.6668 -1.56431 0
M  V30 28131 N 2518.68 0.728444 1.39755 0
M  V30 28132 C 2520.1 0.403335 1.54419 0
M  V30 28133 C 2520.3 -1.08653 1.69696 0
M  V30 28134 O 2519.35 -1.87264 1.69376 0
M  V30 28135 C 2520.67 1.18063 2.76553 0
M  V30 28136 C 2522.22 1.16821 2.90382 0
M  V30 28137 C 2522.69 1.92793 4.15446 0
M  V30 28138 N 2524.18 1.89926 4.22472 0
M  V30 28139 C 2524.92 2.45523 5.18176 0
M  V30 28140 N 2524.41 3.0973 6.19709 0
M  V30 28141 N 2526.21 2.35593 5.10345 0
M  V30 28142 H 2518.36 1.69433 1.28086 0
M  V30 28143 H 2520.62 0.716878 0.620314 0
M  V30 28144 H 2520.33 2.23459 2.71586 0
M  V30 28145 H 2520.2 0.780727 3.69032 0
M  V30 28146 H 2522.59 0.122392 2.94846 0
M  V30 28147 H 2522.67 1.60743 1.98986 0
M  V30 28148 H 2522.31 2.97371 4.11744 0
M  V30 28149 H 2522.24 1.46281 5.05875 0
M  V30 28150 H 2524.73 1.43144 3.4974 0
M  V30 28151 H 2525.05 3.49637 6.89184 0
M  V30 28152 H 2523.39 3.13818 6.20116 0
M  V30 28153 H 2526.58 1.8508 4.29957 0
M  V30 28154 H 2526.75 2.79221 5.84756 0
M  V30 28155 N 2520.16 -1.50253 0.475581 0
M  V30 28156 C 2521.09 -2.31485 -0.306069 0
M  V30 28157 C 2522.07 -1.38593 -0.986204 0
M  V30 28158 O 2523.26 -1.67512 -0.982511 0
M  V30 28159 C 2520.39 -3.18453 -1.38583 0
M  V30 28160 C 2519.34 -4.19933 -0.827041 0
M  V30 28161 C 2518.67 -4.95668 -2.00542 0
M  V30 28162 C 2519.97 -5.2204 0.164722 0
M  V30 28163 H 2521.66 -2.97081 0.371918 0
M  V30 28164 H 2519.21 -1.42867 0.180307 0
M  V30 28165 H 2521.16 -3.74079 -1.94017 0
M  V30 28166 H 2519.88 -2.50751 -2.09265 0
M  V30 28167 H 2518.54 -3.65414 -0.294637 0
M  V30 28168 H 2518.19 -4.24435 -2.69933 0
M  V30 28169 H 2517.89 -5.64315 -1.63774 0
M  V30 28170 H 2519.41 -5.54131 -2.56459 0
M  V30 28171 H 2520.83 -5.72511 -0.300598 0
M  V30 28172 H 2519.23 -5.98433 0.446918 0
M  V30 28173 H 2520.3 -4.7251 1.08913 0
M  V30 28174 N 2521.64 -0.208365 -1.56217 0
M  V30 28175 C 2522.57 0.739238 -2.16951 0
M  V30 28176 C 2523.58 1.16718 -1.13494 0
M  V30 28177 O 2524.77 1.10061 -1.40531 0
M  V30 28178 C 2521.87 2.01137 -2.72758 0
M  V30 28179 C 2521.05 1.74111 -4.01253 0
M  V30 28180 C 2520.1 2.85901 -4.41754 0
M  V30 28181 O 2519.13 2.54937 -5.08916 0
M  V30 28182 N 2520.33 4.14561 -4.06349 0
M  V30 28183 H 2523.1 0.219784 -2.98893 0
M  V30 28184 H 2520.66 -0.026873 -1.61878 0
M  V30 28185 H 2522.65 2.75089 -2.96831 0
M  V30 28186 H 2521.22 2.44167 -1.95195 0
M  V30 28187 H 2520.44 0.838707 -3.85174 0
M  V30 28188 H 2521.73 1.53469 -4.85103 0
M  V30 28189 H 2521.13 4.42565 -3.52353 0
M  V30 28190 H 2519.68 4.85098 -4.35343 0
M  V30 28191 N 2523.12 1.57465 0.0651402 0
M  V30 28192 C 2524.34 1.92191 0.779572 0
M  V30 28193 C 2524.77 0.805363 1.69987 0
M  V30 28194 O 2524.12 -0.241404 1.79686 0
M  V30 28195 C 2524.17 3.25892 1.54358 0
M  V30 28196 O 2523.28 3.15595 2.65469 0
M  V30 28197 H 2522.62 0.629167 0.212238 0
M  V30 28198 H 2525.15 2.04576 0.0313934 0
M  V30 28199 H 2525.16 3.59926 1.92139 0
M  V30 28200 H 2523.83 4.06733 0.868386 0
M  V30 28201 H 2522.41 2.93132 2.30496 0
M  V30 28202 N 2524.59 -0.336679 1.53962 0
M  V30 28203 C 2525.52 -1.41921 1.8542 0
M  V30 28204 C 2526.51 -1.54579 0.709883 0
M  V30 28205 O 2527.69 -1.68674 0.962426 0
M  V30 28206 C 2524.82 -2.78877 2.0699 0
M  V30 28207 C 2523.77 -2.8102 3.22818 0
M  V30 28208 C 2523.1 -4.20927 3.29735 0
M  V30 28209 C 2524.4 -2.45941 4.60772 0
M  V30 28210 H 2526.09 -1.15844 2.76081 0
M  V30 28211 H 2523.64 -0.555835 1.3284 0
M  V30 28212 H 2525.59 -3.54661 2.27581 0
M  V30 28213 H 2524.32 -3.06404 1.13066 0
M  V30 28214 H 2522.98 -2.0769 3.02094 0
M  V30 28215 H 2522.62 -4.45574 2.33393 0
M  V30 28216 H 2522.32 -4.2327 4.07574 0
M  V30 28217 H 2523.85 -4.98543 3.52544 0
M  V30 28218 H 2525.26 -3.11438 4.81331 0
M  V30 28219 H 2523.66 -2.59556 5.41064 0
M  V30 28220 H 2524.73 -1.41113 4.63913 0
M  V30 28221 N 2526.07 -1.45812 -0.598057 0
M  V30 28222 C 2527.3 -1.53868 -1.38319 0
M  V30 28223 C 2527.72 -0.174512 -1.87992 0
M  V30 28224 O 2527.07 0.825599 -1.62758 0
M  V30 28225 C 2527.12 -2.53093 -2.5812 0
M  V30 28226 O 2526.84 -3.8421 -2.1051 0
M  V30 28227 C 2528.35 -2.70941 -3.50864 0
M  V30 28228 H 2525.57 -0.520808 -0.423083 0
M  V30 28229 H 2528.11 -1.91084 -0.728494 0
M  V30 28230 H 2526.26 -2.18923 -3.19611 0
M  V30 28231 H 2526.68 -4.38082 -2.88417 0
M  V30 28232 H 2528.15 -3.44324 -4.31445 0
M  V30 28233 H 2528.63 -1.77308 -4.01819 0
M  V30 28234 H 2529.24 -3.06146 -2.9522 0
M  V30 28235 N 2527.55 0.841385 -1.33261 0
M  V30 28236 C 2528.46 1.98314 -1.25335 0
M  V30 28237 C 2529.48 1.73222 -0.164395 0
M  V30 28238 O 2530.65 1.97637 -0.387521 0
M  V30 28239 C 2527.72 3.32261 -0.990137 0
M  V30 28240 C 2526.78 3.70485 -2.16885 0
M  V30 28241 C 2526.01 4.98041 -1.9181 0
M  V30 28242 O 2526.23 5.6377 -0.867174 0
M  V30 28243 O 2525.17 5.3371 -2.78276 0
M  V30 28244 H 2528.99 2.0794 -2.21348 0
M  V30 28245 H 2526.58 0.974038 -1.13282 0
M  V30 28246 H 2528.46 4.12523 -0.860394 0
M  V30 28247 H 2527.14 3.23644 -0.0602724 0
M  V30 28248 H 2526.04 2.90744 -2.35412 0
M  V30 28249 H 2527.38 3.83765 -3.08197 0
M  V30 28250 N 2529.03 1.16688 1.05932 0
M  V30 28251 C 2529.98 0.872855 2.15601 0
M  V30 28252 C 2530.97 -0.159546 1.68647 0
M  V30 28253 O 2532.18 -0.0131809 1.79995 0
M  V30 28254 H 2528.55 0.264683 0.70388 0
M  V30 28255 H 2530.52 1.80511 2.3761 0
M  V30 28256 C 2529.27 0.394405 3.45456 0
M  V30 28257 H 2528.6 1.18026 3.81982 0
M  V30 28258 H 2530.04 0.227482 4.23389 0
M  V30 28259 C 2528.49 -0.886672 3.25023 0
M  V30 28260 O 2529.02 -1.95513 3.5091 0
M  V30 28261 N 2527.23 -0.831876 2.78439 0
M  V30 28262 H 2526.78 0.0378072 2.57572 0
M  V30 28263 H 2526.74 -1.68951 2.65147 0
M  V30 28264 N 2530.51 -1.24529 0.96594 0
M  V30 28265 C 2531.44 -2.27783 0.513516 0
M  V30 28266 C 2532.42 -1.6415 -0.445945 0
M  V30 28267 O 2533.6 -1.91157 -0.342451 0
M  V30 28268 C 2530.73 -3.46731 -0.198778 0
M  V30 28269 C 2529.69 -4.22619 0.67653 0
M  V30 28270 C 2529.01 -5.34439 -0.167154 0
M  V30 28271 C 2530.31 -4.84119 1.96026 0
M  V30 28272 H 2532.01 -2.65879 1.37654 0
M  V30 28273 H 2529.55 -1.27811 0.663344 0
M  V30 28274 H 2531.51 -4.18098 -0.526493 0
M  V30 28275 H 2530.23 -3.07656 -1.09614 0
M  V30 28276 H 2528.89 -3.5305 0.987492 0
M  V30 28277 H 2528.54 -4.91604 -1.06462 0
M  V30 28278 H 2528.24 -5.86131 0.415284 0
M  V30 28279 H 2529.76 -6.08634 -0.489581 0
M  V30 28280 H 2531.18 -5.4757 1.69823 0
M  V30 28281 H 2529.57 -5.46036 2.48927 0
M  V30 28282 H 2530.64 -4.05672 2.65629 0
M  V30 28283 N 2531.99 -0.735845 -1.39367 0
M  V30 28284 C 2533.21 -0.294429 -2.04794 0
M  V30 28285 C 2533.63 1.07104 -1.5548 0
M  V30 28286 O 2532.99 1.67694 -0.720067 0
M  V30 28287 C 2533.04 -0.288134 -3.6035 0
M  V30 28288 O 2532.76 -1.59971 -4.07849 0
M  V30 28289 C 2534.26 0.169344 -4.42976 0
M  V30 28290 H 2531.48 -0.128562 -0.658569 0
M  V30 28291 H 2534.02 -0.999732 -1.78397 0
M  V30 28292 H 2532.18 0.368287 -3.85645 0
M  V30 28293 H 2532.59 -1.51384 -5.02179 0
M  V30 28294 H 2534.07 0.12259 -5.51864 0
M  V30 28295 H 2534.54 1.21464 -4.2207 0
M  V30 28296 H 2535.15 -0.457543 -4.22832 0
M  V30 28297 N 2533.46 1.49999 -0.483543 0
M  V30 28298 C 2534.41 2.28788 0.304124 0
M  V30 28299 C 2535.38 1.34394 0.97609 0
M  V30 28300 O 2536.57 1.63341 0.986128 0
M  V30 28301 C 2533.71 3.16615 1.37292 0
M  V30 28302 C 2532.82 4.26051 0.714486 0
M  V30 28303 C 2531.95 5.01117 1.76223 0
M  V30 28304 C 2530.99 6.02412 1.08472 0
M  V30 28305 N 2530.13 6.7071 2.07588 0
M  V30 28306 H 2534.97 2.95643 -0.374033 0
M  V30 28307 H 2532.51 1.45784 -0.1963 0
M  V30 28308 H 2534.46 3.65896 2.00439 0
M  V30 28309 H 2533.09 2.51779 2.02007 0
M  V30 28310 H 2532.15 3.80388 -0.0298467 0
M  V30 28311 H 2533.46 4.98474 0.180296 0
M  V30 28312 H 2532.61 5.5418 2.46919 0
M  V30 28313 H 2531.35 4.28428 2.33025 0
M  V30 28314 H 2530.36 5.48597 0.363448 0
M  V30 28315 H 2531.58 6.7708 0.523432 0
M  V30 28316 H 2529.53 6.00804 2.63384 0
M  V30 28317 H 2529.44 7.3905 1.59188 0
M  V30 28318 H 2530.71 7.28385 2.77626 0
M  V30 28319 N 2534.94 0.216646 1.56104 0
M  V30 28320 C 2535.85 -0.706943 2.23695 0
M  V30 28321 C 2536.87 -1.21763 1.24297 0
M  V30 28322 O 2538.04 -1.26027 1.57096 0
M  V30 28323 C 2535.11 -1.90028 2.89983 0
M  V30 28324 C 2534.17 -1.43205 4.04711 0
M  V30 28325 C 2533.4 -2.56851 4.67828 0
M  V30 28326 O 2533.63 -3.74867 4.2992 0
M  V30 28327 O 2532.56 -2.28333 5.56909 0
M  V30 28328 H 2536.39 -0.161181 3.03272 0
M  V30 28329 H 2533.97 -0.0135914 1.49394 0
M  V30 28330 H 2535.85 -2.59729 3.31841 0
M  V30 28331 H 2534.53 -2.43424 2.1337 0
M  V30 28332 H 2533.43 -0.703205 3.67431 0
M  V30 28333 H 2534.77 -0.94453 4.83052 0
M  V30 28334 N 2536.42 -1.57498 -0.0567885 0
M  V30 28335 C 2537.37 -2.01167 -1.07311 0
M  V30 28336 C 2538.35 -0.896194 -1.33631 0
M  V30 28337 O 2539.55 -1.16012 -1.3368 0
M  V30 28338 C 2536.67 -2.47165 -2.38253 0
M  V30 28339 C 2535.76 -3.65478 -2.15143 0
M  V30 28340 N 2536.15 -4.79153 -1.62005 0
M  V30 28341 C 2534.45 -3.72317 -2.45552 0
M  V30 28342 C 2535.15 -5.60928 -1.54059 0
M  V30 28343 N 2534.13 -5.05216 -2.00643 0
M  V30 28344 H 2537.93 -2.86489 -0.655827 0
M  V30 28345 H 2535.44 -1.60246 -0.263607 0
M  V30 28346 H 2537.44 -2.76697 -3.11841 0
M  V30 28347 H 2536.1 -1.63237 -2.80685 0
M  V30 28348 H 2537.11 -5.01147 -1.30659 0
M  V30 28349 H 2533.79 -2.99134 -2.91248 0
M  V30 28350 H 2535.18 -6.6221 -1.13701 0
M  V30 28351 N 2537.9 0.328509 -1.54138 0
M  V30 28352 C 2538.83 1.40936 -1.8617 0
M  V30 28353 C 2539.81 1.542 -0.718071 0
M  V30 28354 O 2540.99 1.68161 -0.971358 0
M  V30 28355 C 2538.12 2.77775 -2.08466 0
M  V30 28356 C 2537.08 2.79304 -3.24304 0
M  V30 28357 C 2536.4 4.19172 -3.31962 0
M  V30 28358 C 2537.7 2.43494 -4.62069 0
M  V30 28359 H 2539.4 1.14378 -2.76691 0
M  V30 28360 H 2536.94 0.548783 -1.33133 0
M  V30 28361 H 2538.9 3.5345 -2.29459 0
M  V30 28362 H 2537.62 3.058 -1.14689 0
M  V30 28363 H 2536.28 2.06085 -3.03191 0
M  V30 28364 H 2535.93 4.4433 -2.35753 0
M  V30 28365 H 2535.63 4.21103 -4.09813 0
M  V30 28366 H 2537.15 4.96666 -3.55183 0
M  V30 28367 H 2538.57 3.08881 -4.82976 0
M  V30 28368 H 2536.96 2.56683 -5.42433 0
M  V30 28369 H 2538.03 1.38651 -4.64655 0
M  V30 28370 N 2539.38 1.46127 0.590316 0
M  V30 28371 C 2540.31 1.5062 1.71431 0
M  V30 28372 C 2541.29 0.360976 1.58542 0
M  V30 28373 O 2542.47 0.564017 1.79864 0
M  V30 28374 C 2539.6 1.37758 3.09419 0
M  V30 28375 C 2538.64 2.56366 3.4085 0
M  V30 28376 S 2539.48 4.18761 3.33766 0
M  V30 28377 C 2540.63 4.08395 4.74304 0
M  V30 28378 H 2540.87 2.45719 1.6736 0
M  V30 28379 H 2538.4 1.3392 0.768427 0
M  V30 28380 H 2540.36 1.31025 3.89028 0
M  V30 28381 H 2539.02 0.441004 3.10989 0
M  V30 28382 H 2538.21 2.43339 4.41364 0
M  V30 28383 H 2537.81 2.6005 2.68793 0
M  V30 28384 H 2540.1 3.74605 5.64515 0
M  V30 28385 H 2541.05 5.0888 4.92388 0
M  V30 28386 H 2541.46 3.39768 4.50797 0
M  V30 28387 N 2540.85 -0.834306 1.33705 0
M  V30 28388 C 2541.78 -1.95961 1.26971 0
M  V30 28389 C 2542.76 -1.69443 0.149366 0
M  V30 28390 O 2543.95 -1.91203 0.339885 0
M  V30 28391 C 2541.08 -3.32204 1.01281 0
M  V30 28392 C 2540.03 -3.73132 2.09658 0
M  V30 28393 C 2539.36 -5.07232 1.69175 0
M  V30 28394 C 2540.66 -3.86432 3.51379 0
M  V30 28395 H 2542.35 -2.01854 2.21123 0
M  V30 28396 H 2539.9 -0.969775 1.06449 0
M  V30 28397 H 2541.85 -4.10502 0.952178 0
M  V30 28398 H 2540.58 -3.26581 0.0356777 0
M  V30 28399 H 2539.24 -2.97101 2.14771 0
M  V30 28400 H 2538.88 -4.98084 0.701524 0
M  V30 28401 H 2538.58 -5.35587 2.41704 0
M  V30 28402 H 2540.11 -5.88 1.64586 0
M  V30 28403 H 2541.52 -4.5503 3.48742 0
M  V30 28404 H 2539.92 -4.26229 4.22432 0
M  V30 28405 H 2540.99 -2.88752 3.89552 0
M  V30 28406 N 2542.33 -1.17248 -1.05312 0
M  V30 28407 C 2543.24 -0.902718 -2.16537 0
M  V30 28408 C 2544.26 0.128676 -1.73524 0
M  V30 28409 O 2545.43 -0.0503055 -2.01337 0
M  V30 28410 C 2542.5 -0.418417 -3.44166 0
M  V30 28411 C 2541.56 -1.51625 -4.01632 0
M  V30 28412 C 2540.79 -1.05497 -5.23169 0
M  V30 28413 O 2541.02 0.0913713 -5.70327 0
M  V30 28414 O 2539.95 -1.8475 -5.72845 0
M  V30 28415 H 2543.78 -1.83306 -2.42141 0
M  V30 28416 H 2541.36 -0.953267 -1.15036 0
M  V30 28417 H 2543.24 -0.1558 -4.21112 0
M  V30 28418 H 2541.92 0.483794 -3.20064 0
M  V30 28419 H 2540.82 -1.83273 -3.26131 0
M  V30 28420 H 2542.16 -2.39413 -4.30049 0
M  V30 28421 N 2543.81 1.24015 -0.972531 0
M  V30 28422 C 2544.72 2.28892 -0.51434 0
M  V30 28423 C 2545.74 1.68678 0.427048 0
M  V30 28424 O 2546.91 1.9917 0.298904 0
M  V30 28425 C 2543.98 3.46214 0.183537 0
M  V30 28426 C 2543.04 4.21813 -0.798276 0
M  V30 28427 C 2542.27 5.33533 -0.133608 0
M  V30 28428 O 2542.49 5.60139 1.07704 0
M  V30 28429 O 2541.43 5.96175 -0.828208 0
M  V30 28430 H 2545.25 2.70212 -1.38633 0
M  V30 28431 H 2542.84 1.29798 -0.739792 0
M  V30 28432 H 2544.72 4.17454 0.57536 0
M  V30 28433 H 2543.4 3.06862 1.03042 0
M  V30 28434 H 2542.3 3.52929 -1.24065 0
M  V30 28435 H 2543.64 4.64994 -1.61372 0
M  V30 28436 N 2545.29 0.743226 1.38974 0
M  V30 28437 C 2546.2 0.11044 2.3434 0
M  V30 28438 C 2547.21 -0.712531 1.58742 0
M  V30 28439 O 2548.39 -0.639092 1.90991 0
M  V30 28440 C 2545.46 -0.779953 3.37813 0
M  V30 28441 C 2544.52 0.0562073 4.29263 0
M  V30 28442 C 2543.75 -0.791782 5.27794 0
M  V30 28443 O 2543.97 -2.03021 5.33046 0
M  V30 28444 O 2542.91 -0.216077 6.01512 0
M  V30 28445 H 2546.73 0.897765 2.90127 0
M  V30 28446 H 2544.32 0.503991 1.40642 0
M  V30 28447 H 2546.2 -1.28916 4.01197 0
M  V30 28448 H 2544.87 -1.54595 2.84398 0
M  V30 28449 H 2543.78 0.611121 3.69075 0
M  V30 28450 H 2545.11 0.784617 4.85906 0
M  V30 28451 N 2546.77 -1.4974 0.491491 0
M  V30 28452 C 2547.7 -2.31797 -0.2815 0
M  V30 28453 C 2548.68 -1.39631 -0.971448 0
M  V30 28454 O 2549.86 -1.68545 -0.964689 0
M  V30 28455 C 2546.99 -3.19905 -1.35197 0
M  V30 28456 C 2545.95 -4.20787 -0.782455 0
M  V30 28457 C 2545.27 -4.97767 -1.95274 0
M  V30 28458 C 2546.57 -5.21836 0.220082 0
M  V30 28459 H 2548.27 -2.9667 0.403407 0
M  V30 28460 H 2545.81 -1.42667 0.19545 0
M  V30 28461 H 2547.77 -3.76116 -1.90038 0
M  V30 28462 H 2546.49 -2.52956 -2.06593 0
M  V30 28463 H 2545.15 -3.65706 -0.255864 0
M  V30 28464 H 2544.8 -4.27274 -2.65416 0
M  V30 28465 H 2544.5 -5.66021 -1.57779 0
M  V30 28466 H 2546.02 -5.5682 -2.50567 0
M  V30 28467 H 2547.43 -5.72798 -0.239859 0
M  V30 28468 H 2545.83 -5.97926 0.510365 0
M  V30 28469 H 2546.9 -4.71328 1.13919 0
M  V30 28470 N 2548.24 -0.224922 -1.55987 0
M  V30 28471 C 2549.66 0.130398 -1.59066 0
M  V30 28472 C 2549.86 1.58688 -1.24179 0
M  V30 28473 O 2548.92 2.32764 -0.978633 0
M  V30 28474 C 2550.23 -0.198935 -3.00041 0
M  V30 28475 C 2551.78 -0.141446 -3.1268 0
M  V30 28476 C 2552.25 -0.444502 -4.55838 0
M  V30 28477 N 2553.74 -0.394196 -4.6152 0
M  V30 28478 C 2554.48 -0.602138 -5.7023 0
M  V30 28479 N 2553.97 -0.872035 -6.8729 0
M  V30 28480 N 2555.77 -0.534344 -5.59554 0
M  V30 28481 H 2547.92 -1.17501 -1.76939 0
M  V30 28482 H 2550.18 -0.471212 -0.822596 0
M  V30 28483 H 2549.89 -1.20995 -3.30232 0
M  V30 28484 H 2549.76 0.48447 -3.74076 0
M  V30 28485 H 2552.15 0.860215 -2.82284 0
M  V30 28486 H 2552.23 -0.858377 -2.40968 0
M  V30 28487 H 2551.87 -1.44362 -4.86952 0
M  V30 28488 H 2551.8 0.29366 -5.25781 0
M  V30 28489 H 2554.29 -0.193422 -3.77405 0
M  V30 28490 H 2554.61 -1.01871 -7.66056 0
M  V30 28491 H 2552.95 -0.909266 -6.89026 0
M  V30 28492 H 2556.14 -0.323694 -4.66979 0
M  V30 28493 H 2556.32 -0.699806 -6.4421 0
M  V30 28494 N 2549.72 1.57526 0.0484352 0
M  V30 28495 C 2550.67 2.06343 1.07356 0
M  V30 28496 C 2551.66 0.973294 1.38648 0
M  V30 28497 O 2552.87 1.1583 1.37781 0
M  V30 28498 H 2549.25 0.658227 0.363651 0
M  V30 28499 H 2551.22 2.91546 0.635864 0
M  V30 28500 C 2549.97 2.54233 2.37193 0
M  V30 28501 H 2549.29 3.37723 2.13971 0
M  V30 28502 H 2550.73 2.92121 3.07313 0
M  V30 28503 C 2549.19 1.43517 3.04802 0
M  V30 28504 O 2549.72 0.79041 3.93847 0
M  V30 28505 N 2547.92 1.17448 2.65809 0
M  V30 28506 H 2547.47 1.70062 1.93485 0
M  V30 28507 H 2547.43 0.435792 3.11365 0
M  V30 28508 N 2551.2 -0.32033 1.5431 0
M  V30 28509 C 2552.13 -1.39947 1.86915 0
M  V30 28510 C 2553.11 -1.53817 0.726238 0
M  V30 28511 O 2554.3 -1.67644 0.980262 0
M  V30 28512 C 2551.43 -2.76666 2.09936 0
M  V30 28513 C 2550.38 -2.77581 3.25781 0
M  V30 28514 C 2549.71 -4.17406 3.34181 0
M  V30 28515 C 2551.01 -2.4104 4.63354 0
M  V30 28516 H 2552.7 -1.12909 2.77294 0
M  V30 28517 H 2550.25 -0.541715 1.33422 0
M  V30 28518 H 2552.2 -3.52228 2.3133 0
M  V30 28519 H 2550.92 -3.05188 1.1631 0
M  V30 28520 H 2549.58 -2.04474 3.04279 0
M  V30 28521 H 2549.23 -4.43074 2.38106 0
M  V30 28522 H 2548.93 -4.18923 4.1204 0
M  V30 28523 H 2550.45 -4.94776 3.57812 0
M  V30 28524 H 2551.87 -3.06315 4.84607 0
M  V30 28525 H 2550.27 -2.53803 5.43787 0
M  V30 28526 H 2551.34 -1.36185 4.65383 0
M  V30 28527 N 2552.68 -1.46438 -0.582558 0
M  V30 28528 C 2554.09 -1.31396 -0.905939 0
M  V30 28529 C 2554.29 -0.285511 -1.99467 0
M  V30 28530 O 2553.35 0.311869 -2.50567 0
M  V30 28531 C 2554.66 -2.70024 -1.32315 0
M  V30 28532 C 2556.21 -2.78116 -1.43599 0
M  V30 28533 C 2556.69 -4.17326 -1.88687 0
M  V30 28534 N 2558.18 -4.19744 -1.9588 0
M  V30 28535 C 2558.91 -5.24351 -2.32042 0
M  V30 28536 N 2558.41 -6.39285 -2.66995 0
M  V30 28537 N 2560.2 -5.11718 -2.32597 0
M  V30 28538 H 2552.35 -2.1196 0.136638 0
M  V30 28539 H 2554.62 -0.947999 -0.0015407 0
M  V30 28540 H 2554.32 -3.46593 -0.597181 0
M  V30 28541 H 2554.2 -3.0014 -2.28464 0
M  V30 28542 H 2556.58 -2.01835 -2.15282 0
M  V30 28543 H 2556.66 -2.51684 -0.457014 0
M  V30 28544 H 2556.31 -4.94102 -1.17582 0
M  V30 28545 H 2556.24 -4.41165 -2.87543 0
M  V30 28546 H 2558.73 -3.36817 -1.71356 0
M  V30 28547 H 2559.04 -7.1488 -2.93542 0
M  V30 28548 H 2557.39 -6.42646 -2.64633 0
M  V30 28549 H 2560.58 -4.20963 -2.04713 0
M  V30 28550 H 2560.75 -5.93354 -2.60452 0
M  V30 28551 N 2554.16 0.827204 -1.34146 0
M  V30 28552 C 2555.09 1.95285 -1.28008 0
M  V30 28553 C 2556.07 1.69361 -0.15835 0
M  V30 28554 O 2557.25 1.9102 -0.35002 0
M  V30 28555 C 2554.38 3.31662 -1.03041 0
M  V30 28556 C 2553.34 3.72015 -2.11634 0
M  V30 28557 C 2552.66 5.06327 -1.71863 0
M  V30 28558 C 2553.96 3.84563 -3.53424 0
M  V30 28559 H 2555.66 2.00678 -2.22191 0
M  V30 28560 H 2553.2 0.964116 -1.06962 0
M  V30 28561 H 2555.16 4.09991 -0.973935 0
M  V30 28562 H 2553.88 3.26557 -0.0529965 0
M  V30 28563 H 2552.54 2.95958 -2.16344 0
M  V30 28564 H 2552.19 4.97705 -0.727929 0
M  V30 28565 H 2551.89 5.34297 -2.44541 0
M  V30 28566 H 2553.41 5.87119 -1.67702 0
M  V30 28567 H 2554.82 4.53174 -3.5115 0
M  V30 28568 H 2553.22 4.23983 -4.24687 0
M  V30 28569 H 2554.29 2.86682 -3.91077 0
M  V30 28570 N 2555.63 1.17805 1.04688 0
M  V30 28571 C 2556.54 0.914189 2.16055 0
M  V30 28572 C 2557.56 -0.119472 1.73589 0
M  V30 28573 O 2558.74 0.0609822 2.01308 0
M  V30 28574 C 2555.8 0.436663 3.43939 0
M  V30 28575 C 2554.86 1.53753 4.00822 0
M  V30 28576 C 2554.1 1.0827 5.22603 0
M  V30 28577 O 2554.32 -0.0611242 5.70367 0
M  V30 28578 O 2553.25 1.87785 5.71857 0
M  V30 28579 H 2557.08 1.84588 2.41166 0
M  V30 28580 H 2554.66 0.959354 1.14528 0
M  V30 28581 H 2556.55 0.178131 4.21023 0
M  V30 28582 H 2555.22 -0.466813 3.20316 0
M  V30 28583 H 2554.13 1.85 3.25155 0
M  V30 28584 H 2555.46 2.4169 4.28774 0
M  V30 28585 N 2557.11 -1.23497 0.979094 0
M  V30 28586 C 2558.34 -1.9563 0.664272 0
M  V30 28587 C 2558.75 -1.72705 -0.772623 0
M  V30 28588 O 2558.09 -1.0146 -1.53139 0
M  V30 28589 C 2558.16 -3.48735 0.873176 0
M  V30 28590 C 2557.82 -3.95375 2.29189 0
M  V30 28591 C 2558.82 -4.04149 3.27047 0
M  V30 28592 C 2556.5 -4.28396 2.62263 0
M  V30 28593 C 2558.5 -4.45296 4.5606 0
M  V30 28594 C 2556.18 -4.69224 3.91499 0
M  V30 28595 C 2557.18 -4.77641 4.88209 0
M  V30 28596 O 2556.87 -5.17552 6.15138 0
M  V30 28597 H 2556.6 -0.62968 0.245926 0
M  V30 28598 H 2559.15 -1.57976 1.31273 0
M  V30 28599 H 2557.38 -3.86337 0.167544 0
M  V30 28600 H 2559.07 -4.02078 0.555713 0
M  V30 28601 H 2559.84 -3.78843 3.02825 0
M  V30 28602 H 2555.72 -4.21058 1.877 0
M  V30 28603 H 2559.26 -4.51779 5.31546 0
M  V30 28604 H 2555.16 -4.9398 4.15517 0
M  V30 28605 H 2555.93 -5.35668 6.18872 0
M  V30 28606 N 2558.59 -0.750586 -1.38578 0
M  V30 28607 C 2559.87 -0.231043 -1.94231 0
M  V30 28608 C 2560.25 1.27015 -1.68613 0
M  V30 28609 O 2559.6 2.04321 -1.023 0
M  V30 28610 C 2559.81 -0.581489 -3.44122 0
M  V30 28611 C 2561.15 -0.539463 -4.21159 0
M  V30 28612 O 2562.18 -0.519603 -3.5239 0
M  V30 28613 O 2561.04 -0.547745 -5.43748 0
M  V30 28614 H 2558.13 -0.0474408 -0.825638 0
M  V30 28615 H 2560.68 -0.830504 -1.47989 0
M  V30 28616 H 2559.45 -1.61839 -3.56264 0
M  V30 28617 H 2559.07 0.0461348 -3.97573 0
M  V30 28618 N 2560.07 1.49477 -0.499425 0
M  V30 28619 C 2561.35 1.95298 0.108595 0
M  V30 28620 C 2561.73 1.44087 1.5428 0
M  V30 28621 O 2561.07 0.653946 2.18942 0
M  V30 28622 C 2561.28 3.48993 0.0228497 0
M  V30 28623 C 2562.63 4.2414 0.197568 0
M  V30 28624 O 2563.66 3.56065 0.0981109 0
M  V30 28625 O 2562.52 5.45023 0.401573 0
M  V30 28626 H 2559.61 0.82139 0.0961665 0
M  V30 28627 H 2562.16 1.60129 -0.561851 0
M  V30 28628 H 2560.93 3.78897 -0.977388 0
M  V30 28629 H 2560.55 3.90775 0.73351 0
M  V30 28630 N 2561.55 0.233191 1.55865 0
M  V30 28631 C 2562.48 -0.666559 2.23784 0
M  V30 28632 C 2563.46 -1.19203 1.21345 0
M  V30 28633 O 2564.64 -1.23389 1.49962 0
M  V30 28634 C 2561.77 -1.86973 2.92675 0
M  V30 28635 C 2560.73 -1.47761 4.01685 0
M  V30 28636 C 2560.05 -2.7605 4.57931 0
M  V30 28637 C 2561.35 -0.658902 5.18127 0
M  V30 28638 H 2563.05 -0.100253 2.99232 0
M  V30 28639 H 2560.59 -0.0467787 1.43924 0
M  V30 28640 H 2562.55 -2.50471 3.38884 0
M  V30 28641 H 2561.27 -2.46119 2.14693 0
M  V30 28642 H 2559.93 -0.866043 3.56224 0
M  V30 28643 H 2559.58 -3.33365 3.76665 0
M  V30 28644 H 2559.28 -2.50543 5.31509 0
M  V30 28645 H 2560.8 -3.4047 5.06865 0
M  V30 28646 H 2562.22 -1.19785 5.60646 0
M  V30 28647 H 2560.61 -0.500447 5.9801 0
M  V30 28648 H 2561.68 0.331941 4.83763 0
M  V30 28649 N 2563.03 -1.57549 -0.0400806 0
M  V30 28650 C 2564.44 -1.54621 -0.395529 0
M  V30 28651 C 2564.64 -0.95783 -1.77279 0
M  V30 28652 O 2563.7 -0.574074 -2.45887 0
M  V30 28653 C 2565.01 -2.99124 -0.307482 0
M  V30 28654 C 2566.56 -3.10619 -0.38537 0
M  V30 28655 C 2567.03 -4.56832 -0.326892 0
M  V30 28656 N 2568.52 -4.61589 -0.386021 0
M  V30 28657 C 2569.26 -5.72247 -0.36349 0
M  V30 28658 N 2568.76 -6.92176 -0.293899 0
M  V30 28659 N 2570.55 -5.60585 -0.412405 0
M  V30 28660 H 2562.7 -1.9415 0.861359 0
M  V30 28661 H 2564.96 -0.890015 0.326461 0
M  V30 28662 H 2564.67 -3.45855 0.638522 0
M  V30 28663 H 2564.54 -3.60638 -1.10545 0
M  V30 28664 H 2566.93 -2.63842 -1.3218 0
M  V30 28665 H 2567.01 -2.51957 0.441755 0
M  V30 28666 H 2566.65 -5.04274 0.605827 0
M  V30 28667 H 2566.58 -5.13393 -1.17198 0
M  V30 28668 H 2569.08 -3.75297 -0.442766 0
M  V30 28669 H 2569.39 -7.72287 -0.281504 0
M  V30 28670 H 2567.73 -6.94513 -0.26011 0
M  V30 28671 H 2570.92 -4.65788 -0.464687 0
M  V30 28672 H 2571.1 -6.46817 -0.391378 0
M  V30 28673 N 2564.5 0.312142 -1.54478 0
M  V30 28674 C 2565.92 0.65716 -1.45443 0
M  V30 28675 C 2566.12 1.91181 -0.636563 0
M  V30 28676 O 2565.18 2.52112 -0.139859 0
M  V30 28677 C 2566.49 0.82053 -2.89288 0
M  V30 28678 C 2568.04 0.917136 -2.99262 0
M  V30 28679 C 2568.51 1.11259 -4.44281 0
M  V30 28680 N 2570 1.17906 -4.47942 0
M  V30 28681 C 2570.74 1.34838 -5.57321 0
M  V30 28682 N 2570.23 1.4874 -6.76645 0
M  V30 28683 N 2572.03 1.37637 -5.44988 0
M  V30 28684 H 2564.18 -0.512349 -2.06128 0
M  V30 28685 H 2566.44 -0.167501 -0.933085 0
M  V30 28686 H 2566.15 -0.0303223 -3.51687 0
M  V30 28687 H 2566.02 1.71292 -3.36064 0
M  V30 28688 H 2568.41 1.75848 -2.36984 0
M  V30 28689 H 2568.49 0.000967605 -2.558 0
M  V30 28690 H 2568.13 0.276051 -5.07149 0
M  V30 28691 H 2568.06 2.04281 -4.85363 0
M  V30 28692 H 2570.55 1.0856 -3.61971 0
M  V30 28693 H 2570.87 1.61384 -7.55761 0
M  V30 28694 H 2569.21 1.45816 -6.79531 0
M  V30 28695 H 2572.4 1.2638 -4.50717 0
M  V30 28696 H 2572.58 1.5049 -6.30283 0
M  V30 28697 N 2565.98 1.46745 0.574784 0
M  V30 28698 C 2567.23 1.52163 1.33006 0
M  V30 28699 C 2567.55 0.178126 1.94185 0
M  V30 28700 O 2566.82 -0.796165 1.78992 0
M  V30 28701 H 2565.4 0.560454 0.493863 0
M  V30 28702 H 2568.06 1.82928 0.672557 0
M  V30 28703 H 2567.16 2.27866 2.13269 0
M  V30 28704 N 2567.46 -0.820078 1.34583 0
M  V30 28705 C 2568.88 -1.11362 1.14327 0
M  V30 28706 C 2569.08 -2.01429 -0.0533294 0
M  V30 28707 O 2568.13 -2.41778 -0.728002 0
M  V30 28708 C 2569.44 -1.7576 2.43986 0
M  V30 28709 C 2570.99 -1.88242 2.50068 0
M  V30 28710 C 2571.47 -2.56055 3.79737 0
M  V30 28711 N 2572.96 -2.63552 3.80913 0
M  V30 28712 C 2573.69 -3.16758 4.77966 0
M  V30 28713 N 2573.19 -3.70506 5.85403 0
M  V30 28714 N 2574.98 -3.15186 4.65419 0
M  V30 28715 H 2567.13 -0.221059 2.11247 0
M  V30 28716 H 2569.4 -0.160633 0.934292 0
M  V30 28717 H 2569.1 -1.17044 3.31653 0
M  V30 28718 H 2568.98 -2.75599 2.57536 0
M  V30 28719 H 2571.36 -2.46105 1.62839 0
M  V30 28720 H 2571.44 -0.872964 2.40443 0
M  V30 28721 H 2571.09 -1.98845 4.67358 0
M  V30 28722 H 2571.02 -3.5751 3.86645 0
M  V30 28723 H 2573.51 -2.25457 3.03278 0
M  V30 28724 H 2573.82 -4.09364 6.5547 0
M  V30 28725 H 2572.17 -3.68742 5.89113 0
M  V30 28726 H 2575.36 -2.72465 3.80632 0
M  V30 28727 H 2575.53 -3.56347 5.41222 0
M  V30 28728 N 2568.94 -1.18359 -1.04062 0
M  V30 28729 C 2570.16 -1.00448 -1.81452 0
M  V30 28730 C 2570.59 0.44239 -1.82824 0
M  V30 28731 O 2569.95 1.31739 -1.24557 0
M  V30 28732 C 2569.99 -1.5639 -3.24923 0
M  V30 28733 O 2569.1 -0.78528 -4.04854 0
M  V30 28734 H 2568.44 -0.355845 -0.560598 0
M  V30 28735 H 2570.97 -1.57116 -1.31056 0
M  V30 28736 H 2570.98 -1.59103 -3.757 0
M  V30 28737 H 2569.65 -2.61705 -3.23239 0
M  V30 28738 H 2568.23 -0.830462 -3.63535 0
M  V30 28739 N 2570.42 1.22976 -0.98563 0
M  V30 28740 C 2571.33 2.28334 -0.538588 0
M  V30 28741 C 2572.34 1.69122 0.409134 0
M  V30 28742 O 2573.52 1.99475 0.277762 0
M  V30 28743 C 2570.58 3.46389 0.146807 0
M  V30 28744 C 2569.64 4.20942 -0.84297 0
M  V30 28745 C 2568.88 5.33361 -0.190188 0
M  V30 28746 O 2569.1 5.6125 1.01757 0
M  V30 28747 O 2568.03 5.95263 -0.891393 0
M  V30 28748 H 2571.86 2.68726 -1.41492 0
M  V30 28749 H 2569.44 1.29006 -0.753517 0
M  V30 28750 H 2571.33 4.1804 0.531051 0
M  V30 28751 H 2570 3.07937 0.997817 0
M  V30 28752 H 2568.91 3.51593 -1.27801 0
M  V30 28753 H 2570.24 4.63257 -1.66295 0
M  V30 28754 N 2571.89 0.757924 1.38178 0
M  V30 28755 C 2572.86 0.141326 2.28764 0
M  V30 28756 C 2573.86 -0.642881 1.4739 0
M  V30 28757 O 2575.05 -0.468507 1.67782 0
M  V30 28758 C 2572.18 -0.808011 3.31186 0
M  V30 28759 H 2573.37 0.939683 2.84798 0
M  V30 28760 H 2570.92 0.525216 1.47211 0
M  V30 28761 H 2571.66 -1.63188 2.8025 0
M  V30 28762 H 2571.44 -0.248035 3.91315 0
M  V30 28763 H 2572.93 -1.23529 3.98911 0
M  V30 28764 N 2573.37 -1.4921 0.507345 0
M  V30 28765 C 2574.65 -1.95353 -0.0982359 0
M  V30 28766 C 2575.03 -1.44903 -1.53513 0
M  V30 28767 O 2574.38 -0.665548 -2.18593 0
M  V30 28768 C 2574.59 -3.49 -0.00434148 0
M  V30 28769 C 2575.94 -4.24239 -0.175072 0
M  V30 28770 O 2576.96 -3.56112 -0.0792265 0
M  V30 28771 O 2575.82 -5.45228 -0.372664 0
M  V30 28772 H 2572.91 -0.821888 -0.0918091 0
M  V30 28773 H 2575.46 -1.59829 0.570335 0
M  V30 28774 H 2574.23 -3.78373 0.997468 0
M  V30 28775 H 2573.85 -3.91159 -0.712776 0
M  V30 28776 N 2574.85 -0.241454 -1.55739 0
M  V30 28777 C 2576.08 0.392076 -2.0366 0
M  V30 28778 C 2576.5 1.51142 -1.11971 0
M  V30 28779 O 2575.86 1.80956 -0.111626 0
M  V30 28780 C 2575.91 0.882309 -3.49639 0
M  V30 28781 O 2575.01 1.99229 -3.61084 0
M  V30 28782 H 2574.35 0.0862006 -0.658381 0
M  V30 28783 H 2576.88 -0.365917 -2.01301 0
M  V30 28784 H 2576.89 1.18695 -3.90353 0
M  V30 28785 H 2575.57 0.063163 -4.15852 0
M  V30 28786 H 2574.14 1.69276 -3.32265 0
M  V30 28787 N 2576.33 1.57568 0.0317248 0
M  V30 28788 C 2577.61 1.80302 0.758334 0
M  V30 28789 C 2577.99 0.838879 1.93716 0
M  V30 28790 O 2577.33 -0.119531 2.28187 0
M  V30 28791 C 2577.54 3.27945 1.19387 0
M  V30 28792 C 2578.89 3.92856 1.61087 0
M  V30 28793 O 2579.92 3.32078 1.28851 0
M  V30 28794 O 2578.77 4.99861 2.20909 0
M  V30 28795 H 2575.87 0.741354 0.366501 0
M  V30 28796 H 2578.41 1.69698 0.00870782 0
M  V30 28797 H 2577.19 3.89712 0.352207 0
M  V30 28798 H 2576.81 3.43427 2.00359 0
M  V30 28799 N 2577.81 -0.303946 1.54641 0
M  V30 28800 C 2578.75 -1.37476 1.85389 0
M  V30 28801 C 2579.72 -1.5051 0.702554 0
M  V30 28802 O 2580.91 -1.65416 0.950896 0
M  V30 28803 C 2578.05 -2.73529 2.10418 0
M  V30 28804 C 2577.16 -2.68968 3.38054 0
M  V30 28805 C 2576.3 -3.96996 3.52941 0
M  V30 28806 C 2575.34 -3.86821 4.7438 0
M  V30 28807 N 2574.47 -5.06618 4.86089 0
M  V30 28808 H 2579.31 -1.10555 2.76734 0
M  V30 28809 H 2576.85 -0.534781 1.37035 0
M  V30 28810 H 2578.81 -3.52648 2.22925 0
M  V30 28811 H 2577.44 -2.98717 1.22343 0
M  V30 28812 H 2576.49 -1.81731 3.34183 0
M  V30 28813 H 2577.8 -2.57338 4.27292 0
M  V30 28814 H 2576.96 -4.84551 3.65097 0
M  V30 28815 H 2575.69 -4.11456 2.61831 0
M  V30 28816 H 2574.7 -2.9765 4.62261 0
M  V30 28817 H 2575.92 -3.73908 5.66895 0
M  V30 28818 H 2573.87 -5.21547 3.97901 0
M  V30 28819 H 2573.79 -4.974 5.69324 0
M  V30 28820 H 2575.06 -5.95832 5.02598 0
M  V30 28821 N 2579.28 -1.47047 -0.566994 0
M  V30 28822 C 2580.23 -1.59191 -1.69591 0
M  V30 28823 C 2581.23 -0.459638 -1.63045 0
M  V30 28824 O 2582.43 -0.637087 -1.68348 0
M  V30 28825 H 2578.81 -0.500801 -0.560984 0
M  V30 28826 H 2580.78 -2.54078 -1.56483 0
M  V30 28827 C 2579.53 -1.61417 -3.07961 0
M  V30 28828 H 2578.85 -2.47887 -3.13675 0
M  V30 28829 H 2580.29 -1.73965 -3.86668 0
M  V30 28830 C 2578.75 -0.345649 -3.35122 0
M  V30 28831 O 2579.28 0.557451 -3.97813 0
M  V30 28832 N 2577.49 -0.228691 -2.89699 0
M  V30 28833 H 2577.03 -0.964521 -2.38861 0
M  V30 28834 H 2576.99 0.619138 -3.08243 0
M  V30 28835 N 2580.76 0.812929 -1.35016 0
M  V30 28836 C 2581.73 1.906 -1.27296 0
M  V30 28837 C 2582.73 1.59722 -0.185845 0
M  V30 28838 O 2583.92 1.68574 -0.439132 0
M  V30 28839 C 2581.05 3.26876 -0.967733 0
M  V30 28840 H 2582.24 1.98866 -2.24482 0
M  V30 28841 H 2579.79 1.00806 -1.19448 0
M  V30 28842 H 2580.53 3.243 0.000538396 0
M  V30 28843 H 2580.31 3.50672 -1.75418 0
M  V30 28844 H 2581.8 4.06902 -0.939156 0
M  V30 28845 N 2582.24 1.18909 1.03433 0
M  V30 28846 C 2583.47 1.01345 1.8038 0
M  V30 28847 C 2583.88 -0.437973 1.8365 0
M  V30 28848 O 2583.24 -1.30422 1.27657 0
M  V30 28849 C 2583.29 1.56879 3.25686 0
M  V30 28850 O 2583.01 2.96339 3.22668 0
M  V30 28851 C 2584.51 1.44022 4.19253 0
M  V30 28852 H 2581.73 0.3575 0.567833 0
M  V30 28853 H 2584.28 1.57602 1.30315 0
M  V30 28854 H 2582.43 1.04783 3.7296 0
M  V30 28855 H 2582.85 3.22362 4.13742 0
M  V30 28856 H 2584.32 1.87666 5.1912 0
M  V30 28857 H 2584.8 0.389892 4.37466 0
M  V30 28858 H 2585.4 1.95221 3.77848 0
M  V30 28859 N 2583.72 -1.22452 0.992137 0
M  V30 28860 C 2584.97 -1.90491 0.663026 0
M  V30 28861 C 2585.28 -1.78114 -0.808376 0
M  V30 28862 O 2586.49 -2.41063 -1.24904 0
M  V30 28863 C 2584.94 -3.41523 1.13536 0
M  V30 28864 C 2584.55 -3.62538 2.63193 0
M  V30 28865 C 2586.29 -4.15267 0.880538 0
M  V30 28866 C 2584.2 -5.07265 3.04033 0
M  V30 28867 H 2583.13 -0.713329 0.24429 0
M  V30 28868 H 2585.78 -1.38686 1.2016 0
M  V30 28869 H 2584.16 -3.92506 0.524919 0
M  V30 28870 H 2585.34 -3.2205 3.29576 0
M  V30 28871 H 2583.65 -3.02124 2.86549 0
M  V30 28872 H 2586.25 -5.21935 1.16138 0
M  V30 28873 H 2586.59 -4.15896 -0.183335 0
M  V30 28874 H 2587.13 -3.70309 1.45313 0
M  V30 28875 H 2583.87 -5.11775 4.09593 0
M  V30 28876 H 2583.39 -5.48658 2.42353 0
M  V30 28877 H 2585.06 -5.75684 2.95292 0
M  V30 28878 N 2585.2 -0.765242 -1.37774 0
M  V30 28879 C 2586.13 -0.160994 -2.32944 0
M  V30 28880 C 2587.11 0.690488 -1.55455 0
M  V30 28881 O 2588.29 0.629286 -1.83722 0
M  V30 28882 C 2585.42 0.723971 -3.3967 0
M  V30 28883 C 2584.38 -0.0256925 -4.27992 0
M  V30 28884 C 2583.7 0.97829 -5.25674 0
M  V30 28885 C 2585 -1.20091 -5.08306 0
M  V30 28886 H 2586.7 -0.956019 -2.83726 0
M  V30 28887 H 2584.24 -0.461173 -1.36416 0
M  V30 28888 H 2586.2 1.15645 -4.05221 0
M  V30 28889 H 2584.92 1.55144 -2.87398 0
M  V30 28890 H 2583.58 -0.438876 -3.63964 0
M  V30 28891 H 2583.23 1.80014 -4.69685 0
M  V30 28892 H 2582.93 0.481275 -5.85626 0
M  V30 28893 H 2584.45 1.40984 -5.94101 0
M  V30 28894 H 2585.86 -0.845407 -5.67032 0
M  V30 28895 H 2584.26 -1.62957 -5.77551 0
M  V30 28896 H 2585.33 -2.00819 -4.41361 0
M  V30 28897 N 2586.67 1.48939 -0.515251 0
M  V30 28898 C 2587.58 2.33158 0.259733 0
M  V30 28899 C 2588.6 1.4555 0.953475 0
M  V30 28900 O 2589.78 1.78553 0.931703 0
M  V30 28901 C 2586.84 3.21329 1.30187 0
M  V30 28902 C 2585.9 4.24799 0.620054 0
M  V30 28903 C 2585.14 5.08756 1.61254 0
M  V30 28904 O 2585.36 4.94453 2.84381 0
M  V30 28905 O 2584.29 5.90616 1.16003 0
M  V30 28906 H 2588.12 3.00641 -0.429984 0
M  V30 28907 H 2585.7 1.46821 -0.276372 0
M  V30 28908 H 2587.59 3.75909 1.90448 0
M  V30 28909 H 2586.26 2.56524 1.97426 0
M  V30 28910 H 2585.17 3.74093 -0.0226677 0
M  V30 28911 H 2586.5 4.92199 -0.0101358 0
M  V30 28912 N 2588.15 0.249709 1.55609 0
M  V30 28913 C 2589.08 -0.642787 2.24478 0
M  V30 28914 C 2590.06 -1.17909 1.22603 0
M  V30 28915 O 2591.25 -1.21792 1.51263 0
M  V30 28916 C 2588.38 -1.83858 2.94641 0
M  V30 28917 C 2587.33 -1.43493 4.03229 0
M  V30 28918 C 2586.66 -2.71178 4.60833 0
M  V30 28919 C 2587.96 -0.60391 5.18797 0
M  V30 28920 H 2589.65 -0.0685099 2.99322 0
M  V30 28921 H 2587.2 -0.031511 1.43966 0
M  V30 28922 H 2589.15 -2.46862 3.41522 0
M  V30 28923 H 2587.88 -2.43828 2.17291 0
M  V30 28924 H 2586.54 -0.828212 3.57122 0
M  V30 28925 H 2586.18 -3.29352 3.8018 0
M  V30 28926 H 2585.88 -2.44892 5.34137 0
M  V30 28927 H 2587.41 -3.35075 5.10448 0
M  V30 28928 H 2588.82 -1.13832 5.61885 0
M  V30 28929 H 2587.22 -0.436992 5.98507 0
M  V30 28930 H 2588.29 0.383232 4.83383 0
M  V30 28931 N 2589.63 -1.57583 -0.0233682 0
M  V30 28932 C 2591.05 -1.55032 -0.379107 0
M  V30 28933 C 2591.25 -0.976579 -1.76253 0
M  V30 28934 O 2590.3 -0.600121 -2.45265 0
M  V30 28935 C 2591.62 -2.99433 -0.275739 0
M  V30 28936 C 2593.16 -3.1101 -0.352403 0
M  V30 28937 C 2593.64 -4.57153 -0.278421 0
M  V30 28938 N 2595.13 -4.61972 -0.337041 0
M  V30 28939 C 2595.87 -5.726 -0.302775 0
M  V30 28940 N 2595.36 -6.92449 -0.220468 0
M  V30 28941 N 2597.15 -5.60991 -0.352924 0
M  V30 28942 H 2589.31 -1.93226 0.881903 0
M  V30 28943 H 2591.57 -0.886503 0.335882 0
M  V30 28944 H 2591.27 -3.45158 0.675168 0
M  V30 28945 H 2591.15 -3.6179 -1.06714 0
M  V30 28946 H 2593.54 -2.65229 -1.29375 0
M  V30 28947 H 2593.62 -2.51474 0.468453 0
M  V30 28948 H 2593.26 -5.03603 0.659278 0
M  V30 28949 H 2593.19 -5.14607 -1.11746 0
M  V30 28950 H 2595.68 -3.75746 -0.402936 0
M  V30 28951 H 2595.99 -7.72542 -0.199577 0
M  V30 28952 H 2594.34 -6.9475 -0.186433 0
M  V30 28953 H 2597.53 -4.66254 -0.415258 0
M  V30 28954 H 2597.7 -6.47196 -0.322752 0
M  V30 28955 N 2591.11 0.29574 -1.548 0
M  V30 28956 C 2592.33 1.05343 -1.78655 0
M  V30 28957 C 2592.76 1.79973 -0.546926 0
M  V30 28958 O 2592.12 1.7419 0.502732 0
M  V30 28959 C 2592.17 2.00555 -2.99683 0
M  V30 28960 O 2591.27 3.08948 -2.73176 0
M  V30 28961 H 2590.61 0.302356 -0.591166 0
M  V30 28962 H 2593.14 0.331562 -2.01896 0
M  V30 28963 H 2593.15 2.42926 -3.27797 0
M  V30 28964 H 2591.83 1.45643 -3.89565 0
M  V30 28965 H 2590.4 2.71055 -2.56093 0
M  V30 28966 N 2592.59 1.47346 0.559187 0
M  V30 28967 C 2593.52 1.55741 1.68158 0
M  V30 28968 C 2594.53 0.443772 1.56635 0
M  V30 28969 O 2595.72 0.713287 1.63629 0
M  V30 28970 C 2592.82 1.44376 3.06609 0
M  V30 28971 C 2591.99 2.70274 3.43905 0
M  V30 28972 C 2591.05 2.52773 4.61511 0
M  V30 28973 O 2590.08 3.2658 4.66191 0
M  V30 28974 N 2591.28 1.6047 5.5788 0
M  V30 28975 H 2594.05 2.52525 1.61403 0
M  V30 28976 H 2591.61 1.437 0.745775 0
M  V30 28977 H 2593.6 1.30405 3.83114 0
M  V30 28978 H 2592.17 0.55682 3.07601 0
M  V30 28979 H 2591.39 2.99019 2.56868 0
M  V30 28980 H 2592.68 3.53858 3.65598 0
M  V30 28981 H 2592.08 0.99652 5.56854 0
M  V30 28982 H 2590.63 1.52452 6.3372 0
M  V30 28983 N 2594.07 -0.805758 1.35445 0
M  V30 28984 C 2595 -1.93224 1.31099 0
M  V30 28985 C 2595.98 -1.69088 0.185274 0
M  V30 28986 O 2597.16 -1.90439 0.380366 0
M  V30 28987 C 2594.29 -3.29981 1.08305 0
M  V30 28988 C 2593.25 -3.68601 2.17526 0
M  V30 28989 C 2592.57 -5.03529 1.79896 0
M  V30 28990 C 2593.87 -3.78892 3.59497 0
M  V30 28991 H 2595.57 -1.97118 2.25355 0
M  V30 28992 H 2593.11 -0.946977 1.08482 0
M  V30 28993 H 2595.06 -4.08389 1.03904 0
M  V30 28994 H 2593.79 -3.26431 0.104942 0
M  V30 28995 H 2592.45 -2.92478 2.21025 0
M  V30 28996 H 2592.1 -4.96484 0.807017 0
M  V30 28997 H 2591.8 -5.30339 2.5301 0
M  V30 28998 H 2593.32 -5.84376 1.77022 0
M  V30 28999 H 2594.73 -4.4753 3.58315 0
M  V30 29000 H 2593.13 -4.17173 4.31378 0
M  V30 29001 H 2594.2 -2.80424 3.95589 0
M  V30 29002 N 2595.54 -1.19456 -1.02801 0
M  V30 29003 C 2596.48 -0.890844 -2.11179 0
M  V30 29004 C 2597.49 0.1168 -1.6238 0
M  V30 29005 O 2598.68 -0.112725 -1.78144 0
M  V30 29006 C 2595.78 -0.312002 -3.37461 0
M  V30 29007 C 2594.95 -1.36841 -4.15443 0
M  V30 29008 C 2594.01 -0.802955 -5.20038 0
M  V30 29009 O 2593.04 -1.48086 -5.49599 0
M  V30 29010 N 2594.24 0.393315 -5.79166 0
M  V30 29011 H 2597 -1.82373 -2.37824 0
M  V30 29012 H 2594.56 -1.09668 -1.19099 0
M  V30 29013 H 2596.56 0.0801514 -4.04621 0
M  V30 29014 H 2595.13 0.525186 -3.08157 0
M  V30 29015 H 2594.35 -1.93537 -3.4342 0
M  V30 29016 H 2595.63 -2.08023 -4.64332 0
M  V30 29017 H 2595.03 0.96156 -5.57468 0
M  V30 29018 H 2593.59 0.727237 -6.4773 0
M  V30 29019 N 2597.02 1.21924 -0.998617 0
M  V30 29020 C 2598.27 1.90137 -0.673119 0
M  V30 29021 C 2598.58 1.7854 0.798919 0
M  V30 29022 O 2599.79 2.41722 1.23624 0
M  V30 29023 C 2598.25 3.40916 -1.15345 0
M  V30 29024 C 2597.85 3.61137 -2.65112 0
M  V30 29025 C 2599.6 4.14794 -0.902549 0
M  V30 29026 C 2597.5 5.05646 -3.06719 0
M  V30 29027 H 2596.43 0.712023 -0.24807 0
M  V30 29028 H 2599.09 1.38047 -1.20894 0
M  V30 29029 H 2597.47 3.92222 -0.545727 0
M  V30 29030 H 2598.64 3.20298 -3.31279 0
M  V30 29031 H 2596.96 3.006 -2.88147 0
M  V30 29032 H 2599.55 5.21312 -1.18904 0
M  V30 29033 H 2599.9 4.15987 0.161276 0
M  V30 29034 H 2600.43 3.69533 -1.47275 0
M  V30 29035 H 2597.17 5.09596 -4.12301 0
M  V30 29036 H 2596.69 5.47365 -2.45259 0
M  V30 29037 H 2598.37 5.7411 -2.98341 0
M  V30 29038 N 2598.5 0.772537 1.37367 0
M  V30 29039 C 2599.72 0.347421 2.04469 0
M  V30 29040 C 2600.15 -1.02247 1.57883 0
M  V30 29041 O 2599.51 -1.65535 0.739439 0
M  V30 29042 C 2599.56 0.400542 3.58369 0
M  V30 29043 O 2598.66 -0.598718 4.08031 0
M  V30 29044 H 2598 0.150282 0.64677 0
M  V30 29045 H 2600.53 1.04895 1.75665 0
M  V30 29046 H 2600.54 0.258117 4.07183 0
M  V30 29047 H 2599.22 1.39993 3.91631 0
M  V30 29048 H 2597.79 -0.419346 3.70535 0
M  V30 29049 N 2599.98 -1.48664 0.523142 0
M  V30 29050 C 2600.93 -2.31178 -0.256818 0
M  V30 29051 C 2601.92 -1.40796 -0.941965 0
M  V30 29052 O 2603.13 -1.57737 -0.867129 0
M  V30 29053 H 2599.5 -0.745093 -0.101687 0
M  V30 29054 H 2601.47 -2.94852 0.458791 0
M  V30 29055 C 2600.22 -3.22685 -1.29498 0
M  V30 29056 H 2599.54 -3.92173 -0.777179 0
M  V30 29057 H 2600.98 -3.83318 -1.81226 0
M  V30 29058 C 2599.44 -2.43817 -2.32497 0
M  V30 29059 O 2599.97 -2.15808 -3.38806 0
M  V30 29060 N 2598.18 -2.05436 -2.05534 0
M  V30 29061 H 2597.73 -2.28414 -1.191 0
M  V30 29062 H 2597.68 -1.52977 -2.74673 0
M  V30 29063 N 2601.46 -0.257958 -1.55475 0
M  V30 29064 C 2602.4 0.653037 -2.23245 0
M  V30 29065 C 2603.4 1.17142 -1.22369 0
M  V30 29066 O 2604.6 1.12704 -1.40349 0
M  V30 29067 H 2600.98 0.229104 -0.716251 0
M  V30 29068 H 2602.95 0.0584263 -2.98343 0
M  V30 29069 C 2601.7 1.8339 -2.95404 0
M  V30 29070 H 2601.02 1.44418 -3.72805 0
M  V30 29071 H 2602.46 2.44832 -3.4617 0
M  V30 29072 C 2600.92 2.71186 -1.999 0
M  V30 29073 O 2601.45 3.71043 -1.53915 0
M  V30 29074 N 2599.66 2.37987 -1.66765 0
M  V30 29075 H 2599.2 1.56834 -2.04355 0
M  V30 29076 H 2599.16 2.97004 -1.03132 0
M  V30 29077 N 2602.93 1.57593 0.0150108 0
M  V30 29078 C 2604.35 1.55231 0.37088 0
M  V30 29079 C 2604.55 0.985912 1.75733 0
M  V30 29080 O 2603.61 0.61312 2.44943 0
M  V30 29081 C 2604.92 2.99575 0.259856 0
M  V30 29082 C 2606.47 3.11192 0.335904 0
M  V30 29083 C 2606.94 4.57294 0.254173 0
M  V30 29084 N 2608.43 4.62144 0.312537 0
M  V30 29085 C 2609.17 5.72753 0.272405 0
M  V30 29086 N 2608.66 6.92556 0.183742 0
M  V30 29087 N 2610.46 5.6117 0.323169 0
M  V30 29088 H 2602.61 1.92755 -0.892138 0
M  V30 29089 H 2604.87 0.884709 -0.340579 0
M  V30 29090 H 2604.58 3.44796 -0.693463 0
M  V30 29091 H 2604.45 3.62351 1.04794 0
M  V30 29092 H 2606.84 2.65911 1.27966 0
M  V30 29093 H 2606.92 2.51222 -0.481783 0
M  V30 29094 H 2606.56 5.03246 -0.685976 0
M  V30 29095 H 2606.49 5.15192 1.09015 0
M  V30 29096 H 2608.98 3.75954 0.383003 0
M  V30 29097 H 2609.3 7.72637 0.158604 0
M  V30 29098 H 2607.64 6.94839 0.149586 0
M  V30 29099 H 2610.83 4.66468 0.390525 0
M  V30 29100 H 2611.01 6.47358 0.288425 0
M  V30 29101 N 2604.41 -0.287527 1.54955 0
M  V30 29102 C 2605.64 -1.03964 1.78883 0
M  V30 29103 C 2606.06 -1.80461 0.554925 0
M  V30 29104 O 2605.41 -1.76193 -0.475645 0
M  V30 29105 C 2605.46 -2.00965 3.00492 0
M  V30 29106 O 2605.18 -1.27569 4.19115 0
M  V30 29107 C 2606.69 -2.88106 3.36912 0
M  V30 29108 H 2603.91 -0.30775 0.596264 0
M  V30 29109 H 2606.45 -0.322713 2.01938 0
M  V30 29110 H 2604.6 -2.6814 2.79606 0
M  V30 29111 H 2605.02 -1.92826 4.87769 0
M  V30 29112 H 2606.49 -3.51993 4.25211 0
M  V30 29113 H 2606.97 -3.57116 2.55665 0
M  V30 29114 H 2607.58 -2.26442 3.60005 0
M  V30 29115 N 2605.89 -1.47641 -0.551365 0
M  V30 29116 C 2606.82 -1.63448 -1.66755 0
M  V30 29117 C 2607.8 -0.48377 -1.63076 0
M  V30 29118 O 2608.99 -0.713802 -1.80606 0
M  V30 29119 C 2606.12 -1.65401 -3.05384 0
M  V30 29120 C 2605.07 -2.79758 -3.23913 0
M  V30 29121 C 2604.4 -2.66787 -4.63388 0
M  V30 29122 C 2605.7 -4.21289 -3.08727 0
M  V30 29123 H 2607.39 -2.56888 -1.53781 0
M  V30 29124 H 2604.94 -1.23627 -0.738394 0
M  V30 29125 H 2606.89 -1.7505 -3.83322 0
M  V30 29126 H 2605.61 -0.685251 -3.1933 0
M  V30 29127 H 2604.27 -2.69629 -2.48386 0
M  V30 29128 H 2603.92 -1.67926 -4.74141 0
M  V30 29129 H 2603.62 -3.4351 -4.76734 0
M  V30 29130 H 2605.14 -2.78373 -5.43453 0
M  V30 29131 H 2606.56 -4.32364 -3.76476 0
M  V30 29132 H 2604.96 -4.98844 -3.33579 0
M  V30 29133 H 2606.03 -4.39247 -2.05402 0
M  V30 29134 N 2607.37 0.798563 -1.3587 0
M  V30 29135 C 2608.28 1.94226 -1.31581 0
M  V30 29136 C 2609.29 1.72611 -0.219421 0
M  V30 29137 O 2610.47 1.96304 -0.450201 0
M  V30 29138 C 2607.54 3.28942 -1.09534 0
M  V30 29139 C 2606.6 3.63398 -2.28562 0
M  V30 29140 C 2605.83 4.91686 -2.07558 0
M  V30 29141 O 2606.05 5.60725 -1.04609 0
M  V30 29142 O 2604.99 5.24586 -2.95115 0
M  V30 29143 H 2608.81 2.00792 -2.27851 0
M  V30 29144 H 2606.4 0.937505 -1.16324 0
M  V30 29145 H 2608.28 4.09577 -0.991199 0
M  V30 29146 H 2606.95 3.23288 -0.163207 0
M  V30 29147 H 2605.86 2.83107 -2.44543 0
M  V30 29148 H 2607.19 3.73766 -3.2025 0
M  V30 29149 N 2608.85 1.19999 1.02166 0
M  V30 29150 C 2609.78 0.968077 2.12486 0
M  V30 29151 C 2610.76 -0.101155 1.69799 0
M  V30 29152 O 2611.94 0.0553334 1.94121 0
M  V30 29153 C 2609.07 0.513836 3.43478 0
M  V30 29154 C 2608.03 1.52573 3.99882 0
M  V30 29155 C 2607.35 0.928307 5.2658 0
M  V30 29156 C 2608.65 2.90803 4.33856 0
M  V30 29157 H 2610.35 1.89074 2.32146 0
M  V30 29158 H 2607.89 0.910488 1.11562 0
M  V30 29159 H 2609.85 0.338847 4.20035 0
M  V30 29160 H 2608.57 -0.444436 3.23562 0
M  V30 29161 H 2607.23 1.68799 3.25426 0
M  V30 29162 H 2606.88 -0.0377405 5.02986 0
M  V30 29163 H 2606.58 1.60407 5.65282 0
M  V30 29164 H 2608.1 0.764274 6.05798 0
M  V30 29165 H 2609.51 2.78118 5.01322 0
M  V30 29166 H 2607.91 3.55239 4.83658 0
M  V30 29167 H 2608.98 3.4291 3.42842 0
M  V30 29168 N 2610.32 -1.21392 1.00507 0
M  V30 29169 C 2611.26 -2.23135 0.523759 0
M  V30 29170 C 2612.27 -1.58117 -0.387686 0
M  V30 29171 O 2613.46 -1.77509 -0.187874 0
M  V30 29172 C 2610.56 -3.3791 -0.258826 0
M  V30 29173 C 2609.73 -4.32518 0.65171 0
M  V30 29174 C 2608.79 -5.26137 -0.081278 0
M  V30 29175 O 2607.82 -5.66657 0.537395 0
M  V30 29176 N 2609.02 -5.64348 -1.35982 0
M  V30 29177 H 2611.78 -2.6506 1.39869 0
M  V30 29178 H 2609.34 -1.35817 0.88122 0
M  V30 29179 H 2611.34 -3.97535 -0.758138 0
M  V30 29180 H 2609.91 -2.9497 -1.03495 0
M  V30 29181 H 2609.13 -3.71031 1.33151 0
M  V30 29182 H 2610.41 -4.9266 1.27137 0
M  V30 29183 H 2609.81 -5.33421 -1.88359 0
M  V30 29184 H 2608.37 -6.26335 -1.80408 0
M  V30 29185 N 2611.8 -0.779811 -1.36955 0
M  V30 29186 C 2613.05 -0.347114 -1.99097 0
M  V30 29187 C 2613.37 1.08229 -1.62208 0
M  V30 29188 O 2612.64 1.74444 -0.891404 0
M  V30 29189 H 2611.22 -0.125355 -0.736407 0
M  V30 29190 H 2613.88 -0.999726 -1.67307 0
M  V30 29191 H 2612.98 -0.431216 -3.09107 0
M  V30 29192 N 2613.28 1.48384 -0.531019 0
M  V30 29193 C 2614.21 2.32462 0.219944 0
M  V30 29194 C 2615.19 1.42158 0.934086 0
M  V30 29195 O 2616.38 1.71043 0.919663 0
M  V30 29196 C 2613.51 3.23377 1.26668 0
M  V30 29197 C 2612.46 4.22714 0.670616 0
M  V30 29198 C 2611.79 5.0277 1.82008 0
M  V30 29199 C 2613.09 5.21069 -0.35836 0
M  V30 29200 H 2614.78 2.95496 -0.481922 0
M  V30 29201 H 2612.33 1.42099 -0.233207 0
M  V30 29202 H 2614.28 3.81023 1.79999 0
M  V30 29203 H 2613 2.58345 1.99814 0
M  V30 29204 H 2611.66 3.66256 0.158813 0
M  V30 29205 H 2611.31 4.34161 2.53994 0
M  V30 29206 H 2611.01 5.70005 1.42717 0
M  V30 29207 H 2612.53 5.63268 2.35716 0
M  V30 29208 H 2613.95 5.73233 0.0879074 0
M  V30 29209 H 2612.35 5.96362 -0.668715 0
M  V30 29210 H 2613.42 4.68142 -1.26375 0
M  V30 29211 N 2614.76 0.2662 1.55336 0
M  V30 29212 C 2616.01 -0.353714 1.98574 0
M  V30 29213 C 2616.32 -1.57644 1.15792 0
M  V30 29214 O 2617.53 -2.26873 1.49133 0
M  V30 29215 C 2615.98 -0.680685 3.53404 0
M  V30 29216 C 2615.59 0.521729 4.44952 0
M  V30 29217 C 2617.33 -1.26372 4.05254 0
M  V30 29218 C 2615.24 0.169839 5.91156 0
M  V30 29219 H 2614.17 -0.135936 0.741645 0
M  V30 29220 H 2616.82 0.369452 1.79742 0
M  V30 29221 H 2615.2 -1.46251 3.68004 0
M  V30 29222 H 2616.38 1.29877 4.42118 0
M  V30 29223 H 2614.69 1.021 4.03689 0
M  V30 29224 H 2617.29 -1.54065 5.12023 0
M  V30 29225 H 2617.63 -2.19465 3.53753 0
M  V30 29226 H 2618.17 -0.544378 3.94058 0
M  V30 29227 H 2614.91 1.06841 6.46734 0
M  V30 29228 H 2614.43 -0.570612 5.9708 0
M  V30 29229 H 2616.1 -0.241132 6.46551 0
M  V30 29230 N 2616.24 -1.57599 -0.0066531 0
M  V30 29231 C 2617.18 -2.09117 -1.01847 0
M  V30 29232 C 2618.18 -1.00971 -1.36019 0
M  V30 29233 O 2619.38 -1.19442 -1.34661 0
M  V30 29234 H 2615.76 -0.667637 -0.346071 0
M  V30 29235 H 2617.73 -2.9313 -0.558343 0
M  V30 29236 C 2616.48 -2.60433 -2.3037 0
M  V30 29237 H 2615.8 -3.43277 -2.04941 0
M  V30 29238 H 2617.24 -3.00166 -2.9946 0
M  V30 29239 C 2615.7 -1.51548 -3.0089 0
M  V30 29240 O 2616.23 -0.894553 -3.91613 0
M  V30 29241 N 2614.44 -1.24455 -2.62601 0
M  V30 29242 H 2613.98 -1.75133 -1.88908 0
M  V30 29243 H 2613.94 -0.518192 -3.101 0
M  V30 29244 N 2617.72 0.279305 -1.55105 0
M  V30 29245 C 2618.99 1.03264 -1.6612 0
M  V30 29246 C 2619.37 2.04504 -0.523561 0
M  V30 29247 O 2618.72 2.23462 0.477155 0
M  V30 29248 C 2618.93 1.6951 -3.0507 0
M  V30 29249 C 2620.28 2.20906 -3.6261 0
M  V30 29250 O 2621.3 1.79507 -3.07662 0
M  V30 29251 O 2620.16 2.96823 -4.58867 0
M  V30 29252 H 2617.26 0.478606 -0.674437 0
M  V30 29253 H 2619.8 0.275664 -1.67446 0
M  V30 29254 H 2618.57 0.961134 -3.79312 0
M  V30 29255 H 2618.2 2.51909 -3.07616 0
M  V30 29256 N 2619.19 1.47931 0.543528 0
M  V30 29257 C 2620.12 1.6433 1.65885 0
M  V30 29258 C 2621.1 0.492412 1.62817 0
M  V30 29259 O 2622.29 0.72337 1.80225 0
M  V30 29260 C 2619.42 1.67019 3.04503 0
M  V30 29261 C 2618.37 2.81472 3.22425 0
M  V30 29262 C 2617.7 2.69241 4.61967 0
M  V30 29263 C 2619 4.22921 3.06489 0
M  V30 29264 H 2620.69 2.577 1.52417 0
M  V30 29265 H 2618.24 1.24017 0.731827 0
M  V30 29266 H 2620.19 1.77081 3.82388 0
M  V30 29267 H 2618.92 0.702176 3.18962 0
M  V30 29268 H 2617.58 2.70943 2.46953 0
M  V30 29269 H 2617.22 1.70438 4.73244 0
M  V30 29270 H 2616.92 3.46033 4.74905 0
M  V30 29271 H 2618.45 2.81251 5.41969 0
M  V30 29272 H 2619.86 4.34354 3.74178 0
M  V30 29273 H 2618.26 5.00606 3.30929 0
M  V30 29274 H 2619.33 4.4033 2.0307 0
M  V30 29275 N 2620.67 -0.791347 1.36292 0
M  V30 29276 C 2621.6 -1.91246 1.26324 0
M  V30 29277 C 2622.62 -1.61766 0.183158 0
M  V30 29278 O 2623.81 -1.7305 0.437713 0
M  V30 29279 C 2620.91 -3.26005 0.925959 0
M  V30 29280 C 2620.08 -3.83278 2.10753 0
M  V30 29281 C 2619.14 -4.96472 1.74361 0
M  V30 29282 O 2618.16 -5.13092 2.46425 0
M  V30 29283 N 2619.37 -5.76549 0.676159 0
M  V30 29284 H 2622.13 -2.00319 2.22918 0
M  V30 29285 H 2619.69 -0.969523 1.29661 0
M  V30 29286 H 2621.68 -3.99221 0.663706 0
M  V30 29287 H 2620.25 -3.12561 0.049213 0
M  V30 29288 H 2619.47 -3.02073 2.5327 0
M  V30 29289 H 2620.76 -4.18274 2.89697 0
M  V30 29290 H 2620.16 -5.65647 0.0777461 0
M  V30 29291 H 2618.72 -6.50076 0.473726 0
M  V30 29292 N 2622.15 -1.2054 -1.01528 0
M  V30 29293 C 2623.57 -0.960533 -1.2746 0
M  V30 29294 C 2623.77 0.359158 -1.98273 0
M  V30 29295 O 2622.82 1.08736 -2.27887 0
M  V30 29296 C 2624.13 -2.14406 -2.10833 0
M  V30 29297 C 2625.68 -2.18519 -2.24095 0
M  V30 29298 C 2626.16 -3.36361 -3.10846 0
M  V30 29299 N 2627.65 -3.36383 -3.18435 0
M  V30 29300 C 2628.38 -4.24212 -3.85787 0
M  V30 29301 N 2627.88 -5.22221 -4.55255 0
M  V30 29302 N 2629.67 -4.12049 -3.82324 0
M  V30 29303 H 2621.82 -2.05424 -0.539871 0
M  V30 29304 H 2624.09 -0.898978 -0.300904 0
M  V30 29305 H 2623.79 -3.09985 -1.66138 0
M  V30 29306 H 2623.67 -2.12609 -3.11572 0
M  V30 29307 H 2626.05 -1.23501 -2.68014 0
M  V30 29308 H 2626.13 -2.24363 -1.22861 0
M  V30 29309 H 2625.78 -4.31665 -2.67633 0
M  V30 29310 H 2625.71 -3.27754 -4.12171 0
M  V30 29311 H 2628.2 -2.65447 -2.68973 0
M  V30 29312 H 2628.51 -5.8556 -5.04321 0
M  V30 29313 H 2626.86 -5.26156 -4.54076 0
M  V30 29314 H 2630.05 -3.34749 -3.27201 0
M  V30 29315 H 2630.22 -4.80708 -4.34539 0
M  V30 29316 N 2623.63 1.20858 -1.01149 0
M  V30 29317 C 2624.54 2.2714 -0.5869 0
M  V30 29318 C 2625.55 1.69951 0.373168 0
M  V30 29319 O 2626.73 2.0002 0.235388 0
M  V30 29320 C 2623.79 3.46623 0.0732993 0
M  V30 29321 C 2622.86 4.1906 -0.932068 0
M  V30 29322 C 2622.09 5.32838 -0.303279 0
M  V30 29323 O 2622.31 5.63282 0.898296 0
M  V30 29324 O 2621.25 5.93238 -1.01746 0
M  V30 29325 H 2625.07 2.65665 -1.4716 0
M  V30 29326 H 2622.66 1.27378 -0.780712 0
M  V30 29327 H 2624.54 4.19073 0.442259 0
M  V30 29328 H 2623.21 3.09984 0.932274 0
M  V30 29329 H 2622.12 3.48803 -1.3523 0
M  V30 29330 H 2623.45 4.59625 -1.76084 0
M  V30 29331 N 2625.11 0.787064 1.3654 0
M  V30 29332 C 2626.52 0.468467 1.5257 0
M  V30 29333 C 2626.72 -1.01358 1.74152 0
M  V30 29334 O 2625.78 -1.79912 1.77166 0
M  V30 29335 C 2627.09 1.29686 2.71297 0
M  V30 29336 C 2628.64 1.29032 2.85166 0
M  V30 29337 C 2629.11 2.1024 4.06895 0
M  V30 29338 N 2630.6 2.07673 4.14036 0
M  V30 29339 C 2631.34 2.6728 5.07296 0
M  V30 29340 N 2630.84 3.35735 6.06015 0
M  V30 29341 N 2632.63 2.57026 4.99894 0
M  V30 29342 H 2624.78 1.74714 1.20785 0
M  V30 29343 H 2627.04 0.742543 0.589351 0
M  V30 29344 H 2626.75 2.34777 2.61864 0
M  V30 29345 H 2626.62 0.936543 3.65388 0
M  V30 29346 H 2629.01 0.247336 2.94062 0
M  V30 29347 H 2629.09 1.69038 1.91989 0
M  V30 29348 H 2628.73 3.14567 3.9876 0
M  V30 29349 H 2628.66 1.67605 4.99215 0
M  V30 29350 H 2631.16 1.57849 3.43354 0
M  V30 29351 H 2631.47 3.78553 6.73734 0
M  V30 29352 H 2629.81 3.39837 6.06247 0
M  V30 29353 H 2633 2.03149 4.2172 0
M  V30 29354 H 2633.18 3.03772 5.72387 0
M  V30 29355 N 2626.58 -1.48101 0.53888 0
M  V30 29356 C 2627.49 -2.33541 -0.222607 0
M  V30 29357 C 2628.51 -1.47049 -0.930199 0
M  V30 29358 O 2629.69 -1.80013 -0.903179 0
M  V30 29359 C 2626.75 -3.23359 -1.25059 0
M  V30 29360 C 2625.81 -4.25731 -0.552394 0
M  V30 29361 C 2625.04 -5.11257 -1.5314 0
M  V30 29362 O 2625.27 -4.98915 -2.76478 0
M  V30 29363 O 2624.2 -5.92387 -1.06592 0
M  V30 29364 H 2628.03 -2.99919 0.477759 0
M  V30 29365 H 2625.61 -1.46363 0.299695 0
M  V30 29366 H 2627.49 -3.78891 -1.84444 0
M  V30 29367 H 2626.17 -2.59632 -1.9332 0
M  V30 29368 H 2625.08 -3.7401 0.0821798 0
M  V30 29369 H 2626.41 -4.92121 0.0884391 0
M  V30 29370 N 2628.06 -0.274434 -1.55192 0
M  V30 29371 C 2629.01 0.629322 -2.23925 0
M  V30 29372 C 2630 1.15838 -1.23604 0
M  V30 29373 O 2631.21 1.11209 -1.41537 0
M  V30 29374 H 2627.58 0.221494 -0.718641 0
M  V30 29375 H 2629.56 0.0267798 -2.98388 0
M  V30 29376 C 2628.3 1.80246 -2.97332 0
M  V30 29377 H 2627.63 1.40455 -3.74316 0
M  V30 29378 H 2629.07 2.41146 -3.48747 0
M  V30 29379 C 2627.53 2.6905 -2.02765 0
M  V30 29380 O 2628.06 3.6939 -1.57842 0
M  V30 29381 N 2626.26 2.36205 -1.69279 0
M  V30 29382 H 2625.81 1.54658 -2.06007 0
M  V30 29383 H 2625.77 2.95893 -1.06276 0
M  V30 29384 N 2629.54 1.576 -0.00170483 0
M  V30 29385 C 2630.47 2.11565 0.988053 0
M  V30 29386 C 2631.45 1.02519 1.35735 0
M  V30 29387 O 2632.64 1.3021 1.44079 0
M  V30 29388 C 2629.77 2.62035 2.27937 0
M  V30 29389 C 2628.72 3.75622 2.05163 0
M  V30 29390 C 2628.05 4.12413 3.40323 0
M  V30 29391 C 2629.35 5.02828 1.41285 0
M  V30 29392 H 2631.04 2.94513 0.538719 0
M  V30 29393 H 2628.59 1.41676 0.257687 0
M  V30 29394 H 2630.54 2.98415 2.97533 0
M  V30 29395 H 2629.26 1.7621 2.74986 0
M  V30 29396 H 2627.92 3.39638 1.37992 0
M  V30 29397 H 2627.57 3.2361 3.85079 0
M  V30 29398 H 2627.27 4.8894 3.25901 0
M  V30 29399 H 2628.79 4.51354 4.11232 0
M  V30 29400 H 2630.21 5.36969 2.00841 0
M  V30 29401 H 2628.6 5.84171 1.37346 0
M  V30 29402 H 2629.67 4.83391 0.382278 0
M  V30 29403 N 2631.02 -0.271076 1.55251 0
M  V30 29404 C 2632.43 -0.618367 1.47134 0
M  V30 29405 C 2632.63 -1.89426 0.687028 0
M  V30 29406 O 2631.69 -2.51653 0.206653 0
M  V30 29407 C 2633 -0.743541 2.91362 0
M  V30 29408 C 2634.55 -0.837469 3.01588 0
M  V30 29409 C 2635.03 -0.994404 4.47074 0
M  V30 29410 N 2636.52 -1.05988 4.50911 0
M  V30 29411 C 2637.25 -1.20014 5.607 0
M  V30 29412 N 2636.75 -1.30748 6.80351 0
M  V30 29413 N 2638.54 -1.2314 5.48446 0
M  V30 29414 H 2630.69 0.56682 2.04697 0
M  V30 29415 H 2632.95 0.192182 0.928316 0
M  V30 29416 H 2632.66 0.123555 3.51483 0
M  V30 29417 H 2632.53 -1.62322 3.40487 0
M  V30 29418 H 2634.92 -1.69503 2.41563 0
M  V30 29419 H 2635 0.0668536 2.55713 0
M  V30 29420 H 2634.65 -0.141492 5.07703 0
M  V30 29421 H 2634.58 -1.9134 4.90608 0
M  V30 29422 H 2637.07 -0.989252 3.64722 0
M  V30 29423 H 2637.38 -1.41289 7.59774 0
M  V30 29424 H 2635.73 -1.27749 6.83158 0
M  V30 29425 H 2638.92 -1.14386 4.53909 0
M  V30 29426 H 2639.09 -1.33727 6.34051 0
M  V30 29427 N 2632.5 -1.48217 -0.535675 0
M  V30 29428 C 2633.43 -1.58397 -1.65659 0
M  V30 29429 C 2634.44 -0.468635 -1.55909 0
M  V30 29430 O 2635.63 -0.739228 -1.62474 0
M  V30 29431 C 2632.73 -1.49235 -3.04273 0
M  V30 29432 C 2631.9 -2.75711 -3.39562 0
M  V30 29433 C 2630.96 -2.60083 -4.57431 0
M  V30 29434 O 2629.99 -3.33956 -4.60936 0
M  V30 29435 N 2631.19 -1.69325 -5.55256 0
M  V30 29436 H 2633.96 -2.55061 -1.57366 0
M  V30 29437 H 2631.52 -1.44869 -0.722819 0
M  V30 29438 H 2633.51 -1.36484 -3.80991 0
M  V30 29439 H 2632.08 -0.605686 -3.06676 0
M  V30 29440 H 2631.3 -3.03068 -2.52078 0
M  V30 29441 H 2632.59 -3.59629 -3.59922 0
M  V30 29442 H 2631.98 -1.08498 -5.55198 0
M  V30 29443 H 2630.54 -1.62515 -6.31215 0
M  V30 29444 N 2633.97 0.784108 -1.3671 0
M  V30 29445 C 2634.88 1.92819 -1.33634 0
M  V30 29446 C 2635.9 1.72369 -0.237716 0
M  V30 29447 O 2637.08 1.95815 -0.470996 0
M  V30 29448 C 2634.14 3.27762 -1.13017 0
M  V30 29449 C 2633.2 3.60953 -2.32403 0
M  V30 29450 C 2632.44 4.89457 -2.12761 0
M  V30 29451 O 2632.66 5.59584 -1.10551 0
M  V30 29452 O 2631.59 5.21427 -3.00662 0
M  V30 29453 H 2635.42 1.98364 -2.29968 0
M  V30 29454 H 2633 0.925115 -1.17311 0
M  V30 29455 H 2634.89 4.08503 -1.03458 0
M  V30 29456 H 2633.56 3.23097 -0.197487 0
M  V30 29457 H 2632.47 2.80498 -2.47532 0
M  V30 29458 H 2633.8 3.70348 -3.24196 0
M  V30 29459 N 2635.45 1.21076 1.00888 0
M  V30 29460 C 2636.7 1.01984 1.74018 0
M  V30 29461 C 2637.01 -0.447631 1.90409 0
M  V30 29462 O 2638.22 -0.75786 2.60708 0
M  V30 29463 C 2636.68 1.77609 3.13023 0
M  V30 29464 C 2636.28 3.285 3.04617 0
M  V30 29465 C 2638.03 1.66911 3.90309 0
M  V30 29466 C 2635.94 3.96631 4.38678 0
M  V30 29467 H 2634.87 0.377982 0.652415 0
M  V30 29468 H 2637.52 1.44773 1.12752 0
M  V30 29469 H 2635.9 1.2761 3.74875 0
M  V30 29470 H 2637.07 3.85772 2.52025 0
M  V30 29471 H 2635.39 3.39697 2.40821 0
M  V30 29472 H 2637.98 2.15147 4.89506 0
M  V30 29473 H 2638.33 0.626652 4.11557 0
M  V30 29474 H 2638.86 2.14365 3.35101 0
M  V30 29475 H 2635.6 5.01061 4.22632 0
M  V30 29476 H 2635.12 3.44148 4.91245 0
M  V30 29477 H 2636.8 4.01323 5.07493 0
M  V30 29478 N 2636.93 -1.2032 1.01789 0
M  V30 29479 C 2637.84 -2.26826 0.598938 0
M  V30 29480 C 2638.86 -1.70147 -0.36415 0
M  V30 29481 O 2640.03 -2.00142 -0.224777 0
M  V30 29482 C 2637.1 -3.46657 -0.054916 0
M  V30 29483 C 2636.16 -4.18559 0.954279 0
M  V30 29484 C 2635.39 -5.32669 0.331533 0
M  V30 29485 O 2635.61 -5.63751 -0.868411 0
M  V30 29486 O 2634.55 -5.9269 1.0489 0
M  V30 29487 H 2638.37 -2.6488 1.48567 0
M  V30 29488 H 2635.96 -1.26963 0.787456 0
M  V30 29489 H 2637.84 -4.19301 -0.420028 0
M  V30 29490 H 2636.52 -3.10474 -0.915822 0
M  V30 29491 H 2635.42 -3.48081 1.37078 0
M  V30 29492 H 2636.76 -4.58685 1.78519 0
M  V30 29493 N 2638.41 -0.794293 -1.3612 0
M  V30 29494 C 2639.36 -0.194141 -2.29982 0
M  V30 29495 C 2640.33 0.664807 -1.52215 0
M  V30 29496 O 2641.51 0.612466 -1.80703 0
M  V30 29497 C 2638.65 0.661184 -3.38707 0
M  V30 29498 C 2637.76 -0.216842 -4.31455 0
M  V30 29499 C 2636.9 0.645319 -5.27266 0
M  V30 29500 C 2635.94 -0.233863 -6.11653 0
M  V30 29501 N 2635.07 0.587559 -6.99637 0
M  V30 29502 H 2639.91 -1.00001 -2.8072 0
M  V30 29503 H 2637.45 -0.504701 -1.38171 0
M  V30 29504 H 2639.41 1.17212 -4.00396 0
M  V30 29505 H 2638.04 1.43244 -2.89277 0
M  V30 29506 H 2637.09 -0.845789 -3.70878 0
M  V30 29507 H 2638.4 -0.89406 -4.90722 0
M  V30 29508 H 2637.56 1.22188 -5.94269 0
M  V30 29509 H 2636.3 1.35615 -4.68466 0
M  V30 29510 H 2635.3 -0.822785 -5.43609 0
M  V30 29511 H 2636.53 -0.942365 -6.7253 0
M  V30 29512 H 2634.47 1.28259 -6.43339 0
M  V30 29513 H 2634.39 -0.0318731 -7.55993 0
M  V30 29514 H 2635.66 1.14779 -7.71003 0
M  V30 29515 N 2639.89 1.47813 -0.546727 0
M  V30 29516 C 2641.13 2.02491 -0.0187763 0
M  V30 29517 C 2641.46 1.42217 1.32682 0
M  V30 29518 O 2640.72 0.563487 1.87412 0
M  V30 29519 C 2641.02 3.57146 0.134807 0
M  V30 29520 C 2640.68 4.36288 -1.13856 0
M  V30 29521 C 2639.34 4.57632 -1.48751 0
M  V30 29522 C 2641.7 4.82009 -1.98285 0
M  V30 29523 C 2639.02 5.21943 -2.67941 0
M  V30 29524 C 2641.38 5.47634 -3.16669 0
M  V30 29525 C 2640.04 5.67213 -3.51889 0
M  V30 29526 H 2639.31 0.740968 -0.00687072 0
M  V30 29527 H 2641.96 1.77606 -0.716128 0
M  V30 29528 H 2640.26 3.80965 0.915051 0
M  V30 29529 H 2641.96 3.97092 0.558486 0
M  V30 29530 H 2638.55 4.19948 -0.856841 0
M  V30 29531 H 2642.73 4.65307 -1.72636 0
M  V30 29532 H 2637.99 5.35297 -2.9541 0
M  V30 29533 H 2642.16 5.82027 -3.82385 0
M  V30 29534 H 2639.79 6.16818 -4.44342 0
M  V30 29535 N 2641.36 0.28266 1.55044 0
M  V30 29536 C 2642.3 -0.634886 2.20231 0
M  V30 29537 C 2643.31 -1.1117 1.18933 0
M  V30 29538 O 2644.5 -1.03231 1.45622 0
M  V30 29539 C 2641.6 -1.87894 2.82044 0
M  V30 29540 C 2640.77 -1.54769 4.09103 0
M  V30 29541 C 2639.83 -2.64499 4.54892 0
M  V30 29542 O 2638.86 -2.30366 5.205 0
M  V30 29543 N 2640.06 -3.94701 4.25666 0
M  V30 29544 H 2642.82 -0.0769285 2.99601 0
M  V30 29545 H 2640.38 0.104076 1.61565 0
M  V30 29546 H 2642.38 -2.60613 3.09617 0
M  V30 29547 H 2640.95 -2.34576 2.06623 0
M  V30 29548 H 2640.17 -0.653981 3.88737 0
M  V30 29549 H 2641.45 -1.30149 4.91873 0
M  V30 29550 H 2640.85 -4.2525 3.73067 0
M  V30 29551 H 2639.41 -4.63774 4.57992 0
M  V30 29552 N 2642.84 -1.57597 0.0100627 0
M  V30 29553 C 2643.79 -2.09051 -0.978085 0
M  V30 29554 C 2644.76 -0.988182 -1.33507 0
M  V30 29555 O 2645.94 -1.26123 -1.4317 0
M  V30 29556 C 2643.08 -2.6067 -2.26153 0
M  V30 29557 C 2642.2 -3.84841 -1.96269 0
M  V30 29558 C 2641.33 -4.24924 -3.18768 0
M  V30 29559 C 2640.37 -5.41904 -2.84616 0
M  V30 29560 N 2639.51 -5.77233 -3.99683 0
M  V30 29561 H 2644.35 -2.93206 -0.532379 0
M  V30 29562 H 2641.89 -1.44939 -0.251208 0
M  V30 29563 H 2643.84 -2.8868 -3.01197 0
M  V30 29564 H 2642.47 -1.79374 -2.68375 0
M  V30 29565 H 2641.53 -3.63677 -1.11549 0
M  V30 29566 H 2642.84 -4.69977 -1.67103 0
M  V30 29567 H 2641.99 -4.54269 -4.02149 0
M  V30 29568 H 2640.73 -3.38517 -3.51081 0
M  V30 29569 H 2639.74 -5.12272 -1.99644 0
M  V30 29570 H 2640.96 -6.29995 -2.5354 0
M  V30 29571 H 2638.91 -4.93783 -4.31873 0
M  V30 29572 H 2638.82 -6.56965 -3.74076 0
M  V30 29573 H 2640.09 -6.11175 -4.83823 0
M  V30 29574 N 2644.32 0.262839 -1.55393 0
M  V30 29575 C 2645.25 1.34765 -1.85394 0
M  V30 29576 C 2646.27 1.45056 -0.739095 0
M  V30 29577 O 2647.45 1.46691 -1.01706 0
M  V30 29578 C 2644.55 2.72791 -2.01093 0
M  V30 29579 C 2643.73 2.84966 -3.31833 0
M  V30 29580 C 2642.79 4.03732 -3.37471 0
M  V30 29581 O 2641.81 3.94011 -4.10785 0
M  V30 29582 N 2643.01 5.16171 -2.65608 0
M  V30 29583 H 2645.78 1.0937 -2.79031 0
M  V30 29584 H 2643.34 0.452954 -1.55435 0
M  V30 29585 H 2645.33 3.50554 -2.02223 0
M  V30 29586 H 2643.9 2.90964 -1.14275 0
M  V30 29587 H 2643.12 1.94006 -3.43155 0
M  V30 29588 H 2644.41 2.90038 -4.18038 0
M  V30 29589 H 2643.81 5.26959 -2.05746 0
M  V30 29590 H 2642.37 5.92127 -2.72449 0
M  V30 29591 N 2645.8 1.48499 0.527807 0
M  V30 29592 C 2646.76 1.62699 1.61436 0
M  V30 29593 C 2647.76 0.500163 1.52823 0
M  V30 29594 O 2648.95 0.766003 1.56455 0
M  V30 29595 C 2646.08 1.59923 3.01061 0
M  V30 29596 H 2647.28 2.59585 1.50185 0
M  V30 29597 H 2644.83 1.37128 0.750031 0
M  V30 29598 H 2645.56 0.645219 3.17817 0
M  V30 29599 H 2645.35 2.41731 3.08721 0
M  V30 29600 H 2646.84 1.73057 3.80054 0
M  V30 29601 N 2647.28 -0.776847 1.37123 0
M  V30 29602 C 2648.21 -1.90399 1.35168 0
M  V30 29603 C 2649.19 -1.68657 0.221099 0
M  V30 29604 O 2650.37 -1.89589 0.420675 0
M  V30 29605 C 2647.5 -3.27609 1.1528 0
M  V30 29606 C 2646.46 -3.63904 2.25295 0
M  V30 29607 C 2645.78 -4.996 1.90536 0
M  V30 29608 C 2647.08 -3.71181 3.67453 0
M  V30 29609 H 2648.78 -1.92293 2.29486 0
M  V30 29610 H 2646.32 -0.923753 1.10466 0
M  V30 29611 H 2648.28 -4.06094 1.12543 0
M  V30 29612 H 2647 -3.26135 0.17416 0
M  V30 29613 H 2645.66 -2.87724 2.27179 0
M  V30 29614 H 2645.31 -4.9466 0.912147 0
M  V30 29615 H 2645.01 -5.24853 2.64202 0
M  V30 29616 H 2646.53 -5.8049 1.89377 0
M  V30 29617 H 2647.95 -4.39829 3.67727 0
M  V30 29618 H 2646.34 -4.07929 4.4013 0
M  V30 29619 H 2647.41 -2.7197 4.01448 0
M  V30 29620 N 2648.76 -1.2161 -1.00244 0
M  V30 29621 C 2649.67 -0.993746 -2.12513 0
M  V30 29622 C 2650.68 0.0549633 -1.73913 0
M  V30 29623 O 2651.86 -0.135654 -2.00943 0
M  V30 29624 C 2648.92 -0.564013 -3.42082 0
M  V30 29625 C 2647.98 -1.68523 -3.9484 0
M  V30 29626 C 2647.22 -1.27591 -5.18224 0
M  V30 29627 O 2647.44 -0.150606 -5.70201 0
M  V30 29628 O 2646.37 -2.0888 -5.64493 0
M  V30 29629 H 2650.2 -1.93412 -2.34149 0
M  V30 29630 H 2647.78 -1.0012 -1.10889 0
M  V30 29631 H 2649.67 -0.334268 -4.20072 0
M  V30 29632 H 2648.34 0.347608 -3.21828 0
M  V30 29633 H 2647.25 -1.96941 -3.18065 0
M  V30 29634 H 2648.58 -2.57437 -4.19508 0
M  V30 29635 N 2650.23 1.19778 -1.02425 0
M  V30 29636 C 2651.2 2.21051 -0.605742 0
M  V30 29637 C 2652.2 1.57415 0.328181 0
M  V30 29638 O 2653.39 1.73815 0.115822 0
M  V30 29639 C 2650.52 3.40708 0.114306 0
M  V30 29640 H 2651.71 2.59591 -1.50174 0
M  V30 29641 H 2649.26 1.33375 -0.814911 0
M  V30 29642 H 2650 3.0768 1.02487 0
M  V30 29643 H 2649.78 3.88128 -0.55671 0
M  V30 29644 H 2651.27 4.15735 0.394199 0
M  V30 29645 N 2651.71 0.801501 1.35697 0
M  V30 29646 C 2652.94 0.390714 2.03686 0
M  V30 29647 C 2653.36 -0.98875 1.60017 0
M  V30 29648 O 2652.72 -1.6393 0.774386 0
M  V30 29649 C 2652.77 0.476467 3.57438 0
M  V30 29650 O 2651.87 -0.512034 4.09209 0
M  V30 29651 H 2651.21 0.163967 0.643437 0
M  V30 29652 H 2653.74 1.08597 1.73401 0
M  V30 29653 H 2653.75 0.344428 4.06544 0
M  V30 29654 H 2652.43 1.48268 3.88573 0
M  V30 29655 H 2651 -0.340656 3.71341 0
M  V30 29656 N 2653.19 -1.47521 0.554558 0
M  V30 29657 C 2654.14 -2.31671 -0.207724 0
M  V30 29658 C 2655.13 -1.42762 -0.911888 0
M  V30 29659 O 2656.34 -1.59541 -0.833476 0
M  V30 29660 H 2652.71 -0.747082 -0.0858595 0
M  V30 29661 H 2654.68 -2.93812 0.52123 0
M  V30 29662 C 2653.43 -3.25359 -1.22624 0
M  V30 29663 H 2652.76 -3.93734 -0.693818 0
M  V30 29664 H 2654.2 -3.87076 -1.73055 0
M  V30 29665 C 2652.65 -2.48694 -2.27273 0
M  V30 29666 O 2653.18 -2.22947 -3.34152 0
M  V30 29667 N 2651.39 -2.0975 -2.01131 0
M  V30 29668 H 2650.94 -2.30889 -1.14228 0
M  V30 29669 H 2650.9 -1.58769 -2.71366 0
M  V30 29670 N 2654.67 -0.290879 -1.54892 0
M  V30 29671 C 2656.08 0.0628152 -1.59476 0
M  V30 29672 C 2656.28 1.53278 -1.30798 0
M  V30 29673 O 2655.34 2.28404 -1.07648 0
M  V30 29674 C 2656.65 -0.326014 -2.98927 0
M  V30 29675 C 2658.2 -0.273937 -3.11799 0
M  V30 29676 C 2658.68 -0.637438 -4.53542 0
M  V30 29677 N 2660.17 -0.589587 -4.59432 0
M  V30 29678 C 2660.9 -0.84345 -5.67163 0
M  V30 29679 N 2660.4 -1.16275 -6.82973 0
M  V30 29680 N 2662.19 -0.771189 -5.56785 0
M  V30 29681 H 2654.34 -1.24899 -1.71796 0
M  V30 29682 H 2656.6 -0.505677 -0.80187 0
M  V30 29683 H 2656.31 -1.34893 -3.24803 0
M  V30 29684 H 2656.18 0.325375 -3.75794 0
M  V30 29685 H 2658.57 0.739715 -2.85679 0
M  V30 29686 H 2658.65 -0.959808 -2.3711 0
M  V30 29687 H 2658.3 -1.64885 -4.80391 0
M  V30 29688 H 2658.23 0.070394 -5.26553 0
M  V30 29689 H 2660.72 -0.353318 -3.76245 0
M  V30 29690 H 2661.03 -1.34271 -7.61046 0
M  V30 29691 H 2659.38 -1.20069 -6.8455 0
M  V30 29692 H 2662.57 -0.521465 -4.65186 0
M  V30 29693 H 2662.74 -0.972408 -6.40662 0
M  V30 29694 N 2656.15 1.57589 -0.0184203 0
M  V30 29695 C 2657.39 1.90533 0.661816 0
M  V30 29696 C 2657.71 0.895397 1.73902 0
M  V30 29697 O 2658.91 1.1157 2.47516 0
M  V30 29698 C 2657.37 3.38288 1.22838 0
M  V30 29699 C 2656.98 4.47618 0.185024 0
M  V30 29700 C 2658.72 3.80316 1.88575 0
M  V30 29701 C 2656.63 5.86462 0.76262 0
M  V30 29702 H 2655.56 0.71101 0.25096 0
M  V30 29703 H 2658.21 1.83317 -0.0819757 0
M  V30 29704 H 2656.59 3.40401 2.02344 0
M  V30 29705 H 2657.77 4.57049 -0.58679 0
M  V30 29706 H 2656.08 4.14726 -0.372962 0
M  V30 29707 H 2658.68 4.81397 2.32726 0
M  V30 29708 H 2659.02 3.14806 2.72402 0
M  V30 29709 H 2659.55 3.8058 1.15775 0
M  V30 29710 H 2656.29 6.55489 -0.0372865 0
M  V30 29711 H 2655.81 5.80659 1.50317 0
M  V30 29712 H 2657.49 6.34699 1.25565 0
M  V30 29713 N 2657.62 -0.254594 1.5553 0
M  V30 29714 C 2658.56 -1.3378 1.86106 0
M  V30 29715 C 2659.57 -1.44662 0.746777 0
M  V30 29716 O 2660.76 -1.46149 1.02482 0
M  V30 29717 C 2657.86 -2.71721 2.02537 0
M  V30 29718 C 2657.03 -2.83202 3.3334 0
M  V30 29719 C 2656.09 -4.01937 3.39607 0
M  V30 29720 O 2655.12 -3.91827 4.12869 0
M  V30 29721 N 2656.32 -5.14755 2.68341 0
M  V30 29722 H 2659.08 -1.07889 2.79607 0
M  V30 29723 H 2656.64 -0.444705 1.55673 0
M  V30 29724 H 2658.64 -3.49476 2.0408 0
M  V30 29725 H 2657.21 -2.90354 1.15816 0
M  V30 29726 H 2656.43 -1.92183 3.44179 0
M  V30 29727 H 2657.71 -2.87817 4.1957 0
M  V30 29728 H 2657.11 -5.2586 2.08537 0
M  V30 29729 H 2655.67 -5.90674 2.75586 0
M  V30 29730 N 2659.1 -1.48777 -0.519925 0
M  V30 29731 C 2660.01 -1.66747 -1.65023 0
M  V30 29732 C 2661.03 -0.549983 -1.65079 0
M  V30 29733 O 2662.2 -0.822328 -1.83847 0
M  V30 29734 C 2659.27 -1.71244 -3.01457 0
M  V30 29735 C 2658.33 -2.94693 -3.12177 0
M  V30 29736 C 2657.56 -2.98965 -4.42103 0
M  V30 29737 O 2657.79 -2.1136 -5.29795 0
M  V30 29738 O 2656.72 -3.91241 -4.57399 0
M  V30 29739 H 2660.55 -2.62464 -1.52796 0
M  V30 29740 H 2658.13 -1.32296 -0.694134 0
M  V30 29741 H 2660.01 -1.76664 -3.82581 0
M  V30 29742 H 2658.69 -0.78703 -3.13987 0
M  V30 29743 H 2657.59 -2.94801 -2.30311 0
M  V30 29744 H 2658.93 -3.86652 -3.04568 0
M  V30 29745 N 2660.58 0.769564 -1.37534 0
M  V30 29746 C 2661.8 1.56381 -1.36234 0
M  V30 29747 C 2662.23 1.88035 0.0495519 0
M  V30 29748 O 2661.59 1.49393 1.0272 0
M  V30 29749 C 2661.64 2.84948 -2.20991 0
M  V30 29750 O 2660.74 3.79418 -1.61604 0
M  V30 29751 H 2660.08 0.473607 -0.465395 0
M  V30 29752 H 2662.61 0.95231 -1.81086 0
M  V30 29753 H 2662.62 3.34029 -2.34283 0
M  V30 29754 H 2661.3 2.61238 -3.23617 0
M  V30 29755 H 2659.87 3.38069 -1.57365 0
M  V30 29756 N 2662.06 1.22139 0.995977 0
M  V30 29757 C 2663.01 0.988723 2.0855 0
M  V30 29758 C 2663.98 -0.0884729 1.65864 0
M  V30 29759 O 2665.16 0.0604924 1.90704 0
M  V30 29760 C 2662.3 0.569251 3.40373 0
M  V30 29761 C 2661.41 1.71688 3.96418 0
M  V30 29762 C 2660.55 1.24569 5.16387 0
M  V30 29763 C 2659.59 2.36507 5.64563 0
M  V30 29764 N 2658.72 1.90457 6.75774 0
M  V30 29765 H 2663.56 1.92139 2.27787 0
M  V30 29766 H 2661.1 0.957408 1.11679 0
M  V30 29767 H 2663.06 0.307239 4.16067 0
M  V30 29768 H 2661.69 -0.326406 3.21146 0
M  V30 29769 H 2660.74 2.0933 3.17624 0
M  V30 29770 H 2662.05 2.55899 4.28156 0
M  V30 29771 H 2661.21 0.940879 5.9936 0
M  V30 29772 H 2659.95 0.373747 4.86266 0
M  V30 29773 H 2658.95 2.67781 4.80181 0
M  V30 29774 H 2660.18 3.24212 5.9671 0
M  V30 29775 H 2658.12 1.0562 6.47441 0
M  V30 29776 H 2658.04 2.68236 7.06814 0
M  V30 29777 H 2659.31 1.63036 7.6226 0
M  V30 29778 N 2663.54 -1.19233 1.03059 0
M  V30 29779 C 2664.48 -2.24556 0.606431 0
M  V30 29780 C 2665.48 -1.65491 -0.361797 0
M  V30 29781 O 2666.68 -1.78522 -0.230189 0
M  V30 29782 H 2663.06 -0.730666 0.177851 0
M  V30 29783 H 2665.03 -2.57648 1.50533 0
M  V30 29784 C 2663.78 -3.47691 -0.0251516 0
M  V30 29785 H 2663.1 -3.93429 0.710907 0
M  V30 29786 H 2664.54 -4.23042 -0.284856 0
M  V30 29787 C 2663 -3.11955 -1.27223 0
M  V30 29788 O 2663.53 -3.24766 -2.36411 0
M  V30 29789 N 2661.74 -2.66372 -1.16165 0
M  V30 29790 H 2661.28 -2.56148 -0.273144 0
M  V30 29791 H 2661.24 -2.42833 -1.99699 0
M  V30 29792 N 2665.01 -0.808686 -1.3527 0
M  V30 29793 C 2665.95 -0.178189 -2.28506 0
M  V30 29794 C 2666.96 0.623728 -1.50378 0
M  V30 29795 O 2668.15 0.455744 -1.72584 0
M  V30 29796 C 2665.25 0.769901 -3.30039 0
M  V30 29797 C 2664.42 0.0138981 -4.37398 0
M  V30 29798 C 2663.48 0.880784 -5.18776 0
M  V30 29799 O 2662.51 0.330959 -5.68237 0
M  V30 29800 N 2663.71 2.20258 -5.37091 0
M  V30 29801 H 2666.47 -0.979156 -2.83254 0
M  V30 29802 H 2664.03 -0.664334 -1.47642 0
M  V30 29803 H 2666.03 1.35411 -3.81374 0
M  V30 29804 H 2664.6 1.47167 -2.75791 0
M  V30 29805 H 2663.82 -0.751536 -3.8697 0
M  V30 29806 H 2665.1 -0.507054 -5.06267 0
M  V30 29807 H 2664.5 2.67319 -4.98555 0
M  V30 29808 H 2663.06 2.73598 -5.91598 0
M  V30 29809 N 2666.49 1.47225 -0.562374 0
M  V30 29810 C 2667.73 2.04355 -0.0426734 0
M  V30 29811 C 2668.1 1.42673 1.28485 0
M  V30 29812 O 2669.3 1.90882 1.89256 0
M  V30 29813 C 2667.57 3.57374 0.0433198 0
M  V30 29814 S 2669.13 4.35845 0.508395 0
M  V30 29815 H 2665.95 0.710463 -0.0276359 0
M  V30 29816 H 2668.55 1.8053 -0.750277 0
M  V30 29817 H 2667.25 3.9979 -0.927142 0
M  V30 29818 H 2666.78 3.85704 0.77432 0
M  V30 29819 H 2668.8 4.63668 1.76711 0
M  V30 29820 N 2667.97 0.299089 1.54736 0
M  V30 29821 C 2669.2 -0.313411 2.04512 0
M  V30 29822 C 2669.61 -1.47665 1.17646 0
M  V30 29823 O 2668.97 -1.81382 0.201672 0
M  V30 29824 C 2669.02 -0.77148 3.53172 0
M  V30 29825 O 2668.74 0.345456 4.36736 0
M  V30 29826 C 2670.24 -1.44933 4.18938 0
M  V30 29827 H 2667.46 -0.0683666 0.667508 0
M  V30 29828 H 2670.01 0.438164 1.99751 0
M  V30 29829 H 2668.16 -1.47308 3.583 0
M  V30 29830 H 2668.58 -0.0108297 5.24499 0
M  V30 29831 H 2670.05 -1.72102 5.24485 0
M  V30 29832 H 2670.53 -2.38876 3.68558 0
M  V30 29833 H 2671.13 -0.790955 4.1788 0
M  V30 29834 N 2669.45 -1.57577 0.0267774 0
M  V30 29835 C 2670.38 -2.06976 -0.984558 0
M  V30 29836 C 2671.39 -0.992728 -1.2903 0
M  V30 29837 O 2672.58 -1.26897 -1.25536 0
M  V30 29838 C 2669.68 -2.47736 -2.31257 0
M  V30 29839 C 2668.86 -3.78491 -2.19234 0
M  V30 29840 C 2667.91 -4.05827 -3.34949 0
M  V30 29841 O 2666.94 -4.76112 -3.11939 0
M  V30 29842 N 2668.14 -3.55817 -4.58666 0
M  V30 29843 H 2670.91 -2.94363 -0.563092 0
M  V30 29844 H 2668.47 -1.61107 -0.160033 0
M  V30 29845 H 2670.46 -2.63118 -3.07492 0
M  V30 29846 H 2669.03 -1.65728 -2.65053 0
M  V30 29847 H 2668.25 -3.72929 -1.27741 0
M  V30 29848 H 2669.54 -4.64162 -2.08401 0
M  V30 29849 H 2668.94 -2.98951 -4.80255 0
M  V30 29850 H 2667.49 -3.76481 -5.32076 0
M  V30 29851 N 2670.93 0.246342 -1.55663 0
M  V30 29852 C 2672.17 0.975747 -1.77784 0
M  V30 29853 C 2672.51 1.84952 -0.592136 0
M  V30 29854 O 2671.78 1.90139 0.409554 0
M  V30 29855 C 2672.06 1.83579 -3.09792 0
M  V30 29856 C 2671.92 0.990164 -4.38766 0
M  V30 29857 C 2673.24 2.81817 -3.38034 0
M  V30 29858 H 2670.35 0.353306 -0.646795 0
M  V30 29859 H 2673 0.246215 -1.88398 0
M  V30 29860 H 2671.15 2.45779 -3.00874 0
M  V30 29861 H 2672.82 0.386816 -4.59675 0
M  V30 29862 H 2671.06 0.29455 -4.32799 0
M  V30 29863 H 2671.73 1.62574 -5.27516 0
M  V30 29864 H 2674.21 2.29754 -3.46919 0
M  V30 29865 H 2673.08 3.39115 -4.31616 0
M  V30 29866 H 2673.35 3.58308 -2.58974 0
M  V30 29867 N 2672.4 1.4905 0.512027 0
M  V30 29868 C 2673.65 1.58214 1.26871 0
M  V30 29869 C 2673.98 0.263107 1.92409 0
M  V30 29870 O 2673.26 -0.732444 1.80182 0
M  V30 29871 C 2673.54 2.73345 2.34424 0
M  V30 29872 C 2673.39 4.15009 1.73459 0
M  V30 29873 C 2674.71 2.84159 3.36068 0
M  V30 29874 H 2671.83 0.575889 0.459914 0
M  V30 29875 H 2674.47 1.81294 0.568556 0
M  V30 29876 H 2672.62 2.53797 2.94142 0
M  V30 29877 H 2674.3 4.46044 1.17653 0
M  V30 29878 H 2672.54 4.2117 1.03914 0
M  V30 29879 H 2673.21 4.9142 2.51417 0
M  V30 29880 H 2675.69 3.01921 2.86327 0
M  V30 29881 H 2674.56 3.66413 4.08696 0
M  V30 29882 H 2674.82 1.93054 3.97721 0
M  V30 29883 N 2673.88 -0.762259 1.3794 0
M  V30 29884 C 2674.81 -1.88523 1.30352 0
M  V30 29885 C 2675.83 -1.61342 0.21743 0
M  V30 29886 O 2677.02 -1.72083 0.474321 0
M  V30 29887 C 2674.12 -3.23967 0.994901 0
M  V30 29888 C 2673.29 -3.78721 2.18836 0
M  V30 29889 C 2672.35 -4.92662 1.84853 0
M  V30 29890 O 2671.37 -5.07749 2.57253 0
M  V30 29891 N 2672.58 -5.74985 0.798302 0
M  V30 29892 H 2675.34 -1.95545 2.27117 0
M  V30 29893 H 2672.9 -0.941802 1.31688 0
M  V30 29894 H 2674.89 -3.97723 0.748238 0
M  V30 29895 H 2673.46 -3.12387 0.115501 0
M  V30 29896 H 2672.68 -2.96633 2.5962 0
M  V30 29897 H 2673.97 -4.12035 2.98504 0
M  V30 29898 H 2673.37 -5.65354 0.197711 0
M  V30 29899 H 2671.93 -6.48925 0.61151 0
M  V30 29900 N 2675.36 -1.22666 -0.989486 0
M  V30 29901 C 2676.27 -1.01623 -2.11447 0
M  V30 29902 C 2677.29 0.0365144 -1.73962 0
M  V30 29903 O 2678.46 -0.156959 -2.00787 0
M  V30 29904 C 2675.53 -0.600264 -3.41464 0
M  V30 29905 C 2674.59 -1.72702 -3.9303 0
M  V30 29906 C 2673.82 -1.3308 -5.16842 0
M  V30 29907 O 2674.04 -0.211075 -5.70009 0
M  V30 29908 O 2672.98 -2.14855 -5.62246 0
M  V30 29909 H 2676.8 -1.95884 -2.32084 0
M  V30 29910 H 2674.39 -1.0129 -1.09821 0
M  V30 29911 H 2676.27 -0.378804 -4.19694 0
M  V30 29912 H 2674.95 0.313454 -3.22179 0
M  V30 29913 H 2673.85 -2.00303 -3.15958 0
M  V30 29914 H 2675.19 -2.61872 -4.16754 0
M  V30 29915 N 2676.84 1.18685 -1.0369 0
M  V30 29916 C 2678.26 1.40589 -0.755438 0
M  V30 29917 C 2678.46 1.90501 0.656626 0
M  V30 29918 O 2677.51 2.08692 1.42141 0
M  V30 29919 C 2678.82 2.40998 -1.79835 0
M  V30 29920 C 2680.37 2.54731 -1.81882 0
M  V30 29921 C 2680.85 3.58401 -2.85154 0
M  V30 29922 N 2682.34 3.65905 -2.84021 0
M  V30 29923 C 2683.07 4.45835 -3.60581 0
M  V30 29924 N 2682.57 5.29405 -4.4688 0
M  V30 29925 N 2684.36 4.40562 -3.49087 0
M  V30 29926 H 2676.51 0.846114 -1.9482 0
M  V30 29927 H 2678.78 0.434169 -0.842734 0
M  V30 29928 H 2678.48 2.11365 -2.81101 0
M  V30 29929 H 2678.36 3.40291 -1.62733 0
M  V30 29930 H 2680.74 2.83683 -0.812886 0
M  V30 29931 H 2680.82 1.55565 -2.0306 0
M  V30 29932 H 2680.47 3.3019 -3.85924 0
M  V30 29933 H 2680.4 4.57237 -2.61232 0
M  V30 29934 H 2682.89 3.06226 -2.21436 0
M  V30 29935 H 2683.2 5.87536 -5.02018 0
M  V30 29936 H 2681.55 5.28838 -4.50949 0
M  V30 29937 H 2684.74 3.7432 -2.81073 0
M  V30 29938 H 2684.91 5.02614 -4.09003 0
M  V30 29939 N 2678.32 0.815849 1.34839 0
M  V30 29940 C 2679.23 0.234503 2.33425 0
M  V30 29941 C 2680.24 -0.627384 1.62296 0
M  V30 29942 O 2681.42 -0.536953 1.9411 0
M  V30 29943 C 2678.48 -0.599789 3.41472 0
M  V30 29944 C 2677.55 0.283671 4.28362 0
M  V30 29945 C 2676.78 -0.510897 5.31249 0
M  V30 29946 O 2677 -1.7448 5.43059 0
M  V30 29947 O 2675.94 0.103075 6.01812 0
M  V30 29948 H 2679.76 1.05029 2.84961 0
M  V30 29949 H 2677.35 0.577834 1.37773 0
M  V30 29950 H 2679.23 -1.07468 4.07466 0
M  V30 29951 H 2677.9 -1.39302 2.92193 0
M  V30 29952 H 2676.81 0.805901 3.65316 0
M  V30 29953 H 2678.14 1.04108 4.81064 0
M  V30 29954 N 2679.8 -1.46924 0.570174 0
M  V30 29955 C 2681.02 -2.07329 0.0542956 0
M  V30 29956 C 2681.45 -1.41809 -1.2358 0
M  V30 29957 O 2680.8 -0.49751 -1.7434 0
M  V30 29958 C 2680.85 -3.60429 -0.111112 0
M  V30 29959 O 2679.96 -3.95436 -1.17064 0
M  V30 29960 H 2679.3 -0.661536 0.0571541 0
M  V30 29961 H 2681.83 -1.88752 0.789549 0
M  V30 29962 H 2681.84 -4.06733 -0.321244 0
M  V30 29963 H 2680.51 -4.07512 0.831084 0
M  V30 29964 H 2679.09 -3.60859 -0.939966 0
M  V30 29965 N 2681.27 -0.307291 -1.54575 0
M  V30 29966 C 2682.2 0.55903 -2.26709 0
M  V30 29967 C 2683.18 1.13277 -1.26895 0
M  V30 29968 O 2684.37 1.16094 -1.55679 0
M  V30 29969 C 2681.5 1.72796 -3.01262 0
M  V30 29970 C 2680.45 1.28428 -4.08277 0
M  V30 29971 C 2679.78 2.53887 -4.7058 0
M  V30 29972 C 2681.08 0.410946 -5.20681 0
M  V30 29973 H 2682.77 -0.0426286 -2.9937 0
M  V30 29974 H 2680.32 -0.0219426 -1.43983 0
M  V30 29975 H 2682.27 2.34017 -3.50448 0
M  V30 29976 H 2681 2.35596 -2.26191 0
M  V30 29977 H 2679.66 0.695098 -3.5995 0
M  V30 29978 H 2679.3 3.15015 -3.92141 0
M  V30 29979 H 2679 2.24899 -5.42858 0
M  V30 29980 H 2680.53 3.15899 -5.22532 0
M  V30 29981 H 2681.94 0.928997 -5.65723 0
M  V30 29982 H 2680.34 0.214559 -5.99716 0
M  V30 29983 H 2681.41 -0.562372 -4.81628 0
M  V30 29984 N 2682.75 1.57561 -0.0351337 0
M  V30 29985 C 2683.68 2.13613 0.942955 0
M  V30 29986 C 2684.66 1.05375 1.33529 0
M  V30 29987 O 2685.85 1.33237 1.41285 0
M  V30 29988 C 2682.98 2.66811 2.22327 0
M  V30 29989 C 2681.93 3.79889 1.9715 0
M  V30 29990 C 2681.26 4.19539 3.31498 0
M  V30 29991 C 2682.56 5.05712 1.30588 0
M  V30 29992 H 2684.25 2.9559 0.476127 0
M  V30 29993 H 2681.8 1.4219 0.227577 0
M  V30 29994 H 2683.75 3.04659 2.91137 0
M  V30 29995 H 2682.47 1.82004 2.71187 0
M  V30 29996 H 2681.13 3.42488 1.30757 0
M  V30 29997 H 2680.78 3.31705 3.78128 0
M  V30 29998 H 2680.48 4.95743 3.15456 0
M  V30 29999 H 2682.01 4.59975 4.01566 0
M  V30 30000 H 2683.42 5.41108 1.89406 0
M  V30 30001 H 2681.82 5.86953 1.24924 0
M  V30 30002 H 2682.89 4.84093 0.279657 0
M  V30 30003 N 2684.23 -0.238084 1.55791 0
M  V30 30004 C 2685.48 -0.966305 1.78299 0
M  V30 30005 C 2685.81 -1.84636 0.601936 0
M  V30 30006 O 2685.08 -1.90354 -0.399465 0
M  V30 30007 C 2685.37 -1.81933 3.10761 0
M  V30 30008 C 2685.22 -0.966881 4.39285 0
M  V30 30009 C 2686.54 -2.80021 3.39524 0
M  V30 30010 H 2683.66 -0.349871 0.64866 0
M  V30 30011 H 2686.3 -0.23622 1.88526 0
M  V30 30012 H 2684.45 -2.4418 3.02173 0
M  V30 30013 H 2686.12 -0.362433 4.59874 0
M  V30 30014 H 2684.36 -0.271593 4.32949 0
M  V30 30015 H 2685.04 -1.59775 5.28371 0
M  V30 30016 H 2687.51 -2.27911 3.48132 0
M  V30 30017 H 2686.39 -3.36821 4.33408 0
M  V30 30018 H 2686.65 -3.5693 2.60871 0
M  V30 30019 N 2685.71 -1.4932 -0.504115 0
M  V30 30020 C 2686.65 -1.65759 -1.606 0
M  V30 30021 C 2687.62 -0.49911 -1.58424 0
M  V30 30022 O 2688.81 -0.725759 -1.76458 0
M  V30 30023 C 2685.95 -1.72731 -2.98761 0
M  V30 30024 C 2685.06 -2.99862 -3.10977 0
M  V30 30025 C 2684.2 -2.97832 -4.39852 0
M  V30 30026 C 2683.24 -4.19556 -4.4569 0
M  V30 30027 N 2682.37 -4.15454 -5.65988 0
M  V30 30028 H 2687.21 -2.59846 -1.45891 0
M  V30 30029 H 2684.75 -1.28838 -0.709868 0
M  V30 30030 H 2686.71 -1.74754 -3.78836 0
M  V30 30031 H 2685.34 -0.82113 -3.12182 0
M  V30 30032 H 2684.39 -3.07465 -2.23985 0
M  V30 30033 H 2685.7 -3.89855 -3.1115 0
M  V30 30034 H 2684.86 -2.984 -5.28244 0
M  V30 30035 H 2683.6 -2.05612 -4.42239 0
M  V30 30036 H 2682.6 -4.19235 -3.55699 0
M  V30 30037 H 2683.83 -5.12965 -4.45021 0
M  V30 30038 H 2681.77 -3.26069 -5.69223 0
M  V30 30039 H 2681.69 -4.99179 -5.67765 0
M  V30 30040 H 2682.96 -4.20121 -6.56597 0
M  V30 30041 N 2687.19 0.754933 -1.38342 0
M  V30 30042 C 2688.43 1.50938 -1.33794 0
M  V30 30043 C 2688.75 1.95475 0.0698923 0
M  V30 30044 O 2689.95 2.70456 0.237908 0
M  V30 30045 C 2688.41 2.72639 -2.34939 0
M  V30 30046 C 2688.02 2.35132 -3.81336 0
M  V30 30047 C 2689.76 3.50532 -2.39431 0
M  V30 30048 C 2687.67 3.53436 -4.7417 0
M  V30 30049 H 2686.6 0.566732 -0.497323 0
M  V30 30050 H 2689.25 0.825374 -1.6389 0
M  V30 30051 H 2687.63 3.43013 -1.97884 0
M  V30 30052 H 2688.81 1.72432 -4.27322 0
M  V30 30053 H 2687.12 1.70375 -3.79949 0
M  V30 30054 H 2689.72 4.38492 -3.05988 0
M  V30 30055 H 2690.06 3.91592 -1.41285 0
M  V30 30056 H 2690.59 2.8717 -2.75279 0
M  V30 30057 H 2687.33 3.17443 -5.73507 0
M  V30 30058 H 2686.85 4.15183 -4.32878 0
M  V30 30059 H 2688.53 4.20034 -4.92118 0
M  V30 30060 N 2688.66 1.23189 0.982967 0
M  V30 30061 C 2689.61 1.01079 2.07489 0
M  V30 30062 C 2690.58 -0.0708758 1.65949 0
M  V30 30063 O 2691.77 0.0807157 1.90629 0
M  V30 30064 C 2688.91 0.60532 3.3975 0
M  V30 30065 C 2688.02 1.75883 3.94575 0
M  V30 30066 C 2687.15 1.30039 5.15037 0
M  V30 30067 C 2686.19 2.42481 5.62022 0
M  V30 30068 N 2685.33 1.97614 6.73716 0
M  V30 30069 H 2690.17 1.94544 2.25736 0
M  V30 30070 H 2687.71 0.969199 1.10657 0
M  V30 30071 H 2689.66 0.351352 4.15718 0
M  V30 30072 H 2688.29 -0.292325 3.21474 0
M  V30 30073 H 2687.35 2.12687 3.15386 0
M  V30 30074 H 2688.66 2.60426 4.25417 0
M  V30 30075 H 2687.81 1.0044 5.98328 0
M  V30 30076 H 2686.55 0.425301 4.85842 0
M  V30 30077 H 2685.56 2.72858 4.77314 0
M  V30 30078 H 2686.78 3.30523 5.93238 0
M  V30 30079 H 2684.73 1.12481 6.46285 0
M  V30 30080 H 2684.64 2.75717 7.03929 0
M  V30 30081 H 2685.91 1.71111 7.60487 0
M  V30 30082 N 2690.14 -1.18133 1.04318 0
M  V30 30083 C 2691.39 -1.88455 0.749161 0
M  V30 30084 C 2691.72 -1.80301 -0.721459 0
M  V30 30085 O 2691 -1.20502 -1.52674 0
M  V30 30086 C 2691.28 -3.38836 1.21911 0
M  V30 30087 C 2691.13 -3.55787 2.75201 0
M  V30 30088 C 2692.45 -4.3256 0.811161 0
M  V30 30089 H 2689.57 -0.684324 0.273624 0
M  V30 30090 H 2692.21 -1.38973 1.29563 0
M  V30 30091 H 2690.36 -3.81109 0.754204 0
M  V30 30092 H 2692.03 -3.22589 3.29748 0
M  V30 30093 H 2690.28 -2.98358 3.14905 0
M  V30 30094 H 2690.95 -4.61312 3.03143 0
M  V30 30095 H 2693.42 -3.9808 1.21125 0
M  V30 30096 H 2692.3 -5.36336 1.1677 0
M  V30 30097 H 2692.56 -4.41177 -0.285518 0
M  V30 30098 N 2691.62 -0.822988 -1.34405 0
M  V30 30099 C 2692.55 -0.259649 -2.32052 0
M  V30 30100 C 2693.53 0.623933 -1.58244 0
M  V30 30101 O 2694.72 0.550797 -1.86225 0
M  V30 30102 C 2691.85 0.579254 -3.42435 0
M  V30 30103 C 2690.8 -0.207196 -4.27498 0
M  V30 30104 C 2690.13 0.754453 -5.29351 0
M  V30 30105 C 2691.43 -1.41542 -5.02756 0
M  V30 30106 H 2693.12 -1.0755 -2.79416 0
M  V30 30107 H 2690.67 -0.518617 -1.34337 0
M  V30 30108 H 2692.62 0.98354 -4.09761 0
M  V30 30109 H 2691.34 1.42815 -2.9372 0
M  V30 30110 H 2690 -0.59285 -3.61775 0
M  V30 30111 H 2689.65 1.59931 -4.76897 0
M  V30 30112 H 2689.35 0.232458 -5.8714 0
M  V30 30113 H 2690.87 1.1566 -5.99546 0
M  V30 30114 H 2692.29 -1.08514 -5.62937 0
M  V30 30115 H 2690.69 -1.87306 -5.7012 0
M  V30 30116 H 2691.76 -2.19358 -4.32447 0
M  V30 30117 N 2693.1 1.4662 -0.577957 0
M  V30 30118 C 2694.01 2.3405 0.160609 0
M  V30 30119 C 2695.02 1.49463 0.890885 0
M  V30 30120 O 2696.2 1.82344 0.855134 0
M  V30 30121 C 2693.27 3.26561 1.16442 0
M  V30 30122 C 2692.33 4.27046 0.439325 0
M  V30 30123 C 2691.56 5.15138 1.39531 0
M  V30 30124 O 2691.78 5.0607 2.63153 0
M  V30 30125 O 2690.72 5.95004 0.908481 0
M  V30 30126 H 2694.54 2.98546 -0.557109 0
M  V30 30127 H 2692.13 1.45517 -0.338395 0
M  V30 30128 H 2694.01 3.83648 1.74333 0
M  V30 30129 H 2692.68 2.64667 1.86369 0
M  V30 30130 H 2691.59 3.7366 -0.181313 0
M  V30 30131 H 2692.92 4.91713 -0.218885 0
M  V30 30132 N 2694.58 0.315484 1.5441 0
M  V30 30133 C 2695.51 -0.588029 2.21528 0
M  V30 30134 C 2696.52 -1.08622 1.21265 0
M  V30 30135 O 2697.71 -1.00119 1.47779 0
M  V30 30136 C 2694.81 -1.8187 2.85966 0
M  V30 30137 C 2693.98 -1.46056 4.12294 0
M  V30 30138 C 2693.04 -2.5479 4.604 0
M  V30 30139 O 2692.07 -2.19274 5.25269 0
M  V30 30140 N 2693.27 -3.85583 4.33942 0
M  V30 30141 H 2696.04 -0.0133613 2.99697 0
M  V30 30142 H 2693.6 0.138323 1.61308 0
M  V30 30143 H 2695.59 -2.53987 3.15076 0
M  V30 30144 H 2694.16 -2.3014 2.11552 0
M  V30 30145 H 2693.38 -0.571377 3.90037 0
M  V30 30146 H 2694.67 -1.19687 4.94523 0
M  V30 30147 H 2694.06 -4.17241 3.82003 0
M  V30 30148 H 2692.62 -4.53955 4.67726 0
M  V30 30149 N 2696.05 -1.5754 0.0434891 0
M  V30 30150 C 2697.33 -1.83714 -0.671447 0
M  V30 30151 C 2697.71 -0.930348 -1.89493 0
M  V30 30152 O 2697.06 0.0105237 -2.28498 0
M  V30 30153 C 2697.27 -3.33268 -1.03604 0
M  V30 30154 C 2698.62 -4.00095 -1.4216 0
M  V30 30155 O 2699.64 -3.37848 -1.1286 0
M  V30 30156 O 2698.5 -5.09832 -1.96808 0
M  V30 30157 H 2695.59 -0.757996 -0.330713 0
M  V30 30158 H 2698.14 -1.69546 0.0722671 0
M  V30 30159 H 2696.91 -3.90948 -0.165869 0
M  V30 30160 H 2696.54 -3.52595 -1.83745 0
M  V30 30161 N 2697.53 0.229818 -1.55915 0
M  V30 30162 C 2698.48 1.28474 -1.91737 0
M  V30 30163 C 2699.45 1.46987 -0.773565 0
M  V30 30164 O 2700.63 1.60691 -1.02874 0
M  V30 30165 C 2697.77 2.63178 -2.23229 0
M  V30 30166 C 2696.89 2.52533 -3.50501 0
M  V30 30167 C 2696.02 3.79705 -3.71481 0
M  V30 30168 C 2695.06 3.63747 -4.92295 0
M  V30 30169 N 2694.2 4.82849 -5.09707 0
M  V30 30170 H 2699.04 0.972258 -2.81693 0
M  V30 30171 H 2696.58 0.468791 -1.3943 0
M  V30 30172 H 2698.53 3.4161 -2.39496 0
M  V30 30173 H 2697.16 2.9254 -1.36456 0
M  V30 30174 H 2696.22 1.65579 -3.42473 0
M  V30 30175 H 2697.53 2.36658 -4.39083 0
M  V30 30176 H 2696.68 4.6658 -3.87799 0
M  V30 30177 H 2695.42 3.98495 -2.81164 0
M  V30 30178 H 2694.43 2.75256 -4.75935 0
M  V30 30179 H 2695.65 3.46435 -5.84089 0
M  V30 30180 H 2693.6 5.01969 -4.22331 0
M  V30 30181 H 2693.51 4.6967 -5.92407 0
M  V30 30182 H 2694.78 5.71174 -5.30453 0
M  V30 30183 N 2699.01 1.49585 0.49619 0
M  V30 30184 C 2699.97 1.66087 1.57949 0
M  V30 30185 C 2700.97 0.532466 1.51728 0
M  V30 30186 O 2702.16 0.799017 1.54795 0
M  V30 30187 C 2699.3 1.66273 2.97601 0
M  V30 30188 H 2700.49 2.62713 1.44645 0
M  V30 30189 H 2698.04 1.38689 0.720775 0
M  V30 30190 H 2698.78 0.712487 3.16377 0
M  V30 30191 H 2698.56 2.48225 3.03524 0
M  V30 30192 H 2700.05 1.8108 3.76297 0
M  V30 30193 N 2700.49 -0.747586 1.3874 0
M  V30 30194 C 2701.9 -1.05146 1.20069 0
M  V30 30195 C 2702.1 -2.01429 0.0535189 0
M  V30 30196 O 2701.16 -2.45297 -0.598817 0
M  V30 30197 C 2702.47 -1.62579 2.52959 0
M  V30 30198 C 2704.02 -1.74721 2.59695 0
M  V30 30199 C 2704.5 -2.35566 3.92776 0
M  V30 30200 N 2705.99 -2.4299 3.94348 0
M  V30 30201 C 2706.72 -2.90977 4.94085 0
M  V30 30202 N 2706.22 -3.38954 6.0422 0
M  V30 30203 N 2708.01 -2.90072 4.81472 0
M  V30 30204 H 2700.16 -0.108771 2.12121 0
M  V30 30205 H 2702.43 -0.110882 0.941493 0
M  V30 30206 H 2702.13 -0.992991 3.37391 0
M  V30 30207 H 2702.01 -2.6156 2.71783 0
M  V30 30208 H 2704.39 -2.37127 1.75655 0
M  V30 30209 H 2704.47 -0.744283 2.44733 0
M  V30 30210 H 2704.12 -1.73792 4.77241 0
M  V30 30211 H 2704.05 -3.36512 4.05052 0
M  V30 30212 H 2706.54 -2.09064 3.14802 0
M  V30 30213 H 2706.85 -3.74044 6.76248 0
M  V30 30214 H 2705.2 -3.36996 6.07831 0
M  V30 30215 H 2708.39 -2.51905 3.9454 0
M  V30 30216 H 2708.56 -3.27157 5.5935 0
M  V30 30217 N 2701.97 -1.23709 -0.97642 0
M  V30 30218 C 2702.9 -1.04627 -2.08747 0
M  V30 30219 C 2703.88 0.0380657 -1.70057 0
M  V30 30220 O 2705.06 -0.127342 -1.93782 0
M  V30 30221 C 2702.19 -0.640962 -3.41334 0
M  V30 30222 C 2701.15 -1.67309 -3.93944 0
M  V30 30223 C 2700.47 -1.1231 -5.22772 0
M  V30 30224 C 2701.77 -3.06705 -4.22764 0
M  V30 30225 H 2703.47 -1.97559 -2.24968 0
M  V30 30226 H 2701.01 -0.951266 -1.08106 0
M  V30 30227 H 2702.97 -0.494507 -4.18488 0
M  V30 30228 H 2701.69 0.324042 -3.24989 0
M  V30 30229 H 2700.35 -1.80761 -3.18937 0
M  V30 30230 H 2700 -0.148965 -5.02779 0
M  V30 30231 H 2699.7 -1.81277 -5.58939 0
M  V30 30232 H 2701.22 -0.988585 -6.02544 0
M  V30 30233 H 2702.63 -2.96532 -4.90654 0
M  V30 30234 H 2701.03 -3.72945 -4.7014 0
M  V30 30235 H 2702.1 -3.55398 -3.29879 0
M  V30 30236 N 2703.44 1.17579 -1.04943 0
M  V30 30237 C 2704.38 2.21038 -0.606213 0
M  V30 30238 C 2705.39 1.59446 0.328735 0
M  V30 30239 O 2706.58 1.78084 0.121863 0
M  V30 30240 C 2703.68 3.38638 0.133235 0
M  V30 30241 C 2702.85 4.29801 -0.811787 0
M  V30 30242 C 2701.91 5.26076 -0.11405 0
M  V30 30243 O 2700.94 5.64273 -0.747336 0
M  V30 30244 N 2702.14 5.69006 1.14943 0
M  V30 30245 H 2704.9 2.59686 -1.4961 0
M  V30 30246 H 2702.46 1.32452 -0.93102 0
M  V30 30247 H 2704.46 4.00075 0.610073 0
M  V30 30248 H 2703.03 2.98608 0.924764 0
M  V30 30249 H 2702.25 3.65834 -1.4683 0
M  V30 30250 H 2703.53 4.87602 -1.45335 0
M  V30 30251 H 2702.93 5.40044 1.68431 0
M  V30 30252 H 2701.49 6.326 1.57038 0
M  V30 30253 N 2704.92 0.830104 1.33967 0
M  V30 30254 C 2706.34 0.516769 1.51002 0
M  V30 30255 C 2706.54 -0.957663 1.77288 0
M  V30 30256 O 2705.59 -1.74185 1.828 0
M  V30 30257 C 2706.91 1.38252 2.67034 0
M  V30 30258 C 2708.46 1.38039 2.80917 0
M  V30 30259 C 2708.93 2.23078 4 0
M  V30 30260 N 2710.42 2.2074 4.0722 0
M  V30 30261 C 2711.16 2.83284 4.98536 0
M  V30 30262 N 2710.65 3.54845 5.95027 0
M  V30 30263 N 2712.45 2.728 4.91464 0
M  V30 30264 H 2704.6 1.78468 1.15165 0
M  V30 30265 H 2706.86 0.760916 0.565429 0
M  V30 30266 H 2706.57 2.42989 2.54262 0
M  V30 30267 H 2706.44 1.05231 3.62224 0
M  V30 30268 H 2708.83 0.340764 2.93126 0
M  V30 30269 H 2708.91 1.75061 1.86514 0
M  V30 30270 H 2708.55 3.27094 3.88551 0
M  V30 30271 H 2708.48 1.83403 4.9363 0
M  V30 30272 H 2710.97 1.68693 3.38159 0
M  V30 30273 H 2711.29 3.99795 6.6135 0
M  V30 30274 H 2709.63 3.58952 5.95129 0
M  V30 30275 H 2712.82 2.16463 4.15044 0
M  V30 30276 H 2712.99 3.21828 5.62433 0
M  V30 30277 N 2706.4 -1.46311 0.585725 0
M  V30 30278 C 2707.33 -2.33118 -0.133516 0
M  V30 30279 C 2708.31 -1.45527 -0.880682 0
M  V30 30280 O 2709.5 -1.74339 -0.855548 0
M  V30 30281 C 2706.63 -3.27855 -1.14579 0
M  V30 30282 C 2705.58 -4.24911 -0.513266 0
M  V30 30283 C 2704.91 -5.09178 -1.63222 0
M  V30 30284 C 2706.21 -5.1938 0.551504 0
M  V30 30285 H 2707.9 -2.93504 0.591261 0
M  V30 30286 H 2705.45 -1.41136 0.285786 0
M  V30 30287 H 2707.4 -3.87441 -1.65734 0
M  V30 30288 H 2706.12 -2.65583 -1.90088 0
M  V30 30289 H 2704.78 -3.66593 -0.0227705 0
M  V30 30290 H 2704.43 -4.43289 -2.37706 0
M  V30 30291 H 2704.13 -5.74909 -1.21463 0
M  V30 30292 H 2705.66 -5.71628 -2.14648 0
M  V30 30293 H 2707.07 -5.73164 0.124905 0
M  V30 30294 H 2705.47 -5.9347 0.88959 0
M  V30 30295 H 2706.54 -4.6313 1.43663 0
M  V30 30296 N 2707.88 -0.323668 -1.54241 0
M  V30 30297 C 2708.79 0.551165 -2.28034 0
M  V30 30298 C 2709.81 1.12911 -1.3239 0
M  V30 30299 O 2710.98 1.14905 -1.65405 0
M  V30 30300 C 2708.05 1.696 -3.02385 0
M  V30 30301 C 2707.11 1.14986 -4.13614 0
M  V30 30302 C 2706.34 2.24013 -4.84411 0
M  V30 30303 O 2706.56 3.4436 -4.54722 0
M  V30 30304 O 2705.5 1.89426 -5.71315 0
M  V30 30305 H 2709.32 -0.0481193 -3.03662 0
M  V30 30306 H 2706.91 -0.0893551 -1.49133 0
M  V30 30307 H 2708.79 2.36252 -3.48945 0
M  V30 30308 H 2707.47 2.28147 -2.29632 0
M  V30 30309 H 2706.37 0.448419 -3.71403 0
M  V30 30310 H 2707.71 0.609522 -4.88411 0
M  V30 30311 N 2709.36 1.57515 -0.0518432 0
M  V30 30312 C 2710.63 1.84068 0.661694 0
M  V30 30313 C 2711.01 0.940384 1.88997 0
M  V30 30314 O 2710.36 0.0015942 2.285 0
M  V30 30315 C 2710.57 3.33812 1.01835 0
M  V30 30316 C 2711.92 4.00843 1.40036 0
M  V30 30317 O 2712.94 3.38441 1.11067 0
M  V30 30318 O 2711.8 5.10869 1.94102 0
M  V30 30319 H 2708.9 0.759739 0.326688 0
M  V30 30320 H 2711.44 1.69505 -0.0812575 0
M  V30 30321 H 2710.22 3.91031 0.145134 0
M  V30 30322 H 2709.84 3.53565 1.81873 0
M  V30 30323 N 2710.84 -0.221546 1.56035 0
M  V30 30324 C 2711.75 -1.29554 1.95583 0
M  V30 30325 C 2712.76 -1.5128 0.859665 0
M  V30 30326 O 2713.94 -1.64411 1.16323 0
M  V30 30327 C 2711 -2.62527 2.26452 0
M  V30 30328 C 2710.06 -2.49104 3.49637 0
M  V30 30329 C 2709.3 -3.75735 3.79023 0
M  V30 30330 O 2709.52 -4.78752 3.10086 0
M  V30 30331 O 2708.45 -3.72847 4.72513 0
M  V30 30332 H 2712.28 -0.989984 2.87111 0
M  V30 30333 H 2709.86 -0.424409 1.43245 0
M  V30 30334 H 2711.75 -3.4106 2.475 0
M  V30 30335 H 2710.42 -2.92764 1.38097 0
M  V30 30336 H 2709.33 -1.68771 3.33867 0
M  V30 30337 H 2710.66 -2.23806 4.38374 0
M  V30 30338 N 2712.31 -1.49846 -0.48825 0
M  V30 30339 C 2713.24 -1.70373 -1.59672 0
M  V30 30340 C 2714.22 -0.552501 -1.60877 0
M  V30 30341 O 2715.41 -0.789761 -1.77416 0
M  V30 30342 C 2712.54 -1.78205 -2.98094 0
M  V30 30343 C 2711.49 -2.93244 -3.11756 0
M  V30 30344 C 2710.82 -2.86201 -4.51656 0
M  V30 30345 C 2712.12 -4.34004 -2.90581 0
M  V30 30346 H 2713.81 -2.6318 -1.42747 0
M  V30 30347 H 2711.36 -1.26648 -0.685295 0
M  V30 30348 H 2713.31 -1.91151 -3.75552 0
M  V30 30349 H 2712.04 -0.820073 -3.16137 0
M  V30 30350 H 2710.7 -2.79922 -2.36727 0
M  V30 30351 H 2710.34 -1.87885 -4.66592 0
M  V30 30352 H 2710.04 -3.6342 -4.61735 0
M  V30 30353 H 2711.57 -3.01172 -5.31157 0
M  V30 30354 H 2712.98 -4.47942 -3.578 0
M  V30 30355 H 2711.38 -5.12543 -3.12121 0
M  V30 30356 H 2712.45 -4.47564 -1.86587 0
M  V30 30357 N 2713.79 0.740218 -1.39135 0
M  V30 30358 C 2714.74 1.87554 -1.37573 0
M  V30 30359 C 2715.73 1.67399 -0.259623 0
M  V30 30360 O 2716.94 1.74804 -0.42938 0
M  V30 30361 H 2713.31 0.617293 -0.42948 0
M  V30 30362 H 2715.29 1.85987 -2.33349 0
M  V30 30363 C 2714.03 3.25182 -1.23093 0
M  V30 30364 H 2713.36 3.41284 -2.08243 0
M  V30 30365 H 2714.8 4.04828 -1.26056 0
M  V30 30366 C 2713.26 3.36845 0.0610879 0
M  V30 30367 O 2713.79 3.88185 1.03321 0
M  V30 30368 N 2711.99 2.90342 0.122403 0
M  V30 30369 H 2711.54 2.48751 -0.669373 0
M  V30 30370 H 2711.5 2.98525 0.98641 0
M  V30 30371 N 2715.27 1.24225 0.969846 0
M  V30 30372 C 2716.69 1.00718 1.23807 0
M  V30 30373 C 2716.89 -0.285323 1.9947 0
M  V30 30374 O 2715.94 -1.00203 2.31766 0
M  V30 30375 C 2717.25 2.22083 2.0273 0
M  V30 30376 C 2718.8 2.26685 2.1583 0
M  V30 30377 C 2719.28 3.47666 2.98148 0
M  V30 30378 N 2720.77 3.4797 3.05731 0
M  V30 30379 C 2721.5 4.38238 3.69777 0
M  V30 30380 N 2721 5.38758 4.3556 0
M  V30 30381 N 2722.79 4.25955 3.66768 0
M  V30 30382 H 2714.94 2.07286 0.463257 0
M  V30 30383 H 2717.21 0.909526 0.267332 0
M  V30 30384 H 2716.91 3.15938 1.54519 0
M  V30 30385 H 2716.79 2.24027 3.03466 0
M  V30 30386 H 2719.17 1.33363 2.63246 0
M  V30 30387 H 2719.25 2.28769 1.14449 0
M  V30 30388 H 2718.9 4.41301 2.51427 0
M  V30 30389 H 2718.83 3.42825 3.99723 0
M  V30 30390 H 2721.32 2.75247 2.58936 0
M  V30 30391 H 2721.63 6.03874 4.82241 0
M  V30 30392 H 2719.98 5.42646 4.34235 0
M  V30 30393 H 2723.17 3.46662 3.14552 0
M  V30 30394 H 2723.34 4.96504 4.16398 0
M  V30 30395 N 2716.75 -1.1702 1.05565 0
M  V30 30396 C 2717.71 -2.19367 0.664137 0
M  V30 30397 C 2718.71 -1.5823 -0.28633 0
M  V30 30398 O 2719.9 -1.74061 -0.0696974 0
M  V30 30399 C 2717.03 -3.40892 -0.0239333 0
M  V30 30400 H 2718.23 -2.55518 1.57004 0
M  V30 30401 H 2715.78 -1.31168 0.849987 0
M  V30 30402 H 2716.51 -3.10289 -0.942934 0
M  V30 30403 H 2716.3 -3.86515 0.659419 0
M  V30 30404 H 2717.79 -4.16634 -0.283835 0
M  V30 30405 N 2718.23 -0.837197 -1.33524 0
M  V30 30406 C 2719.17 -0.26721 -2.29248 0
M  V30 30407 C 2720.14 0.616044 -1.54253 0
M  V30 30408 O 2721.33 0.554667 -1.8256 0
M  V30 30409 C 2718.47 0.553092 -3.40639 0
M  V30 30410 C 2717.58 -0.353997 -4.30547 0
M  V30 30411 C 2716.72 0.477246 -5.29052 0
M  V30 30412 C 2715.75 -0.428338 -6.10599 0
M  V30 30413 N 2714.89 0.364678 -7.01152 0
M  V30 30414 H 2719.73 -1.08882 -2.77396 0
M  V30 30415 H 2717.27 -0.548404 -1.36495 0
M  V30 30416 H 2719.23 1.04415 -4.03923 0
M  V30 30417 H 2717.86 1.33968 -2.93687 0
M  V30 30418 H 2716.91 -0.963353 -3.68 0
M  V30 30419 H 2718.22 -1.04973 -4.87629 0
M  V30 30420 H 2717.37 1.0322 -5.97855 0
M  V30 30421 H 2716.11 1.20642 -4.72543 0
M  V30 30422 H 2715.12 -0.995314 -5.40716 0
M  V30 30423 H 2716.34 -1.15585 -6.69191 0
M  V30 30424 H 2714.29 1.07726 -6.47094 0
M  V30 30425 H 2714.21 -0.27237 -7.55509 0
M  V30 30426 H 2715.47 0.901918 -7.74265 0
M  V30 30427 N 2719.7 1.45999 -0.593476 0
M  V30 30428 C 2720.93 2.07216 -0.087273 0
M  V30 30429 C 2721.35 1.43757 1.21308 0
M  V30 30430 O 2720.71 0.525183 1.73527 0
M  V30 30431 C 2720.76 3.6056 0.0537564 0
M  V30 30432 O 2719.86 3.97249 1.10758 0
M  V30 30433 H 2719.2 0.660543 -0.0676714 0
M  V30 30434 H 2721.73 1.87472 -0.819478 0
M  V30 30435 H 2721.74 4.07193 0.256496 0
M  V30 30436 H 2720.42 4.06138 -0.89581 0
M  V30 30437 H 2719 3.62309 0.882437 0
M  V30 30438 N 2721.18 0.331843 1.54067 0
M  V30 30439 C 2722.41 -0.26996 2.05131 0
M  V30 30440 C 2722.83 -1.45136 1.20752 0
M  V30 30441 O 2722.18 -1.80914 0.240101 0
M  V30 30442 C 2722.23 -0.696393 3.54729 0
M  V30 30443 O 2721.95 0.438017 4.35905 0
M  V30 30444 C 2723.46 -1.36014 4.21918 0
M  V30 30445 H 2720.68 -0.0541924 0.668808 0
M  V30 30446 H 2723.22 0.480435 1.98776 0
M  V30 30447 H 2721.37 -1.39675 3.61344 0
M  V30 30448 H 2721.79 0.100427 5.24404 0
M  V30 30449 H 2723.26 -1.60938 5.28018 0
M  V30 30450 H 2723.74 -2.31005 3.73542 0
M  V30 30451 H 2724.35 -0.702138 4.19464 0
M  V30 30452 N 2722.66 -1.57485 0.0601958 0
M  V30 30453 C 2723.59 -2.15086 -0.908852 0
M  V30 30454 C 2724.57 -1.07486 -1.31836 0
M  V30 30455 O 2725.76 -1.35468 -1.39147 0
M  V30 30456 C 2722.89 -2.70314 -2.18054 0
M  V30 30457 C 2721.84 -3.82978 -1.91081 0
M  V30 30458 C 2721.17 -4.2476 -3.24782 0
M  V30 30459 C 2722.47 -5.07725 -1.22526 0
M  V30 30460 H 2724.16 -2.9631 -0.429041 0
M  V30 30461 H 2721.71 -1.42534 -0.204927 0
M  V30 30462 H 2723.66 -3.09253 -2.86253 0
M  V30 30463 H 2722.38 -1.86295 -2.68257 0
M  V30 30464 H 2721.04 -3.44525 -1.25291 0
M  V30 30465 H 2720.69 -3.37679 -3.72803 0
M  V30 30466 H 2720.39 -5.00699 -3.07529 0
M  V30 30467 H 2721.91 -4.66306 -3.94197 0
M  V30 30468 H 2723.33 -5.44053 -1.80774 0
M  V30 30469 H 2721.73 -5.88866 -1.1557 0
M  V30 30470 H 2722.8 -4.84477 -0.202607 0
M  V30 30471 N 2724.14 0.213268 -1.5615 0
M  V30 30472 C 2725.05 1.28515 -1.96268 0
M  V30 30473 C 2726.06 1.50822 -0.867676 0
M  V30 30474 O 2727.24 1.63791 -1.17194 0
M  V30 30475 C 2724.31 2.61323 -2.27841 0
M  V30 30476 C 2723.37 2.47246 -3.50953 0
M  V30 30477 C 2722.6 3.7372 -3.8101 0
M  V30 30478 O 2722.82 4.771 -3.1262 0
M  V30 30479 O 2721.76 3.70336 -4.74484 0
M  V30 30480 H 2725.58 0.974744 -2.87632 0
M  V30 30481 H 2723.17 0.416807 -1.43468 0
M  V30 30482 H 2725.05 3.39742 -2.49305 0
M  V30 30483 H 2723.72 2.92028 -1.39648 0
M  V30 30484 H 2722.63 1.66999 -3.34757 0
M  V30 30485 H 2723.96 2.21478 -4.39554 0
M  V30 30486 N 2725.62 1.50103 0.480296 0
M  V30 30487 C 2726.58 1.67753 1.56178 0
M  V30 30488 C 2727.58 0.548529 1.51155 0
M  V30 30489 O 2728.77 0.81539 1.53938 0
M  V30 30490 C 2725.9 1.6942 2.9582 0
M  V30 30491 H 2727.09 2.64232 1.4185 0
M  V30 30492 H 2724.65 1.39445 0.706025 0
M  V30 30493 H 2725.38 0.746003 3.15603 0
M  V30 30494 H 2725.17 2.5143 3.00874 0
M  V30 30495 H 2726.66 1.85061 3.74356 0
M  V30 30496 N 2727.09 -0.732829 1.39526 0
M  V30 30497 C 2728 -1.87727 1.40698 0
M  V30 30498 C 2729.02 -1.71368 0.301526 0
M  V30 30499 O 2730.2 -1.93932 0.543347 0
M  V30 30500 C 2727.26 -3.23342 1.25104 0
M  V30 30501 C 2726.32 -3.52079 2.4564 0
M  V30 30502 C 2725.56 -4.81224 2.3078 0
M  V30 30503 O 2725.78 -5.55096 1.31243 0
M  V30 30504 O 2724.71 -5.09909 3.19808 0
M  V30 30505 H 2728.54 -1.89693 2.37172 0
M  V30 30506 H 2726.12 -0.880938 1.20664 0
M  V30 30507 H 2728.01 -4.04381 1.18548 0
M  V30 30508 H 2726.68 -3.22141 0.317266 0
M  V30 30509 H 2725.59 -2.71117 2.57772 0
M  V30 30510 H 2726.92 -3.5806 3.37718 0
M  V30 30511 N 2728.57 -1.24737 -0.963244 0
M  V30 30512 C 2729.8 -1.11689 -1.74164 0
M  V30 30513 C 2730.22 0.330155 -1.85891 0
M  V30 30514 O 2729.57 1.22757 -1.35044 0
M  V30 30515 C 2729.62 -1.756 -3.15985 0
M  V30 30516 O 2729.34 -3.14648 -3.04842 0
M  V30 30517 C 2730.85 -1.6822 -4.10142 0
M  V30 30518 H 2728.07 -0.389998 -0.546024 0
M  V30 30519 H 2730.61 -1.64931 -1.20904 0
M  V30 30520 H 2728.76 -1.2635 -3.66216 0
M  V30 30521 H 2729.18 -3.45936 -3.94244 0
M  V30 30522 H 2730.65 -2.17613 -5.07295 0
M  V30 30523 H 2731.13 -0.644284 -4.34449 0
M  V30 30524 H 2731.74 -2.16918 -3.65823 0
M  V30 30525 N 2730.05 1.16459 -1.06184 0
M  V30 30526 C 2731.47 1.38955 -0.785089 0
M  V30 30527 C 2731.67 1.91851 0.61607 0
M  V30 30528 O 2730.72 2.1166 1.37682 0
M  V30 30529 C 2732.04 2.37129 -1.84906 0
M  V30 30530 C 2733.58 2.50816 -1.87244 0
M  V30 30531 C 2734.06 3.52272 -2.92692 0
M  V30 30532 N 2735.55 3.59798 -2.91719 0
M  V30 30533 C 2736.28 4.38086 -3.69957 0
M  V30 30534 N 2735.78 5.19807 -4.58009 0
M  V30 30535 N 2737.57 4.33058 -3.58353 0
M  V30 30536 H 2729.72 0.8046 -1.9657 0
M  V30 30537 H 2731.99 0.416196 -0.851754 0
M  V30 30538 H 2731.69 2.05355 -2.85521 0
M  V30 30539 H 2731.57 3.36763 -1.69914 0
M  V30 30540 H 2733.95 2.81895 -0.872877 0
M  V30 30541 H 2734.04 1.51222 -2.06314 0
M  V30 30542 H 2733.68 3.2193 -3.92841 0
M  V30 30543 H 2733.61 4.51593 -2.70872 0
M  V30 30544 H 2736.1 3.0146 -2.27882 0
M  V30 30545 H 2736.41 5.76755 -5.14367 0
M  V30 30546 H 2734.76 5.19154 -4.62065 0
M  V30 30547 H 2737.95 3.68274 -2.88949 0
M  V30 30548 H 2738.12 4.93825 -4.19572 0
M  V30 30549 N 2731.53 0.844266 1.33079 0
M  V30 30550 C 2732.77 0.44324 1.97897 0
M  V30 30551 C 2733.11 -0.996221 1.66701 0
M  V30 30552 O 2732.38 -1.69736 0.949734 0
M  V30 30553 C 2732.67 0.670668 3.53799 0
M  V30 30554 C 2732.52 2.15779 3.94664 0
M  V30 30555 C 2733.84 0.120304 4.39936 0
M  V30 30556 H 2730.96 0.162517 0.718858 0
M  V30 30557 H 2733.6 1.06078 1.57631 0
M  V30 30558 H 2731.75 0.145028 3.88229 0
M  V30 30559 H 2733.42 2.74871 3.70464 0
M  V30 30560 H 2731.66 2.64026 3.44199 0
M  V30 30561 H 2732.33 2.26765 5.03271 0
M  V30 30562 H 2734.81 0.569672 4.12182 0
M  V30 30563 H 2733.69 0.309081 5.48029 0
M  V30 30564 H 2733.95 -0.976271 4.31186 0
M  V30 30565 N 2733.01 -1.45682 0.60121 0
M  V30 30566 C 2733.95 -2.30481 -0.121356 0
M  V30 30567 C 2734.92 -1.41725 -0.866207 0
M  V30 30568 O 2736.11 -1.7066 -0.85321 0
M  V30 30569 C 2733.25 -3.26523 -1.11698 0
M  V30 30570 C 2732.36 -4.30381 -0.373665 0
M  V30 30571 C 2731.5 -5.13536 -1.35845 0
M  V30 30572 C 2730.54 -6.09127 -0.602582 0
M  V30 30573 N 2729.67 -6.85085 -1.53633 0
M  V30 30574 H 2734.51 -2.91736 0.607783 0
M  V30 30575 H 2732.05 -1.43763 0.311527 0
M  V30 30576 H 2734.01 -3.80667 -1.70729 0
M  V30 30577 H 2732.64 -2.67036 -1.81361 0
M  V30 30578 H 2731.69 -3.78948 0.332028 0
M  V30 30579 H 2733 -4.9833 0.216388 0
M  V30 30580 H 2732.16 -5.72049 -2.02101 0
M  V30 30581 H 2730.89 -4.45591 -1.98243 0
M  V30 30582 H 2729.9 -5.49751 0.0736448 0
M  V30 30583 H 2731.12 -6.79098 0.016266 0
M  V30 30584 H 2729.07 -6.19833 -2.14808 0
M  V30 30585 H 2728.99 -7.49363 -0.999557 0
M  V30 30586 H 2730.26 -7.48143 -2.18867 0
M  V30 30587 N 2734.48 -0.340009 -1.53889 0
M  V30 30588 C 2735.42 0.552711 -2.22436 0
M  V30 30589 C 2736.43 1.06679 -1.22977 0
M  V30 30590 O 2737.62 0.977548 -1.49353 0
M  V30 30591 C 2734.72 1.77297 -2.88823 0
M  V30 30592 C 2733.89 1.39478 -4.14565 0
M  V30 30593 C 2732.95 2.47434 -4.64395 0
M  V30 30594 O 2731.98 2.10889 -5.28691 0
M  V30 30595 N 2733.18 3.78631 -4.40021 0
M  V30 30596 H 2735.94 -0.0343196 -2.9968 0
M  V30 30597 H 2733.5 -0.163968 -1.61068 0
M  V30 30598 H 2735.5 2.48942 -3.19076 0
M  V30 30599 H 2734.07 2.26746 -2.15186 0
M  V30 30600 H 2733.29 0.509253 -3.90897 0
M  V30 30601 H 2734.57 1.11804 -4.96364 0
M  V30 30602 H 2733.97 4.11111 -3.88593 0
M  V30 30603 H 2732.53 4.46457 -4.74889 0
M  V30 30604 N 2735.96 1.57451 -0.0685468 0
M  V30 30605 C 2737.38 1.56979 0.288074 0
M  V30 30606 C 2737.58 1.07768 1.7026 0
M  V30 30607 O 2736.64 0.742097 2.41349 0
M  V30 30608 C 2737.95 3.00531 0.100692 0
M  V30 30609 C 2739.5 3.12535 0.170476 0
M  V30 30610 C 2739.97 4.57999 0.0114139 0
M  V30 30611 N 2741.46 4.63151 0.0671251 0
M  V30 30612 C 2742.2 5.73391 -0.0315821 0
M  V30 30613 N 2741.69 6.92557 -0.183625 0
M  V30 30614 N 2743.49 5.62094 0.0252501 0
M  V30 30615 H 2735.64 1.87755 -0.993059 0
M  V30 30616 H 2737.9 0.865412 -0.386996 0
M  V30 30617 H 2737.61 3.40635 -0.875257 0
M  V30 30618 H 2737.48 3.67396 0.854392 0
M  V30 30619 H 2739.87 2.7232 1.13691 0
M  V30 30620 H 2739.95 2.48315 -0.614273 0
M  V30 30621 H 2739.59 4.98903 -0.951771 0
M  V30 30622 H 2739.52 5.20247 0.815526 0
M  V30 30623 H 2742.01 3.77456 0.18318 0
M  V30 30624 H 2742.33 7.72392 -0.251177 0
M  V30 30625 H 2740.67 6.94655 -0.218944 0
M  V30 30626 H 2743.86 4.67882 0.142711 0
M  V30 30627 H 2744.04 6.47977 -0.0551305 0
M  V30 30628 N 2737.44 -0.204984 1.56261 0
M  V30 30629 C 2738.37 -1.25696 1.96781 0
M  V30 30630 C 2739.35 -1.48007 0.838335 0
M  V30 30631 O 2740.54 -1.59911 1.10192 0
M  V30 30632 C 2737.67 -2.60331 2.2988 0
M  V30 30633 C 2736.62 -2.5265 3.45473 0
M  V30 30634 C 2735.95 -3.91467 3.64222 0
M  V30 30635 C 2737.25 -2.06005 4.79957 0
M  V30 30636 H 2738.94 -0.920288 2.84905 0
M  V30 30637 H 2736.49 -0.441253 1.37073 0
M  V30 30638 H 2738.44 -3.34098 2.5682 0
M  V30 30639 H 2737.16 -2.9572 1.38627 0
M  V30 30640 H 2735.82 -1.8134 3.18609 0
M  V30 30641 H 2735.47 -4.24191 2.70316 0
M  V30 30642 H 2735.17 -3.87205 4.4198 0
M  V30 30643 H 2736.7 -4.66871 3.93528 0
M  V30 30644 H 2738.11 -2.69524 5.05994 0
M  V30 30645 H 2736.51 -2.12767 5.61115 0
M  V30 30646 H 2737.58 -1.01289 4.74203 0
M  V30 30647 N 2738.92 -1.50356 -0.472329 0
M  V30 30648 C 2739.83 -1.71913 -1.59634 0
M  V30 30649 C 2740.85 -0.602224 -1.63246 0
M  V30 30650 O 2742.02 -0.880401 -1.81138 0
M  V30 30651 C 2739.09 -1.80748 -2.95857 0
M  V30 30652 C 2738.15 -3.04476 -3.02643 0
M  V30 30653 C 2737.38 -3.12879 -4.32368 0
M  V30 30654 O 2737.6 -2.28108 -5.22803 0
M  V30 30655 O 2736.54 -4.05595 -4.44721 0
M  V30 30656 H 2740.36 -2.67192 -1.44369 0
M  V30 30657 H 2737.95 -1.34437 -0.651694 0
M  V30 30658 H 2739.83 -1.88746 -3.76767 0
M  V30 30659 H 2738.51 -0.886524 -3.11324 0
M  V30 30660 H 2737.41 -3.01979 -2.20816 0
M  V30 30661 H 2738.75 -3.96145 -2.92112 0
M  V30 30662 N 2740.4 0.725419 -1.39912 0
M  V30 30663 C 2741.64 1.4977 -1.39098 0
M  V30 30664 C 2742 1.91997 0.0106114 0
M  V30 30665 O 2743.2 2.68415 0.143811 0
M  V30 30666 C 2741.47 2.69759 -2.34445 0
M  V30 30667 S 2743.03 3.59291 -2.51904 0
M  V30 30668 H 2739.85 0.512177 -0.493149 0
M  V30 30669 H 2742.45 0.849166 -1.76095 0
M  V30 30670 H 2741.16 2.36892 -3.35127 0
M  V30 30671 H 2740.69 3.39533 -1.98698 0
M  V30 30672 H 2742.7 4.63782 -1.7641 0
M  V30 30673 N 2741.88 1.25246 0.956615 0
M  V30 30674 C 2742.79 1.07193 2.08679 0
M  V30 30675 C 2743.8 0.00962132 1.73997 0
M  V30 30676 O 2744.98 0.210139 2.00301 0
M  V30 30677 C 2742.04 0.690586 3.39753 0
M  V30 30678 C 2741.1 1.83061 3.88313 0
M  V30 30679 C 2740.34 1.46737 5.13132 0
M  V30 30680 O 2740.56 0.362129 5.69249 0
M  V30 30681 O 2739.49 2.29687 5.56352 0
M  V30 30682 H 2743.32 2.01969 2.26809 0
M  V30 30683 H 2740.9 1.04167 1.07097 0
M  V30 30684 H 2742.79 0.489945 4.18542 0
M  V30 30685 H 2741.46 -0.227924 3.22897 0
M  V30 30686 H 2740.37 2.0861 3.10536 0
M  V30 30687 H 2741.7 2.7283 4.09664 0
M  V30 30688 N 2743.35 -1.15894 1.068 0
M  V30 30689 C 2744.3 -2.20452 0.683352 0
M  V30 30690 C 2745.27 -1.62939 -0.322521 0
M  V30 30691 O 2746.46 -1.89638 -0.210242 0
M  V30 30692 C 2743.6 -3.45004 0.0813872 0
M  V30 30693 C 2742.71 -4.1674 1.13806 0
M  V30 30694 C 2741.84 -5.28826 0.501691 0
M  V30 30695 C 2740.88 -5.92371 1.54154 0
M  V30 30696 N 2740.02 -6.95938 0.92816 0
M  V30 30697 H 2744.86 -2.52706 1.57936 0
M  V30 30698 H 2742.4 -1.24114 0.789566 0
M  V30 30699 H 2744.35 -4.16224 -0.285201 0
M  V30 30700 H 2742.98 -3.13284 -0.778005 0
M  V30 30701 H 2742.04 -3.44073 1.62229 0
M  V30 30702 H 2743.35 -4.60086 1.92672 0
M  V30 30703 H 2742.5 -6.06644 0.0824228 0
M  V30 30704 H 2741.24 -4.86657 -0.318797 0
M  V30 30705 H 2740.25 -5.13269 1.97065 0
M  V30 30706 H 2741.47 -6.36617 2.36422 0
M  V30 30707 H 2739.42 -6.55874 0.128475 0
M  V30 30708 H 2739.33 -7.37682 1.65414 0
M  V30 30709 H 2740.6 -7.77667 0.534208 0
M  V30 30710 N 2744.83 -0.851312 -1.32629 0
M  V30 30711 C 2745.76 -0.250797 -2.27824 0
M  V30 30712 C 2746.78 0.575571 -1.52286 0
M  V30 30713 O 2747.97 0.400607 -1.73947 0
M  V30 30714 C 2745.07 0.664512 -3.32321 0
M  V30 30715 C 2744.24 -0.125264 -4.37221 0
M  V30 30716 C 2743.3 0.715293 -5.21316 0
M  V30 30717 O 2742.32 0.150011 -5.69002 0
M  V30 30718 N 2743.53 2.03059 -5.43827 0
M  V30 30719 H 2746.29 -1.06878 -2.79995 0
M  V30 30720 H 2743.85 -0.710969 -1.45454 0
M  V30 30721 H 2745.84 1.2321 -3.85489 0
M  V30 30722 H 2744.41 1.38318 -2.80334 0
M  V30 30723 H 2743.63 -0.874267 -3.84383 0
M  V30 30724 H 2744.92 -0.667863 -5.04398 0
M  V30 30725 H 2744.32 2.51323 -5.06807 0
M  V30 30726 H 2742.88 2.54638 -6.00002 0
M  V30 30727 N 2746.31 1.45361 -0.608928 0
M  V30 30728 C 2747.24 2.28726 0.147277 0
M  V30 30729 C 2748.25 1.40027 0.830443 0
M  V30 30730 O 2749.44 1.64388 0.695607 0
M  V30 30731 C 2746.54 3.15806 1.22963 0
M  V30 30732 C 2745.72 4.32791 0.633315 0
M  V30 30733 C 2744.78 5.0107 1.60673 0
M  V30 30734 O 2743.8 5.5782 1.13251 0
M  V30 30735 N 2745 5.00477 2.94114 0
M  V30 30736 H 2747.77 2.94267 -0.568066 0
M  V30 30737 H 2745.33 1.55564 -0.448507 0
M  V30 30738 H 2747.32 3.58348 1.88066 0
M  V30 30739 H 2745.89 2.52165 1.84747 0
M  V30 30740 H 2745.11 3.93713 -0.195831 0
M  V30 30741 H 2746.4 5.08345 0.215166 0
M  V30 30742 H 2745.8 4.55663 3.35242 0
M  V30 30743 H 2744.35 5.46879 3.54636 0
M  V30 30744 N 2747.79 0.348166 1.53706 0
M  V30 30745 C 2749.04 -0.247957 2.0017 0
M  V30 30746 C 2749.35 -1.51284 1.23986 0
M  V30 30747 O 2750.56 -2.18649 1.6095 0
M  V30 30748 C 2749.01 -0.492396 3.56516 0
M  V30 30749 C 2748.62 0.756854 4.41561 0
M  V30 30750 C 2750.36 -1.04712 4.11382 0
M  V30 30751 C 2748.27 0.48296 5.89425 0
M  V30 30752 H 2747.2 -0.096432 0.747808 0
M  V30 30753 H 2749.85 0.464211 1.77531 0
M  V30 30754 H 2748.23 -1.26538 3.75239 0
M  V30 30755 H 2749.41 1.5313 4.34612 0
M  V30 30756 H 2747.72 1.23355 3.97709 0
M  V30 30757 H 2750.32 -1.26708 5.1947 0
M  V30 30758 H 2750.66 -2.00405 3.64889 0
M  V30 30759 H 2751.2 -0.334731 3.96389 0
M  V30 30760 H 2747.93 1.40973 6.40162 0
M  V30 30761 H 2747.45 -0.253311 5.99265 0
M  V30 30762 H 2749.13 0.10193 6.4692 0
M  V30 30763 N 2749.27 -1.57412 0.0768958 0
M  V30 30764 C 2750.2 -2.10004 -0.918211 0
M  V30 30765 C 2751.21 -1.03328 -1.25806 0
M  V30 30766 O 2752.4 -1.30827 -1.21436 0
M  V30 30767 C 2749.5 -2.54968 -2.23259 0
M  V30 30768 C 2748.67 -3.85274 -2.07081 0
M  V30 30769 C 2747.73 -4.16278 -3.21869 0
M  V30 30770 O 2746.76 -4.85795 -2.96634 0
M  V30 30771 N 2747.96 -3.70229 -4.47114 0
M  V30 30772 H 2750.72 -2.96005 -0.469157 0
M  V30 30773 H 2748.29 -1.61535 -0.108697 0
M  V30 30774 H 2750.28 -2.72767 -2.98965 0
M  V30 30775 H 2748.85 -1.74076 -2.59646 0
M  V30 30776 H 2748.07 -3.76804 -1.15812 0
M  V30 30777 H 2749.36 -4.70557 -1.93529 0
M  V30 30778 H 2748.75 -3.14079 -4.70501 0
M  V30 30779 H 2747.31 -3.93218 -5.1983 0
M  V30 30780 N 2750.74 0.196695 -1.56368 0
M  V30 30781 C 2751.69 1.26327 -1.95306 0
M  V30 30782 C 2752.69 1.47205 -0.838278 0
M  V30 30783 O 2753.89 1.48085 -1.02327 0
M  V30 30784 H 2750.27 0.424073 -0.62102 0
M  V30 30785 H 2752.24 0.907829 -2.84255 0
M  V30 30786 C 2750.99 2.601 -2.30745 0
M  V30 30787 H 2750.31 2.4485 -3.16051 0
M  V30 30788 H 2751.75 3.33479 -2.61854 0
M  V30 30789 C 2750.21 3.16973 -1.14149 0
M  V30 30790 O 2750.74 3.99544 -0.415672 0
M  V30 30791 N 2748.95 2.75695 -0.918719 0
M  V30 30792 H 2748.49 2.08653 -1.51068 0
M  V30 30793 H 2748.45 3.14086 -0.140376 0
M  V30 30794 N 2752.22 1.50604 0.464349 0
M  V30 30795 C 2753.5 1.52452 1.22547 0
M  V30 30796 C 2753.88 0.273072 2.09326 0
M  V30 30797 O 2753.23 -0.743204 2.16076 0
M  V30 30798 C 2753.44 2.82397 2.05069 0
M  V30 30799 C 2754.79 3.33317 2.6303 0
M  V30 30800 O 2755.81 2.83764 2.15305 0
M  V30 30801 O 2754.67 4.19715 3.50003 0
M  V30 30802 H 2751.76 0.611785 0.55646 0
M  V30 30803 H 2754.31 1.62899 0.47562 0
M  V30 30804 H 2753.08 3.6495 1.41163 0
M  V30 30805 H 2752.7 2.74985 2.87174 0
M  V30 30806 N 2753.7 -0.717989 1.40295 0
M  V30 30807 C 2754.63 -1.84495 1.43122 0
M  V30 30808 C 2755.61 -1.67567 0.292433 0
M  V30 30809 O 2756.8 -1.87634 0.500707 0
M  V30 30810 C 2753.93 -3.22425 1.29071 0
M  V30 30811 C 2752.88 -3.54021 2.40527 0
M  V30 30812 C 2752.21 -4.91069 2.11555 0
M  V30 30813 C 2753.51 -3.55262 3.82865 0
M  V30 30814 H 2755.2 -1.82387 2.37435 0
M  V30 30815 H 2752.75 -0.87607 1.14285 0
M  V30 30816 H 2754.7 -4.00955 1.29665 0
M  V30 30817 H 2753.42 -3.25103 0.312328 0
M  V30 30818 H 2752.08 -2.7783 2.39178 0
M  V30 30819 H 2751.73 -4.90347 1.12113 0
M  V30 30820 H 2751.43 -5.13175 2.86225 0
M  V30 30821 H 2752.95 -5.71935 2.13827 0
M  V30 30822 H 2754.37 -4.23837 3.86051 0
M  V30 30823 H 2752.77 -3.88894 4.57035 0
M  V30 30824 H 2753.84 -2.54698 4.12622 0
M  V30 30825 N 2755.18 -1.25752 -0.94996 0
M  V30 30826 C 2756.13 -1.06342 -2.06867 0
M  V30 30827 C 2757.12 0.00705923 -1.69399 0
M  V30 30828 O 2758.33 -0.148929 -1.79383 0
M  V30 30829 H 2754.7 -0.326981 -0.677191 0
M  V30 30830 H 2756.67 -2.01171 -2.20393 0
M  V30 30831 C 2755.42 -0.703829 -3.40502 0
M  V30 30832 H 2754.74 -1.51937 -3.69804 0
M  V30 30833 H 2756.18 -0.60775 -4.19622 0
M  V30 30834 C 2754.64 0.590442 -3.31686 0
M  V30 30835 O 2755.17 1.63125 -3.67087 0
M  V30 30836 N 2753.38 0.577809 -2.84798 0
M  V30 30837 H 2752.93 -0.269555 -2.56186 0
M  V30 30838 H 2752.88 1.44393 -2.79281 0
M  V30 30839 N 2756.66 1.15326 -1.07413 0
M  V30 30840 C 2757.59 2.19702 -0.652962 0
M  V30 30841 C 2758.6 1.60108 0.29484 0
M  V30 30842 O 2759.79 1.78302 0.0840618 0
M  V30 30843 C 2756.89 3.38844 0.0613744 0
M  V30 30844 C 2756.06 4.27982 -0.902771 0
M  V30 30845 C 2755.12 5.25716 -0.225613 0
M  V30 30846 O 2754.15 5.6256 -0.866858 0
M  V30 30847 N 2755.35 5.71317 1.02848 0
M  V30 30848 H 2758.12 2.56454 -1.55085 0
M  V30 30849 H 2755.68 1.30448 -0.958906 0
M  V30 30850 H 2757.67 4.01279 0.525074 0
M  V30 30851 H 2756.24 3.00503 0.861216 0
M  V30 30852 H 2755.46 3.62637 -1.54557 0
M  V30 30853 H 2756.75 4.84409 -1.55645 0
M  V30 30854 H 2756.14 5.43495 1.56938 0
M  V30 30855 H 2754.7 6.35788 1.43584 0
M  V30 30856 N 2758.13 0.858334 1.32176 0
M  V30 30857 C 2759.38 0.473495 1.97812 0
M  V30 30858 C 2759.74 -0.961093 1.66676 0
M  V30 30859 O 2759.03 -1.66583 0.9466 0
M  V30 30860 C 2759.22 0.65372 3.51371 0
M  V30 30861 C 2759.05 2.10427 3.9743 0
M  V30 30862 C 2757.82 2.74352 4.24333 0
M  V30 30863 C 2760.02 3.07527 4.12227 0
M  V30 30864 N 2758 4.1028 4.56665 0
M  V30 30865 C 2759.37 4.28453 4.48138 0
M  V30 30866 C 2761.43 3.03674 3.94572 0
M  V30 30867 C 2760.13 5.46028 4.68237 0
M  V30 30868 C 2762.16 4.20496 4.15857 0
M  V30 30869 C 2761.52 5.40181 4.52088 0
M  V30 30870 H 2757.62 0.222075 0.749805 0
M  V30 30871 H 2760.2 1.11049 1.59925 0
M  V30 30872 H 2758.37 0.046395 3.88372 0
M  V30 30873 H 2760.1 0.238414 4.03997 0
M  V30 30874 H 2756.86 2.25369 4.1654 0
M  V30 30875 H 2757.28 4.80406 4.7701 0
M  V30 30876 H 2761.93 2.12259 3.65658 0
M  V30 30877 H 2759.64 6.37971 4.96003 0
M  V30 30878 H 2763.23 4.18954 4.03694 0
M  V30 30879 H 2762.11 6.29073 4.68227 0
M  V30 30880 N 2759.61 -1.45036 0.616628 0
M  V30 30881 C 2760.56 -2.30596 -0.0969034 0
M  V30 30882 C 2761.53 -1.42636 -0.851126 0
M  V30 30883 O 2762.71 -1.71556 -0.835062 0
M  V30 30884 C 2759.85 -3.2769 -1.08229 0
M  V30 30885 C 2758.97 -4.30753 -0.327996 0
M  V30 30886 C 2758.1 -5.14948 -1.3039 0
M  V30 30887 C 2757.14 -6.09732 -0.537942 0
M  V30 30888 N 2756.28 -6.86676 -1.46358 0
M  V30 30889 H 2761.12 -2.91075 0.638692 0
M  V30 30890 H 2758.66 -1.43425 0.326758 0
M  V30 30891 H 2760.61 -3.82457 -1.66682 0
M  V30 30892 H 2759.24 -2.68944 -1.78519 0
M  V30 30893 H 2758.3 -3.78575 0.372202 0
M  V30 30894 H 2759.61 -4.98073 0.26923 0
M  V30 30895 H 2758.76 -5.74161 -1.96022 0
M  V30 30896 H 2757.5 -4.47668 -1.93506 0
M  V30 30897 H 2756.51 -5.49642 0.131949 0
M  V30 30898 H 2757.73 -6.79043 0.0882925 0
M  V30 30899 H 2755.68 -6.22077 -2.08222 0
M  V30 30900 H 2755.59 -7.50381 -0.92002 0
M  V30 30901 H 2756.86 -7.50422 -2.10919 0
M  V30 30902 N 2761.09 -0.356312 -1.53519 0
M  V30 30903 C 2762.32 0.237291 -2.05535 0
M  V30 30904 C 2762.73 1.43197 -1.23045 0
M  V30 30905 O 2762.09 1.80509 -0.268852 0
M  V30 30906 C 2762.14 0.639871 -3.55792 0
M  V30 30907 O 2761.86 -0.50731 -4.35153 0
M  V30 30908 C 2763.36 1.29284 -4.24029 0
M  V30 30909 H 2760.58 0.0435454 -0.669586 0
M  V30 30910 H 2763.13 -0.511998 -1.97987 0
M  V30 30911 H 2761.28 1.33909 -3.63521 0
M  V30 30912 H 2761.7 -0.183842 -5.24178 0
M  V30 30913 H 2763.17 1.52517 -5.30511 0
M  V30 30914 H 2763.65 2.25033 -3.7717 0
M  V30 30915 H 2764.25 0.635316 -4.20528 0
M  V30 30916 N 2762.57 1.57369 -0.0852427 0
M  V30 30917 C 2763.5 2.10488 0.907062 0
M  V30 30918 C 2764.51 1.03993 1.25257 0
M  V30 30919 O 2765.7 1.31469 1.2074 0
M  V30 30920 C 2762.8 2.56149 2.21903 0
M  V30 30921 C 2761.98 3.86367 2.05035 0
M  V30 30922 C 2761.03 4.17979 3.19657 0
M  V30 30923 O 2760.06 4.87361 2.94054 0
M  V30 30924 N 2761.26 3.72595 4.45144 0
M  V30 30925 H 2764.03 2.9625 0.453453 0
M  V30 30926 H 2761.59 1.6159 0.100129 0
M  V30 30927 H 2763.58 2.74349 2.97515 0
M  V30 30928 H 2762.15 1.75451 2.5872 0
M  V30 30929 H 2761.37 3.77413 1.13812 0
M  V30 30930 H 2762.66 4.71577 1.91031 0
M  V30 30931 H 2762.06 3.16569 4.68829 0
M  V30 30932 H 2760.61 3.95969 5.17737 0
M  V30 30933 N 2764.05 -0.188399 1.5647 0
M  V30 30934 C 2765.28 -0.922431 1.84864 0
M  V30 30935 C 2765.68 -1.77074 0.666445 0
M  V30 30936 O 2765.03 -1.79852 -0.374012 0
M  V30 30937 C 2765.09 -1.86319 3.0745 0
M  V30 30938 C 2764.75 -1.19617 4.41068 0
M  V30 30939 C 2765.75 -0.569855 5.16768 0
M  V30 30940 C 2763.44 -1.19803 4.87804 0
M  V30 30941 C 2765.43 0.045706 6.37384 0
M  V30 30942 C 2763.12 -0.578633 6.08354 0
M  V30 30943 C 2764.11 0.042146 6.82987 0
M  V30 30944 O 2763.8 0.651815 8.01253 0
M  V30 30945 H 2763.53 -0.274306 0.617845 0
M  V30 30946 H 2766.09 -0.198577 2.04438 0
M  V30 30947 H 2764.32 -2.62691 2.83778 0
M  V30 30948 H 2766.01 -2.46558 3.22434 0
M  V30 30949 H 2766.77 -0.560517 4.8175 0
M  V30 30950 H 2762.65 -1.67061 4.29665 0
M  V30 30951 H 2766.2 0.530853 6.95577 0
M  V30 30952 H 2762.09 -0.585497 6.42839 0
M  V30 30953 H 2762.86 0.549379 8.16654 0
M  V30 30954 N 2765.53 -1.50848 -0.456355 0
M  V30 30955 C 2766.75 -1.6663 -1.23488 0
M  V30 30956 C 2767.18 -0.355287 -1.84714 0
M  V30 30957 O 2766.53 0.682529 -1.67962 0
M  V30 30958 C 2766.58 -2.77013 -2.3086 0
M  V30 30959 O 2765.69 -2.39291 -3.35877 0
M  V30 30960 H 2765.03 -0.55622 -0.36265 0
M  V30 30961 H 2767.56 -1.97309 -0.54134 0
M  V30 30962 H 2767.57 -3.00531 -2.75944 0
M  V30 30963 H 2766.24 -3.72155 -1.85671 0
M  V30 30964 H 2764.82 -2.26274 -2.96402 0
M  V30 30965 N 2767 0.710538 -1.40674 0
M  V30 30966 C 2768.42 1.01925 -1.22814 0
M  V30 30967 C 2768.62 2.01216 -0.106905 0
M  V30 30968 O 2767.68 2.46798 0.533571 0
M  V30 30969 C 2768.99 1.55815 -2.57181 0
M  V30 30970 C 2770.54 1.67775 -2.64236 0
M  V30 30971 C 2771.01 2.25069 -3.98883 0
M  V30 30972 N 2772.5 2.32449 -4.00652 0
M  V30 30973 C 2773.24 2.77775 -5.01626 0
M  V30 30974 N 2772.73 3.22815 -6.12994 0
M  V30 30975 N 2774.53 2.77204 -4.88993 0
M  V30 30976 H 2766.68 0.0524927 -2.12335 0
M  V30 30977 H 2768.94 0.0858814 -0.944102 0
M  V30 30978 H 2768.65 0.903189 -3.39905 0
M  V30 30979 H 2768.52 2.54262 -2.78622 0
M  V30 30980 H 2770.91 2.32387 -1.8188 0
M  V30 30981 H 2770.99 0.679134 -2.4662 0
M  V30 30982 H 2770.63 1.61077 -4.81681 0
M  V30 30983 H 2770.56 3.25654 -4.13832 0
M  V30 30984 H 2773.05 2.00645 -3.20235 0
M  V30 30985 H 2773.37 3.55983 -6.85927 0
M  V30 30986 H 2771.71 3.20762 -6.16552 0
M  V30 30987 H 2774.9 2.41356 -4.0108 0
M  V30 30988 H 2775.08 3.12211 -5.67827 0
M  V30 30989 N 2768.48 1.26254 0.943277 0
M  V30 30990 C 2769.43 1.07629 2.04168 0
M  V30 30991 C 2770.4 -0.0180446 1.6609 0
M  V30 30992 O 2771.58 0.141322 1.90276 0
M  V30 30993 C 2768.72 0.713103 3.37652 0
M  V30 30994 C 2767.84 1.88347 3.88779 0
M  V30 30995 C 2766.97 1.46359 5.10639 0
M  V30 30996 C 2766.01 2.60239 5.54024 0
M  V30 30997 N 2765.15 2.18948 6.67088 0
M  V30 30998 H 2769.99 2.01627 2.19432 0
M  V30 30999 H 2767.52 1.00391 1.07517 0
M  V30 31000 H 2769.48 0.483431 4.1439 0
M  V30 31001 H 2768.11 -0.189903 3.22241 0
M  V30 31002 H 2767.16 2.22613 3.0846 0
M  V30 31003 H 2768.48 2.73828 4.16917 0
M  V30 31004 H 2767.63 1.19424 5.9483 0
M  V30 31005 H 2766.37 0.579653 4.84243 0
M  V30 31006 H 2765.37 2.87906 4.68391 0
M  V30 31007 H 2766.6 3.49229 5.82422 0
M  V30 31008 H 2764.55 1.32985 6.42379 0
M  V30 31009 H 2764.46 2.97973 6.94801 0
M  V30 31010 H 2765.73 1.95219 7.54659 0
M  V30 31011 N 2769.96 -1.14755 1.08024 0
M  V30 31012 C 2770.87 -2.23332 0.718331 0
M  V30 31013 C 2771.89 -1.71838 -0.273447 0
M  V30 31014 O 2773.06 -2.01052 -0.11837 0
M  V30 31015 C 2770.13 -3.4646 0.128916 0
M  V30 31016 C 2769.19 -4.12913 1.17481 0
M  V30 31017 C 2768.42 -5.30163 0.613423 0
M  V30 31018 O 2768.64 -5.67561 -0.568358 0
M  V30 31019 O 2767.58 -5.86297 1.3616 0
M  V30 31020 H 2771.4 -2.56633 1.62399 0
M  V30 31021 H 2768.99 -1.2261 0.853649 0
M  V30 31022 H 2770.87 -4.20938 -0.197175 0
M  V30 31023 H 2769.55 -3.14893 -0.749959 0
M  V30 31024 H 2768.45 -3.40325 1.55336 0
M  V30 31025 H 2769.79 -4.48577 2.02582 0
M  V30 31026 N 2771.44 -0.865331 -1.31719 0
M  V30 31027 C 2772.35 -0.320976 -2.32394 0
M  V30 31028 C 2773.36 0.566717 -1.64512 0
M  V30 31029 O 2774.54 0.46454 -1.95969 0
M  V30 31030 C 2771.6 0.47264 -3.43463 0
M  V30 31031 C 2770.67 -0.44246 -4.27014 0
M  V30 31032 C 2769.9 0.313375 -5.32779 0
M  V30 31033 O 2770.12 1.54205 -5.4916 0
M  V30 31034 O 2769.06 -0.326363 -6.01015 0
M  V30 31035 H 2772.88 -1.15533 -2.80866 0
M  V30 31036 H 2770.47 -0.628569 -1.35534 0
M  V30 31037 H 2772.35 0.922709 -4.11174 0
M  V30 31038 H 2771.02 1.28362 -2.97161 0
M  V30 31039 H 2769.93 -0.94093 -3.62074 0
M  V30 31040 H 2771.26 -1.21891 -4.76868 0
M  V30 31041 N 2772.92 1.44707 -0.624311 0
M  V30 31042 C 2773.88 2.29078 0.0749235 0
M  V30 31043 C 2774.88 1.40674 0.77894 0
M  V30 31044 O 2776.07 1.62619 0.624563 0
M  V30 31045 C 2773.2 3.22095 1.11657 0
M  V30 31046 H 2774.39 2.92387 -0.667064 0
M  V30 31047 H 2771.95 1.51506 -0.384125 0
M  V30 31048 H 2772.68 2.63621 1.88877 0
M  V30 31049 H 2772.47 3.87235 0.615762 0
M  V30 31050 H 2773.96 3.85492 1.60578 0
M  V30 31051 N 2774.39 0.364449 1.53328 0
M  V30 31052 C 2775.64 -0.226712 2.00422 0
M  V30 31053 C 2775.96 -1.49961 1.25583 0
M  V30 31054 O 2777.16 -2.1693 1.6326 0
M  V30 31055 C 2775.62 -0.454555 3.57018 0
M  V30 31056 C 2775.23 0.803645 4.40733 0
M  V30 31057 C 2776.97 -1.00343 4.1247 0
M  V30 31058 C 2774.88 0.545449 5.88879 0
M  V30 31059 H 2773.81 -0.0884951 0.748789 0
M  V30 31060 H 2776.46 0.483014 1.77029 0
M  V30 31061 H 2774.84 -1.22551 3.7656 0
M  V30 31062 H 2776.01 1.57731 4.32964 0
M  V30 31063 H 2774.33 1.27566 3.96378 0
M  V30 31064 H 2776.93 -1.21191 5.20785 0
M  V30 31065 H 2777.27 -1.96523 3.66994 0
M  V30 31066 H 2777.8 -0.29267 3.96722 0
M  V30 31067 H 2774.54 1.47755 6.3863 0
M  V30 31068 H 2774.06 -0.189737 5.995 0
M  V30 31069 H 2775.74 0.170538 6.46775 0
M  V30 31070 N 2775.87 -1.57322 0.0935872 0
M  V30 31071 C 2777.29 -1.57417 -0.263063 0
M  V30 31072 C 2777.49 -1.10463 -1.68524 0
M  V30 31073 O 2776.54 -0.780399 -2.40137 0
M  V30 31074 C 2777.86 -3.00654 -0.0528673 0
M  V30 31075 C 2779.4 -3.12767 -0.120733 0
M  V30 31076 C 2779.88 -4.57959 0.0614512 0
M  V30 31077 N 2781.37 -4.632 0.00656676 0
M  V30 31078 C 2782.11 -5.73268 0.1228 0
M  V30 31079 N 2781.6 -6.92177 0.293782 0
M  V30 31080 N 2783.39 -5.62063 0.0641775 0
M  V30 31081 H 2775.55 -1.86152 1.0228 0
M  V30 31082 H 2777.81 -0.859146 0.400715 0
M  V30 31083 H 2777.51 -3.39199 0.929338 0
M  V30 31084 H 2777.39 -3.68709 -0.795835 0
M  V30 31085 H 2779.78 -2.74095 -1.09344 0
M  V30 31086 H 2779.86 -2.47306 0.6537 0
M  V30 31087 H 2779.5 -4.97325 1.03102 0
M  V30 31088 H 2779.43 -5.21478 -0.732656 0
M  V30 31089 H 2781.92 -3.77699 -0.123107 0
M  V30 31090 H 2782.23 -7.71894 0.374026 0
M  V30 31091 H 2780.58 -6.94219 0.329429 0
M  V30 31092 H 2783.77 -4.6805 -0.0682574 0
M  V30 31093 H 2783.94 -6.47807 0.158211 0
M  V30 31094 N 2777.35 0.180099 -1.56568 0
M  V30 31095 C 2778.3 1.22309 -1.95727 0
M  V30 31096 C 2779.27 1.44452 -0.819936 0
M  V30 31097 O 2780.45 1.57337 -1.07934 0
M  V30 31098 C 2777.59 2.55943 -2.31489 0
M  V30 31099 C 2776.7 2.41254 -3.58358 0
M  V30 31100 C 2775.84 3.67694 -3.83373 0
M  V30 31101 C 2774.88 3.47901 -5.03619 0
M  V30 31102 N 2774.02 4.66389 -5.2481 0
M  V30 31103 H 2778.86 0.882148 -2.84644 0
M  V30 31104 H 2776.39 0.424195 -1.40851 0
M  V30 31105 H 2778.35 3.33818 -2.50243 0
M  V30 31106 H 2776.98 2.88051 -1.45694 0
M  V30 31107 H 2776.03 1.546 -3.47567 0
M  V30 31108 H 2777.34 2.2257 -4.4639 0
M  V30 31109 H 2776.5 4.54006 -4.02447 0
M  V30 31110 H 2775.24 3.89348 -2.93699 0
M  V30 31111 H 2774.24 2.59975 -4.84451 0
M  V30 31112 H 2775.47 3.27677 -5.94815 0
M  V30 31113 H 2773.41 4.88278 -4.38087 0
M  V30 31114 H 2773.33 4.50585 -6.07049 0
M  V30 31115 H 2774.6 5.54009 -5.48356 0
M  V30 31116 N 2778.83 1.51088 0.448349 0
M  V30 31117 C 2780.08 1.62446 1.19558 0
M  V30 31118 C 2780.39 0.341185 1.92601 0
M  V30 31119 O 2781.6 0.333984 2.69438 0
M  V30 31120 C 2780.05 2.86844 2.17368 0
M  V30 31121 C 2779.66 4.22134 1.50023 0
M  V30 31122 C 2781.4 3.07556 2.92592 0
M  V30 31123 C 2779.31 5.37693 2.46252 0
M  V30 31124 H 2778.24 0.605019 0.449965 0
M  V30 31125 H 2780.89 1.77544 0.463704 0
M  V30 31126 H 2779.27 2.65355 2.93944 0
M  V30 31127 H 2780.45 4.53964 0.790806 0
M  V30 31128 H 2778.76 4.07211 0.86994 0
M  V30 31129 H 2781.36 3.91063 3.64656 0
M  V30 31130 H 2781.7 2.20189 3.53302 0
M  V30 31131 H 2782.24 3.29333 2.23125 0
M  V30 31132 H 2778.97 6.27285 1.90247 0
M  V30 31133 H 2778.49 5.10253 3.1528 0
M  V30 31134 H 2780.17 5.69195 3.07613 0
M  V30 31135 N 2780.31 -0.703068 1.41049 0
M  V30 31136 C 2781.22 -1.847 1.44648 0
M  V30 31137 C 2782.23 -1.70689 0.337808 0
M  V30 31138 O 2783.41 -1.92736 0.584361 0
M  V30 31139 C 2780.47 -3.20615 1.31934 0
M  V30 31140 C 2779.53 -3.46789 2.53053 0
M  V30 31141 C 2778.77 -4.7622 2.40936 0
M  V30 31142 O 2778.99 -5.52187 1.42988 0
M  V30 31143 O 2777.92 -5.0301 3.30552 0
M  V30 31144 H 2781.75 -1.84619 2.41142 0
M  V30 31145 H 2779.34 -0.855145 1.22506 0
M  V30 31146 H 2781.22 -4.01776 1.27099 0
M  V30 31147 H 2779.89 -3.21396 0.385525 0
M  V30 31148 H 2778.8 -2.65589 2.63464 0
M  V30 31149 H 2780.13 -3.50816 3.45237 0
M  V30 31150 N 2781.78 -1.26752 -0.936569 0
M  V30 31151 C 2783.01 -1.15465 -1.72286 0
M  V30 31152 C 2783.43 0.285855 -1.85915 0
M  V30 31153 O 2782.79 1.20709 -1.35274 0
M  V30 31154 C 2782.84 -1.83364 -3.10499 0
M  V30 31155 O 2781.94 -1.12557 -3.96743 0
M  V30 31156 H 2781.29 -0.402076 -0.528423 0
M  V30 31157 H 2783.82 -1.67658 -1.17269 0
M  V30 31158 H 2783.83 -1.90372 -3.60864 0
M  V30 31159 H 2782.5 -2.88158 -2.99896 0
M  V30 31160 H 2781.08 -1.13557 -3.55189 0
M  V30 31161 N 2783.26 1.1418 -1.08631 0
M  V30 31162 C 2784.17 2.22948 -0.730165 0
M  V30 31163 C 2785.19 1.71981 0.26433 0
M  V30 31164 O 2786.36 2.01112 0.107706 0
M  V30 31165 C 2783.43 3.46387 -0.147288 0
M  V30 31166 C 2782.49 4.12284 -1.19669 0
M  V30 31167 C 2781.72 5.2983 -0.64153 0
M  V30 31168 O 2781.95 5.67855 0.538251 0
M  V30 31169 O 2780.88 5.85567 -1.39267 0
M  V30 31170 H 2784.71 2.55768 -1.63757 0
M  V30 31171 H 2782.29 1.22155 -0.860139 0
M  V30 31172 H 2784.17 4.21037 0.174849 0
M  V30 31173 H 2782.85 3.15286 0.733248 0
M  V30 31174 H 2781.76 3.39497 -1.57139 0
M  V30 31175 H 2783.09 4.47496 -2.04958 0
M  V30 31176 N 2784.74 0.872304 1.31258 0
M  V30 31177 C 2786.16 0.564547 1.49282 0
M  V30 31178 C 2786.36 -0.900776 1.80245 0
M  V30 31179 O 2785.41 -1.68281 1.88249 0
M  V30 31180 C 2786.73 1.46677 2.625 0
M  V30 31181 C 2788.27 1.46906 2.76383 0
M  V30 31182 C 2788.75 2.35691 3.92701 0
M  V30 31183 N 2790.24 2.33584 3.99991 0
M  V30 31184 C 2790.97 2.99001 4.89271 0
M  V30 31185 N 2790.47 3.73596 5.83436 0
M  V30 31186 N 2792.26 2.88297 4.82536 0
M  V30 31187 H 2784.41 1.82041 1.09429 0
M  V30 31188 H 2786.68 0.77852 0.540935 0
M  V30 31189 H 2786.38 2.50955 2.46403 0
M  V30 31190 H 2786.26 1.16702 3.58693 0
M  V30 31191 H 2788.64 0.433848 2.91893 0
M  V30 31192 H 2788.73 1.80906 1.8085 0
M  V30 31193 H 2788.37 3.3929 3.77948 0
M  V30 31194 H 2788.3 1.99014 4.87546 0
M  V30 31195 H 2790.79 1.79365 3.32621 0
M  V30 31196 H 2791.1 4.20633 6.48296 0
M  V30 31197 H 2789.45 3.77704 5.83408 0
M  V30 31198 H 2792.64 2.29558 4.07947 0
M  V30 31199 H 2792.81 3.39558 5.5191 0
M  V30 31200 N 2786.22 -1.44374 0.631976 0
M  V30 31201 C 2787.13 -2.34484 -0.0736328 0
M  V30 31202 C 2788.14 -1.52667 -0.834798 0
M  V30 31203 O 2789.32 -1.85392 -0.786869 0
M  V30 31204 C 2786.39 -3.30658 -1.04241 0
M  V30 31205 C 2785.45 -4.28382 -0.280527 0
M  V30 31206 C 2784.68 -5.19961 -1.20316 0
M  V30 31207 O 2784.9 -5.15488 -2.44189 0
M  V30 31208 O 2783.84 -5.97966 -0.687023 0
M  V30 31209 H 2787.66 -2.96273 0.667529 0
M  V30 31210 H 2785.25 -1.44161 0.392169 0
M  V30 31211 H 2787.13 -3.89854 -1.59974 0
M  V30 31212 H 2785.8 -2.71401 -1.76417 0
M  V30 31213 H 2784.71 -3.7273 0.31987 0
M  V30 31214 H 2786.04 -4.90562 0.40123 0
M  V30 31215 N 2787.7 -0.372575 -1.53133 0
M  V30 31216 C 2788.64 0.470591 -2.25952 0
M  V30 31217 C 2789.61 1.07174 -1.26897 0
M  V30 31218 O 2790.8 1.10292 -1.55693 0
M  V30 31219 C 2787.94 1.60074 -3.05729 0
M  V30 31220 C 2787.05 1.02409 -4.19686 0
M  V30 31221 C 2786.19 2.12392 -4.86891 0
M  V30 31222 C 2785.23 1.52228 -5.92869 0
M  V30 31223 N 2784.36 2.56072 -6.53737 0
M  V30 31224 H 2789.2 -0.156868 -2.97587 0
M  V30 31225 H 2786.74 -0.089183 -1.46829 0
M  V30 31226 H 2788.7 2.26655 -3.50262 0
M  V30 31227 H 2787.33 2.19876 -2.36335 0
M  V30 31228 H 2786.38 0.248359 -3.79588 0
M  V30 31229 H 2787.69 0.544279 -4.95822 0
M  V30 31230 H 2786.85 2.86778 -5.34643 0
M  V30 31231 H 2785.58 2.63727 -4.10243 0
M  V30 31232 H 2784.59 0.763589 -5.44472 0
M  V30 31233 H 2785.81 1.01709 -6.7144 0
M  V30 31234 H 2783.76 3.06607 -5.79938 0
M  V30 31235 H 2783.68 2.12798 -7.25433 0
M  V30 31236 H 2784.95 3.30139 -7.06136 0
M  V30 31237 N 2789.17 1.5727 -0.101929 0
M  V30 31238 C 2790.4 1.99364 0.571724 0
M  V30 31239 C 2790.82 0.980796 1.60505 0
M  V30 31240 O 2790.18 -0.0498199 1.81232 0
M  V30 31241 C 2790.23 3.40402 1.1899 0
M  V30 31242 O 2789.33 3.41926 2.30566 0
M  V30 31243 H 2788.68 0.6481 0.144437 0
M  V30 31244 H 2791.21 2.03759 -0.185361 0
M  V30 31245 H 2791.22 3.78244 1.52955 0
M  V30 31246 H 2789.89 4.13641 0.432911 0
M  V30 31247 H 2788.47 3.15886 1.98167 0
M  V30 31248 N 2790.65 -0.171793 1.56661 0
M  V30 31249 C 2791.56 -1.23266 1.99606 0
M  V30 31250 C 2792.58 -1.48469 0.907359 0
M  V30 31251 O 2793.75 -1.60627 1.21495 0
M  V30 31252 C 2790.82 -2.5519 2.34689 0
M  V30 31253 C 2789.88 -2.37854 3.57385 0
M  V30 31254 C 2789.11 -3.63487 3.90785 0
M  V30 31255 O 2789.34 -4.68644 3.2516 0
M  V30 31256 O 2788.27 -3.57626 4.84136 0
M  V30 31257 H 2792.1 -0.898141 2.90116 0
M  V30 31258 H 2789.68 -0.378622 1.44523 0
M  V30 31259 H 2791.56 -3.33013 2.58225 0
M  V30 31260 H 2790.24 -2.88222 1.47342 0
M  V30 31261 H 2789.15 -1.58064 3.39067 0
M  V30 31262 H 2790.48 -2.09747 4.45272 0
M  V30 31263 N 2792.13 -1.51324 -0.44033 0
M  V30 31264 C 2793.55 -1.39433 -0.776576 0
M  V30 31265 C 2793.75 -0.474331 -1.95838 0
M  V30 31266 O 2792.8 0.0716248 -2.52398 0
M  V30 31267 C 2794.12 -2.81407 -1.05976 0
M  V30 31268 C 2795.66 -2.90536 -1.16437 0
M  V30 31269 C 2796.14 -4.33411 -1.4805 0
M  V30 31270 N 2797.63 -4.36503 -1.5498 0
M  V30 31271 C 2798.36 -5.44081 -1.81007 0
M  V30 31272 N 2797.86 -6.61823 -2.04847 0
M  V30 31273 N 2799.65 -5.31558 -1.82765 0
M  V30 31274 H 2791.8 -2.09693 0.338043 0
M  V30 31275 H 2794.07 -0.94383 0.0888238 0
M  V30 31276 H 2793.77 -3.50707 -0.264111 0
M  V30 31277 H 2793.65 -3.20549 -1.98816 0
M  V30 31278 H 2796.03 -2.21436 -1.95065 0
M  V30 31279 H 2796.12 -2.54894 -0.215044 0
M  V30 31280 H 2795.76 -5.0306 -0.699516 0
M  V30 31281 H 2795.69 -4.66564 -2.44184 0
M  V30 31282 H 2798.18 -3.51616 -1.38473 0
M  V30 31283 H 2798.49 -7.39604 -2.24067 0
M  V30 31284 H 2796.84 -6.64944 -2.02175 0
M  V30 31285 H 2800.03 -4.38559 -1.63658 0
M  V30 31286 H 2800.2 -6.15477 -2.02711 0
M  V30 31287 N 2793.61 0.695578 -1.41419 0
M  V30 31288 C 2794.52 1.8393 -1.45626 0
M  V30 31289 C 2795.53 1.70508 -0.346855 0
M  V30 31290 O 2796.71 1.92423 -0.594574 0
M  V30 31291 C 2793.78 3.19911 -1.33633 0
M  V30 31292 C 2792.84 3.45442 -2.54888 0
M  V30 31293 C 2792.07 4.74936 -2.43458 0
M  V30 31294 O 2792.29 5.51421 -1.45914 0
M  V30 31295 O 2791.23 5.0125 -3.33215 0
M  V30 31296 H 2795.05 1.83338 -2.42118 0
M  V30 31297 H 2792.64 0.848637 -1.22957 0
M  V30 31298 H 2794.52 4.01096 -1.29228 0
M  V30 31299 H 2793.19 3.21187 -0.402564 0
M  V30 31300 H 2792.1 2.64188 -2.64869 0
M  V30 31301 H 2793.43 3.48981 -3.47093 0
M  V30 31302 N 2795.09 1.27247 0.929833 0
M  V30 31303 C 2796.03 1.09788 2.03015 0
M  V30 31304 C 2797 -0.000427548 1.661 0
M  V30 31305 O 2798.19 0.161495 1.90115 0
M  V30 31306 C 2795.33 0.748875 3.36877 0
M  V30 31307 C 2794.44 1.9246 3.8676 0
M  V30 31308 C 2793.58 1.51767 5.09058 0
M  V30 31309 C 2792.62 2.66101 5.51232 0
M  V30 31310 N 2791.75 2.26011 6.64728 0
M  V30 31311 H 2796.59 2.03943 2.17282 0
M  V30 31312 H 2794.13 1.01526 1.06447 0
M  V30 31313 H 2796.09 0.527356 4.13854 0
M  V30 31314 H 2794.72 -0.155714 3.22424 0
M  V30 31315 H 2793.77 2.25872 3.06082 0
M  V30 31316 H 2795.08 2.78235 4.13989 0
M  V30 31317 H 2794.24 1.25726 5.9353 0
M  V30 31318 H 2792.98 0.630981 4.83601 0
M  V30 31319 H 2791.98 2.92857 4.65311 0
M  V30 31320 H 2793.21 3.55387 5.78686 0
M  V30 31321 H 2791.15 1.39791 6.40933 0
M  V30 31322 H 2791.07 3.05325 6.91601 0
M  V30 31323 H 2792.34 2.03212 7.52546 0
M  V30 31324 N 2796.57 -1.13603 1.09235 0
M  V30 31325 C 2797.51 -2.21025 0.72461 0
M  V30 31326 C 2798.51 -1.67176 -0.273565 0
M  V30 31327 O 2799.71 -1.79491 -0.135234 0
M  V30 31328 H 2796.09 -0.720211 0.216332 0
M  V30 31329 H 2798.06 -2.49306 1.63979 0
M  V30 31330 C 2796.81 -3.47335 0.159187 0
M  V30 31331 H 2796.13 -3.89107 0.918455 0
M  V30 31332 H 2797.57 -4.23957 -0.0602105 0
M  V30 31333 C 2796.03 -3.1826 -1.10508 0
M  V30 31334 O 2796.56 -3.36841 -2.18863 0
M  V30 31335 N 2794.77 -2.72155 -1.01881 0
M  V30 31336 H 2794.31 -2.57236 -0.136981 0
M  V30 31337 H 2794.27 -2.53077 -1.86546 0
M  V30 31338 N 2798.04 -0.879253 -1.30793 0
M  V30 31339 C 2799.27 -0.508805 -2.01062 0
M  V30 31340 C 2799.69 0.893774 -1.65509 0
M  V30 31341 O 2799.05 1.59136 -0.868644 0
M  V30 31342 C 2799.1 -0.684053 -3.54052 0
M  V30 31343 O 2798.2 0.272582 -4.11498 0
M  V30 31344 H 2797.54 -0.201202 -0.632782 0
M  V30 31345 H 2800.07 -1.18522 -1.66774 0
M  V30 31346 H 2800.08 -0.580869 -4.03844 0
M  V30 31347 H 2798.76 -1.70671 -3.79268 0
M  V30 31348 H 2797.34 0.123574 -3.72695 0
M  V30 31349 N 2799.52 1.44037 -0.639624 0
M  V30 31350 C 2800.45 2.33453 0.0469033 0
M  V30 31351 C 2801.43 1.48695 0.826064 0
M  V30 31352 O 2802.62 1.77394 0.790254 0
M  V30 31353 C 2799.75 3.31882 1.02332 0
M  V30 31354 C 2798.7 4.26523 0.355209 0
M  V30 31355 C 2798.03 5.14885 1.44212 0
M  V30 31356 C 2799.33 5.16975 -0.743889 0
M  V30 31357 H 2801.02 2.91107 -0.699786 0
M  V30 31358 H 2798.57 1.39978 -0.33797 0
M  V30 31359 H 2800.52 3.93325 1.5124 0
M  V30 31360 H 2799.24 2.72455 1.801 0
M  V30 31361 H 2797.9 3.66425 -0.113304 0
M  V30 31362 H 2797.55 4.51806 2.21089 0
M  V30 31363 H 2797.25 5.79021 1.00042 0
M  V30 31364 H 2798.78 5.79201 1.93284 0
M  V30 31365 H 2800.19 5.72305 -0.337545 0
M  V30 31366 H 2798.59 5.89759 -1.10924 0
M  V30 31367 H 2799.66 4.57478 -1.60753 0
M  V30 31368 N 2801 0.380691 1.52933 0
M  V30 31369 C 2802.42 0.030271 1.59571 0
M  V30 31370 C 2802.62 -1.45391 1.39512 0
M  V30 31371 O 2801.67 -2.21739 1.20781 0
M  V30 31372 C 2802.98 0.499743 2.96518 0
M  V30 31373 C 2804.53 0.455259 3.09671 0
M  V30 31374 C 2805.01 0.900782 4.49054 0
M  V30 31375 N 2806.5 0.856447 4.55213 0
M  V30 31376 C 2807.23 1.17269 5.6128 0
M  V30 31377 N 2806.73 1.55897 6.75032 0
M  V30 31378 N 2808.52 1.0945 5.51341 0
M  V30 31379 H 2800.67 1.34703 1.64222 0
M  V30 31380 H 2802.94 0.551568 0.771023 0
M  V30 31381 H 2802.64 1.536 3.16386 0
M  V30 31382 H 2802.52 -0.105723 3.77052 0
M  V30 31383 H 2804.9 -0.571898 2.89505 0
M  V30 31384 H 2804.98 1.09642 2.31111 0
M  V30 31385 H 2804.63 1.92613 4.6996 0
M  V30 31386 H 2804.56 0.236721 5.26068 0
M  V30 31387 H 2807.05 0.572079 3.73545 0
M  V30 31388 H 2807.36 1.78413 7.51923 0
M  V30 31389 H 2805.71 1.59776 6.76385 0
M  V30 31390 H 2808.9 0.791794 4.61355 0
M  V30 31391 H 2809.07 1.34428 6.33903 0
M  V30 31392 N 2802.48 -1.57214 0.110268 0
M  V30 31393 C 2803.7 -1.99665 -0.561144 0
M  V30 31394 C 2804.13 -0.989294 -1.59983 0
M  V30 31395 O 2803.49 0.040208 -1.81255 0
M  V30 31396 C 2803.53 -3.41029 -1.17183 0
M  V30 31397 O 2802.64 -3.43144 -2.28749 0
M  V30 31398 H 2801.98 -0.648857 -0.140998 0
M  V30 31399 H 2804.51 -2.03657 0.196164 0
M  V30 31400 H 2804.52 -3.7905 -1.50947 0
M  V30 31401 H 2803.19 -4.13865 -0.410968 0
M  V30 31402 H 2801.77 -3.16933 -1.96489 0
M  V30 31403 N 2803.96 0.163482 -1.5675 0
M  V30 31404 C 2804.87 1.22206 -2.00257 0
M  V30 31405 C 2805.88 1.47986 -0.91522 0
M  V30 31406 O 2807.06 1.5998 -1.22345 0
M  V30 31407 C 2804.12 2.53942 -2.36039 0
M  V30 31408 C 2803.18 2.35956 -3.58641 0
M  V30 31409 C 2802.42 3.61409 -3.92707 0
M  V30 31410 O 2802.64 4.66913 -3.27641 0
M  V30 31411 O 2801.57 3.55053 -4.86026 0
M  V30 31412 H 2805.4 0.882743 -2.90588 0
M  V30 31413 H 2802.98 0.370952 -1.44721 0
M  V30 31414 H 2804.87 3.31639 -2.59988 0
M  V30 31415 H 2803.54 2.87437 -1.48868 0
M  V30 31416 H 2802.45 1.56264 -3.39901 0
M  V30 31417 H 2803.78 2.07382 -4.46378 0
M  V30 31418 N 2805.43 1.51555 0.432299 0
M  V30 31419 C 2806.68 1.63705 1.17828 0
M  V30 31420 C 2807 0.361593 1.92229 0
M  V30 31421 O 2808.2 0.362543 2.69069 0
M  V30 31422 C 2806.66 2.89133 2.14313 0
M  V30 31423 C 2806.27 4.23702 1.45537 0
M  V30 31424 C 2808.01 3.10642 2.89313 0
M  V30 31425 C 2805.92 5.40275 2.40535 0
M  V30 31426 H 2804.85 0.609757 0.443522 0
M  V30 31427 H 2807.5 1.78026 0.444847 0
M  V30 31428 H 2805.88 2.68457 2.91113 0
M  V30 31429 H 2807.05 4.54777 0.742613 0
M  V30 31430 H 2805.37 4.08111 0.8267 0
M  V30 31431 H 2807.97 3.94908 3.60488 0
M  V30 31432 H 2808.31 2.23924 3.50947 0
M  V30 31433 H 2808.84 3.31681 2.1962 0
M  V30 31434 H 2805.58 6.29267 1.83583 0
M  V30 31435 H 2805.1 5.13569 3.0985 0
M  V30 31436 H 2806.78 5.72426 3.01558 0
M  V30 31437 N 2806.91 -0.688069 1.41786 0
M  V30 31438 C 2807.82 -1.83155 1.46599 0
M  V30 31439 C 2808.84 -1.70321 0.355892 0
M  V30 31440 O 2810.01 -1.92105 0.60477 0
M  V30 31441 C 2807.08 -3.19198 1.35327 0
M  V30 31442 C 2806.14 -3.44086 2.56717 0
M  V30 31443 C 2805.37 -4.73638 2.45973 0
M  V30 31444 O 2805.6 -5.50639 1.48837 0
M  V30 31445 O 2804.53 -4.99476 3.35868 0
M  V30 31446 H 2808.36 -1.82051 2.43086 0
M  V30 31447 H 2805.94 -0.842104 1.23406 0
M  V30 31448 H 2807.82 -4.00405 1.31354 0
M  V30 31449 H 2806.5 -3.20969 0.419592 0
M  V30 31450 H 2805.4 -2.62779 2.66266 0
M  V30 31451 H 2806.74 -3.47135 3.48939 0
M  V30 31452 N 2808.39 -1.27739 -0.923072 0
M  V30 31453 C 2809.81 -1.05243 -1.19983 0
M  V30 31454 C 2810.01 0.211095 -2.00391 0
M  V30 31455 O 2809.06 0.915325 -2.35325 0
M  V30 31456 C 2810.37 -2.29454 -1.94348 0
M  V30 31457 C 2811.92 -2.34539 -2.07268 0
M  V30 31458 C 2812.4 -3.58492 -2.8504 0
M  V30 31459 N 2813.89 -3.59077 -2.92606 0
M  V30 31460 C 2814.62 -4.5166 -3.53258 0
M  V30 31461 N 2814.12 -5.54552 -4.15264 0
M  V30 31462 N 2815.91 -4.39274 -3.50706 0
M  V30 31463 H 2808.06 -2.08863 -0.386005 0
M  V30 31464 H 2810.33 -0.918821 -0.233391 0
M  V30 31465 H 2810.03 -3.21455 -1.42687 0
M  V30 31466 H 2809.91 -2.35135 -2.94943 0
M  V30 31467 H 2812.29 -1.43042 -2.58115 0
M  V30 31468 H 2812.37 -2.32859 -1.05879 0
M  V30 31469 H 2812.02 -4.50329 -2.34876 0
M  V30 31470 H 2811.95 -3.57425 -3.86724 0
M  V30 31471 H 2814.44 -2.84667 -2.48542 0
M  V30 31472 H 2814.75 -6.21356 -4.59496 0
M  V30 31473 H 2813.1 -5.58389 -4.13796 0
M  V30 31474 H 2816.29 -3.58098 -3.01469 0
M  V30 31475 H 2816.46 -5.11617 -3.97684 0
M  V30 31476 N 2809.87 1.13022 -1.09836 0
M  V30 31477 C 2810.8 2.20665 -0.76349 0
M  V30 31478 C 2811.78 1.6809 0.260748 0
M  V30 31479 O 2812.96 1.93778 0.127881 0
M  V30 31480 C 2810.09 3.46792 -0.187805 0
M  V30 31481 C 2809.05 4.12482 -1.14203 0
M  V30 31482 C 2808.37 5.32986 -0.427849 0
M  V30 31483 C 2809.67 4.59334 -2.48615 0
M  V30 31484 H 2811.37 2.48933 -1.66351 0
M  V30 31485 H 2808.91 1.19647 -0.801282 0
M  V30 31486 H 2810.87 4.21359 0.0585635 0
M  V30 31487 H 2809.59 3.17932 0.747429 0
M  V30 31488 H 2808.25 3.39888 -1.37375 0
M  V30 31489 H 2807.9 5.00391 0.511659 0
M  V30 31490 H 2807.6 5.77884 -1.06413 0
M  V30 31491 H 2809.12 6.10305 -0.189879 0
M  V30 31492 H 2810.54 5.25304 -2.29628 0
M  V30 31493 H 2808.93 5.14988 -3.08071 0
M  V30 31494 H 2810 3.73637 -3.09069 0
M  V30 31495 N 2811.35 0.886177 1.30325 0
M  V30 31496 C 2812.28 0.311112 2.27079 0
M  V30 31497 C 2813.29 -0.534992 1.53758 0
M  V30 31498 O 2814.48 -0.354347 1.74948 0
M  V30 31499 C 2811.58 -0.576169 3.33966 0
M  V30 31500 C 2810.75 0.241141 4.36735 0
M  V30 31501 C 2809.81 -0.576824 5.23029 0
M  V30 31502 O 2808.84 0.000902282 5.692 0
M  V30 31503 N 2810.04 -1.88569 5.49019 0
M  V30 31504 H 2812.81 1.14264 2.77063 0
M  V30 31505 H 2810.37 0.749284 1.43518 0
M  V30 31506 H 2812.36 -1.12946 3.8862 0
M  V30 31507 H 2810.93 -1.30837 2.83902 0
M  V30 31508 H 2810.15 0.975872 3.8193 0
M  V30 31509 H 2811.44 0.80136 5.0245 0
M  V30 31510 H 2810.83 -2.37797 5.13292 0
M  V30 31511 H 2809.39 -2.3864 6.06543 0
M  V30 31512 N 2812.82 -1.43695 0.647253 0
M  V30 31513 C 2813.79 -2.29168 -0.0384698 0
M  V30 31514 C 2814.79 -1.41895 -0.756462 0
M  V30 31515 O 2815.98 -1.63592 -0.598613 0
M  V30 31516 C 2813.11 -3.23831 -1.06519 0
M  V30 31517 H 2814.3 -2.91289 0.713496 0
M  V30 31518 H 2811.86 -1.50876 0.40818 0
M  V30 31519 H 2812.59 -2.66593 -1.84659 0
M  V30 31520 H 2812.38 -3.88165 -0.554079 0
M  V30 31521 H 2813.87 -3.87998 -1.54425 0
M  V30 31522 N 2814.3 -0.388796 -1.52729 0
M  V30 31523 C 2815.21 0.453952 -2.30166 0
M  V30 31524 C 2816.23 1.07194 -1.3706 0
M  V30 31525 O 2817.4 1.07787 -1.70129 0
M  V30 31526 C 2814.47 1.56623 -3.09306 0
M  V30 31527 C 2813.53 0.973393 -4.18119 0
M  V30 31528 C 2812.76 2.03266 -4.93476 0
M  V30 31529 O 2812.99 3.24764 -4.68919 0
M  V30 31530 O 2811.92 1.65024 -5.78836 0
M  V30 31531 H 2815.75 -0.176869 -3.03185 0
M  V30 31532 H 2813.33 -0.152527 -1.48619 0
M  V30 31533 H 2815.21 2.2124 -3.58651 0
M  V30 31534 H 2813.89 2.18202 -2.39101 0
M  V30 31535 H 2812.8 0.290491 -3.7297 0
M  V30 31536 H 2814.13 0.401822 -4.90557 0
M  V30 31537 N 2815.78 1.57153 -0.118604 0
M  V30 31538 C 2817.03 1.94356 0.539304 0
M  V30 31539 C 2817.34 1.00418 1.67856 0
M  V30 31540 O 2818.55 1.27085 2.3992 0
M  V30 31541 C 2817 3.45415 1.01075 0
M  V30 31542 C 2816.61 4.47888 -0.100019 0
M  V30 31543 C 2818.36 3.91538 1.64006 0
M  V30 31544 C 2816.26 5.90125 0.388108 0
M  V30 31545 H 2815.19 0.725531 0.205234 0
M  V30 31546 H 2817.84 1.82424 -0.198392 0
M  V30 31547 H 2816.23 3.5258 1.80286 0
M  V30 31548 H 2817.4 4.52392 -0.876268 0
M  V30 31549 H 2815.72 4.11515 -0.635957 0
M  V30 31550 H 2818.31 4.95223 2.0164 0
M  V30 31551 H 2818.66 3.31492 2.51831 0
M  V30 31552 H 2819.19 3.87172 0.913371 0
M  V30 31553 H 2815.93 6.53925 -0.454078 0
M  V30 31554 H 2815.45 5.89043 1.13085 0
M  V30 31555 H 2817.13 6.41399 0.849462 0
M  V30 31556 N 2817.26 -0.155167 1.56834 0
M  V30 31557 C 2818.21 -1.1918 1.97648 0
M  V30 31558 C 2819.18 -1.43129 0.842813 0
M  V30 31559 O 2820.36 -1.556 1.10423 0
M  V30 31560 C 2817.5 -2.52228 2.35531 0
M  V30 31561 C 2816.61 -2.35522 3.62151 0
M  V30 31562 C 2815.75 -3.61548 3.89174 0
M  V30 31563 C 2814.79 -3.39844 5.0909 0
M  V30 31564 N 2813.92 -4.5798 5.32164 0
M  V30 31565 H 2818.76 -0.836751 2.86011 0
M  V30 31566 H 2816.3 -0.401733 1.41508 0
M  V30 31567 H 2818.26 -3.29794 2.55522 0
M  V30 31568 H 2816.89 -2.85696 1.50258 0
M  V30 31569 H 2815.94 -1.49051 3.49983 0
M  V30 31570 H 2817.25 -2.1544 4.49875 0
M  V30 31571 H 2816.41 -4.47546 4.09619 0
M  V30 31572 H 2815.15 -3.84626 2.99856 0
M  V30 31573 H 2814.15 -2.52235 4.88526 0
M  V30 31574 H 2815.38 -3.18173 5.99952 0
M  V30 31575 H 2813.32 -4.81247 4.458 0
M  V30 31576 H 2813.24 -4.40871 6.14141 0
M  V30 31577 H 2814.51 -5.45215 5.57101 0
M  V30 31578 N 2818.74 -1.51782 -0.424256 0
M  V30 31579 C 2820.15 -1.40248 -0.761743 0
M  V30 31580 C 2820.35 -0.495075 -1.95323 0
M  V30 31581 O 2819.41 0.0448505 -2.5246 0
M  V30 31582 C 2820.72 -2.82515 -1.02985 0
M  V30 31583 C 2822.27 -2.91755 -1.13349 0
M  V30 31584 C 2822.74 -4.34957 -1.43445 0
M  V30 31585 N 2824.24 -4.38123 -1.50342 0
M  V30 31586 C 2824.97 -5.4597 -1.75226 0
M  V30 31587 N 2824.47 -6.63958 -1.97815 0
M  V30 31588 N 2826.26 -5.33466 -1.77117 0
M  V30 31589 H 2818.41 -2.09322 0.360265 0
M  V30 31590 H 2820.67 -0.942834 0.0988294 0
M  V30 31591 H 2820.38 -3.50967 -0.226899 0
M  V30 31592 H 2820.25 -3.2264 -1.95405 0
M  V30 31593 H 2822.64 -2.23492 -1.92705 0
M  V30 31594 H 2822.72 -2.55108 -0.187996 0
M  V30 31595 H 2822.37 -5.03773 -0.646121 0
M  V30 31596 H 2822.3 -4.69127 -2.39222 0
M  V30 31597 H 2824.79 -3.53065 -1.34736 0
M  V30 31598 H 2825.1 -7.41939 -2.1621 0
M  V30 31599 H 2823.44 -6.67051 -1.95111 0
M  V30 31600 H 2826.64 -4.4027 -1.58997 0
M  V30 31601 H 2826.81 -6.17593 -1.96172 0
M  V30 31602 N 2820.21 0.68054 -1.42149 0
M  V30 31603 C 2821.46 1.43633 -1.41606 0
M  V30 31604 C 2821.78 1.95571 -0.033823 0
M  V30 31605 O 2822.98 2.71336 0.0942111 0
M  V30 31606 C 2821.44 2.59802 -2.4906 0
M  V30 31607 C 2821.05 2.14587 -3.93264 0
M  V30 31608 C 2822.79 3.37348 -2.57676 0
M  V30 31609 C 2820.7 3.27804 -4.92238 0
M  V30 31610 H 2819.63 0.539573 -0.526666 0
M  V30 31611 H 2822.28 0.73734 -1.68034 0
M  V30 31612 H 2820.66 3.32041 -2.15788 0
M  V30 31613 H 2821.83 1.49539 -4.35861 0
M  V30 31614 H 2820.15 1.49996 -3.88446 0
M  V30 31615 H 2822.75 4.21656 -3.28801 0
M  V30 31616 H 2823.09 3.83552 -1.61844 0
M  V30 31617 H 2823.62 2.72174 -2.90114 0
M  V30 31618 H 2820.36 2.86597 -5.89527 0
M  V30 31619 H 2819.88 3.91653 -4.54277 0
M  V30 31620 H 2821.56 3.93358 -5.13691 0
M  V30 31621 N 2821.69 1.28226 0.916285 0
M  V30 31622 C 2822.6 1.13778 2.05163 0
M  V30 31623 C 2823.62 0.0649724 1.73879 0
M  V30 31624 O 2824.79 0.273757 1.99531 0
M  V30 31625 C 2821.86 0.798326 3.37384 0
M  V30 31626 C 2820.92 1.95323 3.82292 0
M  V30 31627 C 2820.15 1.62987 5.08204 0
M  V30 31628 O 2820.38 0.543048 5.67809 0
M  V30 31629 O 2819.31 2.4727 5.48763 0
M  V30 31630 H 2823.14 2.09082 2.20269 0
M  V30 31631 H 2820.72 1.07521 1.03728 0
M  V30 31632 H 2822.6 0.622853 4.16772 0
M  V30 31633 H 2821.28 -0.125082 3.23458 0
M  V30 31634 H 2820.19 2.18384 3.03742 0
M  V30 31635 H 2821.52 2.85725 4.00777 0
M  V30 31636 N 2823.17 -1.12438 1.10433 0
M  V30 31637 C 2824.08 -2.21758 0.765541 0
M  V30 31638 C 2825.1 -1.72379 -0.236936 0
M  V30 31639 O 2826.27 -2.01258 -0.0756976 0
M  V30 31640 C 2823.34 -3.46109 0.202377 0
M  V30 31641 C 2822.4 -4.10328 1.26213 0
M  V30 31642 C 2821.63 -5.28743 0.72574 0
M  V30 31643 O 2821.85 -5.68639 -0.447842 0
M  V30 31644 O 2820.79 -5.83277 1.48566 0
M  V30 31645 H 2824.61 -2.5313 1.67806 0
M  V30 31646 H 2822.2 -1.20772 0.879464 0
M  V30 31647 H 2824.08 -4.21262 -0.107844 0
M  V30 31648 H 2822.76 -3.16412 -0.682996 0
M  V30 31649 H 2821.66 -3.36954 1.6252 0
M  V30 31650 H 2823 -4.44179 2.12051 0
M  V30 31651 N 2824.65 -0.893076 -1.29853 0
M  V30 31652 C 2826.07 -0.588225 -1.48365 0
M  V30 31653 C 2826.27 0.871986 -1.81655 0
M  V30 31654 O 2825.32 1.65265 -1.90903 0
M  V30 31655 C 2826.63 -1.50835 -2.60133 0
M  V30 31656 C 2828.18 -1.51284 -2.74011 0
M  V30 31657 C 2828.66 -2.41909 -3.88901 0
M  V30 31658 N 2830.15 -2.39918 -3.96224 0
M  V30 31659 C 2830.88 -3.06747 -4.84452 0
M  V30 31660 N 2830.38 -3.8283 -5.77419 0
M  V30 31661 N 2832.17 -2.95938 -4.77888 0
M  V30 31662 H 2824.32 -1.83759 -1.06519 0
M  V30 31663 H 2826.59 -0.787027 -0.528481 0
M  V30 31664 H 2826.29 -2.54844 -2.42379 0
M  V30 31665 H 2826.17 -1.22394 -3.56791 0
M  V30 31666 H 2828.55 -0.48023 -2.91166 0
M  V30 31667 H 2828.63 -1.8376 -1.77949 0
M  V30 31668 H 2828.28 -3.4526 -3.72502 0
M  V30 31669 H 2828.21 -2.06746 -4.84318 0
M  V30 31670 H 2830.7 -1.84634 -3.29725 0
M  V30 31671 H 2831.01 -4.30894 -6.41522 0
M  V30 31672 H 2829.36 -3.86938 -5.77325 0
M  V30 31673 H 2832.55 -2.36019 -4.04244 0
M  V30 31674 H 2832.72 -3.48296 -5.46438 0
M  V30 31675 N 2826.13 1.4335 -0.654865 0
M  V30 31676 C 2827.37 2.0367 -0.172549 0
M  V30 31677 C 2827.73 1.50556 1.19151 0
M  V30 31678 O 2828.93 2.02531 1.76733 0
M  V30 31679 C 2827.2 3.56926 -0.184044 0
M  V30 31680 S 2828.76 4.38196 0.230185 0
M  V30 31681 H 2825.58 0.707267 -0.0727628 0
M  V30 31682 H 2828.18 1.75393 -0.863568 0
M  V30 31683 H 2826.89 3.93085 -1.17952 0
M  V30 31684 H 2826.42 3.89848 0.527459 0
M  V30 31685 H 2828.43 4.73967 1.46866 0
M  V30 31686 N 2827.61 0.39689 1.52521 0
M  V30 31687 C 2829.02 0.0471939 1.5953 0
M  V30 31688 C 2829.22 -1.43904 1.41046 0
M  V30 31689 O 2828.28 -2.20446 1.23126 0
M  V30 31690 C 2829.59 0.531165 2.95972 0
M  V30 31691 C 2831.14 0.488078 3.09171 0
M  V30 31692 C 2831.61 0.94836 4.48074 0
M  V30 31693 N 2833.1 0.90468 4.54279 0
M  V30 31694 C 2833.84 1.23215 5.60005 0
M  V30 31695 N 2833.34 1.63048 6.7334 0
M  V30 31696 N 2835.13 1.15291 5.50149 0
M  V30 31697 H 2827.28 1.36437 1.62784 0
M  V30 31698 H 2829.54 0.559715 0.76513 0
M  V30 31699 H 2829.25 1.56947 3.14739 0
M  V30 31700 H 2829.12 -0.0657259 3.77143 0
M  V30 31701 H 2831.51 -0.54116 2.90096 0
M  V30 31702 H 2831.59 1.12087 2.29935 0
M  V30 31703 H 2831.23 1.97586 4.67891 0
M  V30 31704 H 2831.16 0.292504 5.25787 0
M  V30 31705 H 2833.66 0.611666 3.72917 0
M  V30 31706 H 2833.97 1.86379 7.49989 0
M  V30 31707 H 2832.31 1.66941 6.74652 0
M  V30 31708 H 2835.5 0.840683 4.60489 0
M  V30 31709 H 2835.68 1.41144 6.32442 0
M  V30 31710 N 2829.08 -1.57088 0.126936 0
M  V30 31711 C 2830.5 -1.5794 -0.229614 0
M  V30 31712 C 2830.7 -1.14013 -1.66143 0
M  V30 31713 O 2829.76 -0.831161 -2.38428 0
M  V30 31714 C 2831.07 -3.00698 0.0109177 0
M  V30 31715 C 2832.62 -3.12953 -0.054363 0
M  V30 31716 C 2833.09 -4.57725 0.158577 0
M  V30 31717 N 2834.58 -4.63081 0.104817 0
M  V30 31718 C 2835.32 -5.72879 0.244371 0
M  V30 31719 N 2834.81 -6.91398 0.440537 0
M  V30 31720 N 2836.61 -5.61801 0.183385 0
M  V30 31721 H 2828.76 -1.8394 1.06206 0
M  V30 31722 H 2831.02 -0.850453 0.418849 0
M  V30 31723 H 2830.73 -3.37152 1.00108 0
M  V30 31724 H 2830.6 -3.70314 -0.717447 0
M  V30 31725 H 2832.99 -2.76352 -1.03506 0
M  V30 31726 H 2833.07 -2.45864 0.70601 0
M  V30 31727 H 2832.71 -4.95026 1.13628 0
M  V30 31728 H 2832.64 -5.22915 -0.621878 0
M  V30 31729 H 2835.13 -3.77876 -0.0429634 0
M  V30 31730 H 2835.45 -7.70927 0.537672 0
M  V30 31731 H 2833.79 -6.93364 0.476609 0
M  V30 31732 H 2836.98 -4.6809 0.0310384 0
M  V30 31733 H 2837.16 -6.47325 0.295585 0
M  V30 31734 N 2830.56 0.146848 -1.56914 0
M  V30 31735 C 2831.51 1.1813 -1.98277 0
M  V30 31736 C 2832.48 1.4268 -0.850392 0
M  V30 31737 O 2833.66 1.55012 -1.11247 0
M  V30 31738 C 2830.8 2.50975 -2.36866 0
M  V30 31739 C 2829.92 2.33598 -3.63395 0
M  V30 31740 C 2829.05 3.59479 -3.91086 0
M  V30 31741 C 2828.09 3.3714 -5.10885 0
M  V30 31742 N 2827.23 4.55152 -5.34585 0
M  V30 31743 H 2832.07 0.821572 -2.86451 0
M  V30 31744 H 2829.6 0.394223 -1.41719 0
M  V30 31745 H 2831.56 3.28435 -2.57267 0
M  V30 31746 H 2830.19 2.84895 -1.51771 0
M  V30 31747 H 2829.24 1.47193 -3.50768 0
M  V30 31748 H 2830.56 2.13051 -4.51011 0
M  V30 31749 H 2829.71 4.45367 -4.11987 0
M  V30 31750 H 2828.45 3.83031 -3.01892 0
M  V30 31751 H 2827.45 2.4964 -4.89857 0
M  V30 31752 H 2828.68 3.14987 -6.01631 0
M  V30 31753 H 2826.63 4.78876 -4.48346 0
M  V30 31754 H 2826.54 4.37608 -6.1647 0
M  V30 31755 H 2827.81 5.42253 -5.59984 0
M  V30 31756 N 2832.04 1.52005 0.4162 0
M  V30 31757 C 2832.97 1.77797 1.51362 0
M  V30 31758 C 2833.95 0.628628 1.58058 0
M  V30 31759 O 2835.14 0.873509 1.73446 0
M  V30 31760 C 2832.27 1.92224 2.89253 0
M  V30 31761 C 2831.22 3.07785 2.9741 0
M  V30 31762 C 2830.55 3.07424 4.37486 0
M  V30 31763 C 2831.85 4.47374 2.69543 0
M  V30 31764 H 2833.54 2.69691 1.30028 0
M  V30 31765 H 2831.09 1.29773 0.624089 0
M  V30 31766 H 2833.04 2.08851 3.66004 0
M  V30 31767 H 2831.76 0.969972 3.11864 0
M  V30 31768 H 2830.42 2.90897 2.23102 0
M  V30 31769 H 2830.07 2.09933 4.57097 0
M  V30 31770 H 2829.77 3.85037 4.4387 0
M  V30 31771 H 2831.29 3.26171 5.16183 0
M  V30 31772 H 2832.71 4.64503 3.3602 0
M  V30 31773 H 2831.1 5.26851 2.87312 0
M  V30 31774 H 2832.17 4.55956 1.65021 0
M  V30 31775 N 2833.52 -0.672992 1.42508 0
M  V30 31776 C 2834.43 -1.8159 1.48533 0
M  V30 31777 C 2835.44 -1.69934 0.373937 0
M  V30 31778 O 2836.62 -1.91453 0.625112 0
M  V30 31779 C 2833.68 -3.17745 1.38705 0
M  V30 31780 C 2832.75 -3.41344 2.60352 0
M  V30 31781 C 2831.98 -4.71002 2.50983 0
M  V30 31782 O 2832.2 -5.4903 1.54669 0
M  V30 31783 O 2831.14 -4.95886 3.41147 0
M  V30 31784 H 2834.96 -1.79463 2.45004 0
M  V30 31785 H 2832.55 -0.828968 1.24292 0
M  V30 31786 H 2834.43 -3.98989 1.35593 0
M  V30 31787 H 2833.1 -3.20506 0.453612 0
M  V30 31788 H 2832.01 -2.5994 2.69039 0
M  V30 31789 H 2833.34 -3.43414 3.52601 0
M  V30 31790 N 2835 -1.2871 -0.909472 0
M  V30 31791 C 2836.27 -1.06809 -1.63863 0
M  V30 31792 C 2836.65 0.391107 -2.07445 0
M  V30 31793 O 2836 1.37802 -1.82271 0
M  V30 31794 C 2836.21 -2.04666 -2.82688 0
M  V30 31795 C 2837.56 -2.35048 -3.53606 0
M  V30 31796 O 2838.58 -2.02784 -2.92843 0
M  V30 31797 O 2837.44 -2.90132 -4.63126 0
M  V30 31798 H 2834.54 -0.408515 -0.719058 0
M  V30 31799 H 2837.08 -1.40046 -0.9584 0
M  V30 31800 H 2835.85 -3.02995 -2.47609 0
M  V30 31801 H 2835.48 -1.72101 -3.58423 0
M  V30 31802 N 2836.47 1.1185 -1.11028 0
M  V30 31803 C 2837.7 1.87847 -0.879097 0
M  V30 31804 C 2838.12 1.79402 0.565374 0
M  V30 31805 O 2837.48 1.15335 1.39884 0
M  V30 31806 C 2837.53 3.34782 -1.33991 0
M  V30 31807 O 2836.63 4.09248 -0.508875 0
M  V30 31808 H 2835.97 0.583443 -0.317003 0
M  V30 31809 H 2838.5 1.41411 -1.47866 0
M  V30 31810 H 2838.51 3.85626 -1.33255 0
M  V30 31811 H 2837.19 3.40245 -2.39178 0
M  V30 31812 H 2835.77 3.68331 -0.581978 0
M  V30 31813 N 2837.95 0.89995 1.29378 0
M  V30 31814 C 2839.18 0.541421 1.9969 0
M  V30 31815 C 2839.59 -0.873907 1.67357 0
M  V30 31816 O 2838.95 -1.57687 0.918756 0
M  V30 31817 C 2839 0.724442 3.54167 0
M  V30 31818 O 2838.72 2.08406 3.85355 0
M  V30 31819 C 2840.22 0.370896 4.41746 0
M  V30 31820 H 2837.44 0.207737 0.638033 0
M  V30 31821 H 2839.99 1.20937 1.64908 0
M  V30 31822 H 2838.14 0.103675 3.87261 0
M  V30 31823 H 2838.56 2.1136 4.80028 0
M  V30 31824 H 2840.03 0.54979 5.49255 0
M  V30 31825 H 2840.51 -0.692071 4.33713 0
M  V30 31826 H 2841.11 0.968615 4.14123 0
M  V30 31827 N 2839.43 -1.43001 0.662458 0
M  V30 31828 C 2840.85 -1.56133 0.330862 0
M  V30 31829 C 2841.05 -1.64443 -1.16451 0
M  V30 31830 O 2840.1 -1.60456 -1.94962 0
M  V30 31831 C 2841.42 -2.81759 1.05034 0
M  V30 31832 C 2842.96 -2.95516 1.03148 0
M  V30 31833 C 2843.44 -4.23987 1.73203 0
M  V30 31834 N 2844.93 -4.30872 1.70011 0
M  V30 31835 C 2845.66 -5.29065 2.21084 0
M  V30 31836 N 2845.16 -6.33483 2.80484 0
M  V30 31837 N 2846.95 -5.2078 2.1153 0
M  V30 31838 H 2839.1 -1.35851 1.63274 0
M  V30 31839 H 2841.37 -0.65308 0.687161 0
M  V30 31840 H 2841.07 -2.81714 2.10547 0
M  V30 31841 H 2840.95 -3.72272 0.60773 0
M  V30 31842 H 2843.33 -2.95096 -0.015282 0
M  V30 31843 H 2843.42 -2.06267 1.51286 0
M  V30 31844 H 2843.06 -4.25167 2.7784 0
M  V30 31845 H 2842.99 -5.12148 1.22524 0
M  V30 31846 H 2845.48 -3.56037 1.26673 0
M  V30 31847 H 2845.79 -7.04743 3.17107 0
M  V30 31848 H 2844.14 -6.3408 2.84549 0
M  V30 31849 H 2847.33 -4.38123 1.64821 0
M  V30 31850 H 2847.5 -5.97145 2.51639 0
M  V30 31851 N 2840.91 -0.404973 -1.52308 0
M  V30 31852 C 2841.82 0.429514 -2.30635 0
M  V30 31853 C 2842.83 1.05734 -1.38189 0
M  V30 31854 O 2844.01 1.05976 -1.71263 0
M  V30 31855 C 2841.08 1.53333 -3.1095 0
M  V30 31856 C 2840.14 0.928991 -4.19128 0
M  V30 31857 C 2839.37 1.98021 -4.95604 0
M  V30 31858 O 2839.59 3.19772 -4.72337 0
M  V30 31859 O 2838.53 1.58876 -5.80553 0
M  V30 31860 H 2842.35 -0.209016 -3.0298 0
M  V30 31861 H 2839.94 -0.168281 -1.48449 0
M  V30 31862 H 2841.82 2.17423 -3.60978 0
M  V30 31863 H 2840.49 2.15654 -2.41402 0
M  V30 31864 H 2839.4 0.250916 -3.73258 0
M  V30 31865 H 2840.73 0.349769 -4.90956 0
M  V30 31866 N 2842.39 1.57018 -0.135265 0
M  V30 31867 C 2843.61 2.00101 0.526031 0
M  V30 31868 C 2844.03 1.01522 1.59182 0
M  V30 31869 O 2843.39 0.0104579 1.82497 0
M  V30 31870 C 2843.44 3.43141 1.13738 0
M  V30 31871 O 2843.16 4.37951 0.114182 0
M  V30 31872 C 2844.66 4.01441 1.88043 0
M  V30 31873 H 2841.88 0.656666 0.137951 0
M  V30 31874 H 2844.42 2.03243 -0.226395 0
M  V30 31875 H 2842.58 3.40888 1.8405 0
M  V30 31876 H 2842.99 5.21497 0.560489 0
M  V30 31877 H 2844.47 5.03559 2.26125 0
M  V30 31878 H 2844.94 3.41492 2.76188 0
M  V30 31879 H 2845.55 4.07289 1.22457 0
M  V30 31880 N 2843.86 -0.138524 1.5699 0
M  V30 31881 C 2844.8 -1.19606 1.95517 0
M  V30 31882 C 2845.81 -1.38724 0.852026 0
M  V30 31883 O 2847 -1.38145 1.13041 0
M  V30 31884 C 2844.1 -2.55948 2.22134 0
M  V30 31885 C 2843.27 -2.57695 3.53429 0
M  V30 31886 C 2842.33 -3.75639 3.68486 0
M  V30 31887 O 2841.36 -3.60122 4.40796 0
M  V30 31888 N 2842.56 -4.93432 3.05785 0
M  V30 31889 H 2845.32 -0.868507 2.8684 0
M  V30 31890 H 2842.88 -0.328005 1.58543 0
M  V30 31891 H 2844.88 -3.33375 2.29441 0
M  V30 31892 H 2843.45 -2.80963 1.37035 0
M  V30 31893 H 2842.67 -1.66123 3.57487 0
M  V30 31894 H 2843.95 -2.55901 4.39763 0
M  V30 31895 H 2843.35 -5.08942 2.4697 0
M  V30 31896 H 2841.91 -5.68604 3.18641 0
M  V30 31897 N 2845.34 -1.52224 -0.408133 0
M  V30 31898 C 2846.57 -1.70474 -1.18124 0
M  V30 31899 C 2846.99 -0.413872 -1.8349 0
M  V30 31900 O 2846.35 0.628748 -1.70048 0
M  V30 31901 C 2846.4 -2.84217 -2.2193 0
M  V30 31902 O 2845.5 -2.49856 -3.28094 0
M  V30 31903 H 2844.84 -0.567476 -0.344771 0
M  V30 31904 H 2847.37 -1.98931 -0.478293 0
M  V30 31905 H 2847.38 -3.09158 -2.66243 0
M  V30 31906 H 2846.06 -3.77873 -1.73737 0
M  V30 31907 H 2844.64 -2.35589 -2.89054 0
M  V30 31908 N 2846.82 0.665425 -1.42863 0
M  V30 31909 C 2847.75 1.79096 -1.43029 0
M  V30 31910 C 2848.77 1.5946 -0.328058 0
M  V30 31911 O 2849.95 1.68406 -0.591738 0
M  V30 31912 C 2847.05 3.16344 -1.21571 0
M  V30 31913 C 2846.23 3.62746 -2.44405 0
M  V30 31914 C 2845.29 4.78758 -2.18352 0
M  V30 31915 O 2844.31 4.88821 -2.9162 0
M  V30 31916 N 2845.51 5.68119 -1.1925 0
M  V30 31917 H 2848.28 1.79435 -2.40048 0
M  V30 31918 H 2845.84 0.848847 -1.37863 0
M  V30 31919 H 2847.83 3.91624 -1.02044 0
M  V30 31920 H 2846.4 3.10849 -0.330423 0
M  V30 31921 H 2845.62 2.78043 -2.79438 0
M  V30 31922 H 2846.91 3.90493 -3.26179 0
M  V30 31923 H 2846.31 5.62649 -0.586702 0
M  V30 31924 H 2844.87 6.43171 -1.05709 0
M  V30 31925 N 2848.3 1.29191 0.902633 0
M  V30 31926 C 2849.23 1.1662 2.02292 0
M  V30 31927 C 2850.21 0.0611474 1.6999 0
M  V30 31928 O 2851.39 0.240106 1.9271 0
M  V30 31929 C 2848.52 0.838879 3.37016 0
M  V30 31930 C 2847.48 1.89993 3.83519 0
M  V30 31931 C 2846.8 1.42598 5.15335 0
M  V30 31932 C 2848.1 3.30832 4.04163 0
M  V30 31933 H 2849.8 2.10339 2.13067 0
M  V30 31934 H 2847.34 1.01268 1.02376 0
M  V30 31935 H 2849.3 0.737657 4.14893 0
M  V30 31936 H 2848.02 -0.134013 3.26325 0
M  V30 31937 H 2846.68 1.99048 3.07856 0
M  V30 31938 H 2846.33 0.441847 5.01056 0
M  V30 31939 H 2846.03 2.13556 5.47419 0
M  V30 31940 H 2847.55 1.3382 5.95755 0
M  V30 31941 H 2848.97 3.24634 4.72531 0
M  V30 31942 H 2847.36 3.99721 4.47597 0
M  V30 31943 H 2848.43 3.74026 3.08597 0
M  V30 31944 N 2849.78 -1.1126 1.1162 0
M  V30 31945 C 2850.69 -2.20934 0.789019 0
M  V30 31946 C 2851.7 -1.72621 -0.21864 0
M  V30 31947 O 2852.88 -2.01327 -0.0543472 0
M  V30 31948 C 2849.94 -3.45875 0.239075 0
M  V30 31949 C 2849 -4.08966 1.30558 0
M  V30 31950 C 2848.24 -5.27943 0.78178 0
M  V30 31951 O 2848.46 -5.69082 -0.387505 0
M  V30 31952 O 2847.39 -5.81668 1.54744 0
M  V30 31953 H 2851.22 -2.51336 1.70481 0
M  V30 31954 H 2848.81 -1.19832 0.892224 0
M  V30 31955 H 2850.69 -4.21353 -0.0631571 0
M  V30 31956 H 2849.36 -3.17119 -0.649398 0
M  V30 31957 H 2848.27 -3.35211 1.66085 0
M  V30 31958 H 2849.6 -4.41905 2.16751 0
M  V30 31959 N 2851.25 -0.906798 -1.28899 0
M  V30 31960 C 2852.48 -0.552004 -1.994 0
M  V30 31961 C 2852.9 0.865019 -1.67818 0
M  V30 31962 O 2852.25 1.57197 -0.927105 0
M  V30 31963 C 2852.31 -0.743214 -3.53778 0
M  V30 31964 O 2852.03 -2.10447 -3.84244 0
M  V30 31965 C 2853.53 -0.394318 -4.41543 0
M  V30 31966 H 2850.75 -0.211118 -0.636923 0
M  V30 31967 H 2853.29 -1.21809 -1.64264 0
M  V30 31968 H 2851.45 -0.124211 -3.87201 0
M  V30 31969 H 2851.86 -2.13903 -4.78901 0
M  V30 31970 H 2853.33 -0.578911 -5.48956 0
M  V30 31971 H 2853.81 0.669061 -4.34074 0
M  V30 31972 H 2854.42 -0.990564 -4.13604 0
M  V30 31973 N 2852.73 1.42648 -0.670032 0
M  V30 31974 C 2853.64 2.34597 0.0114375 0
M  V30 31975 C 2854.66 1.54826 0.794028 0
M  V30 31976 O 2855.83 1.87413 0.737439 0
M  V30 31977 C 2852.9 3.33305 0.954377 0
M  V30 31978 C 2851.96 4.28976 0.16685 0
M  V30 31979 C 2851.19 5.22969 1.06488 0
M  V30 31980 O 2851.42 5.21781 2.30436 0
M  V30 31981 O 2850.35 5.99578 0.528241 0
M  V30 31982 H 2854.18 2.94399 -0.745846 0
M  V30 31983 H 2851.76 1.43071 -0.430253 0
M  V30 31984 H 2853.64 3.93958 1.49582 0
M  V30 31985 H 2852.32 2.75983 1.69159 0
M  V30 31986 H 2851.23 3.71751 -0.41858 0
M  V30 31987 H 2852.56 4.89326 -0.531153 0
M  V30 31988 N 2854.21 0.413044 1.52091 0
M  V30 31989 C 2855.63 0.0641116 1.59471 0
M  V30 31990 C 2855.83 -1.42399 1.42565 0
M  V30 31991 O 2854.88 -2.19127 1.25457 0
M  V30 31992 C 2856.2 0.562526 2.95391 0
M  V30 31993 C 2857.74 0.520842 3.08636 0
M  V30 31994 C 2858.22 0.995831 4.47043 0
M  V30 31995 N 2859.71 0.952812 4.53294 0
M  V30 31996 C 2860.45 1.29148 5.58667 0
M  V30 31997 N 2859.94 1.7018 6.71573 0
M  V30 31998 N 2861.73 1.2112 5.48896 0
M  V30 31999 H 2853.89 1.38156 1.61328 0
M  V30 32000 H 2856.15 0.567798 0.75915 0
M  V30 32001 H 2855.85 1.60277 3.13056 0
M  V30 32002 H 2855.73 -0.0257212 3.77191 0
M  V30 32003 H 2858.12 -0.510361 2.90653 0
M  V30 32004 H 2858.2 1.14519 2.28733 0
M  V30 32005 H 2857.84 2.02538 4.65769 0
M  V30 32006 H 2857.77 0.348255 5.25447 0
M  V30 32007 H 2860.26 0.651184 3.72247 0
M  V30 32008 H 2860.57 1.94323 7.4797 0
M  V30 32009 H 2858.92 1.74087 6.72844 0
M  V30 32010 H 2862.11 0.889477 4.59571 0
M  V30 32011 H 2862.28 1.47844 6.30909 0
M  V30 32012 N 2855.69 -1.56945 0.143591 0
M  V30 32013 C 2856.91 -2.0081 -0.518666 0
M  V30 32014 C 2857.34 -1.02301 -1.57849 0
M  V30 32015 O 2856.7 0.00175203 -1.813 0
M  V30 32016 C 2856.75 -3.43438 -1.09923 0
M  V30 32017 O 2855.85 -3.47919 -2.21419 0
M  V30 32018 H 2855.19 -0.651702 -0.127203 0
M  V30 32019 H 2857.72 -2.03196 0.239318 0
M  V30 32020 H 2857.73 -3.82167 -1.42873 0
M  V30 32021 H 2856.41 -4.14643 -0.323089 0
M  V30 32022 H 2854.98 -3.21029 -1.89723 0
M  V30 32023 N 2857.17 0.130197 -1.57061 0
M  V30 32024 C 2858.58 0.483386 -1.52104 0
M  V30 32025 C 2858.78 1.82471 -0.854784 0
M  V30 32026 O 2857.84 2.4877 -0.432386 0
M  V30 32027 C 2859.15 0.478198 -2.96873 0
M  V30 32028 C 2860.7 0.562538 -3.07903 0
M  V30 32029 C 2861.18 0.587849 -4.54212 0
M  V30 32030 N 2862.67 0.649603 -4.58622 0
M  V30 32031 C 2863.4 0.690451 -5.69228 0
M  V30 32032 N 2862.9 0.689622 -6.89359 0
M  V30 32033 N 2864.69 0.73261 -5.57305 0
M  V30 32034 H 2856.84 -0.748814 -1.98763 0
M  V30 32035 H 2859.1 -0.274981 -0.907243 0
M  V30 32036 H 2858.81 -0.439506 -3.48943 0
M  V30 32037 H 2858.68 1.31007 -3.53719 0
M  V30 32038 H 2861.07 1.47066 -2.55843 0
M  V30 32039 H 2861.15 -0.296809 -2.54072 0
M  V30 32040 H 2860.8 -0.316185 -5.06915 0
M  V30 32041 H 2860.73 1.46392 -5.05843 0
M  V30 32042 H 2863.22 0.656862 -3.72147 0
M  V30 32043 H 2863.53 0.723104 -7.6941 0
M  V30 32044 H 2861.88 0.657226 -6.91885 0
M  V30 32045 H 2865.07 0.730544 -4.62364 0
M  V30 32046 H 2865.24 0.760977 -6.43516 0
M  V30 32047 N 2858.65 1.52438 0.400055 0
M  V30 32048 C 2859.88 1.70555 1.16595 0
M  V30 32049 C 2860.28 0.418698 1.84509 0
M  V30 32050 O 2859.63 -0.615825 1.7307 0
M  V30 32051 C 2859.69 2.79164 2.26512 0
M  V30 32052 C 2859.35 4.20631 1.78658 0
M  V30 32053 C 2860.35 5.04166 1.26937 0
M  V30 32054 C 2858.03 4.66905 1.85217 0
M  V30 32055 C 2860.03 6.3205 0.824076 0
M  V30 32056 C 2857.72 5.94777 1.40299 0
M  V30 32057 C 2858.71 6.77179 0.889803 0
M  V30 32058 O 2858.4 8.02656 0.44714 0
M  V30 32059 H 2858.13 0.574657 0.356013 0
M  V30 32060 H 2860.69 1.99819 0.475562 0
M  V30 32061 H 2858.92 2.45297 2.98942 0
M  V30 32062 H 2860.61 2.85792 2.88232 0
M  V30 32063 H 2861.37 4.69603 1.21236 0
M  V30 32064 H 2857.25 4.02863 2.24104 0
M  V30 32065 H 2860.8 6.96317 0.422835 0
M  V30 32066 H 2856.69 6.28846 1.45682 0
M  V30 32067 H 2857.46 8.16515 0.569625 0
M  V30 32068 N 2860.12 -0.657839 1.43214 0
M  V30 32069 C 2861.06 -1.78335 1.43977 0
M  V30 32070 C 2862.07 -1.59284 0.33651 0
M  V30 32071 O 2863.26 -1.6809 0.600661 0
M  V30 32072 C 2860.36 -3.15695 1.23247 0
M  V30 32073 C 2859.53 -3.61445 2.46325 0
M  V30 32074 C 2858.59 -4.77593 2.20888 0
M  V30 32075 O 2857.62 -4.87268 2.94208 0
M  V30 32076 N 2858.82 -5.67479 1.22261 0
M  V30 32077 H 2861.58 -1.7816 2.40996 0
M  V30 32078 H 2859.14 -0.841524 1.38311 0
M  V30 32079 H 2861.14 -3.91077 1.0412 0
M  V30 32080 H 2859.71 -3.10669 0.346903 0
M  V30 32081 H 2858.93 -2.76558 2.80908 0
M  V30 32082 H 2860.21 -3.88757 3.28246 0
M  V30 32083 H 2859.61 -5.6233 0.616532 0
M  V30 32084 H 2858.17 -6.42601 1.09118 0
M  V30 32085 N 2861.6 -1.29668 -0.895769 0
M  V30 32086 C 2863.02 -1.07765 -1.17724 0
M  V30 32087 C 2863.22 0.168541 -2.00794 0
M  V30 32088 O 2862.27 0.865203 -2.37214 0
M  V30 32089 C 2863.59 -2.33525 -1.89437 0
M  V30 32090 C 2865.13 -2.38883 -2.02247 0
M  V30 32091 C 2865.61 -3.64457 -2.77371 0
M  V30 32092 N 2867.1 -3.65203 -2.84923 0
M  V30 32093 C 2867.84 -4.59051 -3.43598 0
M  V30 32094 N 2867.33 -5.63235 -4.03408 0
M  V30 32095 N 2869.12 -4.46614 -3.4131 0
M  V30 32096 H 2861.28 -2.09635 -0.341615 0
M  V30 32097 H 2863.54 -0.923565 -0.213849 0
M  V30 32098 H 2863.24 -3.24409 -1.35836 0
M  V30 32099 H 2863.12 -2.41339 -2.89889 0
M  V30 32100 H 2865.51 -1.48484 -2.55022 0
M  V30 32101 H 2865.59 -2.35052 -1.00916 0
M  V30 32102 H 2865.23 -4.55209 -2.25271 0
M  V30 32103 H 2865.16 -3.65547 -3.79055 0
M  V30 32104 H 2867.65 -2.89875 -2.42448 0
M  V30 32105 H 2867.96 -6.30963 -4.46213 0
M  V30 32106 H 2866.31 -5.6704 -4.01858 0
M  V30 32107 H 2869.5 -3.64412 -2.93805 0
M  V30 32108 H 2869.67 -5.19937 -3.86742 0
M  V30 32109 N 2863.08 1.10667 -1.12208 0
M  V30 32110 C 2863.99 2.20512 -0.800724 0
M  V30 32111 C 2865.01 1.72734 0.209482 0
M  V30 32112 O 2866.18 2.01353 0.0436696 0
M  V30 32113 C 2863.25 3.45743 -0.257414 0
M  V30 32114 C 2862.31 4.08268 -1.32725 0
M  V30 32115 C 2861.54 5.27521 -0.809767 0
M  V30 32116 O 2861.76 5.6928 0.35732 0
M  V30 32117 O 2860.7 5.80839 -1.57826 0
M  V30 32118 H 2864.52 2.50429 -1.71811 0
M  V30 32119 H 2862.11 1.19357 -0.898567 0
M  V30 32120 H 2863.99 4.2138 0.0408108 0
M  V30 32121 H 2862.67 3.17459 0.632572 0
M  V30 32122 H 2861.57 3.34326 -1.6786 0
M  V30 32123 H 2862.91 4.40749 -2.19091 0
M  V30 32124 N 2864.56 0.913621 1.28416 0
M  V30 32125 C 2865.81 0.542606 1.94264 0
M  V30 32126 C 2866.12 -0.918176 1.7271 0
M  V30 32127 O 2867.33 -1.39734 2.3278 0
M  V30 32128 C 2865.78 0.919568 3.47954 0
M  V30 32129 C 2865.39 2.40007 3.78287 0
M  V30 32130 C 2867.13 0.619131 4.19961 0
M  V30 32131 C 2865.04 2.71716 5.25285 0
M  V30 32132 H 2863.97 0.199205 0.727209 0
M  V30 32133 H 2866.62 1.11252 1.45929 0
M  V30 32134 H 2865 0.278442 3.9502 0
M  V30 32135 H 2866.18 3.08792 3.4203 0
M  V30 32136 H 2864.49 2.67095 3.19452 0
M  V30 32137 H 2867.09 0.832716 5.28176 0
M  V30 32138 H 2867.43 -0.443053 4.13936 0
M  V30 32139 H 2867.97 1.21872 3.78671 0
M  V30 32140 H 2864.7 3.76788 5.36387 0
M  V30 32141 H 2864.22 2.07569 5.62739 0
M  V30 32142 H 2865.9 2.58714 5.93023 0
M  V30 32143 N 2866.04 -1.4229 0.677588 0
M  V30 32144 C 2867.31 -1.95169 0.129837 0
M  V30 32145 C 2867.69 -1.61788 -1.35602 0
M  V30 32146 O 2867.04 -0.915481 -2.09359 0
M  V30 32147 C 2867.25 -3.46678 0.401949 0
M  V30 32148 C 2868.6 -4.23393 0.319963 0
M  V30 32149 O 2869.62 -3.54613 0.335853 0
M  V30 32150 O 2868.48 -5.45859 0.264555 0
M  V30 32151 H 2865.58 -0.826988 0.00448886 0
M  V30 32152 H 2868.12 -1.52103 0.75251 0
M  V30 32153 H 2866.89 -3.6419 1.43114 0
M  V30 32154 H 2866.52 -3.96797 -0.252592 0
M  V30 32155 N 2867.51 -0.421104 -1.5187 0
M  V30 32156 C 2868.46 0.398468 -2.27334 0
M  V30 32157 C 2869.43 1.03083 -1.30243 0
M  V30 32158 O 2870.62 1.05283 -1.59123 0
M  V30 32159 C 2867.76 1.50267 -3.10667 0
M  V30 32160 C 2866.87 0.890048 -4.22732 0
M  V30 32161 C 2866 1.96794 -4.93402 0
M  V30 32162 C 2865.04 1.33289 -5.97411 0
M  V30 32163 N 2864.18 2.35144 -6.61552 0
M  V30 32164 H 2869.02 -0.251464 -2.96937 0
M  V30 32165 H 2866.56 -0.13585 -1.46471 0
M  V30 32166 H 2868.51 2.15397 -3.57295 0
M  V30 32167 H 2867.14 2.12246 -2.43211 0
M  V30 32168 H 2866.2 0.12747 -3.80186 0
M  V30 32169 H 2867.51 0.386262 -4.97302 0
M  V30 32170 H 2866.66 2.69624 -5.43496 0
M  V30 32171 H 2865.4 2.50542 -4.18426 0
M  V30 32172 H 2864.41 0.589983 -5.46625 0
M  V30 32173 H 2865.63 0.802958 -6.74336 0
M  V30 32174 H 2863.58 2.88002 -5.89399 0
M  V30 32175 H 2863.49 1.89612 -7.31836 0
M  V30 32176 H 2864.76 3.07507 -7.16282 0
M  V30 32177 N 2868.99 1.56866 -0.151912 0
M  V30 32178 C 2869.92 2.20019 0.781904 0
M  V30 32179 C 2870.9 1.1499 1.25345 0
M  V30 32180 O 2872.09 1.4335 1.31013 0
M  V30 32181 C 2869.22 2.82567 2.01923 0
M  V30 32182 C 2868.17 3.93467 1.68427 0
M  V30 32183 C 2867.5 4.42973 2.99465 0
M  V30 32184 C 2868.8 5.14005 0.927154 0
M  V30 32185 H 2870.49 2.98307 0.255554 0
M  V30 32186 H 2868.04 1.43487 0.121477 0
M  V30 32187 H 2869.99 3.25416 2.67736 0
M  V30 32188 H 2868.72 2.01618 2.56939 0
M  V30 32189 H 2867.37 3.51244 1.04991 0
M  V30 32190 H 2867.02 3.5884 3.52481 0
M  V30 32191 H 2866.72 5.17777 2.77814 0
M  V30 32192 H 2868.25 4.88495 3.6634 0
M  V30 32193 H 2869.66 5.53667 1.48746 0
M  V30 32194 H 2868.06 5.94603 0.810408 0
M  V30 32195 H 2869.13 4.84834 -0.0802016 0
M  V30 32196 N 2870.47 -0.121866 1.57128 0
M  V30 32197 C 2871.89 -0.475313 1.52358 0
M  V30 32198 C 2872.09 -1.82015 0.864449 0
M  V30 32199 O 2871.14 -2.48538 0.445572 0
M  V30 32200 C 2872.46 -0.462448 2.97123 0
M  V30 32201 C 2874 -0.546201 3.08197 0
M  V30 32202 C 2874.48 -0.563753 4.54517 0
M  V30 32203 N 2875.97 -0.625272 4.5896 0
M  V30 32204 C 2876.7 -0.660254 5.69586 0
M  V30 32205 N 2876.2 -0.653054 6.89715 0
M  V30 32206 N 2877.99 -0.703045 5.57686 0
M  V30 32207 H 2870.14 0.759344 1.98363 0
M  V30 32208 H 2872.41 0.279788 0.905772 0
M  V30 32209 H 2872.11 0.458005 3.48705 0
M  V30 32210 H 2871.99 -1.2913 3.54409 0
M  V30 32211 H 2874.37 -1.45707 2.56619 0
M  V30 32212 H 2874.46 0.310279 2.53911 0
M  V30 32213 H 2874.1 0.343063 5.0674 0
M  V30 32214 H 2874.03 -1.43708 5.06612 0
M  V30 32215 H 2876.52 -0.637117 3.72491 0
M  V30 32216 H 2876.83 -0.68229 7.69782 0
M  V30 32217 H 2875.18 -0.620524 6.92224 0
M  V30 32218 H 2878.37 -0.706013 4.62745 0
M  V30 32219 H 2878.54 -0.726839 6.43911 0
M  V30 32220 N 2871.95 -1.52648 -0.391965 0
M  V30 32221 C 2872.88 -1.73465 -1.49808 0
M  V30 32222 C 2873.89 -0.615104 -1.50733 0
M  V30 32223 O 2875.08 -0.890723 -1.54688 0
M  V30 32224 C 2872.18 -1.77557 -2.88663 0
M  V30 32225 C 2871.36 -3.0682 -3.11737 0
M  V30 32226 C 2870.41 -3.02498 -4.30559 0
M  V30 32227 O 2869.44 -3.76369 -4.27007 0
M  V30 32228 N 2870.64 -2.21477 -5.36589 0
M  V30 32229 H 2873.41 -2.68899 -1.32338 0
M  V30 32230 H 2870.97 -1.51099 -0.581448 0
M  V30 32231 H 2872.96 -1.72176 -3.66248 0
M  V30 32232 H 2871.53 -0.895233 -2.99507 0
M  V30 32233 H 2870.75 -3.25715 -2.22044 0
M  V30 32234 H 2872.04 -3.92298 -3.24006 0
M  V30 32235 H 2871.44 -1.60923 -5.42329 0
M  V30 32236 H 2869.99 -2.21938 -6.12851 0
M  V30 32237 N 2873.43 0.650235 -1.43561 0
M  V30 32238 C 2874.84 0.966246 -1.27027 0
M  V30 32239 C 2875.04 2.00582 -0.192152 0
M  V30 32240 O 2874.1 2.48839 0.428415 0
M  V30 32241 C 2875.41 1.44767 -2.63558 0
M  V30 32242 C 2876.96 1.56416 -2.71114 0
M  V30 32243 C 2877.43 2.07949 -4.0807 0
M  V30 32244 N 2878.93 2.15247 -4.1015 0
M  V30 32245 C 2879.66 2.56249 -5.12956 0
M  V30 32246 N 2879.16 2.96526 -6.26134 0
M  V30 32247 N 2880.95 2.56215 -5.0031 0
M  V30 32248 H 2873.1 -0.0376131 -2.12367 0
M  V30 32249 H 2875.36 0.0457616 -0.946895 0
M  V30 32250 H 2875.07 0.758211 -3.4343 0
M  V30 32251 H 2874.94 2.42216 -2.89156 0
M  V30 32252 H 2877.33 2.24463 -1.91573 0
M  V30 32253 H 2877.41 0.573923 -2.49278 0
M  V30 32254 H 2877.06 1.40503 -4.88079 0
M  V30 32255 H 2876.99 3.07809 -4.27272 0
M  V30 32256 H 2879.48 1.86882 -3.28456 0
M  V30 32257 H 2879.79 3.2657 -7.00408 0
M  V30 32258 H 2878.13 2.94323 -6.29602 0
M  V30 32259 H 2881.33 2.24128 -4.10956 0
M  V30 32260 H 2881.5 2.87847 -5.80558 0
M  V30 32261 N 2874.9 1.30141 0.88888 0
M  V30 32262 C 2876.32 1.16896 1.45576 0
M  V30 32263 C 2876.67 -0.231832 1.94826 0
M  V30 32264 O 2875.79 -1.12821 1.84663 0
M  V30 32265 C 2876.39 2.11599 2.64596 0
M  V30 32266 C 2874.95 2.02344 3.17386 0
M  V30 32267 C 2874.09 2.01905 1.90078 0
M  V30 32268 H 2877.04 1.42468 0.699185 0
M  V30 32269 H 2877.06 1.69455 3.40684 0
M  V30 32270 H 2876.58 3.13542 2.2872 0
M  V30 32271 H 2874.68 1.03529 3.57928 0
M  V30 32272 H 2874.79 2.9054 3.8095 0
M  V30 32273 H 2873.15 1.46652 2.08243 0
M  V30 32274 H 2873.94 3.05571 1.56465 0
M  V30 32275 N 2876.38 -1.1007 1.12794 0
M  V30 32276 C 2877.61 -1.85615 0.907221 0
M  V30 32277 C 2878.02 -1.81116 -0.547149 0
M  V30 32278 O 2877.36 -1.20078 -1.39022 0
M  V30 32279 C 2877.43 -3.3483 1.30878 0
M  V30 32280 C 2877.09 -3.63085 2.77522 0
M  V30 32281 C 2878.09 -3.59366 3.75702 0
M  V30 32282 C 2875.77 -3.91641 3.1452 0
M  V30 32283 C 2877.77 -3.83804 5.08895 0
M  V30 32284 C 2875.45 -4.15734 4.47893 0
M  V30 32285 C 2876.45 -4.11806 5.4489 0
M  V30 32286 O 2876.14 -4.35283 6.75858 0
M  V30 32287 H 2875.87 -0.593369 0.323865 0
M  V30 32288 H 2878.42 -1.40035 1.50264 0
M  V30 32289 H 2876.65 -3.81085 0.656585 0
M  V30 32290 H 2878.34 -3.91772 1.0616 0
M  V30 32291 H 2879.11 -3.37339 3.48464 0
M  V30 32292 H 2874.99 -3.93826 2.39628 0
M  V30 32293 H 2878.53 -3.80653 5.84593 0
M  V30 32294 H 2874.43 -4.37241 4.74859 0
M  V30 32295 H 2875.2 -4.52779 6.81861 0
M  V30 32296 N 2877.86 -0.920419 -1.2793 0
M  V30 32297 C 2879.11 -0.55594 -1.94303 0
M  V30 32298 C 2879.43 0.904489 -1.72754 0
M  V30 32299 O 2878.7 1.64027 -1.07107 0
M  V30 32300 H 2877.28 -0.202612 -0.718998 0
M  V30 32301 H 2879.94 -1.17123 -1.55783 0
M  V30 32302 H 2879.04 -0.756034 -3.02804 0
M  V30 32303 N 2879.34 1.41929 -0.685124 0
M  V30 32304 C 2880.56 2.06242 -0.218878 0
M  V30 32305 C 2880.99 1.5118 1.1192 0
M  V30 32306 O 2880.35 0.634476 1.69835 0
M  V30 32307 C 2880.39 3.60172 -0.175655 0
M  V30 32308 O 2879.5 4.03488 0.852705 0
M  V30 32309 H 2878.84 0.654902 -0.109542 0
M  V30 32310 H 2881.37 1.81881 -0.937045 0
M  V30 32311 H 2881.38 4.08 -0.00298323 0
M  V30 32312 H 2880.05 3.99619 -1.15229 0
M  V30 32313 H 2878.63 3.67187 0.650236 0
M  V30 32314 N 2880.82 0.429152 1.51644 0
M  V30 32315 C 2881.77 -0.404177 2.24389 0
M  V30 32316 C 2882.75 -0.996911 1.26295 0
M  V30 32317 O 2883.94 -0.916408 1.5143 0
M  V30 32318 C 2881.07 -1.50933 3.08341 0
M  V30 32319 C 2880.16 -0.926391 4.13858 0
M  V30 32320 N 2880.55 -0.0718844 5.05749 0
M  V30 32321 C 2878.85 -1.19483 4.29697 0
M  V30 32322 C 2879.55 0.254631 5.81142 0
M  V30 32323 N 2878.52 -0.359668 5.42409 0
M  V30 32324 H 2882.33 0.254748 2.92794 0
M  V30 32325 H 2879.84 0.24074 1.60606 0
M  V30 32326 H 2881.84 -2.11911 3.59025 0
M  V30 32327 H 2880.5 -2.17067 2.41478 0
M  V30 32328 H 2881.51 0.293944 5.17065 0
M  V30 32329 H 2878.18 -1.85428 3.74063 0
M  V30 32330 H 2879.57 0.949481 6.65157 0
M  V30 32331 N 2882.29 -1.56783 0.160229 0
M  V30 32332 C 2883.71 -1.58391 -0.196061 0
M  V30 32333 C 2883.91 -1.17511 -1.63687 0
M  V30 32334 O 2882.97 -0.881548 -2.36611 0
M  V30 32335 C 2884.28 -3.00607 0.0746977 0
M  V30 32336 C 2885.83 -3.12998 0.0120312 0
M  V30 32337 C 2886.3 -4.57286 0.255632 0
M  V30 32338 N 2887.79 -4.62755 0.20302 0
M  V30 32339 C 2888.53 -5.72232 0.365832 0
M  V30 32340 N 2888.02 -6.90308 0.587093 0
M  V30 32341 N 2889.82 -5.61285 0.30251 0
M  V30 32342 H 2881.97 -1.81646 1.10084 0
M  V30 32343 H 2884.23 -0.841377 0.436794 0
M  V30 32344 H 2883.94 -3.34952 1.07237 0
M  V30 32345 H 2883.81 -3.71753 -0.638736 0
M  V30 32346 H 2886.2 -2.78486 -0.976205 0
M  V30 32347 H 2886.28 -2.44311 0.758003 0
M  V30 32348 H 2885.92 -4.92505 1.24103 0
M  V30 32349 H 2885.85 -5.24117 -0.51082 0
M  V30 32350 H 2888.34 -3.77882 0.0371993 0
M  V30 32351 H 2888.66 -7.69613 0.701076 0
M  V30 32352 H 2887 -6.92197 0.623575 0
M  V30 32353 H 2890.19 -4.67919 0.13032 0
M  V30 32354 H 2890.37 -6.46553 0.432826 0
M  V30 32355 N 2883.77 0.113531 -1.57191 0
M  V30 32356 C 2884.68 1.15773 -2.04043 0
M  V30 32357 C 2885.7 1.44999 -0.961837 0
M  V30 32358 O 2886.88 1.56007 -1.27373 0
M  V30 32359 C 2883.94 2.46304 -2.43999 0
M  V30 32360 C 2883 2.24426 -3.65966 0
M  V30 32361 C 2882.23 3.48733 -4.04006 0
M  V30 32362 O 2882.46 4.56253 -3.42329 0
M  V30 32363 O 2881.39 3.39411 -4.97075 0
M  V30 32364 H 2885.22 0.789848 -2.93249 0
M  V30 32365 H 2882.8 0.324722 -1.45828 0
M  V30 32366 H 2884.68 3.232 -2.70407 0
M  V30 32367 H 2883.36 2.82555 -1.57937 0
M  V30 32368 H 2882.27 1.45371 -3.447 0
M  V30 32369 H 2883.6 1.93076 -4.5275 0
M  V30 32370 N 2885.25 1.52854 0.383864 0
M  V30 32371 C 2886.48 1.72032 1.14947 0
M  V30 32372 C 2886.89 0.44099 1.83578 0
M  V30 32373 O 2886.25 -0.584895 1.72873 0
M  V30 32374 C 2886.3 2.87337 2.19363 0
M  V30 32375 O 2886.02 4.10318 1.53529 0
M  V30 32376 C 2887.52 3.18236 3.08611 0
M  V30 32377 H 2884.74 0.575852 0.344435 0
M  V30 32378 H 2887.29 1.99524 0.448362 0
M  V30 32379 H 2885.44 2.62291 2.851 0
M  V30 32380 H 2885.86 4.74756 2.22951 0
M  V30 32381 H 2887.33 4.02368 3.77895 0
M  V30 32382 H 2887.81 2.32833 3.72405 0
M  V30 32383 H 2888.41 3.4514 2.48512 0
M  V30 32384 N 2886.73 -0.642612 1.43904 0
M  V30 32385 C 2887.66 -1.76797 1.45861 0
M  V30 32386 C 2888.67 -1.58918 0.353386 0
M  V30 32387 O 2889.86 -1.67444 0.618455 0
M  V30 32388 C 2886.96 -3.1437 1.26589 0
M  V30 32389 C 2886.14 -3.58812 2.50145 0
M  V30 32390 C 2885.2 -4.75223 2.25941 0
M  V30 32391 O 2884.22 -4.8412 2.9936 0
M  V30 32392 N 2885.42 -5.6615 1.28273 0
M  V30 32393 H 2888.19 -1.75593 2.42872 0
M  V30 32394 H 2885.75 -0.826807 1.39196 0
M  V30 32395 H 2887.74 -3.89951 1.08262 0
M  V30 32396 H 2886.31 -3.10284 0.379834 0
M  V30 32397 H 2885.53 -2.73563 2.83826 0
M  V30 32398 H 2886.82 -3.85254 3.32351 0
M  V30 32399 H 2886.22 -5.61645 0.67614 0
M  V30 32400 H 2884.77 -6.41408 1.15928 0
M  V30 32401 N 2888.21 -1.30611 -0.881966 0
M  V30 32402 C 2889.44 -1.22539 -1.66708 0
M  V30 32403 C 2889.85 0.211267 -1.87614 0
M  V30 32404 O 2889.21 1.1392 -1.42578 0
M  V30 32405 C 2889.26 -1.9534 -3.04178 0
M  V30 32406 O 2888.98 -3.33398 -2.84214 0
M  V30 32407 C 2890.48 -1.93963 -3.98614 0
M  V30 32408 H 2887.7 -0.423934 -0.520116 0
M  V30 32409 H 2890.24 -1.72287 -1.10171 0
M  V30 32410 H 2888.4 -1.49384 -3.5744 0
M  V30 32411 H 2888.81 -3.70309 -3.71446 0
M  V30 32412 H 2890.29 -2.49435 -4.92429 0
M  V30 32413 H 2890.76 -0.919273 -4.29472 0
M  V30 32414 H 2891.37 -2.39744 -3.51287 0
M  V30 32415 N 2889.69 1.0947 -1.13376 0
M  V30 32416 C 2890.6 2.1965 -0.824068 0
M  V30 32417 C 2891.61 1.72947 0.191149 0
M  V30 32418 O 2892.79 2.01388 0.022311 0
M  V30 32419 C 2889.85 3.45451 -0.29407 0
M  V30 32420 C 2888.91 4.06837 -1.37047 0
M  V30 32421 C 2888.15 5.26633 -0.865672 0
M  V30 32422 O 2888.37 5.69627 0.29692 0
M  V30 32423 O 2887.3 5.79133 -1.63978 0
M  V30 32424 H 2891.13 2.48592 -1.74458 0
M  V30 32425 H 2888.71 1.18397 -0.911176 0
M  V30 32426 H 2890.6 4.214 -0.00388446 0
M  V30 32427 H 2889.27 3.18112 0.598865 0
M  V30 32428 H 2888.18 3.32527 -1.71397 0
M  V30 32429 H 2889.51 4.38401 -2.23754 0
M  V30 32430 N 2891.16 0.92719 1.2744 0
M  V30 32431 C 2892.4 0.574643 1.96156 0
M  V30 32432 C 2892.77 -0.867867 1.71266 0
M  V30 32433 O 2893.97 -1.32866 2.33667 0
M  V30 32434 C 2892.24 0.89107 3.46114 0
M  V30 32435 S 2893.8 0.646961 4.34004 0
M  V30 32436 H 2890.62 0.212137 0.678615 0
M  V30 32437 H 2893.22 1.19552 1.54686 0
M  V30 32438 H 2891.92 1.93861 3.61727 0
M  V30 32439 H 2891.45 0.25937 3.92544 0
M  V30 32440 H 2893.47 -0.495481 4.9372 0
M  V30 32441 N 2892.64 -1.41564 0.692641 0
M  V30 32442 C 2893.55 -2.34586 0.0258863 0
M  V30 32443 C 2894.57 -1.5607 -0.769296 0
M  V30 32444 O 2895.74 -1.88563 -0.70753 0
M  V30 32445 C 2892.81 -3.34782 -0.90123 0
M  V30 32446 C 2891.87 -4.29187 -0.0985824 0
M  V30 32447 C 2891.1 -5.24596 -0.981542 0
M  V30 32448 O 2891.33 -5.25381 -2.22106 0
M  V30 32449 O 2890.26 -6.00342 -0.432787 0
M  V30 32450 H 2894.09 -2.93175 0.792588 0
M  V30 32451 H 2891.67 -1.42368 0.45296 0
M  V30 32452 H 2893.55 -3.96288 -1.43295 0
M  V30 32453 H 2892.23 -2.7864 -1.64747 0
M  V30 32454 H 2891.13 -3.71038 0.477669 0
M  V30 32455 H 2892.47 -4.88419 0.608933 0
M  V30 32456 N 2894.12 -0.437188 -1.51415 0
M  V30 32457 C 2895.37 0.121782 -2.03035 0
M  V30 32458 C 2895.72 1.40398 -1.31553 0
M  V30 32459 O 2895.01 1.86903 -0.421656 0
M  V30 32460 C 2895.21 0.395577 -3.55204 0
M  V30 32461 C 2895.04 -0.85853 -4.41429 0
M  V30 32462 C 2893.81 -1.39201 -4.85748 0
M  V30 32463 C 2896 -1.74462 -4.83805 0
M  V30 32464 N 2893.99 -2.59867 -5.56185 0
M  V30 32465 C 2895.36 -2.79734 -5.53307 0
M  V30 32466 C 2897.41 -1.75906 -4.65791 0
M  V30 32467 C 2896.12 -3.86394 -6.06706 0
M  V30 32468 C 2898.14 -2.81501 -5.20107 0
M  V30 32469 C 2897.5 -3.85492 -5.89555 0
M  V30 32470 H 2893.6 0.00540297 -0.781981 0
M  V30 32471 H 2896.19 -0.597825 -1.85295 0
M  V30 32472 H 2894.36 1.08422 -3.7296 0
M  V30 32473 H 2896.09 0.945894 -3.93491 0
M  V30 32474 H 2892.84 -0.94596 -4.64057 0
M  V30 32475 H 2893.27 -3.21055 -5.96031 0
M  V30 32476 H 2897.91 -0.968379 -4.11561 0
M  V30 32477 H 2895.63 -4.663 -6.59992 0
M  V30 32478 H 2899.21 -2.8356 -5.08021 0
M  V30 32479 H 2898.09 -4.65858 -6.30829 0
M  V30 32480 N 2895.6 1.56696 -0.168541 0
M  V30 32481 C 2896.83 2.01172 0.483468 0
M  V30 32482 C 2897.24 1.04875 1.56992 0
M  V30 32483 O 2896.6 0.0491658 1.82434 0
M  V30 32484 C 2896.65 3.45476 1.06434 0
M  V30 32485 O 2896.37 4.38095 0.0212604 0
M  V30 32486 C 2897.87 4.05339 1.79485 0
M  V30 32487 H 2895.09 0.659445 0.123991 0
M  V30 32488 H 2897.63 2.02717 -0.269455 0
M  V30 32489 H 2895.79 3.44715 1.76778 0
M  V30 32490 H 2896.2 5.22568 0.449745 0
M  V30 32491 H 2897.68 5.08242 2.15392 0
M  V30 32492 H 2898.15 3.47273 2.68883 0
M  V30 32493 H 2898.76 4.09795 1.1379 0
M  V30 32494 N 2897.08 -0.105193 1.57249 0
M  V30 32495 C 2898.32 -0.81172 1.85847 0
M  V30 32496 C 2898.65 -1.7887 0.75625 0
M  V30 32497 O 2897.93 -1.93054 -0.236702 0
M  V30 32498 C 2898.21 -1.54942 3.25062 0
M  V30 32499 C 2898.07 -0.591106 4.45899 0
M  V30 32500 C 2899.38 -2.50239 3.62034 0
M  V30 32501 H 2896.5 -0.293638 0.675978 0
M  V30 32502 H 2899.15 -0.0755935 1.8985 0
M  V30 32503 H 2897.3 -2.17692 3.2178 0
M  V30 32504 H 2898.97 0.0286162 4.61291 0
M  V30 32505 H 2897.21 0.0963106 4.33693 0
M  V30 32506 H 2897.88 -1.1442 5.40011 0
M  V30 32507 H 2900.36 -1.97586 3.66195 0
M  V30 32508 H 2899.23 -2.98878 4.60395 0
M  V30 32509 H 2899.49 -3.33537 2.90182 0
M  V30 32510 N 2898.55 -1.53055 -0.375752 0
M  V30 32511 C 2899.83 -1.59338 -1.1345 0
M  V30 32512 C 2900.21 -0.394651 -2.07378 0
M  V30 32513 O 2899.56 0.615962 -2.20041 0
M  V30 32514 C 2899.77 -2.93872 -1.88255 0
M  V30 32515 C 2901.12 -3.48086 -2.43149 0
M  V30 32516 O 2902.14 -2.95834 -1.98395 0
M  V30 32517 O 2901 -4.39407 -3.24937 0
M  V30 32518 H 2898.09 -0.643188 -0.519845 0
M  V30 32519 H 2900.64 -1.65394 -0.379836 0
M  V30 32520 H 2899.41 -3.7256 -1.19645 0
M  V30 32521 H 2899.04 -2.91261 -2.70653 0
M  V30 32522 N 2900.03 0.634971 -1.44242 0
M  V30 32523 C 2901.26 1.4219 -1.50298 0
M  V30 32524 C 2901.68 1.88375 -0.126613 0
M  V30 32525 O 2901.03 1.60604 0.866752 0
M  V30 32526 C 2901.08 2.64478 -2.46442 0
M  V30 32527 O 2900.8 2.20219 -3.78728 0
M  V30 32528 C 2902.31 3.57646 -2.61924 0
M  V30 32529 H 2899.53 0.436201 -0.509872 0
M  V30 32530 H 2902.07 0.776887 -1.89168 0
M  V30 32531 H 2900.22 3.25079 -2.10718 0
M  V30 32532 H 2900.64 2.99472 -4.306 0
M  V30 32533 H 2902.11 4.40068 -3.33233 0
M  V30 32534 H 2902.59 4.06201 -1.67024 0
M  V30 32535 H 2903.2 3.02916 -2.98533 0
M  V30 32536 N 2901.51 1.31076 0.875027 0
M  V30 32537 C 2902.74 1.23553 1.66581 0
M  V30 32538 C 2903.16 -0.196827 1.87067 0
M  V30 32539 O 2902.52 -1.14117 1.40879 0
M  V30 32540 C 2902.57 1.9797 3.01397 0
M  V30 32541 O 2901.67 1.31358 3.9092 0
M  V30 32542 H 2901.01 0.42683 0.508638 0
M  V30 32543 H 2903.54 1.73062 1.09136 0
M  V30 32544 H 2903.55 2.07372 3.5137 0
M  V30 32545 H 2902.23 3.02138 2.85806 0
M  V30 32546 H 2900.8 1.30374 3.49366 0
M  V30 32547 N 2902.99 -1.08867 1.13955 0
M  V30 32548 C 2903.94 -2.1566 0.822168 0
M  V30 32549 C 2904.91 -1.6466 -0.218245 0
M  V30 32550 O 2906.09 -1.90591 -0.089214 0
M  V30 32551 C 2903.23 -3.43788 0.300632 0
M  V30 32552 C 2902.34 -4.08659 1.40079 0
M  V30 32553 C 2901.48 -5.24565 0.836989 0
M  V30 32554 C 2900.52 -5.81368 1.91515 0
M  V30 32555 N 2899.65 -6.88626 1.36887 0
M  V30 32556 H 2904.49 -2.4215 1.73688 0
M  V30 32557 H 2902.03 -1.18841 0.866899 0
M  V30 32558 H 2903.99 -4.17195 -0.0199209 0
M  V30 32559 H 2902.62 -3.17598 -0.577193 0
M  V30 32560 H 2901.67 -3.33059 1.83782 0
M  V30 32561 H 2902.98 -4.46901 2.21542 0
M  V30 32562 H 2902.14 -6.04892 0.468059 0
M  V30 32563 H 2900.88 -4.87699 -0.00865635 0
M  V30 32564 H 2899.88 -4.99698 2.29308 0
M  V30 32565 H 2901.11 -6.20293 2.7643 0
M  V30 32566 H 2899.05 -6.53729 0.545326 0
M  V30 32567 H 2898.97 -7.25669 2.11993 0
M  V30 32568 H 2900.24 -7.72696 1.02769 0
M  V30 32569 N 2904.47 -0.933936 -1.26946 0
M  V30 32570 C 2905.4 -0.45538 -2.29016 0
M  V30 32571 C 2906.38 0.487576 -1.62962 0
M  V30 32572 O 2907.56 0.390989 -1.90223 0
M  V30 32573 C 2904.69 0.286954 -3.46113 0
M  V30 32574 C 2903.65 -0.568757 -4.24204 0
M  V30 32575 C 2902.97 0.303112 -5.3384 0
M  V30 32576 C 2904.27 -1.83642 -4.88951 0
M  V30 32577 H 2905.97 -1.30843 -2.69296 0
M  V30 32578 H 2903.51 -0.630602 -1.29458 0
M  V30 32579 H 2905.47 0.632726 -4.16623 0
M  V30 32580 H 2904.19 1.17409 -3.04767 0
M  V30 32581 H 2902.85 -0.897323 -3.55449 0
M  V30 32582 H 2902.5 1.18938 -4.88736 0
M  V30 32583 H 2902.2 -0.265983 -5.86998 0
M  V30 32584 H 2903.72 0.644316 -6.07191 0
M  V30 32585 H 2905.13 -1.55833 -5.51715 0
M  V30 32586 H 2903.53 -2.3495 -5.52194 0
M  V30 32587 H 2904.6 -2.55219 -4.123 0
M  V30 32588 N 2905.94 1.41194 -0.700139 0
M  V30 32589 C 2907.19 2.01453 -0.233387 0
M  V30 32590 C 2907.52 1.55341 1.16545 0
M  V30 32591 O 2906.8 0.766606 1.78755 0
M  V30 32592 C 2907.08 3.5888 -0.296163 0
M  V30 32593 C 2906.93 4.15105 -1.73227 0
M  V30 32594 C 2908.25 4.38773 0.341448 0
M  V30 32595 H 2905.37 0.731932 -0.0862796 0
M  V30 32596 H 2908.01 1.67881 -0.889723 0
M  V30 32597 H 2906.16 3.87611 0.262667 0
M  V30 32598 H 2907.84 3.97232 -2.3453 0
M  V30 32599 H 2906.08 3.69975 -2.26497 0
M  V30 32600 H 2906.75 5.24266 -1.7277 0
M  V30 32601 H 2909.23 4.15882 -0.134534 0
M  V30 32602 H 2908.1 5.4825 0.267002 0
M  V30 32603 H 2908.36 4.18579 1.42281 0
M  V30 32604 N 2907.42 0.445212 1.51181 0
M  V30 32605 C 2908.67 -0.118609 2.02152 0
M  V30 32606 C 2909 -1.42023 1.3289 0
M  V30 32607 O 2908.25 -1.90802 0.435075 0
M  V30 32608 C 2908.55 -0.376735 3.55409 0
M  V30 32609 C 2908.22 0.840023 4.43006 0
M  V30 32610 C 2906.88 1.17369 4.66667 0
M  V30 32611 C 2909.23 1.65136 4.94348 0
M  V30 32612 C 2906.56 2.31922 5.38915 0
M  V30 32613 C 2908.91 2.78796 5.67852 0
M  V30 32614 C 2907.58 3.12607 5.89774 0
M  V30 32615 H 2906.85 -0.0434022 0.739728 0
M  V30 32616 H 2909.49 0.594016 1.82054 0
M  V30 32617 H 2907.8 -1.17134 3.73881 0
M  V30 32618 H 2909.49 -0.826533 3.92389 0
M  V30 32619 H 2906.08 0.570033 4.24792 0
M  V30 32620 H 2910.27 1.40678 4.75945 0
M  V30 32621 H 2905.52 2.58423 5.54101 0
M  V30 32622 H 2909.7 3.42028 6.06622 0
M  V30 32623 H 2907.33 4.01483 6.45535 0
M  V30 32624 N 2908.9 -1.56605 0.176849 0
M  V30 32625 C 2910.18 -1.88744 -0.513332 0
M  V30 32626 C 2910.56 -1.0876 -1.80927 0
M  V30 32627 O 2909.91 -0.183167 -2.27765 0
M  V30 32628 C 2910.12 -3.40849 -0.749865 0
M  V30 32629 C 2911.46 -4.10703 -1.0774 0
M  V30 32630 O 2912.49 -3.46197 -0.838216 0
M  V30 32631 O 2911.35 -5.24677 -1.52892 0
M  V30 32632 H 2908.44 -0.783297 -0.265283 0
M  V30 32633 H 2910.99 -1.68324 0.215698 0
M  V30 32634 H 2909.76 -3.90947 0.166058 0
M  V30 32635 H 2909.38 -3.66899 -1.53201 0
M  V30 32636 N 2910.38 0.0968524 -1.57302 0
M  V30 32637 C 2911.63 0.799085 -1.85631 0
M  V30 32638 C 2911.95 1.79355 -0.765294 0
M  V30 32639 O 2911.22 1.94786 0.208623 0
M  V30 32640 H 2909.8 0.298099 -0.684942 0
M  V30 32641 H 2912.46 0.0788999 -1.9474 0
M  V30 32642 H 2911.56 1.33075 -2.82307 0
M  V30 32643 N 2911.86 1.53252 0.36763 0
M  V30 32644 C 2912.79 1.82523 1.45628 0
M  V30 32645 C 2913.77 0.678595 1.55978 0
M  V30 32646 O 2914.95 0.928247 1.70579 0
M  V30 32647 C 2912.08 2.01329 2.82991 0
M  V30 32648 C 2911.04 3.17091 2.87467 0
M  V30 32649 C 2910.36 3.21187 4.27485 0
M  V30 32650 C 2911.66 4.55723 2.55174 0
M  V30 32651 H 2913.36 2.73691 1.21382 0
M  V30 32652 H 2910.9 1.31693 0.582486 0
M  V30 32653 H 2912.86 2.20389 3.59175 0
M  V30 32654 H 2911.58 1.0687 3.0862 0
M  V30 32655 H 2910.24 2.97848 2.13734 0
M  V30 32656 H 2909.89 2.24369 4.50186 0
M  V30 32657 H 2909.59 3.98963 4.31396 0
M  V30 32658 H 2911.11 3.42428 5.05544 0
M  V30 32659 H 2912.52 4.74958 3.21072 0
M  V30 32660 H 2910.92 5.35725 2.70405 0
M  V30 32661 H 2911.99 4.60975 1.50431 0
M  V30 32662 N 2913.34 -0.627313 1.44577 0
M  V30 32663 C 2914.75 -0.945915 1.28548 0
M  V30 32664 C 2914.95 -2.00251 0.224038 0
M  V30 32665 O 2914.01 -2.49489 -0.388773 0
M  V30 32666 C 2915.32 -1.40556 2.65828 0
M  V30 32667 C 2916.87 -1.52083 2.73568 0
M  V30 32668 C 2917.34 -2.0143 4.11327 0
M  V30 32669 N 2918.83 -2.08694 4.13522 0
M  V30 32670 C 2919.57 -2.48056 5.16968 0
M  V30 32671 N 2919.07 -2.86527 6.30773 0
M  V30 32672 N 2920.86 -2.48223 5.04323 0
M  V30 32673 H 2913.01 0.0713941 2.1228 0
M  V30 32674 H 2915.27 -0.0306915 0.947503 0
M  V30 32675 H 2914.98 -0.703478 3.44593 0
M  V30 32676 H 2914.85 -2.37585 2.92973 0
M  V30 32677 H 2917.24 -2.21387 1.9512 0
M  V30 32678 H 2917.32 -0.534193 2.5016 0
M  V30 32679 H 2916.96 -1.3272 4.90253 0
M  V30 32680 H 2916.89 -3.00973 4.32115 0
M  V30 32681 H 2919.39 -1.81633 3.31388 0
M  V30 32682 H 2919.7 -3.15386 7.05515 0
M  V30 32683 H 2918.04 -2.84269 6.34205 0
M  V30 32684 H 2921.23 -2.17561 4.14469 0
M  V30 32685 H 2921.41 -2.78574 5.85064 0
M  V30 32686 N 2914.81 -1.31539 -0.868063 0
M  V30 32687 C 2915.76 -1.19349 -1.97546 0
M  V30 32688 C 2916.73 -0.0788214 -1.65913 0
M  V30 32689 O 2917.92 -0.252018 -1.89128 0
M  V30 32690 C 2915.06 -0.90875 -3.3292 0
M  V30 32691 C 2914.17 -2.10693 -3.77137 0
M  V30 32692 C 2913.3 -1.75882 -5.01238 0
M  V30 32693 C 2912.34 -2.92097 -5.37908 0
M  V30 32694 N 2911.48 -2.57468 -6.53188 0
M  V30 32695 H 2916.32 -2.14077 -2.07304 0
M  V30 32696 H 2913.86 -1.06489 -1.01481 0
M  V30 32697 H 2915.81 -0.72421 -4.10866 0
M  V30 32698 H 2914.44 0.00170436 -3.228 0
M  V30 32699 H 2913.5 -2.40218 -2.94956 0
M  V30 32700 H 2914.81 -2.9767 -4.00243 0
M  V30 32701 H 2913.96 -1.53901 -5.86855 0
M  V30 32702 H 2912.7 -0.860995 -4.8004 0
M  V30 32703 H 2911.71 -3.14725 -4.50809 0
M  V30 32704 H 2912.93 -3.82592 -5.61071 0
M  V30 32705 H 2910.88 -1.70211 -6.33533 0
M  V30 32706 H 2910.79 -3.37975 -6.76246 0
M  V30 32707 H 2912.06 -2.38886 -7.41993 0
M  V30 32708 N 2916.29 1.08262 -1.1453 0
M  V30 32709 C 2917.24 2.1522 -0.833593 0
M  V30 32710 C 2918.21 1.64773 0.20951 0
M  V30 32711 O 2919.39 1.90636 0.0791053 0
M  V30 32712 C 2916.53 3.43624 -0.31886 0
M  V30 32713 C 2915.65 4.0791 -1.42244 0
M  V30 32714 C 2914.78 5.24113 -0.864796 0
M  V30 32715 C 2913.82 5.80344 -1.94595 0
M  V30 32716 N 2912.96 6.87891 -1.40537 0
M  V30 32717 H 2917.8 2.41225 -1.74969 0
M  V30 32718 H 2915.33 1.1838 -0.87319 0
M  V30 32719 H 2917.29 4.172 -0.00220421 0
M  V30 32720 H 2915.92 3.17899 0.560342 0
M  V30 32721 H 2914.97 3.3208 -1.85546 0
M  V30 32722 H 2916.29 4.4572 -2.23909 0
M  V30 32723 H 2915.44 6.04635 -0.500131 0
M  V30 32724 H 2914.18 4.87697 -0.0172077 0
M  V30 32725 H 2913.18 4.98475 -2.31955 0
M  V30 32726 H 2914.41 6.18818 -2.79715 0
M  V30 32727 H 2912.36 6.53431 -0.579988 0
M  V30 32728 H 2912.27 7.24534 -2.15838 0
M  V30 32729 H 2913.54 7.7214 -1.06866 0
M  V30 32730 N 2917.77 0.940655 1.26449 0
M  V30 32731 C 2919.02 0.588814 1.94064 0
M  V30 32732 C 2919.35 -0.869822 1.73631 0
M  V30 32733 O 2918.62 -1.62223 1.07302 0
M  V30 32734 C 2918.91 0.93126 3.4785 0
M  V30 32735 C 2918.76 2.4446 3.7757 0
M  V30 32736 C 2920.08 0.446306 4.37831 0
M  V30 32737 H 2917.2 0.215392 0.704823 0
M  V30 32738 H 2919.84 1.17478 1.49328 0
M  V30 32739 H 2917.99 0.432607 3.86084 0
M  V30 32740 H 2919.66 3.01594 3.49054 0
M  V30 32741 H 2917.9 2.8883 3.23666 0
M  V30 32742 H 2918.58 2.63472 4.85063 0
M  V30 32743 H 2921.05 0.873849 4.06821 0
M  V30 32744 H 2919.93 0.714744 5.44227 0
M  V30 32745 H 2920.19 -0.653738 4.3724 0
M  V30 32746 N 2919.25 -1.40821 0.707617 0
M  V30 32747 C 2920.48 -2.05346 0.253109 0
M  V30 32748 C 2920.89 -1.53291 -1.10215 0
M  V30 32749 O 2920.25 -0.686135 -1.69111 0
M  V30 32750 C 2920.3 -3.60857 0.215474 0
M  V30 32751 O 2920.02 -4.10989 1.51721 0
M  V30 32752 C 2921.52 -4.42545 -0.258559 0
M  V30 32753 H 2918.74 -0.661025 0.115268 0
M  V30 32754 H 2921.28 -1.80375 0.963586 0
M  V30 32755 H 2919.44 -3.84825 -0.44591 0
M  V30 32756 H 2919.85 -5.05127 1.41235 0
M  V30 32757 H 2921.33 -5.51505 -0.233752 0
M  V30 32758 H 2921.8 -4.19537 -1.29943 0
M  V30 32759 H 2922.41 -4.23668 0.37226 0
M  V30 32760 N 2920.73 -0.453223 -1.50943 0
M  V30 32761 C 2921.69 0.338665 -2.26684 0
M  V30 32762 C 2922.69 0.936009 -1.3075 0
M  V30 32763 O 2923.88 0.807975 -1.54329 0
M  V30 32764 C 2921.01 1.48066 -3.07066 0
M  V30 32765 H 2922.2 -0.325342 -2.9813 0
M  V30 32766 H 2919.76 -0.206798 -1.54926 0
M  V30 32767 H 2920.49 2.18025 -2.40074 0
M  V30 32768 H 2920.28 1.05833 -3.77547 0
M  V30 32769 H 2921.77 2.03973 -3.64396 0
M  V30 32770 N 2922.2 1.56509 -0.185151 0
M  V30 32771 C 2923.14 2.14502 0.778732 0
M  V30 32772 C 2924.11 1.07893 1.21647 0
M  V30 32773 O 2925.3 1.35948 1.30577 0
M  V30 32774 C 2922.43 2.69583 2.05043 0
M  V30 32775 C 2921.47 3.8869 1.75562 0
M  V30 32776 S 2922.3 5.27667 0.912549 0
M  V30 32777 C 2923.46 5.86164 2.19461 0
M  V30 32778 H 2923.69 2.95924 0.285699 0
M  V30 32779 H 2921.23 1.54371 0.0297145 0
M  V30 32780 H 2923.18 3.01963 2.7808 0
M  V30 32781 H 2921.85 1.88221 2.51459 0
M  V30 32782 H 2921.04 4.25606 2.69954 0
M  V30 32783 H 2920.64 3.57269 1.10613 0
M  V30 32784 H 2922.93 5.9992 3.14805 0
M  V30 32785 H 2923.88 6.82964 1.86993 0
M  V30 32786 H 2924.28 5.14689 2.31853 0
M  V30 32787 N 2923.68 -0.0885089 1.57351 0
M  V30 32788 C 2924.61 -1.13326 1.99223 0
M  V30 32789 C 2925.63 -1.35943 0.895729 0
M  V30 32790 O 2926.82 -1.34479 1.17379 0
M  V30 32791 C 2923.92 -2.48752 2.30165 0
M  V30 32792 C 2923.09 -2.46321 3.61448 0
M  V30 32793 C 2922.15 -3.63725 3.8025 0
M  V30 32794 O 2921.17 -3.45916 4.5203 0
M  V30 32795 N 2922.38 -4.83454 3.21329 0
M  V30 32796 H 2925.14 -0.776811 2.89458 0
M  V30 32797 H 2922.7 -0.2774 1.59506 0
M  V30 32798 H 2924.69 -3.25907 2.39931 0
M  V30 32799 H 2923.26 -2.76461 1.45904 0
M  V30 32800 H 2922.48 -1.54666 3.62591 0
M  V30 32801 H 2923.77 -2.41781 4.47682 0
M  V30 32802 H 2923.17 -5.00828 2.63036 0
M  V30 32803 H 2921.73 -5.58179 3.3657 0
M  V30 32804 N 2925.16 -1.53445 -0.359498 0
M  V30 32805 C 2926.09 -1.83293 -1.44658 0
M  V30 32806 C 2927.07 -0.686857 -1.55616 0
M  V30 32807 O 2928.26 -0.93728 -1.70084 0
M  V30 32808 C 2925.39 -2.02827 -2.81919 0
M  V30 32809 C 2924.34 -3.18611 -2.85782 0
M  V30 32810 C 2923.67 -3.2345 -4.25775 0
M  V30 32811 C 2924.97 -4.5707 -2.52754 0
M  V30 32812 H 2926.66 -2.74331 -1.19929 0
M  V30 32813 H 2924.21 -1.32 -0.575494 0
M  V30 32814 H 2926.16 -2.22291 -3.58001 0
M  V30 32815 H 2924.88 -1.08505 -3.08049 0
M  V30 32816 H 2923.54 -2.98977 -2.12151 0
M  V30 32817 H 2923.19 -2.26753 -4.4899 0
M  V30 32818 H 2922.89 -4.01245 -4.29274 0
M  V30 32819 H 2924.41 -3.45105 -5.03721 0
M  V30 32820 H 2925.83 -4.76654 -3.18549 0
M  V30 32821 H 2924.22 -5.37151 -2.6756 0
M  V30 32822 H 2925.29 -4.61767 -1.47985 0
M  V30 32823 N 2926.64 0.619637 -1.44908 0
M  V30 32824 C 2927.87 1.40384 -1.51578 0
M  V30 32825 C 2928.28 1.88658 -0.143123 0
M  V30 32826 O 2927.62 1.62147 0.863374 0
M  V30 32827 C 2927.68 2.65062 -2.42862 0
M  V30 32828 C 2927.34 2.38509 -3.89824 0
M  V30 32829 C 2928.34 1.99619 -4.8005 0
M  V30 32830 C 2926.03 2.51793 -4.34633 0
M  V30 32831 C 2928.02 1.74358 -6.13089 0
M  V30 32832 C 2925.71 2.26146 -5.67716 0
M  V30 32833 C 2926.71 1.87489 -6.56763 0
M  V30 32834 O 2926.39 1.62134 -7.8738 0
M  V30 32835 H 2926.13 0.436564 -0.516128 0
M  V30 32836 H 2928.68 0.763925 -1.90666 0
M  V30 32837 H 2926.91 3.31732 -1.98723 0
M  V30 32838 H 2928.6 3.27087 -2.40352 0
M  V30 32839 H 2929.36 1.88902 -4.467 0
M  V30 32840 H 2925.24 2.80851 -3.65573 0
M  V30 32841 H 2928.79 1.4411 -6.82553 0
M  V30 32842 H 2924.68 2.36475 -6.00624 0
M  V30 32843 H 2925.45 1.76286 -7.99291 0
M  V30 32844 N 2928.12 1.31997 0.861075 0
M  V30 32845 C 2929.03 1.22377 2.00152 0
M  V30 32846 C 2930.04 0.138662 1.73447 0
M  V30 32847 O 2931.22 0.358139 1.9819 0
M  V30 32848 C 2928.28 0.940703 3.33694 0
M  V30 32849 C 2927.34 2.11361 3.73664 0
M  V30 32850 C 2926.58 1.84395 5.00833 0
M  V30 32851 O 2926.8 0.783386 5.64995 0
M  V30 32852 O 2925.73 2.70323 5.37782 0
M  V30 32853 H 2929.56 2.18236 2.11203 0
M  V30 32854 H 2927.15 1.11824 0.990748 0
M  V30 32855 H 2929.03 0.799059 4.13755 0
M  V30 32856 H 2927.7 0.0122205 3.23698 0
M  V30 32857 H 2926.61 2.3107 2.94207 0
M  V30 32858 H 2927.94 3.02466 3.88298 0
M  V30 32859 N 2929.59 -1.07653 1.15103 0
M  V30 32860 C 2930.83 -1.81787 0.934494 0
M  V30 32861 C 2931.2 -1.84567 -0.529068 0
M  V30 32862 O 2932.4 -2.54542 -0.863824 0
M  V30 32863 C 2930.67 -3.23079 1.52823 0
M  V30 32864 S 2932.23 -4.13997 1.45437 0
M  V30 32865 H 2929.05 -0.626389 0.33639 0
M  V30 32866 H 2931.65 -1.29345 1.46595 0
M  V30 32867 H 2930.35 -3.18643 2.58641 0
M  V30 32868 H 2929.88 -3.80596 0.995499 0
M  V30 32869 H 2931.9 -4.94199 0.445145 0
M  V30 32870 N 2931.07 -0.947348 -1.25949 0
M  V30 32871 C 2932 -0.4191 -2.25336 0
M  V30 32872 C 2933.02 0.461023 -1.56136 0
M  V30 32873 O 2934.21 0.270474 -1.76439 0
M  V30 32874 C 2931.31 0.416174 -3.36335 0
M  V30 32875 C 2930.48 -0.449238 -4.35087 0
M  V30 32876 C 2929.54 0.326624 -5.25185 0
M  V30 32877 O 2928.56 -0.272474 -5.68547 0
M  V30 32878 N 2929.77 1.6216 -5.57391 0
M  V30 32879 H 2932.53 -1.27352 -2.71296 0
M  V30 32880 H 2930.09 -0.816905 -1.39779 0
M  V30 32881 H 2932.08 0.942757 -3.93566 0
M  V30 32882 H 2930.65 1.17142 -2.89821 0
M  V30 32883 H 2929.87 -1.15698 -3.76839 0
M  V30 32884 H 2931.16 -1.04017 -4.98054 0
M  V30 32885 H 2930.56 2.13037 -5.24053 0
M  V30 32886 H 2929.12 2.0943 -6.17238 0
M  V30 32887 N 2932.55 1.40444 -0.715075 0
M  V30 32888 C 2933.48 2.33373 -0.0769109 0
M  V30 32889 C 2934.46 1.52865 0.746082 0
M  V30 32890 O 2935.65 1.81334 0.69511 0
M  V30 32891 C 2932.78 3.3684 0.845955 0
M  V30 32892 C 2931.73 4.27807 0.128619 0
M  V30 32893 C 2931.06 5.21806 1.16716 0
M  V30 32894 C 2932.36 5.12305 -1.01688 0
M  V30 32895 H 2934.05 2.86988 -0.853112 0
M  V30 32896 H 2931.6 1.37989 -0.411694 0
M  V30 32897 H 2933.55 4.00789 1.30178 0
M  V30 32898 H 2932.27 2.81618 1.65405 0
M  V30 32899 H 2930.93 3.65309 -0.307378 0
M  V30 32900 H 2930.58 4.6289 1.96829 0
M  V30 32901 H 2930.28 5.8351 0.692085 0
M  V30 32902 H 2931.8 5.88632 1.6231 0
M  V30 32903 H 2933.22 5.69712 -0.640437 0
M  V30 32904 H 2931.62 5.8305 -1.4203 0
M  V30 32905 H 2932.69 4.48314 -1.84777 0
M  V30 32906 N 2934.03 0.461222 1.507 0
M  V30 32907 C 2935.28 -0.0987923 2.01458 0
M  V30 32908 C 2935.59 -1.4167 1.34866 0
M  V30 32909 O 2936.8 -2.06108 1.76725 0
M  V30 32910 C 2935.25 -0.226585 3.59186 0
M  V30 32911 C 2934.86 1.08231 4.3473 0
M  V30 32912 C 2936.6 -0.739087 4.18016 0
M  V30 32913 C 2934.51 0.91885 5.84218 0
M  V30 32914 H 2933.44 -0.0406958 0.752901 0
M  V30 32915 H 2936.09 0.59462 1.73599 0
M  V30 32916 H 2934.47 -0.983554 3.83591 0
M  V30 32917 H 2935.65 1.84946 4.22056 0
M  V30 32918 H 2933.96 1.52516 3.87463 0
M  V30 32919 H 2936.56 -0.878254 5.27438 0
M  V30 32920 H 2936.9 -1.72786 3.78749 0
M  V30 32921 H 2937.44 -0.039777 3.9778 0
M  V30 32922 H 2934.18 1.8807 6.27941 0
M  V30 32923 H 2933.7 0.191907 5.99493 0
M  V30 32924 H 2935.37 0.581518 6.44381 0
M  V30 32925 N 2935.51 -1.56408 0.193449 0
M  V30 32926 C 2936.78 -1.89278 -0.493284 0
M  V30 32927 C 2937.16 -1.10673 -1.79763 0
M  V30 32928 O 2936.51 -0.207314 -2.27558 0
M  V30 32929 C 2936.72 -3.41625 -0.713672 0
M  V30 32930 C 2938.07 -4.11823 -1.03378 0
M  V30 32931 O 2939.09 -3.47067 -0.80145 0
M  V30 32932 O 2937.95 -5.2627 -1.47318 0
M  V30 32933 H 2935.05 -0.786067 -0.25696 0
M  V30 32934 H 2937.59 -1.68085 0.233539 0
M  V30 32935 H 2936.36 -3.90749 0.207514 0
M  V30 32936 H 2935.99 -3.68504 -1.49301 0
M  V30 32937 N 2936.98 0.0801629 -1.57396 0
M  V30 32938 C 2937.93 1.09614 -2.03109 0
M  V30 32939 C 2938.9 1.38945 -0.910142 0
M  V30 32940 O 2940.09 1.50154 -1.17721 0
M  V30 32941 C 2937.23 2.40703 -2.47297 0
M  V30 32942 C 2936.34 2.17975 -3.72976 0
M  V30 32943 C 2935.47 3.42569 -4.05981 0
M  V30 32944 C 2934.51 3.15168 -5.24724 0
M  V30 32945 N 2933.65 4.32069 -5.53409 0
M  V30 32946 H 2938.49 0.699339 -2.89678 0
M  V30 32947 H 2936.03 0.33376 -1.43264 0
M  V30 32948 H 2937.99 3.17227 -2.70966 0
M  V30 32949 H 2936.62 2.78202 -1.63718 0
M  V30 32950 H 2935.67 1.32183 -3.56696 0
M  V30 32951 H 2936.98 1.9373 -4.59641 0
M  V30 32952 H 2936.13 4.27493 -4.30505 0
M  V30 32953 H 2934.87 3.69882 -3.17866 0
M  V30 32954 H 2933.88 2.28639 -5.00004 0
M  V30 32955 H 2935.1 2.89186 -6.1445 0
M  V30 32956 H 2933.05 4.59429 -4.68253 0
M  V30 32957 H 2932.97 4.11067 -6.34476 0
M  V30 32958 H 2934.23 5.18014 -5.82479 0
M  V30 32959 N 2938.46 1.53634 0.351355 0
M  V30 32960 C 2939.69 1.74431 1.11272 0
M  V30 32961 C 2940.11 0.47983 1.82601 0
M  V30 32962 O 2939.46 -0.548094 1.74075 0
M  V30 32963 C 2939.51 2.91925 2.13218 0
M  V30 32964 O 2939.23 4.13482 1.44791 0
M  V30 32965 C 2940.74 3.24711 3.01791 0
M  V30 32966 H 2937.96 0.583029 0.332142 0
M  V30 32967 H 2940.5 2.00431 0.405939 0
M  V30 32968 H 2938.65 2.68279 2.79473 0
M  V30 32969 H 2939.07 4.79378 2.12831 0
M  V30 32970 H 2940.54 4.10293 3.69275 0
M  V30 32971 H 2941.02 2.4068 3.67383 0
M  V30 32972 H 2941.63 3.50334 2.41135 0
M  V30 32973 N 2939.94 -0.611943 1.45234 0
M  V30 32974 C 2941.17 -1.39781 1.52541 0
M  V30 32975 C 2941.58 -1.8815 0.156566 0
M  V30 32976 O 2940.94 -1.61963 -0.841092 0
M  V30 32977 C 2940.99 -2.60524 2.50619 0
M  V30 32978 O 2940.71 -2.14166 3.82184 0
M  V30 32979 C 2942.21 -3.53434 2.67581 0
M  V30 32980 H 2939.43 -0.428034 0.516748 0
M  V30 32981 H 2941.98 -0.746694 1.9038 0
M  V30 32982 H 2940.13 -3.21686 2.15863 0
M  V30 32983 H 2940.55 -2.92584 4.3531 0
M  V30 32984 H 2942.02 -4.34711 3.40192 0
M  V30 32985 H 2942.5 -4.03493 1.73466 0
M  V30 32986 H 2943.1 -2.98128 3.03315 0
M  V30 32987 N 2941.42 -1.32452 -0.854063 0
M  V30 32988 C 2942.35 -1.24048 -1.97824 0
M  V30 32989 C 2943.33 -0.124196 -1.69646 0
M  V30 32990 O 2944.51 -0.311464 -1.91686 0
M  V30 32991 C 2941.64 -0.963383 -3.33671 0
M  V30 32992 C 2940.6 -2.04096 -3.76203 0
M  V30 32993 C 2939.92 -1.61627 -5.09687 0
M  V30 32994 C 2941.22 -3.45604 -3.91606 0
M  V30 32995 H 2942.92 -2.18102 -2.05114 0
M  V30 32996 H 2940.46 -1.04998 -0.98547 0
M  V30 32997 H 2942.42 -0.891134 -4.1187 0
M  V30 32998 H 2941.14 0.0128074 -3.26597 0
M  V30 32999 H 2939.8 -2.10337 -3.00256 0
M  V30 33000 H 2939.45 -0.627506 -4.9907 0
M  V30 33001 H 2939.15 -2.33726 -5.39116 0
M  V30 33002 H 2940.67 -1.55839 -5.90378 0
M  V30 33003 H 2942.09 -3.41948 -4.60157 0
M  V30 33004 H 2940.48 -4.16058 -4.32453 0
M  V30 33005 H 2941.55 -3.85222 -2.94503 0
M  V30 33006 N 2942.9 1.07041 -1.15672 0
M  V30 33007 C 2944.17 1.76455 -0.843979 0
M  V30 33008 C 2944.55 2.00525 0.659771 0
M  V30 33009 O 2943.9 1.62626 1.60515 0
M  V30 33010 C 2944.11 3.07087 -1.65827 0
M  V30 33011 C 2945.46 3.81376 -1.86647 0
M  V30 33012 O 2946.48 3.16907 -1.6263 0
M  V30 33013 O 2945.34 4.97174 -2.26893 0
M  V30 33014 H 2942.44 0.76642 -0.310691 0
M  V30 33015 H 2944.98 1.13378 -1.26268 0
M  V30 33016 H 2943.76 2.85205 -2.67907 0
M  V30 33017 H 2943.38 3.77897 -1.23612 0
M  V30 33018 N 2944.38 0.954014 1.25445 0
M  V30 33019 C 2945.32 0.472524 2.25911 0
M  V30 33020 C 2946.29 -0.474662 1.59173 0
M  V30 33021 O 2947.48 -0.388049 1.86812 0
M  V30 33022 C 2944.62 -0.244157 3.44235 0
M  V30 33023 C 2943.73 0.740196 4.25611 0
M  V30 33024 C 2942.87 0.00101564 5.312 0
M  V30 33025 C 2941.9 0.976342 6.04263 0
M  V30 33026 N 2941.04 0.268075 7.01588 0
M  V30 33027 H 2945.88 1.33415 2.66467 0
M  V30 33028 H 2943.42 0.669068 1.31003 0
M  V30 33029 H 2945.38 -0.676242 4.11683 0
M  V30 33030 H 2944.01 -1.06983 3.04556 0
M  V30 33031 H 2943.06 1.29076 3.57832 0
M  V30 33032 H 2944.37 1.48449 4.76198 0
M  V30 33033 H 2943.52 -0.489734 6.0472 0
M  V30 33034 H 2942.26 -0.776074 4.81486 0
M  V30 33035 H 2941.27 1.4781 5.29559 0
M  V30 33036 H 2942.49 1.75365 6.56067 0
M  V30 33037 H 2940.44 -0.490288 6.54165 0
M  V30 33038 H 2940.36 0.951475 7.49989 0
M  V30 33039 H 2941.62 -0.201157 7.7924 0
M  V30 33040 N 2945.85 -1.40063 0.722513 0
M  V30 33041 C 2946.78 -2.33329 0.0892862 0
M  V30 33042 C 2947.76 -1.53258 -0.737965 0
M  V30 33043 O 2948.95 -1.817 -0.685484 0
M  V30 33044 C 2946.08 -3.37283 -0.828079 0
M  V30 33045 C 2945.03 -4.27869 -0.10593 0
M  V30 33046 C 2944.36 -5.22417 -1.13948 0
M  V30 33047 C 2945.66 -5.11759 1.04404 0
M  V30 33048 H 2947.35 -2.86532 0.868319 0
M  V30 33049 H 2944.9 -1.37769 0.419006 0
M  V30 33050 H 2946.85 -4.01473 -1.28051 0
M  V30 33051 H 2945.58 -2.82492 -1.63909 0
M  V30 33052 H 2944.24 -3.65141 0.326747 0
M  V30 33053 H 2943.88 -4.63927 -1.94372 0
M  V30 33054 H 2943.58 -5.83869 -0.661131 0
M  V30 33055 H 2945.11 -5.89485 -1.59187 0
M  V30 33056 H 2946.52 -5.69364 0.670641 0
M  V30 33057 H 2944.92 -5.82289 1.4512 0
M  V30 33058 H 2945.99 -4.47328 1.87152 0
M  V30 33059 N 2947.33 -0.469207 -1.50453 0
M  V30 33060 C 2948.26 0.315879 -2.31354 0
M  V30 33061 C 2949.24 0.99207 -1.38174 0
M  V30 33062 O 2950.43 0.989604 -1.67094 0
M  V30 33063 C 2947.56 1.39931 -3.17862 0
M  V30 33064 C 2946.51 0.844835 -4.19579 0
M  V30 33065 C 2945.84 2.02642 -4.94814 0
M  V30 33066 C 2947.14 -0.14259 -5.22105 0
M  V30 33067 H 2948.83 -0.359322 -2.97236 0
M  V30 33068 H 2946.38 -0.174249 -1.42942 0
M  V30 33069 H 2948.33 1.95601 -3.73254 0
M  V30 33070 H 2947.05 2.10326 -2.49861 0
M  V30 33071 H 2945.71 0.310125 -3.65286 0
M  V30 33072 H 2945.36 2.7173 -4.23287 0
M  V30 33073 H 2945.06 1.66164 -5.63616 0
M  V30 33074 H 2946.59 2.58805 -5.53039 0
M  V30 33075 H 2948 0.324865 -5.72379 0
M  V30 33076 H 2946.4 -0.421546 -5.98618 0
M  V30 33077 H 2947.47 -1.06909 -4.72968 0
M  V30 33078 N 2948.81 1.56303 -0.201741 0
M  V30 33079 C 2949.76 2.19398 0.71646 0
M  V30 33080 C 2950.73 1.14328 1.20492 0
M  V30 33081 O 2951.91 1.42606 1.2676 0
M  V30 33082 C 2949.05 2.8625 1.92757 0
M  V30 33083 C 2948.16 4.05862 1.47986 0
M  V30 33084 C 2947.3 4.60552 2.64698 0
M  V30 33085 C 2946.34 5.72508 2.16566 0
M  V30 33086 N 2945.48 6.21575 3.2648 0
M  V30 33087 H 2950.32 2.97505 0.171672 0
M  V30 33088 H 2947.85 1.46919 0.0729902 0
M  V30 33089 H 2949.81 3.23183 2.63835 0
M  V30 33090 H 2948.44 2.10695 2.44556 0
M  V30 33091 H 2947.49 3.74548 0.664704 0
M  V30 33092 H 2948.8 4.86817 1.08678 0
M  V30 33093 H 2947.96 4.99825 3.43889 0
M  V30 33094 H 2946.7 3.78719 3.07284 0
M  V30 33095 H 2945.7 5.32757 1.35831 0
M  V30 33096 H 2946.93 6.56164 1.75003 0
M  V30 33097 H 2944.87 5.42662 3.68584 0
M  V30 33098 H 2944.79 6.97599 2.91361 0
M  V30 33099 H 2946.06 6.65503 4.05865 0
M  V30 33100 N 2950.29 -0.0718147 1.57436 0
M  V30 33101 C 2951.54 -0.769451 1.86879 0
M  V30 33102 C 2951.86 -1.78115 0.793731 0
M  V30 33103 O 2951.13 -1.95093 -0.177608 0
M  V30 33104 H 2949.71 -0.287165 0.689598 0
M  V30 33105 H 2952.37 -0.0479084 1.94841 0
M  V30 33106 H 2951.46 -1.28567 2.84389 0
M  V30 33107 N 2951.77 -1.53818 -0.343203 0
M  V30 33108 C 2952.71 -1.8183 -1.4215 0
M  V30 33109 C 2953.68 -0.664023 -1.5225 0
M  V30 33110 O 2954.87 -0.908491 -1.67783 0
M  V30 33111 C 2952.01 -2.03389 -2.78796 0
M  V30 33112 C 2951.12 -3.31099 -2.77484 0
M  V30 33113 C 2950.26 -3.42724 -4.0585 0
M  V30 33114 C 2949.29 -4.64382 -3.98768 0
M  V30 33115 N 2948.43 -4.73038 -5.18825 0
M  V30 33116 H 2953.27 -2.73831 -1.17562 0
M  V30 33117 H 2950.81 -1.35629 -0.569482 0
M  V30 33118 H 2952.77 -2.13878 -3.58207 0
M  V30 33119 H 2951.4 -1.14701 -3.01734 0
M  V30 33120 H 2950.45 -3.2945 -1.90176 0
M  V30 33121 H 2951.76 -4.20605 -2.68129 0
M  V30 33122 H 2950.91 -3.52647 -4.93685 0
M  V30 33123 H 2949.65 -2.51275 -4.17986 0
M  V30 33124 H 2948.66 -4.54536 -3.09317 0
M  V30 33125 H 2949.88 -5.57195 -3.88214 0
M  V30 33126 H 2947.83 -3.84499 -5.31504 0
M  V30 33127 H 2947.75 -5.56481 -5.11728 0
M  V30 33128 H 2949.01 -4.87271 -6.0843 0
M  V30 33129 N 2953.24 0.604233 -1.45557 0
M  V30 33130 C 2954.19 1.71473 -1.54485 0
M  V30 33131 C 2955.16 1.61444 -0.390508 0
M  V30 33132 O 2956.35 1.80974 -0.604403 0
M  V30 33133 C 2953.49 3.09789 -1.52069 0
M  V30 33134 C 2952.6 3.30599 -2.78079 0
M  V30 33135 C 2951.73 4.5904 -2.67313 0
M  V30 33136 C 2950.77 4.7312 -3.8836 0
M  V30 33137 N 2949.91 5.92863 -3.76108 0
M  V30 33138 H 2954.75 1.63179 -2.49352 0
M  V30 33139 H 2952.29 0.795619 -1.23727 0
M  V30 33140 H 2954.24 3.89817 -1.48656 0
M  V30 33141 H 2952.87 3.17032 -0.607498 0
M  V30 33142 H 2951.93 2.44324 -2.91565 0
M  V30 33143 H 2953.24 3.36876 -3.67853 0
M  V30 33144 H 2952.39 5.47267 -2.61884 0
M  V30 33145 H 2951.13 4.55166 -1.75143 0
M  V30 33146 H 2950.14 3.83315 -3.94144 0
M  V30 33147 H 2951.36 4.78788 -4.816 0
M  V30 33148 H 2949.31 5.90028 -2.8671 0
M  V30 33149 H 2949.22 6.00315 -4.5952 0
M  V30 33150 H 2950.49 6.8358 -3.74619 0
M  V30 33151 N 2954.72 1.32903 0.847027 0
M  V30 33152 C 2955.95 1.27059 1.63923 0
M  V30 33153 C 2956.37 -0.157103 1.87443 0
M  V30 33154 O 2955.73 -1.11103 1.43268 0
M  V30 33155 C 2955.78 2.04318 2.9713 0
M  V30 33156 O 2954.88 1.3962 3.88046 0
M  V30 33157 H 2954.22 0.437523 0.49947 0
M  V30 33158 H 2956.75 1.75338 1.0544 0
M  V30 33159 H 2956.76 2.14778 3.46892 0
M  V30 33160 H 2955.44 3.08133 2.79333 0
M  V30 33161 H 2954.01 1.37756 3.46522 0
M  V30 33162 N 2956.2 -1.06426 1.16238 0
M  V30 33163 C 2957.45 -1.79465 0.944462 0
M  V30 33164 C 2957.78 -1.86926 -0.526525 0
M  V30 33165 O 2957.05 -1.35988 -1.39059 0
M  V30 33166 C 2957.34 -3.24025 1.57097 0
M  V30 33167 C 2957.19 -3.24653 3.11321 0
M  V30 33168 C 2958.51 -4.21542 1.26454 0
M  V30 33169 H 2955.63 -0.651511 0.344533 0
M  V30 33170 H 2958.27 -1.24475 1.43548 0
M  V30 33171 H 2956.42 -3.70983 1.15343 0
M  V30 33172 H 2958.09 -2.85867 3.62047 0
M  V30 33173 H 2956.33 -2.63344 3.44721 0
M  V30 33174 H 2957.01 -4.26627 3.50277 0
M  V30 33175 H 2959.48 -3.8302 1.62588 0
M  V30 33176 H 2958.36 -5.2096 1.72894 0
M  V30 33177 H 2958.62 -4.4172 0.183146 0
M  V30 33178 N 2957.68 -0.960653 -1.24937 0
M  V30 33179 C 2958.59 -0.492475 -2.29373 0
M  V30 33180 C 2959.6 0.443124 -1.68263 0
M  V30 33181 O 2960.78 0.317895 -1.98875 0
M  V30 33182 C 2957.85 0.216566 -3.46023 0
M  V30 33183 C 2956.91 -0.757989 -4.22555 0
M  V30 33184 C 2956.14 -0.0826907 -5.33636 0
M  V30 33185 O 2956.36 1.13045 -5.59086 0
M  V30 33186 O 2955.3 -0.771282 -5.96938 0
M  V30 33187 H 2959.12 -1.36049 -2.71522 0
M  V30 33188 H 2956.71 -0.727373 -1.30498 0
M  V30 33189 H 2958.59 0.615168 -4.16886 0
M  V30 33190 H 2957.26 1.05966 -3.05864 0
M  V30 33191 H 2956.17 -1.20692 -3.54097 0
M  V30 33192 H 2957.5 -1.56928 -4.66513 0
M  V30 33193 N 2959.16 1.39677 -0.729931 0
M  V30 33194 C 2960.07 2.34435 -0.0880735 0
M  V30 33195 C 2961.08 1.58055 0.727647 0
M  V30 33196 O 2962.26 1.90373 0.657287 0
M  V30 33197 C 2959.32 3.37053 0.812152 0
M  V30 33198 C 2958.38 4.29297 -0.0152435 0
M  V30 33199 C 2957.62 5.27014 0.842109 0
M  V30 33200 O 2957.84 5.31085 2.08098 0
M  V30 33201 O 2956.77 6.01278 0.273465 0
M  V30 33202 H 2960.6 2.90971 -0.87004 0
M  V30 33203 H 2958.19 1.41117 -0.490547 0
M  V30 33204 H 2960.07 3.99948 1.32738 0
M  V30 33205 H 2958.74 2.8291 1.57302 0
M  V30 33206 H 2957.65 3.69641 -0.575876 0
M  V30 33207 H 2958.98 4.86633 -0.738215 0
M  V30 33208 N 2960.63 0.47718 1.50202 0
M  V30 33209 C 2961.88 -0.0758151 2.02658 0
M  V30 33210 C 2962.21 -1.38822 1.35802 0
M  V30 33211 O 2961.49 -1.88337 0.485729 0
M  V30 33212 C 2961.77 -0.253275 3.59208 0
M  V30 33213 C 2961.62 1.08057 4.36628 0
M  V30 33214 C 2962.94 -1.00501 4.28471 0
M  V30 33215 H 2960.06 -0.0260791 0.736538 0
M  V30 33216 H 2962.7 0.623956 1.79462 0
M  V30 33217 H 2960.85 -0.849312 3.79103 0
M  V30 33218 H 2962.53 1.71366 4.28289 0
M  V30 33219 H 2960.77 1.67573 4.00127 0
M  V30 33220 H 2961.44 0.909978 5.44448 0
M  V30 33221 H 2963.92 -0.499745 4.13088 0
M  V30 33222 H 2962.79 -1.09799 5.37806 0
M  V30 33223 H 2963.05 -2.04307 3.9206 0
M  V30 33224 N 2962.11 -1.56194 0.210027 0
M  V30 33225 C 2963.08 -2.1853 -0.691193 0
M  V30 33226 C 2964.08 -1.1439 -1.13011 0
M  V30 33227 O 2965.27 -1.3969 -1.04078 0
M  V30 33228 C 2962.4 -2.79937 -1.94546 0
M  V30 33229 H 2963.59 -2.99535 -0.1479 0
M  V30 33230 H 2961.14 -1.5625 -0.0395968 0
M  V30 33231 H 2961.88 -2.02771 -2.5309 0
M  V30 33232 H 2961.66 -3.56187 -1.63931 0
M  V30 33233 H 2963.15 -3.27755 -2.58779 0
M  V30 33234 N 2963.59 0.0634645 -1.57472 0
M  V30 33235 C 2964.82 0.777526 -1.92274 0
M  V30 33236 C 2965.24 1.69901 -0.807171 0
M  V30 33237 O 2964.6 1.79711 0.239491 0
M  V30 33238 C 2964.65 1.54011 -3.26057 0
M  V30 33239 O 2963.75 2.65133 -3.15877 0
M  V30 33240 H 2963.09 0.211568 -0.629393 0
M  V30 33241 H 2965.62 0.0292164 -2.04579 0
M  V30 33242 H 2965.63 1.91756 -3.6013 0
M  V30 33243 H 2964.31 0.864057 -4.06825 0
M  V30 33244 H 2962.88 2.30184 -2.93377 0
M  V30 33245 N 2965.07 1.53998 0.33504 0
M  V30 33246 C 2965.98 1.85587 1.43508 0
M  V30 33247 C 2966.99 0.746754 1.57161 0
M  V30 33248 O 2968.17 1.03991 1.72476 0
M  V30 33249 C 2965.24 2.0665 2.78382 0
M  V30 33250 C 2964.3 3.30487 2.74001 0
M  V30 33251 C 2963.53 3.50536 4.02443 0
M  V30 33252 O 2963.75 2.74251 5.00142 0
M  V30 33253 O 2962.69 4.43987 4.06398 0
M  V30 33254 H 2966.51 2.79105 1.19726 0
M  V30 33255 H 2964.1 1.39758 0.528009 0
M  V30 33256 H 2965.98 2.21901 3.58243 0
M  V30 33257 H 2964.65 1.16322 3.02078 0
M  V30 33258 H 2963.56 3.20633 1.92731 0
M  V30 33259 H 2964.89 4.20837 2.5526 0
M  V30 33260 N 2966.55 -0.596505 1.45875 0
M  V30 33261 C 2967.8 -1.35133 1.4974 0
M  V30 33262 C 2968.11 -1.95041 0.147789 0
M  V30 33263 O 2969.31 -2.71424 0.0641461 0
M  V30 33264 C 2967.77 -2.44839 2.63784 0
M  V30 33265 C 2967.38 -1.91294 4.05106 0
M  V30 33266 C 2969.12 -3.21751 2.76906 0
M  V30 33267 C 2967.03 -2.98548 5.10513 0
M  V30 33268 H 2965.96 -0.507949 0.557228 0
M  V30 33269 H 2968.61 -0.638117 1.72047 0
M  V30 33270 H 2966.99 -3.18896 2.3478 0
M  V30 33271 H 2968.17 -1.23872 4.43838 0
M  V30 33272 H 2966.48 -1.27093 3.9653 0
M  V30 33273 H 2969.08 -4.01769 3.52826 0
M  V30 33274 H 2969.42 -3.73464 1.83931 0
M  V30 33275 H 2969.95 -2.54797 3.05489 0
M  V30 33276 H 2966.69 -2.51738 6.05234 0
M  V30 33277 H 2966.21 -3.64501 4.76339 0
M  V30 33278 H 2967.89 -3.62739 5.35751 0
M  V30 33279 N 2968.02 -1.3335 -0.839967 0
M  V30 33280 C 2968.96 -1.19347 -1.95675 0
M  V30 33281 C 2969.97 -0.124721 -1.62322 0
M  V30 33282 O 2971.16 -0.375042 -1.74516 0
M  V30 33283 C 2968.26 -0.807829 -3.29131 0
M  V30 33284 C 2967.43 -1.96799 -3.90626 0
M  V30 33285 C 2966.49 -1.5635 -5.02435 0
M  V30 33286 O 2965.52 -2.27768 -5.21642 0
M  V30 33287 N 2966.72 -0.467869 -5.78611 0
M  V30 33288 H 2969.48 -2.15551 -2.08225 0
M  V30 33289 H 2967.04 -1.26081 -1.01564 0
M  V30 33290 H 2969.04 -0.519352 -4.01354 0
M  V30 33291 H 2967.61 0.0635001 -3.12535 0
M  V30 33292 H 2966.83 -2.42215 -3.11007 0
M  V30 33293 H 2968.11 -2.7443 -4.28446 0
M  V30 33294 H 2967.51 0.126225 -5.65559 0
M  V30 33295 H 2966.07 -0.23906 -6.51361 0
M  V30 33296 N 2969.5 1.05808 -1.16801 0
M  V30 33297 C 2970.91 1.60159 -0.959478 0
M  V30 33298 C 2971.26 1.89843 0.495396 0
M  V30 33299 O 2970.39 1.67549 1.36954 0
M  V30 33300 C 2970.98 2.90984 -1.73533 0
M  V30 33301 C 2969.54 3.42018 -1.57164 0
M  V30 33302 C 2968.69 2.1584 -1.74093 0
M  V30 33303 H 2971.64 0.886969 -1.316 0
M  V30 33304 H 2971.66 3.60613 -1.21404 0
M  V30 33305 H 2971.17 2.69348 -2.79416 0
M  V30 33306 H 2969.28 3.68704 -0.537425 0
M  V30 33307 H 2969.39 4.17018 -2.35866 0
M  V30 33308 H 2967.75 2.263 -1.16878 0
M  V30 33309 H 2968.54 1.96681 -2.81374 0
M  V30 33310 N 2970.98 0.967265 1.24426 0
M  V30 33311 C 2972.23 0.628914 1.92486 0
M  V30 33312 C 2972.56 -0.83584 1.75625 0
M  V30 33313 O 2971.81 -1.61673 1.10273 0
M  V30 33314 C 2972.11 0.949156 3.44566 0
M  V30 33315 C 2971.78 2.40198 3.81596 0
M  V30 33316 C 2970.44 2.79906 3.91415 0
M  V30 33317 C 2972.79 3.34488 3.99709 0
M  V30 33318 C 2970.12 4.12947 4.16764 0
M  V30 33319 C 2972.47 4.67156 4.26554 0
M  V30 33320 C 2971.13 5.06642 4.34592 0
M  V30 33321 H 2970.4 0.230136 0.704357 0
M  V30 33322 H 2973.05 1.21867 1.47718 0
M  V30 33323 H 2971.36 0.277154 3.90818 0
M  V30 33324 H 2973.05 0.665762 3.95435 0
M  V30 33325 H 2969.64 2.08408 3.74518 0
M  V30 33326 H 2973.83 3.04994 3.91525 0
M  V30 33327 H 2969.08 4.43165 4.21206 0
M  V30 33328 H 2973.26 5.40186 4.39513 0
M  V30 33329 H 2970.88 6.09754 4.53987 0
M  V30 33330 N 2972.46 -1.39288 0.737328 0
M  V30 33331 C 2973.39 -2.33221 0.114029 0
M  V30 33332 C 2974.37 -1.54032 -0.721668 0
M  V30 33333 O 2975.56 -1.82416 -0.666174 0
M  V30 33334 C 2972.69 -3.38143 -0.792259 0
M  V30 33335 C 2971.64 -4.27957 -0.0605426 0
M  V30 33336 C 2970.97 -5.23597 -1.084 0
M  V30 33337 C 2972.27 -5.10623 1.09826 0
M  V30 33338 H 2973.96 -2.85595 0.898661 0
M  V30 33339 H 2971.51 -1.37317 0.433595 0
M  V30 33340 H 2973.46 -4.02809 -1.23786 0
M  V30 33341 H 2972.18 -2.84214 -1.60903 0
M  V30 33342 H 2970.84 -3.64774 0.365457 0
M  V30 33343 H 2970.49 -4.65963 -1.8944 0
M  V30 33344 H 2970.19 -5.84537 -0.599166 0
M  V30 33345 H 2971.71 -5.9114 -1.52925 0
M  V30 33346 H 2973.13 -5.68621 0.730992 0
M  V30 33347 H 2971.52 -5.80717 1.51288 0
M  V30 33348 H 2972.59 -4.45318 1.91886 0
M  V30 33349 N 2973.94 -0.485139 -1.49947 0
M  V30 33350 C 2975.35 -0.140124 -1.58984 0
M  V30 33351 C 2975.55 1.35435 -1.49196 0
M  V30 33352 O 2974.61 2.12892 -1.35769 0
M  V30 33353 C 2975.92 -0.702821 -2.92371 0
M  V30 33354 C 2977.47 -0.667503 -3.058 0
M  V30 33355 C 2977.95 -1.20799 -4.41782 0
M  V30 33356 N 2979.44 -1.168 -4.48232 0
M  V30 33357 C 2980.17 -1.55656 -5.51869 0
M  V30 33358 N 2979.67 -2.02028 -6.62689 0
M  V30 33359 N 2981.46 -1.47171 -5.42492 0
M  V30 33360 H 2973.61 -1.45696 -1.54552 0
M  V30 33361 H 2975.87 -0.603372 -0.731195 0
M  V30 33362 H 2975.58 -1.75031 -3.05053 0
M  V30 33363 H 2975.45 -0.154271 -3.76884 0
M  V30 33364 H 2977.84 0.371105 -2.92757 0
M  V30 33365 H 2977.92 -1.25302 -2.23009 0
M  V30 33366 H 2977.57 -2.2453 -4.55575 0
M  V30 33367 H 2977.5 -0.598556 -5.23187 0
M  V30 33368 H 2979.99 -0.828047 -3.68716 0
M  V30 33369 H 2980.3 -2.29788 -7.37846 0
M  V30 33370 H 2978.65 -2.05991 -6.63772 0
M  V30 33371 H 2981.84 -1.10773 -4.54804 0
M  V30 33372 H 2982.01 -1.77777 -6.23137 0
M  V30 33373 N 2975.42 1.56081 -0.218307 0
M  V30 33374 C 2976.66 1.97826 0.413454 0
M  V30 33375 C 2976.98 1.1071 1.60525 0
M  V30 33376 O 2976.25 0.183413 1.9504 0
M  V30 33377 H 2974.83 0.730584 0.155744 0
M  V30 33378 H 2977.5 1.92412 -0.310447 0
M  V30 33379 H 2976.59 3.03152 0.741971 0
M  V30 33380 N 2976.89 -0.0551124 1.57504 0
M  V30 33381 C 2977.86 -1.04817 2.03828 0
M  V30 33382 C 2978.86 -1.30608 0.937991 0
M  V30 33383 O 2980.05 -1.26048 1.2024 0
M  V30 33384 C 2977.18 -2.38771 2.43313 0
M  V30 33385 H 2978.37 -0.648548 2.92803 0
M  V30 33386 H 2975.92 -0.301288 1.53369 0
M  V30 33387 H 2976.66 -2.83533 1.57415 0
M  V30 33388 H 2976.44 -2.21389 3.23619 0
M  V30 33389 H 2977.93 -3.10119 2.79671 0
M  V30 33390 N 2978.37 -1.54173 -0.326869 0
M  V30 33391 C 2979.62 -1.7188 -1.0631 0
M  V30 33392 C 2979.94 -0.493531 -1.88651 0
M  V30 33393 O 2979.21 0.492489 -1.89608 0
M  V30 33394 H 2977.79 -0.633723 -0.395479 0
M  V30 33395 H 2980.45 -1.91469 -0.364105 0
M  V30 33396 H 2979.55 -2.59697 -1.73101 0
M  V30 33397 N 2979.85 0.58876 -1.4619 0
M  V30 33398 C 2981.07 1.37823 -1.54982 0
M  V30 33399 C 2981.5 1.87143 -0.189531 0
M  V30 33400 O 2980.86 1.61223 0.829264 0
M  V30 33401 C 2980.91 2.54591 -2.55374 0
M  V30 33402 O 2980.01 3.55836 -2.08458 0
M  V30 33403 H 2979.35 0.410701 -0.521748 0
M  V30 33404 H 2981.88 0.714745 -1.9171 0
M  V30 33405 H 2981.89 3.01589 -2.74788 0
M  V30 33406 H 2980.57 2.18046 -3.54159 0
M  V30 33407 H 2979.14 3.15359 -1.99005 0
M  V30 33408 N 2981.33 1.33794 0.832883 0
M  V30 33409 C 2982.58 1.24935 1.58348 0
M  V30 33410 C 2982.89 -0.181669 1.94755 0
M  V30 33411 O 2984.1 -0.392328 2.6865 0
M  V30 33412 C 2982.55 2.18948 2.8564 0
M  V30 33413 C 2982.16 3.67252 2.56574 0
M  V30 33414 C 2983.9 2.18974 3.63663 0
M  V30 33415 C 2981.81 4.53162 3.79998 0
M  V30 33416 H 2980.74 0.464068 0.59427 0
M  V30 33417 H 2983.39 1.58896 0.917832 0
M  V30 33418 H 2981.77 1.77925 3.53778 0
M  V30 33419 H 2982.95 4.16751 1.9661 0
M  V30 33420 H 2981.26 3.69574 1.91844 0
M  V30 33421 H 2983.86 2.80387 4.55288 0
M  V30 33422 H 2984.2 1.18638 3.99037 0
M  V30 33423 H 2984.74 2.5839 3.02456 0
M  V30 33424 H 2981.47 5.54396 3.49751 0
M  V30 33425 H 2980.99 4.08403 4.3928 0
M  V30 33426 H 2982.67 4.67268 4.47515 0
M  V30 33427 N 2982.81 -1.05187 1.1736 0
M  V30 33428 C 2983.77 -2.11103 0.892641 0
M  V30 33429 C 2984.77 -1.60372 -0.117208 0
M  V30 33430 O 2985.96 -1.7382 0.114966 0
M  V30 33431 C 2983.09 -3.39229 0.337092 0
M  V30 33432 H 2984.28 -2.37461 1.83173 0
M  V30 33433 H 2981.84 -1.21432 0.984073 0
M  V30 33434 H 2982.57 -3.18528 -0.609142 0
M  V30 33435 H 2982.36 -3.77362 1.0649 0
M  V30 33436 H 2983.85 -4.17298 0.158836 0
M  V30 33437 N 2984.28 -0.97385 -1.23911 0
M  V30 33438 C 2985.53 -0.637851 -1.9177 0
M  V30 33439 C 2985.85 0.830404 -1.76435 0
M  V30 33440 O 2985.12 1.59337 -1.13968 0
M  V30 33441 H 2983.7 -0.232925 -0.709757 0
M  V30 33442 H 2986.36 -1.23625 -1.50675 0
M  V30 33443 H 2985.46 -0.883783 -2.99325 0
M  V30 33444 N 2985.76 1.38895 -0.744705 0
M  V30 33445 C 2986.72 2.28888 -0.11949 0
M  V30 33446 C 2987.72 1.46769 0.656916 0
M  V30 33447 O 2988.91 1.67327 0.484496 0
M  V30 33448 C 2986.05 3.304 0.839577 0
M  V30 33449 H 2987.24 2.85682 -0.912464 0
M  V30 33450 H 2984.79 1.47706 -0.511145 0
M  V30 33451 H 2985.53 2.7868 1.65855 0
M  V30 33452 H 2985.31 3.9106 0.285364 0
M  V30 33453 H 2986.8 3.97715 1.2733 0
M  V30 33454 N 2987.24 0.493084 1.49688 0
M  V30 33455 C 2988.47 -0.053475 2.07331 0
M  V30 33456 C 2988.89 -1.30779 1.35198 0
M  V30 33457 O 2988.25 -1.76689 0.406277 0
M  V30 33458 C 2988.3 -0.298187 3.59365 0
M  V30 33459 O 2987.4 -1.37447 3.88821 0
M  V30 33460 H 2986.74 0.0227134 0.663611 0
M  V30 33461 H 2989.27 0.690436 1.92598 0
M  V30 33462 H 2989.28 -0.532088 4.04516 0
M  V30 33463 H 2987.96 0.618279 4.11279 0
M  V30 33464 H 2986.53 -1.12615 3.55489 0
M  V30 33465 N 2988.72 -1.55963 0.226582 0
M  V30 33466 C 2989.68 -2.1925 -0.667976 0
M  V30 33467 C 2990.68 -1.15582 -1.11792 0
M  V30 33468 O 2991.87 -1.40786 -1.02591 0
M  V30 33469 C 2989 -2.81985 -1.91566 0
M  V30 33470 H 2990.2 -2.99675 -0.116122 0
M  V30 33471 H 2987.75 -1.56283 -0.0230222 0
M  V30 33472 H 2988.48 -2.05444 -2.50925 0
M  V30 33473 H 2988.27 -3.57905 -1.60144 0
M  V30 33474 H 2989.76 -3.30481 -2.55288 0
M  V30 33475 N 2990.2 0.0467589 -1.57531 0
M  V30 33476 C 2991.42 0.757089 -1.93088 0
M  V30 33477 C 2991.85 1.69035 -0.825146 0
M  V30 33478 O 2991.2 1.79955 0.220417 0
M  V30 33479 C 2991.25 1.50544 -3.27672 0
M  V30 33480 O 2990.36 2.61767 -3.18672 0
M  V30 33481 H 2989.7 0.204881 -0.631601 0
M  V30 33482 H 2992.23 0.00751636 -2.04599 0
M  V30 33483 H 2992.24 1.87926 -3.62143 0
M  V30 33484 H 2990.91 0.820859 -4.07719 0
M  V30 33485 H 2989.49 2.27059 -2.95802 0
M  V30 33486 N 2991.67 1.54344 0.318688 0
M  V30 33487 C 2993.09 1.63968 0.892821 0
M  V30 33488 C 2993.44 0.536888 1.88711 0
M  V30 33489 O 2992.56 -0.329419 2.13878 0
M  V30 33490 C 2993.16 2.97225 1.62613 0
M  V30 33491 C 2991.72 3.09028 2.14892 0
M  V30 33492 C 2990.86 2.59562 0.975863 0
M  V30 33493 H 2993.81 1.58409 0.0961409 0
M  V30 33494 H 2993.83 2.87658 2.49065 0
M  V30 33495 H 2993.35 3.77467 0.902219 0
M  V30 33496 H 2991.45 2.3347 2.90383 0
M  V30 33497 H 2991.56 4.14908 2.39558 0
M  V30 33498 H 2989.92 2.15577 1.35642 0
M  V30 33499 H 2990.71 3.42266 0.266193 0
M  V30 33500 N 2993.15 -0.580999 1.465 0
M  V30 33501 C 2994.1 -1.68994 1.57193 0
M  V30 33502 C 2995.07 -1.60803 0.416143 0
M  V30 33503 O 2996.25 -1.7999 0.633118 0
M  V30 33504 C 2993.39 -3.0733 1.56978 0
M  V30 33505 C 2992.51 -3.26134 2.83303 0
M  V30 33506 C 2991.64 -4.54729 2.74582 0
M  V30 33507 C 2990.68 -4.66882 3.95838 0
M  V30 33508 N 2989.82 -5.86805 3.85493 0
M  V30 33509 H 2994.66 -1.59192 2.51917 0
M  V30 33510 H 2992.2 -0.775835 1.24977 0
M  V30 33511 H 2994.15 -3.87402 1.54839 0
M  V30 33512 H 2992.78 -3.16025 0.657858 0
M  V30 33513 H 2991.84 -2.39654 2.95415 0
M  V30 33514 H 2993.15 -3.30981 3.73166 0
M  V30 33515 H 2992.3 -5.43032 2.70558 0
M  V30 33516 H 2991.04 -4.52322 1.82362 0
M  V30 33517 H 2990.05 -3.76996 4.00192 0
M  V30 33518 H 2991.27 -4.71066 4.89156 0
M  V30 33519 H 2989.22 -5.85392 2.96061 0
M  V30 33520 H 2989.13 -5.92928 4.69012 0
M  V30 33521 H 2990.4 -6.77533 3.85446 0
M  V30 33522 N 2994.63 -1.34234 -0.825776 0
M  V30 33523 C 2995.54 -1.27641 -1.96837 0
M  V30 33524 C 2996.56 -0.184599 -1.73018 0
M  V30 33525 O 2997.73 -0.410559 -1.97171 0
M  V30 33526 C 2994.8 -1.02885 -3.31083 0
M  V30 33527 C 2993.86 -2.21194 -3.67929 0
M  V30 33528 C 2993.09 -1.97609 -4.95768 0
M  V30 33529 O 2993.31 -0.932909 -5.62719 0
M  V30 33530 O 2992.25 -2.84486 -5.30426 0
M  V30 33531 H 2996.07 -2.23759 -2.05342 0
M  V30 33532 H 2993.66 -1.14411 -0.960752 0
M  V30 33533 H 2995.54 -0.908478 -4.11491 0
M  V30 33534 H 2994.22 -0.098039 -3.23552 0
M  V30 33535 H 2993.12 -2.38789 -2.87977 0
M  V30 33536 H 2994.46 -3.12655 -3.80142 0
M  V30 33537 N 2996.11 1.04563 -1.17917 0
M  V30 33538 C 2997.06 2.1246 -0.901642 0
M  V30 33539 C 2998.03 1.65357 0.156982 0
M  V30 33540 O 2999.21 1.90791 0.0184158 0
M  V30 33541 C 2996.35 3.42435 -0.42802 0
M  V30 33542 C 2995.46 4.03178 -1.55149 0
M  V30 33543 C 2994.6 5.21097 -1.0311 0
M  V30 33544 C 2993.64 5.73859 -2.1296 0
M  V30 33545 N 2992.77 6.83071 -1.62351 0
M  V30 33546 H 2997.61 2.35537 -1.82555 0
M  V30 33547 H 2995.15 1.15542 -0.910409 0
M  V30 33548 H 2997.11 4.16982 -0.134932 0
M  V30 33549 H 2995.74 3.19521 0.458921 0
M  V30 33550 H 2994.79 3.26008 -1.96017 0
M  V30 33551 H 2996.1 4.38371 -2.37976 0
M  V30 33552 H 2995.26 6.02738 -0.692238 0
M  V30 33553 H 2994 4.87395 -0.172356 0
M  V30 33554 H 2993 4.90843 -2.47696 0
M  V30 33555 H 2994.23 6.09606 -2.99261 0
M  V30 33556 H 2992.17 6.51255 -0.787578 0
M  V30 33557 H 2992.09 7.17301 -2.38779 0
M  V30 33558 H 2993.36 7.68349 -1.31377 0
M  V30 33559 N 2997.59 0.980408 1.23393 0
M  V30 33560 C 2998.82 0.666353 1.95559 0
M  V30 33561 C 2999.22 -0.770784 1.72788 0
M  V30 33562 O 2998.57 -1.53031 1.01623 0
M  V30 33563 C 2998.63 0.876887 3.48642 0
M  V30 33564 C 2998.29 2.29609 3.95131 0
M  V30 33565 C 2999.29 3.27477 4.03801 0
M  V30 33566 C 2996.98 2.62719 4.28117 0
M  V30 33567 C 2998.97 4.56534 4.4481 0
M  V30 33568 C 2996.66 3.91998 4.68808 0
M  V30 33569 C 2997.65 4.88717 4.77121 0
M  V30 33570 O 2997.34 6.15689 5.16897 0
M  V30 33571 H 2997.07 0.246596 0.629417 0
M  V30 33572 H 2999.63 1.31441 1.57837 0
M  V30 33573 H 2997.86 0.171655 3.86319 0
M  V30 33574 H 2999.55 0.559991 4.02019 0
M  V30 33575 H 3000.31 3.03228 3.7852 0
M  V30 33576 H 2996.19 1.88148 4.20858 0
M  V30 33577 H 2999.74 5.32026 4.51214 0
M  V30 33578 H 2995.63 4.16042 4.93537 0
M  V30 33579 H 2996.4 6.19441 5.35009 0
M  V30 33580 N 2999.06 -1.38498 0.75206 0
M  V30 33581 C 3000.29 -2.04963 0.317029 0
M  V30 33582 C 3000.71 -1.56348 -1.0458 0
M  V30 33583 O 3000.07 -0.714784 -1.66615 0
M  V30 33584 C 3000.12 -3.58924 0.347298 0
M  V30 33585 O 2999.22 -4.07097 -0.659224 0
M  V30 33586 H 2998.57 -0.64893 0.140664 0
M  V30 33587 H 3001.1 -1.77203 1.02276 0
M  V30 33588 H 3001.11 -4.07521 0.197642 0
M  V30 33589 H 2999.78 -3.93666 1.34164 0
M  V30 33590 H 2998.36 -3.69871 -0.474306 0
M  V30 33591 N 3000.54 -0.501015 -1.49424 0
M  V30 33592 C 3001.47 0.266734 -2.31972 0
M  V30 33593 C 3002.45 0.962538 -1.40247 0
M  V30 33594 O 3003.64 0.953938 -1.69156 0
M  V30 33595 C 3000.77 1.33157 -3.20759 0
M  V30 33596 C 2999.72 0.755646 -4.21277 0
M  V30 33597 C 2999.05 1.921 -4.99001 0
M  V30 33598 C 3000.35 -0.253304 -5.21685 0
M  V30 33599 H 3002.04 -0.422289 -2.96407 0
M  V30 33600 H 2999.59 -0.20453 -1.4254 0
M  V30 33601 H 3001.54 1.8764 -3.77319 0
M  V30 33602 H 3000.27 2.04978 -2.54266 0
M  V30 33603 H 2998.92 0.232573 -3.65862 0
M  V30 33604 H 2998.57 2.6269 -4.28956 0
M  V30 33605 H 2998.27 1.54172 -5.67014 0
M  V30 33606 H 2999.8 2.47016 -5.58404 0
M  V30 33607 H 3001.21 0.203382 -5.72939 0
M  V30 33608 H 2999.61 -0.548427 -5.97589 0
M  V30 33609 H 3000.68 -1.16918 -4.70594 0
M  V30 33610 N 3002.02 1.5584 -0.234849 0
M  V30 33611 C 3003.27 1.9894 0.393808 0
M  V30 33612 C 3003.6 1.12262 1.58464 0
M  V30 33613 O 3002.88 0.183277 1.93635 0
M  V30 33614 C 3003.16 3.50746 0.81543 0
M  V30 33615 C 3003.01 4.48192 -0.379957 0
M  V30 33616 C 3004.33 4.07315 1.6668 0
M  V30 33617 H 3001.45 0.723256 0.141668 0
M  V30 33618 H 3004.09 1.87046 -0.333749 0
M  V30 33619 H 3002.24 3.61012 1.43535 0
M  V30 33620 H 3003.91 4.49921 -1.01827 0
M  V30 33621 H 3002.16 4.21513 -1.02514 0
M  V30 33622 H 3002.83 5.51984 -0.0418039 0
M  V30 33623 H 3005.3 4.00076 1.14362 0
M  V30 33624 H 3004.18 5.13825 1.93069 0
M  V30 33625 H 3004.44 3.55021 2.63462 0
M  V30 33626 N 3003.5 -0.038404 1.57553 0
M  V30 33627 C 3004.41 -1.05906 2.09335 0
M  V30 33628 C 3005.43 -1.40245 1.02992 0
M  V30 33629 O 3006.6 -1.49752 1.34671 0
M  V30 33630 C 3003.67 -2.34382 2.55472 0
M  V30 33631 C 3002.73 -2.0671 3.76257 0
M  V30 33632 C 3001.96 -3.2906 4.20185 0
M  V30 33633 O 3002.18 -4.39401 3.63708 0
M  V30 33634 O 3001.12 -3.15308 5.12703 0
M  V30 33635 H 3004.94 -0.649035 2.96684 0
M  V30 33636 H 3002.53 -0.254776 1.47212 0
M  V30 33637 H 3004.41 -3.0993 2.85519 0
M  V30 33638 H 3003.09 -2.74698 1.71238 0
M  V30 33639 H 3001.99 -1.2876 3.51243 0
M  V30 33640 H 3003.33 -1.71255 4.61446 0
M  V30 33641 N 3004.98 -1.54511 -0.310498 0
M  V30 33642 C 3005.94 -1.84071 -1.36567 0
M  V30 33643 C 3006.94 -0.713122 -1.44122 0
M  V30 33644 O 3008.13 -0.981424 -1.43923 0
M  V30 33645 C 3005.26 -2.01248 -2.75159 0
M  V30 33646 H 3006.46 -2.7836 -1.11605 0
M  V30 33647 H 3004.01 -1.46428 -0.546674 0
M  V30 33648 H 3004.74 -1.09214 -3.05357 0
M  V30 33649 H 3004.53 -2.83311 -2.71067 0
M  V30 33650 H 3006.02 -2.2552 -3.51469 0
M  V30 33651 N 3006.46 0.573222 -1.46806 0
M  V30 33652 C 3007.4 1.68158 -1.58087 0
M  V30 33653 C 3008.37 1.6058 -0.424664 0
M  V30 33654 O 3009.56 1.79651 -0.642654 0
M  V30 33655 C 3006.7 3.06493 -1.58606 0
M  V30 33656 C 3005.81 3.24627 -2.85029 0
M  V30 33657 C 3004.95 4.53266 -2.76989 0
M  V30 33658 C 3003.98 4.64776 -3.98309 0
M  V30 33659 N 3003.12 5.84752 -3.88599 0
M  V30 33660 H 3007.96 1.57853 -2.52757 0
M  V30 33661 H 3005.5 0.769196 -1.25387 0
M  V30 33662 H 3007.46 3.86576 -1.56891 0
M  V30 33663 H 3006.09 3.15672 -0.674609 0
M  V30 33664 H 3005.14 2.38084 -2.96682 0
M  V30 33665 H 3006.45 3.28998 -3.74916 0
M  V30 33666 H 3005.6 5.41589 -2.73434 0
M  V30 33667 H 3004.34 4.51349 -1.84758 0
M  V30 33668 H 3003.35 3.74869 -4.02186 0
M  V30 33669 H 3004.57 4.68465 -4.91647 0
M  V30 33670 H 3002.52 5.83814 -2.99161 0
M  V30 33671 H 3002.44 5.90432 -4.7215 0
M  V30 33672 H 3003.7 6.7548 -3.89034 0
M  V30 33673 N 3007.93 1.3467 0.818645 0
M  V30 33674 C 3009.35 1.14445 1.11241 0
M  V30 33675 C 3009.55 -0.0511858 2.01435 0
M  V30 33676 O 3008.61 -0.725428 2.41855 0
M  V30 33677 C 3009.92 2.44173 1.755 0
M  V30 33678 C 3011.47 2.50268 1.87975 0
M  V30 33679 C 3011.94 3.80009 2.55651 0
M  V30 33680 N 3013.43 3.81193 2.63146 0
M  V30 33681 C 3014.17 4.78303 3.16249 0
M  V30 33682 N 3013.66 5.85797 3.69883 0
M  V30 33683 N 3015.46 4.65754 3.1469 0
M  V30 33684 H 3007.61 2.1127 0.218811 0
M  V30 33685 H 3009.87 0.934462 0.159639 0
M  V30 33686 H 3009.58 3.31777 1.16691 0
M  V30 33687 H 3009.45 2.57829 2.75325 0
M  V30 33688 H 3011.84 1.631 2.45931 0
M  V30 33689 H 3011.92 2.40536 0.870404 0
M  V30 33690 H 3011.56 4.67569 1.98347 0
M  V30 33691 H 3011.49 3.87025 3.57098 0
M  V30 33692 H 3013.98 3.03517 2.25135 0
M  V30 33693 H 3014.3 6.55905 4.08667 0
M  V30 33694 H 3012.64 5.89505 3.68115 0
M  V30 33695 H 3015.83 3.80922 2.72059 0
M  V30 33696 H 3016.01 5.41601 3.5577 0
M  V30 33697 N 3009.41 -1.03936 1.1847 0
M  V30 33698 C 3010.36 -2.11978 0.912897 0
M  V30 33699 C 3011.33 -1.65437 -0.148211 0
M  V30 33700 O 3012.51 -1.90798 -0.00829747 0
M  V30 33701 C 3009.65 -3.42204 0.446174 0
M  V30 33702 C 3008.77 -4.0235 1.57285 0
M  V30 33703 C 3007.9 -5.20543 1.05872 0
M  V30 33704 C 3006.94 -5.72722 2.16 0
M  V30 33705 N 3006.08 -6.82201 1.65971 0
M  V30 33706 H 3010.92 -2.34565 1.83802 0
M  V30 33707 H 3008.45 -1.15058 0.916524 0
M  V30 33708 H 3010.41 -4.16904 0.157044 0
M  V30 33709 H 3009.04 -3.1976 -0.441969 0
M  V30 33710 H 3008.09 -3.24964 1.97743 0
M  V30 33711 H 3009.41 -4.37103 2.40297 0
M  V30 33712 H 3008.56 -6.02362 0.724193 0
M  V30 33713 H 3007.3 -4.87297 0.198201 0
M  V30 33714 H 3006.3 -4.89522 2.50296 0
M  V30 33715 H 3007.53 -6.08011 3.0249 0
M  V30 33716 H 3005.48 -6.50828 0.822105 0
M  V30 33717 H 3005.39 -7.16024 2.4258 0
M  V30 33718 H 3006.66 -7.67642 1.3545 0
M  V30 33719 N 3010.89 -0.986938 -1.22871 0
M  V30 33720 C 3011.84 -0.532255 -2.24579 0
M  V30 33721 C 3012.81 0.432293 -1.60376 0
M  V30 33722 O 3013.99 0.338383 -1.87775 0
M  V30 33723 C 3011.13 0.152803 -3.44762 0
M  V30 33724 C 3010.24 -0.852779 -4.23499 0
M  V30 33725 C 3009.38 -0.141854 -5.31011 0
M  V30 33726 C 3008.42 -1.13621 -6.01462 0
M  V30 33727 N 3007.56 -0.453995 -7.00631 0
M  V30 33728 H 3012.4 -1.40433 -2.62836 0
M  V30 33729 H 3009.93 -0.703566 -1.29183 0
M  V30 33730 H 3011.89 0.566853 -4.13331 0
M  V30 33731 H 3010.52 0.988702 -3.07286 0
M  V30 33732 H 3009.57 -1.38518 -3.54284 0
M  V30 33733 H 3010.88 -1.61023 -4.72094 0
M  V30 33734 H 3010.04 0.329231 -6.05806 0
M  V30 33735 H 3008.78 0.648144 -4.83374 0
M  V30 33736 H 3007.78 -1.61798 -5.25454 0
M  V30 33737 H 3009.01 -1.92698 -6.51187 0
M  V30 33738 H 3006.95 0.316675 -6.55235 0
M  V30 33739 H 3006.87 -1.14999 -7.47202 0
M  V30 33740 H 3008.14 -0.00551525 -7.795 0
M  V30 33741 N 3012.37 1.38098 -0.759394 0
M  V30 33742 C 3013.3 2.3301 -0.151118 0
M  V30 33743 C 3014.28 1.55161 0.697072 0
M  V30 33744 O 3015.46 1.83453 0.637069 0
M  V30 33745 C 3012.59 3.3936 0.738364 0
M  V30 33746 C 3011.55 4.27999 -0.00754933 0
M  V30 33747 C 3010.87 5.25255 1.00057 0
M  V30 33748 C 3012.17 5.08811 -1.17935 0
M  V30 33749 H 3013.87 2.84129 -0.943983 0
M  V30 33750 H 3011.41 1.3661 -0.455386 0
M  V30 33751 H 3013.37 4.04727 1.17362 0
M  V30 33752 H 3012.09 2.86738 1.56361 0
M  V30 33753 H 3010.75 3.64146 -0.423443 0
M  V30 33754 H 3010.4 4.68918 1.82003 0
M  V30 33755 H 3010.1 5.85416 0.506096 0
M  V30 33756 H 3011.62 5.93498 1.43501 0
M  V30 33757 H 3013.04 5.67386 -0.821362 0
M  V30 33758 H 3011.43 5.78236 -1.60507 0
M  V30 33759 H 3012.5 4.42209 -1.98946 0
M  V30 33760 N 3013.85 0.508932 1.49156 0
M  V30 33761 C 3015.09 -0.03465 2.0167 0
M  V30 33762 C 3015.41 -1.37308 1.39305 0
M  V30 33763 O 3016.61 -2.00381 1.83193 0
M  V30 33764 C 3015.07 -0.112198 3.59725 0
M  V30 33765 C 3014.68 1.22007 4.31067 0
M  V30 33766 C 3016.42 -0.605724 4.20156 0
M  V30 33767 C 3014.33 1.10425 5.80999 0
M  V30 33768 H 3013.26 -0.0167222 0.753815 0
M  V30 33769 H 3015.91 0.649548 1.71619 0
M  V30 33770 H 3014.29 -0.861019 3.86526 0
M  V30 33771 H 3015.47 1.9828 4.15959 0
M  V30 33772 H 3013.78 1.64766 3.82415 0
M  V30 33773 H 3016.38 -0.710009 5.29965 0
M  V30 33774 H 3016.72 -1.60649 3.84054 0
M  V30 33775 H 3017.25 0.0867938 3.97705 0
M  V30 33776 H 3013.99 2.07952 6.2164 0
M  V30 33777 H 3013.51 0.382534 5.98579 0
M  V30 33778 H 3015.19 0.786229 6.42205 0
M  V30 33779 N 3015.32 -1.55714 0.243111 0
M  V30 33780 C 3016.55 -2.03702 -0.389908 0
M  V30 33781 C 3016.97 -1.12132 -1.51023 0
M  V30 33782 O 3016.33 -0.113551 -1.80944 0
M  V30 33783 C 3016.38 -3.49733 -0.878588 0
M  V30 33784 O 3015.48 -3.61296 -1.98845 0
M  V30 33785 H 3014.82 -0.658472 -0.0854999 0
M  V30 33786 H 3017.35 -2.01262 0.368059 0
M  V30 33787 H 3017.36 -3.90479 -1.1828 0
M  V30 33788 H 3016.04 -4.15859 -0.0587376 0
M  V30 33789 H 3014.62 -3.32445 -1.68922 0
M  V30 33790 N 3016.8 0.030048 -1.57571 0
M  V30 33791 C 3018.21 0.576771 -1.77568 0
M  V30 33792 C 3018.56 1.75655 -0.874065 0
M  V30 33793 O 3017.69 2.16291 -0.0686504 0
M  V30 33794 C 3018.28 1.0531 -3.22018 0
M  V30 33795 C 3016.84 1.54534 -3.43214 0
M  V30 33796 C 3015.99 0.482985 -2.73061 0
M  V30 33797 H 3018.94 -0.196178 -1.57483 0
M  V30 33798 H 3018.96 1.92049 -3.28477 0
M  V30 33799 H 3018.47 0.194229 -3.87614 0
M  V30 33800 H 3016.58 2.4261 -2.82792 0
M  V30 33801 H 3016.69 1.59352 -4.51823 0
M  V30 33802 H 3015.05 0.937793 -2.36807 0
M  V30 33803 H 3015.84 -0.366401 -3.41339 0
M  V30 33804 N 3018.28 1.54674 0.3023 0
M  V30 33805 C 3019.19 1.8859 1.39539 0
M  V30 33806 C 3020.21 0.779922 1.55542 0
M  V30 33807 O 3021.38 1.07626 1.70231 0
M  V30 33808 C 3018.45 2.12509 2.73936 0
M  V30 33809 C 3017.51 3.36225 2.66929 0
M  V30 33810 C 3016.74 3.58994 3.94917 0
M  V30 33811 O 3016.96 2.84798 4.94213 0
M  V30 33812 O 3015.9 4.52508 3.96889 0
M  V30 33813 H 3019.72 2.81581 1.13779 0
M  V30 33814 H 3017.31 1.40847 0.498245 0
M  V30 33815 H 3019.19 2.2945 3.53456 0
M  V30 33816 H 3017.87 1.22703 2.99542 0
M  V30 33817 H 3016.77 3.24649 1.85886 0
M  V30 33818 H 3018.11 4.26156 2.46276 0
M  V30 33819 N 3019.76 -0.565428 1.47108 0
M  V30 33820 C 3020.98 -1.3534 1.57155 0
M  V30 33821 C 3021.41 -1.86817 0.21928 0
M  V30 33822 O 3020.77 -1.62522 -0.80351 0
M  V30 33823 C 3020.81 -2.50496 2.59392 0
M  V30 33824 O 3019.92 -3.52474 2.14092 0
M  V30 33825 H 3019.26 -0.402348 0.528216 0
M  V30 33826 H 3021.79 -0.684155 1.92822 0
M  V30 33827 H 3021.8 -2.97179 2.79551 0
M  V30 33828 H 3020.47 -2.12384 3.57583 0
M  V30 33829 H 3019.05 -3.12153 2.03997 0
M  V30 33830 N 3021.24 -1.35102 -0.811492 0
M  V30 33831 C 3022.46 -1.31204 -1.59979 0
M  V30 33832 C 3022.88 0.111519 -1.8847 0
M  V30 33833 O 3022.24 1.06203 -1.48416 0
M  V30 33834 C 3022.29 -2.1119 -2.93396 0
M  V30 33835 O 3022.01 -3.47994 -2.66142 0
M  V30 33836 C 3023.51 -2.1482 -3.87772 0
M  V30 33837 H 3020.73 -0.450908 -0.496913 0
M  V30 33838 H 3023.27 -1.77884 -1.00883 0
M  V30 33839 H 3021.43 -1.68121 -3.49019 0
M  V30 33840 H 3021.84 -3.89478 -3.51294 0
M  V30 33841 H 3023.32 -2.75187 -4.78515 0
M  V30 33842 H 3023.79 -1.14563 -4.23995 0
M  V30 33843 H 3024.4 -2.58028 -3.38085 0
M  V30 33844 N 3022.71 1.03306 -1.19019 0
M  V30 33845 C 3023.96 1.76898 -0.991712 0
M  V30 33846 C 3024.29 1.88256 0.47678 0
M  V30 33847 O 3023.57 1.39627 1.35405 0
M  V30 33848 C 3023.85 3.19746 -1.65633 0
M  V30 33849 C 3023.7 3.16285 -3.19819 0
M  V30 33850 C 3025.02 4.18041 -1.37586 0
M  V30 33851 H 3022.14 0.642147 -0.361685 0
M  V30 33852 H 3024.78 1.20626 -1.46797 0
M  V30 33853 H 3022.93 3.67794 -1.25139 0
M  V30 33854 H 3024.61 2.76167 -3.69499 0
M  V30 33855 H 3022.85 2.54111 -3.51582 0
M  V30 33856 H 3023.52 4.1719 -3.61465 0
M  V30 33857 H 3026 3.78575 -1.72686 0
M  V30 33858 H 3024.87 5.16193 -1.86645 0
M  V30 33859 H 3025.13 4.4108 -0.300196 0
M  V30 33860 N 3024.19 0.99344 1.22346 0
M  V30 33861 C 3025.13 0.489112 2.22897 0
M  V30 33862 C 3026.1 -0.4509 1.56223 0
M  V30 33863 O 3027.29 -0.376319 1.84705 0
M  V30 33864 C 3024.41 -0.290887 3.37449 0
M  V30 33865 C 3023.46 0.595197 4.22326 0
M  V30 33866 S 3024.29 2.05081 4.94674 0
M  V30 33867 C 3025.45 1.28032 6.12665 0
M  V30 33868 H 3025.68 1.34116 2.65331 0
M  V30 33869 H 3023.22 0.800452 1.32031 0
M  V30 33870 H 3025.17 -0.734873 4.03869 0
M  V30 33871 H 3023.83 -1.11821 2.93521 0
M  V30 33872 H 3023.03 -0.00498554 5.04 0
M  V30 33873 H 3022.63 0.97597 3.61041 0
M  V30 33874 H 3024.92 0.548248 6.75278 0
M  V30 33875 H 3025.86 2.07235 6.77096 0
M  V30 33876 H 3026.27 0.793371 5.58897 0
M  V30 33877 N 3025.67 -1.37693 0.766707 0
M  V30 33878 C 3026.6 -2.32927 0.163473 0
M  V30 33879 C 3027.58 -1.55528 -0.688834 0
M  V30 33880 O 3028.77 -1.83788 -0.627331 0
M  V30 33881 C 3025.9 -3.39747 -0.720356 0
M  V30 33882 C 3024.85 -4.27989 0.0302471 0
M  V30 33883 C 3024.18 -5.25778 -0.972696 0
M  V30 33884 C 3025.48 -5.08178 1.20632 0
M  V30 33885 H 3027.17 -2.83624 0.959038 0
M  V30 33886 H 3024.72 -1.36366 0.462625 0
M  V30 33887 H 3026.67 -4.05344 -1.15214 0
M  V30 33888 H 3025.39 -2.87563 -1.54839 0
M  V30 33889 H 3024.05 -3.63917 0.442749 0
M  V30 33890 H 3023.7 -4.69876 -1.79514 0
M  V30 33891 H 3023.4 -5.85677 -0.475043 0
M  V30 33892 H 3024.92 -5.94251 -1.40352 0
M  V30 33893 H 3026.34 -5.66942 0.85144 0
M  V30 33894 H 3024.74 -5.77377 1.63572 0
M  V30 33895 H 3025.81 -4.41147 2.01288 0
M  V30 33896 N 3027.15 -0.516835 -1.48884 0
M  V30 33897 C 3028.08 0.242116 -2.32241 0
M  V30 33898 C 3029.06 0.947609 -1.4126 0
M  V30 33899 O 3030.24 0.935943 -1.70158 0
M  V30 33900 C 3027.37 1.29748 -3.22153 0
M  V30 33901 C 3026.33 0.710921 -4.22054 0
M  V30 33902 C 3025.65 1.86797 -5.0101 0
M  V30 33903 C 3026.95 -0.308622 -5.21387 0
M  V30 33904 H 3028.65 -0.453703 -2.95942 0
M  V30 33905 H 3026.19 -0.219637 -1.42315 0
M  V30 33906 H 3028.15 1.83627 -3.79288 0
M  V30 33907 H 3026.87 2.0227 -2.56426 0
M  V30 33908 H 3025.53 0.193755 -3.66088 0
M  V30 33909 H 3025.18 2.58126 -4.31718 0
M  V30 33910 H 3024.88 1.48149 -5.68617 0
M  V30 33911 H 3026.4 2.4108 -5.60993 0
M  V30 33912 H 3027.82 0.142603 -5.73123 0
M  V30 33913 H 3026.21 -0.611778 -5.96973 0
M  V30 33914 H 3027.28 -1.21902 -4.69327 0
M  V30 33915 N 3028.63 1.55583 -0.251365 0
M  V30 33916 C 3029.54 2.25214 0.656939 0
M  V30 33917 C 3030.55 1.26979 1.18964 0
M  V30 33918 O 3031.73 1.59864 1.22496 0
M  V30 33919 C 3028.79 2.94144 1.83522 0
M  V30 33920 C 3027.85 4.078 1.34155 0
M  V30 33921 C 3027.09 4.73433 2.46366 0
M  V30 33922 O 3027.31 4.38163 3.65197 0
M  V30 33923 O 3026.24 5.61857 2.15871 0
M  V30 33924 H 3030.07 3.03556 0.0935862 0
M  V30 33925 H 3027.66 1.49387 -0.01969 0
M  V30 33926 H 3029.54 3.37545 2.52273 0
M  V30 33927 H 3028.21 2.18739 2.3861 0
M  V30 33928 H 3027.12 3.68907 0.621184 0
M  V30 33929 H 3028.45 4.85036 0.836694 0
M  V30 33930 N 3030.1 -0.0216912 1.57585 0
M  V30 33931 C 3031.07 -1.0047 2.06006 0
M  V30 33932 C 3032.07 -1.28589 0.965483 0
M  V30 33933 O 3033.26 -1.23469 1.22886 0
M  V30 33934 C 3030.39 -2.33556 2.48323 0
M  V30 33935 H 3031.58 -0.586295 2.94113 0
M  V30 33936 H 3029.14 -0.268689 1.53973 0
M  V30 33937 H 3029.87 -2.8013 1.63394 0
M  V30 33938 H 3029.66 -2.14475 3.28242 0
M  V30 33939 H 3031.15 -3.04117 2.86186 0
M  V30 33940 N 3031.58 -1.54832 -0.294093 0
M  V30 33941 C 3032.52 -1.82642 -1.38473 0
M  V30 33942 C 3033.53 -0.70972 -1.46516 0
M  V30 33943 O 3034.72 -0.987296 -1.4871 0
M  V30 33944 C 3031.82 -1.95556 -2.76787 0
M  V30 33945 C 3030.99 -3.26025 -2.91593 0
M  V30 33946 C 3030.05 -3.29268 -4.1045 0
M  V30 33947 O 3029.08 -4.02763 -4.02207 0
M  V30 33948 N 3030.28 -2.55154 -5.21418 0
M  V30 33949 H 3033.04 -2.76771 -1.14969 0
M  V30 33950 H 3030.6 -1.54491 -0.484178 0
M  V30 33951 H 3032.6 -1.9512 -3.54557 0
M  V30 33952 H 3031.17 -1.0839 -2.93207 0
M  V30 33953 H 3030.39 -3.39177 -2.0088 0
M  V30 33954 H 3031.67 -4.12109 -2.98402 0
M  V30 33955 H 3031.07 -1.95087 -5.30997 0
M  V30 33956 H 3029.63 -2.60464 -5.97496 0
M  V30 33957 N 3033.06 0.557619 -1.47405 0
M  V30 33958 C 3034.02 1.64681 -1.59413 0
M  V30 33959 C 3035.02 1.538 -0.469271 0
M  V30 33960 O 3036.21 1.57966 -0.734326 0
M  V30 33961 C 3033.35 3.04221 -1.53825 0
M  V30 33962 H 3034.54 1.55384 -2.56507 0
M  V30 33963 H 3032.09 0.777507 -1.3559 0
M  V30 33964 H 3032.83 3.19052 -0.581056 0
M  V30 33965 H 3032.61 3.13528 -2.35462 0
M  V30 33966 H 3034.1 3.83463 -1.65365 0
M  V30 33967 N 3034.54 1.35531 0.804316 0
M  V30 33968 C 3035.5 1.28507 1.89786 0
M  V30 33969 C 3036.5 0.196011 1.59601 0
M  V30 33970 O 3037.69 0.449857 1.68291 0
M  V30 33971 C 3034.82 0.988527 3.26253 0
M  V30 33972 H 3036.02 2.25744 1.97432 0
M  V30 33973 H 3033.57 1.20087 1.00044 0
M  V30 33974 H 3034.31 0.0201111 3.24294 0
M  V30 33975 H 3034.09 1.77647 3.49548 0
M  V30 33976 H 3035.58 0.965046 4.06296 0
M  V30 33977 N 3036.02 -1.02674 1.19565 0
M  V30 33978 C 3037.25 -1.79731 1.02492 0
M  V30 33979 C 3037.66 -1.83925 -0.42627 0
M  V30 33980 O 3037.02 -1.28485 -1.29606 0
M  V30 33981 C 3037.07 -3.2468 1.58949 0
M  V30 33982 O 3036.79 -3.20774 2.98388 0
M  V30 33983 C 3038.29 -4.18327 1.46688 0
M  V30 33984 H 3035.51 -0.565546 0.361108 0
M  V30 33985 H 3038.05 -1.29309 1.58428 0
M  V30 33986 H 3036.21 -3.72285 1.07156 0
M  V30 33987 H 3036.62 -4.11681 3.2499 0
M  V30 33988 H 3038.1 -5.17914 1.90968 0
M  V30 33989 H 3038.57 -4.37209 0.41774 0
M  V30 33990 H 3039.18 -3.76597 1.97623 0
M  V30 33991 N 3037.5 -0.999914 -1.21817 0
M  V30 33992 C 3038.74 -0.678385 -1.90374 0
M  V30 33993 C 3039.06 0.792792 -1.78157 0
M  V30 33994 O 3038.33 1.56883 -1.17322 0
M  V30 33995 H 3036.91 -0.247927 -0.704657 0
M  V30 33996 H 3039.58 -1.26793 -1.48019 0
M  V30 33997 H 3038.67 -0.947076 -2.97383 0
M  V30 33998 N 3038.97 1.37284 -0.773999 0
M  V30 33999 C 3040.22 1.99242 -0.338671 0
M  V30 34000 C 3040.54 1.61748 1.08916 0
M  V30 34001 O 3039.81 0.884001 1.74821 0
M  V30 34002 H 3038.39 0.736932 -0.122233 0
M  V30 34003 H 3041.05 1.67729 -0.992624 0
M  V30 34004 H 3040.15 3.09287 -0.418109 0
M  V30 34005 N 3040.45 0.524724 1.48608 0
M  V30 34006 C 3041.7 -0.0132582 2.01696 0
M  V30 34007 C 3042.01 -1.35823 1.40753 0
M  V30 34008 O 3043.22 -1.98427 1.85308 0
M  V30 34009 C 3041.68 -0.074038 3.59824 0
M  V30 34010 C 3041.28 1.26572 4.29748 0
M  V30 34011 C 3043.03 -0.561126 4.20775 0
M  V30 34012 C 3040.93 1.16581 5.79796 0
M  V30 34013 H 3039.86 -0.00872605 0.75395 0
M  V30 34014 H 3042.52 0.667714 1.70921 0
M  V30 34015 H 3040.9 -0.819975 3.87418 0
M  V30 34016 H 3042.07 2.02681 4.13832 0
M  V30 34017 H 3040.39 1.68813 3.80646 0
M  V30 34018 H 3042.98 -0.653759 5.30688 0
M  V30 34019 H 3043.33 -1.56566 3.85736 0
M  V30 34020 H 3043.86 0.128971 3.97591 0
M  V30 34021 H 3040.6 2.14534 6.19399 0
M  V30 34022 H 3040.12 0.445999 5.9814 0
M  V30 34023 H 3041.8 0.854299 6.41335 0
M  V30 34024 N 3041.93 -1.55447 0.259613 0
M  V30 34025 C 3043.18 -1.98423 -0.362128 0
M  V30 34026 C 3043.49 -1.15123 -1.58133 0
M  V30 34027 O 3044.7 -1.4817 -2.27504 0
M  V30 34028 C 3043.15 -3.53113 -0.69566 0
M  V30 34029 C 3042.76 -4.45169 0.502862 0
M  V30 34030 C 3044.51 -4.04714 -1.28089 0
M  V30 34031 C 3042.41 -5.91223 0.144778 0
M  V30 34032 H 3041.34 -0.741062 -0.139079 0
M  V30 34033 H 3043.99 -1.79897 0.36183 0
M  V30 34034 H 3042.38 -3.6738 -1.4781 0
M  V30 34035 H 3043.55 -4.42665 1.28001 0
M  V30 34036 H 3041.86 -4.04118 1.00388 0
M  V30 34037 H 3044.46 -5.11366 -1.56234 0
M  V30 34038 H 3044.8 -3.52819 -2.20962 0
M  V30 34039 H 3045.34 -3.93823 -0.561077 0
M  V30 34040 H 3042.08 -6.47181 1.04099 0
M  V30 34041 H 3041.6 -5.96832 -0.595918 0
M  V30 34042 H 3043.28 -6.46442 -0.268537 0
M  V30 34043 N 3043.41 0.0133338 -1.57594 0
M  V30 34044 C 3044.68 0.737241 -1.81174 0
M  V30 34045 C 3045.06 1.92724 -0.861429 0
M  V30 34046 O 3044.41 2.28311 0.0928923 0
M  V30 34047 C 3044.62 1.15551 -3.29316 0
M  V30 34048 C 3045.97 1.56491 -3.9471 0
M  V30 34049 O 3046.99 1.24967 -3.33559 0
M  V30 34050 O 3045.85 2.1506 -5.02406 0
M  V30 34051 H 3042.95 0.357824 -0.745581 0
M  V30 34052 H 3045.49 -0.0110972 -1.69696 0
M  V30 34053 H 3044.27 0.306702 -3.90096 0
M  V30 34054 H 3043.89 1.96337 -3.45742 0
M  V30 34055 N 3044.89 1.54985 0.285878 0
M  V30 34056 C 3046.3 1.65825 0.85784 0
M  V30 34057 C 3046.65 0.576796 1.8753 0
M  V30 34058 O 3045.77 -0.283978 2.14529 0
M  V30 34059 C 3046.37 3.00607 1.56272 0
M  V30 34060 C 3044.93 3.13517 2.08288 0
M  V30 34061 C 3044.07 2.61573 0.920587 0
M  V30 34062 H 3047.02 1.58577 0.0625184 0
M  V30 34063 H 3047.05 2.92876 2.42907 0
M  V30 34064 H 3046.56 3.79296 0.82195 0
M  V30 34065 H 3044.66 2.39577 2.85366 0
M  V30 34066 H 3044.77 4.19896 2.30703 0
M  V30 34067 H 3043.14 2.18405 1.31039 0
M  V30 34068 H 3043.92 3.42754 0.193533 0
M  V30 34069 N 3046.36 -0.549794 1.47699 0
M  V30 34070 C 3047.31 -1.65192 1.57148 0
M  V30 34071 C 3048.3 -1.55051 0.429866 0
M  V30 34072 O 3049.49 -1.63408 0.680209 0
M  V30 34073 C 3046.62 -3.03957 1.59578 0
M  V30 34074 C 3045.71 -3.19274 2.7915 0
M  V30 34075 N 3046.1 -3.04631 4.03774 0
M  V30 34076 C 3044.39 -3.5029 2.76067 0
M  V30 34077 C 3045.1 -3.22836 4.83892 0
M  V30 34078 N 3044.07 -3.49509 4.16346 0
M  V30 34079 H 3047.87 -1.52451 2.51269 0
M  V30 34080 H 3045.39 -0.754748 1.43796 0
M  V30 34081 H 3047.38 -3.831 1.64438 0
M  V30 34082 H 3046.04 -3.17805 0.665586 0
M  V30 34083 H 3047.06 -2.81803 4.3452 0
M  V30 34084 H 3043.73 -3.70619 1.92218 0
M  V30 34085 H 3045.12 -3.1642 5.92729 0
M  V30 34086 N 3047.84 -1.35955 -0.797117 0
M  V30 34087 C 3049.26 -1.162 -1.09406 0
M  V30 34088 C 3049.46 0.0191328 -2.01491 0
M  V30 34089 O 3048.51 0.68686 -2.42978 0
M  V30 34090 C 3049.83 -2.46934 -1.71593 0
M  V30 34091 C 3051.38 -2.53227 -1.8397 0
M  V30 34092 C 3051.85 -3.84028 -2.49573 0
M  V30 34093 N 3053.34 -3.85331 -2.57049 0
M  V30 34094 C 3054.08 -4.83274 -3.086 0
M  V30 34095 N 3053.57 -5.91608 -3.60517 0
M  V30 34096 N 3055.37 -4.70701 -3.07241 0
M  V30 34097 H 3047.52 -2.11591 -0.185172 0
M  V30 34098 H 3049.78 -0.936884 -0.144752 0
M  V30 34099 H 3049.49 -3.33592 -1.11398 0
M  V30 34100 H 3049.36 -2.62177 -2.71188 0
M  V30 34101 H 3051.75 -1.66992 -2.43306 0
M  V30 34102 H 3051.83 -2.4189 -0.832027 0
M  V30 34103 H 3051.47 -4.70665 -1.90884 0
M  V30 34104 H 3051.4 -3.92657 -3.50895 0
M  V30 34105 H 3053.89 -3.07061 -2.20277 0
M  V30 34106 H 3054.21 -6.62324 -3.9818 0
M  V30 34107 H 3052.55 -5.95287 -3.5869 0
M  V30 34108 H 3055.74 -3.85202 -2.65965 0
M  V30 34109 H 3055.91 -5.47192 -3.47109 0
M  V30 34110 N 3049.32 1.02038 -1.20108 0
M  V30 34111 C 3050.27 2.12615 -0.943268 0
M  V30 34112 C 3051.26 1.6908 0.104012 0
M  V30 34113 O 3052.47 1.79941 -0.0460048 0
M  V30 34114 H 3048.84 0.694797 -0.287682 0
M  V30 34115 H 3050.81 2.31546 -1.88225 0
M  V30 34116 C 3049.56 3.43972 -0.50777 0
M  V30 34117 H 3048.89 3.77895 -1.30521 0
M  V30 34118 H 3050.33 4.22413 -0.366561 0
M  V30 34119 C 3048.79 3.27762 0.779333 0
M  V30 34120 O 3049.32 3.57148 1.8387 0
M  V30 34121 N 3047.52 2.81023 0.739881 0
M  V30 34122 H 3047.07 2.57309 -0.122471 0
M  V30 34123 H 3047.03 2.70558 1.60142 0
M  V30 34124 N 3050.8 1.00636 1.21285 0
M  V30 34125 C 3051.71 0.577266 2.27387 0
M  V30 34126 C 3052.72 -0.380369 1.69792 0
M  V30 34127 O 3053.9 -0.243865 1.99918 0
M  V30 34128 C 3050.97 -0.0879922 3.46588 0
M  V30 34129 C 3050.03 0.914296 4.19451 0
M  V30 34130 C 3049.26 0.280689 5.32961 0
M  V30 34131 O 3049.48 -0.922166 5.62896 0
M  V30 34132 O 3048.42 0.9923 5.93664 0
M  V30 34133 H 3052.24 1.46032 2.66286 0
M  V30 34134 H 3049.83 0.775305 1.27708 0
M  V30 34135 H 3051.71 -0.46002 4.18882 0
M  V30 34136 H 3050.38 -0.945406 3.09586 0
M  V30 34137 H 3049.29 1.3375 3.49373 0
M  V30 34138 H 3050.62 1.74134 4.60367 0
M  V30 34139 N 3052.28 -1.36872 0.781268 0
M  V30 34140 C 3053.22 -2.30157 0.172187 0
M  V30 34141 C 3054.19 -1.51574 -0.679301 0
M  V30 34142 O 3055.38 -1.8011 -0.629681 0
M  V30 34143 C 3052.52 -3.38061 -0.693474 0
M  V30 34144 C 3051.63 -4.31643 0.175662 0
M  V30 34145 C 3050.77 -5.26626 -0.695602 0
M  V30 34146 C 3049.81 -6.11848 0.175487 0
M  V30 34147 N 3048.94 -6.99045 -0.654293 0
M  V30 34148 H 3053.78 -2.81661 0.973182 0
M  V30 34149 H 3051.32 -1.38646 0.491494 0
M  V30 34150 H 3053.28 -3.99259 -1.21028 0
M  V30 34151 H 3051.91 -2.87897 -1.45998 0
M  V30 34152 H 3050.96 -3.71668 0.810361 0
M  V30 34153 H 3052.27 -4.91553 0.847193 0
M  V30 34154 H 3051.43 -5.93076 -1.27853 0
M  V30 34155 H 3050.16 -4.6715 -1.40079 0
M  V30 34156 H 3049.17 -5.44369 0.770875 0
M  V30 34157 H 3050.39 -6.73398 0.878148 0
M  V30 34158 H 3048.34 -6.42086 -1.34392 0
M  V30 34159 H 3048.26 -7.55989 -0.0402669 0
M  V30 34160 H 3049.53 -7.69873 -1.22131 0
M  V30 34161 N 3053.75 -0.532597 -1.48328 0
M  V30 34162 C 3054.68 0.21747 -2.32485 0
M  V30 34163 C 3055.67 0.932573 -1.42257 0
M  V30 34164 O 3056.85 0.917843 -1.71141 0
M  V30 34165 C 3053.98 1.26324 -3.23511 0
M  V30 34166 C 3052.93 0.666117 -4.22785 0
M  V30 34167 C 3052.26 1.81473 -5.02963 0
M  V30 34168 C 3053.56 -0.363905 -5.21031 0
M  V30 34169 H 3055.25 -0.485066 -2.95445 0
M  V30 34170 H 3052.8 -0.234719 -1.42074 0
M  V30 34171 H 3054.75 1.79594 -3.81214 0
M  V30 34172 H 3053.48 1.99539 -2.58557 0
M  V30 34173 H 3052.14 0.154916 -3.66273 0
M  V30 34174 H 3051.78 2.53532 -4.34431 0
M  V30 34175 H 3051.48 1.4211 -5.70157 0
M  V30 34176 H 3053.01 2.35116 -5.63518 0
M  V30 34177 H 3054.42 0.0818072 -5.73242 0
M  V30 34178 H 3052.82 -0.675061 -5.96291 0
M  V30 34179 H 3053.89 -1.26873 -4.68008 0
M  V30 34180 N 3055.23 1.55307 -0.267853 0
M  V30 34181 C 3056.46 2.0384 0.354551 0
M  V30 34182 C 3056.88 1.14647 1.50005 0
M  V30 34183 O 3056.23 0.165087 1.81752 0
M  V30 34184 C 3056.28 3.51546 0.842479 0
M  V30 34185 O 3056 4.37343 -0.257395 0
M  V30 34186 C 3057.51 4.15933 1.53344 0
M  V30 34187 H 3054.73 0.665995 0.0818014 0
M  V30 34188 H 3057.27 2.00593 -0.39783 0
M  V30 34189 H 3055.42 3.5526 1.54497 0
M  V30 34190 H 3055.84 5.24371 0.116501 0
M  V30 34191 H 3057.31 5.20911 1.82634 0
M  V30 34192 H 3057.79 3.6367 2.46253 0
M  V30 34193 H 3058.4 4.16202 0.874987 0
M  V30 34194 N 3056.71 -0.00497598 1.57599 0
M  V30 34195 C 3057.96 -0.691885 1.90633 0
M  V30 34196 C 3058.29 -1.73699 0.868474 0
M  V30 34197 O 3057.56 -1.94169 -0.113448 0
M  V30 34198 C 3057.85 -1.33955 3.34257 0
M  V30 34199 C 3057.7 -0.306334 4.48756 0
M  V30 34200 C 3059.02 -2.26708 3.77215 0
M  V30 34201 H 3056.14 -0.250053 0.693284 0
M  V30 34202 H 3058.78 0.0452967 1.89946 0
M  V30 34203 H 3056.93 -1.96788 3.34973 0
M  V30 34204 H 3058.6 0.321922 4.60175 0
M  V30 34205 H 3056.85 0.371928 4.32203 0
M  V30 34206 H 3057.52 -0.798458 5.46195 0
M  V30 34207 H 3059.99 -1.73898 3.7802 0
M  V30 34208 H 3058.87 -2.68993 4.7847 0
M  V30 34209 H 3059.13 -3.14407 3.10806 0
M  V30 34210 N 3058.19 -1.55135 -0.277654 0
M  V30 34211 C 3059.47 -1.6623 -1.03087 0
M  V30 34212 C 3059.85 -0.525737 -2.04449 0
M  V30 34213 O 3059.19 0.474777 -2.23513 0
M  V30 34214 C 3059.4 -3.0525 -1.69185 0
M  V30 34215 C 3060.75 -3.62844 -2.2052 0
M  V30 34216 O 3061.78 -3.07853 -1.79179 0
M  V30 34217 O 3060.63 -4.59182 -2.96334 0
M  V30 34218 H 3057.73 -0.674946 -0.477888 0
M  V30 34219 H 3060.27 -1.67475 -0.273882 0
M  V30 34220 H 3059.05 -3.79414 -0.957097 0
M  V30 34221 H 3058.67 -3.07884 -2.51582 0
M  V30 34222 N 3059.67 0.541953 -1.47989 0
M  V30 34223 C 3060.89 1.32823 -1.59288 0
M  V30 34224 C 3061.32 1.86445 -0.248973 0
M  V30 34225 O 3060.67 1.6378 0.777553 0
M  V30 34226 C 3060.72 2.46338 -2.63344 0
M  V30 34227 O 3059.83 3.49024 -2.19673 0
M  V30 34228 H 3059.17 0.393894 -0.53455 0
M  V30 34229 H 3061.7 0.653392 -1.93886 0
M  V30 34230 H 3061.71 2.92694 -2.84243 0
M  V30 34231 H 3060.38 2.06669 -3.60917 0
M  V30 34232 H 3058.96 3.08868 -2.08937 0
M  V30 34233 N 3061.15 1.36376 0.789896 0
M  V30 34234 C 3062.11 1.30513 1.88412 0
M  V30 34235 C 3063.11 0.212928 1.59384 0
M  V30 34236 O 3064.3 0.467681 1.67805 0
M  V30 34237 C 3061.43 1.02307 3.25186 0
M  V30 34238 H 3062.62 2.27826 1.95027 0
M  V30 34239 H 3060.18 1.21142 0.987643 0
M  V30 34240 H 3060.91 0.0545056 3.24254 0
M  V30 34241 H 3060.7 1.81345 3.47644 0
M  V30 34242 H 3062.19 1.00809 4.0525 0
M  V30 34243 N 3062.62 -1.014 1.20647 0
M  V30 34244 C 3063.87 -1.74448 1.01245 0
M  V30 34245 C 3064.19 -1.90218 -0.455699 0
M  V30 34246 O 3065.39 -2.60385 -0.768905 0
M  V30 34247 C 3063.85 -3.13773 1.7628 0
M  V30 34248 C 3063.46 -3.06007 3.27206 0
M  V30 34249 C 3065.2 -3.91013 1.65255 0
M  V30 34250 C 3063.11 -4.40355 3.94767 0
M  V30 34251 H 3062.04 -0.654012 0.375213 0
M  V30 34252 H 3064.69 -1.13365 1.44294 0
M  V30 34253 H 3063.07 -3.75413 1.2602 0
M  V30 34254 H 3064.24 -2.53658 3.847 0
M  V30 34255 H 3062.56 -2.42259 3.38673 0
M  V30 34256 H 3065.16 -4.90413 2.1307 0
M  V30 34257 H 3065.5 -4.11818 0.6092 0
M  V30 34258 H 3066.03 -3.36006 2.12943 0
M  V30 34259 H 3062.77 -4.24752 4.99265 0
M  V30 34260 H 3062.29 -4.927 3.42063 0
M  V30 34261 H 3063.97 -5.09189 3.99168 0
M  V30 34262 N 3064.1 -1.01278 -1.2075 0
M  V30 34263 C 3065.06 -0.584622 -2.21619 0
M  V30 34264 C 3066.06 0.343187 -1.57095 0
M  V30 34265 O 3067.25 0.132402 -1.73696 0
M  V30 34266 C 3064.39 0.146812 -3.40584 0
M  V30 34267 H 3065.58 -1.4769 -2.61013 0
M  V30 34268 H 3063.13 -0.802147 -1.34147 0
M  V30 34269 H 3063.87 1.05418 -3.06688 0
M  V30 34270 H 3063.65 -0.519648 -3.88641 0
M  V30 34271 H 3065.14 0.433851 -4.1534 0
M  V30 34272 N 3065.58 1.36456 -0.788516 0
M  V30 34273 C 3067 1.5252 -0.47009 0
M  V30 34274 C 3067.2 1.74259 1.01173 0
M  V30 34275 O 3066.25 1.77358 1.79723 0
M  V30 34276 C 3067.56 2.71159 -1.29975 0
M  V30 34277 C 3069.11 2.85029 -1.29335 0
M  V30 34278 C 3069.59 4.06671 -2.10673 0
M  V30 34279 N 3071.08 4.13815 -2.08114 0
M  V30 34280 C 3071.81 5.07011 -2.67819 0
M  V30 34281 N 3071.31 6.05657 -3.3638 0
M  V30 34282 N 3073.1 4.9962 -2.57558 0
M  V30 34283 H 3065.25 1.20599 -1.74842 0
M  V30 34284 H 3067.52 0.588561 -0.743169 0
M  V30 34285 H 3067.22 2.61614 -2.35056 0
M  V30 34286 H 3067.1 3.65289 -0.940431 0
M  V30 34287 H 3069.48 2.94035 -0.250465 0
M  V30 34288 H 3069.56 1.91809 -1.69242 0
M  V30 34289 H 3069.21 3.98425 -3.14991 0
M  V30 34290 H 3069.14 4.99037 -1.68136 0
M  V30 34291 H 3071.63 3.43186 -1.58214 0
M  V30 34292 H 3071.94 6.73331 -3.7927 0
M  V30 34293 H 3070.29 6.05886 -3.40482 0
M  V30 34294 H 3073.48 4.21504 -2.03598 0
M  V30 34295 H 3073.65 5.72063 -3.0438 0
M  V30 34296 N 3067.06 0.540456 1.48043 0
M  V30 34297 C 3068.33 -0.0546958 1.95524 0
M  V30 34298 C 3068.71 -1.50248 1.48287 0
M  V30 34299 O 3068.06 -2.17056 0.714075 0
M  V30 34300 C 3068.27 0.0734007 3.48923 0
M  V30 34301 C 3069.62 -0.0805279 4.24524 0
M  V30 34302 O 3070.64 0.00011848 3.562 0
M  V30 34303 O 3069.5 -0.25112 5.45923 0
M  V30 34304 H 3066.6 -0.0734785 0.823729 0
M  V30 34305 H 3069.14 0.605796 1.58519 0
M  V30 34306 H 3067.92 1.0815 3.76057 0
M  V30 34307 H 3067.54 -0.625467 3.9265 0
M  V30 34308 N 3068.54 -1.55163 0.276085 0
M  V30 34309 C 3069.47 -2.25537 -0.604593 0
M  V30 34310 C 3070.45 -1.24587 -1.15811 0
M  V30 34311 O 3071.63 -1.53308 -1.19207 0
M  V30 34312 C 3068.76 -2.9772 -1.78831 0
M  V30 34313 C 3067.72 -4.05607 -1.36628 0
M  V30 34314 C 3067.04 -4.65369 -2.63317 0
M  V30 34315 C 3068.34 -5.19747 -0.515767 0
M  V30 34316 H 3070.04 -2.99395 -0.0176957 0
M  V30 34317 H 3067.58 -1.43998 -0.00707096 0
M  V30 34318 H 3069.53 -3.45663 -2.4103 0
M  V30 34319 H 3068.26 -2.21398 -2.40105 0
M  V30 34320 H 3066.92 -3.58476 -0.767478 0
M  V30 34321 H 3066.57 -3.85715 -3.22851 0
M  V30 34322 H 3066.27 -5.38216 -2.3579 0
M  V30 34323 H 3067.79 -5.16062 -3.26363 0
M  V30 34324 H 3069.2 -5.63736 -1.04279 0
M  V30 34325 H 3067.6 -5.99162 -0.335344 0
M  V30 34326 H 3068.67 -4.82663 0.465222 0
M  V30 34327 N 3070.01 -0.00338196 -1.576 0
M  V30 34328 C 3071.26 0.679967 -1.89893 0
M  V30 34329 C 3071.58 1.74749 -0.878762 0
M  V30 34330 O 3072.78 2.4857 -1.09203 0
M  V30 34331 C 3071.24 1.2606 -3.37101 0
M  V30 34332 C 3070.85 0.227728 -4.47421 0
M  V30 34333 C 3072.59 1.92195 -3.78499 0
M  V30 34334 C 3070.5 0.818547 -5.85708 0
M  V30 34335 H 3069.43 0.257733 -0.708583 0
M  V30 34336 H 3072.08 -0.0644795 -1.83387 0
M  V30 34337 H 3070.46 2.05583 -3.38455 0
M  V30 34338 H 3071.63 -0.543151 -4.57588 0
M  V30 34339 H 3069.95 -0.33337 -4.15063 0
M  V30 34340 H 3072.55 2.37309 -4.79154 0
M  V30 34341 H 3072.89 2.75394 -3.12192 0
M  V30 34342 H 3073.42 1.19401 -3.79458 0
M  V30 34343 H 3070.16 0.0252635 -6.55495 0
M  V30 34344 H 3069.68 1.55851 -5.79198 0
M  V30 34345 H 3071.36 1.31616 -6.33472 0
M  V30 34346 N 3071.49 1.5528 0.269423 0
M  V30 34347 C 3072.77 1.66774 1.02204 0
M  V30 34348 C 3073.15 0.536572 2.04167 0
M  V30 34349 O 3072.5 -0.462917 2.23762 0
M  V30 34350 C 3072.71 3.06143 1.67564 0
M  V30 34351 C 3074.05 3.64009 2.18593 0
M  V30 34352 O 3075.08 3.08799 1.77544 0
M  V30 34353 O 3073.94 4.60747 2.93895 0
M  V30 34354 H 3071.03 0.677471 0.474302 0
M  V30 34355 H 3073.58 1.67618 0.264997 0
M  V30 34356 H 3072.35 3.79917 0.936962 0
M  V30 34357 H 3071.97 3.09213 2.49946 0
M  V30 34358 N 3072.97 -0.534097 1.48274 0
M  V30 34359 C 3074.22 -1.29015 1.56082 0
M  V30 34360 C 3074.54 -1.931 0.232946 0
M  V30 34361 O 3073.8 -1.7964 -0.776389 0
M  V30 34362 C 3074.1 -2.40394 2.64472 0
M  V30 34363 C 3073.76 -1.93988 4.07037 0
M  V30 34364 C 3072.43 -1.8105 4.45841 0
M  V30 34365 C 3074.78 -1.58868 4.96397 0
M  V30 34366 C 3072.11 -1.3132 5.71814 0
M  V30 34367 C 3074.46 -1.10603 6.22856 0
M  V30 34368 C 3073.12 -0.962779 6.6052 0
M  V30 34369 H 3072.39 -0.472098 0.571143 0
M  V30 34370 H 3075.04 -0.596468 1.81974 0
M  V30 34371 H 3073.34 -3.15414 2.32424 0
M  V30 34372 H 3075.04 -2.98533 2.6773 0
M  V30 34373 H 3071.63 -2.05008 3.7639 0
M  V30 34374 H 3075.82 -1.67726 4.67099 0
M  V30 34375 H 3071.07 -1.18914 5.99725 0
M  V30 34376 H 3075.25 -0.824974 6.91496 0
M  V30 34377 H 3072.87 -0.575236 7.5802 0
M  V30 34378 N 3074.45 -1.36793 -0.782652 0
M  V30 34379 C 3075.72 -1.21941 -1.52937 0
M  V30 34380 C 3076.1 0.191602 -2.10229 0
M  V30 34381 O 3075.45 1.19802 -1.94576 0
M  V30 34382 C 3075.66 -2.30679 -2.61894 0
M  V30 34383 C 3077.01 -2.67682 -3.29593 0
M  V30 34384 O 3078.03 -2.29773 -2.72182 0
M  V30 34385 O 3076.89 -3.32954 -4.33364 0
M  V30 34386 H 3073.99 -0.475191 -0.676847 0
M  V30 34387 H 3076.53 -1.48543 -0.820554 0
M  V30 34388 H 3075.31 -3.25216 -2.17602 0
M  V30 34389 H 3074.93 -2.0548 -3.40387 0
M  V30 34390 N 3075.93 1.00759 -1.21184 0
M  V30 34391 C 3077.2 1.71733 -0.936327 0
M  V30 34392 C 3077.58 2.0374 0.552549 0
M  V30 34393 O 3076.93 1.70906 1.51669 0
M  V30 34394 C 3077.14 2.97865 -1.81872 0
M  V30 34395 C 3078.49 3.70947 -2.06601 0
M  V30 34396 O 3079.51 3.07841 -1.792 0
M  V30 34397 O 3078.37 4.84448 -2.52928 0
M  V30 34398 H 3075.47 0.748874 -0.35088 0
M  V30 34399 H 3078.01 1.06525 -1.321 0
M  V30 34400 H 3076.78 2.70602 -2.82648 0
M  V30 34401 H 3076.41 3.70813 -1.4347 0
M  V30 34402 N 3077.4 1.01917 1.20211 0
M  V30 34403 C 3078.82 0.734484 1.41695 0
M  V30 34404 C 3079.02 -0.684833 1.89505 0
M  V30 34405 O 3078.08 -1.45223 2.06559 0
M  V30 34406 C 3079.39 1.76237 2.43641 0
M  V30 34407 C 3080.94 1.7808 2.57403 0
M  V30 34408 C 3081.41 2.79802 3.62595 0
M  V30 34409 N 3082.9 2.78558 3.70081 0
M  V30 34410 C 3083.64 3.53923 4.51139 0
M  V30 34411 N 3083.13 4.38972 5.35981 0
M  V30 34412 N 3084.93 3.42508 4.45696 0
M  V30 34413 H 3077.08 1.93542 0.874942 0
M  V30 34414 H 3079.34 0.836196 0.446632 0
M  V30 34415 H 3079.05 2.77932 2.15514 0
M  V30 34416 H 3078.92 1.57663 3.42669 0
M  V30 34417 H 3081.31 0.770684 2.84859 0
M  V30 34418 H 3081.39 2.00728 1.58562 0
M  V30 34419 H 3081.03 3.80979 3.35883 0
M  V30 34420 H 3080.96 2.54415 4.61064 0
M  V30 34421 H 3083.45 2.16866 3.0948 0
M  V30 34422 H 3083.77 4.9324 5.94923 0
M  V30 34423 H 3082.11 4.43049 5.35474 0
M  V30 34424 H 3085.3 2.75485 3.78452 0
M  V30 34425 H 3085.48 4.01496 5.0863 0
M  V30 34426 N 3078.88 -1.36036 0.795742 0
M  V30 34427 C 3079.81 -2.28666 0.156377 0
M  V30 34428 C 3080.83 -1.49776 -0.638049 0
M  V30 34429 O 3082.02 -1.72141 -0.472192 0
M  V30 34430 C 3079.12 -3.29289 -0.801359 0
M  V30 34431 C 3078.29 -4.37365 -0.0556349 0
M  V30 34432 C 3077.35 -5.17912 -0.930247 0
M  V30 34433 O 3076.37 -5.67895 -0.385167 0
M  V30 34434 N 3077.58 -5.34965 -2.25373 0
M  V30 34435 H 3080.34 -2.84175 0.952083 0
M  V30 34436 H 3077.9 -1.48269 0.650216 0
M  V30 34437 H 3079.89 -3.80064 -1.39044 0
M  V30 34438 H 3078.46 -2.74374 -1.49792 0
M  V30 34439 H 3077.68 -3.87669 0.714576 0
M  V30 34440 H 3078.97 -5.06728 0.458722 0
M  V30 34441 H 3078.37 -4.95981 -2.72064 0
M  V30 34442 H 3076.93 -5.8896 -2.7923 0
M  V30 34443 N 3080.36 -0.5483 -1.47755 0
M  V30 34444 C 3081.29 0.24173 -2.27922 0
M  V30 34445 C 3082.31 0.887634 -1.36473 0
M  V30 34446 O 3083.49 0.762987 -1.61371 0
M  V30 34447 C 3080.59 1.35916 -3.10451 0
M  V30 34448 C 3079.77 0.811733 -4.29802 0
M  V30 34449 C 3078.83 1.81255 -4.93997 0
M  V30 34450 O 3077.85 1.3622 -5.5266 0
M  V30 34451 N 3079.05 3.14557 -4.87887 0
M  V30 34452 H 3081.82 -0.4459 -2.96364 0
M  V30 34453 H 3079.38 -0.383797 -1.57285 0
M  V30 34454 H 3081.37 2.02723 -3.50265 0
M  V30 34455 H 3079.94 1.95017 -2.4431 0
M  V30 34456 H 3079.16 -0.0328622 -3.94186 0
M  V30 34457 H 3080.45 0.425183 -5.0702 0
M  V30 34458 H 3079.85 3.53797 -4.41411 0
M  V30 34459 H 3078.41 3.76947 -5.31747 0
M  V30 34460 N 3081.84 1.55014 -0.28431 0
M  V30 34461 C 3083.09 1.98974 0.330515 0
M  V30 34462 C 3083.4 1.17624 1.56282 0
M  V30 34463 O 3084.61 1.51771 2.25118 0
M  V30 34464 C 3083.06 3.54175 0.639395 0
M  V30 34465 C 3082.67 4.44312 -0.573621 0
M  V30 34466 C 3084.41 4.06701 1.21634 0
M  V30 34467 C 3082.32 5.90918 -0.238818 0
M  V30 34468 H 3081.25 0.743181 0.127272 0
M  V30 34469 H 3083.9 1.79299 -0.390404 0
M  V30 34470 H 3082.28 3.69685 1.41946 0
M  V30 34471 H 3083.46 4.40573 -1.35028 0
M  V30 34472 H 3081.77 4.0247 -1.06804 0
M  V30 34473 H 3084.37 5.13787 1.48079 0
M  V30 34474 H 3084.71 3.5629 2.15321 0
M  V30 34475 H 3085.25 3.94666 0.498352 0
M  V30 34476 H 3081.99 6.45443 -1.14381 0
M  V30 34477 H 3081.51 5.97705 0.500892 0
M  V30 34478 H 3083.18 6.46788 0.16566 0
M  V30 34479 N 3083.32 0.0117398 1.57596 0
M  V30 34480 C 3084.55 -0.680312 1.95078 0
M  V30 34481 C 3084.95 -1.67182 0.885823 0
M  V30 34482 O 3084.3 -1.83145 -0.142691 0
M  V30 34483 C 3084.36 -1.45785 3.28614 0
M  V30 34484 C 3084.02 -0.626627 4.52684 0
M  V30 34485 C 3085.02 0.0907137 5.19821 0
M  V30 34486 C 3082.71 -0.569141 4.99065 0
M  V30 34487 C 3084.7 0.8544 6.31648 0
M  V30 34488 C 3082.39 0.198262 6.10778 0
M  V30 34489 C 3083.38 0.908755 6.76927 0
M  V30 34490 O 3083.07 1.66361 7.86498 0
M  V30 34491 H 3082.8 -0.19366 0.647666 0
M  V30 34492 H 3085.36 0.062533 2.05305 0
M  V30 34493 H 3083.59 -2.24545 3.14828 0
M  V30 34494 H 3085.28 -2.03636 3.51123 0
M  V30 34495 H 3086.04 0.0555273 4.84968 0
M  V30 34496 H 3081.92 -1.1117 4.47395 0
M  V30 34497 H 3085.47 1.40949 6.83212 0
M  V30 34498 H 3081.36 0.235227 6.45071 0
M  V30 34499 H 3082.13 1.58156 8.03075 0
M  V30 34500 N 3084.79 -1.55421 -0.261185 0
M  V30 34501 C 3085.76 -1.88322 -1.30642 0
M  V30 34502 C 3086.76 -0.758613 -1.4178 0
M  V30 34503 O 3087.95 -1.02671 -1.40727 0
M  V30 34504 C 3085.08 -2.099 -2.68617 0
M  V30 34505 H 3086.27 -2.8177 -1.02693 0
M  V30 34506 H 3083.83 -1.48093 -0.499812 0
M  V30 34507 H 3084.56 -1.18873 -3.01728 0
M  V30 34508 H 3084.35 -2.91792 -2.61916 0
M  V30 34509 H 3085.84 -2.36587 -3.44116 0
M  V30 34510 N 3086.27 0.526227 -1.48555 0
M  V30 34511 C 3087.24 1.61263 -1.62871 0
M  V30 34512 C 3088.24 1.5277 -0.501789 0
M  V30 34513 O 3089.43 1.56373 -0.767668 0
M  V30 34514 C 3086.56 3.0089 -1.60243 0
M  V30 34515 H 3087.75 1.49908 -2.59745 0
M  V30 34516 H 3085.3 0.748571 -1.37208 0
M  V30 34517 H 3086.04 3.17748 -0.648601 0
M  V30 34518 H 3085.82 3.08463 -2.42059 0
M  V30 34519 H 3087.31 3.79869 -1.73462 0
M  V30 34520 N 3087.75 1.37206 0.775387 0
M  V30 34521 C 3088.66 1.34859 1.91964 0
M  V30 34522 C 3089.68 0.248687 1.72214 0
M  V30 34523 O 3090.85 0.483455 1.95511 0
M  V30 34524 C 3087.92 1.15102 3.27036 0
M  V30 34525 C 3086.98 2.34697 3.59466 0
M  V30 34526 C 3086.21 2.15873 4.88093 0
M  V30 34527 O 3086.43 1.14112 5.58869 0
M  V30 34528 O 3085.37 3.03976 5.19502 0
M  V30 34529 H 3089.19 2.31226 1.96896 0
M  V30 34530 H 3086.78 1.17898 0.917627 0
M  V30 34531 H 3088.66 1.06057 4.07835 0
M  V30 34532 H 3087.34 0.218055 3.22965 0
M  V30 34533 H 3086.24 2.49313 2.78916 0
M  V30 34534 H 3087.58 3.26548 3.68276 0
M  V30 34535 N 3089.23 -1.00115 1.21716 0
M  V30 34536 C 3090.18 -2.08967 0.979874 0
M  V30 34537 C 3091.15 -1.65825 -0.0955033 0
M  V30 34538 O 3092.33 -1.90728 0.0524077 0
M  V30 34539 C 3089.47 -3.40611 0.554817 0
M  V30 34540 C 3088.58 -3.97142 1.70006 0
M  V30 34541 C 3087.72 -5.16911 1.22379 0
M  V30 34542 C 3086.76 -5.6556 2.34111 0
M  V30 34543 N 3085.89 -6.76575 1.87591 0
M  V30 34544 H 3090.73 -2.28599 1.91171 0
M  V30 34545 H 3088.27 -1.12083 0.952665 0
M  V30 34546 H 3090.23 -4.16194 0.289599 0
M  V30 34547 H 3088.86 -3.21004 -0.340016 0
M  V30 34548 H 3087.91 -3.18509 2.07981 0
M  V30 34549 H 3089.22 -4.29237 2.54082 0
M  V30 34550 H 3088.38 -5.99753 0.915463 0
M  V30 34551 H 3087.12 -4.8642 0.353131 0
M  V30 34552 H 3086.12 -4.81312 2.65743 0
M  V30 34553 H 3087.35 -5.98079 3.2168 0
M  V30 34554 H 3085.29 -6.47883 1.02874 0
M  V30 34555 H 3085.21 -7.07944 2.65237 0
M  V30 34556 H 3086.48 -7.62944 1.59803 0
M  V30 34557 N 3090.71 -1.02553 -1.19669 0
M  V30 34558 C 3091.67 -0.608094 -2.20986 0
M  V30 34559 C 3092.67 0.326506 -1.5745 0
M  V30 34560 O 3093.86 0.113972 -1.73827 0
M  V30 34561 C 3090.99 0.110681 -3.4072 0
M  V30 34562 H 3092.19 -1.50451 -2.59431 0
M  V30 34563 H 3089.74 -0.81633 -1.33288 0
M  V30 34564 H 3090.47 1.02159 -3.07789 0
M  V30 34565 H 3090.26 -0.56084 -3.88068 0
M  V30 34566 H 3091.75 0.389774 -4.15777 0
M  V30 34567 N 3092.19 1.35612 -0.802945 0
M  V30 34568 C 3093.43 1.98124 -0.378122 0
M  V30 34569 C 3093.75 1.6442 1.0595 0
M  V30 34570 O 3094.95 2.20269 1.58725 0
M  V30 34571 C 3093.41 3.54429 -0.625139 0
M  V30 34572 C 3093.02 3.97046 -2.07506 0
M  V30 34573 C 3094.76 4.23669 -0.265493 0
M  V30 34574 C 3092.67 5.46182 -2.26802 0
M  V30 34575 H 3091.6 0.74133 -0.137646 0
M  V30 34576 H 3094.25 1.54728 -0.986489 0
M  V30 34577 H 3092.63 3.95964 0.0531279 0
M  V30 34578 H 3093.81 3.66673 -2.79084 0
M  V30 34579 H 3092.12 3.40684 -2.39423 0
M  V30 34580 H 3094.72 5.33292 -0.387763 0
M  V30 34581 H 3095.06 4.08776 0.787922 0
M  V30 34582 H 3095.59 3.87543 -0.897532 0
M  V30 34583 H 3092.33 5.66039 -3.30576 0
M  V30 34584 H 3091.85 5.78136 -1.59745 0
M  V30 34585 H 3093.53 6.12594 -2.08176 0
M  V30 34586 N 3093.66 0.556128 1.47462 0
M  V30 34587 C 3094.89 0.0364948 2.06868 0
M  V30 34588 C 3095.31 -1.25674 1.40895 0
M  V30 34589 O 3094.66 -1.75371 0.505114 0
M  V30 34590 C 3094.71 -0.163921 3.61128 0
M  V30 34591 O 3094.44 1.0781 4.24628 0
M  V30 34592 C 3095.94 -0.720959 4.37398 0
M  V30 34593 H 3093.16 0.0453517 0.669466 0
M  V30 34594 H 3095.7 0.769231 1.89481 0
M  V30 34595 H 3093.86 -0.846783 3.78032 0
M  V30 34596 H 3094.27 0.875158 5.17147 0
M  V30 34597 H 3095.74 -0.810488 5.46017 0
M  V30 34598 H 3096.22 -1.73198 4.03607 0
M  V30 34599 H 3096.83 -0.0738292 4.25236 0
M  V30 34600 N 3095.14 -1.54861 0.292527 0
M  V30 34601 C 3096.39 -1.99573 -0.318598 0
M  V30 34602 C 3096.71 -1.18243 -1.5506 0
M  V30 34603 O 3095.98 -0.27626 -1.93942 0
M  V30 34604 H 3094.56 -0.737183 -0.120709 0
M  V30 34605 H 3097.22 -1.90711 0.401896 0
M  V30 34606 H 3096.32 -3.06347 -0.596488 0
M  V30 34607 N 3096.62 -0.0200973 -1.57587 0
M  V30 34608 C 3097.87 0.660491 -1.91426 0
M  V30 34609 C 3098.19 1.72651 -0.895656 0
M  V30 34610 O 3097.45 1.95461 0.0967366 0
M  V30 34611 C 3097.75 1.32317 -3.32004 0
M  V30 34612 C 3097.41 0.388408 -4.49224 0
M  V30 34613 C 3096.08 0.131099 -4.81021 0
M  V30 34614 C 3098.43 -0.253997 -5.20581 0
M  V30 34615 C 3095.76 -0.776573 -5.81538 0
M  V30 34616 C 3098.11 -1.14967 -6.22065 0
M  V30 34617 C 3096.77 -1.41596 -6.52309 0
M  V30 34618 H 3096.04 0.241691 -0.700476 0
M  V30 34619 H 3098.69 -0.0799327 -1.91333 0
M  V30 34620 H 3096.99 2.13813 -3.28316 0
M  V30 34621 H 3098.69 1.85617 -3.55454 0
M  V30 34622 H 3095.28 0.599132 -4.24392 0
M  V30 34623 H 3099.47 -0.0682513 -4.96253 0
M  V30 34624 H 3094.72 -0.990681 -6.0332 0
M  V30 34625 H 3098.9 -1.65369 -6.76481 0
M  V30 34626 H 3096.52 -2.12096 -7.30013 0
M  V30 34627 N 3098.1 1.55557 0.252939 0
M  V30 34628 C 3099.37 1.67849 1.00429 0
M  V30 34629 C 3099.75 0.558196 2.03586 0
M  V30 34630 O 3099.1 -0.439158 2.2424 0
M  V30 34631 C 3099.31 3.07903 1.64307 0
M  V30 34632 C 3100.66 3.66307 2.1472 0
M  V30 34633 O 3101.68 3.10664 1.74259 0
M  V30 34634 O 3100.54 4.63838 2.88992 0
M  V30 34635 H 3097.64 0.682463 0.46709 0
M  V30 34636 H 3100.18 1.6789 0.247204 0
M  V30 34637 H 3098.96 3.80889 0.896614 0
M  V30 34638 H 3098.58 3.11847 2.46652 0
M  V30 34639 N 3099.58 -0.518341 1.48832 0
M  V30 34640 C 3100.85 -1.27963 1.47935 0
M  V30 34641 C 3101.23 -2.10175 0.19743 0
M  V30 34642 O 3100.58 -2.13256 -0.820619 0
M  V30 34643 C 3100.79 -2.15116 2.7482 0
M  V30 34644 C 3102.14 -2.74875 3.23618 0
M  V30 34645 O 3103.16 -2.25395 2.75818 0
M  V30 34646 O 3102.02 -3.64906 4.06824 0
M  V30 34647 H 3099.12 -0.578154 0.591327 0
M  V30 34648 H 3101.66 -0.534037 1.61078 0
M  V30 34649 H 3100.43 -1.54228 3.59624 0
M  V30 34650 H 3100.06 -2.96901 2.64454 0
M  V30 34651 N 3101.05 -1.37615 -0.7681 0
M  V30 34652 C 3102.46 -1.29528 -1.3446 0
M  V30 34653 C 3102.82 0.0554824 -1.96122 0
M  V30 34654 O 3101.94 0.957371 -1.94071 0
M  V30 34655 C 3102.54 -2.34563 -2.44471 0
M  V30 34656 C 3101.09 -2.30098 -2.97879 0
M  V30 34657 C 3100.24 -2.18199 -1.71128 0
M  V30 34658 H 3103.19 -1.48184 -0.568077 0
M  V30 34659 H 3103.21 -1.99439 -3.24043 0
M  V30 34660 H 3102.73 -3.32861 -1.99562 0
M  V30 34661 H 3100.83 -1.35334 -3.47153 0
M  V30 34662 H 3100.94 -3.23659 -3.53245 0
M  V30 34663 H 3099.3 -1.64805 -1.94194 0
M  V30 34664 H 3100.09 -3.18417 -1.28318 0
M  V30 34665 N 3102.53 0.994677 -1.22245 0
M  V30 34666 C 3103.78 1.73397 -1.04594 0
M  V30 34667 C 3104.11 1.89929 0.419189 0
M  V30 34668 O 3103.36 1.43827 1.32712 0
M  V30 34669 C 3103.66 3.14369 -1.7002 0
M  V30 34670 C 3103.33 3.17756 -3.19909 0
M  V30 34671 C 3101.99 3.18388 -3.60808 0
M  V30 34672 C 3104.34 3.14186 -4.15856 0
M  V30 34673 C 3101.67 3.13148 -4.9614 0
M  V30 34674 C 3104.02 3.10488 -5.51162 0
M  V30 34675 C 3102.68 3.09434 -5.91445 0
M  V30 34676 H 3101.95 0.634503 -0.382736 0
M  V30 34677 H 3104.6 1.16505 -1.51983 0
M  V30 34678 H 3102.91 3.74558 -1.14951 0
M  V30 34679 H 3104.6 3.70311 -1.53854 0
M  V30 34680 H 3101.19 3.18014 -2.87342 0
M  V30 34681 H 3105.38 3.1285 -3.85277 0
M  V30 34682 H 3100.63 3.10676 -5.26584 0
M  V30 34683 H 3104.81 3.06681 -6.25236 0
M  V30 34684 H 3102.43 3.05129 -6.96276 0
M  V30 34685 N 3104.01 1.03186 1.19123 0
M  V30 34686 C 3105.23 0.749662 1.93377 0
M  V30 34687 C 3105.66 -0.685754 1.75154 0
M  V30 34688 O 3105.02 -1.47385 1.05582 0
M  V30 34689 C 3105.07 1.10976 3.43099 0
M  V30 34690 O 3104.17 0.230125 4.11757 0
M  V30 34691 H 3103.51 0.2767 0.6036 0
M  V30 34692 H 3106.04 1.37934 1.51114 0
M  V30 34693 H 3106.05 1.06792 3.93776 0
M  V30 34694 H 3104.73 2.1555 3.55684 0
M  V30 34695 H 3103.3 0.330813 3.7143 0
M  V30 34696 N 3105.49 -1.35184 0.810125 0
M  V30 34697 C 3106.74 -1.98274 0.391378 0
M  V30 34698 C 3107.06 -1.64578 -1.04589 0
M  V30 34699 O 3106.33 -0.930041 -1.72415 0
M  V30 34700 H 3104.91 -0.733432 0.141728 0
M  V30 34701 H 3107.57 -1.65038 1.03675 0
M  V30 34702 H 3106.67 -3.08069 0.499964 0
M  V30 34703 N 3106.97 -0.56394 -1.47165 0
M  V30 34704 C 3107.91 0.179973 -2.30097 0
M  V30 34705 C 3108.88 0.901995 -1.39475 0
M  V30 34706 O 3110.07 0.896366 -1.68434 0
M  V30 34707 C 3107.21 1.19972 -3.23575 0
M  V30 34708 C 3106.32 0.483073 -4.29291 0
M  V30 34709 C 3105.46 1.4887 -5.09913 0
M  V30 34710 C 3104.5 0.757406 -6.07396 0
M  V30 34711 N 3103.63 1.71019 -6.80953 0
M  V30 34712 H 3108.47 -0.533341 -2.93188 0
M  V30 34713 H 3106.01 -0.27484 -1.4451 0
M  V30 34714 H 3107.97 1.80361 -3.76199 0
M  V30 34715 H 3106.6 1.88098 -2.62334 0
M  V30 34716 H 3105.65 -0.235481 -3.7967 0
M  V30 34717 H 3106.96 -0.0894952 -4.9872 0
M  V30 34718 H 3106.12 2.16593 -5.66721 0
M  V30 34719 H 3104.85 2.09519 -4.40401 0
M  V30 34720 H 3103.86 0.0662874 -5.4976 0
M  V30 34721 H 3105.08 0.156566 -6.78919 0
M  V30 34722 H 3103.03 2.30513 -6.14166 0
M  V30 34723 H 3102.95 1.18994 -7.46576 0
M  V30 34724 H 3104.22 2.37835 -7.4233 0
M  V30 34725 N 3108.44 1.54704 -0.300735 0
M  V30 34726 C 3109.67 2.04546 0.311234 0
M  V30 34727 C 3110.09 1.17803 1.47539 0
M  V30 34728 O 3109.44 0.203602 1.81361 0
M  V30 34729 C 3109.5 3.53254 0.767721 0
M  V30 34730 O 3109.22 4.36699 -0.350104 0
M  V30 34731 C 3110.72 4.19092 1.44487 0
M  V30 34732 H 3107.94 0.66758 0.0676562 0
M  V30 34733 H 3110.48 1.99704 -0.440289 0
M  V30 34734 H 3108.64 3.58457 1.46927 0
M  V30 34735 H 3109.05 5.245 0.00524818 0
M  V30 34736 H 3110.52 5.24668 1.71544 0
M  V30 34737 H 3111 3.68812 2.38484 0
M  V30 34738 H 3111.61 4.17964 0.786507 0
M  V30 34739 N 3109.92 0.0284543 1.57574 0
M  V30 34740 C 3111.17 -0.651294 1.92057 0
M  V30 34741 C 3111.5 -1.71817 0.905122 0
M  V30 34742 O 3110.78 -1.94366 -0.0722362 0
M  V30 34743 C 3111.06 -1.26835 3.37024 0
M  V30 34744 C 3110.91 -0.211078 4.49304 0
M  V30 34745 C 3112.23 -2.18656 3.81939 0
M  V30 34746 H 3109.35 -0.235292 0.698432 0
M  V30 34747 H 3111.99 0.0855769 1.89807 0
M  V30 34748 H 3110.14 -1.89638 3.39072 0
M  V30 34749 H 3111.81 0.41946 4.59389 0
M  V30 34750 H 3110.06 0.463521 4.31316 0
M  V30 34751 H 3110.73 -0.682422 5.47765 0
M  V30 34752 H 3113.2 -1.6584 3.81623 0
M  V30 34753 H 3112.08 -2.58784 4.84068 0
M  V30 34754 H 3112.34 -3.07744 3.17405 0
M  V30 34755 N 3111.4 -1.55689 -0.244686 0
M  V30 34756 C 3112.63 -1.82022 -0.994125 0
M  V30 34757 C 3113.05 -0.605802 -1.78078 0
M  V30 34758 O 3112.41 0.44519 -1.75749 0
M  V30 34759 C 3112.46 -3.06115 -1.90594 0
M  V30 34760 O 3111.56 -2.83186 -2.99799 0
M  V30 34761 H 3110.9 -0.600787 -0.282756 0
M  V30 34762 H 3113.43 -2.02877 -0.265004 0
M  V30 34763 H 3113.44 -3.35607 -2.32017 0
M  V30 34764 H 3112.12 -3.94143 -1.32756 0
M  V30 34765 H 3110.69 -2.64867 -2.62488 0
M  V30 34766 N 3112.88 0.510441 -1.49105 0
M  V30 34767 C 3114.12 1.26703 -1.58349 0
M  V30 34768 C 3114.46 1.92381 -0.265155 0
M  V30 34769 O 3113.73 1.8026 0.730526 0
M  V30 34770 C 3114.02 2.34133 -2.73594 0
M  V30 34771 C 3113.87 1.73017 -4.15193 0
M  V30 34772 C 3115.19 3.35765 -2.84517 0
M  V30 34773 H 3112.31 0.459301 -0.576378 0
M  V30 34774 H 3114.95 0.566626 -1.81354 0
M  V30 34775 H 3113.1 2.93872 -2.5411 0
M  V30 34776 H 3114.77 1.17178 -4.46169 0
M  V30 34777 H 3113.01 1.03466 -4.21281 0
M  V30 34778 H 3113.68 2.50894 -4.91687 0
M  V30 34779 H 3116.16 2.86006 -3.02225 0
M  V30 34780 H 3115.04 4.08306 -3.66848 0
M  V30 34781 H 3115.3 3.97516 -1.93478 0
M  V30 34782 N 3114.36 1.38021 0.760791 0
M  V30 34783 C 3115.58 1.37227 1.55511 0
M  V30 34784 C 3116.01 -0.0375779 1.88062 0
M  V30 34785 O 3115.36 -1.01767 1.50044 0
M  V30 34786 C 3115.41 2.22801 2.83535 0
M  V30 34787 O 3114.52 1.64016 3.78381 0
M  V30 34788 H 3113.86 0.468401 0.470634 0
M  V30 34789 H 3116.39 1.81689 0.94076 0
M  V30 34790 H 3116.4 2.36405 3.32531 0
M  V30 34791 H 3115.07 3.25273 2.59172 0
M  V30 34792 H 3113.65 1.59514 3.3706 0
M  V30 34793 N 3115.83 -0.98818 1.22771 0
M  V30 34794 C 3116.74 -2.11339 1.01848 0
M  V30 34795 C 3117.76 -1.73965 -0.0346631 0
M  V30 34796 O 3118.94 -2.00771 0.159096 0
M  V30 34797 C 3116 -3.414 0.603897 0
M  V30 34798 C 3115.06 -3.92846 1.7312 0
M  V30 34799 C 3114.3 -5.167 1.3363 0
M  V30 34800 O 3114.52 -5.69987 0.217141 0
M  V30 34801 O 3113.45 -5.62017 2.15453 0
M  V30 34802 H 3117.28 -2.31876 1.96131 0
M  V30 34803 H 3114.86 -1.09713 1.01407 0
M  V30 34804 H 3116.75 -4.19653 0.38327 0
M  V30 34805 H 3115.42 -3.22212 -0.310026 0
M  V30 34806 H 3114.33 -3.15745 2.00639 0
M  V30 34807 H 3115.66 -4.16475 2.62316 0
M  V30 34808 N 3117.31 -1.03816 -1.18575 0
M  V30 34809 C 3118.28 -0.631499 -2.20329 0
M  V30 34810 C 3119.28 0.309788 -1.57788 0
M  V30 34811 O 3120.47 0.0955292 -1.73938 0
M  V30 34812 C 3117.6 0.0745363 -3.40819 0
M  V30 34813 H 3118.79 -1.53194 -2.57821 0
M  V30 34814 H 3116.34 -0.830421 -1.32415 0
M  V30 34815 H 3117.08 0.988892 -3.08855 0
M  V30 34816 H 3116.86 -0.601968 -3.87452 0
M  V30 34817 H 3118.35 0.345654 -4.16167 0
M  V30 34818 N 3118.79 1.34753 -0.817283 0
M  V30 34819 C 3120.04 1.97712 -0.399115 0
M  V30 34820 C 3120.35 1.65535 1.042 0
M  V30 34821 O 3121.56 2.2194 1.5638 0
M  V30 34822 C 3120.01 3.53746 -0.662696 0
M  V30 34823 C 3119.62 3.94822 -2.11706 0
M  V30 34824 C 3121.37 4.23364 -0.310414 0
M  V30 34825 C 3119.27 5.43746 -2.32582 0
M  V30 34826 H 3118.2 0.739828 -0.145501 0
M  V30 34827 H 3120.85 1.53673 -1.00284 0
M  V30 34828 H 3119.24 3.95998 0.0111276 0
M  V30 34829 H 3120.41 3.63692 -2.82957 0
M  V30 34830 H 3118.73 3.38125 -2.43023 0
M  V30 34831 H 3121.32 5.32851 -0.444304 0
M  V30 34832 H 3121.67 4.09588 0.744522 0
M  V30 34833 H 3122.2 3.86569 -0.938586 0
M  V30 34834 H 3118.94 5.62501 -3.36561 0
M  V30 34835 H 3118.46 5.7641 -1.65868 0
M  V30 34836 H 3120.14 6.10352 -2.14662 0
M  V30 34837 N 3120.27 0.571737 1.46864 0
M  V30 34838 C 3121.22 -0.167767 2.30189 0
M  V30 34839 C 3122.19 -0.894585 1.39951 0
M  V30 34840 O 3123.37 -0.887421 1.68907 0
M  V30 34841 C 3120.51 -1.18254 3.24207 0
M  V30 34842 C 3119.62 -0.4603 4.29541 0
M  V30 34843 C 3118.76 -1.46164 5.10695 0
M  V30 34844 C 3117.8 -0.725184 6.07789 0
M  V30 34845 N 3116.94 -1.67405 6.8185 0
M  V30 34846 H 3121.78 0.548882 2.92901 0
M  V30 34847 H 3119.31 0.282499 1.44362 0
M  V30 34848 H 3121.27 -1.78364 3.7715 0
M  V30 34849 H 3119.9 -1.86704 2.63327 0
M  V30 34850 H 3118.95 0.255612 3.7954 0
M  V30 34851 H 3120.26 0.115942 4.98665 0
M  V30 34852 H 3119.42 -2.13585 5.67861 0
M  V30 34853 H 3118.16 -2.07181 4.41506 0
M  V30 34854 H 3117.16 -0.0371314 5.49787 0
M  V30 34855 H 3118.39 -0.120559 6.78993 0
M  V30 34856 H 3116.33 -2.27252 6.1538 0
M  V30 34857 H 3116.25 -1.15033 7.47197 0
M  V30 34858 H 3117.52 -2.33895 7.43581 0
M  V30 34859 N 3121.75 -1.54542 0.308935 0
M  V30 34860 C 3122.69 -2.23812 -0.56362 0
M  V30 34861 C 3123.66 -1.22357 -1.1233 0
M  V30 34862 O 3124.85 -1.50999 -1.16635 0
M  V30 34863 C 3121.99 -2.98848 -1.72579 0
M  V30 34864 C 3121.1 -4.15093 -1.19675 0
M  V30 34865 C 3120.24 -4.77693 -2.32343 0
M  V30 34866 C 3119.28 -5.86067 -1.76613 0
M  V30 34867 N 3118.41 -6.42589 -2.82885 0
M  V30 34868 H 3123.25 -2.97981 0.0336812 0
M  V30 34869 H 3120.79 -1.47073 0.0283925 0
M  V30 34870 H 3122.75 -3.4059 -2.40945 0
M  V30 34871 H 3121.38 -2.27041 -2.2946 0
M  V30 34872 H 3120.43 -3.78237 -0.405107 0
M  V30 34873 H 3121.74 -4.93147 -0.748836 0
M  V30 34874 H 3120.9 -5.22327 -3.0864 0
M  V30 34875 H 3119.64 -3.98987 -2.80465 0
M  V30 34876 H 3118.64 -5.40848 -0.988076 0
M  V30 34877 H 3119.87 -6.6666 -1.29386 0
M  V30 34878 H 3117.81 -5.66764 -3.30326 0
M  V30 34879 H 3117.73 -7.16013 -2.42613 0
M  V30 34880 H 3119 -6.91881 -3.59056 0
M  V30 34881 N 3123.23 -0.0368104 -1.57557 0
M  V30 34882 C 3124.17 0.960416 -2.11846 0
M  V30 34883 C 3125.17 1.33183 -1.04684 0
M  V30 34884 O 3126.37 1.31316 -1.2311 0
M  V30 34885 H 3122.75 0.327528 -0.676926 0
M  V30 34886 H 3124.72 0.477294 -2.94558 0
M  V30 34887 C 3123.47 2.231 -2.66687 0
M  V30 34888 H 3122.79 1.95397 -3.48798 0
M  V30 34889 H 3124.23 2.91069 -3.0831 0
M  V30 34890 C 3122.69 2.96597 -1.59788 0
M  V30 34891 O 3123.22 3.88997 -1.00221 0
M  V30 34892 N 3121.43 2.59069 -1.31649 0
M  V30 34893 H 3120.97 1.84007 -1.80275 0
M  V30 34894 H 3120.93 3.08553 -0.603511 0
M  V30 34895 N 3124.7 1.55817 0.236426 0
M  V30 34896 C 3125.63 1.94208 1.29636 0
M  V30 34897 C 3126.61 0.808346 1.49666 0
M  V30 34898 O 3127.8 1.06947 1.62098 0
M  V30 34899 C 3124.93 2.24589 2.6491 0
M  V30 34900 C 3123.88 3.40313 2.59559 0
M  V30 34901 C 3123.21 3.56261 3.98726 0
M  V30 34902 C 3124.51 4.7571 2.15633 0
M  V30 34903 H 3126.2 2.82993 0.977503 0
M  V30 34904 H 3123.75 1.36156 0.46878 0
M  V30 34905 H 3125.7 2.50037 3.39204 0
M  V30 34906 H 3124.43 1.32641 2.98453 0
M  V30 34907 H 3123.09 3.1489 1.87722 0
M  V30 34908 H 3122.73 2.61715 4.29551 0
M  V30 34909 H 3122.43 4.34089 3.96031 0
M  V30 34910 H 3123.96 3.84041 4.74705 0
M  V30 34911 H 3125.37 5.00461 2.79664 0
M  V30 34912 H 3123.77 5.56714 2.24029 0
M  V30 34913 H 3124.84 4.72066 1.10822 0
M  V30 34914 N 3126.18 -0.502526 1.49373 0
M  V30 34915 C 3127.43 -1.25336 1.58031 0
M  V30 34916 C 3127.74 -1.93706 0.271528 0
M  V30 34917 O 3128.95 -2.70467 0.236632 0
M  V30 34918 C 3127.41 -2.27568 2.78821 0
M  V30 34919 C 3127.01 -1.65144 4.16451 0
M  V30 34920 C 3128.76 -3.03489 2.96807 0
M  V30 34921 C 3126.66 -2.65477 5.28466 0
M  V30 34922 H 3125.59 -0.471484 0.588404 0
M  V30 34923 H 3128.25 -0.527409 1.75757 0
M  V30 34924 H 3126.63 -3.03319 2.54585 0
M  V30 34925 H 3127.8 -0.95395 4.50818 0
M  V30 34926 H 3126.12 -1.01618 4.0381 0
M  V30 34927 H 3128.71 -3.78517 3.77662 0
M  V30 34928 H 3129.06 -3.61011 2.07309 0
M  V30 34929 H 3129.59 -2.34853 3.21075 0
M  V30 34930 H 3126.33 -2.12738 6.20018 0
M  V30 34931 H 3125.85 -3.3347 4.98556 0
M  V30 34932 H 3127.53 -3.27933 5.57736 0
M  V30 34933 N 3127.66 -1.38422 -0.75346 0
M  V30 34934 C 3128.94 -1.25158 -1.50316 0
M  V30 34935 C 3129.32 0.146966 -2.10588 0
M  V30 34936 O 3128.66 1.15648 -1.97073 0
M  V30 34937 C 3128.87 -2.36182 -2.56942 0
M  V30 34938 C 3130.22 -2.74613 -3.23841 0
M  V30 34939 O 3131.25 -2.35495 -2.67247 0
M  V30 34940 O 3130.11 -3.42071 -4.26204 0
M  V30 34941 H 3127.2 -0.489441 -0.666615 0
M  V30 34942 H 3129.75 -1.5025 -0.788861 0
M  V30 34943 H 3128.52 -3.29758 -2.10654 0
M  V30 34944 H 3128.14 -2.12654 -3.35952 0
M  V30 34945 N 3129.14 0.981655 -1.23294 0
M  V30 34946 C 3130.55 1.24762 -0.995317 0
M  V30 34947 C 3130.75 1.99188 0.304344 0
M  V30 34948 O 3129.81 2.30799 1.0241 0
M  V30 34949 C 3131.12 2.0484 -2.20139 0
M  V30 34950 C 3132.67 2.17984 -2.24615 0
M  V30 34951 C 3133.15 3.01452 -3.44805 0
M  V30 34952 N 3134.64 3.09037 -3.45036 0
M  V30 34953 C 3135.37 3.73942 -4.34689 0
M  V30 34954 N 3134.87 4.40681 -5.34577 0
M  V30 34955 N 3136.66 3.70816 -4.22436 0
M  V30 34956 H 3128.81 0.483016 -2.06835 0
M  V30 34957 H 3131.07 0.275998 -0.906934 0
M  V30 34958 H 3130.78 1.57527 -3.14449 0
M  V30 34959 H 3130.65 3.0559 -2.21121 0
M  V30 34960 H 3133.04 2.64506 -1.30845 0
M  V30 34961 H 3133.12 1.16627 -2.27666 0
M  V30 34962 H 3132.77 2.55627 -4.38882 0
M  V30 34963 H 3132.7 4.02976 -3.38996 0
M  V30 34964 H 3135.19 2.6155 -2.72763 0
M  V30 34965 H 3135.5 4.87981 -5.99245 0
M  V30 34966 H 3133.85 4.39393 -5.38478 0
M  V30 34967 H 3137.04 3.17845 -3.43645 0
M  V30 34968 H 3137.21 4.21117 -4.92508 0
M  V30 34969 N 3130.62 1.04444 1.18022 0
M  V30 34970 C 3131.53 0.649315 2.25435 0
M  V30 34971 C 3132.54 -0.326159 1.70916 0
M  V30 34972 O 3133.72 -0.180139 2.00593 0
M  V30 34973 C 3130.78 0.0223167 3.46693 0
M  V30 34974 C 3129.84 1.04728 4.1633 0
M  V30 34975 C 3129.08 0.450105 5.31799 0
M  V30 34976 O 3129.3 -0.742618 5.65545 0
M  V30 34977 O 3128.23 1.18067 5.90207 0
M  V30 34978 H 3132.06 1.5443 2.61505 0
M  V30 34979 H 3129.64 0.815542 1.25177 0
M  V30 34980 H 3131.53 -0.326523 4.20133 0
M  V30 34981 H 3130.2 -0.846435 3.12437 0
M  V30 34982 H 3129.11 1.44798 3.44941 0
M  V30 34983 H 3130.44 1.88692 4.54594 0
M  V30 34984 N 3132.09 -1.34317 0.824418 0
M  V30 34985 C 3133.32 -2.02462 0.42623 0
M  V30 34986 C 3133.74 -1.6208 -0.96827 0
M  V30 34987 O 3133.09 -0.826989 -1.62687 0
M  V30 34988 C 3133.14 -3.57733 0.520527 0
M  V30 34989 O 3132.87 -3.96652 1.86007 0
M  V30 34990 C 3134.37 -4.43144 0.117431 0
M  V30 34991 H 3131.59 -0.648878 0.170875 0
M  V30 34992 H 3134.13 -1.7156 1.11299 0
M  V30 34993 H 3132.29 -3.8722 -0.118165 0
M  V30 34994 H 3132.7 -4.9134 1.83537 0
M  V30 34995 H 3134.17 -5.51502 0.234492 0
M  V30 34996 H 3134.65 -4.2904 -0.939196 0
M  V30 34997 H 3135.26 -4.18988 0.729981 0
M  V30 34998 N 3133.57 -0.579517 -1.46558 0
M  V30 34999 C 3134.82 -0.0637512 -2.01999 0
M  V30 35000 C 3135.14 1.2996 -1.4538 0
M  V30 35001 O 3134.41 1.85244 -0.637294 0
M  V30 35002 H 3132.99 -0.0205769 -0.746717 0
M  V30 35003 H 3135.65 -0.754575 -1.797 0
M  V30 35004 H 3134.75 0.00764768 -3.12099 0
M  V30 35005 N 3135.05 1.54376 -0.317127 0
M  V30 35006 C 3135.98 2.2033 0.594139 0
M  V30 35007 C 3136.96 1.17814 1.12065 0
M  V30 35008 O 3138.15 1.46526 1.18585 0
M  V30 35009 C 3135.27 2.85991 1.81458 0
M  V30 35010 C 3134.32 4.02171 1.41989 0
M  V30 35011 S 3135.15 5.33503 0.462065 0
M  V30 35012 C 3136.31 6.02654 1.68994 0
M  V30 35013 H 3136.54 2.97281 0.0338738 0
M  V30 35014 H 3134.07 1.54068 -0.101223 0
M  V30 35015 H 3136.03 3.24444 2.51488 0
M  V30 35016 H 3134.69 2.08855 2.34603 0
M  V30 35017 H 3133.89 4.46954 2.32913 0
M  V30 35018 H 3133.49 3.65358 0.799359 0
M  V30 35019 H 3135.78 6.24442 2.62828 0
M  V30 35020 H 3136.72 6.96354 1.28438 0
M  V30 35021 H 3137.13 5.32487 1.87399 0
M  V30 35022 N 3136.53 0.0451655 1.57535 0
M  V30 35023 C 3137.94 -0.311346 1.56534 0
M  V30 35024 C 3138.14 -1.71841 1.05228 0
M  V30 35025 O 3137.2 -2.42424 0.706187 0
M  V30 35026 C 3138.51 -0.145295 3.00349 0
M  V30 35027 C 3140.06 -0.216853 3.12248 0
M  V30 35028 C 3140.54 -0.0794029 4.57931 0
M  V30 35029 N 3142.03 -0.135873 4.63001 0
M  V30 35030 C 3142.76 -0.0535418 5.73375 0
M  V30 35031 N 3142.26 0.0807943 6.92753 0
M  V30 35032 N 3144.05 -0.108691 5.61995 0
M  V30 35033 H 3136.2 0.965077 1.89209 0
M  V30 35034 H 3138.47 0.374107 0.871062 0
M  V30 35035 H 3138.17 0.824593 3.41897 0
M  V30 35036 H 3138.05 -0.908838 3.66087 0
M  V30 35037 H 3140.43 -1.17721 2.70603 0
M  V30 35038 H 3140.51 0.577342 2.492 0
M  V30 35039 H 3140.16 0.877604 5.0026 0
M  V30 35040 H 3140.09 -0.892667 5.18979 0
M  V30 35041 H 3142.58 -0.239193 3.77142 0
M  V30 35042 H 3142.89 0.136487 7.72679 0
M  V30 35043 H 3141.24 0.115797 6.94904 0
M  V30 35044 H 3144.43 -0.212153 4.67619 0
M  V30 35045 H 3144.6 -0.0410683 6.47987 0
M  V30 35046 N 3138.01 -1.5594 -0.228159 0
M  V30 35047 C 3138.94 -1.94893 -1.28604 0
M  V30 35048 C 3139.92 -0.816271 -1.49235 0
M  V30 35049 O 3141.1 -1.07806 -1.61529 0
M  V30 35050 C 3138.23 -2.2599 -2.63715 0
M  V30 35051 C 3137.19 -3.41685 -2.57751 0
M  V30 35052 C 3136.51 -3.5837 -3.96831 0
M  V30 35053 C 3137.81 -4.76846 -2.13107 0
M  V30 35054 H 3139.51 -2.83508 -0.962481 0
M  V30 35055 H 3137.05 -1.36403 -0.461553 0
M  V30 35056 H 3139.01 -2.51832 -3.37874 0
M  V30 35057 H 3137.73 -1.34222 -2.97745 0
M  V30 35058 H 3136.39 -3.15881 -1.8605 0
M  V30 35059 H 3136.04 -2.63989 -4.28157 0
M  V30 35060 H 3135.74 -4.36183 -3.93724 0
M  V30 35061 H 3137.26 -3.86554 -4.72661 0
M  V30 35062 H 3138.67 -5.01937 -2.77006 0
M  V30 35063 H 3137.07 -5.57895 -2.21074 0
M  V30 35064 H 3138.14 -4.72647 -1.08317 0
M  V30 35065 N 3139.48 0.494597 -1.49638 0
M  V30 35066 C 3140.41 1.60393 -1.69695 0
M  V30 35067 C 3141.4 1.6111 -0.545676 0
M  V30 35068 O 3142.58 1.77749 -0.782233 0
M  V30 35069 C 3139.71 2.98847 -1.7694 0
M  V30 35070 C 3138.66 3.12996 -2.9192 0
M  V30 35071 C 3137.99 4.52865 -2.84284 0
M  V30 35072 C 3139.29 2.92418 -4.32769 0
M  V30 35073 H 3140.98 1.43862 -2.62572 0
M  V30 35074 H 3138.53 0.690657 -1.26356 0
M  V30 35075 H 3140.48 3.76359 -1.89557 0
M  V30 35076 H 3139.21 3.16481 -0.806664 0
M  V30 35077 H 3137.87 2.37911 -2.78916 0
M  V30 35078 H 3137.51 4.67384 -1.85905 0
M  V30 35079 H 3137.21 4.63272 -3.6146 0
M  V30 35080 H 3138.74 5.32429 -2.98918 0
M  V30 35081 H 3140.15 3.59695 -4.46422 0
M  V30 35082 H 3138.55 3.14291 -5.11215 0
M  V30 35083 H 3139.62 1.88483 -4.46769 0
M  V30 35084 N 3140.96 1.3882 0.746109 0
M  V30 35085 C 3141.87 1.389 1.89061 0
M  V30 35086 C 3142.89 0.28516 1.71647 0
M  V30 35087 O 3144.06 0.524817 1.94442 0
M  V30 35088 C 3141.13 1.22013 3.24521 0
M  V30 35089 C 3140.19 2.42269 3.54407 0
M  V30 35090 C 3139.42 2.26178 4.83404 0
M  V30 35091 O 3139.65 1.2594 5.56323 0
M  V30 35092 O 3138.58 3.14927 5.12937 0
M  V30 35093 H 3142.41 2.35351 1.91947 0
M  V30 35094 H 3139.99 1.19818 0.892412 0
M  V30 35095 H 3141.87 1.14684 4.05494 0
M  V30 35096 H 3140.55 0.286512 3.2243 0
M  V30 35097 H 3139.46 2.55173 2.73565 0
M  V30 35098 H 3140.79 3.34286 3.61267 0
M  V30 35099 N 3142.44 -0.975103 1.23812 0
M  V30 35100 C 3143.4 -2.04999 1.02509 0
M  V30 35101 C 3144.4 -1.60793 -0.0149801 0
M  V30 35102 O 3145.59 -1.72737 0.225277 0
M  V30 35103 C 3142.73 -3.36399 0.552146 0
M  V30 35104 H 3143.92 -2.25331 1.97904 0
M  V30 35105 H 3141.47 -1.14928 1.05931 0
M  V30 35106 H 3142.21 -3.21757 -0.405337 0
M  V30 35107 H 3141.99 -3.69826 1.30274 0
M  V30 35108 H 3143.48 -4.15443 0.423901 0
M  V30 35109 N 3143.92 -1.05068 -1.17467 0
M  V30 35110 C 3144.85 -0.608565 -2.20973 0
M  V30 35111 C 3145.86 0.327038 -1.59481 0
M  V30 35112 O 3147.05 0.119968 -1.78096 0
M  V30 35113 C 3144.15 0.129631 -3.38652 0
M  V30 35114 C 3143.33 -0.81636 -4.29714 0
M  V30 35115 C 3142.38 -0.119649 -5.26064 0
M  V30 35116 O 3141.41 -0.75334 -5.64193 0
M  V30 35117 N 3142.61 1.14337 -5.69128 0
M  V30 35118 H 3145.38 -1.49887 -2.59527 0
M  V30 35119 H 3142.94 -0.932429 -1.32353 0
M  V30 35120 H 3144.93 0.605816 -4.0014 0
M  V30 35121 H 3143.5 0.921585 -2.98706 0
M  V30 35122 H 3142.72 -1.47219 -3.65678 0
M  V30 35123 H 3144.01 -1.45853 -4.87447 0
M  V30 35124 H 3143.41 1.67856 -5.40223 0
M  V30 35125 H 3141.96 1.56365 -6.32766 0
M  V30 35126 N 3145.4 1.33878 -0.831529 0
M  V30 35127 C 3146.65 1.97277 -0.420062 0
M  V30 35128 C 3146.96 1.66631 1.02438 0
M  V30 35129 O 3148.16 2.23586 1.54017 0
M  V30 35130 C 3146.62 3.53023 -0.700178 0
M  V30 35131 C 3146.23 3.92555 -2.15881 0
M  V30 35132 C 3147.97 4.2301 -0.3553 0
M  V30 35133 C 3145.88 5.41248 -2.38336 0
M  V30 35134 H 3144.81 0.738243 -0.153339 0
M  V30 35135 H 3147.46 1.526 -1.01909 0
M  V30 35136 H 3145.84 3.95988 -0.030874 0
M  V30 35137 H 3147.02 3.6067 -2.86799 0
M  V30 35138 H 3145.33 3.35529 -2.46596 0
M  V30 35139 H 3147.93 5.3235 -0.500795 0
M  V30 35140 H 3148.27 4.10355 0.701038 0
M  V30 35141 H 3148.8 3.85552 -0.979534 0
M  V30 35142 H 3145.54 5.589 -3.42508 0
M  V30 35143 H 3145.06 5.74618 -1.71972 0
M  V30 35144 H 3146.74 6.08041 -2.21123 0
M  V30 35145 N 3146.87 0.587281 1.46249 0
M  V30 35146 C 3147.84 -0.133198 2.28813 0
M  V30 35147 C 3148.84 -0.814489 1.38646 0
M  V30 35148 O 3150.03 -0.665746 1.60977 0
M  V30 35149 C 3147.16 -1.19818 3.1915 0
M  V30 35150 H 3148.35 0.592437 2.9399 0
M  V30 35151 H 3145.91 0.345443 1.52435 0
M  V30 35152 H 3146.64 -1.95525 2.58729 0
M  V30 35153 H 3146.43 -0.714112 3.85542 0
M  V30 35154 H 3147.92 -1.70337 3.81281 0
M  V30 35155 N 3148.35 -1.54206 0.325309 0
M  V30 35156 C 3149.58 -2.05482 -0.281382 0
M  V30 35157 C 3150 -1.1998 -1.44867 0
M  V30 35158 O 3149.36 -0.209306 -1.80088 0
M  V30 35159 C 3149.41 -3.53899 -0.691967 0
M  V30 35160 O 3148.51 -3.71328 -1.79414 0
M  V30 35161 H 3147.85 -0.662079 -0.0504756 0
M  V30 35162 H 3150.38 -1.99028 0.474226 0
M  V30 35163 H 3150.39 -3.962 -0.974149 0
M  V30 35164 H 3149.07 -4.15585 0.161783 0
M  V30 35165 H 3147.65 -3.40932 -1.51063 0
M  V30 35166 N 3149.83 -0.0535194 -1.57509 0
M  V30 35167 C 3151.08 0.618514 -1.92403 0
M  V30 35168 C 3151.4 1.71244 -0.93276 0
M  V30 35169 O 3150.67 1.95888 0.0220151 0
M  V30 35170 H 3149.25 0.231457 -0.710237 0
M  V30 35171 H 3151.91 -0.107074 -1.94606 0
M  V30 35172 H 3151.01 1.05561 -2.93706 0
M  V30 35173 N 3151.31 1.56059 0.219886 0
M  V30 35174 C 3152.56 1.78795 0.942168 0
M  V30 35175 C 3152.88 0.622316 1.84803 0
M  V30 35176 O 3152.15 -0.360701 1.92551 0
M  V30 35177 H 3150.73 0.659462 0.350884 0
M  V30 35178 H 3153.39 1.93522 0.231342 0
M  V30 35179 H 3152.49 2.71005 1.54799 0
M  V30 35180 N 3152.79 -0.486655 1.49898 0
M  V30 35181 C 3154.03 -1.24167 1.60344 0
M  V30 35182 C 3154.37 -1.91935 0.295727 0
M  V30 35183 O 3153.64 -1.81399 -0.701756 0
M  V30 35184 C 3153.92 -2.2975 2.77285 0
M  V30 35185 C 3153.78 -1.6639 4.17893 0
M  V30 35186 C 3155.1 -3.31196 2.89823 0
M  V30 35187 H 3152.22 -0.450073 0.583612 0
M  V30 35188 H 3154.86 -0.537702 1.82233 0
M  V30 35189 H 3153.01 -2.89792 2.58753 0
M  V30 35190 H 3154.68 -1.10065 4.47977 0
M  V30 35191 H 3152.92 -0.967505 4.22873 0
M  V30 35192 H 3153.59 -2.4304 4.95616 0
M  V30 35193 H 3156.07 -2.81161 3.06737 0
M  V30 35194 H 3154.95 -4.02418 3.73297 0
M  V30 35195 H 3155.21 -3.94387 1.99777 0
M  V30 35196 N 3154.27 -1.39214 -0.738737 0
M  V30 35197 C 3155.51 -1.36435 -1.50044 0
M  V30 35198 C 3155.84 0.0409133 -1.94157 0
M  V30 35199 O 3155.12 1.00511 -1.66517 0
M  V30 35200 C 3155.4 -2.33338 -2.74272 0
M  V30 35201 C 3155.26 -3.8279 -2.36203 0
M  V30 35202 C 3156.57 -2.2813 -3.76357 0
M  V30 35203 H 3153.69 -0.496913 -0.544286 0
M  V30 35204 H 3156.34 -1.70177 -0.844975 0
M  V30 35205 H 3154.49 -2.04695 -3.302 0
M  V30 35206 H 3156.16 -4.22168 -1.85935 0
M  V30 35207 H 3154.4 -3.99748 -1.68476 0
M  V30 35208 H 3155.07 -4.46075 -3.25148 0
M  V30 35209 H 3157.55 -2.53448 -3.30005 0
M  V30 35210 H 3156.42 -2.98018 -4.60952 0
M  V30 35211 H 3156.68 -1.28507 -4.23011 0
M  V30 35212 N 3155.74 0.968523 -1.24328 0
M  V30 35213 C 3157.02 1.68667 -0.990489 0
M  V30 35214 C 3157.4 2.05395 0.487451 0
M  V30 35215 O 3156.75 1.75645 1.46155 0
M  V30 35216 C 3156.96 2.91928 -1.91257 0
M  V30 35217 C 3158.31 3.64186 -2.18297 0
M  V30 35218 O 3159.33 3.01984 -1.88903 0
M  V30 35219 O 3158.19 4.76156 -2.68212 0
M  V30 35220 H 3155.28 0.737332 -0.374527 0
M  V30 35221 H 3157.83 1.02269 -1.35422 0
M  V30 35222 H 3156.6 2.61473 -2.91114 0
M  V30 35223 H 3156.22 3.66061 -1.55194 0
M  V30 35224 N 3157.22 1.0569 1.16908 0
M  V30 35225 C 3158.63 0.795302 1.68914 0
M  V30 35226 C 3158.98 -0.681892 1.83969 0
M  V30 35227 O 3158.11 -1.5295 1.53085 0
M  V30 35228 C 3158.7 1.43708 3.06812 0
M  V30 35229 C 3157.26 1.22341 3.55963 0
M  V30 35230 C 3156.41 1.51745 2.32096 0
M  V30 35231 H 3159.36 1.22118 1.01355 0
M  V30 35232 H 3159.38 0.849081 3.70905 0
M  V30 35233 H 3158.89 2.51219 2.95822 0
M  V30 35234 H 3156.99 0.167775 3.72222 0
M  V30 35235 H 3157.11 1.93187 4.38424 0
M  V30 35236 H 3155.47 0.937737 2.36809 0
M  V30 35237 H 3156.25 2.60401 2.2371 0
M  V30 35238 N 3158.7 -1.33435 0.838617 0
M  V30 35239 C 3159.95 -1.98083 0.434847 0
M  V30 35240 C 3160.28 -1.66277 -1.00328 0
M  V30 35241 O 3159.55 -0.942531 -1.70137 0
M  V30 35242 C 3159.84 -3.54081 0.655664 0
M  V30 35243 C 3159.69 -3.95575 2.14104 0
M  V30 35244 C 3161.01 -4.39983 0.101653 0
M  V30 35245 H 3158.13 -0.719541 0.159468 0
M  V30 35246 H 3160.77 -1.58079 1.05408 0
M  V30 35247 H 3158.92 -3.88287 0.128569 0
M  V30 35248 H 3160.59 -3.71626 2.73298 0
M  V30 35249 H 3158.83 -3.45315 2.62564 0
M  V30 35250 H 3159.51 -5.04228 2.2463 0
M  V30 35251 H 3161.98 -4.1242 0.552195 0
M  V30 35252 H 3160.86 -5.48155 0.285847 0
M  V30 35253 H 3161.12 -4.30768 -0.99454 0
M  V30 35254 N 3160.18 -0.595029 -1.45935 0
M  V30 35255 C 3161.13 0.143757 -2.32155 0
M  V30 35256 C 3162.12 0.872172 -1.45222 0
M  V30 35257 O 3163.33 0.789162 -1.61778 0
M  V30 35258 H 3159.7 0.0652245 -0.749166 0
M  V30 35259 H 3161.67 -0.602056 -2.92263 0
M  V30 35260 C 3160.42 1.13605 -3.28617 0
M  V30 35261 H 3159.74 0.584974 -3.95497 0
M  V30 35262 H 3161.18 1.62314 -3.91701 0
M  V30 35263 C 3159.64 2.20328 -2.54867 0
M  V30 35264 O 3160.17 3.27877 -2.32077 0
M  V30 35265 N 3158.38 1.9527 -2.15216 0
M  V30 35266 H 3157.93 1.07817 -2.33951 0
M  V30 35267 H 3157.88 2.66885 -1.66192 0
M  V30 35268 N 3161.66 1.54031 -0.333483 0
M  V30 35269 C 3162.88 2.05629 0.270481 0
M  V30 35270 C 3163.31 1.20746 1.44229 0
M  V30 35271 O 3162.66 0.218854 1.79974 0
M  V30 35272 C 3162.71 3.54261 0.673189 0
M  V30 35273 O 3161.82 3.72274 1.77442 0
M  V30 35274 H 3161.16 0.662337 0.0469637 0
M  V30 35275 H 3163.69 1.98774 -0.484774 0
M  V30 35276 H 3163.7 3.96711 0.953124 0
M  V30 35277 H 3162.37 4.15494 -0.18382 0
M  V30 35278 H 3160.95 3.41728 1.49253 0
M  V30 35279 N 3163.13 0.0618717 1.57479 0
M  V30 35280 C 3164.38 -0.610409 1.93396 0
M  V30 35281 C 3164.71 -1.69859 0.941364 0
M  V30 35282 O 3163.99 -1.94475 -0.030992 0
M  V30 35283 C 3164.27 -1.19658 3.39638 0
M  V30 35284 C 3164.12 -0.115726 4.49651 0
M  V30 35285 C 3165.44 -2.10505 3.86491 0
M  V30 35286 H 3162.56 -0.220424 0.703265 0
M  V30 35287 H 3165.2 0.125819 1.89583 0
M  V30 35288 H 3163.35 -1.82403 3.43018 0
M  V30 35289 H 3165.03 0.516809 4.58396 0
M  V30 35290 H 3163.27 0.554905 4.30236 0
M  V30 35291 H 3163.94 -0.566079 5.4909 0
M  V30 35292 H 3166.42 -1.57708 3.85055 0
M  V30 35293 H 3165.29 -2.48458 4.89449 0
M  V30 35294 H 3165.55 -3.00942 3.23862 0
M  V30 35295 N 3164.61 -1.56173 -0.211607 0
M  V30 35296 C 3165.86 -1.79647 -0.934519 0
M  V30 35297 C 3166.19 -0.632327 -1.83934 0
M  V30 35298 O 3165.44 0.382807 -1.91919 0
M  V30 35299 C 3165.74 -3.08966 -1.79651 0
M  V30 35300 C 3165.41 -4.38645 -1.04408 0
M  V30 35301 C 3164.07 -4.73878 -0.836268 0
M  V30 35302 C 3166.42 -5.18665 -0.513459 0
M  V30 35303 C 3163.75 -5.86637 -0.0860944 0
M  V30 35304 C 3166.1 -6.32205 0.22342 0
M  V30 35305 C 3164.77 -6.66032 0.442396 0
M  V30 35306 H 3164.04 -0.657374 -0.341965 0
M  V30 35307 H 3166.68 -1.90432 -0.201991 0
M  V30 35308 H 3164.99 -2.93347 -2.59721 0
M  V30 35309 H 3166.68 -3.24332 -2.35817 0
M  V30 35310 H 3163.27 -4.10987 -1.21604 0
M  V30 35311 H 3167.46 -4.91872 -0.661454 0
M  V30 35312 H 3162.71 -6.11328 0.0936941 0
M  V30 35313 H 3166.89 -6.93434 0.642039 0
M  V30 35314 H 3164.52 -7.5325 1.0256 0
M  V30 35315 N 3166.09 0.478699 -1.50154 0
M  V30 35316 C 3167.02 1.58584 -1.71387 0
M  V30 35317 C 3168 1.60522 -0.562733 0
M  V30 35318 O 3169.19 1.76909 -0.801041 0
M  V30 35319 C 3166.32 2.96954 -1.80099 0
M  V30 35320 C 3165.27 3.09882 -2.95224 0
M  V30 35321 C 3164.6 4.49824 -2.89071 0
M  V30 35322 C 3165.9 2.87812 -4.35846 0
M  V30 35323 H 3167.59 1.41069 -2.64083 0
M  V30 35324 H 3165.14 0.677217 -1.27082 0
M  V30 35325 H 3167.09 3.74327 -1.93538 0
M  V30 35326 H 3165.81 3.15608 -0.840186 0
M  V30 35327 H 3164.47 2.34939 -2.81423 0
M  V30 35328 H 3164.12 4.65386 -1.90852 0
M  V30 35329 H 3163.82 4.59412 -3.66353 0
M  V30 35330 H 3165.34 5.29228 -3.04548 0
M  V30 35331 H 3166.76 3.5494 -4.50212 0
M  V30 35332 H 3165.16 3.08851 -5.1452 0
M  V30 35333 H 3166.23 1.83734 -4.48743 0
M  V30 35334 N 3167.57 1.39603 0.731343 0
M  V30 35335 C 3168.98 1.33047 1.30978 0
M  V30 35336 C 3169.33 -0.0034647 1.962 0
M  V30 35337 O 3168.46 -0.905581 1.96541 0
M  V30 35338 C 3169.05 2.40962 2.38166 0
M  V30 35339 C 3167.61 2.37915 2.91674 0
M  V30 35340 C 3166.76 2.22659 1.65282 0
M  V30 35341 H 3169.71 1.49638 0.528589 0
M  V30 35342 H 3169.73 2.07961 3.18642 0
M  V30 35343 H 3169.24 3.38035 1.90667 0
M  V30 35344 H 3167.34 1.44491 3.43443 0
M  V30 35345 H 3167.45 3.3291 3.44539 0
M  V30 35346 H 3165.82 1.69896 1.89756 0
M  V30 35347 H 3166.6 3.21707 1.1983 0
M  V30 35348 N 3169.05 -0.961916 1.2484 0
M  V30 35349 C 3169.99 -2.05744 1.04586 0
M  V30 35350 C 3170.96 -1.66045 -0.0426989 0
M  V30 35351 O 3172.15 -1.90465 0.11306 0
M  V30 35352 C 3169.29 -3.38673 0.662899 0
M  V30 35353 C 3168.4 -3.91533 1.82555 0
M  V30 35354 C 3167.54 -5.12756 1.38762 0
M  V30 35355 C 3166.58 -5.57826 2.51986 0
M  V30 35356 N 3165.71 -6.70265 2.0902 0
M  V30 35357 H 3170.55 -2.22401 1.98347 0
M  V30 35358 H 3168.09 -1.08996 0.987841 0
M  V30 35359 H 3170.05 -4.15062 0.421861 0
M  V30 35360 H 3168.68 -3.21923 -0.237719 0
M  V30 35361 H 3167.73 -3.11731 2.18009 0
M  V30 35362 H 3169.04 -4.20936 2.67609 0
M  V30 35363 H 3168.2 -5.96537 1.10581 0
M  V30 35364 H 3166.93 -4.8505 0.507703 0
M  V30 35365 H 3165.94 -4.72614 2.80921 0
M  V30 35366 H 3167.16 -5.87543 3.40544 0
M  V30 35367 H 3165.11 -6.44283 1.23434 0
M  V30 35368 H 3165.03 -6.99148 2.87626 0
M  V30 35369 H 3166.3 -7.57474 1.83995 0
M  V30 35370 N 3170.52 -1.06308 -1.16346 0
M  V30 35371 C 3171.8 -0.693342 -1.82899 0
M  V30 35372 C 3172.18 0.825276 -1.943 0
M  V30 35373 O 3171.53 1.73562 -1.48622 0
M  V30 35374 C 3171.74 -1.39546 -3.19888 0
M  V30 35375 C 3173.09 -1.54075 -3.95659 0
M  V30 35376 O 3174.11 -1.35537 -3.29406 0
M  V30 35377 O 3172.97 -1.84488 -5.14418 0
M  V30 35378 H 3170.06 -0.245459 -0.789733 0
M  V30 35379 H 3172.61 -1.16336 -1.23547 0
M  V30 35380 H 3171.38 -2.43098 -3.06625 0
M  V30 35381 H 3171.01 -0.915521 -3.86916 0
M  V30 35382 N 3172 1.32989 -0.845682 0
M  V30 35383 C 3173.25 1.9785 -0.445346 0
M  V30 35384 C 3173.58 1.66806 0.994446 0
M  V30 35385 O 3172.86 0.95154 1.69635 0
M  V30 35386 C 3173.14 3.53728 -0.674433 0
M  V30 35387 C 3172.99 3.94434 -2.16199 0
M  V30 35388 C 3174.31 4.39922 -0.124985 0
M  V30 35389 H 3171.43 0.718685 -0.163282 0
M  V30 35390 H 3174.07 1.57518 -1.06245 0
M  V30 35391 H 3172.22 3.88214 -0.149159 0
M  V30 35392 H 3173.89 3.70171 -2.75265 0
M  V30 35393 H 3172.14 3.43918 -2.64392 0
M  V30 35394 H 3172.81 5.03029 -2.27301 0
M  V30 35395 H 3175.28 4.12121 -0.574058 0
M  V30 35396 H 3174.16 5.47996 -0.314912 0
M  V30 35397 H 3174.42 4.3129 0.971682 0
M  V30 35398 N 3173.48 0.60276 1.45618 0
M  V30 35399 C 3174.44 -0.108922 2.28941 0
M  V30 35400 C 3175.44 -0.799738 1.39502 0
M  V30 35401 O 3176.63 -0.648635 1.61674 0
M  V30 35402 C 3173.77 -1.16426 3.20402 0
M  V30 35403 H 3174.96 0.623586 2.93345 0
M  V30 35404 H 3172.51 0.361591 1.5206 0
M  V30 35405 H 3173.25 -1.92769 2.60788 0
M  V30 35406 H 3173.03 -0.67318 3.86278 0
M  V30 35407 H 3174.52 -1.66283 3.83066 0
M  V30 35408 N 3174.96 -1.53852 0.341647 0
M  V30 35409 C 3175.89 -2.27898 -0.508391 0
M  V30 35410 C 3176.87 -1.29386 -1.10423 0
M  V30 35411 O 3178.05 -1.58226 -1.12597 0
M  V30 35412 C 3175.18 -3.05036 -1.66042 0
M  V30 35413 C 3174.14 -4.11037 -1.19302 0
M  V30 35414 C 3173.46 -4.76119 -2.43342 0
M  V30 35415 C 3174.76 -5.21467 -0.29486 0
M  V30 35416 H 3176.46 -2.992 0.109304 0
M  V30 35417 H 3174 -1.43899 0.05401 0
M  V30 35418 H 3175.96 -3.55574 -2.26152 0
M  V30 35419 H 3174.68 -2.31383 -2.30499 0
M  V30 35420 H 3173.34 -3.61409 -0.614745 0
M  V30 35421 H 3172.99 -3.99061 -3.06201 0
M  V30 35422 H 3172.69 -5.47733 -2.12751 0
M  V30 35423 H 3174.21 -5.29439 -3.04181 0
M  V30 35424 H 3175.63 -5.67652 -0.80275 0
M  V30 35425 H 3174.02 -6.00045 -0.0809166 0
M  V30 35426 H 3175.09 -4.80256 0.669517 0
M  V30 35427 N 3176.44 -0.0702223 -1.57443 0
M  V30 35428 C 3177.4 0.882886 -2.11513 0
M  V30 35429 C 3178.4 1.22741 -1.03881 0
M  V30 35430 O 3179.59 1.16094 -1.29876 0
M  V30 35431 C 3176.72 2.18681 -2.61518 0
M  V30 35432 H 3177.91 0.413821 -2.97031 0
M  V30 35433 H 3175.47 0.178461 -1.55278 0
M  V30 35434 H 3176.2 2.70128 -1.79448 0
M  V30 35435 H 3175.99 1.94972 -3.40188 0
M  V30 35436 H 3177.48 2.86914 -3.0343 0
M  V30 35437 N 3177.91 1.56283 0.203321 0
M  V30 35438 C 3179.33 1.49683 0.553814 0
M  V30 35439 C 3179.53 0.768734 1.8626 0
M  V30 35440 O 3178.59 0.315868 2.50517 0
M  V30 35441 C 3179.9 2.94319 0.616164 0
M  V30 35442 C 3181.45 3.04944 0.705557 0
M  V30 35443 C 3181.92 4.50975 0.799091 0
M  V30 35444 N 3183.41 4.55093 0.862836 0
M  V30 35445 C 3184.15 5.65387 0.955234 0
M  V30 35446 N 3183.64 6.85392 1.01045 0
M  V30 35447 N 3185.44 5.53281 0.991786 0
M  V30 35448 H 3177.59 2.02039 -0.65528 0
M  V30 35449 H 3179.85 0.919083 -0.23236 0
M  V30 35450 H 3179.56 3.50613 -0.276251 0
M  V30 35451 H 3179.43 3.47222 1.47365 0
M  V30 35452 H 3181.82 2.48704 1.58841 0
M  V30 35453 H 3181.9 2.5518 -0.177966 0
M  V30 35454 H 3181.54 5.07838 -0.0793733 0
M  V30 35455 H 3181.47 4.98463 1.6983 0
M  V30 35456 H 3183.96 3.68678 0.829747 0
M  V30 35457 H 3184.28 7.65199 1.08123 0
M  V30 35458 H 3182.62 6.88066 0.979263 0
M  V30 35459 H 3185.81 4.58453 0.945434 0
M  V30 35460 H 3185.99 6.39266 1.06034 0
M  V30 35461 N 3179.39 -0.470729 1.50406 0
M  V30 35462 C 3180.64 -1.22037 1.61094 0
M  V30 35463 C 3180.96 -1.92463 0.313521 0
M  V30 35464 O 3180.23 -1.84122 -0.669011 0
M  V30 35465 H 3178.81 -0.45345 0.593626 0
M  V30 35466 H 3181.47 -0.542952 1.87184 0
M  V30 35467 H 3180.57 -1.96808 2.42225 0
M  V30 35468 N 3180.87 -1.39989 -0.72393 0
M  V30 35469 C 3181.8 -1.42338 -1.851 0
M  V30 35470 C 3182.78 -0.285327 -1.6769 0
M  V30 35471 O 3183.97 -0.492749 -1.87845 0
M  V30 35472 C 3181.1 -1.27703 -3.22969 0
M  V30 35473 C 3180.05 -2.39024 -3.55037 0
M  V30 35474 C 3179.38 -2.09471 -4.91961 0
M  V30 35475 C 3180.68 -3.81356 -3.56882 0
M  V30 35476 H 3182.37 -2.3666 -1.83392 0
M  V30 35477 H 3179.92 -1.13912 -0.880906 0
M  V30 35478 H 3181.87 -1.27965 -4.01501 0
M  V30 35479 H 3180.59 -0.298544 -3.25233 0
M  V30 35480 H 3179.25 -2.37998 -2.78841 0
M  V30 35481 H 3178.9 -1.10033 -4.90817 0
M  V30 35482 H 3178.6 -2.84047 -5.14384 0
M  V30 35483 H 3180.13 -2.11401 -5.72837 0
M  V30 35484 H 3181.54 -3.84251 -4.25469 0
M  V30 35485 H 3179.94 -4.55383 -3.90828 0
M  V30 35486 H 3181.01 -4.11538 -2.56445 0
M  V30 35487 N 3182.35 0.955282 -1.25348 0
M  V30 35488 C 3183.6 1.69419 -1.09453 0
M  V30 35489 C 3183.91 1.92175 0.364425 0
M  V30 35490 O 3185.12 2.63757 0.643797 0
M  V30 35491 C 3183.57 3.05005 -1.9105 0
M  V30 35492 C 3183.18 2.90047 -3.41433 0
M  V30 35493 C 3184.93 3.82683 -1.83723 0
M  V30 35494 C 3182.83 4.21019 -4.15328 0
M  V30 35495 H 3181.76 0.635365 -0.405989 0
M  V30 35496 H 3184.41 1.06351 -1.49538 0
M  V30 35497 H 3182.8 3.68973 -1.43788 0
M  V30 35498 H 3183.97 2.35015 -3.96364 0
M  V30 35499 H 3182.28 2.25824 -3.49846 0
M  V30 35500 H 3184.88 4.79689 -2.36225 0
M  V30 35501 H 3185.22 4.08443 -0.804991 0
M  V30 35502 H 3185.76 3.25464 -2.28732 0
M  V30 35503 H 3182.5 4.00448 -5.18962 0
M  V30 35504 H 3182.02 4.75819 -3.6518 0
M  V30 35505 H 3183.7 4.89565 -4.23008 0
M  V30 35506 N 3183.83 1.06924 1.1578 0
M  V30 35507 C 3185.1 0.703032 1.82529 0
M  V30 35508 C 3185.48 -0.81496 1.94735 0
M  V30 35509 O 3184.83 -1.72771 1.4954 0
M  V30 35510 C 3185.04 1.4124 3.19143 0
M  V30 35511 C 3186.39 1.56171 3.94836 0
M  V30 35512 O 3187.41 1.37282 3.28682 0
M  V30 35513 O 3186.27 1.87214 5.13433 0
M  V30 35514 H 3183.37 0.249644 0.788421 0
M  V30 35515 H 3185.91 1.1699 1.22929 0
M  V30 35516 H 3184.69 2.44721 3.05332 0
M  V30 35517 H 3184.31 0.936027 3.86425 0
M  V30 35518 N 3185.31 -1.32538 0.852723 0
M  V30 35519 C 3186.72 -1.50103 0.542324 0
M  V30 35520 C 3186.92 -1.78888 -0.927434 0
M  V30 35521 O 3185.98 -1.85731 -1.71057 0
M  V30 35522 C 3187.29 -2.64649 1.42764 0
M  V30 35523 C 3188.84 -2.78534 1.42787 0
M  V30 35524 C 3189.31 -3.96156 2.29835 0
M  V30 35525 N 3190.8 -4.03414 2.2762 0
M  V30 35526 C 3191.54 -4.93656 2.91704 0
M  V30 35527 N 3191.04 -5.88918 3.64893 0
M  V30 35528 N 3192.83 -4.86763 2.81102 0
M  V30 35529 H 3184.98 -1.12119 1.80397 0
M  V30 35530 H 3187.24 -0.552433 0.770404 0
M  V30 35531 H 3186.95 -2.50101 2.4727 0
M  V30 35532 H 3186.82 -3.60386 1.11364 0
M  V30 35533 H 3189.21 -2.92505 0.390468 0
M  V30 35534 H 3189.29 -1.83516 1.78201 0
M  V30 35535 H 3188.93 -3.82943 3.33642 0
M  V30 35536 H 3188.86 -4.90446 1.91755 0
M  V30 35537 H 3191.36 -3.35247 1.74408 0
M  V30 35538 H 3191.67 -6.54469 4.10963 0
M  V30 35539 H 3190.01 -5.88951 3.69001 0
M  V30 35540 H 3193.2 -4.1131 2.23476 0
M  V30 35541 H 3193.38 -5.5689 3.31328 0
M  V30 35542 N 3186.78 -0.610474 -1.45296 0
M  V30 35543 C 3188.06 -0.0386533 -1.95562 0
M  V30 35544 C 3188.44 1.43001 -1.55286 0
M  V30 35545 O 3187.79 2.13402 -0.816822 0
M  V30 35546 C 3188 -0.239793 -3.48175 0
M  V30 35547 C 3189.35 -0.122109 -4.24424 0
M  V30 35548 O 3190.37 -0.170066 -3.55794 0
M  V30 35549 O 3189.23 -0.00963301 -5.46499 0
M  V30 35550 H 3186.32 0.0340936 -0.826297 0
M  V30 35551 H 3188.87 -0.680737 -1.55448 0
M  V30 35552 H 3187.64 -1.25969 -3.70469 0
M  V30 35553 H 3187.26 0.437416 -3.95187 0
M  V30 35554 N 3188.26 1.53669 -0.349801 0
M  V30 35555 C 3189.19 2.28165 0.496298 0
M  V30 35556 C 3190.17 1.2997 1.09735 0
M  V30 35557 O 3191.36 1.58821 1.11757 0
M  V30 35558 C 3188.49 3.05913 1.64422 0
M  V30 35559 C 3187.44 4.11664 1.1712 0
M  V30 35560 C 3186.77 4.77402 2.40813 0
M  V30 35561 C 3188.07 5.21616 0.267202 0
M  V30 35562 H 3189.76 2.99138 -0.12517 0
M  V30 35563 H 3187.31 1.43868 -0.0616405 0
M  V30 35564 H 3189.26 3.56769 2.24263 0
M  V30 35565 H 3187.98 2.32602 2.29268 0
M  V30 35566 H 3186.64 3.6173 0.59557 0
M  V30 35567 H 3186.29 4.00679 3.04081 0
M  V30 35568 H 3185.99 5.48853 2.09843 0
M  V30 35569 H 3187.52 5.31045 3.01369 0
M  V30 35570 H 3188.93 5.6807 0.772634 0
M  V30 35571 H 3187.33 6.0008 0.0490936 0
M  V30 35572 H 3188.4 4.79894 -0.694977 0
M  V30 35573 N 3189.74 0.0785709 1.57404 0
M  V30 35574 C 3190.97 -0.59696 1.97788 0
M  V30 35575 C 3191.38 -1.63274 0.955933 0
M  V30 35576 O 3190.72 -1.83585 -0.0648847 0
M  V30 35577 C 3190.78 -1.31717 3.34501 0
M  V30 35578 C 3190.45 -0.434064 4.54934 0
M  V30 35579 C 3191.44 0.311106 5.18968 0
M  V30 35580 C 3189.13 -0.356958 5.0103 0
M  V30 35581 C 3191.12 1.12153 6.27455 0
M  V30 35582 C 3188.81 0.457136 6.09388 0
M  V30 35583 C 3189.81 1.19505 6.72464 0
M  V30 35584 O 3189.5 1.9957 7.78734 0
M  V30 35585 H 3189.23 -0.166016 0.655297 0
M  V30 35586 H 3191.78 0.149553 2.04855 0
M  V30 35587 H 3190.01 -2.1099 3.24068 0
M  V30 35588 H 3191.7 -1.8856 3.59444 0
M  V30 35589 H 3192.47 0.261169 4.84296 0
M  V30 35590 H 3188.35 -0.920946 4.51707 0
M  V30 35591 H 3191.89 1.698 6.76619 0
M  V30 35592 H 3187.79 0.508612 6.43493 0
M  V30 35593 H 3188.55 1.92074 7.95644 0
M  V30 35594 N 3191.22 -1.56389 -0.19503 0
M  V30 35595 C 3192.63 -1.49975 -0.545868 0
M  V30 35596 C 3192.83 -0.778601 -1.8585 0
M  V30 35597 O 3191.89 -0.329149 -2.50345 0
M  V30 35598 C 3193.2 -2.94642 -0.600547 0
M  V30 35599 C 3194.75 -3.05314 -0.689375 0
M  V30 35600 C 3195.23 -4.51393 -0.775164 0
M  V30 35601 N 3196.72 -4.55544 -0.838689 0
M  V30 35602 C 3197.45 -5.65886 -0.925237 0
M  V30 35603 N 3196.95 -6.85918 -0.974083 0
M  V30 35604 N 3198.74 -5.53799 -0.962431 0
M  V30 35605 H 3190.89 -2.01689 0.665985 0
M  V30 35606 H 3193.15 -0.917837 0.237231 0
M  V30 35607 H 3192.86 -3.50462 0.294841 0
M  V30 35608 H 3192.73 -3.47999 -1.45522 0
M  V30 35609 H 3195.12 -2.49543 -1.57519 0
M  V30 35610 H 3195.2 -2.55082 0.191496 0
M  V30 35611 H 3194.85 -5.07789 0.106304 0
M  V30 35612 H 3194.78 -4.99357 -1.67184 0
M  V30 35613 H 3197.27 -3.69113 -0.810184 0
M  V30 35614 H 3197.58 -7.65761 -1.04064 0
M  V30 35615 H 3195.93 -6.88576 -0.94276 0
M  V30 35616 H 3199.12 -4.58948 -0.921108 0
M  V30 35617 H 3199.29 -6.39819 -1.02642 0
M  V30 35618 N 3192.7 0.462746 -1.50653 0
M  V30 35619 C 3193.92 1.24193 -1.66105 0
M  V30 35620 C 3194.35 1.84863 -0.347453 0
M  V30 35621 O 3193.7 1.67671 0.689643 0
M  V30 35622 C 3193.75 2.32032 -2.76031 0
M  V30 35623 O 3192.86 3.36889 -2.37865 0
M  V30 35624 H 3192.2 0.365005 -0.554678 0
M  V30 35625 H 3194.73 0.549699 -1.97077 0
M  V30 35626 H 3194.74 2.77215 -2.99359 0
M  V30 35627 H 3193.41 1.87247 -3.71364 0
M  V30 35628 H 3191.99 2.97359 -2.25016 0
M  V30 35629 N 3194.17 1.40371 0.716495 0
M  V30 35630 C 3195.1 1.43318 1.84343 0
M  V30 35631 C 3196.09 0.294216 1.67536 0
M  V30 35632 O 3197.27 0.502704 1.87581 0
M  V30 35633 C 3194.4 1.29414 3.22288 0
M  V30 35634 C 3193.35 2.40904 3.53765 0
M  V30 35635 C 3192.68 2.12077 4.90844 0
M  V30 35636 C 3193.98 3.83243 3.54855 0
M  V30 35637 H 3195.67 2.37629 1.82134 0
M  V30 35638 H 3193.22 1.14378 0.874853 0
M  V30 35639 H 3195.17 1.30092 4.00817 0
M  V30 35640 H 3193.9 0.315787 3.2507 0
M  V30 35641 H 3192.56 2.39474 2.77575 0
M  V30 35642 H 3192.2 1.12635 4.90227 0
M  V30 35643 H 3191.9 2.86771 5.1287 0
M  V30 35644 H 3193.43 2.14436 5.71708 0
M  V30 35645 H 3194.84 3.86502 4.23426 0
M  V30 35646 H 3193.24 4.57449 3.88408 0
M  V30 35647 H 3194.31 4.12893 2.54259 0
M  V30 35648 N 3195.65 -0.948621 1.25853 0
M  V30 35649 C 3196.6 -2.06754 1.06562 0
M  V30 35650 C 3197.59 -1.69399 -0.00525654 0
M  V30 35651 O 3198.8 -1.79367 0.150837 0
M  V30 35652 H 3195.18 -0.676843 0.327701 0
M  V30 35653 H 3197.15 -2.20178 2.01405 0
M  V30 35654 C 3195.9 -3.40427 0.707452 0
M  V30 35655 H 3195.22 -3.69642 1.52331 0
M  V30 35656 H 3196.66 -4.19557 0.612216 0
M  V30 35657 C 3195.12 -3.31748 -0.586912 0
M  V30 35658 O 3195.65 -3.67261 -1.62734 0
M  V30 35659 N 3193.85 -2.84859 -0.574778 0
M  V30 35660 H 3193.4 -2.56157 0.272281 0
M  V30 35661 H 3193.36 -2.79435 -1.44096 0
M  V30 35662 N 3197.13 -1.07536 -1.15212 0
M  V30 35663 C 3198.41 -0.712702 -1.82154 0
M  V30 35664 C 3198.79 0.804621 -1.95164 0
M  V30 35665 O 3198.14 1.71976 -1.50454 0
M  V30 35666 C 3198.35 -1.42931 -3.18389 0
M  V30 35667 C 3199.69 -1.58263 -3.94003 0
M  V30 35668 O 3200.72 -1.39024 -3.2795 0
M  V30 35669 O 3199.58 -1.89934 -5.12433 0
M  V30 35670 H 3196.67 -0.253821 -0.787086 0
M  V30 35671 H 3199.22 -1.1764 -1.22306 0
M  V30 35672 H 3197.99 -2.46337 -3.0403 0
M  V30 35673 H 3197.61 -0.956507 -3.85923 0
M  V30 35674 N 3198.61 1.32084 -0.85974 0
M  V30 35675 C 3200.02 1.79325 -0.519561 0
M  V30 35676 C 3200.37 1.70945 0.96292 0
M  V30 35677 O 3199.5 1.27107 1.75136 0
M  V30 35678 C 3200.09 3.25605 -0.936324 0
M  V30 35679 C 3198.65 3.70781 -0.647964 0
M  V30 35680 C 3197.8 2.53085 -1.13328 0
M  V30 35681 H 3200.75 1.19311 -1.04645 0
M  V30 35682 H 3200.77 3.79646 -0.254781 0
M  V30 35683 H 3200.28 3.31672 -2.01533 0
M  V30 35684 H 3198.38 3.70224 0.420107 0
M  V30 35685 H 3198.49 4.63364 -1.21782 0
M  V30 35686 H 3196.86 2.48616 -0.553369 0
M  V30 35687 H 3197.64 2.61904 -2.21949 0
M  V30 35688 N 3200.09 0.618171 1.4497 0
M  V30 35689 C 3201.5 0.282694 1.57076 0
M  V30 35690 C 3201.7 -1.21453 1.60784 0
M  V30 35691 O 3200.76 -1.99804 1.54385 0
M  V30 35692 C 3202.07 0.963198 2.84856 0
M  V30 35693 C 3203.62 0.940115 2.98548 0
M  V30 35694 C 3204.09 1.60083 4.29112 0
M  V30 35695 N 3205.59 1.56681 4.35896 0
M  V30 35696 C 3206.32 2.0471 5.35613 0
M  V30 35697 N 3205.82 2.60872 6.41808 0
M  V30 35698 N 3207.61 1.95415 5.27038 0
M  V30 35699 H 3199.76 1.59019 1.40807 0
M  V30 35700 H 3202.02 0.666753 0.673902 0
M  V30 35701 H 3201.73 2.01785 2.88055 0
M  V30 35702 H 3201.6 0.492967 3.73965 0
M  V30 35703 H 3203.99 -0.106019 2.94909 0
M  V30 35704 H 3204.07 1.44871 2.10822 0
M  V30 35705 H 3203.72 2.64635 4.3351 0
M  V30 35706 H 3203.65 1.06717 5.15673 0
M  V30 35707 H 3206.14 1.15665 3.59764 0
M  V30 35708 H 3206.45 2.95286 7.14161 0
M  V30 35709 H 3204.79 2.64916 6.4253 0
M  V30 35710 H 3207.99 1.51271 4.42984 0
M  V30 35711 H 3208.16 2.33158 6.046 0
M  V30 35712 N 3201.56 -1.53481 0.357946 0
M  V30 35713 C 3202.84 -1.93436 -0.29013 0
M  V30 35714 C 3203.22 -1.29082 -1.67036 0
M  V30 35715 O 3202.57 -0.447057 -2.24084 0
M  V30 35716 C 3202.78 -3.47261 -0.347994 0
M  V30 35717 C 3204.13 -4.20453 -0.591986 0
M  V30 35718 O 3205.15 -3.53601 -0.429519 0
M  V30 35719 O 3204.01 -5.38908 -0.90776 0
M  V30 35720 H 3201.1 -0.808853 -0.172297 0
M  V30 35721 H 3203.65 -1.64668 0.410173 0
M  V30 35722 H 3202.42 -3.86357 0.620021 0
M  V30 35723 H 3202.05 -3.82239 -1.0945 0
M  V30 35724 N 3203.04 -0.0869173 -1.5736 0
M  V30 35725 C 3204.27 0.590722 -1.9881 0
M  V30 35726 C 3204.69 1.61434 -0.965435 0
M  V30 35727 O 3204.05 1.81176 0.0671111 0
M  V30 35728 C 3204.1 1.22232 -3.39252 0
M  V30 35729 O 3203.2 2.33818 -3.3971 0
M  V30 35730 H 3202.54 0.150615 -0.646692 0
M  V30 35731 H 3205.07 -0.165909 -2.03926 0
M  V30 35732 H 3205.08 1.56558 -3.76767 0
M  V30 35733 H 3203.76 0.472362 -4.13209 0
M  V30 35734 H 3202.34 2.01173 -3.13981 0
M  V30 35735 N 3204.52 1.5649 0.186734 0
M  V30 35736 C 3205.45 1.91747 1.25562 0
M  V30 35737 C 3206.47 0.808965 1.41278 0
M  V30 35738 O 3207.65 1.08739 1.41556 0
M  V30 35739 C 3204.75 2.14159 2.62658 0
M  V30 35740 C 3203.93 3.45337 2.68442 0
M  V30 35741 C 3202.99 3.56761 3.86792 0
M  V30 35742 O 3202.01 4.29513 3.73506 0
M  V30 35743 N 3203.21 2.90467 5.02602 0
M  V30 35744 H 3205.98 2.84033 0.956301 0
M  V30 35745 H 3203.54 1.57459 0.376603 0
M  V30 35746 H 3205.53 2.19081 3.40273 0
M  V30 35747 H 3204.1 1.28331 2.85044 0
M  V30 35748 H 3203.32 3.52209 1.77038 0
M  V30 35749 H 3204.61 4.31686 2.69303 0
M  V30 35750 H 3204.01 2.31203 5.16296 0
M  V30 35751 H 3202.57 3.01006 5.78134 0
M  V30 35752 N 3206 -0.45475 1.50897 0
M  V30 35753 C 3206.95 -1.55064 1.7095 0
M  V30 35754 C 3207.92 -1.56697 0.550926 0
M  V30 35755 O 3209.1 -1.73976 0.783382 0
M  V30 35756 C 3206.24 -2.9292 1.8246 0
M  V30 35757 C 3205.35 -3.0095 3.09924 0
M  V30 35758 C 3204.49 -4.29822 3.12132 0
M  V30 35759 C 3203.53 -4.31654 4.33983 0
M  V30 35760 N 3202.66 -5.52023 4.33838 0
M  V30 35761 H 3207.5 -1.37269 2.64502 0
M  V30 35762 H 3205.04 -0.667125 1.31102 0
M  V30 35763 H 3207 -3.72886 1.87115 0
M  V30 35764 H 3205.63 -3.09313 0.923325 0
M  V30 35765 H 3204.68 -2.13756 3.14663 0
M  V30 35766 H 3205.99 -2.98165 3.99874 0
M  V30 35767 H 3205.15 -5.18148 3.15607 0
M  V30 35768 H 3203.89 -4.35239 2.20041 0
M  V30 35769 H 3202.89 -3.41723 4.30703 0
M  V30 35770 H 3204.12 -4.27915 5.27319 0
M  V30 35771 H 3202.06 -5.58195 3.44608 0
M  V30 35772 H 3201.98 -5.51046 5.17576 0
M  V30 35773 H 3203.25 -6.42429 4.41481 0
M  V30 35774 N 3207.48 -1.40749 -0.709041 0
M  V30 35775 C 3208.42 -1.41717 -1.84443 0
M  V30 35776 C 3209.42 -0.296847 -1.66779 0
M  V30 35777 O 3210.62 -0.468212 -1.73804 0
M  V30 35778 H 3207 -0.443124 -0.607573 0
M  V30 35779 H 3208.97 -2.37434 -1.80743 0
M  V30 35780 C 3207.72 -1.30306 -3.22359 0
M  V30 35781 H 3207.04 -2.15793 -3.36561 0
M  V30 35782 H 3208.48 -1.35043 -4.0192 0
M  V30 35783 C 3206.94 -0.0139608 -3.36897 0
M  V30 35784 O 3207.47 0.946484 -3.9039 0
M  V30 35785 N 3205.68 0.057698 -2.90543 0
M  V30 35786 H 3205.22 -0.724617 -2.47198 0
M  V30 35787 H 3205.18 0.919668 -3.00648 0
M  V30 35788 N 3208.96 0.941933 -1.26354 0
M  V30 35789 C 3210.2 1.68804 -1.11854 0
M  V30 35790 C 3210.53 1.91536 0.338257 0
M  V30 35791 O 3209.79 1.49326 1.26492 0
M  V30 35792 C 3210.08 3.06875 -1.832 0
M  V30 35793 C 3209.75 3.03902 -3.33098 0
M  V30 35794 C 3208.41 3.02798 -3.73988 0
M  V30 35795 C 3210.76 2.96266 -4.28808 0
M  V30 35796 C 3208.09 2.91823 -5.08976 0
M  V30 35797 C 3210.44 2.86832 -5.63835 0
M  V30 35798 C 3209.11 2.84071 -6.04037 0
M  V30 35799 H 3208.38 0.617699 -0.409303 0
M  V30 35800 H 3211.03 1.09955 -1.56787 0
M  V30 35801 H 3209.33 3.69345 -1.30734 0
M  V30 35802 H 3211.03 3.63452 -1.69422 0
M  V30 35803 H 3207.62 3.0554 -3.00571 0
M  V30 35804 H 3211.8 2.96227 -3.982 0
M  V30 35805 H 3207.06 2.88062 -5.39287 0
M  V30 35806 H 3211.23 2.79887 -6.37681 0
M  V30 35807 H 3208.86 2.75322 -7.08591 0
M  V30 35808 N 3210.43 1.08146 1.1464 0
M  V30 35809 C 3211.68 0.810716 1.8589 0
M  V30 35810 C 3212.01 -0.661789 1.82576 0
M  V30 35811 O 3211.29 -1.4863 1.25457 0
M  V30 35812 C 3211.57 1.32985 3.34644 0
M  V30 35813 C 3211.42 2.8675 3.46546 0
M  V30 35814 C 3212.74 0.952939 4.29659 0
M  V30 35815 H 3209.86 0.295975 0.674958 0
M  V30 35816 H 3212.5 1.34062 1.34638 0
M  V30 35817 H 3210.65 0.879096 3.78423 0
M  V30 35818 H 3212.33 3.40176 3.11573 0
M  V30 35819 H 3210.57 3.24544 2.87843 0
M  V30 35820 H 3211.24 3.18146 4.51096 0
M  V30 35821 H 3213.72 1.34148 3.93883 0
M  V30 35822 H 3212.59 1.3434 5.32207 0
M  V30 35823 H 3212.85 -0.140314 4.41877 0
M  V30 35824 N 3211.91 -1.31626 0.866732 0
M  V30 35825 C 3213.19 -1.91532 0.396861 0
M  V30 35826 C 3213.57 -1.78891 -1.12077 0
M  V30 35827 O 3212.92 -1.19455 -1.94789 0
M  V30 35828 C 3213.13 -3.37863 0.874638 0
M  V30 35829 C 3214.47 -4.14976 0.898873 0
M  V30 35830 O 3215.5 -3.46631 0.820075 0
M  V30 35831 O 3214.36 -5.37042 1.01232 0
M  V30 35832 H 3211.45 -0.818522 0.118114 0
M  V30 35833 H 3214 -1.40316 0.954431 0
M  V30 35834 H 3212.77 -3.41062 1.91813 0
M  V30 35835 H 3212.39 -3.96503 0.295196 0
M  V30 35836 N 3213.39 -0.62585 -1.4464 0
M  V30 35837 C 3214.8 -0.211207 -1.85501 0
M  V30 35838 C 3215.15 1.23618 -1.52358 0
M  V30 35839 O 3214.28 1.93986 -0.959085 0
M  V30 35840 C 3214.87 -0.376539 -3.36701 0
M  V30 35841 C 3213.43 -0.0164457 -3.76396 0
M  V30 35842 C 3212.58 -0.692415 -2.68516 0
M  V30 35843 H 3215.53 -0.831356 -1.35182 0
M  V30 35844 H 3215.55 0.38604 -3.78537 0
M  V30 35845 H 3215.06 -1.43006 -3.60792 0
M  V30 35846 H 3213.16 1.03554 -3.57921 0
M  V30 35847 H 3213.28 -0.422826 -4.77231 0
M  V30 35848 H 3211.64 -0.128236 -2.54377 0
M  V30 35849 H 3212.42 -1.74842 -2.95441 0
M  V30 35850 N 3214.87 1.53289 -0.36608 0
M  V30 35851 C 3216.11 2.01561 0.223788 0
M  V30 35852 C 3216.45 1.25288 1.48379 0
M  V30 35853 O 3215.72 0.346723 1.91385 0
M  V30 35854 C 3216 3.56395 0.515237 0
M  V30 35855 C 3215.86 4.4336 -0.758435 0
M  V30 35856 C 3217.18 4.19976 1.3156 0
M  V30 35857 H 3214.3 0.73266 0.0798623 0
M  V30 35858 H 3216.94 1.83544 -0.49107 0
M  V30 35859 H 3215.09 3.71878 1.12422 0
M  V30 35860 H 3216.76 4.39672 -1.39592 0
M  V30 35861 H 3215 4.11308 -1.37869 0
M  V30 35862 H 3215.67 5.49644 -0.509463 0
M  V30 35863 H 3218.15 4.08328 0.800442 0
M  V30 35864 H 3217.03 5.28339 1.48827 0
M  V30 35865 H 3217.29 3.76073 2.32426 0
M  V30 35866 N 3216.35 0.0952613 1.57312 0
M  V30 35867 C 3217.57 -0.576785 1.98698 0
M  V30 35868 C 3217.99 -1.61714 0.974375 0
M  V30 35869 O 3217.35 -1.82465 -0.03599 0
M  V30 35870 C 3217.4 -1.22434 3.40135 0
M  V30 35871 O 3217.12 -0.225601 4.37519 0
M  V30 35872 C 3218.62 -1.98198 3.96525 0
M  V30 35873 H 3215.84 -0.154618 0.652943 0
M  V30 35874 H 3218.38 0.174598 2.03753 0
M  V30 35875 H 3216.54 -1.92666 3.36093 0
M  V30 35876 H 3216.95 -0.693025 5.19901 0
M  V30 35877 H 3218.43 -2.38867 4.97641 0
M  V30 35878 H 3218.9 -2.8479 3.34352 0
M  V30 35879 H 3219.51 -1.32783 4.04041 0
M  V30 35880 N 3217.82 -1.56587 -0.178432 0
M  V30 35881 C 3218.77 -1.95857 -1.22101 0
M  V30 35882 C 3219.74 -0.821473 -1.44364 0
M  V30 35883 O 3220.93 -1.08101 -1.57222 0
M  V30 35884 C 3218.07 -2.31761 -2.55697 0
M  V30 35885 C 3217.18 -3.58615 -2.40872 0
M  V30 35886 C 3216.31 -3.83764 -3.67286 0
M  V30 35887 C 3215.35 -5.03988 -3.47364 0
M  V30 35888 N 3214.49 -5.25306 -4.6583 0
M  V30 35889 H 3219.33 -2.84738 -0.879118 0
M  V30 35890 H 3216.87 -1.40896 -0.422696 0
M  V30 35891 H 3218.82 -2.50598 -3.33551 0
M  V30 35892 H 3217.45 -1.46 -2.87895 0
M  V30 35893 H 3216.51 -3.47732 -1.5423 0
M  V30 35894 H 3217.82 -4.46627 -2.22094 0
M  V30 35895 H 3216.97 -4.0293 -4.53577 0
M  V30 35896 H 3215.71 -2.94113 -3.89035 0
M  V30 35897 H 3214.72 -4.84728 -2.59459 0
M  V30 35898 H 3215.94 -5.95163 -3.27044 0
M  V30 35899 H 3213.89 -4.38606 -4.87812 0
M  V30 35900 H 3213.8 -6.07528 -4.49939 0
M  V30 35901 H 3215.07 -5.48945 -5.53425 0
M  V30 35902 N 3219.3 0.446741 -1.51136 0
M  V30 35903 C 3220.25 1.54155 -1.7177 0
M  V30 35904 C 3221.22 1.56403 -0.559229 0
M  V30 35905 O 3222.4 1.73558 -0.792598 0
M  V30 35906 C 3219.54 2.91949 -1.84011 0
M  V30 35907 C 3218.66 2.99302 -3.11516 0
M  V30 35908 C 3217.79 4.28161 -3.14407 0
M  V30 35909 C 3216.83 4.29347 -4.36266 0
M  V30 35910 N 3215.97 5.49714 -4.36759 0
M  V30 35911 H 3220.81 1.35864 -2.65226 0
M  V30 35912 H 3218.34 0.660163 -1.31454 0
M  V30 35913 H 3220.3 3.71888 -1.8909 0
M  V30 35914 H 3218.93 3.08819 -0.939715 0
M  V30 35915 H 3217.98 2.12084 -3.15792 0
M  V30 35916 H 3219.3 2.9604 -4.0145 0
M  V30 35917 H 3218.45 5.16467 -3.1835 0
M  V30 35918 H 3217.19 4.34066 -2.22346 0
M  V30 35919 H 3216.19 3.39435 -4.32509 0
M  V30 35920 H 3217.42 4.25113 -5.29581 0
M  V30 35921 H 3215.37 5.56359 -3.47563 0
M  V30 35922 H 3215.28 5.48293 -5.20491 0
M  V30 35923 H 3216.55 6.40079 -4.44882 0
M  V30 35924 N 3220.78 1.41123 0.701567 0
M  V30 35925 C 3221.73 1.42498 1.81557 0
M  V30 35926 C 3222.7 0.280107 1.63721 0
M  V30 35927 O 3223.88 0.480263 1.84657 0
M  V30 35928 C 3221.02 1.30707 3.19389 0
M  V30 35929 C 3220.13 2.55015 3.48699 0
M  V30 35930 C 3219.27 2.35562 4.76113 0
M  V30 35931 C 3218.31 3.55376 4.98372 0
M  V30 35932 N 3217.45 3.35031 6.17008 0
M  V30 35933 H 3222.29 2.3771 1.79716 0
M  V30 35934 H 3219.82 1.18045 0.877706 0
M  V30 35935 H 3221.78 1.21874 3.99002 0
M  V30 35936 H 3220.41 0.391068 3.20422 0
M  V30 35937 H 3219.46 2.74322 2.63537 0
M  V30 35938 H 3220.77 3.44157 3.61051 0
M  V30 35939 H 3219.93 2.24162 5.6377 0
M  V30 35940 H 3218.67 1.43868 4.65997 0
M  V30 35941 H 3217.67 3.67237 4.09166 0
M  V30 35942 H 3218.9 4.48016 5.10351 0
M  V30 35943 H 3216.84 2.46031 6.08116 0
M  V30 35944 H 3216.76 4.17745 6.301 0
M  V30 35945 H 3218.03 3.27391 7.07414 0
M  V30 35946 N 3222.26 -0.935219 1.26852 0
M  V30 35947 C 3223.5 -1.68458 1.12915 0
M  V30 35948 C 3223.84 -1.9145 -0.325674 0
M  V30 35949 O 3223.11 -1.49946 -1.23881 0
M  V30 35950 C 3223.39 -3.05573 1.90518 0
M  V30 35951 C 3223.25 -2.8987 3.43941 0
M  V30 35952 C 3224.57 -4.05786 1.7037 0
M  V30 35953 H 3221.69 -0.611375 0.41157 0
M  V30 35954 H 3224.33 -1.08579 1.55919 0
M  V30 35955 H 3222.48 -3.56687 1.5397 0
M  V30 35956 H 3224.15 -2.45932 3.90276 0
M  V30 35957 H 3222.39 -2.25369 3.70663 0
M  V30 35958 H 3223.06 -3.87146 3.93474 0
M  V30 35959 H 3225.54 -3.63655 2.02223 0
M  V30 35960 H 3224.42 -4.99728 2.27074 0
M  V30 35961 H 3224.68 -4.37299 0.649751 0
M  V30 35962 N 3223.74 -1.08752 -1.14065 0
M  V30 35963 C 3224.96 -0.841072 -1.8958 0
M  V30 35964 C 3225.39 0.601404 -1.78227 0
M  V30 35965 O 3224.74 1.42179 -1.12493 0
M  V30 35966 C 3224.79 -1.27219 -3.37413 0
M  V30 35967 O 3223.9 -0.426318 -4.10191 0
M  V30 35968 H 3223.24 -0.305183 -0.589711 0
M  V30 35969 H 3225.77 -1.44986 -1.44361 0
M  V30 35970 H 3225.78 -1.25458 -3.88232 0
M  V30 35971 H 3224.45 -2.32274 -3.44995 0
M  V30 35972 H 3223.03 -0.50765 -3.69428 0
M  V30 35973 N 3225.21 1.31165 -0.873701 0
M  V30 35974 C 3226.44 2.0045 -0.500352 0
M  V30 35975 C 3226.85 1.65731 0.912686 0
M  V30 35976 O 3226.2 0.884591 1.60999 0
M  V30 35977 C 3226.26 3.54757 -0.582032 0
M  V30 35978 C 3225.92 4.12961 -1.95735 0
M  V30 35979 C 3226.92 4.29791 -2.92534 0
M  V30 35980 C 3224.6 4.48602 -2.25968 0
M  V30 35981 C 3226.6 4.81457 -4.17706 0
M  V30 35982 C 3224.28 4.99969 -3.51389 0
M  V30 35983 C 3225.28 5.16348 -4.47073 0
M  V30 35984 O 3224.97 5.66611 -5.70269 0
M  V30 35985 H 3224.7 0.647847 -0.193055 0
M  V30 35986 H 3227.26 1.68283 -1.17771 0
M  V30 35987 H 3225.49 3.864 0.152258 0
M  V30 35988 H 3227.18 4.05295 -0.221577 0
M  V30 35989 H 3227.94 4.0257 -2.70486 0
M  V30 35990 H 3223.82 4.35128 -1.52266 0
M  V30 35991 H 3227.36 4.94156 -4.92398 0
M  V30 35992 H 3223.26 5.26625 -3.73278 0
M  V30 35993 H 3224.03 5.84973 -5.72493 0
M  V30 35994 N 3226.69 0.633512 1.44307 0
M  V30 35995 C 3227.94 0.139158 2.02322 0
M  V30 35996 C 3228.27 -1.23665 1.49735 0
M  V30 35997 O 3227.55 -1.82137 0.682385 0
M  V30 35998 C 3227.83 0.128429 3.59871 0
M  V30 35999 C 3227.68 1.53674 4.22734 0
M  V30 36000 C 3229 -0.545757 4.36703 0
M  V30 36001 H 3226.12 0.0520423 0.73516 0
M  V30 36002 H 3228.76 0.810441 1.71848 0
M  V30 36003 H 3226.91 -0.443195 3.85964 0
M  V30 36004 H 3228.58 2.15744 4.0774 0
M  V30 36005 H 3226.83 2.08991 3.80138 0
M  V30 36006 H 3227.5 1.48125 5.31755 0
M  V30 36007 H 3229.97 -0.0596148 4.16057 0
M  V30 36008 H 3228.85 -0.522461 5.46408 0
M  V30 36009 H 3229.11 -1.61652 4.11486 0
M  V30 36010 N 3228.17 -1.53093 0.374204 0
M  V30 36011 C 3229.1 -2.23612 -0.503025 0
M  V30 36012 C 3230.12 -1.25323 -1.03913 0
M  V30 36013 O 3231.3 -1.51493 -0.944037 0
M  V30 36014 C 3228.4 -2.92701 -1.70819 0
M  V30 36015 C 3227.58 -4.1757 -1.30209 0
M  V30 36016 C 3226.64 -4.69792 -2.37028 0
M  V30 36017 O 3225.66 -5.33258 -1.9906 0
M  V30 36018 N 3226.86 -4.48346 -3.68735 0
M  V30 36019 H 3229.63 -2.9953 0.101066 0
M  V30 36020 H 3227.19 -1.60662 0.199806 0
M  V30 36021 H 3229.18 -3.24543 -2.41773 0
M  V30 36022 H 3227.75 -2.20184 -2.21896 0
M  V30 36023 H 3226.97 -3.91934 -0.422053 0
M  V30 36024 H 3228.26 -4.98731 -1.0072 0
M  V30 36025 H 3227.66 -3.97654 -4.02353 0
M  V30 36026 H 3226.22 -4.84716 -4.35768 0
M  V30 36027 N 3229.65 -0.103603 -1.57259 0
M  V30 36028 C 3230.58 0.849192 -2.17511 0
M  V30 36029 C 3231.56 1.28822 -1.11081 0
M  V30 36030 O 3232.74 1.35359 -1.39254 0
M  V30 36031 C 3229.87 2.10517 -2.76224 0
M  V30 36032 C 3228.83 1.80447 -3.88102 0
M  V30 36033 C 3228.15 3.12945 -4.33555 0
M  V30 36034 C 3229.45 1.08478 -5.10911 0
M  V30 36035 H 3231.15 0.347165 -2.9738 0
M  V30 36036 H 3228.69 0.165543 -1.43045 0
M  V30 36037 H 3230.65 2.77616 -3.17029 0
M  V30 36038 H 3229.37 2.63017 -1.93622 0
M  V30 36039 H 3228.03 1.15743 -3.47849 0
M  V30 36040 H 3227.68 3.63349 -3.47831 0
M  V30 36041 H 3227.38 2.93605 -5.08989 0
M  V30 36042 H 3228.9 3.81188 -4.76999 0
M  V30 36043 H 3230.32 1.65702 -5.48831 0
M  V30 36044 H 3228.71 0.992869 -5.91829 0
M  V30 36045 H 3229.78 0.0689256 -4.84851 0
M  V30 36046 N 3231.13 1.56679 0.170126 0
M  V30 36047 C 3232.07 1.96502 1.21061 0
M  V30 36048 C 3233.04 0.829117 1.43927 0
M  V30 36049 O 3234.23 1.08933 1.56647 0
M  V30 36050 C 3231.37 2.33114 2.54464 0
M  V30 36051 C 3230.48 3.59887 2.38967 0
M  V30 36052 C 3229.62 3.85706 3.65245 0
M  V30 36053 C 3228.66 5.05824 3.44687 0
M  V30 36054 N 3227.79 5.27769 4.63038 0
M  V30 36055 H 3232.63 2.852 0.864005 0
M  V30 36056 H 3230.17 1.41118 0.415218 0
M  V30 36057 H 3232.13 2.52363 3.32218 0
M  V30 36058 H 3230.76 1.47525 2.87117 0
M  V30 36059 H 3229.81 3.48545 1.52384 0
M  V30 36060 H 3231.12 4.47798 2.19723 0
M  V30 36061 H 3230.28 4.0533 4.51434 0
M  V30 36062 H 3229.01 2.96173 3.8747 0
M  V30 36063 H 3228.02 4.86097 2.56885 0
M  V30 36064 H 3229.24 5.96889 3.23883 0
M  V30 36065 H 3227.19 4.41187 4.85479 0
M  V30 36066 H 3227.11 6.09906 4.46711 0
M  V30 36067 H 3228.38 5.51873 5.50506 0
M  V30 36068 N 3232.6 -0.43872 1.5137 0
M  V30 36069 C 3233.51 -1.55765 1.75426 0
M  V30 36070 C 3234.53 -1.61864 0.638438 0
M  V30 36071 O 3235.71 -1.79132 0.920532 0
M  V30 36072 C 3232.77 -2.91757 1.87293 0
M  V30 36073 C 3231.83 -2.95786 3.11142 0
M  V30 36074 C 3231.07 -4.25291 3.22433 0
M  V30 36075 O 3231.29 -5.17592 2.39697 0
M  V30 36076 O 3230.22 -4.35576 4.154 0
M  V30 36077 H 3234.05 -1.38381 2.70341 0
M  V30 36078 H 3231.63 -0.621586 1.35855 0
M  V30 36079 H 3233.52 -3.72469 1.97091 0
M  V30 36080 H 3232.19 -3.09272 0.955653 0
M  V30 36081 H 3231.1 -2.14034 3.06823 0
M  V30 36082 H 3232.43 -2.83216 4.02554 0
M  V30 36083 N 3234.08 -1.41493 -0.694073 0
M  V30 36084 C 3235.5 -1.23996 -1.00485 0
M  V30 36085 C 3235.7 -0.130381 -2.01078 0
M  V30 36086 O 3234.75 0.504732 -2.47404 0
M  V30 36087 C 3236.07 -2.58982 -1.52803 0
M  V30 36088 C 3237.62 -2.66176 -1.64679 0
M  V30 36089 C 3238.09 -4.01483 -2.20399 0
M  V30 36090 N 3239.58 -4.03337 -2.27757 0
M  V30 36091 C 3240.32 -5.04834 -2.71902 0
M  V30 36092 N 3239.81 -6.1672 -3.1564 0
M  V30 36093 N 3241.61 -4.92195 -2.71479 0
M  V30 36094 H 3233.76 -2.12382 -0.0277087 0
M  V30 36095 H 3236.02 -0.94504 -0.0748575 0
M  V30 36096 H 3235.73 -3.40936 -0.863459 0
M  V30 36097 H 3235.6 -2.81571 -2.50993 0
M  V30 36098 H 3237.99 -1.8458 -2.30248 0
M  V30 36099 H 3238.07 -2.47396 -0.650307 0
M  V30 36100 H 3237.71 -4.83528 -1.55445 0
M  V30 36101 H 3237.64 -4.17604 -3.20802 0
M  V30 36102 H 3240.13 -3.22554 -1.96894 0
M  V30 36103 H 3240.45 -6.90035 -3.47954 0
M  V30 36104 H 3238.79 -6.20254 -3.13545 0
M  V30 36105 H 3241.98 -4.03869 -2.36659 0
M  V30 36106 H 3242.15 -5.71432 -3.05563 0
M  V30 36107 N 3235.56 0.928479 -1.27346 0
M  V30 36108 C 3236.8 1.69066 -1.14874 0
M  V30 36109 C 3237.16 1.89633 0.30057 0
M  V30 36110 O 3238.37 2.63161 0.547697 0
M  V30 36111 C 3236.64 3.02084 -1.90997 0
M  V30 36112 S 3238.2 3.93225 -1.94728 0
M  V30 36113 H 3235.01 0.580805 -0.410105 0
M  V30 36114 H 3237.62 1.10547 -1.61244 0
M  V30 36115 H 3236.32 2.84806 -2.95489 0
M  V30 36116 H 3235.85 3.65656 -1.45118 0
M  V30 36117 H 3237.87 4.85111 -1.04314 0
M  V30 36118 N 3237.04 1.09355 1.13486 0
M  V30 36119 C 3238.45 0.82311 1.36737 0
M  V30 36120 C 3238.65 -0.562929 1.93477 0
M  V30 36121 O 3237.71 -1.31793 2.15376 0
M  V30 36122 C 3239.02 1.91375 2.3194 0
M  V30 36123 C 3240.57 1.9409 2.45557 0
M  V30 36124 C 3241.05 3.02295 3.44066 0
M  V30 36125 N 3242.54 3.0153 3.51616 0
M  V30 36126 C 3243.27 3.81897 4.27717 0
M  V30 36127 N 3242.77 4.7217 5.06979 0
M  V30 36128 N 3244.56 3.70159 4.23011 0
M  V30 36129 H 3236.71 1.98715 0.750085 0
M  V30 36130 H 3238.98 0.862907 0.392549 0
M  V30 36131 H 3238.68 2.91076 1.97403 0
M  V30 36132 H 3238.56 1.79136 3.31949 0
M  V30 36133 H 3240.94 0.950283 2.79381 0
M  V30 36134 H 3241.02 2.10406 1.45475 0
M  V30 36135 H 3240.67 4.01569 3.10974 0
M  V30 36136 H 3240.6 2.83222 4.43951 0
M  V30 36137 H 3243.09 2.36108 2.95061 0
M  V30 36138 H 3243.4 5.30077 5.62351 0
M  V30 36139 H 3241.75 4.76206 5.06214 0
M  V30 36140 H 3244.94 2.98995 3.60166 0
M  V30 36141 H 3245.11 4.3303 4.82067 0
M  V30 36142 N 3238.52 -1.307 0.880644 0
M  V30 36143 C 3239.77 -1.95582 0.492991 0
M  V30 36144 C 3240.08 -1.70318 -0.961833 0
M  V30 36145 O 3241.29 -2.29149 -1.45613 0
M  V30 36146 C 3239.74 -3.50182 0.830718 0
M  V30 36147 C 3239.35 -3.84272 2.30302 0
M  V30 36148 C 3241.09 -4.214 0.512053 0
M  V30 36149 C 3239 -5.3203 2.5826 0
M  V30 36150 H 3237.93 -0.732043 0.180633 0
M  V30 36151 H 3240.58 -1.48713 1.07502 0
M  V30 36152 H 3238.96 -3.95601 0.177821 0
M  V30 36153 H 3240.14 -3.49778 2.99987 0
M  V30 36154 H 3238.45 -3.26145 2.58879 0
M  V30 36155 H 3241.05 -5.30124 0.698028 0
M  V30 36156 H 3241.39 -4.12674 -0.548254 0
M  V30 36157 H 3241.93 -3.8165 1.12195 0
M  V30 36158 H 3238.66 -5.45803 3.63015 0
M  V30 36159 H 3238.18 -5.67839 1.9318 0
M  V30 36160 H 3239.86 -5.99415 2.43538 0
M  V30 36161 N 3240 -0.641156 -1.43969 0
M  V30 36162 C 3240.91 0.0587008 -2.34527 0
M  V30 36163 C 3241.92 0.825061 -1.53195 0
M  V30 36164 O 3243.1 0.775049 -1.8589 0
M  V30 36165 C 3240.16 1.02134 -3.31315 0
M  V30 36166 C 3239.22 0.253244 -4.28552 0
M  V30 36167 C 3238.46 1.17003 -5.20717 0
M  V30 36168 O 3238.68 2.40902 -5.17032 0
M  V30 36169 O 3237.61 0.648934 -5.98392 0
M  V30 36170 H 3241.44 -0.686381 -2.95842 0
M  V30 36171 H 3239.02 -0.401341 -1.43908 0
M  V30 36172 H 3240.91 1.57489 -3.90865 0
M  V30 36173 H 3239.58 1.74686 -2.72519 0
M  V30 36174 H 3238.49 -0.343596 -3.72519 0
M  V30 36175 H 3239.82 -0.432458 -4.90296 0
M  V30 36176 N 3241.47 1.52892 -0.382318 0
M  V30 36177 C 3242.88 1.86467 0.0932513 0
M  V30 36178 C 3243.24 1.30229 1.46748 0
M  V30 36179 O 3242.36 0.630876 2.07 0
M  V30 36180 C 3242.96 3.38343 0.175988 0
M  V30 36181 C 3241.51 3.71654 0.595838 0
M  V30 36182 C 3240.66 2.76202 -0.24656 0
M  V30 36183 H 3243.61 1.46902 -0.600469 0
M  V30 36184 H 3243.63 3.67221 0.996447 0
M  V30 36185 H 3243.15 3.79245 -0.824331 0
M  V30 36186 H 3241.25 3.36318 1.60378 0
M  V30 36187 H 3241.36 4.77754 0.358835 0
M  V30 36188 H 3239.72 2.53077 0.287118 0
M  V30 36189 H 3240.51 3.1994 -1.24473 0
M  V30 36190 N 3242.95 0.111941 1.57202 0
M  V30 36191 C 3243.9 -0.85186 2.11488 0
M  V30 36192 C 3244.89 -1.23282 1.03394 0
M  V30 36193 O 3246.08 -1.20509 1.2964 0
M  V30 36194 C 3243.21 -2.10459 2.71223 0
M  V30 36195 C 3242.29 -1.74831 3.86387 0
M  V30 36196 N 3242.68 -1.09843 4.93729 0
M  V30 36197 C 3240.98 -2.04334 3.96438 0
M  V30 36198 C 3241.68 -0.931989 5.74185 0
M  V30 36199 N 3240.66 -1.45473 5.23773 0
M  V30 36200 H 3244.46 -0.34574 2.91859 0
M  V30 36201 H 3241.97 -0.0907531 1.62146 0
M  V30 36202 H 3243.97 -2.80467 3.08454 0
M  V30 36203 H 3242.63 -2.61621 1.92313 0
M  V30 36204 H 3243.64 -0.763244 5.12245 0
M  V30 36205 H 3240.32 -2.57593 3.28561 0
M  V30 36206 H 3241.71 -0.422424 6.70571 0
M  V30 36207 N 3244.43 -1.56767 -0.161814 0
M  V30 36208 C 3245.66 -1.86674 -0.892214 0
M  V30 36209 C 3246.07 -0.698441 -1.75406 0
M  V30 36210 O 3245.43 0.33222 -1.79451 0
M  V30 36211 C 3245.48 -3.15699 -1.76115 0
M  V30 36212 O 3245.2 -4.28027 -0.934056 0
M  V30 36213 C 3246.7 -3.59018 -2.6004 0
M  V30 36214 H 3243.92 -0.61911 -0.258736 0
M  V30 36215 H 3246.47 -2.03881 -0.159053 0
M  V30 36216 H 3244.62 -3.0029 -2.44754 0
M  V30 36217 H 3245.04 -5.01712 -1.52922 0
M  V30 36218 H 3246.51 -4.52175 -3.1661 0
M  V30 36219 H 3246.99 -2.83592 -3.35369 0
M  V30 36220 H 3247.59 -3.77071 -1.96717 0
M  V30 36221 N 3245.91 0.430686 -1.51601 0
M  V30 36222 C 3247.16 1.17723 -1.64273 0
M  V30 36223 C 3247.48 1.91564 -0.364439 0
M  V30 36224 O 3246.75 1.85831 0.619959 0
M  V30 36225 H 3245.33 0.437552 -0.60544 0
M  V30 36226 H 3247.99 0.493133 -1.88558 0
M  V30 36227 H 3247.08 1.90316 -2.47358 0
M  V30 36228 N 3247.39 1.4186 0.686559 0
M  V30 36229 C 3248.32 1.47196 1.81261 0
M  V30 36230 C 3249.3 0.329686 1.66874 0
M  V30 36231 O 3250.48 0.54238 1.86472 0
M  V30 36232 C 3247.61 1.36221 3.1947 0
M  V30 36233 C 3246.57 2.48353 3.48575 0
M  V30 36234 C 3245.89 2.22441 4.86235 0
M  V30 36235 C 3247.19 3.90684 3.46646 0
M  V30 36236 H 3248.89 2.41439 1.77053 0
M  V30 36237 H 3246.43 1.16208 0.850395 0
M  V30 36238 H 3248.38 1.38565 3.97967 0
M  V30 36239 H 3247.11 0.384668 3.24327 0
M  V30 36240 H 3245.77 2.45307 2.72433 0
M  V30 36241 H 3245.42 1.23008 4.87727 0
M  V30 36242 H 3245.12 2.97585 5.06672 0
M  V30 36243 H 3246.64 2.26514 5.6703 0
M  V30 36244 H 3248.05 3.95396 4.15132 0
M  V30 36245 H 3246.45 4.65585 3.78617 0
M  V30 36246 H 3247.52 4.18193 2.45444 0
M  V30 36247 N 3248.86 -0.921712 1.27837 0
M  V30 36248 C 3249.79 -2.04001 1.13604 0
M  V30 36249 C 3250.77 -1.70062 0.0359055 0
M  V30 36250 O 3251.96 -1.93045 0.211472 0
M  V30 36251 C 3249.09 -3.38225 0.788756 0
M  V30 36252 C 3248.04 -3.86297 1.84278 0
M  V30 36253 C 3247.37 -5.17395 1.34933 0
M  V30 36254 C 3248.67 -4.0903 3.24795 0
M  V30 36255 H 3250.36 -2.16166 2.07153 0
M  V30 36256 H 3247.91 -1.03868 0.997368 0
M  V30 36257 H 3249.86 -4.15943 0.675984 0
M  V30 36258 H 3248.59 -3.2609 -0.182442 0
M  V30 36259 H 3247.25 -3.10777 1.94456 0
M  V30 36260 H 3246.89 -5.01656 0.367416 0
M  V30 36261 H 3246.59 -5.50529 2.05406 0
M  V30 36262 H 3248.12 -5.97676 1.24962 0
M  V30 36263 H 3249.53 -4.77298 3.17584 0
M  V30 36264 H 3247.93 -4.53481 3.93033 0
M  V30 36265 H 3249 -3.14116 3.69404 0
M  V30 36266 N 3250.34 -1.09956 -1.12905 0
M  V30 36267 C 3251.27 -0.765837 -2.20584 0
M  V30 36268 C 3252.25 0.258959 -1.68117 0
M  V30 36269 O 3253.44 0.125819 -1.93792 0
M  V30 36270 C 3250.57 -0.191496 -3.46772 0
M  V30 36271 C 3249.52 -1.14642 -4.12361 0
M  V30 36272 C 3248.85 -0.43352 -5.3294 0
M  V30 36273 C 3250.15 -2.49104 -4.59069 0
M  V30 36274 H 3251.84 -1.66616 -2.48756 0
M  V30 36275 H 3249.39 -0.802555 -1.19562 0
M  V30 36276 H 3251.34 0.0540795 -4.21365 0
M  V30 36277 H 3250.06 0.744046 -3.18012 0
M  V30 36278 H 3248.72 -1.37737 -3.39741 0
M  V30 36279 H 3248.37 0.506334 -5.00445 0
M  V30 36280 H 3248.07 -1.07028 -5.77771 0
M  V30 36281 H 3249.6 -0.196374 -6.10284 0
M  V30 36282 H 3251.01 -2.30186 -5.25059 0
M  V30 36283 H 3249.41 -3.08619 -5.1466 0
M  V30 36284 H 3250.48 -3.09466 -3.73308 0
M  V30 36285 N 3251.82 1.30231 -0.887563 0
M  V30 36286 C 3252.75 2.30509 -0.372521 0
M  V30 36287 C 3253.73 1.61099 0.546008 0
M  V30 36288 O 3254.92 1.8869 0.459312 0
M  V30 36289 C 3252.05 3.44853 0.411544 0
M  V30 36290 C 3251 4.25979 -0.415458 0
M  V30 36291 C 3250.33 5.324 0.495369 0
M  V30 36292 C 3251.63 4.95254 -1.65895 0
M  V30 36293 H 3253.32 2.73838 -1.2105 0
M  V30 36294 H 3250.87 1.31647 -0.583521 0
M  V30 36295 H 3252.82 4.14071 0.782511 0
M  V30 36296 H 3251.54 3.00336 1.28319 0
M  V30 36297 H 3250.2 3.58452 -0.768597 0
M  V30 36298 H 3249.85 4.8413 1.3648 0
M  V30 36299 H 3249.55 5.87575 -0.0541917 0
M  V30 36300 H 3251.07 6.04473 0.862795 0
M  V30 36301 H 3252.49 5.56974 -1.35842 0
M  V30 36302 H 3250.88 5.60305 -2.14891 0
M  V30 36303 H 3251.95 4.21233 -2.40189 0
M  V30 36304 N 3253.3 0.648782 1.43627 0
M  V30 36305 C 3254.52 0.16632 2.06732 0
M  V30 36306 C 3254.95 -1.15731 1.48283 0
M  V30 36307 O 3254.31 -1.71395 0.591048 0
M  V30 36308 C 3254.35 0.0839365 3.60502 0
M  V30 36309 O 3253.46 -0.955114 4.01187 0
M  V30 36310 H 3252.8 0.0928401 0.657478 0
M  V30 36311 H 3255.33 0.890453 1.84207 0
M  V30 36312 H 3255.34 -0.100851 4.07875 0
M  V30 36313 H 3254.01 1.05021 4.02422 0
M  V30 36314 H 3252.59 -0.743473 3.65413 0
M  V30 36315 N 3254.78 -1.52688 0.390421 0
M  V30 36316 C 3256.02 -2.01892 -0.191693 0
M  V30 36317 C 3256.36 -1.27633 -1.46367 0
M  V30 36318 O 3255.63 -0.377127 -1.90809 0
M  V30 36319 C 3255.91 -3.57169 -0.458473 0
M  V30 36320 C 3255.77 -4.42097 0.828874 0
M  V30 36321 C 3257.09 -4.22016 -1.24862 0
M  V30 36322 H 3254.2 -0.733838 -0.0681962 0
M  V30 36323 H 3256.85 -1.8274 0.520208 0
M  V30 36324 H 3255 -3.7362 -1.06492 0
M  V30 36325 H 3256.67 -4.37396 1.46569 0
M  V30 36326 H 3254.91 -4.09063 1.44395 0
M  V30 36327 H 3255.58 -5.48764 0.596842 0
M  V30 36328 H 3258.06 -4.0955 -0.73538 0
M  V30 36329 H 3256.93 -5.30639 -1.40403 0
M  V30 36330 H 3257.2 -3.79723 -2.26413 0
M  V30 36331 N 3256.25 -0.120276 -1.5714 0
M  V30 36332 C 3257.19 0.859949 -2.12456 0
M  V30 36333 C 3258.2 1.22909 -1.06758 0
M  V30 36334 O 3259.39 1.17782 -1.34126 0
M  V30 36335 C 3256.49 2.16143 -2.61028 0
M  V30 36336 C 3255.66 1.96378 -3.90838 0
M  V30 36337 C 3254.72 3.10267 -4.24995 0
M  V30 36338 O 3253.75 2.83125 -4.93791 0
M  V30 36339 N 3254.95 4.36734 -3.82418 0
M  V30 36340 H 3257.71 0.38735 -2.97186 0
M  V30 36341 H 3255.27 0.0641091 -1.61773 0
M  V30 36342 H 3257.27 2.9133 -2.80908 0
M  V30 36343 H 3255.84 2.54747 -1.8117 0
M  V30 36344 H 3255.06 1.05377 -3.79854 0
M  V30 36345 H 3256.34 1.80479 -4.75715 0
M  V30 36346 H 3255.74 4.61661 -3.26934 0
M  V30 36347 H 3254.3 5.08788 -4.07404 0
M  V30 36348 N 3257.73 1.56851 0.153498 0
M  V30 36349 C 3258.68 1.97775 1.1897 0
M  V30 36350 C 3259.65 0.844336 1.43039 0
M  V30 36351 O 3260.83 1.10589 1.55482 0
M  V30 36352 C 3257.97 2.358 2.51977 0
M  V30 36353 C 3257.09 3.62401 2.35137 0
M  V30 36354 C 3256.22 3.89558 3.61134 0
M  V30 36355 C 3255.26 5.09451 3.39302 0
M  V30 36356 N 3254.4 5.32651 4.57414 0
M  V30 36357 H 3259.24 2.861 0.833707 0
M  V30 36358 H 3256.78 1.41551 0.400227 0
M  V30 36359 H 3258.73 2.55873 3.29522 0
M  V30 36360 H 3257.36 1.50562 2.85536 0
M  V30 36361 H 3256.42 3.50141 1.48678 0
M  V30 36362 H 3257.73 4.50104 2.14961 0
M  V30 36363 H 3256.88 4.10095 4.4711 0
M  V30 36364 H 3255.62 3.00265 3.84307 0
M  V30 36365 H 3254.63 4.88794 2.51715 0
M  V30 36366 H 3255.85 6.00291 3.17534 0
M  V30 36367 H 3253.8 4.46312 4.80772 0
M  V30 36368 H 3253.71 6.1461 4.40217 0
M  V30 36369 H 3254.98 5.5768 5.44622 0
M  V30 36370 N 3259.21 -0.42264 1.51827 0
M  V30 36371 C 3260.63 -0.76025 1.40329 0
M  V30 36372 C 3260.83 -1.95271 0.497153 0
M  V30 36373 O 3259.88 -2.52465 -0.0421639 0
M  V30 36374 C 3261.2 -1.02684 2.82624 0
M  V30 36375 C 3262.74 -1.13038 2.91876 0
M  V30 36376 C 3263.22 -1.42982 4.35109 0
M  V30 36377 N 3264.71 -1.49876 4.38282 0
M  V30 36378 C 3265.44 -1.74645 5.46156 0
M  V30 36379 N 3264.94 -1.97109 6.64169 0
M  V30 36380 N 3266.73 -1.76549 5.33654 0
M  V30 36381 H 3258.88 0.362492 2.09284 0
M  V30 36382 H 3261.15 0.0998326 0.942729 0
M  V30 36383 H 3260.85 -0.223164 3.50991 0
M  V30 36384 H 3260.73 -1.95062 3.22848 0
M  V30 36385 H 3263.11 -1.92467 2.23697 0
M  V30 36386 H 3263.2 -0.185282 2.55128 0
M  V30 36387 H 3262.84 -0.64076 5.03842 0
M  V30 36388 H 3262.77 -2.38723 4.69382 0
M  V30 36389 H 3265.26 -1.3436 3.53208 0
M  V30 36390 H 3265.57 -2.15421 7.42168 0
M  V30 36391 H 3263.92 -1.94401 6.67258 0
M  V30 36392 H 3267.11 -1.58528 4.40439 0
M  V30 36393 H 3267.28 -1.95514 6.17801 0
M  V30 36394 N 3260.69 -1.42222 -0.679027 0
M  V30 36395 C 3261.91 -1.4606 -1.47245 0
M  V30 36396 C 3262.34 -0.0721318 -1.87962 0
M  V30 36397 O 3261.7 0.928461 -1.55722 0
M  V30 36398 C 3261.74 -2.38953 -2.70063 0
M  V30 36399 O 3260.85 -1.85798 -3.68175 0
M  V30 36400 H 3260.19 -0.495044 -0.442524 0
M  V30 36401 H 3262.72 -1.86865 -0.83323 0
M  V30 36402 H 3262.73 -2.5539 -3.18182 0
M  V30 36403 H 3261.4 -3.39831 -2.39767 0
M  V30 36404 H 3259.98 -1.78895 -3.27187 0
M  V30 36405 N 3262.17 0.91492 -1.28324 0
M  V30 36406 C 3263.1 2.01839 -1.06472 0
M  V30 36407 C 3264.08 1.62589 0.0188396 0
M  V30 36408 O 3265.26 1.88059 -0.128858 0
M  V30 36409 C 3262.39 3.33019 -0.617744 0
M  V30 36410 C 3261.43 3.91252 -1.69777 0
M  V30 36411 S 3262.27 4.22247 -3.29344 0
M  V30 36412 C 3263.42 5.5649 -2.86478 0
M  V30 36413 H 3263.66 2.20065 -1.99897 0
M  V30 36414 H 3261.19 1.05964 -1.12299 0
M  V30 36415 H 3263.15 4.0886 -0.366553 0
M  V30 36416 H 3261.81 3.12696 0.296654 0
M  V30 36417 H 3261 4.85953 -1.33662 0
M  V30 36418 H 3260.6 3.22043 -1.9017 0
M  V30 36419 H 3262.9 6.36329 -2.32576 0
M  V30 36420 H 3263.84 5.97517 -3.79973 0
M  V30 36421 H 3264.25 5.17622 -2.25229 0
M  V30 36422 N 3263.64 1.10553 1.1232 0
M  V30 36423 C 3264.87 0.871126 1.88218 0
M  V30 36424 C 3265.29 -0.572974 1.79161 0
M  V30 36425 O 3264.65 -1.40372 1.14741 0
M  V30 36426 C 3264.7 1.32571 3.35347 0
M  V30 36427 O 3263.8 0.491522 4.0946 0
M  V30 36428 H 3263.15 0.314526 0.584781 0
M  V30 36429 H 3265.68 1.47265 1.42036 0
M  V30 36430 H 3265.69 1.31619 3.86187 0
M  V30 36431 H 3264.36 2.37734 3.41256 0
M  V30 36432 H 3262.94 0.566359 3.68574 0
M  V30 36433 N 3265.12 -1.29758 0.894457 0
M  V30 36434 C 3266.37 -1.9577 0.517703 0
M  V30 36435 C 3266.7 -1.70552 -0.934998 0
M  V30 36436 O 3265.95 -1.00838 -1.6772 0
M  V30 36437 C 3266.25 -3.49434 0.750369 0
M  V30 36438 C 3265.92 -3.9472 2.17962 0
M  V30 36439 C 3264.58 -4.06795 2.57043 0
M  V30 36440 C 3266.93 -4.182 3.1106 0
M  V30 36441 C 3264.26 -4.39718 3.88414 0
M  V30 36442 C 3266.61 -4.52595 4.41974 0
M  V30 36443 C 3265.28 -4.6288 4.80935 0
M  V30 36444 H 3264.55 -0.716375 0.189441 0
M  V30 36445 H 3267.19 -1.54452 1.13212 0
M  V30 36446 H 3265.5 -3.91764 0.0529931 0
M  V30 36447 H 3267.19 -3.98597 0.438322 0
M  V30 36448 H 3263.78 -3.85834 1.86629 0
M  V30 36449 H 3267.97 -4.08342 2.82083 0
M  V30 36450 H 3263.22 -4.45882 4.18329 0
M  V30 36451 H 3267.4 -4.69713 5.14143 0
M  V30 36452 H 3265.03 -4.88145 5.82768 0
M  V30 36453 N 3266.6 -0.65639 -1.4328 0
M  V30 36454 C 3267.53 0.0719976 -2.29087 0
M  V30 36455 C 3268.55 0.783957 -1.42681 0
M  V30 36456 O 3269.73 0.641184 -1.66587 0
M  V30 36457 C 3266.83 1.12513 -3.19678 0
M  V30 36458 C 3266.01 0.49068 -4.34639 0
M  V30 36459 C 3265.07 1.44112 -5.06081 0
M  V30 36460 O 3264.09 0.948496 -5.61242 0
M  V30 36461 N 3265.29 2.775 -5.09876 0
M  V30 36462 H 3268.06 -0.664507 -2.9224 0
M  V30 36463 H 3265.62 -0.49941 -1.54005 0
M  V30 36464 H 3267.61 1.76183 -3.64337 0
M  V30 36465 H 3266.18 1.76357 -2.58103 0
M  V30 36466 H 3265.4 -0.325169 -3.92857 0
M  V30 36467 H 3266.69 0.0479166 -5.08777 0
M  V30 36468 H 3266.09 3.2008 -4.66439 0
M  V30 36469 H 3264.65 3.36464 -5.58243 0
M  V30 36470 N 3268.08 1.52478 -0.398513 0
M  V30 36471 C 3269.33 2.01294 0.180359 0
M  V30 36472 C 3269.65 1.28644 1.46546 0
M  V30 36473 O 3268.92 0.409206 1.91578 0
M  V30 36474 H 3267.5 0.743747 0.0696397 0
M  V30 36475 H 3270.16 1.8749 -0.532318 0
M  V30 36476 H 3269.26 3.09728 0.384035 0
M  V30 36477 N 3269.56 0.128608 1.57074 0
M  V30 36478 C 3270.81 -0.526918 1.94696 0
M  V30 36479 C 3271.12 -1.67213 1.01485 0
M  V30 36480 O 3272.33 -2.39106 1.2861 0
M  V30 36481 C 3270.78 -0.98874 3.46052 0
M  V30 36482 C 3270.39 0.128536 4.47816 0
M  V30 36483 C 3272.13 -1.6151 3.92575 0
M  V30 36484 C 3270.04 -0.350525 5.9036 0
M  V30 36485 H 3268.97 -0.20061 0.726823 0
M  V30 36486 H 3271.62 0.210004 1.82294 0
M  V30 36487 H 3270 -1.78037 3.53721 0
M  V30 36488 H 3271.18 0.905056 4.51825 0
M  V30 36489 H 3269.49 0.662147 4.11102 0
M  V30 36490 H 3272.09 -1.98483 4.96496 0
M  V30 36491 H 3272.43 -2.49715 3.33089 0
M  V30 36492 H 3272.97 -0.8887 3.87746 0
M  V30 36493 H 3269.7 0.495707 6.53623 0
M  V30 36494 H 3269.22 -1.09332 5.89751 0
M  V30 36495 H 3270.9 -0.808604 6.41927 0
M  V30 36496 N 3271.04 -1.5693 -0.145178 0
M  V30 36497 C 3272.45 -1.51636 -0.497878 0
M  V30 36498 C 3272.65 -0.837334 -1.83278 0
M  V30 36499 O 3271.71 -0.408628 -2.49172 0
M  V30 36500 C 3273.02 -2.96403 -0.506505 0
M  V30 36501 C 3274.57 -3.07353 -0.591893 0
M  V30 36502 C 3275.04 -4.5363 -0.631164 0
M  V30 36503 N 3276.53 -4.57982 -0.693337 0
M  V30 36504 C 3277.27 -5.68543 -0.744736 0
M  V30 36505 N 3276.77 -6.8867 -0.755371 0
M  V30 36506 N 3278.56 -5.56581 -0.785756 0
M  V30 36507 H 3270.71 -1.99468 0.729814 0
M  V30 36508 H 3272.97 -0.909826 0.266311 0
M  V30 36509 H 3272.68 -3.49347 0.406189 0
M  V30 36510 H 3272.55 -3.52453 -1.34377 0
M  V30 36511 H 3274.94 -2.54428 -1.49501 0
M  V30 36512 H 3275.02 -2.54344 0.272551 0
M  V30 36513 H 3274.66 -5.07193 0.267799 0
M  V30 36514 H 3274.59 -5.04423 -1.51212 0
M  V30 36515 H 3277.09 -3.71504 -0.692343 0
M  V30 36516 H 3277.4 -7.68685 -0.796489 0
M  V30 36517 H 3275.74 -6.91227 -0.723217 0
M  V30 36518 H 3278.93 -4.61646 -0.774631 0
M  V30 36519 H 3279.11 -6.42761 -0.822348 0
M  V30 36520 N 3272.51 0.414582 -1.52049 0
M  V30 36521 C 3273.45 1.52366 -1.71222 0
M  V30 36522 C 3274.46 1.51629 -0.59266 0
M  V30 36523 O 3275.65 1.55993 -0.867661 0
M  V30 36524 C 3272.75 2.91268 -1.73253 0
M  V30 36525 C 3271.92 3.16258 -3.02159 0
M  V30 36526 C 3270.98 4.35002 -2.96073 0
M  V30 36527 O 3270.01 4.32547 -3.69988 0
M  V30 36528 N 3271.21 5.39818 -2.13487 0
M  V30 36529 H 3273.97 1.36316 -2.66905 0
M  V30 36530 H 3271.53 0.603815 -1.50219 0
M  V30 36531 H 3273.53 3.68763 -1.6672 0
M  V30 36532 H 3272.1 3.00803 -0.850672 0
M  V30 36533 H 3271.32 2.26855 -3.22383 0
M  V30 36534 H 3272.6 3.29794 -3.87445 0
M  V30 36535 H 3272 5.44658 -1.52854 0
M  V30 36536 H 3270.56 6.16078 -2.12816 0
M  V30 36537 N 3273.99 1.4258 0.671475 0
M  V30 36538 C 3275.4 1.38483 1.25217 0
M  V30 36539 C 3275.75 0.0797534 1.96038 0
M  V30 36540 O 3274.88 -0.821406 2.00205 0
M  V30 36541 C 3275.47 2.50846 2.27731 0
M  V30 36542 C 3274.03 2.50072 2.8132 0
M  V30 36543 C 3273.18 2.29469 1.5569 0
M  V30 36544 H 3276.13 1.51746 0.464647 0
M  V30 36545 H 3276.15 2.21288 3.09535 0
M  V30 36546 H 3275.66 3.45818 1.76158 0
M  V30 36547 H 3273.76 1.58928 3.37006 0
M  V30 36548 H 3273.88 3.47224 3.3011 0
M  V30 36549 H 3272.24 1.77791 1.8238 0
M  V30 36550 H 3273.02 3.265 1.06078 0
M  V30 36551 N 3275.47 -0.908102 1.28807 0
M  V30 36552 C 3276.72 -1.66025 1.16463 0
M  V30 36553 C 3277.05 -1.92097 -0.284991 0
M  V30 36554 O 3276.32 -1.5254 -1.20673 0
M  V30 36555 C 3276.61 -3.01463 1.96957 0
M  V30 36556 C 3276.46 -2.82509 3.50012 0
M  V30 36557 C 3277.78 -4.0208 1.78939 0
M  V30 36558 H 3274.9 -0.602507 0.424446 0
M  V30 36559 H 3277.54 -1.05247 1.58187 0
M  V30 36560 H 3275.69 -3.53341 1.61501 0
M  V30 36561 H 3277.36 -2.37598 3.95405 0
M  V30 36562 H 3275.6 -2.17456 3.7536 0
M  V30 36563 H 3276.28 -3.78713 4.01597 0
M  V30 36564 H 3278.75 -3.59284 2.09891 0
M  V30 36565 H 3277.63 -4.94799 2.37623 0
M  V30 36566 H 3277.89 -4.35823 0.742362 0
M  V30 36567 N 3276.95 -1.11147 -1.11732 0
M  V30 36568 C 3278.18 -0.880844 -1.87213 0
M  V30 36569 C 3278.59 0.569163 -1.80017 0
M  V30 36570 O 3277.95 1.39281 -1.17928 0
M  V30 36571 C 3278 -1.33004 -3.36143 0
M  V30 36572 O 3277.72 -2.72319 -3.43182 0
M  V30 36573 C 3279.22 -1.13438 -4.2854 0
M  V30 36574 H 3276.44 -0.315656 -0.592117 0
M  V30 36575 H 3278.98 -1.47802 -1.41332 0
M  V30 36576 H 3277.14 -0.776375 -3.79541 0
M  V30 36577 H 3277.55 -2.91712 -4.35895 0
M  V30 36578 H 3279.03 -1.49773 -5.31293 0
M  V30 36579 H 3279.5 -0.0736631 -4.39138 0
M  V30 36580 H 3280.11 -1.67487 -3.90932 0
M  V30 36581 N 3278.43 1.29282 -0.901326 0
M  V30 36582 C 3279.67 1.95783 -0.52886 0
M  V30 36583 C 3280 1.70874 0.922803 0
M  V30 36584 O 3279.28 1.02263 1.65446 0
M  V30 36585 C 3279.56 3.50549 -0.823854 0
M  V30 36586 C 3279.42 3.84909 -2.32734 0
M  V30 36587 C 3280.73 4.38997 -0.311459 0
M  V30 36588 H 3277.85 0.711113 -0.193617 0
M  V30 36589 H 3280.5 1.5287 -1.12831 0
M  V30 36590 H 3278.65 3.87232 -0.31368 0
M  V30 36591 H 3280.32 3.58163 -2.90718 0
M  V30 36592 H 3278.56 3.32394 -2.78741 0
M  V30 36593 H 3279.23 4.92936 -2.48431 0
M  V30 36594 H 3281.71 4.09315 -0.748336 0
M  V30 36595 H 3280.58 5.46167 -0.547053 0
M  V30 36596 H 3280.84 4.35023 0.787883 0
M  V30 36597 N 3279.9 0.663979 1.4293 0
M  V30 36598 C 3281.13 0.189844 2.06027 0
M  V30 36599 C 3281.55 -1.14877 1.49829 0
M  V30 36600 O 3280.9 -1.71141 0.633808 0
M  V30 36601 C 3280.95 0.104407 3.61349 0
M  V30 36602 O 3280.68 1.39011 4.15461 0
M  V30 36603 C 3282.18 -0.394522 4.41541 0
M  V30 36604 H 3279.4 0.0948861 0.664257 0
M  V30 36605 H 3281.94 0.907664 1.83253 0
M  V30 36606 H 3280.1 -0.564035 3.83272 0
M  V30 36607 H 3280.51 1.25635 5.09231 0
M  V30 36608 H 3281.98 -0.403232 5.50525 0
M  V30 36609 H 3282.46 -1.42783 4.15343 0
M  V30 36610 H 3283.07 0.241804 4.24612 0
M  V30 36611 N 3281.38 -1.52265 0.406593 0
M  V30 36612 C 3282.29 -2.3068 -0.42706 0
M  V30 36613 C 3283.31 -1.38302 -1.05587 0
M  V30 36614 O 3284.48 -1.71376 -1.05794 0
M  V30 36615 C 3281.55 -3.11113 -1.53002 0
M  V30 36616 C 3280.61 -4.19227 -0.924531 0
M  V30 36617 C 3279.84 -4.95815 -1.97493 0
M  V30 36618 O 3280.07 -4.72677 -3.19269 0
M  V30 36619 O 3279 -5.80722 -1.58258 0
M  V30 36620 H 3282.83 -3.02957 0.21224 0
M  V30 36621 H 3280.41 -1.48431 0.169861 0
M  V30 36622 H 3282.29 -3.61209 -2.17039 0
M  V30 36623 H 3280.97 -2.41632 -2.15397 0
M  V30 36624 H 3279.87 -3.73284 -0.246944 0
M  V30 36625 H 3281.21 -4.90993 -0.344544 0
M  V30 36626 N 3282.86 -0.136936 -1.57004 0
M  V30 36627 C 3283.79 0.802863 -2.19263 0
M  V30 36628 C 3284.77 1.26437 -1.13788 0
M  V30 36629 O 3285.96 1.32375 -1.42094 0
M  V30 36630 C 3283.09 2.0461 -2.80628 0
M  V30 36631 C 3282.04 1.72174 -3.91842 0
M  V30 36632 C 3281.37 3.03678 -4.40095 0
M  V30 36633 C 3282.67 0.976159 -5.13097 0
M  V30 36634 H 3284.36 0.284008 -2.9805 0
M  V30 36635 H 3281.91 0.135163 -1.43364 0
M  V30 36636 H 3283.86 2.70829 -3.22846 0
M  V30 36637 H 3282.58 2.58851 -1.99157 0
M  V30 36638 H 3281.24 1.08338 -3.50226 0
M  V30 36639 H 3280.89 3.55889 -3.5546 0
M  V30 36640 H 3280.59 2.82742 -5.15103 0
M  V30 36641 H 3282.11 3.70984 -4.84977 0
M  V30 36642 H 3283.53 1.54023 -5.52223 0
M  V30 36643 H 3281.93 0.86711 -5.93802 0
M  V30 36644 H 3283 -0.033934 -4.84888 0
M  V30 36645 N 3284.34 1.57005 0.136853 0
M  V30 36646 C 3285.58 1.84173 0.848999 0
M  V30 36647 C 3285.92 0.720059 1.80357 0
M  V30 36648 O 3285.19 -0.27555 1.92538 0
M  V30 36649 C 3285.48 3.21874 1.61459 0
M  V30 36650 C 3285.33 4.44618 0.680824 0
M  V30 36651 C 3286.65 3.56919 2.57482 0
M  V30 36652 H 3283.77 0.669925 0.307197 0
M  V30 36653 H 3286.41 1.89659 0.113828 0
M  V30 36654 H 3284.56 3.17329 2.24131 0
M  V30 36655 H 3286.23 4.61255 0.0643284 0
M  V30 36656 H 3284.47 4.33799 -0.00891254 0
M  V30 36657 H 3285.14 5.37596 1.25277 0
M  V30 36658 H 3287.62 3.6214 2.04924 0
M  V30 36659 H 3286.5 4.5428 3.08093 0
M  V30 36660 H 3286.76 2.83403 3.39316 0
M  V30 36661 N 3285.82 -0.406513 1.52267 0
M  V30 36662 C 3287.09 -1.16637 1.5702 0
M  V30 36663 C 3287.47 -2.08131 0.352789 0
M  V30 36664 O 3286.82 -2.18756 -0.66017 0
M  V30 36665 C 3287.03 -1.94138 2.9002 0
M  V30 36666 C 3288.38 -2.50113 3.43116 0
M  V30 36667 O 3289.4 -2.04315 2.91777 0
M  V30 36668 O 3288.26 -3.33724 4.32771 0
M  V30 36669 H 3285.36 -0.532698 0.632584 0
M  V30 36670 H 3287.9 -0.413082 1.64596 0
M  V30 36671 H 3286.67 -1.27127 3.70073 0
M  V30 36672 H 3286.3 -2.76466 2.85749 0
M  V30 36673 N 3287.29 -1.42934 -0.663904 0
M  V30 36674 C 3288.52 -1.47614 -1.45688 0
M  V30 36675 C 3288.94 -0.0920636 -1.87875 0
M  V30 36676 O 3288.3 0.911892 -1.56698 0
M  V30 36677 C 3288.35 -2.41804 -2.67513 0
M  V30 36678 O 3287.45 -1.89692 -3.66184 0
M  V30 36679 H 3286.8 -0.49971 -0.437248 0
M  V30 36680 H 3289.33 -1.87738 -0.813364 0
M  V30 36681 H 3289.34 -2.5875 -3.15456 0
M  V30 36682 H 3288.01 -3.42354 -2.36149 0
M  V30 36683 H 3286.59 -1.82355 -3.25271 0
M  V30 36684 N 3288.77 0.901258 -1.29287 0
M  V30 36685 C 3290.02 1.64834 -1.16936 0
M  V30 36686 C 3290.34 1.92982 0.279792 0
M  V30 36687 O 3289.61 1.5548 1.19176 0
M  V30 36688 H 3288.19 0.610982 -0.429779 0
M  V30 36689 H 3290.85 1.08074 -1.62191 0
M  V30 36690 H 3289.95 2.60542 -1.71826 0
M  V30 36691 N 3290.25 1.11738 1.11141 0
M  V30 36692 C 3291.5 0.862907 1.8231 0
M  V30 36693 C 3291.81 -0.613294 1.85737 0
M  V30 36694 O 3293.02 -0.984124 2.53036 0
M  V30 36695 C 3291.47 1.49402 3.27425 0
M  V30 36696 C 3291.08 3.00448 3.32317 0
M  V30 36697 C 3292.83 1.31951 4.03471 0
M  V30 36698 C 3290.73 3.56529 4.71848 0
M  V30 36699 H 3289.66 0.319162 0.683119 0
M  V30 36700 H 3292.31 1.343 1.25043 0
M  V30 36701 H 3290.7 0.941595 3.84643 0
M  V30 36702 H 3291.87 3.62122 2.84964 0
M  V30 36703 H 3290.19 3.17211 2.69753 0
M  V30 36704 H 3292.78 1.7128 5.06525 0
M  V30 36705 H 3293.13 0.262412 4.15472 0
M  V30 36706 H 3293.66 1.84075 3.52649 0
M  V30 36707 H 3290.4 4.61966 4.65046 0
M  V30 36708 H 3289.92 2.99628 5.19599 0
M  V30 36709 H 3291.6 3.55154 5.40809 0
M  V30 36710 N 3291.73 -1.28802 0.90817 0
M  V30 36711 C 3292.66 -2.29887 0.409146 0
M  V30 36712 C 3293.64 -1.61947 -0.52031 0
M  V30 36713 O 3294.82 -1.89397 -0.429235 0
M  V30 36714 C 3291.95 -3.45464 -0.356629 0
M  V30 36715 C 3290.91 -4.25264 0.483175 0
M  V30 36716 C 3290.23 -5.33121 -0.410606 0
M  V30 36717 C 3291.53 -4.92552 1.73753 0
M  V30 36718 H 3293.23 -2.71878 1.25391 0
M  V30 36719 H 3290.77 -1.30702 0.604391 0
M  V30 36720 H 3292.73 -4.15263 -0.716537 0
M  V30 36721 H 3291.45 -3.02339 -1.23525 0
M  V30 36722 H 3290.11 -3.57184 0.825527 0
M  V30 36723 H 3289.76 -4.8624 -1.28761 0
M  V30 36724 H 3289.46 -5.87414 0.147663 0
M  V30 36725 H 3290.98 -6.0577 -0.766519 0
M  V30 36726 H 3292.4 -5.54742 1.44686 0
M  V30 36727 H 3290.79 -5.56816 2.23777 0
M  V30 36728 H 3291.86 -4.17359 2.4686 0
M  V30 36729 N 3293.21 -0.67155 -1.42576 0
M  V30 36730 C 3294.62 -0.340797 -1.55919 0
M  V30 36731 C 3294.82 1.15402 -1.65181 0
M  V30 36732 O 3293.88 1.93936 -1.61694 0
M  V30 36733 C 3295.19 -1.06826 -2.81085 0
M  V30 36734 C 3296.74 -1.05027 -2.94853 0
M  V30 36735 C 3297.21 -1.75899 -4.22875 0
M  V30 36736 N 3298.71 -1.72751 -4.2978 0
M  V30 36737 C 3299.44 -2.24448 -5.27646 0
M  V30 36738 N 3298.94 -2.84512 -6.31684 0
M  V30 36739 N 3300.73 -2.14841 -5.19422 0
M  V30 36740 H 3292.88 -1.64136 -1.34808 0
M  V30 36741 H 3295.14 -0.691305 -0.648692 0
M  V30 36742 H 3294.85 -2.12337 -2.80368 0
M  V30 36743 H 3294.72 -0.631421 -3.71878 0
M  V30 36744 H 3297.11 -0.0035082 -2.951 0
M  V30 36745 H 3297.19 -1.52596 -2.053 0
M  V30 36746 H 3296.84 -2.80542 -4.23389 0
M  V30 36747 H 3296.77 -1.25782 -5.11357 0
M  V30 36748 H 3299.26 -1.28938 -3.55223 0
M  V30 36749 H 3299.57 -3.21588 -7.0271 0
M  V30 36750 H 3297.91 -2.88581 -6.32255 0
M  V30 36751 H 3301.11 -1.67608 -4.37064 0
M  V30 36752 H 3301.28 -2.55437 -5.9553 0
M  V30 36753 N 3294.68 1.52047 -0.414663 0
M  V30 36754 C 3296.1 1.86623 0.0536779 0
M  V30 36755 C 3296.45 1.33312 1.43952 0
M  V30 36756 O 3295.57 0.674642 2.05615 0
M  V30 36757 C 3296.17 3.3864 0.104181 0
M  V30 36758 C 3294.73 3.72834 0.516871 0
M  V30 36759 C 3293.87 2.75617 -0.305091 0
M  V30 36760 H 3296.82 1.45595 -0.631494 0
M  V30 36761 H 3296.84 3.69252 0.91833 0
M  V30 36762 H 3296.36 3.77411 -0.904589 0
M  V30 36763 H 3294.46 3.39644 1.53208 0
M  V30 36764 H 3294.57 4.78408 0.257416 0
M  V30 36765 H 3292.93 2.53629 0.233372 0
M  V30 36766 H 3293.72 3.17227 -1.31231 0
M  V30 36767 N 3296.16 0.145261 1.56929 0
M  V30 36768 C 3297.39 -0.516528 2.00865 0
M  V30 36769 C 3297.81 -1.5774 1.02469 0
M  V30 36770 O 3297.17 -1.813 0.000177307 0
M  V30 36771 C 3297.22 -1.09557 3.43554 0
M  V30 36772 O 3296.32 -2.21049 3.48154 0
M  V30 36773 H 3295.66 -0.12651 0.651837 0
M  V30 36774 H 3298.19 0.241481 2.0317 0
M  V30 36775 H 3298.2 -1.42466 3.82318 0
M  V30 36776 H 3296.88 -0.318677 4.14677 0
M  V30 36777 H 3295.46 -1.89381 3.21231 0
M  V30 36778 N 3297.64 -1.57075 -0.128525 0
M  V30 36779 C 3298.87 -1.88524 -0.852417 0
M  V30 36780 C 3299.28 -0.73549 -1.73885 0
M  V30 36781 O 3298.64 0.294081 -1.80115 0
M  V30 36782 C 3298.69 -3.19364 -1.69379 0
M  V30 36783 O 3298.41 -4.29912 -0.843055 0
M  V30 36784 C 3299.91 -3.64453 -2.52366 0
M  V30 36785 H 3297.13 -0.624459 -0.245545 0
M  V30 36786 H 3299.68 -2.04172 -0.115771 0
M  V30 36787 H 3297.83 -3.05414 -2.38329 0
M  V30 36788 H 3298.25 -5.04843 -1.42246 0
M  V30 36789 H 3299.72 -4.58789 -3.06947 0
M  V30 36790 H 3300.2 -2.90642 -3.29278 0
M  V30 36791 H 3300.8 -3.81159 -1.88675 0
M  V30 36792 N 3299.12 0.398432 -1.5248 0
M  V30 36793 C 3300.37 1.14608 -1.67311 0
M  V30 36794 C 3300.7 1.89884 -0.407128 0
M  V30 36795 O 3299.97 1.85182 0.594801 0
M  V30 36796 C 3300.26 2.13193 -2.90208 0
M  V30 36797 C 3300.11 1.41742 -4.26883 0
M  V30 36798 C 3301.43 3.13735 -3.08639 0
M  V30 36799 H 3298.55 0.415281 -0.60886 0
M  V30 36800 H 3301.19 0.430541 -1.85058 0
M  V30 36801 H 3299.34 2.74213 -2.75208 0
M  V30 36802 H 3301.01 0.837597 -4.53632 0
M  V30 36803 H 3299.25 0.719312 -4.27795 0
M  V30 36804 H 3299.93 2.13731 -5.08943 0
M  V30 36805 H 3302.4 2.62799 -3.22608 0
M  V30 36806 H 3301.28 3.7997 -3.96124 0
M  V30 36807 H 3301.54 3.82069 -2.22431 0
M  V30 36808 N 3300.6 1.43284 0.656314 0
M  V30 36809 C 3301.55 1.48465 1.79056 0
M  V30 36810 C 3302.54 0.358542 1.65562 0
M  V30 36811 O 3303.75 0.532395 1.71946 0
M  V30 36812 H 3300.12 0.465369 0.590708 0
M  V30 36813 H 3302.09 2.43978 1.71806 0
M  V30 36814 C 3300.84 1.4218 3.17301 0
M  V30 36815 H 3300.16 2.28136 3.2832 0
M  V30 36816 H 3301.6 1.49867 3.96631 0
M  V30 36817 C 3300.06 0.138988 3.36613 0
M  V30 36818 O 3300.59 -0.800941 3.93634 0
M  V30 36819 N 3298.8 0.0501748 2.90557 0
M  V30 36820 H 3298.35 0.815864 2.44339 0
M  V30 36821 H 3298.3 -0.807451 3.03855 0
M  V30 36822 N 3302.08 -0.894389 1.29763 0
M  V30 36823 C 3302.99 -2.03202 1.17244 0
M  V30 36824 C 3304 -1.73743 0.0944757 0
M  V30 36825 O 3305.18 -1.99037 0.307584 0
M  V30 36826 C 3302.24 -3.3598 0.855475 0
M  V30 36827 C 3301.3 -3.78922 2.01783 0
M  V30 36828 C 3300.54 -5.05364 1.7159 0
M  V30 36829 O 3300.76 -5.66806 0.639345 0
M  V30 36830 O 3299.69 -5.44487 2.56549 0
M  V30 36831 H 3303.52 -2.16688 2.12791 0
M  V30 36832 H 3301.1 -1.01889 1.09266 0
M  V30 36833 H 3302.99 -4.15654 0.693502 0
M  V30 36834 H 3301.66 -3.23624 -0.0701626 0
M  V30 36835 H 3300.57 -2.99992 2.23508 0
M  V30 36836 H 3301.9 -3.9587 2.92486 0
M  V30 36837 N 3303.55 -1.12326 -1.10547 0
M  V30 36838 C 3304.48 -0.812454 -2.1891 0
M  V30 36839 C 3305.46 0.223241 -1.68629 0
M  V30 36840 O 3306.65 0.0846843 -1.94015 0
M  V30 36841 C 3303.78 -0.265008 -3.46287 0
M  V30 36842 C 3302.73 -1.23363 -4.09836 0
M  V30 36843 C 3302.06 -0.546467 -5.319 0
M  V30 36844 C 3303.36 -2.58786 -4.53682 0
M  V30 36845 H 3305.05 -1.71855 -2.45166 0
M  V30 36846 H 3302.6 -0.827735 -1.17833 0
M  V30 36847 H 3304.55 -0.0353105 -4.21385 0
M  V30 36848 H 3303.28 0.676423 -3.19519 0
M  V30 36849 H 3301.94 -1.44912 -3.36743 0
M  V30 36850 H 3301.58 0.400068 -5.01406 0
M  V30 36851 H 3301.28 -1.19259 -5.7537 0
M  V30 36852 H 3302.81 -0.32578 -6.0973 0
M  V30 36853 H 3304.22 -2.41272 -5.20058 0
M  V30 36854 H 3302.62 -3.19466 -5.07998 0
M  V30 36855 H 3303.69 -3.17315 -3.66659 0
M  V30 36856 N 3305.03 1.28319 -0.914988 0
M  V30 36857 C 3305.94 2.30999 -0.409464 0
M  V30 36858 C 3306.96 1.66556 0.503497 0
M  V30 36859 O 3308.13 1.976 0.389385 0
M  V30 36860 C 3305.2 3.45017 0.341169 0
M  V30 36861 C 3304.26 4.25013 -0.605161 0
M  V30 36862 C 3303.49 5.33587 0.109744 0
M  V30 36863 O 3303.72 5.54647 1.33127 0
M  V30 36864 O 3302.65 5.9933 -0.555579 0
M  V30 36865 H 3306.48 2.76251 -1.26172 0
M  V30 36866 H 3304.06 1.33035 -0.679855 0
M  V30 36867 H 3305.94 4.14397 0.765059 0
M  V30 36868 H 3304.62 3.01845 1.16923 0
M  V30 36869 H 3303.52 3.58217 -1.07848 0
M  V30 36870 H 3304.86 4.71867 -1.40008 0
M  V30 36871 N 3306.51 0.679102 1.42218 0
M  V30 36872 C 3307.73 0.210133 2.06333 0
M  V30 36873 C 3308.16 -1.1256 1.50705 0
M  V30 36874 O 3307.52 -1.70103 0.627271 0
M  V30 36875 C 3307.57 0.160386 3.60243 0
M  V30 36876 O 3306.67 -0.869801 4.03123 0
M  V30 36877 H 3306.01 0.106765 0.65536 0
M  V30 36878 H 3308.54 0.929326 1.82276 0
M  V30 36879 H 3308.55 -0.0143123 4.07997 0
M  V30 36880 H 3307.23 1.13533 4.00104 0
M  V30 36881 H 3305.8 -0.665796 3.66908 0
M  V30 36882 N 3307.99 -1.51825 0.42272 0
M  V30 36883 C 3309.24 -2.01555 -0.148312 0
M  V30 36884 C 3309.56 -1.30959 -1.44481 0
M  V30 36885 O 3308.83 -0.439633 -1.90903 0
M  V30 36886 H 3307.41 -0.744761 -0.0577985 0
M  V30 36887 H 3310.07 -1.86619 0.562079 0
M  V30 36888 H 3309.16 -3.103 -0.334711 0
M  V30 36889 N 3309.47 -0.153581 -1.5685 0
M  V30 36890 C 3310.4 0.814691 -2.14232 0
M  V30 36891 C 3311.41 1.20617 -1.09341 0
M  V30 36892 O 3312.6 1.1491 -1.36594 0
M  V30 36893 C 3309.7 2.10557 -2.65554 0
M  V30 36894 C 3308.87 1.88043 -3.94916 0
M  V30 36895 C 3307.93 3.01182 -4.31481 0
M  V30 36896 O 3306.96 2.72587 -4.99685 0
M  V30 36897 N 3308.16 4.28524 -3.91596 0
M  V30 36898 H 3310.92 0.324225 -2.97941 0
M  V30 36899 H 3308.49 0.0297802 -1.61873 0
M  V30 36900 H 3310.48 2.85305 -2.87024 0
M  V30 36901 H 3309.05 2.50847 -1.86533 0
M  V30 36902 H 3308.27 0.972956 -3.82004 0
M  V30 36903 H 3309.56 1.70347 -4.79436 0
M  V30 36904 H 3308.95 4.54622 -3.36653 0
M  V30 36905 H 3307.51 5.00032 -4.18104 0
M  V30 36906 N 3310.94 1.57141 0.120193 0
M  V30 36907 C 3312.19 1.83977 0.826758 0
M  V30 36908 C 3312.51 0.739046 1.81101 0
M  V30 36909 O 3313.71 0.893781 2.56367 0
M  V30 36910 C 3312.17 3.26179 1.52102 0
M  V30 36911 C 3311.78 4.44258 0.577824 0
M  V30 36912 C 3313.52 3.62265 2.21279 0
M  V30 36913 C 3311.43 5.77487 1.27525 0
M  V30 36914 H 3310.36 0.686194 0.312496 0
M  V30 36915 H 3313.01 1.83328 0.0795021 0
M  V30 36916 H 3311.39 3.21294 2.31486 0
M  V30 36917 H 3312.56 4.60438 -0.18271 0
M  V30 36918 H 3310.88 4.16399 -0.00691667 0
M  V30 36919 H 3313.48 4.59073 2.74146 0
M  V30 36920 H 3313.82 2.89639 2.99023 0
M  V30 36921 H 3314.35 3.68928 1.48785 0
M  V30 36922 H 3311.09 6.53279 0.539122 0
M  V30 36923 H 3310.61 5.65196 2.00782 0
M  V30 36924 H 3312.29 6.21202 1.80877 0
M  V30 36925 N 3312.42 -0.39034 1.5269 0
M  V30 36926 C 3313.65 -1.16126 1.71841 0
M  V30 36927 C 3314.07 -1.82995 0.435258 0
M  V30 36928 O 3313.43 -1.70771 -0.60886 0
M  V30 36929 C 3313.48 -2.18598 2.86788 0
M  V30 36930 O 3312.58 -3.25156 2.53668 0
M  V30 36931 H 3311.92 -0.338125 0.571461 0
M  V30 36932 H 3314.45 -0.455045 1.99476 0
M  V30 36933 H 3314.46 -2.62617 3.12244 0
M  V30 36934 H 3313.14 -1.69315 3.79875 0
M  V30 36935 H 3311.72 -2.86285 2.38947 0
M  V30 36936 N 3313.9 -1.4363 -0.648706 0
M  V30 36937 C 3315.13 -1.48719 -1.4341 0
M  V30 36938 C 3315.54 -0.105084 -1.88908 0
M  V30 36939 O 3314.88 0.895868 -1.60374 0
M  V30 36940 C 3314.94 -2.37473 -2.69902 0
M  V30 36941 C 3314.61 -3.84939 -2.46314 0
M  V30 36942 C 3315.6 -4.75931 -2.0925 0
M  V30 36943 C 3313.29 -4.29472 -2.60499 0
M  V30 36944 C 3315.28 -6.09452 -1.86675 0
M  V30 36945 C 3312.97 -5.63044 -2.37538 0
M  V30 36946 C 3313.97 -6.52852 -2.00683 0
M  V30 36947 O 3313.66 -7.83954 -1.77965 0
M  V30 36948 H 3313.39 -0.507227 -0.446874 0
M  V30 36949 H 3315.94 -1.89088 -0.802185 0
M  V30 36950 H 3314.17 -1.91999 -3.35668 0
M  V30 36951 H 3315.86 -2.33713 -3.31863 0
M  V30 36952 H 3316.63 -4.42803 -1.97864 0
M  V30 36953 H 3312.51 -3.59841 -2.88159 0
M  V30 36954 H 3316.05 -6.79511 -1.57832 0
M  V30 36955 H 3311.95 -5.95738 -2.48528 0
M  V30 36956 H 3312.72 -7.95577 -1.92354 0
M  V30 36957 N 3315.38 0.887495 -1.30236 0
M  V30 36958 C 3316.66 1.62027 -1.09575 0
M  V30 36959 C 3317.04 2.08079 0.355841 0
M  V30 36960 O 3316.38 1.84584 1.34689 0
M  V30 36961 C 3316.59 2.79174 -2.09435 0
M  V30 36962 C 3317.94 3.49566 -2.41016 0
M  V30 36963 O 3318.97 2.89359 -2.07725 0
M  V30 36964 O 3317.82 4.58135 -2.97951 0
M  V30 36965 H 3314.92 0.712021 -0.420661 0
M  V30 36966 H 3317.46 0.934492 -1.41652 0
M  V30 36967 H 3316.24 2.4243 -3.07154 0
M  V30 36968 H 3315.86 3.5545 -1.7816 0
M  V30 36969 N 3316.86 1.12911 1.0995 0
M  V30 36970 C 3317.77 0.814749 2.19998 0
M  V30 36971 C 3318.78 -0.198479 1.72864 0
M  V30 36972 O 3319.96 -0.0308478 2.01376 0
M  V30 36973 C 3317.02 0.279424 3.45572 0
M  V30 36974 C 3316.08 1.35322 4.07414 0
M  V30 36975 C 3315.32 0.84334 5.26995 0
M  V30 36976 O 3315.54 -0.321064 5.69496 0
M  V30 36977 O 3314.47 1.61522 5.79823 0
M  V30 36978 H 3318.3 1.73403 2.4933 0
M  V30 36979 H 3315.89 0.906149 1.18783 0
M  V30 36980 H 3317.77 -0.0139791 4.21398 0
M  V30 36981 H 3316.44 -0.612345 3.17855 0
M  V30 36982 H 3315.35 1.69986 3.3325 0
M  V30 36983 H 3316.68 2.21893 4.39345 0
M  V30 36984 N 3318.33 -1.27832 0.92178 0
M  V30 36985 C 3319.58 -1.94917 0.559941 0
M  V30 36986 C 3319.91 -1.72321 -0.895502 0
M  V30 36987 O 3319.19 -1.04882 -1.63798 0
M  V30 36988 C 3319.47 -3.49194 0.879519 0
M  V30 36989 C 3319.32 -3.81158 2.38828 0
M  V30 36990 C 3320.64 -4.38445 0.38126 0
M  V30 36991 H 3317.76 -0.707943 0.204906 0
M  V30 36992 H 3320.4 -1.51056 1.15248 0
M  V30 36993 H 3318.55 -3.86684 0.375245 0
M  V30 36994 H 3320.23 -3.53493 2.96379 0
M  V30 36995 H 3318.47 -3.27918 2.83994 0
M  V30 36996 H 3319.14 -4.88921 2.56242 0
M  V30 36997 H 3321.62 -4.08073 0.81336 0
M  V30 36998 H 3320.49 -5.45228 0.633874 0
M  V30 36999 H 3320.75 -4.36221 -0.718575 0
M  V30 37000 N 3319.81 -0.686634 -1.41856 0
M  V30 37001 C 3321.06 -0.213414 -2.0097 0
M  V30 37002 C 3321.38 1.18818 -1.5462 0
M  V30 37003 O 3320.65 1.80006 -0.772948 0
M  V30 37004 H 3319.23 -0.0759099 -0.743133 0
M  V30 37005 H 3321.89 -0.885794 -1.73608 0
M  V30 37006 H 3320.99 -0.223881 -3.11296 0
M  V30 37007 N 3321.29 1.51599 -0.430766 0
M  V30 37008 C 3322.2 2.3133 0.390307 0
M  V30 37009 C 3323.22 1.39964 1.03374 0
M  V30 37010 O 3324.39 1.73037 1.03054 0
M  V30 37011 C 3321.46 3.13508 1.48033 0
M  V30 37012 C 3320.52 4.20644 0.857718 0
M  V30 37013 C 3319.75 4.98894 1.8958 0
M  V30 37014 O 3319.97 4.77696 3.11709 0
M  V30 37015 O 3318.91 5.83166 1.48999 0
M  V30 37016 H 3322.73 3.02581 -0.260411 0
M  V30 37017 H 3320.32 1.48142 -0.193454 0
M  V30 37018 H 3322.2 3.64616 2.11265 0
M  V30 37019 H 3320.88 2.45028 2.11525 0
M  V30 37020 H 3319.78 3.7363 0.187526 0
M  V30 37021 H 3321.12 4.91479 0.266388 0
M  V30 37022 N 3322.77 0.161897 1.56766 0
M  V30 37023 C 3324.18 -0.194375 1.58412 0
M  V30 37024 C 3324.38 -1.63562 1.17685 0
M  V30 37025 O 3323.44 -2.36518 0.884065 0
M  V30 37026 C 3324.75 0.0778967 3.00599 0
M  V30 37027 C 3326.3 0.015362 3.12996 0
M  V30 37028 C 3326.78 0.260498 4.57259 0
M  V30 37029 N 3328.27 0.207944 4.62733 0
M  V30 37030 C 3329 0.371921 5.72193 0
M  V30 37031 N 3328.5 0.594439 6.90245 0
M  V30 37032 N 3330.29 0.308483 5.61253 0
M  V30 37033 H 3322.44 1.10277 1.81529 0
M  V30 37034 H 3324.71 0.437689 0.840911 0
M  V30 37035 H 3324.41 1.07593 3.34838 0
M  V30 37036 H 3324.29 -0.63478 3.7182 0
M  V30 37037 H 3326.67 -0.973241 2.78589 0
M  V30 37038 H 3326.75 0.760602 2.4423 0
M  V30 37039 H 3326.4 1.24627 4.92372 0
M  V30 37040 H 3326.33 -0.505242 5.24171 0
M  V30 37041 H 3328.82 0.0412205 3.77878 0
M  V30 37042 H 3329.13 0.709266 7.69538 0
M  V30 37043 H 3327.48 0.630941 6.9213 0
M  V30 37044 H 3330.67 0.1353 4.67904 0
M  V30 37045 H 3330.84 0.439706 6.46506 0
M  V30 37046 N 3324.25 -1.57203 -0.111858 0
M  V30 37047 C 3325.5 -1.84413 -0.81699 0
M  V30 37048 C 3325.81 -0.74864 -1.80706 0
M  V30 37049 O 3327.01 -0.907364 -2.55889 0
M  V30 37050 C 3325.47 -3.26981 -1.50371 0
M  V30 37051 C 3325.08 -4.44558 -0.554256 0
M  V30 37052 C 3326.82 -3.63433 -2.19355 0
M  V30 37053 C 3324.73 -5.78155 -1.2446 0
M  V30 37054 H 3323.66 -0.687842 -0.308852 0
M  V30 37055 H 3326.31 -1.83367 -0.0697786 0
M  V30 37056 H 3324.69 -3.22518 -2.29779 0
M  V30 37057 H 3325.87 -4.60334 0.207126 0
M  V30 37058 H 3324.18 -4.1639 0.0289993 0
M  V30 37059 H 3326.78 -4.6052 -2.71708 0
M  V30 37060 H 3327.12 -2.91221 -2.97483 0
M  V30 37061 H 3327.65 -3.69712 -1.46826 0
M  V30 37062 H 3324.39 -6.53556 -0.504469 0
M  V30 37063 H 3323.91 -5.66253 -1.97782 0
M  V30 37064 H 3325.59 -6.22153 -1.7758 0
M  V30 37065 N 3325.72 0.382237 -1.52894 0
M  V30 37066 C 3326.67 1.46731 -1.78153 0
M  V30 37067 C 3327.64 1.5389 -0.625061 0
M  V30 37068 O 3328.83 1.70041 -0.865497 0
M  V30 37069 C 3325.97 2.83881 -1.96228 0
M  V30 37070 C 3325.08 2.85821 -3.2393 0
M  V30 37071 C 3324.21 4.1444 -3.32284 0
M  V30 37072 C 3323.25 4.10457 -4.54083 0
M  V30 37073 N 3322.39 5.30695 -4.59681 0
M  V30 37074 H 3327.23 1.24493 -2.7075 0
M  V30 37075 H 3324.77 0.603815 -1.34136 0
M  V30 37076 H 3326.73 3.63534 -2.04692 0
M  V30 37077 H 3325.36 3.04555 -1.06985 0
M  V30 37078 H 3324.41 1.98499 -3.24503 0
M  V30 37079 H 3325.72 2.78747 -4.13645 0
M  V30 37080 H 3324.87 5.025 -3.39969 0
M  V30 37081 H 3323.61 4.24245 -2.40556 0
M  V30 37082 H 3322.62 3.20785 -4.46517 0
M  V30 37083 H 3323.84 4.02269 -5.47135 0
M  V30 37084 H 3321.79 5.41117 -3.70848 0
M  V30 37085 H 3321.71 5.25724 -5.43277 0
M  V30 37086 H 3322.97 6.20634 -4.71629 0
M  V30 37087 N 3327.2 1.43972 0.64108 0
M  V30 37088 C 3328.48 1.36707 1.39895 0
M  V30 37089 C 3328.86 0.0208422 2.1109 0
M  V30 37090 O 3328.21 -0.996214 2.0564 0
M  V30 37091 C 3328.42 2.55853 2.37361 0
M  V30 37092 C 3329.77 2.99479 3.00995 0
M  V30 37093 O 3330.79 2.55987 2.47688 0
M  V30 37094 O 3329.65 3.74858 3.97673 0
M  V30 37095 H 3326.74 0.540866 0.625614 0
M  V30 37096 H 3329.29 1.56044 0.66697 0
M  V30 37097 H 3328.06 3.45455 1.83784 0
M  V30 37098 H 3327.68 2.38678 3.17991 0
M  V30 37099 N 3328.68 -0.880575 1.30704 0
M  V30 37100 C 3329.93 -1.63275 1.19781 0
M  V30 37101 C 3330.26 -1.92932 -0.246487 0
M  V30 37102 O 3329.51 -1.55191 -1.19223 0
M  V30 37103 C 3329.81 -2.97785 1.97633 0
M  V30 37104 C 3329.48 -2.87663 3.47218 0
M  V30 37105 C 3328.14 -2.8461 3.88009 0
M  V30 37106 C 3330.49 -2.75469 4.42455 0
M  V30 37107 C 3327.82 -2.67207 5.22319 0
M  V30 37108 C 3330.17 -2.59604 5.76878 0
M  V30 37109 C 3328.83 -2.54928 6.16902 0
M  V30 37110 H 3328.1 -0.597467 0.438309 0
M  V30 37111 H 3330.75 -1.02349 1.61855 0
M  V30 37112 H 3329.06 -3.62687 1.48207 0
M  V30 37113 H 3330.75 -3.54955 1.8657 0
M  V30 37114 H 3327.34 -2.90852 3.14807 0
M  V30 37115 H 3331.53 -2.76891 4.1188 0
M  V30 37116 H 3326.78 -2.62004 5.52416 0
M  V30 37117 H 3330.96 -2.49143 6.50308 0
M  V30 37118 H 3328.58 -2.41201 7.2092 0
M  V30 37119 N 3330.16 -1.13492 -1.09349 0
M  V30 37120 C 3331.09 -0.835627 -2.18036 0
M  V30 37121 C 3332.07 0.205343 -1.68856 0
M  V30 37122 O 3333.26 0.0641016 -1.94094 0
M  V30 37123 C 3330.39 -0.301721 -3.45987 0
M  V30 37124 C 3329.34 -1.27703 -4.08505 0
M  V30 37125 C 3328.67 -0.602851 -5.31291 0
M  V30 37126 C 3329.97 -2.63583 -4.50912 0
M  V30 37127 H 3331.66 -1.74446 -2.43329 0
M  V30 37128 H 3329.21 -0.840186 -1.16948 0
M  V30 37129 H 3331.16 -0.0800021 -4.21324 0
M  V30 37130 H 3329.88 0.642496 -3.20218 0
M  V30 37131 H 3328.54 -1.48475 -3.35187 0
M  V30 37132 H 3328.19 0.346865 -5.01803 0
M  V30 37133 H 3327.89 -1.25355 -5.74073 0
M  V30 37134 H 3329.41 -0.390432 -6.0935 0
M  V30 37135 H 3330.83 -2.46774 -5.1747 0
M  V30 37136 H 3329.22 -3.24836 -5.04581 0
M  V30 37137 H 3330.29 -3.21186 -3.63273 0
M  V30 37138 N 3331.64 1.27341 -0.928546 0
M  V30 37139 C 3332.57 2.25933 -0.385602 0
M  V30 37140 C 3333.58 1.55434 0.484151 0
M  V30 37141 O 3334.77 1.76018 0.296637 0
M  V30 37142 C 3331.87 3.3568 0.466057 0
M  V30 37143 C 3331.04 4.35706 -0.3846 0
M  V30 37144 C 3330.1 5.24643 0.404552 0
M  V30 37145 O 3329.13 5.68889 -0.188043 0
M  V30 37146 N 3330.33 5.54922 1.70417 0
M  V30 37147 H 3333.1 2.73157 -1.23311 0
M  V30 37148 H 3330.66 1.40977 -0.796064 0
M  V30 37149 H 3332.65 3.92123 1.00108 0
M  V30 37150 H 3331.22 2.8805 1.21432 0
M  V30 37151 H 3330.44 3.78515 -1.10091 0
M  V30 37152 H 3331.73 4.99543 -0.966121 0
M  V30 37153 H 3331.13 5.20833 2.20793 0
M  V30 37154 H 3329.68 6.14061 2.18569 0
M  V30 37155 N 3333.12 0.694147 1.4149 0
M  V30 37156 C 3334.36 0.224069 2.00854 0
M  V30 37157 C 3334.68 -1.17996 1.55248 0
M  V30 37158 O 3333.95 -1.79594 0.782483 0
M  V30 37159 H 3332.53 0.0798498 0.74272 0
M  V30 37160 H 3335.2 0.894988 1.73136 0
M  V30 37161 H 3334.29 0.240386 3.11173 0
M  V30 37162 N 3334.59 -1.51368 0.438799 0
M  V30 37163 C 3335.82 -2.07003 -0.128185 0
M  V30 37164 C 3336.24 -1.30395 -1.35568 0
M  V30 37165 O 3335.6 -0.342314 -1.78039 0
M  V30 37166 C 3335.65 -3.58056 -0.427547 0
M  V30 37167 O 3334.75 -3.83614 -1.51375 0
M  V30 37168 H 3334.09 -0.663999 -0.00122511 0
M  V30 37169 H 3336.62 -1.94962 0.620554 0
M  V30 37170 H 3336.63 -4.02334 -0.677574 0
M  V30 37171 H 3335.31 -4.1324 0.469608 0
M  V30 37172 H 3333.89 -3.51198 -1.25357 0
M  V30 37173 N 3336.07 -0.170208 -1.56678 0
M  V30 37174 C 3337.3 0.484507 -2.01661 0
M  V30 37175 C 3337.72 1.5609 -1.04965 0
M  V30 37176 O 3337.08 1.81277 -0.0290205 0
M  V30 37177 C 3337.13 1.04078 -3.45254 0
M  V30 37178 O 3336.23 2.15482 -3.51627 0
M  V30 37179 H 3335.57 0.116123 -0.653767 0
M  V30 37180 H 3338.1 -0.273773 -2.0276 0
M  V30 37181 H 3338.11 1.36366 -3.84536 0
M  V30 37182 H 3336.79 0.252665 -4.15132 0
M  V30 37183 H 3335.36 1.84246 -3.24203 0
M  V30 37184 N 3337.55 1.5726 0.10352 0
M  V30 37185 C 3338.79 1.87481 0.814256 0
M  V30 37186 C 3339.15 0.760157 1.76311 0
M  V30 37187 O 3340.35 0.944558 2.51658 0
M  V30 37188 C 3338.63 3.22941 1.53114 0
M  V30 37189 S 3340.18 3.74835 2.28132 0
M  V30 37190 H 3337 0.657141 0.271453 0
M  V30 37191 H 3339.6 1.95368 0.0717957 0
M  V30 37192 H 3338.31 4.01995 0.826326 0
M  V30 37193 H 3337.84 3.18172 2.31366 0
M  V30 37194 H 3339.85 3.47576 3.54126 0
M  V30 37195 N 3339.03 -0.374123 1.53095 0
M  V30 37196 C 3340.28 -1.11492 1.68084 0
M  V30 37197 C 3340.59 -1.90708 0.434718 0
M  V30 37198 O 3341.8 -2.67488 0.465003 0
M  V30 37199 C 3340.25 -2.03119 2.97104 0
M  V30 37200 C 3339.86 -1.29255 4.28949 0
M  V30 37201 C 3341.6 -2.77243 3.2146 0
M  V30 37202 C 3339.51 -2.19734 5.49064 0
M  V30 37203 H 3338.44 -0.41992 0.626246 0
M  V30 37204 H 3341.09 -0.376556 1.79595 0
M  V30 37205 H 3339.47 -2.80651 2.79376 0
M  V30 37206 H 3340.65 -0.568448 4.5728 0
M  V30 37207 H 3338.96 -0.67029 4.1097 0
M  V30 37208 H 3341.56 -3.45148 4.08383 0
M  V30 37209 H 3341.9 -3.42142 2.37159 0
M  V30 37210 H 3342.44 -2.06797 3.39824 0
M  V30 37211 H 3339.17 -1.59426 6.35817 0
M  V30 37212 H 3338.69 -2.90018 5.25024 0
M  V30 37213 H 3340.37 -2.79485 5.83521 0
M  V30 37214 N 3340.51 -1.4431 -0.633436 0
M  V30 37215 C 3341.47 -1.50644 -1.7274 0
M  V30 37216 C 3342.47 -0.388746 -1.5603 0
M  V30 37217 O 3343.66 -0.651279 -1.61567 0
M  V30 37218 C 3340.79 -1.37814 -3.11801 0
M  V30 37219 H 3341.98 -2.48089 -1.68499 0
M  V30 37220 H 3339.54 -1.31368 -0.846889 0
M  V30 37221 H 3340.27 -0.414539 -3.2164 0
M  V30 37222 H 3340.06 -2.18858 -3.25336 0
M  V30 37223 H 3341.55 -1.45223 -3.91536 0
M  V30 37224 N 3341.98 0.873632 -1.3117 0
M  V30 37225 C 3343.23 1.62317 -1.20407 0
M  V30 37226 C 3343.55 1.93532 0.238795 0
M  V30 37227 O 3342.82 1.57973 1.15851 0
M  V30 37228 H 3341.4 0.601728 -0.442642 0
M  V30 37229 H 3344.07 1.0461 -1.64447 0
M  V30 37230 H 3343.16 2.56839 -1.77314 0
M  V30 37231 N 3343.46 1.1407 1.08746 0
M  V30 37232 C 3344.71 0.901383 1.80438 0
M  V30 37233 C 3345.02 -0.573758 1.86996 0
M  V30 37234 O 3346.23 -0.93023 2.55067 0
M  V30 37235 C 3344.69 1.56314 3.24182 0
M  V30 37236 C 3344.29 3.0743 3.2587 0
M  V30 37237 C 3346.04 1.4048 4.00582 0
M  V30 37238 C 3343.95 3.66458 4.6418 0
M  V30 37239 H 3342.88 0.333581 0.676195 0
M  V30 37240 H 3345.53 1.36922 1.22166 0
M  V30 37241 H 3343.91 1.02297 3.82559 0
M  V30 37242 H 3345.08 3.68085 2.77219 0
M  V30 37243 H 3343.4 3.22861 2.62963 0
M  V30 37244 H 3345.99 1.81985 5.02778 0
M  V30 37245 H 3346.34 0.350481 4.14822 0
M  V30 37246 H 3346.87 1.91514 3.48665 0
M  V30 37247 H 3343.61 4.71727 4.55142 0
M  V30 37248 H 3343.13 3.10583 5.13126 0
M  V30 37249 H 3344.81 3.66545 5.33154 0
M  V30 37250 N 3344.94 -1.26847 0.935286 0
M  V30 37251 C 3346.17 -1.97834 0.595419 0
M  V30 37252 C 3346.58 -1.69897 -0.832575 0
M  V30 37253 O 3345.92 -0.960399 -1.56595 0
M  V30 37254 C 3345.98 -3.51576 0.750628 0
M  V30 37255 C 3345.65 -4.03152 2.15215 0
M  V30 37256 C 3346.64 -4.15344 3.12707 0
M  V30 37257 C 3344.33 -4.3731 2.47114 0
M  V30 37258 C 3346.32 -4.60979 4.40201 0
M  V30 37259 C 3344.01 -4.82635 3.74843 0
M  V30 37260 C 3345.01 -4.94429 4.71199 0
M  V30 37261 O 3344.7 -5.38757 5.96654 0
M  V30 37262 H 3344.43 -0.637898 0.223745 0
M  V30 37263 H 3346.98 -1.62473 1.25666 0
M  V30 37264 H 3345.21 -3.86687 0.0322719 0
M  V30 37265 H 3346.9 -4.03776 0.414696 0
M  V30 37266 H 3347.67 -3.89206 2.89385 0
M  V30 37267 H 3343.55 -4.27367 1.72853 0
M  V30 37268 H 3347.09 -4.701 5.15414 0
M  V30 37269 H 3342.99 -5.08215 3.97979 0
M  V30 37270 H 3343.76 -5.56993 5.99751 0
M  V30 37271 N 3346.42 -0.701641 -1.4112 0
M  V30 37272 C 3347.37 -0.0288461 -2.32582 0
M  V30 37273 C 3348.36 0.762047 -1.51292 0
M  V30 37274 O 3349.57 0.666985 -1.67186 0
M  V30 37275 H 3345.94 0.00947353 -0.75194 0
M  V30 37276 H 3347.91 -0.817192 -2.86992 0
M  V30 37277 C 3346.66 0.889158 -3.36139 0
M  V30 37278 H 3345.98 0.289992 -3.98747 0
M  V30 37279 H 3347.42 1.32812 -4.02662 0
M  V30 37280 C 3345.88 2.00816 -2.70508 0
M  V30 37281 O 3346.41 3.09759 -2.55758 0
M  V30 37282 N 3344.62 1.78768 -2.29108 0
M  V30 37283 H 3344.17 0.901665 -2.41304 0
M  V30 37284 H 3344.12 2.53822 -1.85531 0
M  V30 37285 N 3347.9 1.51133 -0.446821 0
M  V30 37286 C 3348.81 2.31731 0.365749 0
M  V30 37287 C 3349.82 1.41052 1.01883 0
M  V30 37288 O 3351 1.7412 1.01213 0
M  V30 37289 C 3348.06 3.1506 1.447 0
M  V30 37290 C 3347.12 4.2153 0.813055 0
M  V30 37291 C 3346.36 5.00876 1.84278 0
M  V30 37292 O 3346.58 4.80976 3.06625 0
M  V30 37293 O 3345.51 5.84714 1.42805 0
M  V30 37294 H 3349.34 3.02288 -0.29249 0
M  V30 37295 H 3346.93 1.47929 -0.209155 0
M  V30 37296 H 3348.81 3.66836 2.07386 0
M  V30 37297 H 3347.48 2.47258 2.08915 0
M  V30 37298 H 3346.39 3.73808 0.147887 0
M  V30 37299 H 3347.72 4.91733 0.214245 0
M  V30 37300 N 3349.37 0.178515 1.56586 0
M  V30 37301 C 3350.6 -0.470649 2.01476 0
M  V30 37302 C 3351.02 -1.56322 1.05873 0
M  V30 37303 O 3350.37 -1.82399 0.0607811 0
M  V30 37304 C 3350.43 -1.04232 3.46147 0
M  V30 37305 O 3350.15 0.00663521 4.38099 0
M  V30 37306 C 3351.65 -1.76901 4.06474 0
M  V30 37307 H 3348.87 -0.119789 0.660221 0
M  V30 37308 H 3351.41 0.282357 2.02541 0
M  V30 37309 H 3349.57 -1.74579 3.45834 0
M  V30 37310 H 3349.98 -0.416462 5.22844 0
M  V30 37311 H 3351.45 -2.12152 5.09603 0
M  V30 37312 H 3351.93 -2.66666 3.48978 0
M  V30 37313 H 3352.54 -1.11179 4.10511 0
M  V30 37314 N 3350.85 -1.57312 -0.0951784 0
M  V30 37315 C 3352.08 -1.9029 -0.812237 0
M  V30 37316 C 3352.5 -0.772208 -1.72286 0
M  V30 37317 O 3351.85 0.25581 -1.80698 0
M  V30 37318 C 3351.9 -3.22884 -1.62566 0
M  V30 37319 O 3351.62 -4.31603 -0.751674 0
M  V30 37320 C 3353.13 -3.69724 -2.44579 0
M  V30 37321 H 3350.35 -0.629526 -0.232245 0
M  V30 37322 H 3352.89 -2.04372 -0.0724374 0
M  V30 37323 H 3351.04 -3.10401 -2.31797 0
M  V30 37324 H 3351.46 -5.07747 -1.31505 0
M  V30 37325 H 3352.93 -4.65197 -2.97146 0
M  V30 37326 H 3353.41 -2.97561 -3.23039 0
M  V30 37327 H 3354.02 -3.85075 -1.80547 0
M  V30 37328 N 3352.33 0.365999 -1.53291 0
M  V30 37329 C 3353.28 1.44833 -1.797 0
M  V30 37330 C 3354.25 1.53219 -0.641348 0
M  V30 37331 O 3355.43 1.69113 -0.883483 0
M  V30 37332 C 3352.57 2.81784 -1.99228 0
M  V30 37333 C 3351.69 2.82369 -3.26943 0
M  V30 37334 C 3350.82 4.10893 -3.36661 0
M  V30 37335 C 3349.86 4.05618 -4.58411 0
M  V30 37336 N 3349 5.2579 -4.65284 0
M  V30 37337 H 3353.84 1.21614 -2.72055 0
M  V30 37338 H 3351.37 0.589554 -1.34769 0
M  V30 37339 H 3353.33 3.61342 -2.08537 0
M  V30 37340 H 3351.96 3.03404 -1.10209 0
M  V30 37341 H 3351.01 1.95046 -3.2659 0
M  V30 37342 H 3352.33 2.74344 -4.16578 0
M  V30 37343 H 3351.48 4.98866 -3.45279 0
M  V30 37344 H 3350.22 4.2167 -2.45042 0
M  V30 37345 H 3349.22 3.16031 -4.49894 0
M  V30 37346 H 3350.45 3.96443 -5.51371 0
M  V30 37347 H 3348.39 5.37154 -3.76566 0
M  V30 37348 H 3348.31 5.19932 -5.48823 0
M  V30 37349 H 3349.58 6.15596 -4.78185 0
M  V30 37350 N 3353.81 1.44644 0.625774 0
M  V30 37351 C 3354.74 1.47914 1.75083 0
M  V30 37352 C 3355.75 0.371908 1.58495 0
M  V30 37353 O 3356.94 0.637955 1.6671 0
M  V30 37354 C 3354.04 1.30249 3.12871 0
M  V30 37355 C 3353.22 2.54316 3.55868 0
M  V30 37356 C 3352.27 2.31472 4.72554 0
M  V30 37357 O 3351.3 3.04989 4.80594 0
M  V30 37358 N 3352.5 1.34872 5.64615 0
M  V30 37359 H 3355.27 2.44905 1.72747 0
M  V30 37360 H 3352.83 1.40151 0.810506 0
M  V30 37361 H 3354.82 1.12805 3.88661 0
M  V30 37362 H 3353.39 0.41602 3.09819 0
M  V30 37363 H 3352.61 2.86999 2.70232 0
M  V30 37364 H 3353.9 3.36824 3.81349 0
M  V30 37365 H 3353.3 0.74164 5.60817 0
M  V30 37366 H 3351.85 1.23405 6.40011 0
M  V30 37367 N 3355.29 -0.866663 1.31631 0
M  V30 37368 C 3356.23 -1.97419 1.19559 0
M  V30 37369 C 3357.2 -1.65904 0.0805869 0
M  V30 37370 O 3358.39 -1.89101 0.25403 0
M  V30 37371 C 3355.53 -3.32823 0.912293 0
M  V30 37372 C 3354.64 -3.76912 2.11095 0
M  V30 37373 C 3353.78 -5.0105 1.76415 0
M  V30 37374 C 3352.82 -5.37597 2.9267 0
M  V30 37375 N 3351.95 -6.52914 2.58163 0
M  V30 37376 H 3356.79 -2.07076 2.14298 0
M  V30 37377 H 3354.33 -1.01368 1.06597 0
M  V30 37378 H 3356.29 -4.10789 0.728582 0
M  V30 37379 H 3354.92 -3.228 0.00173078 0
M  V30 37380 H 3353.97 -2.94701 2.40532 0
M  V30 37381 H 3355.28 -3.99926 2.98096 0
M  V30 37382 H 3354.44 -5.86691 1.54526 0
M  V30 37383 H 3353.17 -4.79948 0.866103 0
M  V30 37384 H 3352.18 -4.50474 3.15204 0
M  V30 37385 H 3353.4 -5.60663 3.83189 0
M  V30 37386 H 3351.35 -6.33352 1.70886 0
M  V30 37387 H 3351.27 -6.75886 3.38694 0
M  V30 37388 H 3352.54 -7.41739 2.39675 0
M  V30 37389 N 3356.77 -1.14645 -1.0814 0
M  V30 37390 C 3357.7 -0.858705 -2.17137 0
M  V30 37391 C 3358.68 0.187422 -1.69064 0
M  V30 37392 O 3359.86 0.0435117 -1.94151 0
M  V30 37393 C 3356.99 -0.338401 -3.45647 0
M  V30 37394 C 3355.95 -1.32029 -4.07127 0
M  V30 37395 C 3355.27 -0.659168 -5.30621 0
M  V30 37396 C 3356.57 -2.68351 -4.48091 0
M  V30 37397 H 3358.27 -1.77017 -2.41465 0
M  V30 37398 H 3355.81 -0.852543 -1.1605 0
M  V30 37399 H 3357.76 -0.124685 -4.21216 0
M  V30 37400 H 3356.49 0.608496 -3.20881 0
M  V30 37401 H 3355.15 -1.52022 -3.33594 0
M  V30 37402 H 3354.8 0.293623 -5.02142 0
M  V30 37403 H 3354.5 -1.31437 -5.72711 0
M  V30 37404 H 3356.02 -0.45504 -6.08902 0
M  V30 37405 H 3357.43 -2.52249 -5.14824 0
M  V30 37406 H 3355.83 -3.30169 -5.01107 0
M  V30 37407 H 3356.9 -3.25021 -3.59846 0
M  V30 37408 N 3358.24 1.26349 -0.942 0
M  V30 37409 C 3359.49 1.93332 -0.58884 0
M  V30 37410 C 3359.81 1.74264 0.875036 0
M  V30 37411 O 3359.08 1.09876 1.62185 0
M  V30 37412 H 3357.66 0.715455 -0.214786 0
M  V30 37413 H 3360.32 1.53772 -1.1975 0
M  V30 37414 H 3359.42 3.01478 -0.80732 0
M  V30 37415 N 3359.72 0.709115 1.40746 0
M  V30 37416 C 3360.97 0.242872 2.00232 0
M  V30 37417 C 3361.28 -1.16858 1.56855 0
M  V30 37418 O 3362.49 -1.733 2.08996 0
M  V30 37419 C 3360.95 0.383304 3.57853 0
M  V30 37420 C 3360.55 1.80098 4.10206 0
M  V30 37421 C 3362.3 -0.0224765 4.24494 0
M  V30 37422 C 3360.2 1.89234 5.60307 0
M  V30 37423 H 3359.13 0.0870472 0.748958 0
M  V30 37424 H 3361.79 0.879271 1.61062 0
M  V30 37425 H 3360.17 -0.321573 3.94692 0
M  V30 37426 H 3361.34 2.53571 3.84757 0
M  V30 37427 H 3359.66 2.15764 3.56139 0
M  V30 37428 H 3362.25 0.0251584 5.34694 0
M  V30 37429 H 3362.6 -1.06336 4.0249 0
M  V30 37430 H 3363.13 0.63261 3.92738 0
M  V30 37431 H 3359.87 2.91422 5.87157 0
M  V30 37432 H 3359.39 1.20164 5.8764 0
M  V30 37433 H 3361.07 1.66147 6.25303 0
M  V30 37434 N 3361.2 -1.50894 0.454829 0
M  V30 37435 C 3362.43 -2.06339 -0.103749 0
M  V30 37436 C 3362.84 -1.32056 -1.35491 0
M  V30 37437 O 3362.18 -0.378552 -1.79757 0
M  V30 37438 C 3362.24 -3.56361 -0.474013 0
M  V30 37439 C 3361.91 -4.5202 0.672815 0
M  V30 37440 C 3362.9 -4.96253 1.55012 0
M  V30 37441 C 3360.59 -4.94909 0.858522 0
M  V30 37442 C 3362.58 -5.82065 2.59768 0
M  V30 37443 C 3360.27 -5.80507 1.90933 0
M  V30 37444 C 3361.27 -6.23984 2.77728 0
M  V30 37445 O 3360.96 -7.07879 3.81002 0
M  V30 37446 H 3360.69 -0.675991 -0.00354122 0
M  V30 37447 H 3363.24 -1.95245 0.63785 0
M  V30 37448 H 3361.47 -3.653 -1.26857 0
M  V30 37449 H 3363.16 -3.94243 -0.965775 0
M  V30 37450 H 3363.93 -4.638 1.41826 0
M  V30 37451 H 3359.81 -4.60598 0.192464 0
M  V30 37452 H 3363.35 -6.15922 3.27546 0
M  V30 37453 H 3359.25 -6.12373 2.04132 0
M  V30 37454 H 3360.01 -7.26095 3.77793 0
M  V30 37455 N 3362.68 -0.186817 -1.56489 0
M  V30 37456 C 3363.59 0.749503 -2.22305 0
M  V30 37457 C 3364.6 1.24113 -1.21951 0
M  V30 37458 O 3365.78 1.29002 -1.54663 0
M  V30 37459 C 3362.84 1.95527 -2.86304 0
M  V30 37460 C 3361.91 1.50903 -4.01904 0
M  V30 37461 C 3361.14 2.65732 -4.62841 0
M  V30 37462 O 3361.36 3.83003 -4.22688 0
M  V30 37463 O 3360.3 2.38919 -5.5245 0
M  V30 37464 H 3364.12 0.219027 -3.02909 0
M  V30 37465 H 3361.71 0.0420986 -1.49341 0
M  V30 37466 H 3363.59 2.66015 -3.26824 0
M  V30 37467 H 3362.26 2.47451 -2.08685 0
M  V30 37468 H 3361.17 0.773196 -3.66023 0
M  V30 37469 H 3362.5 1.03654 -4.81162 0
M  V30 37470 N 3364.16 1.57361 0.0868344 0
M  V30 37471 C 3365.12 2.01675 1.08903 0
M  V30 37472 C 3366.12 0.911486 1.32471 0
M  V30 37473 O 3367.31 1.17676 1.28445 0
M  V30 37474 C 3364.44 2.38453 2.43625 0
M  V30 37475 H 3365.63 2.91437 0.707409 0
M  V30 37476 H 3363.19 1.52731 0.332127 0
M  V30 37477 H 3363.92 1.5167 2.86647 0
M  V30 37478 H 3363.71 3.19093 2.27864 0
M  V30 37479 H 3365.2 2.73366 3.15691 0
M  V30 37480 N 3365.63 -0.357865 1.53483 0
M  V30 37481 C 3366.57 -1.46148 1.7526 0
M  V30 37482 C 3367.54 -1.51078 0.601194 0
M  V30 37483 O 3368.73 -1.69012 0.834691 0
M  V30 37484 C 3365.86 -2.84469 1.83835 0
M  V30 37485 C 3364.9 -2.97229 3.05871 0
M  V30 37486 S 3365.73 -2.65182 4.6523 0
M  V30 37487 C 3366.89 -4.05638 4.76664 0
M  V30 37488 H 3367.12 -1.27457 2.68593 0
M  V30 37489 H 3364.66 -0.552672 1.4417 0
M  V30 37490 H 3366.61 -3.64163 1.89461 0
M  V30 37491 H 3365.28 -3.00465 0.915398 0
M  V30 37492 H 3364.47 -3.98549 3.08504 0
M  V30 37493 H 3364.07 -2.25466 2.98397 0
M  V30 37494 H 3366.36 -4.9998 4.57194 0
M  V30 37495 H 3367.31 -4.08006 5.78737 0
M  V30 37496 H 3367.71 -3.92997 4.05233 0
M  V30 37497 N 3367.11 -1.44974 -0.618094 0
M  V30 37498 C 3368.06 -1.52841 -1.7294 0
M  V30 37499 C 3369.03 -0.375084 -1.6181 0
M  V30 37500 O 3370.21 -0.587107 -1.81543 0
M  V30 37501 C 3367.35 -1.49106 -3.11226 0
M  V30 37502 C 3366.47 -2.74912 -3.33238 0
M  V30 37503 C 3365.6 -2.6292 -4.6157 0
M  V30 37504 C 3364.64 -3.83828 -4.76804 0
M  V30 37505 N 3363.78 -3.70434 -5.96425 0
M  V30 37506 H 3368.62 -2.47784 -1.65551 0
M  V30 37507 H 3366.15 -1.22962 -0.807389 0
M  V30 37508 H 3368.11 -1.4493 -3.91218 0
M  V30 37509 H 3366.74 -0.577219 -3.17597 0
M  V30 37510 H 3365.79 -2.8922 -2.47095 0
M  V30 37511 H 3367.11 -3.64622 -3.40371 0
M  V30 37512 H 3366.26 -2.5665 -5.49741 0
M  V30 37513 H 3365 -1.70792 -4.56817 0
M  V30 37514 H 3364 -3.90468 -3.87059 0
M  V30 37515 H 3365.23 -4.77009 -4.83362 0
M  V30 37516 H 3363.18 -2.81067 -5.92737 0
M  V30 37517 H 3363.09 -4.53771 -6.04672 0
M  V30 37518 H 3364.36 -3.68079 -6.87123 0
M  V30 37519 N 3368.59 0.85967 -1.32089 0
M  V30 37520 C 3369.84 1.60833 -1.21719 0
M  V30 37521 C 3370.15 1.94349 0.22087 0
M  V30 37522 O 3371.36 2.67805 0.446375 0
M  V30 37523 C 3369.81 2.89993 -2.13148 0
M  V30 37524 C 3369.42 2.63921 -3.62008 0
M  V30 37525 C 3371.17 3.68001 -2.11603 0
M  V30 37526 C 3369.07 3.89051 -4.45414 0
M  V30 37527 H 3368 0.603499 -0.452001 0
M  V30 37528 H 3370.65 0.94966 -1.57015 0
M  V30 37529 H 3369.04 3.57291 -1.70761 0
M  V30 37530 H 3370.21 2.04966 -4.12705 0
M  V30 37531 H 3368.52 1.99252 -3.65633 0
M  V30 37532 H 3371.12 4.60845 -2.71157 0
M  V30 37533 H 3371.46 4.01346 -1.10575 0
M  V30 37534 H 3372 3.076 -2.52244 0
M  V30 37535 H 3368.74 3.60849 -5.47237 0
M  V30 37536 H 3368.26 4.4742 -3.99469 0
M  V30 37537 H 3369.94 4.56838 -4.58157 0
M  V30 37538 N 3370.07 1.15217 1.0753 0
M  V30 37539 C 3371.32 0.924094 1.79736 0
M  V30 37540 C 3371.64 -0.550323 1.87073 0
M  V30 37541 O 3370.91 -1.39997 1.37031 0
M  V30 37542 H 3369.49 0.338903 0.665698 0
M  V30 37543 H 3372.15 1.45247 1.29958 0
M  V30 37544 H 3371.24 1.33189 2.82254 0
M  V30 37545 N 3371.55 -1.25848 0.948687 0
M  V30 37546 C 3372.48 -2.28469 0.482076 0
M  V30 37547 C 3373.46 -1.6352 -0.468524 0
M  V30 37548 O 3374.64 -1.90667 -0.368762 0
M  V30 37549 C 3371.77 -3.46424 -0.246542 0
M  V30 37550 C 3370.73 -4.23511 0.618225 0
M  V30 37551 C 3370.05 -5.34158 -0.24079 0
M  V30 37552 C 3371.35 -4.86775 1.89335 0
M  V30 37553 H 3373.05 -2.67751 1.33977 0
M  V30 37554 H 3370.59 -1.28713 0.645667 0
M  V30 37555 H 3372.55 -4.17333 -0.584062 0
M  V30 37556 H 3371.27 -3.06116 -1.13844 0
M  V30 37557 H 3369.93 -3.54377 0.938744 0
M  V30 37558 H 3369.58 -4.90091 -1.13226 0
M  V30 37559 H 3369.28 -5.86647 0.33447 0
M  V30 37560 H 3370.8 -6.07902 -0.57341 0
M  V30 37561 H 3372.21 -5.49858 1.62261 0
M  V30 37562 H 3370.61 -5.49415 2.41379 0
M  V30 37563 H 3371.68 -4.09294 2.60013 0
M  V30 37564 N 3373.02 -0.716569 -1.40368 0
M  V30 37565 C 3374.27 -0.256881 -2.01167 0
M  V30 37566 C 3374.6 1.14724 -1.56691 0
M  V30 37567 O 3373.88 1.77848 -0.787415 0
M  V30 37568 C 3374.16 -0.338026 -3.5851 0
M  V30 37569 C 3374.01 -1.7806 -4.13055 0
M  V30 37570 C 3375.33 0.290218 -4.39142 0
M  V30 37571 H 3372.45 -0.0948157 -0.730875 0
M  V30 37572 H 3375.09 -0.909255 -1.66831 0
M  V30 37573 H 3373.24 0.217414 -3.87891 0
M  V30 37574 H 3374.92 -2.3915 -3.94468 0
M  V30 37575 H 3373.16 -2.30799 -3.67307 0
M  V30 37576 H 3373.83 -1.78876 -5.22214 0
M  V30 37577 H 3376.31 -0.18306 -4.15697 0
M  V30 37578 H 3375.18 0.203 -5.48524 0
M  V30 37579 H 3375.44 1.37387 -4.20211 0
M  V30 37580 N 3374.5 1.50651 -0.462825 0
M  V30 37581 C 3375.92 1.59174 -0.116508 0
M  V30 37582 C 3376.12 1.47169 1.37635 0
M  V30 37583 O 3375.17 1.32594 2.14884 0
M  V30 37584 C 3376.49 2.93382 -0.659341 0
M  V30 37585 C 3378.04 3.06757 -0.622034 0
M  V30 37586 C 3378.51 4.43527 -1.14227 0
M  V30 37587 N 3380 4.49917 -1.10133 0
M  V30 37588 C 3380.74 5.54118 -1.47446 0
M  V30 37589 N 3380.23 6.65615 -1.92168 0
M  V30 37590 N 3382.03 5.44617 -1.39101 0
M  V30 37591 H 3374.18 1.56698 -1.43386 0
M  V30 37592 H 3376.44 0.740072 -0.592451 0
M  V30 37593 H 3376.15 3.07618 -1.70483 0
M  V30 37594 H 3376.02 3.77072 -0.0983051 0
M  V30 37595 H 3378.41 2.92174 0.414524 0
M  V30 37596 H 3378.49 2.24845 -1.21978 0
M  V30 37597 H 3378.13 4.58858 -2.17742 0
M  V30 37598 H 3378.06 5.24018 -0.520822 0
M  V30 37599 H 3380.55 3.69905 -0.773219 0
M  V30 37600 H 3380.87 7.41176 -2.18809 0
M  V30 37601 H 3379.21 6.66756 -1.96114 0
M  V30 37602 H 3382.4 4.56399 -1.04009 0
M  V30 37603 H 3382.57 6.25707 -1.68507 0
M  V30 37604 N 3375.98 0.195113 1.56388 0
M  V30 37605 C 3377.39 -0.317481 1.83981 0
M  V30 37606 C 3377.74 -1.61384 1.11578 0
M  V30 37607 O 3376.87 -2.13098 0.376594 0
M  V30 37608 C 3377.46 -0.582801 3.3375 0
M  V30 37609 C 3376.02 -1.03976 3.61754 0
M  V30 37610 C 3375.17 -0.0883853 2.77159 0
M  V30 37611 H 3378.12 0.418898 1.53072 0
M  V30 37612 H 3378.14 -1.4321 3.52521 0
M  V30 37613 H 3377.65 0.360881 3.86419 0
M  V30 37614 H 3375.75 -1.99772 3.14518 0
M  V30 37615 H 3375.87 -0.932466 4.69938 0
M  V30 37616 H 3374.23 -0.590274 2.47766 0
M  V30 37617 H 3375.01 0.849741 3.32617 0
M  V30 37618 N 3377.46 -1.57404 -0.0784879 0
M  V30 37619 C 3378.71 -1.86551 -0.777366 0
M  V30 37620 C 3379.03 -0.786173 -1.7845 0
M  V30 37621 O 3378.3 0.185876 -1.95016 0
M  V30 37622 H 3376.88 -0.688375 -0.290085 0
M  V30 37623 H 3379.54 -1.94819 -0.0561675 0
M  V30 37624 H 3378.64 -2.83841 -1.29771 0
M  V30 37625 N 3378.94 0.34972 -1.53671 0
M  V30 37626 C 3380.16 1.11086 -1.74549 0
M  V30 37627 C 3380.58 1.8255 -0.481773 0
M  V30 37628 O 3379.94 1.74133 0.546242 0
M  V30 37629 C 3379.99 2.12908 -2.92152 0
M  V30 37630 O 3379.71 1.44351 -4.13636 0
M  V30 37631 C 3381.21 3.01445 -3.25032 0
M  V30 37632 H 3378.43 0.331522 -0.583382 0
M  V30 37633 H 3380.97 0.403806 -2.00474 0
M  V30 37634 H 3379.13 2.79187 -2.68577 0
M  V30 37635 H 3379.54 2.12321 -4.79604 0
M  V30 37636 H 3381.02 3.68838 -4.10685 0
M  V30 37637 H 3381.49 3.67126 -2.4107 0
M  V30 37638 H 3382.1 2.40762 -3.50591 0
M  V30 37639 N 3380.41 1.45299 0.610397 0
M  V30 37640 C 3381.38 1.53373 1.70321 0
M  V30 37641 C 3382.38 0.41352 1.55392 0
M  V30 37642 O 3383.57 0.676901 1.60511 0
M  V30 37643 C 3380.7 1.42757 3.09569 0
M  V30 37644 H 3381.89 2.50738 1.6453 0
M  V30 37645 H 3379.45 1.32698 0.825883 0
M  V30 37646 H 3380.18 0.465657 3.20939 0
M  V30 37647 H 3379.97 2.24006 3.21813 0
M  V30 37648 H 3381.46 1.51433 3.89176 0
M  V30 37649 N 3381.89 -0.852653 1.32543 0
M  V30 37650 C 3382.82 -1.97692 1.24258 0
M  V30 37651 C 3383.8 -1.69633 0.126001 0
M  V30 37652 O 3384.99 -1.91653 0.313503 0
M  V30 37653 C 3382.12 -3.33568 0.966933 0
M  V30 37654 C 3381.07 -3.75986 2.04496 0
M  V30 37655 C 3380.4 -5.09515 1.62169 0
M  V30 37656 C 3381.7 -3.91238 3.4602 0
M  V30 37657 H 3383.39 -2.04882 2.18321 0
M  V30 37658 H 3380.94 -0.984352 1.05102 0
M  V30 37659 H 3382.89 -4.11775 0.895516 0
M  V30 37660 H 3381.62 -3.26599 -0.00933189 0
M  V30 37661 H 3380.27 -3.00032 2.10657 0
M  V30 37662 H 3379.92 -4.99003 0.632816 0
M  V30 37663 H 3379.62 -5.38867 2.343 0
M  V30 37664 H 3381.15 -5.90212 1.56467 0
M  V30 37665 H 3382.56 -4.59793 3.42438 0
M  V30 37666 H 3380.96 -4.3201 4.16518 0
M  V30 37667 H 3382.03 -2.94093 3.85535 0
M  V30 37668 N 3383.37 -1.15786 -1.06918 0
M  V30 37669 C 3384.28 -0.872791 -2.1776 0
M  V30 37670 C 3385.3 0.152577 -1.7333 0
M  V30 37671 O 3386.47 -0.0225544 -2.01387 0
M  V30 37672 C 3383.54 -0.370948 -3.4471 0
M  V30 37673 C 3382.6 -1.46076 -4.03683 0
M  V30 37674 C 3381.83 -0.982767 -5.24574 0
M  V30 37675 O 3382.05 0.16996 -5.70147 0
M  V30 37676 O 3380.99 -1.76838 -5.75336 0
M  V30 37677 H 3384.81 -1.79952 -2.44644 0
M  V30 37678 H 3382.4 -0.937323 -1.16338 0
M  V30 37679 H 3384.28 -0.097752 -4.21287 0
M  V30 37680 H 3382.96 0.527856 -3.19367 0
M  V30 37681 H 3381.86 -1.78762 -3.28626 0
M  V30 37682 H 3383.2 -2.33464 -4.33308 0
M  V30 37683 N 3384.85 1.25343 -0.955348 0
M  V30 37684 C 3385.78 2.28211 -0.494186 0
M  V30 37685 C 3386.76 1.63766 0.459846 0
M  V30 37686 O 3387.94 1.9086 0.358645 0
M  V30 37687 C 3385.07 3.4655 0.228167 0
M  V30 37688 C 3384.03 4.23178 -0.640676 0
M  V30 37689 C 3383.35 5.34278 0.212459 0
M  V30 37690 C 3384.65 4.85764 -1.91914 0
M  V30 37691 H 3386.35 2.67036 -1.35395 0
M  V30 37692 H 3383.89 1.28369 -0.652484 0
M  V30 37693 H 3385.85 4.17637 0.561921 0
M  V30 37694 H 3384.57 3.06716 1.12219 0
M  V30 37695 H 3383.23 3.53874 -0.957525 0
M  V30 37696 H 3382.88 4.90684 1.10626 0
M  V30 37697 H 3382.58 5.86462 -0.365576 0
M  V30 37698 H 3384.1 6.08197 0.541164 0
M  V30 37699 H 3385.52 5.4899 -1.65175 0
M  V30 37700 H 3383.91 5.48127 -2.44289 0
M  V30 37701 H 3384.98 4.07909 -2.6218 0
M  V30 37702 N 3386.33 0.724003 1.39986 0
M  V30 37703 C 3387.26 0.0917692 2.3332 0
M  V30 37704 C 3388.24 -0.736334 1.53337 0
M  V30 37705 O 3389.42 -0.68355 1.81772 0
M  V30 37706 C 3386.55 -0.82449 3.37371 0
M  V30 37707 C 3385.51 -0.101376 4.2788 0
M  V30 37708 C 3384.83 -1.13392 5.22538 0
M  V30 37709 C 3386.13 1.04948 5.11648 0
M  V30 37710 H 3387.83 0.871368 2.86439 0
M  V30 37711 H 3385.37 0.420472 1.37724 0
M  V30 37712 H 3387.33 -1.27624 4.01609 0
M  V30 37713 H 3386.05 -1.63608 2.82666 0
M  V30 37714 H 3384.71 0.330633 3.65106 0
M  V30 37715 H 3384.36 -1.93878 4.64134 0
M  V30 37716 H 3384.06 -0.654917 5.83939 0
M  V30 37717 H 3385.58 -1.58559 5.89654 0
M  V30 37718 H 3387 0.6767 5.69292 0
M  V30 37719 H 3385.39 1.4574 5.82134 0
M  V30 37720 H 3386.46 1.87628 4.47128 0
M  V30 37721 N 3387.81 -1.50403 0.470808 0
M  V30 37722 C 3388.72 -2.32284 -0.328836 0
M  V30 37723 C 3389.73 -1.42655 -0.996264 0
M  V30 37724 O 3390.91 -1.75709 -0.9843 0
M  V30 37725 C 3387.97 -3.17322 -1.39669 0
M  V30 37726 C 3387.03 -4.22771 -0.74589 0
M  V30 37727 C 3386.27 -5.03745 -1.76286 0
M  V30 37728 O 3386.49 -4.85793 -2.98934 0
M  V30 37729 O 3385.42 -5.86912 -1.33485 0
M  V30 37730 H 3389.25 -3.01785 0.340544 0
M  V30 37731 H 3386.83 -1.47577 0.232663 0
M  V30 37732 H 3388.72 -3.70089 -2.01524 0
M  V30 37733 H 3387.39 -2.5055 -2.04955 0
M  V30 37734 H 3386.3 -3.73996 -0.088399 0
M  V30 37735 H 3387.63 -4.92012 -0.135987 0
M  V30 37736 N 3389.28 -0.203404 -1.56282 0
M  V30 37737 C 3390.25 0.700451 -2.18235 0
M  V30 37738 C 3391.25 1.13495 -1.1391 0
M  V30 37739 O 3392.44 1.0467 -1.39248 0
M  V30 37740 C 3389.57 1.95731 -2.7911 0
M  V30 37741 H 3390.76 0.160597 -2.9947 0
M  V30 37742 H 3388.31 0.04622 -1.56232 0
M  V30 37743 H 3389.05 2.53947 -2.01696 0
M  V30 37744 H 3388.83 1.6544 -3.55489 0
M  V30 37745 H 3390.32 2.60166 -3.26655 0
M  V30 37746 N 3390.76 1.57444 0.0701393 0
M  V30 37747 C 3391.69 2.00532 1.10993 0
M  V30 37748 C 3392.71 0.911533 1.34889 0
M  V30 37749 O 3393.9 1.1894 1.331 0
M  V30 37750 C 3391 2.33052 2.46049 0
M  V30 37751 C 3390.17 3.64298 2.42086 0
M  V30 37752 C 3389.23 3.84469 3.59263 0
M  V30 37753 O 3388.25 4.56036 3.40617 0
M  V30 37754 N 3389.46 3.26949 4.79671 0
M  V30 37755 H 3392.22 2.90345 0.742978 0
M  V30 37756 H 3389.78 1.59819 0.258766 0
M  V30 37757 H 3391.77 2.43718 3.23085 0
M  V30 37758 H 3390.34 1.49121 2.74739 0
M  V30 37759 H 3389.56 3.64371 1.50424 0
M  V30 37760 H 3390.85 4.50473 2.3654 0
M  V30 37761 H 3390.25 2.68863 4.97724 0
M  V30 37762 H 3388.81 3.43061 5.54213 0
M  V30 37763 N 3392.24 -0.341566 1.53854 0
M  V30 37764 C 3393.2 -1.40248 1.81282 0
M  V30 37765 C 3394.2 -1.4553 0.683941 0
M  V30 37766 O 3395.39 -1.45871 0.952228 0
M  V30 37767 C 3392.52 -2.79157 1.95663 0
M  V30 37768 H 3393.72 -1.17191 2.76055 0
M  V30 37769 H 3391.27 -0.576064 1.45297 0
M  V30 37770 H 3392.01 -3.07495 1.03039 0
M  V30 37771 H 3391.79 -2.7672 2.77793 0
M  V30 37772 H 3393.28 -3.55941 2.18393 0
M  V30 37773 N 3393.72 -1.45621 -0.602683 0
M  V30 37774 C 3394.68 -1.54274 -1.69506 0
M  V30 37775 C 3395.68 -0.421755 -1.5517 0
M  V30 37776 O 3396.87 -0.685403 -1.6015 0
M  V30 37777 C 3394 -1.44397 -3.08808 0
M  V30 37778 H 3395.2 -2.51607 -1.63198 0
M  V30 37779 H 3392.75 -1.33135 -0.818834 0
M  V30 37780 H 3393.48 -0.482671 -3.20688 0
M  V30 37781 H 3393.27 -2.25709 -3.20621 0
M  V30 37782 H 3394.76 -1.53495 -3.88367 0
M  V30 37783 N 3395.2 0.845612 -1.32993 0
M  V30 37784 C 3396.42 1.63266 -1.2709 0
M  V30 37785 C 3396.84 1.88126 0.159448 0
M  V30 37786 O 3396.2 1.45665 1.09945 0
M  V30 37787 C 3396.25 2.98676 -2.03654 0
M  V30 37788 O 3395.97 2.74912 -3.41109 0
M  V30 37789 C 3397.47 3.93114 -2.04882 0
M  V30 37790 H 3394.69 0.508228 -0.438116 0
M  V30 37791 H 3397.23 1.05378 -1.75259 0
M  V30 37792 H 3395.39 3.53184 -1.59184 0
M  V30 37793 H 3395.8 3.61092 -3.80411 0
M  V30 37794 H 3397.28 4.85363 -2.6292 0
M  V30 37795 H 3397.75 4.26773 -1.03736 0
M  V30 37796 H 3398.36 3.44542 -2.4934 0
M  V30 37797 N 3396.67 1.16351 1.06302 0
M  V30 37798 C 3397.92 0.943105 1.78745 0
M  V30 37799 C 3398.24 -0.53045 1.87647 0
M  V30 37800 O 3397.51 -1.38536 1.38508 0
M  V30 37801 H 3396.09 0.345944 0.662066 0
M  V30 37802 H 3398.75 1.46618 1.28411 0
M  V30 37803 H 3397.85 1.36175 2.80825 0
M  V30 37804 N 3398.15 -1.24835 0.961982 0
M  V30 37805 C 3399.4 -1.92751 0.620749 0
M  V30 37806 C 3399.73 -1.75269 -0.843277 0
M  V30 37807 O 3398.98 -1.09587 -1.62139 0
M  V30 37808 C 3399.28 -3.44965 0.934541 0
M  V30 37809 C 3398.95 -3.82611 2.38578 0
M  V30 37810 C 3397.61 -3.92598 2.78245 0
M  V30 37811 C 3399.96 -4.01123 3.32791 0
M  V30 37812 C 3397.29 -4.1851 4.11176 0
M  V30 37813 C 3399.64 -4.2853 4.65343 0
M  V30 37814 C 3398.3 -4.36736 5.04795 0
M  V30 37815 H 3397.57 -0.705326 0.227148 0
M  V30 37816 H 3400.22 -1.48234 1.2124 0
M  V30 37817 H 3398.53 -3.90932 0.260584 0
M  V30 37818 H 3400.22 -3.95713 0.648993 0
M  V30 37819 H 3396.81 -3.75398 2.06819 0
M  V30 37820 H 3401 -3.92815 3.03332 0
M  V30 37821 H 3396.25 -4.23081 4.41376 0
M  V30 37822 H 3400.43 -4.41799 5.38318 0
M  V30 37823 H 3398.05 -4.56568 6.07824 0
M  V30 37824 N 3399.63 -0.731417 -1.396 0
M  V30 37825 C 3400.88 -0.274696 -1.99821 0
M  V30 37826 C 3401.19 1.14347 -1.58695 0
M  V30 37827 O 3402.4 1.69953 -2.11727 0
M  V30 37828 C 3400.85 -0.440186 -3.57198 0
M  V30 37829 C 3400.46 -1.86601 -4.07289 0
M  V30 37830 C 3402.21 -0.0450597 -4.24476 0
M  V30 37831 C 3400.11 -1.98124 -5.57226 0
M  V30 37832 H 3399.04 -0.0989514 -0.747479 0
M  V30 37833 H 3401.69 -0.904783 -1.59643 0
M  V30 37834 H 3400.08 0.25874 -3.95154 0
M  V30 37835 H 3401.25 -2.5966 -3.80675 0
M  V30 37836 H 3399.56 -2.21403 -3.52661 0
M  V30 37837 H 3402.16 -0.11022 -5.34586 0
M  V30 37838 H 3402.5 0.999198 -4.04131 0
M  V30 37839 H 3403.04 -0.695011 -3.91682 0
M  V30 37840 H 3399.78 -3.00726 -5.82446 0
M  V30 37841 H 3399.3 -1.29498 -5.85654 0
M  V30 37842 H 3400.98 -1.76074 -6.22581 0
M  V30 37843 N 3401.11 1.50152 -0.478778 0
M  V30 37844 C 3402.35 2.02666 0.0736584 0
M  V30 37845 C 3402.69 1.3595 1.38677 0
M  V30 37846 O 3401.96 0.487733 1.88285 0
M  V30 37847 C 3402.25 3.59235 0.249453 0
M  V30 37848 C 3402.1 4.36512 -1.08522 0
M  V30 37849 C 3403.42 4.28578 1.00045 0
M  V30 37850 H 3400.54 0.736566 0.0252953 0
M  V30 37851 H 3403.18 1.79396 -0.625866 0
M  V30 37852 H 3401.33 3.79193 0.845277 0
M  V30 37853 H 3403 4.28106 -1.71821 0
M  V30 37854 H 3401.24 3.99949 -1.67999 0
M  V30 37855 H 3401.91 5.44351 -0.915772 0
M  V30 37856 H 3404.39 4.13141 0.495349 0
M  V30 37857 H 3403.27 5.37923 1.09226 0
M  V30 37858 H 3403.53 3.92277 2.03889 0
M  V30 37859 N 3402.59 0.211689 1.56172 0
M  V30 37860 C 3403.86 -0.471161 1.89841 0
M  V30 37861 C 3404.24 -1.78459 1.12763 0
M  V30 37862 O 3403.59 -2.273 0.233857 0
M  V30 37863 C 3403.8 -0.673754 3.42435 0
M  V30 37864 C 3405.15 -0.985647 4.13001 0
M  V30 37865 O 3406.17 -0.760891 3.47978 0
M  V30 37866 O 3405.03 -1.41166 5.27953 0
M  V30 37867 H 3402.13 -0.247768 0.789012 0
M  V30 37868 H 3404.67 0.253139 1.67801 0
M  V30 37869 H 3403.44 0.253102 3.90481 0
M  V30 37870 H 3403.07 -1.44991 3.70221 0
M  V30 37871 N 3404.06 -1.57479 -0.0617887 0
M  V30 37872 C 3405.48 -1.76369 -0.61243 0
M  V30 37873 C 3405.83 -0.838497 -1.7738 0
M  V30 37874 O 3404.95 -0.0250591 -2.16385 0
M  V30 37875 C 3405.55 -3.19831 -1.11776 0
M  V30 37876 C 3404.11 -3.40031 -1.61418 0
M  V30 37877 C 3403.25 -2.72033 -0.537902 0
M  V30 37878 H 3406.2 -1.57846 0.16441 0
M  V30 37879 H 3406.22 -3.24541 -1.98628 0
M  V30 37880 H 3405.74 -3.87144 -0.272285 0
M  V30 37881 H 3403.84 -2.77847 -2.48258 0
M  V30 37882 H 3403.95 -4.4852 -1.68423 0
M  V30 37883 H 3402.31 -2.34869 -0.985314 0
M  V30 37884 H 3403.1 -3.42008 0.297555 0
M  V30 37885 N 3405.54 0.333401 -1.54033 0
M  V30 37886 C 3406.79 1.07408 -1.72021 0
M  V30 37887 C 3407.12 1.87987 -0.487298 0
M  V30 37888 O 3406.4 1.87538 0.515724 0
M  V30 37889 C 3406.68 2.00692 -2.98989 0
M  V30 37890 C 3406.53 1.23509 -4.32511 0
M  V30 37891 C 3407.85 3.00362 -3.21668 0
M  V30 37892 H 3404.97 0.389083 -0.625926 0
M  V30 37893 H 3407.61 0.351664 -1.86717 0
M  V30 37894 H 3405.76 2.62293 -2.86591 0
M  V30 37895 H 3407.43 0.644442 -4.56776 0
M  V30 37896 H 3405.68 0.537222 -4.30461 0
M  V30 37897 H 3406.35 1.91953 -5.1755 0
M  V30 37898 H 3408.82 2.4888 -3.33464 0
M  V30 37899 H 3407.7 3.62827 -4.11884 0
M  V30 37900 H 3407.96 3.72291 -2.38436 0
M  V30 37901 N 3407.02 1.45939 0.594952 0
M  V30 37902 C 3408.25 1.54396 1.38479 0
M  V30 37903 C 3408.67 0.181596 1.87221 0
M  V30 37904 O 3408.03 -0.836091 1.6087 0
M  V30 37905 C 3408.08 2.54292 2.55672 0
M  V30 37906 O 3407.18 2.06947 3.56716 0
M  V30 37907 H 3406.52 0.520002 0.412909 0
M  V30 37908 H 3409.05 1.91405 0.722865 0
M  V30 37909 H 3409.06 2.73507 3.02751 0
M  V30 37910 H 3407.74 3.53232 2.19546 0
M  V30 37911 H 3406.31 1.97666 3.162 0
M  V30 37912 N 3408.5 -0.838547 1.3344 0
M  V30 37913 C 3409.45 -1.96979 1.23702 0
M  V30 37914 C 3410.44 -1.68834 0.138329 0
M  V30 37915 O 3411.65 -1.77443 0.302309 0
M  V30 37916 H 3408.02 -0.646635 0.383885 0
M  V30 37917 H 3409.99 -2.02317 2.19341 0
M  V30 37918 C 3408.74 -3.33206 0.99342 0
M  V30 37919 H 3408.06 -3.55402 1.8311 0
M  V30 37920 H 3409.5 -4.12859 0.965589 0
M  V30 37921 C 3407.96 -3.35529 -0.303642 0
M  V30 37922 O 3408.49 -3.79731 -1.31023 0
M  V30 37923 N 3406.7 -2.88705 -0.331291 0
M  V30 37924 H 3406.25 -2.52928 0.488396 0
M  V30 37925 H 3406.2 -2.90642 -1.19895 0
M  V30 37926 N 3409.98 -1.16914 -1.05683 0
M  V30 37927 C 3410.91 -0.90457 -2.15267 0
M  V30 37928 C 3411.89 0.151519 -1.69424 0
M  V30 37929 O 3413.07 0.00231957 -1.942 0
M  V30 37930 C 3410.2 -0.411642 -3.44852 0
M  V30 37931 C 3409.16 -1.40635 -4.04235 0
M  V30 37932 C 3408.48 -0.771572 -5.29104 0
M  V30 37933 C 3409.78 -2.77795 -4.42298 0
M  V30 37934 H 3411.48 -1.82099 -2.37656 0
M  V30 37935 H 3409.02 -0.876967 -1.14216 0
M  V30 37936 H 3410.98 -0.214003 -4.20856 0
M  V30 37937 H 3409.7 0.540296 -3.221 0
M  V30 37938 H 3408.36 -1.59064 -3.30294 0
M  V30 37939 H 3408.01 0.187045 -5.02652 0
M  V30 37940 H 3407.71 -1.43555 -5.69794 0
M  V30 37941 H 3409.23 -0.584094 -6.078 0
M  V30 37942 H 3410.64 -2.63112 -5.09357 0
M  V30 37943 H 3409.04 -3.40724 -4.93991 0
M  V30 37944 H 3410.11 -3.32581 -3.52871 0
M  V30 37945 N 3411.45 1.24323 -0.968589 0
M  V30 37946 C 3412.87 1.44611 -0.675265 0
M  V30 37947 C 3413.07 1.86511 0.762608 0
M  V30 37948 O 3412.13 2.00377 1.5364 0
M  V30 37949 C 3413.44 2.5072 -1.66012 0
M  V30 37950 C 3414.99 2.64547 -1.67284 0
M  V30 37951 C 3415.46 3.73854 -2.64569 0
M  V30 37952 N 3416.95 3.81283 -2.63017 0
M  V30 37953 C 3417.69 4.65388 -3.34965 0
M  V30 37954 N 3417.18 5.53674 -4.16434 0
M  V30 37955 N 3418.98 4.59477 -3.23786 0
M  V30 37956 H 3411.13 0.954224 -1.89759 0
M  V30 37957 H 3413.39 0.480827 -0.817013 0
M  V30 37958 H 3413.1 2.26823 -2.68783 0
M  V30 37959 H 3412.97 3.48895 -1.43359 0
M  V30 37960 H 3415.36 2.87802 -0.652235 0
M  V30 37961 H 3415.44 1.66726 -1.94 0
M  V30 37962 H 3415.08 3.51349 -3.66765 0
M  V30 37963 H 3415.01 4.7119 -2.35133 0
M  V30 37964 H 3417.5 3.18183 -2.03883 0
M  V30 37965 H 3417.82 6.1481 -4.68218 0
M  V30 37966 H 3416.16 5.53336 -4.20528 0
M  V30 37967 H 3419.35 3.89519 -2.596 0
M  V30 37968 H 3419.53 5.24797 -3.80121 0
M  V30 37969 N 3412.93 0.73881 1.3921 0
M  V30 37970 C 3413.86 0.116511 2.33209 0
M  V30 37971 C 3414.84 -0.720029 1.54109 0
M  V30 37972 O 3416.03 -0.664232 1.82487 0
M  V30 37973 C 3413.16 -0.788661 3.38227 0
M  V30 37974 C 3412.11 -0.0559884 4.27963 0
M  V30 37975 C 3411.44 -1.07843 5.23712 0
M  V30 37976 C 3412.74 1.10369 5.10506 0
M  V30 37977 H 3414.43 0.9017 2.85499 0
M  V30 37978 H 3411.98 0.435056 1.37271 0
M  V30 37979 H 3413.93 -1.23357 4.0294 0
M  V30 37980 H 3412.66 -1.60601 2.84385 0
M  V30 37981 H 3411.31 0.369339 3.64735 0
M  V30 37982 H 3410.96 -1.88944 4.66164 0
M  V30 37983 H 3410.66 -0.592946 5.84601 0
M  V30 37984 H 3412.19 -1.52296 5.91302 0
M  V30 37985 H 3413.6 0.737043 5.68542 0
M  V30 37986 H 3412 1.51906 5.80556 0
M  V30 37987 H 3413.07 1.92359 4.45113 0
M  V30 37988 N 3414.41 -1.49895 0.486734 0
M  V30 37989 C 3415.82 -1.86666 0.0354234 0
M  V30 37990 C 3416.17 -1.40029 -1.37428 0
M  V30 37991 O 3415.3 -0.771975 -2.02162 0
M  V30 37992 C 3415.89 -3.38751 0.057507 0
M  V30 37993 C 3414.45 -3.74876 -0.338398 0
M  V30 37994 C 3413.6 -2.73847 0.436244 0
M  V30 37995 H 3416.55 -1.42416 0.70024 0
M  V30 37996 H 3416.57 -3.73213 -0.741109 0
M  V30 37997 H 3416.08 -3.72665 1.08363 0
M  V30 37998 H 3414.18 -3.46567 -1.36829 0
M  V30 37999 H 3414.3 -4.79091 -0.0288677 0
M  V30 38000 H 3412.66 -2.54453 -0.112097 0
M  V30 38001 H 3413.44 -3.10605 1.46217 0
M  V30 38002 N 3415.89 -0.219968 -1.56057 0
M  V30 38003 C 3417.14 0.412773 -1.98555 0
M  V30 38004 C 3417.47 1.59528 -1.10745 0
M  V30 38005 O 3416.74 1.93801 -0.164791 0
M  V30 38006 C 3417.03 0.848862 -3.49952 0
M  V30 38007 C 3416.88 -0.337172 -4.48534 0
M  V30 38008 C 3418.2 1.70559 -4.05706 0
M  V30 38009 H 3415.32 0.148563 -0.721871 0
M  V30 38010 H 3417.96 -0.315885 -1.87356 0
M  V30 38011 H 3416.11 1.46973 -3.59626 0
M  V30 38012 H 3417.78 -0.975295 -4.50872 0
M  V30 38013 H 3416.02 -0.984873 -4.22472 0
M  V30 38014 H 3416.7 0.0108695 -5.51999 0
M  V30 38015 H 3419.17 1.18175 -3.98966 0
M  V30 38016 H 3418.05 1.97963 -5.11959 0
M  V30 38017 H 3418.31 2.66838 -3.52491 0
M  V30 38018 N 3417.37 1.57509 0.0534363 0
M  V30 38019 C 3418.28 2.08315 1.07899 0
M  V30 38020 C 3419.29 1.01649 1.41221 0
M  V30 38021 O 3420.47 1.33236 1.5103 0
M  V30 38022 C 3417.53 2.53224 2.36809 0
M  V30 38023 C 3416.6 3.74268 2.10291 0
M  V30 38024 C 3415.83 4.17026 3.33055 0
M  V30 38025 O 3416.05 3.59498 4.42851 0
M  V30 38026 O 3414.99 5.09671 3.20186 0
M  V30 38027 H 3418.81 2.96051 0.677316 0
M  V30 38028 H 3416.4 1.46962 0.268812 0
M  V30 38029 H 3418.28 2.82549 3.1264 0
M  V30 38030 H 3416.95 1.68609 2.7632 0
M  V30 38031 H 3415.86 3.49999 1.32105 0
M  V30 38032 H 3417.19 4.59791 1.7565 0
M  V30 38033 N 3418.85 -0.325228 1.54208 0
M  V30 38034 C 3419.76 -1.42323 1.86497 0
M  V30 38035 C 3420.77 -1.56682 0.756746 0
M  V30 38036 O 3421.95 -1.7181 1.05087 0
M  V30 38037 C 3419.01 -2.7706 2.08419 0
M  V30 38038 C 3418.07 -2.71891 3.32225 0
M  V30 38039 C 3417.31 -4.00202 3.53092 0
M  V30 38040 O 3417.53 -4.98386 2.7743 0
M  V30 38041 O 3416.46 -4.03562 4.46566 0
M  V30 38042 H 3420.29 -1.17946 2.79861 0
M  V30 38043 H 3417.87 -0.519099 1.40092 0
M  V30 38044 H 3419.76 -3.56823 2.24177 0
M  V30 38045 H 3418.43 -3.01331 1.18243 0
M  V30 38046 H 3417.34 -1.90685 3.21854 0
M  V30 38047 H 3418.67 -2.52575 4.22453 0
M  V30 38048 N 3420.32 -1.46252 -0.587204 0
M  V30 38049 C 3421.29 -1.56063 -1.6786 0
M  V30 38050 C 3422.29 -0.438189 -1.54714 0
M  V30 38051 O 3423.48 -0.702351 -1.59414 0
M  V30 38052 C 3420.61 -1.47664 -3.07259 0
M  V30 38053 H 3421.8 -2.53324 -1.60521 0
M  V30 38054 H 3419.35 -1.33996 -0.804667 0
M  V30 38055 H 3420.09 -0.516657 -3.20158 0
M  V30 38056 H 3419.87 -2.29097 -3.18209 0
M  V30 38057 H 3421.36 -1.57606 -3.86717 0
M  V30 38058 N 3421.8 0.831459 -1.33883 0
M  V30 38059 C 3423.03 1.61674 -1.28628 0
M  V30 38060 C 3423.44 1.88655 0.143555 0
M  V30 38061 O 3422.78 1.47241 1.09844 0
M  V30 38062 C 3422.84 2.98713 -2.00027 0
M  V30 38063 C 3422.51 2.94667 -3.49314 0
M  V30 38064 C 3423.51 2.69856 -4.4438 0
M  V30 38065 C 3421.19 3.14569 -3.91601 0
M  V30 38066 C 3423.18 2.64985 -5.79708 0
M  V30 38067 C 3420.87 3.09324 -5.27031 0
M  V30 38068 C 3421.87 2.84564 -6.20897 0
M  V30 38069 O 3421.56 2.79235 -7.53846 0
M  V30 38070 H 3421.29 0.509532 -0.444244 0
M  V30 38071 H 3423.84 1.04322 -1.76935 0
M  V30 38072 H 3422.07 3.57948 -1.46322 0
M  V30 38073 H 3423.76 3.59646 -1.88175 0
M  V30 38074 H 3424.53 2.54224 -4.13032 0
M  V30 38075 H 3420.41 3.3286 -3.18944 0
M  V30 38076 H 3423.95 2.45579 -6.52945 0
M  V30 38077 H 3419.85 3.24507 -5.58002 0
M  V30 38078 H 3420.62 2.95023 -7.63481 0
M  V30 38079 N 3423.28 1.17472 1.05062 0
M  V30 38080 C 3424.23 0.892628 2.1284 0
M  V30 38081 C 3425.2 -0.163991 1.65288 0
M  V30 38082 O 3426.38 -0.0265035 1.90782 0
M  V30 38083 C 3423.52 0.4135 3.42614 0
M  V30 38084 C 3422.63 1.53439 4.03832 0
M  V30 38085 C 3421.77 1.009 5.21529 0
M  V30 38086 C 3420.81 2.10525 5.74757 0
M  V30 38087 N 3419.95 1.59454 6.83754 0
M  V30 38088 H 3424.79 1.81555 2.36309 0
M  V30 38089 H 3422.32 0.905503 1.15927 0
M  V30 38090 H 3424.28 0.117255 4.17035 0
M  V30 38091 H 3422.91 -0.472461 3.19324 0
M  V30 38092 H 3421.96 1.94633 3.26836 0
M  V30 38093 H 3423.27 2.36115 4.39376 0
M  V30 38094 H 3422.43 0.666681 6.03026 0
M  V30 38095 H 3421.17 0.151693 4.87464 0
M  V30 38096 H 3420.17 2.45613 4.91888 0
M  V30 38097 H 3421.4 2.96674 6.10869 0
M  V30 38098 H 3419.34 0.759964 6.51583 0
M  V30 38099 H 3419.26 2.35737 7.18307 0
M  V30 38100 H 3420.53 1.28118 7.68899 0
M  V30 38101 N 3424.76 -1.23807 0.975168 0
M  V30 38102 C 3426.17 -1.44251 0.682924 0
M  V30 38103 C 3426.37 -1.86913 -0.752706 0
M  V30 38104 O 3425.43 -2.01189 -1.52575 0
M  V30 38105 C 3426.74 -2.49836 1.67339 0
M  V30 38106 C 3428.29 -2.63656 1.68685 0
M  V30 38107 C 3428.77 -3.72446 2.66548 0
M  V30 38108 N 3430.26 -3.79882 2.65035 0
M  V30 38109 C 3430.99 -4.63605 3.37429 0
M  V30 38110 N 3430.49 -5.51458 4.19364 0
M  V30 38111 N 3432.28 -4.57754 3.26218 0
M  V30 38112 H 3424.43 -0.944147 1.90262 0
M  V30 38113 H 3426.69 -0.476487 0.819551 0
M  V30 38114 H 3426.4 -2.25394 2.69982 0
M  V30 38115 H 3426.27 -3.4813 1.45207 0
M  V30 38116 H 3428.66 -2.87452 0.667489 0
M  V30 38117 H 3428.74 -1.65695 1.94881 0
M  V30 38118 H 3428.39 -3.49399 3.68623 0
M  V30 38119 H 3428.32 -4.69937 2.37628 0
M  V30 38120 H 3430.81 -3.17097 2.05568 0
M  V30 38121 H 3431.12 -6.12319 4.71472 0
M  V30 38122 H 3429.47 -5.51098 4.23457 0
M  V30 38123 H 3432.66 -3.88137 2.61662 0
M  V30 38124 H 3432.83 -5.22774 3.82899 0
M  V30 38125 N 3426.24 -0.746182 -1.38816 0
M  V30 38126 C 3427.48 -0.29846 -1.99884 0
M  V30 38127 C 3427.8 1.12153 -1.5952 0
M  V30 38128 O 3427.07 1.76566 -0.848599 0
M  V30 38129 H 3425.65 -0.10736 -0.739245 0
M  V30 38130 H 3428.32 -0.95863 -1.69695 0
M  V30 38131 H 3427.41 -0.355711 -3.10066 0
M  V30 38132 N 3427.71 1.49635 -0.494676 0
M  V30 38133 C 3428.64 2.31856 0.276566 0
M  V30 38134 C 3429.62 1.39838 0.968474 0
M  V30 38135 O 3430.81 1.6875 0.9611 0
M  V30 38136 C 3427.94 3.20192 1.34516 0
M  V30 38137 C 3426.89 4.20953 0.773497 0
M  V30 38138 C 3426.22 4.98182 1.94214 0
M  V30 38139 C 3427.52 5.21788 -0.231188 0
M  V30 38140 H 3429.21 2.96583 -0.40972 0
M  V30 38141 H 3426.76 1.42625 -0.198486 0
M  V30 38142 H 3428.71 3.7652 1.89237 0
M  V30 38143 H 3427.44 2.53395 2.06054 0
M  V30 38144 H 3426.1 3.6576 0.24808 0
M  V30 38145 H 3425.74 4.27838 2.64506 0
M  V30 38146 H 3425.44 5.66355 1.56574 0
M  V30 38147 H 3426.97 5.57352 2.49381 0
M  V30 38148 H 3428.38 5.72848 0.227667 0
M  V30 38149 H 3426.78 5.97816 -0.52309 0
M  V30 38150 H 3427.85 4.71085 -1.14922 0
M  V30 38151 N 3429.19 0.228241 1.55939 0
M  V30 38152 C 3430.44 -0.402237 1.98771 0
M  V30 38153 C 3430.77 -1.58938 1.1159 0
M  V30 38154 O 3430.05 -1.93711 0.175067 0
M  V30 38155 C 3430.33 -0.830291 3.50397 0
M  V30 38156 C 3430.18 0.360954 4.48349 0
M  V30 38157 C 3431.5 -1.68405 4.06605 0
M  V30 38158 H 3428.62 -0.144733 0.722649 0
M  V30 38159 H 3431.26 0.325817 1.87186 0
M  V30 38160 H 3429.41 -1.45064 3.60401 0
M  V30 38161 H 3431.08 0.999193 4.50349 0
M  V30 38162 H 3429.33 1.00726 4.21944 0
M  V30 38163 H 3430 0.0184045 5.51997 0
M  V30 38164 H 3432.47 -1.16057 3.99587 0
M  V30 38165 H 3431.35 -1.95245 5.13001 0
M  V30 38166 H 3431.61 -2.64964 3.53901 0
M  V30 38167 N 3430.67 -1.57536 -0.0450825 0
M  V30 38168 C 3431.92 -1.88158 -0.737621 0
M  V30 38169 C 3432.24 -0.823848 -1.76742 0
M  V30 38170 O 3431.51 0.144469 -1.95367 0
M  V30 38171 H 3430.09 -0.694373 -0.275418 0
M  V30 38172 H 3432.75 -1.94894 -0.0148308 0
M  V30 38173 H 3431.85 -2.8653 -1.23721 0
M  V30 38174 N 3432.15 0.317045 -1.54378 0
M  V30 38175 C 3433.4 1.05177 -1.72107 0
M  V30 38176 C 3433.71 1.88963 -0.505199 0
M  V30 38177 O 3434.92 2.65578 -0.563959 0
M  V30 38178 C 3433.37 1.91952 -3.04438 0
M  V30 38179 C 3432.98 1.13246 -4.33451 0
M  V30 38180 C 3434.72 2.65121 -3.31529 0
M  V30 38181 C 3432.63 1.99204 -5.56841 0
M  V30 38182 H 3431.56 0.396388 -0.641399 0
M  V30 38183 H 3434.21 0.309642 -1.80869 0
M  V30 38184 H 3432.59 2.70089 -2.89599 0
M  V30 38185 H 3433.77 0.398339 -4.59075 0
M  V30 38186 H 3432.08 0.5173 -4.13174 0
M  V30 38187 H 3434.68 3.29753 -4.20912 0
M  V30 38188 H 3435.02 3.33104 -2.49694 0
M  V30 38189 H 3435.56 1.94042 -3.47264 0
M  V30 38190 H 3432.3 1.35718 -6.41296 0
M  V30 38191 H 3431.82 2.70332 -5.35426 0
M  V30 38192 H 3433.49 2.57635 -5.93492 0
M  V30 38193 N 3433.63 1.46561 0.57944 0
M  V30 38194 C 3434.54 1.59964 1.71606 0
M  V30 38195 C 3435.55 0.483031 1.67161 0
M  V30 38196 O 3436.73 0.747594 1.87011 0
M  V30 38197 C 3433.79 1.5896 3.08111 0
M  V30 38198 C 3432.85 2.81878 3.23796 0
M  V30 38199 C 3432.09 2.80912 4.53789 0
M  V30 38200 O 3432.31 1.89844 5.3788 0
M  V30 38201 O 3431.24 3.72496 4.7279 0
M  V30 38202 H 3435.07 2.56095 1.63246 0
M  V30 38203 H 3432.66 1.29392 0.746868 0
M  V30 38204 H 3434.54 1.61107 3.89387 0
M  V30 38205 H 3433.21 0.659896 3.16902 0
M  V30 38206 H 3432.12 2.85283 2.42001 0
M  V30 38207 H 3433.45 3.74068 3.19897 0
M  V30 38208 N 3435.1 -0.824347 1.34322 0
M  V30 38209 C 3436.35 -1.58048 1.26598 0
M  V30 38210 C 3436.68 -1.93804 -0.164436 0
M  V30 38211 O 3435.93 -1.60108 -1.12534 0
M  V30 38212 C 3436.23 -2.89135 2.10085 0
M  V30 38213 C 3435.9 -2.72678 3.59107 0
M  V30 38214 C 3434.56 -2.67897 3.99731 0
M  V30 38215 C 3436.91 -2.56455 4.5374 0
M  V30 38216 C 3434.24 -2.44813 5.33182 0
M  V30 38217 C 3436.59 -2.34903 5.8737 0
M  V30 38218 C 3435.26 -2.28533 6.27159 0
M  V30 38219 H 3434.53 -0.578339 0.463255 0
M  V30 38220 H 3437.17 -0.953918 1.6605 0
M  V30 38221 H 3435.48 -3.56075 1.63457 0
M  V30 38222 H 3437.18 -3.46722 2.01457 0
M  V30 38223 H 3433.77 -2.77238 3.26859 0
M  V30 38224 H 3437.95 -2.59173 4.23253 0
M  V30 38225 H 3433.21 -2.38338 5.63032 0
M  V30 38226 H 3437.38 -2.21337 6.6029 0
M  V30 38227 H 3435.01 -2.10407 7.30502 0
M  V30 38228 N 3436.58 -1.18028 -1.04437 0
M  V30 38229 C 3437.53 -0.903903 -2.12363 0
M  V30 38230 C 3438.5 0.155223 -1.65373 0
M  V30 38231 O 3439.68 0.0163855 -1.90793 0
M  V30 38232 C 3436.82 -0.431664 -3.4239 0
M  V30 38233 C 3435.94 -1.55578 -4.03013 0
M  V30 38234 C 3435.07 -1.03665 -5.20987 0
M  V30 38235 C 3434.11 -2.1357 -5.73632 0
M  V30 38236 N 3433.25 -1.63078 -6.82898 0
M  V30 38237 H 3438.09 -1.82806 -2.35342 0
M  V30 38238 H 3435.63 -0.911638 -1.15445 0
M  V30 38239 H 3437.58 -0.139369 -4.16967 0
M  V30 38240 H 3436.21 0.45552 -3.1957 0
M  V30 38241 H 3435.27 -1.96364 -3.258 0
M  V30 38242 H 3436.58 -2.38442 -4.38117 0
M  V30 38243 H 3435.73 -0.698652 -6.02664 0
M  V30 38244 H 3434.47 -0.177543 -4.87377 0
M  V30 38245 H 3433.48 -2.48218 -4.90579 0
M  V30 38246 H 3434.7 -2.99909 -6.09287 0
M  V30 38247 H 3432.65 -0.794508 -6.51171 0
M  V30 38248 H 3432.56 -2.39543 -7.17046 0
M  V30 38249 H 3433.83 -1.32194 -7.68209 0
M  V30 38250 N 3438.06 1.23288 -0.98172 0
M  V30 38251 C 3438.97 2.28504 -0.531336 0
M  V30 38252 C 3439.99 1.68991 0.414501 0
M  V30 38253 O 3441.16 1.99386 0.284094 0
M  V30 38254 C 3438.23 3.46341 0.157803 0
M  V30 38255 C 3437.29 4.21208 -0.829601 0
M  V30 38256 C 3436.52 5.33419 -0.173254 0
M  V30 38257 O 3436.74 5.60924 1.03539 0
M  V30 38258 O 3435.68 5.95543 -0.87249 0
M  V30 38259 H 3439.5 2.69174 -1.40638 0
M  V30 38260 H 3437.09 1.29244 -0.749418 0
M  V30 38261 H 3438.97 4.1787 0.544321 0
M  V30 38262 H 3437.65 3.07619 1.00759 0
M  V30 38263 H 3436.55 3.51997 -1.26684 0
M  V30 38264 H 3437.89 4.63782 -1.64824 0
M  V30 38265 N 3439.54 0.753533 1.38418 0
M  V30 38266 C 3440.49 0.125781 2.30457 0
M  V30 38267 C 3441.46 -0.709702 1.50175 0
M  V30 38268 O 3442.64 -0.665841 1.78805 0
M  V30 38269 C 3439.78 -0.761444 3.36595 0
M  V30 38270 C 3438.89 0.0886608 4.31909 0
M  V30 38271 C 3438.03 -0.801563 5.25118 0
M  V30 38272 C 3437.07 0.0521795 6.12078 0
M  V30 38273 N 3436.2 -0.795001 6.97585 0
M  V30 38274 H 3441.04 0.916237 2.83565 0
M  V30 38275 H 3438.58 0.46346 1.39608 0
M  V30 38276 H 3440.54 -1.29047 3.9674 0
M  V30 38277 H 3439.17 -1.51769 2.84897 0
M  V30 38278 H 3438.22 0.735314 3.73226 0
M  V30 38279 H 3439.53 0.747985 4.9316 0
M  V30 38280 H 3438.69 -1.39776 5.90379 0
M  V30 38281 H 3437.43 -1.49462 4.64233 0
M  V30 38282 H 3436.43 0.661042 5.45812 0
M  V30 38283 H 3437.66 0.742297 6.75031 0
M  V30 38284 H 3435.6 -1.47301 6.39248 0
M  V30 38285 H 3435.52 -0.192572 7.55755 0
M  V30 38286 H 3436.79 -1.37617 7.67256 0
M  V30 38287 N 3441.02 -1.49371 0.502605 0
M  V30 38288 C 3441.95 -2.32 -0.264266 0
M  V30 38289 C 3442.93 -1.40349 -0.961045 0
M  V30 38290 O 3444.11 -1.69257 -0.952137 0
M  V30 38291 C 3441.24 -3.20901 -1.32816 0
M  V30 38292 C 3440.2 -4.21357 -0.751162 0
M  V30 38293 C 3439.52 -4.99205 -1.91569 0
M  V30 38294 C 3440.82 -5.21658 0.258856 0
M  V30 38295 H 3442.52 -2.96362 0.425443 0
M  V30 38296 H 3440.06 -1.42518 0.206047 0
M  V30 38297 H 3442.02 -3.77518 -1.87238 0
M  V30 38298 H 3440.74 -2.54484 -2.04708 0
M  V30 38299 H 3439.4 -3.65886 -0.228679 0
M  V30 38300 H 3439.05 -4.29235 -2.62233 0
M  V30 38301 H 3438.75 -5.67178 -1.53568 0
M  V30 38302 H 3440.27 -5.58667 -2.46422 0
M  V30 38303 H 3441.68 -5.7296 -0.197285 0
M  V30 38304 H 3440.08 -5.9753 0.554786 0
M  V30 38305 H 3441.15 -4.70469 1.17418 0
M  V30 38306 N 3442.49 -0.236508 -1.55815 0
M  V30 38307 C 3443.42 0.661795 -2.23925 0
M  V30 38308 C 3444.41 1.18944 -1.21599 0
M  V30 38309 O 3445.59 1.2307 -1.50225 0
M  V30 38310 C 3442.72 1.86349 -2.93072 0
M  V30 38311 C 3441.67 1.46906 -4.01998 0
M  V30 38312 C 3441 2.75075 -4.58517 0
M  V30 38313 C 3442.3 0.647873 -5.18266 0
M  V30 38314 H 3443.99 0.0938842 -2.99253 0
M  V30 38315 H 3441.54 0.0437154 -1.43934 0
M  V30 38316 H 3443.49 2.49749 -3.39416 0
M  V30 38317 H 3442.22 2.45662 -2.15216 0
M  V30 38318 H 3440.88 0.85846 -3.56407 0
M  V30 38319 H 3440.52 3.32563 -3.77374 0
M  V30 38320 H 3440.22 2.49411 -5.32041 0
M  V30 38321 H 3441.75 3.39391 -5.07589 0
M  V30 38322 H 3443.16 1.18592 -5.609 0
M  V30 38323 H 3441.56 0.487718 -5.98115 0
M  V30 38324 H 3442.63 -0.342236 -4.83691 0
M  V30 38325 N 3443.97 1.57557 0.0367273 0
M  V30 38326 C 3445.2 1.93566 0.744779 0
M  V30 38327 C 3445.62 0.835892 1.68507 0
M  V30 38328 O 3444.98 -0.208954 1.80092 0
M  V30 38329 C 3445.03 3.28624 1.48455 0
M  V30 38330 O 3444.13 3.20332 2.59733 0
M  V30 38331 H 3443.47 0.632893 0.200855 0
M  V30 38332 H 3446 2.04599 -0.0055114 0
M  V30 38333 H 3446.01 3.63333 1.85616 0
M  V30 38334 H 3444.69 4.08233 0.794881 0
M  V30 38335 H 3443.27 2.97241 2.25171 0
M  V30 38336 N 3445.45 -0.308854 1.54544 0
M  V30 38337 C 3446.41 -1.36371 1.84216 0
M  V30 38338 C 3447.41 -1.44046 0.714656 0
M  V30 38339 O 3448.6 -1.43818 0.982955 0
M  V30 38340 C 3445.74 -2.74944 2.0154 0
M  V30 38341 H 3446.93 -1.11309 2.78479 0
M  V30 38342 H 3444.48 -0.545115 1.46486 0
M  V30 38343 H 3445.22 -3.0524 1.09539 0
M  V30 38344 H 3445 -2.70765 2.836 0
M  V30 38345 H 3446.49 -3.51229 2.25894 0
M  V30 38346 N 3446.93 -1.46867 -0.571659 0
M  V30 38347 C 3447.84 -1.60872 -1.70756 0
M  V30 38348 C 3448.86 -0.49189 -1.66903 0
M  V30 38349 O 3450.03 -0.757501 -1.86612 0
M  V30 38350 C 3447.1 -1.60592 -3.07264 0
M  V30 38351 C 3446.16 -2.83591 -3.22296 0
M  V30 38352 C 3445.39 -2.83314 -4.52293 0
M  V30 38353 O 3445.61 -1.92694 -5.36866 0
M  V30 38354 O 3444.55 -3.74998 -4.70808 0
M  V30 38355 H 3448.37 -2.56957 -1.61885 0
M  V30 38356 H 3445.96 -1.29786 -0.739996 0
M  V30 38357 H 3447.84 -1.6317 -3.88527 0
M  V30 38358 H 3446.52 -0.676693 -3.16548 0
M  V30 38359 H 3445.42 -2.86562 -2.40485 0
M  V30 38360 H 3446.76 -3.75759 -3.17909 0
M  V30 38361 N 3448.41 0.817212 -1.34757 0
M  V30 38362 C 3449.82 1.11119 -1.14563 0
M  V30 38363 C 3450.02 2.0144 0.0490422 0
M  V30 38364 O 3449.08 2.41932 0.722854 0
M  V30 38365 C 3450.39 1.7524 -2.44359 0
M  V30 38366 C 3451.94 1.87709 -2.50468 0
M  V30 38367 C 3452.42 2.55246 -3.80281 0
M  V30 38368 N 3453.91 2.6274 -3.81473 0
M  V30 38369 C 3454.64 3.1574 -4.78639 0
M  V30 38370 N 3454.14 3.69259 -5.8619 0
M  V30 38371 N 3455.93 3.14194 -4.66088 0
M  V30 38372 H 3448.08 0.216563 -2.11293 0
M  V30 38373 H 3450.34 0.158644 -0.934631 0
M  V30 38374 H 3450.05 1.16338 -3.31901 0
M  V30 38375 H 3449.92 2.7505 -2.58122 0
M  V30 38376 H 3452.31 2.45758 -1.63362 0
M  V30 38377 H 3452.39 0.867844 -2.40629 0
M  V30 38378 H 3452.04 1.9785 -4.6778 0
M  V30 38379 H 3451.97 3.56686 -3.87405 0
M  V30 38380 H 3454.46 2.24812 -3.03757 0
M  V30 38381 H 3454.77 4.07968 -6.5634 0
M  V30 38382 H 3453.12 3.67487 -5.89897 0
M  V30 38383 H 3456.31 2.71654 -3.81211 0
M  V30 38384 H 3456.48 3.55194 -5.41979 0
M  V30 38385 N 3449.89 1.1858 1.0381 0
M  V30 38386 C 3450.85 0.917217 2.10047 0
M  V30 38387 C 3451.85 -0.098484 1.60498 0
M  V30 38388 O 3453.04 0.135244 1.73674 0
M  V30 38389 C 3450.17 0.376658 3.38813 0
M  V30 38390 H 3451.36 1.85932 2.35307 0
M  V30 38391 H 3448.92 0.998177 1.20275 0
M  V30 38392 H 3449.65 -0.571927 3.19217 0
M  V30 38393 H 3449.44 1.10887 3.76094 0
M  V30 38394 H 3450.93 0.207526 4.17084 0
M  V30 38395 N 3451.36 -1.22766 0.988245 0
M  V30 38396 C 3452.61 -1.91675 0.662474 0
M  V30 38397 C 3452.94 -1.76825 -0.802899 0
M  V30 38398 O 3452.22 -1.13417 -1.58009 0
M  V30 38399 C 3452.5 -3.44041 1.06338 0
M  V30 38400 C 3452.35 -3.67962 2.58697 0
M  V30 38401 C 3453.67 -4.35808 0.613134 0
M  V30 38402 H 3450.79 -0.696086 0.242144 0
M  V30 38403 H 3453.43 -1.44734 1.23093 0
M  V30 38404 H 3451.58 -3.84151 0.57969 0
M  V30 38405 H 3453.26 -3.37285 3.147 0
M  V30 38406 H 3451.5 -3.12403 3.00977 0
M  V30 38407 H 3452.17 -4.74651 2.81799 0
M  V30 38408 H 3454.65 -4.03188 1.02853 0
M  V30 38409 H 3453.52 -5.41101 0.921996 0
M  V30 38410 H 3453.78 -4.39417 -0.486333 0
M  V30 38411 N 3452.84 -0.760864 -1.38017 0
M  V30 38412 C 3454.07 -0.331321 -2.0423 0
M  V30 38413 C 3454.48 1.04282 -1.57387 0
M  V30 38414 O 3453.84 1.66368 -0.750198 0
M  V30 38415 C 3453.89 -0.353085 -3.59772 0
M  V30 38416 O 3453.61 -1.67301 -4.04898 0
M  V30 38417 C 3455.11 0.0894163 -4.4321 0
M  V30 38418 H 3452.33 -0.14042 -0.656143 0
M  V30 38419 H 3454.88 -1.03175 -1.76565 0
M  V30 38420 H 3453.03 0.298668 -3.86247 0
M  V30 38421 H 3453.45 -1.60417 -4.99366 0
M  V30 38422 H 3454.92 0.0230292 -5.51995 0
M  V30 38423 H 3455.4 1.13831 -4.24192 0
M  V30 38424 H 3456 -0.533736 -4.21938 0
M  V30 38425 N 3454.32 1.49102 -0.510519 0
M  V30 38426 C 3455.57 2.02077 0.0305475 0
M  V30 38427 C 3455.89 1.3916 1.366 0
M  V30 38428 O 3455.16 0.550187 1.88015 0
M  V30 38429 H 3453.74 0.746864 0.0142785 0
M  V30 38430 H 3456.4 1.83025 -0.669927 0
M  V30 38431 H 3455.5 3.11724 0.153228 0
M  V30 38432 N 3455.8 0.244768 1.55688 0
M  V30 38433 C 3457.03 -0.384215 2.02996 0
M  V30 38434 C 3457.44 -1.52237 1.12341 0
M  V30 38435 O 3456.78 -1.83241 0.129836 0
M  V30 38436 C 3456.84 -0.95564 3.46566 0
M  V30 38437 C 3456.5 0.0499979 4.56973 0
M  V30 38438 C 3457.5 0.858772 5.12758 0
M  V30 38439 C 3455.19 0.175471 5.01993 0
M  V30 38440 C 3457.18 1.7795 6.12056 0
M  V30 38441 C 3454.87 1.0997 6.01124 0
M  V30 38442 C 3455.87 1.90024 6.56033 0
M  V30 38443 O 3455.55 2.8089 7.5323 0
M  V30 38444 H 3455.29 -0.0957094 0.66919 0
M  V30 38445 H 3457.84 0.365586 2.0212 0
M  V30 38446 H 3456.07 -1.75496 3.44584 0
M  V30 38447 H 3457.76 -1.49447 3.77386 0
M  V30 38448 H 3458.52 0.772409 4.7881 0
M  V30 38449 H 3454.4 -0.437564 4.58919 0
M  V30 38450 H 3457.95 2.40477 6.54841 0
M  V30 38451 H 3453.84 1.187 6.34492 0
M  V30 38452 H 3454.61 2.75227 7.70839 0
M  V30 38453 N 3457.28 -1.57574 -0.0283712 0
M  V30 38454 C 3458.22 -2.07694 -1.04719 0
M  V30 38455 C 3459.22 -0.990871 -1.37398 0
M  V30 38456 O 3460.42 -1.17575 -1.36295 0
M  V30 38457 H 3456.8 -0.662804 -0.355239 0
M  V30 38458 H 3458.77 -2.92333 -0.598686 0
M  V30 38459 C 3457.52 -2.57233 -2.33937 0
M  V30 38460 H 3456.84 -3.4042 -2.09653 0
M  V30 38461 H 3458.28 -2.9601 -3.03568 0
M  V30 38462 C 3456.74 -1.47387 -3.0295 0
M  V30 38463 O 3457.27 -0.8405 -3.92808 0
M  V30 38464 N 3455.48 -1.20824 -2.64291 0
M  V30 38465 H 3455.02 -1.72513 -1.91304 0
M  V30 38466 H 3454.98 -0.475408 -3.10785 0
M  V30 38467 N 3458.75 0.300654 -1.54706 0
M  V30 38468 C 3460.03 1.05543 -1.64681 0
M  V30 38469 C 3460.41 2.05207 -0.495328 0
M  V30 38470 O 3459.76 2.22784 0.507905 0
M  V30 38471 C 3459.97 1.73698 -3.02705 0
M  V30 38472 C 3461.32 2.25882 -3.59531 0
M  V30 38473 O 3462.34 1.8373 -3.05159 0
M  V30 38474 O 3461.2 3.03118 -4.54732 0
M  V30 38475 H 3458.29 0.487855 -0.667777 0
M  V30 38476 H 3460.84 0.298714 -1.6705 0
M  V30 38477 H 3459.61 1.01332 -3.77952 0
M  V30 38478 H 3459.23 2.56125 -3.04115 0
M  V30 38479 N 3460.23 1.47168 0.563863 0
M  V30 38480 C 3461.64 1.4739 1.146 0
M  V30 38481 C 3461.99 0.22495 1.94906 0
M  V30 38482 O 3461.12 -0.670636 2.05746 0
M  V30 38483 C 3461.71 2.67048 2.08497 0
M  V30 38484 C 3460.27 2.7025 2.61996 0
M  V30 38485 C 3459.42 2.40385 1.3824 0
M  V30 38486 H 3462.37 1.54774 0.350805 0
M  V30 38487 H 3462.39 2.43639 2.92267 0
M  V30 38488 H 3461.9 3.57932 1.50021 0
M  V30 38489 H 3460.01 1.83488 3.24288 0
M  V30 38490 H 3460.12 3.70754 3.03444 0
M  V30 38491 H 3458.48 1.9083 1.68689 0
M  V30 38492 H 3459.27 3.33469 0.815667 0
M  V30 38493 N 3461.71 -0.810054 1.35188 0
M  V30 38494 C 3462.62 -1.95334 1.2993 0
M  V30 38495 C 3463.64 -1.72791 0.204779 0
M  V30 38496 O 3464.81 -1.96678 0.433542 0
M  V30 38497 C 3461.88 -3.29859 1.06741 0
M  V30 38498 C 3460.94 -3.65322 2.25473 0
M  V30 38499 C 3460.17 -4.93428 2.03381 0
M  V30 38500 O 3460.39 -5.61592 0.998518 0
M  V30 38501 O 3459.33 -5.27069 2.90657 0
M  V30 38502 H 3463.15 -2.02717 2.2614 0
M  V30 38503 H 3460.74 -0.947334 1.15525 0
M  V30 38504 H 3462.62 -4.10402 0.956439 0
M  V30 38505 H 3461.3 -3.23415 0.135792 0
M  V30 38506 H 3460.2 -2.8517 2.42134 0
M  V30 38507 H 3461.54 -3.76467 3.1707 0
M  V30 38508 N 3463.19 -1.19129 -1.0318 0
M  V30 38509 C 3464.42 -1.01729 -1.80163 0
M  V30 38510 C 3464.83 0.434063 -1.83743 0
M  V30 38511 O 3464.19 1.3015 -1.27935 0
M  V30 38512 C 3464.24 -1.57572 -3.25351 0
M  V30 38513 O 3463.96 -2.97025 -3.22036 0
M  V30 38514 C 3465.46 -1.44914 -4.18945 0
M  V30 38515 H 3462.68 -0.358708 -0.567071 0
M  V30 38516 H 3465.23 -1.57879 -1.29979 0
M  V30 38517 H 3463.38 -1.05577 -3.72736 0
M  V30 38518 H 3463.79 -3.23242 -4.13055 0
M  V30 38519 H 3465.27 -1.88771 -5.18719 0
M  V30 38520 H 3465.75 -0.399202 -4.37382 0
M  V30 38521 H 3466.35 -1.96024 -3.77431 0
M  V30 38522 N 3464.67 1.2224 -0.994741 0
M  V30 38523 C 3465.91 1.9066 -0.670308 0
M  V30 38524 C 3466.24 1.77819 0.800338 0
M  V30 38525 O 3465.51 1.16656 1.57379 0
M  V30 38526 H 3464.09 0.705701 -0.244938 0
M  V30 38527 H 3466.75 1.48555 -1.26164 0
M  V30 38528 H 3465.84 2.97782 -0.934461 0
M  V30 38529 N 3466.14 0.768172 1.37611 0
M  V30 38530 C 3467.09 0.139781 2.3218 0
M  V30 38531 C 3468.09 -0.688996 1.54755 0
M  V30 38532 O 3469.29 -0.586459 1.70178 0
M  V30 38533 H 3465.67 0.0264133 0.751536 0
M  V30 38534 H 3467.64 0.953189 2.82766 0
M  V30 38535 C 3466.39 -0.727769 3.39998 0
M  V30 38536 H 3465.71 -0.0994148 3.99676 0
M  V30 38537 H 3467.15 -1.13449 4.0854 0
M  V30 38538 C 3465.61 -1.87681 2.79781 0
M  V30 38539 O 3466.14 -2.97204 2.70246 0
M  V30 38540 N 3464.35 -1.67633 2.37376 0
M  V30 38541 H 3463.89 -0.785509 2.45331 0
M  V30 38542 H 3463.85 -2.44681 1.9743 0
M  V30 38543 N 3467.62 -1.48829 0.518419 0
M  V30 38544 C 3468.87 -2.01688 -0.0218081 0
M  V30 38545 C 3469.18 -1.40176 -1.36418 0
M  V30 38546 O 3470.39 -1.84465 -1.99211 0
M  V30 38547 C 3468.85 -3.59789 -0.0892906 0
M  V30 38548 C 3468.45 -4.30281 1.24749 0
M  V30 38549 C 3470.2 -4.20533 -0.578958 0
M  V30 38550 C 3468.11 -5.80284 1.14122 0
M  V30 38551 H 3467.04 -0.753906 -0.011922 0
M  V30 38552 H 3469.69 -1.71202 0.660463 0
M  V30 38553 H 3468.07 -3.87067 -0.83639 0
M  V30 38554 H 3469.24 -4.14688 2.00925 0
M  V30 38555 H 3467.56 -3.81358 1.67197 0
M  V30 38556 H 3470.15 -5.30406 -0.67625 0
M  V30 38557 H 3470.5 -3.85069 -1.582 0
M  V30 38558 H 3471.03 -3.97642 0.112116 0
M  V30 38559 H 3467.77 -6.20303 2.11906 0
M  V30 38560 H 3467.29 -5.98323 0.42064 0
M  V30 38561 H 3468.97 -6.41692 0.827104 0
M  V30 38562 N 3469.1 -0.253021 -1.55556 0
M  V30 38563 C 3470.35 0.370536 -1.98267 0
M  V30 38564 C 3470.66 1.5862 -1.14451 0
M  V30 38565 O 3471.87 2.2813 -1.47204 0
M  V30 38566 C 3470.32 0.710623 -3.52815 0
M  V30 38567 C 3469.93 -0.483986 -4.45378 0
M  V30 38568 C 3471.68 1.29803 -4.04168 0
M  V30 38569 C 3469.58 -0.119715 -5.91279 0
M  V30 38570 H 3468.51 0.142219 -0.740466 0
M  V30 38571 H 3471.16 -0.3542 -1.80049 0
M  V30 38572 H 3469.55 1.49366 -3.6675 0
M  V30 38573 H 3470.72 -1.26124 -4.43204 0
M  V30 38574 H 3469.04 -0.986736 -4.0454 0
M  V30 38575 H 3471.63 1.58401 -5.10699 0
M  V30 38576 H 3471.98 2.22456 -3.51879 0
M  V30 38577 H 3472.51 0.577767 -3.93582 0
M  V30 38578 H 3469.25 -1.01354 -6.47617 0
M  V30 38579 H 3468.77 0.621213 -5.96574 0
M  V30 38580 H 3470.45 0.295938 -6.46323 0
M  V30 38581 N 3470.58 1.57587 0.0200142 0
M  V30 38582 C 3471.8 1.94345 0.724207 0
M  V30 38583 C 3472.23 0.853718 1.6761 0
M  V30 38584 O 3471.59 -0.189841 1.80303 0
M  V30 38585 C 3471.63 3.3018 1.44961 0
M  V30 38586 O 3470.74 3.23069 2.56321 0
M  V30 38587 H 3470.08 0.634988 0.194131 0
M  V30 38588 H 3472.61 2.04582 -0.0272116 0
M  V30 38589 H 3472.62 3.65281 1.81752 0
M  V30 38590 H 3471.29 4.09053 0.751538 0
M  V30 38591 H 3469.87 2.99613 2.22006 0
M  V30 38592 N 3472.06 -0.292445 1.54863 0
M  V30 38593 C 3472.99 -1.36553 1.89409 0
M  V30 38594 C 3473.97 -1.52482 0.753864 0
M  V30 38595 O 3475.15 -1.65849 1.01034 0
M  V30 38596 C 3472.28 -2.72834 2.14893 0
M  V30 38597 C 3471.24 -2.71659 3.30734 0
M  V30 38598 C 3470.56 -4.1131 3.41655 0
M  V30 38599 C 3471.86 -2.32643 4.67627 0
M  V30 38600 H 3473.56 -1.07889 2.79285 0
M  V30 38601 H 3471.1 -0.517561 1.34377 0
M  V30 38602 H 3473.06 -3.47998 2.37646 0
M  V30 38603 H 3471.78 -3.0304 1.21795 0
M  V30 38604 H 3470.44 -1.98952 3.07918 0
M  V30 38605 H 3470.09 -4.38707 2.46059 0
M  V30 38606 H 3469.79 -4.11423 4.19529 0
M  V30 38607 H 3471.31 -4.88241 3.66678 0
M  V30 38608 H 3472.72 -2.97524 4.90053 0
M  V30 38609 H 3471.12 -2.43953 5.48276 0
M  V30 38610 H 3472.19 -1.27769 4.67764 0
M  V30 38611 N 3473.53 -1.47465 -0.55605 0
M  V30 38612 C 3474.78 -1.54149 -1.31317 0
M  V30 38613 C 3475.11 -0.204255 -1.93425 0
M  V30 38614 O 3474.36 0.802971 -1.78468 0
M  V30 38615 C 3474.66 -2.60874 -2.44293 0
M  V30 38616 C 3474.33 -4.04113 -2.00009 0
M  V30 38617 C 3472.99 -4.43104 -1.87648 0
M  V30 38618 C 3475.34 -4.93984 -1.6622 0
M  V30 38619 C 3472.67 -5.69802 -1.39795 0
M  V30 38620 C 3475.02 -6.21146 -1.19837 0
M  V30 38621 C 3473.69 -6.59018 -1.06073 0
M  V30 38622 H 3472.96 -0.564072 -0.480524 0
M  V30 38623 H 3475.6 -1.81068 -0.623417 0
M  V30 38624 H 3473.91 -2.27716 -3.1883 0
M  V30 38625 H 3475.61 -2.63269 -3.02474 0
M  V30 38626 H 3472.2 -3.73305 -2.10573 0
M  V30 38627 H 3476.38 -4.64558 -1.74642 0
M  V30 38628 H 3471.64 -5.97893 -1.27803 0
M  V30 38629 H 3475.81 -6.90195 -0.927536 0
M  V30 38630 H 3473.44 -7.57083 -0.687701 0
M  V30 38631 N 3475.01 0.802873 -1.35616 0
M  V30 38632 C 3475.95 1.9231 -1.24698 0
M  V30 38633 C 3476.96 1.61916 -0.169437 0
M  V30 38634 O 3478.15 1.73415 -0.423026 0
M  V30 38635 C 3475.25 3.26778 -0.898287 0
M  V30 38636 C 3474.42 3.85051 -2.07496 0
M  V30 38637 C 3473.48 4.97933 -1.70146 0
M  V30 38638 O 3472.51 5.15163 -2.42066 0
M  V30 38639 N 3473.71 5.77101 -0.627255 0
M  V30 38640 H 3476.47 2.02202 -2.21212 0
M  V30 38641 H 3474.03 0.980481 -1.28834 0
M  V30 38642 H 3476.03 3.99769 -0.629836 0
M  V30 38643 H 3474.6 3.12592 -0.022712 0
M  V30 38644 H 3473.82 3.04209 -2.507 0
M  V30 38645 H 3475.1 4.20715 -2.86141 0
M  V30 38646 H 3474.5 5.65692 -0.0297873 0
M  V30 38647 H 3473.06 6.50454 -0.418595 0
M  V30 38648 N 3476.49 1.19674 1.02547 0
M  V30 38649 C 3477.45 0.939444 2.09062 0
M  V30 38650 C 3478.45 -0.0814555 1.60594 0
M  V30 38651 O 3479.64 0.153657 1.73521 0
M  V30 38652 C 3476.78 0.412573 3.38394 0
M  V30 38653 H 3477.97 1.88417 2.33322 0
M  V30 38654 H 3475.52 1.01088 1.1921 0
M  V30 38655 H 3476.26 -0.538038 3.19806 0
M  V30 38656 H 3476.04 1.1487 3.74896 0
M  V30 38657 H 3477.53 0.251752 4.1684 0
M  V30 38658 N 3477.97 -1.21711 1.00121 0
M  V30 38659 C 3478.9 -2.22581 0.503295 0
M  V30 38660 C 3479.88 -1.56507 -0.440943 0
M  V30 38661 O 3481.06 -1.84941 -0.36455 0
M  V30 38662 C 3478.19 -3.37627 -0.269394 0
M  V30 38663 C 3477.24 -4.21939 0.622076 0
M  V30 38664 S 3478.07 -4.93358 2.08227 0
M  V30 38665 C 3479.23 -6.11838 1.31931 0
M  V30 38666 H 3479.46 -2.64471 1.35802 0
M  V30 38667 H 3476.99 -1.31518 0.808842 0
M  V30 38668 H 3478.95 -4.04328 -0.709142 0
M  V30 38669 H 3477.61 -2.94228 -1.0995 0
M  V30 38670 H 3476.8 -5.03993 0.0271062 0
M  V30 38671 H 3476.41 -3.60413 0.998939 0
M  V30 38672 H 3478.7 -6.74915 0.591235 0
M  V30 38673 H 3479.64 -6.75763 2.11542 0
M  V30 38674 H 3480.05 -5.58381 0.828942 0
M  V30 38675 N 3479.45 -0.775459 -1.37202 0
M  V30 38676 C 3480.4 -0.152092 -2.32102 0
M  V30 38677 C 3481.39 0.680779 -1.55119 0
M  V30 38678 O 3482.6 0.577425 -1.70487 0
M  V30 38679 H 3478.97 -0.0303985 -0.751385 0
M  V30 38680 H 3480.94 -0.968171 -2.82257 0
M  V30 38681 C 3479.69 0.709728 -3.40379 0
M  V30 38682 H 3479.01 0.0782176 -3.99723 0
M  V30 38683 H 3480.45 1.11281 -4.09136 0
M  V30 38684 C 3478.91 1.86195 -2.80772 0
M  V30 38685 O 3479.44 2.95766 -2.71818 0
M  V30 38686 N 3477.65 1.66372 -2.38262 0
M  V30 38687 H 3477.2 0.772487 -2.45745 0
M  V30 38688 H 3477.15 2.4363 -1.98725 0
M  V30 38689 N 3480.93 1.48552 -0.526305 0
M  V30 38690 C 3481.87 2.29565 0.238473 0
M  V30 38691 C 3482.84 1.37134 0.937198 0
M  V30 38692 O 3484.03 1.66098 0.938941 0
M  V30 38693 C 3481.17 3.20417 1.28168 0
M  V30 38694 C 3480.28 4.27922 0.592169 0
M  V30 38695 C 3479.42 5.05959 1.61799 0
M  V30 38696 C 3478.45 6.05272 0.91174 0
M  V30 38697 N 3477.59 6.7638 1.88293 0
M  V30 38698 H 3482.43 2.94451 -0.458554 0
M  V30 38699 H 3479.97 1.45162 -0.237974 0
M  V30 38700 H 3481.93 3.71487 1.89877 0
M  V30 38701 H 3480.56 2.57462 1.94713 0
M  V30 38702 H 3479.61 3.80147 -0.138781 0
M  V30 38703 H 3480.92 4.98786 0.0374551 0
M  V30 38704 H 3480.07 5.61025 2.30946 0
M  V30 38705 H 3478.81 4.34926 2.20659 0
M  V30 38706 H 3477.82 5.49413 0.206177 0
M  V30 38707 H 3479.04 6.78301 0.329296 0
M  V30 38708 H 3476.99 6.08101 2.46068 0
M  V30 38709 H 3476.91 7.43306 1.37956 0
M  V30 38710 H 3478.17 7.36037 2.5665 0
M  V30 38711 N 3482.4 0.261267 1.55419 0
M  V30 38712 C 3483.31 -0.642585 2.25628 0
M  V30 38713 C 3484.33 -1.18153 1.27734 0
M  V30 38714 O 3485.51 -1.21476 1.60641 0
M  V30 38715 C 3482.57 -1.81645 2.95307 0
M  V30 38716 C 3481.63 -1.31555 4.08646 0
M  V30 38717 C 3480.86 -2.43347 4.74993 0
M  V30 38718 O 3481.09 -3.624 4.4048 0
M  V30 38719 O 3480.02 -2.12289 5.6322 0
M  V30 38720 H 3483.85 -0.0742557 3.03609 0
M  V30 38721 H 3481.43 0.0292017 1.49371 0
M  V30 38722 H 3483.31 -2.50119 3.39144 0
M  V30 38723 H 3481.99 -2.37213 2.20254 0
M  V30 38724 H 3480.9 -0.597682 3.69295 0
M  V30 38725 H 3482.23 -0.805793 4.85559 0
M  V30 38726 N 3483.88 -1.57596 -0.0116567 0
M  V30 38727 C 3484.81 -2.1072 -1.00595 0
M  V30 38728 C 3485.79 -1.01364 -1.36599 0
M  V30 38729 O 3486.98 -1.28984 -1.45178 0
M  V30 38730 C 3484.11 -2.60093 -2.3015 0
M  V30 38731 C 3483.06 -3.73869 -2.08341 0
M  V30 38732 C 3482.39 -4.09513 -3.43807 0
M  V30 38733 C 3483.69 -5.01612 -1.45543 0
M  V30 38734 H 3485.38 -2.94046 -0.563669 0
M  V30 38735 H 3482.93 -1.41452 -0.269689 0
M  V30 38736 H 3484.88 -2.95882 -3.00053 0
M  V30 38737 H 3483.6 -1.73873 -2.7647 0
M  V30 38738 H 3482.26 -3.38456 -1.40866 0
M  V30 38739 H 3481.91 -3.20333 -3.87809 0
M  V30 38740 H 3481.61 -4.8616 -3.30034 0
M  V30 38741 H 3483.14 -4.47851 -4.15044 0
M  V30 38742 H 3484.55 -5.35247 -2.05387 0
M  V30 38743 H 3482.95 -5.82986 -1.42294 0
M  V30 38744 H 3484.02 -4.83049 -0.423246 0
M  V30 38745 N 3485.36 0.284228 -1.55016 0
M  V30 38746 C 3486.61 1.01503 -1.74299 0
M  V30 38747 C 3486.92 1.87849 -0.545167 0
M  V30 38748 O 3488.13 2.64322 -0.620165 0
M  V30 38749 C 3486.58 1.85451 -3.08441 0
M  V30 38750 C 3486.19 1.04026 -4.35755 0
M  V30 38751 C 3487.94 2.58029 -3.37078 0
M  V30 38752 C 3485.84 1.87348 -5.60941 0
M  V30 38753 H 3484.77 0.382693 -0.649663 0
M  V30 38754 H 3487.42 0.271207 -1.81485 0
M  V30 38755 H 3485.81 2.63886 -2.95263 0
M  V30 38756 H 3486.98 0.300873 -4.59817 0
M  V30 38757 H 3485.29 0.429543 -4.14179 0
M  V30 38758 H 3487.89 3.20751 -4.27812 0
M  V30 38759 H 3488.23 3.27733 -2.56704 0
M  V30 38760 H 3488.77 1.86632 -3.51302 0
M  V30 38761 H 3485.51 1.22084 -6.44031 0
M  V30 38762 H 3485.03 2.58914 -5.41039 0
M  V30 38763 H 3486.71 2.44988 -5.98824 0
M  V30 38764 N 3486.84 1.47758 0.548222 0
M  V30 38765 C 3487.75 1.63568 1.68175 0
M  V30 38766 C 3488.76 0.51838 1.66099 0
M  V30 38767 O 3489.94 0.787093 1.85383 0
M  V30 38768 C 3487 1.65459 3.0467 0
M  V30 38769 C 3486.07 2.88682 3.17744 0
M  V30 38770 C 3485.3 2.90474 4.47728 0
M  V30 38771 O 3485.52 2.01211 5.33732 0
M  V30 38772 O 3484.46 3.82441 4.64782 0
M  V30 38773 H 3488.28 2.595 1.57777 0
M  V30 38774 H 3485.87 1.30947 0.719254 0
M  V30 38775 H 3487.75 1.6933 3.85882 0
M  V30 38776 H 3486.42 0.726967 3.15431 0
M  V30 38777 H 3485.33 2.90352 2.35895 0
M  V30 38778 H 3486.66 3.80769 3.11891 0
M  V30 38779 N 3488.32 -0.79567 1.3604 0
M  V30 38780 C 3489.26 -1.90804 1.29856 0
M  V30 38781 C 3490.23 -1.65244 0.168416 0
M  V30 38782 O 3491.42 -1.87489 0.353912 0
M  V30 38783 C 3488.56 -3.27519 1.08743 0
M  V30 38784 C 3487.67 -3.65193 2.30777 0
M  V30 38785 C 3486.81 -4.90994 2.02727 0
M  V30 38786 C 3485.84 -5.21328 3.20755 0
M  V30 38787 N 3484.98 -6.38311 2.9241 0
M  V30 38788 H 3489.82 -1.95425 2.24973 0
M  V30 38789 H 3487.36 -0.955751 1.1182 0
M  V30 38790 H 3489.32 -4.06349 0.945308 0
M  V30 38791 H 3487.95 -3.22337 0.172838 0
M  V30 38792 H 3487 -2.81536 2.55815 0
M  V30 38793 H 3488.31 -3.83562 3.18876 0
M  V30 38794 H 3487.46 -5.77675 1.85408 0
M  V30 38795 H 3486.2 -4.74682 1.11929 0
M  V30 38796 H 3485.21 -4.33132 3.3864 0
M  V30 38797 H 3486.43 -5.39563 4.1237 0
M  V30 38798 H 3484.38 -6.23403 2.04218 0
M  V30 38799 H 3484.3 -6.56983 3.74045 0
M  V30 38800 H 3485.56 -7.27991 2.78656 0
M  V30 38801 N 3489.79 -1.20217 -1.0191 0
M  V30 38802 C 3491.04 -1.0088 -1.75122 0
M  V30 38803 C 3491.36 0.460441 -1.89486 0
M  V30 38804 O 3490.63 1.333 -1.43555 0
M  V30 38805 H 3489.21 -0.370278 -0.648771 0
M  V30 38806 H 3491.88 -1.51282 -1.22881 0
M  V30 38807 H 3490.97 -1.46504 -2.75578 0
M  V30 38808 N 3491.27 1.21178 -1.00765 0
M  V30 38809 C 3492.22 2.21482 -0.541257 0
M  V30 38810 C 3493.21 1.55885 0.398569 0
M  V30 38811 O 3494.4 1.7559 0.22299 0
M  V30 38812 C 3491.53 3.43061 0.128085 0
M  V30 38813 C 3490.61 4.1584 -0.832918 0
M  V30 38814 N 3491 4.65144 -1.98682 0
M  V30 38815 C 3489.3 4.41211 -0.651856 0
M  V30 38816 C 3490 5.20799 -2.59121 0
M  V30 38817 N 3488.98 5.10329 -1.87258 0
M  V30 38818 H 3492.78 2.57259 -1.42109 0
M  V30 38819 H 3490.3 1.37015 -0.87182 0
M  V30 38820 H 3492.29 4.14131 0.479698 0
M  V30 38821 H 3490.95 3.08792 1.00387 0
M  V30 38822 H 3491.96 4.6064 -2.36709 0
M  V30 38823 H 3488.64 4.17126 0.176627 0
M  V30 38824 H 3490.03 5.69384 -3.56723 0
M  V30 38825 N 3492.75 0.782725 1.36789 0
M  V30 38826 C 3494 0.351351 1.99022 0
M  V30 38827 C 3494.32 -1.07884 1.62438 0
M  V30 38828 O 3493.59 -1.74254 0.895114 0
M  V30 38829 H 3492.17 0.126922 0.736138 0
M  V30 38830 H 3494.83 1.00328 1.67093 0
M  V30 38831 H 3493.93 0.437794 3.09014 0
M  V30 38832 N 3494.23 -1.48271 0.534176 0
M  V30 38833 C 3495.48 -2.017 -0.000415173 0
M  V30 38834 C 3495.79 -1.41615 -1.34924 0
M  V30 38835 O 3497 -1.86567 -1.97243 0
M  V30 38836 C 3495.45 -3.59864 -0.0511251 0
M  V30 38837 C 3495.06 -4.28934 1.29306 0
M  V30 38838 C 3496.8 -4.21124 -0.534323 0
M  V30 38839 C 3494.71 -5.79041 1.2027 0
M  V30 38840 H 3493.64 -0.75399 -0.00392518 0
M  V30 38841 H 3496.29 -1.70492 0.678584 0
M  V30 38842 H 3494.67 -3.87932 -0.79529 0
M  V30 38843 H 3495.85 -4.12533 2.05312 0
M  V30 38844 H 3494.16 -3.79563 1.71233 0
M  V30 38845 H 3496.76 -5.31094 -0.619955 0
M  V30 38846 H 3497.1 -3.86726 -1.54107 0
M  V30 38847 H 3497.64 -3.97501 0.154284 0
M  V30 38848 H 3494.38 -6.18021 2.18474 0
M  V30 38849 H 3493.9 -5.97843 0.484076 0
M  V30 38850 H 3495.57 -6.40778 0.895118 0
M  V30 38851 N 3495.71 -0.269505 -1.55279 0
M  V30 38852 C 3497.12 0.0847867 -1.59375 0
M  V30 38853 C 3497.32 1.55066 -1.28673 0
M  V30 38854 O 3496.38 2.29866 -1.0449 0
M  V30 38855 C 3497.69 -0.284788 -2.99348 0
M  V30 38856 C 3499.24 -0.230942 -3.12147 0
M  V30 38857 C 3499.71 -0.574875 -4.54378 0
M  V30 38858 N 3501.21 -0.526217 -4.60201 0
M  V30 38859 C 3501.94 -0.765209 -5.68271 0
M  V30 38860 N 3501.44 -1.06852 -6.8451 0
M  V30 38861 N 3503.23 -0.694385 -5.57794 0
M  V30 38862 H 3495.38 -1.2252 -1.73501 0
M  V30 38863 H 3497.64 -0.494578 -0.808762 0
M  V30 38864 H 3497.35 -1.30404 -3.26631 0
M  V30 38865 H 3497.22 0.377133 -3.7531 0
M  V30 38866 H 3499.61 0.779014 -2.84632 0
M  V30 38867 H 3499.69 -0.92704 -2.38411 0
M  V30 38868 H 3499.34 -1.58249 -4.82617 0
M  V30 38869 H 3499.27 0.142952 -5.26406 0
M  V30 38870 H 3501.76 -0.301434 -3.76696 0
M  V30 38871 H 3502.07 -1.2377 -7.62824 0
M  V30 38872 H 3500.41 -1.10624 -6.8614 0
M  V30 38873 H 3503.61 -0.457308 -4.65861 0
M  V30 38874 H 3503.78 -0.884026 -6.41942 0
M  V30 38875 N 3497.18 1.576 0.00329885 0
M  V30 38876 C 3498.11 2.1125 0.994766 0
M  V30 38877 C 3499.1 1.02087 1.36059 0
M  V30 38878 O 3500.28 1.29752 1.44492 0
M  V30 38879 C 3497.41 2.6131 2.28767 0
M  V30 38880 C 3496.36 3.74969 2.06355 0
M  V30 38881 C 3495.69 4.1133 3.4163 0
M  V30 38882 C 3496.99 5.02377 1.42881 0
M  V30 38883 H 3498.68 2.94341 0.548067 0
M  V30 38884 H 3496.23 1.41593 0.262184 0
M  V30 38885 H 3498.18 2.97469 2.98479 0
M  V30 38886 H 3496.91 1.75336 2.75544 0
M  V30 38887 H 3495.57 3.39198 1.3907 0
M  V30 38888 H 3495.21 3.22385 3.86104 0
M  V30 38889 H 3494.91 4.87903 3.27451 0
M  V30 38890 H 3496.44 4.50046 4.12663 0
M  V30 38891 H 3497.85 5.36329 2.02545 0
M  V30 38892 H 3496.25 5.83732 1.392 0
M  V30 38893 H 3497.32 4.83267 0.397623 0
M  V30 38894 N 3498.66 -0.276003 1.55164 0
M  V30 38895 C 3499.59 -1.34536 1.90846 0
M  V30 38896 C 3500.57 -1.51674 0.769995 0
M  V30 38897 O 3501.76 -1.64768 1.02787 0
M  V30 38898 C 3498.89 -2.7054 2.17774 0
M  V30 38899 C 3497.84 -2.68136 3.33597 0
M  V30 38900 C 3497.17 -4.07663 3.45998 0
M  V30 38901 C 3498.47 -2.2767 4.70068 0
M  V30 38902 H 3500.16 -1.04921 2.80414 0
M  V30 38903 H 3497.71 -0.503279 1.34919 0
M  V30 38904 H 3499.66 -3.45458 2.41323 0
M  V30 38905 H 3498.39 -3.01732 1.25003 0
M  V30 38906 H 3497.04 -1.95675 3.10011 0
M  V30 38907 H 3496.69 -4.36073 2.50698 0
M  V30 38908 H 3496.39 -4.0695 4.23869 0
M  V30 38909 H 3497.92 -4.84325 3.71836 0
M  V30 38910 H 3499.33 -2.9231 4.93181 0
M  V30 38911 H 3497.73 -2.38125 5.50833 0
M  V30 38912 H 3498.8 -1.228 4.69093 0
M  V30 38913 N 3500.14 -1.48046 -0.540378 0
M  V30 38914 C 3501.05 -1.64457 -1.67305 0
M  V30 38915 C 3502.07 -0.527181 -1.65822 0
M  V30 38916 O 3503.24 -0.796914 -1.84963 0
M  V30 38917 C 3500.31 -1.67073 -3.03789 0
M  V30 38918 C 3499.37 -2.90363 -3.16208 0
M  V30 38919 C 3498.6 -2.92844 -4.46181 0
M  V30 38920 O 3498.82 -2.04038 -5.32658 0
M  V30 38921 O 3497.76 -3.849 -4.62748 0
M  V30 38922 H 3501.58 -2.60333 -1.56398 0
M  V30 38923 H 3499.17 -1.31327 -0.7123 0
M  V30 38924 H 3501.05 -1.71374 -3.84979 0
M  V30 38925 H 3499.73 -0.743685 -3.15041 0
M  V30 38926 H 3498.63 -2.91599 -2.34352 0
M  V30 38927 H 3499.97 -3.82418 -3.09867 0
M  V30 38928 N 3501.62 0.788444 -1.3646 0
M  V30 38929 C 3502.58 1.88273 -1.30713 0
M  V30 38930 C 3503.58 1.59361 -0.214624 0
M  V30 38931 O 3504.77 1.67755 -0.469466 0
M  V30 38932 C 3501.9 3.25077 -1.02653 0
M  V30 38933 H 3503.1 1.94784 -2.28033 0
M  V30 38934 H 3500.65 0.986353 -1.21247 0
M  V30 38935 H 3501.38 3.24248 -0.0579562 0
M  V30 38936 H 3501.17 3.47451 -1.81714 0
M  V30 38937 H 3502.66 4.05142 -1.0124 0
M  V30 38938 N 3503.1 1.20755 1.01271 0
M  V30 38939 C 3504.03 0.917665 2.10028 0
M  V30 38940 C 3505.04 -0.0961126 1.62516 0
M  V30 38941 O 3506.23 0.135402 1.77986 0
M  V30 38942 C 3503.33 0.35495 3.37036 0
M  V30 38943 C 3502.5 1.42121 4.13667 0
M  V30 38944 C 3501.56 0.869115 5.18973 0
M  V30 38945 O 3500.59 1.55073 5.47669 0
M  V30 38946 N 3501.79 -0.319529 5.7962 0
M  V30 38947 H 3504.56 1.85387 2.35482 0
M  V30 38948 H 3502.12 1.11175 1.17693 0
M  V30 38949 H 3504.11 -0.0286183 4.0469 0
M  V30 38950 H 3502.68 -0.485901 3.08801 0
M  V30 38951 H 3501.9 1.97895 3.40927 0
M  V30 38952 H 3503.19 2.13919 4.61645 0
M  V30 38953 H 3502.58 -0.890492 5.58647 0
M  V30 38954 H 3501.14 -0.644693 6.48604 0
M  V30 38955 N 3504.58 -1.20642 1.01406 0
M  V30 38956 C 3505.82 -1.89264 0.697277 0
M  V30 38957 C 3506.14 -1.79543 -0.776118 0
M  V30 38958 O 3507.34 -2.43276 -1.20536 0
M  V30 38959 C 3505.8 -3.39419 1.19677 0
M  V30 38960 C 3505.41 -3.57731 2.69689 0
M  V30 38961 C 3507.15 -4.13611 0.955298 0
M  V30 38962 C 3505.06 -5.01699 3.13133 0
M  V30 38963 H 3503.99 -0.708807 0.257117 0
M  V30 38964 H 3506.64 -1.36496 1.22642 0
M  V30 38965 H 3505.02 -3.91495 0.595631 0
M  V30 38966 H 3506.2 -3.16053 3.35331 0
M  V30 38967 H 3504.51 -2.96906 2.91952 0
M  V30 38968 H 3507.11 -5.19755 1.25533 0
M  V30 38969 H 3507.45 -4.16159 -0.108289 0
M  V30 38970 H 3507.98 -3.67628 1.51969 0
M  V30 38971 H 3504.72 -5.04304 4.18757 0
M  V30 38972 H 3504.24 -5.44197 2.5221 0
M  V30 38973 H 3505.92 -5.70264 3.05627 0
M  V30 38974 N 3506.05 -0.789968 -1.36372 0
M  V30 38975 C 3507.02 -0.194679 -2.28372 0
M  V30 38976 C 3508.02 0.608306 -1.4885 0
M  V30 38977 O 3509.21 0.42922 -1.68829 0
M  V30 38978 C 3506.34 0.730495 -3.32981 0
M  V30 38979 H 3507.53 -1.0059 -2.82527 0
M  V30 38980 H 3505.08 -0.559431 -1.45945 0
M  V30 38981 H 3505.82 1.56603 -2.83982 0
M  V30 38982 H 3505.6 0.156637 -3.91787 0
M  V30 38983 H 3507.09 1.14185 -4.01686 0
M  V30 38984 N 3507.53 1.47986 -0.542031 0
M  V30 38985 C 3508.76 2.06893 -0.0167534 0
M  V30 38986 C 3509.17 1.3969 1.27013 0
M  V30 38987 O 3508.53 0.488357 1.75845 0
M  V30 38988 C 3508.58 3.60955 0.198373 0
M  V30 38989 O 3508.3 4.25637 -1.03753 0
M  V30 38990 C 3509.8 4.3669 0.762664 0
M  V30 38991 H 3507.02 0.669868 -0.0389614 0
M  V30 38992 H 3509.57 1.90206 -0.751115 0
M  V30 38993 H 3507.72 3.77207 0.882817 0
M  V30 38994 H 3508.14 5.17959 -0.825771 0
M  V30 38995 H 3509.61 5.45219 0.862553 0
M  V30 38996 H 3510.09 4.01936 1.77042 0
M  V30 38997 H 3510.69 4.25146 0.114403 0
M  V30 38998 N 3509.01 0.277736 1.55133 0
M  V30 38999 C 3510.26 -0.337627 1.9926 0
M  V30 39000 C 3510.58 -1.56181 1.16758 0
M  V30 39001 O 3509.85 -1.94197 0.257741 0
M  V30 39002 H 3508.43 -0.127738 0.735997 0
M  V30 39003 H 3511.09 0.383679 1.91086 0
M  V30 39004 H 3510.19 -0.625693 3.05764 0
M  V30 39005 N 3510.49 -1.57599 0.00505908 0
M  V30 39006 C 3511.74 -1.9041 -0.677387 0
M  V30 39007 C 3512.06 -0.879661 -1.74032 0
M  V30 39008 O 3511.33 0.0822413 -1.95727 0
M  V30 39009 H 3509.91 -0.702784 -0.253188 0
M  V30 39010 H 3512.57 -1.94843 0.0471808 0
M  V30 39011 H 3511.66 -2.90321 -1.14543 0
M  V30 39012 N 3511.97 0.267771 -1.55309 0
M  V30 39013 C 3513.21 0.996484 -1.75366 0
M  V30 39014 C 3513.53 1.8726 -0.56506 0
M  V30 39015 O 3514.73 2.6365 -0.648165 0
M  V30 39016 C 3513.19 1.82169 -3.10391 0
M  V30 39017 C 3512.8 0.993985 -4.36834 0
M  V30 39018 C 3514.54 2.54439 -3.39795 0
M  V30 39019 C 3512.45 1.81388 -5.62896 0
M  V30 39020 H 3511.38 0.375781 -0.653685 0
M  V30 39021 H 3514.03 0.251943 -1.81762 0
M  V30 39022 H 3512.41 2.60739 -2.98046 0
M  V30 39023 H 3513.59 0.252086 -4.6011 0
M  V30 39024 H 3511.9 0.385589 -4.14611 0
M  V30 39025 H 3514.5 3.16196 -4.3119 0
M  V30 39026 H 3514.84 3.24992 -2.60165 0
M  V30 39027 H 3515.37 1.82896 -3.53262 0
M  V30 39028 H 3512.11 1.15247 -6.45289 0
M  V30 39029 H 3511.63 2.53161 -5.43755 0
M  V30 39030 H 3513.31 2.38623 -6.01388 0
M  V30 39031 N 3513.44 1.48331 0.532519 0
M  V30 39032 C 3514.69 1.55473 1.28495 0
M  V30 39033 C 3515.01 0.232446 1.94214 0
M  V30 39034 O 3516.21 0.182091 2.70889 0
M  V30 39035 C 3514.67 2.74179 2.33139 0
M  V30 39036 C 3514.28 4.13039 1.73501 0
M  V30 39037 C 3516.02 2.90633 3.09407 0
M  V30 39038 C 3513.93 5.2301 2.7607 0
M  V30 39039 H 3512.86 0.578785 0.483243 0
M  V30 39040 H 3515.51 1.74659 0.562713 0
M  V30 39041 H 3513.89 2.48422 3.08387 0
M  V30 39042 H 3515.06 4.48804 1.04458 0
M  V30 39043 H 3513.38 4.01681 1.09733 0
M  V30 39044 H 3515.98 3.6996 3.86049 0
M  V30 39045 H 3516.32 1.99994 3.65114 0
M  V30 39046 H 3516.85 3.16278 2.41274 0
M  V30 39047 H 3513.59 6.15606 2.25186 0
M  V30 39048 H 3513.11 4.91736 3.43447 0
M  V30 39049 H 3514.79 5.51015 3.39103 0
M  V30 39050 N 3514.92 -0.781196 1.36876 0
M  V30 39051 C 3516.2 -1.52807 1.22104 0
M  V30 39052 C 3516.58 -2.10249 -0.189365 0
M  V30 39053 O 3515.93 -1.94703 -1.19595 0
M  V30 39054 C 3516.14 -2.61648 2.30957 0
M  V30 39055 C 3517.48 -3.29308 2.68033 0
M  V30 39056 O 3518.51 -2.71937 2.30062 0
M  V30 39057 O 3517.37 -4.33009 3.33415 0
M  V30 39058 H 3514.46 -0.676341 0.475911 0
M  V30 39059 H 3517.01 -0.818972 1.4863 0
M  V30 39060 H 3515.78 -2.17255 3.25447 0
M  V30 39061 H 3515.4 -3.40168 2.05843 0
M  V30 39062 N 3516.4 -1.21291 -1.0063 0
M  V30 39063 C 3517.81 -1.0282 -1.55836 0
M  V30 39064 C 3518.16 0.412391 -1.91817 0
M  V30 39065 O 3517.29 1.2954 -1.73345 0
M  V30 39066 C 3517.88 -1.86019 -2.83165 0
M  V30 39067 C 3516.44 -1.71885 -3.34862 0
M  V30 39068 C 3515.59 -1.83312 -2.08067 0
M  V30 39069 H 3518.54 -1.35332 -0.828915 0
M  V30 39070 H 3518.56 -1.36967 -3.54993 0
M  V30 39071 H 3518.07 -2.90862 -2.56946 0
M  V30 39072 H 3516.17 -0.697217 -3.66019 0
M  V30 39073 H 3516.29 -2.53773 -4.06369 0
M  V30 39074 H 3514.65 -1.26607 -2.21004 0
M  V30 39075 H 3515.43 -2.89659 -1.84262 0
M  V30 39076 N 3517.88 1.20103 -1.02045 0
M  V30 39077 C 3518.82 2.23026 -0.593984 0
M  V30 39078 C 3519.79 1.61507 0.387902 0
M  V30 39079 O 3520.98 1.88637 0.286471 0
M  V30 39080 C 3518.12 3.45052 0.0576703 0
M  V30 39081 C 3517.23 4.20987 -0.969243 0
M  V30 39082 C 3516.37 5.30417 -0.288236 0
M  V30 39083 C 3515.41 5.981 -1.30164 0
M  V30 39084 N 3514.54 6.99112 -0.647035 0
M  V30 39085 H 3519.38 2.58863 -1.47627 0
M  V30 39086 H 3516.92 1.27194 -0.738923 0
M  V30 39087 H 3518.88 4.14737 0.452653 0
M  V30 39088 H 3517.51 3.09895 0.903585 0
M  V30 39089 H 3516.56 3.50329 -1.48236 0
M  V30 39090 H 3517.87 4.67474 -1.7398 0
M  V30 39091 H 3517.03 6.06484 0.162042 0
M  V30 39092 H 3515.77 4.84978 0.514598 0
M  V30 39093 H 3514.77 5.20792 -1.76227 0
M  V30 39094 H 3516 6.45625 -2.10582 0
M  V30 39095 H 3513.94 6.55859 0.135861 0
M  V30 39096 H 3513.86 7.43747 -1.35561 0
M  V30 39097 H 3515.13 7.79188 -0.220476 0
M  V30 39098 N 3519.36 0.797189 1.35951 0
M  V30 39099 C 3520.27 0.202312 2.33726 0
M  V30 39100 C 3521.28 -0.649691 1.61416 0
M  V30 39101 O 3522.46 -0.563652 1.93352 0
M  V30 39102 C 3519.52 -0.64679 3.40613 0
M  V30 39103 C 3518.58 0.224612 4.28712 0
M  V30 39104 C 3517.82 -0.58406 5.30495 0
M  V30 39105 O 3518.04 -1.81948 5.40603 0
M  V30 39106 O 3516.97 0.0201297 6.01897 0
M  V30 39107 H 3520.8 1.01092 2.86381 0
M  V30 39108 H 3518.39 0.558792 1.38556 0
M  V30 39109 H 3520.27 -1.13073 4.05946 0
M  V30 39110 H 3518.94 -1.43316 2.90245 0
M  V30 39111 H 3517.85 0.75548 3.66392 0
M  V30 39112 H 3519.18 0.974688 4.82453 0
M  V30 39113 N 3520.83 -1.47696 0.549872 0
M  V30 39114 C 3522.06 -2.07384 0.0257184 0
M  V30 39115 C 3522.48 -1.40092 -1.25522 0
M  V30 39116 O 3521.84 -0.473436 -1.75009 0
M  V30 39117 C 3521.89 -3.60241 -0.160772 0
M  V30 39118 O 3520.99 -3.93785 -1.22502 0
M  V30 39119 H 3520.34 -0.66226 0.0480321 0
M  V30 39120 H 3522.87 -1.89822 0.763463 0
M  V30 39121 H 3522.88 -4.06252 -0.377265 0
M  V30 39122 H 3521.55 -4.08618 0.774846 0
M  V30 39123 H 3520.13 -3.59529 -0.989607 0
M  V30 39124 N 3522.31 -0.285959 -1.54984 0
M  V30 39125 C 3523.26 0.611537 -2.19646 0
M  V30 39126 C 3524.25 1.11027 -1.16455 0
M  V30 39127 O 3525.44 1.05354 -1.4223 0
M  V30 39128 C 3522.57 1.79012 -2.92933 0
M  V30 39129 C 3521.65 1.30806 -4.03424 0
M  V30 39130 N 3522.04 0.542904 -5.02878 0
M  V30 39131 C 3520.34 1.59009 -4.16692 0
M  V30 39132 C 3521.04 0.288074 -5.80986 0
M  V30 39133 N 3520.02 0.863601 -5.36696 0
M  V30 39134 H 3523.82 0.0192297 -2.93894 0
M  V30 39135 H 3521.34 -0.0900161 -1.6215 0
M  V30 39136 H 3523.33 2.44448 -3.37714 0
M  V30 39137 H 3521.99 2.38627 -2.20198 0
M  V30 39138 H 3523 0.189214 -5.17554 0
M  V30 39139 H 3519.68 2.19482 -3.55154 0
M  V30 39140 H 3521.07 -0.325455 -6.71111 0
M  V30 39141 N 3523.79 1.57594 -0.0134169 0
M  V30 39142 C 3525.21 1.55875 0.34282 0
M  V30 39143 C 3525.41 1.01745 1.73926 0
M  V30 39144 O 3524.46 0.657201 2.43797 0
M  V30 39145 C 3525.78 2.99995 0.205778 0
M  V30 39146 C 3527.32 3.11748 0.27972 0
M  V30 39147 C 3527.8 4.57678 0.171649 0
M  V30 39148 N 3529.29 4.62633 0.229129 0
M  V30 39149 C 3530.02 5.73151 0.169052 0
M  V30 39150 N 3529.52 6.92775 0.0587948 0
M  V30 39151 N 3531.31 5.61662 0.221897 0
M  V30 39152 H 3523.46 1.91115 -0.92676 0
M  V30 39153 H 3525.73 0.878422 -0.356481 0
M  V30 39154 H 3525.43 3.43489 -0.755542 0
M  V30 39155 H 3525.31 3.64182 0.982412 0
M  V30 39156 H 3527.69 2.68176 1.23149 0
M  V30 39157 H 3527.78 2.50312 -0.527018 0
M  V30 39158 H 3527.42 5.01927 -0.776636 0
M  V30 39159 H 3527.35 5.17075 0.997047 0
M  V30 39160 H 3529.84 3.76584 0.31513 0
M  V30 39161 H 3530.15 7.72798 0.0192168 0
M  V30 39162 H 3528.5 6.94996 0.0242321 0
M  V30 39163 H 3531.69 4.67097 0.306324 0
M  V30 39164 H 3531.86 6.47773 0.171613 0
M  V30 39165 N 3525.27 -0.259531 1.55448 0
M  V30 39166 C 3526.2 -1.32504 1.92262 0
M  V30 39167 C 3527.18 -1.50849 0.786039 0
M  V30 39168 O 3528.36 -1.63668 1.04529 0
M  V30 39169 C 3525.49 -2.68215 2.20631 0
M  V30 39170 C 3524.45 -2.64583 3.36422 0
M  V30 39171 C 3523.77 -4.03971 3.50303 0
M  V30 39172 C 3525.07 -2.22672 4.72456 0
M  V30 39173 H 3526.77 -1.01941 2.81511 0
M  V30 39174 H 3524.31 -0.488941 1.35445 0
M  V30 39175 H 3526.27 -3.42879 2.44974 0
M  V30 39176 H 3524.99 -3.00389 1.28196 0
M  V30 39177 H 3523.65 -1.92376 3.12069 0
M  V30 39178 H 3523.3 -4.33389 2.55309 0
M  V30 39179 H 3523 -4.02432 4.28162 0
M  V30 39180 H 3524.52 -4.80353 3.76952 0
M  V30 39181 H 3525.94 -2.87063 4.96254 0
M  V30 39182 H 3524.33 -2.32269 5.53327 0
M  V30 39183 H 3525.4 -1.17818 4.70369 0
M  V30 39184 N 3526.75 -1.48611 -0.524645 0
M  V30 39185 C 3528.16 -1.50376 -1.10652 0
M  V30 39186 C 3528.51 -0.276547 -1.94241 0
M  V30 39187 O 3527.63 0.615851 -2.07452 0
M  V30 39188 C 3528.23 -2.72482 -2.01343 0
M  V30 39189 C 3526.79 -2.77102 -2.54738 0
M  V30 39190 C 3525.93 -2.43966 -1.31818 0
M  V30 39191 H 3528.89 -1.5565 -0.309646 0
M  V30 39192 H 3528.91 -2.51302 -2.85705 0
M  V30 39193 H 3528.42 -3.61784 -1.40478 0
M  V30 39194 H 3526.52 -1.92021 -3.19309 0
M  V30 39195 H 3526.63 -3.78669 -2.93507 0
M  V30 39196 H 3525 -1.95236 -1.6357 0
M  V30 39197 H 3525.78 -3.35515 -0.726967 0
M  V30 39198 N 3528.22 0.773926 -1.37289 0
M  V30 39199 C 3529.47 1.53468 -1.32573 0
M  V30 39200 C 3529.8 1.9399 0.0903119 0
M  V30 39201 O 3529.08 1.63905 1.04716 0
M  V30 39202 C 3529.36 2.80122 -2.26282 0
M  V30 39203 C 3529.21 2.45868 -3.76655 0
M  V30 39204 C 3530.53 3.82041 -2.18478 0
M  V30 39205 H 3527.65 0.556756 -0.4829 0
M  V30 39206 H 3530.29 0.88801 -1.67971 0
M  V30 39207 H 3528.44 3.35303 -1.96225 0
M  V30 39208 H 3530.12 1.96618 -4.173 0
M  V30 39209 H 3528.36 1.78595 -3.95331 0
M  V30 39210 H 3529.03 3.36395 -4.37656 0
M  V30 39211 H 3531.51 3.36348 -2.44968 0
M  V30 39212 H 3530.38 4.68387 -2.86191 0
M  V30 39213 H 3530.64 4.26145 -1.177 0
M  V30 39214 N 3529.7 1.21823 0.99985 0
M  V30 39215 C 3530.98 0.947243 1.71133 0
M  V30 39216 C 3531.36 -0.539565 2.04088 0
M  V30 39217 O 3530.71 -1.50577 1.71868 0
M  V30 39218 C 3530.92 1.83765 2.96701 0
M  V30 39219 C 3532.27 2.08958 3.69623 0
M  V30 39220 O 3533.29 1.81156 3.06693 0
M  V30 39221 O 3532.15 2.56008 4.82827 0
M  V30 39222 H 3529.24 0.355642 0.746624 0
M  V30 39223 H 3531.79 1.32776 1.05682 0
M  V30 39224 H 3530.56 2.84366 2.68797 0
M  V30 39225 H 3530.18 1.45828 3.69892 0
M  V30 39226 N 3531.18 -1.1956 1.0268 0
M  V30 39227 C 3532.43 -1.88514 0.717312 0
M  V30 39228 C 3532.74 -1.80356 -0.757031 0
M  V30 39229 O 3533.95 -2.44541 -1.17949 0
M  V30 39230 C 3532.4 -3.38131 1.23271 0
M  V30 39231 C 3532.01 -3.54851 2.73468 0
M  V30 39232 C 3533.76 -4.12575 0.999113 0
M  V30 39233 C 3531.66 -4.98349 3.18437 0
M  V30 39234 H 3530.59 -0.70604 0.26462 0
M  V30 39235 H 3533.24 -1.35188 1.24083 0
M  V30 39236 H 3531.63 -3.90841 0.63712 0
M  V30 39237 H 3532.8 -3.12479 3.38664 0
M  V30 39238 H 3531.12 -2.93793 2.95084 0
M  V30 39239 H 3533.71 -5.18395 1.31039 0
M  V30 39240 H 3534.06 -4.16251 -0.0641438 0
M  V30 39241 H 3534.59 -3.65995 1.5586 0
M  V30 39242 H 3531.33 -4.99834 4.24082 0
M  V30 39243 H 3530.85 -5.41491 2.57967 0
M  V30 39244 H 3532.53 -5.6699 3.11659 0
M  V30 39245 N 3532.66 -0.804387 -1.35526 0
M  V30 39246 C 3533.62 -0.21889 -2.28152 0
M  V30 39247 C 3534.62 0.592484 -1.49487 0
M  V30 39248 O 3535.81 0.411289 -1.69275 0
M  V30 39249 C 3532.94 0.695136 -3.33737 0
M  V30 39250 H 3534.14 -1.03581 -2.81445 0
M  V30 39251 H 3531.69 -0.574879 -1.45344 0
M  V30 39252 H 3532.42 1.53582 -2.85627 0
M  V30 39253 H 3532.21 0.115074 -3.91931 0
M  V30 39254 H 3533.7 1.09918 -4.02874 0
M  V30 39255 N 3534.14 1.47403 -0.557697 0
M  V30 39256 C 3535.37 2.06564 -0.0386401 0
M  V30 39257 C 3535.78 1.41076 1.26072 0
M  V30 39258 O 3535.12 0.501484 1.76722 0
M  V30 39259 C 3535.18 3.5878 0.227397 0
M  V30 39260 C 3534.84 4.46311 -0.982604 0
M  V30 39261 C 3535.84 4.84396 -1.8883 0
M  V30 39262 C 3533.53 4.87819 -1.19741 0
M  V30 39263 C 3535.52 5.62787 -2.99248 0
M  V30 39264 C 3533.21 5.65975 -2.30469 0
M  V30 39265 C 3534.21 6.0337 -3.20053 0
M  V30 39266 O 3533.89 6.79951 -4.28861 0
M  V30 39267 H 3533.63 0.674629 -0.0430348 0
M  V30 39268 H 3536.18 1.90387 -0.770835 0
M  V30 39269 H 3534.41 3.73171 1.01391 0
M  V30 39270 H 3536.1 3.9996 0.691895 0
M  V30 39271 H 3536.86 4.52928 -1.73439 0
M  V30 39272 H 3532.74 4.58178 -0.509304 0
M  V30 39273 H 3536.29 5.91894 -3.69197 0
M  V30 39274 H 3532.18 5.96856 -2.45832 0
M  V30 39275 H 3532.95 6.98345 -4.26915 0
M  V30 39276 N 3535.62 0.294175 1.5483 0
M  V30 39277 C 3536.56 -0.584951 2.23264 0
M  V30 39278 C 3537.53 -1.13492 1.2128 0
M  V30 39279 O 3538.72 -1.18071 1.4988 0
M  V30 39280 C 3535.86 -1.75423 2.97188 0
M  V30 39281 C 3534.97 -1.23631 4.13932 0
M  V30 39282 C 3534.11 -2.36891 4.75454 0
M  V30 39283 C 3533.14 -1.82197 5.84355 0
M  V30 39284 N 3532.28 -2.89004 6.3986 0
M  V30 39285 H 3537.12 0.00524567 2.98 0
M  V30 39286 H 3534.66 0.0143572 1.47093 0
M  V30 39287 H 3536.62 -2.44184 3.38275 0
M  V30 39288 H 3535.25 -2.31616 2.24841 0
M  V30 39289 H 3534.3 -0.441181 3.77833 0
M  V30 39290 H 3535.61 -0.79586 4.9241 0
M  V30 39291 H 3534.76 -3.13611 5.19359 0
M  V30 39292 H 3533.5 -2.84259 3.96293 0
M  V30 39293 H 3532.51 -1.03964 5.39881 0
M  V30 39294 H 3533.73 -1.35741 6.65395 0
M  V30 39295 H 3531.68 -3.35719 5.63586 0
M  V30 39296 H 3531.6 -2.49434 7.13666 0
M  V30 39297 H 3532.86 -3.65642 6.88423 0
M  V30 39298 N 3537.09 -1.57585 0.0217743 0
M  V30 39299 C 3538.51 -1.56054 -0.334549 0
M  V30 39300 C 3538.71 -1.02666 -1.73384 0
M  V30 39301 O 3537.77 -0.670121 -2.43445 0
M  V30 39302 C 3539.08 -3.001 -0.189866 0
M  V30 39303 C 3540.63 -3.11892 -0.263183 0
M  V30 39304 C 3541.1 -4.57763 -0.147374 0
M  V30 39305 N 3542.59 -4.62748 -0.204591 0
M  V30 39306 C 3543.33 -5.73232 -0.138654 0
M  V30 39307 N 3542.82 -6.92796 -0.0220544 0
M  V30 39308 N 3544.62 -5.61772 -0.192107 0
M  V30 39309 H 3536.77 -1.90621 0.936882 0
M  V30 39310 H 3539.03 -0.876519 0.361135 0
M  V30 39311 H 3538.74 -3.43083 0.773747 0
M  V30 39312 H 3538.61 -3.64698 -0.963084 0
M  V30 39313 H 3541 -2.68825 -1.21725 0
M  V30 39314 H 3541.08 -2.50029 0.540285 0
M  V30 39315 H 3540.72 -5.01508 0.803243 0
M  V30 39316 H 3540.65 -5.17596 -0.969612 0
M  V30 39317 H 3543.14 -3.76746 -0.295154 0
M  V30 39318 H 3543.46 -7.72797 0.0217668 0
M  V30 39319 H 3541.8 -6.94999 0.0126255 0
M  V30 39320 H 3544.99 -4.67253 -0.281548 0
M  V30 39321 H 3545.17 -6.47855 -0.137258 0
M  V30 39322 N 3538.57 0.251283 -1.55584 0
M  V30 39323 C 3539.82 0.978 -1.7686 0
M  V30 39324 C 3540.14 1.8602 -0.584957 0
M  V30 39325 O 3539.41 1.91785 0.399422 0
M  V30 39326 H 3537.99 0.364099 -0.652258 0
M  V30 39327 H 3540.65 0.270285 -1.93017 0
M  V30 39328 H 3539.75 1.60228 -2.67831 0
M  V30 39329 N 3540.05 1.48887 0.516757 0
M  V30 39330 C 3541.28 1.61026 1.29438 0
M  V30 39331 C 3541.69 0.274738 1.87195 0
M  V30 39332 O 3541.03 -0.747839 1.67789 0
M  V30 39333 C 3541.09 2.60809 2.47425 0
M  V30 39334 C 3540.76 4.05553 2.10656 0
M  V30 39335 C 3541.75 4.92838 1.65551 0
M  V30 39336 C 3539.44 4.51181 2.20774 0
M  V30 39337 C 3541.43 6.23783 1.31046 0
M  V30 39338 C 3539.12 5.82144 1.8588 0
M  V30 39339 C 3540.12 6.68269 1.41089 0
M  V30 39340 O 3539.81 7.96793 1.0666 0
M  V30 39341 H 3539.54 0.545401 0.399392 0
M  V30 39342 H 3542.09 1.95542 0.628685 0
M  V30 39343 H 3540.32 2.21441 3.17019 0
M  V30 39344 H 3542.01 2.62643 3.09473 0
M  V30 39345 H 3542.78 4.58819 1.57193 0
M  V30 39346 H 3538.66 3.84323 2.54591 0
M  V30 39347 H 3542.2 6.90961 0.960124 0
M  V30 39348 H 3538.1 6.15694 1.93883 0
M  V30 39349 H 3538.86 8.09664 1.19944 0
M  V30 39350 N 3541.53 -0.766635 1.37697 0
M  V30 39351 C 3542.77 -1.52536 1.33187 0
M  V30 39352 C 3543.1 -1.94327 -0.0820898 0
M  V30 39353 O 3542.36 -1.64737 -1.05642 0
M  V30 39354 C 3542.66 -2.79964 2.22159 0
M  V30 39355 C 3542.32 -2.57201 3.70349 0
M  V30 39356 C 3540.98 -2.50702 4.10733 0
M  V30 39357 C 3543.34 -2.3698 4.64209 0
M  V30 39358 C 3540.66 -2.21979 5.43086 0
M  V30 39359 C 3543.02 -2.09779 5.96804 0
M  V30 39360 C 3541.68 -2.01728 6.36288 0
M  V30 39361 H 3540.95 -0.55817 0.487367 0
M  V30 39362 H 3543.6 -0.882633 1.69947 0
M  V30 39363 H 3541.9 -3.48821 1.78412 0
M  V30 39364 H 3543.6 -3.37866 2.15981 0
M  V30 39365 H 3540.19 -2.63125 3.38324 0
M  V30 39366 H 3544.37 -2.40988 4.33865 0
M  V30 39367 H 3539.63 -2.14244 5.72634 0
M  V30 39368 H 3543.8 -1.93133 6.69083 0
M  V30 39369 H 3541.43 -1.79235 7.38768 0
M  V30 39370 N 3543.01 -1.22351 -0.993375 0
M  V30 39371 C 3543.95 -0.990395 -2.10461 0
M  V30 39372 C 3544.95 0.066323 -1.6927 0
M  V30 39373 O 3546.15 -0.086076 -1.79794 0
M  V30 39374 H 3542.53 -0.303088 -0.688217 0
M  V30 39375 H 3544.5 -1.93337 -2.27296 0
M  V30 39376 C 3543.25 -0.584265 -3.42756 0
M  V30 39377 H 3542.57 -1.38906 -3.74894 0
M  V30 39378 H 3544.01 -0.460564 -4.21491 0
M  V30 39379 C 3542.47 0.706129 -3.29417 0
M  V30 39380 O 3543 1.75868 -3.61155 0
M  V30 39381 N 3541.21 0.677099 -2.82602 0
M  V30 39382 H 3540.75 -0.179757 -2.56972 0
M  V30 39383 H 3540.71 1.54076 -2.74058 0
M  V30 39384 N 3544.48 1.19014 -1.03313 0
M  V30 39385 C 3545.39 2.26045 -0.627774 0
M  V30 39386 C 3546.41 1.70597 0.342453 0
M  V30 39387 O 3547.59 2.00412 0.199272 0
M  V30 39388 C 3544.65 3.46698 0.0107665 0
M  V30 39389 C 3543.71 4.1731 -1.0075 0
M  V30 39390 C 3542.94 5.32204 -0.399339 0
M  V30 39391 O 3543.17 5.64811 0.796549 0
M  V30 39392 O 3542.1 5.91306 -1.12429 0
M  V30 39393 H 3545.93 2.62967 -1.51928 0
M  V30 39394 H 3543.51 1.25949 -0.80356 0
M  V30 39395 H 3545.39 4.19802 0.366598 0
M  V30 39396 H 3544.07 3.11616 0.87621 0
M  V30 39397 H 3542.98 3.46307 -1.415 0
M  V30 39398 H 3544.31 4.56374 -1.84346 0
M  V30 39399 N 3545.96 0.811563 1.35098 0
M  V30 39400 C 3546.87 0.227091 2.33498 0
M  V30 39401 C 3547.89 -0.632534 1.62096 0
M  V30 39402 O 3549.06 -0.543113 1.93939 0
M  V30 39403 C 3546.13 -0.610627 3.4128 0
M  V30 39404 C 3545.19 0.27007 4.2845 0
M  V30 39405 C 3544.42 -0.527761 5.31084 0
M  V30 39406 O 3544.65 -1.76204 5.42502 0
M  V30 39407 O 3543.58 0.0839678 6.01841 0
M  V30 39408 H 3547.41 1.04124 2.85293 0
M  V30 39409 H 3544.99 0.573456 1.37956 0
M  V30 39410 H 3546.87 -1.08761 4.07123 0
M  V30 39411 H 3545.55 -1.40229 2.91749 0
M  V30 39412 H 3544.45 0.794298 3.6557 0
M  V30 39413 H 3545.79 1.0258 4.81392 0
M  V30 39414 N 3547.44 -1.47105 0.565506 0
M  V30 39415 C 3548.37 -2.32912 -0.165629 0
M  V30 39416 C 3549.35 -1.44299 -0.900653 0
M  V30 39417 O 3550.54 -1.73143 -0.879493 0
M  V30 39418 C 3547.67 -3.26245 -1.19086 0
M  V30 39419 C 3546.62 -4.24164 -0.571774 0
M  V30 39420 C 3545.95 -5.06881 -1.70224 0
M  V30 39421 C 3547.25 -5.20091 0.479876 0
M  V30 39422 H 3548.94 -2.94291 0.550757 0
M  V30 39423 H 3546.49 -1.41516 0.266309 0
M  V30 39424 H 3548.44 -3.8512 -1.71058 0
M  V30 39425 H 3547.16 -2.62938 -1.9373 0
M  V30 39426 H 3545.82 -3.66527 -0.0732886 0
M  V30 39427 H 3545.47 -4.39971 -2.43792 0
M  V30 39428 H 3545.17 -5.73181 -1.29374 0
M  V30 39429 H 3546.69 -5.68616 -2.22505 0
M  V30 39430 H 3548.11 -5.73282 0.045905 0
M  V30 39431 H 3546.5 -5.94639 0.807719 0
M  V30 39432 H 3547.57 -4.65065 1.37267 0
M  V30 39433 N 3548.92 -0.302382 -1.54672 0
M  V30 39434 C 3550.14 0.311855 -2.05042 0
M  V30 39435 C 3550.57 1.46632 -1.17816 0
M  V30 39436 O 3549.93 1.80379 -0.182549 0
M  V30 39437 C 3549.97 0.744427 -3.52832 0
M  V30 39438 O 3549.08 1.84906 -3.68624 0
M  V30 39439 H 3548.42 0.0602986 -0.661256 0
M  V30 39440 H 3550.95 -0.444628 -1.9971 0
M  V30 39441 H 3550.96 1.03286 -3.9471 0
M  V30 39442 H 3549.63 -0.100071 -4.1578 0
M  V30 39443 H 3548.21 1.56107 -3.38652 0
M  V30 39444 N 3550.4 1.57571 -0.0301311 0
M  V30 39445 C 3551.31 2.13741 0.967048 0
M  V30 39446 C 3552.32 1.08992 1.35634 0
M  V30 39447 O 3553.5 1.41055 1.43755 0
M  V30 39448 C 3550.56 2.65421 2.23053 0
M  V30 39449 C 3549.62 3.84889 1.90156 0
M  V30 39450 C 3548.86 4.34094 3.10481 0
M  V30 39451 O 3549.08 3.82467 4.23172 0
M  V30 39452 O 3548.01 5.25927 2.9272 0
M  V30 39453 H 3551.84 2.99225 0.519433 0
M  V30 39454 H 3549.43 1.4818 0.190533 0
M  V30 39455 H 3551.31 2.98724 2.97224 0
M  V30 39456 H 3549.98 1.83019 2.66994 0
M  V30 39457 H 3548.89 3.56509 1.13367 0
M  V30 39458 H 3550.22 4.68455 1.51031 0
M  V30 39459 N 3551.87 -0.243029 1.55715 0
M  V30 39460 C 3553.12 -0.968459 1.76929 0
M  V30 39461 C 3553.44 -1.86338 0.59478 0
M  V30 39462 O 3554.64 -2.62585 0.690027 0
M  V30 39463 C 3553.1 -1.77208 3.1325 0
M  V30 39464 C 3552.71 -0.924363 4.3836 0
M  V30 39465 C 3554.45 -2.49001 3.438 0
M  V30 39466 C 3552.36 -1.7241 5.65711 0
M  V30 39467 H 3551.29 -0.365334 0.659581 0
M  V30 39468 H 3553.94 -0.222994 1.8214 0
M  V30 39469 H 3552.32 -2.55964 3.02156 0
M  V30 39470 H 3553.49 -0.178855 4.60453 0
M  V30 39471 H 3551.81 -0.31958 4.15172 0
M  V30 39472 H 3554.41 -3.09296 4.36165 0
M  V30 39473 H 3554.75 -3.20812 2.65303 0
M  V30 39474 H 3555.28 -1.77252 3.56127 0
M  V30 39475 H 3552.02 -1.04966 6.47041 0
M  V30 39476 H 3551.54 -2.44478 5.47714 0
M  V30 39477 H 3553.22 -2.29025 6.05109 0
M  V30 39478 N 3553.35 -1.49159 -0.508854 0
M  V30 39479 C 3554.28 -1.68157 -1.62005 0
M  V30 39480 C 3555.26 -0.530278 -1.61623 0
M  V30 39481 O 3556.45 -0.765236 -1.78487 0
M  V30 39482 C 3553.58 -1.7408 -3.00522 0
M  V30 39483 C 3552.53 -2.8892 -3.15767 0
M  V30 39484 C 3551.86 -2.7995 -4.55557 0
M  V30 39485 C 3553.16 -4.29959 -2.96535 0
M  V30 39486 H 3554.85 -2.61187 -1.46361 0
M  V30 39487 H 3552.4 -1.25692 -0.702683 0
M  V30 39488 H 3554.35 -1.85957 -3.78151 0
M  V30 39489 H 3553.08 -0.776428 -3.17237 0
M  V30 39490 H 3551.73 -2.76633 -2.40562 0
M  V30 39491 H 3551.38 -1.81437 -4.69137 0
M  V30 39492 H 3551.08 -3.57023 -4.667 0
M  V30 39493 H 3552.61 -2.93824 -5.35257 0
M  V30 39494 H 3554.02 -4.42969 -3.63939 0
M  V30 39495 H 3552.42 -5.08193 -3.19155 0
M  V30 39496 H 3553.49 -4.4495 -1.92737 0
M  V30 39497 N 3554.83 0.759322 -1.38102 0
M  V30 39498 C 3556.06 1.55365 -1.37392 0
M  V30 39499 C 3556.48 1.88066 0.0355766 0
M  V30 39500 O 3555.84 1.50152 1.01607 0
M  V30 39501 C 3555.89 2.83298 -2.23103 0
M  V30 39502 O 3554.99 3.78207 -1.64419 0
M  V30 39503 H 3554.33 0.470135 -0.468902 0
M  V30 39504 H 3556.86 0.938826 -1.81789 0
M  V30 39505 H 3556.87 3.32279 -2.36758 0
M  V30 39506 H 3555.55 2.58826 -3.25549 0
M  V30 39507 H 3554.12 3.3689 -1.59873 0
M  V30 39508 N 3556.31 1.22876 0.986873 0
M  V30 39509 C 3557.59 0.965341 1.70119 0
M  V30 39510 C 3557.97 -0.517888 2.04649 0
M  V30 39511 O 3557.31 -1.48746 1.73456 0
M  V30 39512 C 3557.52 1.86902 2.94735 0
M  V30 39513 C 3558.87 2.12867 3.67386 0
M  V30 39514 O 3559.9 1.84399 3.04755 0
M  V30 39515 O 3558.75 2.61114 4.80085 0
M  V30 39516 H 3555.85 0.36354 0.74281 0
M  V30 39517 H 3558.39 1.33889 1.04268 0
M  V30 39518 H 3557.17 2.872 2.65766 0
M  V30 39519 H 3556.79 1.49743 3.68324 0
M  V30 39520 N 3557.79 -1.18464 1.03942 0
M  V30 39521 C 3559.2 -1.70076 0.770139 0
M  V30 39522 C 3559.55 -1.82937 -0.709128 0
M  V30 39523 O 3558.67 -1.50798 -1.55206 0
M  V30 39524 C 3559.27 -3.08911 1.39138 0
M  V30 39525 C 3557.83 -3.5774 1.17044 0
M  V30 39526 C 3556.97 -2.34323 1.48283 0
M  V30 39527 H 3559.93 -1.03157 1.206 0
M  V30 39528 H 3559.95 -3.72125 0.793926 0
M  V30 39529 H 3559.46 -2.99519 2.468 0
M  V30 39530 H 3557.56 -3.7243 0.1125 0
M  V30 39531 H 3557.67 -4.41243 1.86658 0
M  V30 39532 H 3556.04 -2.38175 0.902479 0
M  V30 39533 H 3556.82 -2.27551 2.57051 0
M  V30 39534 N 3559.26 -0.818716 -1.34665 0
M  V30 39535 C 3560.49 -0.416621 -2.03172 0
M  V30 39536 C 3560.91 0.968293 -1.61263 0
M  V30 39537 O 3560.27 1.6293 -0.795199 0
M  V30 39538 C 3560.32 -0.521947 -3.56803 0
M  V30 39539 O 3559.42 0.459881 -4.09828 0
M  V30 39540 H 3558.77 -0.172148 -0.641297 0
M  V30 39541 H 3561.3 -1.10797 -1.72004 0
M  V30 39542 H 3561.31 -0.396172 -4.06072 0
M  V30 39543 H 3559.98 -1.53205 -3.86654 0
M  V30 39544 H 3558.56 0.29334 -3.71744 0
M  V30 39545 N 3560.74 1.46803 -0.573299 0
M  V30 39546 C 3562.02 1.95597 0.0111286 0
M  V30 39547 C 3562.4 1.51597 1.46907 0
M  V30 39548 O 3561.75 0.762248 2.15411 0
M  V30 39549 C 3561.96 3.48673 -0.151106 0
M  V30 39550 C 3563.31 4.24598 -0.0140564 0
M  V30 39551 O 3564.33 3.56111 -0.0794634 0
M  V30 39552 O 3563.19 5.46347 0.129451 0
M  V30 39553 H 3560.28 0.825162 0.0551113 0
M  V30 39554 H 3562.83 1.5713 -0.640956 0
M  V30 39555 H 3561.6 3.73555 -1.165 0
M  V30 39556 H 3561.22 3.93945 0.537847 0
M  V30 39557 N 3562.22 0.31058 1.54509 0
M  V30 39558 C 3563.5 -0.349476 1.92453 0
M  V30 39559 C 3563.88 -1.70927 1.23884 0
M  V30 39560 O 3563.23 -2.25353 0.377938 0
M  V30 39561 C 3563.44 -0.454614 3.46026 0
M  V30 39562 C 3564.78 -0.720998 4.18434 0
M  V30 39563 O 3565.81 -0.53805 3.52113 0
M  V30 39564 O 3564.67 -1.07305 5.35862 0
M  V30 39565 H 3561.76 -0.197089 0.803172 0
M  V30 39566 H 3564.31 0.359342 1.65852 0
M  V30 39567 H 3563.08 0.500921 3.8808 0
M  V30 39568 H 3562.7 -1.21152 3.78692 0
M  V30 39569 N 3563.7 -1.57553 0.0384871 0
M  V30 39570 C 3564.93 -1.96489 -0.648043 0
M  V30 39571 C 3565.34 -0.915443 -1.65121 0
M  V30 39572 O 3564.7 0.101747 -1.82216 0
M  V30 39573 C 3564.75 -3.355 -1.34617 0
M  V30 39574 O 3564.47 -4.36421 -0.383184 0
M  V30 39575 C 3565.97 -3.89122 -2.12365 0
M  V30 39576 H 3563.19 -0.646944 -0.178056 0
M  V30 39577 H 3565.74 -2.0425 0.101029 0
M  V30 39578 H 3563.89 -3.28929 -2.04657 0
M  V30 39579 H 3564.31 -5.17065 -0.880004 0
M  V30 39580 H 3565.78 -4.88706 -2.56652 0
M  V30 39581 H 3566.26 -3.23868 -2.96658 0
M  V30 39582 H 3566.86 -3.98991 -1.47263 0
M  V30 39583 N 3565.18 0.234767 -1.55842 0
M  V30 39584 C 3566.12 1.29082 -1.91328 0
M  V30 39585 C 3567.09 1.47232 -0.768894 0
M  V30 39586 O 3568.28 1.61017 -1.02363 0
M  V30 39587 C 3565.42 2.63886 -2.22392 0
M  V30 39588 C 3564.53 2.53644 -3.49698 0
M  V30 39589 C 3563.67 3.80882 -3.70273 0
M  V30 39590 C 3562.71 3.65308 -4.91138 0
M  V30 39591 N 3561.84 4.84465 -5.08171 0
M  V30 39592 H 3566.68 0.981197 -2.81383 0
M  V30 39593 H 3564.22 0.473215 -1.39281 0
M  V30 39594 H 3566.18 3.42369 -2.3841 0
M  V30 39595 H 3564.81 2.92972 -1.35526 0
M  V30 39596 H 3563.86 1.66666 -3.41945 0
M  V30 39597 H 3565.17 2.38051 -4.3833 0
M  V30 39598 H 3564.33 4.67808 -3.86316 0
M  V30 39599 H 3563.07 3.99386 -2.79897 0
M  V30 39600 H 3562.07 2.76765 -4.75059 0
M  V30 39601 H 3563.3 3.48288 -5.82986 0
M  V30 39602 H 3561.24 5.03307 -4.20735 0
M  V30 39603 H 3561.16 4.71549 -5.90913 0
M  V30 39604 H 3562.43 5.72855 -5.28637 0
M  V30 39605 N 3566.66 1.49427 0.500936 0
M  V30 39606 C 3567.9 1.58603 1.25258 0
M  V30 39607 C 3568.22 0.274681 1.93056 0
M  V30 39608 O 3567.49 -0.705971 1.82737 0
M  V30 39609 H 3566.07 0.58437 0.465318 0
M  V30 39610 H 3568.74 1.86053 0.580555 0
M  V30 39611 H 3567.83 2.38211 2.01648 0
M  V30 39612 N 3568.13 -0.751987 1.38502 0
M  V30 39613 C 3569.38 -1.51115 1.34798 0
M  V30 39614 C 3569.71 -1.94403 -0.0614742 0
M  V30 39615 O 3568.96 -1.65848 -1.03889 0
M  V30 39616 C 3569.26 -2.77592 2.25116 0
M  V30 39617 C 3568.93 -2.53259 3.73056 0
M  V30 39618 C 3567.59 -2.46332 4.13369 0
M  V30 39619 C 3569.94 -2.32043 4.66696 0
M  V30 39620 C 3567.27 -2.16206 5.4541 0
M  V30 39621 C 3569.62 -2.03438 5.98996 0
M  V30 39622 C 3568.29 -1.94968 6.38392 0
M  V30 39623 H 3567.56 -0.55297 0.49326 0
M  V30 39624 H 3570.2 -0.864558 1.70873 0
M  V30 39625 H 3568.51 -3.4691 1.82102 0
M  V30 39626 H 3570.21 -3.35556 2.19552 0
M  V30 39627 H 3566.8 -2.59522 3.41096 0
M  V30 39628 H 3570.98 -2.36373 4.36396 0
M  V30 39629 H 3566.24 -2.08158 5.74874 0
M  V30 39630 H 3570.41 -1.86026 6.71094 0
M  V30 39631 H 3568.04 -1.71389 7.40628 0
M  V30 39632 N 3569.61 -1.23398 -0.980343 0
M  V30 39633 C 3570.86 -1.0661 -1.72164 0
M  V30 39634 C 3571.19 0.396995 -1.90405 0
M  V30 39635 O 3570.44 1.31024 -1.45366 0
M  V30 39636 C 3570.74 -1.73677 -3.12364 0
M  V30 39637 C 3570.41 -3.23596 -3.14001 0
M  V30 39638 C 3569.07 -3.64499 -3.14155 0
M  V30 39639 C 3571.42 -4.19495 -3.09312 0
M  V30 39640 C 3568.75 -4.99761 -3.07336 0
M  V30 39641 C 3571.1 -5.54748 -3.04035 0
M  V30 39642 C 3569.76 -5.95016 -3.02511 0
M  V30 39643 H 3569.03 -0.390115 -0.629993 0
M  V30 39644 H 3571.68 -1.53332 -1.14724 0
M  V30 39645 H 3569.99 -1.19315 -3.73191 0
M  V30 39646 H 3571.68 -1.58165 -3.6849 0
M  V30 39647 H 3568.27 -2.91034 -3.14639 0
M  V30 39648 H 3572.46 -3.88902 -3.08332 0
M  V30 39649 H 3567.71 -5.30174 -3.04509 0
M  V30 39650 H 3571.89 -6.28772 -2.99363 0
M  V30 39651 H 3569.51 -6.9979 -2.96982 0
M  V30 39652 N 3571.09 1.17911 -1.04569 0
M  V30 39653 C 3572.37 1.83908 -0.666115 0
M  V30 39654 C 3572.75 1.93053 0.854029 0
M  V30 39655 O 3572.09 1.46029 1.75749 0
M  V30 39656 C 3572.3 3.21924 -1.34781 0
M  V30 39657 C 3573.65 3.97903 -1.48184 0
M  V30 39658 O 3574.68 3.31381 -1.30632 0
M  V30 39659 O 3573.54 5.171 -1.76832 0
M  V30 39660 H 3570.63 0.79329 -0.233708 0
M  V30 39661 H 3573.18 1.25261 -1.14489 0
M  V30 39662 H 3571.95 3.102 -2.38519 0
M  V30 39663 H 3571.57 3.88232 -0.857982 0
M  V30 39664 N 3572.57 0.825847 1.34229 0
M  V30 39665 C 3573.98 0.473755 1.80589 0
M  V30 39666 C 3574.33 -1.00611 1.68439 0
M  V30 39667 O 3573.45 -1.78315 1.22609 0
M  V30 39668 C 3574.05 0.853156 3.27882 0
M  V30 39669 C 3572.61 0.553393 3.7231 0
M  V30 39670 C 3571.76 1.0685 2.55887 0
M  V30 39671 H 3574.71 1.01575 1.21935 0
M  V30 39672 H 3574.73 0.158081 3.80171 0
M  V30 39673 H 3574.24 1.93027 3.36693 0
M  V30 39674 H 3572.34 -0.514191 3.69035 0
M  V30 39675 H 3572.45 1.0995 4.66313 0
M  V30 39676 H 3570.82 0.489918 2.49944 0
M  V30 39677 H 3571.6 2.15212 2.67467 0
M  V30 39678 N 3574.05 -1.46497 0.581077 0
M  V30 39679 C 3574.99 -2.32008 -0.165903 0
M  V30 39680 C 3575.99 -1.44383 -0.88599 0
M  V30 39681 O 3577.19 -1.61018 -0.804564 0
M  V30 39682 H 3573.57 -0.74851 -0.0723703 0
M  V30 39683 H 3575.54 -2.92824 0.574141 0
M  V30 39684 C 3574.29 -3.27518 -1.16735 0
M  V30 39685 H 3573.61 -3.94921 -0.622687 0
M  V30 39686 H 3575.05 -3.90135 -1.66045 0
M  V30 39687 C 3573.51 -2.52753 -2.2275 0
M  V30 39688 O 3574.04 -2.28937 -3.30077 0
M  V30 39689 N 3572.25 -2.13343 -1.97315 0
M  V30 39690 H 3571.79 -2.32912 -1.10045 0
M  V30 39691 H 3571.75 -1.63638 -2.68458 0
M  V30 39692 N 3575.52 -0.31877 -1.54343 0
M  V30 39693 C 3576.75 0.287342 -2.04895 0
M  V30 39694 C 3577.17 1.46155 -1.19517 0
M  V30 39695 O 3576.52 1.81111 -0.224754 0
M  V30 39696 C 3576.57 0.726442 -3.54126 0
M  V30 39697 O 3576.3 -0.401044 -4.36261 0
M  V30 39698 C 3577.8 1.39586 -4.2075 0
M  V30 39699 H 3575.02 0.0598607 -0.668325 0
M  V30 39700 H 3577.56 -0.463566 -1.99177 0
M  V30 39701 H 3575.72 1.42733 -3.60147 0
M  V30 39702 H 3576.13 -0.0559636 -5.2447 0
M  V30 39703 H 3577.6 1.65409 -5.26634 0
M  V30 39704 H 3578.08 2.34163 -3.7157 0
M  V30 39705 H 3578.69 0.737675 -4.18854 0
M  V30 39706 N 3577 1.5753 -0.0468419 0
M  V30 39707 C 3577.91 2.14755 0.944324 0
M  V30 39708 C 3578.93 1.10425 1.34471 0
M  V30 39709 O 3580.1 1.42571 1.42251 0
M  V30 39710 C 3577.17 2.67772 2.20225 0
M  V30 39711 C 3576.23 3.86884 1.86063 0
M  V30 39712 C 3575.46 4.37362 3.05859 0
M  V30 39713 O 3575.69 3.86934 4.19092 0
M  V30 39714 O 3574.62 5.29002 2.87125 0
M  V30 39715 H 3578.45 2.99759 0.487667 0
M  V30 39716 H 3576.03 1.48374 0.174805 0
M  V30 39717 H 3577.91 3.0186 2.94038 0
M  V30 39718 H 3576.59 1.85841 2.65037 0
M  V30 39719 H 3575.49 3.57691 1.09579 0
M  V30 39720 H 3576.83 4.70031 1.46054 0
M  V30 39721 N 3578.48 -0.226499 1.55964 0
M  V30 39722 C 3579.39 -1.30175 1.95171 0
M  V30 39723 C 3580.41 -1.51553 0.854858 0
M  V30 39724 O 3581.58 -1.64779 1.15801 0
M  V30 39725 C 3578.65 -2.63245 2.25617 0
M  V30 39726 C 3577.71 -2.50212 3.48844 0
M  V30 39727 C 3576.94 -3.76937 3.77828 0
M  V30 39728 O 3577.16 -4.79734 3.08564 0
M  V30 39729 O 3576.1 -3.74345 4.71327 0
M  V30 39730 H 3579.92 -0.999095 2.86796 0
M  V30 39731 H 3577.51 -0.428955 1.4311 0
M  V30 39732 H 3579.39 -3.41844 2.46416 0
M  V30 39733 H 3578.07 -2.93201 1.37167 0
M  V30 39734 H 3576.97 -1.69831 3.33329 0
M  V30 39735 H 3578.31 -2.25197 4.37661 0
M  V30 39736 N 3579.96 -1.4969 -0.493005 0
M  V30 39737 C 3580.91 -1.67445 -1.61446 0
M  V30 39738 C 3581.9 -0.540324 -1.60552 0
M  V30 39739 O 3583.11 -0.720196 -1.64964 0
M  V30 39740 H 3579.48 -0.528136 -0.535328 0
M  V30 39741 H 3581.45 -2.61561 -1.43626 0
M  V30 39742 C 3580.2 -1.76564 -2.99534 0
M  V30 39743 H 3579.52 -2.63212 -3.00931 0
M  V30 39744 H 3580.96 -1.93019 -3.77518 0
M  V30 39745 C 3579.42 -0.512234 -3.32983 0
M  V30 39746 O 3579.95 0.3585 -4.00097 0
M  V30 39747 N 3578.16 -0.372784 -2.88199 0
M  V30 39748 H 3577.71 -1.08236 -2.33758 0
M  V30 39749 H 3577.66 0.464749 -3.10946 0
M  V30 39750 N 3581.44 0.744631 -1.38899 0
M  V30 39751 C 3582.37 1.87193 -1.39575 0
M  V30 39752 C 3583.35 1.68095 -0.260402 0
M  V30 39753 O 3584.53 1.88555 -0.464809 0
M  V30 39754 C 3581.66 3.2483 -1.22895 0
M  V30 39755 C 3580.62 3.58546 -2.33727 0
M  V30 39756 C 3579.94 4.95017 -2.02145 0
M  V30 39757 C 3581.24 3.62504 -3.76016 0
M  V30 39758 H 3582.94 1.86885 -2.33911 0
M  V30 39759 H 3580.48 0.89772 -1.12592 0
M  V30 39760 H 3582.44 4.03356 -1.2199 0
M  V30 39761 H 3581.16 3.2564 -0.25023 0
M  V30 39762 H 3579.82 2.82344 -2.33833 0
M  V30 39763 H 3579.47 4.92397 -1.02735 0
M  V30 39764 H 3579.17 5.18544 -2.7638 0
M  V30 39765 H 3580.69 5.75912 -2.02874 0
M  V30 39766 H 3582.1 4.31127 -3.77892 0
M  V30 39767 H 3580.5 3.97545 -4.49531 0
M  V30 39768 H 3581.57 2.62526 -4.07686 0
M  V30 39769 N 3582.91 1.23916 0.973785 0
M  V30 39770 C 3584.14 1.10209 1.75105 0
M  V30 39771 C 3584.56 -0.345903 1.85604 0
M  V30 39772 O 3583.91 -1.23898 1.33999 0
M  V30 39773 C 3583.97 1.72915 3.17463 0
M  V30 39774 O 3583.69 3.12052 3.07498 0
M  V30 39775 C 3585.19 1.64737 4.11554 0
M  V30 39776 H 3582.41 0.385355 0.549311 0
M  V30 39777 H 3584.95 1.639 1.22298 0
M  V30 39778 H 3583.11 1.23241 3.67274 0
M  V30 39779 H 3583.52 3.42582 3.97163 0
M  V30 39780 H 3584.99 2.13304 5.09122 0
M  V30 39781 H 3585.47 0.607428 4.34979 0
M  V30 39782 H 3586.08 2.13809 3.67649 0
M  V30 39783 N 3584.39 -1.17355 1.05193 0
M  V30 39784 C 3585.62 -1.91258 0.781272 0
M  V30 39785 C 3586.03 -1.77059 -0.666849 0
M  V30 39786 O 3585.37 -1.10528 -1.46728 0
M  V30 39787 C 3585.44 -3.42821 1.08231 0
M  V30 39788 C 3585.1 -3.80803 2.52662 0
M  V30 39789 C 3586.1 -3.83648 3.50871 0
M  V30 39790 C 3583.78 -4.11765 2.87671 0
M  V30 39791 C 3585.78 -4.16923 4.82135 0
M  V30 39792 C 3583.46 -4.4471 4.19138 0
M  V30 39793 C 3584.46 -4.47267 5.1618 0
M  V30 39794 O 3584.15 -4.79435 6.45288 0
M  V30 39795 H 3583.88 -0.613668 0.283527 0
M  V30 39796 H 3586.43 -1.49755 1.40579 0
M  V30 39797 H 3584.66 -3.84618 0.400691 0
M  V30 39798 H 3586.35 -3.97985 0.797663 0
M  V30 39799 H 3587.12 -3.59852 3.25164 0
M  V30 39800 H 3583 -4.08946 2.128 0
M  V30 39801 H 3586.54 -4.18834 5.57874 0
M  V30 39802 H 3582.44 -4.67969 4.44607 0
M  V30 39803 H 3583.21 -4.97292 6.5011 0
M  V30 39804 N 3585.87 -0.832954 -1.3379 0
M  V30 39805 C 3586.8 -0.276887 -2.31853 0
M  V30 39806 C 3587.78 0.612156 -1.58703 0
M  V30 39807 O 3588.97 0.536943 -1.86629 0
M  V30 39808 C 3586.1 0.55379 -3.42856 0
M  V30 39809 C 3585.05 -0.23896 -4.27332 0
M  V30 39810 C 3584.38 0.715094 -5.29897 0
M  V30 39811 C 3585.68 -1.45274 -5.0169 0
M  V30 39812 H 3587.37 -1.09623 -2.78609 0
M  V30 39813 H 3584.92 -0.528586 -1.33948 0
M  V30 39814 H 3586.87 0.953061 -4.10481 0
M  V30 39815 H 3585.59 1.40629 -2.94773 0
M  V30 39816 H 3584.25 -0.619719 -3.61324 0
M  V30 39817 H 3583.9 1.56382 -4.78073 0
M  V30 39818 H 3583.6 0.188818 -5.87297 0
M  V30 39819 H 3585.12 1.11201 -6.00389 0
M  V30 39820 H 3586.54 -1.12695 -5.62115 0
M  V30 39821 H 3584.94 -1.91538 -5.68712 0
M  V30 39822 H 3586.01 -2.22565 -4.30805 0
M  V30 39823 N 3587.35 1.46186 -0.588837 0
M  V30 39824 C 3588.28 2.28502 0.178784 0
M  V30 39825 C 3589.29 1.38869 0.849662 0
M  V30 39826 O 3590.48 1.63414 0.718196 0
M  V30 39827 C 3587.58 3.14081 1.27303 0
M  V30 39828 C 3586.76 4.31877 0.692898 0
M  V30 39829 C 3585.81 4.98808 1.67563 0
M  V30 39830 O 3584.84 5.56206 1.20927 0
M  V30 39831 N 3586.04 4.96376 3.00983 0
M  V30 39832 H 3588.81 2.95022 -0.527459 0
M  V30 39833 H 3586.37 1.56167 -0.427026 0
M  V30 39834 H 3588.36 3.55722 1.92987 0
M  V30 39835 H 3586.93 2.49595 1.88205 0
M  V30 39836 H 3586.15 3.93946 -0.141555 0
M  V30 39837 H 3587.44 5.08 0.285201 0
M  V30 39838 H 3586.84 4.51 3.4149 0
M  V30 39839 H 3585.39 5.41939 3.62139 0
M  V30 39840 N 3588.83 0.32695 1.54171 0
M  V30 39841 C 3589.76 -0.530114 2.27403 0
M  V30 39842 C 3590.74 -1.11652 1.28327 0
M  V30 39843 O 3591.92 -1.14102 1.57144 0
M  V30 39844 C 3589.05 -1.68945 3.03438 0
M  V30 39845 C 3588.01 -1.23218 4.0988 0
M  V30 39846 C 3587.33 -2.47874 4.73775 0
M  V30 39847 C 3588.63 -0.344607 5.21162 0
M  V30 39848 H 3590.33 0.0807485 2.99291 0
M  V30 39849 H 3587.87 0.0402764 1.43944 0
M  V30 39850 H 3589.83 -2.29535 3.534 0
M  V30 39851 H 3588.55 -2.32696 2.29173 0
M  V30 39852 H 3587.21 -0.649204 3.60806 0
M  V30 39853 H 3586.86 -3.09995 3.96121 0
M  V30 39854 H 3586.56 -2.17967 5.45678 0
M  V30 39855 H 3588.08 -3.09219 5.26513 0
M  V30 39856 H 3589.49 -0.85688 5.6686 0
M  V30 39857 H 3587.89 -0.138171 5.99941 0
M  V30 39858 H 3588.96 0.623659 4.80873 0
M  V30 39859 N 3590.3 -1.57503 0.0551955 0
M  V30 39860 C 3591.25 -2.11766 -0.91781 0
M  V30 39861 C 3592.22 -1.02601 -1.30622 0
M  V30 39862 O 3593.41 -1.30172 -1.39499 0
M  V30 39863 C 3590.55 -2.6704 -2.18595 0
M  V30 39864 C 3589.66 -3.90304 -1.85166 0
M  V30 39865 C 3588.79 -4.33879 -3.06467 0
M  V30 39866 C 3587.83 -5.49834 -2.68979 0
M  V30 39867 N 3586.97 -5.88443 -3.82987 0
M  V30 39868 H 3591.81 -2.9461 -0.448184 0
M  V30 39869 H 3589.35 -1.45599 -0.209594 0
M  V30 39870 H 3591.31 -2.97188 -2.92806 0
M  V30 39871 H 3589.94 -1.86987 -2.63127 0
M  V30 39872 H 3588.99 -3.66723 -1.01087 0
M  V30 39873 H 3590.3 -4.7457 -1.53574 0
M  V30 39874 H 3589.45 -4.65601 -3.88974 0
M  V30 39875 H 3588.19 -3.48433 -3.41241 0
M  V30 39876 H 3587.2 -5.1778 -1.8489 0
M  V30 39877 H 3588.42 -6.36998 -2.35393 0
M  V30 39878 H 3586.37 -5.0595 -4.17553 0
M  V30 39879 H 3586.29 -6.6741 -3.55106 0
M  V30 39880 H 3587.55 -6.24782 -4.6612 0
M  V30 39881 N 3591.78 0.218225 -1.56082 0
M  V30 39882 C 3592.69 1.29138 -1.95859 0
M  V30 39883 C 3593.71 1.51097 -0.862883 0
M  V30 39884 O 3594.88 1.64163 -1.16673 0
M  V30 39885 C 3591.95 2.62045 -2.2701 0
M  V30 39886 C 3591.01 2.48359 -3.50166 0
M  V30 39887 C 3590.24 3.74928 -3.79822 0
M  V30 39888 O 3590.47 4.78091 -3.11104 0
M  V30 39889 O 3589.4 3.71841 -4.73306 0
M  V30 39890 H 3593.23 0.983872 -2.87322 0
M  V30 39891 H 3590.81 0.421359 -1.43335 0
M  V30 39892 H 3592.69 3.40532 -2.48226 0
M  V30 39893 H 3591.37 2.92469 -1.3872 0
M  V30 39894 H 3590.28 1.68061 -3.34225 0
M  V30 39895 H 3591.61 2.22873 -4.38849 0
M  V30 39896 N 3593.26 1.4995 0.485059 0
M  V30 39897 C 3594.68 1.37066 0.817626 0
M  V30 39898 C 3594.88 0.415983 1.97159 0
M  V30 39899 O 3593.93 -0.146522 2.52075 0
M  V30 39900 C 3595.25 2.78136 1.14283 0
M  V30 39901 C 3596.79 2.86952 1.25011 0
M  V30 39902 C 3597.27 4.28825 1.60852 0
M  V30 39903 N 3598.76 4.3171 1.67871 0
M  V30 39904 C 3599.5 5.38467 1.97079 0
M  V30 39905 N 3598.99 6.5545 2.24404 0
M  V30 39906 N 3600.78 5.25898 1.98464 0
M  V30 39907 H 3592.94 2.10604 -0.275643 0
M  V30 39908 H 3595.2 0.946051 -0.0607653 0
M  V30 39909 H 3594.9 3.49768 0.368109 0
M  V30 39910 H 3594.78 3.14506 2.08245 0
M  V30 39911 H 3597.17 2.15547 2.01552 0
M  V30 39912 H 3597.25 2.54144 0.290619 0
M  V30 39913 H 3596.89 5.00761 0.848551 0
M  V30 39914 H 3596.82 4.59109 2.57927 0
M  V30 39915 H 3599.31 3.4735 1.4885 0
M  V30 39916 H 3599.62 7.32626 2.45925 0
M  V30 39917 H 3597.97 6.58649 2.21826 0
M  V30 39918 H 3601.16 4.33507 1.76605 0
M  V30 39919 H 3601.33 6.09188 2.20893 0
M  V30 39920 N 3594.74 -0.737255 1.39292 0
M  V30 39921 C 3595.98 -1.50944 1.37824 0
M  V30 39922 C 3596.34 -1.91981 -0.0268887 0
M  V30 39923 O 3597.54 -2.68283 -0.166563 0
M  V30 39924 C 3595.82 -2.71737 2.3215 0
M  V30 39925 S 3597.37 -3.61414 2.48849 0
M  V30 39926 H 3594.19 -0.516339 0.488789 0
M  V30 39927 H 3596.79 -0.864065 1.75369 0
M  V30 39928 H 3595.5 -2.39725 3.33107 0
M  V30 39929 H 3595.03 -3.41205 1.95812 0
M  V30 39930 H 3597.04 -4.65261 1.72472 0
M  V30 39931 N 3596.22 -1.24431 -0.967199 0
M  V30 39932 C 3597.47 -1.07832 -1.70456 0
M  V30 39933 C 3597.78 0.382746 -1.91819 0
M  V30 39934 O 3598.99 0.668936 -2.6313 0
M  V30 39935 C 3597.44 -1.88131 -3.06814 0
M  V30 39936 C 3597.05 -3.3865 -2.93292 0
M  V30 39937 C 3598.79 -1.80063 -3.84419 0
M  V30 39938 C 3596.7 -4.11291 -4.24963 0
M  V30 39939 H 3595.63 -0.399908 -0.63921 0
M  V30 39940 H 3598.28 -1.48516 -1.07773 0
M  V30 39941 H 3596.66 -1.40261 -3.70328 0
M  V30 39942 H 3597.84 -3.94104 -2.38787 0
M  V30 39943 H 3596.15 -3.47675 -2.29152 0
M  V30 39944 H 3598.75 -2.31637 -4.81921 0
M  V30 39945 H 3599.09 -0.765979 -4.09192 0
M  V30 39946 H 3599.63 -2.25616 -3.27632 0
M  V30 39947 H 3596.36 -5.15117 -4.05382 0
M  V30 39948 H 3595.88 -3.60623 -4.79282 0
M  V30 39949 H 3597.56 -4.18317 -4.93579 0
M  V30 39950 N 3597.7 1.16795 -1.05814 0
M  V30 39951 C 3598.64 2.21023 -0.664638 0
M  V30 39952 C 3599.61 1.62659 0.336324 0
M  V30 39953 O 3600.8 1.89453 0.226313 0
M  V30 39954 C 3597.94 3.45061 -0.0521345 0
M  V30 39955 C 3597.05 4.1769 -1.10269 0
M  V30 39956 C 3596.19 5.29232 -0.456839 0
M  V30 39957 C 3595.22 5.93656 -1.49126 0
M  V30 39958 N 3594.36 6.967 -0.869125 0
M  V30 39959 H 3599.2 2.54036 -1.55788 0
M  V30 39960 H 3596.74 1.24779 -0.779015 0
M  V30 39961 H 3598.7 4.15967 0.320479 0
M  V30 39962 H 3597.33 3.12613 0.804537 0
M  V30 39963 H 3596.38 3.45436 -1.59306 0
M  V30 39964 H 3597.69 4.61703 -1.88765 0
M  V30 39965 H 3596.84 6.06692 -0.030988 0
M  V30 39966 H 3595.58 4.86369 0.360045 0
M  V30 39967 H 3594.59 5.14922 -1.92706 0
M  V30 39968 H 3595.81 6.38599 -2.31016 0
M  V30 39969 H 3593.76 6.5596 -0.0728647 0
M  V30 39970 H 3593.68 7.39058 -1.59154 0
M  V30 39971 H 3594.94 7.78092 -0.468257 0
M  V30 39972 N 3599.17 0.840037 1.33346 0
M  V30 39973 C 3600.45 0.358192 1.92292 0
M  V30 39974 C 3600.83 -1.15659 1.76596 0
M  V30 39975 O 3600.18 -1.97156 1.15507 0
M  V30 39976 C 3600.39 0.806389 3.39556 0
M  V30 39977 C 3601.74 0.815083 4.16703 0
M  V30 39978 O 3602.76 0.750071 3.48213 0
M  V30 39979 O 3601.62 0.903913 5.38973 0
M  V30 39980 H 3598.71 0.101599 0.820735 0
M  V30 39981 H 3601.26 0.925967 1.42211 0
M  V30 39982 H 3600.03 1.84903 3.44858 0
M  V30 39983 H 3599.65 0.215251 3.97017 0
M  V30 39984 N 3600.65 -1.45872 0.596582 0
M  V30 39985 C 3601.56 -2.34235 -0.130791 0
M  V30 39986 C 3602.58 -1.50586 -0.871779 0
M  V30 39987 O 3603.75 -1.83418 -0.831844 0
M  V30 39988 C 3600.82 -3.28018 -1.12273 0
M  V30 39989 C 3599.88 -4.27571 -0.384907 0
M  V30 39990 C 3599.11 -5.16873 -1.3296 0
M  V30 39991 O 3599.34 -5.0938 -2.56687 0
M  V30 39992 O 3598.27 -5.96113 -0.832636 0
M  V30 39993 H 3602.1 -2.97813 0.595083 0
M  V30 39994 H 3599.68 -1.45074 0.356898 0
M  V30 39995 H 3601.56 -3.85837 -1.69434 0
M  V30 39996 H 3600.24 -2.67019 -1.82983 0
M  V30 39997 H 3599.14 -3.73399 0.228882 0
M  V30 39998 H 3600.48 -4.91394 0.281485 0
M  V30 39999 N 3602.13 -0.335122 -1.53996 0
M  V30 40000 C 3603.04 0.534203 -2.28437 0
M  V30 40001 C 3604.06 1.11924 -1.33226 0
M  V30 40002 O 3605.23 1.13673 -1.66254 0
M  V30 40003 C 3602.3 1.67349 -3.03637 0
M  V30 40004 C 3601.36 1.11909 -4.14457 0
M  V30 40005 C 3600.59 2.20407 -4.86062 0
M  V30 40006 O 3600.81 3.40971 -4.57269 0
M  V30 40007 O 3599.75 1.85175 -5.72707 0
M  V30 40008 H 3603.57 -0.0706848 -3.03618 0
M  V30 40009 H 3601.16 -0.100435 -1.49062 0
M  V30 40010 H 3603.04 2.33653 -3.50691 0
M  V30 40011 H 3601.72 2.26434 -2.31321 0
M  V30 40012 H 3600.62 0.420806 -3.71726 0
M  V30 40013 H 3601.96 0.573209 -4.88851 0
M  V30 40014 N 3603.61 1.57472 -0.0635475 0
M  V30 40015 C 3604.84 1.97495 0.616701 0
M  V30 40016 C 3605.25 0.941596 1.63644 0
M  V30 40017 O 3604.61 -0.0727448 1.82355 0
M  V30 40018 C 3604.66 3.376 1.29262 0
M  V30 40019 O 3604.38 4.36975 0.313705 0
M  V30 40020 C 3605.88 3.92452 2.06147 0
M  V30 40021 H 3603.1 0.649695 0.167741 0
M  V30 40022 H 3605.64 2.04064 -0.133511 0
M  V30 40023 H 3603.8 3.32143 1.99398 0
M  V30 40024 H 3604.21 5.184 0.797632 0
M  V30 40025 H 3605.69 4.92728 2.48844 0
M  V30 40026 H 3606.16 3.28547 2.91468 0
M  V30 40027 H 3606.77 4.01283 1.40896 0
M  V30 40028 N 3605.09 -0.209945 1.56195 0
M  V30 40029 C 3606.33 -0.930764 1.79391 0
M  V30 40030 C 3606.65 -1.84403 0.634071 0
M  V30 40031 O 3605.92 -1.92776 -0.348434 0
M  V30 40032 H 3604.5 -0.346678 0.661682 0
M  V30 40033 H 3607.17 -0.219015 1.93666 0
M  V30 40034 H 3606.26 -1.53071 2.71985 0
M  V30 40035 N 3606.56 -1.50205 -0.4771 0
M  V30 40036 C 3607.49 -1.71555 -1.58402 0
M  V30 40037 C 3608.47 -0.564441 -1.60462 0
M  V30 40038 O 3609.66 -0.802924 -1.76824 0
M  V30 40039 C 3606.79 -1.80415 -2.96762 0
M  V30 40040 C 3605.74 -2.95553 -3.09568 0
M  V30 40041 C 3605.07 -2.8955 -4.49516 0
M  V30 40042 C 3606.37 -4.36152 -2.87348 0
M  V30 40043 H 3608.06 -2.64233 -1.40788 0
M  V30 40044 H 3605.61 -1.27154 -0.675864 0
M  V30 40045 H 3607.56 -1.93936 -3.74121 0
M  V30 40046 H 3606.29 -0.843544 -3.15518 0
M  V30 40047 H 3604.95 -2.81673 -2.3464 0
M  V30 40048 H 3604.59 -1.91347 -4.65183 0
M  V30 40049 H 3604.29 -3.66842 -4.59022 0
M  V30 40050 H 3605.82 -3.05111 -5.28904 0
M  V30 40051 H 3607.23 -4.50589 -3.54461 0
M  V30 40052 H 3605.63 -5.14848 -3.08304 0
M  V30 40053 H 3606.7 -4.48938 -1.83256 0
M  V30 40054 N 3608.04 0.729857 -1.39681 0
M  V30 40055 C 3609.28 1.50211 -1.38622 0
M  V30 40056 C 3609.65 1.91993 0.0167071 0
M  V30 40057 O 3610.85 2.68368 0.152333 0
M  V30 40058 C 3609.12 2.70502 -2.33588 0
M  V30 40059 S 3610.68 3.60089 -2.50762 0
M  V30 40060 H 3607.5 0.51374 -0.49152 0
M  V30 40061 H 3610.1 0.854752 -1.75824 0
M  V30 40062 H 3608.8 2.37955 -3.34373 0
M  V30 40063 H 3608.33 3.40162 -1.97619 0
M  V30 40064 H 3610.35 4.6434 -1.74937 0
M  V30 40065 N 3609.52 1.24942 0.960587 0
M  V30 40066 C 3610.45 1.07277 2.07398 0
M  V30 40067 C 3611.43 -0.0164066 1.70092 0
M  V30 40068 O 3612.62 0.152009 1.93604 0
M  V30 40069 C 3609.75 0.684377 3.4049 0
M  V30 40070 C 3608.7 1.72312 3.91781 0
M  V30 40071 C 3608.03 1.18959 5.21299 0
M  V30 40072 C 3609.33 3.12064 4.18824 0
M  V30 40073 H 3611.02 2.00408 2.22434 0
M  V30 40074 H 3608.57 0.964956 1.06886 0
M  V30 40075 H 3610.52 0.54776 4.17825 0
M  V30 40076 H 3609.24 -0.28263 3.25375 0
M  V30 40077 H 3607.9 1.84808 3.1661 0
M  V30 40078 H 3607.55 0.21298 5.02549 0
M  V30 40079 H 3607.25 1.8838 5.56585 0
M  V30 40080 H 3608.77 1.06524 6.01236 0
M  V30 40081 H 3610.19 3.02756 4.86838 0
M  V30 40082 H 3608.59 3.78902 4.65353 0
M  V30 40083 H 3609.66 3.5957 3.25327 0
M  V30 40084 N 3611 -1.16233 1.06432 0
M  V30 40085 C 3611.93 -2.22834 0.697644 0
M  V30 40086 C 3612.91 -1.67241 -0.310534 0
M  V30 40087 O 3614.09 -1.93313 -0.185351 0
M  V30 40088 C 3611.22 -3.47197 0.0847707 0
M  V30 40089 C 3610.18 -4.15691 1.01908 0
M  V30 40090 C 3609.5 -5.34021 0.269433 0
M  V30 40091 C 3610.8 -4.66512 2.3487 0
M  V30 40092 H 3612.5 -2.53762 1.58888 0
M  V30 40093 H 3610.04 -1.21973 0.765409 0
M  V30 40094 H 3612 -4.21 -0.183626 0
M  V30 40095 H 3610.72 -3.15573 -0.841484 0
M  V30 40096 H 3609.38 -3.43816 1.27224 0
M  V30 40097 H 3609.03 -4.98651 -0.659985 0
M  V30 40098 H 3608.73 -5.80788 0.892103 0
M  V30 40099 H 3610.25 -6.10599 0.00861508 0
M  V30 40100 H 3611.67 -5.31889 2.13932 0
M  V30 40101 H 3610.06 -5.23906 2.92647 0
M  V30 40102 H 3611.13 -3.82647 2.97841 0
M  V30 40103 N 3612.48 -0.847097 -1.32899 0
M  V30 40104 C 3613.89 -0.502426 -1.79813 0
M  V30 40105 C 3614.24 0.979188 -1.70019 0
M  V30 40106 O 3613.36 1.76341 -1.2543 0
M  V30 40107 C 3613.96 -0.905212 -3.26483 0
M  V30 40108 C 3612.52 -0.612554 -3.71382 0
M  V30 40109 C 3611.66 -1.10907 -2.54155 0
M  V30 40110 H 3614.62 -1.03502 -1.20304 0
M  V30 40111 H 3614.64 -0.218543 -3.79872 0
M  V30 40112 H 3614.15 -1.98359 -3.3358 0
M  V30 40113 H 3612.25 0.455415 -3.69806 0
M  V30 40114 H 3612.36 -1.17355 -4.64505 0
M  V30 40115 H 3610.73 -0.52962 -2.49133 0
M  V30 40116 H 3611.51 -2.1944 -2.64009 0
M  V30 40117 N 3613.95 1.45554 -0.604309 0
M  V30 40118 C 3614.88 2.33269 0.103818 0
M  V30 40119 C 3615.87 1.46636 0.862078 0
M  V30 40120 O 3617.05 1.75414 0.833278 0
M  V30 40121 C 3614.18 3.29288 1.10394 0
M  V30 40122 C 3613.13 4.2553 0.459114 0
M  V30 40123 C 3612.46 5.11216 1.56725 0
M  V30 40124 C 3613.76 5.18636 -0.6176 0
M  V30 40125 H 3615.45 2.92727 -0.62859 0
M  V30 40126 H 3613 1.4076 -0.303735 0
M  V30 40127 H 3614.95 3.8952 1.60787 0
M  V30 40128 H 3613.68 2.67982 1.8669 0
M  V30 40129 H 3612.34 3.66592 -0.0239153 0
M  V30 40130 H 3611.98 4.4628 2.32041 0
M  V30 40131 H 3611.68 5.76409 1.14132 0
M  V30 40132 H 3613.21 5.74315 2.07351 0
M  V30 40133 H 3614.62 5.72958 -0.197884 0
M  V30 40134 H 3613.02 5.92289 -0.965094 0
M  V30 40135 H 3614.09 4.61262 -1.49549 0
M  V30 40136 N 3615.43 0.343284 1.53816 0
M  V30 40137 C 3616.38 -0.513625 2.25012 0
M  V30 40138 C 3617.35 -1.09576 1.24829 0
M  V30 40139 O 3618.53 -1.13243 1.5356 0
M  V30 40140 C 3615.67 -1.6588 3.02618 0
M  V30 40141 C 3614.79 -1.10399 4.17655 0
M  V30 40142 C 3613.92 -2.21645 4.8275 0
M  V30 40143 C 3612.96 -1.63514 5.89856 0
M  V30 40144 N 3612.1 -2.68501 6.48731 0
M  V30 40145 H 3616.94 0.100049 2.97832 0
M  V30 40146 H 3614.48 0.0611464 1.46973 0
M  V30 40147 H 3616.43 -2.33298 3.45873 0
M  V30 40148 H 3615.06 -2.24346 2.32096 0
M  V30 40149 H 3614.12 -0.320753 3.79045 0
M  V30 40150 H 3615.43 -0.6388 4.94693 0
M  V30 40151 H 3614.58 -2.96929 5.29073 0
M  V30 40152 H 3613.32 -2.71507 4.05136 0
M  V30 40153 H 3612.33 -0.867355 5.42915 0
M  V30 40154 H 3613.55 -1.14504 6.69377 0
M  V30 40155 H 3611.5 -3.17619 5.73981 0
M  V30 40156 H 3611.41 -2.26603 7.2124 0
M  V30 40157 H 3612.68 -3.43555 6.99707 0
M  V30 40158 N 3616.91 -1.57436 0.0718977 0
M  V30 40159 C 3617.82 -2.1623 -0.910039 0
M  V30 40160 C 3618.84 -1.1255 -1.32697 0
M  V30 40161 O 3620.01 -1.44816 -1.39965 0
M  V30 40162 C 3617.08 -2.71241 -2.15938 0
M  V30 40163 C 3616.14 -3.89795 -1.79885 0
M  V30 40164 C 3615.37 -4.42173 -2.98862 0
M  V30 40165 O 3615.59 -3.93553 -4.12883 0
M  V30 40166 O 3614.53 -5.33503 -2.78673 0
M  V30 40167 H 3618.35 -3.00497 -0.439917 0
M  V30 40168 H 3615.94 -1.48633 -0.151178 0
M  V30 40169 H 3617.82 -3.065 -2.89199 0
M  V30 40170 H 3616.5 -1.90034 -2.62047 0
M  V30 40171 H 3615.4 -3.5939 -1.03875 0
M  V30 40172 H 3616.74 -4.72295 -1.38558 0
M  V30 40173 N 3618.39 0.201658 -1.56305 0
M  V30 40174 C 3619.34 1.24995 -1.94023 0
M  V30 40175 C 3620.31 1.45568 -0.799951 0
M  V30 40176 O 3621.49 1.5881 -1.05755 0
M  V30 40177 C 3618.63 2.59109 -2.2794 0
M  V30 40178 C 3617.74 2.4617 -3.54999 0
M  V30 40179 C 3616.88 3.72942 -3.78269 0
M  V30 40180 C 3615.92 3.54808 -4.98776 0
M  V30 40181 N 3615.05 4.73577 -5.18333 0
M  V30 40182 H 3619.89 0.921291 -2.83401 0
M  V30 40183 H 3617.43 0.443565 -1.40253 0
M  V30 40184 H 3619.39 3.37235 -2.45619 0
M  V30 40185 H 3618.02 2.90031 -1.4171 0
M  V30 40186 H 3617.07 1.59375 -3.45404 0
M  V30 40187 H 3618.38 2.287 -4.43281 0
M  V30 40188 H 3617.54 4.59509 -3.96152 0
M  V30 40189 H 3616.28 3.93359 -2.88306 0
M  V30 40190 H 3615.28 2.66626 -4.80823 0
M  V30 40191 H 3616.51 3.35843 -5.90242 0
M  V30 40192 H 3614.45 4.94269 -4.31317 0
M  V30 40193 H 3614.37 4.58908 -6.00782 0
M  V30 40194 H 3615.64 5.61513 -5.40669 0
M  V30 40195 N 3619.87 1.50456 0.469128 0
M  V30 40196 C 3620.81 1.69462 1.56688 0
M  V30 40197 C 3621.78 0.535949 1.57216 0
M  V30 40198 O 3622.97 0.766745 1.74716 0
M  V30 40199 C 3620.11 1.79657 2.94648 0
M  V30 40200 C 3619.22 3.07038 3.03894 0
M  V30 40201 C 3618.36 3.08017 4.32781 0
M  V30 40202 C 3617.4 4.29844 4.35776 0
M  V30 40203 N 3616.53 4.28551 5.56137 0
M  V30 40204 H 3621.37 2.6318 1.39786 0
M  V30 40205 H 3618.91 1.3046 0.679605 0
M  V30 40206 H 3620.87 1.83548 3.74654 0
M  V30 40207 H 3619.5 0.893767 3.1018 0
M  V30 40208 H 3618.55 3.12609 2.16748 0
M  V30 40209 H 3619.86 3.97011 3.01967 0
M  V30 40210 H 3619.02 3.10648 5.21136 0
M  V30 40211 H 3617.75 2.15878 4.37319 0
M  V30 40212 H 3616.76 4.27423 3.45818 0
M  V30 40213 H 3617.98 5.23212 4.32927 0
M  V30 40214 H 3615.93 3.39266 5.61458 0
M  V30 40215 H 3615.85 5.12294 5.55959 0
M  V30 40216 H 3617.12 4.35331 6.46612 0
M  V30 40217 N 3621.34 -0.722439 1.40066 0
M  V30 40218 C 3622.29 -1.83652 1.39788 0
M  V30 40219 C 3623.26 -1.64119 0.255771 0
M  V30 40220 O 3624.45 -1.85349 0.452798 0
M  V30 40221 C 3621.59 -3.21295 1.25951 0
M  V30 40222 C 3620.7 -3.52447 2.49811 0
M  V30 40223 C 3619.83 -4.79558 2.28468 0
M  V30 40224 C 3618.87 -5.03592 3.47939 0
M  V30 40225 N 3618.01 -6.21914 3.25834 0
M  V30 40226 H 3622.85 -1.83225 2.35016 0
M  V30 40227 H 3620.39 -0.895134 1.16729 0
M  V30 40228 H 3622.35 -4.00767 1.15938 0
M  V30 40229 H 3620.98 -3.20968 0.343458 0
M  V30 40230 H 3620.03 -2.6758 2.70379 0
M  V30 40231 H 3621.34 -3.6612 3.38759 0
M  V30 40232 H 3620.49 -5.67035 2.15768 0
M  V30 40233 H 3619.23 -4.68082 1.36934 0
M  V30 40234 H 3618.24 -4.14572 3.61123 0
M  V30 40235 H 3619.46 -5.16946 4.40391 0
M  V30 40236 H 3617.41 -6.11701 2.36976 0
M  V30 40237 H 3617.33 -6.36232 4.08345 0
M  V30 40238 H 3618.59 -7.12197 3.16854 0
M  V30 40239 N 3622.82 -1.2545 -0.953947 0
M  V30 40240 C 3623.76 -1.01683 -2.0541 0
M  V30 40241 C 3624.77 0.0184646 -1.6279 0
M  V30 40242 O 3625.96 -0.220167 -1.77137 0
M  V30 40243 C 3623.06 -0.51535 -3.34959 0
M  V30 40244 C 3622.23 -1.61695 -4.06415 0
M  V30 40245 C 3621.29 -1.11573 -5.14235 0
M  V30 40246 O 3620.32 -1.81026 -5.39646 0
M  V30 40247 N 3621.52 0.0426207 -5.80484 0
M  V30 40248 H 3624.28 -1.96411 -2.26369 0
M  V30 40249 H 3621.84 -1.16664 -1.12255 0
M  V30 40250 H 3623.84 -0.164497 -4.04366 0
M  V30 40251 H 3622.41 0.338015 -3.10767 0
M  V30 40252 H 3621.63 -2.13935 -3.31097 0
M  V30 40253 H 3622.91 -2.35701 -4.50913 0
M  V30 40254 H 3622.31 0.62294 -5.6226 0
M  V30 40255 H 3620.87 0.334501 -6.50941 0
M  V30 40256 N 3624.3 1.15667 -1.07047 0
M  V30 40257 C 3625.55 1.86656 -0.792941 0
M  V30 40258 C 3625.88 1.81936 0.679181 0
M  V30 40259 O 3625.16 1.24033 1.4982 0
M  V30 40260 C 3625.44 3.35898 -1.29786 0
M  V30 40261 C 3625.29 3.49267 -2.8343 0
M  V30 40262 C 3626.61 4.30549 -0.911897 0
M  V30 40263 H 3623.73 0.677751 -0.289521 0
M  V30 40264 H 3626.37 1.35911 -1.32771 0
M  V30 40265 H 3624.52 3.79245 -0.842946 0
M  V30 40266 H 3626.19 3.14805 -3.37188 0
M  V30 40267 H 3624.44 2.90927 -3.21782 0
M  V30 40268 H 3625.11 4.54111 -3.13827 0
M  V30 40269 H 3627.58 3.95145 -1.30383 0
M  V30 40270 H 3626.46 5.33464 -1.29256 0
M  V30 40271 H 3626.72 4.41723 0.182473 0
M  V30 40272 N 3625.78 0.854133 1.32447 0
M  V30 40273 C 3626.71 0.255645 2.2777 0
M  V30 40274 C 3627.72 -0.572328 1.52408 0
M  V30 40275 O 3628.91 -0.396904 1.74031 0
M  V30 40276 C 3626.01 -0.657438 3.32462 0
M  V30 40277 C 3625.19 0.134569 4.37193 0
M  V30 40278 C 3624.25 -0.704196 5.21467 0
M  V30 40279 O 3623.27 -0.137901 5.69033 0
M  V30 40280 N 3624.47 -2.01901 5.44257 0
M  V30 40281 H 3627.24 1.07473 2.79767 0
M  V30 40282 H 3624.8 0.714063 1.45302 0
M  V30 40283 H 3626.79 -1.22389 3.8575 0
M  V30 40284 H 3625.36 -1.37721 2.80627 0
M  V30 40285 H 3624.58 0.882446 3.84196 0
M  V30 40286 H 3625.87 0.678596 5.04254 0
M  V30 40287 H 3625.27 -2.50244 5.07341 0
M  V30 40288 H 3623.82 -2.5336 6.00543 0
M  V30 40289 N 3627.26 -1.45231 0.61202 0
M  V30 40290 C 3628.49 -2.06578 0.115446 0
M  V30 40291 C 3628.9 -1.4559 -1.20203 0
M  V30 40292 O 3628.26 -0.571698 -1.73314 0
M  V30 40293 C 3628.31 -3.61491 -0.0259307 0
M  V30 40294 O 3628.03 -4.20202 1.23943 0
M  V30 40295 C 3629.53 -4.39832 -0.553445 0
M  V30 40296 H 3626.75 -0.667246 0.0708773 0
M  V30 40297 H 3629.29 -1.86406 0.84101 0
M  V30 40298 H 3627.45 -3.80989 -0.701842 0
M  V30 40299 H 3627.86 -5.13429 1.07196 0
M  V30 40300 H 3629.34 -5.48714 -0.601439 0
M  V30 40301 H 3629.81 -4.09925 -1.57663 0
M  V30 40302 H 3630.42 -4.25208 0.0885702 0
M  V30 40303 N 3628.74 -0.351436 -1.53632 0
M  V30 40304 C 3629.96 0.246465 -2.0593 0
M  V30 40305 C 3630.39 1.4281 -1.22421 0
M  V30 40306 O 3629.74 1.79707 -0.239843 0
M  V30 40307 C 3629.79 0.631799 -3.55022 0
M  V30 40308 O 3628.9 1.73085 -3.7432 0
M  V30 40309 H 3628.24 0.0392307 -0.66284 0
M  V30 40310 H 3630.77 -0.507939 -1.98195 0
M  V30 40311 H 3630.78 0.906761 -3.97796 0
M  V30 40312 H 3629.45 -0.232297 -4.15251 0
M  V30 40313 H 3628.03 1.45254 -3.43447 0
M  V30 40314 N 3630.21 1.57396 -0.0802459 0
M  V30 40315 C 3631.15 2.10199 0.91374 0
M  V30 40316 C 3632.16 1.03595 1.25586 0
M  V30 40317 O 3633.35 1.31085 1.21157 0
M  V30 40318 C 3630.45 2.55443 2.22716 0
M  V30 40319 C 3629.62 3.85714 2.06261 0
M  V30 40320 C 3628.68 4.16962 3.20982 0
M  V30 40321 O 3627.71 4.86425 2.956 0
M  V30 40322 N 3628.91 3.7118 4.46325 0
M  V30 40323 H 3631.67 2.96104 0.462856 0
M  V30 40324 H 3629.23 1.61557 0.105259 0
M  V30 40325 H 3631.23 2.73403 2.98384 0
M  V30 40326 H 3629.8 1.74628 2.59275 0
M  V30 40327 H 3629.02 3.7705 1.1501 0
M  V30 40328 H 3630.3 4.70968 1.92527 0
M  V30 40329 H 3629.7 3.15079 4.69831 0
M  V30 40330 H 3628.26 3.94323 5.18992 0
M  V30 40331 N 3631.69 -0.193366 1.56409 0
M  V30 40332 C 3632.64 -1.23964 1.94683 0
M  V30 40333 C 3633.61 -1.45142 0.80766 0
M  V30 40334 O 3634.79 -1.58246 1.06596 0
M  V30 40335 C 3631.93 -2.57897 2.29311 0
M  V30 40336 C 3631.05 -2.44283 3.563 0
M  V30 40337 C 3630.18 -3.70931 3.80242 0
M  V30 40338 C 3629.22 -3.52158 5.00651 0
M  V30 40339 N 3628.36 -4.70821 5.20837 0
M  V30 40340 H 3633.2 -0.906248 2.83886 0
M  V30 40341 H 3630.73 -0.436121 1.40486 0
M  V30 40342 H 3632.69 -3.35927 2.47404 0
M  V30 40343 H 3631.32 -2.89276 1.43246 0
M  V30 40344 H 3630.37 -1.57541 3.46244 0
M  V30 40345 H 3631.69 -2.26346 4.44487 0
M  V30 40346 H 3630.84 -4.57401 3.98583 0
M  V30 40347 H 3629.58 -3.91824 2.90388 0
M  V30 40348 H 3628.58 -2.64073 4.8223 0
M  V30 40349 H 3629.81 -3.32708 5.92015 0
M  V30 40350 H 3627.76 -4.91975 4.33932 0
M  V30 40351 H 3627.67 -4.55716 6.03207 0
M  V30 40352 H 3628.94 -5.58638 5.43639 0
M  V30 40353 N 3633.17 -1.50702 -0.461142 0
M  V30 40354 C 3634.12 -1.70832 -1.57858 0
M  V30 40355 C 3635.11 -0.574258 -1.5937 0
M  V30 40356 O 3636.32 -0.755025 -1.63399 0
M  V30 40357 H 3632.69 -0.539372 -0.524005 0
M  V30 40358 H 3634.66 -2.64549 -1.38046 0
M  V30 40359 C 3633.41 -1.82878 -2.95721 0
M  V30 40360 H 3632.74 -2.69536 -2.95281 0
M  V30 40361 H 3634.18 -2.00984 -3.73338 0
M  V30 40362 C 3632.63 -0.58275 -3.31822 0
M  V30 40363 O 3633.16 0.273553 -4.00767 0
M  V30 40364 N 3631.37 -0.433832 -2.87343 0
M  V30 40365 H 3630.92 -1.1317 -2.31409 0
M  V30 40366 H 3630.88 0.398688 -3.11862 0
M  V30 40367 N 3634.65 0.715001 -1.40447 0
M  V30 40368 C 3635.88 1.50409 -1.42073 0
M  V30 40369 C 3636.29 1.88789 -0.0205879 0
M  V30 40370 O 3635.65 1.55481 0.955608 0
M  V30 40371 C 3635.7 2.77905 -2.31195 0
M  V30 40372 O 3635.42 2.41148 -3.65759 0
M  V30 40373 C 3636.92 3.71796 -2.41418 0
M  V30 40374 H 3634.14 0.464155 -0.484562 0
M  V30 40375 H 3636.68 0.881932 -1.84505 0
M  V30 40376 H 3634.84 3.36404 -1.92123 0
M  V30 40377 H 3635.25 3.2319 -4.13096 0
M  V30 40378 H 3636.73 4.58093 -3.07984 0
M  V30 40379 H 3637.2 4.14943 -1.43941 0
M  V30 40380 H 3637.81 3.19208 -2.81045 0
M  V30 40381 N 3636.13 1.25954 0.947281 0
M  V30 40382 C 3637.06 1.09471 2.06248 0
M  V30 40383 C 3638.04 0.00163488 1.701 0
M  V30 40384 O 3639.22 0.172535 1.93432 0
M  V30 40385 C 3636.35 0.720452 3.39745 0
M  V30 40386 C 3635.31 1.76458 3.89931 0
M  V30 40387 C 3634.63 1.24481 5.20008 0
M  V30 40388 C 3635.93 3.16488 4.15491 0
M  V30 40389 H 3637.63 2.02756 2.20296 0
M  V30 40390 H 3635.17 0.976238 1.05856 0
M  V30 40391 H 3637.12 0.592045 4.1722 0
M  V30 40392 H 3635.85 -0.248104 3.25656 0
M  V30 40393 H 3634.51 1.88155 3.14632 0
M  V30 40394 H 3634.16 0.26627 5.02295 0
M  V30 40395 H 3633.86 1.94273 5.54556 0
M  V30 40396 H 3635.38 1.12895 6.00073 0
M  V30 40397 H 3636.79 3.07903 4.836 0
M  V30 40398 H 3635.19 3.83816 4.61308 0
M  V30 40399 H 3636.26 3.63 3.21495 0
M  V30 40400 N 3637.6 -1.15097 1.07659 0
M  V30 40401 C 3639.02 -1.37944 0.802721 0
M  V30 40402 C 3639.22 -1.9262 -0.591588 0
M  V30 40403 O 3638.28 -2.13396 -1.34975 0
M  V30 40404 C 3639.59 -2.34755 1.87911 0
M  V30 40405 C 3641.14 -2.48411 1.90423 0
M  V30 40406 C 3641.61 -3.48516 2.97154 0
M  V30 40407 N 3643.1 -3.56054 2.96277 0
M  V30 40408 C 3643.84 -4.3334 3.75505 0
M  V30 40409 N 3643.33 -5.13932 4.64592 0
M  V30 40410 N 3645.13 -4.2846 3.63839 0
M  V30 40411 H 3637.28 -0.779502 1.97579 0
M  V30 40412 H 3639.54 -0.405316 0.856985 0
M  V30 40413 H 3639.25 -2.01702 2.88113 0
M  V30 40414 H 3639.12 -3.34571 1.74189 0
M  V30 40415 H 3641.51 -2.80761 0.908704 0
M  V30 40416 H 3641.59 -1.48583 2.08223 0
M  V30 40417 H 3641.23 -3.16901 3.96908 0
M  V30 40418 H 3641.16 -4.48107 2.766 0
M  V30 40419 H 3643.65 -2.98534 2.31702 0
M  V30 40420 H 3643.97 -5.70158 5.2167 0
M  V30 40421 H 3642.31 -5.13227 4.68639 0
M  V30 40422 H 3645.5 -3.64565 2.93616 0
M  V30 40423 H 3645.68 -4.88442 4.25826 0
M  V30 40424 N 3639.08 -0.861145 -1.31993 0
M  V30 40425 C 3640.03 -0.308516 -2.28729 0
M  V30 40426 C 3641 0.588121 -1.55339 0
M  V30 40427 O 3642.18 0.521648 -1.83531 0
M  V30 40428 C 3639.32 0.491561 -3.41581 0
M  V30 40429 C 3638.44 -0.431598 -4.29839 0
M  V30 40430 C 3637.57 0.381743 -5.29827 0
M  V30 40431 C 3636.61 -0.538403 -6.09728 0
M  V30 40432 N 3635.75 0.23815 -7.01696 0
M  V30 40433 H 3640.59 -1.13867 -2.75387 0
M  V30 40434 H 3638.13 -0.572934 -1.35484 0
M  V30 40435 H 3640.08 0.971122 -4.0574 0
M  V30 40436 H 3638.71 1.28649 -2.96056 0
M  V30 40437 H 3637.77 -1.02957 -3.66202 0
M  V30 40438 H 3639.08 -1.13751 -4.85656 0
M  V30 40439 H 3638.23 0.924191 -5.9962 0
M  V30 40440 H 3636.97 1.12099 -4.74642 0
M  V30 40441 H 3635.98 -1.09268 -5.38833 0
M  V30 40442 H 3637.2 -1.27636 -6.66998 0
M  V30 40443 H 3635.15 0.960372 -6.48932 0
M  V30 40444 H 3635.06 -0.408599 -7.54895 0
M  V30 40445 H 3636.33 0.762115 -7.75765 0
M  V30 40446 N 3640.56 1.44905 -0.619713 0
M  V30 40447 C 3641.98 1.57046 -0.284365 0
M  V30 40448 C 3642.18 1.60913 1.21282 0
M  V30 40449 O 3641.23 1.54598 1.99639 0
M  V30 40450 C 3642.55 2.84753 -0.966229 0
M  V30 40451 C 3644.09 2.98448 -0.943291 0
M  V30 40452 C 3644.57 4.28942 -1.6054 0
M  V30 40453 N 3646.06 4.35729 -1.57145 0
M  V30 40454 C 3646.79 5.35395 -2.0528 0
M  V30 40455 N 3646.29 6.4153 -2.61554 0
M  V30 40456 N 3648.08 5.2683 -1.95976 0
M  V30 40457 H 3640.23 1.40638 -1.59169 0
M  V30 40458 H 3642.5 0.673192 -0.66747 0
M  V30 40459 H 3642.2 2.8784 -2.02091 0
M  V30 40460 H 3642.08 3.73912 -0.496946 0
M  V30 40461 H 3644.46 2.94921 0.10288 0
M  V30 40462 H 3644.55 2.10668 -1.45096 0
M  V30 40463 H 3644.19 4.33228 -2.65096 0
M  V30 40464 H 3644.12 5.1556 -1.07266 0
M  V30 40465 H 3646.61 3.5964 -1.16048 0
M  V30 40466 H 3646.92 7.13847 -2.96045 0
M  V30 40467 H 3645.27 6.42247 -2.656 0
M  V30 40468 H 3648.46 4.42823 -1.51742 0
M  V30 40469 H 3648.63 6.04352 -2.33801 0
M  V30 40470 N 3642.04 0.359579 1.53443 0
M  V30 40471 C 3643.45 0.00827752 1.59598 0
M  V30 40472 C 3643.65 -1.473 1.37495 0
M  V30 40473 O 3642.71 -2.23382 1.17714 0
M  V30 40474 C 3644.02 0.458832 2.97179 0
M  V30 40475 C 3645.57 0.41254 3.10269 0
M  V30 40476 C 3646.05 0.838812 4.50253 0
M  V30 40477 N 3647.54 0.793632 4.5635 0
M  V30 40478 C 3648.27 1.09523 5.62843 0
M  V30 40479 N 3647.77 1.46579 6.77116 0
M  V30 40480 N 3649.56 1.01841 5.52797 0
M  V30 40481 H 3641.71 1.32427 1.66063 0
M  V30 40482 H 3643.98 0.54089 0.778551 0
M  V30 40483 H 3643.68 1.49226 3.18472 0
M  V30 40484 H 3643.56 -0.157675 3.7687 0
M  V30 40485 H 3645.94 -0.61174 2.8869 0
M  V30 40486 H 3646.02 1.06446 2.326 0
M  V30 40487 H 3645.67 1.86118 4.7257 0
M  V30 40488 H 3645.6 0.164201 5.26344 0
M  V30 40489 H 3648.09 0.520546 3.74298 0
M  V30 40490 H 3648.4 1.68034 7.54311 0
M  V30 40491 H 3646.75 1.50439 6.78523 0
M  V30 40492 H 3649.94 0.72814 4.62402 0
M  V30 40493 H 3650.11 1.25679 6.35695 0
M  V30 40494 N 3643.52 -1.57351 0.0885919 0
M  V30 40495 C 3644.76 -1.94404 -0.577496 0
M  V30 40496 C 3645.1 -0.970059 -1.68236 0
M  V30 40497 O 3644.37 -0.00202103 -1.945 0
M  V30 40498 C 3644.65 -3.4162 -1.13876 0
M  V30 40499 C 3644.51 -4.49783 -0.0393895 0
M  V30 40500 C 3645.83 -3.90009 -2.03915 0
M  V30 40501 H 3642.94 -0.706905 -0.208456 0
M  V30 40502 H 3645.59 -1.89342 0.157979 0
M  V30 40503 H 3643.74 -3.46065 -1.76555 0
M  V30 40504 H 3645.41 -4.57453 0.594538 0
M  V30 40505 H 3643.65 -4.29232 0.62785 0
M  V30 40506 H 3644.32 -5.49971 -0.4728 0
M  V30 40507 H 3646.8 -3.87676 -1.5115 0
M  V30 40508 H 3645.67 -4.93595 -2.40114 0
M  V30 40509 H 3645.94 -3.28923 -2.95402 0
M  V30 40510 N 3644.99 0.185069 -1.5651 0
M  V30 40511 C 3646.24 0.905232 -1.81476 0
M  V30 40512 C 3646.57 1.82486 -0.664257 0
M  V30 40513 O 3645.85 1.916 0.334626 0
M  V30 40514 C 3646.13 1.71281 -3.16757 0
M  V30 40515 C 3645.98 0.817224 -4.42314 0
M  V30 40516 C 3647.3 2.68336 -3.48832 0
M  V30 40517 H 3644.42 0.327653 -0.660161 0
M  V30 40518 H 3647.06 0.172096 -1.89219 0
M  V30 40519 H 3645.21 2.33783 -3.10286 0
M  V30 40520 H 3646.89 0.206137 -4.60839 0
M  V30 40521 H 3645.13 0.124487 -4.33621 0
M  V30 40522 H 3645.8 1.41749 -5.3349 0
M  V30 40523 H 3648.28 2.15963 -3.55667 0
M  V30 40524 H 3647.15 3.21917 -4.44591 0
M  V30 40525 H 3647.41 3.4787 -2.72835 0
M  V30 40526 N 3646.47 1.50945 0.453144 0
M  V30 40527 C 3647.72 1.62066 1.20073 0
M  V30 40528 C 3648.03 0.335068 1.92709 0
M  V30 40529 O 3649.24 0.325428 2.69543 0
M  V30 40530 C 3647.7 2.86152 2.18277 0
M  V30 40531 C 3647.3 4.21656 1.51362 0
M  V30 40532 C 3649.05 3.06625 2.93567 0
M  V30 40533 C 3646.96 5.36908 2.47958 0
M  V30 40534 H 3645.89 0.603587 0.451883 0
M  V30 40535 H 3648.54 1.77396 0.469339 0
M  V30 40536 H 3646.92 2.6442 2.94785 0
M  V30 40537 H 3648.09 4.5371 0.805215 0
M  V30 40538 H 3646.41 4.06933 0.882864 0
M  V30 40539 H 3649 3.89903 3.65896 0
M  V30 40540 H 3649.35 2.19066 3.54 0
M  V30 40541 H 3649.88 3.28623 2.2417 0
M  V30 40542 H 3646.62 6.26678 1.92238 0
M  V30 40543 H 3646.14 5.0925 3.16899 0
M  V30 40544 H 3647.82 5.68216 3.09418 0
M  V30 40545 N 3647.95 -0.707543 1.40825 0
M  V30 40546 C 3649.2 -1.46968 1.39744 0
M  V30 40547 C 3649.53 -1.942 0.00234607 0
M  V30 40548 O 3648.8 -1.68714 -0.967768 0
M  V30 40549 C 3649.09 -2.69007 2.3939 0
M  V30 40550 C 3648.94 -2.27617 3.87957 0
M  V30 40551 C 3650.26 -3.71182 2.36457 0
M  V30 40552 H 3647.38 -0.533082 0.508913 0
M  V30 40553 H 3650.02 -0.806857 1.72017 0
M  V30 40554 H 3648.17 -3.25559 2.11999 0
M  V30 40555 H 3649.84 -1.76485 4.26205 0
M  V30 40556 H 3648.09 -1.5953 4.03401 0
M  V30 40557 H 3648.76 -3.15131 4.53207 0
M  V30 40558 H 3651.23 -3.24277 2.60736 0
M  V30 40559 H 3650.11 -4.54199 3.08212 0
M  V30 40560 H 3650.37 -4.20044 1.37898 0
M  V30 40561 N 3649.43 -1.26454 -0.940588 0
M  V30 40562 C 3650.71 -1.02781 -1.66419 0
M  V30 40563 C 3651.09 0.441577 -2.0643 0
M  V30 40564 O 3650.43 1.42206 -1.78857 0
M  V30 40565 C 3650.64 -1.97712 -2.87595 0
M  V30 40566 C 3651.99 -2.26356 -3.59233 0
M  V30 40567 O 3653.02 -1.95583 -2.97701 0
M  V30 40568 O 3651.87 -2.78752 -4.70063 0
M  V30 40569 H 3648.97 -0.390859 -0.728806 0
M  V30 40570 H 3651.51 -1.37667 -0.992266 0
M  V30 40571 H 3650.29 -2.96866 -2.54924 0
M  V30 40572 H 3649.91 -1.6331 -3.62513 0
M  V30 40573 N 3650.91 1.14525 -1.08268 0
M  V30 40574 C 3652.32 1.671 -0.832731 0
M  V30 40575 C 3652.67 1.85443 0.640743 0
M  V30 40576 O 3651.79 1.56455 1.49502 0
M  V30 40577 C 3652.39 3.03534 -1.50507 0
M  V30 40578 C 3650.95 3.53149 -1.3024 0
M  V30 40579 C 3650.09 2.28659 -1.56877 0
M  V30 40580 H 3653.05 0.986096 -1.24346 0
M  V30 40581 H 3653.07 3.68922 -0.931491 0
M  V30 40582 H 3652.58 2.90152 -2.57746 0
M  V30 40583 H 3650.68 3.71756 -0.250648 0
M  V30 40584 H 3650.79 4.34012 -2.02905 0
M  V30 40585 H 3649.16 2.34662 -0.990255 0
M  V30 40586 H 3649.94 2.17854 -2.6532 0
M  V30 40587 N 3652.39 0.868133 1.31534 0
M  V30 40588 C 3653.3 0.325921 2.32325 0
M  V30 40589 C 3654.31 -0.563214 1.64633 0
M  V30 40590 O 3655.49 -0.460368 1.96068 0
M  V30 40591 C 3652.55 -0.465329 3.43563 0
M  V30 40592 C 3651.61 0.451547 4.26919 0
M  V30 40593 C 3650.85 -0.302035 5.32845 0
M  V30 40594 O 3651.07 -1.53036 5.49487 0
M  V30 40595 O 3650 0.339154 6.00944 0
M  V30 40596 H 3653.83 1.16131 2.8062 0
M  V30 40597 H 3651.41 0.631452 1.354 0
M  V30 40598 H 3653.3 -0.913956 4.11369 0
M  V30 40599 H 3651.97 -1.27729 2.97434 0
M  V30 40600 H 3650.88 0.948634 3.61873 0
M  V30 40601 H 3652.21 1.22905 4.76608 0
M  V30 40602 N 3653.86 -1.44574 0.627389 0
M  V30 40603 C 3655.09 -2.06444 0.13735 0
M  V30 40604 C 3655.51 -1.46857 -1.18652 0
M  V30 40605 O 3654.86 -0.590048 -1.72698 0
M  V30 40606 C 3654.91 -3.61498 0.0124116 0
M  V30 40607 O 3654.64 -4.18864 1.28393 0
M  V30 40608 C 3656.14 -4.40394 -0.506764 0
M  V30 40609 H 3653.36 -0.666457 0.0779504 0
M  V30 40610 H 3655.9 -1.85504 0.860733 0
M  V30 40611 H 3654.06 -3.81712 -0.661393 0
M  V30 40612 H 3654.47 -5.12263 1.12635 0
M  V30 40613 H 3655.94 -5.49321 -0.543207 0
M  V30 40614 H 3656.42 -4.11575 -1.53307 0
M  V30 40615 H 3657.03 -4.2509 0.133664 0
M  V30 40616 N 3655.34 -0.367711 -1.5325 0
M  V30 40617 C 3656.29 0.49286 -2.27318 0
M  V30 40618 C 3657.28 1.08157 -1.30378 0
M  V30 40619 O 3658.49 1.02453 -1.47998 0
M  V30 40620 H 3654.86 0.177664 -0.730712 0
M  V30 40621 H 3656.84 -0.153577 -2.98005 0
M  V30 40622 C 3655.58 1.6195 -3.07681 0
M  V30 40623 H 3654.91 1.1758 -3.82119 0
M  V30 40624 H 3656.35 2.19632 -3.62682 0
M  V30 40625 C 3654.81 2.56306 -2.18652 0
M  V30 40626 O 3655.34 3.59177 -1.79875 0
M  V30 40627 N 3653.54 2.25544 -1.83243 0
M  V30 40628 H 3653.09 1.41926 -2.14976 0
M  V30 40629 H 3653.05 2.8893 -1.23962 0
M  V30 40630 N 3656.82 1.57302 -0.0969353 0
M  V30 40631 C 3657.77 2.14125 0.861342 0
M  V30 40632 C 3658.74 1.06029 1.27856 0
M  V30 40633 O 3659.92 1.33825 1.35998 0
M  V30 40634 C 3657.06 2.72742 2.11438 0
M  V30 40635 C 3656.17 3.95077 1.74753 0
M  V30 40636 C 3655.31 4.41852 2.94856 0
M  V30 40637 C 3654.35 5.56772 2.54306 0
M  V30 40638 N 3653.49 5.98391 3.6725 0
M  V30 40639 H 3658.33 2.95695 0.369916 0
M  V30 40640 H 3655.86 1.46104 0.170917 0
M  V30 40641 H 3657.82 3.04847 2.84823 0
M  V30 40642 H 3656.45 1.93897 2.58077 0
M  V30 40643 H 3655.5 3.69274 0.913285 0
M  V30 40644 H 3656.81 4.78475 1.40937 0
M  V30 40645 H 3655.97 4.7575 3.76492 0
M  V30 40646 H 3654.71 3.57358 3.31883 0
M  V30 40647 H 3653.71 5.225 1.71097 0
M  V30 40648 H 3654.94 6.43016 2.18421 0
M  V30 40649 H 3652.88 5.16843 4.03992 0
M  V30 40650 H 3652.8 6.7659 3.37286 0
M  V30 40651 H 3654.07 6.3692 4.49391 0
M  V30 40652 N 3658.3 -0.176766 1.56606 0
M  V30 40653 C 3659.21 -1.23899 1.99214 0
M  V30 40654 C 3660.22 -1.48756 0.902641 0
M  V30 40655 O 3661.4 -1.61011 1.20985 0
M  V30 40656 C 3658.46 -2.55934 2.33878 0
M  V30 40657 C 3657.53 -2.38988 3.56628 0
M  V30 40658 C 3656.76 -3.64726 3.89629 0
M  V30 40659 O 3656.98 -4.69674 3.2367 0
M  V30 40660 O 3655.92 -3.59161 4.82998 0
M  V30 40661 H 3659.74 -0.907347 2.89829 0
M  V30 40662 H 3657.33 -0.383209 1.44402 0
M  V30 40663 H 3659.21 -3.33831 2.57167 0
M  V30 40664 H 3657.88 -2.88689 1.46426 0
M  V30 40665 H 3656.79 -1.5914 3.38564 0
M  V30 40666 H 3658.12 -2.11159 4.44604 0
M  V30 40667 N 3659.78 -1.51183 -0.445132 0
M  V30 40668 C 3660.71 -1.66607 -1.5594 0
M  V30 40669 C 3661.69 -0.51373 -1.54271 0
M  V30 40670 O 3662.87 -0.736579 -1.73513 0
M  V30 40671 C 3660 -1.6725 -2.94525 0
M  V30 40672 C 3659.04 -2.88356 -3.1425 0
M  V30 40673 S 3659.88 -4.49288 -2.91377 0
M  V30 40674 C 3661.03 -4.52664 -4.32257 0
M  V30 40675 H 3661.27 -2.60857 -1.42622 0
M  V30 40676 H 3658.8 -1.4077 -0.634289 0
M  V30 40677 H 3660.76 -1.68305 -3.74411 0
M  V30 40678 H 3659.42 -0.741909 -3.05212 0
M  V30 40679 H 3658.61 -2.85185 -4.15555 0
M  V30 40680 H 3658.21 -2.85002 -2.42177 0
M  V30 40681 H 3660.5 -4.27825 -5.25331 0
M  V30 40682 H 3661.45 -5.54434 -4.40464 0
M  V30 40683 H 3661.86 -3.82074 -4.15548 0
M  V30 40684 N 3661.25 0.700065 -1.41198 0
M  V30 40685 C 3662.48 1.49397 -1.43858 0
M  V30 40686 C 3662.9 1.88048 -0.0442208 0
M  V30 40687 O 3662.26 1.54326 0.951476 0
M  V30 40688 C 3662.31 2.7358 -2.34918 0
M  V30 40689 O 3661.41 3.70893 -1.80312 0
M  V30 40690 H 3660.75 0.449824 -0.48842 0
M  V30 40691 H 3663.28 0.860879 -1.85607 0
M  V30 40692 H 3663.29 3.21938 -2.50639 0
M  V30 40693 H 3661.97 2.44785 -3.36234 0
M  V30 40694 H 3660.55 3.29806 -1.74018 0
M  V30 40695 N 3662.73 1.26951 0.933869 0
M  V30 40696 C 3663.98 1.13094 1.68338 0
M  V30 40697 C 3664.31 -0.323637 1.91484 0
M  V30 40698 O 3663.59 -1.23721 1.50078 0
M  V30 40699 C 3663.87 1.90843 3.0537 0
M  V30 40700 C 3663.72 3.44249 2.89504 0
M  V30 40701 C 3665.04 1.70802 4.05604 0
M  V30 40702 H 3662.16 0.41222 0.610937 0
M  V30 40703 H 3664.8 1.56034 1.08413 0
M  V30 40704 H 3662.95 1.54349 3.56523 0
M  V30 40705 H 3664.62 3.90537 2.45516 0
M  V30 40706 H 3662.87 3.70903 2.24975 0
M  V30 40707 H 3663.54 3.93886 3.86728 0
M  V30 40708 H 3666.01 2.0261 3.6344 0
M  V30 40709 H 3664.89 2.27606 4.99486 0
M  V30 40710 H 3665.15 0.654404 4.3723 0
M  V30 40711 N 3664.21 -1.13949 1.08873 0
M  V30 40712 C 3665.14 -2.18853 0.680887 0
M  V30 40713 C 3666.15 -1.6047 -0.274428 0
M  V30 40714 O 3667.34 -1.78395 -0.0613491 0
M  V30 40715 C 3664.44 -3.38895 -0.0182192 0
M  V30 40716 C 3663.62 -4.26798 0.9572 0
M  V30 40717 C 3662.68 -5.25386 0.292543 0
M  V30 40718 O 3661.7 -5.61411 0.938428 0
M  V30 40719 N 3662.9 -5.7258 -0.955638 0
M  V30 40720 H 3665.67 -2.54458 1.58338 0
M  V30 40721 H 3663.23 -1.29216 0.97544 0
M  V30 40722 H 3665.22 -4.01915 -0.473931 0
M  V30 40723 H 3663.79 -3.01575 -0.822879 0
M  V30 40724 H 3663.01 -3.6064 1.59163 0
M  V30 40725 H 3664.3 -4.82388 1.61801 0
M  V30 40726 H 3663.7 -5.4545 -1.50004 0
M  V30 40727 H 3662.25 -6.37565 -1.35476 0
M  V30 40728 N 3665.69 -0.875096 -1.31072 0
M  V30 40729 C 3666.6 -0.338237 -2.32149 0
M  V30 40730 C 3667.61 0.554475 -1.64929 0
M  V30 40731 O 3668.79 0.449964 -1.96309 0
M  V30 40732 C 3665.85 0.447103 -3.43805 0
M  V30 40733 C 3664.92 -0.474181 -4.26673 0
M  V30 40734 C 3664.15 0.273773 -5.32997 0
M  V30 40735 O 3664.37 1.50119 -5.50291 0
M  V30 40736 O 3663.31 -0.371018 -6.00755 0
M  V30 40737 H 3667.13 -1.17617 -2.8 0
M  V30 40738 H 3664.72 -0.638624 -1.35063 0
M  V30 40739 H 3666.6 0.892127 -4.11848 0
M  V30 40740 H 3665.27 1.2615 -2.98107 0
M  V30 40741 H 3664.18 -0.967812 -3.61364 0
M  V30 40742 H 3665.51 -1.25431 -4.75949 0
M  V30 40743 N 3667.17 1.44239 -0.635047 0
M  V30 40744 C 3668.13 2.29127 0.0578974 0
M  V30 40745 C 3669.13 1.41249 0.768464 0
M  V30 40746 O 3670.32 1.63078 0.612461 0
M  V30 40747 C 3667.45 3.22916 1.0926 0
M  V30 40748 H 3668.64 2.91883 -0.688775 0
M  V30 40749 H 3666.2 1.51217 -0.395374 0
M  V30 40750 H 3666.93 2.65017 1.86912 0
M  V30 40751 H 3666.72 3.87682 0.586968 0
M  V30 40752 H 3668.21 3.86675 1.57709 0
M  V30 40753 N 3668.64 0.375833 1.53053 0
M  V30 40754 C 3669.87 -0.210792 2.05522 0
M  V30 40755 C 3670.28 -1.42168 1.24839 0
M  V30 40756 O 3669.63 -1.81481 0.284666 0
M  V30 40757 C 3669.69 -0.658485 3.53418 0
M  V30 40758 C 3669.35 0.437105 4.54905 0
M  V30 40759 C 3670.35 1.29025 5.03635 0
M  V30 40760 C 3668.03 0.600282 4.987 0
M  V30 40761 C 3670.03 2.29182 5.94773 0
M  V30 40762 C 3667.71 1.6052 5.89641 0
M  V30 40763 C 3668.71 2.4494 6.37568 0
M  V30 40764 O 3668.4 3.43716 7.26715 0
M  V30 40765 H 3668.13 -0.0386509 0.674894 0
M  V30 40766 H 3670.69 0.535569 1.98295 0
M  V30 40767 H 3668.92 -1.45661 3.58217 0
M  V30 40768 H 3670.61 -1.16926 3.88694 0
M  V30 40769 H 3671.37 1.17542 4.70541 0
M  V30 40770 H 3667.25 -0.0470536 4.60976 0
M  V30 40771 H 3670.79 2.9511 6.32104 0
M  V30 40772 H 3666.69 1.72046 6.2215 0
M  V30 40773 H 3667.46 3.39566 7.4474 0
M  V30 40774 N 3670.12 -1.57248 0.105276 0
M  V30 40775 C 3671.07 -2.14579 -0.849974 0
M  V30 40776 C 3672.04 -1.06705 -1.27292 0
M  V30 40777 O 3673.22 -1.34544 -1.35287 0
M  V30 40778 C 3670.36 -2.73859 -2.09988 0
M  V30 40779 C 3669.48 -3.95998 -1.72655 0
M  V30 40780 C 3668.61 -4.4341 -2.92509 0
M  V30 40781 C 3667.65 -5.58113 -2.5135 0
M  V30 40782 N 3666.79 -6.0033 -3.64072 0
M  V30 40783 H 3671.63 -2.95887 -0.35423 0
M  V30 40784 H 3669.17 -1.46192 -0.163166 0
M  V30 40785 H 3671.12 -3.06353 -2.83203 0
M  V30 40786 H 3669.75 -1.95263 -2.57045 0
M  V30 40787 H 3668.81 -3.69753 -0.893689 0
M  V30 40788 H 3670.12 -4.79216 -1.38398 0
M  V30 40789 H 3669.27 -4.7774 -3.73964 0
M  V30 40790 H 3668.01 -3.59113 -3.29983 0
M  V30 40791 H 3667.02 -5.234 -1.68324 0
M  V30 40792 H 3668.24 -6.44165 -2.15008 0
M  V30 40793 H 3666.19 -5.18978 -4.01246 0
M  V30 40794 H 3666.1 -6.78369 -3.33693 0
M  V30 40795 H 3667.37 -6.39295 -4.46007 0
M  V30 40796 N 3671.6 0.168458 -1.56697 0
M  V30 40797 C 3672.55 1.20851 -1.96631 0
M  V30 40798 C 3673.52 1.43838 -0.830648 0
M  V30 40799 O 3674.7 1.56531 -1.091 0
M  V30 40800 C 3671.84 2.54216 -2.33384 0
M  V30 40801 C 3670.96 2.38584 -3.60141 0
M  V30 40802 C 3670.09 3.64835 -3.86095 0
M  V30 40803 C 3669.13 3.44148 -5.0619 0
M  V30 40804 N 3668.27 4.62476 -5.28262 0
M  V30 40805 H 3673.11 0.86097 -2.85292 0
M  V30 40806 H 3670.64 0.413716 -1.41162 0
M  V30 40807 H 3672.6 3.31949 -2.52717 0
M  V30 40808 H 3671.23 2.8696 -1.4783 0
M  V30 40809 H 3670.28 1.52013 -3.48707 0
M  V30 40810 H 3671.6 2.19246 -4.48032 0
M  V30 40811 H 3670.75 4.51002 -4.0581 0
M  V30 40812 H 3669.49 3.87155 -2.96585 0
M  V30 40813 H 3668.49 2.56367 -4.8637 0
M  V30 40814 H 3669.72 3.23248 -5.97233 0
M  V30 40815 H 3667.66 4.85009 -4.41704 0
M  V30 40816 H 3667.58 4.46062 -6.10381 0
M  V30 40817 H 3668.85 5.49918 -5.52458 0
M  V30 40818 N 3673.08 1.51417 0.437109 0
M  V30 40819 C 3674.33 1.63773 1.18418 0
M  V30 40820 C 3674.65 0.356315 1.91717 0
M  V30 40821 O 3673.92 -0.627831 1.85567 0
M  V30 40822 H 3672.5 0.60358 0.440114 0
M  V30 40823 H 3675.16 1.88348 0.501122 0
M  V30 40824 H 3674.26 2.46549 1.91363 0
M  V30 40825 N 3674.56 -0.692567 1.41567 0
M  V30 40826 C 3675.49 -1.81884 1.46426 0
M  V30 40827 C 3676.47 -1.67013 0.32261 0
M  V30 40828 O 3677.65 -1.867 0.53447 0
M  V30 40829 C 3674.78 -3.20045 1.34866 0
M  V30 40830 C 3673.74 -3.49625 2.46873 0
M  V30 40831 C 3673.06 -4.87173 2.20378 0
M  V30 40832 C 3674.36 -3.48299 3.89211 0
M  V30 40833 H 3676.06 -1.78075 2.40686 0
M  V30 40834 H 3673.6 -0.855313 1.15846 0
M  V30 40835 H 3675.56 -3.98551 1.36876 0
M  V30 40836 H 3674.28 -3.24487 0.370917 0
M  V30 40837 H 3672.94 -2.73471 2.4415 0
M  V30 40838 H 3672.59 -4.88245 1.20939 0
M  V30 40839 H 3672.29 -5.07929 2.95435 0
M  V30 40840 H 3673.81 -5.67986 2.24109 0
M  V30 40841 H 3675.22 -4.16804 3.93633 0
M  V30 40842 H 3673.62 -3.80587 4.63976 0
M  V30 40843 H 3674.69 -2.47214 4.17149 0
M  V30 40844 N 3676.03 -1.27445 -0.927123 0
M  V30 40845 C 3677.28 -1.132 -1.66939 0
M  V30 40846 C 3677.6 0.321527 -1.92939 0
M  V30 40847 O 3678.8 0.584884 -2.65125 0
M  V30 40848 C 3677.26 -1.97797 -3.00673 0
M  V30 40849 C 3676.87 -3.4781 -2.82369 0
M  V30 40850 C 3678.61 -1.92201 -3.78496 0
M  V30 40851 C 3676.52 -4.24603 -4.11663 0
M  V30 40852 H 3675.45 -0.420042 -0.626164 0
M  V30 40853 H 3678.1 -1.5187 -1.02994 0
M  V30 40854 H 3676.48 -1.51971 -3.65678 0
M  V30 40855 H 3677.65 -4.01501 -2.26128 0
M  V30 40856 H 3675.97 -3.5479 -2.17975 0
M  V30 40857 H 3678.57 -2.46852 -4.74308 0
M  V30 40858 H 3678.91 -0.895773 -4.06548 0
M  V30 40859 H 3679.44 -2.35925 -3.20288 0
M  V30 40860 H 3676.18 -5.27754 -3.88788 0
M  V30 40861 H 3675.7 -3.75689 -4.67566 0
M  V30 40862 H 3677.38 -4.33808 -4.8002 0
M  V30 40863 N 3677.51 1.1337 -1.09476 0
M  V30 40864 C 3678.79 1.80918 -0.743517 0
M  V30 40865 C 3679.17 1.96502 0.77138 0
M  V30 40866 O 3678.52 1.53352 1.69397 0
M  V30 40867 C 3678.73 3.15918 -1.48314 0
M  V30 40868 C 3680.08 3.9126 -1.64927 0
M  V30 40869 O 3681.1 3.25543 -1.4457 0
M  V30 40870 O 3679.96 5.09135 -1.98604 0
M  V30 40871 H 3677.05 0.782664 -0.267144 0
M  V30 40872 H 3679.6 1.20292 -1.19699 0
M  V30 40873 H 3678.37 2.99805 -2.51462 0
M  V30 40874 H 3677.99 3.84244 -1.02187 0
M  V30 40875 N 3678.99 0.882035 1.30606 0
M  V30 40876 C 3680.22 0.513105 2.00127 0
M  V30 40877 C 3680.63 -0.902115 1.66309 0
M  V30 40878 O 3679.97 -1.60432 0.894825 0
M  V30 40879 C 3680.03 0.604609 3.54379 0
M  V30 40880 C 3679.7 1.98361 4.11706 0
M  V30 40881 C 3680.69 2.95265 4.27919 0
M  V30 40882 C 3678.38 2.2882 4.47154 0
M  V30 40883 C 3680.37 4.20763 4.78787 0
M  V30 40884 C 3678.06 3.54565 4.97722 0
M  V30 40885 C 3679.06 4.50351 5.13491 0
M  V30 40886 O 3678.75 5.73866 5.62968 0
M  V30 40887 H 3678.48 0.197176 0.646605 0
M  V30 40888 H 3681.03 1.1884 1.6753 0
M  V30 40889 H 3679.26 -0.127651 3.86489 0
M  V30 40890 H 3680.95 0.247379 4.05145 0
M  V30 40891 H 3681.72 2.73044 4.00839 0
M  V30 40892 H 3677.6 1.55034 4.34149 0
M  V30 40893 H 3681.14 4.95534 4.91011 0
M  V30 40894 H 3677.04 3.76624 5.24237 0
M  V30 40895 H 3677.81 5.76206 5.81316 0
M  V30 40896 N 3680.47 -1.439 0.642688 0
M  V30 40897 C 3681.38 -2.34533 -0.056205 0
M  V30 40898 C 3682.39 -1.53283 -0.82343 0
M  V30 40899 O 3683.57 -1.85972 -0.77307 0
M  V30 40900 C 3680.64 -3.31423 -1.01781 0
M  V30 40901 C 3679.7 -4.28579 -0.248683 0
M  V30 40902 C 3678.93 -5.20841 -1.16448 0
M  V30 40903 O 3679.15 -5.17288 -2.40352 0
M  V30 40904 O 3678.09 -5.9846 -0.642566 0
M  V30 40905 H 3681.91 -2.95769 0.689528 0
M  V30 40906 H 3679.5 -1.43866 0.402872 0
M  V30 40907 H 3681.38 -3.91032 -1.57073 0
M  V30 40908 H 3680.05 -2.72705 -1.74395 0
M  V30 40909 H 3678.96 -3.72482 0.34756 0
M  V30 40910 H 3680.29 -4.9025 0.437676 0
M  V30 40911 N 3681.95 -0.383945 -1.52852 0
M  V30 40912 C 3683.18 0.20018 -2.05929 0
M  V30 40913 C 3683.59 1.40954 -1.25608 0
M  V30 40914 O 3682.95 1.79995 -0.301367 0
M  V30 40915 C 3683 0.575592 -3.56888 0
M  V30 40916 O 3682.72 -0.585717 -4.34167 0
M  V30 40917 C 3684.22 1.21615 -4.26292 0
M  V30 40918 H 3681.44 0.0314609 -0.670262 0
M  V30 40919 H 3683.98 -0.547626 -1.97031 0
M  V30 40920 H 3682.14 1.2733 -3.65877 0
M  V30 40921 H 3682.55 -0.278359 -5.23761 0
M  V30 40922 H 3684.03 1.42924 -5.33176 0
M  V30 40923 H 3684.5 2.18193 -3.81167 0
M  V30 40924 H 3685.11 0.559361 -4.21606 0
M  V30 40925 N 3683.43 1.5719 -0.113614 0
M  V30 40926 C 3684.67 1.95009 0.545686 0
M  V30 40927 C 3685 0.996571 1.67029 0
M  V30 40928 O 3684.26 0.0194697 1.9569 0
M  V30 40929 C 3684.55 3.39274 1.12374 0
M  V30 40930 C 3684.22 4.50738 0.121041 0
M  V30 40931 C 3682.88 4.80951 -0.154692 0
M  V30 40932 C 3685.23 5.18155 -0.562593 0
M  V30 40933 C 3682.56 5.75902 -1.12043 0
M  V30 40934 C 3684.91 6.14143 -1.51693 0
M  V30 40935 C 3683.58 6.42753 -1.8007 0
M  V30 40936 H 3682.85 0.713589 0.199681 0
M  V30 40937 H 3685.5 1.90521 -0.193377 0
M  V30 40938 H 3683.8 3.4043 1.93945 0
M  V30 40939 H 3685.5 3.65846 1.64188 0
M  V30 40940 H 3682.09 4.272 0.346135 0
M  V30 40941 H 3686.27 4.94973 -0.362732 0
M  V30 40942 H 3681.53 5.96375 -1.3471 0
M  V30 40943 H 3685.7 6.6547 -2.05236 0
M  V30 40944 H 3683.33 7.16135 -2.55059 0
M  V30 40945 N 3684.9 -0.160146 1.56784 0
M  V30 40946 C 3685.85 -1.19807 1.97269 0
M  V30 40947 C 3686.82 -1.43396 0.838265 0
M  V30 40948 O 3688.01 -1.5595 1.09929 0
M  V30 40949 C 3685.15 -2.52975 2.34729 0
M  V30 40950 C 3684.26 -2.36671 3.61401 0
M  V30 40951 C 3683.39 -3.62782 3.88024 0
M  V30 40952 C 3682.43 -3.41459 5.08008 0
M  V30 40953 N 3681.57 -4.59668 5.30707 0
M  V30 40954 H 3686.41 -0.845828 2.85744 0
M  V30 40955 H 3683.95 -0.406224 1.4138 0
M  V30 40956 H 3685.9 -3.30604 2.54474 0
M  V30 40957 H 3684.53 -2.86172 1.4935 0
M  V30 40958 H 3683.59 -1.50161 3.49508 0
M  V30 40959 H 3684.9 -2.16867 4.49188 0
M  V30 40960 H 3684.05 -4.48844 4.08196 0
M  V30 40961 H 3682.79 -3.85576 2.98634 0
M  V30 40962 H 3681.8 -2.53784 4.87723 0
M  V30 40963 H 3683.02 -3.20076 5.98939 0
M  V30 40964 H 3680.97 -4.8266 4.4427 0
M  V30 40965 H 3680.88 -4.42818 6.12738 0
M  V30 40966 H 3682.15 -5.46981 5.55367 0
M  V30 40967 N 3686.38 -1.51647 -0.429072 0
M  V30 40968 C 3687.29 -1.76415 -1.54645 0
M  V30 40969 C 3688.31 -0.648731 -1.61454 0
M  V30 40970 O 3689.48 -0.931919 -1.78542 0
M  V30 40971 C 3686.55 -1.89147 -2.90559 0
M  V30 40972 C 3685.61 -3.13019 -2.93799 0
M  V30 40973 C 3684.84 -3.25134 -4.2323 0
M  V30 40974 O 3685.07 -2.42988 -5.16055 0
M  V30 40975 O 3684 -4.18165 -4.32922 0
M  V30 40976 H 3687.83 -2.71217 -1.36657 0
M  V30 40977 H 3685.41 -1.36248 -0.612922 0
M  V30 40978 H 3687.29 -1.99459 -3.71206 0
M  V30 40979 H 3685.97 -0.975326 -3.08657 0
M  V30 40980 H 3684.87 -3.08179 -2.12076 0
M  V30 40981 H 3686.21 -4.04349 -2.80647 0
M  V30 40982 N 3687.86 0.685049 -1.41932 0
M  V30 40983 C 3688.79 1.81105 -1.47389 0
M  V30 40984 C 3689.77 1.66839 -0.331462 0
M  V30 40985 O 3690.96 1.86414 -0.544364 0
M  V30 40986 C 3688.09 3.19325 -1.36561 0
M  V30 40987 C 3687.04 3.48311 -2.48724 0
M  V30 40988 C 3686.37 4.85998 -2.22958 0
M  V30 40989 C 3687.67 3.4623 -3.91053 0
M  V30 40990 H 3689.36 1.76796 -2.41627 0
M  V30 40991 H 3686.91 0.849158 -1.16298 0
M  V30 40992 H 3688.86 3.97819 -1.38988 0
M  V30 40993 H 3687.58 3.24286 -0.38812 0
M  V30 40994 H 3686.24 2.72172 -2.45597 0
M  V30 40995 H 3685.89 4.87596 -1.23527 0
M  V30 40996 H 3685.59 5.06355 -2.98124 0
M  V30 40997 H 3687.11 5.66789 -2.27118 0
M  V30 40998 H 3688.53 4.14711 -3.95838 0
M  V30 40999 H 3686.92 3.78121 -4.65987 0
M  V30 41000 H 3687.99 2.44999 -4.18454 0
M  V30 41001 N 3689.34 1.27935 0.920351 0
M  V30 41002 C 3690.58 1.15948 1.68331 0
M  V30 41003 C 3690.94 -0.288489 1.8982 0
M  V30 41004 O 3692.14 -0.530929 2.63504 0
M  V30 41005 C 3690.41 1.92917 3.00862 0
M  V30 41006 S 3691.97 1.97228 3.91978 0
M  V30 41007 H 3688.79 0.413795 0.578182 0
M  V30 41008 H 3691.39 1.61944 1.09518 0
M  V30 41009 H 3690.1 2.97297 2.82918 0
M  V30 41010 H 3689.63 1.47444 3.64724 0
M  V30 41011 H 3691.64 1.07401 4.84437 0
M  V30 41012 N 3690.82 -1.12788 1.10076 0
M  V30 41013 C 3691.73 -2.22 0.758497 0
M  V30 41014 C 3692.74 -1.72303 -0.242408 0
M  V30 41015 O 3693.92 -2.01233 -0.082087 0
M  V30 41016 C 3690.98 -3.46171 0.191387 0
M  V30 41017 C 3690.04 -4.10726 1.24909 0
M  V30 41018 C 3689.28 -5.2897 0.70895 0
M  V30 41019 O 3689.5 -5.68494 -0.465893 0
M  V30 41020 O 3688.43 -5.83746 1.46713 0
M  V30 41021 H 3692.26 -2.53662 1.67001 0
M  V30 41022 H 3689.84 -1.2105 0.875626 0
M  V30 41023 H 3691.73 -4.21226 -0.121218 0
M  V30 41024 H 3690.4 -3.16194 -0.693039 0
M  V30 41025 H 3689.31 -3.37468 1.6145 0
M  V30 41026 H 3690.64 -4.4485 2.1064 0
M  V30 41027 N 3692.29 -0.888949 -1.30136 0
M  V30 41028 C 3693.23 -0.315944 -2.27012 0
M  V30 41029 C 3694.24 0.531719 -1.53872 0
M  V30 41030 O 3695.43 0.350623 -1.75023 0
M  V30 41031 C 3692.53 0.56906 -3.34088 0
M  V30 41032 C 3691.7 -0.250436 -4.36682 0
M  V30 41033 C 3690.76 0.565691 -5.2315 0
M  V30 41034 O 3689.79 -0.0130168 -5.69199 0
M  V30 41035 N 3690.99 1.874 -5.49419 0
M  V30 41036 H 3693.75 -1.14853 -2.76819 0
M  V30 41037 H 3691.31 -0.752337 -1.43358 0
M  V30 41038 H 3693.31 1.12118 -3.88859 0
M  V30 41039 H 3691.88 1.30232 -2.8418 0
M  V30 41040 H 3691.1 -0.983998 -3.81721 0
M  V30 41041 H 3692.38 -0.812052 -5.02278 0
M  V30 41042 H 3691.78 2.36704 -5.13797 0
M  V30 41043 H 3690.34 2.37349 -6.07049 0
M  V30 41044 N 3693.77 1.43557 -0.65031 0
M  V30 41045 C 3694.68 2.34559 0.0437664 0
M  V30 41046 C 3695.7 1.53717 0.815289 0
M  V30 41047 O 3696.87 1.86379 0.763197 0
M  V30 41048 C 3693.94 3.31959 1.00022 0
M  V30 41049 C 3693 4.28705 0.225951 0
M  V30 41050 C 3692.23 5.21451 1.13685 0
M  V30 41051 O 3692.46 5.18556 2.37605 0
M  V30 41052 O 3691.39 5.98793 0.610819 0
M  V30 41053 H 3695.22 2.95399 -0.705204 0
M  V30 41054 H 3692.8 1.4365 -0.410496 0
M  V30 41055 H 3694.68 3.9186 1.54997 0
M  V30 41056 H 3693.36 2.73626 1.72947 0
M  V30 41057 H 3692.26 3.72292 -0.367309 0
M  V30 41058 H 3693.6 4.90011 -0.463669 0
M  V30 41059 N 3695.25 0.392045 1.52646 0
M  V30 41060 C 3696.49 -0.189005 2.03524 0
M  V30 41061 C 3696.85 -1.43814 1.27206 0
M  V30 41062 O 3698.05 -2.09653 1.68223 0
M  V30 41063 C 3696.33 -0.447717 3.54585 0
M  V30 41064 S 3697.88 -0.998658 4.27285 0
M  V30 41065 H 3694.7 -0.0529918 0.709022 0
M  V30 41066 H 3697.3 0.541026 1.87865 0
M  V30 41067 H 3696.01 0.468472 4.07717 0
M  V30 41068 H 3695.54 -1.2061 3.74455 0
M  V30 41069 H 3697.55 -2.28078 4.40675 0
M  V30 41070 N 3696.73 -1.57127 0.121948 0
M  V30 41071 C 3697.64 -2.19016 -0.840786 0
M  V30 41072 C 3698.65 -1.16715 -1.29049 0
M  V30 41073 O 3699.83 -1.49196 -1.35287 0
M  V30 41074 C 3696.9 -2.77974 -2.07199 0
M  V30 41075 C 3695.96 -3.9532 -1.67392 0
M  V30 41076 C 3695.19 -4.51457 -2.84644 0
M  V30 41077 O 3695.41 -4.06489 -4.00154 0
M  V30 41078 O 3694.35 -5.42098 -2.61559 0
M  V30 41079 H 3698.17 -3.01744 -0.344093 0
M  V30 41080 H 3695.76 -1.49039 -0.103815 0
M  V30 41081 H 3697.64 -3.15545 -2.79301 0
M  V30 41082 H 3696.31 -1.98275 -2.55869 0
M  V30 41083 H 3695.22 -3.62512 -0.923886 0
M  V30 41084 H 3696.55 -4.76464 -1.23462 0
M  V30 41085 N 3698.21 0.151829 -1.56867 0
M  V30 41086 C 3699.45 0.861735 -1.84244 0
M  V30 41087 C 3699.81 1.79008 -0.705261 0
M  V30 41088 O 3699.1 1.89283 0.297101 0
M  V30 41089 C 3699.29 1.67725 -3.156 0
M  V30 41090 C 3699.12 0.829364 -4.41986 0
M  V30 41091 C 3697.89 0.496855 -5.02851 0
M  V30 41092 C 3700.09 0.161915 -5.14045 0
M  V30 41093 N 3698.07 -0.36513 -6.12813 0
M  V30 41094 C 3699.44 -0.560409 -6.17462 0
M  V30 41095 C 3701.5 0.0820892 -4.97832 0
M  V30 41096 C 3700.2 -1.35502 -7.06422 0
M  V30 41097 C 3702.23 -0.699241 -5.87252 0
M  V30 41098 C 3701.59 -1.40986 -6.90146 0
M  V30 41099 H 3697.69 0.293316 -0.724907 0
M  V30 41100 H 3700.27 0.127414 -1.94283 0
M  V30 41101 H 3698.44 2.38284 -3.06717 0
M  V30 41102 H 3700.18 2.32995 -3.30901 0
M  V30 41103 H 3696.93 0.831514 -4.66243 0
M  V30 41104 H 3697.36 -0.787004 -6.7241 0
M  V30 41105 H 3702 0.617138 -4.18272 0
M  V30 41106 H 3699.72 -1.90134 -7.85414 0
M  V30 41107 H 3703.3 -0.762934 -5.76776 0
M  V30 41108 H 3702.18 -2.00475 -7.58142 0
M  V30 41109 N 3699.68 1.51872 0.421024 0
M  V30 41110 C 3700.59 1.77232 1.53707 0
M  V30 41111 C 3701.61 0.657285 1.61108 0
M  V30 41112 O 3702.79 0.941375 1.78045 0
M  V30 41113 C 3699.85 1.90685 2.89551 0
M  V30 41114 C 3698.91 3.14573 2.92134 0
M  V30 41115 C 3698.15 3.27374 4.21499 0
M  V30 41116 O 3698.37 2.45721 5.1476 0
M  V30 41117 O 3697.3 4.20455 4.30698 0
M  V30 41118 H 3701.13 2.71938 1.35216 0
M  V30 41119 H 3698.71 1.36572 0.605688 0
M  V30 41120 H 3700.6 2.01425 3.70143 0
M  V30 41121 H 3699.27 0.991681 3.08135 0
M  V30 41122 H 3698.18 3.093 2.10439 0
M  V30 41123 H 3699.51 4.05832 2.78498 0
M  V30 41124 N 3701.16 -0.677513 1.42294 0
M  V30 41125 C 3702.07 -1.82061 1.47956 0
M  V30 41126 C 3703.09 -1.70052 0.36854 0
M  V30 41127 O 3704.26 -1.91651 0.61903 0
M  V30 41128 C 3701.33 -3.18184 1.37696 0
M  V30 41129 C 3700.39 -3.42169 2.59267 0
M  V30 41130 C 3699.62 -4.71797 2.49486 0
M  V30 41131 O 3699.85 -5.49518 1.52925 0
M  V30 41132 O 3698.78 -4.96966 3.39571 0
M  V30 41133 H 3702.61 -1.8024 2.44433 0
M  V30 41134 H 3700.19 -0.83291 1.24028 0
M  V30 41135 H 3702.07 -3.99418 1.34326 0
M  V30 41136 H 3700.75 -3.20648 0.443433 0
M  V30 41137 H 3699.66 -2.60793 2.68212 0
M  V30 41138 H 3700.99 -3.44532 3.51509 0
M  V30 41139 N 3702.64 -1.28421 -0.913554 0
M  V30 41140 C 3703.89 -1.14964 -1.65729 0
M  V30 41141 C 3704.2 0.301045 -1.93269 0
M  V30 41142 O 3705.41 0.556731 -2.65731 0
M  V30 41143 C 3703.86 -2.00975 -2.98559 0
M  V30 41144 C 3703.47 -3.50785 -2.78665 0
M  V30 41145 C 3705.22 -1.96205 -3.76436 0
M  V30 41146 C 3703.12 -4.28945 -4.07136 0
M  V30 41147 H 3702.05 -0.426659 -0.621673 0
M  V30 41148 H 3704.7 -1.52954 -1.01377 0
M  V30 41149 H 3703.09 -1.55841 -3.64046 0
M  V30 41150 H 3704.26 -4.03877 -2.21856 0
M  V30 41151 H 3702.58 -3.57082 -2.142 0
M  V30 41152 H 3705.17 -2.51869 -4.71663 0
M  V30 41153 H 3705.52 -0.938843 -4.05575 0
M  V30 41154 H 3706.05 -2.39308 -3.17768 0
M  V30 41155 H 3702.79 -5.31847 -3.83169 0
M  V30 41156 H 3702.31 -3.80627 -4.63555 0
M  V30 41157 H 3703.99 -4.38875 -4.75392 0
M  V30 41158 N 3704.12 1.12202 -1.10672 0
M  V30 41159 C 3705.35 1.87585 -0.8729 0
M  V30 41160 C 3705.76 1.79774 0.576789 0
M  V30 41161 O 3705.12 1.17336 1.3978 0
M  V30 41162 C 3705.17 3.36704 -1.31578 0
M  V30 41163 O 3704.89 3.44333 -2.70862 0
M  V30 41164 C 3706.39 4.29017 -1.1162 0
M  V30 41165 H 3703.61 0.59345 -0.313143 0
M  V30 41166 H 3706.16 1.41957 -1.47202 0
M  V30 41167 H 3704.31 3.79866 -0.760279 0
M  V30 41168 H 3704.72 4.37127 -2.89862 0
M  V30 41169 H 3706.2 5.31923 -1.4752 0
M  V30 41170 H 3706.68 4.39166 -0.055047 0
M  V30 41171 H 3707.28 3.91639 -1.65829 0
M  V30 41172 N 3705.6 0.895838 1.29663 0
M  V30 41173 C 3706.85 0.515783 1.94994 0
M  V30 41174 C 3707.16 -0.94189 1.71429 0
M  V30 41175 O 3708.36 -1.42929 2.30832 0
M  V30 41176 C 3706.82 0.871529 3.49188 0
M  V30 41177 C 3706.43 2.34771 3.81558 0
M  V30 41178 C 3708.17 0.561197 4.20774 0
M  V30 41179 C 3706.08 2.64452 5.28979 0
M  V30 41180 H 3705.01 0.189164 0.729886 0
M  V30 41181 H 3707.66 1.0923 1.47448 0
M  V30 41182 H 3706.04 0.223977 3.95366 0
M  V30 41183 H 3707.22 3.04049 3.46253 0
M  V30 41184 H 3705.53 2.62667 3.23102 0
M  V30 41185 H 3708.13 0.759848 5.29273 0
M  V30 41186 H 3708.47 -0.500056 4.13286 0
M  V30 41187 H 3709 1.16642 3.80315 0
M  V30 41188 H 3705.74 3.6936 5.41529 0
M  V30 41189 H 3705.26 1.99794 5.65546 0
M  V30 41190 H 3706.94 2.50517 5.96532 0
M  V30 41191 N 3707.07 -1.43211 0.657914 0
M  V30 41192 C 3708.3 -2.06106 0.181108 0
M  V30 41193 C 3708.72 -1.49341 -1.15511 0
M  V30 41194 O 3708.07 -0.626548 -1.71408 0
M  V30 41195 C 3708.13 -3.6139 0.0890879 0
M  V30 41196 O 3707.85 -4.16046 1.37249 0
M  V30 41197 C 3709.35 -4.4137 -0.413235 0
M  V30 41198 H 3706.57 -0.664653 0.0920694 0
M  V30 41199 H 3709.11 -1.83636 0.899888 0
M  V30 41200 H 3707.27 -3.83029 -0.580278 0
M  V30 41201 H 3707.68 -5.09759 1.23476 0
M  V30 41202 H 3709.15 -5.50349 -0.426566 0
M  V30 41203 H 3709.63 -4.14734 -1.44542 0
M  V30 41204 H 3710.24 -4.24711 0.223802 0
M  V30 41205 N 3708.55 -0.400135 -1.52436 0
M  V30 41206 C 3709.8 0.178217 -2.01313 0
M  V30 41207 C 3710.12 1.46409 -1.288 0
M  V30 41208 O 3709.39 1.91535 -0.411245 0
M  V30 41209 H 3707.97 0.0688482 -0.74382 0
M  V30 41210 H 3710.63 -0.534313 -1.87433 0
M  V30 41211 H 3709.73 0.380739 -3.09769 0
M  V30 41212 N 3710.03 1.57061 -0.13028 0
M  V30 41213 C 3711.26 2.00363 0.535672 0
M  V30 41214 C 3711.68 1.00959 1.5871 0
M  V30 41215 O 3711.04 -0.0171227 1.81292 0
M  V30 41216 C 3711.09 3.42493 1.1283 0
M  V30 41217 O 3710.19 3.46029 2.24361 0
M  V30 41218 H 3709.53 0.6506 0.132724 0
M  V30 41219 H 3712.06 2.03391 -0.222083 0
M  V30 41220 H 3712.07 3.80941 1.46108 0
M  V30 41221 H 3710.75 4.14354 0.358231 0
M  V30 41222 H 3709.32 3.19409 1.92438 0
M  V30 41223 N 3711.51 -0.143508 1.56945 0
M  V30 41224 C 3712.79 -0.884423 1.74463 0
M  V30 41225 C 3713.17 -1.99183 0.699236 0
M  V30 41226 O 3712.51 -2.26763 -0.281227 0
M  V30 41227 C 3712.72 -1.42367 3.18642 0
M  V30 41228 C 3714.07 -1.88571 3.80429 0
M  V30 41229 O 3715.1 -1.52101 3.22093 0
M  V30 41230 O 3713.96 -2.55838 4.82917 0
M  V30 41231 H 3711.05 -0.418208 0.713464 0
M  V30 41232 H 3713.6 -0.12916 1.69208 0
M  V30 41233 H 3712.37 -0.627988 3.86228 0
M  V30 41234 H 3711.99 -2.24234 3.28336 0
M  V30 41235 N 3712.99 -1.52093 -0.412964 0
M  V30 41236 C 3714.24 -1.65636 -1.15798 0
M  V30 41237 C 3714.56 -0.386771 -1.91126 0
M  V30 41238 O 3713.83 0.598229 -1.86542 0
M  V30 41239 H 3712.41 -0.610505 -0.430456 0
M  V30 41240 H 3715.07 -1.89121 -0.471094 0
M  V30 41241 H 3714.16 -2.49563 -1.87417 0
M  V30 41242 N 3714.47 0.669957 -1.42651 0
M  V30 41243 C 3715.69 1.46312 -1.46995 0
M  V30 41244 C 3716.12 1.87912 -0.0840986 0
M  V30 41245 O 3715.47 1.5631 0.918527 0
M  V30 41246 C 3715.52 2.68536 -2.40668 0
M  V30 41247 O 3714.63 3.66985 -1.88138 0
M  V30 41248 H 3713.97 0.439363 -0.497852 0
M  V30 41249 H 3716.5 0.821315 -1.87392 0
M  V30 41250 H 3716.51 3.1655 -2.57411 0
M  V30 41251 H 3715.18 2.37598 -3.4135 0
M  V30 41252 H 3713.76 3.26041 -1.80974 0
M  V30 41253 N 3715.94 1.28904 0.90673 0
M  V30 41254 C 3717.17 1.19336 1.69017 0
M  V30 41255 C 3717.59 -0.247032 1.87177 0
M  V30 41256 O 3716.94 -1.16621 1.40378 0
M  V30 41257 C 3716.99 1.895 3.07851 0
M  V30 41258 O 3716.72 3.27913 2.90525 0
M  V30 41259 C 3718.22 1.86321 4.02243 0
M  V30 41260 H 3715.44 0.413931 0.528112 0
M  V30 41261 H 3717.98 1.70153 1.13438 0
M  V30 41262 H 3716.14 1.42536 3.60225 0
M  V30 41263 H 3716.55 3.63153 3.78445 0
M  V30 41264 H 3718.02 2.39992 4.97099 0
M  V30 41265 H 3718.5 0.837147 4.31148 0
M  V30 41266 H 3719.11 2.32997 3.55799 0
M  V30 41267 N 3717.42 -1.11614 1.11266 0
M  V30 41268 C 3718.84 -1.3532 0.8462 0
M  V30 41269 C 3719.04 -1.94405 -0.530008 0
M  V30 41270 O 3718.09 -2.17582 -1.28118 0
M  V30 41271 C 3719.41 -2.28658 1.95284 0
M  V30 41272 C 3720.95 -2.42227 1.98229 0
M  V30 41273 C 3721.43 -3.38886 3.08092 0
M  V30 41274 N 3722.92 -3.46448 3.07454 0
M  V30 41275 C 3723.66 -4.21174 3.89102 0
M  V30 41276 N 3723.15 -4.98891 4.80707 0
M  V30 41277 N 3724.94 -4.16667 3.77286 0
M  V30 41278 H 3717.1 -0.716249 1.99959 0
M  V30 41279 H 3719.36 -0.377846 0.869446 0
M  V30 41280 H 3719.06 -1.92434 2.94384 0
M  V30 41281 H 3718.94 -3.2886 1.84745 0
M  V30 41282 H 3721.33 -2.77728 0.997566 0
M  V30 41283 H 3721.41 -1.41883 2.12845 0
M  V30 41284 H 3721.05 -3.04113 4.06789 0
M  V30 41285 H 3720.98 -4.3908 2.90717 0
M  V30 41286 H 3723.47 -2.91011 2.41082 0
M  V30 41287 H 3723.78 -5.53273 5.39545 0
M  V30 41288 H 3722.13 -4.98058 4.8473 0
M  V30 41289 H 3725.32 -3.55039 3.05066 0
M  V30 41290 H 3725.49 -4.74648 4.4115 0
M  V30 41291 N 3718.9 -0.902701 -1.29186 0
M  V30 41292 C 3720.15 -0.530943 -1.95726 0
M  V30 41293 C 3720.48 0.920984 -1.70972 0
M  V30 41294 O 3719.75 1.65337 -1.02439 0
M  V30 41295 C 3720.04 -0.827584 -3.50461 0
M  V30 41296 C 3719.89 -2.33143 -3.84661 0
M  V30 41297 C 3721.21 -0.31613 -4.38963 0
M  V30 41298 H 3718.33 -0.194374 -0.710906 0
M  V30 41299 H 3720.97 -1.12993 -1.5275 0
M  V30 41300 H 3719.12 -0.3178 -3.87198 0
M  V30 41301 H 3720.79 -2.91099 -3.57854 0
M  V30 41302 H 3719.03 -2.79094 -3.32098 0
M  V30 41303 H 3719.71 -2.48956 -4.92671 0
M  V30 41304 H 3722.18 -0.752692 -4.09236 0
M  V30 41305 H 3721.06 -0.552865 -5.46109 0
M  V30 41306 H 3721.32 0.783253 -4.35106 0
M  V30 41307 N 3720.38 1.4286 -0.6655 0
M  V30 41308 C 3721.62 2.01962 -0.184192 0
M  V30 41309 C 3721.96 1.52453 1.20298 0
M  V30 41310 O 3721.23 0.722788 1.80571 0
M  V30 41311 C 3721.51 3.59496 -0.20856 0
M  V30 41312 C 3721.37 4.19206 -1.63053 0
M  V30 41313 C 3722.69 4.3781 0.448344 0
M  V30 41314 H 3719.81 0.733819 -0.0684053 0
M  V30 41315 H 3722.45 1.7 -0.84852 0
M  V30 41316 H 3720.6 3.86855 0.357111 0
M  V30 41317 H 3722.27 4.02833 -2.24773 0
M  V30 41318 H 3720.51 3.75388 -2.17407 0
M  V30 41319 H 3721.18 5.28323 -1.59934 0
M  V30 41320 H 3723.66 4.16087 -0.0330784 0
M  V30 41321 H 3722.54 5.47436 0.400616 0
M  V30 41322 H 3722.8 4.14985 1.52446 0
M  V30 41323 N 3721.86 0.408213 1.52221 0
M  V30 41324 C 3722.79 -0.408828 2.29893 0
M  V30 41325 C 3723.77 -1.04693 1.34065 0
M  V30 41326 O 3724.95 -1.05612 1.62972 0
M  V30 41327 C 3722.08 -1.52623 3.11967 0
M  V30 41328 C 3721.04 -1.01318 4.15835 0
M  V30 41329 C 3720.36 -2.22412 4.86248 0
M  V30 41330 C 3721.66 -0.0678655 5.22256 0
M  V30 41331 H 3723.36 0.239283 2.98442 0
M  V30 41332 H 3720.9 0.116521 1.43528 0
M  V30 41333 H 3722.85 -2.10479 3.6507 0
M  V30 41334 H 3721.58 -2.20221 2.41185 0
M  V30 41335 H 3720.24 -0.457036 3.6374 0
M  V30 41336 H 3719.89 -2.88562 4.11996 0
M  V30 41337 H 3719.59 -1.88736 5.56464 0
M  V30 41338 H 3721.11 -2.80875 5.42164 0
M  V30 41339 H 3722.52 -0.555195 5.70605 0
M  V30 41340 H 3720.92 0.180039 5.9983 0
M  V30 41341 H 3721.99 0.877683 4.76891 0
M  V30 41342 N 3723.33 -1.56989 0.138607 0
M  V30 41343 C 3724.58 -1.96143 -0.515355 0
M  V30 41344 C 3724.91 -1.02309 -1.65065 0
M  V30 41345 O 3724.19 -0.0638987 -1.94395 0
M  V30 41346 C 3724.47 -3.4507 -1.0295 0
M  V30 41347 C 3724.32 -4.4968 0.103725 0
M  V30 41348 C 3725.64 -3.96299 -1.91404 0
M  V30 41349 H 3722.76 -0.713179 -0.18586 0
M  V30 41350 H 3725.4 -1.88744 0.218136 0
M  V30 41351 H 3723.55 -3.51506 -1.65456 0
M  V30 41352 H 3725.23 -4.5533 0.739773 0
M  V30 41353 H 3723.47 -4.27018 0.764089 0
M  V30 41354 H 3724.14 -5.51197 -0.297591 0
M  V30 41355 H 3726.62 -3.92289 -1.3874 0
M  V30 41356 H 3725.49 -5.00984 -2.2429 0
M  V30 41357 H 3725.75 -3.38154 -2.84788 0
M  V30 41358 N 3724.81 0.135183 -1.57019 0
M  V30 41359 C 3726.09 0.875159 -1.7493 0
M  V30 41360 C 3726.47 1.98809 -0.70979 0
M  V30 41361 O 3725.82 2.26909 0.269198 0
M  V30 41362 C 3726.03 1.40675 -3.19392 0
M  V30 41363 C 3727.37 1.8655 -3.81424 0
M  V30 41364 O 3728.4 1.50391 -3.22895 0
M  V30 41365 O 3727.26 2.53274 -4.84267 0
M  V30 41366 H 3724.35 0.414418 -0.715672 0
M  V30 41367 H 3726.9 0.120185 -1.69274 0
M  V30 41368 H 3725.67 0.607496 -3.86556 0
M  V30 41369 H 3725.29 2.2249 -3.29521 0
M  V30 41370 N 3726.29 1.5231 0.404892 0
M  V30 41371 C 3727.71 1.41207 0.743821 0
M  V30 41372 C 3727.91 0.519909 1.94677 0
M  V30 41373 O 3726.96 -0.0126973 2.52497 0
M  V30 41374 C 3728.28 2.83803 0.99379 0
M  V30 41375 C 3729.82 2.93175 1.09624 0
M  V30 41376 C 3730.3 4.36748 1.37895 0
M  V30 41377 N 3731.79 4.40002 1.44751 0
M  V30 41378 C 3732.52 5.48157 1.68259 0
M  V30 41379 N 3732.02 6.66424 1.89344 0
M  V30 41380 N 3733.81 5.35678 1.70309 0
M  V30 41381 H 3725.96 2.08847 -0.386892 0
M  V30 41382 H 3728.23 0.941499 -0.110828 0
M  V30 41383 H 3727.93 3.51228 0.182187 0
M  V30 41384 H 3727.81 3.25102 1.91281 0
M  V30 41385 H 3730.19 2.25928 1.89843 0
M  V30 41386 H 3730.28 2.55327 0.155494 0
M  V30 41387 H 3729.92 5.04555 0.581915 0
M  V30 41388 H 3729.85 4.72136 2.33228 0
M  V30 41389 H 3732.34 3.54752 1.30229 0
M  V30 41390 H 3732.65 7.44632 2.06744 0
M  V30 41391 H 3731 6.69481 1.866 0
M  V30 41392 H 3734.19 4.42259 1.53377 0
M  V30 41393 H 3734.36 6.20041 1.88291 0
M  V30 41394 N 3727.77 -0.662382 1.43004 0
M  V30 41395 C 3728.72 -1.77558 1.47451 0
M  V30 41396 C 3729.69 -1.62886 0.32515 0
M  V30 41397 O 3730.87 -1.83262 0.531004 0
M  V30 41398 C 3728.01 -3.15663 1.39465 0
M  V30 41399 C 3727.12 -3.41534 2.64535 0
M  V30 41400 C 3726.26 -4.69436 2.48602 0
M  V30 41401 C 3725.3 -4.88382 3.68985 0
M  V30 41402 N 3724.43 -6.07534 3.51918 0
M  V30 41403 H 3729.27 -1.73092 2.42576 0
M  V30 41404 H 3726.81 -0.844819 1.20421 0
M  V30 41405 H 3728.77 -3.95489 1.32831 0
M  V30 41406 H 3727.4 -3.19222 0.479283 0
M  V30 41407 H 3726.45 -2.55872 2.81485 0
M  V30 41408 H 3727.76 -3.51422 3.53983 0
M  V30 41409 H 3726.92 -5.57373 2.39624 0
M  V30 41410 H 3725.66 -4.61853 1.56664 0
M  V30 41411 H 3724.66 -3.98883 3.78381 0
M  V30 41412 H 3725.89 -4.97802 4.6192 0
M  V30 41413 H 3723.83 -6.011 2.62707 0
M  V30 41414 H 3723.75 -6.1834 4.34962 0
M  V30 41415 H 3725.02 -6.98117 3.46775 0
M  V30 41416 N 3729.25 -1.29383 -0.899882 0
M  V30 41417 C 3730.47 -1.2023 -1.68381 0
M  V30 41418 C 3730.89 0.237102 -1.87305 0
M  V30 41419 O 3730.25 1.15874 -1.40994 0
M  V30 41420 C 3730.3 -1.9113 -3.06841 0
M  V30 41421 O 3730.02 -3.29449 -2.88782 0
M  V30 41422 C 3731.52 -1.88452 -4.01249 0
M  V30 41423 H 3728.74 -0.416726 -0.525909 0
M  V30 41424 H 3731.28 -1.70752 -1.12534 0
M  V30 41425 H 3729.44 -1.44444 -3.59464 0
M  V30 41426 H 3729.85 -3.65155 -3.76513 0
M  V30 41427 H 3731.33 -2.42625 -4.9582 0
M  V30 41428 H 3731.8 -0.86 -4.30698 0
M  V30 41429 H 3732.41 -2.3488 -3.54558 0
M  V30 41430 N 3730.72 1.11022 -1.11856 0
M  V30 41431 C 3731.97 1.82492 -0.868387 0
M  V30 41432 C 3732.29 1.85293 0.607589 0
M  V30 41433 O 3731.56 1.32661 1.44145 0
M  V30 41434 H 3730.14 0.675805 -0.318272 0
M  V30 41435 H 3732.81 1.34363 -1.41182 0
M  V30 41436 H 3731.9 2.86216 -1.24446 0
M  V30 41437 N 3732.2 0.90954 1.28706 0
M  V30 41438 C 3733.43 0.555593 1.9982 0
M  V30 41439 C 3733.85 -0.854902 1.6755 0
M  V30 41440 O 3733.21 -1.57065 0.905549 0
M  V30 41441 C 3733.26 0.7665 3.52359 0
M  V30 41442 O 3732.36 -0.176467 4.12022 0
M  V30 41443 H 3731.7 0.215916 0.627914 0
M  V30 41444 H 3734.23 1.22382 1.63962 0
M  V30 41445 H 3734.24 0.674965 4.02378 0
M  V30 41446 H 3732.92 1.79477 3.75181 0
M  V30 41447 H 3731.5 -0.0365561 3.72882 0
M  V30 41448 N 3733.68 -1.42505 0.673067 0
M  V30 41449 C 3734.61 -2.29155 -0.0452572 0
M  V30 41450 C 3735.63 -1.43587 -0.767252 0
M  V30 41451 O 3736.81 -1.67324 -0.621699 0
M  V30 41452 C 3733.91 -3.20969 -1.08775 0
M  V30 41453 C 3733.09 -4.35182 -0.439922 0
M  V30 41454 C 3732.15 -5.07729 -1.38196 0
M  V30 41455 O 3731.17 -5.6231 -0.882932 0
M  V30 41456 N 3732.37 -5.1308 -2.71531 0
M  V30 41457 H 3735.14 -2.91445 0.698568 0
M  V30 41458 H 3732.7 -1.53412 0.517349 0
M  V30 41459 H 3734.69 -3.66369 -1.71919 0
M  V30 41460 H 3733.26 -2.60143 -1.73333 0
M  V30 41461 H 3732.48 -3.9245 0.370995 0
M  V30 41462 H 3733.77 -5.08799 0.0114632 0
M  V30 41463 H 3733.17 -4.70143 -3.14615 0
M  V30 41464 H 3731.73 -5.62131 -3.29927 0
M  V30 41465 N 3735.16 -0.41628 -1.52003 0
M  V30 41466 C 3736.39 0.156228 -2.06008 0
M  V30 41467 C 3736.8 1.38808 -1.28565 0
M  V30 41468 O 3736.14 1.80662 -0.332682 0
M  V30 41469 C 3736.2 0.564551 -3.5504 0
M  V30 41470 C 3735.87 -0.557561 -4.53586 0
M  V30 41471 C 3736.86 -1.42332 -5.00038 0
M  V30 41472 C 3734.55 -0.732293 -4.96933 0
M  V30 41473 C 3736.54 -2.4487 -5.88487 0
M  V30 41474 C 3734.23 -1.76097 -5.85178 0
M  V30 41475 C 3735.23 -2.61758 -6.3085 0
M  V30 41476 O 3734.91 -3.62863 -7.17346 0
M  V30 41477 H 3734.65 0.0207436 -0.675682 0
M  V30 41478 H 3737.2 -0.587955 -1.96805 0
M  V30 41479 H 3735.43 1.36112 -3.61953 0
M  V30 41480 H 3737.12 1.0658 -3.91658 0
M  V30 41481 H 3737.89 -1.29977 -4.67259 0
M  V30 41482 H 3733.76 -0.0751826 -4.60939 0
M  V30 41483 H 3737.31 -3.11765 -6.24058 0
M  V30 41484 H 3733.21 -1.88481 -6.1737 0
M  V30 41485 H 3733.97 -3.59192 -7.35475 0
M  V30 41486 N 3736.64 1.56914 -0.146931 0
M  V30 41487 C 3737.91 1.8773 0.549258 0
M  V30 41488 C 3738.29 1.05287 1.82969 0
M  V30 41489 O 3737.64 0.139668 2.28073 0
M  V30 41490 C 3737.85 3.39356 0.814775 0
M  V30 41491 C 3739.2 4.08573 1.15558 0
M  V30 41492 O 3740.22 3.44534 0.90413 0
M  V30 41493 O 3739.08 5.21664 1.62877 0
M  V30 41494 H 3736.18 0.778092 0.280182 0
M  V30 41495 H 3738.72 1.68705 -0.183537 0
M  V30 41496 H 3737.49 3.91193 -0.0914214 0
M  V30 41497 H 3737.12 3.63909 1.60175 0
M  V30 41498 N 3738.11 -0.126854 1.57089 0
M  V30 41499 C 3739.36 -0.83455 1.83625 0
M  V30 41500 C 3739.68 -1.81412 0.731363 0
M  V30 41501 O 3740.88 -2.56743 0.882905 0
M  V30 41502 C 3739.34 -1.53484 3.25531 0
M  V30 41503 C 3738.95 -0.596652 4.44009 0
M  V30 41504 C 3740.69 -2.22813 3.61323 0
M  V30 41505 C 3738.6 -1.29972 5.76941 0
M  V30 41506 H 3737.53 -0.315402 0.684863 0
M  V30 41507 H 3740.18 -0.0872728 1.83292 0
M  V30 41508 H 3738.56 -2.32846 3.2031 0
M  V30 41509 H 3739.73 0.16319 4.60511 0
M  V30 41510 H 3738.05 -0.0107349 4.16399 0
M  V30 41511 H 3740.65 -2.7609 4.57907 0
M  V30 41512 H 3740.99 -3.00249 2.88369 0
M  V30 41513 H 3741.52 -1.50347 3.68294 0
M  V30 41514 H 3738.26 -0.56681 6.53045 0
M  V30 41515 H 3737.78 -2.03177 5.6434 0
M  V30 41516 H 3739.46 -1.83509 6.2043 0
M  V30 41517 N 3739.59 -1.52523 -0.396809 0
M  V30 41518 C 3740.52 -1.72989 -1.50358 0
M  V30 41519 C 3741.54 -0.610316 -1.50927 0
M  V30 41520 O 3742.73 -0.885807 -1.5497 0
M  V30 41521 C 3739.83 -1.7664 -2.89226 0
M  V30 41522 C 3739 -3.05829 -3.1271 0
M  V30 41523 C 3738.06 -3.0113 -4.31517 0
M  V30 41524 O 3737.08 -3.75011 -4.282 0
M  V30 41525 N 3738.29 -2.19773 -5.3729 0
M  V30 41526 H 3741.05 -2.68477 -1.33191 0
M  V30 41527 H 3738.61 -1.50913 -0.586243 0
M  V30 41528 H 3740.6 -1.71012 -3.66793 0
M  V30 41529 H 3739.17 -0.88572 -2.9979 0
M  V30 41530 H 3738.39 -3.25008 -2.23077 0
M  V30 41531 H 3739.68 -3.91267 -3.2525 0
M  V30 41532 H 3739.08 -1.592 -5.42837 0
M  V30 41533 H 3737.64 -2.19992 -6.13553 0
M  V30 41534 N 3741.07 0.654789 -1.43354 0
M  V30 41535 C 3742.35 1.41193 -1.35366 0
M  V30 41536 C 3742.73 2.111 -0.000698629 0
M  V30 41537 O 3742.08 2.0468 1.01579 0
M  V30 41538 C 3742.29 2.39792 -2.53576 0
M  V30 41539 C 3743.63 3.03839 -2.96593 0
M  V30 41540 O 3744.66 2.50119 -2.53612 0
M  V30 41541 O 3743.52 4.01232 -3.71046 0
M  V30 41542 H 3740.61 0.630746 -0.534872 0
M  V30 41543 H 3743.16 0.681829 -1.554 0
M  V30 41544 H 3741.93 1.87072 -3.43686 0
M  V30 41545 H 3741.55 3.20254 -2.35633 0
M  V30 41546 N 3742.55 1.29858 0.893007 0
M  V30 41547 C 3743.51 1.15549 1.97942 0
M  V30 41548 C 3744.51 0.0890172 1.60553 0
M  V30 41549 O 3745.7 0.336494 1.70919 0
M  V30 41550 C 3742.83 0.7685 3.32125 0
M  V30 41551 H 3744.03 2.12059 2.12064 0
M  V30 41552 H 3741.58 1.1314 1.07838 0
M  V30 41553 H 3742.32 -0.196447 3.23704 0
M  V30 41554 H 3742.1 1.53913 3.60629 0
M  V30 41555 H 3743.59 0.691632 4.11833 0
M  V30 41556 N 3744.03 -1.10427 1.12443 0
M  V30 41557 C 3745.28 -1.81757 0.874498 0
M  V30 41558 C 3745.59 -1.86123 -0.601455 0
M  V30 41559 O 3746.8 -2.53658 -0.967992 0
M  V30 41560 C 3745.25 -3.26467 1.51484 0
M  V30 41561 C 3744.86 -3.30397 3.02558 0
M  V30 41562 C 3746.6 -4.02623 1.34518 0
M  V30 41563 C 3744.51 -4.69569 3.59526 0
M  V30 41564 H 3743.44 -0.681073 0.323506 0
M  V30 41565 H 3746.09 -1.24185 1.35093 0
M  V30 41566 H 3744.47 -3.84035 0.966068 0
M  V30 41567 H 3745.65 -2.82653 3.63929 0
M  V30 41568 H 3743.96 -2.67727 3.18922 0
M  V30 41569 H 3746.56 -5.05424 1.74501 0
M  V30 41570 H 3746.9 -4.15297 0.288861 0
M  V30 41571 H 3747.44 -3.51469 1.86317 0
M  V30 41572 H 3744.17 -4.62095 4.64918 0
M  V30 41573 H 3743.69 -5.1768 3.02931 0
M  V30 41574 H 3745.37 -5.38537 3.5859 0
M  V30 41575 N 3745.51 -0.916353 -1.28221 0
M  V30 41576 C 3746.78 -0.469695 -1.89877 0
M  V30 41577 C 3747.16 1.05166 -1.83039 0
M  V30 41578 O 3746.51 1.90086 -1.26805 0
M  V30 41579 C 3746.72 -1.00299 -3.34277 0
M  V30 41580 C 3748.07 -1.05665 -4.11242 0
M  V30 41581 O 3749.09 -0.951813 -3.43248 0
M  V30 41582 O 3747.95 -1.21661 -5.32786 0
M  V30 41583 H 3745.05 -0.149278 -0.813416 0
M  V30 41584 H 3747.59 -1.00731 -1.3657 0
M  V30 41585 H 3746.36 -2.04694 -3.33491 0
M  V30 41586 H 3745.99 -0.446357 -3.95087 0
M  V30 41587 N 3746.98 1.42146 -0.680615 0
M  V30 41588 C 3747.93 2.30799 -0.00589983 0
M  V30 41589 C 3748.9 1.46285 0.786752 0
M  V30 41590 O 3750.09 1.75105 0.757822 0
M  V30 41591 C 3747.23 3.32185 0.935261 0
M  V30 41592 C 3746.34 4.31786 0.135815 0
M  V30 41593 C 3745.47 5.20245 1.07325 0
M  V30 41594 C 3744.51 6.11522 0.265836 0
M  V30 41595 N 3743.65 6.92513 1.15629 0
M  V30 41596 H 3748.49 2.87942 -0.767702 0
M  V30 41597 H 3746.03 1.41827 -0.390315 0
M  V30 41598 H 3747.98 3.89501 1.49482 0
M  V30 41599 H 3746.61 2.76628 1.66363 0
M  V30 41600 H 3745.67 3.76541 -0.540449 0
M  V30 41601 H 3746.98 4.96379 -0.490803 0
M  V30 41602 H 3746.13 5.82322 1.70254 0
M  V30 41603 H 3744.87 4.55843 1.73375 0
M  V30 41604 H 3743.88 5.48508 -0.376627 0
M  V30 41605 H 3745.1 6.77975 -0.390649 0
M  V30 41606 H 3743.05 6.30734 1.80308 0
M  V30 41607 H 3742.96 7.53734 0.58489 0
M  V30 41608 H 3744.23 7.59072 1.77286 0
M  V30 41609 N 3748.46 0.424336 1.5178 0
M  V30 41610 C 3749.71 -0.146167 2.01571 0
M  V30 41611 C 3750.03 -1.44342 1.31113 0
M  V30 41612 O 3749.3 -1.90856 0.441664 0
M  V30 41613 H 3747.88 -0.0570059 0.744822 0
M  V30 41614 H 3750.54 0.564064 1.86559 0
M  V30 41615 H 3749.64 -0.331409 3.10335 0
M  V30 41616 N 3749.94 -1.56833 0.15525 0
M  V30 41617 C 3750.87 -2.20185 -0.77722 0
M  V30 41618 C 3751.85 -1.15256 -1.251 0
M  V30 41619 O 3753.04 -1.43629 -1.30707 0
M  V30 41620 C 3750.17 -2.82996 -2.01321 0
M  V30 41621 C 3749.12 -3.93825 -1.6759 0
M  V30 41622 C 3748.45 -4.43609 -2.98521 0
M  V30 41623 C 3749.75 -5.14201 -0.916212 0
M  V30 41624 H 3751.44 -2.98361 -0.249205 0
M  V30 41625 H 3748.99 -1.43512 -0.118423 0
M  V30 41626 H 3750.94 -3.25985 -2.67043 0
M  V30 41627 H 3749.66 -2.02164 -2.56509 0
M  V30 41628 H 3748.32 -3.51467 -1.04244 0
M  V30 41629 H 3747.97 -3.59589 -3.51717 0
M  V30 41630 H 3747.67 -5.18367 -2.76711 0
M  V30 41631 H 3749.19 -4.89274 -3.65299 0
M  V30 41632 H 3750.61 -5.53983 -1.47568 0
M  V30 41633 H 3749 -5.94774 -0.797751 0
M  V30 41634 H 3750.07 -4.84816 0.0905203 0
M  V30 41635 N 3751.42 0.118521 -1.57154 0
M  V30 41636 C 3752.66 0.827447 -1.85152 0
M  V30 41637 C 3753 1.79505 -0.741058 0
M  V30 41638 O 3752.27 1.92847 0.253061 0
M  V30 41639 C 3752.55 1.57692 -3.23736 0
M  V30 41640 C 3752.41 0.628889 -4.45382 0
M  V30 41641 C 3753.73 2.53299 -3.599 0
M  V30 41642 H 3750.85 0.299358 -0.673464 0
M  V30 41643 H 3753.49 0.0916864 -1.89779 0
M  V30 41644 H 3751.64 2.20412 -3.19923 0
M  V30 41645 H 3753.31 0.0104935 -4.61299 0
M  V30 41646 H 3751.55 -0.0595382 -4.33759 0
M  V30 41647 H 3752.22 1.18994 -5.39022 0
M  V30 41648 H 3754.7 2.00684 -3.64507 0
M  V30 41649 H 3753.58 3.0277 -4.57844 0
M  V30 41650 H 3753.84 3.35985 -2.87344 0
M  V30 41651 N 3752.9 1.52731 0.388715 0
M  V30 41652 C 3754.17 1.5837 1.14797 0
M  V30 41653 C 3754.55 0.377055 2.07705 0
M  V30 41654 O 3753.9 -0.634595 2.19511 0
M  V30 41655 C 3754.11 2.92266 1.9074 0
M  V30 41656 C 3755.46 3.46012 2.46091 0
M  V30 41657 O 3756.48 2.94142 2.00896 0
M  V30 41658 O 3755.34 4.36636 3.2865 0
M  V30 41659 H 3752.44 0.638757 0.525279 0
M  V30 41660 H 3754.98 1.65067 0.393845 0
M  V30 41661 H 3753.75 3.71532 1.228 0
M  V30 41662 H 3753.38 2.88956 2.73112 0
M  V30 41663 N 3754.37 -0.647178 1.43699 0
M  V30 41664 C 3755.79 -0.963541 1.27232 0
M  V30 41665 C 3755.99 -2.0054 0.196421 0
M  V30 41666 O 3755.05 -2.4893 -0.423118 0
M  V30 41667 C 3756.36 -1.44206 2.63866 0
M  V30 41668 C 3757.91 -1.55839 2.71446 0
M  V30 41669 C 3758.38 -2.0708 4.08512 0
M  V30 41670 N 3759.87 -2.14373 4.10607 0
M  V30 41671 C 3760.61 -2.55157 5.135 0
M  V30 41672 N 3760.1 -2.95192 6.26764 0
M  V30 41673 N 3761.9 -2.5515 5.00854 0
M  V30 41674 H 3754.05 0.0421329 2.12358 0
M  V30 41675 H 3756.31 -0.0437461 0.94699 0
M  V30 41676 H 3756.02 -0.7509 3.4359 0
M  V30 41677 H 3755.89 -2.416 2.89671 0
M  V30 41678 H 3758.28 -2.24055 1.9205 0
M  V30 41679 H 3758.36 -0.568617 2.494 0
M  V30 41680 H 3758 -1.39464 4.88377 0
M  V30 41681 H 3757.93 -3.06899 4.27926 0
M  V30 41682 H 3760.42 -1.86182 3.28853 0
M  V30 41683 H 3760.74 -3.25079 7.01102 0
M  V30 41684 H 3759.08 -2.92982 6.30227 0
M  V30 41685 H 3762.27 -2.23252 4.11432 0
M  V30 41686 H 3762.45 -2.86611 5.8117 0
M  V30 41687 N 3755.85 -1.3033 -0.886108 0
M  V30 41688 C 3756.8 -1.16615 -1.99172 0
M  V30 41689 C 3757.77 -0.0559494 -1.66006 0
M  V30 41690 O 3758.95 -0.22593 -1.89458 0
M  V30 41691 C 3756.09 -0.862784 -3.34141 0
M  V30 41692 C 3755.21 -2.05476 -3.80005 0
M  V30 41693 C 3754.34 -1.68958 -5.03614 0
M  V30 41694 C 3753.38 -2.84657 -5.41883 0
M  V30 41695 N 3752.52 -2.48442 -6.56674 0
M  V30 41696 H 3757.36 -2.112 -2.10234 0
M  V30 41697 H 3754.9 -1.0508 -1.02939 0
M  V30 41698 H 3756.85 -0.66752 -4.11825 0
M  V30 41699 H 3755.48 0.0461894 -3.22767 0
M  V30 41700 H 3754.54 -2.36131 -2.98239 0
M  V30 41701 H 3755.85 -2.92126 -4.04307 0
M  V30 41702 H 3755 -1.45799 -5.88921 0
M  V30 41703 H 3753.74 -0.794758 -4.81181 0
M  V30 41704 H 3752.75 -3.08482 -4.55103 0
M  V30 41705 H 3753.97 -3.74823 -5.6629 0
M  V30 41706 H 3751.92 -1.61465 -6.35819 0
M  V30 41707 H 3751.83 -3.28623 -6.8084 0
M  V30 41708 H 3753.1 -2.28638 -7.45215 0
M  V30 41709 N 3757.33 1.0983 -1.13028 0
M  V30 41710 C 3758.58 1.8192 -0.889451 0
M  V30 41711 C 3758.91 1.85508 0.58454 0
M  V30 41712 O 3758.16 1.31603 1.44842 0
M  V30 41713 C 3758.46 3.28099 -1.41724 0
M  V30 41714 C 3758.13 3.4465 -2.90735 0
M  V30 41715 C 3756.79 3.48875 -3.31421 0
M  V30 41716 C 3759.14 3.49529 -3.86625 0
M  V30 41717 C 3756.47 3.55553 -4.66689 0
M  V30 41718 C 3758.82 3.57741 -5.21732 0
M  V30 41719 C 3757.48 3.60232 -5.61951 0
M  V30 41720 H 3756.75 0.665694 -0.325473 0
M  V30 41721 H 3759.4 1.29416 -1.41152 0
M  V30 41722 H 3757.71 3.83213 -0.815776 0
M  V30 41723 H 3759.4 3.82403 -1.20703 0
M  V30 41724 H 3755.99 3.42044 -2.58272 0
M  V30 41725 H 3760.18 3.4551 -3.56282 0
M  V30 41726 H 3755.43 3.55767 -4.97232 0
M  V30 41727 H 3759.61 3.6046 -5.95854 0
M  V30 41728 H 3757.23 3.65159 -6.66755 0
M  V30 41729 N 3758.81 0.92314 1.27734 0
M  V30 41730 C 3760.06 0.561183 1.94569 0
M  V30 41731 C 3760.38 -0.896775 1.72593 0
M  V30 41732 O 3759.64 -1.65433 1.04549 0
M  V30 41733 C 3759.94 0.82802 3.47676 0
M  V30 41734 C 3759.6 2.267 3.89766 0
M  V30 41735 C 3758.27 2.6604 4.00969 0
M  V30 41736 C 3760.62 3.20298 4.11167 0
M  V30 41737 C 3757.95 3.98112 4.30956 0
M  V30 41738 C 3760.3 4.51946 4.42637 0
M  V30 41739 C 3758.96 4.91127 4.52052 0
M  V30 41740 H 3758.23 0.205351 0.711977 0
M  V30 41741 H 3760.88 1.16624 1.51892 0
M  V30 41742 H 3759.18 0.140247 3.91549 0
M  V30 41743 H 3760.88 0.527002 3.97522 0
M  V30 41744 H 3757.47 1.95177 3.81581 0
M  V30 41745 H 3761.65 2.91109 4.01957 0
M  V30 41746 H 3756.91 4.28157 4.36453 0
M  V30 41747 H 3761.08 5.24478 4.58144 0
M  V30 41748 H 3758.71 5.93497 4.75043 0
M  V30 41749 N 3760.29 -1.41783 0.688143 0
M  V30 41750 C 3761.56 -1.95067 0.144338 0
M  V30 41751 C 3761.94 -1.62791 -1.34396 0
M  V30 41752 O 3761.29 -0.931015 -2.08673 0
M  V30 41753 C 3761.5 -3.46369 0.427702 0
M  V30 41754 C 3762.85 -4.23143 0.351419 0
M  V30 41755 O 3763.87 -3.54354 0.362197 0
M  V30 41756 O 3762.73 -5.45648 0.305114 0
M  V30 41757 H 3759.83 -0.826932 0.0106345 0
M  V30 41758 H 3762.37 -1.5154 0.763793 0
M  V30 41759 H 3761.14 -3.63116 1.45817 0
M  V30 41760 H 3760.77 -3.96974 -0.223097 0
M  V30 41761 N 3761.76 -0.432379 -1.51553 0
M  V30 41762 C 3762.7 0.417288 -2.25369 0
M  V30 41763 C 3763.71 0.990528 -1.29199 0
M  V30 41764 O 3764.9 0.885512 -1.54987 0
M  V30 41765 C 3762 1.5952 -2.99009 0
M  V30 41766 C 3761.17 1.14172 -4.22236 0
M  V30 41767 C 3760.23 2.18919 -4.78498 0
M  V30 41768 O 3759.26 1.78556 -5.40469 0
M  V30 41769 N 3760.46 3.5135 -4.62097 0
M  V30 41770 H 3763.22 -0.215346 -2.98925 0
M  V30 41771 H 3760.78 -0.260998 -1.59782 0
M  V30 41772 H 3762.78 2.29206 -3.33536 0
M  V30 41773 H 3761.35 2.13328 -2.28495 0
M  V30 41774 H 3760.57 0.272113 -3.9326 0
M  V30 41775 H 3761.85 0.816056 -5.02213 0
M  V30 41776 H 3761.25 3.86878 -4.12725 0
M  V30 41777 H 3759.81 4.16945 -5.00999 0
M  V30 41778 N 3763.24 1.56749 -0.163565 0
M  V30 41779 C 3764.47 2.00726 0.489142 0
M  V30 41780 C 3764.88 1.04282 1.57867 0
M  V30 41781 O 3764.22 0.0344757 1.83668 0
M  V30 41782 C 3764.29 3.41134 1.13437 0
M  V30 41783 C 3763.95 4.56615 0.187445 0
M  V30 41784 C 3764.95 5.16527 -0.591259 0
M  V30 41785 C 3762.63 5.02227 0.0855266 0
M  V30 41786 C 3764.63 6.20473 -1.45916 0
M  V30 41787 C 3762.31 6.06025 -0.785966 0
M  V30 41788 C 3763.31 6.65018 -1.5569 0
M  V30 41789 O 3763 7.66804 -2.41384 0
M  V30 41790 H 3762.73 0.663315 0.130341 0
M  V30 41791 H 3765.28 2.03747 -0.260101 0
M  V30 41792 H 3763.51 3.35002 1.93159 0
M  V30 41793 H 3765.2 3.69114 1.68849 0
M  V30 41794 H 3765.97 4.82176 -0.522648 0
M  V30 41795 H 3761.85 4.56026 0.675359 0
M  V30 41796 H 3765.39 6.66448 -2.06136 0
M  V30 41797 H 3761.29 6.39802 -0.855808 0
M  V30 41798 H 3762.06 7.84095 -2.34814 0
M  V30 41799 N 3764.72 -0.110185 1.57214 0
M  V30 41800 C 3766.14 -0.463977 1.52707 0
M  V30 41801 C 3766.34 -1.81368 0.877952 0
M  V30 41802 O 3765.39 -2.482 0.46403 0
M  V30 41803 C 3766.71 -0.440354 2.97458 0
M  V30 41804 C 3768.25 -0.523282 3.08595 0
M  V30 41805 C 3768.73 -0.52996 4.54924 0
M  V30 41806 N 3770.22 -0.591147 4.59412 0
M  V30 41807 C 3770.95 -0.617906 5.70061 0
M  V30 41808 N 3770.45 -0.601779 6.90181 0
M  V30 41809 N 3772.24 -0.661581 5.58193 0
M  V30 41810 H 3764.39 0.774065 1.97793 0
M  V30 41811 H 3766.66 0.286512 0.903668 0
M  V30 41812 H 3766.36 0.483906 3.48355 0
M  V30 41813 H 3766.24 -1.26492 3.55358 0
M  V30 41814 H 3768.62 -1.43796 2.57695 0
M  V30 41815 H 3768.71 0.32914 2.53674 0
M  V30 41816 H 3768.35 0.380712 5.06471 0
M  V30 41817 H 3768.28 -1.39939 5.07666 0
M  V30 41818 H 3770.77 -0.609417 3.72954 0
M  V30 41819 H 3771.08 -0.625064 7.70268 0
M  V30 41820 H 3769.43 -0.569064 6.92666 0
M  V30 41821 H 3772.62 -0.671605 4.63257 0
M  V30 41822 H 3772.79 -0.678967 6.44433 0
M  V30 41823 N 3766.2 -1.52935 -0.38061 0
M  V30 41824 C 3767.42 -1.72577 -1.1503 0
M  V30 41825 C 3767.85 -0.446901 -1.82714 0
M  V30 41826 O 3767.21 0.597974 -1.71155 0
M  V30 41827 C 3767.25 -2.88174 -2.16768 0
M  V30 41828 O 3766.36 -2.55733 -3.23534 0
M  V30 41829 H 3765.7 -0.573602 -0.334479 0
M  V30 41830 H 3768.23 -1.99761 -0.442334 0
M  V30 41831 H 3768.24 -3.1391 -2.60623 0
M  V30 41832 H 3766.91 -3.80946 -1.66893 0
M  V30 41833 H 3765.49 -2.40765 -2.84757 0
M  V30 41834 N 3767.68 0.639548 -1.4404 0
M  V30 41835 C 3768.92 1.39649 -1.46091 0
M  V30 41836 C 3769.25 1.94785 -0.0914945 0
M  V30 41837 O 3768.52 1.7527 0.875066 0
M  V30 41838 H 3767.1 0.518326 -0.53791 0
M  V30 41839 H 3769.76 0.753334 -1.79752 0
M  V30 41840 H 3768.85 2.23203 -2.18144 0
M  V30 41841 N 3769.15 1.30798 0.879184 0
M  V30 41842 C 3770.38 1.23024 1.66973 0
M  V30 41843 C 3770.8 -0.202765 1.87004 0
M  V30 41844 O 3770.16 -1.14564 1.40516 0
M  V30 41845 C 3770.21 1.97012 3.02024 0
M  V30 41846 O 3769.31 1.30116 3.91336 0
M  V30 41847 H 3768.66 0.425213 0.50999 0
M  V30 41848 H 3771.19 1.72715 1.09685 0
M  V30 41849 H 3771.2 2.06255 3.52027 0
M  V30 41850 H 3769.87 3.01229 2.86764 0
M  V30 41851 H 3768.45 1.29265 3.49779 0
M  V30 41852 N 3770.63 -1.09229 1.13608 0
M  V30 41853 C 3771.56 -2.17947 0.837947 0
M  V30 41854 C 3772.54 -1.68878 -0.203546 0
M  V30 41855 O 3773.73 -1.94101 -0.0620361 0
M  V30 41856 C 3770.86 -3.45955 0.305403 0
M  V30 41857 C 3769.81 -4.08368 1.28138 0
M  V30 41858 C 3769.14 -5.31226 0.608505 0
M  V30 41859 C 3770.44 -4.50631 2.64063 0
M  V30 41860 H 3772.13 -2.43143 1.74704 0
M  V30 41861 H 3769.68 -1.16859 0.84143 0
M  V30 41862 H 3771.63 -4.21315 0.0844856 0
M  V30 41863 H 3770.36 -3.20286 -0.639088 0
M  V30 41864 H 3769.02 -3.35029 1.48832 0
M  V30 41865 H 3768.66 -5.01839 -0.341525 0
M  V30 41866 H 3768.36 -5.73939 1.25966 0
M  V30 41867 H 3769.89 -6.09309 0.396916 0
M  V30 41868 H 3771.3 -5.17207 2.47325 0
M  V30 41869 H 3769.7 -5.04235 3.25373 0
M  V30 41870 H 3770.77 -3.62931 3.21573 0
M  V30 41871 N 3772.11 -0.929901 -1.27242 0
M  V30 41872 C 3773.34 -0.587312 -1.98911 0
M  V30 41873 C 3773.76 0.828138 -1.68889 0
M  V30 41874 O 3773.12 1.55605 -0.930422 0
M  V30 41875 C 3773.17 -0.822461 -3.51095 0
M  V30 41876 O 3772.27 0.110896 -4.12251 0
M  V30 41877 H 3771.61 -0.225878 -0.6244 0
M  V30 41878 H 3774.14 -1.24975 -1.61995 0
M  V30 41879 H 3774.15 -0.738895 -4.01253 0
M  V30 41880 H 3772.83 -1.85423 -3.72278 0
M  V30 41881 H 3771.4 -0.0227709 -3.72893 0
M  V30 41882 N 3773.59 1.41416 -0.695653 0
M  V30 41883 C 3774.52 2.33457 -0.0447424 0
M  V30 41884 C 3775.5 1.51822 0.767078 0
M  V30 41885 O 3776.69 1.80358 0.720034 0
M  V30 41886 C 3773.82 3.35642 0.892294 0
M  V30 41887 C 3772.77 4.27589 0.187563 0
M  V30 41888 C 3772.1 5.20148 1.23896 0
M  V30 41889 C 3773.4 5.13658 -0.946183 0
M  V30 41890 H 3775.09 2.88137 -0.813481 0
M  V30 41891 H 3772.64 1.38544 -0.392639 0
M  V30 41892 H 3774.59 3.98957 1.35689 0
M  V30 41893 H 3773.31 2.79312 1.6927 0
M  V30 41894 H 3771.97 3.65698 -0.257006 0
M  V30 41895 H 3771.62 4.60134 2.0319 0
M  V30 41896 H 3771.32 5.82501 0.772433 0
M  V30 41897 H 3772.84 5.86339 1.70407 0
M  V30 41898 H 3774.26 5.7054 -0.561864 0
M  V30 41899 H 3772.65 5.84952 -1.33981 0
M  V30 41900 H 3773.72 4.50818 -1.78581 0
M  V30 41901 N 3775.07 0.44041 1.51321 0
M  V30 41902 C 3776.3 -0.123613 2.0653 0
M  V30 41903 C 3776.71 -1.36195 1.30753 0
M  V30 41904 O 3776.07 -1.78752 0.367963 0
M  V30 41905 C 3776.12 -0.442739 3.58779 0
M  V30 41906 O 3775.84 0.746451 4.31694 0
M  V30 41907 C 3777.34 -1.0571 4.30512 0
M  V30 41908 H 3774.56 -0.00656287 0.670968 0
M  V30 41909 H 3777.1 0.620376 1.94863 0
M  V30 41910 H 3775.26 -1.13663 3.7035 0
M  V30 41911 H 3775.67 0.472558 5.22367 0
M  V30 41912 H 3777.15 -1.23037 5.38113 0
M  V30 41913 H 3777.62 -2.03896 3.89003 0
M  V30 41914 H 3778.23 -0.4025 4.23391 0
M  V30 41915 N 3776.55 -1.5666 0.171876 0
M  V30 41916 C 3777.48 -2.15168 -0.789634 0
M  V30 41917 C 3778.49 -1.10741 -1.19333 0
M  V30 41918 O 3779.68 -1.37926 -1.13308 0
M  V30 41919 C 3776.78 -2.67993 -2.07444 0
M  V30 41920 C 3775.95 -3.97083 -1.83422 0
M  V30 41921 C 3775.01 -4.34967 -2.96126 0
M  V30 41922 O 3774.04 -5.02832 -2.66737 0
M  V30 41923 N 3775.24 -3.9657 -4.23925 0
M  V30 41924 H 3778 -2.98299 -0.289432 0
M  V30 41925 H 3775.57 -1.61896 -0.010887 0
M  V30 41926 H 3777.56 -2.90334 -2.81936 0
M  V30 41927 H 3776.13 -1.89448 -2.48653 0
M  V30 41928 H 3775.35 -3.83114 -0.928309 0
M  V30 41929 H 3776.64 -4.81392 -1.64741 0
M  V30 41930 H 3776.03 -3.41936 -4.50662 0
M  V30 41931 H 3774.59 -4.23911 -4.95119 0
M  V30 41932 N 3778.02 0.101846 -1.57271 0
M  V30 41933 C 3779.27 0.806568 -1.85744 0
M  V30 41934 C 3779.6 1.79061 -0.759439 0
M  V30 41935 O 3778.85 1.94127 0.247623 0
M  V30 41936 C 3779.15 1.57599 -3.20776 0
M  V30 41937 C 3778.82 0.73469 -4.44874 0
M  V30 41938 C 3777.48 0.502744 -4.78567 0
M  V30 41939 C 3779.83 0.149398 -5.20986 0
M  V30 41940 C 3777.16 -0.324466 -5.85802 0
M  V30 41941 C 3779.51 -0.665097 -6.29094 0
M  V30 41942 C 3778.18 -0.907198 -6.61306 0
M  V30 41943 H 3777.45 0.295144 -0.679684 0
M  V30 41944 H 3780.09 0.0682902 -1.91378 0
M  V30 41945 H 3778.4 2.38565 -3.10795 0
M  V30 41946 H 3780.1 2.12553 -3.40033 0
M  V30 41947 H 3776.69 0.925577 -4.18487 0
M  V30 41948 H 3780.87 0.315772 -4.95294 0
M  V30 41949 H 3776.13 -0.521086 -6.09175 0
M  V30 41950 H 3780.3 -1.12552 -6.87245 0
M  V30 41951 H 3777.93 -1.54999 -7.44231 0
M  V30 41952 N 3779.5 1.53135 0.372494 0
M  V30 41953 C 3780.46 1.7842 1.43872 0
M  V30 41954 C 3781.46 0.654481 1.46878 0
M  V30 41955 O 3782.65 0.922645 1.4776 0
M  V30 41956 C 3779.79 1.89999 2.83043 0
M  V30 41957 H 3780.98 2.73638 1.22729 0
M  V30 41958 H 3778.53 1.44107 0.605221 0
M  V30 41959 H 3779.27 0.968233 3.09509 0
M  V30 41960 H 3779.05 2.72161 2.8226 0
M  V30 41961 H 3780.54 2.11177 3.60269 0
M  V30 41962 N 3780.98 -0.6319 1.44377 0
M  V30 41963 C 3782.26 -1.39022 1.37595 0
M  V30 41964 C 3782.64 -2.11072 0.0342827 0
M  V30 41965 O 3781.98 -2.0627 -0.9831 0
M  V30 41966 C 3782.19 -2.35727 2.57359 0
M  V30 41967 C 3783.54 -2.99082 3.01389 0
M  V30 41968 O 3784.57 -2.46053 2.57559 0
M  V30 41969 O 3783.43 -3.95278 3.77382 0
M  V30 41970 H 3780.52 -0.622157 0.544839 0
M  V30 41971 H 3783.07 -0.65702 1.56465 0
M  V30 41972 H 3781.84 -1.81581 3.46618 0
M  V30 41973 H 3781.46 -3.16465 2.40698 0
M  V30 41974 N 3782.46 -1.31262 -0.872235 0
M  V30 41975 C 3783.39 -1.13051 -1.98229 0
M  V30 41976 C 3784.37 -0.0346264 -1.62563 0
M  V30 41977 O 3785.55 -0.190619 -1.87534 0
M  V30 41978 C 3782.68 -0.726899 -3.30808 0
M  V30 41979 C 3781.73 -1.82549 -3.85458 0
M  V30 41980 S 3782.56 -3.43049 -4.11191 0
M  V30 41981 C 3783.71 -3.04619 -5.4677 0
M  V30 41982 H 3783.95 -2.07024 -2.13373 0
M  V30 41983 H 3781.48 -1.15722 -1.02215 0
M  V30 41984 H 3783.44 -0.500779 -4.07434 0
M  V30 41985 H 3782.1 0.193686 -3.13502 0
M  V30 41986 H 3781.29 -1.49567 -4.81296 0
M  V30 41987 H 3780.89 -2.00655 -3.15616 0
M  V30 41988 H 3783.19 -2.53372 -6.28338 0
M  V30 41989 H 3784.13 -3.99412 -5.84701 0
M  V30 41990 H 3784.54 -2.42125 -5.09937 0
M  V30 41991 N 3783.94 1.08625 -1.14186 0
M  V30 41992 C 3785.18 1.80342 -0.903303 0
M  V30 41993 C 3785.5 1.87057 0.571768 0
M  V30 41994 O 3786.7 2.55165 0.927515 0
M  V30 41995 C 3785.16 3.24016 -1.56659 0
M  V30 41996 C 3784.77 3.25542 -3.07776 0
M  V30 41997 C 3786.51 4.00432 -1.40906 0
M  V30 41998 C 3784.42 4.63789 -3.66951 0
M  V30 41999 H 3783.35 0.67584 -0.3343 0
M  V30 42000 H 3786 1.22021 -1.37052 0
M  V30 42001 H 3784.38 3.8245 -1.02704 0
M  V30 42002 H 3785.56 2.76827 -3.68379 0
M  V30 42003 H 3783.87 2.6262 -3.23141 0
M  V30 42004 H 3786.47 5.02584 -1.8252 0
M  V30 42005 H 3786.81 4.14785 -0.354895 0
M  V30 42006 H 3787.34 3.48461 -1.91885 0
M  V30 42007 H 3784.08 4.5464 -4.72211 0
M  V30 42008 H 3783.6 5.12795 -3.11128 0
M  V30 42009 H 3785.28 5.32764 -3.67112 0
M  V30 42010 N 3785.41 0.936635 1.26747 0
M  V30 42011 C 3786.64 0.597852 1.98596 0
M  V30 42012 C 3787.06 -0.81917 1.69326 0
M  V30 42013 O 3786.42 -1.55109 0.938661 0
M  V30 42014 C 3786.47 0.841069 3.50654 0
M  V30 42015 O 3785.57 -0.0890314 4.12304 0
M  V30 42016 H 3784.92 0.229187 0.623193 0
M  V30 42017 H 3787.45 1.25833 1.6133 0
M  V30 42018 H 3787.46 0.760164 4.00856 0
M  V30 42019 H 3786.13 1.87394 3.7129 0
M  V30 42020 H 3784.71 0.042546 3.72876 0
M  V30 42021 N 3786.89 -1.41045 0.703143 0
M  V30 42022 C 3787.82 -2.3343 0.0571225 0
M  V30 42023 C 3788.8 -1.52227 -0.759015 0
M  V30 42024 O 3789.99 -1.80738 -0.710459 0
M  V30 42025 C 3787.12 -3.3611 -0.874482 0
M  V30 42026 C 3786.07 -4.27682 -0.164884 0
M  V30 42027 C 3785.4 -5.20798 -1.21136 0
M  V30 42028 C 3786.7 -5.13149 0.97341 0
M  V30 42029 H 3788.39 -2.87701 0.82875 0
M  V30 42030 H 3785.94 -1.38333 0.399981 0
M  V30 42031 H 3787.89 -3.99671 -1.33572 0
M  V30 42032 H 3786.62 -2.80206 -1.67786 0
M  V30 42033 H 3785.27 -3.65557 0.276396 0
M  V30 42034 H 3784.92 -4.61205 -2.00747 0
M  V30 42035 H 3784.62 -5.82902 -0.741531 0
M  V30 42036 H 3786.15 -5.87235 -1.67295 0
M  V30 42037 H 3787.56 -5.70234 0.592113 0
M  V30 42038 H 3785.96 -5.84233 1.37082 0
M  V30 42039 H 3787.03 -4.49865 1.80969 0
M  V30 42040 N 3788.37 -0.448429 -1.51086 0
M  V30 42041 C 3789.32 0.357398 -2.28016 0
M  V30 42042 C 3790.29 1.00717 -1.32081 0
M  V30 42043 O 3791.47 1.02395 -1.60996 0
M  V30 42044 C 3788.61 1.44639 -3.13327 0
M  V30 42045 C 3787.73 0.813654 -4.24268 0
M  V30 42046 C 3786.86 1.87862 -4.96871 0
M  V30 42047 C 3785.9 1.22492 -5.99718 0
M  V30 42048 N 3785.04 2.23174 -6.65686 0
M  V30 42049 H 3789.88 -0.304982 -2.96435 0
M  V30 42050 H 3787.41 -0.162248 -1.46202 0
M  V30 42051 H 3789.37 2.08917 -3.61122 0
M  V30 42052 H 3788 2.07824 -2.47 0
M  V30 42053 H 3787.05 0.0588745 -3.80354 0
M  V30 42054 H 3788.37 0.296499 -4.97918 0
M  V30 42055 H 3787.52 2.59777 -5.48271 0
M  V30 42056 H 3786.26 2.42954 -4.22877 0
M  V30 42057 H 3785.26 0.491292 -5.47601 0
M  V30 42058 H 3786.49 0.681196 -6.75675 0
M  V30 42059 H 3784.43 2.77324 -5.94498 0
M  V30 42060 H 3784.35 1.7638 -7.35137 0
M  V30 42061 H 3785.62 2.94537 -7.21712 0
M  V30 42062 N 3789.85 1.56567 -0.180181 0
M  V30 42063 C 3790.8 2.19714 0.763446 0
M  V30 42064 C 3791.79 1.16381 1.23093 0
M  V30 42065 O 3793 1.3456 1.19556 0
M  V30 42066 H 3789.37 0.703948 0.264503 0
M  V30 42067 H 3791.34 2.97681 0.206987 0
M  V30 42068 C 3790.09 2.85901 1.97879 0
M  V30 42069 H 3789.41 3.65147 1.62811 0
M  V30 42070 H 3790.85 3.33542 2.61774 0
M  V30 42071 C 3789.31 1.86141 2.80808 0
M  V30 42072 O 3789.84 1.35239 3.7825 0
M  V30 42073 N 3788.05 1.54701 2.46 0
M  V30 42074 H 3787.6 1.96288 1.6682 0
M  V30 42075 H 3787.55 0.882073 3.01773 0
M  V30 42076 N 3791.33 -0.0935042 1.57322 0
M  V30 42077 C 3792.57 -0.795132 1.85801 0
M  V30 42078 C 3792.9 -1.79192 0.76911 0
M  V30 42079 O 3792.17 -1.9483 -0.204477 0
M  V30 42080 H 3790.75 -0.296641 0.685575 0
M  V30 42081 H 3793.41 -0.074755 1.94757 0
M  V30 42082 H 3792.5 -1.32474 2.8259 0
M  V30 42083 N 3792.8 -1.5333 -0.364368 0
M  V30 42084 C 3794.05 -1.69822 -1.10852 0
M  V30 42085 C 3794.38 -0.449324 -1.8893 0
M  V30 42086 O 3793.66 0.553404 -1.86461 0
M  V30 42087 C 3793.94 -2.94885 -2.06676 0
M  V30 42088 C 3793.79 -4.29935 -1.32198 0
M  V30 42089 C 3795.11 -3.15551 -3.06782 0
M  V30 42090 H 3792.23 -0.61796 -0.401615 0
M  V30 42091 H 3794.87 -1.85971 -0.389212 0
M  V30 42092 H 3793.02 -2.81248 -2.68014 0
M  V30 42093 H 3794.7 -4.55385 -0.73634 0
M  V30 42094 H 3792.94 -4.29291 -0.62384 0
M  V30 42095 H 3793.61 -5.13578 -2.02341 0
M  V30 42096 H 3796.09 -3.28382 -2.55548 0
M  V30 42097 H 3794.96 -4.0449 -3.71051 0
M  V30 42098 H 3795.22 -2.30887 -3.77019 0
M  V30 42099 N 3794.28 0.624234 -1.4471 0
M  V30 42100 C 3795.53 1.38092 -1.47564 0
M  V30 42101 C 3795.85 1.94677 -0.112149 0
M  V30 42102 O 3795.12 1.76188 0.856427 0
M  V30 42103 H 3793.7 0.512592 -0.543377 0
M  V30 42104 H 3796.36 0.734226 -1.80541 0
M  V30 42105 H 3795.46 2.20876 -2.20499 0
M  V30 42106 N 3795.76 1.31723 0.865262 0
M  V30 42107 C 3796.99 1.24652 1.65134 0
M  V30 42108 C 3797.4 -0.187358 1.87868 0
M  V30 42109 O 3796.76 -1.12096 1.44017 0
M  V30 42110 C 3796.81 1.99198 3.01666 0
M  V30 42111 O 3796.53 3.3699 2.79945 0
M  V30 42112 C 3798.03 1.99024 3.96112 0
M  V30 42113 H 3795.25 0.430523 0.514676 0
M  V30 42114 H 3797.8 1.73676 1.07968 0
M  V30 42115 H 3795.95 1.53924 3.55508 0
M  V30 42116 H 3796.37 3.75009 3.667 0
M  V30 42117 H 3797.84 2.55685 4.89213 0
M  V30 42118 H 3798.32 0.97389 4.28266 0
M  V30 42119 H 3798.92 2.44198 3.48206 0
M  V30 42120 N 3797.24 -1.08018 1.14761 0
M  V30 42121 C 3798.46 -1.84755 0.942348 0
M  V30 42122 C 3798.89 -1.81218 -0.504157 0
M  V30 42123 O 3798.25 -1.20016 -1.35889 0
M  V30 42124 C 3798.29 -3.30041 1.45277 0
M  V30 42125 O 3797.4 -4.07285 0.647486 0
M  V30 42126 H 3796.74 -0.572347 0.336623 0
M  V30 42127 H 3799.27 -1.3631 1.5258 0
M  V30 42128 H 3799.28 -3.80881 1.46267 0
M  V30 42129 H 3797.95 -3.31931 2.50589 0
M  V30 42130 H 3796.53 -3.66143 0.706659 0
M  V30 42131 N 3798.72 -0.943344 -1.26249 0
M  V30 42132 C 3799.94 -0.608376 -1.98276 0
M  V30 42133 C 3800.37 0.810179 -1.69758 0
M  V30 42134 O 3799.72 1.54609 -0.946873 0
M  V30 42135 C 3799.77 -0.859653 -3.50203 0
M  V30 42136 O 3798.88 0.0671646 -4.12345 0
M  V30 42137 H 3798.22 -0.232488 -0.621969 0
M  V30 42138 H 3800.75 -1.26687 -1.6066 0
M  V30 42139 H 3800.76 -0.781411 -4.00447 0
M  V30 42140 H 3799.43 -1.89361 -3.70291 0
M  V30 42141 H 3798.01 -0.0623199 -3.72848 0
M  V30 42142 N 3800.2 1.4067 -0.710613 0
M  V30 42143 C 3801.42 2.05813 -0.256043 0
M  V30 42144 C 3801.85 1.53175 1.09175 0
M  V30 42145 O 3801.2 0.665006 1.68663 0
M  V30 42146 C 3801.25 3.59796 -0.240591 0
M  V30 42147 O 3800.36 4.04961 0.779788 0
M  V30 42148 H 3799.7 0.652819 -0.121337 0
M  V30 42149 H 3802.23 1.80161 -0.969698 0
M  V30 42150 H 3802.24 4.07928 -0.0765744 0
M  V30 42151 H 3800.91 3.97475 -1.22418 0
M  V30 42152 H 3799.49 3.683 0.5839 0
M  V30 42153 N 3801.67 0.456435 1.50846 0
M  V30 42154 C 3802.61 -0.390964 2.24826 0
M  V30 42155 C 3803.58 -1.00867 1.27533 0
M  V30 42156 O 3804.77 -1.04745 1.56719 0
M  V30 42157 C 3801.9 -1.54652 3.01331 0
M  V30 42158 C 3800.94 -1.04763 4.13433 0
M  V30 42159 S 3801.77 0.0258413 5.35494 0
M  V30 42160 C 3802.93 -1.13393 6.15543 0
M  V30 42161 H 3803.16 0.23707 2.96353 0
M  V30 42162 H 3800.7 0.241147 1.52505 0
M  V30 42163 H 3802.65 -2.20888 3.46004 0
M  V30 42164 H 3801.32 -2.14602 2.29357 0
M  V30 42165 H 3800.51 -1.9123 4.66312 0
M  V30 42166 H 3800.11 -0.463219 3.7112 0
M  V30 42167 H 3802.4 -2.04853 6.45787 0
M  V30 42168 H 3803.35 -0.644711 7.05159 0
M  V30 42169 H 3803.75 -1.38113 5.47344 0
M  V30 42170 N 3803.15 -1.56469 0.188482 0
M  V30 42171 C 3804.4 -1.97001 -0.45113 0
M  V30 42172 C 3804.72 -1.07627 -1.62608 0
M  V30 42173 O 3803.99 -0.146159 -1.95354 0
M  V30 42174 H 3802.57 -0.727479 -0.169658 0
M  V30 42175 H 3805.23 -1.92969 0.273672 0
M  V30 42176 H 3804.33 -3.01681 -0.799688 0
M  V30 42177 N 3804.63 0.0851597 -1.5737 0
M  V30 42178 C 3805.85 0.803949 -1.91184 0
M  V30 42179 C 3806.28 1.70997 -0.78368 0
M  V30 42180 O 3805.64 1.79364 0.264235 0
M  V30 42181 C 3805.69 1.5849 -3.23903 0
M  V30 42182 O 3804.79 2.6946 -3.12194 0
M  V30 42183 H 3804.13 0.220222 -0.626417 0
M  V30 42184 H 3806.66 0.0574067 -2.04519 0
M  V30 42185 H 3806.67 1.96701 -3.57453 0
M  V30 42186 H 3805.35 0.920039 -4.05596 0
M  V30 42187 H 3803.92 2.34205 -2.90177 0
M  V30 42188 N 3806.11 1.53521 0.356231 0
M  V30 42189 C 3807.36 1.6982 1.09571 0
M  V30 42190 C 3807.68 0.457439 1.89559 0
M  V30 42191 O 3806.95 -0.528583 1.88634 0
M  V30 42192 H 3805.53 0.626061 0.407501 0
M  V30 42193 H 3808.19 1.90739 0.400578 0
M  V30 42194 H 3807.28 2.56346 1.78025 0
M  V30 42195 N 3807.59 -0.616551 1.45039 0
M  V30 42196 C 3808.83 -1.37783 1.48808 0
M  V30 42197 C 3809.16 -1.93792 0.125845 0
M  V30 42198 O 3808.44 -1.74527 -0.858513 0
M  V30 42199 C 3808.72 -2.53238 2.56013 0
M  V30 42200 C 3808.58 -2.02484 4.01647 0
M  V30 42201 C 3809.89 -3.55393 2.59584 0
M  V30 42202 H 3807.01 -0.499638 0.541785 0
M  V30 42203 H 3809.66 -0.695828 1.768 0
M  V30 42204 H 3807.81 -3.11418 2.32274 0
M  V30 42205 H 3809.48 -1.49022 4.36566 0
M  V30 42206 H 3807.72 -1.33552 4.1273 0
M  V30 42207 H 3808.39 -2.85671 4.72331 0
M  V30 42208 H 3810.87 -3.07039 2.80831 0
M  V30 42209 H 3809.74 -4.33678 3.36474 0
M  V30 42210 H 3810 -4.10424 1.64332 0
M  V30 42211 N 3809.06 -1.3218 -0.858264 0
M  V30 42212 C 3810.29 -1.25665 -1.64994 0
M  V30 42213 C 3810.71 0.172989 -1.87303 0
M  V30 42214 O 3810.07 1.12314 -1.42321 0
M  V30 42215 C 3810.12 -2.01792 -2.98852 0
M  V30 42216 O 3809.22 -1.36326 -3.89216 0
M  V30 42217 H 3808.56 -0.433272 -0.503161 0
M  V30 42218 H 3811.09 -1.74438 -1.06923 0
M  V30 42219 H 3811.1 -2.1183 -3.48701 0
M  V30 42220 H 3809.78 -3.05753 -2.81936 0
M  V30 42221 H 3808.36 -1.34813 -3.47678 0
M  V30 42222 N 3810.54 1.07407 -1.15332 0
M  V30 42223 C 3811.82 1.76722 -0.838372 0
M  V30 42224 C 3812.2 2.00314 0.666134 0
M  V30 42225 O 3811.55 1.62116 1.6103 0
M  V30 42226 C 3811.76 3.07612 -1.64852 0
M  V30 42227 C 3813.1 3.81967 -1.85435 0
M  V30 42228 O 3814.13 3.17422 -1.61623 0
M  V30 42229 O 3812.99 4.97892 -2.25313 0
M  V30 42230 H 3810.08 0.767403 -0.308256 0
M  V30 42231 H 3812.63 1.13778 -1.25907 0
M  V30 42232 H 3811.4 2.86054 -2.67 0
M  V30 42233 H 3811.02 3.78287 -1.22412 0
M  V30 42234 N 3812.02 0.950026 1.25747 0
M  V30 42235 C 3813.3 0.519872 1.88565 0
M  V30 42236 C 3813.68 -1.00276 1.85763 0
M  V30 42237 O 3813.02 -1.86657 1.318 0
M  V30 42238 C 3813.23 1.09126 3.315 0
M  V30 42239 C 3814.58 1.16531 4.08296 0
M  V30 42240 O 3815.61 1.04248 3.40603 0
M  V30 42241 O 3814.47 1.35744 5.29373 0
M  V30 42242 H 3811.56 0.170791 0.809172 0
M  V30 42243 H 3814.11 1.04316 1.33852 0
M  V30 42244 H 3812.88 2.13464 3.27946 0
M  V30 42245 H 3812.5 0.55095 3.93764 0
M  V30 42246 N 3813.5 -1.40291 0.718063 0
M  V30 42247 C 3814.74 -2.01139 0.259022 0
M  V30 42248 C 3815.08 -1.56813 -1.14557 0
M  V30 42249 O 3814.35 -0.789308 -1.77764 0
M  V30 42250 C 3814.63 -3.58474 0.341841 0
M  V30 42251 C 3814.49 -4.12866 1.78499 0
M  V30 42252 C 3815.81 -4.39173 -0.285545 0
M  V30 42253 H 3812.93 -0.730774 0.0955934 0
M  V30 42254 H 3815.57 -1.66734 0.91103 0
M  V30 42255 H 3813.72 -3.87914 -0.213286 0
M  V30 42256 H 3815.39 -3.94213 2.39569 0
M  V30 42257 H 3813.63 -3.67061 2.3119 0
M  V30 42258 H 3814.3 -5.22023 1.79432 0
M  V30 42259 H 3816.78 -4.15677 0.187484 0
M  V30 42260 H 3815.66 -5.48546 -0.197163 0
M  V30 42261 H 3815.92 -4.20357 -1.36939 0
M  V30 42262 N 3814.98 -0.464428 -1.50602 0
M  V30 42263 C 3816.22 0.0928564 -2.02287 0
M  V30 42264 C 3816.55 1.40319 -1.34688 0
M  V30 42265 O 3815.81 1.90233 -0.459337 0
M  V30 42266 C 3816.11 0.331444 -3.5586 0
M  V30 42267 C 3815.77 -0.89637 -4.419 0
M  V30 42268 C 3814.43 -1.23302 -4.65134 0
M  V30 42269 C 3816.79 -1.71418 -4.92205 0
M  V30 42270 C 3814.11 -2.38766 -5.35917 0
M  V30 42271 C 3816.47 -2.86004 -5.64255 0
M  V30 42272 C 3815.13 -3.20092 -5.85745 0
M  V30 42273 H 3814.4 0.0339786 -0.740221 0
M  V30 42274 H 3817.05 -0.617152 -1.81283 0
M  V30 42275 H 3815.35 1.12363 -3.75342 0
M  V30 42276 H 3817.05 0.776497 -3.9341 0
M  V30 42277 H 3813.64 -0.624082 -4.24032 0
M  V30 42278 H 3817.82 -1.46728 -4.74115 0
M  V30 42279 H 3813.08 -2.65458 -5.50765 0
M  V30 42280 H 3817.25 -3.49725 -6.02217 0
M  V30 42281 H 3814.88 -4.09671 -6.4037 0
M  V30 42282 N 3816.45 1.56367 -0.196777 0
M  V30 42283 C 3817.68 2.02455 0.450209 0
M  V30 42284 C 3818.1 1.07599 1.54285 0
M  V30 42285 O 3817.46 0.0597848 1.81201 0
M  V30 42286 C 3817.51 3.46971 0.982026 0
M  V30 42287 O 3816.61 3.55233 2.09483 0
M  V30 42288 H 3815.96 0.655644 0.10501 0
M  V30 42289 H 3818.49 2.02266 -0.308148 0
M  V30 42290 H 3818.5 3.86796 1.2982 0
M  V30 42291 H 3817.17 4.15501 0.182167 0
M  V30 42292 H 3815.75 3.27284 1.78717 0
M  V30 42293 N 3817.93 -0.0768128 1.57413 0
M  V30 42294 C 3819.16 -0.793799 1.91608 0
M  V30 42295 C 3819.58 -1.70579 0.792738 0
M  V30 42296 O 3818.94 -1.79502 -0.254719 0
M  V30 42297 C 3818.99 -1.5677 3.24739 0
M  V30 42298 O 3818.09 -2.67801 3.13618 0
M  V30 42299 H 3817.43 -0.216897 0.627576 0
M  V30 42300 H 3819.96 -0.0465597 2.04547 0
M  V30 42301 H 3819.97 -1.94803 3.58491 0
M  V30 42302 H 3818.65 -0.898517 4.06078 0
M  V30 42303 H 3817.23 -2.32663 2.91415 0
M  V30 42304 N 3819.41 -1.53708 -0.348084 0
M  V30 42305 C 3820.64 -1.74978 -1.11343 0
M  V30 42306 C 3821.06 -0.485557 -1.81725 0
M  V30 42307 O 3820.42 0.561535 -1.72385 0
M  V30 42308 C 3820.47 -2.92707 -2.10606 0
M  V30 42309 O 3819.57 -2.62538 -3.18037 0
M  V30 42310 H 3818.91 -0.580568 -0.322237 0
M  V30 42311 H 3821.44 -2.00655 -0.399862 0
M  V30 42312 H 3821.45 -3.19368 -2.53906 0
M  V30 42313 H 3820.13 -3.844 -1.58775 0
M  V30 42314 H 3818.7 -2.46751 -2.79586 0
M  V30 42315 N 3820.89 0.608851 -1.45364 0
M  V30 42316 C 3822.3 0.929469 -1.29742 0
M  V30 42317 C 3822.5 1.99949 -0.249521 0
M  V30 42318 O 3821.56 2.49964 0.35697 0
M  V30 42319 C 3822.87 1.37159 -2.67596 0
M  V30 42320 C 3824.42 1.48587 -2.75483 0
M  V30 42321 C 3824.9 1.96176 -4.13859 0
M  V30 42322 N 3826.39 2.03412 -4.16147 0
M  V30 42323 C 3827.12 2.41453 -5.20085 0
M  V30 42324 N 3826.62 2.78471 -6.3437 0
M  V30 42325 N 3828.41 2.41781 -5.07443 0
M  V30 42326 H 3820.56 -0.0984211 -2.12172 0
M  V30 42327 H 3822.83 0.018623 -0.947817 0
M  V30 42328 H 3822.53 0.659539 -3.45461 0
M  V30 42329 H 3822.41 2.33835 -2.95974 0
M  V30 42330 H 3824.79 2.18884 -1.97923 0
M  V30 42331 H 3824.87 0.502293 -2.5082 0
M  V30 42332 H 3824.52 1.26466 -4.91903 0
M  V30 42333 H 3824.45 2.95445 -4.35912 0
M  V30 42334 H 3826.94 1.77398 -3.33674 0
M  V30 42335 H 3827.25 3.06376 -7.09474 0
M  V30 42336 H 3825.6 2.7617 -6.37774 0
M  V30 42337 H 3828.79 2.12266 -4.17206 0
M  V30 42338 H 3828.96 2.71101 -5.88564 0
M  V30 42339 N 3822.37 1.32633 0.851242 0
M  V30 42340 C 3823.32 1.18435 1.94826 0
M  V30 42341 C 3824.3 0.0903893 1.60646 0
M  V30 42342 O 3825.49 0.317243 1.74134 0
M  V30 42343 C 3822.62 0.913065 3.30935 0
M  V30 42344 C 3821.71 2.04888 3.71324 0
M  V30 42345 N 3822.1 3.29777 3.83511 0
M  V30 42346 C 3820.4 1.95282 4.00975 0
M  V30 42347 C 3821.1 4.04192 4.18334 0
M  V30 42348 N 3820.07 3.3252 4.30037 0
M  V30 42349 H 3823.88 2.13112 2.02387 0
M  V30 42350 H 3821.39 1.24462 1.04321 0
M  V30 42351 H 3823.39 0.792293 4.09302 0
M  V30 42352 H 3822.05 -0.025304 3.2469 0
M  V30 42353 H 3823.06 3.64672 3.67742 0
M  V30 42354 H 3819.73 1.09028 4.03013 0
M  V30 42355 H 3821.12 5.11906 4.35204 0
M  V30 42356 N 3823.84 -1.06794 1.159 0
M  V30 42357 C 3824.75 -2.17667 0.875108 0
M  V30 42358 C 3825.77 -1.73346 -0.150733 0
M  V30 42359 O 3826.95 -2.01385 0.0246975 0
M  V30 42360 C 3824.01 -3.4467 0.374616 0
M  V30 42361 C 3823.07 -4.03528 1.46505 0
M  V30 42362 C 3822.31 -5.24469 0.988349 0
M  V30 42363 O 3822.53 -5.70164 -0.163892 0
M  V30 42364 O 3821.46 -5.75148 1.7745 0
M  V30 42365 H 3825.29 -2.44453 1.80212 0
M  V30 42366 H 3822.87 -1.16239 0.938561 0
M  V30 42367 H 3824.76 -4.21276 0.102235 0
M  V30 42368 H 3823.43 -3.19423 -0.524457 0
M  V30 42369 H 3822.34 -3.28436 1.79111 0
M  V30 42370 H 3823.67 -4.33059 2.33925 0
M  V30 42371 N 3825.32 -0.956681 -1.25241 0
M  V30 42372 C 3826.55 -0.629372 -1.9762 0
M  V30 42373 C 3826.97 0.792128 -1.70608 0
M  V30 42374 O 3826.33 1.53596 -0.963219 0
M  V30 42375 C 3826.38 -0.896748 -3.49272 0
M  V30 42376 O 3825.48 0.0234261 -4.12393 0
M  V30 42377 H 3824.82 -0.239072 -0.619468 0
M  V30 42378 H 3827.35 -1.28384 -1.59307 0
M  V30 42379 H 3827.36 -0.82384 -3.99596 0
M  V30 42380 H 3826.04 -1.93277 -3.68262 0
M  V30 42381 H 3824.62 -0.101862 -3.72761 0
M  V30 42382 N 3826.8 1.39908 -0.725493 0
M  V30 42383 C 3828.05 2.00999 -0.269685 0
M  V30 42384 C 3828.38 1.57418 1.13724 0
M  V30 42385 O 3827.65 0.798724 1.77343 0
M  V30 42386 C 3827.94 3.58287 -0.360847 0
M  V30 42387 C 3827.79 4.11913 -1.80686 0
M  V30 42388 C 3829.11 4.39318 0.26225 0
M  V30 42389 H 3826.23 0.730257 -0.0994675 0
M  V30 42390 H 3828.87 1.66249 -0.919859 0
M  V30 42391 H 3827.02 3.88022 0.192711 0
M  V30 42392 H 3828.69 3.92937 -2.41656 0
M  V30 42393 H 3826.94 3.6583 -2.33133 0
M  V30 42394 H 3827.61 5.21064 -1.82198 0
M  V30 42395 H 3830.08 4.15572 -0.209525 0
M  V30 42396 H 3828.96 5.48643 0.16807 0
M  V30 42397 H 3829.22 4.21077 1.34708 0
M  V30 42398 N 3828.28 0.472408 1.50353 0
M  V30 42399 C 3829.5 -0.0820422 2.07238 0
M  V30 42400 C 3829.93 -1.3263 1.33383 0
M  V30 42401 O 3829.29 -1.77232 0.381888 0
M  V30 42402 C 3829.33 -0.347683 3.5892 0
M  V30 42403 O 3828.44 -1.42792 3.8689 0
M  V30 42404 H 3827.78 0.013566 0.663861 0
M  V30 42405 H 3830.31 0.663829 1.93532 0
M  V30 42406 H 3830.32 -0.587784 4.03744 0
M  V30 42407 H 3828.99 0.561542 4.12092 0
M  V30 42408 H 3827.57 -1.17503 3.53903 0
M  V30 42409 N 3829.76 -1.5626 0.205067 0
M  V30 42410 C 3830.7 -2.1955 -0.711789 0
M  V30 42411 C 3831.67 -1.14584 -1.20248 0
M  V30 42412 O 3832.86 -1.42875 -1.26456 0
M  V30 42413 C 3830 -2.86659 -1.92147 0
M  V30 42414 C 3829.11 -4.06176 -1.47122 0
M  V30 42415 C 3828.25 -4.61114 -2.63717 0
M  V30 42416 C 3827.29 -5.72968 -2.15347 0
M  V30 42417 N 3826.42 -6.22268 -3.25156 0
M  V30 42418 H 3831.26 -2.97541 -0.165339 0
M  V30 42419 H 3828.8 -1.46934 -0.0698631 0
M  V30 42420 H 3830.76 -3.23743 -2.63146 0
M  V30 42421 H 3829.39 -2.11215 -2.44107 0
M  V30 42422 H 3828.44 -3.74688 -0.656731 0
M  V30 42423 H 3829.75 -4.87047 -1.07641 0
M  V30 42424 H 3828.91 -5.00556 -3.42825 0
M  V30 42425 H 3827.65 -3.79372 -3.06477 0
M  V30 42426 H 3826.65 -5.33045 -1.34697 0
M  V30 42427 H 3827.88 -6.56535 -1.73606 0
M  V30 42428 H 3825.82 -5.43445 -3.67428 0
M  V30 42429 H 3825.74 -6.98218 -2.89876 0
M  V30 42430 H 3827.01 -6.66365 -4.04448 0
M  V30 42431 N 3831.24 0.0684638 -1.57451 0
M  V30 42432 C 3832.48 0.765823 -1.86596 0
M  V30 42433 C 3832.8 1.78573 -0.798189 0
M  V30 42434 O 3834 2.53289 -0.977586 0
M  V30 42435 C 3832.46 1.41296 -3.31004 0
M  V30 42436 C 3832.07 0.431449 -4.45918 0
M  V30 42437 C 3833.81 2.09249 -3.69344 0
M  V30 42438 C 3831.72 1.08469 -5.81368 0
M  V30 42439 H 3830.65 0.289766 -0.696097 0
M  V30 42440 H 3833.3 0.0191849 -1.8349 0
M  V30 42441 H 3831.68 2.20798 -3.28732 0
M  V30 42442 H 3832.86 -0.333993 -4.59588 0
M  V30 42443 H 3831.17 -0.143816 -4.16152 0
M  V30 42444 H 3833.77 2.58905 -4.67838 0
M  V30 42445 H 3834.11 2.89339 -2.99314 0
M  V30 42446 H 3834.64 1.36575 -3.7362 0
M  V30 42447 H 3831.38 0.324046 -6.54699 0
M  V30 42448 H 3830.9 1.82092 -5.71492 0
M  V30 42449 H 3832.58 1.60356 -6.26813 0
M  V30 42450 N 3832.71 1.5389 0.339928 0
M  V30 42451 C 3833.94 1.75566 1.10414 0
M  V30 42452 C 3834.36 0.495188 1.81465 0
M  V30 42453 O 3833.72 -0.552385 1.7268 0
M  V30 42454 C 3833.77 2.9382 2.09051 0
M  V30 42455 O 3832.87 2.64221 3.1664 0
M  V30 42456 H 3832.21 0.582269 0.319153 0
M  V30 42457 H 3834.74 2.00864 0.389215 0
M  V30 42458 H 3834.75 3.2071 2.52209 0
M  V30 42459 H 3833.43 3.85237 1.56734 0
M  V30 42460 H 3832.01 2.4823 2.78274 0
M  V30 42461 N 3834.19 -0.601133 1.45685 0
M  V30 42462 C 3835.42 -1.38644 1.53576 0
M  V30 42463 C 3835.83 -1.88028 0.170544 0
M  V30 42464 O 3835.19 -1.62583 -0.829032 0
M  V30 42465 C 3835.24 -2.58654 2.52548 0
M  V30 42466 O 3834.96 -2.1132 3.83765 0
M  V30 42467 C 3836.46 -3.51436 2.702 0
M  V30 42468 H 3833.68 -0.424182 0.519914 0
M  V30 42469 H 3836.23 -0.732525 1.9093 0
M  V30 42470 H 3834.38 -3.20073 2.18248 0
M  V30 42471 H 3834.8 -2.89341 4.37472 0
M  V30 42472 H 3836.27 -4.32171 3.43413 0
M  V30 42473 H 3836.75 -4.02192 1.76459 0
M  V30 42474 H 3837.35 -2.95866 3.05522 0
M  V30 42475 N 3835.67 -1.33083 -0.844196 0
M  V30 42476 C 3836.92 -1.23588 -1.59402 0
M  V30 42477 C 3837.23 0.198174 -1.94594 0
M  V30 42478 O 3838.44 0.415091 -2.68308 0
M  V30 42479 C 3836.89 -2.16518 -2.87486 0
M  V30 42480 C 3836.5 -3.65063 -2.59678 0
M  V30 42481 C 3838.25 -2.15883 -3.65506 0
M  V30 42482 C 3836.15 -4.49924 -3.83826 0
M  V30 42483 H 3835.08 -0.459013 -0.598183 0
M  V30 42484 H 3837.73 -1.58113 -0.931271 0
M  V30 42485 H 3836.12 -1.74919 -3.55273 0
M  V30 42486 H 3837.29 -4.15069 -2.00136 0
M  V30 42487 H 3835.6 -3.67934 -1.94971 0
M  V30 42488 H 3838.2 -2.76517 -4.57649 0
M  V30 42489 H 3838.54 -1.15251 -4.00029 0
M  V30 42490 H 3839.08 -2.55816 -3.04636 0
M  V30 42491 H 3835.82 -5.51411 -3.54438 0
M  V30 42492 H 3835.34 -4.04664 -4.42727 0
M  V30 42493 H 3837.02 -4.63457 -4.5146 0
M  V30 42494 N 3837.15 1.06178 -1.16464 0
M  V30 42495 C 3838.37 1.83233 -0.971622 0
M  V30 42496 C 3838.8 1.81997 0.475263 0
M  V30 42497 O 3838.16 1.22163 1.33962 0
M  V30 42498 C 3838.2 3.27688 -1.50509 0
M  V30 42499 O 3837.31 4.06204 -0.7122 0
M  V30 42500 H 3836.65 0.566919 -0.345686 0
M  V30 42501 H 3839.18 1.33866 -1.54729 0
M  V30 42502 H 3839.19 3.78506 -1.52307 0
M  V30 42503 H 3837.86 3.27902 -2.55838 0
M  V30 42504 H 3836.44 3.64972 -0.76482 0
M  V30 42505 N 3838.63 0.96331 1.24732 0
M  V30 42506 C 3839.85 0.639843 1.97283 0
M  V30 42507 C 3840.28 -0.783069 1.71025 0
M  V30 42508 O 3839.63 -1.53083 0.971351 0
M  V30 42509 C 3839.68 0.915258 3.48791 0
M  V30 42510 O 3838.79 -0.00155556 4.124 0
M  V30 42511 H 3838.13 0.242354 0.618191 0
M  V30 42512 H 3840.66 1.29227 1.58624 0
M  V30 42513 H 3840.67 0.84502 3.99153 0
M  V30 42514 H 3839.34 1.95228 3.67231 0
M  V30 42515 H 3837.92 0.121629 3.72702 0
M  V30 42516 N 3840.1 -1.39522 0.732902 0
M  V30 42517 C 3841.35 -2.00853 0.280341 0
M  V30 42518 C 3841.68 -1.58019 -1.12888 0
M  V30 42519 O 3840.96 -0.808117 -1.76917 0
M  V30 42520 C 3841.24 -3.58091 0.379843 0
M  V30 42521 C 3841.09 -4.10949 1.82868 0
M  V30 42522 C 3842.41 -4.39451 -0.238949 0
M  V30 42523 H 3839.53 -0.729719 0.103339 0
M  V30 42524 H 3842.17 -1.65758 0.928663 0
M  V30 42525 H 3840.32 -3.88118 -0.17213 0
M  V30 42526 H 3842 -3.9165 2.43737 0
M  V30 42527 H 3840.24 -3.64588 2.3507 0
M  V30 42528 H 3840.91 -5.20091 1.84958 0
M  V30 42529 H 3843.39 -4.15455 0.231561 0
M  V30 42530 H 3842.26 -5.48724 -0.138971 0
M  V30 42531 H 3842.52 -4.21786 -1.32473 0
M  V30 42532 N 3841.58 -0.480375 -1.501 0
M  V30 42533 C 3843 -0.135076 -1.59027 0
M  V30 42534 C 3843.2 1.35908 -1.48765 0
M  V30 42535 O 3842.25 2.13322 -1.35093 0
M  V30 42536 C 3843.57 -0.693535 -2.92593 0
M  V30 42537 C 3845.11 -0.657791 -3.0601 0
M  V30 42538 C 3845.59 -1.19395 -4.42164 0
M  V30 42539 N 3847.08 -1.15376 -4.48601 0
M  V30 42540 C 3847.82 -1.53903 -5.5236 0
M  V30 42541 N 3847.31 -1.99923 -6.63327 0
M  V30 42542 N 3849.1 -1.45447 -5.42956 0
M  V30 42543 H 3841.26 -1.45205 -1.55014 0
M  V30 42544 H 3843.52 -0.601047 -0.733107 0
M  V30 42545 H 3843.22 -1.74061 -3.05607 0
M  V30 42546 H 3843.1 -0.142304 -3.76931 0
M  V30 42547 H 3845.49 0.380398 -2.92638 0
M  V30 42548 H 3845.57 -1.24593 -2.23406 0
M  V30 42549 H 3845.21 -2.23082 -4.56286 0
M  V30 42550 H 3845.14 -0.581942 -5.23375 0
M  V30 42551 H 3847.63 -0.816336 -3.68977 0
M  V30 42552 H 3847.94 -2.27444 -7.38572 0
M  V30 42553 H 3846.29 -2.03882 -6.64422 0
M  V30 42554 H 3849.48 -1.09329 -4.55154 0
M  V30 42555 H 3849.65 -1.75797 -6.23698 0
M  V30 42556 N 3843.06 1.56149 -0.213351 0
M  V30 42557 C 3844.01 2.21284 0.716669 0
M  V30 42558 C 3845 1.18965 1.20597 0
M  V30 42559 O 3846.21 1.37066 1.16675 0
M  V30 42560 H 3842.58 0.7094 0.249512 0
M  V30 42561 H 3844.55 2.98053 0.143798 0
M  V30 42562 C 3843.3 2.90034 1.9177 0
M  V30 42563 H 3842.63 3.68519 1.55029 0
M  V30 42564 H 3844.07 3.3902 2.5464 0
M  V30 42565 C 3842.52 1.92056 2.76796 0
M  V30 42566 O 3843.05 1.43232 3.75297 0
M  V30 42567 N 3841.26 1.59884 2.42663 0
M  V30 42568 H 3840.81 1.99782 1.62619 0
M  V30 42569 H 3840.77 0.945885 2.99834 0
M  V30 42570 N 3844.54 -0.0601128 1.57485 0
M  V30 42571 C 3845.47 -1.07028 2.07527 0
M  V30 42572 C 3846.45 -1.39651 0.971161 0
M  V30 42573 O 3847.63 -1.49076 1.24459 0
M  V30 42574 C 3844.76 -2.38039 2.52893 0
M  V30 42575 C 3843.72 -2.19739 3.67286 0
M  V30 42576 C 3843.04 -3.56237 3.98747 0
M  V30 42577 C 3844.34 -1.60899 4.96899 0
M  V30 42578 H 3846.04 -0.653823 2.92174 0
M  V30 42579 H 3843.58 -0.313059 1.40556 0
M  V30 42580 H 3845.54 -3.09009 2.86515 0
M  V30 42581 H 3844.26 -2.81686 1.65289 0
M  V30 42582 H 3842.92 -1.51208 3.33964 0
M  V30 42583 H 3842.57 -3.97476 3.08256 0
M  V30 42584 H 3842.27 -3.44828 4.75781 0
M  V30 42585 H 3843.79 -4.28619 4.34877 0
M  V30 42586 H 3845.21 -2.21749 5.28678 0
M  V30 42587 H 3843.6 -1.60153 5.78335 0
M  V30 42588 H 3844.67 -0.571586 4.81519 0
M  V30 42589 N 3846.02 -1.54068 -0.331762 0
M  V30 42590 C 3847.24 -1.75834 -1.09041 0
M  V30 42591 C 3847.66 -0.503044 -1.81975 0
M  V30 42592 O 3847.02 0.525882 -1.74759 0
M  V30 42593 C 3847.07 -2.94617 -2.09484 0
M  V30 42594 O 3846.79 -4.15292 -1.39514 0
M  V30 42595 C 3848.29 -3.28528 -2.97631 0
M  V30 42596 H 3845.51 -0.587211 -0.324691 0
M  V30 42597 H 3848.05 -2.00931 -0.380382 0
M  V30 42598 H 3846.21 -2.71816 -2.76034 0
M  V30 42599 H 3846.62 -4.82049 -2.06709 0
M  V30 42600 H 3848.1 -4.14962 -3.6402 0
M  V30 42601 H 3848.57 -2.45339 -3.64288 0
M  V30 42602 H 3849.18 -3.53376 -2.36654 0
M  V30 42603 N 3847.49 0.593399 -1.46002 0
M  V30 42604 C 3848.74 1.34814 -1.50027 0
M  V30 42605 C 3849.06 1.95009 -0.15194 0
M  V30 42606 O 3850.26 2.7141 -0.0699228 0
M  V30 42607 C 3848.72 2.44277 -2.64304 0
M  V30 42608 C 3848.33 1.90431 -4.05512 0
M  V30 42609 C 3850.07 3.2116 -2.7759 0
M  V30 42610 C 3847.98 2.9746 -5.11147 0
M  V30 42611 H 3846.91 0.506762 -0.558308 0
M  V30 42612 H 3849.56 0.634453 -1.72183 0
M  V30 42613 H 3847.94 3.18395 -2.35458 0
M  V30 42614 H 3849.11 1.22927 -4.44101 0
M  V30 42615 H 3847.43 1.26249 -3.968 0
M  V30 42616 H 3850.03 4.01017 -3.5368 0
M  V30 42617 H 3850.37 3.73072 -1.84725 0
M  V30 42618 H 3850.9 2.54146 -3.06031 0
M  V30 42619 H 3847.64 2.50449 -6.05768 0
M  V30 42620 H 3847.16 3.63487 -4.77114 0
M  V30 42621 H 3848.84 3.61598 -5.36522 0
M  V30 42622 N 3848.97 1.33529 0.837127 0
M  V30 42623 C 3850.39 1.12901 1.12807 0
M  V30 42624 C 3850.59 -0.0789408 2.01345 0
M  V30 42625 O 3849.64 -0.75869 2.40832 0
M  V30 42626 C 3850.96 2.41731 1.78848 0
M  V30 42627 C 3852.51 2.47654 1.91406 0
M  V30 42628 C 3852.98 3.7645 2.60863 0
M  V30 42629 N 3854.47 3.77531 2.68375 0
M  V30 42630 C 3855.21 4.739 3.22811 0
M  V30 42631 N 3854.7 5.80644 3.77921 0
M  V30 42632 N 3856.5 4.61373 3.21079 0
M  V30 42633 H 3848.65 2.10948 0.247905 0
M  V30 42634 H 3850.91 0.932173 0.172501 0
M  V30 42635 H 3850.62 3.30138 1.21252 0
M  V30 42636 H 3850.49 2.54011 2.78852 0
M  V30 42637 H 3852.88 1.59696 2.48156 0
M  V30 42638 H 3852.96 2.39314 0.90347 0
M  V30 42639 H 3852.6 4.64791 2.04772 0
M  V30 42640 H 3852.53 3.82067 3.62398 0
M  V30 42641 H 3855.02 3.00386 2.29296 0
M  V30 42642 H 3855.34 6.50211 4.17667 0
M  V30 42643 H 3853.68 5.84376 3.76204 0
M  V30 42644 H 3856.87 3.77136 2.77283 0
M  V30 42645 H 3857.04 5.36646 3.63201 0
M  V30 42646 N 3850.45 -1.05559 1.17026 0
M  V30 42647 C 3851.68 -1.82715 0.981326 0
M  V30 42648 C 3852.1 -1.82246 -0.465604 0
M  V30 42649 O 3851.46 -1.22872 -1.33312 0
M  V30 42650 C 3851.51 -3.26885 1.52245 0
M  V30 42651 O 3850.61 -4.0582 0.733732 0
M  V30 42652 H 3849.95 -0.565078 0.348687 0
M  V30 42653 H 3852.48 -1.33043 1.55437 0
M  V30 42654 H 3852.49 -3.77692 1.54313 0
M  V30 42655 H 3851.17 -3.26541 2.57573 0
M  V30 42656 H 3849.74 -3.64562 0.784165 0
M  V30 42657 N 3851.93 -0.969911 -1.2422 0
M  V30 42658 C 3853.15 -0.650296 -1.96941 0
M  V30 42659 C 3853.58 0.773988 -1.71438 0
M  V30 42660 O 3852.94 1.52566 -0.979455 0
M  V30 42661 C 3852.98 -0.933743 -3.48301 0
M  V30 42662 O 3852.09 -0.020315 -4.12395 0
M  V30 42663 H 3851.43 -0.245629 -0.616897 0
M  V30 42664 H 3853.96 -1.30066 -1.57937 0
M  V30 42665 H 3853.97 -0.866176 -3.987 0
M  V30 42666 H 3852.64 -1.97173 -3.66191 0
M  V30 42667 H 3851.22 -0.141392 -3.72632 0
M  V30 42668 N 3853.41 1.39131 -0.740291 0
M  V30 42669 C 3854.63 2.05224 -0.299641 0
M  V30 42670 C 3855.06 1.55456 1.05901 0
M  V30 42671 O 3854.41 0.700633 1.67215 0
M  V30 42672 C 3854.46 3.59205 -0.316855 0
M  V30 42673 O 3853.57 4.06524 0.693715 0
M  V30 42674 H 3852.91 0.650099 -0.135157 0
M  V30 42675 H 3855.44 1.78064 -1.00769 0
M  V30 42676 H 3855.45 4.07674 -0.163085 0
M  V30 42677 H 3854.12 3.94789 -1.30821 0
M  V30 42678 H 3852.7 3.69456 0.505647 0
M  V30 42679 N 3854.88 0.488329 1.49844 0
M  V30 42680 C 3856.13 -0.0606625 2.02409 0
M  V30 42681 C 3856.46 -1.38158 1.36903 0
M  V30 42682 O 3855.71 -1.89478 0.489543 0
M  V30 42683 C 3856.01 -0.274788 3.56342 0
M  V30 42684 C 3855.68 0.966559 4.40418 0
M  V30 42685 C 3854.34 1.30686 4.63114 0
M  V30 42686 C 3856.69 1.79227 4.89415 0
M  V30 42687 C 3854.02 2.47262 5.32051 0
M  V30 42688 C 3856.37 2.94945 5.59634 0
M  V30 42689 C 3855.04 3.2937 5.80579 0
M  V30 42690 H 3854.31 -0.022198 0.740667 0
M  V30 42691 H 3856.95 0.645914 1.80278 0
M  V30 42692 H 3855.26 -1.06377 3.77082 0
M  V30 42693 H 3856.96 -0.71381 3.94596 0
M  V30 42694 H 3853.55 0.691463 4.22986 0
M  V30 42695 H 3857.73 1.54252 4.7172 0
M  V30 42696 H 3852.99 2.74187 5.46472 0
M  V30 42697 H 3857.16 3.59261 5.96577 0
M  V30 42698 H 3854.79 4.19807 6.33772 0
M  V30 42699 N 3856.36 -1.56034 0.221629 0
M  V30 42700 C 3857.59 -2.03145 -0.417943 0
M  V30 42701 C 3858.01 -1.1004 -1.52554 0
M  V30 42702 O 3857.37 -0.0886048 -1.81083 0
M  V30 42703 C 3857.42 -3.48489 -0.926701 0
M  V30 42704 O 3856.52 -3.58521 -2.03805 0
M  V30 42705 H 3855.86 -0.657231 -0.0945662 0
M  V30 42706 H 3858.39 -2.0175 0.340288 0
M  V30 42707 H 3858.4 -3.88812 -1.2365 0
M  V30 42708 H 3857.08 -4.15738 -0.116042 0
M  V30 42709 H 3855.66 -3.30085 -1.73488 0
M  V30 42710 N 3857.84 0.0517601 -1.57515 0
M  V30 42711 C 3859.12 0.781202 -1.79323 0
M  V30 42712 C 3859.5 1.94768 -0.814176 0
M  V30 42713 O 3858.85 2.28017 0.14854 0
M  V30 42714 C 3859.06 1.23547 -3.264 0
M  V30 42715 C 3860.4 1.6607 -3.90776 0
M  V30 42716 O 3861.43 1.33064 -3.30413 0
M  V30 42717 O 3860.29 2.27248 -4.97012 0
M  V30 42718 H 3857.38 0.375899 -0.736633 0
M  V30 42719 H 3859.93 0.0302875 -1.69673 0
M  V30 42720 H 3858.7 0.401738 -3.89232 0
M  V30 42721 H 3858.32 2.0471 -3.40851 0
M  V30 42722 N 3859.32 1.54242 0.323587 0
M  V30 42723 C 3860.55 1.7641 1.08107 0
M  V30 42724 C 3860.96 0.512688 1.81706 0
M  V30 42725 O 3860.32 -0.516607 1.75035 0
M  V30 42726 C 3860.37 2.95723 2.07918 0
M  V30 42727 O 3860.09 4.16026 1.37309 0
M  V30 42728 C 3861.59 3.30101 2.95885 0
M  V30 42729 H 3858.81 0.588925 0.321572 0
M  V30 42730 H 3861.36 2.0113 0.369721 0
M  V30 42731 H 3859.51 2.73277 2.74588 0
M  V30 42732 H 3859.93 4.83139 2.0415 0
M  V30 42733 H 3861.4 4.16887 3.61814 0
M  V30 42734 H 3861.88 2.47267 3.62982 0
M  V30 42735 H 3862.48 3.54627 2.34777 0
M  V30 42736 N 3860.8 -0.585648 1.46314 0
M  V30 42737 C 3861.73 -1.70521 1.59514 0
M  V30 42738 C 3862.71 -1.6416 0.445607 0
M  V30 42739 O 3863.89 -1.82222 0.671487 0
M  V30 42740 C 3861.02 -3.09159 1.58234 0
M  V30 42741 C 3859.98 -3.30349 2.72128 0
M  V30 42742 C 3859.3 -4.69484 2.55908 0
M  V30 42743 C 3860.6 -3.18469 4.13975 0
M  V30 42744 H 3862.3 -1.59731 2.53232 0
M  V30 42745 H 3859.84 -0.767025 1.21872 0
M  V30 42746 H 3861.8 -3.873 1.66063 0
M  V30 42747 H 3860.52 -3.20842 0.610591 0
M  V30 42748 H 3859.18 -2.54607 2.63763 0
M  V30 42749 H 3858.83 -4.77928 1.56823 0
M  V30 42750 H 3858.53 -4.84615 3.32298 0
M  V30 42751 H 3860.05 -5.49797 2.65623 0
M  V30 42752 H 3861.47 -3.86457 4.23466 0
M  V30 42753 H 3859.86 -3.45122 4.90928 0
M  V30 42754 H 3860.93 -2.1559 4.34337 0
M  V30 42755 N 3862.28 -1.33971 -0.830033 0
M  V30 42756 C 3863.19 -1.27015 -1.97242 0
M  V30 42757 C 3864.2 -0.179105 -1.73076 0
M  V30 42758 O 3865.38 -0.404297 -1.973 0
M  V30 42759 C 3862.44 -1.01833 -3.31408 0
M  V30 42760 C 3861.5 -2.20025 -3.68629 0
M  V30 42761 C 3860.74 -1.96034 -4.96393 0
M  V30 42762 O 3860.96 -0.915039 -5.63013 0
M  V30 42763 O 3859.89 -2.82801 -5.31326 0
M  V30 42764 H 3863.72 -2.23106 -2.06052 0
M  V30 42765 H 3861.3 -1.14106 -0.964379 0
M  V30 42766 H 3863.19 -0.895409 -4.11777 0
M  V30 42767 H 3861.86 -0.087766 -3.23581 0
M  V30 42768 H 3860.77 -2.37874 -2.88733 0
M  V30 42769 H 3862.1 -3.11446 -3.81133 0
M  V30 42770 N 3863.75 1.04937 -1.17584 0
M  V30 42771 C 3864.66 2.16247 -0.909626 0
M  V30 42772 C 3865.68 1.73564 0.123136 0
M  V30 42773 O 3866.86 2.0132 -0.0567329 0
M  V30 42774 C 3863.92 3.44031 -0.429402 0
M  V30 42775 C 3862.98 4.01146 -1.52907 0
M  V30 42776 C 3862.21 5.2283 -1.07166 0
M  V30 42777 O 3862.44 5.70353 0.0731631 0
M  V30 42778 O 3861.37 5.72252 -1.86578 0
M  V30 42779 H 3865.2 2.41555 -1.84079 0
M  V30 42780 H 3862.78 1.14731 -0.956934 0
M  V30 42781 H 3864.66 4.2106 -0.169244 0
M  V30 42782 H 3863.34 3.20217 0.473573 0
M  V30 42783 H 3862.25 3.25545 -1.84314 0
M  V30 42784 H 3863.58 4.29283 -2.40785 0
M  V30 42785 N 3865.23 0.976485 1.23703 0
M  V30 42786 C 3866.46 0.660732 1.96594 0
M  V30 42787 C 3866.88 -0.764885 1.71846 0
M  V30 42788 O 3866.24 -1.52044 0.987532 0
M  V30 42789 C 3866.29 0.952201 3.47801 0
M  V30 42790 O 3865.39 0.0421851 4.12378 0
M  V30 42791 H 3864.73 0.248897 0.615586 0
M  V30 42792 H 3867.26 1.30902 1.57245 0
M  V30 42793 H 3867.27 0.887308 3.98235 0
M  V30 42794 H 3865.95 1.99112 3.6514 0
M  V30 42795 H 3864.52 0.161152 3.72552 0
M  V30 42796 N 3866.71 -1.38737 0.747659 0
M  V30 42797 C 3867.93 -2.05062 0.31052 0
M  V30 42798 C 3868.36 -1.56015 -1.05075 0
M  V30 42799 O 3867.72 -0.709491 -1.66841 0
M  V30 42800 C 3867.77 -3.59032 0.3359 0
M  V30 42801 O 3866.87 -4.06886 -0.672146 0
M  V30 42802 H 3866.21 -0.649373 0.138603 0
M  V30 42803 H 3868.74 -1.77527 1.01712 0
M  V30 42804 H 3868.75 -4.07582 0.184702 0
M  V30 42805 H 3867.43 -3.9409 1.32913 0
M  V30 42806 H 3866 -3.69719 -0.486047 0
M  V30 42807 N 3868.19 -0.496268 -1.49583 0
M  V30 42808 C 3869.6 -0.0473084 -1.8664 0
M  V30 42809 C 3869.95 1.36534 -1.40901 0
M  V30 42810 O 3869.07 2.01666 -0.784832 0
M  V30 42811 C 3869.67 -0.0790755 -3.38708 0
M  V30 42812 C 3868.23 0.314522 -3.75084 0
M  V30 42813 C 3867.38 -0.453672 -2.73564 0
M  V30 42814 H 3870.33 -0.709294 -1.41967 0
M  V30 42815 H 3870.35 0.71733 -3.73677 0
M  V30 42816 H 3869.86 -1.10733 -3.71967 0
M  V30 42817 H 3867.96 1.34619 -3.47431 0
M  V30 42818 H 3868.07 -0.00163849 -4.791 0
M  V30 42819 H 3866.44 0.0958923 -2.54519 0
M  V30 42820 H 3867.22 -1.48192 -3.09668 0
M  V30 42821 N 3869.67 1.55914 -0.2299 0
M  V30 42822 C 3870.91 1.97695 0.399929 0
M  V30 42823 C 3871.23 1.12084 1.60301 0
M  V30 42824 O 3872.43 1.43802 2.3029 0
M  V30 42825 C 3870.89 3.51721 0.76292 0
M  V30 42826 C 3870.5 4.46047 -0.417816 0
M  V30 42827 C 3872.24 4.02196 1.35789 0
M  V30 42828 C 3870.15 5.91391 -0.0319255 0
M  V30 42829 H 3869.08 0.738273 0.153196 0
M  V30 42830 H 3871.73 1.80555 -0.327433 0
M  V30 42831 H 3870.11 3.64493 1.54794 0
M  V30 42832 H 3871.29 4.45027 -1.1953 0
M  V30 42833 H 3869.6 4.0596 -0.926572 0
M  V30 42834 H 3872.2 5.08291 1.65965 0
M  V30 42835 H 3872.54 3.48538 2.27655 0
M  V30 42836 H 3873.07 3.92681 0.636131 0
M  V30 42837 H 3869.81 6.4905 -0.91729 0
M  V30 42838 H 3869.33 5.95586 0.709706 0
M  V30 42839 H 3871.01 6.45812 0.391853 0
M  V30 42840 N 3871.14 -0.043406 1.5754 0
M  V30 42841 C 3872.11 -1.033 2.04602 0
M  V30 42842 C 3873.11 -1.29907 0.947671 0
M  V30 42843 O 3874.3 -1.25151 1.21173 0
M  V30 42844 C 3871.43 -2.36956 2.45081 0
M  V30 42845 H 3872.62 -0.626771 2.93277 0
M  V30 42846 H 3870.17 -0.289882 1.53588 0
M  V30 42847 H 3870.91 -2.82355 1.59518 0
M  V30 42848 H 3870.69 -2.18978 3.25256 0
M  V30 42849 H 3872.18 -3.08032 2.81968 0
M  V30 42850 N 3872.62 -1.54412 -0.315402 0
M  V30 42851 C 3873.58 -1.83636 -1.37151 0
M  V30 42852 C 3874.58 -0.708543 -1.44348 0
M  V30 42853 O 3875.77 -0.97685 -1.44233 0
M  V30 42854 C 3872.91 -2.00373 -2.75796 0
M  V30 42855 H 3874.1 -2.78004 -1.12488 0
M  V30 42856 H 3871.65 -1.46254 -0.55132 0
M  V30 42857 H 3872.39 -1.08244 -3.05702 0
M  V30 42858 H 3872.17 -2.82449 -2.71965 0
M  V30 42859 H 3873.66 -2.24403 -3.52183 0
M  V30 42860 N 3874.1 0.57788 -1.46623 0
M  V30 42861 C 3875.35 1.33215 -1.51449 0
M  V30 42862 C 3875.66 1.94837 -0.172614 0
M  V30 42863 O 3876.87 2.71321 -0.0987055 0
M  V30 42864 C 3875.32 2.4146 -2.6688 0
M  V30 42865 C 3874.93 1.8612 -4.07509 0
M  V30 42866 C 3876.68 3.18198 -2.80981 0
M  V30 42867 C 3874.58 2.92022 -5.14273 0
M  V30 42868 H 3873.51 0.500812 -0.563652 0
M  V30 42869 H 3876.16 0.616155 -1.72846 0
M  V30 42870 H 3874.55 3.1588 -2.38822 0
M  V30 42871 H 3875.72 1.1821 -4.4538 0
M  V30 42872 H 3874.04 1.22033 -3.98117 0
M  V30 42873 H 3876.63 3.97243 -3.57913 0
M  V30 42874 H 3876.98 3.71091 -1.88672 0
M  V30 42875 H 3877.51 2.50886 -3.08709 0
M  V30 42876 H 3874.25 2.4401 -6.08391 0
M  V30 42877 H 3873.77 3.58406 -4.80942 0
M  V30 42878 H 3875.45 3.55887 -5.40327 0
M  V30 42879 N 3875.58 1.34409 0.822917 0
M  V30 42880 C 3876.83 1.26766 1.57913 0
M  V30 42881 C 3877.15 -0.162374 1.93821 0
M  V30 42882 O 3876.41 -1.12363 1.60228 0
M  V30 42883 C 3876.71 2.10393 2.88911 0
M  V30 42884 C 3876.37 3.59397 2.72295 0
M  V30 42885 C 3875.04 4.00016 2.67472 0
M  V30 42886 C 3877.39 4.54013 2.55972 0
M  V30 42887 C 3874.72 5.33443 2.44245 0
M  V30 42888 C 3877.07 5.87619 2.34278 0
M  V30 42889 C 3875.73 6.27402 2.27866 0
M  V30 42890 H 3875 0.46387 0.577846 0
M  V30 42891 H 3877.65 1.66152 0.952151 0
M  V30 42892 H 3875.95 1.63836 3.55901 0
M  V30 42893 H 3877.65 2.01826 3.46508 0
M  V30 42894 H 3874.24 3.27154 2.7689 0
M  V30 42895 H 3878.42 4.23529 2.58722 0
M  V30 42896 H 3873.68 5.63285 2.37739 0
M  V30 42897 H 3877.85 6.60525 2.20634 0
M  V30 42898 H 3875.48 7.30725 2.0963 0
M  V30 42899 N 3877.06 -1.04312 1.18139 0
M  V30 42900 C 3878.33 -1.74437 0.884932 0
M  V30 42901 C 3878.71 -2.0201 -0.61279 0
M  V30 42902 O 3878.06 -1.66328 -1.56676 0
M  V30 42903 C 3878.27 -3.03133 1.72949 0
M  V30 42904 C 3879.62 -3.76916 1.95497 0
M  V30 42905 O 3880.64 -3.13025 1.69982 0
M  V30 42906 O 3879.5 -4.91743 2.38435 0
M  V30 42907 H 3876.6 -0.75896 0.328494 0
M  V30 42908 H 3879.14 -1.104 1.2888 0
M  V30 42909 H 3877.91 -2.78874 2.7449 0
M  V30 42910 H 3877.54 -3.74909 1.32398 0
M  V30 42911 N 3878.53 -0.983032 -1.23184 0
M  V30 42912 C 3879.76 -0.671487 -1.957 0
M  V30 42913 C 3880.18 0.76203 -1.72738 0
M  V30 42914 O 3879.53 1.51308 -1.0204 0
M  V30 42915 C 3879.59 -0.955635 -3.4864 0
M  V30 42916 O 3879.31 -2.33281 -3.70825 0
M  V30 42917 C 3880.81 -0.66041 -4.38353 0
M  V30 42918 H 3878.03 -0.249219 -0.623001 0
M  V30 42919 H 3880.57 -1.31513 -1.56603 0
M  V30 42920 H 3878.73 -0.35796 -3.85743 0
M  V30 42921 H 3879.14 -2.42451 -4.651 0
M  V30 42922 H 3880.61 -0.909573 -5.44455 0
M  V30 42923 H 3881.09 0.405538 -4.37324 0
M  V30 42924 H 3881.7 -1.23868 -4.06862 0
M  V30 42925 N 3880.01 1.38338 -0.755006 0
M  V30 42926 C 3880.92 2.34238 -0.130344 0
M  V30 42927 C 3881.94 1.59342 0.69902 0
M  V30 42928 O 3883.11 1.91527 0.622843 0
M  V30 42929 C 3880.18 3.38463 0.751225 0
M  V30 42930 C 3879.24 4.292 -0.0926741 0
M  V30 42931 C 3878.47 5.28448 0.746914 0
M  V30 42932 O 3878.7 5.34752 1.98485 0
M  V30 42933 O 3877.63 6.01674 0.164967 0
M  V30 42934 H 3881.46 2.89354 -0.922381 0
M  V30 42935 H 3879.04 1.40209 -0.515921 0
M  V30 42936 H 3880.92 4.02277 1.25502 0
M  V30 42937 H 3879.6 2.85701 1.52173 0
M  V30 42938 H 3878.51 3.68542 -0.642455 0
M  V30 42939 H 3879.84 4.85222 -0.82587 0
M  V30 42940 N 3881.49 0.504194 1.49317 0
M  V30 42941 C 3882.44 -0.286196 2.30833 0
M  V30 42942 C 3883.43 -0.959794 1.39586 0
M  V30 42943 O 3884.64 -0.887118 1.56621 0
M  V30 42944 H 3881.01 -0.111154 0.74374 0
M  V30 42945 H 3882.98 0.421258 2.95412 0
M  V30 42946 C 3881.73 -1.33591 3.21012 0
M  V30 42947 H 3881.06 -0.826988 3.91153 0
M  V30 42948 H 3882.5 -1.86086 3.80983 0
M  V30 42949 C 3880.96 -2.35579 2.40841 0
M  V30 42950 O 3881.49 -3.41523 2.11482 0
M  V30 42951 N 3879.69 -2.0813 2.02806 0
M  V30 42952 H 3879.24 -1.21995 2.26881 0
M  V30 42953 H 3879.2 -2.76596 1.49472 0
M  V30 42954 N 3882.97 -1.5579 0.238166 0
M  V30 42955 C 3883.9 -2.23996 -0.659412 0
M  V30 42956 C 3884.88 -1.21725 -1.18815 0
M  V30 42957 O 3886.06 -1.50356 -1.2291 0
M  V30 42958 C 3883.19 -2.9327 -1.86037 0
M  V30 42959 C 3882.15 -4.02154 -1.46478 0
M  V30 42960 C 3881.47 -4.5881 -2.74587 0
M  V30 42961 C 3882.77 -5.18335 -0.642357 0
M  V30 42962 H 3884.47 -2.99263 -0.0906996 0
M  V30 42963 H 3882.01 -1.43938 -0.0421837 0
M  V30 42964 H 3883.97 -3.39682 -2.49387 0
M  V30 42965 H 3882.69 -2.15477 -2.45432 0
M  V30 42966 H 3881.35 -3.56498 -0.854666 0
M  V30 42967 H 3881 -3.77727 -3.32161 0
M  V30 42968 H 3880.7 -5.32306 -2.48845 0
M  V30 42969 H 3882.22 -5.0795 -3.3885 0
M  V30 42970 H 3883.64 -5.61026 -1.17995 0
M  V30 42971 H 3882.03 -5.98166 -0.481353 0
M  V30 42972 H 3883.1 -4.83654 0.347383 0
M  V30 42973 N 3884.45 0.0350506 -1.57561 0
M  V30 42974 C 3885.36 1.0546 -2.0956 0
M  V30 42975 C 3886.37 1.40025 -1.03291 0
M  V30 42976 O 3887.55 1.49465 -1.3499 0
M  V30 42977 C 3884.61 2.33838 -2.5597 0
M  V30 42978 C 3883.67 2.05909 -3.76696 0
M  V30 42979 C 3882.91 3.28165 -4.20884 0
M  V30 42980 O 3883.13 4.38625 -3.64642 0
M  V30 42981 O 3882.06 3.14216 -5.13373 0
M  V30 42982 H 3885.89 0.642719 -2.96821 0
M  V30 42983 H 3883.48 0.251642 -1.47265 0
M  V30 42984 H 3885.36 3.09322 -2.86178 0
M  V30 42985 H 3884.03 2.74333 -1.71823 0
M  V30 42986 H 3882.94 1.28012 -3.51516 0
M  V30 42987 H 3884.27 1.70272 -4.6181 0
M  V30 42988 N 3885.92 1.54577 0.307209 0
M  V30 42989 C 3886.87 1.85098 1.37867 0
M  V30 42990 C 3887.84 0.699376 1.50658 0
M  V30 42991 O 3889.03 0.947402 1.65617 0
M  V30 42992 C 3886.17 2.0984 2.73973 0
M  V30 42993 C 3885.28 3.37485 2.69681 0
M  V30 42994 C 3884.41 3.52103 3.9774 0
M  V30 42995 C 3883.45 4.73562 3.87821 0
M  V30 42996 N 3882.59 4.85019 5.07643 0
M  V30 42997 H 3887.43 2.765 1.11139 0
M  V30 42998 H 3884.97 1.36921 0.537672 0
M  V30 42999 H 3886.93 2.2218 3.53117 0
M  V30 43000 H 3885.56 1.21712 2.98975 0
M  V30 43001 H 3884.61 3.33799 1.82435 0
M  V30 43002 H 3885.92 4.26748 2.5824 0
M  V30 43003 H 3885.07 3.64073 4.8532 0
M  V30 43004 H 3883.81 2.60962 4.12008 0
M  V30 43005 H 3882.82 4.61631 2.98625 0
M  V30 43006 H 3884.04 5.66104 3.75104 0
M  V30 43007 H 3881.99 3.96799 5.22386 0
M  V30 43008 H 3881.91 5.68273 4.986 0
M  V30 43009 H 3883.17 5.01339 5.96892 0
M  V30 43010 N 3887.4 -0.570096 1.46927 0
M  V30 43011 C 3888.65 -1.3241 1.52153 0
M  V30 43012 C 3888.96 -1.94743 0.182945 0
M  V30 43013 O 3890.17 -2.71264 0.113093 0
M  V30 43014 C 3888.63 -2.40041 2.68157 0
M  V30 43015 C 3888.23 -1.83956 4.0849 0
M  V30 43016 C 3889.98 -3.16704 2.82664 0
M  V30 43017 C 3887.89 -2.89291 5.15815 0
M  V30 43018 H 3886.82 -0.497816 0.5663 0
M  V30 43019 H 3889.47 -0.60698 1.7317 0
M  V30 43020 H 3887.85 -3.14609 2.40494 0
M  V30 43021 H 3889.02 -1.15846 4.46 0
M  V30 43022 H 3887.34 -1.1992 3.98758 0
M  V30 43023 H 3889.93 -3.95339 3.60015 0
M  V30 43024 H 3890.28 -3.70086 1.90637 0
M  V30 43025 H 3890.81 -2.49245 3.10035 0
M  V30 43026 H 3887.55 -2.4078 6.09676 0
M  V30 43027 H 3887.07 -3.5585 4.82836 0
M  V30 43028 H 3888.75 -3.53017 5.42207 0
M  V30 43029 N 3888.88 -1.34844 -0.815777 0
M  V30 43030 C 3890.11 -1.3085 -1.60913 0
M  V30 43031 C 3890.53 0.113312 -1.87758 0
M  V30 43032 O 3889.89 1.07729 -1.45822 0
M  V30 43033 C 3889.94 -2.11198 -2.92281 0
M  V30 43034 O 3889.04 -1.48639 -3.84682 0
M  V30 43035 H 3888.38 -0.449061 -0.489122 0
M  V30 43036 H 3890.91 -1.77751 -1.01319 0
M  V30 43037 H 3890.92 -2.22816 -3.41785 0
M  V30 43038 H 3889.6 -3.14568 -2.72066 0
M  V30 43039 H 3888.17 -1.45806 -3.43213 0
M  V30 43040 N 3890.36 1.03684 -1.1869 0
M  V30 43041 C 3891.61 1.76349 -0.978979 0
M  V30 43042 C 3891.92 1.89313 0.491916 0
M  V30 43043 O 3893.13 2.5887 0.818456 0
M  V30 43044 C 3891.58 3.1708 -1.7026 0
M  V30 43045 C 3891.19 3.12195 -3.21307 0
M  V30 43046 C 3892.94 3.94095 -1.57763 0
M  V30 43047 C 3890.84 4.47808 -3.86292 0
M  V30 43048 H 3889.77 0.661053 -0.362664 0
M  V30 43049 H 3892.42 1.16098 -1.42104 0
M  V30 43050 H 3890.81 3.7775 -1.18833 0
M  V30 43051 H 3891.98 2.60954 -3.79789 0
M  V30 43052 H 3890.29 2.48678 -3.33989 0
M  V30 43053 H 3892.89 4.9439 -2.03672 0
M  V30 43054 H 3893.23 4.12906 -0.5305 0
M  V30 43055 H 3893.77 3.40009 -2.06492 0
M  V30 43056 H 3890.51 4.34203 -4.91069 0
M  V30 43057 H 3890.03 4.99138 -3.32598 0
M  V30 43058 H 3891.71 5.16714 -3.89378 0
M  V30 43059 N 3891.84 0.989551 1.22661 0
M  V30 43060 C 3893.07 0.681856 1.95342 0
M  V30 43061 C 3893.48 -0.752859 1.7314 0
M  V30 43062 O 3892.84 -1.50765 1.02841 0
M  V30 43063 C 3892.89 0.974111 3.48128 0
M  V30 43064 O 3892.61 2.35245 3.69583 0
M  V30 43065 C 3894.11 0.683648 4.37997 0
M  V30 43066 H 3891.33 0.25252 0.621671 0
M  V30 43067 H 3893.87 1.32342 1.55904 0
M  V30 43068 H 3892.03 0.378412 3.85547 0
M  V30 43069 H 3892.44 2.44914 4.63807 0
M  V30 43070 H 3893.92 0.938434 5.43965 0
M  V30 43071 H 3894.39 -0.38234 4.37533 0
M  V30 43072 H 3895 1.26024 4.06199 0
M  V30 43073 N 3893.32 -1.37936 0.762332 0
M  V30 43074 C 3894.23 -2.34165 0.142765 0
M  V30 43075 C 3895.24 -1.5971 -0.690559 0
M  V30 43076 O 3896.42 -1.91855 -0.612677 0
M  V30 43077 C 3893.48 -3.38857 -0.733265 0
M  V30 43078 C 3892.54 -4.29145 0.115434 0
M  V30 43079 C 3891.78 -5.28836 -0.718879 0
M  V30 43080 O 3892 -5.35797 -1.95647 0
M  V30 43081 O 3890.93 -6.01753 -0.133056 0
M  V30 43082 H 3894.76 -2.88861 0.937713 0
M  V30 43083 H 3892.34 -1.39934 0.523349 0
M  V30 43084 H 3894.23 -4.02937 -1.23367 0
M  V30 43085 H 3892.9 -2.86504 -1.50656 0
M  V30 43086 H 3891.81 -3.68196 0.66199 0
M  V30 43087 H 3893.14 -4.84777 0.85159 0
M  V30 43088 N 3894.79 -0.512106 -1.49048 0
M  V30 43089 C 3896.04 0.0283971 -2.0208 0
M  V30 43090 C 3896.36 1.36452 -1.39305 0
M  V30 43091 O 3895.63 1.87957 -0.552188 0
M  V30 43092 H 3894.21 0.0134837 -0.746878 0
M  V30 43093 H 3896.87 -0.671874 -1.82953 0
M  V30 43094 H 3895.97 0.149911 -3.1174 0
M  V30 43095 N 3896.27 1.55662 -0.246424 0
M  V30 43096 C 3897.52 1.98108 0.378938 0
M  V30 43097 C 3897.83 1.13778 1.59104 0
M  V30 43098 O 3899.04 1.46236 2.28752 0
M  V30 43099 C 3897.5 3.5251 0.725572 0
M  V30 43100 C 3897.1 4.45579 -0.465102 0
M  V30 43101 C 3898.85 4.03614 1.31515 0
M  V30 43102 C 3896.75 5.91324 -0.0946487 0
M  V30 43103 H 3895.68 0.739856 0.145357 0
M  V30 43104 H 3898.34 1.80198 -0.346565 0
M  V30 43105 H 3896.72 3.66114 1.50919 0
M  V30 43106 H 3897.89 4.43734 -1.24244 0
M  V30 43107 H 3896.21 4.04955 -0.969578 0
M  V30 43108 H 3898.8 5.10023 1.60564 0
M  V30 43109 H 3899.15 3.50933 2.23946 0
M  V30 43110 H 3899.68 3.93333 0.594446 0
M  V30 43111 H 3896.42 6.48041 -0.986079 0
M  V30 43112 H 3895.94 5.96306 0.646496 0
M  V30 43113 H 3897.62 6.46192 0.323334 0
M  V30 43114 N 3897.75 -0.0266943 1.57577 0
M  V30 43115 C 3898.66 -1.04348 2.10116 0
M  V30 43116 C 3899.68 -1.39476 1.04032 0
M  V30 43117 O 3900.85 -1.48747 1.3578 0
M  V30 43118 C 3897.92 -2.32477 2.57207 0
M  V30 43119 C 3896.98 -2.03908 3.77783 0
M  V30 43120 C 3896.21 -3.25928 4.22619 0
M  V30 43121 O 3896.43 -4.36686 3.66963 0
M  V30 43122 O 3895.37 -3.11489 5.15032 0
M  V30 43123 H 3899.19 -0.626969 2.97158 0
M  V30 43124 H 3896.78 -0.243829 1.47397 0
M  V30 43125 H 3898.66 -3.078 2.87815 0
M  V30 43126 H 3897.34 -2.73418 1.73275 0
M  V30 43127 H 3896.24 -1.26146 3.5219 0
M  V30 43128 H 3897.58 -1.67821 4.62706 0
M  V30 43129 N 3899.23 -1.54738 -0.299007 0
M  V30 43130 C 3900.64 -1.45996 -0.64478 0
M  V30 43131 C 3900.84 -0.652782 -1.90633 0
M  V30 43132 O 3899.9 -0.161273 -2.51984 0
M  V30 43133 C 3901.21 -2.89975 -0.795923 0
M  V30 43134 C 3902.76 -3.0003 -0.891678 0
M  V30 43135 C 3903.24 -4.4521 -1.0748 0
M  V30 43136 N 3904.73 -4.48928 -1.14096 0
M  V30 43137 C 3905.46 -5.58446 -1.30098 0
M  V30 43138 N 3904.96 -6.77884 -1.42986 0
M  V30 43139 N 3906.75 -5.46138 -1.33002 0
M  V30 43140 H 3898.9 -2.05685 0.529843 0
M  V30 43141 H 3901.16 -0.931628 0.175423 0
M  V30 43142 H 3900.87 -3.51648 0.0601993 0
M  V30 43143 H 3900.74 -3.37507 -1.68431 0
M  V30 43144 H 3903.13 -2.38469 -1.73829 0
M  V30 43145 H 3903.21 -2.55792 0.0207644 0
M  V30 43146 H 3902.86 -5.07365 -0.232955 0
M  V30 43147 H 3902.79 -4.87081 -2.0015 0
M  V30 43148 H 3905.28 -3.6288 -1.05481 0
M  V30 43149 H 3905.59 -7.57105 -1.54957 0
M  V30 43150 H 3903.94 -6.80745 -1.40038 0
M  V30 43151 H 3907.13 -4.51774 -1.22547 0
M  V30 43152 H 3907.3 -6.31539 -1.4513 0
M  V30 43153 N 3900.71 0.562296 -1.47228 0
M  V30 43154 C 3901.95 1.31709 -1.53288 0
M  V30 43155 C 3902.27 1.94026 -0.194617 0
M  V30 43156 O 3901.54 1.79662 0.780929 0
M  V30 43157 H 3900.12 0.489084 -0.564629 0
M  V30 43158 H 3902.79 0.656992 -1.83493 0
M  V30 43159 H 3901.88 2.11326 -2.29669 0
M  V30 43160 N 3902.18 1.35274 0.808615 0
M  V30 43161 C 3903.43 1.2777 1.56069 0
M  V30 43162 C 3903.75 -0.146511 1.95051 0
M  V30 43163 O 3904.95 -0.343808 2.69314 0
M  V30 43164 C 3903.41 2.24064 2.81644 0
M  V30 43165 C 3903.02 3.7182 2.49908 0
M  V30 43166 C 3904.76 2.25498 3.59654 0
M  V30 43167 C 3902.67 4.59942 3.71762 0
M  V30 43168 H 3901.6 0.474712 0.585803 0
M  V30 43169 H 3904.25 1.60526 0.889023 0
M  V30 43170 H 3902.63 1.84277 3.50511 0
M  V30 43171 H 3903.8 4.20229 1.89061 0
M  V30 43172 H 3902.12 3.72974 1.85147 0
M  V30 43173 H 3904.72 2.88553 4.50157 0
M  V30 43174 H 3905.06 1.25816 3.96832 0
M  V30 43175 H 3905.59 2.63803 2.97746 0
M  V30 43176 H 3902.33 5.60614 3.39694 0
M  V30 43177 H 3901.85 4.1626 4.31842 0
M  V30 43178 H 3903.53 4.75264 4.39014 0
M  V30 43179 N 3903.66 -1.03053 1.19239 0
M  V30 43180 C 3904.91 -1.76687 0.995475 0
M  V30 43181 C 3905.24 -1.88357 -0.472772 0
M  V30 43182 O 3904.52 -1.39915 -1.35107 0
M  V30 43183 C 3904.8 -3.19393 1.66313 0
M  V30 43184 C 3904.65 -3.15603 3.20491 0
M  V30 43185 C 3905.97 -4.17747 1.38475 0
M  V30 43186 H 3903.09 -0.641376 0.363051 0
M  V30 43187 H 3905.73 -1.20313 1.47054 0
M  V30 43188 H 3903.88 -3.67527 1.25921 0
M  V30 43189 H 3905.55 -2.7538 3.70086 0
M  V30 43190 H 3903.8 -2.53362 3.52122 0
M  V30 43191 H 3904.47 -4.16419 3.62352 0
M  V30 43192 H 3906.94 -3.78206 1.73491 0
M  V30 43193 H 3905.82 -5.15794 1.87744 0
M  V30 43194 H 3906.08 -4.41015 0.309583 0
M  V30 43195 N 3905.14 -0.996042 -1.22134 0
M  V30 43196 C 3906.42 -0.589498 -1.86505 0
M  V30 43197 C 3906.8 0.933126 -1.89357 0
M  V30 43198 O 3906.15 1.81637 -1.38637 0
M  V30 43199 C 3906.36 -1.21355 -3.27222 0
M  V30 43200 C 3907.7 -1.31604 -4.0369 0
M  V30 43201 O 3908.73 -1.16818 -3.365 0
M  V30 43202 O 3907.59 -1.55298 -5.2397 0
M  V30 43203 H 3904.68 -0.200706 -0.802276 0
M  V30 43204 H 3907.23 -1.09212 -1.29888 0
M  V30 43205 H 3906 -2.25489 -3.19798 0
M  V30 43206 H 3905.62 -0.696714 -3.91448 0
M  V30 43207 N 3906.62 1.37529 -0.769636 0
M  V30 43208 C 3907.84 2.04542 -0.343105 0
M  V30 43209 C 3908.27 1.57667 1.0258 0
M  V30 43210 O 3907.63 0.735944 1.65691 0
M  V30 43211 C 3907.67 3.58452 -0.392977 0
M  V30 43212 O 3906.78 4.07904 0.607329 0
M  V30 43213 H 3906.12 0.647086 -0.148916 0
M  V30 43214 H 3908.65 1.75886 -1.04524 0
M  V30 43215 H 3908.66 4.07236 -0.249522 0
M  V30 43216 H 3907.33 3.91926 -1.39166 0
M  V30 43217 H 3905.91 3.70445 0.427166 0
M  V30 43218 N 3908.1 0.520003 1.48774 0
M  V30 43219 C 3909.35 -0.0196618 2.0169 0
M  V30 43220 C 3909.66 -1.36269 1.40321 0
M  V30 43221 O 3910.86 -1.99014 1.84677 0
M  V30 43222 C 3909.32 -0.0854618 3.59799 0
M  V30 43223 C 3908.93 1.25207 4.30148 0
M  V30 43224 C 3910.67 -0.574483 4.20595 0
M  V30 43225 C 3908.58 1.1474 5.80163 0
M  V30 43226 H 3907.51 -0.0111197 0.753918 0
M  V30 43227 H 3910.16 0.662284 1.71132 0
M  V30 43228 H 3908.54 -0.832271 3.87155 0
M  V30 43229 H 3909.72 2.01366 4.14474 0
M  V30 43230 H 3908.03 1.67603 3.8118 0
M  V30 43231 H 3910.63 -0.670605 5.30478 0
M  V30 43232 H 3910.97 -1.5779 3.85237 0
M  V30 43233 H 3911.5 0.116347 3.9763 0
M  V30 43234 H 3908.24 2.12566 6.20077 0
M  V30 43235 H 3907.76 0.427007 5.98278 0
M  V30 43236 H 3909.44 0.833933 6.41603 0
M  V30 43237 N 3909.57 -1.55529 0.254676 0
M  V30 43238 C 3910.8 -2.03532 -0.37182 0
M  V30 43239 C 3911.22 -1.13371 -1.50972 0
M  V30 43240 O 3910.57 -0.149672 -1.81885 0
M  V30 43241 C 3910.63 -3.50819 -0.872253 0
M  V30 43242 O 3910.35 -4.37546 0.220307 0
M  V30 43243 C 3911.85 -4.14618 -1.56865 0
M  V30 43244 H 3909.07 -0.665278 -0.0874448 0
M  V30 43245 H 3911.61 -2.00923 0.380809 0
M  V30 43246 H 3909.77 -3.53937 -1.57504 0
M  V30 43247 H 3910.18 -5.24253 -0.160954 0
M  V30 43248 H 3911.65 -5.19344 -1.87044 0
M  V30 43249 H 3912.13 -3.61569 -2.49328 0
M  V30 43250 H 3912.74 -4.15445 -0.910241 0
M  V30 43251 N 3911.05 0.0183372 -1.57589 0
M  V30 43252 C 3912.3 0.705579 -1.89383 0
M  V30 43253 C 3912.62 1.75318 -0.853728 0
M  V30 43254 O 3911.89 1.95584 0.111288 0
M  V30 43255 H 3910.47 0.263593 -0.698948 0
M  V30 43256 H 3913.13 -0.018251 -1.94891 0
M  V30 43257 H 3912.23 1.1884 -2.88589 0
M  V30 43258 N 3912.53 1.54894 0.290797 0
M  V30 43259 C 3913.46 1.82936 1.38084 0
M  V30 43260 C 3914.48 0.712836 1.46364 0
M  V30 43261 O 3915.66 0.990458 1.485 0
M  V30 43262 C 3912.76 1.96144 2.7637 0
M  V30 43263 C 3911.94 3.26644 2.90899 0
M  V30 43264 C 3911 3.30141 4.09748 0
M  V30 43265 O 3910.02 4.03618 4.01349 0
M  V30 43266 N 3911.22 2.56263 5.20874 0
M  V30 43267 H 3913.99 2.77015 1.1438 0
M  V30 43268 H 3911.55 1.54593 0.480889 0
M  V30 43269 H 3913.54 1.95874 3.54141 0
M  V30 43270 H 3912.11 1.09013 2.92976 0
M  V30 43271 H 3911.33 3.39603 2.00158 0
M  V30 43272 H 3912.62 4.12743 2.97524 0
M  V30 43273 H 3912.02 1.96217 5.3058 0
M  V30 43274 H 3910.58 2.61735 5.9694 0
M  V30 43275 N 3914.01 -0.55448 1.47524 0
M  V30 43276 C 3915.42 -0.880675 1.33102 0
M  V30 43277 C 3915.62 -1.98885 0.323559 0
M  V30 43278 O 3914.68 -2.51117 -0.263951 0
M  V30 43279 C 3915.99 -1.27133 2.72503 0
M  V30 43280 C 3917.54 -1.38261 2.80808 0
M  V30 43281 C 3918.02 -1.80681 4.20854 0
M  V30 43282 N 3919.51 -1.87826 4.23409 0
M  V30 43283 C 3920.24 -2.21984 5.28688 0
M  V30 43284 N 3919.74 -2.54735 6.44268 0
M  V30 43285 N 3921.53 -2.22781 5.16067 0
M  V30 43286 H 3913.68 0.1771 2.1166 0
M  V30 43287 H 3915.95 0.0165675 0.947855 0
M  V30 43288 H 3915.65 -0.530869 3.4767 0
M  V30 43289 H 3915.53 -2.22689 3.04449 0
M  V30 43290 H 3917.91 -2.11388 2.05911 0
M  V30 43291 H 3917.99 -0.408856 2.52511 0
M  V30 43292 H 3917.64 -1.08122 4.96258 0
M  V30 43293 H 3917.57 -2.79063 4.46577 0
M  V30 43294 H 3920.06 -1.64891 3.40028 0
M  V30 43295 H 3920.37 -2.79833 7.20356 0
M  V30 43296 H 3918.72 -2.52309 6.47584 0
M  V30 43297 H 3921.91 -1.96635 4.24797 0
M  V30 43298 H 3922.08 -2.4907 5.98221 0
M  V30 43299 N 3915.49 -1.35701 -0.80143 0
M  V30 43300 C 3916.42 -1.31715 -1.92804 0
M  V30 43301 C 3917.4 -0.190671 -1.69028 0
M  V30 43302 O 3918.58 -0.386443 -1.90316 0
M  V30 43303 C 3915.71 -1.09358 -3.29633 0
M  V30 43304 C 3914.67 -2.18701 -3.67904 0
M  V30 43305 C 3913.99 -1.81503 -5.02952 0
M  V30 43306 C 3915.29 -3.60705 -3.77743 0
M  V30 43307 H 3916.99 -2.25983 -1.96397 0
M  V30 43308 H 3914.53 -1.08784 -0.943509 0
M  V30 43309 H 3916.49 -1.05207 -4.08056 0
M  V30 43310 H 3915.21 -0.115363 -3.26396 0
M  V30 43311 H 3913.87 -2.21958 -2.91771 0
M  V30 43312 H 3913.52 -0.822864 -4.96224 0
M  V30 43313 H 3913.22 -2.54702 -5.29529 0
M  V30 43314 H 3914.74 -1.78886 -5.83808 0
M  V30 43315 H 3916.15 -3.59742 -4.46384 0
M  V30 43316 H 3914.55 -4.32708 -4.15793 0
M  V30 43317 H 3915.62 -3.96482 -2.7916 0
M  V30 43318 N 3916.96 1.02419 -1.19783 0
M  V30 43319 C 3917.89 2.1269 -0.96359 0
M  V30 43320 C 3918.88 1.69777 0.104739 0
M  V30 43321 O 3920.06 1.94132 -0.0512358 0
M  V30 43322 C 3917.19 3.43586 -0.506585 0
M  V30 43323 C 3916.14 4.00203 -1.51729 0
M  V30 43324 C 3915.47 5.26775 -0.91719 0
M  V30 43325 C 3916.77 4.34469 -2.89887 0
M  V30 43326 H 3918.46 2.32544 -1.88583 0
M  V30 43327 H 3916.01 1.11754 -0.908131 0
M  V30 43328 H 3917.96 4.20106 -0.329981 0
M  V30 43329 H 3916.69 3.23467 0.451265 0
M  V30 43330 H 3915.35 3.25782 -1.68112 0
M  V30 43331 H 3914.99 5.02977 0.0483573 0
M  V30 43332 H 3914.69 5.65619 -1.59214 0
M  V30 43333 H 3916.22 6.05958 -0.751485 0
M  V30 43334 H 3917.63 5.01908 -2.77059 0
M  V30 43335 H 3916.03 4.84407 -3.54218 0
M  V30 43336 H 3917.1 3.43565 -3.42185 0
M  V30 43337 N 3918.44 1.0025 1.21604 0
M  V30 43338 C 3919.35 0.570044 2.27569 0
M  V30 43339 C 3920.37 -0.385758 1.6967 0
M  V30 43340 O 3921.55 -0.250211 1.9984 0
M  V30 43341 C 3918.61 -0.0989957 3.46559 0
M  V30 43342 C 3917.67 0.900974 4.19739 0
M  V30 43343 C 3916.9 0.263767 5.33048 0
M  V30 43344 O 3917.13 -0.940032 5.62601 0
M  V30 43345 O 3916.06 0.973447 5.93976 0
M  V30 43346 H 3919.89 1.45186 2.66748 0
M  V30 43347 H 3917.47 0.771247 1.27954 0
M  V30 43348 H 3919.35 -0.473317 4.18733 0
M  V30 43349 H 3918.03 -0.955231 3.09285 0
M  V30 43350 H 3916.94 1.32641 3.49796 0
M  V30 43351 H 3918.27 1.72672 4.60918 0
M  V30 43352 N 3919.92 -1.37119 0.776919 0
M  V30 43353 C 3920.88 -2.28547 0.172879 0
M  V30 43354 C 3921.88 -1.48263 -0.622482 0
M  V30 43355 O 3923.07 -1.68412 -0.445311 0
M  V30 43356 C 3920.21 -3.32269 -0.762235 0
M  V30 43357 H 3921.4 -2.83474 0.978891 0
M  V30 43358 H 3918.95 -1.46473 0.54548 0
M  V30 43359 H 3919.69 -2.82475 -1.59306 0
M  V30 43360 H 3919.47 -3.9162 -0.194015 0
M  V30 43361 H 3920.96 -4.00578 -1.18013 0
M  V30 43362 N 3921.4 -0.527886 -1.48496 0
M  V30 43363 C 3922.33 0.273117 -2.27567 0
M  V30 43364 C 3923.34 0.906358 -1.35237 0
M  V30 43365 O 3924.53 0.785154 -1.60305 0
M  V30 43366 C 3921.63 1.40181 -3.08549 0
M  V30 43367 C 3920.81 0.870887 -4.28642 0
M  V30 43368 C 3919.87 1.88045 -4.91452 0
M  V30 43369 O 3918.89 1.43823 -5.5073 0
M  V30 43370 N 3920.09 3.21251 -4.83506 0
M  V30 43371 H 3922.86 -0.405015 -2.96951 0
M  V30 43372 H 3920.42 -0.362085 -1.57799 0
M  V30 43373 H 3922.41 2.07531 -3.47438 0
M  V30 43374 H 3920.98 1.98365 -2.41599 0
M  V30 43375 H 3920.2 0.0214638 -3.94194 0
M  V30 43376 H 3921.49 0.495016 -5.06386 0
M  V30 43377 H 3920.89 3.59847 -4.36494 0
M  V30 43378 H 3919.44 3.84239 -5.26501 0
M  V30 43379 N 3922.88 1.55391 -0.26292 0
M  V30 43380 C 3923.84 2.2075 0.616623 0
M  V30 43381 C 3924.84 1.1816 1.09064 0
M  V30 43382 O 3926.03 1.43142 0.992772 0
M  V30 43383 C 3923.16 2.86379 1.84932 0
M  V30 43384 H 3924.36 2.99864 0.0461486 0
M  V30 43385 H 3921.91 1.56294 -0.0134594 0
M  V30 43386 H 3922.64 2.11244 2.46062 0
M  V30 43387 H 3922.43 3.61546 1.51747 0
M  V30 43388 H 3923.92 3.36349 2.47505 0
M  V30 43389 N 3924.36 -0.00997961 1.57597 0
M  V30 43390 C 3925.6 -0.701521 1.91984 0
M  V30 43391 C 3925.96 -1.71488 0.863483 0
M  V30 43392 O 3927.16 -2.45606 1.09229 0
M  V30 43393 C 3925.43 -1.33672 3.31461 0
M  V30 43394 S 3926.99 -2.05477 3.87717 0
M  V30 43395 H 3923.81 -0.231963 0.672097 0
M  V30 43396 H 3926.41 0.0443116 1.9545 0
M  V30 43397 H 3925.11 -0.586224 4.06192 0
M  V30 43398 H 3924.65 -2.1207 3.31346 0
M  V30 43399 H 3926.66 -3.32868 3.67986 0
M  V30 43400 N 3925.83 -1.55046 -0.282578 0
M  V30 43401 C 3927.06 -1.79214 -1.03392 0
M  V30 43402 C 3927.48 -0.560684 -1.80282 0
M  V30 43403 O 3926.83 0.470018 -1.76344 0
M  V30 43404 C 3926.88 -3.01132 -2.00004 0
M  V30 43405 O 3926.61 -4.1952 -1.26231 0
M  V30 43406 C 3928.11 -3.3783 -2.87029 0
M  V30 43407 H 3925.33 -0.597244 -0.305845 0
M  V30 43408 H 3927.87 -2.0204 -0.316265 0
M  V30 43409 H 3926.03 -2.80461 -2.67246 0
M  V30 43410 H 3926.44 -4.88382 -1.91268 0
M  V30 43411 H 3927.91 -4.26333 -3.50634 0
M  V30 43412 H 3928.39 -2.56804 -3.56298 0
M  V30 43413 H 3929 -3.60727 -2.25292 0
M  V30 43414 N 3927.31 0.546649 -1.47816 0
M  V30 43415 C 3928.56 1.30076 -1.54676 0
M  V30 43416 C 3928.88 1.93809 -0.215185 0
M  V30 43417 O 3928.15 1.8048 0.76183 0
M  V30 43418 H 3926.73 0.483068 -0.569785 0
M  V30 43419 H 3929.39 0.637493 -1.84179 0
M  V30 43420 H 3928.49 2.08878 -2.31898 0
M  V30 43421 N 3928.79 1.36124 0.794222 0
M  V30 43422 C 3930.04 1.2983 1.54882 0
M  V30 43423 C 3930.36 -0.123483 1.94609 0
M  V30 43424 O 3929.63 -1.06269 1.64572 0
M  V30 43425 H 3928.21 0.477583 0.574389 0
M  V30 43426 H 3930.87 1.70367 0.946628 0
M  V30 43427 H 3929.97 1.92248 2.4586 0
M  V30 43428 N 3930.27 -1.01782 1.20325 0
M  V30 43429 C 3931.52 -1.74769 1.00691 0
M  V30 43430 C 3931.83 -1.90072 -0.461736 0
M  V30 43431 O 3933.04 -2.60139 -0.777168 0
M  V30 43432 C 3931.49 -3.14331 1.75283 0
M  V30 43433 C 3931.1 -3.07044 3.26233 0
M  V30 43434 C 3932.84 -3.91536 1.64013 0
M  V30 43435 C 3930.75 -4.41606 3.93367 0
M  V30 43436 H 3929.68 -0.6552 0.373135 0
M  V30 43437 H 3932.33 -1.13822 1.43933 0
M  V30 43438 H 3930.71 -3.75811 1.24827 0
M  V30 43439 H 3931.89 -2.54879 3.83893 0
M  V30 43440 H 3930.2 -2.43333 3.37902 0
M  V30 43441 H 3932.8 -4.91087 2.11512 0
M  V30 43442 H 3933.14 -4.1201 0.596123 0
M  V30 43443 H 3933.68 -3.36681 2.11875 0
M  V30 43444 H 3930.41 -4.26335 4.97914 0
M  V30 43445 H 3929.93 -4.93783 3.40497 0
M  V30 43446 H 3931.61 -5.10454 3.9755 0
M  V30 43447 N 3931.75 -1.00894 -1.21071 0
M  V30 43448 C 3932.99 -0.689248 -1.89558 0
M  V30 43449 C 3933.31 0.783722 -1.79213 0
M  V30 43450 O 3934.51 1.21566 -2.42763 0
M  V30 43451 C 3932.97 -1.18238 -3.39923 0
M  V30 43452 C 3932.58 -2.6817 -3.58871 0
M  V30 43453 C 3934.32 -0.937756 -4.14013 0
M  V30 43454 C 3932.23 -3.11004 -5.03022 0
M  V30 43455 H 3931.16 -0.25411 -0.70989 0
M  V30 43456 H 3933.81 -1.22062 -1.37015 0
M  V30 43457 H 3932.19 -0.579029 -3.91744 0
M  V30 43458 H 3933.37 -3.33988 -3.17472 0
M  V30 43459 H 3931.68 -2.9069 -2.98141 0
M  V30 43460 H 3934.28 -1.23329 -5.20283 0
M  V30 43461 H 3934.62 0.12593 -4.16109 0
M  V30 43462 H 3935.15 -1.50409 -3.68269 0
M  V30 43463 H 3931.89 -4.16616 -5.06075 0
M  V30 43464 H 3931.41 -2.499 -5.45261 0
M  V30 43465 H 3933.09 -3.03207 -5.71554 0
M  V30 43466 N 3933.22 1.36705 -0.78418 0
M  V30 43467 C 3934.17 2.27491 -0.152195 0
M  V30 43468 C 3935.16 1.46705 0.660782 0
M  V30 43469 O 3936.35 1.69136 0.521714 0
M  V30 43470 C 3933.48 3.35744 0.716308 0
M  V30 43471 C 3932.57 4.2397 -0.105175 0
M  V30 43472 N 3932.96 4.92388 -1.15706 0
M  V30 43473 C 3931.25 4.45847 0.11683 0
M  V30 43474 C 3931.96 5.57609 -1.65671 0
M  V30 43475 N 3930.93 5.34934 -0.966797 0
M  V30 43476 H 3934.73 2.7787 -0.957371 0
M  V30 43477 H 3932.25 1.49969 -0.623132 0
M  V30 43478 H 3934.24 3.99706 1.18493 0
M  V30 43479 H 3932.9 2.86921 1.52009 0
M  V30 43480 H 3933.92 4.94492 -1.53941 0
M  V30 43481 H 3930.59 4.0787 0.891533 0
M  V30 43482 H 3931.98 6.2226 -2.5346 0
M  V30 43483 N 3934.7 0.535753 1.48214 0
M  V30 43484 C 3936.11 0.0967761 1.86449 0
M  V30 43485 C 3936.46 -1.3275 1.44471 0
M  V30 43486 O 3935.59 -1.99515 0.838024 0
M  V30 43487 C 3936.18 0.16885 3.38379 0
M  V30 43488 C 3934.74 -0.214964 3.75786 0
M  V30 43489 C 3933.89 0.526043 2.72265 0
M  V30 43490 H 3936.84 0.746685 1.40037 0
M  V30 43491 H 3936.86 -0.618004 3.75448 0
M  V30 43492 H 3936.37 1.20556 3.68901 0
M  V30 43493 H 3934.48 -1.2536 3.50878 0
M  V30 43494 H 3934.59 0.128663 4.78927 0
M  V30 43495 H 3932.95 -0.0283772 2.54684 0
M  V30 43496 H 3933.74 1.5635 3.0563 0
M  V30 43497 N 3936.18 -1.5525 0.271158 0
M  V30 43498 C 3937.41 -2.03915 -0.350212 0
M  V30 43499 C 3937.82 -1.14966 -1.49761 0
M  V30 43500 O 3937.18 -0.168955 -1.81716 0
M  V30 43501 C 3937.23 -3.51724 -0.834995 0
M  V30 43502 O 3936.95 -4.37287 0.266702 0
M  V30 43503 C 3938.45 -4.16259 -1.52458 0
M  V30 43504 H 3935.67 -0.666168 -0.0803837 0
M  V30 43505 H 3938.22 -2.00508 0.402098 0
M  V30 43506 H 3936.37 -3.55588 -1.53741 0
M  V30 43507 H 3936.79 -5.24394 -0.105341 0
M  V30 43508 H 3938.26 -5.21299 -1.81525 0
M  V30 43509 H 3938.74 -3.64193 -2.45479 0
M  V30 43510 H 3939.34 -4.16387 -0.866126 0
M  V30 43511 N 3937.66 0.00162173 -1.576 0
M  V30 43512 C 3938.89 0.697838 -1.94776 0
M  V30 43513 C 3939.3 1.67398 -0.873124 0
M  V30 43514 O 3938.66 1.81898 0.148087 0
M  V30 43515 C 3938.71 1.43112 -3.31966 0
M  V30 43516 O 3938.43 0.494126 -4.35304 0
M  V30 43517 C 3939.93 2.22199 -3.83592 0
M  V30 43518 H 3937.15 0.194463 -0.642203 0
M  V30 43519 H 3939.7 -0.049016 -2.04441 0
M  V30 43520 H 3937.85 2.12962 -3.23614 0
M  V30 43521 H 3938.26 1.01131 -5.14658 0
M  V30 43522 H 3939.74 2.69006 -4.82016 0
M  V30 43523 H 3940.22 3.04804 -3.16213 0
M  V30 43524 H 3940.82 1.57369 -3.95114 0
M  V30 43525 N 3939.14 1.55194 0.274352 0
M  V30 43526 C 3940.38 1.75389 1.00415 0
M  V30 43527 C 3940.71 0.557277 1.86867 0
M  V30 43528 O 3939.98 -0.427849 1.91171 0
M  V30 43529 H 3938.56 0.646781 0.373742 0
M  V30 43530 H 3941.22 1.92594 0.298908 0
M  V30 43531 H 3940.31 2.65423 1.64186 0
M  V30 43532 N 3940.61 -0.538802 1.48104 0
M  V30 43533 C 3941.55 -1.65993 1.58047 0
M  V30 43534 C 3942.56 -1.56008 0.465343 0
M  V30 43535 O 3943.75 -1.62629 0.735797 0
M  V30 43536 C 3940.85 -3.04587 1.48593 0
M  V30 43537 C 3940.02 -3.40143 2.74993 0
M  V30 43538 C 3939.08 -4.57979 2.59117 0
M  V30 43539 O 3938.11 -4.6164 3.32982 0
M  V30 43540 N 3939.31 -5.55612 1.68152 0
M  V30 43541 H 3942.07 -1.57904 2.54728 0
M  V30 43542 H 3939.63 -0.725875 1.44716 0
M  V30 43543 H 3941.63 -3.81278 1.35679 0
M  V30 43544 H 3940.2 -3.06803 0.599211 0
M  V30 43545 H 3939.42 -2.52717 3.02535 0
M  V30 43546 H 3940.7 -3.60681 3.58869 0
M  V30 43547 H 3940.1 -5.55426 1.07326 0
M  V30 43548 H 3938.66 -6.31556 1.61182 0
M  V30 43549 N 3942.09 -1.36544 -0.786992 0
M  V30 43550 C 3943.04 -1.31068 -1.89973 0
M  V30 43551 C 3944.01 -0.178934 -1.65133 0
M  V30 43552 O 3945.19 -0.365843 -1.8726 0
M  V30 43553 C 3942.33 -1.10826 -3.2682 0
M  V30 43554 C 3941.45 -2.33098 -3.63716 0
M  V30 43555 C 3940.58 -2.05849 -4.89693 0
M  V30 43556 C 3939.62 -3.24068 -5.19275 0
M  V30 43557 N 3938.76 -2.96468 -6.36436 0
M  V30 43558 H 3943.6 -2.26213 -1.93989 0
M  V30 43559 H 3941.14 -1.12427 -0.948611 0
M  V30 43560 H 3943.09 -0.971162 -4.05739 0
M  V30 43561 H 3941.72 -0.193359 -3.2222 0
M  V30 43562 H 3940.78 -2.57603 -2.79902 0
M  V30 43563 H 3942.09 -3.21311 -3.81524 0
M  V30 43564 H 3941.24 -1.89082 -5.76483 0
M  V30 43565 H 3939.98 -1.1495 -4.7396 0
M  V30 43566 H 3938.99 -3.41391 -4.30967 0
M  V30 43567 H 3940.21 -4.15797 -5.36926 0
M  V30 43568 H 3938.16 -2.08183 -6.2209 0
M  V30 43569 H 3938.07 -3.78221 -6.54588 0
M  V30 43570 H 3939.34 -2.83286 -7.26202 0
M  V30 43571 N 3943.57 1.01143 -1.20863 0
M  V30 43572 C 3944.5 2.11656 -0.986095 0
M  V30 43573 C 3945.48 1.69879 0.0867259 0
M  V30 43574 O 3946.67 1.94067 -0.0718233 0
M  V30 43575 C 3943.8 3.43029 -0.542998 0
M  V30 43576 C 3942.75 3.98571 -1.55965 0
M  V30 43577 C 3942.08 5.25772 -0.97301 0
M  V30 43578 C 3943.38 4.3137 -2.94478 0
M  V30 43579 H 3945.07 2.30531 -1.91039 0
M  V30 43580 H 3942.62 1.10785 -0.919933 0
M  V30 43581 H 3944.57 4.19732 -0.37452 0
M  V30 43582 H 3943.29 3.23928 0.416931 0
M  V30 43583 H 3941.95 3.23981 -1.71558 0
M  V30 43584 H 3941.6 5.03 -0.00499288 0
M  V30 43585 H 3941.3 5.63898 -1.65204 0
M  V30 43586 H 3942.82 6.05127 -0.815713 0
M  V30 43587 H 3944.24 4.98941 -2.82367 0
M  V30 43588 H 3942.64 4.80623 -3.59335 0
M  V30 43589 H 3943.71 3.39917 -3.4581 0
M  V30 43590 N 3945.05 1.01535 1.20534 0
M  V30 43591 C 3946.27 0.722942 1.94392 0
M  V30 43592 C 3946.7 -0.709827 1.74193 0
M  V30 43593 O 3946.06 -1.48826 1.0354 0
M  V30 43594 C 3946.1 1.06237 3.44596 0
M  V30 43595 O 3945.21 0.173359 4.12035 0
M  V30 43596 H 3944.55 0.268355 0.607356 0
M  V30 43597 H 3947.08 1.35838 1.53001 0
M  V30 43598 H 3947.09 1.01355 3.9521 0
M  V30 43599 H 3945.76 2.10628 3.58621 0
M  V30 43600 H 3944.34 0.279595 3.7185 0
M  V30 43601 N 3946.53 -1.36288 0.791419 0
M  V30 43602 C 3947.46 -2.32594 0.20546 0
M  V30 43603 C 3948.44 -1.56746 -0.660669 0
M  V30 43604 O 3949.62 -1.8489 -0.594078 0
M  V30 43605 C 3946.75 -3.40991 -0.658958 0
M  V30 43606 C 3945.71 -4.27865 0.107439 0
M  V30 43607 C 3945.03 -5.27447 -0.877702 0
M  V30 43608 C 3946.33 -5.0592 1.29778 0
M  V30 43609 H 3948.03 -2.81848 1.01004 0
M  V30 43610 H 3945.57 -1.3551 0.487146 0
M  V30 43611 H 3947.53 -4.07356 -1.07884 0
M  V30 43612 H 3946.25 -2.90309 -1.49627 0
M  V30 43613 H 3944.91 -3.63059 0.508317 0
M  V30 43614 H 3944.56 -4.73038 -1.7101 0
M  V30 43615 H 3944.26 -5.86438 -0.369326 0
M  V30 43616 H 3945.78 -5.96685 -1.29611 0
M  V30 43617 H 3947.19 -5.65314 0.953562 0
M  V30 43618 H 3945.59 -5.74333 1.73959 0
M  V30 43619 H 3946.66 -4.37445 2.09213 0
M  V30 43620 N 3948.01 -0.543606 -1.47928 0
M  V30 43621 C 3948.94 0.248965 -2.27844 0
M  V30 43622 C 3949.95 0.891963 -1.36191 0
M  V30 43623 O 3951.14 0.768107 -1.61128 0
M  V30 43624 C 3948.24 1.36901 -3.10018 0
M  V30 43625 C 3947.41 0.825375 -4.29542 0
M  V30 43626 C 3946.47 1.82822 -4.93419 0
M  V30 43627 O 3945.5 1.37974 -5.52224 0
M  V30 43628 N 3946.7 3.16104 -4.86886 0
M  V30 43629 H 3949.46 -0.436488 -2.96504 0
M  V30 43630 H 3947.03 -0.378801 -1.57406 0
M  V30 43631 H 3949.02 2.03834 -3.49619 0
M  V30 43632 H 3947.59 1.95791 -2.43689 0
M  V30 43633 H 3946.81 -0.0203469 -3.94195 0
M  V30 43634 H 3948.1 0.441279 -5.06883 0
M  V30 43635 H 3947.49 3.55197 -4.40286 0
M  V30 43636 H 3946.05 3.78633 -5.30547 0
M  V30 43637 N 3949.48 1.55104 -0.279387 0
M  V30 43638 C 3950.76 1.91709 0.388179 0
M  V30 43639 C 3951.14 1.20415 1.73388 0
M  V30 43640 O 3950.49 0.332458 2.26068 0
M  V30 43641 C 3950.7 3.4504 0.524238 0
M  V30 43642 C 3952.05 4.16896 0.805156 0
M  V30 43643 O 3953.07 3.50957 0.608883 0
M  V30 43644 O 3951.93 5.33591 1.18079 0
M  V30 43645 H 3949.02 0.799038 0.213231 0
M  V30 43646 H 3951.57 1.66542 -0.325854 0
M  V30 43647 H 3950.34 3.89011 -0.422631 0
M  V30 43648 H 3949.96 3.76175 1.28758 0
M  V30 43649 N 3950.96 0.0067362 1.57599 0
M  V30 43650 C 3951.92 -0.967381 2.07784 0
M  V30 43651 C 3952.92 -1.26826 0.98852 0
M  V30 43652 O 3954.11 -1.21232 1.25093 0
M  V30 43653 C 3951.25 -2.29039 2.52495 0
M  V30 43654 H 3952.44 -0.53315 2.95123 0
M  V30 43655 H 3949.99 -0.240873 1.54433 0
M  V30 43656 H 3950.73 -2.77138 1.6842 0
M  V30 43657 H 3950.51 -2.08519 3.32057 0
M  V30 43658 H 3952 -2.98905 2.91625 0
M  V30 43659 N 3952.44 -1.55337 -0.266118 0
M  V30 43660 C 3953.69 -1.76528 -0.998277 0
M  V30 43661 C 3954.02 -0.568568 -1.8569 0
M  V30 43662 O 3953.29 0.433701 -1.89603 0
M  V30 43663 C 3953.58 -3.07432 -1.87504 0
M  V30 43664 C 3953.43 -4.37472 -1.04588 0
M  V30 43665 C 3954.75 -3.34423 -2.86093 0
M  V30 43666 H 3951.87 -0.64225 -0.361502 0
M  V30 43667 H 3954.51 -1.8807 -0.270153 0
M  V30 43668 H 3952.66 -2.97724 -2.49585 0
M  V30 43669 H 3954.33 -4.59146 -0.445242 0
M  V30 43670 H 3952.57 -4.32389 -0.349565 0
M  V30 43671 H 3953.25 -5.25406 -1.6927 0
M  V30 43672 H 3955.72 -3.43969 -2.34147 0
M  V30 43673 H 3954.6 -4.27269 -3.44576 0
M  V30 43674 H 3954.86 -2.54397 -3.61573 0
M  V30 43675 N 3953.92 0.53094 -1.48387 0
M  V30 43676 C 3955.14 1.31636 -1.60271 0
M  V30 43677 C 3955.57 1.86255 -0.262822 0
M  V30 43678 O 3954.93 1.64353 0.76536 0
M  V30 43679 C 3954.97 2.44374 -2.65167 0
M  V30 43680 O 3954.08 3.47382 -2.22261 0
M  V30 43681 H 3953.42 0.38991 -0.537462 0
M  V30 43682 H 3955.95 0.638966 -1.94367 0
M  V30 43683 H 3955.96 2.90574 -2.86411 0
M  V30 43684 H 3954.63 2.03981 -3.62443 0
M  V30 43685 H 3953.21 3.07307 -2.11227 0
M  V30 43686 N 3955.4 1.36959 0.779739 0
M  V30 43687 C 3956.33 1.27944 1.90166 0
M  V30 43688 C 3957.34 0.196895 1.61605 0
M  V30 43689 O 3958.53 0.452399 1.72672 0
M  V30 43690 C 3955.63 0.953622 3.25206 0
M  V30 43691 C 3954.8 2.14002 3.81473 0
M  V30 43692 C 3953.86 1.78573 4.94973 0
M  V30 43693 O 3952.89 2.50776 5.1098 0
M  V30 43694 N 3954.09 0.725117 5.75953 0
M  V30 43695 H 3956.85 2.24612 1.98418 0
M  V30 43696 H 3954.42 1.3048 0.958472 0
M  V30 43697 H 3956.41 0.697599 3.98642 0
M  V30 43698 H 3954.98 0.0757654 3.12508 0
M  V30 43699 H 3954.2 2.55827 2.9991 0
M  V30 43700 H 3955.49 2.9324 4.15797 0
M  V30 43701 H 3954.88 0.125799 5.6556 0
M  V30 43702 H 3953.44 0.528937 6.4965 0
M  V30 43703 N 3956.87 -1.00501 1.21398 0
M  V30 43704 C 3958.12 -1.73933 1.02916 0
M  V30 43705 C 3958.44 -1.9001 -0.438296 0
M  V30 43706 O 3957.71 -1.45101 -1.31615 0
M  V30 43707 H 3956.29 -0.644405 0.377824 0
M  V30 43708 H 3958.95 -1.21107 1.52706 0
M  V30 43709 H 3958.05 -2.73849 1.4971 0
M  V30 43710 N 3958.35 -1.02172 -1.19994 0
M  V30 43711 C 3959.6 -0.715081 -1.89775 0
M  V30 43712 C 3959.93 0.753831 -1.78972 0
M  V30 43713 O 3959.21 1.54821 -1.17732 0
M  V30 43714 C 3959.49 -1.15785 -3.40978 0
M  V30 43715 C 3959.34 -2.68746 -3.60688 0
M  V30 43716 C 3960.66 -0.733084 -4.33951 0
M  V30 43717 H 3957.78 -0.261248 -0.689143 0
M  V30 43718 H 3960.42 -1.27038 -1.41285 0
M  V30 43719 H 3958.57 -0.685407 -3.82406 0
M  V30 43720 H 3960.24 -3.23882 -3.28479 0
M  V30 43721 H 3958.49 -3.09477 -3.03984 0
M  V30 43722 H 3959.16 -2.94781 -4.66699 0
M  V30 43723 H 3961.63 -1.13932 -4.00198 0
M  V30 43724 H 3960.51 -1.07087 -5.38353 0
M  V30 43725 H 3960.77 0.36497 -4.40591 0
M  V30 43726 N 3959.83 1.35866 -0.798635 0
M  V30 43727 C 3961.08 1.98243 -0.37183 0
M  V30 43728 C 3961.39 1.64083 1.06471 0
M  V30 43729 O 3962.6 2.19764 1.59424 0
M  V30 43730 C 3961.05 3.54626 -0.613883 0
M  V30 43731 C 3960.66 3.97702 -2.06244 0
M  V30 43732 C 3962.41 4.23751 -0.252041 0
M  V30 43733 C 3960.31 5.46899 -2.25067 0
M  V30 43734 H 3959.24 0.741763 -0.135291 0
M  V30 43735 H 3961.89 1.5504 -0.981571 0
M  V30 43736 H 3960.28 3.95945 0.0656992 0
M  V30 43737 H 3961.45 3.67557 -2.77918 0
M  V30 43738 H 3959.76 3.41442 -2.3834 0
M  V30 43739 H 3962.36 5.33413 -0.37083 0
M  V30 43740 H 3962.7 4.08523 0.800897 0
M  V30 43741 H 3963.24 3.87826 -0.885223 0
M  V30 43742 H 3959.98 5.67086 -3.28777 0
M  V30 43743 H 3959.5 5.78641 -1.57908 0
M  V30 43744 H 3961.18 6.13252 -2.0623 0
M  V30 43745 N 3961.31 0.551443 1.47638 0
M  V30 43746 C 3962.58 -0.0401639 1.95559 0
M  V30 43747 C 3962.96 -1.49141 1.49399 0
M  V30 43748 O 3962.31 -2.16519 0.730186 0
M  V30 43749 C 3962.52 0.099329 3.48859 0
M  V30 43750 C 3963.87 -0.0489771 4.24572 0
M  V30 43751 O 3964.89 0.0265896 3.5619 0
M  V30 43752 O 3963.75 -0.210542 5.46094 0
M  V30 43753 H 3960.85 -0.0673549 0.824253 0
M  V30 43754 H 3963.39 0.617559 1.58064 0
M  V30 43755 H 3962.17 1.10942 3.75243 0
M  V30 43756 H 3961.79 -0.59627 3.93104 0
M  V30 43757 N 3962.79 -1.54953 0.287609 0
M  V30 43758 C 3963.72 -2.20433 -0.627852 0
M  V30 43759 C 3964.73 -1.19288 -1.10789 0
M  V30 43760 O 3965.92 -1.45951 -1.02765 0
M  V30 43761 C 3963.02 -2.82643 -1.86993 0
M  V30 43762 C 3962.19 -4.09595 -1.53462 0
M  V30 43763 C 3961.25 -4.55734 -2.63045 0
M  V30 43764 O 3960.28 -5.21233 -2.28703 0
M  V30 43765 N 3961.48 -4.26924 -3.9334 0
M  V30 43766 H 3964.25 -2.99624 -0.0673633 0
M  V30 43767 H 3961.81 -1.61531 0.109234 0
M  V30 43768 H 3963.8 -3.10448 -2.59623 0
M  V30 43769 H 3962.37 -2.0737 -2.33915 0
M  V30 43770 H 3961.59 -3.88944 -0.641567 0
M  V30 43771 H 3962.88 -4.92286 -1.28578 0
M  V30 43772 H 3962.27 -3.74423 -4.24057 0
M  V30 43773 H 3960.83 -4.5947 -4.6231 0
M  V30 43774 N 3964.26 -0.0150939 -1.57593 0
M  V30 43775 C 3965.54 0.704442 -1.82475 0
M  V30 43776 C 3965.92 1.91139 -0.896051 0
M  V30 43777 O 3965.27 2.28442 0.0516963 0
M  V30 43778 C 3965.48 1.09592 -3.31347 0
M  V30 43779 C 3966.83 1.49346 -3.97468 0
M  V30 43780 O 3967.85 1.1893 -3.35759 0
M  V30 43781 O 3966.71 2.05963 -5.06203 0
M  V30 43782 H 3963.8 0.344318 -0.751914 0
M  V30 43783 H 3966.35 -0.0417039 -1.69649 0
M  V30 43784 H 3965.12 0.236289 -3.90586 0
M  V30 43785 H 3964.75 1.90069 -3.49227 0
M  V30 43786 N 3965.74 1.55476 0.257876 0
M  V30 43787 C 3966.68 1.84343 1.3451 0
M  V30 43788 C 3967.65 0.69762 1.46874 0
M  V30 43789 O 3968.84 0.942225 1.63262 0
M  V30 43790 C 3965.96 2.01843 2.71987 0
M  V30 43791 C 3965.01 3.24449 2.7683 0
M  V30 43792 S 3965.84 4.81403 2.34546 0
M  V30 43793 C 3967 5.01895 3.73968 0
M  V30 43794 H 3967.23 2.76272 1.09823 0
M  V30 43795 H 3964.77 1.47441 0.458298 0
M  V30 43796 H 3966.72 2.12611 3.51151 0
M  V30 43797 H 3965.38 1.10776 2.93918 0
M  V30 43798 H 3964.58 3.33628 3.77768 0
M  V30 43799 H 3964.18 3.12351 2.05701 0
M  V30 43800 H 3966.47 4.88565 4.69373 0
M  V30 43801 H 3967.41 6.03907 3.69732 0
M  V30 43802 H 3967.82 4.29796 3.65972 0
M  V30 43803 N 3967.22 -0.523064 1.48667 0
M  V30 43804 C 3968.18 -1.60916 1.63214 0
M  V30 43805 C 3969.18 -1.52663 0.505039 0
M  V30 43806 O 3970.37 -1.56209 0.770994 0
M  V30 43807 C 3967.51 -3.00548 1.60883 0
M  V30 43808 H 3968.7 -1.49355 2.60064 0
M  V30 43809 H 3966.25 -0.745649 1.37367 0
M  V30 43810 H 3966.99 -3.17609 0.655362 0
M  V30 43811 H 3966.77 -3.07948 2.42715 0
M  V30 43812 H 3968.26 -3.79499 1.7427 0
M  V30 43813 N 3968.7 -1.37371 -0.772465 0
M  V30 43814 C 3969.93 -1.35732 -1.56155 0
M  V30 43815 C 3970.34 0.0574942 -1.88712 0
M  V30 43816 O 3969.7 1.01908 -1.51397 0
M  V30 43817 C 3969.75 -2.19506 -2.87227 0
M  V30 43818 O 3969.47 -3.55474 -2.56066 0
M  V30 43819 C 3970.97 -2.25838 -3.8146 0
M  V30 43820 H 3968.19 -0.464955 -0.483795 0
M  V30 43821 H 3970.74 -1.80701 -0.957471 0
M  V30 43822 H 3968.89 -1.78048 -3.4406 0
M  V30 43823 H 3969.3 -3.99379 -3.39995 0
M  V30 43824 H 3970.78 -2.88779 -4.70437 0
M  V30 43825 H 3971.26 -1.2666 -4.2054 0
M  V30 43826 H 3971.86 -2.67605 -3.30556 0
M  V30 43827 N 3970.18 0.998553 -1.21929 0
M  V30 43828 C 3971.59 1.26122 -0.978029 0
M  V30 43829 C 3971.79 1.9875 0.331765 0
M  V30 43830 O 3970.85 2.29366 1.05581 0
M  V30 43831 C 3972.16 2.07854 -2.17295 0
M  V30 43832 C 3973.71 2.21058 -2.2159 0
M  V30 43833 C 3974.18 3.06175 -3.40618 0
M  V30 43834 N 3975.68 3.13763 -3.40745 0
M  V30 43835 C 3976.41 3.79897 -4.29495 0
M  V30 43836 N 3975.91 4.48006 -5.28453 0
M  V30 43837 N 3977.7 3.76602 -4.17286 0
M  V30 43838 H 3969.85 0.511474 -2.0615 0
M  V30 43839 H 3972.11 0.288471 -0.903044 0
M  V30 43840 H 3971.82 1.61845 -3.12248 0
M  V30 43841 H 3971.69 3.08609 -2.16888 0
M  V30 43842 H 3974.08 2.66284 -1.27188 0
M  V30 43843 H 3974.16 1.19753 -2.26037 0
M  V30 43844 H 3973.81 2.61651 -4.35317 0
M  V30 43845 H 3973.74 4.07609 -3.3341 0
M  V30 43846 H 3976.23 2.65285 -2.69133 0
M  V30 43847 H 3976.54 4.96193 -5.92463 0
M  V30 43848 H 3974.88 4.46772 -5.32372 0
M  V30 43849 H 3978.08 3.22551 -3.39232 0
M  V30 43850 H 3978.25 4.27864 -4.86658 0
M  V30 43851 N 3971.65 1.02807 1.1945 0
M  V30 43852 C 3972.58 0.628792 2.24874 0
M  V30 43853 C 3973.57 -0.361815 1.66207 0
M  V30 43854 O 3974.75 -0.244709 1.92652 0
M  V30 43855 C 3971.88 -0.0220344 3.47293 0
M  V30 43856 C 3970.83 0.890766 4.18628 0
M  V30 43857 C 3970.16 0.105091 5.34597 0
M  V30 43858 C 3971.46 2.20413 4.73514 0
M  V30 43859 H 3973.15 1.51009 2.58528 0
M  V30 43860 H 3970.7 0.72754 1.24269 0
M  V30 43861 H 3972.65 -0.312999 4.20236 0
M  V30 43862 H 3971.38 -0.938127 3.12837 0
M  V30 43863 H 3970.04 1.16591 3.47566 0
M  V30 43864 H 3969.68 -0.813011 4.96386 0
M  V30 43865 H 3969.38 0.713086 5.83257 0
M  V30 43866 H 3970.91 -0.179152 6.10337 0
M  V30 43867 H 3972.32 1.97475 5.38216 0
M  V30 43868 H 3970.72 2.76398 5.32658 0
M  V30 43869 H 3971.79 2.85933 3.91625 0
M  V30 43870 N 3973.13 -1.35441 0.805829 0
M  V30 43871 C 3974.08 -2.29809 0.213672 0
M  V30 43872 C 3975.05 -1.52775 -0.651851 0
M  V30 43873 O 3976.23 -1.81217 -0.597092 0
M  V30 43874 C 3973.37 -3.39256 -0.632385 0
M  V30 43875 C 3972.49 -4.31256 0.253489 0
M  V30 43876 C 3971.62 -5.27795 -0.6005 0
M  V30 43877 C 3970.66 -6.11432 0.285819 0
M  V30 43878 N 3969.8 -7.00111 -0.528099 0
M  V30 43879 H 3974.64 -2.7986 1.02383 0
M  V30 43880 H 3972.18 -1.37737 0.516422 0
M  V30 43881 H 3974.13 -4.01378 -1.13807 0
M  V30 43882 H 3972.76 -2.90483 -1.40781 0
M  V30 43883 H 3971.82 -3.70146 0.877267 0
M  V30 43884 H 3973.13 -4.89945 0.935718 0
M  V30 43885 H 3972.28 -5.95285 -1.17134 0
M  V30 43886 H 3971.02 -4.69601 -1.3163 0
M  V30 43887 H 3970.03 -5.4289 0.868939 0
M  V30 43888 H 3971.25 -6.71705 0.999467 0
M  V30 43889 H 3969.2 -6.44406 -1.22789 0
M  V30 43890 H 3969.11 -7.55939 0.0960987 0
M  V30 43891 H 3970.38 -7.71951 -1.08224 0
M  V30 43892 N 3974.61 -0.559265 -1.47343 0
M  V30 43893 C 3976.02 -0.126426 -1.86271 0
M  V30 43894 C 3976.37 1.30435 -1.46565 0
M  V30 43895 O 3975.5 1.98156 -0.869659 0
M  V30 43896 C 3976.09 -0.222662 -3.38068 0
M  V30 43897 C 3974.65 0.155153 -3.7608 0
M  V30 43898 C 3973.8 -0.569291 -2.71393 0
M  V30 43899 H 3976.75 -0.768869 -1.38831 0
M  V30 43900 H 3976.77 0.558195 -3.76383 0
M  V30 43901 H 3976.28 -1.2641 -3.66936 0
M  V30 43902 H 3974.38 1.19762 -3.52828 0
M  V30 43903 H 3974.5 -0.20484 -4.78662 0
M  V30 43904 H 3972.86 -0.0121444 -2.54697 0
M  V30 43905 H 3973.64 -1.61193 -3.03104 0
M  V30 43906 N 3976.09 1.54799 -0.295822 0
M  V30 43907 C 3977.05 2.22008 0.56966 0
M  V30 43908 C 3978.05 1.20447 1.06533 0
M  V30 43909 O 3979.24 1.45216 0.962186 0
M  V30 43910 C 3976.37 2.90237 1.78816 0
M  V30 43911 H 3977.57 2.99895 -0.0174675 0
M  V30 43912 H 3975.12 1.5623 -0.0466087 0
M  V30 43913 H 3975.85 2.16416 2.41526 0
M  V30 43914 H 3975.64 3.64683 1.44044 0
M  V30 43915 H 3977.13 3.41524 2.40315 0
M  V30 43916 N 3977.57 0.0234513 1.57583 0
M  V30 43917 C 3978.5 -0.988924 2.06768 0
M  V30 43918 C 3979.51 -1.29239 0.990002 0
M  V30 43919 O 3980.7 -1.25804 1.26632 0
M  V30 43920 C 3977.8 -2.3178 2.47248 0
M  V30 43921 C 3976.97 -2.20032 3.78027 0
M  V30 43922 C 3976.03 -3.35805 4.05119 0
M  V30 43923 O 3975.06 -3.12944 4.75452 0
M  V30 43924 N 3976.26 -4.59416 3.54848 0
M  V30 43925 H 3979.03 -0.569304 2.94243 0
M  V30 43926 H 3976.59 -0.163433 1.61073 0
M  V30 43927 H 3978.58 -3.08047 2.62468 0
M  V30 43928 H 3977.15 -2.65402 1.65168 0
M  V30 43929 H 3976.37 -1.28528 3.72658 0
M  V30 43930 H 3977.66 -2.0938 4.63721 0
M  V30 43931 H 3977.06 -4.80885 2.97937 0
M  V30 43932 H 3975.61 -5.3287 3.75357 0
M  V30 43933 N 3979.05 -1.5561 -0.249627 0
M  V30 43934 C 3979.99 -1.90087 -1.30902 0
M  V30 43935 C 3980.96 -0.75481 -1.47959 0
M  V30 43936 O 3982.15 -1.00822 -1.61986 0
M  V30 43937 C 3979.29 -2.19864 -2.65996 0
M  V30 43938 C 3978.4 -3.47262 -2.5697 0
M  V30 43939 C 3977.54 -3.66622 -3.84398 0
M  V30 43940 C 3976.57 -4.8763 -3.69978 0
M  V30 43941 N 3975.71 -5.03525 -4.89292 0
M  V30 43942 H 3980.55 -2.80434 -1.008 0
M  V30 43943 H 3978.09 -1.38823 -0.486484 0
M  V30 43944 H 3980.05 -2.35133 -3.44628 0
M  V30 43945 H 3978.68 -1.32725 -2.94252 0
M  V30 43946 H 3977.73 -3.4034 -1.69921 0
M  V30 43947 H 3979.04 -4.36038 -2.42223 0
M  V30 43948 H 3978.19 -3.81835 -4.71473 0
M  V30 43949 H 3976.93 -2.76073 -4.02038 0
M  V30 43950 H 3975.94 -4.72396 -2.81286 0
M  V30 43951 H 3977.16 -5.79636 -3.53835 0
M  V30 43952 H 3975.11 -4.15913 -5.07299 0
M  V30 43953 H 3975.03 -5.86386 -4.77166 0
M  V30 43954 H 3976.29 -5.23147 -5.77874 0
M  V30 43955 N 3980.52 0.515172 -1.48942 0
M  V30 43956 C 3981.49 1.60048 -1.64065 0
M  V30 43957 C 3982.49 1.52393 -0.513128 0
M  V30 43958 O 3983.68 1.55798 -0.779268 0
M  V30 43959 C 3980.81 2.99691 -1.62475 0
M  V30 43960 H 3982 1.47974 -2.60852 0
M  V30 43961 H 3979.55 0.738354 -1.37761 0
M  V30 43962 H 3980.29 3.17257 -0.672196 0
M  V30 43963 H 3980.07 3.06656 -2.44345 0
M  V30 43964 H 3981.56 3.7857 -1.7628 0
M  V30 43965 N 3982 1.37779 0.765169 0
M  V30 43966 C 3983.25 1.3335 1.52395 0
M  V30 43967 C 3983.58 -0.0800217 1.94335 0
M  V30 43968 O 3982.83 -1.05467 1.64849 0
M  V30 43969 C 3983.13 2.22457 2.79728 0
M  V30 43970 C 3982.8 3.70622 2.56807 0
M  V30 43971 C 3981.46 4.11 2.50265 0
M  V30 43972 C 3983.81 4.64461 2.36486 0
M  V30 43973 C 3981.14 5.43322 2.21401 0
M  V30 43974 C 3983.49 5.97027 2.09144 0
M  V30 43975 C 3982.15 6.36502 2.01051 0
M  V30 43976 H 3981.42 0.487961 0.557651 0
M  V30 43977 H 3984.07 1.7004 0.880824 0
M  V30 43978 H 3982.38 1.78783 3.48631 0
M  V30 43979 H 3984.07 2.1634 3.37636 0
M  V30 43980 H 3980.66 3.38604 2.62765 0
M  V30 43981 H 3984.85 4.34121 2.40526 0
M  V30 43982 H 3980.1 5.72862 2.13634 0
M  V30 43983 H 3984.28 6.69289 1.92421 0
M  V30 43984 H 3981.9 7.38959 1.78449 0
M  V30 43985 N 3983.48 -0.992073 1.22457 0
M  V30 43986 C 3984.73 -1.72594 1.04376 0
M  V30 43987 C 3985.04 -1.91009 -0.421315 0
M  V30 43988 O 3986.25 -2.61729 -0.721814 0
M  V30 43989 C 3984.7 -3.10542 1.81911 0
M  V30 43990 C 3984.31 -3.00055 3.32672 0
M  V30 43991 C 3986.06 -3.87968 1.72281 0
M  V30 43992 C 3983.96 -4.33163 4.02646 0
M  V30 43993 H 3982.89 -0.647137 0.386948 0
M  V30 43994 H 3985.54 -1.10744 1.46315 0
M  V30 43995 H 3983.93 -3.73079 1.32771 0
M  V30 43996 H 3985.1 -2.46678 3.89213 0
M  V30 43997 H 3983.41 -2.36111 3.42988 0
M  V30 43998 H 3986.01 -4.8649 2.21881 0
M  V30 43999 H 3986.35 -4.10653 0.683382 0
M  V30 44000 H 3986.89 -3.32111 2.18969 0
M  V30 44001 H 3983.63 -4.15678 5.06845 0
M  V30 44002 H 3983.15 -4.8645 3.50894 0
M  V30 44003 H 3984.83 -5.01907 4.08288 0
M  V30 44004 N 3984.96 -1.03439 -1.18904 0
M  V30 44005 C 3986.21 -0.732631 -1.88353 0
M  V30 44006 C 3986.53 0.741442 -1.80354 0
M  V30 44007 O 3985.8 1.53459 -1.21767 0
M  V30 44008 H 3984.38 -0.268007 -0.697267 0
M  V30 44009 H 3987.04 -1.3098 -1.44327 0
M  V30 44010 H 3986.13 -1.03186 -2.94549 0
M  V30 44011 N 3986.44 1.35011 -0.813001 0
M  V30 44012 C 3987.68 1.98583 -0.39638 0
M  V30 44013 C 3988.01 1.64482 1.03807 0
M  V30 44014 O 3987.27 0.903374 1.73602 0
M  V30 44015 C 3987.56 3.53386 -0.534145 0
M  V30 44016 C 3987.23 4.07372 -1.93285 0
M  V30 44017 C 3985.89 4.21827 -2.3155 0
M  V30 44018 C 3988.24 4.3653 -2.84764 0
M  V30 44019 C 3985.57 4.62763 -3.60649 0
M  V30 44020 C 3987.92 4.78908 -4.13316 0
M  V30 44021 C 3986.59 4.91568 -4.51571 0
M  V30 44022 H 3985.86 0.726666 -0.145046 0
M  V30 44023 H 3988.51 1.61119 -1.03503 0
M  V30 44024 H 3986.81 3.91349 0.187933 0
M  V30 44025 H 3988.51 4.00538 -0.192466 0
M  V30 44026 H 3985.1 3.96576 -1.62558 0
M  V30 44027 H 3989.28 4.2491 -2.56448 0
M  V30 44028 H 3984.54 4.70755 -3.90128 0
M  V30 44029 H 3988.71 5.0043 -4.84296 0
M  V30 44030 H 3986.34 5.23046 -5.51658 0
M  V30 44031 N 3987.91 0.567071 1.47044 0
M  V30 44032 C 3988.82 -0.177957 2.33924 0
M  V30 44033 C 3989.84 -0.901941 1.48799 0
M  V30 44034 O 3991.02 -0.86863 1.81705 0
M  V30 44035 C 3988.08 -1.18859 3.25689 0
M  V30 44036 C 3987.14 -0.470974 4.26709 0
M  V30 44037 C 3986.37 -1.43346 5.14089 0
M  V30 44038 O 3986.6 -2.66898 5.04105 0
M  V30 44039 O 3985.53 -0.952569 5.94315 0
M  V30 44040 H 3989.36 0.53496 2.98951 0
M  V30 44041 H 3986.94 0.327597 1.45764 0
M  V30 44042 H 3988.82 -1.77173 3.82345 0
M  V30 44043 H 3987.5 -1.88326 2.63278 0
M  V30 44044 H 3986.41 0.153605 3.73785 0
M  V30 44045 H 3987.74 0.182424 4.91862 0
M  V30 44046 N 3989.39 -1.5464 0.304027 0
M  V30 44047 C 3990.64 -1.99804 -0.303757 0
M  V30 44048 C 3990.96 -1.19392 -1.54177 0
M  V30 44049 O 3990.23 -0.290665 -1.93732 0
M  V30 44050 H 3988.81 -0.738059 -0.115228 0
M  V30 44051 H 3991.47 -1.90407 0.416057 0
M  V30 44052 H 3990.57 -3.06782 -0.573705 0
M  V30 44053 N 3990.87 -0.0318079 -1.57568 0
M  V30 44054 C 3992.12 0.647204 -1.92195 0
M  V30 44055 C 3992.45 1.71624 -0.908777 0
M  V30 44056 O 3991.72 1.94381 0.0680992 0
M  V30 44057 C 3992.01 1.26118 -3.37293 0
M  V30 44058 C 3991.86 0.201515 -4.49348 0
M  V30 44059 C 3993.18 2.17842 -3.82404 0
M  V30 44060 H 3990.3 0.233805 -0.698931 0
M  V30 44061 H 3992.94 -0.0896164 -1.89789 0
M  V30 44062 H 3991.09 1.88916 -3.39475 0
M  V30 44063 H 3992.76 -0.429236 -4.59299 0
M  V30 44064 H 3991 -0.4727 -4.31217 0
M  V30 44065 H 3991.68 0.670762 -5.47909 0
M  V30 44066 H 3994.15 1.65027 -3.81975 0
M  V30 44067 H 3993.03 2.57753 -4.84618 0
M  V30 44068 H 3993.29 3.07067 -3.1806 0
M  V30 44069 N 3992.35 1.55741 0.241371 0
M  V30 44070 C 3993.3 1.90779 1.29892 0
M  V30 44071 C 3994.27 0.762646 1.47556 0
M  V30 44072 O 3995.45 1.01679 1.6145 0
M  V30 44073 C 3992.59 2.21272 2.64826 0
M  V30 44074 C 3991.7 3.4862 2.55124 0
M  V30 44075 C 3990.84 3.68655 3.82448 0
M  V30 44076 C 3989.88 4.89585 3.67387 0
M  V30 44077 N 3989.01 5.06113 4.86615 0
M  V30 44078 H 3993.85 2.80965 0.993116 0
M  V30 44079 H 3991.39 1.39079 0.479115 0
M  V30 44080 H 3993.35 2.36957 3.43376 0
M  V30 44081 H 3991.98 1.34283 2.93544 0
M  V30 44082 H 3991.03 3.41236 1.68114 0
M  V30 44083 H 3992.34 4.37317 2.39907 0
M  V30 44084 H 3991.5 3.8433 4.69442 0
M  V30 44085 H 3990.24 2.78202 4.00568 0
M  V30 44086 H 3989.24 4.73882 2.78777 0
M  V30 44087 H 3990.47 5.81504 3.50756 0
M  V30 44088 H 3988.41 4.18598 5.05086 0
M  V30 44089 H 3988.33 5.88909 4.74049 0
M  V30 44090 H 3989.6 5.26204 5.75091 0
M  V30 44091 N 3993.83 -0.507266 1.49213 0
M  V30 44092 C 3995.07 -1.25929 1.58071 0
M  V30 44093 C 3995.4 -1.9317 0.266495 0
M  V30 44094 O 3994.67 -1.82436 -0.713711 0
M  V30 44095 H 3993.25 -0.467791 0.582392 0
M  V30 44096 H 3995.91 -0.588437 1.85805 0
M  V30 44097 H 3995 -2.02656 2.37354 0
M  V30 44098 N 3995.3 -1.38182 -0.757851 0
M  V30 44099 C 3996.25 -1.35068 -1.8715 0
M  V30 44100 C 3997.22 -0.213921 -1.64717 0
M  V30 44101 O 3998.41 -0.405481 -1.86442 0
M  V30 44102 C 3995.55 -1.17734 -3.24396 0
M  V30 44103 C 3994.66 -2.4076 -3.5869 0
M  V30 44104 C 3993.79 -2.1619 -4.85217 0
M  V30 44105 C 3992.83 -3.3501 -5.12284 0
M  V30 44106 N 3991.97 -3.09901 -6.30004 0
M  V30 44107 H 3996.81 -2.30277 -1.89147 0
M  V30 44108 H 3994.35 -1.14414 -0.924551 0
M  V30 44109 H 3996.31 -1.05701 -4.03588 0
M  V30 44110 H 3994.94 -0.261663 -3.21738 0
M  V30 44111 H 3993.99 -2.63482 -2.74374 0
M  V30 44112 H 3995.3 -3.29332 -3.74622 0
M  V30 44113 H 3994.45 -2.01268 -5.72343 0
M  V30 44114 H 3993.19 -1.24977 -4.71415 0
M  V30 44115 H 3992.2 -3.50455 -4.23629 0
M  V30 44116 H 3993.42 -4.27092 -5.27986 0
M  V30 44117 H 3991.37 -2.21332 -6.17534 0
M  V30 44118 H 3991.29 -3.92021 -6.46418 0
M  V30 44119 H 3992.55 -2.98626 -7.2003 0
M  V30 44120 N 3996.78 0.985565 -1.22981 0
M  V30 44121 C 3997.73 2.07702 -1.00641 0
M  V30 44122 C 3998.7 1.65933 0.0743785 0
M  V30 44123 O 3999.88 1.90646 -0.0766918 0
M  V30 44124 C 3997.02 3.39877 -0.598148 0
M  V30 44125 C 3996.14 3.94945 -1.7505 0
M  V30 44126 C 3995.27 5.1531 -1.28952 0
M  V30 44127 C 3994.31 5.62533 -2.41295 0
M  V30 44128 N 3993.45 6.74132 -1.96191 0
M  V30 44129 H 3998.29 2.26146 -1.94067 0
M  V30 44130 H 3995.83 1.10861 -0.966861 0
M  V30 44131 H 3997.78 4.15791 -0.342576 0
M  V30 44132 H 3996.41 3.21411 0.29911 0
M  V30 44133 H 3995.47 3.15834 -2.12021 0
M  V30 44134 H 3996.78 4.25966 -2.59527 0
M  V30 44135 H 3995.93 5.98539 -0.991765 0
M  V30 44136 H 3994.67 4.85931 -0.415046 0
M  V30 44137 H 3993.68 4.77888 -2.7185 0
M  V30 44138 H 3994.9 5.93934 -3.2927 0
M  V30 44139 H 3992.85 6.46521 -1.11117 0
M  V30 44140 H 3992.76 7.04509 -2.74231 0
M  V30 44141 H 3994.03 7.60847 -1.69506 0
M  V30 44142 N 3998.26 1.04068 1.18353 0
M  V30 44143 C 3999.21 0.631753 2.21985 0
M  V30 44144 C 4000.18 -0.360433 1.62142 0
M  V30 44145 O 4001.36 -0.254412 1.89096 0
M  V30 44146 C 3998.5 0.000904226 3.451 0
M  V30 44147 C 3997.62 1.04056 4.19281 0
M  V30 44148 C 3996.75 0.378224 5.29852 0
M  V30 44149 C 3995.79 1.40297 5.95805 0
M  V30 44150 N 3994.93 0.765603 6.97913 0
M  V30 44151 H 3999.77 1.52 2.5632 0
M  V30 44152 H 3997.3 0.760406 1.25922 0
M  V30 44153 H 3999.26 -0.382194 4.15446 0
M  V30 44154 H 3997.89 -0.850856 3.11384 0
M  V30 44155 H 3996.94 1.5416 3.47762 0
M  V30 44156 H 3998.26 1.8189 4.64454 0
M  V30 44157 H 3997.41 -0.0590794 6.06671 0
M  V30 44158 H 3996.15 -0.432207 4.85781 0
M  V30 44159 H 3995.15 1.85041 5.17726 0
M  V30 44160 H 3996.38 2.2151 6.41958 0
M  V30 44161 H 3994.32 -0.0245211 6.55995 0
M  V30 44162 H 3994.24 1.48165 7.41339 0
M  V30 44163 H 3995.51 0.352697 7.78702 0
M  V30 44164 N 3999.74 -1.34578 0.820149 0
M  V30 44165 C 4000.67 -2.27446 0.185364 0
M  V30 44166 C 4001.65 -1.48753 -0.656601 0
M  V30 44167 O 4002.83 -1.77979 -0.620943 0
M  V30 44168 C 3999.96 -3.30486 -0.741397 0
M  V30 44169 C 3999.01 -4.26494 0.0226826 0
M  V30 44170 S 3999.84 -5.17733 1.36796 0
M  V30 44171 C 4001 -6.24309 0.446003 0
M  V30 44172 H 4001.23 -2.80937 0.972708 0
M  V30 44173 H 3998.76 -1.41584 0.615904 0
M  V30 44174 H 4000.72 -3.90342 -1.27055 0
M  V30 44175 H 3999.38 -2.75847 -1.50224 0
M  V30 44176 H 3998.57 -4.99368 -0.681739 0
M  V30 44177 H 3998.18 -3.70877 0.482304 0
M  V30 44178 H 4000.47 -6.76524 -0.363519 0
M  V30 44179 H 4001.41 -6.98792 1.14434 0
M  V30 44180 H 4001.82 -5.64489 0.0356668 0
M  V30 44181 N 4001.22 -0.574861 -1.46742 0
M  V30 44182 C 4002.44 -0.0609143 -2.07311 0
M  V30 44183 C 4002.87 1.23126 -1.42202 0
M  V30 44184 O 4002.22 1.74181 -0.503073 0
M  V30 44185 C 4002.27 0.0996043 -3.60462 0
M  V30 44186 O 4001.38 1.15801 -3.95808 0
M  V30 44187 H 4000.72 -0.0592658 -0.66135 0
M  V30 44188 H 4003.25 -0.795571 -1.88499 0
M  V30 44189 H 4003.26 0.308257 -4.06834 0
M  V30 44190 H 4001.93 -0.844089 -4.07244 0
M  V30 44191 H 4000.51 0.928441 -3.61157 0
M  V30 44192 N 4002.69 1.54476 -0.312224 0
M  V30 44193 C 4003.66 2.226 0.546081 0
M  V30 44194 C 4004.66 1.2157 1.05249 0
M  V30 44195 O 4005.85 1.46228 0.94673 0
M  V30 44196 C 4002.98 2.92118 1.75728 0
M  V30 44197 H 4004.17 2.9986 -0.0492743 0
M  V30 44198 H 4001.73 1.56172 -0.0631764 0
M  V30 44199 H 4002.46 2.18965 2.39217 0
M  V30 44200 H 4002.25 3.6619 1.40168 0
M  V30 44201 H 4003.74 3.44053 2.36679 0
M  V30 44202 N 4004.17 0.0401637 1.57549 0
M  V30 44203 C 4005.14 -0.923089 2.0979 0
M  V30 44204 C 4006.14 -1.24701 1.0152 0
M  V30 44205 O 4007.33 -1.18552 1.27637 0
M  V30 44206 C 4004.46 -2.23632 2.57297 0
M  V30 44207 H 4005.65 -0.47043 2.96187 0
M  V30 44208 H 4003.2 -0.208061 1.54909 0
M  V30 44209 H 4003.94 -2.73503 1.7426 0
M  V30 44210 H 4003.72 -2.01429 3.36406 0
M  V30 44211 H 4005.21 -2.92652 2.979 0
M  V30 44212 N 4005.65 -1.55866 -0.233109 0
M  V30 44213 C 4006.56 -1.94617 -1.31001 0
M  V30 44214 C 4007.58 -0.848426 -1.51914 0
M  V30 44215 O 4008.75 -1.15101 -1.65268 0
M  V30 44216 C 4005.82 -2.24499 -2.64199 0
M  V30 44217 C 4004.88 -3.4778 -2.51689 0
M  V30 44218 C 4004.11 -3.76227 -3.78535 0
M  V30 44219 O 4004.33 -3.06528 -4.81037 0
M  V30 44220 O 4003.27 -4.69736 -3.7634 0
M  V30 44221 H 4007.09 -2.8637 -1.01124 0
M  V30 44222 H 4004.68 -1.42926 -0.435018 0
M  V30 44223 H 4006.56 -2.44965 -3.42885 0
M  V30 44224 H 4005.24 -1.35923 -2.9378 0
M  V30 44225 H 4004.14 -3.32606 -1.71242 0
M  V30 44226 H 4005.48 -4.36702 -2.2705 0
M  V30 44227 N 4007.13 0.499346 -1.4948 0
M  V30 44228 C 4008.09 1.58299 -1.65753 0
M  V30 44229 C 4009.09 1.5184 -0.529263 0
M  V30 44230 O 4010.28 1.54963 -0.795748 0
M  V30 44231 C 4007.41 2.97951 -1.65644 0
M  V30 44232 H 4008.61 1.45199 -2.62407 0
M  V30 44233 H 4006.16 0.723701 -1.38536 0
M  V30 44234 H 4006.9 3.16526 -0.705808 0
M  V30 44235 H 4006.68 3.04047 -2.47584 0
M  V30 44236 H 4008.17 3.76679 -1.80285 0
M  V30 44237 N 4008.61 1.38582 0.750513 0
M  V30 44238 C 4009.85 1.35158 1.51195 0
M  V30 44239 C 4010.19 -0.0573726 1.94115 0
M  V30 44240 O 4009.46 -1.01919 1.65659 0
M  V30 44241 C 4009.74 2.31004 2.76241 0
M  V30 44242 C 4009.6 3.80774 2.39439 0
M  V30 44243 C 4010.92 2.24931 3.78278 0
M  V30 44244 H 4008.04 0.49228 0.548479 0
M  V30 44245 H 4010.68 1.69454 0.859372 0
M  V30 44246 H 4008.83 2.01888 3.31924 0
M  V30 44247 H 4010.5 4.20577 1.89507 0
M  V30 44248 H 4008.74 3.98305 1.71859 0
M  V30 44249 H 4009.41 4.43302 3.28918 0
M  V30 44250 H 4011.89 2.50641 3.32142 0
M  V30 44251 H 4010.77 2.941 4.63462 0
M  V30 44252 H 4011.03 1.24916 4.24085 0
M  V30 44253 N 4010.09 -0.979029 1.23502 0
M  V30 44254 C 4011.03 -2.07165 1.01741 0
M  V30 44255 C 4012 -1.6597 -0.0655776 0
M  V30 44256 O 4013.19 -1.90602 0.0868011 0
M  V30 44257 C 4010.33 -3.39555 0.616164 0
M  V30 44258 C 4009.44 -3.94011 1.77142 0
M  V30 44259 C 4008.58 -5.14619 1.31683 0
M  V30 44260 C 4007.61 -5.61245 2.44274 0
M  V30 44261 N 4006.75 -6.73082 1.99764 0
M  V30 44262 H 4011.59 -2.25114 1.95263 0
M  V30 44263 H 4009.13 -1.10347 0.972726 0
M  V30 44264 H 4011.09 -4.15604 0.364622 0
M  V30 44265 H 4009.72 -3.21565 -0.282061 0
M  V30 44266 H 4008.77 -3.14706 2.13693 0
M  V30 44267 H 4010.08 -4.24584 2.61782 0
M  V30 44268 H 4009.23 -5.98005 1.02349 0
M  V30 44269 H 4007.97 -4.85704 0.44081 0
M  V30 44270 H 4006.98 -4.7644 2.74381 0
M  V30 44271 H 4008.2 -5.9218 3.32415 0
M  V30 44272 H 4006.15 -6.45922 1.14544 0
M  V30 44273 H 4006.07 -7.03045 2.77963 0
M  V30 44274 H 4007.33 -7.59937 1.73538 0
M  V30 44275 N 4011.56 -1.04695 -1.178 0
M  V30 44276 C 4012.47 -0.654112 -2.25297 0
M  V30 44277 C 4013.49 0.32252 -1.70985 0
M  V30 44278 O 4014.67 0.175869 -2.00631 0
M  V30 44279 C 4011.73 -0.0296955 -3.46687 0
M  V30 44280 C 4010.79 -1.05614 -4.16106 0
M  V30 44281 C 4010.02 -0.461422 -5.31702 0
M  V30 44282 O 4010.25 0.730579 -5.65702 0
M  V30 44283 O 4009.18 -1.19323 -5.89954 0
M  V30 44284 H 4013.01 -1.54986 -2.61176 0
M  V30 44285 H 4010.59 -0.818204 -1.25003 0
M  V30 44286 H 4012.47 0.31758 -4.20202 0
M  V30 44287 H 4011.15 0.839784 -3.12617 0
M  V30 44288 H 4010.06 -1.45532 -3.44632 0
M  V30 44289 H 4011.39 -1.89659 -4.54192 0
M  V30 44290 N 4013.04 1.34141 -0.827275 0
M  V30 44291 C 4013.99 2.2944 -0.250206 0
M  V30 44292 C 4014.96 1.53792 0.627463 0
M  V30 44293 O 4016.14 1.82144 0.568186 0
M  V30 44294 C 4013.28 3.4022 0.578332 0
M  V30 44295 C 4012.4 4.30798 -0.322066 0
M  V30 44296 C 4011.53 5.28683 0.516457 0
M  V30 44297 C 4010.57 6.109 -0.383056 0
M  V30 44298 N 4009.71 7.00863 0.416651 0
M  V30 44299 H 4014.55 2.78196 -1.06822 0
M  V30 44300 H 4012.08 1.36898 -0.538269 0
M  V30 44301 H 4014.04 4.03137 1.07407 0
M  V30 44302 H 4012.67 2.92686 1.36142 0
M  V30 44303 H 4011.72 3.68704 -0.936043 0
M  V30 44304 H 4013.04 4.88394 -1.01355 0
M  V30 44305 H 4012.19 5.97073 1.07649 0
M  V30 44306 H 4010.93 4.71635 1.24142 0
M  V30 44307 H 4009.93 5.41439 -0.955198 0
M  V30 44308 H 4011.16 6.7003 -1.1062 0
M  V30 44309 H 4009.11 6.46278 1.12521 0
M  V30 44310 H 4009.02 7.5569 -0.21635 0
M  V30 44311 H 4010.29 7.73575 0.959296 0
M  V30 44312 N 4014.52 0.582635 1.46435 0
M  V30 44313 C 4015.77 0.0766188 2.03256 0
M  V30 44314 C 4016.12 -1.26912 1.44607 0
M  V30 44315 O 4015.41 -1.81905 0.601753 0
M  V30 44316 C 4015.61 -0.0476116 3.57368 0
M  V30 44317 C 4015.44 1.28454 4.30964 0
M  V30 44318 C 4014.21 1.85866 4.69874 0
M  V30 44319 C 4016.4 2.20771 4.64505 0
M  V30 44320 N 4014.39 3.12821 5.2822 0
M  V30 44321 C 4015.76 3.32313 5.2342 0
M  V30 44322 C 4017.81 2.20452 4.46436 0
M  V30 44323 C 4016.52 4.43668 5.66172 0
M  V30 44324 C 4018.54 3.30837 4.90205 0
M  V30 44325 C 4017.9 4.411 5.49191 0
M  V30 44326 H 4014 0.070813 0.778787 0
M  V30 44327 H 4016.59 0.775517 1.78588 0
M  V30 44328 H 4014.76 -0.715678 3.81749 0
M  V30 44329 H 4016.49 -0.558006 4.00835 0
M  V30 44330 H 4013.24 1.3936 4.52632 0
M  V30 44331 H 4013.67 3.776 5.61914 0
M  V30 44332 H 4018.31 1.36476 4.00167 0
M  V30 44333 H 4016.03 5.28386 6.11419 0
M  V30 44334 H 4019.61 3.31708 4.77976 0
M  V30 44335 H 4018.49 5.25105 5.82438 0
M  V30 44336 N 4016 -1.54309 0.320412 0
M  V30 44337 C 4016.93 -2.27176 -0.539749 0
M  V30 44338 C 4017.91 -1.27852 -1.12195 0
M  V30 44339 O 4019.09 -1.56659 -1.14767 0
M  V30 44340 C 4016.22 -3.02719 -1.7023 0
M  V30 44341 C 4015.18 -4.09353 -1.24955 0
M  V30 44342 C 4014.5 -4.7272 -2.4988 0
M  V30 44343 C 4015.8 -5.21011 -0.366696 0
M  V30 44344 H 4017.5 -2.99323 0.0680605 0
M  V30 44345 H 4015.04 -1.43959 0.0341741 0
M  V30 44346 H 4017 -3.52424 -2.31031 0
M  V30 44347 H 4015.72 -2.28184 -2.33665 0
M  V30 44348 H 4014.38 -3.60527 -0.664493 0
M  V30 44349 H 4014.03 -3.94803 -3.11672 0
M  V30 44350 H 4013.73 -5.44749 -2.20279 0
M  V30 44351 H 4015.25 -5.25197 -3.11449 0
M  V30 44352 H 4016.67 -5.66492 -0.880902 0
M  V30 44353 H 4015.06 -5.99877 -0.163601 0
M  V30 44354 H 4016.13 -4.81133 0.603269 0
M  V30 44355 N 4017.48 -0.0485183 -1.57525 0
M  V30 44356 C 4018.89 0.48756 -1.80221 0
M  V30 44357 C 4019.24 1.7108 -0.96052 0
M  V30 44358 O 4018.36 2.1568 -0.176358 0
M  V30 44359 C 4018.96 0.891302 -3.26866 0
M  V30 44360 C 4017.52 1.37238 -3.50489 0
M  V30 44361 C 4016.66 0.346299 -2.75129 0
M  V30 44362 H 4019.61 -0.274419 -1.56309 0
M  V30 44363 H 4019.64 1.7544 -3.3764 0
M  V30 44364 H 4019.15 0.000812706 -3.881 0
M  V30 44365 H 4017.25 2.28215 -2.94532 0
M  V30 44366 H 4017.36 1.36637 -4.59203 0
M  V30 44367 H 4015.73 0.81861 -2.41186 0
M  V30 44368 H 4016.51 -0.536059 -3.39089 0
M  V30 44369 N 4018.95 1.55988 0.224839 0
M  V30 44370 C 4020.18 1.82663 0.965293 0
M  V30 44371 C 4020.59 0.624967 1.7858 0
M  V30 44372 O 4019.93 -0.415855 1.78931 0
M  V30 44373 C 4020 3.03021 1.93438 0
M  V30 44374 C 4019.66 4.38158 1.29871 0
M  V30 44375 C 4020.66 5.15298 0.690219 0
M  V30 44376 C 4018.34 4.84877 1.31146 0
M  V30 44377 C 4020.34 6.37317 0.102955 0
M  V30 44378 C 4018.02 6.06839 0.720355 0
M  V30 44379 C 4019.02 6.829 0.11715 0
M  V30 44380 O 4018.71 8.02555 -0.464772 0
M  V30 44381 H 4018.44 0.61128 0.28864 0
M  V30 44382 H 4021 2.03919 0.246201 0
M  V30 44383 H 4019.23 2.77575 2.69238 0
M  V30 44384 H 4020.91 3.16596 2.54011 0
M  V30 44385 H 4021.68 4.80312 0.672716 0
M  V30 44386 H 4017.56 4.25652 1.77036 0
M  V30 44387 H 4021.1 6.96626 -0.368489 0
M  V30 44388 H 4017 6.41299 0.735259 0
M  V30 44389 H 4017.77 8.17713 -0.358772 0
M  V30 44390 N 4020.43 -0.491412 1.49743 0
M  V30 44391 C 4021.34 -1.61807 1.69869 0
M  V30 44392 C 4022.36 -1.63999 0.581415 0
M  V30 44393 O 4023.53 -1.82243 0.857295 0
M  V30 44394 C 4020.6 -2.98131 1.7697 0
M  V30 44395 C 4019.66 -3.06491 3.00603 0
M  V30 44396 C 4018.89 -4.36312 3.07356 0
M  V30 44397 O 4019.12 -5.25662 2.21441 0
M  V30 44398 O 4018.05 -4.49843 3.99906 0
M  V30 44399 H 4021.88 -1.47755 2.65334 0
M  V30 44400 H 4019.46 -0.668737 1.33597 0
M  V30 44401 H 4021.34 -3.79136 1.83939 0
M  V30 44402 H 4020.02 -3.12426 0.846862 0
M  V30 44403 H 4018.92 -2.24638 2.99146 0
M  V30 44404 H 4020.26 -2.97126 3.92399 0
M  V30 44405 N 4021.91 -1.38978 -0.743153 0
M  V30 44406 C 4022.87 -1.36832 -1.83874 0
M  V30 44407 C 4023.87 -0.266902 -1.58569 0
M  V30 44408 O 4025.06 -0.524367 -1.66121 0
M  V30 44409 C 4022.2 -1.13286 -3.21526 0
M  V30 44410 H 4023.39 -2.34314 -1.87182 0
M  V30 44411 H 4020.94 -1.24424 -0.945957 0
M  V30 44412 H 4021.68 -0.164531 -3.23882 0
M  V30 44413 H 4021.46 -1.9304 -3.41289 0
M  V30 44414 H 4022.95 -1.14505 -4.01595 0
M  V30 44415 N 4023.39 0.972465 -1.2402 0
M  V30 44416 C 4024.64 1.71143 -1.07492 0
M  V30 44417 C 4024.96 1.91106 0.387764 0
M  V30 44418 O 4024.23 1.48539 1.27722 0
M  V30 44419 H 4022.81 0.634161 -0.394777 0
M  V30 44420 H 4025.47 1.17015 -1.55864 0
M  V30 44421 H 4024.57 2.69784 -1.56918 0
M  V30 44422 N 4024.87 1.05318 1.17243 0
M  V30 44423 C 4025.8 0.613267 2.20843 0
M  V30 44424 C 4026.81 -0.323643 1.59551 0
M  V30 44425 O 4028 -0.116177 1.78122 0
M  V30 44426 C 4025.1 -0.122423 3.38679 0
M  V30 44427 C 4024.27 0.825504 4.2954 0
M  V30 44428 C 4023.33 0.130845 5.26037 0
M  V30 44429 O 4022.36 0.765347 5.64031 0
M  V30 44430 N 4023.56 -1.13126 5.69371 0
M  V30 44431 H 4026.33 1.50439 2.59207 0
M  V30 44432 H 4023.89 0.935244 1.32154 0
M  V30 44433 H 4025.88 -0.597298 4.00268 0
M  V30 44434 H 4024.45 -0.915226 2.98902 0
M  V30 44435 H 4023.67 1.47997 3.65363 0
M  V30 44436 H 4024.96 1.4689 4.87135 0
M  V30 44437 H 4024.35 -1.66706 5.40579 0
M  V30 44438 H 4022.91 -1.55018 6.33098 0
M  V30 44439 N 4026.34 -1.33701 0.834377 0
M  V30 44440 C 4027.76 -1.50836 0.521587 0
M  V30 44441 C 4027.96 -1.77593 -0.951998 0
M  V30 44442 O 4027.02 -1.83356 -1.736 0
M  V30 44443 C 4028.33 -2.66591 1.39104 0
M  V30 44444 C 4029.88 -2.80475 1.38935 0
M  V30 44445 C 4030.35 -3.99286 2.24354 0
M  V30 44446 N 4031.84 -4.06513 2.22039 0
M  V30 44447 C 4032.58 -4.97629 2.84874 0
M  V30 44448 N 4032.07 -5.93891 3.56743 0
M  V30 44449 N 4033.87 -4.9059 2.74368 0
M  V30 44450 H 4026.02 -1.14595 1.78835 0
M  V30 44451 H 4028.28 -0.562997 0.762718 0
M  V30 44452 H 4027.99 -2.53485 2.438 0
M  V30 44453 H 4027.86 -3.61886 1.06387 0
M  V30 44454 H 4030.25 -2.93016 0.350121 0
M  V30 44455 H 4030.33 -1.85954 1.75655 0
M  V30 44456 H 4029.97 -3.87505 3.28333 0
M  V30 44457 H 4029.9 -4.93042 1.84978 0
M  V30 44458 H 4032.39 -3.37618 1.69771 0
M  V30 44459 H 4032.71 -6.6007 4.01905 0
M  V30 44460 H 4031.05 -5.9398 3.6085 0
M  V30 44461 H 4034.24 -4.14351 2.17787 0
M  V30 44462 H 4034.42 -5.61403 3.23622 0
M  V30 44463 N 4027.82 -0.590393 -1.46124 0
M  V30 44464 C 4029.07 -0.078917 -2.02346 0
M  V30 44465 C 4029.4 1.28399 -1.46095 0
M  V30 44466 O 4028.65 1.85656 -0.618908 0
M  V30 44467 C 4028.95 0.0286589 -3.57389 0
M  V30 44468 C 4028.62 -1.26766 -4.32714 0
M  V30 44469 C 4027.28 -1.62279 -4.53011 0
M  V30 44470 C 4029.63 -2.12516 -4.75906 0
M  V30 44471 C 4026.96 -2.83327 -5.13754 0
M  V30 44472 C 4029.31 -3.32796 -5.37986 0
M  V30 44473 C 4027.98 -3.68583 -5.5651 0
M  V30 44474 H 4027.25 -0.0288778 -0.740437 0
M  V30 44475 H 4029.89 -0.768569 -1.754 0
M  V30 44476 H 4028.2 0.801484 -3.83515 0
M  V30 44477 H 4029.89 0.440286 -3.98576 0
M  V30 44478 H 4026.48 -0.981206 -4.17217 0
M  V30 44479 H 4030.67 -1.86381 -4.59974 0
M  V30 44480 H 4025.92 -3.11181 -5.26286 0
M  V30 44481 H 4030.1 -3.99505 -5.70411 0
M  V30 44482 H 4027.73 -4.62468 -6.03347 0
M  V30 44483 N 4029.3 1.54136 -0.328591 0
M  V30 44484 C 4030.23 2.27459 0.527694 0
M  V30 44485 C 4031.21 1.28446 1.11516 0
M  V30 44486 O 4032.4 1.57266 1.13935 0
M  V30 44487 C 4029.53 3.03618 1.68622 0
M  V30 44488 C 4028.48 4.1001 1.22782 0
M  V30 44489 C 4027.81 4.74038 2.4737 0
M  V30 44490 C 4029.11 5.21198 0.33906 0
M  V30 44491 H 4030.8 2.99282 -0.0839334 0
M  V30 44492 H 4028.35 1.43939 -0.0418082 0
M  V30 44493 H 4030.3 3.53644 2.29159 0
M  V30 44494 H 4029.02 2.2942 2.32452 0
M  V30 44495 H 4027.68 3.60875 0.645364 0
M  V30 44496 H 4027.33 3.96451 3.09574 0
M  V30 44497 H 4027.03 5.45909 2.17387 0
M  V30 44498 H 4028.55 5.26842 3.08659 0
M  V30 44499 H 4029.97 5.66951 0.850847 0
M  V30 44500 H 4028.37 5.99955 0.131786 0
M  V30 44501 H 4029.44 4.80806 -0.628776 0
M  V30 44502 N 4030.78 0.0568716 1.57497 0
M  V30 44503 C 4031.69 -0.93063 2.15352 0
M  V30 44504 C 4032.7 -1.33765 1.11279 0
M  V30 44505 O 4033.88 -1.4134 1.43474 0
M  V30 44506 C 4030.95 -2.18516 2.69168 0
M  V30 44507 C 4030.01 -1.83596 3.88061 0
M  V30 44508 C 4029.24 -3.03068 4.39301 0
M  V30 44509 O 4029.46 -4.1662 3.89595 0
M  V30 44510 O 4028.4 -2.83751 5.30819 0
M  V30 44511 H 4032.22 -0.468571 3.00064 0
M  V30 44512 H 4029.81 -0.165354 1.48482 0
M  V30 44513 H 4031.69 -2.9211 3.03726 0
M  V30 44514 H 4030.36 -2.63849 1.87525 0
M  V30 44515 H 4029.27 -1.073 3.58382 0
M  V30 44516 H 4030.6 -1.43058 4.70951 0
M  V30 44517 N 4032.26 -1.56105 -0.216564 0
M  V30 44518 C 4033.5 -1.79349 -0.940218 0
M  V30 44519 C 4033.83 -0.626484 -1.84134 0
M  V30 44520 O 4033.09 0.388898 -1.91797 0
M  V30 44521 C 4033.39 -3.08394 -1.80631 0
M  V30 44522 C 4033.05 -4.38312 -1.058 0
M  V30 44523 C 4031.71 -4.7361 -0.851309 0
M  V30 44524 C 4034.07 -5.18499 -0.529924 0
M  V30 44525 C 4031.39 -5.86607 -0.104719 0
M  V30 44526 C 4033.75 -6.32273 0.203347 0
M  V30 44527 C 4032.41 -6.66169 0.421247 0
M  V30 44528 H 4031.68 -0.656285 -0.34405 0
M  V30 44529 H 4034.33 -1.90367 -0.208036 0
M  V30 44530 H 4032.63 -2.9252 -2.60651 0
M  V30 44531 H 4034.33 -3.23581 -2.36846 0
M  V30 44532 H 4030.92 -4.10599 -1.22908 0
M  V30 44533 H 4035.1 -4.9166 -0.677068 0
M  V30 44534 H 4030.36 -6.11355 0.0742844 0
M  V30 44535 H 4034.53 -6.93634 0.62002 0
M  V30 44536 H 4032.16 -7.53572 1.00168 0
M  V30 44537 N 4033.73 0.483463 -1.50001 0
M  V30 44538 C 4034.67 1.60013 -1.64099 0
M  V30 44539 C 4035.68 1.54173 -0.522924 0
M  V30 44540 O 4036.87 1.59786 -0.795649 0
M  V30 44541 C 4033.97 2.98863 -1.59795 0
M  V30 44542 C 4033.14 3.29703 -2.87428 0
M  V30 44543 C 4032.2 4.48047 -2.75936 0
M  V30 44544 O 4031.23 4.48964 -3.49886 0
M  V30 44545 N 4032.43 5.48989 -1.88658 0
M  V30 44546 H 4035.19 1.48341 -2.60413 0
M  V30 44547 H 4032.75 0.671665 -1.4731 0
M  V30 44548 H 4034.75 3.7598 -1.49737 0
M  V30 44549 H 4033.32 3.04368 -0.712666 0
M  V30 44550 H 4032.54 2.41315 -3.11706 0
M  V30 44551 H 4033.82 3.47113 -3.72008 0
M  V30 44552 H 4033.22 5.5106 -1.27867 0
M  V30 44553 H 4031.78 6.25139 -1.84511 0
M  V30 44554 N 4035.21 1.39371 0.735772 0
M  V30 44555 C 4036.44 1.39622 1.5228 0
M  V30 44556 C 4036.85 -0.01124 1.89197 0
M  V30 44557 O 4036.19 -0.992759 1.54564 0
M  V30 44558 C 4036.26 2.20432 2.83989 0
M  V30 44559 C 4035.92 3.6907 2.69511 0
M  V30 44560 C 4036.92 4.62168 2.38111 0
M  V30 44561 C 4034.6 4.12646 2.86406 0
M  V30 44562 C 4036.6 5.96824 2.23786 0
M  V30 44563 C 4034.28 5.47378 2.717 0
M  V30 44564 C 4035.28 6.39281 2.40435 0
M  V30 44565 O 4034.97 7.71531 2.2582 0
M  V30 44566 H 4034.7 0.478797 0.47721 0
M  V30 44567 H 4037.25 1.83799 0.916904 0
M  V30 44568 H 4035.48 1.71002 3.46836 0
M  V30 44569 H 4037.17 2.12871 3.45602 0
M  V30 44570 H 4037.94 4.29803 2.2471 0
M  V30 44571 H 4033.82 3.41446 3.09734 0
M  V30 44572 H 4037.36 6.68523 1.99305 0
M  V30 44573 H 4033.26 5.79334 2.8468 0
M  V30 44574 H 4034.03 7.82248 2.40896 0
M  V30 44575 N 4036.69 -0.965875 1.24534 0
M  V30 44576 C 4037.62 -2.07851 1.06397 0
M  V30 44577 C 4038.6 -1.70084 -0.0236168 0
M  V30 44578 O 4039.79 -1.93667 0.143801 0
M  V30 44579 C 4036.92 -3.40777 0.669937 0
M  V30 44580 C 4035.87 -3.92508 1.7065 0
M  V30 44581 C 4035.2 -5.21799 1.16748 0
M  V30 44582 C 4036.5 -4.20143 3.10285 0
M  V30 44583 H 4038.19 -2.23282 1.99463 0
M  V30 44584 H 4035.74 -1.07294 0.960416 0
M  V30 44585 H 4037.69 -4.18053 0.530043 0
M  V30 44586 H 4036.41 -3.25252 -0.29642 0
M  V30 44587 H 4035.07 -3.1739 1.83464 0
M  V30 44588 H 4034.72 -5.02635 0.191675 0
M  V30 44589 H 4034.42 -5.57378 1.86019 0
M  V30 44590 H 4035.95 -6.01682 1.03974 0
M  V30 44591 H 4037.36 -4.88117 3.0069 0
M  V30 44592 H 4035.76 -4.66955 3.76926 0
M  V30 44593 H 4036.83 -3.26848 3.58188 0
M  V30 44594 N 4038.17 -1.05938 -1.16683 0
M  V30 44595 C 4039.4 -0.794586 -1.91034 0
M  V30 44596 C 4039.81 0.650632 -1.77235 0
M  V30 44597 O 4039.17 1.44512 -1.11456 0
M  V30 44598 C 4039.22 -1.17542 -3.41857 0
M  V30 44599 O 4038.94 -2.56392 -3.55239 0
M  V30 44600 C 4040.44 -0.93785 -4.33266 0
M  V30 44601 H 4037.66 -0.288336 -0.605891 0
M  V30 44602 H 4040.21 -1.41206 -1.47923 0
M  V30 44603 H 4038.36 -0.602553 -3.82685 0
M  V30 44604 H 4038.78 -2.71539 -4.48739 0
M  V30 44605 H 4040.25 -1.25398 -5.37568 0
M  V30 44606 H 4040.73 0.126596 -4.39018 0
M  V30 44607 H 4041.33 -1.49493 -3.98161 0
M  V30 44608 N 4039.65 1.33256 -0.841456 0
M  V30 44609 C 4040.9 1.97307 -0.437547 0
M  V30 44610 C 4041.22 1.66975 1.0072 0
M  V30 44611 O 4040.49 0.970028 1.70198 0
M  V30 44612 H 4039.07 0.729924 -0.158807 0
M  V30 44613 H 4041.73 1.62574 -1.07498 0
M  V30 44614 H 4040.82 3.06819 -0.571729 0
M  V30 44615 N 4041.13 0.598134 1.45809 0
M  V30 44616 C 4042.37 0.0894697 2.01902 0
M  V30 44617 C 4042.69 -1.28098 1.47024 0
M  V30 44618 O 4041.96 -1.84418 0.660832 0
M  V30 44619 H 4040.54 0.0300844 0.746394 0
M  V30 44620 H 4043.21 0.777398 1.78725 0
M  V30 44621 H 4042.3 0.0320973 3.12083 0
M  V30 44622 N 4042.6 -1.5396 0.33676 0
M  V30 44623 C 4043.53 -2.27736 -0.515624 0
M  V30 44624 C 4044.51 -1.29035 -1.10833 0
M  V30 44625 O 4045.7 -1.57868 -1.13099 0
M  V30 44626 C 4042.83 -3.04508 -1.6701 0
M  V30 44627 C 4041.78 -4.10656 -1.20606 0
M  V30 44628 C 4041.11 -4.75344 -2.44852 0
M  V30 44629 C 4042.41 -5.21371 -0.311415 0
M  V30 44630 H 4044.1 -2.99234 0.0998039 0
M  V30 44631 H 4041.65 -1.43915 0.049441 0
M  V30 44632 H 4043.6 -3.54855 -2.2728 0
M  V30 44633 H 4042.33 -2.3065 -2.31232 0
M  V30 44634 H 4040.99 -3.61212 -0.626217 0
M  V30 44635 H 4040.63 -3.98087 -3.07467 0
M  V30 44636 H 4040.33 -5.47054 -2.14488 0
M  V30 44637 H 4041.86 -5.28471 -3.05861 0
M  V30 44638 H 4043.27 -5.67394 -0.820768 0
M  V30 44639 H 4041.67 -6.00017 -0.0999672 0
M  V30 44640 H 4042.74 -4.80466 0.654266 0
M  V30 44641 N 4044.08 -0.0652232 -1.57465 0
M  V30 44642 C 4045.33 0.606291 -1.93525 0
M  V30 44643 C 4045.66 1.69658 -0.944977 0
M  V30 44644 O 4044.94 1.94481 0.0268529 0
M  V30 44645 C 4045.22 1.18935 -3.39892 0
M  V30 44646 C 4045.07 0.106156 -4.49675 0
M  V30 44647 C 4046.39 2.09682 -3.86939 0
M  V30 44648 H 4043.51 0.218927 -0.703733 0
M  V30 44649 H 4046.15 -0.129853 -1.89556 0
M  V30 44650 H 4044.3 1.81673 -3.43405 0
M  V30 44651 H 4045.97 -0.526564 -4.58285 0
M  V30 44652 H 4044.22 -0.564061 -4.30117 0
M  V30 44653 H 4044.89 0.554392 -5.49209 0
M  V30 44654 H 4047.36 1.56888 -3.8539 0
M  V30 44655 H 4046.24 2.47415 -4.89976 0
M  V30 44656 H 4046.5 3.00252 -3.24502 0
M  V30 44657 N 4045.56 1.56218 0.208282 0
M  V30 44658 C 4046.84 1.70657 0.955808 0
M  V30 44659 C 4047.22 0.616276 2.01904 0
M  V30 44660 O 4046.56 -0.374754 2.25406 0
M  V30 44661 C 4046.77 3.12482 1.55421 0
M  V30 44662 C 4048.12 3.72306 2.0414 0
M  V30 44663 O 4049.15 3.15528 1.6529 0
M  V30 44664 O 4048.01 4.71925 2.75588 0
M  V30 44665 H 4045.1 0.695561 0.447352 0
M  V30 44666 H 4047.65 1.68529 0.199017 0
M  V30 44667 H 4046.42 3.83301 0.787157 0
M  V30 44668 H 4046.04 3.18783 2.37619 0
M  V30 44669 N 4047.04 -0.475502 1.50256 0
M  V30 44670 C 4048.45 -1.05648 1.53933 0
M  V30 44671 C 4048.8 -1.93227 0.340259 0
M  V30 44672 O 4047.92 -2.09364 -0.547312 0
M  V30 44673 C 4048.52 -1.92276 2.78954 0
M  V30 44674 C 4047.08 -2.4549 2.85327 0
M  V30 44675 C 4046.23 -1.23725 2.48168 0
M  V30 44676 H 4049.18 -0.258305 1.56584 0
M  V30 44677 H 4049.2 -2.77288 2.6056 0
M  V30 44678 H 4048.71 -1.28508 3.66207 0
M  V30 44679 H 4046.81 -3.12824 2.02416 0
M  V30 44680 H 4046.92 -2.80899 3.88114 0
M  V30 44681 H 4045.29 -1.57063 2.00508 0
M  V30 44682 H 4046.07 -0.616264 3.37723 0
M  V30 44683 N 4048.52 -1.39759 -0.72837 0
M  V30 44684 C 4049.43 -1.41296 -1.87276 0
M  V30 44685 C 4050.44 -0.306995 -1.7127 0
M  V30 44686 O 4051.62 -0.549536 -1.93758 0
M  V30 44687 C 4048.68 -1.26135 -3.22941 0
M  V30 44688 C 4047.74 -2.46763 -3.51293 0
M  V30 44689 C 4046.98 -2.32315 -4.80484 0
M  V30 44690 O 4047.2 -1.33015 -5.54674 0
M  V30 44691 O 4046.13 -3.21434 -5.08885 0
M  V30 44692 H 4049.96 -2.37776 -1.88935 0
M  V30 44693 H 4047.54 -1.20945 -0.877082 0
M  V30 44694 H 4049.43 -1.19839 -4.04001 0
M  V30 44695 H 4048.1 -0.327549 -3.22039 0
M  V30 44696 H 4047.01 -2.58636 -2.70293 0
M  V30 44697 H 4048.34 -3.3886 -3.5698 0
M  V30 44698 N 4049.99 0.959257 -1.25044 0
M  V30 44699 C 4051.24 1.70582 -1.0968 0
M  V30 44700 C 4051.57 1.90793 0.36215 0
M  V30 44701 O 4050.85 1.47554 1.2672 0
M  V30 44702 C 4051.13 3.09153 -1.84652 0
M  V30 44703 C 4050.98 2.96381 -3.38347 0
M  V30 44704 C 4052.3 4.08963 -1.62596 0
M  V30 44705 H 4049.42 0.619118 -0.399828 0
M  V30 44706 H 4052.06 1.11535 -1.53818 0
M  V30 44707 H 4050.21 3.5956 -1.47135 0
M  V30 44708 H 4051.89 2.53335 -3.85512 0
M  V30 44709 H 4050.13 2.32402 -3.66295 0
M  V30 44710 H 4050.8 3.94585 -3.86014 0
M  V30 44711 H 4053.28 3.67448 -1.95247 0
M  V30 44712 H 4052.15 5.03971 -2.17497 0
M  V30 44713 H 4052.41 4.3846 -0.56618 0
M  V30 44714 N 4051.47 1.06556 1.16119 0
M  V30 44715 C 4052.42 0.648639 2.18579 0
M  V30 44716 C 4053.41 -0.322063 1.57644 0
M  V30 44717 O 4054.6 -0.137082 1.76468 0
M  V30 44718 C 4051.73 0.0393931 3.43277 0
M  V30 44719 C 4050.81 1.03475 4.11283 0
M  V30 44720 N 4051.2 2.21132 4.549 0
M  V30 44721 C 4049.5 0.866277 4.37506 0
M  V30 44722 C 4050.2 2.84214 5.07541 0
M  V30 44723 N 4049.18 2.11926 5.00588 0
M  V30 44724 H 4052.98 1.54488 2.50022 0
M  V30 44725 H 4050.5 0.937611 1.32599 0
M  V30 44726 H 4052.49 -0.277138 4.15978 0
M  V30 44727 H 4051.15 -0.852064 3.13321 0
M  V30 44728 H 4052.16 2.58895 4.48547 0
M  V30 44729 H 4048.84 0.0270333 4.17491 0
M  V30 44730 H 4050.23 3.84069 5.51308 0
M  V30 44731 N 4052.95 -1.32808 0.848511 0
M  V30 44732 C 4054.2 -1.97072 0.448004 0
M  V30 44733 C 4054.52 -1.67506 -0.998328 0
M  V30 44734 O 4053.79 -0.97904 -1.69681 0
M  V30 44735 H 4052.37 -0.729072 0.162676 0
M  V30 44736 H 4055.03 -1.62001 1.08359 0
M  V30 44737 H 4054.13 -3.06511 0.587992 0
M  V30 44738 N 4054.43 -0.605858 -1.45489 0
M  V30 44739 C 4055.84 -0.269367 -1.5731 0
M  V30 44740 C 4056.04 1.22811 -1.59749 0
M  V30 44741 O 4055.1 2.01105 -1.52686 0
M  V30 44742 C 4056.41 -0.939013 -2.85662 0
M  V30 44743 C 4057.96 -0.91477 -2.99334 0
M  V30 44744 C 4058.44 -1.56439 -4.30454 0
M  V30 44745 N 4059.93 -1.5298 -4.37209 0
M  V30 44746 C 4060.66 -2.00162 -5.37329 0
M  V30 44747 N 4060.16 -2.55421 -6.43997 0
M  V30 44748 N 4061.95 -1.9094 -5.28676 0
M  V30 44749 H 4054.1 -1.5782 -1.4215 0
M  V30 44750 H 4056.37 -0.661016 -0.679531 0
M  V30 44751 H 4056.07 -1.99335 -2.89756 0
M  V30 44752 H 4055.95 -0.461244 -3.74369 0
M  V30 44753 H 4058.33 0.131017 -2.94809 0
M  V30 44754 H 4058.41 -1.43079 -2.12043 0
M  V30 44755 H 4058.06 -2.6095 -4.35738 0
M  V30 44756 H 4057.99 -1.02341 -5.1656 0
M  V30 44757 H 4060.48 -1.12611 -3.60731 0
M  V30 44758 H 4060.79 -2.8922 -7.16639 0
M  V30 44759 H 4059.14 -2.59459 -6.44753 0
M  V30 44760 H 4062.33 -1.4751 -4.4425 0
M  V30 44761 H 4062.5 -2.28024 -6.06555 0
M  V30 44762 N 4055.91 1.53779 -0.34492 0
M  V30 44763 C 4057.16 2.00117 0.252181 0
M  V30 44764 C 4057.47 1.23666 1.51546 0
M  V30 44765 O 4058.67 1.60488 2.18988 0
M  V30 44766 C 4057.13 3.56411 0.49992 0
M  V30 44767 C 4056.74 4.41719 -0.747532 0
M  V30 44768 C 4058.48 4.11161 1.05581 0
M  V30 44769 C 4056.39 5.89525 -0.470517 0
M  V30 44770 H 4055.32 0.747603 0.0980102 0
M  V30 44771 H 4057.97 1.77629 -0.460462 0
M  V30 44772 H 4056.35 3.74971 1.2733 0
M  V30 44773 H 4057.53 4.34935 -1.52212 0
M  V30 44774 H 4055.84 3.97969 -1.22515 0
M  V30 44775 H 4058.44 5.19202 1.27804 0
M  V30 44776 H 4058.78 3.64465 2.01174 0
M  V30 44777 H 4059.31 3.96318 0.343097 0
M  V30 44778 H 4056.05 6.40458 -1.39621 0
M  V30 44779 H 4055.57 5.9921 0.26596 0
M  V30 44780 H 4057.25 6.4694 -0.0882744 0
M  V30 44781 N 4057.38 0.0735731 1.57428 0
M  V30 44782 C 4058.61 -0.607556 1.98302 0
M  V30 44783 C 4059.03 -1.62247 0.951714 0
M  V30 44784 O 4058.39 -1.81112 -0.082469 0
M  V30 44785 C 4058.44 -1.25104 3.38203 0
M  V30 44786 O 4057.54 -2.3669 3.37716 0
M  V30 44787 H 4056.89 -0.156092 0.645392 0
M  V30 44788 H 4059.42 0.148614 2.0406 0
M  V30 44789 H 4059.43 -1.59746 3.75427 0
M  V30 44790 H 4058.1 -0.507377 4.12794 0
M  V30 44791 H 4056.68 -2.03827 3.12264 0
M  V30 44792 N 4058.86 -1.56326 -0.199995 0
M  V30 44793 C 4060.09 -1.84443 -0.93747 0
M  V30 44794 C 4060.51 -0.655459 -1.77057 0
M  V30 44795 O 4059.86 0.375881 -1.78587 0
M  V30 44796 C 4059.91 -3.1131 -1.83761 0
M  V30 44797 O 4059.63 -4.25622 -1.03815 0
M  V30 44798 C 4061.14 -3.5257 -2.68718 0
M  V30 44799 H 4058.36 -0.612616 -0.273756 0
M  V30 44800 H 4060.9 -2.03432 -0.208723 0
M  V30 44801 H 4059.05 -2.94233 -2.52004 0
M  V30 44802 H 4059.47 -4.97834 -1.65111 0
M  V30 44803 H 4060.94 -4.4432 -3.27542 0
M  V30 44804 H 4061.42 -2.75329 -3.42185 0
M  V30 44805 H 4062.03 -3.72162 -2.05854 0
M  V30 44806 N 4060.34 0.467527 -1.50506 0
M  V30 44807 C 4061.25 1.59084 -1.72422 0
M  V30 44808 C 4062.27 1.63053 -0.607432 0
M  V30 44809 O 4063.44 1.80856 -0.886179 0
M  V30 44810 C 4060.51 2.95278 -1.81691 0
M  V30 44811 C 4059.57 3.0167 -3.05441 0
M  V30 44812 C 4058.8 4.31367 -3.14258 0
M  V30 44813 O 4059.02 5.22072 -2.29776 0
M  V30 44814 O 4057.96 4.43424 -4.07012 0
M  V30 44815 H 4061.78 1.43515 -2.67651 0
M  V30 44816 H 4059.37 0.647398 -1.34644 0
M  V30 44817 H 4061.25 3.76162 -1.89948 0
M  V30 44818 H 4059.93 3.11039 -0.896459 0
M  V30 44819 H 4058.83 2.19851 -3.02682 0
M  V30 44820 H 4060.17 2.90846 -3.97076 0
M  V30 44821 N 4061.82 1.40143 0.720948 0
M  V30 44822 C 4062.73 1.42288 1.86525 0
M  V30 44823 C 4063.74 0.316074 1.71105 0
M  V30 44824 O 4064.92 0.559804 1.93464 0
M  V30 44825 C 4061.99 1.27846 3.22267 0
M  V30 44826 C 4061.05 2.48622 3.49979 0
M  V30 44827 C 4060.28 2.3486 4.79246 0
M  V30 44828 O 4060.5 1.35954 5.53961 0
M  V30 44829 O 4059.44 3.24128 5.07173 0
M  V30 44830 H 4063.26 2.38775 1.87671 0
M  V30 44831 H 4060.85 1.21408 0.870655 0
M  V30 44832 H 4062.73 1.2198 4.0336 0
M  V30 44833 H 4061.4 0.344623 3.2186 0
M  V30 44834 H 4060.31 2.60066 2.68918 0
M  V30 44835 H 4061.64 3.40748 3.55178 0
M  V30 44836 N 4063.3 -0.952612 1.25551 0
M  V30 44837 C 4064.26 -2.03117 1.0619 0
M  V30 44838 C 4065.26 -1.60794 0.0140248 0
M  V30 44839 O 4066.45 -1.72303 0.256397 0
M  V30 44840 C 4063.58 -3.35348 0.612733 0
M  V30 44841 H 4064.77 -2.21725 2.01936 0
M  V30 44842 H 4062.33 -1.12998 1.07986 0
M  V30 44843 H 4063.06 -3.22436 -0.347236 0
M  V30 44844 H 4062.85 -3.67416 1.36923 0
M  V30 44845 H 4064.34 -4.14611 0.498766 0
M  V30 44846 N 4064.77 -1.0717 -1.15553 0
M  V30 44847 C 4066.02 -0.788759 -1.85638 0
M  V30 44848 C 4066.34 0.687623 -1.83115 0
M  V30 44849 O 4067.54 1.08527 -2.48866 0
M  V30 44850 C 4066 -1.3609 -3.33178 0
M  V30 44851 C 4065.61 -2.86816 -3.44152 0
M  V30 44852 C 4067.35 -1.1559 -4.0846 0
M  V30 44853 C 4065.26 -3.3723 -4.85829 0
M  V30 44854 H 4064.19 -0.291383 -0.695422 0
M  V30 44855 H 4066.84 -1.29153 -1.30352 0
M  V30 44856 H 4065.22 -0.78587 -3.88124 0
M  V30 44857 H 4066.39 -3.50347 -2.99322 0
M  V30 44858 H 4064.71 -3.06086 -2.82313 0
M  V30 44859 H 4067.31 -1.50734 -5.13014 0
M  V30 44860 H 4067.65 -0.0948181 -4.16192 0
M  V30 44861 H 4068.18 -1.69719 -3.59778 0
M  V30 44862 H 4064.92 -4.42856 -4.83279 0
M  V30 44863 H 4064.44 -2.78452 -5.31248 0
M  V30 44864 H 4066.12 -3.33078 -5.54678 0
M  V30 44865 N 4066.25 1.32356 -0.855542 0
M  V30 44866 C 4067.67 1.49988 -0.545517 0
M  V30 44867 C 4067.87 1.79085 0.923625 0
M  V30 44868 O 4066.93 1.86094 1.70661 0
M  V30 44869 C 4068.24 2.64344 -1.43327 0
M  V30 44870 C 4069.79 2.78229 -1.43379 0
M  V30 44871 C 4070.26 3.95666 -2.30678 0
M  V30 44872 N 4071.75 4.02929 -2.28479 0
M  V30 44873 C 4072.49 4.93034 -2.92754 0
M  V30 44874 N 4071.98 5.8814 -3.66146 0
M  V30 44875 N 4073.78 4.86163 -2.82138 0
M  V30 44876 H 4065.93 1.11735 -1.80635 0
M  V30 44877 H 4068.19 0.550792 -0.771578 0
M  V30 44878 H 4067.9 2.49574 -2.47802 0
M  V30 44879 H 4067.77 3.60148 -1.12131 0
M  V30 44880 H 4070.16 2.92422 -0.396693 0
M  V30 44881 H 4070.24 1.83136 -1.78591 0
M  V30 44882 H 4069.88 3.82232 -3.34456 0
M  V30 44883 H 4069.81 4.90037 -1.92798 0
M  V30 44884 H 4072.3 3.34875 -1.75121 0
M  V30 44885 H 4072.62 6.53592 -4.12355 0
M  V30 44886 H 4070.96 5.88164 -3.70254 0
M  V30 44887 H 4074.15 4.10833 -2.24351 0
M  V30 44888 H 4074.33 5.56183 -3.32512 0
M  V30 44889 N 4067.73 0.613565 1.45166 0
M  V30 44890 C 4068.68 -0.101771 2.30576 0
M  V30 44891 C 4069.65 -0.854135 1.42456 0
M  V30 44892 O 4070.83 -0.838681 1.71379 0
M  V30 44893 C 4067.97 -1.0892 3.27461 0
M  V30 44894 C 4067.09 -0.337088 4.30683 0
M  V30 44895 C 4066.22 -1.31477 5.14672 0
M  V30 44896 C 4065.26 -0.550811 6.09617 0
M  V30 44897 N 4064.4 -1.47808 6.86365 0
M  V30 44898 H 4069.24 0.632546 2.91209 0
M  V30 44899 H 4066.77 0.32373 1.43494 0
M  V30 44900 H 4068.73 -1.67489 3.82104 0
M  V30 44901 H 4067.36 -1.79086 2.68567 0
M  V30 44902 H 4066.41 0.364211 3.78652 0
M  V30 44903 H 4067.73 0.258716 4.98129 0
M  V30 44904 H 4066.88 -1.97233 5.73746 0
M  V30 44905 H 4065.62 -1.94451 4.47259 0
M  V30 44906 H 4064.62 0.120347 5.49668 0
M  V30 44907 H 4065.85 0.0739594 6.7906 0
M  V30 44908 H 4063.8 -2.09534 6.21636 0
M  V30 44909 H 4063.71 -0.935857 7.50185 0
M  V30 44910 H 4064.98 -2.12503 7.49975 0
M  V30 44911 N 4069.21 -1.53594 0.353071 0
M  V30 44912 C 4070.46 -2.00669 -0.240037 0
M  V30 44913 C 4070.78 -1.24237 -1.50301 0
M  V30 44914 O 4070.05 -0.352152 -1.92709 0
M  V30 44915 H 4068.63 -0.741352 -0.0916885 0
M  V30 44916 H 4071.29 -1.88987 0.476423 0
M  V30 44917 H 4070.39 -3.08452 -0.475815 0
M  V30 44918 N 4070.69 -0.0819208 -1.57387 0
M  V30 44919 C 4071.93 0.584865 -1.9387 0
M  V30 44920 C 4072.26 1.69003 -0.962716 0
M  V30 44921 O 4071.52 1.9569 0.0199611 0
M  V30 44922 C 4071.82 1.19187 -3.36941 0
M  V30 44923 C 4071.48 0.211828 -4.50402 0
M  V30 44924 C 4070.14 -0.0577603 -4.81165 0
M  V30 44925 C 4072.5 -0.458083 -5.19183 0
M  V30 44926 C 4069.82 -1.00418 -5.78043 0
M  V30 44927 C 4072.18 -1.39289 -6.17075 0
M  V30 44928 C 4070.84 -1.67084 -6.4625 0
M  V30 44929 H 4070.11 0.214017 -0.709421 0
M  V30 44930 H 4072.76 -0.154952 -1.90872 0
M  V30 44931 H 4071.06 2.00765 -3.36453 0
M  V30 44932 H 4072.76 1.71526 -3.62464 0
M  V30 44933 H 4069.35 0.432135 -4.26416 0
M  V30 44934 H 4073.53 -0.262934 -4.95603 0
M  V30 44935 H 4068.79 -1.22667 -5.98968 0
M  V30 44936 H 4072.96 -1.91787 -6.6947 0
M  V30 44937 H 4070.59 -2.40579 -7.21128 0
M  V30 44938 N 4072.17 1.5643 0.191702 0
M  V30 44939 C 4073.41 1.80017 0.909765 0
M  V30 44940 C 4073.73 0.655723 1.84281 0
M  V30 44941 O 4074.93 0.775986 2.60174 0
M  V30 44942 C 4073.39 3.18906 1.66813 0
M  V30 44943 C 4073 4.41162 0.77974 0
M  V30 44944 C 4074.74 3.51801 2.37563 0
M  V30 44945 C 4072.65 5.71074 1.53717 0
M  V30 44946 H 4071.58 0.671236 0.343451 0
M  V30 44947 H 4074.23 1.82775 0.16299 0
M  V30 44948 H 4072.61 3.10408 2.45892 0
M  V30 44949 H 4073.79 4.60792 0.0273714 0
M  V30 44950 H 4072.1 4.15998 0.182907 0
M  V30 44951 H 4074.7 4.46099 2.94788 0
M  V30 44952 H 4075.04 2.75707 3.11916 0
M  V30 44953 H 4075.57 3.61762 1.65448 0
M  V30 44954 H 4072.31 6.50142 0.836361 0
M  V30 44955 H 4071.83 5.55456 2.26338 0
M  V30 44956 H 4073.51 6.12311 2.09007 0
M  V30 44957 N 4073.64 -0.459538 1.50751 0
M  V30 44958 C 4074.92 -1.22059 1.52843 0
M  V30 44959 C 4075.3 -2.09238 0.279753 0
M  V30 44960 O 4074.65 -2.16312 -0.736302 0
M  V30 44961 C 4074.86 -2.04166 2.8305 0
M  V30 44962 C 4076.21 -2.61964 3.34155 0
M  V30 44963 O 4077.23 -2.14398 2.8445 0
M  V30 44964 O 4076.09 -3.48661 4.2083 0
M  V30 44965 H 4073.18 -0.554504 0.613559 0
M  V30 44966 H 4075.73 -0.470417 1.6305 0
M  V30 44967 H 4074.5 -1.39997 3.65399 0
M  V30 44968 H 4074.12 -2.86294 2.75901 0
M  V30 44969 N 4075.12 -1.40523 -0.713506 0
M  V30 44970 C 4076.37 -1.38639 -1.47049 0
M  V30 44971 C 4076.69 0.00981046 -1.94998 0
M  V30 44972 O 4075.96 0.964929 -1.70487 0
M  V30 44973 H 4074.54 -0.510259 -0.545568 0
M  V30 44974 H 4077.2 -1.75596 -0.845689 0
M  V30 44975 H 4076.3 -2.06256 -2.34233 0
M  V30 44976 N 4076.6 0.94594 -1.26054 0
M  V30 44977 C 4078.02 1.2186 -1.03064 0
M  V30 44978 C 4078.22 1.99978 0.24717 0
M  V30 44979 O 4077.27 2.33638 0.957581 0
M  V30 44980 C 4078.58 1.98451 -2.25915 0
M  V30 44981 C 4080.13 2.11461 -2.30767 0
M  V30 44982 C 4080.61 2.91453 -3.53297 0
M  V30 44983 N 4082.1 2.99029 -3.53746 0
M  V30 44984 C 4082.83 3.61339 -4.45221 0
M  V30 44985 N 4082.33 4.25189 -5.46979 0
M  V30 44986 N 4084.12 3.58565 -4.32883 0
M  V30 44987 H 4076.27 0.423579 -2.08134 0
M  V30 44988 H 4078.54 0.24991 -0.914467 0
M  V30 44989 H 4078.24 1.48456 -3.18832 0
M  V30 44990 H 4078.12 2.99132 -2.29782 0
M  V30 44991 H 4080.5 2.6065 -1.38367 0
M  V30 44992 H 4080.58 1.10058 -2.30913 0
M  V30 44993 H 4080.23 2.42952 -4.46023 0
M  V30 44994 H 4080.16 3.93102 -3.50398 0
M  V30 44995 H 4082.65 2.53631 -2.80142 0
M  V30 44996 H 4082.96 4.70618 -6.12975 0
M  V30 44997 H 4081.31 4.23791 -5.50842 0
M  V30 44998 H 4084.5 3.07873 -3.52607 0
M  V30 44999 H 4084.67 4.06838 -5.04367 0
M  V30 45000 N 4078.08 1.07781 1.14983 0
M  V30 45001 C 4079.04 0.705917 2.18058 0
M  V30 45002 C 4080.04 -0.256054 1.58748 0
M  V30 45003 O 4081.23 -0.0364371 1.74162 0
M  V30 45004 C 4078.36 0.0411853 3.40875 0
M  V30 45005 H 4079.56 1.61856 2.52473 0
M  V30 45006 H 4077.11 0.874886 1.2952 0
M  V30 45007 H 4077.84 -0.883493 3.12033 0
M  V30 45008 H 4077.63 0.733128 3.85185 0
M  V30 45009 H 4079.12 -0.204202 4.171 0
M  V30 45010 N 4079.56 -1.31901 0.862549 0
M  V30 45011 C 4080.52 -2.26985 0.317876 0
M  V30 45012 C 4081.52 -1.51921 -0.526932 0
M  V30 45013 O 4082.71 -1.70903 -0.337306 0
M  V30 45014 C 4079.84 -3.36444 -0.549381 0
M  V30 45015 H 4081.03 -2.76675 1.15719 0
M  V30 45016 H 4078.59 -1.42707 0.637526 0
M  V30 45017 H 4079.32 -2.92034 -1.41019 0
M  V30 45018 H 4079.11 -3.92061 0.0554331 0
M  V30 45019 H 4080.6 -4.07272 -0.922987 0
M  V30 45020 N 4081.03 -0.621255 -1.44838 0
M  V30 45021 C 4081.97 0.12784 -2.28843 0
M  V30 45022 C 4082.98 0.818517 -1.40727 0
M  V30 45023 O 4084.17 0.681616 -1.64973 0
M  V30 45024 C 4081.27 1.20275 -3.16839 0
M  V30 45025 C 4080.44 0.596523 -4.33313 0
M  V30 45026 C 4079.5 1.5641 -5.02416 0
M  V30 45027 O 4078.53 1.08508 -5.58762 0
M  V30 45028 N 4079.73 2.89851 -5.02958 0
M  V30 45029 H 4082.49 -0.593045 -2.93774 0
M  V30 45030 H 4080.05 -0.461707 -1.55177 0
M  V30 45031 H 4082.05 1.85015 -3.59933 0
M  V30 45032 H 4080.62 1.82599 -2.53725 0
M  V30 45033 H 4079.84 -0.229272 -3.93533 0
M  V30 45034 H 4081.12 0.171971 -5.08509 0
M  V30 45035 H 4080.52 3.31359 -4.58495 0
M  V30 45036 H 4079.08 3.49978 -5.49872 0
M  V30 45037 N 4082.51 1.53405 -0.361211 0
M  V30 45038 C 4083.93 1.59597 -0.0099759 0
M  V30 45039 C 4084.13 1.37652 1.47154 0
M  V30 45040 O 4083.18 1.17951 2.23257 0
M  V30 45041 C 4084.5 2.9713 -0.461994 0
M  V30 45042 C 4086.05 3.10225 -0.415841 0
M  V30 45043 C 4086.52 4.50164 -0.843603 0
M  V30 45044 N 4088.01 4.56266 -0.798488 0
M  V30 45045 C 4088.75 5.62726 -1.10121 0
M  V30 45046 N 4088.24 6.7696 -1.473 0
M  V30 45047 N 4090.04 5.52689 -1.0243 0
M  V30 45048 H 4082.19 1.65922 -1.32604 0
M  V30 45049 H 4084.45 0.777975 -0.541718 0
M  V30 45050 H 4084.16 3.18313 -1.49564 0
M  V30 45051 H 4084.03 3.76887 0.153664 0
M  V30 45052 H 4086.42 2.88755 0.608668 0
M  V30 45053 H 4086.5 2.32487 -1.06694 0
M  V30 45054 H 4086.14 4.72372 -1.86621 0
M  V30 45055 H 4086.07 5.26326 -0.169802 0
M  V30 45056 H 4088.56 3.74242 -0.524529 0
M  V30 45057 H 4088.88 7.54131 -1.68837 0
M  V30 45058 H 4087.22 6.78362 -1.51161 0
M  V30 45059 H 4090.41 4.62324 -0.73306 0
M  V30 45060 H 4090.58 6.35561 -1.26356 0
M  V30 45061 N 4083.99 0.0902663 1.57341 0
M  V30 45062 C 4084.92 -0.867602 2.16783 0
M  V30 45063 C 4085.9 -1.29759 1.09985 0
M  V30 45064 O 4087.09 -1.36534 1.38101 0
M  V30 45065 C 4084.22 -2.12851 2.7443 0
M  V30 45066 C 4083.17 -1.83731 3.86558 0
M  V30 45067 C 4082.5 -3.16609 4.30886 0
M  V30 45068 C 4083.8 -1.12805 5.09973 0
M  V30 45069 H 4085.49 -0.372364 2.97075 0
M  V30 45070 H 4083.04 -0.177664 1.429 0
M  V30 45071 H 4084.99 -2.80294 3.14664 0
M  V30 45072 H 4083.71 -2.6465 1.91385 0
M  V30 45073 H 4082.37 -1.18688 3.46856 0
M  V30 45074 H 4082.02 -3.66285 3.44738 0
M  V30 45075 H 4081.72 -2.97909 5.06482 0
M  V30 45076 H 4083.24 -3.85218 4.7375 0
M  V30 45077 H 4084.66 -1.70349 5.47407 0
M  V30 45078 H 4083.06 -1.04301 5.90966 0
M  V30 45079 H 4084.13 -0.110029 4.84775 0
M  V30 45080 N 4085.47 -1.56529 -0.183403 0
M  V30 45081 C 4086.4 -1.92014 -1.25154 0
M  V30 45082 C 4087.41 -0.81197 -1.41106 0
M  V30 45083 O 4088.6 -1.0904 -1.41324 0
M  V30 45084 C 4085.7 -2.14717 -2.62202 0
M  V30 45085 C 4084.88 -3.45908 -2.67706 0
M  V30 45086 C 4083.93 -3.57583 -3.86032 0
M  V30 45087 O 4082.96 -4.30307 -3.72591 0
M  V30 45088 N 4084.16 -2.91536 -5.01983 0
M  V30 45089 H 4086.93 -2.84236 -0.950254 0
M  V30 45090 H 4084.49 -1.57539 -0.373251 0
M  V30 45091 H 4086.48 -2.19804 -3.39806 0
M  V30 45092 H 4085.05 -1.28937 -2.8477 0
M  V30 45093 H 4084.27 -3.52585 -1.76288 0
M  V30 45094 H 4085.56 -4.32259 -2.68384 0
M  V30 45095 H 4084.96 -2.32301 -5.15803 0
M  V30 45096 H 4083.51 -3.02236 -5.77492 0
M  V30 45097 N 4086.95 0.451537 -1.50993 0
M  V30 45098 C 4088.22 1.21247 -1.53488 0
M  V30 45099 C 4088.6 2.09087 -0.290846 0
M  V30 45100 O 4087.95 2.16699 0.72482 0
M  V30 45101 C 4088.16 2.02662 -2.84129 0
M  V30 45102 C 4089.51 2.60189 -3.3554 0
M  V30 45103 O 4090.53 2.12887 -2.85583 0
M  V30 45104 O 4089.39 3.46424 -4.22673 0
M  V30 45105 H 4086.49 0.551243 -0.616491 0
M  V30 45106 H 4089.03 0.461763 -1.63297 0
M  V30 45107 H 4087.8 1.38057 -3.66136 0
M  V30 45108 H 4087.43 2.84827 -2.77415 0
M  V30 45109 N 4088.42 1.409 0.706044 0
M  V30 45110 C 4089.65 1.43028 1.49501 0
M  V30 45111 C 4090.07 0.0326084 1.88772 0
M  V30 45112 O 4089.42 -0.945688 1.56086 0
M  V30 45113 C 4089.48 2.3296 2.76427 0
M  V30 45114 O 4089.2 3.67287 2.38814 0
M  V30 45115 C 4090.7 2.43781 3.70251 0
M  V30 45116 H 4087.92 0.487508 0.461061 0
M  V30 45117 H 4090.46 1.85063 0.870166 0
M  V30 45118 H 4088.62 1.94261 3.35174 0
M  V30 45119 H 4089.03 4.15146 3.20553 0
M  V30 45120 H 4090.5 3.10895 4.56123 0
M  V30 45121 H 4090.98 1.4658 4.14018 0
M  V30 45122 H 4091.59 2.83072 3.17412 0
M  V30 45123 N 4089.9 -0.939242 1.26554 0
M  V30 45124 C 4091.13 -1.7253 1.15101 0
M  V30 45125 C 4091.55 -1.85855 -0.289778 0
M  V30 45126 O 4090.91 -1.35019 -1.20994 0
M  V30 45127 C 4090.96 -3.10886 1.82709 0
M  V30 45128 O 4090.06 -3.96979 1.11719 0
M  V30 45129 H 4089.4 -0.529271 0.40096 0
M  V30 45130 H 4091.93 -1.17622 1.6741 0
M  V30 45131 H 4091.94 -3.61265 1.89609 0
M  V30 45132 H 4090.62 -3.00504 2.87524 0
M  V30 45133 H 4089.2 -3.55428 1.12807 0
M  V30 45134 N 4091.38 -1.08389 -1.14409 0
M  V30 45135 C 4092.61 -0.835048 -1.89847 0
M  V30 45136 C 4093.03 0.60706 -1.78035 0
M  V30 45137 O 4092.39 1.42536 -1.12041 0
M  V30 45138 C 4092.44 -1.26147 -3.37815 0
M  V30 45139 O 4091.54 -0.413292 -4.10324 0
M  V30 45140 H 4090.88 -0.303309 -0.590677 0
M  V30 45141 H 4093.41 -1.44527 -1.44821 0
M  V30 45142 H 4093.42 -1.24225 -3.88629 0
M  V30 45143 H 4092.1 -2.31178 -3.4573 0
M  V30 45144 H 4090.67 -0.495919 -3.69588 0
M  V30 45145 N 4092.86 1.31442 -0.869532 0
M  V30 45146 C 4094.09 2.00607 -0.493985 0
M  V30 45147 C 4094.5 1.6544 0.917944 0
M  V30 45148 O 4093.84 0.879475 1.61279 0
M  V30 45149 C 4093.9 3.5494 -0.570766 0
M  V30 45150 C 4093.57 4.1358 -1.94423 0
M  V30 45151 C 4094.56 4.30717 -2.91168 0
M  V30 45152 C 4092.25 4.49317 -2.24543 0
M  V30 45153 C 4094.24 4.82781 -4.16175 0
M  V30 45154 C 4091.93 5.01082 -3.49799 0
M  V30 45155 C 4092.93 5.17765 -4.45431 0
M  V30 45156 O 4092.61 5.68419 -5.68468 0
M  V30 45157 H 4092.35 0.648457 -0.190997 0
M  V30 45158 H 4094.9 1.68656 -1.17236 0
M  V30 45159 H 4093.13 3.8635 0.164525 0
M  V30 45160 H 4094.82 4.05363 -0.208708 0
M  V30 45161 H 4095.59 4.03426 -2.69207 0
M  V30 45162 H 4091.46 4.35609 -1.50884 0
M  V30 45163 H 4095.01 4.95717 -4.90826 0
M  V30 45164 H 4090.91 5.27807 -3.71604 0
M  V30 45165 H 4091.67 5.86788 -5.70633 0
M  V30 45166 N 4094.34 0.628927 1.44507 0
M  V30 45167 C 4095.3 -0.0676098 2.291 0
M  V30 45168 C 4096.3 -0.774445 1.40922 0
M  V30 45169 O 4097.49 -0.619368 1.62817 0
M  V30 45170 C 4094.62 -1.10628 3.2245 0
M  V30 45171 H 4095.81 0.676395 2.92173 0
M  V30 45172 H 4093.37 0.38896 1.51383 0
M  V30 45173 H 4094.1 -1.88034 2.64223 0
M  V30 45174 H 4093.89 -0.603397 3.87429 0
M  V30 45175 H 4095.38 -1.59347 3.86003 0
M  V30 45176 N 4095.82 -1.53211 0.369342 0
M  V30 45177 C 4096.76 -2.25852 -0.475359 0
M  V30 45178 C 4097.73 -1.26671 -1.07442 0
M  V30 45179 O 4098.92 -1.5546 -1.1062 0
M  V30 45180 C 4096.06 -3.0539 -1.60719 0
M  V30 45181 C 4095.17 -4.19469 -1.03294 0
M  V30 45182 C 4094.31 -4.86442 -2.13419 0
M  V30 45183 C 4093.34 -5.92546 -1.53479 0
M  V30 45184 N 4092.48 -6.53195 -2.57451 0
M  V30 45185 H 4097.32 -2.97619 0.150586 0
M  V30 45186 H 4094.86 -1.46848 0.0860835 0
M  V30 45187 H 4096.82 -3.49783 -2.27394 0
M  V30 45188 H 4095.45 -2.35871 -2.20374 0
M  V30 45189 H 4094.5 -3.79535 -0.256371 0
M  V30 45190 H 4095.81 -4.95706 -0.554743 0
M  V30 45191 H 4094.96 -5.34037 -2.87906 0
M  V30 45192 H 4093.7 -4.09686 -2.64592 0
M  V30 45193 H 4092.71 -5.44309 -0.77508 0
M  V30 45194 H 4093.93 -6.71224 -1.03126 0
M  V30 45195 H 4091.88 -5.79289 -3.07831 0
M  V30 45196 H 4091.8 -7.24982 -2.14329 0
M  V30 45197 H 4093.06 -7.05438 -3.31629 0
M  V30 45198 N 4097.29 -0.0986092 -1.57291 0
M  V30 45199 C 4098.54 0.563977 -1.93655 0
M  V30 45200 C 4098.86 1.69119 -0.982752 0
M  V30 45201 O 4100.06 2.41517 -1.24024 0
M  V30 45202 C 4098.52 1.0546 -3.44102 0
M  V30 45203 C 4098.13 -0.043053 -4.47979 0
M  V30 45204 C 4099.87 1.68972 -3.89421 0
M  V30 45205 C 4097.78 0.463123 -5.89584 0
M  V30 45206 H 4096.71 0.214444 -0.722862 0
M  V30 45207 H 4099.36 -0.175178 -1.82662 0
M  V30 45208 H 4097.74 1.84755 -3.50259 0
M  V30 45209 H 4098.91 -0.818667 -4.53469 0
M  V30 45210 H 4097.23 -0.583573 -4.1229 0
M  V30 45211 H 4099.83 2.07921 -4.92618 0
M  V30 45212 H 4100.17 2.56026 -3.28263 0
M  V30 45213 H 4100.7 0.962534 -3.85979 0
M  V30 45214 H 4097.44 -0.370882 -6.5445 0
M  V30 45215 H 4096.96 1.20566 -5.87557 0
M  V30 45216 H 4098.64 0.930959 -6.40267 0
M  V30 45217 N 4098.77 1.56624 0.175099 0
M  V30 45218 C 4099.7 1.99146 1.21915 0
M  V30 45219 C 4100.68 0.866453 1.46378 0
M  V30 45220 O 4101.87 1.13226 1.57777 0
M  V30 45221 C 4099 2.34811 2.55893 0
M  V30 45222 C 4097.95 3.50236 2.46005 0
M  V30 45223 C 4097.28 3.71633 3.84439 0
M  V30 45224 C 4098.58 4.83805 1.968 0
M  V30 45225 H 4100.27 2.86611 0.8657 0
M  V30 45226 H 4097.82 1.37891 0.41499 0
M  V30 45227 H 4099.77 2.63155 3.29131 0
M  V30 45228 H 4098.49 1.4425 2.93018 0
M  V30 45229 H 4097.15 3.22014 1.75221 0
M  V30 45230 H 4096.8 2.78369 4.1895 0
M  V30 45231 H 4096.5 4.49295 3.78692 0
M  V30 45232 H 4098.03 4.02374 4.59269 0
M  V30 45233 H 4099.44 5.11049 2.5981 0
M  V30 45234 H 4097.84 5.65077 2.0201 0
M  V30 45235 H 4098.91 4.76051 0.922126 0
M  V30 45236 N 4100.25 -0.443523 1.5123 0
M  V30 45237 C 4101.48 -1.21606 1.67391 0
M  V30 45238 C 4101.89 -1.85166 0.368645 0
M  V30 45239 O 4101.25 -1.70446 -0.652252 0
M  V30 45240 C 4101.3 -2.30464 2.78511 0
M  V30 45241 O 4101.02 -1.69505 4.0398 0
M  V30 45242 C 4102.52 -3.20855 3.05887 0
M  V30 45243 H 4099.74 -0.366757 0.561899 0
M  V30 45244 H 4102.29 -0.526277 1.97612 0
M  V30 45245 H 4100.44 -2.95169 2.50906 0
M  V30 45246 H 4100.86 -2.41401 4.65645 0
M  V30 45247 H 4102.33 -3.93386 3.87236 0
M  V30 45248 H 4102.81 -3.81251 2.18046 0
M  V30 45249 H 4103.41 -2.61858 3.35127 0
M  V30 45250 N 4101.73 -1.41272 -0.698562 0
M  V30 45251 C 4102.97 -1.41934 -1.47085 0
M  V30 45252 C 4103.33 -0.0260642 -1.91982 0
M  V30 45253 O 4104.53 0.0925148 -2.68641 0
M  V30 45254 C 4102.8 -2.39555 -2.65232 0
M  V30 45255 S 4104.36 -2.58721 -3.54414 0
M  V30 45256 H 4101.18 -0.502842 -0.502664 0
M  V30 45257 H 4103.78 -1.77685 -0.815375 0
M  V30 45258 H 4102.49 -3.39591 -2.30448 0
M  V30 45259 H 4102.02 -2.05147 -3.35676 0
M  V30 45260 H 4104.03 -1.85237 -4.60328 0
M  V30 45261 N 4103.21 0.932517 -1.27051 0
M  V30 45262 C 4104.62 1.49457 -1.1189 0
M  V30 45263 C 4104.97 1.93927 0.297791 0
M  V30 45264 O 4104.09 1.80729 1.19021 0
M  V30 45265 C 4104.69 2.71622 -2.02501 0
M  V30 45266 C 4103.25 3.24067 -1.91461 0
M  V30 45267 C 4102.39 1.96818 -1.95341 0
M  V30 45268 H 4105.34 0.747114 -1.40014 0
M  V30 45269 H 4105.37 3.46236 -1.578 0
M  V30 45270 H 4104.88 2.39225 -3.05602 0
M  V30 45271 H 4102.98 3.61234 -0.913275 0
M  V30 45272 H 4103.09 3.90587 -2.7745 0
M  V30 45273 H 4101.46 2.13098 -1.39503 0
M  V30 45274 H 4102.24 1.66741 -3.00087 0
M  V30 45275 N 4104.68 1.08995 1.13833 0
M  V30 45276 C 4105.63 0.725336 2.19106 0
M  V30 45277 C 4106.6 -0.291339 1.63525 0
M  V30 45278 O 4107.79 -0.173981 1.90005 0
M  V30 45279 C 4104.93 0.147272 3.44786 0
M  V30 45280 C 4104.04 1.21745 4.1449 0
M  V30 45281 C 4103.17 0.602611 5.27771 0
M  V30 45282 C 4102.21 1.65441 5.89318 0
M  V30 45283 N 4101.35 1.06092 6.94038 0
M  V30 45284 H 4106.19 1.62734 2.49643 0
M  V30 45285 H 4103.73 0.813129 1.22583 0
M  V30 45286 H 4105.68 -0.205646 4.16693 0
M  V30 45287 H 4104.31 -0.718022 3.14713 0
M  V30 45288 H 4103.37 1.68772 3.40911 0
M  V30 45289 H 4104.68 2.01425 4.56322 0
M  V30 45290 H 4103.83 0.198284 6.06376 0
M  V30 45291 H 4102.57 -0.225782 4.87177 0
M  V30 45292 H 4101.58 2.06833 5.09412 0
M  V30 45293 H 4102.8 2.48539 6.31985 0
M  V30 45294 H 4100.75 0.253731 6.55509 0
M  V30 45295 H 4100.66 1.79474 7.34388 0
M  V30 45296 H 4101.93 0.682654 7.76505 0
M  V30 45297 N 4106.16 -1.30979 0.87649 0
M  V30 45298 C 4107.39 -2.00634 0.50535 0
M  V30 45299 C 4107.8 -1.65755 -0.903922 0
M  V30 45300 O 4107.16 -0.890192 -1.59317 0
M  V30 45301 C 4107.21 -3.55415 0.660505 0
M  V30 45302 O 4106.93 -3.89048 2.01428 0
M  V30 45303 C 4108.43 -4.42342 0.291235 0
M  V30 45304 H 4105.65 -0.641673 0.196206 0
M  V30 45305 H 4108.2 -1.6706 1.17945 0
M  V30 45306 H 4106.35 -3.87385 0.0338757 0
M  V30 45307 H 4106.77 -4.83759 2.02676 0
M  V30 45308 H 4108.24 -5.50157 0.450727 0
M  V30 45309 H 4108.72 -4.32396 -0.770112 0
M  V30 45310 H 4109.32 -4.15801 0.893835 0
M  V30 45311 N 4107.64 -0.636582 -1.44171 0
M  V30 45312 C 4108.59 0.0650751 -2.30708 0
M  V30 45313 C 4109.56 0.831364 -1.43797 0
M  V30 45314 O 4110.74 0.81131 -1.72692 0
M  V30 45315 C 4107.88 1.03697 -3.29152 0
M  V30 45316 C 4106.99 0.268527 -4.31165 0
M  V30 45317 C 4106.13 1.23272 -5.16699 0
M  V30 45318 C 4105.17 0.453757 -6.10416 0
M  V30 45319 N 4104.31 1.36869 -6.8863 0
M  V30 45320 H 4109.15 -0.678795 -2.90166 0
M  V30 45321 H 4106.68 -0.346517 -1.4296 0
M  V30 45322 H 4108.64 1.61388 -3.8472 0
M  V30 45323 H 4107.27 1.7479 -2.71382 0
M  V30 45324 H 4106.32 -0.424405 -3.78025 0
M  V30 45325 H 4107.63 -0.337931 -4.97654 0
M  V30 45326 H 4106.79 1.88081 -5.76811 0
M  V30 45327 H 4105.53 1.8731 -4.50296 0
M  V30 45328 H 4104.53 -0.207779 -5.49407 0
M  V30 45329 H 4105.76 -0.181983 -6.78856 0
M  V30 45330 H 4103.7 1.99618 -6.24891 0
M  V30 45331 H 4103.62 0.816391 -7.51579 0
M  V30 45332 H 4104.89 2.00544 -7.53261 0
M  V30 45333 N 4109.12 1.53013 -0.377462 0
M  V30 45334 C 4110.05 2.29023 0.455063 0
M  V30 45335 C 4111.03 1.31928 1.07373 0
M  V30 45336 O 4112.21 1.60811 1.08874 0
M  V30 45337 C 4109.34 3.08829 1.58878 0
M  V30 45338 C 4108.3 4.13709 1.09676 0
M  V30 45339 C 4107.62 4.81668 2.32163 0
M  V30 45340 C 4108.92 5.22013 0.173073 0
M  V30 45341 H 4110.62 2.98864 -0.179105 0
M  V30 45342 H 4108.16 1.43733 -0.0875802 0
M  V30 45343 H 4110.12 3.60756 2.17792 0
M  V30 45344 H 4108.84 2.36699 2.25036 0
M  V30 45345 H 4107.5 3.62745 0.530227 0
M  V30 45346 H 4107.15 4.06099 2.96804 0
M  V30 45347 H 4106.85 5.52549 1.99909 0
M  V30 45348 H 4108.37 5.36395 2.91742 0
M  V30 45349 H 4109.79 5.69371 0.670045 0
M  V30 45350 H 4108.18 6.00071 -0.0591518 0
M  V30 45351 H 4109.25 4.78562 -0.781423 0
M  V30 45352 N 4110.6 0.106949 1.57237 0
M  V30 45353 C 4111.54 -0.84769 2.14669 0
M  V30 45354 C 4112.51 -1.27178 1.06841 0
M  V30 45355 O 4113.7 -1.35144 1.34688 0
M  V30 45356 C 4110.84 -2.09697 2.74083 0
M  V30 45357 C 4109.95 -1.72234 3.96181 0
M  V30 45358 C 4109.09 -2.92037 4.43721 0
M  V30 45359 C 4108.13 -2.50756 5.5838 0
M  V30 45360 N 4107.26 -3.63433 6.00717 0
M  V30 45361 H 4112.1 -0.351081 2.95925 0
M  V30 45362 H 4109.64 -0.16161 1.4621 0
M  V30 45363 H 4111.6 -2.82876 3.06654 0
M  V30 45364 H 4110.23 -2.56837 1.95537 0
M  V30 45365 H 4109.28 -0.889754 3.69848 0
M  V30 45366 H 4110.59 -1.37888 4.79363 0
M  V30 45367 H 4109.75 -3.73456 4.78138 0
M  V30 45368 H 4108.48 -3.29601 3.59464 0
M  V30 45369 H 4107.49 -1.67767 5.23578 0
M  V30 45370 H 4108.71 -2.14322 6.44393 0
M  V30 45371 H 4106.66 -4.00693 5.19405 0
M  V30 45372 H 4106.58 -3.32971 6.78724 0
M  V30 45373 H 4107.85 -4.45327 6.39769 0
M  V30 45374 N 4112.07 -1.56715 -0.166791 0
M  V30 45375 C 4113.32 -1.81442 -0.881011 0
M  V30 45376 C 4113.64 -0.684957 -1.83215 0
M  V30 45377 O 4114.84 -0.81728 -2.58907 0
M  V30 45378 C 4113.3 -3.2152 -1.61719 0
M  V30 45379 C 4112.91 -4.42347 -0.709456 0
M  V30 45380 C 4114.65 -3.55536 -2.31936 0
M  V30 45381 C 4112.56 -5.73447 -1.44612 0
M  V30 45382 H 4111.49 -0.676615 -0.332729 0
M  V30 45383 H 4114.14 -1.83011 -0.133891 0
M  V30 45384 H 4112.52 -3.14281 -2.40922 0
M  V30 45385 H 4113.69 -4.60777 0.0459401 0
M  V30 45386 H 4112.01 -4.16236 -0.116702 0
M  V30 45387 H 4114.61 -4.50732 -2.87654 0
M  V30 45388 H 4114.95 -2.80634 -3.0749 0
M  V30 45389 H 4115.48 -3.64348 -1.59672 0
M  V30 45390 H 4112.22 -6.51391 -0.732823 0
M  V30 45391 H 4111.74 -5.58986 -2.17473 0
M  V30 45392 H 4113.42 -6.15559 -1.99239 0
M  V30 45393 N 4113.55 0.435497 -1.51463 0
M  V30 45394 C 4114.78 1.21177 -1.68318 0
M  V30 45395 C 4115.2 1.84206 -0.380741 0
M  V30 45396 O 4114.56 1.68888 0.659288 0
M  V30 45397 C 4114.61 2.27016 -2.80172 0
M  V30 45398 O 4113.71 3.32543 -2.43903 0
M  V30 45399 H 4113.05 0.35494 -0.561171 0
M  V30 45400 H 4115.58 0.514062 -1.98037 0
M  V30 45401 H 4115.59 2.71771 -3.0431 0
M  V30 45402 H 4114.27 1.80518 -3.74681 0
M  V30 45403 H 4112.85 2.93252 -2.30343 0
M  V30 45404 N 4115.03 1.41641 0.69106 0
M  V30 45405 C 4116.26 1.44396 1.47761 0
M  V30 45406 C 4116.67 0.0489572 1.89137 0
M  V30 45407 O 4116.01 -0.943083 1.57644 0
M  V30 45408 C 4116.07 2.29356 2.76833 0
M  V30 45409 C 4115.74 3.77457 2.57633 0
M  V30 45410 C 4116.73 4.69509 2.23287 0
M  V30 45411 C 4114.42 4.21549 2.73133 0
M  V30 45412 C 4116.41 6.03641 2.04685 0
M  V30 45413 C 4114.1 5.55744 2.54148 0
M  V30 45414 C 4115.1 6.46606 2.19975 0
M  V30 45415 O 4114.79 7.78325 2.0116 0
M  V30 45416 H 4114.52 0.493737 0.461735 0
M  V30 45417 H 4117.07 1.86623 0.857965 0
M  V30 45418 H 4115.3 1.8195 3.4122 0
M  V30 45419 H 4116.99 2.23758 3.38655 0
M  V30 45420 H 4117.76 4.36734 2.10922 0
M  V30 45421 H 4113.64 3.51128 2.98715 0
M  V30 45422 H 4117.18 6.74526 1.77935 0
M  V30 45423 H 4113.08 5.88097 2.66105 0
M  V30 45424 H 4113.85 7.89516 2.15887 0
M  V30 45425 N 4116.51 -0.925766 1.27543 0
M  V30 45426 C 4117.46 -2.02664 1.10436 0
M  V30 45427 C 4118.43 -1.66099 0.0048752 0
M  V30 45428 O 4119.61 -1.90063 0.167564 0
M  V30 45429 C 4116.75 -3.36636 0.759626 0
M  V30 45430 C 4115.86 -3.86143 1.93694 0
M  V30 45431 C 4115 -5.08571 1.53391 0
M  V30 45432 C 4114.04 -5.5038 2.67859 0
M  V30 45433 N 4113.17 -6.64003 2.28132 0
M  V30 45434 H 4118.01 -2.16629 2.04636 0
M  V30 45435 H 4115.55 -1.06122 1.01865 0
M  V30 45436 H 4117.51 -4.13683 0.540565 0
M  V30 45437 H 4116.14 -3.22472 -0.14542 0
M  V30 45438 H 4115.19 -3.05359 2.26848 0
M  V30 45439 H 4116.5 -4.13099 2.79555 0
M  V30 45440 H 4115.66 -5.93126 1.27621 0
M  V30 45441 H 4114.4 -4.83397 0.646417 0
M  V30 45442 H 4113.4 -4.64374 2.94341 0
M  V30 45443 H 4114.63 -5.77548 3.57232 0
M  V30 45444 H 4112.57 -6.40483 1.41836 0
M  V30 45445 H 4112.49 -6.90623 3.07532 0
M  V30 45446 H 4113.76 -7.51893 2.05614 0
M  V30 45447 N 4117.99 -1.09597 -1.13253 0
M  V30 45448 C 4119.26 -0.745442 -1.80838 0
M  V30 45449 C 4119.64 0.769288 -1.96584 0
M  V30 45450 O 4118.99 1.69234 -1.53532 0
M  V30 45451 C 4119.2 -1.4865 -3.1576 0
M  V30 45452 C 4120.55 -1.65344 -3.91084 0
M  V30 45453 O 4121.57 -1.44916 -3.25389 0
M  V30 45454 O 4120.43 -1.99146 -5.08923 0
M  V30 45455 H 4117.53 -0.267977 -0.782379 0
M  V30 45456 H 4120.07 -1.19827 -1.20165 0
M  V30 45457 H 4118.84 -2.5178 -2.99537 0
M  V30 45458 H 4118.47 -1.02596 -3.84135 0
M  V30 45459 N 4119.46 1.30512 -0.883424 0
M  V30 45460 C 4120.43 2.26451 -0.353947 0
M  V30 45461 C 4121.43 1.5274 0.502696 0
M  V30 45462 O 4122.62 1.71418 0.310074 0
M  V30 45463 C 4119.75 3.37276 0.495787 0
M  V30 45464 H 4120.94 2.74799 -1.20106 0
M  V30 45465 H 4118.5 1.41675 -0.660149 0
M  V30 45466 H 4119.23 2.94241 1.36355 0
M  V30 45467 H 4119.02 3.91923 -0.1178 0
M  V30 45468 H 4120.51 4.08689 0.858077 0
M  V30 45469 N 4120.94 0.644219 1.43832 0
M  V30 45470 C 4122.19 0.151343 2.01131 0
M  V30 45471 C 4122.5 -1.23887 1.51365 0
M  V30 45472 O 4123.71 -1.82647 2.00879 0
M  V30 45473 C 4122.17 0.219777 3.59228 0
M  V30 45474 C 4121.77 1.61212 4.17989 0
M  V30 45475 C 4123.52 -0.21596 4.2395 0
M  V30 45476 C 4121.43 1.63496 5.68351 0
M  V30 45477 H 4120.36 0.0528152 0.752148 0
M  V30 45478 H 4123.01 0.804936 1.64903 0
M  V30 45479 H 4121.39 -0.50116 3.92816 0
M  V30 45480 H 4122.56 2.35768 3.95917 0
M  V30 45481 H 4120.88 1.99305 3.65604 0
M  V30 45482 H 4123.47 -0.21861 5.34253 0
M  V30 45483 H 4123.82 -1.24574 3.97224 0
M  V30 45484 H 4124.35 0.452922 3.95213 0
M  V30 45485 H 4121.09 2.64353 5.99831 0
M  V30 45486 H 4120.61 0.932514 5.92507 0
M  V30 45487 H 4122.29 1.37469 6.32227 0
M  V30 45488 N 4122.42 -1.52811 0.385571 0
M  V30 45489 C 4123.37 -2.27878 -0.466298 0
M  V30 45490 C 4124.36 -1.31631 -1.06628 0
M  V30 45491 O 4125.57 -1.49184 -1.00719 0
M  V30 45492 H 4121.94 -0.732735 -0.169124 0
M  V30 45493 H 4123.91 -2.97805 0.188345 0
M  V30 45494 C 4122.66 -3.0955 -1.58348 0
M  V30 45495 H 4121.99 -3.83465 -1.13112 0
M  V30 45496 H 4123.43 -3.6522 -2.15384 0
M  V30 45497 C 4121.89 -2.21629 -2.53737 0
M  V30 45498 O 4122.42 -1.84055 -3.57053 0
M  V30 45499 N 4120.62 -1.85863 -2.2339 0
M  V30 45500 H 4120.17 -2.16618 -1.39408 0
M  V30 45501 H 4120.13 -1.27326 -2.87464 0
M  V30 45502 N 4123.9 -0.115287 -1.57178 0
M  V30 45503 C 4125.31 0.241317 -1.57765 0
M  V30 45504 C 4125.51 1.66983 -1.12778 0
M  V30 45505 O 4124.57 2.39038 -0.813461 0
M  V30 45506 C 4125.88 0.0113762 -3.00698 0
M  V30 45507 C 4127.43 0.0775637 -3.12904 0
M  V30 45508 C 4127.91 -0.124637 -4.5783 0
M  V30 45509 N 4129.4 -0.0704812 -4.63146 0
M  V30 45510 C 4130.13 -0.201891 -5.73044 0
M  V30 45511 N 4129.63 -0.389264 -6.91706 0
M  V30 45512 N 4131.42 -0.141728 -5.61921 0
M  V30 45513 H 4123.57 -1.04839 -1.84723 0
M  V30 45514 H 4125.84 -0.412532 -0.853534 0
M  V30 45515 H 4125.54 -0.976055 -3.37885 0
M  V30 45516 H 4125.42 0.744882 -3.69772 0
M  V30 45517 H 4127.8 1.05552 -2.75577 0
M  V30 45518 H 4127.88 -0.687762 -2.46381 0
M  V30 45519 H 4127.53 -1.09955 -4.95855 0
M  V30 45520 H 4127.46 0.660629 -5.2244 0
M  V30 45521 H 4129.95 0.0709778 -3.77833 0
M  V30 45522 H 4130.26 -0.480501 -7.71305 0
M  V30 45523 H 4128.61 -0.425191 -6.93698 0
M  V30 45524 H 4131.8 0.00366645 -4.681 0
M  V30 45525 H 4131.97 -0.247584 -6.47527 0
M  V30 45526 N 4125.38 1.56801 0.158477 0
M  V30 45527 C 4126.6 1.87226 0.892258 0
M  V30 45528 C 4127.03 0.70306 1.74467 0
M  V30 45529 O 4126.39 -0.347617 1.77936 0
M  V30 45530 C 4126.43 3.16157 1.73427 0
M  V30 45531 O 4125.54 2.99284 2.8373 0
M  V30 45532 H 4124.88 0.615462 0.249203 0
M  V30 45533 H 4127.41 2.04029 0.152749 0
M  V30 45534 H 4127.42 3.47888 2.13161 0
M  V30 45535 H 4126.09 4.00863 1.10824 0
M  V30 45536 H 4124.67 2.78936 2.47486 0
M  V30 45537 N 4126.86 -0.427458 1.51692 0
M  V30 45538 C 4127.79 -1.53985 1.68415 0
M  V30 45539 C 4128.77 -1.53661 0.5317 0
M  V30 45540 O 4129.95 -1.72642 0.756779 0
M  V30 45541 C 4127.08 -2.92553 1.70676 0
M  V30 45542 C 4126.12 -3.10863 2.92004 0
M  V30 45543 S 4126.96 -2.86114 4.52658 0
M  V30 45544 C 4128.11 -4.26945 4.57678 0
M  V30 45545 H 4128.35 -1.39568 2.62503 0
M  V30 45546 H 4125.88 -0.617818 1.415 0
M  V30 45547 H 4127.84 -3.72421 1.72663 0
M  V30 45548 H 4126.5 -3.04326 0.777478 0
M  V30 45549 H 4125.69 -4.12198 2.90015 0
M  V30 45550 H 4125.29 -2.38834 2.87809 0
M  V30 45551 H 4127.58 -5.20302 4.33927 0
M  V30 45552 H 4128.53 -4.33964 5.59536 0
M  V30 45553 H 4128.94 -4.11061 3.86897 0
M  V30 45554 N 4128.33 -1.42005 -0.683539 0
M  V30 45555 C 4129.58 -1.42218 -1.44575 0
M  V30 45556 C 4129.91 -0.0353076 -1.94168 0
M  V30 45557 O 4129.19 0.938993 -1.70333 0
M  V30 45558 C 4129.47 -2.43921 -2.64905 0
M  V30 45559 C 4129.32 -3.91764 -2.21 0
M  V30 45560 C 4130.64 -2.42723 -3.67115 0
M  V30 45561 H 4127.76 -0.517888 -0.524367 0
M  V30 45562 H 4130.4 -1.73362 -0.777544 0
M  V30 45563 H 4128.55 -2.17494 -3.21914 0
M  V30 45564 H 4130.23 -4.29139 -1.69225 0
M  V30 45565 H 4128.47 -4.06051 -1.5266 0
M  V30 45566 H 4129.14 -4.58491 -3.07393 0
M  V30 45567 H 4131.62 -2.66203 -3.19805 0
M  V30 45568 H 4130.49 -3.15877 -4.48902 0
M  V30 45569 H 4130.75 -1.45007 -4.17643 0
M  V30 45570 N 4129.81 0.918989 -1.28033 0
M  V30 45571 C 4130.72 2.05402 -1.13345 0
M  V30 45572 C 4131.74 1.73892 -0.0613021 0
M  V30 45573 O 4132.91 1.99588 -0.269545 0
M  V30 45574 C 4129.98 3.37551 -0.791203 0
M  V30 45575 C 4129.04 3.82704 -1.94515 0
M  V30 45576 C 4128.27 5.08546 -1.61914 0
M  V30 45577 O 4128.5 5.67922 -0.531061 0
M  V30 45578 O 4127.43 5.49284 -2.46111 0
M  V30 45579 H 4131.26 2.2071 -2.08617 0
M  V30 45580 H 4128.84 1.03955 -1.07302 0
M  V30 45581 H 4130.72 4.16902 -0.614054 0
M  V30 45582 H 4129.4 3.23431 0.131909 0
M  V30 45583 H 4128.3 3.04203 -2.17742 0
M  V30 45584 H 4129.64 4.01379 -2.84878 0
M  V30 45585 N 4131.29 1.10196 1.12671 0
M  V30 45586 C 4132.57 0.755022 1.80441 0
M  V30 45587 C 4132.95 -0.758852 1.96989 0
M  V30 45588 O 4132.29 -1.68418 1.54427 0
M  V30 45589 C 4132.5 1.50323 3.14967 0
M  V30 45590 C 4133.85 1.67415 3.90202 0
M  V30 45591 O 4134.88 1.4664 3.24616 0
M  V30 45592 O 4133.74 2.01842 5.0786 0
M  V30 45593 H 4130.83 0.272122 0.780947 0
M  V30 45594 H 4133.38 1.20463 1.19528 0
M  V30 45595 H 4132.15 2.53365 2.98197 0
M  V30 45596 H 4131.77 1.04632 3.83586 0
M  V30 45597 N 4132.77 -1.30042 0.890333 0
M  V30 45598 C 4134.02 -1.95211 0.507512 0
M  V30 45599 C 4134.33 -1.71028 -0.949149 0
M  V30 45600 O 4135.54 -2.30224 -1.43906 0
M  V30 45601 C 4133.99 -3.49554 0.856719 0
M  V30 45602 C 4133.6 -3.8255 2.33151 0
M  V30 45603 C 4135.34 -4.21008 0.543355 0
M  V30 45604 C 4133.25 -5.30096 2.62207 0
M  V30 45605 H 4132.18 -0.730681 0.186068 0
M  V30 45606 H 4134.83 -1.4791 1.08604 0
M  V30 45607 H 4133.21 -3.95457 0.207215 0
M  V30 45608 H 4134.39 -3.47538 3.02578 0
M  V30 45609 H 4132.7 -3.24213 2.61295 0
M  V30 45610 H 4135.3 -5.29591 0.737405 0
M  V30 45611 H 4135.64 -4.1307 -0.517571 0
M  V30 45612 H 4136.18 -3.80806 1.15029 0
M  V30 45613 H 4132.91 -5.4309 3.67061 0
M  V30 45614 H 4132.43 -5.66388 1.97395 0
M  V30 45615 H 4134.11 -5.97589 2.47986 0
M  V30 45616 N 4134.25 -0.651838 -1.43488 0
M  V30 45617 C 4135.47 -0.17237 -2.06181 0
M  V30 45618 C 4135.89 1.16143 -1.4885 0
M  V30 45619 O 4135.25 1.71672 -0.619276 0
M  V30 45620 C 4135.3 -0.0737675 -3.61425 0
M  V30 45621 O 4135.02 -1.35484 -4.16624 0
M  V30 45622 C 4136.52 0.431942 -4.41191 0
M  V30 45623 H 4133.74 -0.089251 -0.665038 0
M  V30 45624 H 4136.28 -0.892095 -1.84016 0
M  V30 45625 H 4134.44 0.596509 -3.8278 0
M  V30 45626 H 4134.85 -1.21314 -5.10278 0
M  V30 45627 H 4136.33 0.449892 -5.50164 0
M  V30 45628 H 4136.8 1.46299 -4.14117 0
M  V30 45629 H 4137.41 -0.205796 -4.24802 0
M  V30 45630 N 4135.72 1.52604 -0.39367 0
M  V30 45631 C 4136.97 2.01235 0.186749 0
M  V30 45632 C 4137.29 1.28178 1.46954 0
M  V30 45633 O 4136.56 0.403122 1.91707 0
M  V30 45634 H 4135.14 0.743522 0.0720007 0
M  V30 45635 H 4137.8 1.87658 -0.526363 0
M  V30 45636 H 4136.9 3.09605 0.393867 0
M  V30 45637 N 4137.2 0.12362 1.57114 0
M  V30 45638 C 4138.13 -0.821424 2.18575 0
M  V30 45639 C 4139.11 -1.27397 1.12712 0
M  V30 45640 O 4140.3 -1.33574 1.40966 0
M  V30 45641 C 4137.43 -2.06982 2.78883 0
M  V30 45642 C 4136.38 -1.7549 3.90368 0
M  V30 45643 C 4135.71 -3.07398 4.37505 0
M  V30 45644 C 4137.01 -1.01963 5.12251 0
M  V30 45645 H 4138.7 -0.309266 2.97798 0
M  V30 45646 H 4136.25 -0.147313 1.43245 0
M  V30 45647 H 4138.2 -2.73556 3.20539 0
M  V30 45648 H 4136.92 -2.6053 1.96955 0
M  V30 45649 H 4135.58 -1.11304 3.49295 0
M  V30 45650 H 4135.23 -3.5889 3.5243 0
M  V30 45651 H 4134.93 -2.87099 5.12687 0
M  V30 45652 H 4136.46 -3.75083 4.81815 0
M  V30 45653 H 4137.87 -1.58699 5.50897 0
M  V30 45654 H 4136.27 -0.917422 5.93046 0
M  V30 45655 H 4137.34 -0.00717649 4.84899 0
M  V30 45656 N 4138.68 -1.56883 -0.15016 0
M  V30 45657 C 4140.1 -1.51477 -0.50269 0
M  V30 45658 C 4140.3 -0.83151 -1.83543 0
M  V30 45659 O 4139.35 -0.400715 -2.493 0
M  V30 45660 C 4140.66 -2.96241 -0.515913 0
M  V30 45661 C 4142.21 -3.07163 -0.601648 0
M  V30 45662 C 4142.69 -4.53427 -0.645563 0
M  V30 45663 N 4144.18 -4.57759 -0.707874 0
M  V30 45664 C 4144.91 -5.68304 -0.762783 0
M  V30 45665 N 4144.41 -6.88426 -0.777232 0
M  V30 45666 N 4146.2 -5.56329 -0.803423 0
M  V30 45667 H 4138.35 -1.99699 0.723477 0
M  V30 45668 H 4140.62 -0.910666 0.263421 0
M  V30 45669 H 4140.32 -3.49474 0.395095 0
M  V30 45670 H 4140.2 -3.52024 -1.35495 0
M  V30 45671 H 4142.58 -2.53952 -1.50308 0
M  V30 45672 H 4142.66 -2.54429 0.264475 0
M  V30 45673 H 4142.31 -5.07276 0.251695 0
M  V30 45674 H 4142.24 -5.0394 -1.52813 0
M  V30 45675 H 4144.73 -3.71282 -0.704135 0
M  V30 45676 H 4145.04 -7.68428 -0.82089 0
M  V30 45677 H 4143.39 -6.90994 -0.745159 0
M  V30 45678 H 4146.58 -4.61398 -0.789284 0
M  V30 45679 H 4146.75 -6.42496 -0.842751 0
M  V30 45680 N 4140.16 0.419408 -1.51917 0
M  V30 45681 C 4141.09 1.51736 -1.77478 0
M  V30 45682 C 4142.07 1.5819 -0.625291 0
M  V30 45683 O 4143.25 1.7363 -0.869846 0
M  V30 45684 C 4140.38 2.89658 -1.91613 0
M  V30 45685 C 4139.34 2.98059 -3.07156 0
M  V30 45686 C 4138.66 4.38134 -3.065 0
M  V30 45687 C 4139.96 2.70487 -4.46804 0
M  V30 45688 H 4141.66 1.30597 -2.69416 0
M  V30 45689 H 4139.2 0.626827 -1.29641 0
M  V30 45690 H 4141.16 3.66444 -2.08078 0
M  V30 45691 H 4139.88 3.12068 -0.963387 0
M  V30 45692 H 4138.54 2.23715 -2.90426 0
M  V30 45693 H 4138.19 4.57539 -2.08967 0
M  V30 45694 H 4137.89 4.44682 -3.84099 0
M  V30 45695 H 4139.41 5.1687 -3.25081 0
M  V30 45696 H 4140.83 3.37 -4.63793 0
M  V30 45697 H 4139.22 2.88423 -5.26243 0
M  V30 45698 H 4140.29 1.65983 -4.55607 0
M  V30 45699 N 4141.64 1.42366 0.675998 0
M  V30 45700 C 4142.57 1.48539 1.80162 0
M  V30 45701 C 4143.55 0.342079 1.66625 0
M  V30 45702 O 4144.73 0.556222 1.86064 0
M  V30 45703 C 4141.86 1.38592 3.18449 0
M  V30 45704 C 4140.82 2.50937 3.4672 0
M  V30 45705 C 4140.14 2.26048 4.84568 0
M  V30 45706 C 4141.44 3.93249 3.43733 0
M  V30 45707 H 4143.14 2.42748 1.75254 0
M  V30 45708 H 4140.68 1.16837 0.841735 0
M  V30 45709 H 4142.64 1.41518 3.96926 0
M  V30 45710 H 4141.36 0.40876 3.24032 0
M  V30 45711 H 4140.02 2.47325 2.70603 0
M  V30 45712 H 4139.67 1.26629 4.868 0
M  V30 45713 H 4139.37 3.01343 5.04447 0
M  V30 45714 H 4140.89 2.30722 5.65331 0
M  V30 45715 H 4142.3 3.9847 4.12182 0
M  V30 45716 H 4140.7 4.68386 3.75147 0
M  V30 45717 H 4141.77 4.20005 2.42329 0
M  V30 45718 N 4143.11 -0.912187 1.28518 0
M  V30 45719 C 4144.02 -2.04798 1.14433 0
M  V30 45720 C 4145.04 -1.73857 0.0705231 0
M  V30 45721 O 4146.22 -1.99442 0.280126 0
M  V30 45722 C 4143.28 -3.37127 0.809093 0
M  V30 45723 C 4142.34 -3.81667 1.96542 0
M  V30 45724 C 4141.58 -5.07681 1.64609 0
M  V30 45725 O 4141.8 -5.67633 0.561172 0
M  V30 45726 O 4140.73 -5.47971 2.49021 0
M  V30 45727 H 4144.56 -2.196 2.09784 0
M  V30 45728 H 4142.14 -1.03385 1.07852 0
M  V30 45729 H 4144.03 -4.16571 0.636155 0
M  V30 45730 H 4142.7 -3.23497 -0.114755 0
M  V30 45731 H 4141.61 -3.03044 2.19352 0
M  V30 45732 H 4142.94 -3.99863 2.87003 0
M  V30 45733 N 4144.59 -1.10792 -1.12085 0
M  V30 45734 C 4145.56 -0.763484 -2.1611 0
M  V30 45735 C 4146.56 0.213875 -1.59371 0
M  V30 45736 O 4147.75 -0.00975161 -1.74197 0
M  V30 45737 C 4144.88 -0.131548 -3.40646 0
M  V30 45738 H 4146.07 -1.68493 -2.48093 0
M  V30 45739 H 4143.62 -0.908918 -1.27155 0
M  V30 45740 H 4144.36 0.800452 -3.14266 0
M  V30 45741 H 4144.14 -0.834995 -3.83106 0
M  V30 45742 H 4145.63 0.0935431 -4.17495 0
M  V30 45743 N 4146.07 1.29568 -0.897217 0
M  V30 45744 C 4147.03 2.26062 -0.377946 0
M  V30 45745 C 4148.03 1.53265 0.486468 0
M  V30 45746 O 4149.22 1.71737 0.291875 0
M  V30 45747 C 4146.36 3.37782 0.459986 0
M  V30 45748 H 4147.55 2.7351 -1.23014 0
M  V30 45749 H 4145.1 1.40967 -0.675139 0
M  V30 45750 H 4145.84 2.95671 1.33227 0
M  V30 45751 H 4145.62 3.91776 -0.159362 0
M  V30 45752 H 4147.11 4.09576 0.814681 0
M  V30 45753 N 4147.55 0.659438 1.4314 0
M  V30 45754 C 4148.77 0.181679 2.06603 0
M  V30 45755 C 4149.2 -1.14626 1.49139 0
M  V30 45756 O 4148.56 -1.70951 0.603769 0
M  V30 45757 C 4148.6 0.110725 3.6043 0
M  V30 45758 O 4147.71 -0.925273 4.01886 0
M  V30 45759 H 4147.05 0.0977236 0.656769 0
M  V30 45760 H 4149.58 0.904118 1.8354 0
M  V30 45761 H 4149.59 -0.0705372 4.07939 0
M  V30 45762 H 4148.26 1.08009 4.0163 0
M  V30 45763 H 4146.84 -0.716296 3.65956 0
M  V30 45764 N 4149.03 -1.52393 0.401757 0
M  V30 45765 C 4150.27 -2.02029 -0.176684 0
M  V30 45766 C 4150.61 -1.28717 -1.45415 0
M  V30 45767 O 4149.88 -0.391297 -1.90523 0
M  V30 45768 C 4150.16 -3.575 -0.431917 0
M  V30 45769 C 4150.02 -4.41469 0.861706 0
M  V30 45770 C 4151.34 -4.22932 -1.21723 0
M  V30 45771 H 4148.45 -0.734325 -0.0627407 0
M  V30 45772 H 4151.1 -1.82348 0.533774 0
M  V30 45773 H 4149.25 -3.74401 -1.03712 0
M  V30 45774 H 4150.92 -4.36295 1.49816 0
M  V30 45775 H 4149.16 -4.07979 1.47431 0
M  V30 45776 H 4149.83 -5.48305 0.637607 0
M  V30 45777 H 4152.31 -4.10085 -0.704923 0
M  V30 45778 H 4151.18 -5.31668 -1.36456 0
M  V30 45779 H 4151.45 -3.81395 -2.23585 0
M  V30 45780 N 4150.5 -0.131951 -1.57047 0
M  V30 45781 C 4151.73 0.533539 -2.0042 0
M  V30 45782 C 4152.15 1.58603 -1.01128 0
M  V30 45783 O 4151.51 1.81294 0.0151935 0
M  V30 45784 C 4151.56 1.12466 -3.42613 0
M  V30 45785 O 4150.66 2.23992 -3.46267 0
M  V30 45786 H 4150.01 0.132031 -0.650741 0
M  V30 45787 H 4152.54 -0.224247 -2.03367 0
M  V30 45788 H 4152.55 1.45703 -3.81097 0
M  V30 45789 H 4151.22 0.353822 -4.14392 0
M  V30 45790 H 4149.8 1.92098 -3.19614 0
M  V30 45791 N 4151.98 1.5696 0.141838 0
M  V30 45792 C 4153.21 1.88162 0.87235 0
M  V30 45793 C 4153.63 0.721525 1.73711 0
M  V30 45794 O 4152.99 -0.328725 1.78295 0
M  V30 45795 C 4153.04 3.17979 1.70064 0
M  V30 45796 O 4152.14 3.02276 2.8054 0
M  V30 45797 H 4151.48 0.618071 0.242661 0
M  V30 45798 H 4154.01 2.0418 0.1311 0
M  V30 45799 H 4154.02 3.5013 2.0946 0
M  V30 45800 H 4152.7 4.02015 1.06566 0
M  V30 45801 H 4151.28 2.81545 2.44514 0
M  V30 45802 N 4153.46 -0.411345 1.52137 0
M  V30 45803 C 4154.41 -1.50104 1.75321 0
M  V30 45804 C 4155.38 -1.55055 0.59558 0
M  V30 45805 O 4156.56 -1.71661 0.832889 0
M  V30 45806 C 4153.7 -2.87574 1.90775 0
M  V30 45807 C 4152.82 -2.9195 3.18416 0
M  V30 45808 C 4151.95 -4.20706 3.24315 0
M  V30 45809 C 4150.99 -4.19048 4.46167 0
M  V30 45810 N 4150.13 -5.39371 4.4947 0
M  V30 45811 H 4154.97 -1.29637 2.68325 0
M  V30 45812 H 4152.5 -0.629303 1.32959 0
M  V30 45813 H 4154.46 -3.67374 1.97718 0
M  V30 45814 H 4153.09 -3.06542 1.01154 0
M  V30 45815 H 4152.14 -2.04656 3.20656 0
M  V30 45816 H 4153.46 -2.8659 4.0825 0
M  V30 45817 H 4152.61 -5.08896 3.30317 0
M  V30 45818 H 4151.35 -4.28759 2.32416 0
M  V30 45819 H 4150.35 -3.29248 4.40314 0
M  V30 45820 H 4151.58 -4.12637 5.39359 0
M  V30 45821 H 4149.52 -5.48096 3.60454 0
M  V30 45822 H 4149.44 -5.35996 5.33146 0
M  V30 45823 H 4150.71 -6.29521 4.59699 0
M  V30 45824 N 4154.94 -1.42722 -0.668439 0
M  V30 45825 C 4156.19 -1.43247 -1.42564 0
M  V30 45826 C 4156.51 -0.0522315 -1.9493 0
M  V30 45827 O 4155.78 0.910201 -1.73471 0
M  V30 45828 H 4154.36 -0.527358 -0.529058 0
M  V30 45829 H 4157.02 -1.78198 -0.789397 0
M  V30 45830 H 4156.12 -2.13603 -2.27552 0
M  V30 45831 N 4156.42 0.905358 -1.29 0
M  V30 45832 C 4157.35 2.02538 -1.16193 0
M  V30 45833 C 4158.33 1.70003 -0.0575592 0
M  V30 45834 O 4159.51 1.9276 -0.236038 0
M  V30 45835 C 4156.64 3.37193 -0.831764 0
M  V30 45836 C 4155.6 3.83919 -1.89183 0
M  V30 45837 C 4154.92 5.15634 -1.4151 0
M  V30 45838 C 4156.22 4.0486 -3.29978 0
M  V30 45839 H 4157.92 2.13511 -2.09889 0
M  V30 45840 H 4155.46 1.0259 -1.01051 0
M  V30 45841 H 4157.42 4.15048 -0.728898 0
M  V30 45842 H 4156.14 3.26296 0.140901 0
M  V30 45843 H 4154.8 3.08275 -1.98398 0
M  V30 45844 H 4154.45 5.01148 -0.43127 0
M  V30 45845 H 4154.15 5.47868 -2.124 0
M  V30 45846 H 4155.67 5.96037 -1.32563 0
M  V30 45847 H 4157.09 4.73215 -3.23636 0
M  V30 45848 H 4155.48 4.4844 -3.98776 0
M  V30 45849 H 4156.55 3.09386 -3.73374 0
M  V30 45850 N 4157.9 1.11385 1.11495 0
M  V30 45851 C 4159.31 0.878496 1.6474 0
M  V30 45852 C 4159.66 -0.58936 1.87139 0
M  V30 45853 O 4158.78 -1.45131 1.60518 0
M  V30 45854 C 4159.38 1.5882 2.99268 0
M  V30 45855 C 4157.94 1.39929 3.49423 0
M  V30 45856 C 4157.08 1.63124 2.24245 0
M  V30 45857 H 4160.03 1.27018 0.95143 0
M  V30 45858 H 4160.06 1.03287 3.66213 0
M  V30 45859 H 4159.57 2.6565 2.82934 0
M  V30 45860 H 4157.67 0.353071 3.70923 0
M  V30 45861 H 4157.78 2.14797 4.28251 0
M  V30 45862 H 4156.15 1.05459 2.31841 0
M  V30 45863 H 4156.93 2.71226 2.10455 0
M  V30 45864 N 4159.37 -1.2909 0.904076 0
M  V30 45865 C 4160.6 -2.00053 0.547117 0
M  V30 45866 C 4161.02 -1.67186 -0.861997 0
M  V30 45867 O 4160.38 -0.898882 -1.57448 0
M  V30 45868 C 4160.43 -3.52681 0.751557 0
M  V30 45869 O 4159.53 -4.11944 -0.193931 0
M  V30 45870 H 4158.87 -0.628824 0.213252 0
M  V30 45871 H 4161.4 -1.6448 1.21686 0
M  V30 45872 H 4161.41 -4.02661 0.657902 0
M  V30 45873 H 4160.09 -3.75939 1.77884 0
M  V30 45874 H 4158.67 -3.72863 -0.0523625 0
M  V30 45875 N 4160.85 -0.66702 -1.42789 0
M  V30 45876 C 4162.26 -0.26425 -1.8482 0
M  V30 45877 C 4162.61 1.19203 -1.55836 0
M  V30 45878 O 4161.74 1.91159 -1.01425 0
M  V30 45879 C 4162.33 -0.472819 -3.35485 0
M  V30 45880 C 4160.89 -0.124242 -3.76195 0
M  V30 45881 C 4160.04 -0.769036 -2.66423 0
M  V30 45882 H 4162.99 -0.869732 -1.32745 0
M  V30 45883 H 4163.01 0.277466 -3.79487 0
M  V30 45884 H 4162.52 -1.5328 -3.56548 0
M  V30 45885 H 4160.62 0.932603 -3.6074 0
M  V30 45886 H 4160.74 -0.559335 -4.75824 0
M  V30 45887 H 4159.1 -0.201039 -2.53905 0
M  V30 45888 H 4159.88 -1.83232 -2.90312 0
M  V30 45889 N 4162.33 1.52178 -0.409833 0
M  V30 45890 C 4163.56 2.0594 0.164959 0
M  V30 45891 C 4163.97 1.27975 1.39352 0
M  V30 45892 O 4163.31 0.325021 1.80802 0
M  V30 45893 C 4163.37 3.54797 0.579597 0
M  V30 45894 C 4163.04 4.53818 -0.538328 0
M  V30 45895 C 4164.03 5.00636 -1.40211 0
M  V30 45896 C 4161.72 4.97239 -0.711221 0
M  V30 45897 C 4163.71 5.8952 -2.42373 0
M  V30 45898 C 4161.4 5.85919 -1.73615 0
M  V30 45899 C 4162.4 6.31954 -2.59081 0
M  V30 45900 O 4162.09 7.18878 -3.59819 0
M  V30 45901 H 4161.82 0.675588 0.0236077 0
M  V30 45902 H 4164.37 1.97053 -0.579607 0
M  V30 45903 H 4162.6 3.61373 1.37646 0
M  V30 45904 H 4164.29 3.91202 1.08239 0
M  V30 45905 H 4165.06 4.67806 -1.27995 0
M  V30 45906 H 4160.94 4.60966 -0.0556423 0
M  V30 45907 H 4164.48 6.25374 -3.09117 0
M  V30 45908 H 4160.38 6.18163 -1.85862 0
M  V30 45909 H 4161.14 7.36991 -3.56071 0
M  V30 45910 N 4163.81 0.140278 1.56974 0
M  V30 45911 C 4164.76 -0.819114 2.177 0
M  V30 45912 C 4165.75 -1.26015 1.1321 0
M  V30 45913 O 4166.96 -1.22942 1.31474 0
M  V30 45914 H 4163.33 -0.282332 0.696988 0
M  V30 45915 H 4165.3 -0.282678 2.97058 0
M  V30 45916 C 4164.05 -2.05091 2.80772 0
M  V30 45917 H 4163.37 -1.72051 3.60886 0
M  V30 45918 H 4164.81 -2.70177 3.26772 0
M  V30 45919 C 4163.27 -2.85454 1.78935 0
M  V30 45920 O 4163.8 -3.8157 1.25569 0
M  V30 45921 N 4162.01 -2.49857 1.4839 0
M  V30 45922 H 4161.56 -1.71761 1.91979 0
M  V30 45923 H 4161.51 -3.0392 0.804988 0
M  V30 45924 N 4165.29 -1.57033 -0.133512 0
M  V30 45925 C 4166.22 -1.94449 -1.19436 0
M  V30 45926 C 4167.2 -0.812127 -1.40866 0
M  V30 45927 O 4168.38 -1.06898 -1.55258 0
M  V30 45928 C 4165.51 -2.22819 -2.55087 0
M  V30 45929 C 4164.55 -3.45422 -2.50172 0
M  V30 45930 S 4165.39 -4.98518 -1.95549 0
M  V30 45931 C 4166.54 -5.30025 -3.32903 0
M  V30 45932 H 4166.78 -2.84125 -0.875221 0
M  V30 45933 H 4164.31 -1.50617 -0.339684 0
M  V30 45934 H 4166.27 -2.39842 -3.33145 0
M  V30 45935 H 4164.93 -1.33782 -2.84185 0
M  V30 45936 H 4164.12 -3.62592 -3.50062 0
M  V30 45937 H 4163.72 -3.27709 -1.80229 0
M  V30 45938 H 4166.01 -5.24318 -4.29065 0
M  V30 45939 H 4166.96 -6.31378 -3.20573 0
M  V30 45940 H 4167.37 -4.57519 -3.30661 0
M  V30 45941 N 4166.76 0.403271 -1.52353 0
M  V30 45942 C 4167.99 1.17579 -1.70851 0
M  V30 45943 C 4168.41 1.83357 -0.419728 0
M  V30 45944 O 4167.77 1.70248 0.623316 0
M  V30 45945 C 4167.82 2.21022 -2.84924 0
M  V30 45946 O 4166.92 3.27295 -2.50902 0
M  V30 45947 H 4166.26 0.342957 -0.568574 0
M  V30 45948 H 4168.79 0.47194 -1.99083 0
M  V30 45949 H 4168.8 2.65255 -3.10006 0
M  V30 45950 H 4167.48 1.7253 -3.78426 0
M  V30 45951 H 4166.06 2.883 -2.36511 0
M  V30 45952 N 4168.24 1.43075 0.66086 0
M  V30 45953 C 4169.47 1.47923 1.45373 0
M  V30 45954 C 4169.89 0.096062 1.87855 0
M  V30 45955 O 4169.25 -0.908555 1.56892 0
M  V30 45956 C 4169.3 2.42373 2.66998 0
M  V30 45957 O 4168.4 1.90471 3.65779 0
M  V30 45958 H 4167.74 0.500639 0.436184 0
M  V30 45959 H 4170.27 1.87911 0.809366 0
M  V30 45960 H 4170.28 2.59421 3.14904 0
M  V30 45961 H 4168.96 3.42856 2.3542 0
M  V30 45962 H 4167.53 1.83047 3.24882 0
M  V30 45963 N 4169.72 -0.898504 1.29478 0
M  V30 45964 C 4170.68 -1.9843 1.14709 0
M  V30 45965 C 4171.68 -1.6059 0.0822104 0
M  V30 45966 O 4172.87 -1.7106 0.329246 0
M  V30 45967 C 4170.01 -3.32448 0.754415 0
M  V30 45968 H 4171.2 -2.12961 2.11158 0
M  V30 45969 H 4168.75 -1.08317 1.12682 0
M  V30 45970 H 4169.49 -3.23618 -0.210167 0
M  V30 45971 H 4169.27 -3.61278 1.52383 0
M  V30 45972 H 4170.76 -4.12122 0.674167 0
M  V30 45973 N 4171.2 -1.11974 -1.10903 0
M  V30 45974 C 4172.61 -0.88722 -1.64272 0
M  V30 45975 C 4172.96 0.579427 -1.87449 0
M  V30 45976 O 4172.09 1.44278 -1.61285 0
M  V30 45977 C 4172.68 -1.60405 -2.98422 0
M  V30 45978 C 4171.24 -1.41781 -3.48676 0
M  V30 45979 C 4170.39 -1.6431 -2.23377 0
M  V30 45980 H 4173.34 -1.2752 -0.944681 0
M  V30 45981 H 4173.36 -1.05228 -3.6566 0
M  V30 45982 H 4172.87 -2.67147 -2.81521 0
M  V30 45983 H 4170.97 -0.372737 -3.70731 0
M  V30 45984 H 4171.08 -2.17065 -4.27106 0
M  V30 45985 H 4169.45 -1.06687 -2.31279 0
M  V30 45986 H 4170.23 -2.72339 -2.09013 0
M  V30 45987 N 4172.68 1.28609 -0.910909 0
M  V30 45988 C 4173.92 1.9471 -0.54152 0
M  V30 45989 C 4174.25 1.72079 0.917272 0
M  V30 45990 O 4173.52 1.05888 1.64817 0
M  V30 45991 H 4172.1 0.72048 -0.197276 0
M  V30 45992 H 4174.76 1.56647 -1.15965 0
M  V30 45993 H 4173.85 3.03357 -0.733563 0
M  V30 45994 N 4174.15 0.674583 1.42433 0
M  V30 45995 C 4175.38 0.203581 2.06398 0
M  V30 45996 C 4175.8 -1.13038 1.50347 0
M  V30 45997 O 4175.16 -1.70301 0.621867 0
M  V30 45998 C 4175.21 0.148947 3.60292 0
M  V30 45999 O 4174.31 -0.882596 4.02845 0
M  V30 46000 H 4173.66 0.104684 0.655696 0
M  V30 46001 H 4176.19 0.923534 1.82571 0
M  V30 46002 H 4176.2 -0.0272658 4.07991 0
M  V30 46003 H 4174.87 1.12263 4.00462 0
M  V30 46004 H 4173.45 -0.677442 3.66695 0
M  V30 46005 N 4175.63 -1.51958 0.417898 0
M  V30 46006 C 4177.05 -1.5945 0.0692024 0
M  V30 46007 C 4177.25 -1.43018 -1.41944 0
M  V30 46008 O 4176.3 -1.26156 -2.18726 0
M  V30 46009 C 4177.62 -2.9521 0.571954 0
M  V30 46010 C 4179.17 -3.08468 0.530693 0
M  V30 46011 C 4179.64 -4.46723 1.0101 0
M  V30 46012 N 4181.13 -4.52988 0.967278 0
M  V30 46013 C 4181.87 -5.58251 1.30931 0
M  V30 46014 N 4181.36 -6.71026 1.72323 0
M  V30 46015 N 4183.16 -5.48506 1.22872 0
M  V30 46016 H 4175.31 -1.60886 1.38671 0
M  V30 46017 H 4177.57 -0.757334 0.570219 0
M  V30 46018 H 4177.28 -3.12543 1.61275 0
M  V30 46019 H 4177.15 -3.77198 -0.0136792 0
M  V30 46020 H 4179.54 -2.90815 -0.501079 0
M  V30 46021 H 4179.62 -2.28367 1.15249 0
M  V30 46022 H 4179.26 -4.6512 2.04024 0
M  V30 46023 H 4179.19 -5.25333 0.365028 0
M  V30 46024 H 4181.68 -3.72037 0.663065 0
M  V30 46025 H 4182 -7.47345 1.9671 0
M  V30 46026 H 4180.34 -6.72285 1.76234 0
M  V30 46027 H 4183.53 -4.59285 0.904144 0
M  V30 46028 H 4183.7 -6.30434 1.49857 0
M  V30 46029 N 4177.11 -0.1486 -1.56898 0
M  V30 46030 C 4178.34 0.512252 -2.00974 0
M  V30 46031 C 4178.76 1.57521 -1.02804 0
M  V30 46032 O 4178.12 1.813 -0.00403598 0
M  V30 46033 C 4178.17 1.08826 -3.43787 0
M  V30 46034 O 4177.27 2.20307 -3.48624 0
M  V30 46035 H 4176.61 0.125122 -0.652105 0
M  V30 46036 H 4179.14 -0.245804 -2.03118 0
M  V30 46037 H 4179.15 1.41652 -3.82621 0
M  V30 46038 H 4177.83 0.30985 -4.14744 0
M  V30 46039 H 4176.4 1.88697 -3.21633 0
M  V30 46040 N 4178.59 1.57102 0.125182 0
M  V30 46041 C 4179.84 1.84161 0.832405 0
M  V30 46042 C 4180.16 0.732851 1.80705 0
M  V30 46043 O 4179.43 -0.243689 1.94378 0
M  V30 46044 H 4178.01 0.679459 0.310393 0
M  V30 46045 H 4180.67 1.94566 0.113978 0
M  V30 46046 H 4179.77 2.79864 1.3814 0
M  V30 46047 N 4180.07 -0.395186 1.52565 0
M  V30 46048 C 4181.29 -1.16671 1.71472 0
M  V30 46049 C 4181.72 -1.83132 0.429446 0
M  V30 46050 O 4181.07 -1.70576 -0.614279 0
M  V30 46051 C 4181.12 -2.19508 2.86092 0
M  V30 46052 O 4180.23 -3.2596 2.52634 0
M  V30 46053 H 4179.57 -0.339937 0.570385 0
M  V30 46054 H 4182.1 -0.461376 1.9933 0
M  V30 46055 H 4182.11 -2.63607 3.11409 0
M  V30 46056 H 4180.78 -1.7052 3.79336 0
M  V30 46057 H 4179.36 -2.87042 2.38037 0
M  V30 46058 N 4181.54 -1.43423 -0.653263 0
M  V30 46059 C 4182.96 -1.26823 -0.968926 0
M  V30 46060 C 4183.16 -0.187918 -2.00622 0
M  V30 46061 O 4182.22 0.433666 -2.48748 0
M  V30 46062 C 4183.53 -2.63252 -1.45323 0
M  V30 46063 C 4185.08 -2.70783 -1.56988 0
M  V30 46064 C 4185.55 -4.0763 -2.0881 0
M  V30 46065 N 4187.04 -4.09695 -2.16112 0
M  V30 46066 C 4187.78 -5.12414 -2.57331 0
M  V30 46067 N 4187.27 -6.25507 -2.97847 0
M  V30 46068 N 4189.07 -4.99768 -2.5727 0
M  V30 46069 H 4181.22 -2.12374 0.0331305 0
M  V30 46070 H 4183.48 -0.946796 -0.0477601 0
M  V30 46071 H 4183.19 -3.43269 -0.765458 0
M  V30 46072 H 4183.06 -2.88644 -2.42826 0
M  V30 46073 H 4185.45 -1.91099 -2.24867 0
M  V30 46074 H 4185.53 -2.49157 -0.579184 0
M  V30 46075 H 4185.17 -4.87782 -1.41533 0
M  V30 46076 H 4185.1 -4.26621 -3.0871 0
M  V30 46077 H 4187.59 -3.28061 -1.87575 0
M  V30 46078 H 4187.91 -6.99717 -3.28048 0
M  V30 46079 H 4186.25 -6.2898 -2.95651 0
M  V30 46080 H 4189.44 -4.10482 -2.24994 0
M  V30 46081 H 4189.62 -5.7995 -2.89072 0
M  V30 46082 N 4183.02 0.891625 -1.29953 0
M  V30 46083 C 4184.25 1.68139 -1.21425 0
M  V30 46084 C 4184.67 1.86802 0.2206 0
M  V30 46085 O 4184.03 1.39417 1.159 0
M  V30 46086 C 4184.08 3.0389 -1.94121 0
M  V30 46087 O 4183.18 3.92559 -1.26376 0
M  V30 46088 H 4182.52 0.514025 -0.420327 0
M  V30 46089 H 4185.05 1.11328 -1.7166 0
M  V30 46090 H 4185.06 3.53979 -2.02887 0
M  V30 46091 H 4183.74 2.89626 -2.98479 0
M  V30 46092 H 4182.32 3.50996 -1.25921 0
M  V30 46093 N 4184.5 1.12561 1.10308 0
M  V30 46094 C 4185.75 0.879989 1.81936 0
M  V30 46095 C 4186.07 -0.595778 1.85676 0
M  V30 46096 O 4185.34 -1.43297 1.33577 0
M  V30 46097 H 4183.92 0.322568 0.673765 0
M  V30 46098 H 4186.58 1.42035 1.33462 0
M  V30 46099 H 4185.68 1.26266 2.85418 0
M  V30 46100 N 4185.98 -1.28124 0.917717 0
M  V30 46101 C 4187.2 -1.99462 0.568305 0
M  V30 46102 C 4187.63 -1.68091 -0.844216 0
M  V30 46103 O 4186.99 -0.915531 -1.56486 0
M  V30 46104 C 4187.04 -3.51864 0.788921 0
M  V30 46105 O 4186.14 -4.12126 -0.150228 0
M  V30 46106 H 4185.48 -0.626527 0.21991 0
M  V30 46107 H 4188.01 -1.6318 1.23424 0
M  V30 46108 H 4188.02 -4.0194 0.700572 0
M  V30 46109 H 4186.7 -3.74031 1.81862 0
M  V30 46110 H 4185.27 -3.72898 -0.0128125 0
M  V30 46111 N 4187.46 -0.682127 -1.42073 0
M  V30 46112 C 4188.87 -0.352375 -1.55661 0
M  V30 46113 C 4189.07 1.14171 -1.66034 0
M  V30 46114 O 4188.13 1.92729 -1.63131 0
M  V30 46115 C 4189.44 -1.08912 -2.80283 0
M  V30 46116 C 4190.99 -1.07215 -2.94064 0
M  V30 46117 C 4191.47 -1.79037 -4.21556 0
M  V30 46118 N 4192.96 -1.75941 -4.28485 0
M  V30 46119 C 4193.69 -2.28363 -5.25964 0
M  V30 46120 N 4193.19 -2.89199 -6.29552 0
M  V30 46121 N 4194.98 -2.18696 -5.17811 0
M  V30 46122 H 4187.13 -1.65133 -1.33585 0
M  V30 46123 H 4189.39 -0.696107 -0.643536 0
M  V30 46124 H 4189.1 -2.14414 -2.78782 0
M  V30 46125 H 4188.97 -0.65904 -3.71398 0
M  V30 46126 H 4191.36 -0.0254386 -2.95089 0
M  V30 46127 H 4191.44 -1.54118 -2.0416 0
M  V30 46128 H 4191.09 -2.83681 -4.21293 0
M  V30 46129 H 4191.02 -1.29579 -5.10409 0
M  V30 46130 H 4193.51 -1.31574 -3.54255 0
M  V30 46131 H 4193.82 -3.26801 -7.00301 0
M  V30 46132 H 4192.17 -2.93271 -6.30093 0
M  V30 46133 H 4195.36 -1.70851 -4.35807 0
M  V30 46134 H 4195.53 -2.59855 -5.93615 0
M  V30 46135 N 4188.94 1.51735 -0.425951 0
M  V30 46136 C 4190.16 2.06887 0.14573 0
M  V30 46137 C 4190.59 1.29241 1.36669 0
M  V30 46138 O 4189.94 0.327208 1.78323 0
M  V30 46139 C 4189.99 3.57681 0.457888 0
M  V30 46140 O 4189.1 3.82316 1.54622 0
M  V30 46141 H 4188.44 0.663965 0.00685452 0
M  V30 46142 H 4190.97 1.95481 -0.604002 0
M  V30 46143 H 4190.98 4.01745 0.71166 0
M  V30 46144 H 4189.65 4.13624 -0.434556 0
M  V30 46145 H 4188.23 3.50123 1.2833 0
M  V30 46146 N 4190.41 0.156919 1.56817 0
M  V30 46147 C 4191.66 -0.49073 1.96052 0
M  V30 46148 C 4191.98 -1.64744 1.04329 0
M  V30 46149 O 4191.25 -1.95609 0.10677 0
M  V30 46150 H 4189.83 -0.18428 0.723913 0
M  V30 46151 H 4192.49 0.234738 1.93481 0
M  V30 46152 H 4191.59 -0.860307 3.00009 0
M  V30 46153 N 4191.89 -1.57166 -0.116849 0
M  V30 46154 C 4193.12 -1.89526 -0.842305 0
M  V30 46155 C 4193.54 -0.749069 -1.72541 0
M  V30 46156 O 4192.9 0.300318 -1.78795 0
M  V30 46157 C 4192.95 -3.20644 -1.64984 0
M  V30 46158 O 4192.05 -3.06701 -2.75696 0
M  V30 46159 H 4191.39 -0.621853 -0.232798 0
M  V30 46160 H 4193.92 -2.04362 -0.0986007 0
M  V30 46161 H 4193.93 -3.53418 -2.03863 0
M  V30 46162 H 4192.61 -4.0366 -1.00157 0
M  V30 46163 H 4191.18 -2.85399 -2.40004 0
M  V30 46164 N 4193.37 0.38709 -1.52772 0
M  V30 46165 C 4194.79 0.727291 -1.42066 0
M  V30 46166 C 4194.99 1.94057 -0.542593 0
M  V30 46167 O 4194.04 2.52494 -0.0167711 0
M  V30 46168 C 4195.35 0.960601 -2.84944 0
M  V30 46169 C 4196.9 1.06195 -2.94434 0
M  V30 46170 C 4197.38 1.32788 -4.38328 0
M  V30 46171 N 4198.87 1.39606 -4.41661 0
M  V30 46172 C 4199.6 1.61851 -5.50084 0
M  V30 46173 N 4199.1 1.81554 -6.68588 0
M  V30 46174 N 4200.89 1.64046 -5.37629 0
M  V30 46175 H 4193.04 -0.411239 -2.08381 0
M  V30 46176 H 4195.31 -0.121808 -0.940142 0
M  V30 46177 H 4195.01 0.141185 -3.51417 0
M  V30 46178 H 4194.89 1.87474 -3.27312 0
M  V30 46179 H 4197.27 1.87194 -2.28128 0
M  V30 46180 H 4197.35 0.125686 -2.55491 0
M  V30 46181 H 4197 0.522992 -5.052 0
M  V30 46182 H 4196.93 2.27703 -4.74825 0
M  V30 46183 H 4199.42 1.2608 -3.56248 0
M  V30 46184 H 4199.73 1.9804 -7.46994 0
M  V30 46185 H 4198.08 1.78775 -6.71613 0
M  V30 46186 H 4201.27 1.48205 -4.44019 0
M  V30 46187 H 4201.44 1.81042 -6.22196 0
M  V30 46188 N 4194.85 1.43768 0.645648 0
M  V30 46189 C 4196.07 1.49457 1.43796 0
M  V30 46190 C 4196.5 0.115981 1.87742 0
M  V30 46191 O 4195.86 -0.891864 1.57846 0
M  V30 46192 C 4195.9 2.45191 2.64412 0
M  V30 46193 O 4195.01 1.9434 3.63738 0
M  V30 46194 H 4194.35 0.505237 0.430849 0
M  V30 46195 H 4196.88 1.88759 0.78939 0
M  V30 46196 H 4196.89 2.62747 3.12135 0
M  V30 46197 H 4195.56 3.45334 2.3177 0
M  V30 46198 H 4194.14 1.86482 3.22922 0
M  V30 46199 N 4196.33 -0.884721 1.30424 0
M  V30 46200 C 4197.57 -1.63332 1.19026 0
M  V30 46201 C 4197.89 -1.93323 -0.255194 0
M  V30 46202 O 4197.16 -1.56985 -1.17186 0
M  V30 46203 H 4195.74 -0.605459 0.437525 0
M  V30 46204 H 4198.41 -1.06 1.63554 0
M  V30 46205 H 4197.5 -2.58333 1.7513 0
M  V30 46206 N 4197.8 -1.13144 -1.09709 0
M  V30 46207 C 4199.03 -0.914817 -1.86134 0
M  V30 46208 C 4199.45 0.531003 -1.80449 0
M  V30 46209 O 4198.81 1.37655 -1.17986 0
M  V30 46210 C 4198.86 -1.40361 -3.32161 0
M  V30 46211 O 4197.96 -0.586953 -4.08202 0
M  V30 46212 H 4197.3 -0.328089 -0.577281 0
M  V30 46213 H 4199.83 -1.5054 -1.3856 0
M  V30 46214 H 4199.84 -1.40596 -3.8301 0
M  V30 46215 H 4198.52 -2.45634 -3.35614 0
M  V30 46216 H 4197.1 -0.652227 -3.67152 0
M  V30 46217 N 4199.28 1.27635 -0.924498 0
M  V30 46218 C 4200.7 1.46885 -0.624256 0
M  V30 46219 C 4200.9 1.83729 0.827397 0
M  V30 46220 O 4199.95 1.94879 1.60557 0
M  V30 46221 C 4201.27 2.56375 -1.57138 0
M  V30 46222 C 4202.82 2.70238 -1.57926 0
M  V30 46223 C 4203.29 3.82882 -2.51327 0
M  V30 46224 N 4204.78 3.90251 -2.49516 0
M  V30 46225 C 4205.52 4.76822 -3.18478 0
M  V30 46226 N 4205.01 5.67905 -3.96807 0
M  V30 46227 N 4206.81 4.70524 -3.07512 0
M  V30 46228 H 4198.96 1.02003 -1.86304 0
M  V30 46229 H 4201.22 0.509118 -0.799689 0
M  V30 46230 H 4200.93 2.36088 -2.60683 0
M  V30 46231 H 4200.8 3.53698 -1.31064 0
M  V30 46232 H 4203.19 2.89908 -0.551141 0
M  V30 46233 H 4203.27 1.73412 -1.88048 0
M  V30 46234 H 4202.91 3.63966 -3.54247 0
M  V30 46235 H 4202.84 4.79128 -2.18503 0
M  V30 46236 H 4205.33 3.25121 -1.92626 0
M  V30 46237 H 4205.65 6.30816 -4.46421 0
M  V30 46238 H 4203.99 5.67711 -4.00911 0
M  V30 46239 H 4207.18 3.98364 -2.45813 0
M  V30 46240 H 4207.35 5.37775 -3.61527 0
M  V30 46241 N 4200.76 0.689652 1.41709 0
M  V30 46242 C 4201.99 0.225461 2.06171 0
M  V30 46243 C 4202.41 -1.11437 1.51537 0
M  V30 46244 O 4201.77 -1.69632 0.639895 0
M  V30 46245 C 4201.82 0.187153 3.60114 0
M  V30 46246 O 4200.92 -0.839819 4.03758 0
M  V30 46247 H 4200.26 0.111633 0.654549 0
M  V30 46248 H 4202.79 0.942846 1.81581 0
M  V30 46249 H 4202.8 0.0160086 4.07997 0
M  V30 46250 H 4201.48 1.16504 3.99249 0
M  V30 46251 H 4200.05 -0.638511 3.67393 0
M  V30 46252 N 4202.24 -1.51507 0.433991 0
M  V30 46253 C 4203.49 -2.0166 -0.133329 0
M  V30 46254 C 4203.81 -1.32029 -1.43504 0
M  V30 46255 O 4203.08 -0.453808 -1.90571 0
M  V30 46256 H 4201.66 -0.74517 -0.0522622 0
M  V30 46257 H 4204.32 -1.86196 0.575932 0
M  V30 46258 H 4203.42 -3.1054 -0.311642 0
M  V30 46259 N 4203.72 -0.165233 -1.56731 0
M  V30 46260 C 4204.94 0.490907 -2.01506 0
M  V30 46261 C 4205.37 1.56422 -1.04469 0
M  V30 46262 O 4204.72 1.81285 -0.023265 0
M  V30 46263 C 4204.77 1.05173 -3.44922 0
M  V30 46264 O 4203.88 2.16597 -3.50941 0
M  V30 46265 H 4203.22 0.118199 -0.653395 0
M  V30 46266 H 4205.75 -0.267334 -2.02846 0
M  V30 46267 H 4205.76 1.37586 -3.84102 0
M  V30 46268 H 4204.43 0.265843 -4.15049 0
M  V30 46269 H 4203.01 1.85275 -3.23617 0
M  V30 46270 N 4205.19 1.57226 0.108512 0
M  V30 46271 C 4206.61 1.52756 0.462352 0
M  V30 46272 C 4206.81 0.879881 1.81274 0
M  V30 46273 O 4205.87 0.466671 2.4815 0
M  V30 46274 C 4207.18 2.97505 0.437188 0
M  V30 46275 C 4208.73 3.0865 0.519998 0
M  V30 46276 C 4209.2 4.5498 0.525118 0
M  V30 46277 N 4210.69 4.59475 0.586258 0
M  V30 46278 C 4211.43 5.70126 0.61184 0
M  V30 46279 N 4210.92 6.90245 0.594434 0
M  V30 46280 N 4212.72 5.58263 0.65564 0
M  V30 46281 H 4204.87 1.9771 -0.776169 0
M  V30 46282 H 4207.13 0.903362 -0.287473 0
M  V30 46283 H 4206.84 3.48303 -0.487613 0
M  V30 46284 H 4206.71 3.55493 1.26114 0
M  V30 46285 H 4209.1 2.57848 1.43522 0
M  V30 46286 H 4209.18 2.53638 -0.331839 0
M  V30 46287 H 4208.82 5.0643 -0.386102 0
M  V30 46288 H 4208.75 5.07815 1.39398 0
M  V30 46289 H 4211.24 3.73018 0.605448 0
M  V30 46290 H 4211.56 7.70334 0.616867 0
M  V30 46291 H 4209.9 6.92727 0.561693 0
M  V30 46292 H 4213.09 4.63328 0.666675 0
M  V30 46293 H 4213.27 6.44505 0.672109 0
M  V30 46294 N 4206.67 -0.378982 1.52975 0
M  V30 46295 C 4208.09 -0.719747 1.42449 0
M  V30 46296 C 4208.29 -1.93767 0.552877 0
M  V30 46297 O 4207.34 -2.52482 0.0301612 0
M  V30 46298 C 4208.66 -0.945476 2.85449 0
M  V30 46299 C 4210.21 -1.04633 2.94993 0
M  V30 46300 C 4210.68 -1.30462 4.39026 0
M  V30 46301 N 4212.17 -1.37261 4.42395 0
M  V30 46302 C 4212.91 -1.58931 5.50934 0
M  V30 46303 N 4212.4 -1.78006 6.69542 0
M  V30 46304 N 4214.2 -1.61192 5.38492 0
M  V30 46305 H 4206.35 0.422284 2.0816 0
M  V30 46306 H 4208.61 0.126792 0.939483 0
M  V30 46307 H 4208.32 -0.122546 3.51486 0
M  V30 46308 H 4208.19 -1.85735 3.28302 0
M  V30 46309 H 4210.58 -1.85981 2.29118 0
M  V30 46310 H 4210.66 -0.112135 2.55554 0
M  V30 46311 H 4210.3 -0.496193 5.0547 0
M  V30 46312 H 4210.23 -2.25181 4.76026 0
M  V30 46313 H 4212.72 -1.24189 3.56911 0
M  V30 46314 H 4213.04 -1.94076 7.48034 0
M  V30 46315 H 4211.38 -1.7521 6.72552 0
M  V30 46316 H 4214.57 -1.45849 4.44799 0
M  V30 46317 H 4214.74 -1.7774 6.23147 0
M  V30 46318 N 4208.15 -1.44108 -0.638015 0
M  V30 46319 C 4209.4 -1.46239 -1.39494 0
M  V30 46320 C 4209.72 -0.0935673 -1.94775 0
M  V30 46321 O 4208.99 0.8732 -1.75363 0
M  V30 46322 H 4207.57 -0.538461 -0.517753 0
M  V30 46323 H 4210.23 -1.79832 -0.75142 0
M  V30 46324 H 4209.33 -2.18382 -2.2297 0
M  V30 46325 N 4209.63 0.877792 -1.30891 0
M  V30 46326 C 4210.85 1.66842 -1.23202 0
M  V30 46327 C 4211.28 1.87025 0.200775 0
M  V30 46328 O 4210.64 1.40638 1.14414 0
M  V30 46329 C 4210.68 3.01814 -1.97333 0
M  V30 46330 O 4209.79 3.91197 -1.30533 0
M  V30 46331 H 4209.13 0.509538 -0.425755 0
M  V30 46332 H 4211.66 1.09501 -1.72831 0
M  V30 46333 H 4211.67 3.51807 -2.0663 0
M  V30 46334 H 4210.34 2.86444 -3.01534 0
M  V30 46335 H 4208.92 3.49641 -1.29637 0
M  V30 46336 N 4211.11 1.13725 1.09108 0
M  V30 46337 C 4212.35 0.901016 1.8135 0
M  V30 46338 C 4212.68 -0.572716 1.85877 0
M  V30 46339 O 4211.94 -1.44001 1.32522 0
M  V30 46340 C 4212.24 1.4381 3.2719 0
M  V30 46341 C 4211.9 2.92924 3.42792 0
M  V30 46342 C 4210.56 3.33635 3.46758 0
M  V30 46343 C 4212.92 3.88843 3.4706 0
M  V30 46344 C 4210.24 4.68944 3.52574 0
M  V30 46345 C 4212.6 5.23999 3.54411 0
M  V30 46346 C 4211.26 5.64233 3.56647 0
M  V30 46347 H 4210.53 0.329705 0.663608 0
M  V30 46348 H 4213.18 1.41973 1.28514 0
M  V30 46349 H 4211.48 0.84016 3.82686 0
M  V30 46350 H 4213.18 1.23136 3.81626 0
M  V30 46351 H 4209.77 2.60444 3.40392 0
M  V30 46352 H 4213.95 3.58475 3.43234 0
M  V30 46353 H 4209.21 4.99487 3.52594 0
M  V30 46354 H 4213.38 5.98137 3.56659 0
M  V30 46355 H 4211.01 6.69067 3.60906 0
M  V30 46356 N 4212.58 -1.27143 0.931254 0
M  V30 46357 C 4213.86 -1.89316 0.491822 0
M  V30 46358 C 4214.24 -1.84254 -1.03023 0
M  V30 46359 O 4213.59 -1.29015 -1.88593 0
M  V30 46360 C 4213.8 -3.33084 1.04193 0
M  V30 46361 C 4215.15 -4.09981 1.10457 0
M  V30 46362 O 4216.17 -3.42113 0.991807 0
M  V30 46363 O 4215.03 -5.3133 1.27871 0
M  V30 46364 H 4212.12 -0.811618 0.15876 0
M  V30 46365 H 4214.67 -1.35385 1.02317 0
M  V30 46366 H 4213.44 -3.31079 2.08572 0
M  V30 46367 H 4213.07 -3.94539 0.492435 0
M  V30 46368 N 4214.06 -0.697157 -1.41342 0
M  V30 46369 C 4215.03 -0.0417739 -2.29162 0
M  V30 46370 C 4216.03 0.706328 -1.44456 0
M  V30 46371 O 4217.22 0.540981 -1.65587 0
M  V30 46372 C 4214.35 0.951178 -3.27361 0
M  V30 46373 H 4215.54 -0.815024 -2.88613 0
M  V30 46374 H 4213.09 -0.460744 -1.49355 0
M  V30 46375 H 4213.83 1.75214 -2.72893 0
M  V30 46376 H 4213.61 0.417862 -3.89867 0
M  V30 46377 H 4215.1 1.40749 -3.93166 0
M  V30 46378 N 4215.54 1.51274 -0.44202 0
M  V30 46379 C 4216.77 2.06543 0.121415 0
M  V30 46380 C 4217.18 1.30898 1.36056 0
M  V30 46381 O 4216.54 0.369865 1.78713 0
M  V30 46382 C 4216.59 3.58826 0.43892 0
M  V30 46383 O 4216.31 4.31614 -0.751045 0
M  V30 46384 C 4217.81 4.30624 1.05252 0
M  V30 46385 H 4215.03 0.670975 0.00584884 0
M  V30 46386 H 4217.58 1.94797 -0.622449 0
M  V30 46387 H 4215.73 3.70471 1.13269 0
M  V30 46388 H 4216.15 5.22316 -0.478116 0
M  V30 46389 H 4217.62 5.38244 1.22464 0
M  V30 46390 H 4218.1 3.89219 2.03482 0
M  V30 46391 H 4218.7 4.23434 0.397994 0
M  V30 46392 N 4217.02 0.173543 1.56642 0
M  V30 46393 C 4218.27 -0.469908 1.96561 0
M  V30 46394 C 4218.59 -1.63628 1.0607 0
M  V30 46395 O 4217.86 -1.95485 0.127511 0
M  V30 46396 H 4216.44 -0.176592 0.725827 0
M  V30 46397 H 4219.1 0.255246 1.93221 0
M  V30 46398 H 4218.2 -0.828439 3.00904 0
M  V30 46399 N 4218.5 -1.57281 -0.100172 0
M  V30 46400 C 4219.45 -2.02704 -1.14078 0
M  V30 46401 C 4220.44 -0.927208 -1.41772 0
M  V30 46402 O 4221.65 -1.11239 -1.41512 0
M  V30 46403 H 4218.02 -0.645921 -0.385084 0
M  V30 46404 H 4219.99 -2.893 -0.731324 0
M  V30 46405 C 4218.74 -2.46302 -2.4542 0
M  V30 46406 H 4218.06 -3.30509 -2.24953 0
M  V30 46407 H 4219.5 -2.81864 -3.16747 0
M  V30 46408 C 4217.96 -1.33423 -3.09354 0
M  V30 46409 O 4218.49 -0.660563 -3.96232 0
M  V30 46410 N 4216.7 -1.0865 -2.69524 0
M  V30 46411 H 4216.25 -1.63613 -1.98969 0
M  V30 46412 H 4216.2 -0.333241 -3.12629 0
M  V30 46413 N 4219.98 0.370864 -1.53174 0
M  V30 46414 C 4221.2 1.13929 -1.73306 0
M  V30 46415 C 4221.63 1.82426 -0.458527 0
M  V30 46416 O 4220.98 1.71532 0.587064 0
M  V30 46417 C 4221.03 2.14928 -2.89548 0
M  V30 46418 O 4220.14 3.21899 -2.57788 0
M  V30 46419 H 4219.48 0.33082 -0.575721 0
M  V30 46420 H 4222.01 0.429606 -2.00039 0
M  V30 46421 H 4222.02 2.58619 -3.15563 0
M  V30 46422 H 4220.69 1.64464 -3.82001 0
M  V30 46423 H 4219.27 2.83218 -2.42573 0
M  V30 46424 N 4221.45 1.44444 0.630363 0
M  V30 46425 C 4222.68 1.50974 1.42203 0
M  V30 46426 C 4223.1 0.135887 1.87609 0
M  V30 46427 O 4222.46 -0.875072 1.58783 0
M  V30 46428 C 4222.51 2.47982 2.61797 0
M  V30 46429 O 4221.61 1.98187 3.61657 0
M  V30 46430 H 4220.95 0.509779 0.425466 0
M  V30 46431 H 4223.48 1.89585 0.769326 0
M  V30 46432 H 4223.49 2.66043 3.09331 0
M  V30 46433 H 4222.17 3.47773 2.28094 0
M  V30 46434 H 4220.75 1.89897 3.20926 0
M  V30 46435 N 4222.93 -0.870838 1.31355 0
M  V30 46436 C 4224.16 -1.65421 1.23772 0
M  V30 46437 C 4224.57 -1.88145 -0.199497 0
M  V30 46438 O 4223.91 -1.43915 -1.14167 0
M  V30 46439 C 4223.97 -3.04519 1.91071 0
M  V30 46440 C 4223.64 -3.04908 3.40412 0
M  V30 46441 C 4224.64 -2.8293 4.36173 0
M  V30 46442 C 4222.32 -3.26056 3.8209 0
M  V30 46443 C 4224.31 -2.82078 5.71586 0
M  V30 46444 C 4222 -3.24833 5.17616 0
M  V30 46445 C 4223 -3.02871 6.12175 0
M  V30 46446 O 4222.69 -3.01491 7.45224 0
M  V30 46447 H 4222.42 -0.522496 0.428922 0
M  V30 46448 H 4224.97 -1.09529 1.7376 0
M  V30 46449 H 4223.2 -3.62134 1.35631 0
M  V30 46450 H 4224.89 -3.65074 1.77415 0
M  V30 46451 H 4225.66 -2.66374 4.05303 0
M  V30 46452 H 4221.54 -3.42181 3.08922 0
M  V30 46453 H 4225.08 -2.64855 6.45366 0
M  V30 46454 H 4220.98 -3.40929 5.48122 0
M  V30 46455 H 4221.75 -3.17559 7.54386 0
M  V30 46456 N 4224.41 -1.14302 -1.08503 0
M  V30 46457 C 4225.63 -0.934508 -1.85153 0
M  V30 46458 C 4226.06 0.511834 -1.81002 0
M  V30 46459 O 4225.42 1.36396 -1.19439 0
M  V30 46460 C 4225.47 -1.43877 -3.30654 0
M  V30 46461 O 4224.57 -0.630215 -4.07556 0
M  V30 46462 H 4223.91 -0.334194 -0.573769 0
M  V30 46463 H 4226.44 -1.52001 -1.36956 0
M  V30 46464 H 4226.45 -1.44651 -3.81497 0
M  V30 46465 H 4225.13 -2.49179 -3.3299 0
M  V30 46466 H 4223.7 -0.691132 -3.66439 0
M  V30 46467 N 4225.89 1.26648 -0.937984 0
M  V30 46468 C 4227.12 1.97707 -0.599628 0
M  V30 46469 C 4227.53 1.70073 0.828957 0
M  V30 46470 O 4226.87 0.963729 1.5639 0
M  V30 46471 C 4226.93 3.51416 -0.758109 0
M  V30 46472 C 4226.59 4.02693 -2.16073 0
M  V30 46473 C 4227.59 4.14677 -3.1359 0
M  V30 46474 C 4225.28 4.36783 -2.48044 0
M  V30 46475 C 4227.27 4.60041 -4.41181 0
M  V30 46476 C 4224.96 4.81836 -3.75869 0
M  V30 46477 C 4225.96 4.93425 -4.7225 0
M  V30 46478 O 4225.64 5.37486 -5.97799 0
M  V30 46479 H 4225.38 0.637421 -0.225102 0
M  V30 46480 H 4227.93 1.62205 -1.26011 0
M  V30 46481 H 4226.16 3.86679 -0.0405018 0
M  V30 46482 H 4227.85 4.03687 -0.423289 0
M  V30 46483 H 4228.61 3.88589 -2.90213 0
M  V30 46484 H 4224.49 4.26998 -1.73762 0
M  V30 46485 H 4228.04 4.69002 -5.16413 0
M  V30 46486 H 4223.93 5.07367 -3.9906 0
M  V30 46487 H 4224.7 5.55715 -6.00935 0
M  V30 46488 N 4227.37 0.704643 1.4097 0
M  V30 46489 C 4228.59 0.247316 2.0592 0
M  V30 46490 C 4229.02 -1.09823 1.5271 0
M  V30 46491 O 4228.37 -1.68944 0.65785 0
M  V30 46492 C 4228.42 0.225337 3.59895 0
M  V30 46493 O 4227.53 -0.796948 4.04626 0
M  V30 46494 H 4226.87 0.118569 0.653328 0
M  V30 46495 H 4229.4 0.962052 1.80571 0
M  V30 46496 H 4229.41 0.0592812 4.07957 0
M  V30 46497 H 4228.08 1.20732 3.97991 0
M  V30 46498 H 4226.66 -0.599508 3.68049 0
M  V30 46499 N 4228.84 -1.51038 0.450036 0
M  V30 46500 C 4230.07 -2.06305 -0.1103 0
M  V30 46501 C 4230.48 -1.31625 -1.3591 0
M  V30 46502 O 4229.83 -0.372843 -1.79877 0
M  V30 46503 C 4229.89 -3.56209 -0.485325 0
M  V30 46504 C 4229.55 -4.52231 0.658461 0
M  V30 46505 C 4230.55 -4.96743 1.53436 0
M  V30 46506 C 4228.23 -4.95179 0.842805 0
M  V30 46507 C 4230.23 -5.82887 2.57918 0
M  V30 46508 C 4227.91 -5.8111 1.89089 0
M  V30 46509 C 4228.91 -6.24863 2.75745 0
M  V30 46510 O 4228.6 -7.09085 3.78752 0
M  V30 46511 H 4228.33 -0.675976 -0.00568742 0
M  V30 46512 H 4230.89 -1.95447 0.631648 0
M  V30 46513 H 4229.12 -3.64896 -1.28016 0
M  V30 46514 H 4230.81 -3.93934 -0.978287 0
M  V30 46515 H 4231.57 -4.64248 1.40353 0
M  V30 46516 H 4227.45 -4.60657 0.17784 0
M  V30 46517 H 4230.99 -6.16958 3.25589 0
M  V30 46518 H 4226.89 -6.13018 2.02186 0
M  V30 46519 H 4227.66 -7.27291 3.75486 0
M  V30 46520 N 4230.32 -0.181847 -1.56547 0
M  V30 46521 C 4231.55 0.469507 -2.02016 0
M  V30 46522 C 4231.97 1.55305 -1.06122 0
M  V30 46523 O 4231.33 1.8125 -0.0424914 0
M  V30 46524 C 4231.38 1.01509 -3.46018 0
M  V30 46525 O 4230.48 2.12863 -3.53218 0
M  V30 46526 H 4229.82 0.111262 -0.654612 0
M  V30 46527 H 4232.35 -0.288833 -2.02551 0
M  V30 46528 H 4232.36 1.33505 -3.85539 0
M  V30 46529 H 4231.04 0.221807 -4.15308 0
M  V30 46530 H 4229.62 1.81832 -3.25563 0
M  V30 46531 N 4231.8 1.57332 0.09183 0
M  V30 46532 C 4233.05 1.86254 0.794724 0
M  V30 46533 C 4233.38 0.770825 1.78574 0
M  V30 46534 O 4232.63 -0.235257 1.94281 0
M  V30 46535 C 4232.93 3.21773 1.55553 0
M  V30 46536 C 4232.6 4.45333 0.706348 0
M  V30 46537 C 4231.26 4.78877 0.472262 0
M  V30 46538 C 4233.61 5.2107 0.116222 0
M  V30 46539 C 4230.94 5.85584 -0.36176 0
M  V30 46540 C 4233.29 6.28658 -0.705141 0
M  V30 46541 C 4231.95 6.60715 -0.949288 0
M  V30 46542 H 4231.22 0.68155 0.29081 0
M  V30 46543 H 4233.87 1.91418 0.056103 0
M  V30 46544 H 4232.18 3.12308 2.36582 0
M  V30 46545 H 4233.87 3.41379 2.10384 0
M  V30 46546 H 4230.46 4.19067 0.898911 0
M  V30 46547 H 4234.65 4.95485 0.284228 0
M  V30 46548 H 4229.9 6.08831 -0.559864 0
M  V30 46549 H 4234.08 6.86514 -1.16926 0
M  V30 46550 H 4231.7 7.43229 -1.59734 0
M  V30 46551 N 4233.28 -0.362736 1.53369 0
M  V30 46552 C 4234.5 -1.13008 1.73908 0
M  V30 46553 C 4234.93 -1.8218 0.468195 0
M  V30 46554 O 4234.29 -1.71841 -0.577959 0
M  V30 46555 C 4234.33 -2.1339 2.90684 0
M  V30 46556 O 4233.44 -3.20528 2.59491 0
M  V30 46557 H 4232.78 -0.327762 0.577467 0
M  V30 46558 H 4235.31 -0.418991 2.00264 0
M  V30 46559 H 4235.32 -2.56942 3.1693 0
M  V30 46560 H 4233.99 -1.62436 3.82867 0
M  V30 46561 H 4232.57 -2.81928 2.44072 0
M  V30 46562 N 4234.76 -1.44777 -0.622694 0
M  V30 46563 C 4235.98 -1.51726 -1.414 0
M  V30 46564 C 4236.41 -0.145835 -1.87534 0
M  V30 46565 O 4235.76 0.866639 -1.59245 0
M  V30 46566 C 4235.81 -2.49367 -2.60478 0
M  V30 46567 O 4234.92 -2.00102 -3.60601 0
M  V30 46568 H 4234.26 -0.512028 -0.422757 0
M  V30 46569 H 4236.79 -1.89991 -0.759261 0
M  V30 46570 H 4236.8 -2.67679 -3.07915 0
M  V30 46571 H 4235.47 -3.48978 -2.26247 0
M  V30 46572 H 4234.05 -1.91596 -3.19915 0
M  V30 46573 N 4236.23 0.863859 -1.31815 0
M  V30 46574 C 4237.46 1.65526 -1.24964 0
M  V30 46575 C 4237.88 1.87228 0.180927 0
M  V30 46576 O 4237.24 1.41844 1.12916 0
M  V30 46577 C 4237.29 2.99704 -2.00523 0
M  V30 46578 O 4236.39 3.8979 -1.34674 0
M  V30 46579 H 4235.74 0.504993 -0.431136 0
M  V30 46580 H 4238.27 1.07662 -1.73983 0
M  V30 46581 H 4238.28 3.49595 -2.1035 0
M  V30 46582 H 4236.95 2.83229 -3.04555 0
M  V30 46583 H 4235.53 3.48246 -1.33338 0
M  V30 46584 N 4237.71 1.14875 1.07895 0
M  V30 46585 C 4238.94 0.944314 1.84655 0
M  V30 46586 C 4239.36 -0.502228 1.81271 0
M  V30 46587 O 4238.72 -1.35761 1.20161 0
M  V30 46588 C 4238.77 1.45628 3.29886 0
M  V30 46589 O 4237.87 0.65182 4.07216 0
M  V30 46590 H 4237.21 0.337232 0.571988 0
M  V30 46591 H 4239.74 1.52725 1.36148 0
M  V30 46592 H 4239.75 1.46672 3.80725 0
M  V30 46593 H 4238.43 2.50942 3.31664 0
M  V30 46594 H 4237.01 0.710555 3.66068 0
M  V30 46595 N 4239.19 -1.26148 0.944687 0
M  V30 46596 C 4240.44 -1.92882 0.589851 0
M  V30 46597 C 4240.75 -1.749 -0.875756 0
M  V30 46598 O 4241.96 -2.36121 -1.34012 0
M  V30 46599 C 4240.41 -3.45606 1.00421 0
M  V30 46600 C 4240.02 -3.72317 2.49167 0
M  V30 46601 C 4241.77 -4.18325 0.72143 0
M  V30 46602 C 4239.67 -5.18498 2.84454 0
M  V30 46603 H 4238.6 -0.722132 0.216892 0
M  V30 46604 H 4241.25 -1.43171 1.1478 0
M  V30 46605 H 4239.64 -3.94223 0.374756 0
M  V30 46606 H 4240.81 -3.34392 3.17046 0
M  V30 46607 H 4239.13 -3.12838 2.74811 0
M  V30 46608 H 4241.72 -5.25987 0.961359 0
M  V30 46609 H 4242.07 -4.14894 -0.341908 0
M  V30 46610 H 4242.6 -3.75585 1.31076 0
M  V30 46611 H 4239.34 -5.27033 3.89765 0
M  V30 46612 H 4238.86 -5.57506 2.21239 0
M  V30 46613 H 4240.54 -5.86533 2.73108 0
M  V30 46614 N 4240.67 -0.712109 -1.40594 0
M  V30 46615 C 4241.92 -0.249628 -2.00552 0
M  V30 46616 C 4242.24 1.16009 -1.56738 0
M  V30 46617 O 4241.51 1.78583 -0.80529 0
M  V30 46618 H 4240.09 -0.0893015 -0.741643 0
M  V30 46619 H 4242.75 -0.916964 -1.71982 0
M  V30 46620 H 4241.85 -0.279993 -3.10842 0
M  V30 46621 N 4242.15 1.50797 -0.45804 0
M  V30 46622 C 4243.1 2.2512 0.361242 0
M  V30 46623 C 4244.08 1.28176 0.972605 0
M  V30 46624 O 4245.27 1.53153 0.887316 0
M  V30 46625 C 4242.4 3.11168 1.45016 0
M  V30 46626 C 4241.49 4.15552 0.847171 0
M  V30 46627 N 4241.88 5.05794 -0.0247326 0
M  V30 46628 C 4240.18 4.31901 1.11254 0
M  V30 46629 C 4240.88 5.8055 -0.365589 0
M  V30 46630 N 4239.85 5.42997 0.255996 0
M  V30 46631 H 4243.66 2.92254 -0.310629 0
M  V30 46632 H 4241.17 1.60117 -0.271374 0
M  V30 46633 H 4243.17 3.63008 2.05015 0
M  V30 46634 H 4241.83 2.45581 2.12415 0
M  V30 46635 H 4242.84 5.16409 -0.392656 0
M  V30 46636 H 4239.51 3.77536 1.78249 0
M  V30 46637 H 4240.9 6.63222 -1.07636 0
M  V30 46638 O 4243.66 0.331427 1.58063 0
M  V30 46639 H 4244.35 -0.226716 1.92369 0
M  V30 END ATOM
M  V30 BEGIN BOND
M  V30 END BOND
M  V30 END CTAB
M  END
$$$$
