drugbank_target|P30749 Molybdopterin synthase catalytic subunit (DB01942)
 OpenBabel12092120233D

  0  0  0     0  0            999 V3000
M  V30 BEGIN CTAB
M  V30 COUNTS 2357 2389 0 0 0
M  V30 BEGIN ATOM
M  V30 1 H -0.908 1.98254 -0.117106 0
M  V30 2 N 0 1.576 0 0
M  V30 3 C 0.933 2.03868 1.02534 0
M  V30 4 C 1.911 0.928543 1.3348 0
M  V30 5 O 3.095 1.19667 1.45644 0
M  V30 6 C 0.222 2.43627 2.35294 0
M  V30 7 C -0.732 3.65373 2.2001 0
M  V30 8 S 0.101 5.13292 1.52614 0
M  V30 9 C 1.257 5.56322 2.86805 0
M  V30 10 H 1.49 2.90518 0.631377 0
M  V30 11 H -0.977 1.52953 0.210867 0
M  V30 12 H 0.981 2.67203 3.11629 0
M  V30 13 H -0.358 1.57376 2.7183 0
M  V30 14 H -1.165 3.90944 3.18086 0
M  V30 15 H -1.563 3.418 1.51819 0
M  V30 16 H 0.729 5.58782 3.83104 0
M  V30 17 H 1.672 6.56266 2.65933 0
M  V30 18 H 2.08 4.83886 2.90714 0
M  V30 19 N 1.4781 -0.272755 1.55222 0
M  V30 20 C 2.4411 -1.32041 1.87344 0
M  V30 21 C 3.4411 -1.42342 0.74803 0
M  V30 22 O 4.6311 -1.41488 1.0162 0
M  V30 23 C 1.7631 -2.70173 2.07893 0
M  V30 24 H 2.9561 -1.04789 2.80997 0
M  V30 25 H 0.5091 -0.51083 1.47717 0
M  V30 26 H 1.2441 -3.02605 1.16622 0
M  V30 27 H 1.0291 -2.64082 2.89833 0
M  V30 28 H 2.5191 -3.45869 2.34017 0
M  V30 29 N 2.9562 -1.48159 -0.537278 0
M  V30 30 C 3.8662 -1.64807 -1.6696 0
M  V30 31 C 4.8822 -0.530651 -1.65711 0
M  V30 32 O 6.0582 -0.800784 -1.84796 0
M  V30 33 C 3.1232 -1.67708 -3.03438 0
M  V30 34 C 2.1842 -2.91025 -3.156 0
M  V30 35 C 1.4172 -2.93778 -4.45567 0
M  V30 36 O 1.6402 -2.05153 -5.3223 0
M  V30 37 O 0.5742 -3.85868 -4.61941 0
M  V30 38 H 4.4002 -2.6066 -1.55853 0
M  V30 39 H 1.9852 -1.31475 -0.709549 0
M  V30 40 H 3.8672 -1.7218 -3.84619 0
M  V30 41 H 2.5422 -0.750278 -3.14885 0
M  V30 42 H 1.4492 -2.92089 -2.33741 0
M  V30 43 H 2.7822 -3.83065 -3.09066 0
M  V30 44 N 4.4343 0.785586 -1.36625 0
M  V30 45 C 5.6623 1.57448 -1.3423 0
M  V30 46 C 6.0773 1.88649 0.0755653 0
M  V30 47 O 5.4343 1.50414 1.03354 0
M  V30 48 C 5.4853 2.89316 -2.16745 0
M  V30 49 O 5.2063 2.59459 -3.53005 0
M  V30 50 C 6.7073 3.83606 -2.22174 0
M  V30 51 H 3.9273 0.488226 -0.4603 0
M  V30 52 H 6.4713 0.974733 -1.79775 0
M  V30 53 H 4.6263 3.4575 -1.74745 0
M  V30 54 H 5.0403 3.43804 -3.96105 0
M  V30 55 H 6.5143 4.73181 -2.8426 0
M  V30 56 H 6.9913 4.21734 -1.22627 0
M  V30 57 H 7.5973 3.33104 -2.64427 0
M  V30 58 N 5.9124 1.20967 1.01018 0
M  V30 59 C 6.8594 0.964281 2.09691 0
M  V30 60 C 7.8294 -0.107853 1.65749 0
M  V30 61 O 9.0144 0.0381987 1.90762 0
M  V30 62 C 6.1544 0.52943 3.41015 0
M  V30 63 C 5.2674 1.67043 3.98398 0
M  V30 64 C 4.4024 1.18525 5.17808 0
M  V30 65 C 3.4414 2.29892 5.67288 0
M  V30 66 N 2.5784 1.82546 6.77954 0
M  V30 67 H 7.4184 1.89463 2.30017 0
M  V30 68 H 4.9554 0.944289 1.1279 0
M  V30 69 H 6.9134 0.258588 4.16398 0
M  V30 70 H 5.5434 -0.363919 3.20742 0
M  V30 71 H 4.5954 2.05603 3.20049 0
M  V30 72 H 5.9074 2.50877 4.31117 0
M  V30 73 H 5.0614 0.870762 6.00419 0
M  V30 74 H 3.8004 0.316887 4.86669 0
M  V30 75 H 2.8054 2.6215 4.83278 0
M  V30 76 H 4.0304 3.17216 6.00459 0
M  V30 77 H 1.9764 0.980454 6.48632 0
M  V30 78 H 1.8934 2.59956 7.09901 0
M  V30 79 H 3.1614 1.54115 7.64113 0
M  V30 80 N 7.3905 -1.2043 1.01659 0
M  V30 81 C 8.6395 -1.89118 0.701237 0
M  V30 82 C 8.9525 -1.79705 -0.772358 0
M  V30 83 O 10.1585 -2.43528 -1.20026 0
M  V30 84 C 8.6145 -3.39168 1.20388 0
M  V30 85 C 8.2225 -3.57166 2.70438 0
M  V30 86 C 9.9665 -4.1341 0.963953 0
M  V30 87 C 7.8735 -5.01042 3.14183 0
M  V30 88 H 6.8035 -0.708267 0.2586 0
M  V30 89 H 9.4545 -1.36239 1.22927 0
M  V30 90 H 7.8365 -3.91369 0.603824 0
M  V30 91 H 9.0105 -3.15351 3.35992 0
M  V30 92 H 7.3255 -2.96294 2.92572 0
M  V30 93 H 9.9225 -5.19491 1.26621 0
M  V30 94 H 10.2655 -4.16181 -0.099578 0
M  V30 95 H 10.7985 -3.67309 1.52738 0
M  V30 96 H 7.5375 -5.03426 4.19812 0
M  V30 97 H 7.0575 -5.43668 2.53348 0
M  V30 98 H 8.7365 -5.69623 3.0682 0
M  V30 99 N 8.8686 -0.792821 -1.36206 0
M  V30 100 C 10.1146 -0.36733 -1.99446 0
M  V30 101 C 10.4476 1.05917 -1.62774 0
M  V30 102 O 9.7226 1.7324 -0.88421 0
M  V30 103 C 10.0056 -0.535044 -3.56103 0
M  V30 104 C 9.8586 -2.00548 -4.02617 0
M  V30 105 C 11.1776 0.0478191 -4.40074 0
M  V30 106 H 8.2966 -0.134941 -0.724541 0
M  V30 107 H 10.9386 -0.999794 -1.61568 0
M  V30 108 H 9.0886 0.00336329 -3.885 0
M  V30 109 H 10.7606 -2.60521 -3.80692 0
M  V30 110 H 9.0036 -2.50686 -3.54032 0
M  V30 111 H 9.6746 -2.07377 -5.11565 0
M  V30 112 H 12.1506 -0.411822 -4.14057 0
M  V30 113 H 11.0266 -0.0995336 -5.4881 0
M  V30 114 H 11.2876 1.14025 -4.27142 0
M  V30 115 N 10.3467 1.47872 -0.545128 0
M  V30 116 C 11.5927 2.02793 -0.0166104 0
M  V30 117 C 11.9257 1.41987 1.32489 0
M  V30 118 O 11.2007 0.571045 1.85928 0
M  V30 119 C 11.4837 3.59989 0.0893294 0
M  V30 120 C 11.3367 4.3125 -1.27841 0
M  V30 121 C 12.6557 4.32606 0.808724 0
M  V30 122 H 9.7747 0.736962 -0.00751035 0
M  V30 123 H 12.4167 1.76433 -0.705085 0
M  V30 124 H 10.5667 3.82579 0.675681 0
M  V30 125 H 12.2387 4.20035 -1.90704 0
M  V30 126 H 10.4817 3.92076 -1.85632 0
M  V30 127 H 11.1527 5.39736 -1.15713 0
M  V30 128 H 13.6287 4.14936 0.310992 0
M  V30 129 H 12.5047 5.42251 0.851782 0
M  V30 130 H 12.7657 4.00963 1.86229 0
M  V30 131 N 11.8248 0.280983 1.55075 0
M  V30 132 C 13.0728 -0.333455 1.9933 0
M  V30 133 C 13.3938 -1.55937 1.17085 0
M  V30 134 O 12.6638 -1.94143 0.261805 0
M  V30 135 H 11.2438 -0.126197 0.736263 0
M  V30 136 H 13.9058 0.387678 1.91005 0
M  V30 137 H 13.0018 -0.619292 3.05894 0
M  V30 138 N 13.3029 -1.57598 0.00835791 0
M  V30 139 C 14.7139 -1.7892 -0.53333 0
M  V30 140 C 15.0649 -0.916609 -1.73473 0
M  V30 141 O 14.1899 -0.121336 -2.1606 0
M  V30 142 C 14.7849 -3.24488 -0.974313 0
M  V30 143 C 13.3439 -3.46878 -1.46125 0
M  V30 144 C 12.4909 -2.74157 -0.416302 0
M  V30 145 H 15.4419 -1.56958 0.234495 0
M  V30 146 H 15.4629 -3.3306 -1.83988 0
M  V30 147 H 14.9749 -3.87972 -0.099718 0
M  V30 148 H 13.0759 -2.8862 -2.35646 0
M  V30 149 H 13.1889 -4.55572 -1.48295 0
M  V30 150 H 11.5529 -2.39022 -0.87981 0
M  V30 151 H 12.3359 -3.40345 0.44947 0
M  V30 152 N 14.781 0.264519 -1.55364 0
M  V30 153 C 15.713 1.34965 -1.85248 0
M  V30 154 C 16.726 1.45136 -0.737525 0
M  V30 155 O 17.915 1.46801 -1.01547 0
M  V30 156 C 15.015 2.73008 -2.00797 0
M  V30 157 C 14.188 2.85324 -3.31525 0
M  V30 158 C 13.247 4.04097 -3.37034 0
M  V30 159 O 12.273 3.94455 -4.10358 0
M  V30 160 N 13.475 5.16458 -2.65049 0
M  V30 161 H 16.24 1.09672 -2.78913 0
M  V30 162 H 13.801 0.454635 -1.55386 0
M  V30 163 H 15.793 3.50772 -2.01844 0
M  V30 164 H 14.363 2.91087 -1.1396 0
M  V30 165 H 13.583 1.94377 -3.42945 0
M  V30 166 H 14.871 2.9049 -4.17724 0
M  V30 167 H 14.269 5.27181 -2.05175 0
M  V30 168 H 12.826 5.92422 -2.71809 0
M  V30 169 N 16.2591 1.48442 0.529413 0
M  V30 170 C 17.6701 1.5002 1.11134 0
M  V30 171 C 18.0211 0.27031 1.94329 0
M  V30 172 O 17.1461 -0.622507 2.07253 0
M  V30 173 C 17.7411 2.71834 2.02217 0
M  V30 174 C 16.3001 2.76283 2.55627 0
M  V30 175 C 15.4471 2.43542 1.326 0
M  V30 176 H 18.3981 1.5555 0.314641 0
M  V30 177 H 18.4191 2.50384 2.8651 0
M  V30 178 H 17.9311 3.61331 1.41639 0
M  V30 179 H 16.0321 1.90995 3.19924 0
M  V30 180 H 16.1451 3.77725 2.94721 0
M  V30 181 H 14.5091 1.94709 1.64196 0
M  V30 182 H 15.2921 3.3528 0.737734 0
M  V30 183 N 17.7372 -0.778329 1.37039 0
M  V30 184 C 18.9842 -1.53665 1.31884 0
M  V30 185 C 19.3122 -1.9425 -0.0986303 0
M  V30 186 O 18.5672 -1.63832 -1.07041 0
M  V30 187 C 18.8662 -2.81845 2.19768 0
M  V30 188 C 18.5322 -2.60345 3.68146 0
M  V30 189 C 17.1942 -2.5419 4.08584 0
M  V30 190 C 19.5462 -2.40923 4.62175 0
M  V30 191 C 16.8742 -2.26594 5.41177 0
M  V30 192 C 19.2262 -2.14852 5.94997 0
M  V30 193 C 17.8902 -2.07137 6.34547 0
M  V30 194 H 17.1602 -0.562299 0.482598 0
M  V30 195 H 19.8072 -0.897069 1.69189 0
M  V30 196 H 18.1122 -3.50328 1.75436 0
M  V30 197 H 19.8092 -3.39692 2.13097 0
M  V30 198 H 16.3992 -2.65996 3.36072 0
M  V30 199 H 20.5832 -2.44673 4.31797 0
M  V30 200 H 15.8392 -2.19111 5.70789 0
M  V30 201 H 20.0132 -1.98822 6.67415 0
M  V30 202 H 17.6402 -1.85518 7.37216 0
M  V30 203 N 19.2153 -1.21501 -1.00376 0
M  V30 204 C 20.4403 -1.05977 -1.78279 0
M  V30 205 C 20.8653 0.385994 -1.84097 0
M  V30 206 O 20.2233 1.27849 -1.28547 0
M  V30 207 C 20.2713 -1.66302 -3.19963 0
M  V30 208 O 19.3753 -0.909333 -4.0225 0
M  V30 209 H 18.7163 -0.372906 -0.549397 0
M  V30 210 H 21.2463 -1.6107 -1.26165 0
M  V30 211 H 21.2563 -1.70574 -3.70632 0
M  V30 212 H 19.9313 -2.71515 -3.15043 0
M  V30 213 H 18.5083 -0.941795 -3.60811 0
M  V30 214 N 20.6934 1.19889 -1.02296 0
M  V30 215 C 21.9394 1.89701 -0.717033 0
M  V30 216 C 22.2724 1.7905 0.751989 0
M  V30 217 O 21.5474 1.17891 1.547 0
M  V30 218 C 21.8304 3.40858 -1.16136 0
M  V30 219 C 21.6834 3.60411 -2.69117 0
M  V30 220 C 23.0024 4.33876 -0.737549 0
M  V30 221 H 20.1214 0.688874 -0.261957 0
M  V30 222 H 22.7634 1.41154 -1.27183 0
M  V30 223 H 20.9134 3.82335 -0.689342 0
M  V30 224 H 22.5854 3.28145 -3.2422 0
M  V30 225 H 20.8284 3.03665 -3.0979 0
M  V30 226 H 21.4994 4.66396 -2.95261 0
M  V30 227 H 23.9754 4.00081 -1.14344 0
M  V30 228 H 22.8514 5.38242 -1.0764 0
M  V30 229 H 23.1124 4.40628 0.360436 0
M  V30 230 N 22.1715 0.800033 1.35784 0
M  V30 231 C 23.4195 0.376597 1.9856 0
M  V30 232 C 23.7405 -1.05812 1.63795 0
M  V30 233 O 23.0105 -1.73103 0.917171 0
M  V30 234 H 21.5905 0.136261 0.734467 0
M  V30 235 H 24.2525 1.02442 1.65806 0
M  V30 236 H 23.3485 0.477002 3.08433 0
M  V30 237 N 23.6496 -1.47581 0.552962 0
M  V30 238 C 24.5596 -2.33743 -0.200353 0
M  V30 239 C 25.5756 -1.47928 -0.916151 0
M  V30 240 O 26.7516 -1.80865 -0.885993 0
M  V30 241 C 23.8166 -3.24536 -1.21973 0
M  V30 242 C 22.8776 -4.26238 -0.511819 0
M  V30 243 C 22.1106 -5.12693 -1.48263 0
M  V30 244 O 22.3336 -5.01525 -2.71714 0
M  V30 245 O 21.2676 -5.93375 -1.00945 0
M  V30 246 H 25.0936 -2.9945 0.506304 0
M  V30 247 H 22.6786 -1.46071 0.313622 0
M  V30 248 H 24.5606 -3.80631 -1.80827 0
M  V30 249 H 23.2356 -2.61462 -1.90839 0
M  V30 250 H 22.1426 -3.73914 0.117799 0
M  V30 251 H 23.4756 -4.92014 0.135308 0
M  V30 252 N 25.1277 -0.289203 -1.54924 0
M  V30 253 C 26.0377 0.601863 -2.26748 0
M  V30 254 C 27.0537 1.15834 -1.2984 0
M  V30 255 O 28.2297 1.18564 -1.62802 0
M  V30 256 C 25.2947 1.76299 -2.98529 0
M  V30 257 C 24.3557 1.24178 -4.10948 0
M  V30 258 C 23.5887 2.34757 -4.79296 0
M  V30 259 O 23.8117 3.54411 -4.46933 0
M  V30 260 O 22.7457 2.02115 -5.66951 0
M  V30 261 H 26.5717 0.0195879 -3.03694 0
M  V30 262 H 24.1567 -0.0560868 -1.49295 0
M  V30 263 H 26.0387 2.43973 -3.43592 0
M  V30 264 H 24.7137 2.33209 -2.24488 0
M  V30 265 H 23.6207 0.531104 -3.70311 0
M  V30 266 H 24.9537 0.718252 -4.86931 0
M  V30 267 N 26.6058 1.57591 -0.0167156 0
M  V30 268 C 27.8358 1.95292 0.674149 0
M  V30 269 C 28.2438 0.891097 1.66901 0
M  V30 270 O 27.5868 -0.136908 1.83189 0
M  V30 271 C 27.6488 3.29072 1.44747 0
M  V30 272 C 27.3128 4.52879 0.612331 0
M  V30 273 C 28.3098 5.1979 -0.107126 0
M  V30 274 C 25.9948 4.99242 0.553381 0
M  V30 275 C 27.9888 6.31375 -0.874339 0
M  V30 276 C 25.6758 6.10713 -0.217546 0
M  V30 277 C 26.6738 6.76637 -0.930123 0
M  V30 278 O 26.3618 7.85969 -1.68844 0
M  V30 279 H 26.0938 0.648275 0.191615 0
M  V30 280 H 28.6478 2.05284 -0.0690148 0
M  V30 281 H 26.8778 3.15535 2.2355 0
M  V30 282 H 28.5668 3.51764 2.02526 0
M  V30 283 H 29.3328 4.84948 -0.0708392 0
M  V30 284 H 25.2118 4.47744 1.09757 0
M  V30 285 H 28.7558 6.82764 -1.43106 0
M  V30 286 H 24.6528 6.44994 -0.255593 0
M  V30 287 H 25.4208 8.02571 -1.6069 0
M  V30 288 N 28.0839 -0.256276 1.55502 0
M  V30 289 C 29.4949 -0.826068 1.67431 0
M  V30 290 C 29.8459 -1.86396 0.612446 0
M  V30 291 O 28.9709 -2.15031 -0.243025 0
M  V30 292 C 29.5659 -1.50512 3.03532 0
M  V30 293 C 28.1249 -2.02273 3.17431 0
M  V30 294 C 27.2719 -0.870548 2.63281 0
M  V30 295 H 30.2229 -0.0322728 1.58667 0
M  V30 296 H 30.2439 -2.37279 2.97454 0
M  V30 297 H 29.7559 -0.749484 3.80794 0
M  V30 298 H 27.8569 -2.80746 2.44974 0
M  V30 299 H 27.9699 -2.22655 4.24219 0
M  V30 300 H 26.3339 -1.26851 2.20864 0
M  V30 301 H 27.1169 -0.128149 3.43061 0
M  V30 302 N 29.562 -1.4872 -0.521534 0
M  V30 303 C 30.808 -1.58378 -1.27624 0
M  V30 304 C 31.163 -0.258028 -1.90662 0
M  V30 305 O 30.456 0.739917 -1.76736 0
M  V30 306 C 30.65 -2.66497 -2.38148 0
M  V30 307 C 30.479 -4.09456 -1.85945 0
M  V30 308 C 29.249 -4.76495 -1.68168 0
M  V30 309 C 31.447 -4.95353 -1.3831 0
M  V30 310 N 29.429 -6.0384 -1.1068 0
M  V30 311 C 30.8 -6.13012 -0.928238 0
M  V30 312 C 32.855 -4.81512 -1.26692 0
M  V30 313 C 31.558 -7.18354 -0.368701 0
M  V30 314 C 33.584 -5.86984 -0.721368 0
M  V30 315 C 32.946 -7.03857 -0.276623 0
M  V30 316 H 29.045 -0.634045 -0.457724 0
M  V30 317 H 31.629 -1.85639 -0.587049 0
M  V30 318 H 29.8 -2.41043 -3.04553 0
M  V30 319 H 31.532 -2.65791 -3.05184 0
M  V30 320 H 28.287 -4.32962 -1.91939 0
M  V30 321 H 28.711 -6.71778 -0.839217 0
M  V30 322 H 33.353 -3.91487 -1.5968 0
M  V30 323 H 31.071 -8.08096 -0.0265122 0
M  V30 324 H 34.657 -5.78329 -0.634531 0
M  V30 325 H 33.537 -7.84077 0.138947 0
M  V30 326 N 31.0401 0.771051 -1.3745 0
M  V30 327 C 31.9701 1.89827 -1.3597 0
M  V30 328 C 32.9511 1.68562 -0.228216 0
M  V30 329 O 34.1361 1.8941 -0.428675 0
M  V30 330 C 31.2661 3.2712 -1.16662 0
M  V30 331 C 30.2201 3.6295 -2.2683 0
M  V30 332 C 29.5461 4.98791 -1.92644 0
M  V30 333 C 30.8461 3.69627 -3.69017 0
M  V30 334 H 32.5401 1.91323 -2.30295 0
M  V30 335 H 30.0861 0.919082 -1.10855 0
M  V30 336 H 32.0391 4.05615 -1.14256 0
M  V30 337 H 30.7631 3.26059 -0.187926 0
M  V30 338 H 29.4221 2.86763 -2.28392 0
M  V30 339 H 29.0701 4.94271 -0.933021 0
M  V30 340 H 28.7701 5.23733 -2.66416 0
M  V30 341 H 30.2941 5.79685 -1.91826 0
M  V30 342 H 31.7081 4.38273 -3.69581 0
M  V30 343 H 30.1051 4.06067 -4.41848 0
M  V30 344 H 31.1751 2.70273 -4.02592 0
M  V30 345 N 32.5182 1.22032 0.997298 0
M  V30 346 C 33.4812 0.987909 2.06816 0
M  V30 347 C 34.4812 -0.0440084 1.6074 0
M  V30 348 O 35.6712 0.194053 1.73116 0
M  V30 349 C 32.8032 0.49132 3.37341 0
M  V30 350 H 33.9962 1.93803 2.28868 0
M  V30 351 H 31.5492 1.03838 1.16822 0
M  V30 352 H 32.2842 -0.463364 3.20973 0
M  V30 353 H 32.0692 1.23575 3.72118 0
M  V30 354 H 33.5592 0.348824 4.16141 0
M  V30 355 N 33.9963 -1.19345 1.0293 0
M  V30 356 C 34.9063 -2.26245 0.620515 0
M  V30 357 C 35.9223 -1.70486 -0.347928 0
M  V30 358 O 37.0983 -2.00347 -0.205704 0
M  V30 359 C 34.1633 -3.46693 -0.0218957 0
M  V30 360 C 33.2243 -4.17632 0.994102 0
M  V30 361 C 32.4573 -5.32329 0.382253 0
M  V30 362 O 32.6803 -5.64552 -0.814676 0
M  V30 363 O 31.6143 -5.91664 1.10531 0
M  V30 364 H 35.4403 -2.63453 1.51083 0
M  V30 365 H 33.0253 -1.26207 0.799513 0
M  V30 366 H 34.9073 -4.19683 -0.380072 0
M  V30 367 H 33.5823 -3.11333 -0.886209 0
M  V30 368 H 32.4893 -3.4676 1.40387 0
M  V30 369 H 33.8223 -4.56964 1.8288 0
M  V30 370 N 35.4744 -0.807222 -1.35358 0
M  V30 371 C 36.8904 -0.491038 -1.51858 0
M  V30 372 C 37.0904 0.987648 -1.75635 0
M  V30 373 O 36.1464 1.77265 -1.79815 0
M  V30 374 C 37.4594 -1.33695 -2.69344 0
M  V30 375 C 39.0074 -1.33246 -2.83222 0
M  V30 376 C 39.4824 -2.1625 -4.03733 0
M  V30 377 N 40.9734 -2.1379 -4.10911 0
M  V30 378 C 41.7084 -2.74772 -5.03277 0
M  V30 379 N 41.2044 -3.44684 -6.0097 0
M  V30 380 N 42.9974 -2.6441 -4.96028 0
M  V30 381 H 35.1484 -1.76485 -1.18181 0
M  V30 382 H 37.4114 -0.751199 -0.578276 0
M  V30 383 H 37.1174 -2.38634 -2.58354 0
M  V30 384 H 36.9914 -0.990618 -3.6396 0
M  V30 385 H 39.3784 -0.290911 -2.93663 0
M  V30 386 H 39.4594 -1.71866 -1.89461 0
M  V30 387 H 39.1034 -3.20445 -3.94052 0
M  V30 388 H 39.0334 -1.74989 -4.96675 0
M  V30 389 H 41.5244 -1.62923 -3.40976 0
M  V30 390 H 41.8374 -3.88501 -6.68047 0
M  V30 391 H 40.1824 -3.48788 -6.01142 0
M  V30 392 H 43.3734 -2.0938 -4.18662 0
M  V30 393 H 43.5464 -3.12225 -5.6782 0
M  V30 394 N 36.9525 1.47285 -0.560781 0
M  V30 395 C 38.2295 1.9558 0.0277798 0
M  V30 396 C 38.6095 1.5034 1.48192 0
M  V30 397 O 37.9575 0.743882 2.16052 0
M  V30 398 C 38.1675 3.48789 -0.121418 0
M  V30 399 C 39.5155 4.24594 0.0220912 0
M  V30 400 O 40.5395 3.56166 -0.0491439 0
M  V30 401 O 39.3985 5.46217 0.175958 0
M  V30 402 H 36.4925 0.824663 0.0621342 0
M  V30 403 H 39.0385 1.5767 -0.627556 0
M  V30 404 H 37.8105 3.74533 -1.13316 0
M  V30 405 H 37.4335 3.93473 0.571366 0
M  V30 406 N 38.4306 0.297415 1.54768 0
M  V30 407 C 39.3406 -0.58983 2.27064 0
M  V30 408 C 40.3566 -1.15144 1.30453 0
M  V30 409 O 41.5326 -1.17699 1.63428 0
M  V30 410 C 38.5976 -1.74714 2.9946 0
M  V30 411 C 37.6586 -1.21997 4.11601 0
M  V30 412 C 36.8916 -2.32212 4.80535 0
M  V30 413 O 37.1146 -3.52036 4.48806 0
M  V30 414 O 36.0486 -1.99106 5.68014 0
M  V30 415 H 39.8746 -0.00348199 3.037 0
M  V30 416 H 37.4596 0.0640035 1.49263 0
M  V30 417 H 39.3416 -2.42147 3.44881 0
M  V30 418 H 38.0166 -2.32016 2.25722 0
M  V30 419 H 36.9236 -0.511458 3.70587 0
M  V30 420 H 38.2566 -0.692419 4.87305 0
M  V30 421 N 39.9087 -1.5758 0.0250728 0
M  V30 422 C 41.1857 -1.82917 -0.692873 0
M  V30 423 C 41.5657 -0.908137 -1.90568 0
M  V30 424 O 40.9137 0.0372298 -2.2847 0
M  V30 425 C 41.1237 -3.32034 -1.07492 0
M  V30 426 C 42.4717 -3.98406 -1.46826 0
M  V30 427 O 43.4957 -3.36505 -1.16801 0
M  V30 428 O 42.3547 -5.07497 -2.02754 0
M  V30 429 H 39.4487 -0.754079 -0.33955 0
M  V30 430 H 41.9947 -1.69619 0.0524456 0
M  V30 431 H 40.7667 -3.90728 -0.211552 0
M  V30 432 H 40.3897 -3.50424 -1.87854 0
M  V30 433 N 41.3868 0.248026 -1.55636 0
M  V30 434 C 42.6348 0.974295 -1.77065 0
M  V30 435 C 42.9558 1.85897 -0.588849 0
M  V30 436 O 42.2258 1.91868 0.395407 0
M  V30 437 H 40.8058 0.362733 -0.653019 0
M  V30 438 H 43.4678 0.266244 -1.93073 0
M  V30 439 H 42.5638 1.59667 -2.68166 0
M  V30 440 N 42.8649 1.48995 0.513639 0
M  V30 441 C 43.8279 1.64229 1.59879 0
M  V30 442 C 44.8279 0.514696 1.5234 0
M  V30 443 O 46.0179 0.78087 1.55718 0
M  V30 444 C 43.1499 1.62783 2.99524 0
M  V30 445 H 44.3429 2.61004 1.47705 0
M  V30 446 H 41.8959 1.37837 0.736936 0
M  V30 447 H 42.6309 0.675461 3.17188 0
M  V30 448 H 42.4159 2.4466 3.06404 0
M  V30 449 H 43.9059 1.76669 3.78388 0
M  V30 450 N 44.343 -0.763751 1.37857 0
M  V30 451 C 45.589 -1.52483 1.33704 0
M  V30 452 C 45.922 -1.94051 -0.0759612 0
M  V30 453 O 45.197 -1.64675 -1.03501 0
M  V30 454 C 45.48 -2.78441 2.28348 0
M  V30 455 C 45.333 -2.43075 3.78463 0
M  V30 456 C 46.652 -3.80415 2.21298 0
M  V30 457 H 43.771 -0.553169 0.487005 0
M  V30 458 H 46.413 -0.875562 1.68624 0
M  V30 459 H 44.563 -3.33842 1.987 0
M  V30 460 H 46.235 -1.93527 4.18742 0
M  V30 461 H 44.478 -1.75666 3.96641 0
M  V30 462 H 45.149 -3.33149 4.40132 0
M  V30 463 H 47.625 -3.34527 2.47449 0
M  V30 464 H 46.501 -4.66257 2.89647 0
M  V30 465 H 46.762 -4.25262 1.20849 0
M  V30 466 N 45.8211 -1.22559 -0.990812 0
M  V30 467 C 47.0671 -1.05297 -1.73322 0
M  V30 468 C 47.4001 0.410655 -1.89808 0
M  V30 469 O 46.6751 1.30439 -1.44277 0
M  V30 470 C 46.9581 -1.76713 -3.13759 0
M  V30 471 C 46.8111 -3.30684 -3.04907 0
M  V30 472 C 48.1301 -1.52121 -4.12974 0
M  V30 473 H 45.2491 -0.38392 -0.629106 0
M  V30 474 H 47.8911 -1.50926 -1.15418 0
M  V30 475 H 46.0411 -1.37924 -3.63193 0
M  V30 476 H 47.7131 -3.7893 -2.63077 0
M  V30 477 H 45.9561 -3.60253 -2.41661 0
M  V30 478 H 46.6271 -3.75833 -4.04294 0
M  V30 479 H 49.1031 -1.85819 -3.72304 0
M  V30 480 H 47.9791 -2.04582 -5.0935 0
M  V30 481 H 48.2401 -0.454257 -4.3976 0
M  V30 482 N 47.2992 1.18797 -1.03562 0
M  V30 483 C 48.5272 1.92599 -0.755869 0
M  V30 484 C 48.9422 1.75886 0.686271 0
M  V30 485 O 48.2992 1.08517 1.46732 0
M  V30 486 C 48.3502 3.44159 -1.10619 0
M  V30 487 O 48.0712 3.60341 -2.4917 0
M  V30 488 C 49.5722 4.3507 -0.850214 0
M  V30 489 H 46.7922 0.611587 -0.276048 0
M  V30 490 H 49.3362 1.50742 -1.38192 0
M  V30 491 H 47.4912 3.83823 -0.525194 0
M  V30 492 H 47.9052 4.54128 -2.62427 0
M  V30 493 H 49.3792 5.39989 -1.14523 0
M  V30 494 H 49.8562 4.38673 0.215176 0
M  V30 495 H 50.4622 4.01097 -1.41426 0
M  V30 496 N 48.7773 0.814389 1.34928 0
M  V30 497 C 50.0243 0.398423 1.98542 0
M  V30 498 C 50.3523 -1.03638 1.64589 0
M  V30 499 O 49.6073 -1.73509 0.90516 0
M  V30 500 C 49.9063 0.537781 3.53331 0
M  V30 501 C 49.5723 1.93704 4.07172 0
M  V30 502 C 48.2343 2.31984 4.21589 0
M  V30 503 C 50.5863 2.85213 4.36237 0
M  V30 504 C 47.9143 3.61125 4.62391 0
M  V30 505 C 50.2663 4.13809 4.78482 0
M  V30 506 C 48.9303 4.52077 4.91104 0
M  V30 507 H 48.2003 0.145793 0.726516 0
M  V30 508 H 50.8473 1.03669 1.61012 0
M  V30 509 H 49.1523 -0.183906 3.91368 0
M  V30 510 H 50.8493 0.196588 4.00518 0
M  V30 511 H 47.4393 1.62966 3.96409 0
M  V30 512 H 51.6233 2.56885 4.24645 0
M  V30 513 H 46.8793 3.90612 4.70353 0
M  V30 514 H 51.0533 4.84811 4.99932 0
M  V30 515 H 48.6803 5.52196 5.22478 0
M  V30 516 N 50.2554 -1.46986 0.568584 0
M  V30 517 C 51.4834 -2.0683 0.0539956 0
M  V30 518 C 51.8984 -1.41953 -1.24478 0
M  V30 519 O 51.2554 -0.519933 -1.74937 0
M  V30 520 C 51.3064 -3.61254 -0.133362 0
M  V30 521 O 51.0274 -4.237 1.11399 0
M  V30 522 C 52.5284 -4.37992 -0.683927 0
M  V30 523 H 49.7484 -0.669058 0.0510141 0
M  V30 524 H 52.2924 -1.88824 0.785234 0
M  V30 525 H 50.4474 -3.78735 -0.81477 0
M  V30 526 H 50.8614 -5.16388 0.91888 0
M  V30 527 H 52.3354 -5.46684 -0.764263 0
M  V30 528 H 52.8124 -4.05058 -1.69778 0
M  V30 529 H 53.4184 -4.25283 -0.0378494 0
M  V30 530 N 51.7335 -0.305618 -1.54608 0
M  V30 531 C 52.9815 0.301701 -1.99835 0
M  V30 532 C 53.3025 1.54054 -1.19551 0
M  V30 533 O 52.5725 1.93702 -0.292658 0
M  V30 534 H 51.1525 0.114468 -0.738178 0
M  V30 535 H 53.8145 -0.418016 -1.90364 0
M  V30 536 H 52.9105 0.570548 -3.06841 0
M  V30 537 N 53.2116 1.57565 -0.0334293 0
M  V30 538 C 54.1586 2.10478 0.946981 0
M  V30 539 C 55.1286 1.00787 1.32027 0
M  V30 540 O 56.3136 1.28232 1.41284 0
M  V30 541 C 53.4536 2.63994 2.22263 0
M  V30 542 C 52.5666 3.87709 1.90541 0
M  V30 543 C 51.7016 4.29604 3.12433 0
M  V30 544 C 50.7406 5.46065 2.76549 0
M  V30 545 N 49.8776 5.83096 3.9108 0
M  V30 546 H 54.7176 2.93963 0.488846 0
M  V30 547 H 52.2546 1.45296 0.22969 0
M  V30 548 H 54.2126 2.93114 2.96884 0
M  V30 549 H 52.8426 1.83333 2.65685 0
M  V30 550 H 51.8946 3.65291 1.06144 0
M  V30 551 H 53.2066 4.72403 1.60116 0
M  V30 552 H 52.3606 4.60182 3.9537 0
M  V30 553 H 51.0996 3.43685 3.46023 0
M  V30 554 H 50.1046 5.15176 1.92026 0
M  V30 555 H 51.3296 6.33685 2.44171 0
M  V30 556 H 49.2756 5.00132 4.24504 0
M  V30 557 H 49.1926 6.6244 3.64293 0
M  V30 558 H 50.4606 6.18282 4.74708 0
M  V30 559 N 54.6897 -0.239769 1.55765 0
M  V30 560 C 55.9357 -0.968234 1.78194 0
M  V30 561 C 56.2687 -1.84701 0.599938 0
M  V30 562 O 55.5437 -1.9031 -0.401524 0
M  V30 563 C 55.8267 -1.8227 3.10564 0
M  V30 564 C 55.6797 -0.971633 4.3918 0
M  V30 565 C 56.9987 -2.80388 3.39221 0
M  V30 566 H 54.1177 -0.350572 0.648281 0
M  V30 567 H 56.7597 -0.238259 1.885 0
M  V30 568 H 54.9097 -2.44507 3.01908 0
M  V30 569 H 56.5817 -0.367408 4.59835 0
M  V30 570 H 54.8247 -0.276276 4.32919 0
M  V30 571 H 55.4957 -1.60346 5.28198 0
M  V30 572 H 57.9717 -2.28287 3.47885 0
M  V30 573 H 56.8477 -3.3729 4.33044 0
M  V30 574 H 57.1087 -3.57212 2.60484 0
M  V30 575 N 56.1678 -1.49265 -0.50573 0
M  V30 576 C 57.5838 -1.35923 -0.836486 0
M  V30 577 C 57.7838 -0.388704 -1.97715 0
M  V30 578 O 56.8398 0.181336 -2.51848 0
M  V30 579 C 58.1528 -2.76531 -1.18115 0
M  V30 580 C 59.7008 -2.85197 -1.28964 0
M  V30 581 C 60.1758 -4.26561 -1.66761 0
M  V30 582 N 61.6668 -4.2935 -1.73819 0
M  V30 583 C 62.4018 -5.35693 -2.045 0
M  V30 584 N 61.8978 -6.52287 -2.33438 0
M  V30 585 N 63.6908 -5.23105 -2.05711 0
M  V30 586 H 55.8418 -2.10965 0.246519 0
M  V30 587 H 58.1048 -0.9468 0.0476887 0
M  V30 588 H 57.8108 -3.49226 -0.416398 0
M  V30 589 H 57.6848 -3.11599 -2.1257 0
M  V30 590 H 60.0718 -2.12742 -2.04511 0
M  V30 591 H 60.1528 -2.53718 -0.325704 0
M  V30 592 H 59.7968 -4.99541 -0.917656 0
M  V30 593 H 59.7268 -4.55502 -2.64246 0
M  V30 594 H 62.2178 -3.4526 -1.53635 0
M  V30 595 H 62.5308 -7.29158 -2.56024 0
M  V30 596 H 60.8758 -6.55521 -2.30905 0
M  V30 597 H 64.0668 -4.31026 -1.82577 0
M  V30 598 H 64.2398 -6.06078 -2.29289 0
M  V30 599 N 57.6459 0.756429 -1.3826 0
M  V30 600 C 58.5939 1.89149 -1.35372 0
M  V30 601 C 59.5879 1.67691 -0.24004 0
M  V30 602 O 60.7939 1.75294 -0.408919 0
M  V30 603 H 57.1689 0.622271 -0.422236 0
M  V30 604 H 59.1399 1.88701 -2.31159 0
M  V30 605 C 57.8889 3.26599 -1.19284 0
M  V30 606 H 57.2119 3.43695 -2.0424 0
M  V30 607 H 58.6519 4.06274 -1.21316 0
M  V30 608 C 57.1109 3.3675 0.100454 0
M  V30 609 O 57.6409 3.86951 1.07851 0
M  V30 610 N 55.8469 2.90179 0.15633 0
M  V30 611 H 55.3939 2.49517 -0.640253 0
M  V30 612 H 55.3519 2.97352 1.02123 0
M  V30 613 N 59.124 1.23083 0.984299 0
M  V30 614 C 60.074 0.975749 2.06066 0
M  V30 615 C 61.058 -0.0768251 1.60716 0
M  V30 616 O 62.25 0.134805 1.76486 0
M  V30 617 C 59.379 0.564673 3.38624 0
M  V30 618 C 58.465 1.65244 3.90583 0
M  V30 619 N 58.856 2.88193 4.15666 0
M  V30 620 C 57.154 1.52612 4.19077 0
M  V30 621 C 57.855 3.58593 4.58024 0
M  V30 622 N 56.831 2.86093 4.62225 0
M  V30 623 H 60.633 1.90957 2.23411 0
M  V30 624 H 58.147 1.12963 1.16675 0
M  V30 625 H 60.144 0.36322 4.15315 0
M  V30 626 H 58.804 -0.362147 3.22674 0
M  V30 627 H 59.815 3.24537 4.03604 0
M  V30 628 H 56.492 0.666121 4.12152 0
M  V30 629 H 57.882 4.63974 4.85982 0
M  V30 630 N 60.6021 -1.18246 1.0419 0
M  V30 631 C 61.5501 -2.23968 0.627792 0
M  V30 632 C 62.5441 -1.65828 -0.346019 0
M  V30 633 O 63.7501 -1.78733 -0.213175 0
M  V30 634 H 60.1251 -0.728939 0.184802 0
M  V30 635 H 62.0961 -2.56202 1.52981 0
M  V30 636 C 60.8451 -3.47699 0.00796591 0
M  V30 637 H 60.1681 -3.92734 0.748347 0
M  V30 638 H 61.6081 -4.23294 -0.24455 0
M  V30 639 C 60.0671 -3.13153 -1.24246 0
M  V30 640 O 60.5971 -3.27003 -2.33307 0
M  V30 641 N 58.8031 -2.67467 -1.13622 0
M  V30 642 H 58.3501 -2.56396 -0.248734 0
M  V30 643 H 58.3081 -2.44724 -1.97377 0
M  V30 644 N 62.0802 -0.821533 -1.34494 0
M  V30 645 C 63.0102 -0.257138 -2.3208 0
M  V30 646 C 63.9912 0.625645 -1.58176 0
M  V30 647 O 65.1762 0.552811 -1.86166 0
M  V30 648 C 62.3062 0.582958 -3.42372 0
M  V30 649 C 61.2602 -0.202571 -4.2752 0
M  V30 650 C 60.5862 0.760179 -5.29269 0
M  V30 651 C 61.8862 -1.40998 -5.02908 0
M  V30 652 H 63.5802 -1.07247 -2.79532 0
M  V30 653 H 61.1262 -0.517163 -1.34393 0
M  V30 654 H 63.0792 0.987972 -4.09655 0
M  V30 655 H 61.8032 1.43133 -2.93565 0
M  V30 656 H 60.4622 -0.588936 -3.61838 0
M  V30 657 H 60.1102 1.60447 -4.76724 0
M  V30 658 H 59.8102 0.238809 -5.87115 0
M  V30 659 H 61.3342 1.16308 -5.9942 0
M  V30 660 H 62.7482 -1.07905 -5.63054 0
M  V30 661 H 61.1452 -1.86689 -5.70322 0
M  V30 662 H 62.2152 -2.1889 -4.32684 0
M  V30 663 N 63.5583 1.46682 -0.576371 0
M  V30 664 C 64.8063 2.02013 -0.0594163 0
M  V30 665 C 65.1273 1.45101 1.30271 0
M  V30 666 O 64.3973 0.633317 1.8538 0
M  V30 667 H 62.9773 0.746759 -0.0189745 0
M  V30 668 H 65.6393 1.79862 -0.750717 0
M  V30 669 H 64.7353 3.12097 0.014345 0
M  V30 670 N 65.0364 0.313813 1.54444 0
M  V30 671 C 66.3134 -0.345447 1.92525 0
M  V30 672 C 66.6934 -1.70667 1.24242 0
M  V30 673 O 66.0414 -2.25273 0.382654 0
M  V30 674 C 66.2514 -0.44737 3.46121 0
M  V30 675 C 67.5994 -0.712238 4.18584 0
M  V30 676 O 68.6234 -0.530678 3.52225 0
M  V30 677 O 67.4824 -1.06183 5.36085 0
M  V30 678 H 64.5764 -0.195407 0.803583 0
M  V30 679 H 67.1224 0.362813 1.65776 0
M  V30 680 H 65.8944 0.509043 3.87975 0
M  V30 681 H 65.5174 -1.20359 3.78945 0
M  V30 682 N 66.5145 -1.57545 0.0417849 0
M  V30 683 C 67.7395 -1.97035 -0.647455 0
M  V30 684 C 68.1645 -0.918775 -1.64135 0
M  V30 685 O 67.5225 0.119006 -1.80909 0
M  V30 686 C 67.5705 -3.35609 -1.31905 0
M  V30 687 O 66.6745 -3.3287 -2.43457 0
M  V30 688 H 66.0155 -0.64211 -0.169086 0
M  V30 689 H 68.5455 -2.04318 0.107399 0
M  V30 690 H 68.5555 -3.72126 -1.67291 0
M  V30 691 H 67.2305 -4.11685 -0.590586 0
M  V30 692 H 65.8075 -3.08087 -2.10088 0
M  V30 693 N 67.9926 0.231505 -1.5589 0
M  V30 694 C 69.2386 0.95877 -1.78705 0
M  V30 695 C 69.5716 1.8438 -0.609725 0
M  V30 696 O 68.8466 1.90521 0.391426 0
M  V30 697 C 69.1296 1.8062 -3.11526 0
M  V30 698 C 68.9826 0.948328 -4.39689 0
M  V30 699 C 70.3016 2.78585 -3.40703 0
M  V30 700 H 67.4206 0.347129 -0.650131 0
M  V30 701 H 70.0626 0.228259 -1.88624 0
M  V30 702 H 68.2126 2.42902 -3.03201 0
M  V30 703 H 69.8846 0.343016 -4.60023 0
M  V30 704 H 68.1276 0.253314 -4.3306 0
M  V30 705 H 68.7986 1.57543 -5.29041 0
M  V30 706 H 71.2746 2.26439 -3.49091 0
M  V30 707 H 70.1506 3.34988 -4.34826 0
M  V30 708 H 70.4116 3.55825 -2.62375 0
M  V30 709 N 69.4707 1.49531 0.497807 0
M  V30 710 C 70.4187 1.66926 1.61983 0
M  V30 711 C 71.4127 0.535167 1.60724 0
M  V30 712 O 72.6187 0.714896 1.65195 0
M  V30 713 H 68.9937 0.526415 0.537021 0
M  V30 714 H 70.9647 2.61098 1.44465 0
M  V30 715 C 69.7137 1.75602 3.00099 0
M  V30 716 H 69.0367 2.62244 3.01775 0
M  V30 717 H 70.4767 1.91807 3.78135 0
M  V30 718 C 68.9357 0.501543 3.33146 0
M  V30 719 O 69.4657 -0.371342 3.9998 0
M  V30 720 N 67.6717 0.363531 2.88317 0
M  V30 721 H 67.2187 1.07485 2.34104 0
M  V30 722 H 67.1767 -0.474728 3.10795 0
M  V30 723 N 70.9488 -0.749086 1.3866 0
M  V30 724 C 71.9118 -1.84457 1.36045 0
M  V30 725 C 72.9118 -1.58682 0.260122 0
M  V30 726 O 74.1018 -1.66343 0.517261 0
M  V30 727 C 71.2338 -3.22008 1.11911 0
M  V30 728 H 72.4268 -1.88182 2.33512 0
M  V30 729 H 69.9798 -0.951266 1.24019 0
M  V30 730 H 70.7148 -3.2395 0.150686 0
M  V30 731 H 70.4998 -3.42111 1.91579 0
M  V30 732 H 71.9898 -4.0208 1.12788 0
M  V30 733 N 72.4269 -1.23603 -0.977757 0
M  V30 734 C 73.3569 -1.04401 -2.0886 0
M  V30 735 C 74.3379 0.0399052 -1.70053 0
M  V30 736 O 75.5229 -0.125246 -1.93796 0
M  V30 737 C 72.6529 -0.637269 -3.41403 0
M  V30 738 C 71.6069 -1.66883 -3.94124 0
M  V30 739 C 70.9329 -1.11745 -5.22893 0
M  V30 740 C 72.2329 -3.06247 -4.23096 0
M  V30 741 H 73.9269 -1.97316 -2.25182 0
M  V30 742 H 71.4729 -0.950096 -1.08209 0
M  V30 743 H 73.4259 -0.48998 -4.18542 0
M  V30 744 H 72.1499 0.327557 -3.24953 0
M  V30 745 H 70.8089 -1.80416 -3.19133 0
M  V30 746 H 70.4569 -0.143527 -5.02795 0
M  V30 747 H 70.1569 -1.80672 -5.59134 0
M  V30 748 H 71.6809 -0.982067 -6.02651 0
M  V30 749 H 73.0949 -2.96001 -4.90975 0
M  V30 750 H 71.4919 -3.72436 -4.70544 0
M  V30 751 H 72.5619 -3.55041 -3.30263 0
M  V30 752 N 73.905 1.17692 -1.04816 0
M  V30 753 C 75.133 1.91786 -0.776254 0
M  V30 754 C 75.548 1.76604 0.667577 0
M  V30 755 O 74.905 1.10067 1.45573 0
M  V30 756 C 74.956 3.42967 -1.14263 0
M  V30 757 O 74.677 3.57678 -2.52978 0
M  V30 758 C 76.178 4.34144 -0.896311 0
M  V30 759 H 73.398 0.608624 -0.282519 0
M  V30 760 H 75.942 1.49268 -1.39783 0
M  V30 761 H 74.097 3.83245 -0.565874 0
M  V30 762 H 74.511 4.51319 -2.67229 0
M  V30 763 H 75.985 5.38744 -1.20244 0
M  V30 764 H 76.462 4.38876 0.168636 0
M  V30 765 H 77.068 3.99574 -1.45672 0
M  V30 766 N 75.3831 0.828654 1.34056 0
M  V30 767 C 76.3131 0.269443 2.3194 0
M  V30 768 C 77.2941 -0.617247 1.58506 0
M  V30 769 O 78.4791 -0.542931 1.86456 0
M  V30 770 C 75.6091 -0.564793 3.42677 0
M  V30 771 C 74.5631 0.225241 4.27407 0
M  V30 772 C 73.8891 -0.7321 5.29664 0
M  V30 773 C 75.1891 1.43663 5.02154 0
M  V30 774 H 76.8831 1.08728 2.7896 0
M  V30 775 H 74.4291 0.524283 1.34117 0
M  V30 776 H 76.3821 -0.966233 4.10173 0
M  V30 777 H 75.1061 -1.41574 2.9432 0
M  V30 778 H 73.7651 0.608117 3.61521 0
M  V30 779 H 73.4131 -1.57916 4.77568 0
M  V30 780 H 73.1131 -0.20767 5.87233 0
M  V30 781 H 74.6371 -1.13128 6.00029 0
M  V30 782 H 76.0511 1.1089 5.62473 0
M  V30 783 H 74.4481 1.89711 5.69324 0
M  V30 784 H 75.5181 2.21181 4.31517 0
M  V30 785 N 76.8612 -1.46375 0.584142 0
M  V30 786 C 77.7712 -2.34115 -0.150728 0
M  V30 787 C 78.7872 -1.49838 -0.884567 0
M  V30 788 O 79.9632 -1.82704 -0.847429 0
M  V30 789 C 77.0282 -3.2705 -1.15062 0
M  V30 790 C 76.0892 -4.27228 -0.421293 0
M  V30 791 C 75.3222 -5.15722 -1.37355 0
M  V30 792 O 75.5452 -5.07176 -2.61014 0
M  V30 793 O 74.4792 -5.95383 -0.883355 0
M  V30 794 H 78.3052 -2.98309 0.569708 0
M  V30 795 H 75.8902 -1.45373 0.344535 0
M  V30 796 H 77.7722 -3.84381 -1.72712 0
M  V30 797 H 76.4472 -2.65451 -1.8525 0
M  V30 798 H 75.3542 -3.7358 0.197085 0
M  V30 799 H 76.6872 -4.91616 0.239641 0
M  V30 800 N 78.3393 -0.321999 -1.54275 0
M  V30 801 C 79.2893 0.560185 -2.21011 0
M  V30 802 C 80.2733 1.08283 -1.19011 0
M  V30 803 O 81.4653 1.02011 -1.44647 0
M  V30 804 C 78.5943 1.72137 -2.97025 0
M  V30 805 C 77.6803 1.21369 -4.06363 0
M  V30 806 N 78.0713 0.425566 -5.04007 0
M  V30 807 C 76.3693 1.49255 -4.20284 0
M  V30 808 C 77.0703 0.152601 -5.815 0
M  V30 809 N 76.0463 0.738294 -5.38563 0
M  V30 810 H 79.8483 -0.049265 -2.93859 0
M  V30 811 H 77.3623 -0.127779 -1.61897 0
M  V30 812 H 79.3593 2.36512 -3.43319 0
M  V30 813 H 78.0193 2.33431 -2.25699 0
M  V30 814 H 79.0303 0.068551 -5.17855 0
M  V30 815 H 75.7073 2.11145 -3.60172 0
M  V30 816 H 77.0973 -0.481764 -6.70171 0
M  V30 817 N 79.8174 1.5752 -0.0501392 0
M  V30 818 C 81.0474 1.96678 0.632573 0
M  V30 819 C 81.4554 0.926298 1.64974 0
M  V30 820 O 80.7984 -0.09802 1.83438 0
M  V30 821 C 80.8604 3.32068 1.37735 0
M  V30 822 C 80.5244 4.54076 0.516131 0
M  V30 823 C 81.5214 5.19445 -0.217357 0
M  V30 824 C 79.2064 5.00304 0.44736 0
M  V30 825 C 81.2004 6.29378 -1.00807 0
M  V30 826 C 78.8874 6.10114 -0.347038 0
M  V30 827 C 79.8854 6.74512 -1.07344 0
M  V30 828 O 79.5734 7.82211 -1.85477 0
M  V30 829 H 79.3054 0.652193 0.177821 0
M  V30 830 H 81.8594 2.05091 -0.112543 0
M  V30 831 H 80.0894 3.20206 2.16807 0
M  V30 832 H 81.7784 3.55981 1.95019 0
M  V30 833 H 82.5444 4.84689 -0.173688 0
M  V30 834 H 78.4234 4.49971 1.00235 0
M  V30 835 H 81.9674 6.79575 -1.57556 0
M  V30 836 H 77.8644 6.44307 -0.392349 0
M  V30 837 H 78.6324 7.98982 -1.77678 0
M  V30 838 N 81.2955 -0.223234 1.56011 0
M  V30 839 C 82.7065 -0.790368 1.69145 0
M  V30 840 C 83.0575 -1.85055 0.651845 0
M  V30 841 O 82.1825 -2.15498 -0.197359 0
M  V30 842 C 82.7775 -1.4404 3.06656 0
M  V30 843 C 81.3365 -1.95494 3.2165 0
M  V30 844 C 80.4835 -0.814506 2.65068 0
M  V30 845 H 83.4345 0.00139011 1.587 0
M  V30 846 H 83.4555 -2.30916 3.0242 0
M  V30 847 H 82.9675 -0.668543 3.82298 0
M  V30 848 H 81.0685 -2.75487 2.50874 0
M  V30 849 H 81.1815 -2.13607 4.28846 0
M  V30 850 H 79.5455 -1.22137 2.23505 0
M  V30 851 H 80.3285 -0.0553515 3.43255 0
M  V30 852 N 82.7736 -1.49793 -0.48987 0
M  V30 853 C 84.0216 -1.59525 -1.24081 0
M  V30 854 C 84.3426 -0.288953 -1.92847 0
M  V30 855 O 83.6126 0.692436 -1.83254 0
M  V30 856 H 82.1926 -0.587796 -0.460983 0
M  V30 857 H 84.8546 -1.86477 -0.566778 0
M  V30 858 H 83.9506 -2.39696 -1.99881 0
M  V30 859 N 84.2517 0.741722 -1.39055 0
M  V30 860 C 85.1847 1.86416 -1.31622 0
M  V30 861 C 86.1627 1.61473 -0.191076 0
M  V30 862 O 87.3467 1.84825 -0.370399 0
M  V30 863 C 84.4737 3.22266 -1.04221 0
M  V30 864 C 83.5197 3.66079 -2.18834 0
M  V30 865 S 84.3527 3.7623 -3.81066 0
M  V30 866 C 85.5087 5.14881 -3.55877 0
M  V30 867 H 85.7417 1.92437 -2.26617 0
M  V30 868 H 83.2747 0.905907 -1.25031 0
M  V30 869 H 85.2327 4.00714 -0.890964 0
M  V30 870 H 83.8937 3.1391 -0.109237 0
M  V30 871 H 83.0867 4.64648 -1.95238 0
M  V30 872 H 82.6887 2.94817 -2.30128 0
M  V30 873 H 84.9807 6.01006 -3.12726 0
M  V30 874 H 85.9237 5.43503 -4.53884 0
M  V30 875 H 86.3317 4.84239 -2.90126 0
M  V30 876 N 85.7298 1.2412 0.971189 0
M  V30 877 C 86.9578 1.10575 1.74874 0
M  V30 878 C 87.3728 -0.342017 1.85676 0
M  V30 879 O 86.7298 -1.23617 1.34258 0
M  V30 880 C 86.7808 1.73579 3.171 0
M  V30 881 O 86.5018 3.12695 3.06844 0
M  V30 882 C 88.0028 1.65598 4.11208 0
M  V30 883 H 85.2228 0.386504 0.548503 0
M  V30 884 H 87.7668 1.64156 1.21955 0
M  V30 885 H 85.9218 1.24009 3.67016 0
M  V30 886 H 86.3358 3.43412 3.96445 0
M  V30 887 H 87.8098 2.1437 5.08674 0
M  V30 888 H 88.2868 0.616532 4.34851 0
M  V30 889 H 88.8928 2.14578 3.67201 0
M  V30 890 N 87.2079 -1.17134 1.05439 0
M  V30 891 C 88.1179 -2.24878 0.668365 0
M  V30 892 C 89.1339 -1.71186 -0.311687 0
M  V30 893 O 90.3099 -2.00738 -0.163161 0
M  V30 894 C 87.3749 -3.46662 0.051648 0
M  V30 895 C 86.4359 -4.15429 1.08246 0
M  V30 896 C 85.6689 -5.31399 0.495082 0
M  V30 897 O 85.8919 -5.66153 -0.694743 0
M  V30 898 O 84.8259 -5.89187 1.23056 0
M  V30 899 H 88.6519 -2.60189 1.56637 0
M  V30 900 H 86.2369 -1.24482 0.826104 0
M  V30 901 H 88.1189 -4.20394 -0.290966 0
M  V30 902 H 86.7939 -3.13142 -0.819971 0
M  V30 903 H 85.7009 -3.43704 1.47711 0
M  V30 904 H 87.0339 -4.52982 1.92532 0
M  V30 905 N 88.686 -0.835752 -1.33615 0
M  V30 906 C 89.633 -0.26473 -2.29277 0
M  V30 907 C 90.603 0.617712 -1.54187 0
M  V30 908 O 91.788 0.556641 -1.825 0
M  V30 909 C 88.928 0.556777 -3.40579 0
M  V30 910 C 88.041 -0.349339 -4.30585 0
M  V30 911 C 87.176 0.482969 -5.29 0
M  V30 912 C 86.215 -0.421732 -6.10645 0
M  V30 913 N 85.352 0.372262 -7.01112 0
M  V30 914 H 90.192 -1.08582 -2.77514 0
M  V30 915 H 87.729 -0.546927 -1.36554 0
M  V30 916 H 89.687 1.04852 -4.03809 0
M  V30 917 H 88.317 1.34286 -2.93542 0
M  V30 918 H 87.369 -0.959372 -3.68104 0
M  V30 919 H 88.681 -1.04445 -4.87742 0
M  V30 920 H 87.835 1.03866 -5.97743 0
M  V30 921 H 86.574 1.21153 -4.72412 0
M  V30 922 H 85.579 -0.989464 -5.40823 0
M  V30 923 H 86.804 -1.14861 -6.69316 0
M  V30 924 H 84.75 1.08426 -6.46977 0
M  V30 925 H 84.667 -0.264198 -7.55538 0
M  V30 926 H 85.935 0.910293 -7.74167 0
M  V30 927 N 90.1641 1.46063 -0.591896 0
M  V30 928 C 91.1271 2.28854 0.125973 0
M  V30 929 C 92.1271 1.38903 0.810107 0
M  V30 930 O 93.3171 1.61186 0.66066 0
M  V30 931 C 90.4491 3.19526 1.1881 0
M  V30 932 H 91.6421 2.93802 -0.601717 0
M  V30 933 H 89.1951 1.52325 -0.350254 0
M  V30 934 H 89.9301 2.59345 1.94707 0
M  V30 935 H 89.7151 3.85766 0.701936 0
M  V30 936 H 91.2051 3.81817 1.69132 0
M  V30 937 N 91.6422 0.330177 1.54103 0
M  V30 938 C 92.5722 -0.525353 2.27513 0
M  V30 939 C 93.5532 -1.11383 1.2856 0
M  V30 940 O 94.7382 -1.13773 1.57383 0
M  V30 941 C 91.8682 -1.6831 3.03791 0
M  V30 942 C 90.8222 -1.2236 4.10137 0
M  V30 943 C 90.1482 -2.46882 4.74293 0
M  V30 944 C 91.4482 -0.333697 5.21233 0
M  V30 945 H 93.1422 0.087013 2.99274 0
M  V30 946 H 90.6882 0.0432893 1.43935 0
M  V30 947 H 92.6412 -2.28795 3.5388 0
M  V30 948 H 91.3652 -2.32216 2.29659 0
M  V30 949 H 90.0242 -0.64165 3.60941 0
M  V30 950 H 89.6722 -3.09165 3.96769 0
M  V30 951 H 89.3722 -2.16825 5.46133 0
M  V30 952 H 90.8962 -3.08117 5.27159 0
M  V30 953 H 92.3102 -0.845013 5.67038 0
M  V30 954 H 90.7072 -0.125612 5.99969 0
M  V30 955 H 91.7772 0.633724 4.80741 0
M  V30 956 N 93.1203 -1.57491 0.0584922 0
M  V30 957 C 94.0833 -2.1085 -0.898617 0
M  V30 958 C 95.0833 -1.02964 -1.23511 0
M  V30 959 O 96.2733 -1.29007 -1.17059 0
M  V30 960 C 93.4053 -2.59881 -2.20623 0
M  V30 961 H 94.5983 -2.96715 -0.435936 0
M  V30 962 H 92.1513 -1.55141 -0.190023 0
M  V30 963 H 92.8863 -1.77431 -2.71457 0
M  V30 964 H 92.6713 -3.38727 -1.97501 0
M  V30 965 H 94.1613 -3.01285 -2.89166 0
M  V30 966 N 94.5984 0.214957 -1.56127 0
M  V30 967 C 95.5084 1.28727 -1.96129 0
M  V30 968 C 96.5244 1.50916 -0.866044 0
M  V30 969 O 97.7004 1.63918 -1.17016 0
M  V30 970 C 94.7654 2.61569 -2.27558 0
M  V30 971 C 93.8264 2.47625 -3.50685 0
M  V30 972 C 93.0594 3.74132 -3.80606 0
M  V30 973 O 93.2824 4.77438 -3.12104 0
M  V30 974 O 92.2164 3.70849 -4.74083 0
M  V30 975 H 96.0424 0.977855 -2.87527 0
M  V30 976 H 93.6274 0.418358 -1.43423 0
M  V30 977 H 95.5094 3.40012 -2.48938 0
M  V30 978 H 94.1844 2.92178 -1.39332 0
M  V30 979 H 93.0914 1.67361 -3.34576 0
M  V30 980 H 94.4244 2.21954 -4.39315 0
M  V30 981 N 96.0765 1.50051 0.48192 0
M  V30 982 C 97.3255 1.59741 1.23149 0
M  V30 983 C 97.6385 0.298163 1.93314 0
M  V30 984 O 98.8445 0.273835 2.70116 0
M  V30 985 C 97.3005 2.81926 2.23708 0
M  V30 986 C 96.9085 4.18685 1.59396 0
M  V30 987 C 98.6525 3.00956 2.99375 0
M  V30 988 C 96.5595 5.3207 2.58178 0
M  V30 989 H 95.4895 0.594838 0.46334 0
M  V30 990 H 98.1405 1.76467 0.503169 0
M  V30 991 H 96.5225 2.58736 2.99786 0
M  V30 992 H 97.6965 4.52088 0.891811 0
M  V30 993 H 96.0115 4.05171 0.960503 0
M  V30 994 H 98.6085 3.82836 3.73283 0
M  V30 995 H 98.9515 2.12258 3.58123 0
M  V30 996 H 99.4845 3.24277 2.30411 0
M  V30 997 H 96.2235 6.22888 2.04184 0
M  V30 998 H 95.7435 5.03098 3.26577 0
M  V30 999 H 97.4225 5.62196 3.20225 0
M  V30 1000 N 97.5546 -0.734337 1.39446 0
M  V30 1001 C 98.8006 -1.49613 1.36908 0
M  V30 1002 C 99.1336 -1.94169 -0.0347829 0
M  V30 1003 O 98.4086 -1.66833 -0.999847 0
M  V30 1004 C 98.6916 -2.73534 2.34203 0
M  V30 1005 C 98.5446 -2.34993 3.83534 0
M  V30 1006 C 99.8636 -3.75635 2.29317 0
M  V30 1007 H 96.9826 -0.542714 0.498629 0
M  V30 1008 H 99.6246 -0.839597 1.70443 0
M  V30 1009 H 97.7746 -3.29553 2.05736 0
M  V30 1010 H 99.4466 -1.84601 4.22753 0
M  V30 1011 H 97.6896 -1.67213 4.00278 0
M  V30 1012 H 98.3606 -3.23738 4.47099 0
M  V30 1013 H 100.837 -3.29203 2.54489 0
M  V30 1014 H 99.7126 -4.60008 2.99472 0
M  V30 1015 H 99.9736 -4.22603 1.29842 0
M  V30 1016 N 99.0327 -1.24633 -0.964593 0
M  V30 1017 C 100.31 -0.995809 -1.68354 0
M  V30 1018 C 100.69 0.480964 -2.05548 0
M  V30 1019 O 100.038 1.45599 -1.76105 0
M  V30 1020 C 100.248 -1.92177 -2.91323 0
M  V30 1021 C 101.596 -2.19446 -3.63495 0
M  V30 1022 O 102.62 -1.89855 -3.01386 0
M  V30 1023 O 101.479 -2.69714 -4.75307 0
M  V30 1024 H 98.5727 -0.376854 -0.736146 0
M  V30 1025 H 101.119 -1.35745 -1.0184 0
M  V30 1026 H 99.8907 -2.91938 -2.60553 0
M  V30 1027 H 99.5137 -1.56349 -3.65569 0
M  V30 1028 N 100.511 1.16574 -1.06058 0
M  V30 1029 C 101.421 2.2452 -0.680282 0
M  V30 1030 C 102.437 1.71348 0.302604 0
M  V30 1031 O 103.613 2.00822 0.152513 0
M  V30 1032 C 100.678 3.46629 -0.0700315 0
M  V30 1033 C 99.7388 4.14849 -1.10448 0
M  V30 1034 C 98.9718 5.31129 -0.523256 0
M  V30 1035 O 99.1948 5.66514 0.664709 0
M  V30 1036 O 98.1288 5.88526 -1.26179 0
M  V30 1037 H 101.955 2.59355 -1.58015 0
M  V30 1038 H 99.5398 1.24043 -0.832694 0
M  V30 1039 H 101.422 4.20543 0.268667 0
M  V30 1040 H 100.097 3.13573 0.803353 0
M  V30 1041 H 99.0038 3.42916 -1.49532 0
M  V30 1042 H 100.337 4.51954 -1.94931 0
M  V30 1043 N 101.989 0.842826 1.3317 0
M  V30 1044 C 102.952 0.284065 2.27433 0
M  V30 1045 C 103.952 -0.54948 1.5112 0
M  V30 1046 O 105.142 -0.362699 1.70382 0
M  V30 1047 C 102.274 -0.599384 3.35589 0
M  V30 1048 H 103.467 1.11589 2.78366 0
M  V30 1049 H 101.02 0.616221 1.4364 0
M  V30 1050 H 101.755 -1.45349 2.89904 0
M  V30 1051 H 101.54 -0.00291266 3.921 0
M  V30 1052 H 103.03 -0.983488 4.05854 0
M  V30 1053 N 103.467 -1.45747 0.599634 0
M  V30 1054 C 104.883 -1.57424 0.26264 0
M  V30 1055 C 105.083 -1.59222 -1.23493 0
M  V30 1056 O 104.139 -1.51825 -2.01756 0
M  V30 1057 C 105.452 -2.86061 0.926795 0
M  V30 1058 C 107 -2.99722 0.901967 0
M  V30 1059 C 107.475 -4.31119 1.54598 0
M  V30 1060 N 108.966 -4.37858 1.5111 0
M  V30 1061 C 109.701 -5.3818 1.97863 0
M  V30 1062 N 109.197 -6.45083 2.52666 0
M  V30 1063 N 110.99 -5.29487 1.88679 0
M  V30 1064 H 103.141 -1.42823 1.57211 0
M  V30 1065 H 105.404 -0.68235 0.658105 0
M  V30 1066 H 105.11 -2.90605 1.98095 0
M  V30 1067 H 104.984 -3.74563 0.445238 0
M  V30 1068 H 107.371 -2.9475 -0.143617 0
M  V30 1069 H 107.452 -2.12652 1.42171 0
M  V30 1070 H 107.096 -4.36849 2.59085 0
M  V30 1071 H 107.026 -5.16992 1.00132 0
M  V30 1072 H 109.517 -3.61209 1.11068 0
M  V30 1073 H 109.83 -7.17869 2.86155 0
M  V30 1074 H 108.175 -6.45856 2.56701 0
M  V30 1075 H 111.366 -4.44877 1.4561 0
M  V30 1076 H 111.539 -6.07524 2.25429 0
M  V30 1077 N 104.945 -0.338344 -1.53925 0
M  V30 1078 C 105.893 0.536231 -2.26335 0
M  V30 1079 C 106.887 1.1063 -1.28286 0
M  V30 1080 O 108.093 1.05264 -1.46012 0
M  V30 1081 H 104.468 0.191602 -0.727181 0
M  V30 1082 H 106.439 -0.0965747 -2.98244 0
M  V30 1083 C 105.188 1.67803 -3.04528 0
M  V30 1084 H 104.511 1.24864 -3.79801 0
M  V30 1085 H 105.951 2.26526 -3.58416 0
M  V30 1086 C 104.41 2.60439 -2.13712 0
M  V30 1087 O 104.94 3.6255 -1.72975 0
M  V30 1088 N 103.146 2.29006 -1.78898 0
M  V30 1089 H 102.693 1.46011 -2.12223 0
M  V30 1090 H 102.651 2.91248 -1.18416 0
M  V30 1091 N 106.423 1.57458 -0.0668435 0
M  V30 1092 C 107.839 1.56947 0.289772 0
M  V30 1093 C 108.039 1.07584 1.70376 0
M  V30 1094 O 107.095 0.739486 2.41429 0
M  V30 1095 C 108.408 3.0052 0.103943 0
M  V30 1096 C 109.956 3.12517 0.173857 0
M  V30 1097 C 110.431 4.57997 0.0163682 0
M  V30 1098 N 111.922 4.63144 0.0721352 0
M  V30 1099 C 112.657 5.73394 -0.0253794 0
M  V30 1100 N 112.153 6.92576 -0.176133 0
M  V30 1101 N 113.946 5.62091 0.0313305 0
M  V30 1102 H 106.097 1.87863 -0.991027 0
M  V30 1103 H 108.36 0.86583 -0.38606 0
M  V30 1104 H 108.066 3.40729 -0.871572 0
M  V30 1105 H 107.94 3.67304 0.858366 0
M  V30 1106 H 110.327 2.72197 1.13985 0
M  V30 1107 H 110.408 2.48381 -0.611586 0
M  V30 1108 H 110.052 4.99005 -0.946374 0
M  V30 1109 H 109.982 5.20158 0.821153 0
M  V30 1110 H 112.473 3.77436 0.187263 0
M  V30 1111 H 112.786 7.72418 -0.242821 0
M  V30 1112 H 111.131 6.94678 -0.211429 0
M  V30 1113 H 114.322 4.67867 0.147773 0
M  V30 1114 H 114.495 6.47982 -0.048121 0
M  V30 1115 N 107.901 -0.206675 1.56239 0
M  V30 1116 C 109.147 -0.925733 1.81113 0
M  V30 1117 C 109.502 -1.81368 0.642135 0
M  V30 1118 O 108.795 -1.88126 -0.363211 0
M  V30 1119 C 108.989 -1.78675 3.09532 0
M  V30 1120 C 108.818 -0.98365 4.3881 0
M  V30 1121 C 107.588 -0.672661 5.00803 0
M  V30 1122 C 109.786 -0.341847 5.13163 0
M  V30 1123 N 107.768 0.150283 6.13716 0
M  V30 1124 C 109.139 0.343815 6.19046 0
M  V30 1125 C 111.194 -0.256392 4.97239 0
M  V30 1126 C 109.897 1.10678 7.10734 0
M  V30 1127 C 111.923 0.493142 5.8934 0
M  V30 1128 C 111.285 1.16729 6.94661 0
M  V30 1129 H 107.384 -0.318524 0.714189 0
M  V30 1130 H 109.968 -0.195378 1.93717 0
M  V30 1131 H 108.139 -2.4888 2.98183 0
M  V30 1132 H 109.871 -2.44441 3.22538 0
M  V30 1133 H 106.626 -0.994294 4.63045 0
M  V30 1134 H 107.05 0.551026 6.74754 0
M  V30 1135 H 111.692 -0.763249 4.15854 0
M  V30 1136 H 109.41 1.6251 7.91591 0
M  V30 1137 H 112.996 0.560465 5.79094 0
M  V30 1138 H 111.876 1.738 7.64698 0
M  V30 1139 N 109.379 -1.50304 -0.473955 0
M  V30 1140 C 110.79 -1.54042 -1.0549 0
M  V30 1141 C 111.141 -0.342248 -1.93192 0
M  V30 1142 O 110.266 0.545157 -2.09421 0
M  V30 1143 C 110.861 -2.79152 -1.91989 0
M  V30 1144 C 109.42 -2.8558 -2.45196 0
M  V30 1145 C 108.567 -2.48295 -1.2347 0
M  V30 1146 H 111.518 -1.5661 -0.256693 0
M  V30 1147 H 111.539 -2.60845 -2.7702 0
M  V30 1148 H 111.051 -3.66339 -1.28131 0
M  V30 1149 H 109.152 -2.02738 -3.12615 0
M  V30 1150 H 109.265 -3.88403 -2.80499 0
M  V30 1151 H 107.629 -2.00669 -1.56856 0
M  V30 1152 H 108.412 -3.37787 -0.612789 0
M  V30 1153 N 110.857 0.726932 -1.39834 0
M  V30 1154 C 111.787 1.85405 -1.41941 0
M  V30 1155 C 112.768 1.67751 -0.281728 0
M  V30 1156 O 113.953 1.8795 -0.488717 0
M  V30 1157 C 111.083 3.23243 -1.2701 0
M  V30 1158 C 110.037 3.55549 -2.38262 0
M  V30 1159 C 109.363 4.9241 -2.08415 0
M  V30 1160 C 110.663 3.577 -3.80589 0
M  V30 1161 H 112.357 1.83899 -2.36266 0
M  V30 1162 H 109.903 0.883349 -1.13723 0
M  V30 1163 H 111.856 4.01775 -1.27103 0
M  V30 1164 H 110.58 3.25296 -0.291564 0
M  V30 1165 H 109.239 2.79351 -2.37399 0
M  V30 1166 H 108.887 4.91052 -1.0898 0
M  V30 1167 H 108.587 5.14992 -2.82943 0
M  V30 1168 H 110.111 5.73289 -2.10171 0
M  V30 1169 H 111.525 4.26293 -3.83337 0
M  V30 1170 H 109.922 3.91804 -4.54543 0
M  V30 1171 H 110.992 2.57328 -4.10987 0
M  V30 1172 N 112.336 1.25143 0.95797 0
M  V30 1173 C 113.584 1.09476 1.69881 0
M  V30 1174 C 113.905 -0.365502 1.91544 0
M  V30 1175 O 113.175 -1.25985 1.50015 0
M  V30 1176 H 111.755 0.402128 0.629525 0
M  V30 1177 H 114.417 1.57214 1.15194 0
M  V30 1178 H 113.513 1.60046 2.6794 0
M  V30 1179 N 113.814 -1.1601 1.06675 0
M  V30 1180 C 115.23 -1.38622 0.790948 0
M  V30 1181 C 115.43 -1.92109 -0.607965 0
M  V30 1182 O 114.486 -2.12239 -1.36787 0
M  V30 1183 C 115.799 -2.36347 1.85905 0
M  V30 1184 C 117.347 -2.50023 1.88301 0
M  V30 1185 C 117.822 -3.51033 2.94176 0
M  V30 1186 N 119.313 -3.58563 2.93235 0
M  V30 1187 C 120.048 -4.36521 3.71803 0
M  V30 1188 N 119.544 -5.17869 4.602 0
M  V30 1189 N 121.337 -4.31541 3.60178 0
M  V30 1190 H 113.488 -0.796294 1.96908 0
M  V30 1191 H 115.751 -0.412597 0.853503 0
M  V30 1192 H 115.457 -2.04147 2.86386 0
M  V30 1193 H 115.331 -3.36042 1.71334 0
M  V30 1194 H 117.718 -2.81524 0.884769 0
M  V30 1195 H 117.799 -1.5035 2.06951 0
M  V30 1196 H 117.443 -3.20268 3.94196 0
M  V30 1197 H 117.373 -4.50445 2.72776 0
M  V30 1198 H 119.864 -3.00496 2.29152 0
M  V30 1199 H 120.177 -5.74578 5.16797 0
M  V30 1200 H 118.522 -5.17199 4.64253 0
M  V30 1201 H 121.713 -3.67051 2.90502 0
M  V30 1202 H 121.886 -4.9205 4.21653 0
M  V30 1203 N 115.292 -0.849877 -1.32721 0
M  V30 1204 C 116.538 -0.451591 -1.97708 0
M  V30 1205 C 116.871 0.989175 -1.6712 0
M  V30 1206 O 116.146 1.69334 -0.956891 0
M  V30 1207 C 116.429 -0.685598 -3.53513 0
M  V30 1208 C 116.282 -2.17444 -3.93749 0
M  V30 1209 C 117.601 -0.138874 -4.39881 0
M  V30 1210 H 114.72 -0.16555 -0.718166 0
M  V30 1211 H 117.362 -1.06742 -1.57182 0
M  V30 1212 H 115.512 -0.161416 -3.88165 0
M  V30 1213 H 117.184 -2.76433 -3.693 0
M  V30 1214 H 115.427 -2.65476 -3.43081 0
M  V30 1215 H 116.098 -2.28888 -5.02309 0
M  V30 1216 H 118.574 -0.587068 -4.11938 0
M  V30 1217 H 117.45 -0.332213 -5.47894 0
M  V30 1218 H 117.711 0.95806 -4.31594 0
M  V30 1219 N 116.77 1.45427 -0.607355 0
M  V30 1220 C 117.998 2.06614 -0.108814 0
M  V30 1221 C 118.413 1.45204 1.2067 0
M  V30 1222 O 117.77 0.566132 1.73497 0
M  V30 1223 C 117.821 3.61481 0.0375347 0
M  V30 1224 O 117.542 4.20598 -1.22593 0
M  V30 1225 C 119.043 4.39652 0.567561 0
M  V30 1226 H 116.263 0.66747 -0.0687351 0
M  V30 1227 H 118.807 1.86675 -0.835022 0
M  V30 1228 H 116.962 3.80762 0.714068 0
M  V30 1229 H 117.376 5.1377 -1.05547 0
M  V30 1230 H 118.85 5.48518 0.61905 0
M  V30 1231 H 119.327 4.09417 1.58978 0
M  V30 1232 H 119.933 4.25234 -0.0749202 0
M  V30 1233 N 118.248 0.346503 1.53744 0
M  V30 1234 C 119.494 -0.249473 2.0126 0
M  V30 1235 C 119.827 -1.49965 1.23386 0
M  V30 1236 O 119.102 -1.91811 0.32229 0
M  V30 1237 C 119.385 -0.560643 3.55709 0
M  V30 1238 C 119.238 0.701836 4.44291 0
M  V30 1239 C 120.557 -1.36905 4.18264 0
M  V30 1240 H 117.676 -0.0891987 0.731582 0
M  V30 1241 H 120.318 0.467624 1.84156 0
M  V30 1242 H 118.468 -1.17156 3.70414 0
M  V30 1243 H 120.14 1.33974 4.41417 0
M  V30 1244 H 118.383 1.32612 4.13033 0
M  V30 1245 H 119.054 0.43933 5.50249 0
M  V30 1246 H 121.53 -0.852448 4.07275 0
M  V30 1247 H 120.406 -1.55553 5.26398 0
M  V30 1248 H 120.667 -2.37203 3.73078 0
M  V30 1249 N 119.726 -1.57421 0.075193 0
M  V30 1250 C 120.975 -1.92794 -0.592731 0
M  V30 1251 C 121.288 -0.957478 -1.70563 0
M  V30 1252 O 122.494 -1.20417 -2.43335 0
M  V30 1253 C 120.95 -3.42495 -1.10569 0
M  V30 1254 C 120.558 -4.47994 -0.0236121 0
M  V30 1255 C 122.302 -3.86864 -1.74748 0
M  V30 1256 C 120.209 -5.88829 -0.550803 0
M  V30 1257 H 119.139 -0.719591 -0.225177 0
M  V30 1258 H 121.79 -1.82902 0.147978 0
M  V30 1259 H 120.172 -3.47471 -1.89947 0
M  V30 1260 H 121.346 -4.54637 0.751099 0
M  V30 1261 H 119.661 -4.13113 0.522159 0
M  V30 1262 H 122.258 -4.8947 -2.15229 0
M  V30 1263 H 122.601 -3.24417 -2.60882 0
M  V30 1264 H 123.134 -3.84504 -1.01986 0
M  V30 1265 H 119.873 -6.54929 0.273457 0
M  V30 1266 H 119.393 -5.85698 -1.29296 0
M  V30 1267 H 121.072 -6.38811 -1.02613 0
M  V30 1268 N 121.204 0.198386 -1.56346 0
M  V30 1269 C 122.154 1.2499 -1.90687 0
M  V30 1270 C 123.138 1.41158 -0.772217 0
M  V30 1271 O 124.33 1.43584 -1.03502 0
M  V30 1272 C 121.459 2.59542 -2.24706 0
M  V30 1273 C 120.545 2.47181 -3.44619 0
M  V30 1274 N 120.936 2.04495 -4.62618 0
M  V30 1275 C 119.234 2.78082 -3.48692 0
M  V30 1276 C 119.935 2.03945 -5.44776 0
M  V30 1277 N 118.911 2.45323 -4.85095 0
M  V30 1278 H 122.713 0.911149 -2.7942 0
M  V30 1279 H 120.227 0.40684 -1.57221 0
M  V30 1280 H 122.224 3.3549 -2.47491 0
M  V30 1281 H 120.884 2.94244 -1.37298 0
M  V30 1282 H 121.895 1.75256 -4.87345 0
M  V30 1283 H 118.572 3.17002 -2.71691 0
M  V30 1284 H 119.962 1.72872 -6.4928 0
M  V30 1285 N 122.682 1.50554 0.465978 0
M  V30 1286 C 124.098 1.38093 0.800154 0
M  V30 1287 C 124.298 0.440988 1.96615 0
M  V30 1288 O 123.354 -0.114499 2.5224 0
M  V30 1289 C 124.667 2.79565 1.10742 0
M  V30 1290 C 126.215 2.88516 1.21357 0
M  V30 1291 C 126.69 4.30833 1.55393 0
M  V30 1292 N 128.181 4.33807 1.62375 0
M  V30 1293 C 128.916 5.40927 1.90225 0
M  V30 1294 N 128.412 6.58247 2.16062 0
M  V30 1295 N 130.205 5.28376 1.9177 0
M  V30 1296 H 122.356 2.10237 -0.302366 0
M  V30 1297 H 124.619 0.945203 -0.0727746 0
M  V30 1298 H 124.325 3.50208 0.323661 0
M  V30 1299 H 124.199 3.17125 2.04234 0
M  V30 1300 H 126.586 2.1809 1.98799 0
M  V30 1301 H 126.667 2.54492 0.258321 0
M  V30 1302 H 126.311 5.01799 0.784889 0
M  V30 1303 H 126.241 4.62347 2.52076 0
M  V30 1304 H 128.732 3.49212 1.44427 0
M  V30 1305 H 129.045 7.3569 2.36601 0
M  V30 1306 H 127.39 6.61413 2.13444 0
M  V30 1307 H 130.581 4.35715 1.71085 0
M  V30 1308 H 130.754 6.11944 2.13139 0
M  V30 1309 N 124.16 -0.719506 1.40217 0
M  V30 1310 C 125.409 -1.47486 1.37589 0
M  V30 1311 C 125.722 -1.9559 -0.0201568 0
M  V30 1312 O 126.928 -2.70973 -0.169049 0
M  V30 1313 C 125.384 -2.66575 2.41796 0
M  V30 1314 C 124.992 -2.25358 3.87192 0
M  V30 1315 C 126.736 -3.4433 2.48269 0
M  V30 1316 C 124.643 -3.41262 4.83005 0
M  V30 1317 H 123.573 -0.553901 0.511576 0
M  V30 1318 H 126.224 -0.783427 1.65936 0
M  V30 1319 H 124.606 -3.3787 2.06543 0
M  V30 1320 H 125.78 -1.61509 4.31569 0
M  V30 1321 H 124.095 -1.60657 3.84159 0
M  V30 1322 H 126.692 -4.30569 3.17041 0
M  V30 1323 H 127.035 -3.87872 1.51198 0
M  V30 1324 H 127.568 -2.80076 2.82493 0
M  V30 1325 H 124.307 -3.02755 5.81394 0
M  V30 1326 H 123.827 -4.0404 4.43297 0
M  V30 1327 H 125.506 -4.07383 5.02641 0
M  V30 1328 N 125.638 -1.25649 -0.95132 0
M  V30 1329 C 126.886 -1.10375 -1.69298 0
M  V30 1330 C 127.207 0.355339 -1.91735 0
M  V30 1331 O 126.477 1.25188 -1.50681 0
M  V30 1332 H 125.057 -0.405461 -0.627384 0
M  V30 1333 H 127.719 -1.57823 -1.14358 0
M  V30 1334 H 126.815 -1.61465 -2.67087 0
M  V30 1335 N 127.117 1.15442 -1.07289 0
M  V30 1336 C 128.027 2.23786 -0.704057 0
M  V30 1337 C 129.043 1.7166 0.284413 0
M  V30 1338 O 130.219 2.00972 0.131205 0
M  V30 1339 C 127.284 3.46535 -0.106792 0
M  V30 1340 C 126.345 4.13654 -1.14842 0
M  V30 1341 C 125.578 5.30544 -0.57956 0
M  V30 1342 O 125.801 5.67187 0.604585 0
M  V30 1343 O 124.735 5.87154 -1.32414 0
M  V30 1344 H 128.561 2.57664 -1.60757 0
M  V30 1345 H 126.146 1.23152 -0.845803 0
M  V30 1346 H 128.028 4.20804 0.224048 0
M  V30 1347 H 126.703 3.14407 0.770049 0
M  V30 1348 H 125.61 3.4131 -1.5316 0
M  V30 1349 H 126.943 4.49861 -1.99714 0
M  V30 1350 N 128.595 0.856903 1.32268 0
M  V30 1351 C 129.525 0.31858 2.31316 0
M  V30 1352 C 130.506 -0.583487 1.59779 0
M  V30 1353 O 131.691 -0.503259 1.87566 0
M  V30 1354 C 128.821 -0.491979 3.43798 0
M  V30 1355 C 127.775 0.315849 4.26833 0
M  V30 1356 C 127.101 -0.619586 5.31098 0
M  V30 1357 C 128.401 1.54282 4.98993 0
M  V30 1358 H 130.095 1.14621 2.76591 0
M  V30 1359 H 127.641 0.552613 1.32974 0
M  V30 1360 H 129.594 -0.879012 4.1213 0
M  V30 1361 H 128.318 -1.35299 2.97257 0
M  V30 1362 H 126.977 0.684664 3.6015 0
M  V30 1363 H 126.625 -1.47751 4.8081 0
M  V30 1364 H 126.325 -0.0830621 5.87541 0
M  V30 1365 H 127.849 -1.00375 6.02293 0
M  V30 1366 H 129.263 1.22796 5.59995 0
M  V30 1367 H 127.66 2.01745 5.65172 0
M  V30 1368 H 128.73 2.30285 4.26728 0
M  V30 1369 N 130.073 -1.45103 0.615059 0
M  V30 1370 C 131.319 -2.03035 0.121804 0
M  V30 1371 C 131.674 -1.47393 -1.23665 0
M  V30 1372 O 130.967 -0.642061 -1.80522 0
M  V30 1373 C 131.161 -3.57386 0.0318797 0
M  V30 1374 C 130.99 -4.28 1.38007 0
M  V30 1375 C 129.76 -4.65624 1.9627 0
M  V30 1376 C 131.958 -4.5948 2.31047 0
M  V30 1377 N 129.94 -5.21132 3.24492 0
M  V30 1378 C 131.311 -5.159 3.43872 0
M  V30 1379 C 133.366 -4.41423 2.30326 0
M  V30 1380 C 132.069 -5.56165 4.5615 0
M  V30 1381 C 134.095 -4.82726 3.41658 0
M  V30 1382 C 133.457 -5.39245 4.53205 0
M  V30 1383 H 129.556 -0.77702 0.0881159 0
M  V30 1384 H 132.14 -1.76819 0.815044 0
M  V30 1385 H 130.311 -3.83247 -0.630599 0
M  V30 1386 H 132.043 -4.01976 -0.468721 0
M  V30 1387 H 128.798 -4.49421 1.49392 0
M  V30 1388 H 129.222 -5.53377 3.90004 0
M  V30 1389 H 133.864 -3.97033 1.45343 0
M  V30 1390 H 131.582 -5.99517 5.41854 0
M  V30 1391 H 135.168 -4.7048 3.42257 0
M  V30 1392 H 134.048 -5.70616 5.37929 0
M  V30 1393 N 131.551 -0.354651 -1.53558 0
M  V30 1394 C 132.962 0.126902 -1.86268 0
M  V30 1395 C 133.313 1.49075 -1.27558 0
M  V30 1396 O 132.438 2.08105 -0.5934 0
M  V30 1397 C 133.033 0.237046 -3.3797 0
M  V30 1398 C 131.592 0.662842 -3.70518 0
M  V30 1399 C 130.739 -0.196652 -2.76602 0
M  V30 1400 H 133.69 -0.573849 -1.47962 0
M  V30 1401 H 133.711 1.06259 -3.65362 0
M  V30 1402 H 133.223 -0.755725 -3.80671 0
M  V30 1403 H 131.324 1.66424 -3.33367 0
M  V30 1404 H 131.437 0.445034 -4.77029 0
M  V30 1405 H 129.801 0.332763 -2.52517 0
M  V30 1406 H 130.584 -1.18676 -3.22135 0
M  V30 1407 N 133.029 1.57378 -0.0835403 0
M  V30 1408 C 134.277 1.93547 0.581718 0
M  V30 1409 C 134.598 0.96524 1.69435 0
M  V30 1410 O 133.868 0.0153369 1.95894 0
M  V30 1411 H 132.448 0.714521 0.217874 0
M  V30 1412 H 135.11 1.94366 -0.144158 0
M  V30 1413 H 134.206 2.95665 0.999423 0
M  V30 1414 N 134.507 -0.190092 1.56449 0
M  V30 1415 C 135.784 -0.935886 1.71757 0
M  V30 1416 C 136.164 -2.01173 0.639726 0
M  V30 1417 O 135.512 -2.25827 -0.348502 0
M  V30 1418 C 135.722 -1.51775 3.1427 0
M  V30 1419 C 137.07 -1.99794 3.74656 0
M  V30 1420 O 138.094 -1.61607 3.1743 0
M  V30 1421 O 136.953 -2.70079 4.751 0
M  V30 1422 H 134.047 -0.439229 0.700719 0
M  V30 1423 H 136.593 -0.179395 1.68749 0
M  V30 1424 H 135.365 -0.742505 3.84191 0
M  V30 1425 H 134.988 -2.33894 3.21527 0
M  V30 1426 N 135.985 -1.50799 -0.457987 0
M  V30 1427 C 136.895 -1.73426 -1.57989 0
M  V30 1428 C 137.911 -0.617745 -1.62665 0
M  V30 1429 O 139.087 -0.897614 -1.80291 0
M  V30 1430 C 136.152 -1.83557 -2.94122 0
M  V30 1431 C 135.213 -3.07345 -2.99729 0
M  V30 1432 C 134.446 -3.16983 -4.29368 0
M  V30 1433 O 134.669 -2.33077 -5.20607 0
M  V30 1434 O 133.603 -4.09812 -4.40837 0
M  V30 1435 H 137.429 -2.68555 -1.41817 0
M  V30 1436 H 135.014 -1.35052 -0.638859 0
M  V30 1437 H 136.896 -1.92326 -3.74952 0
M  V30 1438 H 135.571 -0.916137 -3.10465 0
M  V30 1439 H 134.478 -3.04068 -2.1793 0
M  V30 1440 H 135.811 -3.9891 -2.88326 0
M  V30 1441 N 137.463 0.71206 -1.40597 0
M  V30 1442 C 138.712 1.46754 -1.38369 0
M  V30 1443 C 139.025 1.95598 0.0097839 0
M  V30 1444 O 140.231 2.71059 0.154677 0
M  V30 1445 C 138.687 2.65289 -2.43207 0
M  V30 1446 C 138.295 2.23301 -3.88382 0
M  V30 1447 C 140.039 3.43008 -2.50091 0
M  V30 1448 C 137.946 3.38696 -4.84808 0
M  V30 1449 H 136.876 0.55118 -0.514506 0
M  V30 1450 H 139.527 0.774616 -1.66349 0
M  V30 1451 H 137.909 3.36769 -2.08332 0
M  V30 1452 H 139.083 1.59218 -4.32419 0
M  V30 1453 H 137.398 1.58618 -3.85006 0
M  V30 1454 H 139.995 4.28881 -3.1932 0
M  V30 1455 H 140.338 3.87065 -1.53253 0
M  V30 1456 H 140.871 2.78574 -2.83974 0
M  V30 1457 H 137.61 2.99668 -5.82992 0
M  V30 1458 H 137.13 4.01683 -4.45433 0
M  V30 1459 H 138.809 4.04712 -5.04794 0
M  V30 1460 N 138.941 1.26152 0.944643 0
M  V30 1461 C 140.187 1.11657 1.69294 0
M  V30 1462 C 140.52 -0.339926 1.91202 0
M  V30 1463 O 139.795 -1.24994 1.49019 0
M  V30 1464 C 140.078 1.88236 3.06984 0
M  V30 1465 C 139.931 3.41772 2.92424 0
M  V30 1466 C 141.25 1.67343 4.07043 0
M  V30 1467 H 138.369 0.407004 0.614424 0
M  V30 1468 H 141.011 1.55106 1.09737 0
M  V30 1469 H 139.161 1.51308 3.57824 0
M  V30 1470 H 140.833 3.88433 2.48832 0
M  V30 1471 H 139.076 3.68974 2.28124 0
M  V30 1472 H 139.747 3.90579 3.90067 0
M  V30 1473 H 142.223 1.99509 3.65151 0
M  V30 1474 H 141.099 2.23346 5.01406 0
M  V30 1475 H 141.36 0.617158 4.37771 0
M  V30 1476 N 140.419 -1.14872 1.07899 0
M  V30 1477 C 141.666 -1.85789 0.805532 0
M  V30 1478 C 141.994 -1.82649 -0.668561 0
M  V30 1479 O 141.249 -1.24858 -1.50695 0
M  V30 1480 C 141.548 -3.34223 1.26609 0
M  V30 1481 C 141.214 -3.57555 2.74709 0
M  V30 1482 C 139.876 -3.63631 3.1516 0
M  V30 1483 C 142.228 -3.66803 3.70277 0
M  V30 1484 C 139.556 -3.76473 4.49983 0
M  V30 1485 C 141.908 -3.8117 5.04869 0
M  V30 1486 C 140.572 -3.85494 5.44932 0
M  V30 1487 H 139.842 -0.679849 0.294765 0
M  V30 1488 H 142.489 -1.3572 1.35101 0
M  V30 1489 H 140.794 -3.86536 0.640103 0
M  V30 1490 H 142.491 -3.87511 1.03132 0
M  V30 1491 H 139.081 -3.5347 2.42398 0
M  V30 1492 H 143.265 -3.61404 3.40149 0
M  V30 1493 H 138.521 -3.7808 4.80484 0
M  V30 1494 H 142.695 -3.87268 5.78789 0
M  V30 1495 H 140.322 -3.95197 6.49403 0
M  V30 1496 N 141.898 -0.863906 -1.31812 0
M  V30 1497 C 143.144 -0.472535 -1.97218 0
M  V30 1498 C 143.477 0.971394 -1.68159 0
M  V30 1499 O 142.752 1.68309 -0.974798 0
M  V30 1500 C 143.035 -0.723054 -3.52766 0
M  V30 1501 C 142.888 -2.21608 -3.91421 0
M  V30 1502 C 144.207 -0.185522 -4.39709 0
M  V30 1503 H 141.326 -0.173158 -0.71637 0
M  V30 1504 H 143.968 -1.08403 -1.56041 0
M  V30 1505 H 142.118 -0.202577 -3.87971 0
M  V30 1506 H 143.79 -2.80334 -3.66347 0
M  V30 1507 H 142.033 -2.691 -3.40246 0
M  V30 1508 H 142.704 -2.34203 -4.99853 0
M  V30 1509 H 145.18 -0.630726 -4.11292 0
M  V30 1510 H 144.056 -0.390306 -5.47511 0
M  V30 1511 H 144.317 0.912229 -4.32586 0
M  V30 1512 N 143.376 1.44774 -0.622745 0
M  V30 1513 C 144.624 2.01721 -0.123655 0
M  V30 1514 C 144.945 1.49172 1.25589 0
M  V30 1515 O 144.215 0.691974 1.83272 0
M  V30 1516 H 142.795 0.745777 -0.0427225 0
M  V30 1517 H 145.457 1.77382 -0.807559 0
M  V30 1518 H 144.553 3.11984 -0.0849534 0
M  V30 1519 N 144.854 0.36279 1.53368 0
M  V30 1520 C 146.1 -0.228113 2.01513 0
M  V30 1521 C 146.433 -1.48648 1.2497 0
M  V30 1522 O 145.708 -1.91459 0.342616 0
M  V30 1523 C 145.991 -0.522884 3.56284 0
M  V30 1524 C 145.844 0.74892 4.43521 0
M  V30 1525 C 147.163 -1.32461 4.19693 0
M  V30 1526 H 144.282 -0.0814343 0.732487 0
M  V30 1527 H 146.924 0.48713 1.83649 0
M  V30 1528 H 145.074 -1.1322 3.71636 0
M  V30 1529 H 146.746 1.38648 4.39971 0
M  V30 1530 H 144.989 1.36986 4.11603 0
M  V30 1531 H 145.66 0.497667 5.49752 0
M  V30 1532 H 148.136 -0.809203 4.08156 0
M  V30 1533 H 147.012 -1.49961 5.28018 0
M  V30 1534 H 147.273 -2.33232 3.75573 0
M  V30 1535 N 146.332 -1.57332 0.0918853 0
M  V30 1536 C 147.56 -1.98574 -0.581048 0
M  V30 1537 C 147.975 -0.970903 -1.61923 0
M  V30 1538 O 147.332 0.0399054 -1.82456 0
M  V30 1539 C 147.383 -3.39872 -1.23164 0
M  V30 1540 O 147.104 -4.37469 -0.234989 0
M  V30 1541 C 148.605 -3.96099 -1.99049 0
M  V30 1542 H 145.825 -0.65261 -0.156018 0
M  V30 1543 H 148.369 -2.0379 0.170225 0
M  V30 1544 H 146.524 -3.35679 -1.93386 0
M  V30 1545 H 146.938 -5.19751 -0.70418 0
M  V30 1546 H 148.412 -4.97127 -2.39934 0
M  V30 1547 H 148.889 -3.3374 -2.85507 0
M  V30 1548 H 149.495 -4.03755 -1.3365 0
M  V30 1549 N 147.81 0.181792 -1.56548 0
M  V30 1550 C 149.035 0.920019 -1.85877 0
M  V30 1551 C 149.46 1.75494 -0.677021 0
M  V30 1552 O 148.818 1.77399 0.374056 0
M  V30 1553 C 148.866 1.78112 -3.13542 0
M  V30 1554 O 147.97 2.88152 -2.95029 0
M  V30 1555 H 147.311 0.258334 -0.611686 0
M  V30 1556 H 149.841 0.183092 -2.03779 0
M  V30 1557 H 149.851 2.18314 -3.44678 0
M  V30 1558 H 148.526 1.16777 -3.99169 0
M  V30 1559 H 147.103 2.51609 -2.75222 0
M  V30 1560 N 149.288 1.51039 0.449983 0
M  V30 1561 C 150.251 1.70863 1.5277 0
M  V30 1562 C 151.251 0.578846 1.5002 0
M  V30 1563 O 152.441 0.846213 1.52266 0
M  V30 1564 C 149.573 1.75341 2.9235 0
M  V30 1565 H 150.766 2.67034 1.36502 0
M  V30 1566 H 148.319 1.40838 0.677812 0
M  V30 1567 H 149.054 0.809383 3.14037 0
M  V30 1568 H 148.839 2.57436 2.95752 0
M  V30 1569 H 150.329 1.92559 3.70555 0
M  V30 1570 N 150.766 -0.704594 1.40972 0
M  V30 1571 C 151.716 -1.81051 1.38581 0
M  V30 1572 C 152.7 -1.58759 0.261585 0
M  V30 1573 O 153.892 -1.69745 0.501556 0
M  V30 1574 C 151.021 -3.19279 1.26157 0
M  V30 1575 C 150.107 -3.47296 2.43405 0
M  V30 1576 N 150.498 -3.46064 3.68881 0
M  V30 1577 C 148.796 -3.77804 2.37023 0
M  V30 1578 C 149.497 -3.72733 4.46592 0
M  V30 1579 N 148.473 -3.9203 3.76581 0
M  V30 1580 H 152.275 -1.78448 2.33525 0
M  V30 1581 H 149.789 -0.904198 1.349 0
M  V30 1582 H 151.786 -3.98488 1.22526 0
M  V30 1583 H 150.446 -3.231 0.321902 0
M  V30 1584 H 151.457 -3.26656 4.01891 0
M  V30 1585 H 148.134 -3.8905 1.51481 0
M  V30 1586 H 149.524 -3.77993 5.55492 0
M  V30 1587 N 152.244 -1.26651 -0.937939 0
M  V30 1588 C 153.66 -1.03834 -1.21205 0
M  V30 1589 C 153.86 0.234502 -2.00131 0
M  V30 1590 O 152.916 0.942767 -2.3424 0
M  V30 1591 C 154.229 -2.27167 -1.97017 0
M  V30 1592 C 155.777 -2.32101 -2.09996 0
M  V30 1593 C 156.252 -3.55136 -2.8921 0
M  V30 1594 N 157.743 -3.55632 -2.96783 0
M  V30 1595 C 158.478 -4.475 -3.58512 0
M  V30 1596 N 157.974 -5.4966 -4.21717 0
M  V30 1597 N 159.767 -4.35145 -3.55816 0
M  V30 1598 H 151.918 -2.08398 -0.410391 0
M  V30 1599 H 154.181 -0.916031 -0.244114 0
M  V30 1600 H 153.887 -3.19765 -1.46434 0
M  V30 1601 H 153.761 -2.31672 -2.97671 0
M  V30 1602 H 156.148 -1.40015 -2.59769 0
M  V30 1603 H 156.229 -2.31605 -1.08594 0
M  V30 1604 H 155.873 -4.47553 -2.40123 0
M  V30 1605 H 155.803 -3.5288 -3.90875 0
M  V30 1606 H 158.294 -2.81743 -2.51852 0
M  V30 1607 H 158.607 -6.15943 -4.66727 0
M  V30 1608 H 156.952 -5.53514 -4.20294 0
M  V30 1609 H 160.143 -3.5455 -3.05634 0
M  V30 1610 H 160.316 -5.06934 -4.03636 0
M  V30 1611 N 153.722 1.14298 -1.08507 0
M  V30 1612 C 154.947 1.8976 -0.837001 0
M  V30 1613 C 155.372 1.78097 0.605228 0
M  V30 1614 O 154.73 1.12188 1.4242 0
M  V30 1615 C 154.778 3.37685 -1.26495 0
M  V30 1616 O 153.882 4.10281 -0.417514 0
M  V30 1617 H 153.223 0.590365 -0.303917 0
M  V30 1618 H 155.753 1.44672 -1.44676 0
M  V30 1619 H 155.763 3.88501 -1.24625 0
M  V30 1620 H 154.438 3.45492 -2.31534 0
M  V30 1621 H 153.015 3.69536 -0.499722 0
M  V30 1622 N 155.201 0.870884 1.31352 0
M  V30 1623 C 156.426 0.495957 2.01383 0
M  V30 1624 C 156.851 -0.904324 1.64935 0
M  V30 1625 O 156.209 -1.59687 0.858466 0
M  V30 1626 C 156.257 0.661433 3.54482 0
M  V30 1627 O 155.361 -0.298851 4.11316 0
M  V30 1628 H 154.702 0.197158 0.634054 0
M  V30 1629 H 157.232 1.17455 1.67527 0
M  V30 1630 H 157.242 0.555072 4.04207 0
M  V30 1631 H 155.917 1.68246 3.8035 0
M  V30 1632 H 154.494 -0.147368 3.72609 0
M  V30 1633 N 156.679 -1.44442 0.630414 0
M  V30 1634 C 157.642 -2.29107 -0.0652523 0
M  V30 1635 C 158.642 -1.41002 -0.772995 0
M  V30 1636 O 159.832 -1.62881 -0.617692 0
M  V30 1637 C 156.964 -3.22564 -1.10296 0
M  V30 1638 H 158.157 -2.92103 0.679401 0
M  V30 1639 H 155.71 -1.51343 0.390517 0
M  V30 1640 H 156.445 -2.64416 -1.87762 0
M  V30 1641 H 156.23 -3.87491 -0.59941 0
M  V30 1642 H 157.72 -3.86167 -1.5895 0
M  V30 1643 N 158.157 -0.370918 -1.53173 0
M  V30 1644 C 159.404 0.217102 -2.01333 0
M  V30 1645 C 159.732 1.48338 -1.25802 0
M  V30 1646 O 158.987 1.92698 -0.34146 0
M  V30 1647 C 159.286 0.549696 -3.53147 0
M  V30 1648 C 158.952 -0.622872 -4.46577 0
M  V30 1649 C 157.614 -0.944595 -4.71838 0
M  V30 1650 C 159.966 -1.40819 -5.01816 0
M  V30 1651 C 157.294 -2.05351 -5.49589 0
M  V30 1652 C 159.646 -2.50757 -5.80778 0
M  V30 1653 C 158.31 -2.83458 -6.04324 0
M  V30 1654 H 157.58 0.0794431 -0.736729 0
M  V30 1655 H 160.227 -0.504481 -1.84736 0
M  V30 1656 H 158.532 1.35237 -3.6772 0
M  V30 1657 H 160.229 1.017 -3.87889 0
M  V30 1658 H 156.819 -0.36209 -4.27068 0
M  V30 1659 H 161.003 -1.17289 -4.82242 0
M  V30 1660 H 156.259 -2.3108 -5.6605 0
M  V30 1661 H 160.433 -3.12022 -6.22588 0
M  V30 1662 H 158.06 -3.69508 -6.64355 0
M  V30 1663 N 159.635 1.57281 -0.100228 0
M  V30 1664 C 160.545 2.17833 0.870965 0
M  V30 1665 C 161.561 1.14921 1.30649 0
M  V30 1666 O 162.737 1.47313 1.37335 0
M  V30 1667 C 159.802 2.75085 2.1102 0
M  V30 1668 C 158.863 3.9297 1.72838 0
M  V30 1669 C 158.096 4.47482 2.90854 0
M  V30 1670 O 158.319 4.00922 4.05731 0
M  V30 1671 O 157.253 5.38433 2.69023 0
M  V30 1672 H 161.079 3.0124 0.38575 0
M  V30 1673 H 158.664 1.48881 0.124397 0
M  V30 1674 H 160.546 3.11656 2.83634 0
M  V30 1675 H 159.221 1.94721 2.58584 0
M  V30 1676 H 158.128 3.61201 0.973883 0
M  V30 1677 H 159.461 4.74713 1.30033 0
M  V30 1678 N 161.113 -0.173488 1.56642 0
M  V30 1679 C 162.076 -1.19859 1.95362 0
M  V30 1680 C 163.076 -1.37296 0.83704 0
M  V30 1681 O 164.266 -1.34739 1.10413 0
M  V30 1682 C 161.398 -2.56405 2.24654 0
M  V30 1683 H 162.591 -0.867062 2.87092 0
M  V30 1684 H 160.144 -0.415853 1.50666 0
M  V30 1685 H 160.879 -2.94576 1.35631 0
M  V30 1686 H 160.664 -2.45115 3.06041 0
M  V30 1687 H 162.154 -3.30287 2.5554 0
M  V30 1688 N 162.591 -1.51276 -0.441967 0
M  V30 1689 C 163.839 -1.63392 -1.18943 0
M  V30 1690 C 164.16 -0.350159 -1.9183 0
M  V30 1691 O 163.43 0.633784 -1.85364 0
M  V30 1692 H 162.01 -0.602164 -0.442049 0
M  V30 1693 H 164.672 -1.88186 -0.507165 0
M  V30 1694 H 163.768 -2.45934 -1.92154 0
M  V30 1695 N 164.069 0.697108 -1.41344 0
M  V30 1696 C 165.001 1.8224 -1.39001 0
M  V30 1697 C 166.014 1.60152 -0.292428 0
M  V30 1698 O 167.203 1.69684 -0.554048 0
M  V30 1699 C 164.303 3.18976 -1.14489 0
M  V30 1700 C 163.476 3.68105 -2.36258 0
M  V30 1701 C 162.535 4.83506 -2.07625 0
M  V30 1702 O 161.561 4.95201 -2.8065 0
M  V30 1703 N 162.763 5.70637 -1.06555 0
M  V30 1704 H 165.528 1.84742 -2.35988 0
M  V30 1705 H 163.089 0.87937 -1.35936 0
M  V30 1706 H 165.081 3.93801 -0.932885 0
M  V30 1707 H 163.651 3.11508 -0.261043 0
M  V30 1708 H 162.871 2.84204 -2.7317 0
M  V30 1709 H 164.159 3.97667 -3.17393 0
M  V30 1710 H 163.557 5.63817 -0.461125 0
M  V30 1711 H 162.114 6.45368 -0.913444 0
M  V30 1712 N 165.547 1.27147 0.931209 0
M  V30 1713 C 166.794 1.13278 1.67852 0
M  V30 1714 C 167.122 -0.32204 1.91815 0
M  V30 1715 O 166.377 -1.25224 1.50391 0
M  V30 1716 C 166.676 1.8579 3.05314 0
M  V30 1717 C 166.342 3.35657 3.01073 0
M  V30 1718 C 165.004 3.76536 2.99623 0
M  V30 1719 C 167.356 4.31299 2.92627 0
M  V30 1720 C 164.684 5.11426 2.87506 0
M  V30 1721 C 167.036 5.66242 2.82051 0
M  V30 1722 C 165.7 6.06418 2.7895 0
M  V30 1723 H 164.97 0.414515 0.614214 0
M  V30 1724 H 167.617 1.57712 1.08624 0
M  V30 1725 H 165.922 1.33854 3.68226 0
M  V30 1726 H 167.619 1.72491 3.62005 0
M  V30 1727 H 164.209 3.03146 3.02986 0
M  V30 1728 H 168.393 4.00692 2.92848 0
M  V30 1729 H 163.649 5.41705 2.83489 0
M  V30 1730 H 167.823 6.40026 2.74481 0
M  V30 1731 H 165.45 7.10895 2.69318 0
M  V30 1732 N 167.025 -1.13721 1.09112 0
M  V30 1733 C 168.274 -1.84275 0.82009 0
M  V30 1734 C 168.587 -1.84253 -0.656509 0
M  V30 1735 O 169.793 -2.50668 -1.04296 0
M  V30 1736 C 168.249 -3.30825 1.41714 0
M  V30 1737 C 167.857 -3.39244 2.92605 0
M  V30 1738 C 169.601 -4.06443 1.22492 0
M  V30 1739 C 167.508 -4.80047 3.45411 0
M  V30 1740 H 166.438 -0.690387 0.30312 0
M  V30 1741 H 169.089 -1.28146 1.31343 0
M  V30 1742 H 167.471 -3.86737 0.851498 0
M  V30 1743 H 168.645 -2.93344 3.55367 0
M  V30 1744 H 166.96 -2.77088 3.10823 0
M  V30 1745 H 169.557 -5.10387 1.59402 0
M  V30 1746 H 169.9 -4.15972 0.165299 0
M  V30 1747 H 170.433 -3.56852 1.75788 0
M  V30 1748 H 167.172 -4.75709 4.50978 0
M  V30 1749 H 166.692 -5.26455 2.87411 0
M  V30 1750 H 168.371 -5.48957 3.42425 0
M  V30 1751 N 168.503 -0.877838 -1.30888 0
M  V30 1752 C 169.436 -0.283995 -2.26426 0
M  V30 1753 C 170.414 0.591361 -1.51465 0
M  V30 1754 O 171.598 0.54304 -1.80509 0
M  V30 1755 C 168.725 0.597129 -3.33395 0
M  V30 1756 C 167.771 -0.207937 -4.25993 0
M  V30 1757 S 168.604 -1.59158 -5.11301 0
M  V30 1758 C 169.76 -0.716791 -6.21782 0
M  V30 1759 H 169.993 -1.09383 -2.76446 0
M  V30 1760 H 167.526 -0.676828 -1.38775 0
M  V30 1761 H 169.484 1.09978 -3.95493 0
M  V30 1762 H 168.145 1.38099 -2.82113 0
M  V30 1763 H 167.338 0.464163 -5.01858 0
M  V30 1764 H 166.94 -0.642963 -3.68432 0
M  V30 1765 H 169.232 0.0692833 -6.77465 0
M  V30 1766 H 170.175 -1.44682 -6.93161 0
M  V30 1767 H 170.583 -0.280855 -5.63801 0
M  V30 1768 N 169.982 1.44106 -0.638065 0
M  V30 1769 C 171.259 1.95453 -0.0759321 0
M  V30 1770 C 171.639 1.57984 1.40015 0
M  V30 1771 O 170.987 0.857361 2.11806 0
M  V30 1772 C 171.197 3.47655 -0.306132 0
M  V30 1773 C 172.545 4.24114 -0.203008 0
M  V30 1774 O 173.569 3.55405 -0.237871 0
M  V30 1775 O 172.428 5.46381 -0.113827 0
M  V30 1776 H 169.522 0.826797 0.0183332 0
M  V30 1777 H 172.068 1.54122 -0.710251 0
M  V30 1778 H 170.84 3.68 -1.3301 0
M  V30 1779 H 170.463 3.95949 0.361991 0
M  V30 1780 N 171.46 0.379036 1.52974 0
M  V30 1781 C 172.69 -0.20649 2.05566 0
M  V30 1782 C 173.098 -1.41906 1.25137 0
M  V30 1783 O 172.441 -1.81421 0.288464 0
M  V30 1784 C 172.503 -0.651086 3.53555 0
M  V30 1785 C 172.167 0.446626 4.54812 0
M  V30 1786 C 173.164 1.30079 5.03364 0
M  V30 1787 C 170.849 0.610719 4.98573 0
M  V30 1788 C 172.843 2.30426 5.94292 0
M  V30 1789 C 170.53 1.61754 5.89304 0
M  V30 1790 C 171.528 2.46274 6.37054 0
M  V30 1791 O 171.216 3.45237 7.25994 0
M  V30 1792 H 170.948 -0.0372381 0.674974 0
M  V30 1793 H 173.502 0.539718 1.98182 0
M  V30 1794 H 171.732 -1.44911 3.58522 0
M  V30 1795 H 173.421 -1.16112 3.88938 0
M  V30 1796 H 174.187 1.18527 4.70294 0
M  V30 1797 H 170.066 -0.0374044 4.60985 0
M  V30 1798 H 173.61 2.96432 6.31485 0
M  V30 1799 H 169.507 1.73348 6.21788 0
M  V30 1800 H 170.275 3.41124 7.44027 0
M  V30 1801 N 172.938 -1.57226 0.108567 0
M  V30 1802 C 173.868 -2.17778 -0.84232 0
M  V30 1803 C 174.849 -1.11487 -1.2847 0
M  V30 1804 O 176.034 -1.39681 -1.34918 0
M  V30 1805 C 173.164 -2.76888 -2.09644 0
M  V30 1806 C 172.118 -3.88669 -1.79221 0
M  V30 1807 C 171.444 -4.34541 -3.11574 0
M  V30 1808 C 172.744 -5.11251 -1.06864 0
M  V30 1809 H 174.438 -2.97489 -0.337774 0
M  V30 1810 H 171.984 -1.43097 -0.161025 0
M  V30 1811 H 173.937 -3.17904 -2.76614 0
M  V30 1812 H 172.661 -1.94451 -2.62405 0
M  V30 1813 H 171.32 -3.48213 -1.14644 0
M  V30 1814 H 170.968 -3.48977 -3.62249 0
M  V30 1815 H 170.668 -5.09914 -2.91996 0
M  V30 1816 H 172.192 -4.782 -3.7968 0
M  V30 1817 H 173.606 -5.49352 -1.63968 0
M  V30 1818 H 172.003 -5.9214 -0.974178 0
M  V30 1819 H 173.073 -4.8487 -0.0536168 0
M  V30 1820 N 174.416 0.165178 -1.56732 0
M  V30 1821 C 175.363 1.2044 -1.96883 0
M  V30 1822 C 176.333 1.43664 -0.833657 0
M  V30 1823 O 177.518 1.56302 -1.09427 0
M  V30 1824 C 174.658 2.53727 -2.33916 0
M  V30 1825 C 173.771 2.3783 -3.6064 0
M  V30 1826 C 172.906 3.64026 -3.86857 0
M  V30 1827 C 171.945 3.43088 -5.06909 0
M  V30 1828 N 171.082 4.61369 -5.29229 0
M  V30 1829 H 175.922 0.854996 -2.85471 0
M  V30 1830 H 173.459 0.41076 -1.41249 0
M  V30 1831 H 175.417 3.31419 -2.53411 0
M  V30 1832 H 174.047 2.8665 -1.48431 0
M  V30 1833 H 173.099 1.51282 -3.49024 0
M  V30 1834 H 174.411 2.18308 -4.4849 0
M  V30 1835 H 173.565 4.50152 -4.06753 0
M  V30 1836 H 172.304 3.86533 -2.97394 0
M  V30 1837 H 171.309 2.55349 -4.86906 0
M  V30 1838 H 172.534 3.21997 -5.97909 0
M  V30 1839 H 170.48 4.84084 -4.42718 0
M  V30 1840 H 170.397 4.44783 -6.11313 0
M  V30 1841 H 171.665 5.48761 -5.53608 0
M  V30 1842 N 175.894 1.51508 0.433938 0
M  V30 1843 C 177.122 1.68157 1.20543 0
M  V30 1844 C 177.537 0.380362 1.84929 0
M  V30 1845 O 176.894 -0.641446 1.70856 0
M  V30 1846 C 176.945 2.79965 2.28696 0
M  V30 1847 O 176.666 4.05045 1.66943 0
M  V30 1848 C 178.167 3.07912 3.18912 0
M  V30 1849 H 175.387 0.56421 0.363191 0
M  V30 1850 H 177.931 1.97941 0.513754 0
M  V30 1851 H 176.086 2.5277 2.93574 0
M  V30 1852 H 176.5 4.67165 2.38448 0
M  V30 1853 H 177.974 3.89719 3.90926 0
M  V30 1854 H 178.451 2.20456 3.79863 0
M  V30 1855 H 179.057 3.36779 2.59731 0
M  V30 1856 N 177.372 -0.689602 1.41712 0
M  V30 1857 C 178.788 -1.00093 1.24312 0
M  V30 1858 C 178.988 -2.01036 0.136729 0
M  V30 1859 O 178.044 -2.47562 -0.496918 0
M  V30 1860 C 179.357 -1.51985 2.59463 0
M  V30 1861 C 180.905 -1.63838 2.66695 0
M  V30 1862 C 181.38 -2.1913 4.02177 0
M  V30 1863 N 182.871 -2.26483 4.04054 0
M  V30 1864 C 183.606 -2.70306 5.0569 0
M  V30 1865 N 183.102 -3.13691 6.17713 0
M  V30 1866 N 184.895 -2.69923 4.9305 0
M  V30 1867 H 177.046 -0.0210029 2.1239 0
M  V30 1868 H 179.309 -0.0718733 0.945272 0
M  V30 1869 H 179.015 -0.85269 3.41207 0
M  V30 1870 H 178.889 -2.50103 2.82362 0
M  V30 1871 H 181.276 -2.29664 1.85306 0
M  V30 1872 H 181.357 -0.642492 2.476 0
M  V30 1873 H 181.001 -1.53918 4.84016 0
M  V30 1874 H 180.931 -3.19482 4.18615 0
M  V30 1875 H 183.422 -1.95874 3.23174 0
M  V30 1876 H 183.735 -3.45773 6.9113 0
M  V30 1877 H 182.08 -3.11585 6.21241 0
M  V30 1878 H 185.271 -2.35382 4.04614 0
M  V30 1879 H 185.444 -3.03758 5.72394 0
M  V30 1880 N 178.85 -1.27639 -0.924453 0
M  V30 1881 C 179.813 -1.10681 -2.00705 0
M  V30 1882 C 180.813 -0.0497823 -1.60723 0
M  V30 1883 O 182.003 -0.294654 -1.7169 0
M  V30 1884 C 179.135 -0.687164 -3.33902 0
M  V30 1885 H 180.328 -2.06817 -2.17179 0
M  V30 1886 H 177.881 -1.10473 -1.10569 0
M  V30 1887 H 178.616 0.275439 -3.23128 0
M  V30 1888 H 178.401 -1.45061 -3.6428 0
M  V30 1889 H 179.891 -0.590853 -4.13399 0
M  V30 1890 N 180.328 1.1314 -1.09713 0
M  V30 1891 C 181.739 1.66029 -0.853885 0
M  V30 1892 C 182.09 1.86241 0.617142 0
M  V30 1893 O 181.215 1.5834 1.47503 0
M  V30 1894 C 181.81 3.01599 -1.5435 0
M  V30 1895 C 180.369 3.51467 -1.34714 0
M  V30 1896 C 179.516 2.26648 -1.59769 0
M  V30 1897 H 182.467 0.970226 -1.25588 0
M  V30 1898 H 182.488 3.67709 -0.978267 0
M  V30 1899 H 182 2.86856 -2.6141 0
M  V30 1900 H 180.101 3.71408 -0.297838 0
M  V30 1901 H 180.214 4.314 -2.08401 0
M  V30 1902 H 178.578 2.33385 -1.01998 0
M  V30 1903 H 179.361 2.14467 -2.68065 0
M  V30 1904 N 181.806 0.884767 1.30421 0
M  V30 1905 C 183.053 0.503105 1.96151 0
M  V30 1906 C 183.381 -0.947676 1.69851 0
M  V30 1907 O 182.636 -1.68467 0.995861 0
M  V30 1908 C 182.935 0.724318 3.49983 0
M  V30 1909 C 182.601 2.15015 3.96332 0
M  V30 1910 C 181.263 2.54005 4.08699 0
M  V30 1911 C 183.615 3.07936 4.20505 0
M  V30 1912 C 180.943 3.85128 4.42599 0
M  V30 1913 C 183.295 4.3859 4.55874 0
M  V30 1914 C 181.959 4.77474 4.66449 0
M  V30 1915 H 181.229 0.184099 0.717766 0
M  V30 1916 H 183.876 1.12058 1.55291 0
M  V30 1917 H 182.181 0.0238086 3.91793 0
M  V30 1918 H 183.878 0.408617 3.98913 0
M  V30 1919 H 180.468 1.8375 3.87213 0
M  V30 1920 H 184.652 2.79033 4.10431 0
M  V30 1921 H 179.908 4.14996 4.48986 0
M  V30 1922 H 184.082 5.10629 4.7353 0
M  V30 1923 H 181.709 5.79115 4.92473 0
M  V30 1924 N 183.284 -1.43765 0.645699 0
M  V30 1925 C 184.53 -2.02731 0.164844 0
M  V30 1926 C 184.885 -1.49983 -1.2051 0
M  V30 1927 O 184.178 -0.680208 -1.79119 0
M  V30 1928 C 184.372 -3.57238 0.107679 0
M  V30 1929 C 184.201 -4.24977 1.47054 0
M  V30 1930 C 182.971 -4.61356 2.06103 0
M  V30 1931 C 185.169 -4.54476 2.40741 0
M  V30 1932 N 183.151 -5.14132 3.35473 0
M  V30 1933 C 184.522 -5.08489 3.54737 0
M  V30 1934 C 186.577 -4.36438 2.39637 0
M  V30 1935 C 185.28 -5.46364 4.67845 0
M  V30 1936 C 187.306 -4.7537 3.5182 0
M  V30 1937 C 186.668 -5.2951 4.64541 0
M  V30 1938 H 182.767 -0.774976 0.104578 0
M  V30 1939 H 185.351 -1.75051 0.852367 0
M  V30 1940 H 183.522 -3.84498 -0.549165 0
M  V30 1941 H 185.254 -4.0288 -0.383351 0
M  V30 1942 H 182.009 -4.46151 1.58892 0
M  V30 1943 H 182.433 -5.4498 4.01654 0
M  V30 1944 H 187.075 -3.93861 1.53731 0
M  V30 1945 H 184.793 -5.87888 5.54448 0
M  V30 1946 H 188.379 -4.63115 3.52159 0
M  V30 1947 H 187.259 -5.59077 5.49911 0
M  V30 1948 N 184.763 -0.387143 -1.52771 0
M  V30 1949 C 185.71 0.449048 -2.26389 0
M  V30 1950 C 186.68 1.05961 -1.27912 0
M  V30 1951 O 187.865 1.08804 -1.56737 0
M  V30 1952 C 185.005 1.57155 -3.0724 0
M  V30 1953 C 184.118 0.984066 -4.20643 0
M  V30 1954 C 183.253 2.07745 -4.88892 0
M  V30 1955 C 182.292 1.46574 -5.94292 0
M  V30 1956 N 181.429 2.49834 -6.56146 0
M  V30 1957 H 186.269 -0.185205 -2.97424 0
M  V30 1958 H 183.806 -0.103164 -1.46738 0
M  V30 1959 H 185.764 2.23309 -3.52405 0
M  V30 1960 H 184.394 2.17615 -2.38419 0
M  V30 1961 H 183.446 0.212193 -3.79808 0
M  V30 1962 H 184.758 0.497029 -4.96318 0
M  V30 1963 H 183.912 2.81673 -5.3735 0
M  V30 1964 H 182.651 2.59807 -4.12737 0
M  V30 1965 H 181.656 0.711696 -5.45174 0
M  V30 1966 H 182.881 0.953088 -6.72379 0
M  V30 1967 H 180.827 3.0107 -5.82832 0
M  V30 1968 H 180.744 2.05879 -7.27427 0
M  V30 1969 H 182.012 3.23399 -7.09249 0
M  V30 1970 N 186.241 1.57166 -0.116904 0
M  V30 1971 C 187.657 1.5779 0.239693 0
M  V30 1972 C 187.857 1.1295 1.66867 0
M  V30 1973 O 186.913 0.81592 2.38954 0
M  V30 1974 C 188.226 3.00699 0.00828202 0
M  V30 1975 C 189.774 3.12912 0.0743438 0
M  V30 1976 C 190.249 4.57817 -0.129348 0
M  V30 1977 N 191.74 4.63139 -0.075247 0
M  V30 1978 C 192.475 5.73023 -0.207788 0
M  V30 1979 N 191.971 6.91665 -0.396382 0
M  V30 1980 N 193.764 5.61906 -0.14751 0
M  V30 1981 H 185.915 1.84615 -1.05029 0
M  V30 1982 H 188.178 0.85311 -0.41341 0
M  V30 1983 H 187.884 3.37784 -0.979531 0
M  V30 1984 H 187.758 3.69848 0.741077 0
M  V30 1985 H 190.145 2.75686 1.05268 0
M  V30 1986 H 190.226 2.4631 -0.690297 0
M  V30 1987 H 189.87 4.95742 -1.10465 0
M  V30 1988 H 189.8 5.22507 0.655253 0
M  V30 1989 H 192.291 3.7784 0.0670898 0
M  V30 1990 H 192.604 7.71255 -0.488437 0
M  V30 1991 H 190.949 6.93654 -0.432329 0
M  V30 1992 H 194.14 4.681 -0.00115036 0
M  V30 1993 H 194.313 6.47501 -0.254247 0
M  V30 1994 N 187.719 -0.156864 1.56817 0
M  V30 1995 C 188.629 -1.2136 2.00771 0
M  V30 1996 C 189.645 -1.47598 0.921459 0
M  V30 1997 O 190.821 -1.59462 1.2302 0
M  V30 1998 C 187.886 -2.52943 2.37109 0
M  V30 1999 C 186.947 -2.34439 3.59634 0
M  V30 2000 C 186.18 -3.59748 3.94229 0
M  V30 2001 O 186.403 -4.65526 3.29609 0
M  V30 2002 O 185.337 -3.52998 4.8752 0
M  V30 2003 H 189.163 -0.870468 2.90958 0
M  V30 2004 H 186.748 -0.36484 1.44877 0
M  V30 2005 H 188.63 -3.30538 2.61386 0
M  V30 2006 H 187.305 -2.86806 1.5008 0
M  V30 2007 H 186.212 -1.54828 3.40557 0
M  V30 2008 H 187.545 -2.05496 4.4725 0
M  V30 2009 N 189.197 -1.51736 -0.425897 0
M  V30 2010 C 190.16 -1.73271 -1.50032 0
M  V30 2011 C 191.16 -0.602639 -1.4908 0
M  V30 2012 O 192.35 -0.87033 -1.509 0
M  V30 2013 C 189.482 -1.79969 -2.89523 0
M  V30 2014 H 190.675 -2.69172 -1.32237 0
M  V30 2015 H 188.228 -1.41899 -0.65532 0
M  V30 2016 H 188.963 -0.859241 -3.1271 0
M  V30 2017 H 188.748 -2.62109 -2.91619 0
M  V30 2018 H 190.238 -1.9843 -3.67444 0
M  V30 2019 N 190.675 0.682077 -1.42076 0
M  V30 2020 C 191.903 1.47057 -1.4554 0
M  V30 2021 C 192.318 1.8869 -0.0645779 0
M  V30 2022 O 191.675 1.57666 0.919115 0
M  V30 2023 C 191.726 2.72442 -2.37609 0
M  V30 2024 O 191.447 2.32559 -3.71279 0
M  V30 2025 C 192.948 3.66069 -2.50017 0
M  V30 2026 H 190.168 0.452737 -0.495248 0
M  V30 2027 H 192.712 0.838695 -1.8651 0
M  V30 2028 H 190.867 3.31835 -1.9991 0
M  V30 2029 H 191.281 3.13475 -4.20516 0
M  V30 2030 H 192.755 4.50792 -3.18576 0
M  V30 2031 H 193.232 4.11476 -1.53572 0
M  V30 2032 H 193.838 3.12572 -2.88407 0
M  V30 2033 N 192.153 1.28127 0.917671 0
M  V30 2034 C 193.564 1.13622 1.48145 0
M  V30 2035 C 193.915 -0.275207 1.9426 0
M  V30 2036 O 193.04 -1.1691 1.82102 0
M  V30 2037 C 193.635 2.05648 2.69248 0
M  V30 2038 C 192.194 1.95219 3.21818 0
M  V30 2039 C 191.341 1.97618 1.94532 0
M  V30 2040 H 194.292 1.40874 0.730772 0
M  V30 2041 H 194.313 1.61818 3.44377 0
M  V30 2042 H 193.825 3.08365 2.35653 0
M  V30 2043 H 191.926 0.955244 3.60147 0
M  V30 2044 H 192.039 2.81976 3.87333 0
M  V30 2045 H 190.403 1.41973 2.11461 0
M  V30 2046 H 191.186 3.02007 1.63238 0
M  V30 2047 N 193.631 -1.12557 1.10312 0
M  V30 2048 C 194.541 -2.21841 0.763142 0
M  V30 2049 C 195.557 -1.72354 -0.238801 0
M  V30 2050 O 196.733 -2.01249 -0.0778746 0
M  V30 2051 C 193.798 -3.46131 0.198632 0
M  V30 2052 C 192.859 -4.10464 1.25769 0
M  V30 2053 C 192.092 -5.28821 0.72002 0
M  V30 2054 O 192.315 -5.6859 -0.453993 0
M  V30 2055 O 191.249 -5.83437 1.47935 0
M  V30 2056 H 195.075 -2.53312 1.67532 0
M  V30 2057 H 192.66 -1.20867 0.878157 0
M  V30 2058 H 194.542 -4.2125 -0.112401 0
M  V30 2059 H 193.217 -3.16338 -0.686419 0
M  V30 2060 H 192.124 -3.3713 1.62156 0
M  V30 2061 H 193.457 -4.44408 2.11571 0
M  V30 2062 N 195.109 -0.891671 -1.2995 0
M  V30 2063 C 196.357 -0.512486 -1.95494 0
M  V30 2064 C 196.678 0.942776 -1.70695 0
M  V30 2065 O 195.948 1.66374 -1.03424 0
M  V30 2066 H 194.528 -0.186533 -0.723336 0
M  V30 2067 H 197.19 -1.13621 -1.58355 0
M  V30 2068 H 196.286 -0.688342 -3.04415 0
M  V30 2069 N 196.587 1.43421 -0.653314 0
M  V30 2070 C 197.864 1.95361 -0.0966581 0
M  V30 2071 C 198.244 1.59461 1.38331 0
M  V30 2072 O 197.592 0.879777 2.10884 0
M  V30 2073 C 197.802 3.47311 -0.342988 0
M  V30 2074 C 199.15 4.23875 -0.24798 0
M  V30 2075 O 200.174 3.55133 -0.275553 0
M  V30 2076 O 199.033 5.4623 -0.171771 0
M  V30 2077 H 196.127 0.826945 0.00956291 0
M  V30 2078 H 198.673 1.5336 -0.726558 0
M  V30 2079 H 197.445 3.66569 -1.36906 0
M  V30 2080 H 197.068 3.9631 0.319975 0
M  V30 2081 N 198.065 0.39524 1.52563 0
M  V30 2082 C 199.481 0.0454682 1.59535 0
M  V30 2083 C 199.681 -1.44056 1.4089 0
M  V30 2084 O 198.737 -2.20579 1.22888 0
M  V30 2085 C 200.05 0.527963 2.96029 0
M  V30 2086 C 201.598 0.484733 3.09224 0
M  V30 2087 C 202.073 0.943512 4.48176 0
M  V30 2088 N 203.564 0.899765 4.54377 0
M  V30 2089 C 204.299 1.22609 5.60138 0
M  V30 2090 N 203.795 1.62319 6.73516 0
M  V30 2091 N 205.588 1.14696 5.50274 0
M  V30 2092 H 197.739 1.36261 1.62931 0
M  V30 2093 H 200.002 0.558887 0.765735 0
M  V30 2094 H 199.708 1.56607 3.14908 0
M  V30 2095 H 199.582 -0.0698056 3.77135 0
M  V30 2096 H 201.969 -0.544298 2.90037 0
M  V30 2097 H 202.05 1.11838 2.30056 0
M  V30 2098 H 201.694 1.9708 4.68104 0
M  V30 2099 H 201.624 0.286817 5.25818 0
M  V30 2100 H 204.115 0.607632 3.72983 0
M  V30 2101 H 204.428 1.85567 7.5019 0
M  V30 2102 H 202.773 1.66211 6.74833 0
M  V30 2103 H 205.964 0.835701 4.6058 0
M  V30 2104 H 206.137 1.40459 6.32594 0
M  V30 2105 N 199.544 -1.57102 0.125237 0
M  V30 2106 C 200.79 -1.96488 -0.525753 0
M  V30 2107 C 201.145 -1.00786 -1.6389 0
M  V30 2108 O 200.438 -0.038979 -1.9156 0
M  V30 2109 C 200.632 -3.40096 -1.09862 0
M  V30 2110 C 200.461 -4.4968 -0.0425004 0
M  V30 2111 C 199.231 -5.03781 0.391463 0
M  V30 2112 C 201.429 -5.08936 0.740829 0
M  V30 2113 N 199.411 -5.96948 1.4327 0
M  V30 2114 C 200.782 -5.98105 1.6331 0
M  V30 2115 C 202.837 -4.91576 0.791029 0
M  V30 2116 C 201.54 -6.71774 2.57122 0
M  V30 2117 C 203.566 -5.6593 1.71688 0
M  V30 2118 C 202.928 -6.5479 2.59672 0
M  V30 2119 H 199.027 -0.765072 -0.161831 0
M  V30 2120 H 201.611 -1.93511 0.214801 0
M  V30 2121 H 199.782 -3.43707 -1.80887 0
M  V30 2122 H 201.514 -3.66591 -1.71444 0
M  V30 2123 H 198.269 -4.736 -0.00213584 0
M  V30 2124 H 198.693 -6.48236 1.95243 0
M  V30 2125 H 203.335 -4.22615 0.124915 0
M  V30 2126 H 201.053 -7.39977 3.24744 0
M  V30 2127 H 204.639 -5.54501 1.76125 0
M  V30 2128 H 203.519 -7.11316 3.30149 0
M  V30 2129 N 201.022 0.148545 -1.56898 0
M  V30 2130 C 202.268 0.862694 -1.83536 0
M  V30 2131 C 202.601 1.80889 -0.706604 0
M  V30 2132 O 201.876 1.92328 0.289885 0
M  V30 2133 C 202.159 1.63853 -3.20662 0
M  V30 2134 C 202.012 0.713925 -4.44098 0
M  V30 2135 C 203.331 2.60133 -3.54991 0
M  V30 2136 H 200.45 0.312179 -0.667618 0
M  V30 2137 H 203.092 0.127953 -1.89569 0
M  V30 2138 H 201.242 2.26489 -3.1565 0
M  V30 2139 H 202.914 0.098686 -4.61194 0
M  V30 2140 H 201.157 0.0234019 -4.33794 0
M  V30 2141 H 201.828 1.29278 -5.36648 0
M  V30 2142 H 204.304 2.07616 -3.60603 0
M  V30 2143 H 203.18 3.11468 -4.51972 0
M  V30 2144 H 203.441 3.41417 -2.80868 0
M  V30 2145 N 202.5 1.5196 0.417844 0
M  V30 2146 C 203.41 1.77554 1.53336 0
M  V30 2147 C 204.426 0.660655 1.6097 0
M  V30 2148 O 205.602 0.945099 1.77848 0
M  V30 2149 C 202.667 1.91291 2.89152 0
M  V30 2150 C 201.728 3.15183 2.91475 0
M  V30 2151 C 200.961 3.28256 4.20813 0
M  V30 2152 O 201.184 2.46798 5.14244 0
M  V30 2153 O 200.118 4.21356 4.29817 0
M  V30 2154 H 203.944 2.7222 1.34647 0
M  V30 2155 H 201.529 1.36698 0.602828 0
M  V30 2156 H 203.411 2.02199 3.69721 0
M  V30 2157 H 202.086 0.998129 3.07927 0
M  V30 2158 H 200.993 3.09739 2.09791 0
M  V30 2159 H 202.326 4.06414 2.77648 0
M  V30 2160 N 203.978 -0.674533 1.42435 0
M  V30 2161 C 204.941 -1.76986 1.45632 0
M  V30 2162 C 205.941 -1.5708 0.343871 0
M  V30 2163 O 207.131 -1.63367 0.604709 0
M  V30 2164 C 204.263 -3.15623 1.28822 0
M  V30 2165 H 205.456 -1.75539 2.43158 0
M  V30 2166 H 203.009 -0.884189 1.28887 0
M  V30 2167 H 203.744 -3.22696 0.322193 0
M  V30 2168 H 203.529 -3.31475 2.09444 0
M  V30 2169 H 205.019 -3.95537 1.33942 0
M  V30 2170 N 205.456 -1.28612 -0.910864 0
M  V30 2171 C 206.872 -1.06381 -1.18976 0
M  V30 2172 C 207.072 0.191998 -2.00583 0
M  V30 2173 O 206.128 0.892869 -2.36187 0
M  V30 2174 C 207.441 -2.31295 -1.92154 0
M  V30 2175 C 208.989 -2.36503 -2.05025 0
M  V30 2176 C 209.464 -3.61191 -2.81612 0
M  V30 2177 N 210.955 -3.61847 -2.89172 0
M  V30 2178 C 211.69 -4.55004 -3.4894 0
M  V30 2179 N 211.186 -5.58482 -4.09963 0
M  V30 2180 N 212.979 -4.42594 -3.46506 0
M  V30 2181 H 205.13 -2.09221 -0.366094 0
M  V30 2182 H 207.393 -0.921003 -0.224629 0
M  V30 2183 H 207.099 -3.228 -1.39618 0
M  V30 2184 H 206.973 -2.37934 -2.9269 0
M  V30 2185 H 209.36 -1.45494 -2.5674 0
M  V30 2186 H 209.441 -2.33857 -1.03657 0
M  V30 2187 H 209.085 -4.52545 -2.30576 0
M  V30 2188 H 209.015 -3.61092 -3.83302 0
M  V30 2189 H 211.506 -2.87022 -2.45819 0
M  V30 2190 H 211.819 -6.25704 -4.53557 0
M  V30 2191 H 210.164 -5.62305 -4.08459 0
M  V30 2192 H 213.355 -3.60953 -2.98045 0
M  V30 2193 H 213.528 -5.15381 -3.92793 0
M  V30 2194 N 206.934 1.1197 -1.10907 0
M  V30 2195 C 207.844 2.21433 -0.774896 0
M  V30 2196 C 208.86 1.72478 0.229657 0
M  V30 2197 O 210.036 2.01288 0.0672008 0
M  V30 2198 C 207.101 3.4602 -0.216986 0
M  V30 2199 C 206.162 4.09791 -1.27944 0
M  V30 2200 C 205.395 5.28431 -0.748055 0
M  V30 2201 O 205.618 5.68823 0.423833 0
M  V30 2202 O 204.552 5.82644 -1.51027 0
M  V30 2203 H 208.378 2.5242 -1.68873 0
M  V30 2204 H 205.963 1.20399 -0.884555 0
M  V30 2205 H 207.845 4.21304 0.090059 0
M  V30 2206 H 206.52 3.16698 0.669633 0
M  V30 2207 H 205.427 3.36265 -1.63941 0
M  V30 2208 H 206.76 4.4328 -2.13925 0
M  V30 2209 N 208.412 0.89855 1.29475 0
M  V30 2210 C 209.637 0.538561 2.00285 0
M  V30 2211 C 210.062 -0.869135 1.66816 0
M  V30 2212 O 209.42 -1.57831 0.892145 0
M  V30 2213 C 209.468 0.736475 3.52999 0
M  V30 2214 O 208.572 -0.211537 4.11857 0
M  V30 2215 H 207.913 0.210563 0.62973 0
M  V30 2216 H 210.443 1.20982 1.64998 0
M  V30 2217 H 210.453 0.640685 4.02938 0
M  V30 2218 H 209.128 1.76276 3.76696 0
M  V30 2219 H 207.705 -0.0682991 3.72837 0
M  V30 2220 N 209.89 -1.43072 0.660911 0
M  V30 2221 C 211.167 -1.95307 0.107017 0
M  V30 2222 C 211.547 -1.60192 -1.37484 0
M  V30 2223 O 210.895 -0.890949 -2.10415 0
M  V30 2224 C 211.105 -3.47124 0.361402 0
M  V30 2225 C 212.453 -4.23738 0.270455 0
M  V30 2226 O 213.477 -3.54981 0.294382 0
M  V30 2227 O 212.336 -5.46131 0.200737 0
M  V30 2228 H 209.43 -0.826984 -0.00517729 0
M  V30 2229 H 211.976 -1.52972 0.734681 0
M  V30 2230 H 210.748 -3.65837 1.38848 0
M  V30 2231 H 210.371 -3.96475 -0.298953 0
M  V30 2232 N 211.368 -0.403325 -1.52352 0
M  V30 2233 C 212.3 0.4603 -2.2453 0
M  V30 2234 C 213.313 1.01505 -1.27282 0
M  V30 2235 O 214.502 0.914982 -1.53266 0
M  V30 2236 C 211.602 1.65208 -2.95905 0
M  V30 2237 C 210.775 1.22224 -4.19976 0
M  V30 2238 C 209.834 2.28028 -4.74226 0
M  V30 2239 O 208.86 1.88857 -5.36956 0
M  V30 2240 N 210.062 3.6012 -4.55295 0
M  V30 2241 H 212.827 -0.158156 -2.99282 0
M  V30 2242 H 210.388 -0.230402 -1.60252 0
M  V30 2243 H 212.38 2.35541 -3.29093 0
M  V30 2244 H 210.95 2.17658 -2.24374 0
M  V30 2245 H 210.17 0.34725 -3.92668 0
M  V30 2246 H 211.458 0.911924 -5.00561 0
M  V30 2247 H 210.856 3.94698 -4.05253 0
M  V30 2248 H 209.413 4.26447 -4.92936 0
M  V30 2249 N 212.846 1.57033 -0.133567 0
M  V30 2250 C 213.778 2.13176 0.841944 0
M  V30 2251 C 214.791 1.07794 1.22001 0
M  V30 2252 O 215.98 1.35117 1.16643 0
M  V30 2253 C 213.08 2.62847 2.13926 0
M  V30 2254 C 212.253 3.92486 1.93064 0
M  V30 2255 C 211.312 4.27605 3.0666 0
M  V30 2256 O 210.338 4.96168 2.78937 0
M  V30 2257 N 211.54 3.861 4.33483 0
M  V30 2258 H 214.305 2.97503 0.362192 0
M  V30 2259 H 211.866 1.61821 0.05042 0
M  V30 2260 H 213.858 2.83363 2.88942 0
M  V30 2261 H 212.428 1.83319 2.53205 0
M  V30 2262 H 211.648 3.80732 1.02159 0
M  V30 2263 H 212.936 4.77225 1.76447 0
M  V30 2264 H 212.334 3.30828 4.58878 0
M  V30 2265 H 210.891 4.11694 5.05323 0
M  V30 2266 N 214.325 -0.140222 1.56975 0
M  V30 2267 C 215.288 -1.15689 1.97861 0
M  V30 2268 C 216.288 -1.3549 0.865974 0
M  V30 2269 O 217.478 -1.32367 1.13246 0
M  V30 2270 C 214.61 -2.51582 2.30042 0
M  V30 2271 H 215.803 -0.805971 2.88867 0
M  V30 2272 H 213.356 -0.383801 1.51515 0
M  V30 2273 H 214.091 -2.91632 1.41849 0
M  V30 2274 H 213.876 -2.38569 3.11171 0
M  V30 2275 H 215.366 -3.24792 2.62488 0
M  V30 2276 N 215.803 -1.52179 -0.40978 0
M  V30 2277 C 216.766 -1.74853 -1.48186 0
M  V30 2278 C 217.766 -0.618417 -1.48433 0
M  V30 2279 O 218.956 -0.886286 -1.49969 0
M  V30 2280 C 216.088 -1.8303 -2.87598 0
M  V30 2281 H 217.281 -2.70559 -1.29374 0
M  V30 2282 H 214.834 -1.42586 -0.640233 0
M  V30 2283 H 215.569 -0.89236 -3.11781 0
M  V30 2284 H 215.354 -2.65187 -2.88822 0
M  V30 2285 H 216.844 -2.02316 -3.65319 0
M  V30 2286 N 217.281 0.66697 -1.42791 0
M  V30 2287 C 218.228 1.7803 -1.4688 0
M  V30 2288 C 219.198 1.6299 -0.319919 0
M  V30 2289 O 220.383 1.83432 -0.525118 0
M  V30 2290 C 217.523 3.1611 -1.38451 0
M  V30 2291 C 216.636 3.42381 -2.63437 0
M  V30 2292 C 215.771 4.70232 -2.47094 0
M  V30 2293 C 214.81 4.89564 -3.67415 0
M  V30 2294 N 213.947 6.08661 -3.49966 0
M  V30 2295 H 218.787 1.7387 -2.42019 0
M  V30 2296 H 216.324 0.84868 -1.20149 0
M  V30 2297 H 218.282 3.95914 -1.31561 0
M  V30 2298 H 216.912 3.19374 -0.469033 0
M  V30 2299 H 215.964 2.56774 -2.80662 0
M  V30 2300 H 217.276 3.52557 -3.52853 0
M  V30 2301 H 216.43 5.5814 -2.37834 0
M  V30 2302 H 215.169 4.62353 -1.5518 0
M  V30 2303 H 214.174 4.00096 -3.77099 0
M  V30 2304 H 215.399 4.99282 -4.6032 0
M  V30 2305 H 213.345 6.0194 -2.60776 0
M  V30 2306 H 213.262 6.19733 -4.32975 0
M  V30 2307 H 214.53 6.99226 -3.44532 0
M  V30 2308 N 218.759 1.29093 0.90403 0
M  V30 2309 C 220.175 1.07011 1.1841 0
M  V30 2310 C 220.375 -0.181358 2.00682 0
M  V30 2311 O 219.431 -0.880331 2.36657 0
M  V30 2312 C 220.744 2.32311 1.90924 0
M  V30 2313 C 222.292 2.37587 2.03768 0
M  V30 2314 C 222.767 3.62679 2.79693 0
M  V30 2315 N 224.258 3.63376 2.87249 0
M  V30 2316 C 224.993 4.56848 3.46522 0
M  V30 2317 N 224.489 5.60648 4.06996 0
M  V30 2318 N 226.282 4.44426 3.44154 0
M  V30 2319 H 218.433 2.09412 0.354993 0
M  V30 2320 H 220.696 0.922181 0.219742 0
M  V30 2321 H 220.402 3.23536 1.37905 0
M  V30 2322 H 220.276 2.39483 2.91424 0
M  V30 2323 H 222.663 1.46853 2.55965 0
M  V30 2324 H 222.744 2.34403 1.02415 0
M  V30 2325 H 222.388 4.53762 2.28173 0
M  V30 2326 H 222.318 3.63119 3.81381 0
M  V30 2327 H 224.809 2.88321 2.44293 0
M  V30 2328 H 225.122 6.28101 4.50232 0
M  V30 2329 H 223.467 5.64463 4.05471 0
M  V30 2330 H 226.658 3.62529 2.96126 0
M  V30 2331 H 226.831 5.17457 3.90054 0
M  V30 2332 N 220.237 -1.11381 1.11499 0
M  V30 2333 C 221.483 -1.83597 0.875423 0
M  V30 2334 C 221.838 -1.83048 -0.592555 0
M  V30 2335 O 221.131 -1.27304 -1.43193 0
M  V30 2336 C 221.325 -3.30026 1.37177 0
M  V30 2337 C 221.154 -3.44837 2.88647 0
M  V30 2338 C 219.924 -3.57825 3.56776 0
M  V30 2339 C 222.122 -3.3907 3.86699 0
M  V30 2340 N 220.104 -3.61113 4.96458 0
M  V30 2341 C 221.475 -3.48986 5.12454 0
M  V30 2342 C 223.53 -3.22605 3.7925 0
M  V30 2343 C 222.233 -3.44135 6.31636 0
M  V30 2344 C 224.259 -3.19072 4.97943 0
M  V30 2345 C 223.621 -3.29559 6.22551 0
M  V30 2346 H 219.72 -0.687044 0.37349 0
M  V30 2347 H 222.304 -1.33265 1.41946 0
M  V30 2348 H 220.475 -3.78874 0.854919 0
M  V30 2349 H 222.207 -3.90153 1.07529 0
M  V30 2350 H 218.962 -3.60414 3.07244 0
M  V30 2351 H 219.386 -3.66394 5.69284 0
M  V30 2352 H 224.028 -3.13382 2.83816 0
M  V30 2353 H 221.746 -3.52126 7.27347 0
M  V30 2354 H 225.332 -3.07498 4.93899 0
M  V30 2355 H 224.212 -3.26815 7.12855 0
M  V30 2356 O 221.754 -1.0376 -1.23758 0
M  V30 2357 H 222.445 -0.707174 -1.8033 0
M  V30 END ATOM
M  V30 BEGIN BOND
M  V30 END BOND
M  V30 END CTAB
M  END
$$$$
