drugbank_target|P09769 Tyrosine-protein kinase Fgr (DB01254; DB12010; DB15035)
 OpenBabel12092121023D

  0  0  0     0  0            999 V3000
M  V30 BEGIN CTAB
M  V30 COUNTS 8274 8379 0 0 0
M  V30 BEGIN ATOM
M  V30 1 H -0.908 1.98254 -0.117106 0
M  V30 2 N 0 1.576 0 0
M  V30 3 C 0.933 2.03868 1.02534 0
M  V30 4 C 1.911 0.928543 1.3348 0
M  V30 5 O 3.095 1.19667 1.45644 0
M  V30 6 C 0.222 2.43627 2.35294 0
M  V30 7 C -0.732 3.65373 2.2001 0
M  V30 8 S 0.101 5.13292 1.52614 0
M  V30 9 C 1.257 5.56322 2.86805 0
M  V30 10 H 1.49 2.90518 0.631377 0
M  V30 11 H -0.977 1.52953 0.210867 0
M  V30 12 H 0.981 2.67203 3.11629 0
M  V30 13 H -0.358 1.57376 2.7183 0
M  V30 14 H -1.165 3.90944 3.18086 0
M  V30 15 H -1.563 3.418 1.51819 0
M  V30 16 H 0.729 5.58782 3.83104 0
M  V30 17 H 1.672 6.56266 2.65933 0
M  V30 18 H 2.08 4.83886 2.90714 0
M  V30 19 N 1.4781 -0.272755 1.55222 0
M  V30 20 C 2.7261 -1.00234 1.75492 0
M  V30 21 C 3.0471 -1.8681 0.5592 0
M  V30 22 O 2.3171 -1.91215 -0.425882 0
M  V30 23 H 0.8971 -0.373076 0.647166 0
M  V30 24 H 3.5591 -0.296926 1.92625 0
M  V30 25 H 2.6551 -1.63913 2.65592 0
M  V30 26 N 2.9562 -1.48159 -0.537278 0
M  V30 27 C 4.1962 -1.57397 -1.30405 0
M  V30 28 C 4.5602 -0.239202 -1.90504 0
M  V30 29 O 5.7612 -0.206528 -2.68005 0
M  V30 30 C 4.0322 -2.6754 -2.36974 0
M  V30 31 S 5.5912 -2.96496 -3.23475 0
M  V30 32 H 2.4092 -0.555577 -0.443684 0
M  V30 33 H 5.0112 -1.85644 -0.612912 0
M  V30 34 H 3.7152 -3.63092 -1.91291 0
M  V30 35 H 3.2462 -2.41172 -3.10805 0
M  V30 36 H 5.2612 -2.35234 -4.36897 0
M  V30 37 N 4.4343 0.785586 -1.36625 0
M  V30 38 C 5.6803 1.54591 -1.31261 0
M  V30 39 C 6.0133 1.93906 0.106823 0
M  V30 40 O 5.2883 1.63007 1.06108 0
M  V30 41 C 5.5713 2.82038 -2.23889 0
M  V30 42 C 5.4243 2.49066 -3.74548 0
M  V30 43 C 6.7433 3.83887 -2.15217 0
M  V30 44 H 3.8623 0.560846 -0.478143 0
M  V30 45 H 6.5043 0.902278 -1.67209 0
M  V30 46 H 4.6543 3.36961 -1.93363 0
M  V30 47 H 6.3263 2.00164 -4.15611 0
M  V30 48 H 4.5693 1.81954 -3.93796 0
M  V30 49 H 5.2403 3.40109 -4.34776 0
M  V30 50 H 7.7163 3.38421 -2.42096 0
M  V30 51 H 6.5923 4.70806 -2.82193 0
M  V30 52 H 6.8533 4.27131 -1.14068 0
M  V30 53 N 5.9124 1.20967 1.01018 0
M  V30 54 C 7.1594 1.02374 1.74716 0
M  V30 55 C 7.4874 -0.443375 1.89379 0
M  V30 56 O 6.7424 -1.34535 1.42123 0
M  V30 57 C 7.0414 1.65997 3.16512 0
M  V30 58 C 6.7074 3.15831 3.2181 0
M  V30 59 C 5.3694 3.56719 3.22963 0
M  V30 60 C 7.7214 4.11816 3.19464 0
M  V30 61 C 5.0494 4.92107 3.19449 0
M  V30 62 C 7.4014 5.47158 3.17491 0
M  V30 63 C 6.0654 5.87451 3.16951 0
M  V30 64 H 5.3354 0.374614 0.639332 0
M  V30 65 H 7.9824 1.50485 1.18434 0
M  V30 66 H 6.2874 1.10166 3.75993 0
M  V30 67 H 7.9844 1.49119 3.72242 0
M  V30 68 H 4.5744 2.83263 3.21652 0
M  V30 69 H 8.7584 3.81257 3.17737 0
M  V30 70 H 4.0144 5.22579 3.17366 0
M  V30 71 H 8.1884 6.21274 3.14629 0
M  V30 72 H 5.8154 6.92329 3.13983 0
M  V30 73 N 7.3905 -1.2043 1.01659 0
M  V30 74 C 8.6305 -1.91507 0.714456 0
M  V30 75 C 8.9945 -1.77073 -0.742237 0
M  V30 76 O 10.1955 -2.42631 -1.15688 0
M  V30 77 C 8.4665 -3.38795 1.13809 0
M  V30 78 S 10.0255 -4.28216 0.957925 0
M  V30 79 H 6.8435 -0.661571 0.260471 0
M  V30 80 H 9.4455 -1.45671 1.30384 0
M  V30 81 H 8.1495 -3.46822 2.19415 0
M  V30 82 H 7.6805 -3.89656 0.541474 0
M  V30 83 H 9.6955 -4.96007 -0.138531 0
M  V30 84 N 8.8686 -0.792821 -1.36206 0
M  V30 85 C 9.8156 -0.191653 -2.30003 0
M  V30 86 C 10.7856 0.666453 -1.52143 0
M  V30 87 O 11.9706 0.61442 -1.80636 0
M  V30 88 C 9.1106 0.664848 -3.38635 0
M  V30 89 C 8.2236 -0.212175 -4.31479 0
M  V30 90 C 7.3586 0.651022 -5.27196 0
M  V30 91 C 6.3976 -0.227247 -6.11678 0
M  V30 92 N 5.5346 0.595127 -6.99573 0
M  V30 93 H 10.3746 -0.996978 -2.80828 0
M  V30 94 H 7.9116 -0.503206 -1.38225 0
M  V30 95 H 9.8696 1.17645 -4.00269 0
M  V30 96 H 8.4996 1.43557 -2.89122 0
M  V30 97 H 7.5516 -0.841777 -3.70969 0
M  V30 98 H 8.8636 -0.888751 -4.90818 0
M  V30 99 H 8.0176 1.2283 -5.94136 0
M  V30 100 H 6.7566 1.36121 -4.68319 0
M  V30 101 H 5.7616 -0.816904 -5.43697 0
M  V30 102 H 6.9866 -0.93509 -6.72631 0
M  V30 103 H 4.9326 1.28955 -6.432 0
M  V30 104 H 4.8496 -0.0236952 -7.55996 0
M  V30 105 H 6.1176 1.15613 -7.70879 0
M  V30 106 N 10.3467 1.47872 -0.545128 0
M  V30 107 C 11.2937 2.29849 0.2093 0
M  V30 108 C 12.2637 1.38313 0.919707 0
M  V30 109 O 13.4487 1.67277 0.917772 0
M  V30 110 C 10.5887 3.22019 1.24088 0
M  V30 111 C 9.7017 4.2864 0.537778 0
M  V30 112 C 8.8367 5.07973 1.5536 0
M  V30 113 C 7.8757 6.06381 0.8348 0
M  V30 114 N 7.0127 6.78717 1.79688 0
M  V30 115 H 11.8527 2.93845 -0.49591 0
M  V30 116 H 9.3897 1.44848 -0.256389 0
M  V30 117 H 11.3477 3.73868 1.85144 0
M  V30 118 H 9.9777 2.59914 1.91428 0
M  V30 119 H 9.0297 3.7994 -0.187046 0
M  V30 120 H 10.3417 4.98793 -0.0258907 0
M  V30 121 H 9.4957 5.63912 2.23803 0
M  V30 122 H 8.2347 4.37693 2.15118 0
M  V30 123 H 7.2397 5.49631 0.136388 0
M  V30 124 H 8.4647 6.78665 0.24313 0
M  V30 125 H 6.4107 6.11177 2.38326 0
M  V30 126 H 6.3277 7.44998 1.28505 0
M  V30 127 H 7.5957 7.39237 2.47282 0
M  V30 128 N 11.8248 0.280983 1.55075 0
M  V30 129 C 12.7548 -0.597469 2.25727 0
M  V30 130 C 13.7358 -1.15417 1.24952 0
M  V30 131 O 14.9208 -1.18722 1.53684 0
M  V30 132 C 12.0508 -1.7789 2.98283 0
M  V30 133 C 11.0048 -1.35347 4.06036 0
M  V30 134 C 10.3308 -2.61846 4.66198 0
M  V30 135 C 11.6308 -0.499354 5.19907 0
M  V30 136 H 13.3248 -0.00824265 2.99399 0
M  V30 137 H 10.8708 -0.0025244 1.44 0
M  V30 138 H 12.8238 -2.39937 3.46422 0
M  V30 139 H 11.5478 -2.39405 2.22155 0
M  V30 140 H 10.2068 -0.756156 3.58717 0
M  V30 141 H 9.8548 -3.21632 3.86732 0
M  V30 142 H 9.5548 -2.3409 5.38958 0
M  V30 143 H 11.0788 -3.24732 5.1709 0
M  V30 144 H 12.4928 -1.02498 5.64063 0
M  V30 145 H 10.8898 -0.316424 5.99265 0
M  V30 146 H 11.9598 0.480459 4.82514 0
M  V30 147 N 13.3029 -1.57598 0.00835791 0
M  V30 148 C 14.2129 -2.12385 -0.996487 0
M  V30 149 C 15.2289 -1.07108 -1.37127 0
M  V30 150 O 16.4049 -1.39055 -1.4569 0
M  V30 151 C 13.4699 -2.62314 -2.26699 0
M  V30 152 C 12.5309 -3.82225 -1.95456 0
M  V30 153 C 11.7639 -4.29763 -3.16449 0
M  V30 154 O 11.9869 -3.76584 -4.28416 0
M  V30 155 O 10.9209 -5.21832 -2.99958 0
M  V30 156 H 14.7469 -2.98479 -0.560725 0
M  V30 157 H 12.3319 -1.47903 -0.210987 0
M  V30 158 H 14.2139 -2.94589 -3.01322 0
M  V30 159 H 12.8889 -1.79313 -2.69497 0
M  V30 160 H 11.7959 -3.54909 -1.18282 0
M  V30 161 H 13.1289 -4.66324 -1.57489 0
M  V30 162 N 14.781 0.264519 -1.55364 0
M  V30 163 C 16.192 0.834936 -1.6699 0
M  V30 164 C 16.543 1.86718 -0.602552 0
M  V30 165 O 15.668 2.14899 0.254425 0
M  V30 166 C 16.263 1.5212 -3.02729 0
M  V30 167 C 14.822 2.03954 -3.16354 0
M  V30 168 C 13.969 0.884498 -2.62815 0
M  V30 169 H 16.92 0.0406869 -1.58648 0
M  V30 170 H 16.941 2.38853 -2.96191 0
M  V30 171 H 16.453 0.769668 -3.80392 0
M  V30 172 H 14.554 2.82041 -2.43482 0
M  V30 173 H 14.667 2.24902 -4.23032 0
M  V30 174 H 13.031 1.2802 -2.20188 0
M  V30 175 H 13.814 0.14634 -3.42988 0
M  V30 176 N 16.2591 1.48442 0.529413 0
M  V30 177 C 17.5051 1.5672 1.28711 0
M  V30 178 C 17.8381 0.2406 1.92704 0
M  V30 179 O 17.1131 -0.753454 1.79313 0
M  V30 180 C 17.3961 2.70587 2.37603 0
M  V30 181 C 17.2491 4.12953 1.78297 0
M  V30 182 C 18.5681 2.80212 3.39366 0
M  V30 183 H 15.6871 0.570474 0.466613 0
M  V30 184 H 18.3291 1.80617 0.589706 0
M  V30 185 H 16.4791 2.50342 2.97088 0
M  V30 186 H 18.1511 4.44639 1.22858 0
M  V30 187 H 16.3941 4.19927 1.0883 0
M  V30 188 H 17.0651 4.88448 2.57144 0
M  V30 189 H 19.5411 2.98553 2.89836 0
M  V30 190 H 18.4171 3.61611 4.12951 0
M  V30 191 H 18.6781 1.88393 3.99951 0
M  V30 192 N 17.7372 -0.778329 1.37039 0
M  V30 193 C 18.7002 -1.87301 1.32102 0
M  V30 194 C 19.7002 -1.59198 0.226405 0
M  V30 195 O 20.8902 -1.67403 0.481861 0
M  V30 196 C 18.0222 -3.24309 1.05055 0
M  V30 197 H 19.2152 -1.93093 2.29467 0
M  V30 198 H 16.7682 -0.977358 1.21973 0
M  V30 199 H 17.5032 -3.24196 0.0819373 0
M  V30 200 H 17.2882 -3.46098 1.84279 0
M  V30 201 H 18.7782 -4.04382 1.04234 0
M  V30 202 N 19.2153 -1.21501 -1.00376 0
M  V30 203 C 20.4433 -1.059 -1.77744 0
M  V30 204 C 20.8583 0.391125 -1.84704 0
M  V30 205 O 20.2153 1.27133 -1.30933 0
M  V30 206 C 20.2663 -1.65111 -3.21591 0
M  V30 207 O 19.9873 -3.0445 -3.15027 0
M  V30 208 C 21.4883 -1.54637 -4.15454 0
M  V30 209 H 18.7083 -0.371825 -0.558558 0
M  V30 210 H 21.2523 -1.60865 -1.26264 0
M  V30 211 H 19.4073 -1.14235 -3.70175 0
M  V30 212 H 19.8213 -3.3278 -4.0541 0
M  V30 213 H 21.2953 -2.00808 -5.14179 0
M  V30 214 H 21.7723 -0.501022 -4.36333 0
M  V30 215 H 22.3783 -2.04767 -3.72761 0
M  V30 216 N 20.6934 1.19889 -1.02296 0
M  V30 217 C 21.6564 2.21116 -0.603351 0
M  V30 218 C 22.6564 1.5738 0.329884 0
M  V30 219 O 23.8464 1.73802 0.117702 0
M  V30 220 C 20.9784 3.40696 0.117992 0
M  V30 221 H 22.1714 2.59754 -1.49893 0
M  V30 222 H 19.7244 1.33463 -0.813468 0
M  V30 223 H 20.4594 3.07569 1.0282 0
M  V30 224 H 20.2444 3.88188 -0.552511 0
M  V30 225 H 21.7344 4.15692 0.398696 0
M  V30 226 N 22.1715 0.800033 1.35784 0
M  V30 227 C 23.1185 0.203848 2.29898 0
M  V30 228 C 24.0885 -0.658375 1.52495 0
M  V30 229 O 25.2735 -0.604832 1.8096 0
M  V30 230 C 22.4135 -0.64688 3.38983 0
M  V30 231 C 21.5265 0.235054 4.3136 0
M  V30 232 C 20.6615 -0.623054 5.27533 0
M  V30 233 C 19.7005 0.259682 6.11549 0
M  V30 234 N 18.8375 -0.558019 6.99879 0
M  V30 235 H 23.6775 1.01186 2.80295 0
M  V30 236 H 21.2145 0.51053 1.37957 0
M  V30 237 H 23.1725 -1.15521 4.00887 0
M  V30 238 H 21.8025 -1.42021 2.89879 0
M  V30 239 H 20.8545 0.861438 3.70518 0
M  V30 240 H 22.1665 0.914768 4.9034 0
M  V30 241 H 21.3205 -1.19678 5.94779 0
M  V30 242 H 20.0595 -1.33636 4.69034 0
M  V30 243 H 19.0645 0.845726 5.43256 0
M  V30 244 H 20.2895 0.970748 6.72126 0
M  V30 245 H 18.2355 -1.25542 6.43875 0
M  V30 246 H 18.1525 0.0637872 7.55973 0
M  V30 247 H 19.4205 -1.11523 7.71481 0
M  V30 248 N 23.6496 -1.47581 0.552962 0
M  V30 249 C 24.5596 -2.33743 -0.200353 0
M  V30 250 C 25.5756 -1.47928 -0.916151 0
M  V30 251 O 26.7516 -1.80865 -0.885993 0
M  V30 252 C 23.8166 -3.24536 -1.21973 0
M  V30 253 C 22.8776 -4.26238 -0.511819 0
M  V30 254 C 22.1106 -5.12693 -1.48263 0
M  V30 255 O 22.3336 -5.01525 -2.71714 0
M  V30 256 O 21.2676 -5.93375 -1.00945 0
M  V30 257 H 25.0936 -2.9945 0.506304 0
M  V30 258 H 22.6786 -1.46071 0.313622 0
M  V30 259 H 24.5606 -3.80631 -1.80827 0
M  V30 260 H 23.2356 -2.61462 -1.90839 0
M  V30 261 H 22.1426 -3.73914 0.117799 0
M  V30 262 H 23.4756 -4.92014 0.135308 0
M  V30 263 N 25.1277 -0.289203 -1.54924 0
M  V30 264 C 26.4047 0.376032 -1.91951 0
M  V30 265 C 26.7847 1.72622 -1.21511 0
M  V30 266 O 26.1327 2.25853 -0.346767 0
M  V30 267 C 26.3427 0.502378 -3.45365 0
M  V30 268 C 27.6907 0.778741 -4.17398 0
M  V30 269 O 28.7147 0.586647 -3.51336 0
M  V30 270 O 27.5737 1.14698 -5.34328 0
M  V30 271 H 24.6677 0.208167 -0.800372 0
M  V30 272 H 27.2137 -0.336394 -1.66332 0
M  V30 273 H 25.9857 -0.447255 -3.88736 0
M  V30 274 H 25.6087 1.26373 -3.76982 0
M  V30 275 N 26.6058 1.57591 -0.0167156 0
M  V30 276 C 27.5688 2.08393 0.954204 0
M  V30 277 C 28.5688 0.996531 1.26198 0
M  V30 278 O 29.7588 1.25858 1.20438 0
M  V30 279 C 26.8908 2.5394 2.27436 0
M  V30 280 H 28.0838 2.95455 0.514451 0
M  V30 281 H 25.6368 1.54582 0.231089 0
M  V30 282 H 26.3718 1.70171 2.76066 0
M  V30 283 H 26.1568 3.33371 2.06412 0
M  V30 284 H 27.6468 2.93512 2.97053 0
M  V30 285 N 28.0839 -0.256276 1.55502 0
M  V30 286 C 29.3319 -0.983672 1.76545 0
M  V30 287 C 29.6529 -1.86206 0.578982 0
M  V30 288 O 28.9229 -1.91656 -0.405577 0
M  V30 289 H 27.5029 -0.366191 0.651086 0
M  V30 290 H 30.1649 -0.276479 1.92929 0
M  V30 291 H 29.2609 -1.61087 2.67315 0
M  V30 292 N 29.562 -1.4872 -0.521534 0
M  V30 293 C 30.492 -1.66771 -1.63431 0
M  V30 294 C 31.473 -0.516499 -1.62069 0
M  V30 295 O 32.658 -0.750013 -1.79132 0
M  V30 296 C 29.788 -1.71515 -3.01993 0
M  V30 297 C 28.742 -2.86222 -3.18216 0
M  V30 298 C 28.068 -2.76061 -4.57924 0
M  V30 299 C 29.368 -4.27419 -3.00184 0
M  V30 300 H 31.062 -2.59932 -1.48579 0
M  V30 301 H 28.608 -1.25089 -0.713358 0
M  V30 302 H 30.561 -1.82731 -3.7972 0
M  V30 303 H 29.285 -0.749393 -3.17886 0
M  V30 304 H 27.944 -2.74575 -2.42908 0
M  V30 305 H 27.592 -1.77437 -4.70665 0
M  V30 306 H 27.292 -3.53037 -4.69722 0
M  V30 307 H 28.816 -2.89256 -5.37739 0
M  V30 308 H 30.23 -4.39855 -3.67697 0
M  V30 309 H 28.627 -5.05458 -3.2347 0
M  V30 310 H 29.697 -4.43293 -1.96518 0
M  V30 311 N 31.0401 0.771051 -1.3745 0
M  V30 312 C 31.9501 1.91538 -1.35464 0
M  V30 313 C 32.9661 1.72134 -0.254123 0
M  V30 314 O 34.1421 1.95358 -0.489626 0
M  V30 315 C 31.2071 3.26671 -1.16134 0
M  V30 316 C 30.2681 3.58723 -2.35831 0
M  V30 317 C 29.5011 4.87409 -2.17413 0
M  V30 318 O 29.7241 5.58506 -1.15876 0
M  V30 319 O 28.6581 5.18539 -3.05615 0
M  V30 320 H 32.4841 1.96165 -2.31847 0
M  V30 321 H 30.0691 0.9139 -1.18187 0
M  V30 322 H 31.9511 4.07499 -1.07345 0
M  V30 323 H 30.6261 3.22894 -0.228251 0
M  V30 324 H 29.5331 2.78127 -2.50192 0
M  V30 325 H 30.8661 3.67243 -3.27709 0
M  V30 326 N 32.5182 1.22032 0.997298 0
M  V30 327 C 33.7662 1.04016 1.73278 0
M  V30 328 C 34.0872 -0.426255 1.90284 0
M  V30 329 O 33.3572 -1.30694 1.45931 0
M  V30 330 H 31.9372 0.381897 0.642 0
M  V30 331 H 34.5992 1.5347 1.20137 0
M  V30 332 H 33.6952 1.51441 2.72896 0
M  V30 333 N 33.9963 -1.19345 1.0293 0
M  V30 334 C 35.2733 -1.84811 0.640642 0
M  V30 335 C 35.6533 -1.91855 -0.88062 0
M  V30 336 O 35.0013 -1.43587 -1.7775 0
M  V30 337 C 35.2113 -3.23755 1.30321 0
M  V30 338 C 36.5593 -3.99912 1.42673 0
M  V30 339 O 37.5833 -3.33155 1.26041 0
M  V30 340 O 36.4423 -5.19494 1.6967 0
M  V30 341 H 33.5363 -0.796443 0.222726 0
M  V30 342 H 36.0823 -1.26831 1.12748 0
M  V30 343 H 34.8543 -3.13466 2.34211 0
M  V30 344 H 34.4773 -3.89381 0.804261 0
M  V30 345 N 35.4744 -0.807222 -1.35358 0
M  V30 346 C 36.7214 -0.387888 -1.9875 0
M  V30 347 C 37.0494 1.04509 -1.64037 0
M  V30 348 O 36.3044 1.73986 -0.895946 0
M  V30 349 C 36.6034 -0.519036 -3.53611 0
M  V30 350 C 36.2694 -1.91542 -4.08194 0
M  V30 351 C 34.9314 -2.29745 -4.22813 0
M  V30 352 C 37.2834 -2.82896 -4.37744 0
M  V30 353 C 34.6114 -3.58668 -4.643 0
M  V30 354 C 36.9634 -4.11265 -4.8067 0
M  V30 355 C 35.6274 -4.49466 -4.93494 0
M  V30 356 H 34.8974 -0.141938 -0.727279 0
M  V30 357 H 37.5444 -1.02814 -1.6156 0
M  V30 358 H 35.8494 0.204658 -3.91265 0
M  V30 359 H 37.5464 -0.175345 -4.00616 0
M  V30 360 H 34.1364 -1.60862 -3.97268 0
M  V30 361 H 38.3204 -2.54629 -4.26002 0
M  V30 362 H 33.5764 -3.88113 -4.72418 0
M  V30 363 H 37.7504 -4.82153 -5.02496 0
M  V30 364 H 35.3774 -5.49418 -5.25399 0
M  V30 365 N 36.9525 1.47285 -0.560781 0
M  V30 366 C 38.3685 1.58065 -0.22081 0
M  V30 367 C 38.5685 1.55892 1.27671 0
M  V30 368 O 37.6245 1.46422 2.0571 0
M  V30 369 C 38.9375 2.88418 -0.850625 0
M  V30 370 C 40.4855 3.02009 -0.822184 0
M  V30 371 C 40.9605 4.35066 -1.43113 0
M  V30 372 N 42.4515 4.41711 -1.39448 0
M  V30 373 C 43.1865 5.43237 -1.83525 0
M  V30 374 N 42.6825 6.51555 -2.35474 0
M  V30 375 N 44.4755 5.34304 -1.74574 0
M  V30 376 H 36.6265 1.46941 -1.53369 0
M  V30 377 H 38.8895 0.699558 -0.639783 0
M  V30 378 H 38.5955 2.95755 -1.9032 0
M  V30 379 H 38.4695 3.75612 -0.345773 0
M  V30 380 H 40.8565 2.94266 0.221714 0
M  V30 381 H 40.9375 2.16347 -1.36483 0
M  V30 382 H 40.5815 4.43565 -2.47412 0
M  V30 383 H 40.5115 5.19465 -0.863899 0
M  V30 384 H 43.0025 3.64027 -1.01452 0
M  V30 385 H 43.3155 7.25203 -2.67021 0
M  V30 386 H 41.6605 6.52435 -2.39487 0
M  V30 387 H 44.8515 4.48581 -1.33763 0
M  V30 388 H 45.0245 6.13288 -2.09242 0
M  V30 389 N 38.4306 0.297415 1.54768 0
M  V30 390 C 39.6556 -0.318435 2.04941 0
M  V30 391 C 40.0806 -1.4701 1.17345 0
M  V30 392 O 39.4386 -1.80436 0.176758 0
M  V30 393 C 39.4866 -0.755749 3.52592 0
M  V30 394 O 38.5906 -1.86088 3.68028 0
M  V30 395 H 37.9316 -0.062421 0.661059 0
M  V30 396 H 40.4616 0.438215 1.99852 0
M  V30 397 H 40.4716 -1.04552 3.94376 0
M  V30 398 H 39.1466 0.0867233 4.1581 0
M  V30 399 H 37.7236 -1.57193 3.38149 0
M  V30 400 N 39.9087 -1.5758 0.0250728 0
M  V30 401 C 41.1387 -1.95646 -0.663783 0
M  V30 402 C 41.5467 -0.899935 -1.66427 0
M  V30 403 O 40.8897 0.127191 -1.83259 0
M  V30 404 C 40.9517 -3.29835 -1.43 0
M  V30 405 C 40.6157 -4.53197 -0.588305 0
M  V30 406 C 41.6127 -5.19726 0.13469 0
M  V30 407 C 39.2977 -4.99529 -0.526897 0
M  V30 408 C 41.2917 -6.30902 0.90781 0
M  V30 409 C 38.9787 -6.10589 0.24993 0
M  V30 410 C 39.9767 -6.76134 0.965994 0
M  V30 411 O 39.6647 -7.85062 1.7301 0
M  V30 412 H 39.3967 -0.649282 -0.188174 0
M  V30 413 H 41.9507 -2.05245 0.0799006 0
M  V30 414 H 40.1807 -3.16716 -2.21873 0
M  V30 415 H 41.8697 -3.52833 -2.00658 0
M  V30 416 H 42.6357 -4.84904 0.0965562 0
M  V30 417 H 38.5147 -4.48319 -1.07381 0
M  V30 418 H 42.0587 -6.81995 1.46724 0
M  V30 419 H 37.9557 -6.44849 0.289795 0
M  V30 420 H 38.7237 -8.01708 1.64944 0
M  V30 421 N 41.3868 0.248026 -1.55636 0
M  V30 422 C 42.6348 0.974295 -1.77065 0
M  V30 423 C 42.9558 1.85897 -0.588849 0
M  V30 424 O 42.2258 1.91868 0.395407 0
M  V30 425 H 40.8058 0.362733 -0.653019 0
M  V30 426 H 43.4678 0.266244 -1.93073 0
M  V30 427 H 42.5638 1.59667 -2.68166 0
M  V30 428 N 42.8649 1.48995 0.513639 0
M  V30 429 C 43.8279 1.64229 1.59879 0
M  V30 430 C 44.8279 0.514696 1.5234 0
M  V30 431 O 46.0179 0.78087 1.55718 0
M  V30 432 C 43.1499 1.62783 2.99524 0
M  V30 433 H 44.3429 2.61004 1.47705 0
M  V30 434 H 41.8959 1.37837 0.736936 0
M  V30 435 H 42.6309 0.675461 3.17188 0
M  V30 436 H 42.4159 2.4466 3.06404 0
M  V30 437 H 43.9059 1.76669 3.78388 0
M  V30 438 N 44.343 -0.763751 1.37857 0
M  V30 439 C 45.306 -1.85889 1.34081 0
M  V30 440 C 46.306 -1.58949 0.243277 0
M  V30 441 O 47.496 -1.66882 0.499589 0
M  V30 442 C 44.628 -3.23176 1.08489 0
M  V30 443 H 45.821 -1.90648 2.31502 0
M  V30 444 H 43.374 -0.964367 1.23003 0
M  V30 445 H 44.109 -3.24091 0.116318 0
M  V30 446 H 43.894 -3.44124 1.8794 0
M  V30 447 H 45.384 -4.03254 1.08517 0
M  V30 448 N 45.8211 -1.22559 -0.990812 0
M  V30 449 C 47.0981 -0.959875 -1.70428 0
M  V30 450 C 47.4781 0.524455 -2.04481 0
M  V30 451 O 46.8261 1.49302 -1.72977 0
M  V30 452 C 47.0361 -1.85955 -2.95333 0
M  V30 453 C 48.3841 -2.11687 -3.68068 0
M  V30 454 O 49.4081 -1.8342 -3.05345 0
M  V30 455 O 48.2671 -2.59572 -4.80921 0
M  V30 456 H 45.3611 -0.361154 -0.743974 0
M  V30 457 H 47.9071 -1.33554 -1.04697 0
M  V30 458 H 46.6791 -2.86346 -2.66687 0
M  V30 459 H 46.3021 -1.4856 -3.68803 0
M  V30 460 N 47.2992 1.18797 -1.03562 0
M  V30 461 C 48.2492 2.20161 -0.592724 0
M  V30 462 C 49.2332 1.56772 0.362133 0
M  V30 463 O 50.4252 1.76062 0.182009 0
M  V30 464 C 47.5542 3.43266 0.0481024 0
M  V30 465 C 46.6402 4.13786 -0.9296 0
M  V30 466 N 47.0312 4.60388 -2.09467 0
M  V30 467 C 45.3292 4.39572 -0.754499 0
M  V30 468 C 46.0302 5.14619 -2.71187 0
M  V30 469 N 45.0062 5.05826 -1.991 0
M  V30 470 H 48.8082 2.53877 -1.48066 0
M  V30 471 H 46.3222 1.34946 -0.903514 0
M  V30 472 H 48.3192 4.15136 0.383058 0
M  V30 473 H 46.9792 3.11048 0.931636 0
M  V30 474 H 47.9902 4.54999 -2.47379 0
M  V30 475 H 44.6672 4.17425 0.0793713 0
M  V30 476 H 46.0572 5.60917 -3.69895 0
M  V30 477 N 48.7773 0.814389 1.34928 0
M  V30 478 C 50.0073 0.41054 2.0248 0
M  V30 479 C 50.4153 -0.985625 1.61499 0
M  V30 480 O 49.7583 -1.64781 0.811976 0
M  V30 481 C 49.8203 0.423384 3.56998 0
M  V30 482 C 49.4843 1.77141 4.21272 0
M  V30 483 C 50.4813 2.73093 4.42398 0
M  V30 484 C 48.1663 2.05755 4.58225 0
M  V30 485 C 50.1603 3.95838 4.9959 0
M  V30 486 C 47.8473 3.28762 5.1513 0
M  V30 487 C 48.8453 4.23621 5.35755 0
M  V30 488 O 48.5333 5.44456 5.91458 0
M  V30 489 H 48.2653 0.163997 0.655806 0
M  V30 490 H 50.8193 1.10155 1.73364 0
M  V30 491 H 49.0493 -0.324276 3.85338 0
M  V30 492 H 50.7383 0.0407683 4.0588 0
M  V30 493 H 51.5043 2.5228 4.14222 0
M  V30 494 H 47.3833 1.32727 4.4148 0
M  V30 495 H 50.9273 4.69891 5.15605 0
M  V30 496 H 46.8243 3.49443 5.42734 0
M  V30 497 H 47.5923 5.4586 6.09901 0
M  V30 498 N 50.2554 -1.46986 0.568584 0
M  V30 499 C 51.5034 -2.02041 0.0487022 0
M  V30 500 C 51.8244 -1.44408 -1.31039 0
M  V30 501 O 51.0944 -0.623477 -1.85714 0
M  V30 502 H 49.6744 -0.746849 0.015014 0
M  V30 503 H 52.3364 -1.80257 0.741168 0
M  V30 504 H 51.4324 -3.12085 -0.0308961 0
M  V30 505 N 51.7335 -0.305618 -1.54608 0
M  V30 506 C 53.1445 0.186098 -1.8577 0
M  V30 507 C 53.4955 1.53058 -1.22751 0
M  V30 508 O 52.6205 2.09888 -0.526893 0
M  V30 509 C 53.2155 0.344449 -3.37044 0
M  V30 510 C 51.7745 0.780384 -3.68221 0
M  V30 511 C 50.9215 -0.108554 -2.77087 0
M  V30 512 H 53.8725 -0.526485 -1.49712 0
M  V30 513 H 53.8935 1.17828 -3.61796 0
M  V30 514 H 53.4055 -0.634235 -3.82883 0
M  V30 515 H 51.5065 1.76945 -3.27904 0
M  V30 516 H 51.6195 0.596572 -4.75371 0
M  V30 517 H 49.9835 0.412931 -2.5133 0
M  V30 518 H 50.7665 -1.08368 -3.25747 0
M  V30 519 N 53.2116 1.57565 -0.0334293 0
M  V30 520 C 54.4886 1.83282 0.683163 0
M  V30 521 C 54.8686 0.91823 1.90084 0
M  V30 522 O 54.2166 -0.025113 2.28486 0
M  V30 523 C 54.4266 3.32599 1.0573 0
M  V30 524 C 55.7746 3.99179 1.44711 0
M  V30 525 O 56.7986 3.3712 1.15015 0
M  V30 526 O 55.6576 5.08565 2.0006 0
M  V30 527 H 52.7516 0.755869 0.335546 0
M  V30 528 H 55.2976 1.69589 -0.0614402 0
M  V30 529 H 54.0696 3.90834 0.190828 0
M  V30 530 H 53.6926 3.51415 1.85993 0
M  V30 531 N 54.6897 -0.239769 1.55765 0
M  V30 532 C 56.1007 -0.808263 1.68297 0
M  V30 533 C 56.4517 -1.85736 0.632181 0
M  V30 534 O 55.5767 -2.15277 -0.220204 0
M  V30 535 C 56.1717 -1.47284 3.05111 0
M  V30 536 C 54.7307 -1.98895 3.19559 0
M  V30 537 C 53.8777 -0.842575 2.64189 0
M  V30 538 H 56.8287 -0.0154422 1.58692 0
M  V30 539 H 56.8497 -2.34111 2.99954 0
M  V30 540 H 56.3617 -0.709053 3.81568 0
M  V30 541 H 54.4627 -2.78132 2.47938 0
M  V30 542 H 54.5757 -2.18143 4.26556 0
M  V30 543 H 52.9397 -1.24501 2.22197 0
M  V30 544 H 53.7227 -0.0917552 3.43177 0
M  V30 545 N 56.1678 -1.49265 -0.50573 0
M  V30 546 C 57.3958 -1.62215 -1.28429 0
M  V30 547 C 57.8108 -0.291697 -1.86533 0
M  V30 548 O 57.1678 0.722233 -1.67601 0
M  V30 549 C 57.2188 -2.68735 -2.41793 0
M  V30 550 O 56.9398 -3.96619 -1.86078 0
M  V30 551 C 58.4408 -2.92346 -3.3324 0
M  V30 552 H 55.6608 -0.546239 -0.389697 0
M  V30 553 H 58.2048 -1.95265 -0.607609 0
M  V30 554 H 56.3598 -2.38476 -3.053 0
M  V30 555 H 56.7738 -4.55256 -2.60465 0
M  V30 556 H 58.2478 -3.70623 -4.09075 0
M  V30 557 H 58.7248 -2.02081 -3.89948 0
M  V30 558 H 59.3308 -3.24003 -2.75503 0
M  V30 559 N 57.6459 0.756429 -1.3826 0
M  V30 560 C 58.5929 1.87011 -1.35261 0
M  V30 561 C 59.5629 1.64695 -0.215616 0
M  V30 562 O 60.7479 1.864 -0.407399 0
M  V30 563 C 57.8879 3.24275 -1.18068 0
M  V30 564 C 57.0009 3.58442 -2.41129 0
M  V30 565 C 56.1359 4.84994 -2.16689 0
M  V30 566 C 55.1749 5.11939 -3.35537 0
M  V30 567 N 54.3119 6.29685 -3.10549 0
M  V30 568 H 59.1519 1.8891 -2.30472 0
M  V30 569 H 56.6889 0.923373 -1.14509 0
M  V30 570 H 58.6469 4.03479 -1.06116 0
M  V30 571 H 57.2769 3.21711 -0.264973 0
M  V30 572 H 56.3289 2.74103 -2.63764 0
M  V30 573 H 57.6409 3.74283 -3.29717 0
M  V30 574 H 56.7949 5.72135 -2.01857 0
M  V30 575 H 55.5339 4.71286 -1.25462 0
M  V30 576 H 54.5389 4.23268 -3.50891 0
M  V30 577 H 55.7639 5.27546 -4.27635 0
M  V30 578 H 53.7099 6.17306 -2.21967 0
M  V30 579 H 53.6269 6.46014 -3.92686 0
M  V30 580 H 54.8949 7.19722 -2.99367 0
M  V30 581 N 59.124 1.23083 0.984299 0
M  V30 582 C 60.087 1.00979 2.05757 0
M  V30 583 C 61.087 -0.0269573 1.60777 0
M  V30 584 O 62.277 0.212403 1.729 0
M  V30 585 C 59.409 0.527072 3.36801 0
M  V30 586 H 60.602 1.9622 2.26799 0
M  V30 587 H 58.155 1.05072 1.15714 0
M  V30 588 H 58.89 -0.429294 3.21446 0
M  V30 589 H 58.675 1.27515 3.70786 0
M  V30 590 H 60.165 0.392942 4.15747 0
M  V30 591 N 60.6021 -1.18246 1.0419 0
M  V30 592 C 62.0181 -1.40269 0.761366 0
M  V30 593 C 62.2181 -1.90777 -0.648578 0
M  V30 594 O 61.2741 -2.0929 -1.41258 0
M  V30 595 C 62.5871 -2.40237 1.8085 0
M  V30 596 C 64.1351 -2.53961 1.82955 0
M  V30 597 C 64.6101 -3.57194 2.86664 0
M  V30 598 N 66.1011 -3.64702 2.85563 0
M  V30 599 C 66.8361 -4.44309 3.6246 0
M  V30 600 N 66.3321 -5.27514 4.49111 0
M  V30 601 N 68.1251 -4.39084 3.50944 0
M  V30 602 H 60.2761 -0.837882 1.95175 0
M  V30 603 H 62.5391 -0.430608 0.84456 0
M  V30 604 H 62.2451 -2.10176 2.81991 0
M  V30 605 H 62.1191 -3.39601 1.64168 0
M  V30 606 H 64.5061 -2.83338 0.824855 0
M  V30 607 H 64.5871 -1.54706 2.03715 0
M  V30 608 H 64.2311 -3.28558 3.87314 0
M  V30 609 H 64.1611 -4.5613 2.6316 0
M  V30 610 H 66.6521 -3.05289 2.22727 0
M  V30 611 H 66.9651 -5.85411 5.04493 0
M  V30 612 H 65.3101 -5.2693 4.53178 0
M  V30 613 H 68.5011 -3.7313 2.82651 0
M  V30 614 H 68.6741 -5.00883 4.11121 0
M  V30 615 N 62.0802 -0.821533 -1.34494 0
M  V30 616 C 63.4912 -0.467956 -1.8074 0
M  V30 617 C 63.8422 1.01151 -1.68116 0
M  V30 618 O 62.9672 1.78707 -1.22036 0
M  V30 619 C 63.5622 -0.842627 -3.28154 0
M  V30 620 C 62.1212 -0.541439 -3.72485 0
M  V30 621 C 61.2682 -1.06028 -2.56229 0
M  V30 622 H 64.2192 -1.01183 -1.22261 0
M  V30 623 H 64.2402 -0.145876 -3.8022 0
M  V30 624 H 63.7522 -1.91945 -3.37311 0
M  V30 625 H 61.8532 0.526034 -3.68868 0
M  V30 626 H 61.9662 -1.08453 -4.66663 0
M  V30 627 H 60.3302 -0.481892 -2.501 0
M  V30 628 H 61.1132 -2.14352 -2.68157 0
M  V30 629 N 63.5583 1.46682 -0.576371 0
M  V30 630 C 64.5213 2.28707 0.150239 0
M  V30 631 C 65.5213 1.38035 0.824794 0
M  V30 632 O 66.7113 1.60476 0.677719 0
M  V30 633 C 63.8433 3.18248 1.22192 0
M  V30 634 H 65.0363 2.94423 -0.570521 0
M  V30 635 H 62.5893 1.52688 -0.334078 0
M  V30 636 H 63.3243 2.57265 1.97447 0
M  V30 637 H 63.1093 3.85 0.742812 0
M  V30 638 H 64.5993 3.80001 1.73172 0
M  V30 639 N 65.0364 0.313813 1.54444 0
M  V30 640 C 66.2614 -0.296681 2.05267 0
M  V30 641 C 66.6864 -1.45757 1.18897 0
M  V30 642 O 66.0444 -1.80239 0.195886 0
M  V30 643 C 66.0924 -0.71831 3.53373 0
M  V30 644 O 65.1964 -1.82175 3.69981 0
M  V30 645 H 64.5374 -0.0554061 0.661684 0
M  V30 646 H 67.0674 0.459387 1.99376 0
M  V30 647 H 67.0774 -1.00364 3.95463 0
M  V30 648 H 65.7524 0.130821 4.15694 0
M  V30 649 H 64.3294 -1.53598 3.39797 0
M  V30 650 N 66.5145 -1.57545 0.0417849 0
M  V30 651 C 67.7395 -1.97035 -0.647455 0
M  V30 652 C 68.1645 -0.918775 -1.64135 0
M  V30 653 O 67.5225 0.119006 -1.80909 0
M  V30 654 C 67.5705 -3.35609 -1.31905 0
M  V30 655 O 66.6745 -3.3287 -2.43457 0
M  V30 656 H 66.0155 -0.64211 -0.169086 0
M  V30 657 H 68.5455 -2.04318 0.107399 0
M  V30 658 H 68.5555 -3.72126 -1.67291 0
M  V30 659 H 67.2305 -4.11685 -0.590586 0
M  V30 660 H 65.8075 -3.08087 -2.10088 0
M  V30 661 N 67.9926 0.231505 -1.5589 0
M  V30 662 C 69.2396 0.957352 -1.78441 0
M  V30 663 C 69.5676 1.84726 -0.60882 0
M  V30 664 O 68.8226 1.91416 0.40725 0
M  V30 665 C 69.1216 1.83577 -3.0665 0
M  V30 666 C 68.7876 1.09993 -4.37278 0
M  V30 667 C 67.4496 0.896629 -4.72773 0
M  V30 668 C 69.8016 0.579558 -5.17968 0
M  V30 669 C 67.1296 0.160896 -5.86479 0
M  V30 670 C 69.4816 -0.142783 -6.32439 0
M  V30 671 C 68.1456 -0.357427 -6.66542 0
M  V30 672 H 67.4156 0.35032 -0.65296 0
M  V30 673 H 70.0626 0.226259 -1.90159 0
M  V30 674 H 68.3676 2.63441 -2.90011 0
M  V30 675 H 70.0646 2.39934 -3.21298 0
M  V30 676 H 66.6546 1.26835 -4.09403 0
M  V30 677 H 70.8386 0.724125 -4.90989 0
M  V30 678 H 66.0946 -0.0157293 -6.11398 0
M  V30 679 H 70.2686 -0.553559 -6.94196 0
M  V30 680 H 67.8956 -0.929466 -7.54497 0
M  V30 681 N 69.4707 1.49531 0.497807 0
M  V30 682 C 70.4337 1.65916 1.58128 0
M  V30 683 C 71.4337 0.530825 1.51786 0
M  V30 684 O 72.6237 0.797342 1.54881 0
M  V30 685 C 69.7557 1.65951 2.9778 0
M  V30 686 H 70.9487 2.62556 1.44929 0
M  V30 687 H 68.5017 1.38611 0.722275 0
M  V30 688 H 69.2367 0.709065 3.16453 0
M  V30 689 H 69.0217 2.47897 3.03792 0
M  V30 690 H 70.5117 1.80673 3.76493 0
M  V30 691 N 70.9488 -0.749086 1.3866 0
M  V30 692 C 71.8988 -1.85368 1.32751 0
M  V30 693 C 72.8828 -1.59511 0.210945 0
M  V30 694 O 74.0748 -1.71255 0.447299 0
M  V30 695 C 71.2038 -3.23131 1.15935 0
M  V30 696 C 70.2898 -3.54864 2.32233 0
M  V30 697 N 70.6808 -3.57625 3.57684 0
M  V30 698 C 68.9788 -3.85154 2.24883 0
M  V30 699 C 69.6798 -3.86753 4.34508 0
M  V30 700 N 68.6558 -4.03812 3.63918 0
M  V30 701 H 72.4578 -1.85787 2.27729 0
M  V30 702 H 69.9718 -0.946658 1.31955 0
M  V30 703 H 71.9688 -4.02185 1.09786 0
M  V30 704 H 70.6288 -3.23961 0.218947 0
M  V30 705 H 71.6398 -3.39276 3.91295 0
M  V30 706 H 68.3168 -3.93672 1.39027 0
M  V30 707 H 69.7068 -3.95474 5.43185 0
M  V30 708 N 72.4269 -1.23603 -0.977757 0
M  V30 709 C 73.6759 -1.06377 -1.71368 0
M  V30 710 C 73.9889 0.399062 -1.91486 0
M  V30 711 O 75.1949 0.691312 -2.62551 0
M  V30 712 C 73.6509 -1.85512 -3.08404 0
M  V30 713 C 73.2589 -3.36141 -2.96164 0
M  V30 714 C 75.0029 -1.76783 -3.85938 0
M  V30 715 C 72.9099 -4.07659 -4.28449 0
M  V30 716 H 71.8399 -0.394452 -0.642591 0
M  V30 717 H 74.4909 -1.47594 -1.09034 0
M  V30 718 H 72.8729 -1.37103 -3.71509 0
M  V30 719 H 74.0469 -3.92056 -2.42133 0
M  V30 720 H 72.3619 -3.45712 -2.32104 0
M  V30 721 H 74.9589 -2.27526 -4.83876 0
M  V30 722 H 75.3019 -0.731116 -4.0983 0
M  V30 723 H 75.8349 -2.22818 -3.2954 0
M  V30 724 H 72.5739 -5.11648 -4.09752 0
M  V30 725 H 72.0939 -3.5653 -4.82334 0
M  V30 726 H 73.7729 -4.141 -4.97122 0
M  V30 727 N 73.905 1.17692 -1.04816 0
M  V30 728 C 75.316 1.69501 -0.782698 0
M  V30 729 C 75.667 1.83456 0.695577 0
M  V30 730 O 74.792 1.51942 1.54086 0
M  V30 731 C 75.387 3.07874 -1.41419 0
M  V30 732 C 73.946 3.56864 -1.19686 0
M  V30 733 C 73.093 2.3322 -1.50012 0
M  V30 734 H 76.044 1.02262 -1.2136 0
M  V30 735 H 76.065 3.71528 -0.821428 0
M  V30 736 H 75.577 2.97685 -2.49009 0
M  V30 737 H 73.678 3.72337 -0.140043 0
M  V30 738 H 73.791 4.39851 -1.89916 0
M  V30 739 H 72.155 2.37501 -0.920071 0
M  V30 740 H 72.938 2.25644 -2.58727 0
M  V30 741 N 75.3831 0.828654 1.34056 0
M  V30 742 C 76.3311 0.242973 2.31327 0
M  V30 743 C 77.3251 -0.61944 1.57668 0
M  V30 744 O 78.5311 -0.51014 1.7262 0
M  V30 745 H 74.9061 0.059834 0.749616 0
M  V30 746 H 76.8771 1.07809 2.78244 0
M  V30 747 C 75.6261 -0.575733 3.429 0
M  V30 748 H 74.9491 0.0785582 3.99723 0
M  V30 749 H 76.3891 -0.951547 4.13185 0
M  V30 750 C 74.8481 -1.75044 2.87856 0
M  V30 751 O 75.3781 -2.84882 2.83205 0
M  V30 752 N 73.5841 -1.56903 2.44602 0
M  V30 753 H 73.1311 -0.675547 2.48584 0
M  V30 754 H 73.0891 -2.35652 2.08124 0
M  V30 755 N 76.8612 -1.46375 0.584142 0
M  V30 756 C 78.0912 -2.06461 0.0758195 0
M  V30 757 C 78.4992 -1.43322 -1.23512 0
M  V30 758 O 77.8422 -0.533216 -1.75791 0
M  V30 759 C 77.9042 -3.59131 -0.162773 0
M  V30 760 C 77.5682 -4.4447 1.06279 0
M  V30 761 C 78.5652 -4.80918 1.97519 0
M  V30 762 C 76.2502 -4.85584 1.28504 0
M  V30 763 C 78.2442 -5.57309 3.09331 0
M  V30 764 C 75.9312 -5.61734 2.4062 0
M  V30 765 C 76.9292 -5.9751 3.30863 0
M  V30 766 O 76.6172 -6.72121 4.41032 0
M  V30 767 H 76.3492 -0.673745 0.0551725 0
M  V30 768 H 78.9032 -1.88969 0.804984 0
M  V30 769 H 77.1332 -3.74936 -0.946565 0
M  V30 770 H 78.8222 -4.0114 -0.619782 0
M  V30 771 H 79.5882 -4.49732 1.81565 0
M  V30 772 H 75.4672 -4.57187 0.591702 0
M  V30 773 H 79.0112 -5.85152 3.79793 0
M  V30 774 H 74.9082 -5.92334 2.56537 0
M  V30 775 H 75.6762 -6.90547 4.39417 0
M  V30 776 N 78.3393 -0.321999 -1.54275 0
M  V30 777 C 79.5643 0.285791 -2.05422 0
M  V30 778 C 79.9893 1.45124 -1.19669 0
M  V30 779 O 79.3473 1.80132 -0.205441 0
M  V30 780 C 79.3953 0.69956 -3.53749 0
M  V30 781 O 78.4993 1.8021 -3.70942 0
M  V30 782 H 77.8403 0.0518962 -0.661969 0
M  V30 783 H 80.3703 -0.469954 -1.9913 0
M  V30 784 H 80.3803 0.982649 -3.9599 0
M  V30 785 H 79.0553 -0.152864 -4.15619 0
M  V30 786 H 77.6323 1.51794 -3.40607 0
M  V30 787 N 79.8174 1.5752 -0.0501392 0
M  V30 788 C 80.7654 2.12651 0.942459 0
M  V30 789 C 81.7594 1.05807 1.32292 0
M  V30 790 O 82.9654 1.24217 1.3027 0
M  V30 791 H 79.3404 0.679673 0.321789 0
M  V30 792 H 81.3114 2.94951 0.452356 0
M  V30 793 C 80.0604 2.68565 2.20836 0
M  V30 794 H 79.3834 3.50439 1.92439 0
M  V30 795 H 80.8234 3.10761 2.8845 0
M  V30 796 C 79.2824 1.62291 2.95234 0
M  V30 797 O 79.8124 1.03508 3.88135 0
M  V30 798 N 78.0184 1.33836 2.57946 0
M  V30 799 H 77.5654 1.81826 1.82475 0
M  V30 800 H 77.5234 0.629595 3.08032 0
M  V30 801 N 81.2955 -0.223234 1.56011 0
M  V30 802 C 82.5425 -0.947875 1.78946 0
M  V30 803 C 82.8705 -1.844 0.618608 0
M  V30 804 O 82.1255 -1.91629 -0.397093 0
M  V30 805 C 82.4245 -1.81948 3.0762 0
M  V30 806 C 82.0905 -1.07672 4.37856 0
M  V30 807 C 80.7525 -0.871544 4.73242 0
M  V30 808 C 83.1045 -0.552081 5.18268 0
M  V30 809 C 80.4325 -0.129791 5.86556 0
M  V30 810 C 82.7845 0.17632 6.32354 0
M  V30 811 C 81.4485 0.39277 6.66343 0
M  V30 812 H 80.7185 -0.346852 0.654809 0
M  V30 813 H 83.3655 -0.216171 1.90276 0
M  V30 814 H 81.6705 -2.61899 2.91404 0
M  V30 815 H 83.3675 -2.38227 3.22566 0
M  V30 816 H 79.9575 -1.24662 4.1007 0
M  V30 817 H 84.1415 -0.698076 4.91366 0
M  V30 818 H 79.3975 0.048153 6.11381 0
M  V30 819 H 83.5715 0.590367 6.93893 0
M  V30 820 H 81.1985 0.969466 7.53993 0
M  V30 821 N 82.7736 -1.49793 -0.48987 0
M  V30 822 C 83.9986 -1.63836 -1.27172 0
M  V30 823 C 84.4236 -0.31402 -1.8546 0
M  V30 824 O 83.7816 0.719803 -1.66399 0
M  V30 825 C 83.8296 -2.71797 -2.36978 0
M  V30 826 O 82.9336 -2.31744 -3.41128 0
M  V30 827 H 82.2746 -0.547997 -0.37496 0
M  V30 828 H 84.8046 -1.96053 -0.585191 0
M  V30 829 H 84.8146 -2.94305 -2.82575 0
M  V30 830 H 83.4896 -3.67923 -1.93921 0
M  V30 831 H 82.0666 -2.1961 -3.01373 0
M  V30 832 N 84.2517 0.741722 -1.39055 0
M  V30 833 C 85.4767 1.53607 -1.39354 0
M  V30 834 C 85.9017 1.88096 0.0116905 0
M  V30 835 O 85.2597 1.5143 0.996924 0
M  V30 836 C 85.3077 2.80441 -2.26682 0
M  V30 837 O 84.4117 3.76088 -1.69208 0
M  V30 838 H 83.7527 0.464142 -0.474835 0
M  V30 839 H 86.2827 0.915665 -1.82967 0
M  V30 840 H 86.2927 3.29246 -2.40959 0
M  V30 841 H 84.9677 2.5467 -3.2881 0
M  V30 842 H 83.5447 3.34833 -1.64138 0
M  V30 843 N 85.7298 1.2412 0.971189 0
M  V30 844 C 86.6618 0.988349 2.06795 0
M  V30 845 C 87.6748 -0.0409541 1.62748 0
M  V30 846 O 88.8638 0.195673 1.77424 0
M  V30 847 C 85.9638 0.469023 3.35639 0
M  V30 848 C 85.1368 1.56065 4.08611 0
M  V30 849 C 84.1958 1.04458 5.15728 0
M  V30 850 O 83.2218 1.73553 5.42096 0
M  V30 851 N 84.4238 -0.122817 5.8037 0
M  V30 852 H 87.1888 1.93265 2.29061 0
M  V30 853 H 84.7498 1.15102 1.13856 0
M  V30 854 H 86.7418 0.108613 4.04554 0
M  V30 855 H 85.3118 -0.380919 3.1027 0
M  V30 856 H 84.5318 2.09341 3.34021 0
M  V30 857 H 85.8198 2.29449 4.54126 0
M  V30 858 H 85.2178 -0.700563 5.61345 0
M  V30 859 H 83.7748 -0.424404 6.50417 0
M  V30 860 N 87.2079 -1.17134 1.05439 0
M  V30 861 C 88.1709 -2.19439 0.661764 0
M  V30 862 C 89.1709 -1.58199 -0.288042 0
M  V30 863 O 90.3609 -1.74053 -0.0715803 0
M  V30 864 C 87.4929 -3.40889 -0.0276209 0
M  V30 865 H 88.6859 -2.55688 1.56728 0
M  V30 866 H 86.2389 -1.31259 0.848567 0
M  V30 867 H 86.9739 -3.10187 -0.94629 0
M  V30 868 H 86.7589 -3.86586 0.655238 0
M  V30 869 H 88.2489 -4.16603 -0.288342 0
M  V30 870 N 88.686 -0.835752 -1.33615 0
M  V30 871 C 89.935 -0.426289 -1.97144 0
M  V30 872 C 90.248 1.01912 -1.66953 0
M  V30 873 O 91.454 1.53311 -2.24072 0
M  V30 874 C 89.91 -0.711321 -3.52801 0
M  V30 875 C 89.518 -2.1712 -3.91871 0
M  V30 876 C 91.262 -0.368654 -4.22896 0
M  V30 877 C 89.169 -2.40044 -5.40493 0
M  V30 878 H 88.099 -0.15567 -0.737755 0
M  V30 879 H 90.75 -1.0239 -1.52278 0
M  V30 880 H 89.132 -0.0433766 -3.95976 0
M  V30 881 H 90.306 -2.87936 -3.59763 0
M  V30 882 H 88.621 -2.47654 -3.34749 0
M  V30 883 H 91.218 -0.517601 -5.32189 0
M  V30 884 H 91.561 0.688078 -4.10574 0
M  V30 885 H 92.094 -0.991702 -3.8524 0
M  V30 886 H 88.833 -3.44271 -5.57815 0
M  V30 887 H 88.353 -1.73785 -5.74072 0
M  V30 888 H 90.032 -2.23042 -6.0734 0
M  V30 889 N 90.1641 1.46063 -0.591896 0
M  V30 890 C 91.1121 2.32124 0.148739 0
M  V30 891 C 92.1061 1.45035 0.875286 0
M  V30 892 O 93.3121 1.61609 0.792632 0
M  V30 893 H 89.6871 0.749024 0.066832 0
M  V30 894 H 91.6581 2.92392 -0.595783 0
M  V30 895 C 90.4071 3.28373 1.1431 0
M  V30 896 H 89.7301 3.95371 0.59346 0
M  V30 897 H 91.1701 3.91352 1.63155 0
M  V30 898 C 89.6291 2.54393 2.20875 0
M  V30 899 O 90.1591 2.31373 3.28374 0
M  V30 900 N 88.3651 2.14797 1.95731 0
M  V30 901 H 87.9121 2.33719 1.08319 0
M  V30 902 H 87.8701 1.65619 2.67241 0
M  V30 903 N 91.6422 0.330177 1.54103 0
M  V30 904 C 93.0532 -0.15652 1.86043 0
M  V30 905 C 93.4042 -1.51086 1.2517 0
M  V30 906 O 92.5292 -2.09023 0.560217 0
M  V30 907 C 93.1242 -0.290784 3.3755 0
M  V30 908 C 91.6832 -0.721705 3.69416 0
M  V30 909 C 90.8302 0.152622 2.7688 0
M  V30 910 H 93.7812 0.550237 1.48856 0
M  V30 911 H 93.8022 -1.12058 3.63625 0
M  V30 912 H 93.3142 0.695068 3.81825 0
M  V30 913 H 91.4152 -1.71706 3.30678 0
M  V30 914 H 91.5282 -0.520869 4.7626 0
M  V30 915 H 89.8922 -0.372894 2.51956 0
M  V30 916 H 90.6752 1.13536 3.23982 0
M  V30 917 N 93.1203 -1.57491 0.0584922 0
M  V30 918 C 94.3683 -1.92597 -0.612436 0
M  V30 919 C 94.6893 -0.938162 -1.70949 0
M  V30 920 O 93.9593 0.0158301 -1.95894 0
M  V30 921 H 92.5393 -0.710964 -0.229214 0
M  V30 922 H 95.2013 -1.94571 0.113218 0
M  V30 923 H 94.2973 -2.94038 -1.04633 0
M  V30 924 N 94.5984 0.214957 -1.56127 0
M  V30 925 C 95.8454 0.938372 -1.79446 0
M  V30 926 C 96.1734 1.8407 -0.628378 0
M  V30 927 O 95.4284 1.91837 0.386925 0
M  V30 928 C 95.7274 1.80314 -3.0858 0
M  V30 929 C 95.3934 1.05349 -4.3842 0
M  V30 930 C 94.0554 0.846435 -4.73697 0
M  V30 931 C 96.4074 0.524588 -5.18553 0
M  V30 932 C 93.7354 0.098683 -5.86617 0
M  V30 933 C 96.0874 -0.209853 -6.32252 0
M  V30 934 C 94.7514 -0.428102 -6.66126 0
M  V30 935 H 94.0214 0.343375 -0.656639 0
M  V30 936 H 96.6684 0.206077 -1.90388 0
M  V30 937 H 94.9734 2.6035 -2.92789 0
M  V30 938 H 96.6704 2.36513 -3.23825 0
M  V30 939 H 93.2604 1.22486 -4.10725 0
M  V30 940 H 97.4444 0.672008 -4.91729 0
M  V30 941 H 92.7004 -0.0805753 -6.11347 0
M  V30 942 H 96.8744 -0.627157 -6.9357 0
M  V30 943 H 94.5014 -1.00944 -7.53468 0
M  V30 944 N 96.0765 1.50051 0.48192 0
M  V30 945 C 97.0065 1.71046 1.58951 0
M  V30 946 C 97.9875 0.559288 1.60642 0
M  V30 947 O 99.1725 0.797243 1.77081 0
M  V30 948 C 96.3025 1.79462 2.97339 0
M  V30 949 C 95.2565 2.94558 3.10515 0
M  V30 950 C 94.5825 2.88105 4.50444 0
M  V30 951 C 95.8825 4.35227 2.88747 0
M  V30 952 H 97.5765 2.6378 1.41635 0
M  V30 953 H 95.1225 1.26936 0.679942 0
M  V30 954 H 97.0755 1.92734 3.74742 0
M  V30 955 H 95.7995 0.833412 3.15788 0
M  V30 956 H 94.4585 2.80918 2.35543 0
M  V30 957 H 94.1065 1.89853 4.65795 0
M  V30 958 H 93.8065 3.65366 4.60197 0
M  V30 959 H 95.3305 3.03412 5.29881 0
M  V30 960 H 96.7445 4.49449 3.55905 0
M  V30 961 H 95.1415 5.13856 3.09955 0
M  V30 962 H 96.2115 4.48347 1.84696 0
M  V30 963 N 97.5546 -0.734337 1.39446 0
M  V30 964 C 98.8316 -1.48579 1.27215 0
M  V30 965 C 99.2116 -2.1077 -0.117968 0
M  V30 966 O 98.5596 -1.98646 -1.12924 0
M  V30 967 C 98.7696 -2.53667 2.39696 0
M  V30 968 C 100.118 -3.20031 2.79044 0
M  V30 969 O 101.142 -2.6398 2.39151 0
M  V30 970 O 100.001 -4.21455 3.47905 0
M  V30 971 H 97.0946 -0.659816 0.49857 0
M  V30 972 H 99.6406 -0.768106 1.51322 0
M  V30 973 H 98.4126 -2.06096 3.32626 0
M  V30 974 H 98.0356 -3.32994 2.17258 0
M  V30 975 N 99.0327 -1.24633 -0.964593 0
M  V30 976 C 100.258 -1.11596 -1.74818 0
M  V30 977 C 100.683 0.32723 -1.85232 0
M  V30 978 O 100.041 1.23695 -1.32549 0
M  V30 979 C 100.089 -1.76397 -3.1451 0
M  V30 980 O 99.1927 -1.03685 -3.99153 0
M  V30 981 H 98.5337 -0.390196 -0.537255 0
M  V30 982 H 101.064 -1.65002 -1.20977 0
M  V30 983 H 101.074 -1.8228 -3.65018 0
M  V30 984 H 99.7487 -2.81401 -3.06246 0
M  V30 985 H 98.3257 -1.05611 -3.57632 0
M  V30 986 N 100.511 1.16574 -1.06058 0
M  V30 987 C 101.759 1.86677 -0.77434 0
M  V30 988 C 102.08 1.81959 0.701147 0
M  V30 989 O 101.35 1.2515 1.50713 0
M  V30 990 H 99.9298 0.691134 -0.283449 0
M  V30 991 H 102.592 1.41378 -1.34158 0
M  V30 992 H 101.688 2.92181 -1.09711 0
M  V30 993 N 101.989 0.842826 1.3317 0
M  V30 994 C 103.217 0.454055 2.01856 0
M  V30 995 C 103.632 -0.94587 1.63397 0
M  V30 996 O 102.989 -1.61534 0.849302 0
M  V30 997 C 103.04 0.569715 3.56982 0
M  V30 998 O 102.761 1.91448 3.94055 0
M  V30 999 C 104.262 0.178412 4.42941 0
M  V30 1000 H 101.482 0.17979 0.646465 0
M  V30 1001 H 104.026 1.1365 1.70012 0
M  V30 1002 H 102.181 -0.0648587 3.87346 0
M  V30 1003 H 102.595 1.90282 4.88767 0
M  V30 1004 H 104.069 0.310376 5.51127 0
M  V30 1005 H 104.546 -0.880056 4.30293 0
M  V30 1006 H 105.152 0.787579 4.17944 0
M  V30 1007 N 103.467 -1.45747 0.599634 0
M  V30 1008 C 104.716 -2.01502 0.0893511 0
M  V30 1009 C 105.029 -1.4748 -1.28488 0
M  V30 1010 O 106.235 -1.95161 -1.88745 0
M  V30 1011 C 104.691 -3.59735 0.109082 0
M  V30 1012 C 104.299 -4.22754 1.48267 0
M  V30 1013 C 106.043 -4.23085 -0.346374 0
M  V30 1014 C 103.95 -5.73115 1.45921 0
M  V30 1015 H 102.88 -0.753417 0.0296347 0
M  V30 1016 H 105.531 -1.67303 0.753788 0
M  V30 1017 H 103.913 -3.91087 -0.621854 0
M  V30 1018 H 105.087 -4.02987 2.23468 0
M  V30 1019 H 103.402 -3.71567 1.87955 0
M  V30 1020 H 105.999 -5.33327 -0.38298 0
M  V30 1021 H 106.342 -3.93201 -1.36743 0
M  V30 1022 H 106.875 -3.9642 0.331038 0
M  V30 1023 H 103.614 -6.07685 2.45762 0
M  V30 1024 H 103.134 -5.95097 0.749665 0
M  V30 1025 H 104.813 -6.3616 1.17941 0
M  V30 1026 N 104.945 -0.338344 -1.53925 0
M  V30 1027 C 106.361 0.0137736 -1.59594 0
M  V30 1028 C 106.561 1.49186 -1.35447 0
M  V30 1029 O 105.617 2.24987 -1.14616 0
M  V30 1030 C 106.93 -0.41773 -2.97784 0
M  V30 1031 C 108.478 -0.369633 -3.1081 0
M  V30 1032 C 108.953 -0.776524 -4.51369 0
M  V30 1033 N 110.444 -0.730506 -4.57403 0
M  V30 1034 C 111.179 -1.01736 -5.64303 0
M  V30 1035 N 110.675 -1.3721 -6.79077 0
M  V30 1036 N 112.468 -0.941942 -5.54151 0
M  V30 1037 H 104.619 -1.3012 -1.67876 0
M  V30 1038 H 106.882 -0.530082 -0.78595 0
M  V30 1039 H 106.588 -1.44811 -3.20504 0
M  V30 1040 H 106.462 0.209729 -3.76616 0
M  V30 1041 H 108.849 0.651568 -2.87817 0
M  V30 1042 H 108.93 -1.03223 -2.34049 0
M  V30 1043 H 108.574 -1.79571 -4.75096 0
M  V30 1044 H 108.504 -0.0914649 -5.26521 0
M  V30 1045 H 110.995 -0.468783 -3.74981 0
M  V30 1046 H 111.308 -1.57597 -7.5656 0
M  V30 1047 H 109.653 -1.4105 -6.80536 0
M  V30 1048 H 112.844 -0.664184 -4.63364 0
M  V30 1049 H 113.017 -1.16884 -6.37371 0
M  V30 1050 N 106.423 1.57458 -0.0668435 0
M  V30 1051 C 107.671 1.92919 0.602214 0
M  V30 1052 C 107.992 0.947215 1.70449 0
M  V30 1053 O 107.262 -0.00544117 1.95899 0
M  V30 1054 H 105.842 0.71217 0.22544 0
M  V30 1055 H 108.504 1.94508 -0.123535 0
M  V30 1056 H 107.6 2.94589 1.03073 0
M  V30 1057 N 107.901 -0.206675 1.56239 0
M  V30 1058 C 109.147 -0.930218 1.80208 0
M  V30 1059 C 109.48 -1.83387 0.638981 0
M  V30 1060 O 108.755 -1.91119 -0.361066 0
M  V30 1061 C 109.038 -1.75641 3.1436 0
M  V30 1062 C 108.891 -0.878257 4.41142 0
M  V30 1063 C 110.21 -2.73129 3.45092 0
M  V30 1064 H 107.329 -0.336742 0.655571 0
M  V30 1065 H 109.971 -0.198222 1.88963 0
M  V30 1066 H 108.121 -2.38048 3.07027 0
M  V30 1067 H 109.793 -0.269787 4.6051 0
M  V30 1068 H 108.036 -0.184385 4.33408 0
M  V30 1069 H 108.707 -1.49106 5.3148 0
M  V30 1070 H 111.183 -2.20856 3.52649 0
M  V30 1071 H 110.059 -3.28028 4.40101 0
M  V30 1072 H 110.32 -3.51606 2.68003 0
M  V30 1073 N 109.379 -1.50304 -0.473955 0
M  V30 1074 C 110.604 -1.65175 -1.25427 0
M  V30 1075 C 111.029 -0.333673 -1.85117 0
M  V30 1076 O 110.387 0.702114 -1.67153 0
M  V30 1077 C 110.435 -2.74295 -2.34082 0
M  V30 1078 O 109.539 -2.35349 -3.38651 0
M  V30 1079 H 108.88 -0.551944 -0.369126 0
M  V30 1080 H 111.41 -1.96662 -0.564364 0
M  V30 1081 H 111.42 -2.97285 -2.79438 0
M  V30 1082 H 110.095 -3.69959 -1.90008 0
M  V30 1083 H 108.672 -2.22794 -2.99027 0
M  V30 1084 N 110.857 0.726932 -1.39834 0
M  V30 1085 C 112.105 1.4837 -1.37225 0
M  V30 1086 C 112.426 1.94979 0.0284857 0
M  V30 1087 O 111.696 1.69555 0.981213 0
M  V30 1088 H 110.276 0.55043 -0.505011 0
M  V30 1089 H 112.938 0.862468 -1.74778 0
M  V30 1090 H 112.034 2.36198 -2.04003 0
M  V30 1091 N 112.336 1.25143 0.95797 0
M  V30 1092 C 113.585 1.0909 1.69654 0
M  V30 1093 C 113.898 -0.368548 1.92097 0
M  V30 1094 O 115.104 -0.649455 2.63618 0
M  V30 1095 C 113.56 1.90395 3.05414 0
M  V30 1096 C 113.168 3.4081 2.90779 0
M  V30 1097 C 114.912 1.82901 3.83076 0
M  V30 1098 C 112.819 4.14423 4.21909 0
M  V30 1099 H 111.749 0.404625 0.636235 0
M  V30 1100 H 114.4 1.4931 1.06672 0
M  V30 1101 H 112.782 1.42996 3.69281 0
M  V30 1102 H 113.956 3.95859 2.35865 0
M  V30 1103 H 112.271 3.49361 2.26575 0
M  V30 1104 H 114.868 2.35196 4.80195 0
M  V30 1105 H 115.211 0.796224 4.08615 0
M  V30 1106 H 115.744 2.28033 3.25954 0
M  V30 1107 H 112.483 5.18102 4.01561 0
M  V30 1108 H 112.003 3.64159 4.76601 0
M  V30 1109 H 113.682 4.21956 4.90471 0
M  V30 1110 N 113.814 -1.1601 1.06675 0
M  V30 1111 C 115.062 -1.86264 0.784229 0
M  V30 1112 C 115.383 -1.82328 -0.691488 0
M  V30 1113 O 114.653 -1.25947 -1.50047 0
M  V30 1114 H 113.233 -0.689621 0.28711 0
M  V30 1115 H 115.895 -1.40664 1.34906 0
M  V30 1116 H 114.991 -2.91595 1.11259 0
M  V30 1117 N 115.292 -0.849877 -1.32721 0
M  V30 1118 C 116.538 -0.451591 -1.97708 0
M  V30 1119 C 116.871 0.989175 -1.6712 0
M  V30 1120 O 116.146 1.69334 -0.956891 0
M  V30 1121 C 116.429 -0.685598 -3.53513 0
M  V30 1122 C 116.282 -2.17444 -3.93749 0
M  V30 1123 C 117.601 -0.138874 -4.39881 0
M  V30 1124 H 114.72 -0.16555 -0.718166 0
M  V30 1125 H 117.362 -1.06742 -1.57182 0
M  V30 1126 H 115.512 -0.161416 -3.88165 0
M  V30 1127 H 117.184 -2.76433 -3.693 0
M  V30 1128 H 115.427 -2.65476 -3.43081 0
M  V30 1129 H 116.098 -2.28888 -5.02309 0
M  V30 1130 H 118.574 -0.587068 -4.11938 0
M  V30 1131 H 117.45 -0.332213 -5.47894 0
M  V30 1132 H 117.711 0.95806 -4.31594 0
M  V30 1133 N 116.77 1.45427 -0.607355 0
M  V30 1134 C 117.998 2.06614 -0.108814 0
M  V30 1135 C 118.413 1.45204 1.2067 0
M  V30 1136 O 117.77 0.566132 1.73497 0
M  V30 1137 C 117.821 3.61481 0.0375347 0
M  V30 1138 O 117.542 4.20598 -1.22593 0
M  V30 1139 C 119.043 4.39652 0.567561 0
M  V30 1140 H 116.263 0.66747 -0.0687351 0
M  V30 1141 H 118.807 1.86675 -0.835022 0
M  V30 1142 H 116.962 3.80762 0.714068 0
M  V30 1143 H 117.376 5.1377 -1.05547 0
M  V30 1144 H 118.85 5.48518 0.61905 0
M  V30 1145 H 119.327 4.09417 1.58978 0
M  V30 1146 H 119.933 4.25234 -0.0749202 0
M  V30 1147 N 118.248 0.346503 1.53744 0
M  V30 1148 C 119.178 -0.501193 2.28058 0
M  V30 1149 C 120.159 -1.10014 1.29734 0
M  V30 1150 O 121.344 -1.12097 1.58581 0
M  V30 1151 C 118.474 -1.65078 3.05559 0
M  V30 1152 C 117.428 -1.18003 4.11411 0
M  V30 1153 C 116.754 -2.41837 4.76884 0
M  V30 1154 C 118.054 -0.278394 5.21558 0
M  V30 1155 H 119.748 0.11875 2.99164 0
M  V30 1156 H 117.294 0.0585531 1.43881 0
M  V30 1157 H 119.247 -2.25028 3.56287 0
M  V30 1158 H 117.971 -2.29767 2.32109 0
M  V30 1159 H 116.63 -0.603331 3.61601 0
M  V30 1160 H 116.278 -3.0494 4.00026 0
M  V30 1161 H 115.978 -2.1102 5.48402 0
M  V30 1162 H 117.502 -3.02508 5.30397 0
M  V30 1163 H 118.916 -0.784823 5.67903 0
M  V30 1164 H 117.313 -0.0619707 6.00068 0
M  V30 1165 H 118.383 0.684677 4.80042 0
M  V30 1166 N 119.726 -1.57421 0.075193 0
M  V30 1167 C 120.973 -1.93618 -0.593146 0
M  V30 1168 C 121.301 -0.955484 -1.69413 0
M  V30 1169 O 120.556 0.0283251 -1.9568 0
M  V30 1170 C 120.855 -3.36428 -1.20626 0
M  V30 1171 C 120.521 -4.50307 -0.231078 0
M  V30 1172 C 119.183 -4.81186 0.0371936 0
M  V30 1173 C 121.535 -5.19374 0.435888 0
M  V30 1174 C 118.863 -5.78466 0.979461 0
M  V30 1175 C 121.215 -6.17665 1.3665 0
M  V30 1176 C 119.879 -6.46958 1.6432 0
M  V30 1177 H 119.149 -0.708499 -0.217047 0
M  V30 1178 H 121.796 -1.90937 0.146793 0
M  V30 1179 H 120.101 -3.35592 -2.02201 0
M  V30 1180 H 121.798 -3.61727 -1.73073 0
M  V30 1181 H 118.388 -4.26227 -0.450357 0
M  V30 1182 H 122.572 -4.95711 0.241748 0
M  V30 1183 H 117.828 -5.99487 1.20106 0
M  V30 1184 H 122.002 -6.70284 1.88924 0
M  V30 1185 H 119.629 -7.2215 2.37494 0
M  V30 1186 N 121.204 0.198386 -1.56346 0
M  V30 1187 C 122.453 0.917451 -1.79627 0
M  V30 1188 C 122.766 1.8456 -0.64784 0
M  V30 1189 O 123.972 2.60504 -0.764859 0
M  V30 1190 C 122.428 1.68175 -3.18191 0
M  V30 1191 C 122.036 0.798589 -4.40825 0
M  V30 1192 C 123.78 2.39065 -3.50782 0
M  V30 1193 C 121.687 1.56157 -5.70411 0
M  V30 1194 H 120.617 0.346317 -0.669762 0
M  V30 1195 H 123.268 0.170801 -1.82703 0
M  V30 1196 H 121.65 2.47216 -3.09354 0
M  V30 1197 H 122.824 0.0470665 -4.60776 0
M  V30 1198 H 121.139 0.200686 -4.15916 0
M  V30 1199 H 123.736 2.96692 -4.44835 0
M  V30 1200 H 124.079 3.13091 -2.74371 0
M  V30 1201 H 124.612 1.66993 -3.61052 0
M  V30 1202 H 121.351 0.864142 -6.49779 0
M  V30 1203 H 120.871 2.2871 -5.54483 0
M  V30 1204 H 122.55 2.11622 -6.11412 0
M  V30 1205 N 122.682 1.50554 0.465978 0
M  V30 1206 C 123.645 1.69233 1.54574 0
M  V30 1207 C 124.645 0.562901 1.50626 0
M  V30 1208 O 125.835 0.830016 1.53155 0
M  V30 1209 C 122.967 1.7223 2.94193 0
M  V30 1210 H 124.16 2.65571 1.39327 0
M  V30 1211 H 121.713 1.40111 0.692711 0
M  V30 1212 H 122.448 0.77603 3.14878 0
M  V30 1213 H 122.233 2.54285 2.98466 0
M  V30 1214 H 123.723 1.88618 3.72576 0
M  V30 1215 N 124.16 -0.719506 1.40217 0
M  V30 1216 C 125.09 -1.8465 1.42922 0
M  V30 1217 C 126.071 -1.67599 0.29062 0
M  V30 1218 O 127.256 -1.87688 0.498677 0
M  V30 1219 C 124.386 -3.22565 1.28722 0
M  V30 1220 C 123.34 -3.54281 2.40144 0
M  V30 1221 C 122.666 -4.91298 2.11023 0
M  V30 1222 C 123.966 -3.55676 3.82481 0
M  V30 1223 H 125.66 -1.82644 2.37237 0
M  V30 1224 H 123.206 -0.877305 1.1419 0
M  V30 1225 H 125.159 -4.01095 1.29232 0
M  V30 1226 H 123.883 -3.25137 0.308811 0
M  V30 1227 H 122.542 -2.78088 2.38877 0
M  V30 1228 H 122.19 -4.90468 1.11582 0
M  V30 1229 H 121.89 -5.13485 2.8567 0
M  V30 1230 H 123.414 -5.72166 2.13209 0
M  V30 1231 H 124.828 -4.24254 3.85592 0
M  V30 1232 H 123.225 -3.89388 4.56614 0
M  V30 1233 H 124.295 -2.55144 4.12346 0
M  V30 1234 N 125.638 -1.25649 -0.95132 0
M  V30 1235 C 126.868 -1.13179 -1.72841 0
M  V30 1236 C 127.276 0.316827 -1.86528 0
M  V30 1237 O 126.619 1.22948 -1.3649 0
M  V30 1238 C 126.681 -1.71644 -3.15878 0
M  V30 1239 C 126.345 -3.20667 -3.25609 0
M  V30 1240 C 127.342 -4.17616 -3.09666 0
M  V30 1241 C 125.027 -3.6094 -3.49324 0
M  V30 1242 C 127.021 -5.52817 -3.17289 0
M  V30 1243 C 124.708 -4.96278 -3.56584 0
M  V30 1244 C 125.706 -5.92025 -3.40581 0
M  V30 1245 O 125.394 -7.24899 -3.47528 0
M  V30 1246 H 125.126 -0.395389 -0.54831 0
M  V30 1247 H 127.68 -1.66566 -1.20187 0
M  V30 1248 H 125.91 -1.12707 -3.69911 0
M  V30 1249 H 127.599 -1.54225 -3.75459 0
M  V30 1250 H 128.365 -3.87842 -2.91211 0
M  V30 1251 H 124.244 -2.86907 -3.6084 0
M  V30 1252 H 127.788 -6.2753 -3.04716 0
M  V30 1253 H 123.685 -5.25716 -3.74556 0
M  V30 1254 H 124.453 -7.33039 -3.64138 0
M  V30 1255 N 127.117 1.15442 -1.07289 0
M  V30 1256 C 128.394 1.82306 -0.708792 0
M  V30 1257 C 128.774 1.94991 0.808807 0
M  V30 1258 O 128.122 1.50085 1.72298 0
M  V30 1259 C 128.332 3.18695 -1.42247 0
M  V30 1260 C 129.68 3.94341 -1.57417 0
M  V30 1261 O 130.704 3.28247 -1.38319 0
M  V30 1262 O 129.563 5.12839 -1.88834 0
M  V30 1263 H 126.657 0.787628 -0.252132 0
M  V30 1264 H 129.203 1.22559 -1.17377 0
M  V30 1265 H 127.975 3.04557 -2.45684 0
M  V30 1266 H 127.598 3.86128 -0.948223 0
M  V30 1267 N 128.595 0.856903 1.32268 0
M  V30 1268 C 129.825 0.47475 2.01071 0
M  V30 1269 C 130.233 -0.933746 1.64553 0
M  V30 1270 O 129.576 -1.62114 0.863989 0
M  V30 1271 C 129.638 0.536746 3.55471 0
M  V30 1272 C 129.302 1.90453 4.15423 0
M  V30 1273 C 130.299 2.87029 4.33486 0
M  V30 1274 C 127.984 2.20229 4.51447 0
M  V30 1275 C 129.978 4.11532 4.86744 0
M  V30 1276 C 127.665 3.44984 5.0441 0
M  V30 1277 C 128.663 4.40452 5.22007 0
M  V30 1278 O 128.351 5.62998 5.73837 0
M  V30 1279 H 128.083 0.184778 0.650256 0
M  V30 1280 H 130.637 1.15615 1.69771 0
M  V30 1281 H 128.867 -0.20152 3.86175 0
M  V30 1282 H 130.556 0.169875 4.05544 0
M  V30 1283 H 131.322 2.6533 4.05986 0
M  V30 1284 H 127.201 1.46705 4.37034 0
M  V30 1285 H 130.745 4.86056 5.00395 0
M  V30 1286 H 126.642 3.66532 5.31342 0
M  V30 1287 H 127.41 5.64987 5.92226 0
M  V30 1288 N 130.073 -1.45103 0.615059 0
M  V30 1289 C 130.983 -2.34382 -0.101034 0
M  V30 1290 C 131.999 -1.51681 -0.852585 0
M  V30 1291 O 133.175 -1.8446 -0.808484 0
M  V30 1292 C 130.24 -3.29417 -1.08099 0
M  V30 1293 C 129.301 -4.28025 -0.330577 0
M  V30 1294 C 128.534 -5.1852 -1.26385 0
M  V30 1295 O 128.757 -5.12598 -2.50198 0
M  V30 1296 O 127.691 -5.97122 -0.756866 0
M  V30 1297 H 131.517 -2.97033 0.632855 0
M  V30 1298 H 129.102 -1.4461 0.375293 0
M  V30 1299 H 130.984 -3.87958 -1.6452 0
M  V30 1300 H 129.659 -2.69321 -1.79577 0
M  V30 1301 H 128.566 -3.73078 0.276283 0
M  V30 1302 H 129.899 -4.90997 0.343866 0
M  V30 1303 N 131.551 -0.354651 -1.53558 0
M  V30 1304 C 132.514 0.484566 -2.24019 0
M  V30 1305 C 133.514 1.01861 -1.24422 0
M  V30 1306 O 134.704 0.906097 -1.4878 0
M  V30 1307 C 131.836 1.67615 -2.96847 0
M  V30 1308 H 133.029 -0.131843 -2.9961 0
M  V30 1309 H 130.582 -0.106165 -1.55939 0
M  V30 1310 H 131.317 2.33095 -2.25471 0
M  V30 1311 H 131.102 1.30029 -3.69912 0
M  V30 1312 H 132.592 2.27114 -3.50441 0
M  V30 1313 N 133.029 1.57378 -0.0835403 0
M  V30 1314 C 134.445 1.57246 0.273109 0
M  V30 1315 C 134.645 1.09385 1.69225 0
M  V30 1316 O 133.701 0.765051 2.40631 0
M  V30 1317 C 135.014 3.00614 0.0720628 0
M  V30 1318 C 136.562 3.12684 0.1407 0
M  V30 1319 C 137.037 4.57989 -0.0322094 0
M  V30 1320 N 138.528 4.63194 0.0230085 0
M  V30 1321 C 139.263 5.73335 -0.0861941 0
M  V30 1322 N 138.759 6.9235 -0.24958 0
M  V30 1323 N 140.552 5.62093 -0.0282886 0
M  V30 1324 H 132.703 1.86801 -1.0109 0
M  V30 1325 H 134.966 0.861687 -0.395222 0
M  V30 1326 H 134.672 3.39786 -0.907662 0
M  V30 1327 H 134.546 3.68193 0.81936 0
M  V30 1328 H 136.933 2.73391 1.11092 0
M  V30 1329 H 137.014 2.47719 -0.637896 0
M  V30 1330 H 136.658 4.97973 -0.999247 0
M  V30 1331 H 136.588 5.21 0.765937 0
M  V30 1332 H 139.079 3.77613 0.14722 0
M  V30 1333 H 139.392 7.72117 -0.324733 0
M  V30 1334 H 137.737 6.94415 -0.285097 0
M  V30 1335 H 140.928 4.67997 0.0981408 0
M  V30 1336 H 141.101 6.47895 -0.116845 0
M  V30 1337 N 134.507 -0.190092 1.56449 0
M  V30 1338 C 135.735 -0.925772 1.85033 0
M  V30 1339 C 136.15 -1.76638 0.666658 0
M  V30 1340 O 135.507 -1.78822 -0.364565 0
M  V30 1341 C 135.558 -1.81786 3.12468 0
M  V30 1342 O 135.279 -1.01118 4.26271 0
M  V30 1343 C 136.78 -2.6648 3.54265 0
M  V30 1344 H 134 -0.269872 0.614337 0
M  V30 1345 H 136.544 -0.195837 2.0356 0
M  V30 1346 H 134.699 -2.50136 2.95822 0
M  V30 1347 H 135.113 -1.61956 4.98869 0
M  V30 1348 H 136.587 -3.24722 4.46385 0
M  V30 1349 H 137.064 -3.40434 2.77491 0
M  V30 1350 H 137.67 -2.03493 3.73458 0
M  V30 1351 N 135.985 -1.50799 -0.457987 0
M  V30 1352 C 136.895 -1.73426 -1.57989 0
M  V30 1353 C 137.911 -0.617745 -1.62665 0
M  V30 1354 O 139.087 -0.897614 -1.80291 0
M  V30 1355 C 136.152 -1.83557 -2.94122 0
M  V30 1356 C 135.213 -3.07345 -2.99729 0
M  V30 1357 C 134.446 -3.16983 -4.29368 0
M  V30 1358 O 134.669 -2.33077 -5.20607 0
M  V30 1359 O 133.603 -4.09812 -4.40837 0
M  V30 1360 H 137.429 -2.68555 -1.41817 0
M  V30 1361 H 135.014 -1.35052 -0.638859 0
M  V30 1362 H 136.896 -1.92326 -3.74952 0
M  V30 1363 H 135.571 -0.916137 -3.10465 0
M  V30 1364 H 134.478 -3.04068 -2.1793 0
M  V30 1365 H 135.811 -3.9891 -2.88326 0
M  V30 1366 N 137.463 0.71206 -1.40597 0
M  V30 1367 C 138.74 1.46536 -1.29563 0
M  V30 1368 C 139.12 2.10931 0.0844217 0
M  V30 1369 O 138.468 2.00418 1.0975 0
M  V30 1370 C 138.678 2.49821 -2.43701 0
M  V30 1371 C 140.026 3.15551 -2.841 0
M  V30 1372 O 141.05 2.60142 -2.4332 0
M  V30 1373 O 139.909 4.15867 -3.54566 0
M  V30 1374 H 137.003 0.651801 -0.509004 0
M  V30 1375 H 139.549 0.743935 -1.52524 0
M  V30 1376 H 138.321 2.00778 -3.35863 0
M  V30 1377 H 137.944 3.29495 -2.22528 0
M  V30 1378 N 138.941 1.26152 0.944643 0
M  V30 1379 C 140.218 1.02247 1.66748 0
M  V30 1380 C 140.598 -0.448202 2.06287 0
M  V30 1381 O 139.946 -1.42779 1.78399 0
M  V30 1382 C 140.156 1.96788 2.88228 0
M  V30 1383 C 141.504 2.25201 3.59958 0
M  V30 1384 O 142.528 1.94626 2.98327 0
M  V30 1385 O 141.387 2.77242 4.70956 0
M  V30 1386 H 138.481 0.388517 0.730057 0
M  V30 1387 H 141.027 1.37348 0.99668 0
M  V30 1388 H 139.799 2.96047 2.55875 0
M  V30 1389 H 139.422 1.62145 3.63035 0
M  V30 1390 N 140.419 -1.14872 1.07899 0
M  V30 1391 C 141.349 -2.2193 0.725887 0
M  V30 1392 C 142.33 -1.67622 -0.28927 0
M  V30 1393 O 143.515 -1.93533 -0.160787 0
M  V30 1394 C 140.645 -3.47061 0.128856 0
M  V30 1395 C 139.599 -4.14363 1.07178 0
M  V30 1396 C 138.925 -5.33636 0.337229 0
M  V30 1397 C 140.225 -4.63492 2.40775 0
M  V30 1398 H 141.919 -2.51724 1.62097 0
M  V30 1399 H 139.465 -1.20991 0.780838 0
M  V30 1400 H 141.418 -4.21199 -0.130147 0
M  V30 1401 H 140.142 -3.16617 -0.80134 0
M  V30 1402 H 138.801 -3.42173 1.3158 0
M  V30 1403 H 138.449 -4.99449 -0.596606 0
M  V30 1404 H 138.149 -5.79609 0.965788 0
M  V30 1405 H 139.673 -6.10539 0.0861567 0
M  V30 1406 H 141.087 -5.2913 2.20669 0
M  V30 1407 H 139.484 -5.20148 2.99276 0
M  V30 1408 H 140.554 -3.78834 3.02676 0
M  V30 1409 N 141.898 -0.863906 -1.31812 0
M  V30 1410 C 143.126 -0.486111 -2.01108 0
M  V30 1411 C 143.541 0.919755 -1.64882 0
M  V30 1412 O 142.898 1.60162 -0.874893 0
M  V30 1413 C 142.949 -0.626435 -3.56031 0
M  V30 1414 O 142.67 -1.97693 -3.90959 0
M  V30 1415 C 144.171 -0.248857 -4.42601 0
M  V30 1416 H 141.391 -0.190052 -0.643523 0
M  V30 1417 H 143.935 -1.1634 -1.68182 0
M  V30 1418 H 142.09 0.00322717 -3.874 0
M  V30 1419 H 142.504 -1.98034 -4.85678 0
M  V30 1420 H 143.978 -0.398016 -5.50563 0
M  V30 1421 H 144.455 0.811489 -4.31638 0
M  V30 1422 H 145.061 -0.853971 -4.16638 0
M  V30 1423 N 143.376 1.44774 -0.622745 0
M  V30 1424 C 144.623 2.02121 -0.1239 0
M  V30 1425 C 144.951 1.48915 1.25118 0
M  V30 1426 O 144.206 0.660045 1.84233 0
M  V30 1427 C 144.505 3.57364 -0.0508323 0
M  V30 1428 C 144.171 4.29787 -1.36358 0
M  V30 1429 C 142.833 4.4929 -1.72314 0
M  V30 1430 C 145.185 4.71062 -2.23048 0
M  V30 1431 C 142.513 5.07325 -2.94682 0
M  V30 1432 C 144.865 5.30452 -3.44679 0
M  V30 1433 C 143.529 5.48175 -3.80868 0
M  V30 1434 H 142.799 0.739612 -0.0453381 0
M  V30 1435 H 145.446 1.73648 -0.807389 0
M  V30 1436 H 143.751 3.85202 0.715991 0
M  V30 1437 H 145.448 3.99456 0.351533 0
M  V30 1438 H 142.038 4.14932 -1.07375 0
M  V30 1439 H 146.222 4.55715 -1.96565 0
M  V30 1440 H 141.478 5.19235 -3.22809 0
M  V30 1441 H 145.652 5.61385 -4.12092 0
M  V30 1442 H 143.279 5.92912 -4.75773 0
M  V30 1443 N 144.854 0.36279 1.53368 0
M  V30 1444 C 146.082 -0.228613 2.05633 0
M  V30 1445 C 146.497 -1.42676 1.23649 0
M  V30 1446 O 145.854 -1.80394 0.27647 0
M  V30 1447 C 145.905 -0.624845 3.56059 0
M  V30 1448 O 145.626 0.525675 4.34935 0
M  V30 1449 C 147.127 -1.27493 4.24571 0
M  V30 1450 H 144.347 -0.0407183 0.669763 0
M  V30 1451 H 146.891 0.520352 1.97769 0
M  V30 1452 H 145.046 -1.32373 3.64083 0
M  V30 1453 H 145.46 0.205969 5.24095 0
M  V30 1454 H 146.934 -1.50277 5.31151 0
M  V30 1455 H 147.411 -2.23439 3.78116 0
M  V30 1456 H 148.017 -0.617558 4.20792 0
M  V30 1457 N 146.332 -1.57332 0.0918853 0
M  V30 1458 C 147.279 -2.13847 -0.868211 0
M  V30 1459 C 148.249 -1.05618 -1.28196 0
M  V30 1460 O 149.434 -1.33387 -1.36427 0
M  V30 1461 C 146.574 -2.72062 -2.12312 0
M  V30 1462 C 145.687 -3.94514 -1.7602 0
M  V30 1463 C 144.822 -4.40903 -2.96273 0
M  V30 1464 C 143.861 -5.55953 -2.56092 0
M  V30 1465 N 142.998 -5.97209 -3.69169 0
M  V30 1466 H 147.838 -2.95575 -0.379406 0
M  V30 1467 H 145.375 -1.46048 -0.175606 0
M  V30 1468 H 147.333 -3.03931 -2.858 0
M  V30 1469 H 145.963 -1.93068 -2.58698 0
M  V30 1470 H 145.015 -3.68979 -0.925135 0
M  V30 1471 H 146.327 -4.7802 -1.42472 0
M  V30 1472 H 145.481 -4.74539 -3.78018 0
M  V30 1473 H 144.22 -3.56291 -3.33029 0
M  V30 1474 H 143.225 -5.21948 -1.72773 0
M  V30 1475 H 144.45 -6.42311 -2.20484 0
M  V30 1476 H 142.396 -5.15543 -4.05649 0
M  V30 1477 H 142.313 -6.75504 -3.39456 0
M  V30 1478 H 143.581 -6.35475 -4.51434 0
M  V30 1479 N 147.81 0.181792 -1.56548 0
M  V30 1480 C 149.058 0.89832 -1.81038 0
M  V30 1481 C 149.379 1.83232 -0.667164 0
M  V30 1482 O 148.649 1.93372 0.313673 0
M  V30 1483 H 147.229 0.33471 -0.667816 0
M  V30 1484 H 149.891 0.184116 -1.94028 0
M  V30 1485 H 148.987 1.4815 -2.74696 0
M  V30 1486 N 149.288 1.51039 0.449983 0
M  V30 1487 C 150.198 1.74261 1.57067 0
M  V30 1488 C 151.214 0.626363 1.62335 0
M  V30 1489 O 152.39 0.907162 1.79812 0
M  V30 1490 C 149.455 1.85114 2.93144 0
M  V30 1491 C 148.516 3.0893 2.98095 0
M  V30 1492 C 147.749 3.19256 4.27681 0
M  V30 1493 O 147.972 2.35835 5.19363 0
M  V30 1494 O 146.906 4.12144 4.38658 0
M  V30 1495 H 150.732 2.69303 1.40391 0
M  V30 1496 H 148.317 1.35389 0.631688 0
M  V30 1497 H 150.199 1.94311 3.73926 0
M  V30 1498 H 148.874 0.932588 3.09975 0
M  V30 1499 H 147.781 3.0522 2.16314 0
M  V30 1500 H 149.114 4.00433 2.86206 0
M  V30 1501 N 150.766 -0.704594 1.40972 0
M  V30 1502 C 151.713 -1.81862 1.42109 0
M  V30 1503 C 152.683 -1.63781 0.276593 0
M  V30 1504 O 153.868 -1.84759 0.4763 0
M  V30 1505 C 151.008 -3.19669 1.30022 0
M  V30 1506 C 150.121 -3.49246 2.54267 0
M  V30 1507 C 149.256 -4.76618 2.3454 0
M  V30 1508 C 148.295 -4.99133 3.54306 0
M  V30 1509 N 147.432 -6.17726 3.33706 0
M  V30 1510 H 152.272 -1.80226 2.37324 0
M  V30 1511 H 149.809 -0.880238 1.17857 0
M  V30 1512 H 151.767 -3.99263 1.21018 0
M  V30 1513 H 150.397 -3.20506 0.384192 0
M  V30 1514 H 149.449 -2.64125 2.73756 0
M  V30 1515 H 150.761 -3.61788 3.43381 0
M  V30 1516 H 149.915 -5.64249 2.22952 0
M  V30 1517 H 148.654 -4.66305 1.42867 0
M  V30 1518 H 147.659 -4.09953 3.66359 0
M  V30 1519 H 148.884 -5.11311 4.4692 0
M  V30 1520 H 146.83 -6.08642 2.44725 0
M  V30 1521 H 146.747 -6.30995 4.16391 0
M  V30 1522 H 148.015 -7.08115 3.25873 0
M  V30 1523 N 152.244 -1.26651 -0.937939 0
M  V30 1524 C 153.491 -1.12387 -1.6845 0
M  V30 1525 C 153.819 0.332208 -1.91642 0
M  V30 1526 O 153.074 1.2602 -1.49725 0
M  V30 1527 C 153.373 -1.84168 -3.06295 0
M  V30 1528 C 153.039 -3.34056 -3.02849 0
M  V30 1529 C 151.701 -3.74942 -3.01616 0
M  V30 1530 C 154.053 -4.29741 -2.9491 0
M  V30 1531 C 151.381 -5.09894 -2.90215 0
M  V30 1532 C 153.733 -5.64738 -2.8505 0
M  V30 1533 C 152.397 -6.0493 -2.82162 0
M  V30 1534 H 151.667 -0.411252 -0.616403 0
M  V30 1535 H 154.314 -1.57134 -1.09459 0
M  V30 1536 H 152.619 -1.319 -3.6893 0
M  V30 1537 H 154.316 -1.70569 -3.62915 0
M  V30 1538 H 150.906 -3.01534 -3.0459 0
M  V30 1539 H 155.09 -3.99133 -2.94969 0
M  V30 1540 H 150.346 -5.40194 -2.86358 0
M  V30 1541 H 154.52 -6.38561 -2.77872 0
M  V30 1542 H 152.147 -7.09457 -2.73084 0
M  V30 1543 N 153.722 1.14298 -1.08507 0
M  V30 1544 C 154.672 2.17449 -0.685569 0
M  V30 1545 C 155.656 1.58167 0.295315 0
M  V30 1546 O 156.848 1.76675 0.107172 0
M  V30 1547 C 153.977 3.43161 -0.0975318 0
M  V30 1548 C 153.063 4.09471 -1.10426 0
M  V30 1549 N 153.454 4.51089 -2.28806 0
M  V30 1550 C 151.752 4.35976 -0.940258 0
M  V30 1551 C 152.453 5.02654 -2.9277 0
M  V30 1552 N 151.429 4.96927 -2.20374 0
M  V30 1553 H 155.231 2.47369 -1.587 0
M  V30 1554 H 152.745 1.30992 -0.959936 0
M  V30 1555 H 154.742 4.16388 0.20664 0
M  V30 1556 H 153.402 3.14719 0.798872 0
M  V30 1557 H 154.413 4.44097 -2.66455 0
M  V30 1558 H 151.09 4.17386 -0.0977441 0
M  V30 1559 H 152.48 5.44723 -3.93352 0
M  V30 1560 N 155.201 0.870884 1.31352 0
M  V30 1561 C 156.45 0.478408 1.95944 0
M  V30 1562 C 156.763 -0.974493 1.69597 0
M  V30 1563 O 157.969 -1.47316 2.28058 0
M  V30 1564 C 156.425 0.804609 3.50791 0
M  V30 1565 C 156.033 2.27433 3.85977 0
M  V30 1566 C 157.777 0.480648 4.2177 0
M  V30 1567 C 155.684 2.5429 5.33939 0
M  V30 1568 H 154.614 0.175175 0.733369 0
M  V30 1569 H 157.265 1.06391 1.4951 0
M  V30 1570 H 155.647 0.148347 3.95722 0
M  V30 1571 H 156.821 2.97373 3.52002 0
M  V30 1572 H 155.136 2.56442 3.28065 0
M  V30 1573 H 157.733 0.658519 5.30629 0
M  V30 1574 H 158.076 -0.578979 4.12254 0
M  V30 1575 H 158.609 1.09349 3.82476 0
M  V30 1576 H 155.348 3.58939 5.48491 0
M  V30 1577 H 154.868 1.88945 5.69263 0
M  V30 1578 H 156.547 2.39066 6.01212 0
M  V30 1579 N 156.679 -1.44442 0.630414 0
M  V30 1580 C 157.609 -2.33418 -0.0618083 0
M  V30 1581 C 158.59 -1.48165 -0.835541 0
M  V30 1582 O 159.775 -1.76886 -0.801564 0
M  V30 1583 C 156.905 -3.31222 -1.04449 0
M  V30 1584 C 155.859 -4.26288 -0.382436 0
M  V30 1585 C 155.185 -5.13954 -1.47497 0
M  V30 1586 C 156.485 -5.1744 0.710865 0
M  V30 1587 H 158.179 -2.91548 0.681184 0
M  V30 1588 H 155.725 -1.40191 0.329026 0
M  V30 1589 H 157.678 -3.92351 -1.53748 0
M  V30 1590 H 156.402 -2.71299 -1.81836 0
M  V30 1591 H 155.061 -3.6649 0.0899054 0
M  V30 1592 H 154.709 -4.50385 -2.2397 0
M  V30 1593 H 154.409 -5.7837 -1.03737 0
M  V30 1594 H 155.933 -5.77955 -1.96979 0
M  V30 1595 H 157.347 -5.72509 0.300996 0
M  V30 1596 H 155.744 -5.90455 1.07156 0
M  V30 1597 H 156.814 -4.58496 1.57829 0
M  V30 1598 N 158.157 -0.370918 -1.53173 0
M  V30 1599 C 159.105 0.488101 -2.27421 0
M  V30 1600 C 160.099 1.07884 -1.30604 0
M  V30 1601 O 161.305 1.02143 -1.48212 0
M  V30 1602 H 157.68 0.176134 -0.731082 0
M  V30 1603 H 159.651 -0.159815 -2.97972 0
M  V30 1604 C 158.4 1.61306 -3.08019 0
M  V30 1605 H 157.723 1.1678 -3.82364 0
M  V30 1606 H 159.163 2.18872 -3.63141 0
M  V30 1607 C 157.622 2.55848 -2.19188 0
M  V30 1608 O 158.152 3.58799 -1.80626 0
M  V30 1609 N 156.358 2.2516 -1.83715 0
M  V30 1610 H 155.905 1.41476 -2.15273 0
M  V30 1611 H 155.863 2.8867 -1.24567 0
M  V30 1612 N 159.635 1.57281 -0.100228 0
M  V30 1613 C 160.583 2.15542 0.874328 0
M  V30 1614 C 161.577 1.09962 1.28859 0
M  V30 1615 O 162.783 1.28298 1.26252 0
M  V30 1616 H 159.158 0.689567 0.300003 0
M  V30 1617 H 161.129 2.96241 0.35829 0
M  V30 1618 C 159.878 2.75454 2.1218 0
M  V30 1619 H 159.201 3.56384 1.81193 0
M  V30 1620 H 160.641 3.19781 2.78417 0
M  V30 1621 C 159.1 1.71602 2.89921 0
M  V30 1622 O 159.63 1.15804 3.84646 0
M  V30 1623 N 157.836 1.41975 2.53558 0
M  V30 1624 H 157.383 1.87539 1.76598 0
M  V30 1625 H 157.341 0.727274 3.05873 0
M  V30 1626 N 161.113 -0.173488 1.56642 0
M  V30 1627 C 162.341 -0.906095 1.86004 0
M  V30 1628 C 162.756 -1.75921 0.685355 0
M  V30 1629 O 162.113 -1.79198 -0.345578 0
M  V30 1630 C 162.164 -1.78462 3.14378 0
M  V30 1631 O 161.885 -0.965914 4.27319 0
M  V30 1632 C 163.386 -2.62707 3.57071 0
M  V30 1633 H 160.606 -0.263341 0.617165 0
M  V30 1634 H 163.15 -0.174236 2.03756 0
M  V30 1635 H 161.305 -2.46984 2.98459 0
M  V30 1636 H 161.719 -1.56655 5.00559 0
M  V30 1637 H 163.193 -3.19969 4.49804 0
M  V30 1638 H 163.67 -3.37472 2.81086 0
M  V30 1639 H 164.276 -1.99521 3.75595 0
M  V30 1640 N 162.591 -1.51276 -0.441967 0
M  V30 1641 C 163.501 -1.75092 -1.56141 0
M  V30 1642 C 164.517 -0.634963 -1.62001 0
M  V30 1643 O 165.693 -0.916686 -1.79329 0
M  V30 1644 C 162.758 -1.86666 -2.92158 0
M  V30 1645 C 161.819 -3.10506 -2.96453 0
M  V30 1646 C 161.052 -3.21519 -4.25982 0
M  V30 1647 O 161.275 -2.38586 -5.18105 0
M  V30 1648 O 160.209 -4.14465 -4.36466 0
M  V30 1649 H 164.035 -2.70044 -1.38961 0
M  V30 1650 H 161.62 -1.35722 -0.624499 0
M  V30 1651 H 163.502 -1.96292 -3.72891 0
M  V30 1652 H 162.177 -0.949014 -3.09476 0
M  V30 1653 H 161.084 -3.06363 -2.14692 0
M  V30 1654 H 162.417 -4.01945 -2.84079 0
M  V30 1655 N 164.069 0.697108 -1.41344 0
M  V30 1656 C 165.317 1.45426 -1.40341 0
M  V30 1657 C 165.638 1.94996 -0.0128787 0
M  V30 1658 O 164.908 1.71599 0.945027 0
M  V30 1659 H 163.488 0.539594 -0.516573 0
M  V30 1660 H 166.15 0.825201 -1.76569 0
M  V30 1661 H 165.246 2.31817 -2.08967 0
M  V30 1662 N 165.547 1.27147 0.931209 0
M  V30 1663 C 166.824 1.0401 1.65654 0
M  V30 1664 C 167.204 -0.426297 2.06751 0
M  V30 1665 O 166.552 -1.40879 1.79904 0
M  V30 1666 C 166.762 1.99834 2.86125 0
M  V30 1667 C 168.11 2.29007 3.57549 0
M  V30 1668 O 169.134 1.97779 2.96246 0
M  V30 1669 O 167.993 2.82222 4.67989 0
M  V30 1670 H 165.087 0.396239 0.725895 0
M  V30 1671 H 167.633 1.38397 0.982056 0
M  V30 1672 H 166.405 2.98744 2.52721 0
M  V30 1673 H 166.028 1.65987 3.61295 0
M  V30 1674 N 167.025 -1.13721 1.09112 0
M  V30 1675 C 168.271 -1.85413 0.836283 0
M  V30 1676 C 168.626 -1.8175 -0.631249 0
M  V30 1677 O 167.919 -1.24238 -1.45861 0
M  V30 1678 C 168.113 -3.32861 1.30146 0
M  V30 1679 C 167.942 -3.50882 2.81268 0
M  V30 1680 C 166.712 -3.65312 3.49106 0
M  V30 1681 C 168.91 -3.47196 3.7942 0
M  V30 1682 N 166.892 -3.71563 4.88686 0
M  V30 1683 C 168.263 -3.59777 5.04936 0
M  V30 1684 C 170.318 -3.30577 3.72321 0
M  V30 1685 C 169.021 -3.57455 6.24194 0
M  V30 1686 C 171.047 -3.29562 4.91063 0
M  V30 1687 C 170.409 -3.42691 6.15421 0
M  V30 1688 H 166.508 -0.694812 0.358832 0
M  V30 1689 H 169.092 -1.36246 1.39087 0
M  V30 1690 H 167.263 -3.80602 0.774361 0
M  V30 1691 H 168.995 -3.92346 0.99229 0
M  V30 1692 H 165.75 -3.6685 2.9953 0
M  V30 1693 H 166.174 -3.78387 5.61384 0
M  V30 1694 H 170.816 -3.19332 2.77105 0
M  V30 1695 H 168.534 -3.67475 7.19714 0
M  V30 1696 H 172.12 -3.17905 4.87266 0
M  V30 1697 H 171 -3.41862 7.05762 0
M  V30 1698 N 168.503 -0.877838 -1.30888 0
M  V30 1699 C 169.749 -0.502773 -1.97088 0
M  V30 1700 C 170.104 0.936274 -1.68082 0
M  V30 1701 O 169.397 1.65162 -0.971196 0
M  V30 1702 C 169.591 -0.705748 -3.50363 0
M  V30 1703 C 169.42 -2.16297 -3.94266 0
M  V30 1704 C 168.19 -2.80614 -4.20219 0
M  V30 1705 C 170.388 -3.13606 -4.07622 0
M  V30 1706 N 168.37 -4.17007 -4.50532 0
M  V30 1707 C 169.741 -4.35051 -4.41736 0
M  V30 1708 C 171.796 -3.09491 -3.90026 0
M  V30 1709 C 170.499 -5.52911 -4.60089 0
M  V30 1710 C 172.525 -4.26616 -4.09576 0
M  V30 1711 C 171.887 -5.46825 -4.44029 0
M  V30 1712 H 167.986 -0.233168 -0.746429 0
M  V30 1713 H 170.57 -1.13408 -1.58261 0
M  V30 1714 H 168.741 -0.103976 -3.88261 0
M  V30 1715 H 170.473 -0.298291 -4.03599 0
M  V30 1716 H 167.228 -2.3152 -4.13153 0
M  V30 1717 H 167.652 -4.87426 -4.69834 0
M  V30 1718 H 172.294 -2.17657 -3.62471 0
M  V30 1719 H 170.012 -6.45255 -4.86489 0
M  V30 1720 H 173.598 -4.24894 -3.97438 0
M  V30 1721 H 172.478 -6.35947 -4.58848 0
M  V30 1722 N 169.982 1.44106 -0.638065 0
M  V30 1723 C 170.892 2.34513 0.0637334 0
M  V30 1724 C 171.908 1.53018 0.828346 0
M  V30 1725 O 173.084 1.85723 0.779036 0
M  V30 1726 C 170.149 3.31095 1.02844 0
M  V30 1727 C 169.21 4.28497 0.26244 0
M  V30 1728 C 168.443 5.20465 1.1812 0
M  V30 1729 O 168.666 5.16514 2.42011 0
M  V30 1730 O 167.6 5.98251 0.661774 0
M  V30 1731 H 171.426 2.95989 -0.68003 0
M  V30 1732 H 169.011 1.43994 -0.398252 0
M  V30 1733 H 170.893 3.90526 1.58327 0
M  V30 1734 H 169.568 2.72144 1.7527 0
M  V30 1735 H 168.475 3.72592 -0.335602 0
M  V30 1736 H 169.808 4.90388 -0.421936 0
M  V30 1737 N 171.46 0.379036 1.52974 0
M  V30 1738 C 172.423 -0.448865 2.24762 0
M  V30 1739 C 173.423 -0.998689 1.26027 0
M  V30 1740 O 174.613 -0.882313 1.50203 0
M  V30 1741 C 171.745 -1.62872 2.99476 0
M  V30 1742 H 172.938 0.179491 2.99362 0
M  V30 1743 H 170.491 0.13096 1.5575 0
M  V30 1744 H 171.226 -2.29479 2.29151 0
M  V30 1745 H 171.011 -1.24128 3.71934 0
M  V30 1746 H 172.501 -2.2151 3.5401 0
M  V30 1747 N 172.938 -1.57226 0.108567 0
M  V30 1748 C 174.354 -1.5766 -0.248058 0
M  V30 1749 C 174.554 -1.12063 -1.67464 0
M  V30 1750 O 173.61 -0.803236 -2.39383 0
M  V30 1751 C 174.923 -3.0069 -0.0242287 0
M  V30 1752 C 176.471 -3.12868 -0.0909372 0
M  V30 1753 C 176.946 -4.57879 0.105067 0
M  V30 1754 N 178.437 -4.63172 0.0506846 0
M  V30 1755 C 179.172 -5.73126 0.177396 0
M  V30 1756 N 178.668 -6.91866 0.359696 0
M  V30 1757 N 180.461 -5.61977 0.117709 0
M  V30 1758 H 172.612 -1.85169 1.04049 0
M  V30 1759 H 174.875 -0.85529 0.40888 0
M  V30 1760 H 174.581 -3.38299 0.961604 0
M  V30 1761 H 174.455 -3.6945 -0.76068 0
M  V30 1762 H 176.842 -2.75124 -1.06729 0
M  V30 1763 H 176.923 -2.46672 0.677225 0
M  V30 1764 H 176.567 -4.96321 1.07834 0
M  V30 1765 H 176.497 -5.22153 -0.682954 0
M  V30 1766 H 178.988 -3.778 -0.0871266 0
M  V30 1767 H 179.301 -7.71503 0.447529 0
M  V30 1768 H 177.646 -6.93874 0.395536 0
M  V30 1769 H 180.837 -4.68094 -0.0236741 0
M  V30 1770 H 181.01 -6.47627 0.219905 0
M  V30 1771 N 174.416 0.165178 -1.56732 0
M  V30 1772 C 175.641 0.900253 -1.86843 0
M  V30 1773 C 176.066 1.74766 -0.695596 0
M  V30 1774 O 175.424 1.77786 0.35522 0
M  V30 1775 C 175.472 1.74777 -3.15413 0
M  V30 1776 O 174.576 2.85007 -2.98068 0
M  V30 1777 H 173.917 0.251832 -0.614391 0
M  V30 1778 H 176.447 0.161468 -2.03962 0
M  V30 1779 H 176.457 2.14646 -3.46974 0
M  V30 1780 H 175.132 1.12537 -4.00385 0
M  V30 1781 H 173.709 2.48676 -2.77875 0
M  V30 1782 N 175.894 1.51508 0.433938 0
M  V30 1783 C 176.824 1.76016 1.53429 0
M  V30 1784 C 177.805 0.610112 1.58782 0
M  V30 1785 O 178.99 0.853177 1.74455 0
M  V30 1786 C 176.12 1.88831 2.9148 0
M  V30 1787 C 175.074 3.04288 3.00987 0
M  V30 1788 C 174.4 3.0229 4.4105 0
M  V30 1789 C 175.7 4.44193 2.74754 0
M  V30 1790 H 177.394 2.68152 1.33171 0
M  V30 1791 H 174.94 1.29035 0.639214 0
M  V30 1792 H 176.893 2.04559 3.6842 0
M  V30 1793 H 175.617 0.933455 3.12976 0
M  V30 1794 H 174.276 2.8827 2.26486 0
M  V30 1795 H 173.924 2.04576 4.59519 0
M  V30 1796 H 173.624 3.79822 4.4834 0
M  V30 1797 H 175.148 3.20116 5.1996 0
M  V30 1798 H 176.562 4.60544 3.41426 0
M  V30 1799 H 174.959 5.23457 2.9345 0
M  V30 1800 H 176.029 4.53996 1.70339 0
M  V30 1801 N 177.372 -0.689602 1.41712 0
M  V30 1802 C 178.597 -1.48329 1.44959 0
M  V30 1803 C 179.022 -1.8801 0.0581283 0
M  V30 1804 O 178.38 -1.55026 -0.940035 0
M  V30 1805 C 178.428 -2.71835 2.36935 0
M  V30 1806 O 177.532 -3.69549 1.8305 0
M  V30 1807 H 176.873 -0.446199 0.491734 0
M  V30 1808 H 179.403 -0.847127 1.86239 0
M  V30 1809 H 179.413 -3.20076 2.53013 0
M  V30 1810 H 178.088 -2.42291 3.38035 0
M  V30 1811 H 176.665 -3.2851 1.76452 0
M  V30 1812 N 178.85 -1.27639 -0.924453 0
M  V30 1813 C 180.075 -1.17101 -1.71179 0
M  V30 1814 C 180.5 0.268134 -1.86179 0
M  V30 1815 O 179.858 1.19415 -1.36418 0
M  V30 1816 C 179.906 -1.86313 -3.08739 0
M  V30 1817 O 179.01 -1.16331 -3.95652 0
M  V30 1818 H 178.351 -0.407091 -0.524569 0
M  V30 1819 H 180.881 -1.68767 -1.15666 0
M  V30 1820 H 180.891 -1.938 -3.59034 0
M  V30 1821 H 179.566 -2.91001 -2.97138 0
M  V30 1822 H 178.143 -1.16935 -3.54091 0
M  V30 1823 N 180.328 1.1314 -1.09713 0
M  V30 1824 C 181.576 1.84119 -0.833338 0
M  V30 1825 C 181.897 1.84097 0.642904 0
M  V30 1826 O 181.167 1.29881 1.46655 0
M  V30 1827 H 179.747 0.681766 -0.305293 0
M  V30 1828 H 182.409 1.37038 -1.38588 0
M  V30 1829 H 181.505 2.88543 -1.18951 0
M  V30 1830 N 181.806 0.884767 1.30421 0
M  V30 1831 C 182.753 0.349642 2.28136 0
M  V30 1832 C 183.723 -0.560061 1.56373 0
M  V30 1833 O 184.908 -0.488524 1.8444 0
M  V30 1834 C 182.048 -0.42999 3.42411 0
M  V30 1835 C 181.161 0.508907 4.28992 0
M  V30 1836 C 180.296 -0.286301 5.30428 0
M  V30 1837 C 179.335 0.648079 6.08659 0
M  V30 1838 N 178.472 -0.111792 7.02011 0
M  V30 1839 H 183.312 1.18807 2.73293 0
M  V30 1840 H 180.849 0.597231 1.3443 0
M  V30 1841 H 182.807 -0.897923 4.07423 0
M  V30 1842 H 181.437 -1.23299 2.98324 0
M  V30 1843 H 180.489 1.09533 3.64289 0
M  V30 1844 H 181.801 1.22475 4.8353 0
M  V30 1845 H 180.955 -0.816098 6.01186 0
M  V30 1846 H 179.694 -1.03536 4.76583 0
M  V30 1847 H 178.699 1.18951 5.36778 0
M  V30 1848 H 179.924 1.39623 6.64592 0
M  V30 1849 H 177.87 -0.843395 6.50556 0
M  V30 1850 H 177.787 0.544429 7.54037 0
M  V30 1851 H 179.055 -0.622339 7.77012 0
M  V30 1852 N 183.284 -1.43765 0.645699 0
M  V30 1853 C 184.512 -2.06253 0.163556 0
M  V30 1854 C 184.927 -1.48352 -1.16778 0
M  V30 1855 O 184.284 -0.611932 -1.71935 0
M  V30 1856 C 184.335 -3.61453 0.0583186 0
M  V30 1857 O 184.056 -4.172 1.33702 0
M  V30 1858 C 185.557 -4.41002 -0.450795 0
M  V30 1859 H 182.777 -0.665413 0.0864077 0
M  V30 1860 H 185.321 -1.84396 0.884222 0
M  V30 1861 H 183.476 -3.82522 -0.612865 0
M  V30 1862 H 183.89 -5.10791 1.19131 0
M  V30 1863 H 185.364 -5.49966 -0.473403 0
M  V30 1864 H 185.841 -4.13488 -1.48068 0
M  V30 1865 H 186.447 -4.24886 0.187637 0
M  V30 1866 N 184.763 -0.387143 -1.52771 0
M  V30 1867 C 186.011 0.195349 -2.01154 0
M  V30 1868 C 186.332 1.475 -1.27549 0
M  V30 1869 O 185.602 1.91878 -0.394924 0
M  V30 1870 H 184.182 0.075178 -0.743207 0
M  V30 1871 H 186.844 -0.518337 -1.87881 0
M  V30 1872 H 185.94 0.407096 -3.09434 0
M  V30 1873 N 186.241 1.57166 -0.116904 0
M  V30 1874 C 187.481 1.97008 0.544715 0
M  V30 1875 C 187.845 0.998713 1.63981 0
M  V30 1876 O 189.046 1.28644 2.36018 0
M  V30 1877 C 187.317 3.41145 1.06559 0
M  V30 1878 S 188.876 4.02998 1.73603 0
M  V30 1879 H 185.694 0.688587 0.177112 0
M  V30 1880 H 188.296 1.94459 -0.201487 0
M  V30 1881 H 187 4.09592 0.257374 0
M  V30 1882 H 186.531 3.4734 1.84712 0
M  V30 1883 H 188.546 3.93585 3.02168 0
M  V30 1884 N 187.719 -0.156864 1.56817 0
M  V30 1885 C 188.968 -0.869504 1.81996 0
M  V30 1886 C 189.281 -1.82777 0.696545 0
M  V30 1887 O 190.487 -2.58384 0.833658 0
M  V30 1888 C 188.943 -1.59679 3.22538 0
M  V30 1889 C 188.551 -0.681431 4.42787 0
M  V30 1890 C 190.295 -2.2968 3.56997 0
M  V30 1891 C 188.202 -1.40978 5.74351 0
M  V30 1892 H 187.132 -0.328438 0.678708 0
M  V30 1893 H 189.783 -0.1223 1.83092 0
M  V30 1894 H 188.165 -2.38927 3.158 0
M  V30 1895 H 189.339 0.0751166 4.60739 0
M  V30 1896 H 187.654 -0.0903431 4.16302 0
M  V30 1897 H 190.251 -2.84794 4.52544 0
M  V30 1898 H 190.594 -3.05707 2.82576 0
M  V30 1899 H 191.127 -1.57361 3.65352 0
M  V30 1900 H 187.866 -0.691561 6.51842 0
M  V30 1901 H 187.386 -2.13929 5.60352 0
M  V30 1902 H 189.065 -1.95337 6.16808 0
M  V30 1903 N 189.197 -1.51736 -0.425897 0
M  V30 1904 C 190.608 -1.5732 -1.00536 0
M  V30 1905 C 190.959 -0.403537 -1.92005 0
M  V30 1906 O 190.084 0.478256 -2.11049 0
M  V30 1907 C 190.679 -2.85119 -1.8301 0
M  V30 1908 C 189.238 -2.93236 -2.35987 0
M  V30 1909 C 188.385 -2.52098 -1.15508 0
M  V30 1910 H 191.336 -1.57348 -0.206739 0
M  V30 1911 H 191.357 -2.69526 -2.68581 0
M  V30 1912 H 190.869 -3.7023 -1.16411 0
M  V30 1913 H 188.97 -2.12581 -3.06007 0
M  V30 1914 H 189.083 -3.9713 -2.68001 0
M  V30 1915 H 187.447 -2.05558 -1.50393 0
M  V30 1916 H 188.23 -3.39565 -0.505014 0
M  V30 1917 N 190.675 0.682077 -1.42076 0
M  V30 1918 C 191.9 1.47558 -1.45744 0
M  V30 1919 C 192.325 1.87977 -0.0680981 0
M  V30 1920 O 191.683 1.55522 0.9318 0
M  V30 1921 C 191.731 2.70575 -2.38373 0
M  V30 1922 O 190.835 3.68573 -1.85007 0
M  V30 1923 H 190.176 0.443585 -0.494093 0
M  V30 1924 H 192.706 0.837238 -1.86686 0
M  V30 1925 H 192.716 3.18729 -2.54707 0
M  V30 1926 H 191.391 2.40495 -3.39315 0
M  V30 1927 H 189.968 3.2757 -1.78192 0
M  V30 1928 N 192.153 1.28127 0.917671 0
M  V30 1929 C 193.101 1.11569 2.04096 0
M  V30 1930 C 194.095 0.0360242 1.69362 0
M  V30 1931 O 195.301 0.194501 1.78946 0
M  V30 1932 H 191.676 0.344097 0.668656 0
M  V30 1933 H 193.647 2.06711 2.15205 0
M  V30 1934 C 192.396 0.790197 3.38602 0
M  V30 1935 H 191.719 1.61293 3.6582 0
M  V30 1936 H 193.159 0.714271 4.1794 0
M  V30 1937 C 191.618 -0.505897 3.3308 0
M  V30 1938 O 192.148 -1.53736 3.71117 0
M  V30 1939 N 190.354 -0.505193 2.86175 0
M  V30 1940 H 189.901 0.334621 2.55417 0
M  V30 1941 H 189.859 -1.37243 2.82863 0
M  V30 1942 N 193.631 -1.12557 1.10312 0
M  V30 1943 C 194.861 -1.87592 0.865617 0
M  V30 1944 C 195.269 -1.79851 -0.587389 0
M  V30 1945 O 194.612 -1.16949 -1.41664 0
M  V30 1946 C 194.674 -3.37665 1.23381 0
M  V30 1947 C 194.338 -3.69181 2.69359 0
M  V30 1948 C 195.335 -3.67652 3.67597 0
M  V30 1949 C 193.02 -3.98555 3.05711 0
M  V30 1950 C 195.014 -3.95053 5.00212 0
M  V30 1951 C 192.701 -4.25616 4.38514 0
M  V30 1952 C 193.699 -4.23851 5.35574 0
M  V30 1953 O 193.387 -4.50242 6.65986 0
M  V30 1954 H 193.119 -0.600442 0.310557 0
M  V30 1955 H 195.673 -1.4335 1.47105 0
M  V30 1956 H 193.903 -3.82454 0.571467 0
M  V30 1957 H 195.592 -3.94041 0.973994 0
M  V30 1958 H 196.358 -3.45024 3.40857 0
M  V30 1959 H 192.237 -3.99071 2.30789 0
M  V30 1960 H 195.781 -3.93591 5.75962 0
M  V30 1961 H 191.678 -4.47718 4.64994 0
M  V30 1962 H 192.446 -4.67867 6.71597 0
M  V30 1963 N 195.109 -0.891671 -1.2995 0
M  V30 1964 C 196.355 -0.514261 -1.96171 0
M  V30 1965 C 196.688 0.935506 -1.70182 0
M  V30 1966 O 195.963 1.66204 -1.01028 0
M  V30 1967 C 196.246 -0.797719 -3.51153 0
M  V30 1968 C 196.099 -2.2986 -3.86632 0
M  V30 1969 C 197.418 -0.278749 -4.39216 0
M  V30 1970 H 194.537 -0.188314 -0.712535 0
M  V30 1971 H 197.179 -1.11689 -1.53706 0
M  V30 1972 H 195.329 -0.284826 -3.87455 0
M  V30 1973 H 197.001 -2.88042 -3.60319 0
M  V30 1974 H 195.244 -2.76257 -3.34462 0
M  V30 1975 H 195.915 -2.44753 -4.94773 0
M  V30 1976 H 198.391 -0.717825 -4.09862 0
M  V30 1977 H 197.267 -0.506353 -5.46559 0
M  V30 1978 H 197.528 0.820266 -4.34424 0
M  V30 1979 N 196.587 1.43421 -0.653314 0
M  V30 1980 C 197.55 2.29182 0.0287951 0
M  V30 1981 C 198.55 1.42213 0.750465 0
M  V30 1982 O 199.74 1.63843 0.591701 0
M  V30 1983 C 196.872 3.24278 1.05151 0
M  V30 1984 H 198.065 2.90985 -0.725786 0
M  V30 1985 H 195.618 1.50702 -0.414545 0
M  V30 1986 H 196.353 2.6737 1.83532 0
M  V30 1987 H 196.138 3.88396 0.537687 0
M  V30 1988 H 197.628 3.88647 1.52786 0
M  V30 1989 N 198.065 0.39524 1.52563 0
M  V30 1990 C 199.476 -0.0774719 1.86539 0
M  V30 1991 C 199.827 -1.45641 1.31466 0
M  V30 1992 O 198.952 -2.06459 0.648367 0
M  V30 1993 C 199.547 -0.147356 3.38479 0
M  V30 1994 C 198.106 -0.564373 3.72145 0
M  V30 1995 C 197.253 0.269919 2.75983 0
M  V30 1996 H 200.204 0.612876 1.46388 0
M  V30 1997 H 200.225 -0.965343 3.68051 0
M  V30 1998 H 199.737 0.856387 3.78534 0
M  V30 1999 H 197.838 -1.57527 3.37663 0
M  V30 2000 H 197.951 -0.318402 4.78041 0
M  V30 2001 H 196.315 -0.265696 2.5331 0
M  V30 2002 H 197.098 1.27175 3.18875 0
M  V30 2003 N 199.544 -1.57102 0.125237 0
M  V30 2004 C 200.79 -1.95697 -0.532035 0
M  V30 2005 C 201.123 -1.009 -1.6593 0
M  V30 2006 O 200.398 -0.047347 -1.94442 0
M  V30 2007 C 200.681 -3.44181 -1.05884 0
M  V30 2008 C 200.534 -4.49752 0.0654392 0
M  V30 2009 C 201.853 -3.94655 -1.9477 0
M  V30 2010 H 198.972 -0.711571 -0.191925 0
M  V30 2011 H 201.614 -1.88923 0.20206 0
M  V30 2012 H 199.764 -3.50085 -1.68442 0
M  V30 2013 H 201.436 -4.55943 0.700982 0
M  V30 2014 H 199.679 -4.27653 0.727709 0
M  V30 2015 H 200.35 -5.50924 -0.344505 0
M  V30 2016 H 202.826 -3.91094 -1.42074 0
M  V30 2017 H 201.702 -4.99057 -2.28546 0
M  V30 2018 H 201.963 -3.35718 -2.87656 0
M  V30 2019 N 201.022 0.148545 -1.56898 0
M  V30 2020 C 202.299 0.890019 -1.74178 0
M  V30 2021 C 202.679 1.99407 -0.692839 0
M  V30 2022 O 202.027 2.26671 0.288505 0
M  V30 2023 C 202.237 1.43389 -3.18183 0
M  V30 2024 C 203.585 1.89791 -3.79822 0
M  V30 2025 O 204.609 1.53134 -3.21603 0
M  V30 2026 O 203.468 2.57387 -4.82093 0
M  V30 2027 H 200.562 0.420496 -0.712118 0
M  V30 2028 H 203.108 0.134591 -1.69165 0
M  V30 2029 H 201.88 0.640383 -3.86024 0
M  V30 2030 H 201.503 2.25287 -3.27615 0
M  V30 2031 N 202.5 1.5196 0.417844 0
M  V30 2032 C 203.725 1.69717 1.1921 0
M  V30 2033 C 204.15 0.402148 1.83751 0
M  V30 2034 O 203.508 -0.639593 1.69643 0
M  V30 2035 C 203.556 2.82794 2.2374 0
M  V30 2036 O 202.66 2.47756 3.29683 0
M  V30 2037 H 202.001 0.565263 0.348387 0
M  V30 2038 H 204.531 1.98621 0.490985 0
M  V30 2039 H 204.541 3.07452 2.68212 0
M  V30 2040 H 203.216 3.76756 1.76146 0
M  V30 2041 H 201.793 2.33739 2.90552 0
M  V30 2042 N 203.978 -0.674533 1.42435 0
M  V30 2043 C 205.227 -1.43034 1.42212 0
M  V30 2044 C 205.54 -1.95555 0.0420788 0
M  V30 2045 O 206.746 -2.71374 -0.0827558 0
M  V30 2046 C 205.202 -2.58748 2.50155 0
M  V30 2047 C 204.81 -2.12925 3.94166 0
M  V30 2048 C 206.554 -3.36257 2.59098 0
M  V30 2049 C 204.461 -3.25723 4.93618 0
M  V30 2050 H 203.391 -0.537345 0.528939 0
M  V30 2051 H 206.042 -0.73024 1.68344 0
M  V30 2052 H 204.424 -3.31128 2.17188 0
M  V30 2053 H 205.598 -1.47697 4.36488 0
M  V30 2054 H 203.913 -1.48354 3.89076 0
M  V30 2055 H 206.51 -4.20264 3.30578 0
M  V30 2056 H 206.853 -3.82866 1.63461 0
M  V30 2057 H 207.386 -2.70947 2.9126 0
M  V30 2058 H 204.125 -2.84105 5.90732 0
M  V30 2059 H 203.645 -3.89732 4.55926 0
M  V30 2060 H 205.324 -3.91186 5.15347 0
M  V30 2061 N 205.456 -1.28612 -0.910864 0
M  V30 2062 C 206.388 -1.08589 -2.01844 0
M  V30 2063 C 207.401 -0.0367419 -1.62759 0
M  V30 2064 O 208.59 -0.280101 -1.76289 0
M  V30 2065 C 205.69 -0.628626 -3.33019 0
M  V30 2066 C 204.863 -1.75382 -4.00699 0
M  V30 2067 C 203.922 -1.28945 -5.10156 0
M  V30 2068 O 202.948 -1.9922 -5.33198 0
M  V30 2069 N 204.15 -0.154224 -5.80295 0
M  V30 2070 H 206.915 -2.03973 -2.19579 0
M  V30 2071 H 204.476 -1.20403 -1.08234 0
M  V30 2072 H 206.468 -0.301508 -4.03575 0
M  V30 2073 H 205.038 0.232451 -3.11735 0
M  V30 2074 H 204.258 -2.25039 -3.23653 0
M  V30 2075 H 205.546 -2.50854 -4.42662 0
M  V30 2076 H 204.944 0.43194 -5.64049 0
M  V30 2077 H 203.501 0.113599 -6.51701 0
M  V30 2078 N 206.934 1.1197 -1.10907 0
M  V30 2079 C 207.897 2.16031 -0.765707 0
M  V30 2080 C 208.897 1.59393 0.212235 0
M  V30 2081 O 210.087 1.74196 -0.0115441 0
M  V30 2082 C 207.219 3.40632 -0.135053 0
M  V30 2083 H 208.412 2.47919 -1.68748 0
M  V30 2084 H 205.965 1.27061 -0.910226 0
M  V30 2085 H 206.7 3.14348 0.797218 0
M  V30 2086 H 206.485 3.8302 -0.838937 0
M  V30 2087 H 207.975 4.17505 0.0892469 0
M  V30 2088 N 208.412 0.89855 1.29475 0
M  V30 2089 C 209.322 0.379974 2.31502 0
M  V30 2090 C 210.338 -0.524695 1.659 0
M  V30 2091 O 211.514 -0.414551 1.97087 0
M  V30 2092 C 208.579 -0.385138 3.44554 0
M  V30 2093 C 207.64 0.550914 4.2575 0
M  V30 2094 C 206.873 -0.177778 5.33404 0
M  V30 2095 O 207.096 -1.40189 5.52904 0
M  V30 2096 O 206.03 0.479106 5.9999 0
M  V30 2097 H 209.856 1.22639 2.77837 0
M  V30 2098 H 207.441 0.662834 1.33891 0
M  V30 2099 H 209.323 -0.817841 4.13388 0
M  V30 2100 H 207.998 -1.20763 3.0033 0
M  V30 2101 H 206.905 1.03271 3.59564 0
M  V30 2102 H 208.238 1.33979 4.73614 0
M  V30 2103 N 209.89 -1.43072 0.660911 0
M  V30 2104 C 210.8 -2.34585 -0.0264163 0
M  V30 2105 C 211.816 -1.54316 -0.803898 0
M  V30 2106 O 212.992 -1.86939 -0.749391 0
M  V30 2107 C 210.057 -3.32689 -0.975639 0
M  V30 2108 C 209.118 -4.2886 -0.194236 0
M  V30 2109 C 208.351 -5.22278 -1.09825 0
M  V30 2110 O 208.574 -5.20299 -2.33763 0
M  V30 2111 O 207.508 -5.99228 -0.566513 0
M  V30 2112 H 211.334 -2.94869 0.727034 0
M  V30 2113 H 208.919 -1.43342 0.42111 0
M  V30 2114 H 210.801 -3.92995 -1.52094 0
M  V30 2115 H 209.476 -2.74898 -1.70918 0
M  V30 2116 H 208.383 -3.72011 0.394835 0
M  V30 2117 H 209.716 -4.89655 0.499899 0
M  V30 2118 N 211.368 -0.403325 -1.52352 0
M  V30 2119 C 212.614 0.167015 -2.02713 0
M  V30 2120 C 212.969 1.43296 -1.28391 0
M  V30 2121 O 212.262 1.87796 -0.379885 0
M  V30 2122 C 212.456 0.474665 -3.54234 0
M  V30 2123 C 212.285 -0.759909 -4.43233 0
M  V30 2124 C 211.055 -1.28338 -4.88731 0
M  V30 2125 C 213.253 -1.63634 -4.87574 0
M  V30 2126 N 211.235 -2.47404 -5.6184 0
M  V30 2127 C 212.606 -2.67329 -5.59406 0
M  V30 2128 C 214.661 -1.65478 -4.69597 0
M  V30 2129 C 213.364 -3.72773 -6.15169 0
M  V30 2130 C 215.39 -2.69837 -5.26253 0
M  V30 2131 C 214.752 -3.72253 -5.98002 0
M  V30 2132 H 210.851 0.0228343 -0.781667 0
M  V30 2133 H 213.435 -0.556368 -1.86581 0
M  V30 2134 H 211.606 1.16709 -3.7045 0
M  V30 2135 H 213.338 1.03338 -3.91284 0
M  V30 2136 H 210.093 -0.842273 -4.6605 0
M  V30 2137 H 210.517 -3.07688 -6.0304 0
M  V30 2138 H 215.159 -0.876389 -4.13617 0
M  V30 2139 H 212.877 -4.51471 -6.70223 0
M  V30 2140 H 216.463 -2.72164 -5.14216 0
M  V30 2141 H 215.343 -4.51679 -6.41058 0
M  V30 2142 N 212.846 1.57033 -0.133567 0
M  V30 2143 C 214.076 1.99754 0.527429 0
M  V30 2144 C 214.484 1.01245 1.59832 0
M  V30 2145 O 213.827 -0.000645496 1.837 0
M  V30 2146 C 213.889 3.38903 1.19939 0
M  V30 2147 C 213.553 4.56174 0.274709 0
M  V30 2148 C 214.55 5.17563 -0.492398 0
M  V30 2149 C 212.235 5.01972 0.18153 0
M  V30 2150 C 214.229 6.2315 -1.34027 0
M  V30 2151 C 211.916 6.07416 -0.669958 0
M  V30 2152 C 212.914 6.67874 -1.42947 0
M  V30 2153 O 212.602 7.71279 -2.2668 0
M  V30 2154 H 212.334 0.660702 0.142999 0
M  V30 2155 H 214.888 2.04207 -0.221099 0
M  V30 2156 H 213.118 3.31248 1.99528 0
M  V30 2157 H 214.807 3.65818 1.75875 0
M  V30 2158 H 215.573 4.83087 -0.430367 0
M  V30 2159 H 211.452 4.54652 0.762422 0
M  V30 2160 H 214.996 6.70268 -1.93357 0
M  V30 2161 H 210.893 6.41321 -0.73333 0
M  V30 2162 H 211.661 7.88441 -2.1978 0
M  V30 2163 N 214.325 -0.140222 1.56975 0
M  V30 2164 C 215.572 -0.851687 1.83719 0
M  V30 2165 C 215.9 -1.80862 0.715485 0
M  V30 2166 O 215.155 -1.93464 -0.294956 0
M  V30 2167 C 215.454 -1.65386 3.16832 0
M  V30 2168 C 215.12 -0.843112 4.42947 0
M  V30 2169 C 213.782 -0.619464 4.77196 0
M  V30 2170 C 216.134 -0.276582 5.20466 0
M  V30 2171 C 213.462 0.181312 5.8642 0
M  V30 2172 C 215.814 0.51127 6.30531 0
M  V30 2173 C 214.478 0.745432 6.63325 0
M  V30 2174 H 213.748 -0.311654 0.672274 0
M  V30 2175 H 216.395 -0.115006 1.91154 0
M  V30 2176 H 214.7 -2.46084 3.04877 0
M  V30 2177 H 216.397 -2.20793 3.34741 0
M  V30 2178 H 212.987 -1.0275 4.16101 0
M  V30 2179 H 217.171 -0.436632 4.94376 0
M  V30 2180 H 212.427 0.372165 6.10266 0
M  V30 2181 H 216.601 0.957354 6.89788 0
M  V30 2182 H 214.228 1.36778 7.47794 0
M  V30 2183 N 215.803 -1.52179 -0.40978 0
M  V30 2184 C 217.051 -1.65878 -1.15451 0
M  V30 2185 C 217.372 -0.390771 -1.91044 0
M  V30 2186 O 216.642 0.594323 -1.86667 0
M  V30 2187 H 215.222 -0.611405 -0.429177 0
M  V30 2188 H 217.884 -1.89219 -0.467134 0
M  V30 2189 H 216.98 -2.49954 -1.86894 0
M  V30 2190 N 217.281 0.66697 -1.42791 0
M  V30 2191 C 218.228 1.7803 -1.4688 0
M  V30 2192 C 219.198 1.6299 -0.319919 0
M  V30 2193 O 220.383 1.83432 -0.525118 0
M  V30 2194 C 217.523 3.1611 -1.38451 0
M  V30 2195 C 216.636 3.42381 -2.63437 0
M  V30 2196 C 215.771 4.70232 -2.47094 0
M  V30 2197 C 214.81 4.89564 -3.67415 0
M  V30 2198 N 213.947 6.08661 -3.49966 0
M  V30 2199 H 218.787 1.7387 -2.42019 0
M  V30 2200 H 216.324 0.84868 -1.20149 0
M  V30 2201 H 218.282 3.95914 -1.31561 0
M  V30 2202 H 216.912 3.19374 -0.469033 0
M  V30 2203 H 215.964 2.56774 -2.80662 0
M  V30 2204 H 217.276 3.52557 -3.52853 0
M  V30 2205 H 216.43 5.5814 -2.37834 0
M  V30 2206 H 215.169 4.62353 -1.5518 0
M  V30 2207 H 214.174 4.00096 -3.77099 0
M  V30 2208 H 215.399 4.99282 -4.6032 0
M  V30 2209 H 213.345 6.0194 -2.60776 0
M  V30 2210 H 213.262 6.19733 -4.32975 0
M  V30 2211 H 214.53 6.99226 -3.44532 0
M  V30 2212 N 218.759 1.29093 0.90403 0
M  V30 2213 C 220.008 1.16187 1.64874 0
M  V30 2214 C 220.321 -0.286742 1.93487 0
M  V30 2215 O 221.527 -0.537062 2.66135 0
M  V30 2216 C 219.983 2.03177 2.97064 0
M  V30 2217 C 219.591 3.52836 2.76062 0
M  V30 2218 C 221.335 1.98984 3.74974 0
M  V30 2219 C 219.242 4.31945 4.03952 0
M  V30 2220 H 218.172 0.431246 0.618501 0
M  V30 2221 H 220.823 1.53699 1.00243 0
M  V30 2222 H 219.205 1.5853 3.62883 0
M  V30 2223 H 220.379 4.05507 2.18863 0
M  V30 2224 H 218.694 3.58656 2.11553 0
M  V30 2225 H 221.291 2.55351 4.69787 0
M  V30 2226 H 221.634 0.968815 4.0487 0
M  V30 2227 H 222.167 2.41652 3.15989 0
M  V30 2228 H 218.906 5.34667 3.79225 0
M  V30 2229 H 218.426 3.84045 4.60727 0
M  V30 2230 H 220.105 4.42379 4.72133 0
M  V30 2231 N 220.237 -1.11381 1.11499 0
M  V30 2232 C 221.485 -1.8277 0.862524 0
M  V30 2233 C 221.806 -1.85097 -0.613534 0
M  V30 2234 O 221.076 -1.32198 -1.4457 0
M  V30 2235 H 219.656 -0.676823 0.316101 0
M  V30 2236 H 222.318 -1.34816 1.4075 0
M  V30 2237 H 221.414 -2.86614 1.23527 0
M  V30 2238 N 221.715 -0.905404 -1.28997 0
M  V30 2239 C 223.131 -0.60233 -1.47798 0
M  V30 2240 C 223.331 0.854645 -1.82478 0
M  V30 2241 O 222.387 1.63439 -1.92468 0
M  V30 2242 C 223.7 -1.53306 -2.58685 0
M  V30 2243 C 225.248 -1.53887 -2.72558 0
M  V30 2244 C 225.723 -2.45602 -3.86579 0
M  V30 2245 N 227.214 -2.43681 -3.93921 0
M  V30 2246 C 227.949 -3.11347 -4.81509 0
M  V30 2247 N 227.445 -3.88313 -5.73746 0
M  V30 2248 N 229.238 -3.00476 -4.75048 0
M  V30 2249 H 221.389 -1.84765 -1.04764 0
M  V30 2250 H 223.652 -0.792025 -0.520961 0
M  V30 2251 H 223.358 -2.57141 -2.39941 0
M  V30 2252 H 223.232 -1.25787 -3.55609 0
M  V30 2253 H 225.619 -0.507941 -2.90696 0
M  V30 2254 H 225.7 -1.85447 -1.76191 0
M  V30 2255 H 225.344 -3.48792 -3.69197 0
M  V30 2256 H 225.274 -2.11349 -4.82327 0
M  V30 2257 H 227.765 -1.87767 -3.27951 0
M  V30 2258 H 228.078 -4.36985 -6.37389 0
M  V30 2259 H 226.423 -3.92419 -5.73614 0
M  V30 2260 H 229.614 -2.39858 -4.01977 0
M  V30 2261 H 229.787 -3.53485 -5.43095 0
M  V30 2262 N 223.193 1.4272 -0.668489 0
M  V30 2263 C 224.14 2.30796 0.0137489 0
M  V30 2264 C 225.11 1.4561 0.799177 0
M  V30 2265 O 226.295 1.74453 0.772702 0
M  V30 2266 C 223.435 3.31377 0.963507 0
M  V30 2267 C 222.548 4.31655 0.172569 0
M  V30 2268 C 221.683 5.19312 1.1175 0
M  V30 2269 C 220.722 6.11274 0.317886 0
M  V30 2270 N 219.859 6.91504 1.2152 0
M  V30 2271 H 224.699 2.88585 -0.743161 0
M  V30 2272 H 222.236 1.42154 -0.378226 0
M  V30 2273 H 224.194 3.88214 1.52792 0
M  V30 2274 H 222.824 2.75202 1.68712 0
M  V30 2275 H 221.876 3.76988 -0.508374 0
M  V30 2276 H 223.188 4.96779 -0.448527 0
M  V30 2277 H 222.342 5.80851 1.75206 0
M  V30 2278 H 221.081 4.5435 1.77249 0
M  V30 2279 H 220.086 5.48809 -0.329918 0
M  V30 2280 H 221.311 6.78283 -0.332917 0
M  V30 2281 H 219.257 6.29176 1.85671 0
M  V30 2282 H 219.174 7.53209 0.649036 0
M  V30 2283 H 220.442 7.57535 1.83742 0
M  V30 2284 N 224.671 0.411399 1.52136 0
M  V30 2285 C 225.948 -0.222308 1.94333 0
M  V30 2286 C 226.328 -1.6242 1.34844 0
M  V30 2287 O 225.676 -2.22384 0.525145 0
M  V30 2288 C 225.886 -0.226345 3.48265 0
M  V30 2289 C 227.234 -0.444592 4.22266 0
M  V30 2290 O 228.258 -0.305602 3.54887 0
M  V30 2291 O 227.117 -0.718749 5.41753 0
M  V30 2292 H 224.211 -0.143907 0.814383 0
M  V30 2293 H 226.757 0.467506 1.63133 0
M  V30 2294 H 225.529 0.75475 3.83952 0
M  V30 2295 H 225.152 -0.960163 3.85832 0
M  V30 2296 N 226.149 -1.5696 0.141893 0
M  V30 2297 C 227.112 -2.15316 -0.785587 0
M  V30 2298 C 228.112 -1.09366 -1.1788 0
M  V30 2299 O 229.302 -1.35031 -1.10056 0
M  V30 2300 C 226.434 -2.71211 -2.06537 0
M  V30 2301 H 227.627 -2.98608 -0.278041 0
M  V30 2302 H 225.18 -1.5593 -0.107519 0
M  V30 2303 H 225.915 -1.91571 -2.6167 0
M  V30 2304 H 225.7 -3.4872 -1.79268 0
M  V30 2305 H 227.19 -3.16189 -2.72789 0
M  V30 2306 N 227.627 0.131896 -1.57047 0
M  V30 2307 C 228.537 1.1815 -2.02676 0
M  V30 2308 C 229.553 1.46113 -0.944824 0
M  V30 2309 O 230.729 1.57485 -1.25541 0
M  V30 2310 C 227.794 2.49139 -2.41103 0
M  V30 2311 C 226.855 2.28688 -3.63318 0
M  V30 2312 C 226.088 3.53431 -3.99903 0
M  V30 2313 O 226.311 4.60223 -3.36973 0
M  V30 2314 O 225.245 3.45198 -4.93074 0
M  V30 2315 H 229.071 0.824069 -2.92306 0
M  V30 2316 H 226.656 0.341745 -1.45439 0
M  V30 2317 H 228.538 3.26338 -2.66611 0
M  V30 2318 H 227.213 2.84382 -1.54624 0
M  V30 2319 H 226.12 1.4939 -3.42977 0
M  V30 2320 H 227.453 1.98355 -4.50462 0
M  V30 2321 N 229.106 1.52395 0.401703 0
M  V30 2322 C 230.522 1.41363 0.740864 0
M  V30 2323 C 230.722 0.523982 1.94568 0
M  V30 2324 O 229.778 -0.00741204 2.52499 0
M  V30 2325 C 231.091 2.84011 0.987847 0
M  V30 2326 C 232.639 2.93404 1.09011 0
M  V30 2327 C 233.114 4.37036 1.3698 0
M  V30 2328 N 234.605 4.40304 1.43829 0
M  V30 2329 C 235.34 5.48508 1.67112 0
M  V30 2330 N 234.836 6.66819 1.87949 0
M  V30 2331 N 236.629 5.36034 1.69187 0
M  V30 2332 H 228.78 2.08765 -0.391262 0
M  V30 2333 H 231.043 0.941265 -0.112798 0
M  V30 2334 H 230.749 3.51265 0.174835 0
M  V30 2335 H 230.623 3.25502 1.906 0
M  V30 2336 H 233.01 2.26325 1.8937 0
M  V30 2337 H 233.091 2.55359 0.15015 0
M  V30 2338 H 232.735 5.04676 0.571353 0
M  V30 2339 H 232.665 4.72623 2.3224 0
M  V30 2340 H 235.156 3.55024 1.29486 0
M  V30 2341 H 235.469 7.45063 2.05185 0
M  V30 2342 H 233.814 6.6987 1.85199 0
M  V30 2343 H 237.005 4.42579 1.52451 0
M  V30 2344 H 237.178 6.20434 1.86993 0
M  V30 2345 N 230.584 -0.659388 1.43143 0
M  V30 2346 C 231.516 -1.7849 1.43784 0
M  V30 2347 C 232.529 -1.5932 0.334787 0
M  V30 2348 O 233.718 -1.68155 0.598842 0
M  V30 2349 C 230.818 -3.15828 1.22906 0
M  V30 2350 C 229.991 -3.61711 2.45934 0
M  V30 2351 C 229.05 -4.77831 2.20371 0
M  V30 2352 O 228.076 -4.87586 2.93681 0
M  V30 2353 N 229.278 -5.67611 1.21647 0
M  V30 2354 H 232.043 -1.7842 2.40803 0
M  V30 2355 H 229.604 -0.84302 1.3822 0
M  V30 2356 H 231.596 -3.91189 1.03697 0
M  V30 2357 H 230.166 -3.10707 0.343542 0
M  V30 2358 H 229.386 -2.76861 2.80609 0
M  V30 2359 H 230.674 -3.89112 3.27825 0
M  V30 2360 H 230.072 -5.62397 0.610449 0
M  V30 2361 H 228.629 -6.42719 1.08423 0
M  V30 2362 N 232.062 -1.29571 -0.897171 0
M  V30 2363 C 232.992 -1.17473 -2.01798 0
M  V30 2364 C 233.973 -0.068323 -1.69963 0
M  V30 2365 O 235.158 -0.248239 -1.92607 0
M  V30 2366 C 232.288 -0.853099 -3.36659 0
M  V30 2367 C 231.242 -1.9161 -3.82713 0
M  V30 2368 C 230.568 -1.44773 -5.14728 0
M  V30 2369 C 231.868 -3.32535 -4.02763 0
M  V30 2370 H 233.562 -2.11237 -2.12177 0
M  V30 2371 H 231.108 -1.01699 -1.01948 0
M  V30 2372 H 233.061 -0.755165 -4.14578 0
M  V30 2373 H 231.785 0.120236 -3.26379 0
M  V30 2374 H 230.444 -2.00346 -3.07013 0
M  V30 2375 H 230.092 -0.462995 -5.00865 0
M  V30 2376 H 229.792 -2.15865 -5.46513 0
M  V30 2377 H 231.316 -1.36334 -5.95185 0
M  V30 2378 H 232.73 -3.26626 -4.71156 0
M  V30 2379 H 231.127 -4.01607 -4.45905 0
M  V30 2380 H 232.197 -3.75326 -3.07016 0
M  V30 2381 N 233.54 1.10788 -1.12088 0
M  V30 2382 C 234.47 2.19083 -0.807755 0
M  V30 2383 C 235.451 1.6858 0.226859 0
M  V30 2384 O 236.636 1.93997 0.0888475 0
M  V30 2385 C 233.766 3.46344 -0.257576 0
M  V30 2386 C 232.72 4.101 -1.22483 0
M  V30 2387 C 232.046 5.32016 -0.535052 0
M  V30 2388 C 233.346 4.54236 -2.57811 0
M  V30 2389 H 235.04 2.45534 -1.71328 0
M  V30 2390 H 232.586 1.1801 -0.825205 0
M  V30 2391 H 234.539 4.21392 -0.0262679 0
M  V30 2392 H 233.263 3.19373 0.683278 0
M  V30 2393 H 231.922 3.37054 -1.44189 0
M  V30 2394 H 231.57 5.01319 0.410827 0
M  V30 2395 H 231.27 5.75625 -1.18024 0
M  V30 2396 H 232.794 6.09799 -0.312695 0
M  V30 2397 H 234.208 5.20575 -2.40155 0
M  V30 2398 H 232.605 5.08682 -3.18375 0
M  V30 2399 H 233.675 3.6734 -3.16528 0
M  V30 2400 N 235.018 0.912232 1.28515 0
M  V30 2401 C 236.243 0.559774 1.99703 0
M  V30 2402 C 236.668 -0.851393 1.67729 0
M  V30 2403 O 236.026 -1.56875 0.908834 0
M  V30 2404 C 236.074 0.773874 3.52198 0
M  V30 2405 O 235.178 -0.167842 4.12058 0
M  V30 2406 H 234.519 0.21723 0.627461 0
M  V30 2407 H 237.049 1.22725 1.63706 0
M  V30 2408 H 237.059 0.683386 4.02236 0
M  V30 2409 H 235.734 1.80261 3.74805 0
M  V30 2410 H 234.311 -0.0287509 3.72889 0
M  V30 2411 N 236.496 -1.42363 0.676048 0
M  V30 2412 C 237.907 -1.84649 0.275948 0
M  V30 2413 C 238.258 -1.56588 -1.18214 0
M  V30 2414 O 237.383 -1.02634 -1.90513 0
M  V30 2415 C 237.978 -3.35178 0.494053 0
M  V30 2416 C 236.537 -3.76109 0.148061 0
M  V30 2417 C 235.684 -2.65931 0.785891 0
M  V30 2418 H 238.635 -1.32192 0.878121 0
M  V30 2419 H 238.656 -3.79655 -0.25343 0
M  V30 2420 H 238.168 -3.55571 1.55535 0
M  V30 2421 H 236.269 -3.61323 -0.909742 0
M  V30 2422 H 236.382 -4.7546 0.589454 0
M  V30 2423 H 234.746 -2.53773 0.217113 0
M  V30 2424 H 235.529 -2.89146 1.85067 0
M  V30 2425 N 237.974 -0.419461 -1.51915 0
M  V30 2426 C 239.222 0.152637 -2.01523 0
M  V30 2427 C 239.543 1.44762 -1.30649 0
M  V30 2428 O 238.813 1.90997 -0.435535 0
M  V30 2429 H 237.393 0.0593966 -0.744635 0
M  V30 2430 H 240.055 -0.558073 -1.86739 0
M  V30 2431 H 239.151 0.341369 -3.10227 0
M  V30 2432 N 239.452 1.56882 -0.150215 0
M  V30 2433 C 240.4 2.18214 0.805313 0
M  V30 2434 C 241.394 1.14006 1.25296 0
M  V30 2435 O 242.6 1.3225 1.22107 0
M  V30 2436 H 238.975 0.698762 0.277913 0
M  V30 2437 H 240.946 2.97231 0.263862 0
M  V30 2438 C 239.695 2.82065 2.03309 0
M  V30 2439 H 239.018 3.61968 1.69763 0
M  V30 2440 H 240.458 3.28477 2.68103 0
M  V30 2441 C 238.917 1.80739 2.84315 0
M  V30 2442 O 239.447 1.27983 3.80767 0
M  V30 2443 N 237.653 1.4997 2.48913 0
M  V30 2444 H 237.2 1.93062 1.70542 0
M  V30 2445 H 237.158 0.824217 3.03404 0
M  V30 2446 N 240.93 -0.123565 1.57115 0
M  V30 2447 C 242.341 -0.681198 1.73829 0
M  V30 2448 C 242.692 -1.80535 0.768214 0
M  V30 2449 O 241.817 -2.16317 -0.0599103 0
M  V30 2450 C 242.412 -1.24246 3.15196 0
M  V30 2451 C 240.971 -1.74643 3.33432 0
M  V30 2452 C 240.118 -0.644284 2.69711 0
M  V30 2453 H 243.069 0.102315 1.5837 0
M  V30 2454 H 243.09 -2.11216 3.16493 0
M  V30 2455 H 242.602 -0.424062 3.85776 0
M  V30 2456 H 240.703 -2.58974 2.67886 0
M  V30 2457 H 240.816 -1.85902 4.41562 0
M  V30 2458 H 239.18 -1.07676 2.3082 0
M  V30 2459 H 239.963 0.163058 3.42913 0
M  V30 2460 N 242.408 -1.52605 -0.393616 0
M  V30 2461 C 243.34 -1.73303 -1.49995 0
M  V30 2462 C 244.353 -0.613473 -1.50799 0
M  V30 2463 O 245.542 -0.889049 -1.54784 0
M  V30 2464 C 242.642 -1.77245 -2.88855 0
M  V30 2465 C 241.815 -3.06483 -3.12069 0
M  V30 2466 C 240.874 -3.02033 -4.30886 0
M  V30 2467 O 239.9 -3.75907 -4.27414 0
M  V30 2468 N 241.102 -2.20897 -5.36828 0
M  V30 2469 H 243.867 -2.68756 -1.32629 0
M  V30 2470 H 241.428 -1.51036 -0.583083 0
M  V30 2471 H 243.42 -1.7178 -3.66434 0
M  V30 2472 H 241.99 -0.891993 -2.99603 0
M  V30 2473 H 241.21 -3.25474 -2.22396 0
M  V30 2474 H 242.498 -3.91947 -3.2443 0
M  V30 2475 H 241.896 -1.60336 -5.42502 0
M  V30 2476 H 240.453 -2.21275 -6.13091 0
M  V30 2477 N 243.887 0.651787 -1.4349 0
M  V30 2478 C 245.135 1.40888 -1.44897 0
M  V30 2479 C 245.456 1.94856 -0.0749086 0
M  V30 2480 O 244.726 1.74518 0.889956 0
M  V30 2481 H 243.306 0.522887 -0.533478 0
M  V30 2482 H 245.968 0.768609 -1.79104 0
M  V30 2483 H 245.064 2.25052 -2.16236 0
M  V30 2484 N 245.365 1.30045 0.890287 0
M  V30 2485 C 246.328 1.15963 1.977 0
M  V30 2486 C 247.328 0.0923777 1.60534 0
M  V30 2487 O 248.518 0.340071 1.70848 0
M  V30 2488 C 245.65 0.775451 3.31963 0
M  V30 2489 H 246.843 2.12502 2.11619 0
M  V30 2490 H 244.396 1.13366 1.07601 0
M  V30 2491 H 245.131 -0.189671 3.23745 0
M  V30 2492 H 244.916 1.54668 3.60306 0
M  V30 2493 H 246.406 0.700251 4.11687 0
M  V30 2494 N 246.843 -1.10192 1.12674 0
M  V30 2495 C 248.09 -1.82205 0.883606 0
M  V30 2496 C 248.418 -1.8532 -0.590492 0
M  V30 2497 O 247.673 -1.31137 -1.45264 0
M  V30 2498 C 247.972 -3.28552 1.4067 0
M  V30 2499 C 247.638 -3.45582 2.89627 0
M  V30 2500 C 246.3 -3.49937 3.30299 0
M  V30 2501 C 248.652 -3.50768 3.85501 0
M  V30 2502 C 245.98 -3.57049 4.65546 0
M  V30 2503 C 248.332 -3.59414 5.20581 0
M  V30 2504 C 246.996 -3.62034 5.60792 0
M  V30 2505 H 246.266 -0.666735 0.323334 0
M  V30 2506 H 248.913 -1.29868 1.40736 0
M  V30 2507 H 247.218 -3.83473 0.80347 0
M  V30 2508 H 248.915 -3.82788 1.19475 0
M  V30 2509 H 245.505 -3.42871 2.57172 0
M  V30 2510 H 249.689 -3.46651 3.55171 0
M  V30 2511 H 244.945 -3.57361 4.96088 0
M  V30 2512 H 249.119 -3.62371 5.94693 0
M  V30 2513 H 246.746 -3.67298 6.6558 0
M  V30 2514 N 248.321 -0.919034 -1.28029 0
M  V30 2515 C 249.251 -0.428581 -2.29533 0
M  V30 2516 C 250.232 0.50659 -1.62381 0
M  V30 2517 O 251.417 0.413195 -1.89753 0
M  V30 2518 C 248.547 0.327388 -3.45753 0
M  V30 2519 C 247.501 -0.519137 -4.2484 0
M  V30 2520 C 246.827 0.365486 -5.33449 0
M  V30 2521 C 248.127 -1.77914 -4.91064 0
M  V30 2522 H 249.821 -1.27687 -2.70807 0
M  V30 2523 H 247.367 -0.615428 -1.30186 0
M  V30 2524 H 249.32 0.681378 -4.15855 0
M  V30 2525 H 248.044 1.20963 -3.03374 0
M  V30 2526 H 246.703 -0.855717 -3.56473 0
M  V30 2527 H 246.351 1.24642 -4.87312 0
M  V30 2528 H 246.051 -0.197356 -5.87268 0
M  V30 2529 H 247.575 0.715241 -6.06396 0
M  V30 2530 H 248.989 -1.49374 -5.53498 0
M  V30 2531 H 247.386 -2.2848 -5.54903 0
M  V30 2532 H 248.456 -2.50382 -4.15255 0
M  V30 2533 N 249.799 1.42003 -0.683588 0
M  V30 2534 C 251.048 2.00638 -0.206681 0
M  V30 2535 C 251.361 1.5472 1.19671 0
M  V30 2536 O 252.567 2.05833 1.77045 0
M  V30 2537 C 251.023 3.58487 -0.318632 0
M  V30 2538 C 250.631 4.1339 -1.72663 0
M  V30 2539 C 252.375 4.24384 0.0991141 0
M  V30 2540 C 250.282 5.63633 -1.79087 0
M  V30 2541 H 249.212 0.750408 -0.0735107 0
M  V30 2542 H 251.863 1.62624 -0.850048 0
M  V30 2543 H 250.245 3.94047 0.392781 0
M  V30 2544 H 251.419 3.89273 -2.46583 0
M  V30 2545 H 249.734 3.59976 -2.09299 0
M  V30 2546 H 252.331 5.34652 0.0713833 0
M  V30 2547 H 252.674 4.00505 1.13586 0
M  V30 2548 H 253.207 3.93816 -0.561599 0
M  V30 2549 H 249.946 5.92323 -2.80774 0
M  V30 2550 H 249.466 5.89714 -1.09535 0
M  V30 2551 H 251.145 6.28201 -1.5483 0
M  V30 2552 N 251.277 0.427512 1.51691 0
M  V30 2553 C 252.693 0.0792977 1.59403 0
M  V30 2554 C 252.893 -1.41035 1.43914 0
M  V30 2555 O 251.949 -2.17922 1.27539 0
M  V30 2556 C 253.262 0.590636 2.94842 0
M  V30 2557 C 254.81 0.550215 3.08126 0
M  V30 2558 C 255.285 1.03836 4.46074 0
M  V30 2559 N 256.776 0.995943 4.52366 0
M  V30 2560 C 257.511 1.34463 5.57411 0
M  V30 2561 N 257.007 1.76569 6.69922 0
M  V30 2562 N 258.8 1.26343 5.47717 0
M  V30 2563 H 250.951 1.39687 1.60004 0
M  V30 2564 H 253.214 0.575003 0.753708 0
M  V30 2565 H 252.92 1.63251 3.11516 0
M  V30 2566 H 252.794 0.0102061 3.77199 0
M  V30 2567 H 255.181 -0.482654 2.91126 0
M  V30 2568 H 255.262 1.16693 2.27632 0
M  V30 2569 H 254.906 2.06965 4.63819 0
M  V30 2570 H 254.836 0.398286 5.25092 0
M  V30 2571 H 257.327 0.68661 3.7161 0
M  V30 2572 H 257.64 2.01438 7.46085 0
M  V30 2573 H 255.985 1.80488 6.71155 0
M  V30 2574 H 259.176 0.933209 4.58703 0
M  V30 2575 H 259.349 1.53846 6.29472 0
M  V30 2576 N 252.755 -1.56801 0.158532 0
M  V30 2577 C 253.665 -2.20916 -0.789518 0
M  V30 2578 C 254.681 -1.1969 -1.26294 0
M  V30 2579 O 255.857 -1.52308 -1.31773 0
M  V30 2580 C 252.922 -2.82727 -2.00665 0
M  V30 2581 C 251.983 -3.99114 -1.58134 0
M  V30 2582 C 251.216 -4.57968 -2.74045 0
M  V30 2583 O 251.439 -4.15704 -3.90572 0
M  V30 2584 O 250.373 -5.48047 -2.48855 0
M  V30 2585 H 254.199 -3.02464 -0.273681 0
M  V30 2586 H 251.784 -1.4924 -0.0690548 0
M  V30 2587 H 253.666 -3.21968 -2.71872 0
M  V30 2588 H 252.341 -2.04184 -2.51179 0
M  V30 2589 H 251.248 -3.64567 -0.839155 0
M  V30 2590 H 252.581 -4.79212 -1.12325 0
M  V30 2591 N 254.233 0.115231 -1.57178 0
M  V30 2592 C 255.458 0.840354 -1.89612 0
M  V30 2593 C 255.883 1.72464 -0.750845 0
M  V30 2594 O 255.241 1.78826 0.298478 0
M  V30 2595 C 255.289 1.64654 -3.20814 0
M  V30 2596 O 254.393 2.7538 -3.06985 0
M  V30 2597 H 253.734 0.232158 -0.622092 0
M  V30 2598 H 256.264 0.0964977 -2.04372 0
M  V30 2599 H 256.274 2.03499 -3.53627 0
M  V30 2600 H 254.949 0.997416 -4.03763 0
M  V30 2601 H 253.526 2.3971 -2.85646 0
M  V30 2602 N 255.711 1.52812 0.385517 0
M  V30 2603 C 256.621 1.80766 1.49535 0
M  V30 2604 C 257.637 0.694651 1.59532 0
M  V30 2605 O 258.813 0.982611 1.75803 0
M  V30 2606 C 255.878 1.97381 2.85029 0
M  V30 2607 C 254.939 3.21295 2.84724 0
M  V30 2608 C 254.172 3.37108 4.13756 0
M  V30 2609 O 254.395 2.5765 5.08893 0
M  V30 2610 O 253.329 4.30378 4.20783 0
M  V30 2611 H 257.155 2.75015 1.28842 0
M  V30 2612 H 254.74 1.37946 0.573697 0
M  V30 2613 H 256.622 2.09996 3.65349 0
M  V30 2614 H 255.297 1.06322 3.05741 0
M  V30 2615 H 254.204 3.1412 2.03174 0
M  V30 2616 H 255.537 4.12212 2.68965 0
M  V30 2617 N 257.189 -0.644168 1.43834 0
M  V30 2618 C 258.417 -1.43147 1.49387 0
M  V30 2619 C 258.832 -1.88452 0.114583 0
M  V30 2620 O 258.189 -1.60047 -0.876989 0
M  V30 2621 C 258.24 -2.66046 2.44748 0
M  V30 2622 O 257.961 -2.22633 3.77314 0
M  V30 2623 C 259.462 -3.59311 2.59635 0
M  V30 2624 H 256.682 -0.439447 0.507077 0
M  V30 2625 H 259.226 -0.78895 1.88669 0
M  V30 2626 H 257.381 -3.26418 2.08638 0
M  V30 2627 H 257.795 -3.02216 4.28679 0
M  V30 2628 H 259.269 -4.42187 3.30416 0
M  V30 2629 H 259.746 -4.07259 1.64427 0
M  V30 2630 H 260.352 -3.04816 2.96593 0
M  V30 2631 N 258.668 -1.30515 -0.883378 0
M  V30 2632 C 259.896 -1.22359 -1.66841 0
M  V30 2633 C 260.311 0.213296 -1.87591 0
M  V30 2634 O 259.668 1.14075 -1.42454 0
M  V30 2635 C 259.719 -1.95011 -3.04389 0
M  V30 2636 O 259.44 -3.3309 -2.84575 0
M  V30 2637 C 260.941 -1.93532 -3.98824 0
M  V30 2638 H 258.161 -0.423371 -0.520575 0
M  V30 2639 H 260.705 -1.72167 -1.10357 0
M  V30 2640 H 258.86 -1.48997 -3.57601 0
M  V30 2641 H 259.274 -3.69907 -3.71846 0
M  V30 2642 H 260.748 -2.48902 -4.92699 0
M  V30 2643 H 261.225 -0.914627 -4.29571 0
M  V30 2644 H 261.831 -2.39364 -3.51547 0
M  V30 2645 N 260.146 1.09593 -1.13257 0
M  V30 2646 C 261.093 2.1618 -0.808381 0
M  V30 2647 C 262.063 1.64517 0.228754 0
M  V30 2648 O 263.248 1.9053 0.101381 0
M  V30 2649 C 260.388 3.43973 -0.278675 0
M  V30 2650 C 259.501 4.09545 -1.37466 0
M  V30 2651 C 258.636 5.25088 -0.803479 0
M  V30 2652 C 257.675 5.82579 -1.87799 0
M  V30 2653 N 256.812 6.89486 -1.32488 0
M  V30 2654 H 261.652 2.43254 -1.72138 0
M  V30 2655 H 259.189 1.19392 -0.859294 0
M  V30 2656 H 261.147 4.17174 0.0465583 0
M  V30 2657 H 259.777 3.17223 0.597459 0
M  V30 2658 H 258.829 3.34226 -1.81652 0
M  V30 2659 H 260.141 4.48307 -2.18684 0
M  V30 2660 H 259.295 6.05178 -0.429427 0
M  V30 2661 H 258.034 4.87684 0.0397956 0
M  V30 2662 H 257.039 5.01152 -2.26113 0
M  V30 2663 H 258.264 6.22045 -2.72463 0
M  V30 2664 H 256.21 6.54064 -0.503575 0
M  V30 2665 H 256.127 7.27007 -2.07355 0
M  V30 2666 H 257.395 7.73336 -0.978336 0
M  V30 2667 N 261.624 0.925811 1.2754 0
M  V30 2668 C 262.872 0.564138 1.94067 0
M  V30 2669 C 263.193 -0.897188 1.73134 0
M  V30 2670 O 262.463 -1.63573 1.07799 0
M  V30 2671 H 261.043 0.205645 0.718136 0
M  V30 2672 H 263.705 1.1778 1.55287 0
M  V30 2673 H 262.801 0.76881 3.02483 0
M  V30 2674 N 263.102 -1.41638 0.69111 0
M  V30 2675 C 264.065 -2.29178 0.0319786 0
M  V30 2676 C 265.065 -1.44153 -0.712496 0
M  V30 2677 O 266.255 -1.65354 -0.548053 0
M  V30 2678 C 263.387 -3.26952 -0.965161 0
M  V30 2679 H 264.58 -2.88959 0.802681 0
M  V30 2680 H 262.133 -1.4955 0.454356 0
M  V30 2681 H 262.868 -2.72142 -1.76378 0
M  V30 2682 H 262.653 -3.89685 -0.434522 0
M  V30 2683 H 264.143 -3.92561 -1.42428 0
M  V30 2684 N 264.58 -0.43555 -1.51462 0
M  V30 2685 C 265.81 0.130053 -2.0619 0
M  V30 2686 C 266.218 1.37164 -1.30317 0
M  V30 2687 O 265.561 1.80225 -0.355598 0
M  V30 2688 C 265.623 0.519418 -3.55728 0
M  V30 2689 C 265.287 -0.615119 -4.52841 0
M  V30 2690 C 266.284 -1.48671 -4.9819 0
M  V30 2691 C 263.969 -0.795341 -4.95963 0
M  V30 2692 C 265.963 -2.52324 -5.8533 0
M  V30 2693 C 263.65 -1.83514 -5.82894 0
M  V30 2694 C 264.648 -2.69748 -6.27475 0
M  V30 2695 O 264.336 -3.71944 -7.1268 0
M  V30 2696 H 264.068 0.0121612 -0.675891 0
M  V30 2697 H 266.622 -0.6129 -1.96043 0
M  V30 2698 H 264.852 1.31505 -3.63653 0
M  V30 2699 H 266.541 1.01597 -3.92979 0
M  V30 2700 H 267.307 -1.359 -4.65571 0
M  V30 2701 H 263.186 -0.133713 -4.60806 0
M  V30 2702 H 266.73 -3.19665 -6.20048 0
M  V30 2703 H 262.627 -1.96306 -6.14926 0
M  V30 2704 H 263.395 -3.68503 -7.30854 0
M  V30 2705 N 266.058 1.56714 -0.166846 0
M  V30 2706 C 267.283 2.01557 0.488833 0
M  V30 2707 C 267.708 1.0463 1.56314 0
M  V30 2708 O 267.066 0.0251304 1.81283 0
M  V30 2709 C 267.114 3.4503 1.04818 0
M  V30 2710 O 266.218 3.51163 2.16236 0
M  V30 2711 H 265.559 0.653516 0.117526 0
M  V30 2712 H 268.089 2.02818 -0.269421 0
M  V30 2713 H 268.099 3.84243 1.37191 0
M  V30 2714 H 266.774 4.15077 0.261572 0
M  V30 2715 H 265.351 3.23807 1.84942 0
M  V30 2716 N 267.536 -0.106894 1.57237 0
M  V30 2717 C 268.466 -1.13148 2.04254 0
M  V30 2718 C 269.447 -1.42476 0.929224 0
M  V30 2719 O 270.632 -1.52709 1.19973 0
M  V30 2720 C 267.762 -2.4545 2.45706 0
M  V30 2721 C 266.716 -2.30558 3.60592 0
M  V30 2722 C 266.042 -3.67931 3.87983 0
M  V30 2723 C 267.342 -1.75597 4.91897 0
M  V30 2724 H 269.036 -0.740374 2.90101 0
M  V30 2725 H 266.582 -0.354696 1.39563 0
M  V30 2726 H 268.535 -3.17389 2.77205 0
M  V30 2727 H 267.259 -2.86475 1.56843 0
M  V30 2728 H 265.918 -1.61067 3.29322 0
M  V30 2729 H 265.566 -4.06462 2.96306 0
M  V30 2730 H 265.266 -3.58817 4.65322 0
M  V30 2731 H 266.79 -4.41356 4.21945 0
M  V30 2732 H 268.204 -2.37364 5.21854 0
M  V30 2733 H 266.601 -1.77272 5.73319 0
M  V30 2734 H 267.671 -0.714451 4.79608 0
M  V30 2735 N 269.014 -1.53014 -0.377408 0
M  V30 2736 C 270.239 -1.72818 -1.14668 0
M  V30 2737 C 270.664 -0.450725 -1.8262 0
M  V30 2738 O 270.022 0.59439 -1.7128 0
M  V30 2739 C 270.07 -2.88627 -2.16164 0
M  V30 2740 O 269.174 -2.56409 -3.22998 0
M  V30 2741 H 268.515 -0.574301 -0.333278 0
M  V30 2742 H 271.045 -1.99853 -0.438152 0
M  V30 2743 H 271.055 -3.14455 -2.59966 0
M  V30 2744 H 269.73 -3.81294 -1.66095 0
M  V30 2745 H 268.307 -2.4136 -2.84253 0
M  V30 2746 N 270.492 0.636531 -1.44174 0
M  V30 2747 C 271.741 1.39213 -1.45954 0
M  V30 2748 C 272.054 1.95374 -0.0939119 0
M  V30 2749 O 273.26 2.71498 0.0107767 0
M  V30 2750 C 271.716 2.52025 -2.56927 0
M  V30 2751 C 271.324 2.024 -3.99673 0
M  V30 2752 C 273.068 3.29269 -2.67922 0
M  V30 2753 C 270.975 3.12521 -5.0208 0
M  V30 2754 H 269.905 0.523132 -0.542999 0
M  V30 2755 H 272.556 0.685349 -1.70221 0
M  V30 2756 H 270.938 3.25253 -2.25891 0
M  V30 2757 H 272.112 1.36073 -4.40251 0
M  V30 2758 H 270.427 1.37987 -3.92872 0
M  V30 2759 H 273.024 4.11352 -3.41605 0
M  V30 2760 H 273.367 3.78397 -1.73555 0
M  V30 2761 H 273.9 2.63129 -2.98342 0
M  V30 2762 H 270.639 2.68343 -5.98057 0
M  V30 2763 H 270.159 3.77507 -4.66099 0
M  V30 2764 H 271.838 3.77385 -5.25538 0
M  V30 2765 N 271.97 1.30982 0.876444 0
M  V30 2766 C 273.386 1.09498 1.16113 0
M  V30 2767 C 273.586 -0.13875 2.01022 0
M  V30 2768 O 272.642 -0.829935 2.38471 0
M  V30 2769 C 273.955 2.36308 1.85954 0
M  V30 2770 C 275.503 2.41856 1.98683 0
M  V30 2771 C 275.978 3.6853 2.71937 0
M  V30 2772 N 277.469 3.69387 2.79477 0
M  V30 2773 C 278.204 4.64096 3.36753 0
M  V30 2774 N 277.7 5.69155 3.95012 0
M  V30 2775 N 279.493 4.51626 3.3465 0
M  V30 2776 H 271.644 2.10118 0.310494 0
M  V30 2777 H 273.907 0.926634 0.200131 0
M  V30 2778 H 273.613 3.26388 1.31011 0
M  V30 2779 H 273.487 2.4561 2.86278 0
M  V30 2780 H 275.874 1.52249 2.52793 0
M  V30 2781 H 275.955 2.36523 0.9742 0
M  V30 2782 H 275.599 4.58499 2.18496 0
M  V30 2783 H 275.529 3.71127 3.73593 0
M  V30 2784 H 278.02 2.93438 2.38123 0
M  V30 2785 H 278.333 6.3751 4.36808 0
M  V30 2786 H 276.678 5.72937 3.93406 0
M  V30 2787 H 279.869 3.68728 2.8837 0
M  V30 2788 H 280.042 5.25614 3.7899 0
M  V30 2789 N 273.449 -1.08991 1.13837 0
M  V30 2790 C 274.726 -1.77863 0.813876 0
M  V30 2791 C 275.106 -1.99375 -0.693746 0
M  V30 2792 O 274.454 -1.59875 -1.63255 0
M  V30 2793 C 274.664 -3.0986 1.60586 0
M  V30 2794 C 276.012 -3.84493 1.8014 0
M  V30 2795 O 277.036 -3.19624 1.57222 0
M  V30 2796 O 275.895 -5.00957 2.18413 0
M  V30 2797 H 272.989 -0.771589 0.297624 0
M  V30 2798 H 275.535 -1.15507 1.24323 0
M  V30 2799 H 274.307 -2.89715 2.63022 0
M  V30 2800 H 273.93 -3.79942 1.17173 0
M  V30 2801 N 274.927 -0.932562 -1.27047 0
M  V30 2802 C 276.173 -0.585913 -1.94778 0
M  V30 2803 C 276.528 0.864142 -1.71902 0
M  V30 2804 O 275.821 1.60894 -1.04037 0
M  V30 2805 C 276.015 -0.853713 -3.47054 0
M  V30 2806 C 275.844 -2.32825 -3.84737 0
M  V30 2807 C 274.614 -2.98184 -4.07939 0
M  V30 2808 C 276.812 -3.30612 -3.93954 0
M  V30 2809 N 274.794 -4.3574 -4.3244 0
M  V30 2810 C 276.165 -4.53395 -4.22887 0
M  V30 2811 C 278.22 -3.25755 -3.76548 0
M  V30 2812 C 276.923 -5.71927 -4.36224 0
M  V30 2813 C 278.949 -4.43604 -3.91113 0
M  V30 2814 C 278.311 -5.65166 -4.20437 0
M  V30 2815 H 274.41 -0.264617 -0.735868 0
M  V30 2816 H 276.994 -1.20019 -1.53309 0
M  V30 2817 H 275.165 -0.268557 -3.8747 0
M  V30 2818 H 276.897 -0.469202 -4.01971 0
M  V30 2819 H 273.652 -2.48835 -4.02961 0
M  V30 2820 H 274.076 -5.06915 -4.48738 0
M  V30 2821 H 278.718 -2.32835 -3.52913 0
M  V30 2822 H 276.436 -6.65308 -4.58683 0
M  V30 2823 H 280.022 -4.41368 -3.79059 0
M  V30 2824 H 278.902 -6.54836 -4.31462 0
M  V30 2825 N 276.405 1.4127 -0.698611 0
M  V30 2826 C 277.682 1.94955 -0.158762 0
M  V30 2827 C 278.062 1.63781 1.33188 0
M  V30 2828 O 277.41 0.946423 2.07979 0
M  V30 2829 C 277.62 3.46044 -0.453309 0
M  V30 2830 C 278.968 4.22872 -0.382707 0
M  V30 2831 O 279.992 3.54076 -0.388396 0
M  V30 2832 O 278.851 5.45407 -0.345463 0
M  V30 2833 H 275.945 0.82683 -0.0167505 0
M  V30 2834 H 278.491 1.50971 -0.77498 0
M  V30 2835 H 277.263 3.62028 -1.48498 0
M  V30 2836 H 276.886 3.97128 0.19373 0
M  V30 2837 N 277.883 0.443576 1.51229 0
M  V30 2838 C 278.815 -0.400608 2.25672 0
M  V30 2839 C 279.828 -0.980945 1.29928 0
M  V30 2840 O 281.017 -0.874024 1.55638 0
M  V30 2841 C 278.117 -1.57304 3.00181 0
M  V30 2842 C 277.29 -1.11046 4.23069 0
M  V30 2843 C 276.349 -2.15374 4.80105 0
M  V30 2844 O 275.375 -1.74554 5.41774 0
M  V30 2845 N 276.577 -3.47922 4.64683 0
M  V30 2846 H 279.342 0.23745 2.98758 0
M  V30 2847 H 276.903 0.272809 1.59585 0
M  V30 2848 H 278.895 -2.26733 3.35223 0
M  V30 2849 H 277.465 -2.11632 2.30066 0
M  V30 2850 H 276.685 -0.243019 3.9345 0
M  V30 2851 H 277.973 -0.778888 5.02803 0
M  V30 2852 H 277.371 -3.83815 4.15575 0
M  V30 2853 H 275.928 -4.13228 5.0407 0
M  V30 2854 N 279.361 -1.56624 0.175154 0
M  V30 2855 C 280.589 -2.01374 -0.474971 0
M  V30 2856 C 281.004 -1.05537 -1.56548 0
M  V30 2857 O 280.361 -0.0568668 -1.82411 0
M  V30 2858 C 280.412 -3.45923 -1.04975 0
M  V30 2859 O 280.133 -4.381 -0.00276605 0
M  V30 2860 C 281.634 -4.06093 -1.77773 0
M  V30 2861 H 278.854 -0.659962 -0.121206 0
M  V30 2862 H 281.398 -2.02601 0.27801 0
M  V30 2863 H 279.553 -3.45458 -1.75321 0
M  V30 2864 H 279.967 -5.22753 -0.427681 0
M  V30 2865 H 281.441 -5.09147 -2.13245 0
M  V30 2866 H 281.918 -3.48405 -2.67414 0
M  V30 2867 H 282.524 -4.10272 -1.12059 0
M  V30 2868 N 280.839 0.0985539 -1.57292 0
M  V30 2869 C 282.255 0.45267 -1.53046 0
M  V30 2870 C 282.455 1.80713 -0.891342 0
M  V30 2871 O 281.511 2.4785 -0.482375 0
M  V30 2872 C 282.824 0.418341 -2.97776 0
M  V30 2873 C 284.372 0.500443 -3.08973 0
M  V30 2874 C 284.847 0.496297 -4.55303 0
M  V30 2875 N 286.338 0.557151 -4.59837 0
M  V30 2876 C 287.073 0.575726 -5.70502 0
M  V30 2877 N 286.569 0.550714 -6.90608 0
M  V30 2878 N 288.362 0.620277 -5.58667 0
M  V30 2879 H 280.513 -0.788673 -1.97215 0
M  V30 2880 H 282.776 -0.293188 -0.901524 0
M  V30 2881 H 282.482 -0.509659 -3.47988 0
M  V30 2882 H 282.356 1.2386 -3.56284 0
M  V30 2883 H 284.743 1.41886 -2.58751 0
M  V30 2884 H 284.824 -0.347894 -2.53423 0
M  V30 2885 H 284.468 -0.418162 -5.06176 0
M  V30 2886 H 284.398 1.3618 -5.08687 0
M  V30 2887 H 286.889 0.581816 -3.73394 0
M  V30 2888 H 287.202 0.568075 -7.70709 0
M  V30 2889 H 285.547 0.517816 -6.93068 0
M  V30 2890 H 288.738 0.637322 -4.63741 0
M  V30 2891 H 288.911 0.631283 -6.44918 0
M  V30 2892 N 282.317 1.53212 0.369288 0
M  V30 2893 C 283.565 1.68881 1.11012 0
M  V30 2894 C 283.886 0.441285 1.89941 0
M  V30 2895 O 283.156 -0.544623 1.88177 0
M  V30 2896 H 281.736 0.622569 0.412816 0
M  V30 2897 H 284.398 1.90391 0.416802 0
M  V30 2898 H 283.494 2.54822 1.80201 0
M  V30 2899 N 283.795 -0.628877 1.44509 0
M  V30 2900 C 285.072 -1.38733 1.37886 0
M  V30 2901 C 285.452 -2.11065 0.0387008 0
M  V30 2902 O 284.8 -2.06476 -0.97878 0
M  V30 2903 C 285.01 -2.35188 2.57852 0
M  V30 2904 C 286.358 -2.9845 3.02014 0
M  V30 2905 O 287.382 -2.45513 2.58073 0
M  V30 2906 O 286.241 -3.94487 3.78209 0
M  V30 2907 H 283.335 -0.621015 0.54614 0
M  V30 2908 H 285.881 -0.653744 1.56602 0
M  V30 2909 H 284.653 -1.80855 3.46998 0
M  V30 2910 H 284.276 -3.1596 2.4136 0
M  V30 2911 N 285.273 -1.31445 -0.869486 0
M  V30 2912 C 286.223 -1.15731 -1.96444 0
M  V30 2913 C 287.207 -0.0681855 -1.60755 0
M  V30 2914 O 288.399 -0.293154 -1.74555 0
M  V30 2915 C 285.528 -0.867255 -3.32165 0
M  V30 2916 C 284.614 -1.99738 -3.74119 0
M  V30 2917 N 285.005 -3.24447 -3.88031 0
M  V30 2918 C 283.303 -1.89723 -4.03635 0
M  V30 2919 C 284.004 -3.98374 -4.23879 0
M  V30 2920 N 282.98 -3.26547 -4.3459 0
M  V30 2921 H 286.782 -2.10296 -2.05312 0
M  V30 2922 H 284.296 -1.23009 -1.06031 0
M  V30 2923 H 286.293 -0.735668 -4.10358 0
M  V30 2924 H 284.953 0.0701614 -3.24624 0
M  V30 2925 H 285.964 -3.59557 -3.72746 0
M  V30 2926 H 282.641 -1.03449 -4.04481 0
M  V30 2927 H 284.031 -5.05844 -4.42235 0
M  V30 2928 N 286.751 1.08385 -1.14413 0
M  V30 2929 C 287.997 1.81044 -0.913834 0
M  V30 2930 C 288.33 1.86004 0.558209 0
M  V30 2931 O 287.605 1.33606 1.4135 0
M  V30 2932 C 287.888 3.26648 -1.51569 0
M  V30 2933 C 287.741 3.29895 -3.0576 0
M  V30 2934 C 289.06 4.23629 -1.19273 0
M  V30 2935 H 286.179 0.65727 -0.333414 0
M  V30 2936 H 288.821 1.26896 -1.41412 0
M  V30 2937 H 286.971 3.72889 -1.09023 0
M  V30 2938 H 288.643 2.91977 -3.57137 0
M  V30 2939 H 286.886 2.69163 -3.40197 0
M  V30 2940 H 287.557 4.32516 -3.42977 0
M  V30 2941 H 290.033 3.85727 -1.56057 0
M  V30 2942 H 288.909 5.23822 -1.64017 0
M  V30 2943 H 289.17 4.41968 -0.108068 0
M  V30 2944 N 288.23 0.939286 1.26551 0
M  V30 2945 C 289.177 0.446088 2.26448 0
M  V30 2946 C 290.147 -0.493234 1.58608 0
M  V30 2947 O 291.332 -0.409857 1.86346 0
M  V30 2948 C 288.472 -0.284375 3.43926 0
M  V30 2949 C 287.585 0.690399 4.26448 0
M  V30 2950 C 286.72 -0.0610712 5.31165 0
M  V30 2951 C 285.759 0.905649 6.05363 0
M  V30 2952 N 284.896 0.186055 7.01853 0
M  V30 2953 H 289.736 1.30291 2.68008 0
M  V30 2954 H 287.273 0.65371 1.31776 0
M  V30 2955 H 289.231 -0.724313 4.10864 0
M  V30 2956 H 287.861 -1.10535 3.03285 0
M  V30 2957 H 286.913 1.24885 3.59316 0
M  V30 2958 H 288.225 1.42873 4.779 0
M  V30 2959 H 287.379 -0.56038 6.04106 0
M  V30 2960 H 286.118 -0.832297 4.80546 0
M  V30 2961 H 285.123 1.4161 5.3125 0
M  V30 2962 H 286.348 1.67685 6.58072 0
M  V30 2963 H 284.294 -0.566714 6.53548 0
M  V30 2964 H 284.211 0.863752 7.51049 0
M  V30 2965 H 285.479 -0.292221 7.78952 0
M  V30 2966 N 289.708 -1.40897 0.706093 0
M  V30 2967 C 290.658 -2.27987 0.0240746 0
M  V30 2968 C 291.642 -1.42759 -0.742204 0
M  V30 2969 O 292.834 -1.65936 -0.615966 0
M  V30 2970 C 289.963 -3.31186 -0.903907 0
M  V30 2971 C 289.049 -4.2389 -0.133318 0
M  V30 2972 N 289.44 -4.98113 0.878444 0
M  V30 2973 C 287.738 -4.44485 -0.367269 0
M  V30 2974 C 288.439 -5.6604 1.34064 0
M  V30 2975 N 287.415 -5.39522 0.664565 0
M  V30 2976 H 291.217 -2.82812 0.799658 0
M  V30 2977 H 288.731 -1.53235 0.537845 0
M  V30 2978 H 290.728 -3.92413 -1.40775 0
M  V30 2979 H 289.388 -2.77922 -1.67897 0
M  V30 2980 H 290.399 -5.02364 1.25901 0
M  V30 2981 H 287.076 -4.02213 -1.1194 0
M  V30 2982 H 288.466 -6.35524 2.1808 0
M  V30 2983 N 291.186 -0.45159 -1.50991 0
M  V30 2984 C 292.416 0.108177 -2.06317 0
M  V30 2985 C 292.824 1.35774 -1.31765 0
M  V30 2986 O 292.167 1.79838 -0.374694 0
M  V30 2987 C 292.229 0.481659 -3.56259 0
M  V30 2988 C 291.893 -0.663114 -4.52163 0
M  V30 2989 C 292.89 -1.53947 -4.96585 0
M  V30 2990 C 290.575 -0.8479 -4.95092 0
M  V30 2991 C 292.569 -2.58518 -5.82621 0
M  V30 2992 C 290.256 -1.89686 -5.80915 0
M  V30 2993 C 291.254 -2.76388 -6.24579 0
M  V30 2994 O 290.942 -3.79482 -7.08695 0
M  V30 2995 H 290.674 0.00499183 -0.675982 0
M  V30 2996 H 293.228 -0.633659 -1.95381 0
M  V30 2997 H 291.458 1.27641 -3.65027 0
M  V30 2998 H 293.147 0.974233 -3.94035 0
M  V30 2999 H 293.913 -1.4083 -4.64103 0
M  V30 3000 H 289.792 -0.18258 -4.60638 0
M  V30 3001 H 293.336 -3.26224 -6.16623 0
M  V30 3002 H 289.233 -2.02817 -6.12809 0
M  V30 3003 H 290.001 -3.76234 -7.26905 0
M  V30 3004 N 292.664 1.56529 -0.183458 0
M  V30 3005 C 293.611 2.18546 0.742055 0
M  V30 3006 C 294.581 1.12912 1.2182 0
M  V30 3007 O 295.766 1.41115 1.28418 0
M  V30 3008 C 292.906 2.83977 1.96089 0
M  V30 3009 C 292.019 4.04105 1.52719 0
M  V30 3010 C 291.154 4.57427 2.70063 0
M  V30 3011 C 290.193 5.69938 2.23243 0
M  V30 3012 N 289.33 6.17717 3.33722 0
M  V30 3013 H 294.17 2.97284 0.206432 0
M  V30 3014 H 291.707 1.46823 0.0901571 0
M  V30 3015 H 293.665 3.20077 2.67594 0
M  V30 3016 H 292.295 2.07822 2.47002 0
M  V30 3017 H 291.347 3.73745 0.708436 0
M  V30 3018 H 292.659 4.85513 1.1436 0
M  V30 3019 H 291.813 4.95772 3.49708 0
M  V30 3020 H 290.552 3.75101 3.11689 0
M  V30 3021 H 289.557 5.31133 1.42048 0
M  V30 3022 H 290.782 6.54073 1.82661 0
M  V30 3023 H 288.728 5.38317 3.74902 0
M  V30 3024 H 288.645 6.94146 2.99495 0
M  V30 3025 H 289.913 6.60713 4.13616 0
M  V30 3026 N 294.142 -0.090211 1.57342 0
M  V30 3027 C 295.391 -0.791531 1.8552 0
M  V30 3028 C 295.704 -1.79659 0.773441 0
M  V30 3029 O 296.91 -2.54616 0.942497 0
M  V30 3030 C 295.366 -1.45856 3.2902 0
M  V30 3031 C 294.974 -0.493017 4.45279 0
M  V30 3032 C 296.718 -2.14332 3.66418 0
M  V30 3033 C 294.625 -1.16491 5.79814 0
M  V30 3034 H 293.555 -0.299356 0.692027 0
M  V30 3035 H 296.206 -0.0445343 1.83446 0
M  V30 3036 H 294.588 -2.25318 3.2565 0
M  V30 3037 H 295.762 0.270464 4.60006 0
M  V30 3038 H 294.077 0.0863061 4.16311 0
M  V30 3039 H 296.674 -2.65344 4.64216 0
M  V30 3040 H 297.017 -2.93447 2.95287 0
M  V30 3041 H 297.55 -1.41724 3.71698 0
M  V30 3042 H 294.289 -0.41447 6.54188 0
M  V30 3043 H 293.809 -1.8997 5.68921 0
M  V30 3044 H 295.488 -1.69001 6.24538 0
M  V30 3045 N 295.62 -1.53406 -0.361157 0
M  V30 3046 C 297.036 -1.43277 -0.703124 0
M  V30 3047 C 297.236 -0.575384 -1.9311 0
M  V30 3048 O 296.292 -0.0595362 -2.5243 0
M  V30 3049 C 297.605 -2.8653 -0.9122 0
M  V30 3050 C 299.153 -2.96191 -1.01193 0
M  V30 3051 C 299.628 -4.40514 -1.25345 0
M  V30 3052 N 301.119 -4.43962 -1.32105 0
M  V30 3053 C 301.854 -5.52746 -1.5251 0
M  V30 3054 N 301.35 -6.71567 -1.70203 0
M  V30 3055 N 303.143 -5.40331 -1.54916 0
M  V30 3056 H 295.294 -2.07654 0.446475 0
M  V30 3057 H 297.557 -0.937944 0.137715 0
M  V30 3058 H 297.263 -3.51605 -0.0816414 0
M  V30 3059 H 297.137 -3.30441 -1.81903 0
M  V30 3060 H 299.524 -2.31266 -1.83303 0
M  V30 3061 H 299.605 -2.55667 -0.0823929 0
M  V30 3062 H 299.249 -5.06014 -0.437346 0
M  V30 3063 H 299.179 -4.78614 -2.19627 0
M  V30 3064 H 301.67 -3.58332 -1.20028 0
M  V30 3065 H 301.983 -7.50241 -1.85359 0
M  V30 3066 H 300.328 -6.74545 -1.67373 0
M  V30 3067 H 303.519 -4.46465 -1.40663 0
M  V30 3068 H 303.692 -6.25173 -1.70477 0
M  V30 3069 N 297.098 0.621204 -1.44841 0
M  V30 3070 C 298.045 1.73267 -1.5247 0
M  V30 3071 C 299.015 1.6189 -0.371611 0
M  V30 3072 O 300.2 1.81668 -0.58321 0
M  V30 3073 C 297.34 3.11545 -1.48438 0
M  V30 3074 C 296.453 3.33827 -2.74196 0
M  V30 3075 C 295.588 4.62133 -2.61929 0
M  V30 3076 C 294.627 4.77627 -3.82804 0
M  V30 3077 N 293.764 5.97219 -3.69153 0
M  V30 3078 H 298.604 1.66082 -2.47428 0
M  V30 3079 H 296.141 0.810026 -1.22788 0
M  V30 3080 H 298.099 3.91528 -1.4409 0
M  V30 3081 H 296.729 3.1772 -0.570402 0
M  V30 3082 H 295.781 2.47715 -2.88689 0
M  V30 3083 H 297.093 3.41153 -3.6389 0
M  V30 3084 H 296.247 5.50291 -2.5547 0
M  V30 3085 H 294.986 4.57182 -1.69811 0
M  V30 3086 H 293.991 3.87896 -3.89637 0
M  V30 3087 H 295.216 4.84385 -4.75971 0
M  V30 3088 H 293.162 5.93339 -2.79794 0
M  V30 3089 H 293.079 6.05644 -4.52472 0
M  V30 3090 H 294.347 6.87912 -3.66603 0
M  V30 3091 N 298.576 1.31904 0.862503 0
M  V30 3092 C 299.506 1.22782 1.98612 0
M  V30 3093 C 300.487 0.113362 1.69722 0
M  V30 3094 O 301.672 0.299218 1.91881 0
M  V30 3095 C 298.802 0.942058 3.34279 0
M  V30 3096 C 297.756 2.0169 3.77499 0
M  V30 3097 C 297.082 1.58369 5.10709 0
M  V30 3098 C 298.382 3.43096 3.93805 0
M  V30 3099 H 300.076 2.16788 2.06502 0
M  V30 3100 H 297.622 1.04366 0.992154 0
M  V30 3101 H 299.575 0.864818 4.1243 0
M  V30 3102 H 298.299 -0.0336603 3.26583 0
M  V30 3103 H 296.958 2.08416 3.01593 0
M  V30 3104 H 296.606 0.595628 4.99461 0
M  V30 3105 H 296.306 2.30279 5.40597 0
M  V30 3106 H 297.83 1.52067 5.91361 0
M  V30 3107 H 299.244 3.39003 4.62331 0
M  V30 3108 H 297.641 4.13288 4.35101 0
M  V30 3109 H 298.711 3.83334 2.96957 0
M  V30 3110 N 300.054 -1.07777 1.14986 0
M  V30 3111 C 301.331 -1.7699 0.832695 0
M  V30 3112 C 301.711 -2.001 -0.672561 0
M  V30 3113 O 301.059 -1.61598 -1.6155 0
M  V30 3114 C 301.269 -3.08139 1.63863 0
M  V30 3115 C 302.617 -3.8256 1.84208 0
M  V30 3116 O 303.641 -3.17939 1.60603 0
M  V30 3117 O 302.5 -4.98612 2.23714 0
M  V30 3118 H 299.594 -0.768389 0.305791 0
M  V30 3119 H 302.14 -1.14182 1.25541 0
M  V30 3120 H 300.912 -2.86909 2.6608 0
M  V30 3121 H 300.535 -3.78678 1.21197 0
M  V30 3122 N 301.532 -0.945985 -1.26051 0
M  V30 3123 C 302.465 -0.403619 -2.24602 0
M  V30 3124 C 303.443 0.510241 -1.54387 0
M  V30 3125 O 304.627 0.446593 -1.83133 0
M  V30 3126 C 301.754 0.419564 -3.36091 0
M  V30 3127 C 300.8 -0.433454 -4.24292 0
M  V30 3128 S 301.633 -1.86037 -5.02146 0
M  V30 3129 C 302.789 -1.04538 -6.17108 0
M  V30 3130 H 303.022 -1.23883 -2.7026 0
M  V30 3131 H 300.555 -0.749438 -1.34992 0
M  V30 3132 H 302.513 0.888595 -4.00767 0
M  V30 3133 H 301.174 1.22951 -2.89036 0
M  V30 3134 H 300.367 0.197486 -5.03613 0
M  V30 3135 H 299.969 -0.837357 -3.64506 0
M  V30 3136 H 302.261 -0.289923 -6.76879 0
M  V30 3137 H 303.204 -1.81222 -6.84518 0
M  V30 3138 H 303.612 -0.579319 -5.61519 0
M  V30 3139 N 303.011 1.40521 -0.713556 0
M  V30 3140 C 304.259 2.00527 -0.251692 0
M  V30 3141 C 304.58 1.56857 1.15848 0
M  V30 3142 O 303.85 0.807127 1.785 0
M  V30 3143 H 302.43 0.741551 -0.0900646 0
M  V30 3144 H 305.092 1.71887 -0.918733 0
M  V30 3145 H 304.188 3.10813 -0.283192 0
M  V30 3146 N 304.489 0.459591 1.5075 0
M  V30 3147 C 305.737 -0.0991532 2.01857 0
M  V30 3148 C 306.058 -1.41247 1.34441 0
M  V30 3149 O 305.328 -1.89775 0.486022 0
M  V30 3150 H 303.908 -0.039633 0.745948 0
M  V30 3151 H 306.57 0.607387 1.85194 0
M  V30 3152 H 305.666 -0.258998 3.11023 0
M  V30 3153 N 305.967 -1.56429 0.191757 0
M  V30 3154 C 307.197 -2.01574 -0.452928 0
M  V30 3155 C 307.605 -1.07107 -1.55964 0
M  V30 3156 O 306.948 -0.067534 -1.83576 0
M  V30 3157 C 307.01 -3.43121 -1.07278 0
M  V30 3158 C 306.674 -4.56879 -0.105214 0
M  V30 3159 C 307.671 -5.15379 0.684149 0
M  V30 3160 C 305.356 -5.023 0.00489824 0
M  V30 3161 C 307.35 -6.17746 1.57062 0
M  V30 3162 C 305.037 -6.04511 0.894935 0
M  V30 3163 C 306.035 -6.62108 1.67637 0
M  V30 3164 O 305.723 -7.62335 2.55149 0
M  V30 3165 H 305.455 -0.665554 -0.118379 0
M  V30 3166 H 308.009 -2.03245 0.296737 0
M  V30 3167 H 306.239 -3.38425 -1.87097 0
M  V30 3168 H 307.928 -3.72093 -1.62177 0
M  V30 3169 H 308.694 -4.81157 0.609365 0
M  V30 3170 H 304.573 -4.57168 -0.593156 0
M  V30 3171 H 308.117 -6.6263 2.181 0
M  V30 3172 H 304.014 -6.38157 0.970847 0
M  V30 3173 H 304.782 -7.79741 2.48892 0
M  V30 3174 N 307.445 0.0818655 -1.57387 0
M  V30 3175 C 308.675 0.794954 -1.90694 0
M  V30 3176 C 309.083 1.72147 -0.784982 0
M  V30 3177 O 308.426 1.81974 0.251196 0
M  V30 3178 C 308.488 1.65042 -3.19376 0
M  V30 3179 C 308.152 0.894337 -4.48164 0
M  V30 3180 C 309.149 0.21813 -5.19442 0
M  V30 3181 C 306.834 0.864495 -4.94805 0
M  V30 3182 C 308.828 -0.477802 -6.35607 0
M  V30 3183 C 306.515 0.164785 -6.10878 0
M  V30 3184 C 307.513 -0.505173 -6.81129 0
M  V30 3185 O 307.201 -1.19363 -7.94989 0
M  V30 3186 H 306.933 0.231779 -0.635023 0
M  V30 3187 H 309.487 0.059493 -2.05314 0
M  V30 3188 H 307.717 2.42844 -3.00938 0
M  V30 3189 H 309.406 2.24127 -3.38411 0
M  V30 3190 H 310.172 0.232558 -4.84442 0
M  V30 3191 H 306.051 1.37542 -4.40004 0
M  V30 3192 H 309.595 -1.00129 -6.90377 0
M  V30 3193 H 305.492 0.148249 -6.4533 0
M  V30 3194 H 306.26 -1.10188 -8.11049 0
M  V30 3195 N 308.923 1.53595 0.353017 0
M  V30 3196 C 310.172 1.69603 1.09168 0
M  V30 3197 C 310.485 0.460925 1.90092 0
M  V30 3198 O 311.691 0.501774 2.66823 0
M  V30 3199 C 310.147 2.99872 1.9901 0
M  V30 3200 C 309.755 4.30687 1.23339 0
M  V30 3201 C 311.499 3.25246 2.72792 0
M  V30 3202 C 309.406 5.52036 2.12156 0
M  V30 3203 H 308.336 0.631966 0.411261 0
M  V30 3204 H 310.987 1.80096 0.351802 0
M  V30 3205 H 309.369 2.83212 2.7678 0
M  V30 3206 H 310.543 4.58019 0.505456 0
M  V30 3207 H 308.858 4.11853 0.613663 0
M  V30 3208 H 311.455 4.13095 3.39495 0
M  V30 3209 H 311.798 2.41846 3.38846 0
M  V30 3210 H 312.331 3.42638 2.021 0
M  V30 3211 H 309.07 6.37951 1.50659 0
M  V30 3212 H 308.59 5.28966 2.82764 0
M  V30 3213 H 310.269 5.87313 2.71427 0
M  V30 3214 N 310.401 -0.613514 1.45168 0
M  V30 3215 C 311.629 -1.39946 1.5239 0
M  V30 3216 C 312.044 -1.88167 0.154531 0
M  V30 3217 O 311.401 -1.61872 -0.842843 0
M  V30 3218 C 311.452 -2.60795 2.50337 0
M  V30 3219 O 311.173 -2.1458 3.81952 0
M  V30 3220 C 312.674 -3.53723 2.67198 0
M  V30 3221 H 309.894 -0.428593 0.516284 0
M  V30 3222 H 312.438 -0.748753 1.903 0
M  V30 3223 H 310.593 -3.21919 2.15515 0
M  V30 3224 H 311.007 -2.93055 4.34993 0
M  V30 3225 H 312.481 -4.35079 3.39721 0
M  V30 3226 H 312.958 -4.0368 1.73029 0
M  V30 3227 H 313.564 -2.98456 3.02992 0
M  V30 3228 N 311.879 -1.3236 -0.855495 0
M  V30 3229 C 313.107 -1.2587 -1.64208 0
M  V30 3230 C 313.522 0.173457 -1.88002 0
M  V30 3231 O 312.879 1.11027 -1.44842 0
M  V30 3232 C 312.93 -2.01424 -3.00184 0
M  V30 3233 O 312.651 -3.39051 -2.77445 0
M  V30 3234 C 314.152 -2.01948 -3.94629 0
M  V30 3235 H 311.372 -0.434318 -0.511477 0
M  V30 3236 H 313.916 -1.74469 -1.0668 0
M  V30 3237 H 312.071 -1.56549 -3.5436 0
M  V30 3238 H 312.485 -3.77711 -3.63916 0
M  V30 3239 H 313.959 -2.59297 -4.87308 0
M  V30 3240 H 314.436 -1.00554 -4.27534 0
M  V30 3241 H 315.042 -2.46767 -3.4639 0
M  V30 3242 N 313.357 1.07166 -1.15556 0
M  V30 3243 C 314.773 1.31899 -0.898603 0
M  V30 3244 C 314.973 1.96333 0.453383 0
M  V30 3245 O 314.029 2.22438 1.19489 0
M  V30 3246 C 315.342 2.20826 -2.04099 0
M  V30 3247 C 316.89 2.34269 -2.07574 0
M  V30 3248 C 317.365 3.26546 -3.21141 0
M  V30 3249 N 318.856 3.34127 -3.20801 0
M  V30 3250 C 319.591 4.05595 -4.05315 0
M  V30 3251 N 319.087 4.79661 -4.99897 0
M  V30 3252 N 320.88 4.01555 -3.93332 0
M  V30 3253 H 313.031 0.637302 -2.02613 0
M  V30 3254 H 315.294 0.343468 -0.883591 0
M  V30 3255 H 315 1.80744 -3.01703 0
M  V30 3256 H 314.874 3.21364 -1.97496 0
M  V30 3257 H 317.261 2.73603 -1.10568 0
M  V30 3258 H 317.342 1.33429 -2.18244 0
M  V30 3259 H 316.986 2.87931 -4.184 0
M  V30 3260 H 316.916 4.27345 -3.07708 0
M  V30 3261 H 319.407 2.81336 -2.52306 0
M  V30 3262 H 319.72 5.31694 -5.60822 0
M  V30 3263 H 318.065 4.78671 -5.03884 0
M  V30 3264 H 321.256 3.42806 -3.18751 0
M  V30 3265 H 321.429 4.56987 -4.5942 0
M  V30 3266 N 314.835 0.952656 1.25548 0
M  V30 3267 C 316.081 0.607272 1.93494 0
M  V30 3268 C 316.414 -0.853245 1.74452 0
M  V30 3269 O 315.689 -1.61194 1.08843 0
M  V30 3270 C 315.972 0.96435 3.46947 0
M  V30 3271 C 315.825 2.48045 3.75225 0
M  V30 3272 C 317.144 0.487987 4.37386 0
M  V30 3273 H 314.263 0.222096 0.702739 0
M  V30 3274 H 316.905 1.18895 1.48203 0
M  V30 3275 H 315.055 0.469361 3.85654 0
M  V30 3276 H 316.727 3.04905 3.46166 0
M  V30 3277 H 314.97 2.919 3.209 0
M  V30 3278 H 315.641 2.6808 4.82532 0
M  V30 3279 H 318.117 0.912558 4.0597 0
M  V30 3280 H 316.993 0.766547 5.43521 0
M  V30 3281 H 317.254 -0.612063 4.37843 0
M  V30 3282 N 316.313 -1.40141 0.720998 0
M  V30 3283 C 317.245 -2.29177 0.0324669 0
M  V30 3284 C 318.258 -1.46105 -0.718126 0
M  V30 3285 O 319.447 -1.69335 -0.564608 0
M  V30 3286 C 316.547 -3.24473 -0.978292 0
M  V30 3287 C 315.72 -4.36423 -0.292115 0
M  V30 3288 C 314.779 -5.12122 -1.20901 0
M  V30 3289 O 313.805 -5.64981 -0.691766 0
M  V30 3290 N 315.007 -5.21992 -2.53978 0
M  V30 3291 H 317.772 -2.88909 0.796984 0
M  V30 3292 H 315.333 -1.51569 0.569068 0
M  V30 3293 H 317.325 -3.71987 -1.59398 0
M  V30 3294 H 315.895 -2.65871 -1.64413 0
M  V30 3295 H 315.115 -3.90967 0.503847 0
M  V30 3296 H 316.403 -5.08467 0.183971 0
M  V30 3297 H 315.801 -4.8054 -2.98493 0
M  V30 3298 H 314.358 -5.72995 -3.10677 0
M  V30 3299 N 317.792 -0.46758 -1.50504 0
M  V30 3300 C 319.039 0.0886219 -2.02306 0
M  V30 3301 C 319.367 1.40037 -1.34981 0
M  V30 3302 O 318.622 1.90136 -0.463318 0
M  V30 3303 C 318.921 0.323995 -3.55928 0
M  V30 3304 C 318.587 -0.905618 -4.41712 0
M  V30 3305 C 317.249 -1.24275 -4.64875 0
M  V30 3306 C 319.601 -1.72448 -4.91845 0
M  V30 3307 C 316.929 -2.39888 -5.35417 0
M  V30 3308 C 319.281 -2.87185 -5.63656 0
M  V30 3309 C 317.945 -3.21317 -5.85074 0
M  V30 3310 H 317.215 0.0324291 -0.74029 0
M  V30 3311 H 319.862 -0.620945 -1.81153 0
M  V30 3312 H 318.167 1.11577 -3.75577 0
M  V30 3313 H 319.864 0.76826 -3.93572 0
M  V30 3314 H 316.454 -0.632956 -4.239 0
M  V30 3315 H 320.638 -1.4772 -4.73806 0
M  V30 3316 H 315.894 -2.66611 -5.50208 0
M  V30 3317 H 320.068 -3.50985 -6.01484 0
M  V30 3318 H 317.695 -4.1101 -6.39511 0
M  V30 3319 N 319.27 1.56325 -0.20005 0
M  V30 3320 C 320.218 2.20666 0.735482 0
M  V30 3321 C 321.212 1.17934 1.21605 0
M  V30 3322 O 322.418 1.36068 1.17837 0
M  V30 3323 H 318.793 0.70725 0.255542 0
M  V30 3324 H 320.764 2.9792 0.169166 0
M  V30 3325 C 319.513 2.88391 1.94232 0
M  V30 3326 H 318.836 3.67185 1.58161 0
M  V30 3327 H 320.276 3.3684 2.57517 0
M  V30 3328 C 318.735 1.89692 2.78421 0
M  V30 3329 O 319.265 1.40032 3.76502 0
M  V30 3330 N 317.471 1.57813 2.44015 0
M  V30 3331 H 317.018 1.9839 1.64314 0
M  V30 3332 H 316.976 0.920325 3.00628 0
M  V30 3333 N 320.748 -0.0735177 1.57428 0
M  V30 3334 C 321.973 -0.789787 1.91774 0
M  V30 3335 C 322.398 -1.70413 0.796306 0
M  V30 3336 O 321.756 -1.79555 -0.250961 0
M  V30 3337 C 321.804 -1.5609 3.25067 0
M  V30 3338 O 320.908 -2.67144 3.14178 0
M  V30 3339 H 320.249 -0.215582 0.628029 0
M  V30 3340 H 322.779 -0.0422781 2.04556 0
M  V30 3341 H 322.789 -1.94052 3.58898 0
M  V30 3342 H 321.464 -0.890015 4.06265 0
M  V30 3343 H 320.041 -2.32052 2.91901 0
M  V30 3344 N 322.226 -1.5378 -0.344866 0
M  V30 3345 C 323.472 -1.71216 -1.08687 0
M  V30 3346 C 323.805 -0.473281 -1.88345 0
M  V30 3347 O 323.08 0.52968 -1.87149 0
M  V30 3348 C 323.363 -2.97486 -2.02914 0
M  V30 3349 C 323.216 -4.31579 -1.26727 0
M  V30 3350 C 324.535 -3.19422 -3.0275 0
M  V30 3351 H 321.654 -0.62301 -0.393735 0
M  V30 3352 H 324.296 -1.8645 -0.365563 0
M  V30 3353 H 322.446 -2.84629 -2.64421 0
M  V30 3354 H 324.118 -4.56284 -0.67845 0
M  V30 3355 H 322.361 -4.30049 -0.569273 0
M  V30 3356 H 323.032 -5.16106 -1.95803 0
M  V30 3357 H 325.508 -3.316 -2.51357 0
M  V30 3358 H 324.384 -4.09169 -3.65885 0
M  V30 3359 H 324.645 -2.35656 -3.74057 0
M  V30 3360 N 323.704 0.605807 -1.45491 0
M  V30 3361 C 324.636 1.73031 -1.5031 0
M  V30 3362 C 325.649 1.57968 -0.393687 0
M  V30 3363 O 326.838 1.65817 -0.660839 0
M  V30 3364 C 323.938 3.11049 -1.34543 0
M  V30 3365 C 323.111 3.52334 -2.59189 0
M  V30 3366 C 322.17 4.69323 -2.37954 0
M  V30 3367 O 321.196 4.7635 -3.11575 0
M  V30 3368 N 322.398 5.62705 -1.4263 0
M  V30 3369 H 325.163 1.6936 -2.4726 0
M  V30 3370 H 322.724 0.79114 -1.41254 0
M  V30 3371 H 324.716 3.87071 -1.18144 0
M  V30 3372 H 323.286 3.09217 -0.458623 0
M  V30 3373 H 322.506 2.66256 -2.90691 0
M  V30 3374 H 323.794 3.76677 -3.42041 0
M  V30 3375 H 323.192 5.59744 -0.818758 0
M  V30 3376 H 321.749 6.38252 -1.32202 0
M  V30 3377 N 325.182 1.32811 0.848464 0
M  V30 3378 C 326.092 1.24278 1.98978 0
M  V30 3379 C 327.108 0.155176 1.73307 0
M  V30 3380 O 328.284 0.376999 1.9784 0
M  V30 3381 C 325.349 0.972444 3.32783 0
M  V30 3382 C 324.41 2.14911 3.71634 0
M  V30 3383 C 323.643 1.89157 4.99054 0
M  V30 3384 O 323.866 0.837165 5.64223 0
M  V30 3385 O 322.8 2.75433 5.35183 0
M  V30 3386 H 326.626 2.20238 2.09115 0
M  V30 3387 H 324.211 1.12762 0.980052 0
M  V30 3388 H 326.093 0.838432 4.12975 0
M  V30 3389 H 324.768 0.043051 3.23671 0
M  V30 3390 H 323.675 2.33862 2.91992 0
M  V30 3391 H 325.008 3.06151 3.85399 0
M  V30 3392 N 326.66 -1.06551 1.16123 0
M  V30 3393 C 327.59 -2.15935 0.88851 0
M  V30 3394 C 328.571 -1.69306 -0.164135 0
M  V30 3395 O 329.756 -1.94193 -0.0167857 0
M  V30 3396 C 326.886 -3.45149 0.385942 0
M  V30 3397 C 325.84 -4.05271 1.3762 0
M  V30 3398 C 325.166 -5.29664 0.732137 0
M  V30 3399 C 326.466 -4.44355 2.74493 0
M  V30 3400 H 328.16 -2.39006 1.80323 0
M  V30 3401 H 325.706 -1.14866 0.868435 0
M  V30 3402 H 327.659 -4.21004 0.182647 0
M  V30 3403 H 326.383 -3.21689 -0.564274 0
M  V30 3404 H 325.042 -3.3147 1.56599 0
M  V30 3405 H 324.69 -5.02499 -0.224483 0
M  V30 3406 H 324.39 -5.70848 1.39307 0
M  V30 3407 H 325.914 -6.08218 0.538802 0
M  V30 3408 H 327.328 -5.11303 2.59311 0
M  V30 3409 H 325.725 -4.96515 3.37035 0
M  V30 3410 H 326.795 -3.55339 3.29943 0
M  V30 3411 N 328.138 -0.959301 -1.25041 0
M  V30 3412 C 329.384 -0.617525 -1.9317 0
M  V30 3413 C 329.717 0.843981 -1.74902 0
M  V30 3414 O 328.992 1.60615 -1.09696 0
M  V30 3415 C 329.275 -0.982736 -3.46431 0
M  V30 3416 C 329.128 -2.50032 -3.73904 0
M  V30 3417 C 330.447 -0.511176 -4.37121 0
M  V30 3418 H 327.566 -0.22582 -0.701552 0
M  V30 3419 H 330.208 -1.19679 -1.4757 0
M  V30 3420 H 328.358 -0.489806 -3.854 0
M  V30 3421 H 330.03 -3.06737 -3.44544 0
M  V30 3422 H 328.273 -2.93598 -3.19348 0
M  V30 3423 H 328.944 -2.70635 -4.81103 0
M  V30 3424 H 331.42 -0.934075 -4.0548 0
M  V30 3425 H 330.296 -0.795361 -5.43107 0
M  V30 3426 H 330.557 0.588834 -4.38161 0
M  V30 3427 N 329.616 1.39756 -0.72842 0
M  V30 3428 C 330.548 2.29157 -0.0446202 0
M  V30 3429 C 331.561 1.46484 0.710367 0
M  V30 3430 O 332.75 1.69632 0.55562 0
M  V30 3431 C 329.85 3.24987 0.961071 0
M  V30 3432 C 329.023 4.36572 0.268967 0
M  V30 3433 C 328.082 5.12756 1.18184 0
M  V30 3434 O 327.108 5.6534 0.661794 0
M  V30 3435 N 328.31 5.23331 2.51206 0
M  V30 3436 H 331.075 2.88482 -0.812295 0
M  V30 3437 H 328.636 1.51265 -0.577098 0
M  V30 3438 H 330.628 3.72827 1.57423 0
M  V30 3439 H 329.198 2.66739 1.63 0
M  V30 3440 H 328.418 3.90694 -0.524574 0
M  V30 3441 H 329.706 5.08363 -0.210934 0
M  V30 3442 H 329.104 4.82116 2.9594 0
M  V30 3443 H 327.661 5.74634 3.07634 0
M  V30 3444 N 331.094 0.475555 1.50254 0
M  V30 3445 C 332.044 -0.335025 2.25525 0
M  V30 3446 C 333.028 -0.957625 1.29299 0
M  V30 3447 O 334.22 -0.869436 1.54175 0
M  V30 3448 C 331.349 -1.41385 3.12834 0
M  V30 3449 C 330.435 -0.798762 4.1651 0
M  V30 3450 N 330.826 0.0835815 5.05731 0
M  V30 3451 C 329.124 -1.06221 4.33166 0
M  V30 3452 C 329.825 0.433113 5.80085 0
M  V30 3453 N 328.801 -0.1928 5.43258 0
M  V30 3454 H 332.603 0.344612 2.91873 0
M  V30 3455 H 330.117 0.289986 1.5979 0
M  V30 3456 H 332.114 -2.00777 3.65368 0
M  V30 3457 H 330.774 -2.09543 2.48036 0
M  V30 3458 H 331.785 0.452715 5.15918 0
M  V30 3459 H 328.462 -1.73844 3.79585 0
M  V30 3460 H 329.852 1.15346 6.61925 0
M  V30 3461 N 332.573 -1.56217 0.208337 0
M  V30 3462 C 333.803 -2.02043 -0.431523 0
M  V30 3463 C 334.211 -1.08755 -1.54819 0
M  V30 3464 O 333.554 -0.0870009 -1.83494 0
M  V30 3465 C 333.616 -3.44239 -1.03633 0
M  V30 3466 C 333.28 -4.56965 -0.0567502 0
M  V30 3467 C 334.277 -5.14624 0.738773 0
M  V30 3468 C 331.962 -5.02266 0.0581736 0
M  V30 3469 C 333.956 -6.16045 1.63605 0
M  V30 3470 C 331.643 -6.03528 0.959001 0
M  V30 3471 C 332.641 -6.60293 1.7465 0
M  V30 3472 O 332.329 -7.59586 2.6322 0
M  V30 3473 H 332.061 -0.666772 -0.111313 0
M  V30 3474 H 334.615 -2.02919 0.318277 0
M  V30 3475 H 332.845 -3.40391 -1.83497 0
M  V30 3476 H 334.534 -3.73793 -1.58221 0
M  V30 3477 H 335.3 -4.80483 0.660364 0
M  V30 3478 H 331.179 -4.57771 -0.544633 0
M  V30 3479 H 334.723 -6.60279 2.25116 0
M  V30 3480 H 330.62 -6.37092 1.03848 0
M  V30 3481 H 331.388 -7.77057 2.57148 0
M  V30 3482 N 334.051 0.0651679 -1.57465 0
M  V30 3483 C 334.984 1.10876 -1.99453 0
M  V30 3484 C 335.962 1.37205 -0.872555 0
M  V30 3485 O 337.146 1.50468 -1.13542 0
M  V30 3486 C 334.273 2.45167 -2.3369 0
M  V30 3487 C 333.319 2.3493 -3.55964 0
M  V30 3488 S 334.152 1.73708 -5.06543 0
M  V30 3489 C 335.308 3.09563 -5.43987 0
M  V30 3490 H 335.541 0.750967 -2.87659 0
M  V30 3491 H 333.074 0.273933 -1.51951 0
M  V30 3492 H 335.032 3.22412 -2.54088 0
M  V30 3493 H 333.693 2.78105 -1.46001 0
M  V30 3494 H 332.886 3.3398 -3.77457 0
M  V30 3495 H 332.488 1.65823 -3.3523 0
M  V30 3496 H 334.78 4.05882 -5.42463 0
M  V30 3497 H 335.723 2.92843 -6.44708 0
M  V30 3498 H 336.131 3.10474 -4.71451 0
M  V30 3499 N 335.529 1.53961 0.336706 0
M  V30 3500 C 336.439 1.85432 1.43708 0
M  V30 3501 C 337.455 0.745053 1.57242 0
M  V30 3502 O 338.631 1.03804 1.72588 0
M  V30 3503 C 335.696 2.06349 2.78605 0
M  V30 3504 C 334.757 3.30191 2.74358 0
M  V30 3505 C 333.99 3.50101 4.02822 0
M  V30 3506 O 334.213 2.7371 5.00439 0
M  V30 3507 O 333.147 4.43547 4.06878 0
M  V30 3508 H 336.973 2.78975 1.20028 0
M  V30 3509 H 334.558 1.39701 0.52952 0
M  V30 3510 H 336.44 2.21513 3.58483 0
M  V30 3511 H 335.115 1.15995 3.02203 0
M  V30 3512 H 334.022 3.20425 1.93078 0
M  V30 3513 H 335.355 4.2056 2.55715 0
M  V30 3514 N 337.007 -0.598083 1.45811 0
M  V30 3515 C 338.253 -1.35882 1.50545 0
M  V30 3516 C 338.586 -1.93616 0.150445 0
M  V30 3517 O 337.861 -1.75604 -0.83628 0
M  V30 3518 C 338.144 -2.49966 2.59208 0
M  V30 3519 C 337.997 -1.97367 4.04186 0
M  V30 3520 C 339.316 -3.52068 2.64076 0
M  V30 3521 H 336.435 -0.492717 0.548087 0
M  V30 3522 H 339.077 -0.673319 1.77669 0
M  V30 3523 H 337.227 -3.08443 2.3621 0
M  V30 3524 H 338.899 -1.43466 4.38423 0
M  V30 3525 H 337.142 -1.283 4.14393 0
M  V30 3526 H 337.813 -2.79649 4.75921 0
M  V30 3527 H 340.289 -3.03448 2.84708 0
M  V30 3528 H 339.165 -4.2937 3.41954 0
M  V30 3529 H 339.426 -4.08304 1.69531 0
M  V30 3530 N 338.485 -1.33259 -0.841409 0
M  V30 3531 C 339.433 -1.23279 -1.97244 0
M  V30 3532 C 340.427 -0.134706 -1.68864 0
M  V30 3533 O 341.633 -0.298501 -1.77508 0
M  V30 3534 H 338.008 -0.382497 -0.647457 0
M  V30 3535 H 339.979 -2.18906 -2.02787 0
M  V30 3536 C 338.728 -0.986268 -3.33419 0
M  V30 3537 H 338.051 -1.82347 -3.55794 0
M  V30 3538 H 339.491 -0.956728 -4.13065 0
M  V30 3539 C 337.95 0.310842 -3.35463 0
M  V30 3540 O 338.48 1.31838 -3.79449 0
M  V30 3541 N 336.686 0.337485 -2.88634 0
M  V30 3542 H 336.233 -0.482967 -2.53032 0
M  V30 3543 H 336.191 1.20518 -2.90384 0
M  V30 3544 N 339.963 1.05934 -1.16686 0
M  V30 3545 C 341.24 1.75643 -0.860747 0
M  V30 3546 C 341.62 2.01144 0.640641 0
M  V30 3547 O 340.968 1.64147 1.58959 0
M  V30 3548 C 341.178 3.05493 -1.68745 0
M  V30 3549 C 342.526 3.79581 -1.90271 0
M  V30 3550 O 343.55 3.15344 -1.65641 0
M  V30 3551 O 342.409 4.9499 -2.31618 0
M  V30 3552 H 339.503 0.763426 -0.317977 0
M  V30 3553 H 342.049 1.1217 -1.27342 0
M  V30 3554 H 340.821 2.8264 -2.70611 0
M  V30 3555 H 340.444 3.76702 -1.27206 0
M  V30 3556 N 341.441 0.965919 1.2453 0
M  V30 3557 C 342.689 0.625593 1.92174 0
M  V30 3558 C 343.01 -0.841652 1.75901 0
M  V30 3559 O 342.28 -1.60061 1.12948 0
M  V30 3560 H 340.86 0.228388 0.71123 0
M  V30 3561 H 343.522 1.2266 1.51461 0
M  V30 3562 H 342.618 0.864653 2.99884 0
M  V30 3563 N 342.919 -1.39368 0.735821 0
M  V30 3564 C 343.849 -2.33234 0.111506 0
M  V30 3565 C 344.83 -1.53954 -0.723334 0
M  V30 3566 O 346.015 -1.82344 -0.668147 0
M  V30 3567 C 343.145 -3.38057 -0.795917 0
M  V30 3568 C 342.099 -4.2795 -0.065172 0
M  V30 3569 C 341.425 -5.23479 -1.08967 0
M  V30 3570 C 342.725 -5.10741 1.09273 0
M  V30 3571 H 344.419 -2.85692 0.895571 0
M  V30 3572 H 341.965 -1.37364 0.432109 0
M  V30 3573 H 343.918 -4.02675 -1.24221 0
M  V30 3574 H 342.642 -2.8404 -1.61211 0
M  V30 3575 H 341.301 -3.64813 0.361511 0
M  V30 3576 H 340.949 -4.65758 -1.89944 0
M  V30 3577 H 340.649 -5.84472 -0.605489 0
M  V30 3578 H 342.173 -5.90974 -1.53565 0
M  V30 3579 H 343.587 -5.68699 0.724841 0
M  V30 3580 H 341.984 -5.8088 1.50659 0
M  V30 3581 H 343.054 -4.45525 1.91404 0
M  V30 3582 N 344.397 -0.483516 -1.5 0
M  V30 3583 C 345.637 0.0657469 -2.04294 0
M  V30 3584 C 346.001 1.35869 -1.35659 0
M  V30 3585 O 347.202 1.99111 -1.80578 0
M  V30 3586 C 345.473 0.232758 -3.56641 0
M  V30 3587 S 347.032 0.738788 -4.32536 0
M  V30 3588 H 343.85 0.0100755 -0.710929 0
M  V30 3589 H 346.452 -0.653494 -1.84254 0
M  V30 3590 H 345.156 -0.713847 -4.04144 0
M  V30 3591 H 344.687 0.977751 -3.81056 0
M  V30 3592 H 346.702 2.01048 -4.53645 0
M  V30 3593 N 345.875 1.56104 -0.216619 0
M  V30 3594 C 346.823 2.21434 0.712036 0
M  V30 3595 C 347.817 1.19218 1.20348 0
M  V30 3596 O 349.023 1.3731 1.16387 0
M  V30 3597 H 345.398 0.70992 0.248026 0
M  V30 3598 H 347.369 2.98083 0.137558 0
M  V30 3599 C 346.118 2.90434 1.91163 0
M  V30 3600 H 345.441 3.68842 1.54258 0
M  V30 3601 H 346.881 3.39552 2.5393 0
M  V30 3602 C 345.34 1.92635 2.76394 0
M  V30 3603 O 345.87 1.44017 3.74996 0
M  V30 3604 N 344.076 1.60392 2.42328 0
M  V30 3605 H 343.623 2.00122 1.622 0
M  V30 3606 H 343.581 0.952159 2.99635 0
M  V30 3607 N 347.353 -0.0568162 1.57498 0
M  V30 3608 C 348.283 -1.06593 2.0775 0
M  V30 3609 C 349.264 -1.39448 0.974082 0
M  V30 3610 O 350.449 -1.48815 1.24771 0
M  V30 3611 C 347.579 -2.37509 2.5339 0
M  V30 3612 C 346.533 -2.1897 3.67745 0
M  V30 3613 C 345.859 -3.55402 3.99492 0
M  V30 3614 C 347.159 -1.59859 4.97235 0
M  V30 3615 H 348.853 -0.647706 2.9231 0
M  V30 3616 H 346.399 -0.310116 1.40621 0
M  V30 3617 H 348.352 -3.08409 2.87162 0
M  V30 3618 H 347.076 -2.8134 1.65878 0
M  V30 3619 H 345.735 -1.50508 3.3428 0
M  V30 3620 H 345.383 -3.9683 3.09088 0
M  V30 3621 H 345.083 -3.43831 4.76502 0
M  V30 3622 H 346.607 -4.27708 4.35773 0
M  V30 3623 H 348.021 -2.20642 5.29141 0
M  V30 3624 H 346.418 -1.58942 5.78669 0
M  V30 3625 H 347.488 -0.561506 4.81638 0
M  V30 3626 N 348.832 -1.54138 -0.328536 0
M  V30 3627 C 349.762 -1.86167 -1.40939 0
M  V30 3628 C 350.743 -0.718044 -1.54202 0
M  V30 3629 O 351.928 -0.971328 -1.68163 0
M  V30 3630 C 349.058 -2.08461 -2.77779 0
M  V30 3631 C 348.012 -3.24299 -2.7931 0
M  V30 3632 C 347.338 -3.31955 -4.19178 0
M  V30 3633 C 348.638 -4.62065 -2.43502 0
M  V30 3634 H 350.332 -2.76689 -1.14383 0
M  V30 3635 H 347.878 -1.33132 -0.548806 0
M  V30 3636 H 349.831 -2.29453 -3.53454 0
M  V30 3637 H 348.555 -1.14684 -3.05802 0
M  V30 3638 H 347.214 -3.03187 -2.0609 0
M  V30 3639 H 346.862 -2.35745 -4.44335 0
M  V30 3640 H 346.562 -4.09805 -4.2111 0
M  V30 3641 H 348.086 -3.55175 -4.96672 0
M  V30 3642 H 349.5 -4.8297 -3.08889 0
M  V30 3643 H 347.897 -5.42429 -2.56693 0
M  V30 3644 H 348.967 -4.64652 -1.38659 0
M  V30 3645 N 350.31 0.590341 -1.46126 0
M  V30 3646 C 351.559 1.34499 -1.50309 0
M  V30 3647 C 351.872 1.94977 -0.156021 0
M  V30 3648 O 353.078 2.71395 -0.0756037 0
M  V30 3649 C 351.534 2.43723 -2.64815 0
M  V30 3650 C 351.142 1.89582 -4.0591 0
M  V30 3651 C 352.886 3.20579 -2.78262 0
M  V30 3652 C 350.793 2.9639 -5.11769 0
M  V30 3653 H 349.723 0.505593 -0.559368 0
M  V30 3654 H 352.374 0.630848 -1.72315 0
M  V30 3655 H 350.756 3.17902 -2.36124 0
M  V30 3656 H 351.93 1.21997 -4.44357 0
M  V30 3657 H 350.245 1.25418 -3.97063 0
M  V30 3658 H 352.842 4.00276 -3.54519 0
M  V30 3659 H 353.185 3.72684 -1.85505 0
M  V30 3660 H 353.718 2.53505 -3.06562 0
M  V30 3661 H 350.457 2.49181 -6.06291 0
M  V30 3662 H 349.977 3.62487 -4.77873 0
M  V30 3663 H 351.656 3.60474 -5.37278 0
M  V30 3664 N 351.788 1.33704 0.83433 0
M  V30 3665 C 352.751 1.24244 1.92603 0
M  V30 3666 C 353.751 0.160383 1.59998 0
M  V30 3667 O 354.941 0.412228 1.69252 0
M  V30 3668 C 352.073 0.91555 3.28376 0
M  V30 3669 H 353.266 2.21287 2.02416 0
M  V30 3670 H 350.819 1.17827 1.02696 0
M  V30 3671 H 351.554 -0.0521886 3.24258 0
M  V30 3672 H 351.339 1.69811 3.53422 0
M  V30 3673 H 352.829 0.874231 4.08347 0
M  V30 3674 N 353.266 -1.05314 1.17247 0
M  V30 3675 C 354.677 -1.59753 0.96623 0
M  V30 3676 C 355.028 -1.9005 -0.487378 0
M  V30 3677 O 354.153 -1.68126 -1.36245 0
M  V30 3678 C 354.748 -2.90249 1.74759 0
M  V30 3679 C 353.307 -3.41352 1.58606 0
M  V30 3680 C 352.454 -2.15103 1.75002 0
M  V30 3681 H 355.405 -0.881406 1.31973 0
M  V30 3682 H 355.426 -3.60097 1.22925 0
M  V30 3683 H 354.938 -2.68166 2.8055 0
M  V30 3684 H 353.039 -3.68474 0.552985 0
M  V30 3685 H 353.152 -4.16019 2.37624 0
M  V30 3686 H 351.516 -2.25804 1.17833 0
M  V30 3687 H 352.299 -1.95491 2.82202 0
M  V30 3688 N 354.744 -0.972509 -1.24016 0
M  V30 3689 C 355.984 -0.644951 -1.93958 0
M  V30 3690 C 356.348 0.80559 -1.74282 0
M  V30 3691 O 357.549 1.2436 -2.38302 0
M  V30 3692 C 355.82 -1.01521 -3.42678 0
M  V30 3693 S 357.379 -0.802927 -4.31391 0
M  V30 3694 H 354.197 -0.236452 -0.670531 0
M  V30 3695 H 356.799 -1.25048 -1.50277 0
M  V30 3696 H 355.503 -2.06769 -3.54506 0
M  V30 3697 H 355.034 -0.400648 -3.91355 0
M  V30 3698 H 357.049 0.317256 -4.95185 0
M  V30 3699 N 356.222 1.38976 -0.743202 0
M  V30 3700 C 357.45 2.04636 -0.30525 0
M  V30 3701 C 357.865 1.56044 1.06281 0
M  V30 3702 O 357.222 0.728921 1.67311 0
M  V30 3703 C 357.273 3.60193 -0.307177 0
M  V30 3704 O 356.994 4.06998 -1.62124 0
M  V30 3705 C 358.495 4.4306 0.145928 0
M  V30 3706 H 355.715 0.65788 -0.132041 0
M  V30 3707 H 358.259 1.77866 -1.00915 0
M  V30 3708 H 356.414 3.85835 0.347898 0
M  V30 3709 H 356.828 5.01371 -1.54036 0
M  V30 3710 H 358.302 5.51921 0.0934183 0
M  V30 3711 H 358.779 4.22706 1.19231 0
M  V30 3712 H 359.385 4.22584 -0.479886 0
M  V30 3713 N 357.7 0.491464 1.49741 0
M  V30 3714 C 358.949 -0.0582189 2.01616 0
M  V30 3715 C 359.262 -1.38927 1.3769 0
M  V30 3716 O 360.468 -2.02509 1.80838 0
M  V30 3717 C 358.924 -0.154235 3.59569 0
M  V30 3718 C 358.532 1.1696 4.32463 0
M  V30 3719 C 360.276 -0.65479 4.1942 0
M  V30 3720 C 358.183 1.03627 5.8225 0
M  V30 3721 H 357.113 -0.0255317 0.753568 0
M  V30 3722 H 359.764 0.629445 1.72367 0
M  V30 3723 H 358.146 -0.906138 3.85493 0
M  V30 3724 H 359.32 1.93405 4.18248 0
M  V30 3725 H 357.635 1.60285 3.84315 0
M  V30 3726 H 360.232 -0.771903 5.29099 0
M  V30 3727 H 360.575 -1.65127 3.8215 0
M  V30 3728 H 361.108 0.040304 3.9778 0
M  V30 3729 H 357.847 2.00672 6.24028 0
M  V30 3730 H 357.367 0.312546 5.98985 0
M  V30 3731 H 359.046 0.711114 6.4308 0
M  V30 3732 N 359.178 -1.55987 0.224894 0
M  V30 3733 C 360.111 -2.16413 -0.723929 0
M  V30 3734 C 361.089 -1.10952 -1.18863 0
M  V30 3735 O 362.273 -1.39225 -1.27077 0
M  V30 3736 C 359.4 -2.74711 -1.98121 0
M  V30 3737 C 358.446 -3.9303 -1.6562 0
M  V30 3738 S 359.279 -5.29817 -0.778058 0
M  V30 3739 C 360.435 -5.91555 -2.04483 0
M  V30 3740 H 360.668 -2.96555 -0.210347 0
M  V30 3741 H 358.201 -1.54397 0.00955457 0
M  V30 3742 H 360.159 -3.08938 -2.70311 0
M  V30 3743 H 358.82 -1.94555 -2.46591 0
M  V30 3744 H 358.013 -4.32334 -2.59043 0
M  V30 3745 H 357.615 -3.59966 -1.01491 0
M  V30 3746 H 359.907 -6.07732 -2.99446 0
M  V30 3747 H 360.85 -6.87498 -1.69563 0
M  V30 3748 H 361.258 -5.20419 -2.18688 0
M  V30 3749 N 360.656 0.0484629 -1.57525 0
M  V30 3750 C 361.603 1.05504 -2.05275 0
M  V30 3751 C 362.573 1.37084 -0.937927 0
M  V30 3752 O 363.758 1.47754 -1.2072 0
M  V30 3753 C 360.898 2.35676 -2.52093 0
M  V30 3754 C 360.011 2.10423 -3.77288 0
M  V30 3755 C 359.146 3.34327 -4.12794 0
M  V30 3756 C 358.185 3.04542 -5.30962 0
M  V30 3757 N 357.322 4.20841 -5.61994 0
M  V30 3758 H 362.162 0.640885 -2.91027 0
M  V30 3759 H 359.699 0.304854 -1.43906 0
M  V30 3760 H 361.657 3.11709 -2.77297 0
M  V30 3761 H 360.287 2.7485 -1.69285 0
M  V30 3762 H 359.339 1.24976 -3.59284 0
M  V30 3763 H 360.651 1.84438 -4.63448 0
M  V30 3764 H 359.805 4.1874 -4.39024 0
M  V30 3765 H 358.544 3.63408 -3.25247 0
M  V30 3766 H 357.549 2.18528 -5.04505 0
M  V30 3767 H 358.774 2.76758 -6.20146 0
M  V30 3768 H 356.72 4.4991 -4.77406 0
M  V30 3769 H 356.637 3.98212 -6.42622 0
M  V30 3770 H 357.905 5.06184 -5.92789 0
M  V30 3771 N 362.134 1.5431 0.320358 0
M  V30 3772 C 363.545 1.63872 0.894594 0
M  V30 3773 C 363.896 0.534847 1.88769 0
M  V30 3774 O 363.021 -0.331732 2.13842 0
M  V30 3775 C 363.616 2.97049 1.62934 0
M  V30 3776 C 362.175 3.08796 2.15226 0
M  V30 3777 C 361.322 2.59456 0.978671 0
M  V30 3778 H 364.273 1.58398 0.0978544 0
M  V30 3779 H 364.294 2.87388 2.49376 0
M  V30 3780 H 363.806 3.7737 0.906302 0
M  V30 3781 H 361.907 2.33156 2.90636 0
M  V30 3782 H 362.02 4.14649 2.40006 0
M  V30 3783 H 360.384 2.1543 1.35875 0
M  V30 3784 H 361.167 3.42237 0.269895 0
M  V30 3785 N 363.613 -0.582584 1.46437 0
M  V30 3786 C 364.545 -1.70618 1.53043 0
M  V30 3787 C 365.558 -1.57322 0.418769 0
M  V30 3788 O 366.747 -1.64744 0.687136 0
M  V30 3789 C 363.847 -3.08869 1.39474 0
M  V30 3790 C 363.02 -3.48166 2.64762 0
M  V30 3791 C 362.079 -4.65478 2.4539 0
M  V30 3792 O 361.105 -4.71333 3.19114 0
M  V30 3793 N 362.307 -5.60365 1.51564 0
M  V30 3794 H 365.072 -1.65405 2.49923 0
M  V30 3795 H 362.633 -0.768567 1.42494 0
M  V30 3796 H 364.625 -3.85143 1.24287 0
M  V30 3797 H 363.195 -3.08449 0.507758 0
M  V30 3798 H 362.415 -2.61598 2.9489 0
M  V30 3799 H 363.703 -3.71188 3.4799 0
M  V30 3800 H 363.101 -5.5837 0.907705 0
M  V30 3801 H 361.658 -6.36068 1.4234 0
M  V30 3802 N 365.091 -1.34144 -0.827227 0
M  V30 3803 C 366.319 -1.29325 -1.61501 0
M  V30 3804 C 366.734 0.13354 -1.88327 0
M  V30 3805 O 366.091 1.0793 -1.47164 0
M  V30 3806 C 366.142 -2.07746 -2.95844 0
M  V30 3807 O 365.863 -3.4486 -2.70191 0
M  V30 3808 C 367.364 -2.10273 -3.90256 0
M  V30 3809 H 364.584 -0.445069 -0.50215 0
M  V30 3810 H 367.128 -1.76693 -1.02955 0
M  V30 3811 H 365.283 -1.6403 -3.5096 0
M  V30 3812 H 365.697 -3.85345 -3.55822 0
M  V30 3813 H 367.171 -2.69575 -4.81698 0
M  V30 3814 H 367.648 -1.096 -4.25305 0
M  V30 3815 H 368.254 -2.54059 -3.41078 0
M  V30 3816 N 366.569 1.04691 -1.17803 0
M  V30 3817 C 367.499 2.14494 -0.92275 0
M  V30 3818 C 368.48 1.69546 0.137179 0
M  V30 3819 O 369.665 1.94195 -0.0141108 0
M  V30 3820 C 366.795 3.44491 -0.440803 0
M  V30 3821 C 365.749 4.03031 -1.4405 0
M  V30 3822 C 365.075 5.28432 -0.81631 0
M  V30 3823 C 366.375 4.39932 -2.81527 0
M  V30 3824 H 368.069 2.36107 -1.84103 0
M  V30 3825 H 365.615 1.1347 -0.886599 0
M  V30 3826 H 367.568 4.2066 -0.249602 0
M  V30 3827 H 366.292 3.22546 0.513025 0
M  V30 3828 H 364.951 3.28937 -1.61853 0
M  V30 3829 H 364.599 5.02792 0.144511 0
M  V30 3830 H 364.299 5.68559 -1.48371 0
M  V30 3831 H 365.823 6.07284 -0.635496 0
M  V30 3832 H 367.237 5.07113 -2.67412 0
M  V30 3833 H 365.634 4.9109 -3.44892 0
M  V30 3834 H 366.704 3.50045 -3.35554 0
M  V30 3835 N 368.047 0.979072 1.23499 0
M  V30 3836 C 369.295 0.645941 1.91499 0
M  V30 3837 C 369.616 -0.822948 1.76784 0
M  V30 3838 O 368.886 -1.58854 1.14639 0
M  V30 3839 H 367.466 0.235919 0.708767 0
M  V30 3840 H 370.128 1.2426 1.50152 0
M  V30 3841 H 369.224 0.896411 2.9895 0
M  V30 3842 N 369.525 -1.3858 0.750561 0
M  V30 3843 C 370.455 -2.33102 0.136237 0
M  V30 3844 C 371.436 -1.54713 -0.706965 0
M  V30 3845 O 372.621 -1.83043 -0.648769 0
M  V30 3846 C 369.751 -3.38882 -0.760017 0
M  V30 3847 C 368.705 -4.27995 -0.0197785 0
M  V30 3848 C 368.031 -5.24605 -1.03408 0
M  V30 3849 C 369.331 -5.09554 1.14684 0
M  V30 3850 H 371.025 -2.84726 0.925822 0
M  V30 3851 H 368.571 -1.36898 0.446654 0
M  V30 3852 H 370.524 -4.0397 -1.19943 0
M  V30 3853 H 369.248 -2.85734 -1.58189 0
M  V30 3854 H 367.907 -3.64409 0.400184 0
M  V30 3855 H 367.555 -4.67746 -1.84994 0
M  V30 3856 H 367.255 -5.85081 -0.543464 0
M  V30 3857 H 368.779 -5.9257 -1.47288 0
M  V30 3858 H 370.193 -5.67899 0.785118 0
M  V30 3859 H 368.59 -5.7925 1.56812 0
M  V30 3860 H 369.66 -4.4347 1.96118 0
M  V30 3861 N 371.003 -0.499398 -1.49478 0
M  V30 3862 C 371.966 0.268838 -2.27618 0
M  V30 3863 C 372.966 0.895383 -1.33565 0
M  V30 3864 O 374.156 0.760164 -1.56739 0
M  V30 3865 C 371.288 1.38559 -3.11471 0
M  V30 3866 H 372.481 -0.416812 -2.96989 0
M  V30 3867 H 370.034 -0.254313 -1.54217 0
M  V30 3868 H 370.769 2.10544 -2.46661 0
M  V30 3869 H 370.554 0.941797 -3.80621 0
M  V30 3870 H 372.044 1.92678 -3.70493 0
M  V30 3871 N 372.481 1.55866 -0.233164 0
M  V30 3872 C 373.428 2.20796 0.67215 0
M  V30 3873 C 374.398 1.16731 1.18166 0
M  V30 3874 O 375.583 1.45129 1.23864 0
M  V30 3875 C 372.723 2.90072 1.86955 0
M  V30 3876 C 371.836 4.08759 1.39786 0
M  V30 3877 C 370.971 4.65787 2.55374 0
M  V30 3878 C 370.01 5.76752 2.04998 0
M  V30 3879 N 369.147 6.28021 3.13901 0
M  V30 3880 H 373.987 2.9779 0.111749 0
M  V30 3881 H 371.524 1.47036 0.0434007 0
M  V30 3882 H 373.482 3.28428 2.57276 0
M  V30 3883 H 372.112 2.15575 2.40265 0
M  V30 3884 H 371.164 3.7581 0.589173 0
M  V30 3885 H 372.476 4.88906 0.98856 0
M  V30 3886 H 371.63 5.06646 3.33758 0
M  V30 3887 H 370.369 3.84828 2.99598 0
M  V30 3888 H 369.374 5.35383 1.25079 0
M  V30 3889 H 370.599 6.59553 1.61759 0
M  V30 3890 H 368.545 5.49971 3.57586 0
M  V30 3891 H 368.462 7.03323 2.7726 0
M  V30 3892 H 369.73 6.73538 3.92386 0
M  V30 3893 N 373.959 -0.0401083 1.57549 0
M  V30 3894 C 375.236 -0.767917 1.79896 0
M  V30 3895 C 375.616 -1.9416 0.82856 0
M  V30 3896 O 374.964 -2.2812 -0.131671 0
M  V30 3897 C 375.174 -1.2113 3.27305 0
M  V30 3898 C 376.522 -1.63175 3.91994 0
M  V30 3899 O 377.546 -1.30616 3.31388 0
M  V30 3900 O 376.405 -2.23565 4.98679 0
M  V30 3901 H 373.499 -0.370441 0.739393 0
M  V30 3902 H 376.045 -0.017737 1.69691 0
M  V30 3903 H 374.817 -0.372937 3.89519 0
M  V30 3904 H 374.44 -2.02183 3.42356 0
M  V30 3905 N 375.437 -1.54477 -0.31217 0
M  V30 3906 C 376.4 -1.83923 -1.36766 0
M  V30 3907 C 377.4 -0.711563 -1.44199 0
M  V30 3908 O 378.59 -0.979866 -1.44029 0
M  V30 3909 C 375.722 -2.0095 -2.75376 0
M  V30 3910 H 376.915 -2.78239 -1.11906 0
M  V30 3911 H 374.468 -1.46369 -0.548257 0
M  V30 3912 H 375.203 -1.08883 -3.05475 0
M  V30 3913 H 374.988 -2.83018 -2.71373 0
M  V30 3914 H 376.478 -2.2514 -3.51713 0
M  V30 3915 N 376.915 0.57481 -1.46744 0
M  V30 3916 C 378.161 1.33251 -1.53674 0
M  V30 3917 C 378.516 1.91468 -0.189125 0
M  V30 3918 O 377.809 1.73954 0.803151 0
M  V30 3919 C 378.003 2.476 -2.57738 0
M  V30 3920 C 377.832 2.00586 -4.02487 0
M  V30 3921 C 376.602 1.85237 -4.70123 0
M  V30 3922 C 378.8 1.56078 -4.90045 0
M  V30 3923 N 376.782 1.32377 -5.99458 0
M  V30 3924 C 378.153 1.14863 -6.09267 0
M  V30 3925 C 380.208 1.43968 -4.76632 0
M  V30 3926 C 378.911 0.627435 -7.16558 0
M  V30 3927 C 380.937 0.932512 -5.84002 0
M  V30 3928 C 380.299 0.53019 -7.02402 0
M  V30 3929 H 376.398 0.480284 -0.617131 0
M  V30 3930 H 378.982 0.653592 -1.83402 0
M  V30 3931 H 377.153 3.13045 -2.29907 0
M  V30 3932 H 378.885 3.14567 -2.54616 0
M  V30 3933 H 375.64 2.07423 -4.25761 0
M  V30 3934 H 376.064 1.08085 -6.68316 0
M  V30 3935 H 380.706 1.73689 -3.85476 0
M  V30 3936 H 378.424 0.317821 -8.07475 0
M  V30 3937 H 382.01 0.842611 -5.75666 0
M  V30 3938 H 380.89 0.14381 -7.84068 0
M  V30 3939 N 378.394 1.34581 0.820102 0
M  V30 3940 C 379.304 1.28471 1.96297 0
M  V30 3941 C 380.32 0.191902 1.72939 0
M  V30 3942 O 381.496 0.418879 1.96996 0
M  V30 3943 C 378.561 1.04281 3.30645 0
M  V30 3944 C 377.622 2.22745 3.66992 0
M  V30 3945 C 376.855 1.997 4.9493 0
M  V30 3946 O 377.078 0.956656 5.6232 0
M  V30 3947 O 376.012 2.86723 5.2922 0
M  V30 3948 H 379.838 2.24624 2.04396 0
M  V30 3949 H 377.423 1.14816 0.955913 0
M  V30 3950 H 379.305 0.925841 4.11104 0
M  V30 3951 H 377.98 0.111697 3.23507 0
M  V30 3952 H 376.887 2.40003 2.86966 0
M  V30 3953 H 378.22 3.14257 3.78819 0
M  V30 3954 N 379.872 -1.04064 1.18357 0
M  V30 3955 C 381.121 -1.76662 0.973313 0
M  V30 3956 C 381.434 -1.89154 -0.497991 0
M  V30 3957 O 382.64 -2.58606 -0.826762 0
M  V30 3958 C 381.096 -3.17624 1.69242 0
M  V30 3959 C 380.704 -3.13225 3.20303 0
M  V30 3960 C 382.448 -3.946 1.56497 0
M  V30 3961 C 380.355 -4.49046 3.84853 0
M  V30 3962 H 379.285 -0.662214 0.36054 0
M  V30 3963 H 381.936 -1.16553 1.41731 0
M  V30 3964 H 380.318 -3.78129 1.1762 0
M  V30 3965 H 381.492 -2.62172 3.78949 0
M  V30 3966 H 379.807 -2.49749 3.33189 0
M  V30 3967 H 382.404 -4.95042 2.02084 0
M  V30 3968 H 382.747 -4.13074 0.517243 0
M  V30 3969 H 383.28 -3.4067 2.05399 0
M  V30 3970 H 380.019 -4.35777 4.89672 0
M  V30 3971 H 379.539 -5.00203 3.30994 0
M  V30 3972 H 381.218 -5.17961 3.87718 0
M  V30 3973 N 381.35 -0.985608 -1.22978 0
M  V30 3974 C 382.575 -0.675254 -1.961 0
M  V30 3975 C 383 0.752154 -1.72407 0
M  V30 3976 O 382.358 1.5131 -0.998751 0
M  V30 3977 C 382.406 -0.977899 -3.47087 0
M  V30 3978 O 381.51 -0.072685 -4.12336 0
M  V30 3979 H 380.851 -0.253443 -0.613728 0
M  V30 3980 H 383.381 -1.32061 -1.56272 0
M  V30 3981 H 383.391 -0.916739 -3.97567 0
M  V30 3982 H 382.066 -2.01807 -3.63657 0
M  V30 3983 H 380.643 -0.188703 -3.72422 0
M  V30 3984 N 382.828 1.3818 -0.7579 0
M  V30 3985 C 384.244 1.5353 -0.435972 0
M  V30 3986 C 384.444 1.71961 1.05032 0
M  V30 3987 O 383.5 1.73307 1.83633 0
M  V30 3988 C 384.813 2.73989 -1.23898 0
M  V30 3989 C 386.361 2.87841 -1.22949 0
M  V30 3990 C 386.836 4.11266 -2.01554 0
M  V30 3991 N 388.327 4.18352 -1.98837 0
M  V30 3992 C 389.062 5.12856 -2.5645 0
M  V30 3993 N 388.558 6.13005 -3.22794 0
M  V30 3994 N 390.351 5.05238 -2.46356 0
M  V30 3995 H 382.502 1.24467 -1.7211 0
M  V30 3996 H 384.765 0.604982 -0.729864 0
M  V30 3997 H 384.471 2.66789 -2.29165 0
M  V30 3998 H 384.345 3.67294 -0.858764 0
M  V30 3999 H 386.732 2.9452 -0.184854 0
M  V30 4000 H 386.813 1.95534 -1.64924 0
M  V30 4001 H 386.457 4.05349 -3.06031 0
M  V30 4002 H 386.387 5.02661 -1.5697 0
M  V30 4003 H 388.878 3.46628 -1.50524 0
M  V30 4004 H 389.191 6.81619 -3.64165 0
M  V30 4005 H 387.536 6.13325 -3.2689 0
M  V30 4006 H 390.727 4.25938 -1.9415 0
M  V30 4007 H 390.9 5.78707 -2.91552 0
M  V30 4008 N 384.306 0.507319 1.49211 0
M  V30 4009 C 385.531 -0.033725 2.07373 0
M  V30 4010 C 385.956 -1.29485 1.36437 0
M  V30 4011 O 385.314 -1.76294 0.423087 0
M  V30 4012 C 385.362 -0.263945 3.59633 0
M  V30 4013 O 384.466 -1.33737 3.90113 0
M  V30 4014 H 383.807 0.0290331 0.663365 0
M  V30 4015 H 386.337 0.708749 1.91932 0
M  V30 4016 H 386.347 -0.493536 4.05004 0
M  V30 4017 H 385.022 0.657424 4.10671 0
M  V30 4018 H 383.599 -1.09224 3.56545 0
M  V30 4019 N 385.784 -1.5574 0.241426 0
M  V30 4020 C 387.009 -2.0366 -0.392111 0
M  V30 4021 C 387.434 -1.11969 -1.51144 0
M  V30 4022 O 386.792 -0.111594 -1.80956 0
M  V30 4023 C 386.84 -3.49638 -0.882371 0
M  V30 4024 O 385.944 -3.6108 -1.99235 0
M  V30 4025 H 385.285 -0.658379 -0.0862122 0
M  V30 4026 H 387.815 -2.01302 0.365881 0
M  V30 4027 H 387.825 -3.90351 -1.18702 0
M  V30 4028 H 386.5 -4.15852 -0.0632361 0
M  V30 4029 H 385.077 -3.32262 -1.69282 0
M  V30 4030 N 387.262 0.0317525 -1.57568 0
M  V30 4031 C 388.511 0.722131 -1.8833 0
M  V30 4032 C 388.824 1.76664 -0.839587 0
M  V30 4033 O 390.03 2.50942 -1.03635 0
M  V30 4034 C 388.486 1.33544 -3.34207 0
M  V30 4035 C 388.094 0.327415 -4.46802 0
M  V30 4036 C 389.838 2.00585 -3.7412 0
M  V30 4037 C 387.745 0.948915 -5.83738 0
M  V30 4038 H 386.675 0.273466 -0.702661 0
M  V30 4039 H 389.326 -0.0235811 -1.83485 0
M  V30 4040 H 387.708 2.13077 -3.33788 0
M  V30 4041 H 388.882 -0.441006 -4.58685 0
M  V30 4042 H 387.197 -0.240758 -4.15703 0
M  V30 4043 H 389.794 2.47932 -4.73744 0
M  V30 4044 H 390.137 2.82285 -3.05975 0
M  V30 4045 H 390.67 1.27831 -3.76702 0
M  V30 4046 H 387.409 0.171387 -6.55276 0
M  V30 4047 H 386.929 1.68724 -5.7558 0
M  V30 4048 H 388.608 1.45705 -6.3038 0
M  V30 4049 N 388.74 1.54641 0.303973 0
M  V30 4050 C 389.968 1.77768 1.05858 0
M  V30 4051 C 390.383 0.535722 1.8104 0
M  V30 4052 O 389.74 -0.494337 1.75677 0
M  V30 4053 C 389.791 2.9834 2.04146 0
M  V30 4054 O 389.512 4.17736 1.32015 0
M  V30 4055 C 391.013 3.33832 2.91669 0
M  V30 4056 H 388.233 0.592961 0.314067 0
M  V30 4057 H 390.777 2.01583 0.344149 0
M  V30 4058 H 388.932 2.76742 2.71096 0
M  V30 4059 H 389.346 4.85693 1.97998 0
M  V30 4060 H 390.82 4.21448 3.56491 0
M  V30 4061 H 391.297 2.51857 3.59812 0
M  V30 4062 H 391.903 3.57579 2.30254 0
M  V30 4063 N 390.218 -0.567019 1.47046 0
M  V30 4064 C 391.148 -1.68482 1.61667 0
M  V30 4065 C 392.129 -1.6358 0.466418 0
M  V30 4066 O 393.314 -1.81354 0.694574 0
M  V30 4067 C 390.444 -3.07124 1.62148 0
M  V30 4068 C 389.398 -3.26867 2.76301 0
M  V30 4069 C 388.724 -4.66196 2.61849 0
M  V30 4070 C 390.024 -3.13186 4.17986 0
M  V30 4071 H 391.718 -1.56502 2.5524 0
M  V30 4072 H 389.264 -0.751486 1.22836 0
M  V30 4073 H 391.217 -3.8516 1.70968 0
M  V30 4074 H 389.941 -3.2004 0.651287 0
M  V30 4075 H 388.6 -2.51237 2.66975 0
M  V30 4076 H 388.248 -4.75898 1.62879 0
M  V30 4077 H 387.948 -4.80356 3.38425 0
M  V30 4078 H 389.472 -5.46379 2.72584 0
M  V30 4079 H 390.886 -3.81049 4.2834 0
M  V30 4080 H 389.283 -3.3886 4.95272 0
M  V30 4081 H 390.353 -2.10057 4.3704 0
M  V30 4082 N 391.696 -1.35014 -0.812953 0
M  V30 4083 C 392.606 -1.2951 -1.95613 0
M  V30 4084 C 393.622 -0.20107 -1.72834 0
M  V30 4085 O 394.798 -0.42932 -1.96771 0
M  V30 4086 C 391.863 -1.06033 -3.30088 0
M  V30 4087 C 390.924 -2.24688 -3.65805 0
M  V30 4088 C 390.157 -2.02322 -4.93864 0
M  V30 4089 O 390.38 -0.986464 -5.61805 0
M  V30 4090 O 389.314 -2.89525 -5.27692 0
M  V30 4091 H 393.14 -2.25705 -2.03202 0
M  V30 4092 H 390.725 -1.15321 -0.949811 0
M  V30 4093 H 392.607 -0.94763 -4.10607 0
M  V30 4094 H 391.282 -0.128852 -3.23443 0
M  V30 4095 H 390.189 -2.41521 -2.85689 0
M  V30 4096 H 391.522 -3.16261 -3.77147 0
M  V30 4097 N 393.175 1.03435 -1.18907 0
M  V30 4098 C 394.591 1.28973 -0.940111 0
M  V30 4099 C 394.791 1.97676 0.390691 0
M  V30 4100 O 393.847 2.26127 1.12352 0
M  V30 4101 C 395.16 2.14221 -2.11021 0
M  V30 4102 C 396.708 2.27547 -2.14922 0
M  V30 4103 C 397.183 3.16164 -3.31367 0
M  V30 4104 N 398.674 3.23752 -3.31269 0
M  V30 4105 C 399.409 3.92495 -4.18014 0
M  V30 4106 N 398.905 4.63515 -5.14904 0
M  V30 4107 N 400.698 3.88838 -4.05908 0
M  V30 4108 H 392.849 0.57252 -2.04538 0
M  V30 4109 H 395.112 0.315184 -0.894071 0
M  V30 4110 H 394.818 1.71054 -3.073 0
M  V30 4111 H 394.692 3.14919 -2.0762 0
M  V30 4112 H 397.079 2.69947 -1.19217 0
M  V30 4113 H 397.16 1.26418 -2.22378 0
M  V30 4114 H 396.804 2.74474 -4.27348 0
M  V30 4115 H 396.734 4.17339 -3.21148 0
M  V30 4116 H 399.225 2.73167 -2.61129 0
M  V30 4117 H 399.538 5.13583 -5.77453 0
M  V30 4118 H 397.883 4.62398 -5.18857 0
M  V30 4119 H 401.074 3.32491 -3.29495 0
M  V30 4120 H 401.247 4.4214 -4.73726 0
M  V30 4121 N 394.653 0.992116 1.22453 0
M  V30 4122 C 396.069 0.702713 1.43297 0
M  V30 4123 C 396.269 -0.726909 1.87932 0
M  V30 4124 O 395.325 -1.49792 2.0327 0
M  V30 4125 C 396.638 1.70762 2.47509 0
M  V30 4126 C 398.186 1.72298 2.61309 0
M  V30 4127 C 398.661 2.71649 3.68742 0
M  V30 4128 N 400.152 2.70239 3.76199 0
M  V30 4129 C 400.887 3.43778 4.58917 0
M  V30 4130 N 400.383 4.26914 5.45633 0
M  V30 4131 N 402.176 3.32487 4.5322 0
M  V30 4132 H 394.327 1.91543 0.917871 0
M  V30 4133 H 396.59 0.826031 0.465162 0
M  V30 4134 H 396.296 2.73059 2.21657 0
M  V30 4135 H 396.17 1.49985 3.46099 0
M  V30 4136 H 398.557 0.706989 2.86506 0
M  V30 4137 H 398.638 1.97143 1.62997 0
M  V30 4138 H 398.282 3.73397 3.44292 0
M  V30 4139 H 398.212 2.44074 4.66622 0
M  V30 4140 H 400.703 2.09912 3.14237 0
M  V30 4141 H 401.016 4.79855 6.05771 0
M  V30 4142 H 399.361 4.31002 5.45218 0
M  V30 4143 H 402.552 2.6698 3.84499 0
M  V30 4144 H 402.725 3.90058 5.17454 0
M  V30 4145 N 396.131 -1.37776 0.765217 0
M  V30 4146 C 397.061 -2.32945 0.160953 0
M  V30 4147 C 398.042 -1.55454 -0.690516 0
M  V30 4148 O 399.227 -1.83721 -0.629318 0
M  V30 4149 C 396.357 -3.39669 -0.724031 0
M  V30 4150 C 395.311 -4.27992 0.0256173 0
M  V30 4151 C 394.637 -5.25673 -0.978383 0
M  V30 4152 C 395.937 -5.08309 1.20082 0
M  V30 4153 H 397.631 -2.83728 0.955969 0
M  V30 4154 H 395.177 -1.36416 0.461149 0
M  V30 4155 H 397.13 -4.05219 -1.15652 0
M  V30 4156 H 395.854 -2.87396 -1.5515 0
M  V30 4157 H 394.513 -3.63964 0.438812 0
M  V30 4158 H 394.161 -4.69682 -1.80022 0
M  V30 4159 H 393.861 -5.85625 -0.481378 0
M  V30 4160 H 395.385 -5.94098 -1.40995 0
M  V30 4161 H 396.799 -5.67034 0.845307 0
M  V30 4162 H 395.196 -5.77554 1.62947 0
M  V30 4163 H 396.266 -4.41365 2.00811 0
M  V30 4164 N 397.609 -0.515225 -1.4894 0
M  V30 4165 C 398.857 0.0241671 -2.02086 0
M  V30 4166 C 399.178 1.3616 -1.3959 0
M  V30 4167 O 398.448 1.87841 -0.556121 0
M  V30 4168 H 397.028 0.0119203 -0.746905 0
M  V30 4169 H 399.69 -0.675702 -1.82812 0
M  V30 4170 H 398.786 0.143385 -3.1177 0
M  V30 4171 N 399.087 1.5561 -0.249682 0
M  V30 4172 C 400.315 2.03411 0.378352 0
M  V30 4173 C 400.73 1.12886 1.51335 0
M  V30 4174 O 400.087 0.143833 1.81932 0
M  V30 4175 C 400.138 3.50537 0.88351 0
M  V30 4176 O 399.859 4.37614 -0.20626 0
M  V30 4177 C 401.36 4.14113 1.58195 0
M  V30 4178 H 398.58 0.664994 0.08958 0
M  V30 4179 H 401.124 2.01044 -0.374357 0
M  V30 4180 H 399.279 3.5343 1.58639 0
M  V30 4181 H 399.693 5.24199 0.177782 0
M  V30 4182 H 401.167 5.18741 1.8871 0
M  V30 4183 H 401.644 3.60767 2.50487 0
M  V30 4184 H 402.25 4.15151 0.923573 0
M  V30 4185 N 400.565 -0.0233959 1.57583 0
M  V30 4186 C 401.813 -0.711654 1.89156 0
M  V30 4187 C 402.134 -1.75591 0.848096 0
M  V30 4188 O 401.404 -1.95547 -0.117566 0
M  V30 4189 H 399.984 -0.265835 0.698098 0
M  V30 4190 H 402.646 0.0119948 1.94896 0
M  V30 4191 H 401.742 -1.19766 2.88206 0
M  V30 4192 N 402.043 -1.548 -0.295768 0
M  V30 4193 C 403.283 -1.76069 -1.03823 0
M  V30 4194 C 403.647 -0.537992 -1.84309 0
M  V30 4195 O 404.848 -0.628514 -2.61349 0
M  V30 4196 C 403.119 -3.01705 -1.91596 0
M  V30 4197 S 404.678 -3.43998 -2.72416 0
M  V30 4198 H 401.496 -0.618852 -0.350062 0
M  V30 4199 H 404.098 -1.93009 -0.31106 0
M  V30 4200 H 402.802 -3.88812 -1.31351 0
M  V30 4201 H 402.333 -2.87366 -2.68671 0
M  V30 4202 H 404.348 -3.0148 -3.94112 0
M  V30 4203 N 403.521 0.559213 -1.47345 0
M  V30 4204 C 404.768 1.31648 -1.53867 0
M  V30 4205 C 405.096 1.93468 -0.200104 0
M  V30 4206 O 404.351 1.78295 0.806799 0
M  V30 4207 C 404.65 2.44853 -2.6035 0
M  V30 4208 C 404.316 2.00876 -4.03683 0
M  V30 4209 C 402.978 1.88599 -4.42701 0
M  V30 4210 C 405.33 1.67279 -4.93626 0
M  V30 4211 C 402.658 1.41017 -5.69501 0
M  V30 4212 C 405.01 1.21169 -6.20887 0
M  V30 4213 C 403.674 1.07487 -6.58789 0
M  V30 4214 H 402.944 0.481734 -0.56304 0
M  V30 4215 H 405.591 0.627301 -1.80934 0
M  V30 4216 H 403.896 3.19318 -2.27032 0
M  V30 4217 H 405.593 3.03039 -2.62619 0
M  V30 4218 H 402.183 2.11374 -3.72853 0
M  V30 4219 H 406.367 1.75638 -4.64182 0
M  V30 4220 H 401.623 1.29086 -5.97618 0
M  V30 4221 H 405.797 0.942345 -6.89995 0
M  V30 4222 H 403.424 0.703946 -7.56934 0
M  V30 4223 N 404.999 1.35443 0.805782 0
M  V30 4224 C 406.247 1.28507 1.55982 0
M  V30 4225 C 406.568 -0.140046 1.94496 0
M  V30 4226 O 405.838 -1.07666 1.63661 0
M  V30 4227 H 404.418 0.472676 0.578434 0
M  V30 4228 H 407.08 1.69555 0.961098 0
M  V30 4229 H 406.176 1.90148 2.47488 0
M  V30 4230 N 406.477 -1.02803 1.19454 0
M  V30 4231 C 407.754 -1.73299 0.907013 0
M  V30 4232 C 408.134 -2.02772 -0.587086 0
M  V30 4233 O 407.482 -1.68304 -1.54551 0
M  V30 4234 C 407.692 -3.00912 1.76785 0
M  V30 4235 C 409.04 -3.74403 2.00268 0
M  V30 4236 O 410.064 -3.10841 1.73943 0
M  V30 4237 O 408.923 -4.88675 2.4466 0
M  V30 4238 H 406.017 -0.754727 0.338106 0
M  V30 4239 H 408.563 -1.08754 1.30271 0
M  V30 4240 H 407.335 -2.75366 2.7801 0
M  V30 4241 H 406.958 -3.73197 1.37149 0
M  V30 4242 N 407.956 -0.998596 -1.21925 0
M  V30 4243 C 409.202 -0.678667 -1.91107 0
M  V30 4244 C 409.535 0.78791 -1.77498 0
M  V30 4245 O 408.81 1.57043 -1.1475 0
M  V30 4246 C 409.093 -1.09245 -3.43129 0
M  V30 4247 C 408.946 -2.61801 -3.6576 0
M  V30 4248 C 410.265 -0.649984 -4.35274 0
M  V30 4249 H 407.384 -0.248025 -0.694012 0
M  V30 4250 H 410.026 -1.24314 -1.43688 0
M  V30 4251 H 408.176 -0.612171 -3.83647 0
M  V30 4252 H 409.848 -3.17543 -3.34611 0
M  V30 4253 H 408.091 -3.03609 -3.09845 0
M  V30 4254 H 408.762 -2.85804 -4.7225 0
M  V30 4255 H 411.238 -1.0626 -4.02303 0
M  V30 4256 H 410.114 -0.967743 -5.40302 0
M  V30 4257 H 410.375 0.449139 -4.39813 0
M  V30 4258 N 409.434 1.37368 -0.772513 0
M  V30 4259 C 410.68 2.00423 -0.3467 0
M  V30 4260 C 411.035 1.60224 1.06518 0
M  V30 4261 O 410.328 0.838712 1.72268 0
M  V30 4262 C 410.522 3.54817 -0.428876 0
M  V30 4263 C 410.351 4.10011 -1.84719 0
M  V30 4264 C 409.121 4.40927 -2.46803 0
M  V30 4265 C 411.319 4.30955 -2.80681 0
M  V30 4266 N 409.301 4.8184 -3.80399 0
M  V30 4267 C 410.672 4.74486 -3.99078 0
M  V30 4268 C 412.727 4.1309 -2.77958 0
M  V30 4269 C 411.43 5.02023 -5.15136 0
M  V30 4270 C 413.456 4.41764 -3.9319 0
M  V30 4271 C 412.818 4.85535 -5.10328 0
M  V30 4272 H 408.917 0.762413 -0.173927 0
M  V30 4273 H 411.501 1.66666 -1.00651 0
M  V30 4274 H 409.672 3.87881 0.200757 0
M  V30 4275 H 411.404 4.04696 0.0190668 0
M  V30 4276 H 408.159 4.30033 -1.98415 0
M  V30 4277 H 408.583 5.06604 -4.49089 0
M  V30 4278 H 413.225 3.7842 -1.88568 0
M  V30 4279 H 410.943 5.35582 -6.05126 0
M  V30 4280 H 414.529 4.29528 -3.92425 0
M  V30 4281 H 413.409 5.07296 -5.98013 0
M  V30 4282 N 410.912 0.523116 1.48665 0
M  V30 4283 C 411.842 -0.23231 2.32342 0
M  V30 4284 C 412.823 -0.941637 1.41659 0
M  V30 4285 O 414.008 -0.928751 1.70552 0
M  V30 4286 C 411.138 -1.28387 3.22698 0
M  V30 4287 C 410.092 -0.693098 4.22351 0
M  V30 4288 C 409.418 -1.8468 5.01794 0
M  V30 4289 C 410.718 0.33063 5.21252 0
M  V30 4290 H 412.412 0.466192 2.95748 0
M  V30 4291 H 409.958 0.225643 1.42221 0
M  V30 4292 H 411.911 -1.82024 3.80059 0
M  V30 4293 H 410.635 -2.01186 2.57278 0
M  V30 4294 H 409.294 -0.178299 3.66166 0
M  V30 4295 H 408.942 -2.56301 4.32804 0
M  V30 4296 H 408.642 -1.45747 5.69238 0
M  V30 4297 H 410.166 -2.38709 5.62006 0
M  V30 4298 H 411.58 -0.118407 5.73178 0
M  V30 4299 H 409.977 0.636974 5.9671 0
M  V30 4300 H 411.047 1.23883 4.68808 0
M  V30 4301 N 412.39 -1.55475 0.257931 0
M  V30 4302 C 413.638 -1.98813 -0.363009 0
M  V30 4303 C 413.959 -1.14757 -1.57657 0
M  V30 4304 O 413.229 -0.232956 -1.9451 0
M  V30 4305 H 411.809 -0.734308 -0.137113 0
M  V30 4306 H 414.471 -1.9156 0.359281 0
M  V30 4307 H 413.567 -3.04941 -0.664634 0
M  V30 4308 N 413.868 0.0150385 -1.57593 0
M  V30 4309 C 415.096 0.714395 -1.94175 0
M  V30 4310 C 415.511 1.68135 -0.858841 0
M  V30 4311 O 414.868 1.81766 0.163567 0
M  V30 4312 C 414.919 1.45933 -3.30735 0
M  V30 4313 O 414.64 0.531167 -4.34868 0
M  V30 4314 C 416.141 2.25456 -3.81686 0
M  V30 4315 H 413.361 0.199923 -0.640525 0
M  V30 4316 H 415.905 -0.0316096 -2.04476 0
M  V30 4317 H 414.06 2.15709 -3.21789 0
M  V30 4318 H 414.474 1.05509 -5.13778 0
M  V30 4319 H 415.948 2.731 -4.79709 0
M  V30 4320 H 416.425 3.07485 -3.13607 0
M  V30 4321 H 417.031 1.60727 -3.9376 0
M  V30 4322 N 415.346 1.54954 0.287554 0
M  V30 4323 C 416.592 1.76059 1.01856 0
M  V30 4324 C 416.947 0.547056 1.84459 0
M  V30 4325 O 416.24 -0.460442 1.85985 0
M  V30 4326 C 416.434 2.99833 1.94512 0
M  V30 4327 C 416.263 4.33108 1.21026 0
M  V30 4328 C 415.033 4.96632 0.931896 0
M  V30 4329 C 417.231 5.10694 0.607949 0
M  V30 4330 N 415.213 6.13668 0.168716 0
M  V30 4331 C 416.584 6.19996 -0.0217865 0
M  V30 4332 C 418.639 4.95236 0.514338 0
M  V30 4333 C 417.342 7.15524 -0.736092 0
M  V30 4334 C 419.368 5.91106 -0.186343 0
M  V30 4335 C 418.73 6.99786 -0.804875 0
M  V30 4336 H 414.829 0.696679 0.355193 0
M  V30 4337 H 417.413 1.92441 0.295741 0
M  V30 4338 H 415.584 2.84853 2.64033 0
M  V30 4339 H 417.316 3.09405 2.60865 0
M  V30 4340 H 414.071 4.57255 1.23348 0
M  V30 4341 H 414.495 6.76705 -0.199781 0
M  V30 4342 H 419.137 4.11328 0.978234 0
M  V30 4343 H 416.855 7.98964 -1.21172 0
M  V30 4344 H 420.441 5.81224 -0.258897 0
M  V30 4345 H 419.321 7.72694 -1.33843 0
M  V30 4346 N 416.824 -0.551391 1.4764 0
M  V30 4347 C 417.772 -1.67896 1.60978 0
M  V30 4348 C 418.766 -1.62549 0.476877 0
M  V30 4349 O 419.972 -1.67664 0.654878 0
M  V30 4350 H 416.347 -0.555649 0.506713 0
M  V30 4351 H 418.318 -1.53784 2.55721 0
M  V30 4352 C 417.067 -3.06234 1.64669 0
M  V30 4353 H 416.39 -3.11033 2.51194 0
M  V30 4354 H 417.83 -3.84804 1.7805 0
M  V30 4355 C 416.289 -3.34737 0.381115 0
M  V30 4356 O 416.819 -3.98381 -0.515297 0
M  V30 4357 N 415.025 -2.8944 0.259354 0
M  V30 4358 H 414.572 -2.37827 0.98976 0
M  V30 4359 H 414.53 -3.08882 -0.586464 0
M  V30 4360 N 418.302 -1.35869 -0.798587 0
M  V30 4361 C 419.55 -1.29332 -1.55298 0
M  V30 4362 C 419.871 0.129729 -1.94568 0
M  V30 4363 O 419.141 1.06796 -1.6423 0
M  V30 4364 H 417.721 -0.475737 -0.57592 0
M  V30 4365 H 420.383 -1.70062 -0.952093 0
M  V30 4366 H 419.479 -1.91458 -2.46476 0
M  V30 4367 N 419.78 1.02168 -1.19998 0
M  V30 4368 C 421.005 1.79833 -1.03319 0
M  V30 4369 C 421.43 1.83504 0.413281 0
M  V30 4370 O 420.788 1.26635 1.29743 0
M  V30 4371 C 420.836 3.22396 -1.61533 0
M  V30 4372 O 419.94 4.03555 -0.849519 0
M  V30 4373 H 419.281 0.554872 -0.364709 0
M  V30 4374 H 421.811 1.28542 -1.59179 0
M  V30 4375 H 421.821 3.73124 -1.65054 0
M  V30 4376 H 420.496 3.19039 -2.66809 0
M  V30 4377 H 419.073 3.62169 -0.888129 0
M  V30 4378 N 421.258 1.00505 1.21394 0
M  V30 4379 C 422.486 0.706609 1.9446 0
M  V30 4380 C 422.901 -0.73081 1.74082 0
M  V30 4381 O 422.258 -1.49446 1.04747 0
M  V30 4382 C 422.309 1.01824 3.46863 0
M  V30 4383 O 422.03 2.39919 3.66566 0
M  V30 4384 C 423.531 0.739216 4.37093 0
M  V30 4385 H 420.751 0.260394 0.618414 0
M  V30 4386 H 423.295 1.34311 1.54211 0
M  V30 4387 H 421.45 0.427343 3.85036 0
M  V30 4388 H 421.864 2.50784 4.6066 0
M  V30 4389 H 423.338 1.00744 5.42729 0
M  V30 4390 H 423.815 -0.326746 4.37983 0
M  V30 4391 H 424.421 1.31173 4.04566 0
M  V30 4392 N 422.737 -1.36956 0.779787 0
M  V30 4393 C 423.684 -2.30175 0.169697 0
M  V30 4394 C 424.654 -1.51501 -0.68094 0
M  V30 4395 O 425.839 -1.80042 -0.631629 0
M  V30 4396 C 422.979 -3.37985 -0.697131 0
M  V30 4397 C 422.092 -4.31661 0.170992 0
M  V30 4398 C 421.227 -5.2655 -0.701298 0
M  V30 4399 C 420.266 -6.11867 0.168869 0
M  V30 4400 N 419.403 -6.98973 -0.661855 0
M  V30 4401 H 424.243 -2.81767 0.970135 0
M  V30 4402 H 421.78 -1.38699 0.489994 0
M  V30 4403 H 423.738 -3.99128 -1.2146 0
M  V30 4404 H 422.368 -2.87739 -1.46309 0
M  V30 4405 H 421.42 -3.71756 0.80634 0
M  V30 4406 H 422.732 -4.91644 0.841875 0
M  V30 4407 H 421.886 -5.92937 -1.28494 0
M  V30 4408 H 420.625 -4.66998 -1.40584 0
M  V30 4409 H 419.63 -5.44452 0.764986 0
M  V30 4410 H 420.855 -6.73493 0.870863 0
M  V30 4411 H 418.801 -6.41941 -1.35086 0
M  V30 4412 H 418.718 -7.55984 -0.0484447 0
M  V30 4413 H 419.986 -7.6974 -1.22963 0
M  V30 4414 N 424.215 -0.530993 -1.48385 0
M  V30 4415 C 425.461 0.00274135 -2.028 0
M  V30 4416 C 425.794 1.33838 -1.40716 0
M  V30 4417 O 425.069 1.86465 -0.553277 0
M  V30 4418 C 425.352 0.123676 -3.59888 0
M  V30 4419 C 425.205 -1.2372 -4.3245 0
M  V30 4420 C 426.524 0.849967 -4.31814 0
M  V30 4421 H 423.643 -0.000477758 -0.737 0
M  V30 4422 H 426.285 -0.688217 -1.77098 0
M  V30 4423 H 424.435 0.712157 -3.81917 0
M  V30 4424 H 426.107 -1.86687 -4.21836 0
M  V30 4425 H 424.35 -1.81882 -3.93829 0
M  V30 4426 H 425.021 -1.10557 -5.40815 0
M  V30 4427 H 427.497 0.350572 -4.14621 0
M  V30 4428 H 426.373 0.903486 -5.41413 0
M  V30 4429 H 426.634 1.90047 -3.99167 0
M  V30 4430 N 425.693 1.55336 -0.266172 0
M  V30 4431 C 426.656 2.20878 0.612001 0
M  V30 4432 C 427.656 1.18388 1.08816 0
M  V30 4433 O 428.846 1.4335 0.989774 0
M  V30 4434 C 425.978 2.86765 1.84332 0
M  V30 4435 H 427.171 2.99873 0.0398718 0
M  V30 4436 H 424.724 1.56291 -0.0167309 0
M  V30 4437 H 425.459 2.11759 2.45619 0
M  V30 4438 H 425.244 3.61862 1.5099 0
M  V30 4439 H 426.734 3.36867 2.46801 0
M  V30 4440 N 427.171 -0.0066808 1.57599 0
M  V30 4441 C 428.417 -0.693947 1.90558 0
M  V30 4442 C 428.75 -1.73792 0.866594 0
M  V30 4443 O 428.025 -1.94156 -0.115548 0
M  V30 4444 C 428.308 -1.34317 3.34112 0
M  V30 4445 C 428.161 -0.311189 4.48722 0
M  V30 4446 C 429.48 -2.27116 3.7697 0
M  V30 4447 H 426.599 -0.250803 0.693013 0
M  V30 4448 H 429.241 0.043242 1.89951 0
M  V30 4449 H 427.391 -1.9715 3.3476 0
M  V30 4450 H 429.063 0.316944 4.6021 0
M  V30 4451 H 427.306 0.367253 4.32243 0
M  V30 4452 H 427.977 -0.804366 5.46108 0
M  V30 4453 H 430.453 -1.74306 3.77831 0
M  V30 4454 H 429.329 -2.69511 4.78179 0
M  V30 4455 H 429.59 -3.14743 3.10466 0
M  V30 4456 N 428.649 -1.55105 -0.279332 0
M  V30 4457 C 429.596 -1.8755 -1.34513 0
M  V30 4458 C 430.566 -0.726384 -1.49375 0
M  V30 4459 O 431.751 -0.977063 -1.63884 0
M  V30 4460 C 428.891 -2.14738 -2.70151 0
M  V30 4461 C 428.004 -3.42285 -2.63562 0
M  V30 4462 C 427.139 -3.59206 -3.91337 0
M  V30 4463 C 426.178 -4.80467 -3.79233 0
M  V30 4464 N 425.315 -4.94079 -4.98829 0
M  V30 4465 H 430.155 -2.78456 -1.06143 0
M  V30 4466 H 427.692 -1.37867 -0.512936 0
M  V30 4467 H 429.65 -2.28501 -3.49061 0
M  V30 4468 H 428.28 -1.27075 -2.96735 0
M  V30 4469 H 427.332 -3.37029 -1.76397 0
M  V30 4470 H 428.644 -4.31328 -2.50515 0
M  V30 4471 H 427.798 -3.72751 -4.78687 0
M  V30 4472 H 426.537 -2.68337 -4.07243 0
M  V30 4473 H 425.542 -4.66932 -2.90266 0
M  V30 4474 H 426.767 -5.72765 -3.64852 0
M  V30 4475 H 424.713 -4.06139 -5.15158 0
M  V30 4476 H 424.63 -5.77156 -4.8829 0
M  V30 4477 H 425.898 -5.12003 -5.8777 0
M  V30 4478 N 430.127 0.543554 -1.4793 0
M  V30 4479 C 431.355 1.32516 -1.58894 0
M  V30 4480 C 431.77 1.87215 -0.244131 0
M  V30 4481 O 431.127 1.65709 0.764652 0
M  V30 4482 C 431.178 2.48554 -2.62494 0
M  V30 4483 O 430.899 1.96112 -3.91755 0
M  V30 4484 C 432.4 3.40572 -2.8377 0
M  V30 4485 H 429.62 0.403472 -0.536145 0
M  V30 4486 H 432.164 0.657106 -1.93655 0
M  V30 4487 H 430.319 3.1127 -2.30629 0
M  V30 4488 H 430.733 2.71967 -4.4848 0
M  V30 4489 H 432.207 4.18375 -3.60093 0
M  V30 4490 H 432.684 3.94965 -1.92092 0
M  V30 4491 H 433.29 2.8366 -3.16887 0
M  V30 4492 N 431.605 1.3629 0.791371 0
M  V30 4493 C 432.535 1.33137 1.91825 0
M  V30 4494 C 433.516 0.203168 1.68882 0
M  V30 4495 O 434.701 0.400509 1.90025 0
M  V30 4496 C 431.831 1.11793 3.28816 0
M  V30 4497 C 430.785 2.21417 3.66277 0
M  V30 4498 C 430.111 1.85218 5.01596 0
M  V30 4499 C 431.411 3.63489 3.75064 0
M  V30 4500 H 433.105 2.2743 1.9472 0
M  V30 4501 H 430.651 1.09479 0.935437 0
M  V30 4502 H 432.604 1.08222 4.07266 0
M  V30 4503 H 431.328 0.139501 3.26302 0
M  V30 4504 H 429.987 2.2411 2.90121 0
M  V30 4505 H 429.635 0.859544 4.95602 0
M  V30 4506 H 429.335 2.58611 5.27631 0
M  V30 4507 H 430.859 1.832 5.82469 0
M  V30 4508 H 432.273 3.63034 4.43711 0
M  V30 4509 H 430.67 4.35771 4.12582 0
M  V30 4510 H 431.74 3.98536 2.76219 0
M  V30 4511 N 433.083 -1.0153 1.20538 0
M  V30 4512 C 434.03 -2.10098 0.955383 0
M  V30 4513 C 435 -1.65702 -0.114878 0
M  V30 4514 O 436.185 -1.90776 0.0301118 0
M  V30 4515 C 433.325 -3.41236 0.514969 0
M  V30 4516 C 432.438 -3.99102 1.65353 0
M  V30 4517 C 431.573 -5.18306 1.16329 0
M  V30 4518 C 430.612 -5.68258 2.27485 0
M  V30 4519 N 429.749 -6.78722 1.7967 0
M  V30 4520 H 434.589 -2.30818 1.88486 0
M  V30 4521 H 432.126 -1.13189 0.939499 0
M  V30 4522 H 434.084 -4.16504 0.240935 0
M  V30 4523 H 432.714 -3.20585 -0.377512 0
M  V30 4524 H 431.766 -3.20918 2.04245 0
M  V30 4525 H 433.078 -4.32177 2.49047 0
M  V30 4526 H 432.232 -6.00782 0.845302 0
M  V30 4527 H 430.971 -4.86799 0.296254 0
M  V30 4528 H 429.976 -4.84385 2.60099 0
M  V30 4529 H 431.201 -6.01798 3.14667 0
M  V30 4530 H 429.147 -6.49042 0.95295 0
M  V30 4531 H 429.064 -7.10996 2.56944 0
M  V30 4532 H 430.332 -7.64759 1.50875 0
M  V30 4533 N 434.561 -1.01147 -1.20859 0
M  V30 4534 C 435.972 -0.730205 -1.71828 0
M  V30 4535 C 436.323 0.751662 -1.8123 0
M  V30 4536 O 435.448 1.58686 -1.47132 0
M  V30 4537 C 436.043 -1.31885 -3.12077 0
M  V30 4538 C 434.602 -1.08656 -3.60376 0
M  V30 4539 C 433.749 -1.42769 -2.37723 0
M  V30 4540 H 436.7 -1.18158 -1.05945 0
M  V30 4541 H 436.721 -0.706793 -3.73878 0
M  V30 4542 H 436.233 -2.39737 -3.05201 0
M  V30 4543 H 434.334 -0.0254814 -3.72591 0
M  V30 4544 H 434.447 -1.76301 -4.45483 0
M  V30 4545 H 432.811 -0.846603 -2.40218 0
M  V30 4546 H 433.594 -2.51666 -2.33493 0
M  V30 4547 N 436.039 1.36541 -0.78704 0
M  V30 4548 C 437.287 1.98911 -0.357633 0
M  V30 4549 C 437.608 1.62778 1.07371 0
M  V30 4550 O 436.878 0.900612 1.73971 0
M  V30 4551 H 435.458 0.735734 -0.129246 0
M  V30 4552 H 438.12 1.66776 -1.00855 0
M  V30 4553 H 437.216 3.08874 -0.447549 0
M  V30 4554 N 437.518 0.538854 1.48102 0
M  V30 4555 C 438.746 0.0123136 2.06896 0
M  V30 4556 C 439.161 -1.27312 1.39417 0
M  V30 4557 O 438.518 -1.75949 0.484582 0
M  V30 4558 C 438.569 -0.206118 3.60912 0
M  V30 4559 O 438.29 1.0284 4.25859 0
M  V30 4560 C 439.791 -0.772033 4.36526 0
M  V30 4561 H 437.011 0.0375239 0.66995 0
M  V30 4562 H 439.555 0.747032 1.90367 0
M  V30 4563 H 437.71 -0.89091 3.77017 0
M  V30 4564 H 438.124 0.814654 5.18135 0
M  V30 4565 H 439.598 -0.874251 5.45033 0
M  V30 4566 H 440.075 -1.77904 4.01555 0
M  V30 4567 H 440.681 -0.123526 4.25121 0
M  V30 4568 N 438.996 -1.55193 0.274407 0
M  V30 4569 C 439.929 -2.18606 -0.654712 0
M  V30 4570 C 440.907 -1.14677 -1.15273 0
M  V30 4571 O 442.091 -1.43198 -1.22583 0
M  V30 4572 C 439.218 -2.80875 -1.89281 0
M  V30 4573 C 438.264 -3.981 -1.53032 0
M  V30 4574 S 439.097 -5.32025 -0.609107 0
M  V30 4575 C 440.253 -5.97761 -1.85559 0
M  V30 4576 H 440.486 -2.97074 -0.115894 0
M  V30 4577 H 438.019 -1.54288 0.05867 0
M  V30 4578 H 439.977 -3.17381 -2.60345 0
M  V30 4579 H 438.638 -2.02302 -2.40277 0
M  V30 4580 H 437.831 -4.40356 -2.45158 0
M  V30 4581 H 437.433 -3.63013 -0.899874 0
M  V30 4582 H 439.725 -6.16951 -2.7996 0
M  V30 4583 H 440.668 -6.92545 -1.47605 0
M  V30 4584 H 441.076 -5.27113 -2.02021 0
M  V30 4585 N 440.474 -0.00167713 -1.576 0
M  V30 4586 C 441.699 0.69739 -1.95323 0
M  V30 4587 C 442.124 1.6642 -0.876706 0
M  V30 4588 O 441.482 1.80548 0.165007 0
M  V30 4589 C 441.53 1.40403 -3.32144 0
M  V30 4590 O 440.634 2.5185 -3.26566 0
M  V30 4591 H 439.975 0.185373 -0.637599 0
M  V30 4592 H 442.505 -0.0553665 -2.04525 0
M  V30 4593 H 442.515 1.76707 -3.67748 0
M  V30 4594 H 441.19 0.695167 -4.10049 0
M  V30 4595 H 439.767 2.17861 -3.0264 0
M  V30 4596 N 441.952 1.55251 0.271103 0
M  V30 4597 C 443.363 1.66635 0.842007 0
M  V30 4598 C 443.714 0.594631 1.86972 0
M  V30 4599 O 442.839 -0.263532 2.14789 0
M  V30 4600 C 443.434 3.02082 1.53401 0
M  V30 4601 C 441.993 3.15487 2.05293 0
M  V30 4602 C 441.14 2.62438 0.895631 0
M  V30 4603 H 444.091 1.58629 0.0474117 0
M  V30 4604 H 444.112 2.95176 2.40107 0
M  V30 4605 H 443.624 3.80062 0.785786 0
M  V30 4606 H 441.725 2.42284 2.83071 0
M  V30 4607 H 441.838 4.22075 2.26693 0
M  V30 4608 H 440.202 2.19644 1.28953 0
M  V30 4609 H 440.985 3.42923 0.160878 0
M  V30 4610 N 443.43 -0.535701 1.48216 0
M  V30 4611 C 444.377 -1.64083 1.62312 0
M  V30 4612 C 445.347 -1.59448 0.465365 0
M  V30 4613 O 446.532 -1.77959 0.688135 0
M  V30 4614 C 443.672 -3.0236 1.66349 0
M  V30 4615 C 442.785 -3.17273 2.93193 0
M  V30 4616 C 441.92 -4.46075 2.88427 0
M  V30 4617 C 440.959 -4.54496 4.1 0
M  V30 4618 N 440.096 -5.7468 4.03345 0
M  V30 4619 H 444.936 -1.51374 2.5669 0
M  V30 4620 H 442.473 -0.737059 1.27302 0
M  V30 4621 H 444.431 -3.82461 1.66672 0
M  V30 4622 H 443.061 -3.13854 0.754672 0
M  V30 4623 H 442.113 -2.30462 3.02641 0
M  V30 4624 H 443.425 -3.19357 3.83162 0
M  V30 4625 H 442.579 -5.3446 2.87119 0
M  V30 4626 H 441.318 -4.46504 1.96177 0
M  V30 4627 H 440.323 -3.64519 4.11589 0
M  V30 4628 H 441.548 -4.5581 5.03402 0
M  V30 4629 H 439.494 -5.76017 3.13912 0
M  V30 4630 H 439.411 -5.78234 4.87013 0
M  V30 4631 H 440.679 -6.65367 4.06087 0
M  V30 4632 N 444.908 -1.36708 -0.784132 0
M  V30 4633 C 445.871 -1.31307 -1.87859 0
M  V30 4634 C 446.871 -0.219654 -1.59293 0
M  V30 4635 O 448.061 -0.47476 -1.67606 0
M  V30 4636 C 445.193 -1.03679 -3.24751 0
M  V30 4637 H 446.386 -2.28647 -1.94064 0
M  V30 4638 H 443.939 -1.21558 -0.98252 0
M  V30 4639 H 444.674 -0.0681936 -3.24228 0
M  V30 4640 H 444.459 -1.82811 -3.46876 0
M  V30 4641 H 445.949 -1.02518 -4.04821 0
M  V30 4642 N 446.386 1.0089 -1.21074 0
M  V30 4643 C 447.633 1.74607 -1.0256 0
M  V30 4644 C 447.961 1.89426 0.44136 0
M  V30 4645 O 447.216 1.42266 1.34384 0
M  V30 4646 C 447.515 3.16335 -1.66334 0
M  V30 4647 C 447.181 3.21474 -3.16173 0
M  V30 4648 C 445.843 3.22583 -3.57062 0
M  V30 4649 C 448.195 3.19025 -4.12156 0
M  V30 4650 C 445.523 3.18925 -4.92446 0
M  V30 4651 C 447.875 3.16909 -5.47496 0
M  V30 4652 C 446.539 3.16326 -5.87787 0
M  V30 4653 H 445.809 0.638933 -0.375294 0
M  V30 4654 H 448.456 1.18274 -1.50611 0
M  V30 4655 H 446.761 3.75876 -1.10566 0
M  V30 4656 H 448.458 3.72083 -1.49516 0
M  V30 4657 H 445.048 3.2135 -2.83605 0
M  V30 4658 H 449.232 3.17332 -3.81595 0
M  V30 4659 H 444.488 3.16809 -5.22917 0
M  V30 4660 H 448.662 3.13968 -6.21609 0
M  V30 4661 H 446.289 3.13246 -6.92662 0
M  V30 4662 N 447.864 1.01787 1.20321 0
M  V30 4663 C 448.794 0.609625 2.25401 0
M  V30 4664 C 449.775 -0.375951 1.65893 0
M  V30 4665 O 450.96 -0.261101 1.92437 0
M  V30 4666 C 448.09 -0.0515995 3.47262 0
M  V30 4667 C 447.044 0.855095 4.19371 0
M  V30 4668 C 446.37 0.0595757 5.34667 0
M  V30 4669 C 447.67 2.16374 4.75373 0
M  V30 4670 H 449.364 1.48803 2.59804 0
M  V30 4671 H 446.91 0.716934 1.24884 0
M  V30 4672 H 448.863 -0.348764 4.19954 0
M  V30 4673 H 447.587 -0.964726 3.12027 0
M  V30 4674 H 446.246 1.13628 3.48546 0
M  V30 4675 H 445.894 -0.85524 4.95676 0
M  V30 4676 H 445.594 0.663406 5.83843 0
M  V30 4677 H 447.118 -0.231105 6.10162 0
M  V30 4678 H 448.532 1.92885 5.39878 0
M  V30 4679 H 446.929 2.71853 5.34991 0
M  V30 4680 H 447.999 2.82589 3.94045 0
M  V30 4681 N 449.342 -1.36122 0.79427 0
M  V30 4682 C 450.252 -2.33769 0.197296 0
M  V30 4683 C 451.268 -1.61276 -0.653153 0
M  V30 4684 O 452.444 -1.9323 -0.5678 0
M  V30 4685 C 449.509 -3.40474 -0.654098 0
M  V30 4686 C 448.57 -4.28759 0.215411 0
M  V30 4687 C 447.803 -5.30368 -0.595443 0
M  V30 4688 O 448.026 -5.40211 -1.83107 0
M  V30 4689 O 446.96 -6.019 0.00721351 0
M  V30 4690 H 450.786 -2.86597 1.00478 0
M  V30 4691 H 448.371 -1.38676 0.555818 0
M  V30 4692 H 450.253 -4.05703 -1.13944 0
M  V30 4693 H 448.928 -2.89937 -1.43938 0
M  V30 4694 H 447.835 -3.66554 0.747615 0
M  V30 4695 H 449.168 -4.82661 0.964332 0
M  V30 4696 N 450.82 -0.546701 -1.47814 0
M  V30 4697 C 451.73 0.21026 -2.33656 0
M  V30 4698 C 452.746 0.922413 -1.47538 0
M  V30 4699 O 453.922 0.893652 -1.80488 0
M  V30 4700 C 450.987 1.23348 -3.24016 0
M  V30 4701 C 450.048 0.529883 -4.26017 0
M  V30 4702 C 449.281 1.50435 -5.12059 0
M  V30 4703 O 449.504 2.73837 -5.00369 0
M  V30 4704 O 448.438 1.03459 -5.92942 0
M  V30 4705 H 452.264 -0.493605 -2.99662 0
M  V30 4706 H 449.849 -0.307427 -1.46203 0
M  V30 4707 H 451.731 1.82438 -3.79861 0
M  V30 4708 H 450.406 1.91945 -2.60651 0
M  V30 4709 H 449.313 -0.101948 -3.73961 0
M  V30 4710 H 450.646 -0.11445 -4.92067 0
M  V30 4711 N 452.299 1.55045 -0.282633 0
M  V30 4712 C 453.262 2.21515 0.588539 0
M  V30 4713 C 454.262 1.19535 1.07554 0
M  V30 4714 O 455.452 1.44391 0.974514 0
M  V30 4715 C 452.584 2.88704 1.8128 0
M  V30 4716 H 453.777 2.99899 0.00806397 0
M  V30 4717 H 451.33 1.56265 -0.0333067 0
M  V30 4718 H 452.065 2.14352 2.43359 0
M  V30 4719 H 451.85 3.63443 1.47144 0
M  V30 4720 H 453.34 3.39465 2.43214 0
M  V30 4721 N 453.777 0.010035 1.57597 0
M  V30 4722 C 454.709 -1.00649 2.05918 0
M  V30 4723 C 455.722 -1.30077 0.978964 0
M  V30 4724 O 456.911 -1.26878 1.25556 0
M  V30 4725 C 454.011 -2.33876 2.45265 0
M  V30 4726 C 453.184 -2.23242 3.7614 0
M  V30 4727 C 452.243 -3.39242 4.02245 0
M  V30 4728 O 451.269 -3.1698 4.72771 0
M  V30 4729 N 452.471 -4.6242 3.50924 0
M  V30 4730 H 455.236 -0.594333 2.93748 0
M  V30 4731 H 452.797 -0.17714 1.60928 0
M  V30 4732 H 454.789 -3.1027 2.59836 0
M  V30 4733 H 453.359 -2.66799 1.62902 0
M  V30 4734 H 452.579 -1.31696 3.71551 0
M  V30 4735 H 453.867 -2.13321 4.61922 0
M  V30 4736 H 453.265 -4.83404 2.93832 0
M  V30 4737 H 451.822 -5.36046 3.70807 0
M  V30 4738 N 455.255 -1.55392 -0.262866 0
M  V30 4739 C 456.501 -1.76737 -0.99458 0
M  V30 4740 C 456.834 -0.572453 -1.85571 0
M  V30 4741 O 456.109 0.429732 -1.89693 0
M  V30 4742 C 456.392 -3.07824 -1.8686 0
M  V30 4743 C 456.245 -4.3769 -1.03672 0
M  V30 4744 C 457.564 -3.35021 -2.85393 0
M  V30 4745 H 454.683 -0.643005 -0.360157 0
M  V30 4746 H 457.325 -1.88126 -0.266216 0
M  V30 4747 H 455.475 -2.98245 -2.48962 0
M  V30 4748 H 457.147 -4.59238 -0.43563 0
M  V30 4749 H 455.39 -4.32461 -0.340513 0
M  V30 4750 H 456.061 -5.25759 -1.6817 0
M  V30 4751 H 458.537 -3.44458 -2.33426 0
M  V30 4752 H 457.413 -4.27989 -3.43681 0
M  V30 4753 H 457.674 -2.55153 -3.61039 0
M  V30 4754 N 456.733 0.527833 -1.48498 0
M  V30 4755 C 457.666 1.64892 -1.57753 0
M  V30 4756 C 458.644 1.5687 -0.427867 0
M  V30 4757 O 459.828 1.77311 -0.639764 0
M  V30 4758 C 456.955 3.03301 -1.50752 0
M  V30 4759 C 456.001 3.29675 -2.70586 0
M  V30 4760 S 456.834 3.15712 -4.32535 0
M  V30 4761 C 457.99 4.56564 -4.28136 0
M  V30 4762 H 458.223 1.56792 -2.52594 0
M  V30 4763 H 455.756 0.710959 -1.37057 0
M  V30 4764 H 457.714 3.83123 -1.474 0
M  V30 4765 H 456.375 3.08839 -0.572454 0
M  V30 4766 H 455.568 4.3065 -2.61833 0
M  V30 4767 H 455.17 2.57526 -2.71212 0
M  V30 4768 H 457.462 5.48126 -3.98201 0
M  V30 4769 H 458.405 4.70371 -5.29298 0
M  V30 4770 H 458.813 4.35987 -3.58574 0
M  V30 4771 N 458.211 1.37122 0.776871 0
M  V30 4772 C 459.158 1.3247 1.88998 0
M  V30 4773 C 460.128 0.191143 1.64997 0
M  V30 4774 O 461.313 0.379683 1.86984 0
M  V30 4775 C 458.453 1.13241 3.25992 0
M  V30 4776 C 457.566 2.35782 3.61982 0
M  V30 4777 C 456.701 2.09465 4.88158 0
M  V30 4778 C 455.74 3.279 5.16864 0
M  V30 4779 N 454.877 3.01167 6.34226 0
M  V30 4780 H 459.717 2.27642 1.9231 0
M  V30 4781 H 457.254 1.13125 0.94027 0
M  V30 4782 H 459.212 1.00115 4.0501 0
M  V30 4783 H 457.842 0.217186 3.22069 0
M  V30 4784 H 456.894 2.59666 2.77989 0
M  V30 4785 H 458.206 3.24125 3.79137 0
M  V30 4786 H 457.36 1.93341 5.75069 0
M  V30 4787 H 456.099 1.18452 4.73097 0
M  V30 4788 H 455.104 3.44569 4.2843 0
M  V30 4789 H 456.329 4.19757 5.33836 0
M  V30 4790 H 454.275 2.12779 6.20533 0
M  V30 4791 H 454.192 3.83052 6.51772 0
M  V30 4792 H 455.46 2.88649 7.24087 0
M  V30 4793 N 459.689 -1.00246 1.21608 0
M  V30 4794 C 460.619 -2.10921 1.00172 0
M  V30 4795 C 461.6 -1.69938 -0.0741587 0
M  V30 4796 O 462.785 -1.94009 0.0861753 0
M  V30 4797 C 459.915 -3.42618 0.568355 0
M  V30 4798 C 458.869 -3.97407 1.58909 0
M  V30 4799 C 458.195 -5.25038 1.01187 0
M  V30 4800 C 459.495 -4.2918 2.97661 0
M  V30 4801 H 461.189 -2.29112 1.92739 0
M  V30 4802 H 458.735 -1.10101 0.928102 0
M  V30 4803 H 460.688 -4.19444 0.405555 0
M  V30 4804 H 459.412 -3.24227 -0.392961 0
M  V30 4805 H 458.071 -3.22703 1.73949 0
M  V30 4806 H 457.719 -5.02982 0.0421965 0
M  V30 4807 H 457.419 -5.62661 1.6937 0
M  V30 4808 H 458.943 -6.04507 0.860448 0
M  V30 4809 H 460.357 -4.96839 2.86049 0
M  V30 4810 H 458.754 -4.77952 3.6288 0
M  V30 4811 H 459.824 -3.3735 3.48315 0
M  V30 4812 N 461.167 -1.02423 -1.1978 0
M  V30 4813 C 462.097 -0.62157 -2.25075 0
M  V30 4814 C 463.078 0.367148 -1.6609 0
M  V30 4815 O 464.263 0.250892 -1.92573 0
M  V30 4816 C 461.393 0.0331826 -3.47284 0
M  V30 4817 C 460.347 -0.877323 -4.18912 0
M  V30 4818 C 459.673 -0.0879296 -5.34628 0
M  V30 4819 C 460.973 -2.18892 -4.74219 0
M  V30 4820 H 462.667 -1.50179 -2.59011 0
M  V30 4821 H 460.213 -0.723547 -1.24502 0
M  V30 4822 H 462.166 0.326488 -4.20133 0
M  V30 4823 H 460.89 0.948164 -3.12534 0
M  V30 4824 H 459.549 -1.15475 -3.47938 0
M  V30 4825 H 459.197 0.828941 -4.96123 0
M  V30 4826 H 458.897 -0.694359 -5.83483 0
M  V30 4827 H 460.421 0.198743 -6.10276 0
M  V30 4828 H 461.835 -1.95746 -5.38847 0
M  V30 4829 H 460.232 -2.74686 -5.33542 0
M  V30 4830 H 461.302 -2.84674 -3.92541 0
M  V30 4831 N 462.645 1.35699 -0.801477 0
M  V30 4832 C 464.061 1.52065 -0.484596 0
M  V30 4833 C 464.261 1.75215 0.995084 0
M  V30 4834 O 463.317 1.79061 1.78026 0
M  V30 4835 C 464.63 2.69908 -1.32552 0
M  V30 4836 C 466.178 2.83784 -1.32044 0
M  V30 4837 C 466.653 4.04646 -2.14536 0
M  V30 4838 N 468.144 4.11814 -2.12046 0
M  V30 4839 C 468.879 5.04437 -2.72636 0
M  V30 4840 N 468.375 6.02426 -3.42133 0
M  V30 4841 N 470.168 4.97144 -2.62305 0
M  V30 4842 H 462.319 1.18928 -1.75983 0
M  V30 4843 H 464.582 0.581455 -0.748741 0
M  V30 4844 H 464.288 2.59363 -2.37537 0
M  V30 4845 H 464.162 3.64376 -0.975181 0
M  V30 4846 H 466.549 2.93783 -0.27846 0
M  V30 4847 H 466.63 1.90188 -1.71062 0
M  V30 4848 H 466.274 3.95407 -3.18772 0
M  V30 4849 H 466.204 4.97413 -1.72882 0
M  V30 4850 H 468.695 3.41664 -1.61476 0
M  V30 4851 H 469.008 6.69688 -3.85666 0
M  V30 4852 H 467.353 6.02615 -3.46237 0
M  V30 4853 H 470.544 4.19546 -2.07603 0
M  V30 4854 H 470.717 5.69138 -3.09815 0
M  V30 4855 N 464.123 0.554532 1.47522 0
M  V30 4856 C 465.073 -0.215008 2.26984 0
M  V30 4857 C 466.057 -0.88774 1.34194 0
M  V30 4858 O 467.249 -0.786489 1.58567 0
M  V30 4859 C 464.378 -1.24604 3.19889 0
M  V30 4860 C 463.464 -0.576857 4.20159 0
M  V30 4861 N 463.855 0.351541 5.04577 0
M  V30 4862 C 462.153 -0.831104 4.38188 0
M  V30 4863 C 462.854 0.739995 5.76974 0
M  V30 4864 N 461.83 0.0954407 5.43516 0
M  V30 4865 H 465.632 0.498843 2.89636 0
M  V30 4866 H 463.146 0.374279 1.58028 0
M  V30 4867 H 465.143 -1.81128 3.75498 0
M  V30 4868 H 463.803 -1.96101 2.58794 0
M  V30 4869 H 464.814 0.725556 5.12792 0
M  V30 4870 H 461.491 -1.53479 3.88266 0
M  V30 4871 H 462.881 1.50271 6.5488 0
M  V30 4872 N 465.601 -1.54893 0.290851 0
M  V30 4873 C 466.878 -1.91991 -0.373989 0
M  V30 4874 C 467.258 -1.21694 -1.72493 0
M  V30 4875 O 466.606 -0.34917 -2.25816 0
M  V30 4876 C 466.816 -3.45419 -0.498703 0
M  V30 4877 C 468.164 -4.1748 -0.774298 0
M  V30 4878 O 469.188 -3.51398 -0.582908 0
M  V30 4879 O 468.047 -5.3445 -1.14129 0
M  V30 4880 H 465.141 -0.800593 -0.207315 0
M  V30 4881 H 467.687 -1.66297 0.338164 0
M  V30 4882 H 466.459 -3.88688 0.451392 0
M  V30 4883 H 466.082 -3.77117 -1.25972 0
M  V30 4884 N 467.08 -0.0183926 -1.57589 0
M  V30 4885 C 468.027 0.967022 -2.09565 0
M  V30 4886 C 468.997 1.32983 -0.995225 0
M  V30 4887 O 470.182 1.42501 -1.26878 0
M  V30 4888 C 467.322 2.24772 -2.61861 0
M  V30 4889 C 466.435 1.94232 -3.85873 0
M  V30 4890 C 465.57 3.16518 -4.26603 0
M  V30 4891 C 464.609 2.81748 -5.43401 0
M  V30 4892 N 463.746 3.96626 -5.79338 0
M  V30 4893 H 468.586 0.516874 -2.93483 0
M  V30 4894 H 466.123 0.243544 -1.4507 0
M  V30 4895 H 468.081 2.99667 -2.90268 0
M  V30 4896 H 466.711 2.67423 -1.8079 0
M  V30 4897 H 465.763 1.09625 -3.64262 0
M  V30 4898 H 467.075 1.64616 -4.70853 0
M  V30 4899 H 466.229 3.99743 -4.56389 0
M  V30 4900 H 464.968 3.49286 -3.40368 0
M  V30 4901 H 463.973 1.96933 -5.1332 0
M  V30 4902 H 465.198 2.50207 -6.31327 0
M  V30 4903 H 463.144 4.29257 -4.96059 0
M  V30 4904 H 463.061 3.70598 -6.58933 0
M  V30 4905 H 464.329 4.80586 -6.13724 0
M  V30 4906 N 468.558 1.5553 0.254621 0
M  V30 4907 C 469.488 1.9268 1.31897 0
M  V30 4908 C 470.469 0.790797 1.506 0
M  V30 4909 O 471.654 1.05045 1.63337 0
M  V30 4910 C 468.784 2.21477 2.67517 0
M  V30 4911 C 467.738 3.37256 2.63519 0
M  V30 4912 C 467.064 3.51576 4.02862 0
M  V30 4913 C 468.364 4.73157 2.21179 0
M  V30 4914 H 470.058 2.81832 1.01051 0
M  V30 4915 H 467.604 1.35599 0.484662 0
M  V30 4916 H 469.557 2.46055 3.42104 0
M  V30 4917 H 468.281 1.29144 2.99982 0
M  V30 4918 H 466.94 3.12675 1.9139 0
M  V30 4919 H 466.588 2.56676 4.32581 0
M  V30 4920 H 466.288 4.2943 4.01078 0
M  V30 4921 H 467.812 3.78467 4.79161 0
M  V30 4922 H 469.226 4.97158 2.85494 0
M  V30 4923 H 467.623 5.54058 2.30521 0
M  V30 4924 H 468.693 4.70739 1.16332 0
M  V30 4925 N 470.036 -0.519951 1.48776 0
M  V30 4926 C 471.282 -1.27711 1.57536 0
M  V30 4927 C 471.615 -1.92547 0.252866 0
M  V30 4928 O 470.89 -1.7979 -0.742021 0
M  V30 4929 C 471.173 -2.35875 2.72094 0
M  V30 4930 C 471.026 -1.75664 4.1408 0
M  V30 4931 C 472.345 -3.37575 2.82367 0
M  V30 4932 H 469.464 -0.462971 0.573434 0
M  V30 4933 H 472.106 -0.578194 1.80989 0
M  V30 4934 H 470.256 -2.95488 2.52228 0
M  V30 4935 H 471.928 -1.20025 4.45412 0
M  V30 4936 H 470.171 -1.06154 4.20611 0
M  V30 4937 H 470.842 -2.54029 4.90075 0
M  V30 4938 H 473.318 -2.87929 3.00393 0
M  V30 4939 H 472.194 -4.1064 3.64233 0
M  V30 4940 H 472.455 -3.98743 1.90936 0
M  V30 4941 N 471.514 -1.37532 -0.769588 0
M  V30 4942 C 472.446 -1.29347 -1.89214 0
M  V30 4943 C 473.459 -0.208842 -1.61455 0
M  V30 4944 O 474.648 -0.465158 -1.72333 0
M  V30 4945 C 471.748 -0.977649 -3.24492 0
M  V30 4946 C 470.921 -2.16817 -3.7988 0
M  V30 4947 C 469.98 -1.82229 -4.93639 0
M  V30 4948 O 469.006 -2.54548 -5.09111 0
M  V30 4949 N 470.208 -0.767696 -5.75401 0
M  V30 4950 H 472.973 -2.26073 -1.96751 0
M  V30 4951 H 470.534 -1.31185 -0.948795 0
M  V30 4952 H 472.526 -0.727065 -3.98115 0
M  V30 4953 H 471.096 -0.0988777 -3.12444 0
M  V30 4954 H 470.316 -2.58038 -2.9801 0
M  V30 4955 H 471.604 -2.96308 -4.13617 0
M  V30 4956 H 471.002 -0.167626 -5.65452 0
M  V30 4957 H 469.559 -0.576973 -6.49241 0
M  V30 4958 N 472.992 0.995999 -1.22138 0
M  V30 4959 C 473.922 2.10387 -1.01289 0
M  V30 4960 C 474.903 1.69975 0.0651454 0
M  V30 4961 O 476.088 1.9396 -0.0964628 0
M  V30 4962 C 473.218 3.42312 -0.586517 0
M  V30 4963 C 472.172 3.96558 -1.61014 0
M  V30 4964 C 471.498 5.24494 -1.0397 0
M  V30 4965 C 472.798 4.27595 -2.99933 0
M  V30 4966 H 474.492 2.28086 -1.93951 0
M  V30 4967 H 472.038 1.09607 -0.933928 0
M  V30 4968 H 473.991 4.19223 -0.427793 0
M  V30 4969 H 472.715 3.24431 0.375761 0
M  V30 4970 H 471.374 3.21776 -1.75658 0
M  V30 4971 H 471.022 5.02953 -0.0688703 0
M  V30 4972 H 470.722 5.61755 -1.72352 0
M  V30 4973 H 472.246 6.04042 -0.892494 0
M  V30 4974 H 473.66 4.95315 -2.8868 0
M  V30 4975 H 472.057 4.76021 -3.6541 0
M  V30 4976 H 473.127 3.35498 -3.50099 0
M  V30 4977 N 474.47 1.03057 1.19235 0
M  V30 4978 C 475.7 0.746613 1.92638 0
M  V30 4979 C 476.108 -0.698708 1.75826 0
M  V30 4980 O 475.451 -1.487 1.07861 0
M  V30 4981 C 475.513 1.02024 3.44719 0
M  V30 4982 C 475.177 2.45745 3.85303 0
M  V30 4983 C 476.174 3.43887 3.8992 0
M  V30 4984 C 473.859 2.8019 4.16892 0
M  V30 4985 C 475.853 4.74529 4.2556 0
M  V30 4986 C 473.54 4.1104 4.52205 0
M  V30 4987 C 474.538 5.0802 4.56513 0
M  V30 4988 O 474.226 6.36527 4.91008 0
M  V30 4989 H 473.958 0.272401 0.618687 0
M  V30 4990 H 476.512 1.37853 1.52269 0
M  V30 4991 H 474.742 0.331184 3.85279 0
M  V30 4992 H 476.431 0.725677 3.9936 0
M  V30 4993 H 477.197 3.18614 3.65664 0
M  V30 4994 H 473.076 2.05382 4.12722 0
M  V30 4995 H 476.62 5.50222 4.28838 0
M  V30 4996 H 472.517 4.36086 4.7592 0
M  V30 4997 H 473.285 6.41025 5.08949 0
M  V30 4998 N 475.948 -1.35272 0.808662 0
M  V30 4999 C 476.911 -2.28082 0.226093 0
M  V30 5000 C 477.911 -1.49673 -0.587762 0
M  V30 5001 O 479.101 -1.69404 -0.405943 0
M  V30 5002 C 476.233 -3.33955 -0.684596 0
M  V30 5003 H 477.426 -2.81116 1.04469 0
M  V30 5004 H 474.979 -1.45162 0.579466 0
M  V30 5005 H 475.714 -2.86111 -1.5268 0
M  V30 5006 H 475.499 -3.91965 -0.102699 0
M  V30 5007 H 476.989 -4.03219 -1.08646 0
M  V30 5008 N 477.426 -0.562348 -1.47226 0
M  V30 5009 C 478.672 -0.0402761 -2.0276 0
M  V30 5010 C 479.005 1.30823 -1.43523 0
M  V30 5011 O 478.28 1.85249 -0.592705 0
M  V30 5012 C 478.563 0.047311 -3.60069 0
M  V30 5013 C 478.416 -1.32865 -4.29729 0
M  V30 5014 C 479.735 0.758182 -4.3352 0
M  V30 5015 H 476.854 -0.0161105 -0.736824 0
M  V30 5016 H 479.496 -0.725628 -1.75598 0
M  V30 5017 H 477.646 0.630986 -3.83342 0
M  V30 5018 H 479.318 -1.95593 -4.17781 0
M  V30 5019 H 477.561 -1.90195 -3.89882 0
M  V30 5020 H 478.232 -1.22004 -5.38349 0
M  V30 5021 H 480.708 0.262546 -4.15271 0
M  V30 5022 H 479.584 0.78844 -5.43208 0
M  V30 5023 H 479.845 1.81537 -4.03109 0
M  V30 5024 N 478.904 1.54736 -0.299062 0
M  V30 5025 C 480.15 2.00397 0.311244 0
M  V30 5026 C 480.483 1.18716 1.53688 0
M  V30 5027 O 479.758 0.263154 1.92712 0
M  V30 5028 C 480.041 3.53817 0.669761 0
M  V30 5029 C 479.894 4.46239 -0.564882 0
M  V30 5030 C 481.213 4.13856 1.49702 0
M  V30 5031 H 478.332 0.728493 0.111653 0
M  V30 5032 H 480.974 1.85506 -0.410774 0
M  V30 5033 H 479.124 3.66637 1.28491 0
M  V30 5034 H 480.796 4.45328 -1.20337 0
M  V30 5035 H 479.039 4.16916 -1.19849 0
M  V30 5036 H 479.71 5.5134 -0.269918 0
M  V30 5037 H 482.186 4.04461 0.977284 0
M  V30 5038 H 481.062 5.21365 1.71666 0
M  V30 5039 H 481.323 3.65608 2.48563 0
M  V30 5040 N 480.382 0.0267497 1.57577 0
M  V30 5041 C 481.607 -0.666227 1.96408 0
M  V30 5042 C 482.032 -1.65004 0.903071 0
M  V30 5043 O 481.39 -1.80787 -0.136263 0
M  V30 5044 C 481.438 -1.35101 3.34335 0
M  V30 5045 O 480.542 -2.46623 3.30531 0
M  V30 5046 H 479.883 -0.175206 0.640468 0
M  V30 5047 H 482.413 0.0878977 2.04411 0
M  V30 5048 H 482.423 -1.70834 3.70513 0
M  V30 5049 H 481.098 -0.629844 4.11103 0
M  V30 5050 H 479.675 -2.13019 3.06068 0
M  V30 5051 N 481.861 -1.55662 -0.24637 0
M  V30 5052 C 482.771 -1.93495 -1.32653 0
M  V30 5053 C 483.787 -0.835462 -1.5263 0
M  V30 5054 O 484.963 -1.1369 -1.66242 0
M  V30 5055 C 482.028 -2.22242 -2.66101 0
M  V30 5056 C 481.089 -3.45625 -2.54641 0
M  V30 5057 C 480.322 -3.72991 -3.81724 0
M  V30 5058 O 480.545 -3.02421 -4.8363 0
M  V30 5059 O 479.479 -4.66515 -3.80325 0
M  V30 5060 H 483.305 -2.85498 -1.03559 0
M  V30 5061 H 480.89 -1.42551 -0.44717 0
M  V30 5062 H 482.772 -2.42037 -3.44958 0
M  V30 5063 H 481.447 -1.33417 -2.94926 0
M  V30 5064 H 480.354 -3.31136 -1.74067 0
M  V30 5065 H 481.687 -4.34754 -2.3076 0
M  V30 5066 N 483.339 0.512053 -1.4905 0
M  V30 5067 C 484.249 1.64139 -1.67617 0
M  V30 5068 C 485.265 1.64786 -0.558701 0
M  V30 5069 O 486.441 1.8341 -0.832034 0
M  V30 5070 C 483.506 3.00548 -1.72835 0
M  V30 5071 C 482.567 3.10615 -2.96339 0
M  V30 5072 C 481.8 4.40517 -3.01298 0
M  V30 5073 O 482.023 5.28671 -2.14157 0
M  V30 5074 O 480.957 4.55325 -3.93653 0
M  V30 5075 H 484.783 1.51407 -2.63267 0
M  V30 5076 H 482.368 0.687131 -1.32661 0
M  V30 5077 H 484.25 3.81641 -1.78683 0
M  V30 5078 H 482.925 3.13566 -0.803616 0
M  V30 5079 H 481.832 2.2875 -2.96014 0
M  V30 5080 H 483.165 3.0252 -3.88256 0
M  V30 5081 N 484.817 1.37938 0.762283 0
M  V30 5082 C 486.228 1.30094 1.33912 0
M  V30 5083 C 486.579 -0.0472026 1.96143 0
M  V30 5084 O 485.704 -0.94917 1.94473 0
M  V30 5085 C 486.299 2.35592 2.43478 0
M  V30 5086 C 484.858 2.31353 2.96905 0
M  V30 5087 C 484.005 2.18919 1.70205 0
M  V30 5088 H 486.956 1.48423 0.561816 0
M  V30 5089 H 486.977 2.00806 3.23199 0
M  V30 5090 H 486.489 3.33701 1.98155 0
M  V30 5091 H 484.59 1.36799 3.46579 0
M  V30 5092 H 484.703 3.25147 3.51875 0
M  V30 5093 H 483.067 1.65624 1.93496 0
M  V30 5094 H 483.85 3.18956 1.26973 0
M  V30 5095 N 486.295 -0.989507 1.22664 0
M  V30 5096 C 487.544 -1.72375 1.04737 0
M  V30 5097 C 487.857 -1.91096 -0.417316 0
M  V30 5098 O 489.063 -2.6188 -0.716334 0
M  V30 5099 C 487.519 -3.10161 1.82561 0
M  V30 5100 C 487.127 -2.99358 3.333 0
M  V30 5101 C 488.871 -3.87607 1.73093 0
M  V30 5102 C 486.778 -4.32319 4.03552 0
M  V30 5103 H 485.708 -0.646326 0.388302 0
M  V30 5104 H 488.359 -1.10437 1.46546 0
M  V30 5105 H 486.741 -3.728 1.33552 0
M  V30 5106 H 487.915 -2.45863 3.89728 0
M  V30 5107 H 486.23 -2.35392 3.43481 0
M  V30 5108 H 488.827 -4.86025 2.22899 0
M  V30 5109 H 489.17 -4.10509 0.691976 0
M  V30 5110 H 489.703 -3.31652 2.19663 0
M  V30 5111 H 486.442 -4.14616 5.07714 0
M  V30 5112 H 485.962 -4.85714 3.51911 0
M  V30 5113 H 487.641 -5.01051 4.09337 0
M  V30 5114 N 487.773 -1.03688 -1.18687 0
M  V30 5115 C 489.003 -0.756819 -1.92239 0
M  V30 5116 C 489.411 0.689374 -1.76194 0
M  V30 5117 O 488.754 1.48126 -1.08648 0
M  V30 5118 C 488.816 -1.03851 -3.44173 0
M  V30 5119 C 488.48 -2.47785 -3.83994 0
M  V30 5120 C 489.477 -3.4595 -3.88091 0
M  V30 5121 C 487.162 -2.82397 -4.154 0
M  V30 5122 C 489.156 -4.76779 -4.23038 0
M  V30 5123 C 486.843 -4.13433 -4.50018 0
M  V30 5124 C 487.841 -5.10434 -4.53813 0
M  V30 5125 O 487.529 -6.39122 -4.87625 0
M  V30 5126 H 487.261 -0.275678 -0.617234 0
M  V30 5127 H 489.815 -1.38658 -1.51536 0
M  V30 5128 H 488.045 -0.351612 -3.85098 0
M  V30 5129 H 489.734 -0.746846 -3.9897 0
M  V30 5130 H 490.5 -3.20549 -3.63969 0
M  V30 5131 H 486.379 -2.07568 -4.11627 0
M  V30 5132 H 489.923 -5.52488 -4.25914 0
M  V30 5133 H 485.82 -4.38604 -4.736 0
M  V30 5134 H 486.588 -6.43715 -5.05542 0
M  V30 5135 N 489.251 1.34841 -0.815825 0
M  V30 5136 C 490.5 1.97755 -0.396976 0
M  V30 5137 C 490.813 1.65422 1.04379 0
M  V30 5138 O 492.019 2.21771 1.5662 0
M  V30 5139 C 490.475 3.53818 -0.658869 0
M  V30 5140 C 490.083 3.95051 -2.11278 0
M  V30 5141 C 491.827 4.23397 -0.305834 0
M  V30 5142 C 489.734 5.43997 -2.31994 0
M  V30 5143 H 488.664 0.739985 -0.1447 0
M  V30 5144 H 491.315 1.53781 -1.00118 0
M  V30 5145 H 489.697 3.95997 0.0154112 0
M  V30 5146 H 490.871 3.63998 -2.82564 0
M  V30 5147 H 489.186 3.38388 -2.42657 0
M  V30 5148 H 491.783 5.32899 -0.43854 0
M  V30 5149 H 492.126 4.09508 0.748952 0
M  V30 5150 H 492.659 3.8667 -0.934403 0
M  V30 5151 H 489.398 5.62865 -3.35952 0
M  V30 5152 H 488.918 5.76589 -1.65244 0
M  V30 5153 H 490.597 6.10584 -2.14001 0
M  V30 5154 N 490.729 0.570148 1.46925 0
M  V30 5155 C 491.975 0.0510284 2.02736 0
M  V30 5156 C 492.308 -1.3006 1.44215 0
M  V30 5157 O 491.583 -1.84932 0.602521 0
M  V30 5158 C 491.866 -0.028215 3.60089 0
M  V30 5159 C 491.719 1.35142 4.29018 0
M  V30 5160 C 493.038 -0.735181 4.33916 0
M  V30 5161 H 490.157 0.0200178 0.736728 0
M  V30 5162 H 492.799 0.73493 1.75211 0
M  V30 5163 H 490.949 -0.610648 3.83671 0
M  V30 5164 H 492.621 1.97806 4.16738 0
M  V30 5165 H 490.864 1.9226 3.88868 0
M  V30 5166 H 491.535 1.24857 5.37694 0
M  V30 5167 H 494.011 -0.240519 4.15404 0
M  V30 5168 H 492.887 -0.759622 5.43618 0
M  V30 5169 H 493.148 -1.79397 4.04066 0
M  V30 5170 N 492.207 -1.54576 0.307264 0
M  V30 5171 C 493.435 -2.04675 -0.302597 0
M  V30 5172 C 493.85 -1.18425 -1.47041 0
M  V30 5173 O 493.207 -0.211257 -1.81273 0
M  V30 5174 C 493.258 -3.53575 -0.752801 0
M  V30 5175 O 492.979 -4.36547 0.368536 0
M  V30 5176 C 494.48 -4.19699 -1.42717 0
M  V30 5177 H 491.7 -0.66786 -0.0648374 0
M  V30 5178 H 494.244 -1.99516 0.448716 0
M  V30 5179 H 492.399 -3.59074 -1.45412 0
M  V30 5180 H 492.813 -5.24497 0.0168937 0
M  V30 5181 H 494.287 -5.25388 -1.69327 0
M  V30 5182 H 494.764 -3.69815 -2.36925 0
M  V30 5183 H 495.37 -4.18293 -0.768856 0
M  V30 5184 N 493.685 -0.035106 -1.57561 0
M  V30 5185 C 494.595 0.960295 -2.14046 0
M  V30 5186 C 495.611 1.3529 -1.0942 0
M  V30 5187 O 496.787 1.43309 -1.41508 0
M  V30 5188 C 493.852 2.22214 -2.66124 0
M  V30 5189 C 492.913 1.8894 -3.85487 0
M  V30 5190 C 492.146 3.09109 -4.35072 0
M  V30 5191 O 492.369 4.21963 -3.83802 0
M  V30 5192 O 491.303 2.91058 -5.26848 0
M  V30 5193 H 495.129 0.509983 -2.99387 0
M  V30 5194 H 492.714 0.185853 -1.48239 0
M  V30 5195 H 494.596 2.96279 -2.99661 0
M  V30 5196 H 493.271 2.66414 -1.83862 0
M  V30 5197 H 492.178 1.12241 -3.56865 0
M  V30 5198 H 493.511 1.49551 -4.6893 0
M  V30 5199 N 495.163 1.55791 0.238111 0
M  V30 5200 C 496.41 1.78033 0.964907 0
M  V30 5201 C 496.738 0.600984 1.84982 0
M  V30 5202 O 495.993 -0.41536 1.91241 0
M  V30 5203 C 496.292 3.05869 1.84875 0
M  V30 5204 C 495.958 4.36808 1.11846 0
M  V30 5205 C 494.62 4.72388 0.916662 0
M  V30 5206 C 496.972 5.17717 0.60151 0
M  V30 5207 C 494.3 5.86406 0.185756 0
M  V30 5208 C 496.652 6.32494 -0.115972 0
M  V30 5209 C 495.316 6.66688 -0.329168 0
M  V30 5210 H 494.586 0.651469 0.353085 0
M  V30 5211 H 497.233 1.90061 0.234318 0
M  V30 5212 H 495.538 2.88891 2.64668 0
M  V30 5213 H 497.235 3.20278 2.41294 0
M  V30 5214 H 493.825 4.08862 1.28569 0
M  V30 5215 H 498.009 4.90678 0.744932 0
M  V30 5216 H 493.265 6.11399 0.0101886 0
M  V30 5217 H 497.439 6.94425 -0.524127 0
M  V30 5218 H 495.066 7.54884 -0.897474 0
M  V30 5219 N 496.642 -0.504142 1.49319 0
M  V30 5220 C 497.575 -1.62361 1.60356 0
M  V30 5221 C 498.553 -1.56169 0.45277 0
M  V30 5222 O 499.737 -1.76271 0.667892 0
M  V30 5223 C 496.864 -3.00864 1.55559 0
M  V30 5224 C 495.91 -3.25328 2.75797 0
M  V30 5225 S 496.743 -3.08791 4.37503 0
M  V30 5226 C 497.899 -4.49695 4.35345 0
M  V30 5227 H 498.132 -1.52753 2.55056 0
M  V30 5228 H 495.665 -0.689065 1.38171 0
M  V30 5229 H 497.623 -3.8073 1.53477 0
M  V30 5230 H 496.284 -3.0789 0.621515 0
M  V30 5231 H 495.477 -4.2643 2.68651 0
M  V30 5232 H 495.079 -2.53179 2.75275 0
M  V30 5233 H 497.371 -5.41721 4.06871 0
M  V30 5234 H 498.314 -4.61891 5.36714 0
M  V30 5235 H 498.722 -4.30227 3.65465 0
M  V30 5236 N 498.12 -1.38341 -0.754957 0
M  V30 5237 C 499.36 -1.35888 -1.52689 0
M  V30 5238 C 499.724 0.0513682 -1.91931 0
M  V30 5239 O 500.925 0.200761 -2.68049 0
M  V30 5240 C 499.196 -2.28666 -2.74676 0
M  V30 5241 S 500.755 -2.4422 -3.64558 0
M  V30 5242 H 497.573 -0.482165 -0.522531 0
M  V30 5243 H 500.175 -1.74253 -0.886358 0
M  V30 5244 H 498.879 -3.30023 -2.43953 0
M  V30 5245 H 498.41 -1.91445 -3.43675 0
M  V30 5246 H 500.425 -1.66525 -4.67423 0
M  V30 5247 N 499.598 0.982988 -1.23187 0
M  V30 5248 C 500.548 2.05962 -0.977942 0
M  V30 5249 C 501.532 1.60725 0.0751148 0
M  V30 5250 O 502.724 1.76471 -0.136683 0
M  V30 5251 C 499.853 3.38564 -0.568276 0
M  V30 5252 C 498.939 3.90407 -1.6566 0
M  V30 5253 N 499.33 4.15359 -2.88635 0
M  V30 5254 C 497.628 4.18915 -1.53058 0
M  V30 5255 C 498.329 4.57642 -3.5908 0
M  V30 5256 N 497.305 4.6192 -2.86584 0
M  V30 5257 H 501.107 2.23208 -1.91195 0
M  V30 5258 H 498.621 1.16555 -1.13087 0
M  V30 5259 H 500.618 4.15276 -0.36764 0
M  V30 5260 H 499.278 3.22712 0.358713 0
M  V30 5261 H 500.289 4.03258 -3.24966 0
M  V30 5262 H 496.966 4.12081 -0.670506 0
M  V30 5263 H 498.356 4.85488 -4.6449 0
M  V30 5264 N 501.076 1.04316 1.18135 0
M  V30 5265 C 502.324 0.746542 1.87806 0
M  V30 5266 C 502.645 -0.728082 1.80898 0
M  V30 5267 O 501.915 -1.52554 1.22899 0
M  V30 5268 H 500.495 0.273157 0.695265 0
M  V30 5269 H 503.157 1.32044 1.43354 0
M  V30 5270 H 502.253 1.05362 2.93778 0
M  V30 5271 N 502.554 -1.34406 0.822964 0
M  V30 5272 C 503.779 -2.0304 0.423034 0
M  V30 5273 C 504.204 -1.61568 -0.963196 0
M  V30 5274 O 503.562 -0.800339 -1.62678 0
M  V30 5275 C 503.61 -3.56636 0.53321 0
M  V30 5276 O 502.714 -4.09971 -0.446939 0
M  V30 5277 H 502.055 -0.64075 0.174171 0
M  V30 5278 H 504.585 -1.71653 1.11339 0
M  V30 5279 H 504.595 -4.05945 0.408991 0
M  V30 5280 H 503.27 -3.86168 1.54425 0
M  V30 5281 H 501.847 -3.71835 -0.281601 0
M  V30 5282 N 504.032 -0.577932 -1.46621 0
M  V30 5283 C 504.962 0.145917 -2.33044 0
M  V30 5284 C 505.943 0.888412 -1.45056 0
M  V30 5285 O 507.128 0.864812 -1.73881 0
M  V30 5286 C 504.258 1.16322 -3.27241 0
M  V30 5287 C 503.212 0.535868 -4.24632 0
M  V30 5288 C 502.538 1.65929 -5.08303 0
M  V30 5289 C 503.838 -0.523861 -5.19666 0
M  V30 5290 H 505.532 -0.575636 -2.93814 0
M  V30 5291 H 503.078 -0.278272 -1.41286 0
M  V30 5292 H 505.031 1.67793 -3.86553 0
M  V30 5293 H 503.755 1.91498 -2.64567 0
M  V30 5294 H 502.414 0.0422759 -3.66576 0
M  V30 5295 H 502.062 2.40061 -4.42018 0
M  V30 5296 H 501.762 1.2452 -5.74255 0
M  V30 5297 H 503.286 2.17686 -5.70478 0
M  V30 5298 H 504.7 -0.0944059 -5.73222 0
M  V30 5299 H 503.097 -0.858 -5.93935 0
M  V30 5300 H 504.167 -1.41197 -4.63887 0
M  V30 5301 N 505.51 1.54411 -0.315457 0
M  V30 5302 C 506.44 2.27002 0.547039 0
M  V30 5303 C 507.421 1.27492 1.12605 0
M  V30 5304 O 508.606 1.5629 1.15269 0
M  V30 5305 C 505.736 3.02171 1.71201 0
M  V30 5306 C 504.69 4.0895 1.26268 0
M  V30 5307 C 504.016 4.71915 2.51396 0
M  V30 5308 C 505.316 5.20891 0.383419 0
M  V30 5309 H 507.01 2.99343 -0.0584517 0
M  V30 5310 H 504.556 1.4397 -0.0295527 0
M  V30 5311 H 506.509 3.51681 2.32161 0
M  V30 5312 H 505.233 2.27433 2.34397 0
M  V30 5313 H 503.892 3.60312 0.676062 0
M  V30 5314 H 503.54 3.93801 3.12937 0
M  V30 5315 H 503.24 5.44039 2.22026 0
M  V30 5316 H 504.764 5.24195 3.13133 0
M  V30 5317 H 506.178 5.66206 0.899082 0
M  V30 5318 H 504.575 5.99821 0.182857 0
M  V30 5319 H 505.645 4.81324 -0.587821 0
M  V30 5320 N 506.988 0.0434614 1.5754 0
M  V30 5321 C 508.265 -0.671479 1.83713 0
M  V30 5322 C 508.645 -1.89495 0.930315 0
M  V30 5323 O 507.993 -2.28498 -0.0105639 0
M  V30 5324 C 508.203 -1.0361 3.33266 0
M  V30 5325 C 509.551 -1.42167 4.00092 0
M  V30 5326 O 510.575 -1.12866 3.37846 0
M  V30 5327 O 509.434 -1.96817 5.09829 0
M  V30 5328 H 506.528 -0.330726 0.75799 0
M  V30 5329 H 509.074 0.0722373 1.69546 0
M  V30 5330 H 507.846 -0.165938 3.90948 0
M  V30 5331 H 507.469 -1.83751 3.52592 0
M  V30 5332 N 508.466 -1.55915 -0.229846 0
M  V30 5333 C 509.713 -1.78542 -0.955452 0
M  V30 5334 C 510.041 -0.610785 -1.84661 0
M  V30 5335 O 509.296 0.405213 -1.91459 0
M  V30 5336 C 509.595 -3.06845 -1.8325 0
M  V30 5337 C 509.261 -4.37395 -1.09528 0
M  V30 5338 C 507.923 -4.72868 -0.891598 0
M  V30 5339 C 510.275 -5.18029 -0.574046 0
M  V30 5340 C 507.603 -5.86496 -0.154655 0
M  V30 5341 C 509.955 -6.32423 0.149513 0
M  V30 5342 C 508.619 -6.66504 0.364519 0
M  V30 5343 H 507.889 -0.653333 -0.349625 0
M  V30 5344 H 510.536 -1.90183 -0.224235 0
M  V30 5345 H 508.841 -2.90291 -2.63132 0
M  V30 5346 H 510.538 -3.21553 -2.39592 0
M  V30 5347 H 507.128 -4.09538 -1.26399 0
M  V30 5348 H 511.312 -4.91066 -0.718899 0
M  V30 5349 H 506.568 -6.11396 0.0222356 0
M  V30 5350 H 510.742 -6.94137 0.560947 0
M  V30 5351 H 508.369 -7.54397 0.937495 0
M  V30 5352 N 509.944 0.496216 -1.49584 0
M  V30 5353 C 510.874 1.60576 -1.69521 0
M  V30 5354 C 511.855 1.61169 -0.543933 0
M  V30 5355 O 513.04 1.77834 -0.78031 0
M  V30 5356 C 510.17 2.99038 -1.76616 0
M  V30 5357 C 509.124 3.13312 -2.91581 0
M  V30 5358 C 508.45 4.53172 -2.83794 0
M  V30 5359 C 509.75 2.92886 -4.32452 0
M  V30 5360 H 511.444 1.44146 -2.62416 0
M  V30 5361 H 508.99 0.692024 -1.26282 0
M  V30 5362 H 510.943 3.76564 -1.8915 0
M  V30 5363 H 509.667 3.16568 -0.80324 0
M  V30 5364 H 508.326 2.38213 -2.78658 0
M  V30 5365 H 507.974 4.67585 -1.854 0
M  V30 5366 H 507.674 4.63662 -3.60958 0
M  V30 5367 H 509.198 5.32752 -2.98342 0
M  V30 5368 H 510.612 3.60178 -4.46032 0
M  V30 5369 H 509.009 3.14844 -5.10875 0
M  V30 5370 H 510.079 1.88966 -4.46565 0
M  V30 5371 N 511.423 1.38739 0.74761 0
M  V30 5372 C 512.37 1.36449 1.86146 0
M  V30 5373 C 513.34 0.226098 1.64554 0
M  V30 5374 O 514.525 0.41926 1.86137 0
M  V30 5375 C 511.665 1.2013 3.23516 0
M  V30 5376 C 510.778 2.43407 3.56899 0
M  V30 5377 C 509.913 2.19773 4.83605 0
M  V30 5378 C 508.952 3.3879 5.09792 0
M  V30 5379 N 508.089 3.14553 6.27695 0
M  V30 5380 H 512.929 2.3167 1.87438 0
M  V30 5381 H 510.466 1.15094 0.916063 0
M  V30 5382 H 512.424 1.08683 4.02795 0
M  V30 5383 H 511.054 0.285453 3.21535 0
M  V30 5384 H 510.106 2.65504 2.72418 0
M  V30 5385 H 511.418 3.32094 3.72176 0
M  V30 5386 H 510.572 2.05496 5.70838 0
M  V30 5387 H 509.311 1.28461 4.70478 0
M  V30 5388 H 508.316 3.53579 4.21025 0
M  V30 5389 H 509.541 4.30986 5.24812 0
M  V30 5390 H 507.487 2.25893 6.1588 0
M  V30 5391 H 507.404 3.96791 6.435 0
M  V30 5392 H 508.672 3.03943 7.17801 0
M  V30 5393 N 512.901 -0.976442 1.23707 0
M  V30 5394 C 513.849 -2.09078 1.01927 0
M  V30 5395 C 514.843 -1.69345 -0.0430193 0
M  V30 5396 O 516.049 -1.79659 0.110814 0
M  V30 5397 H 512.424 -0.68398 0.312531 0
M  V30 5398 H 514.395 -2.24614 1.96447 0
M  V30 5399 C 513.144 -3.41919 0.631385 0
M  V30 5400 H 512.467 -3.72946 1.44053 0
M  V30 5401 H 513.907 -4.20817 0.518532 0
M  V30 5402 C 512.366 -3.30357 -0.660723 0
M  V30 5403 O 512.896 -3.63542 -1.70881 0
M  V30 5404 N 511.102 -2.83507 -0.638139 0
M  V30 5405 H 510.649 -2.567 0.215108 0
M  V30 5406 H 510.607 -2.76153 -1.50289 0
M  V30 5407 N 514.379 -1.04941 -1.1758 0
M  V30 5408 C 515.79 -0.784501 -1.69418 0
M  V30 5409 C 516.141 0.693625 -1.8353 0
M  V30 5410 O 515.266 1.53925 -1.52106 0
M  V30 5411 C 515.861 -1.41746 -3.07723 0
M  V30 5412 C 514.42 -1.20066 -3.56737 0
M  V30 5413 C 513.567 -1.5026 -2.33061 0
M  V30 5414 H 516.518 -1.21469 -1.02133 0
M  V30 5415 H 516.539 -0.825381 -3.7144 0
M  V30 5416 H 516.051 -2.49325 -2.9742 0
M  V30 5417 H 514.152 -0.144006 -3.72322 0
M  V30 5418 H 514.265 -1.90384 -4.39648 0
M  V30 5419 H 512.629 -0.922598 -2.37403 0
M  V30 5420 H 513.412 -2.58967 -2.25368 0
M  V30 5421 N 515.857 1.33968 -0.830081 0
M  V30 5422 C 516.767 2.33164 -0.259207 0
M  V30 5423 C 517.783 1.62951 0.610164 0
M  V30 5424 O 518.959 1.94668 0.516369 0
M  V30 5425 C 516.024 3.42088 0.563598 0
M  V30 5426 C 515.085 4.28037 -0.329014 0
M  V30 5427 C 514.318 5.3176 0.454616 0
M  V30 5428 O 514.541 5.44876 1.6872 0
M  V30 5429 O 513.475 6.01669 -0.166794 0
M  V30 5430 H 517.301 2.83832 -1.08041 0
M  V30 5431 H 514.886 1.37154 -0.59239 0
M  V30 5432 H 516.768 4.08581 1.03147 0
M  V30 5433 H 515.443 2.93651 1.36201 0
M  V30 5434 H 514.35 3.64443 -0.844538 0
M  V30 5435 H 515.683 4.79934 -1.09196 0
M  V30 5436 N 517.335 0.585699 1.46312 0
M  V30 5437 C 518.583 0.072278 2.01971 0
M  V30 5438 C 518.904 -1.29345 1.45928 0
M  V30 5439 O 518.174 -1.84973 0.645109 0
M  V30 5440 H 516.754 0.023729 0.746623 0
M  V30 5441 H 519.416 0.762155 1.7938 0
M  V30 5442 H 518.512 0.00552767 3.121 0
M  V30 5443 N 518.813 -1.54241 0.323641 0
M  V30 5444 C 519.745 -2.21836 -0.576311 0
M  V30 5445 C 520.758 -1.21837 -1.07979 0
M  V30 5446 O 521.947 -1.48306 -0.99336 0
M  V30 5447 C 519.047 -2.86923 -1.80356 0
M  V30 5448 C 518.22 -4.1306 -1.43875 0
M  V30 5449 C 517.279 -4.6174 -2.52353 0
M  V30 5450 O 516.305 -5.26421 -2.16494 0
M  V30 5451 N 517.507 -4.35974 -3.83284 0
M  V30 5452 H 520.272 -2.997 0.00247987 0
M  V30 5453 H 517.833 -1.61233 0.146848 0
M  V30 5454 H 519.825 -3.16414 -2.52318 0
M  V30 5455 H 518.395 -2.12765 -2.29019 0
M  V30 5456 H 517.615 -3.90334 -0.550752 0
M  V30 5457 H 518.903 -4.95148 -1.17071 0
M  V30 5458 H 518.301 -3.84203 -4.15216 0
M  V30 5459 H 516.858 -4.70119 -4.51477 0
M  V30 5460 N 520.291 -0.0518155 -1.57515 0
M  V30 5461 C 521.568 0.661727 -1.84067 0
M  V30 5462 C 521.948 1.88999 -0.940351 0
M  V30 5463 O 521.296 2.285 -0.00155404 0
M  V30 5464 C 521.506 1.01841 -3.3381 0
M  V30 5465 C 522.854 1.40043 -4.00841 0
M  V30 5466 O 523.878 1.11073 -3.38439 0
M  V30 5467 O 522.737 1.94111 -5.10865 0
M  V30 5468 H 519.831 0.326702 -0.759733 0
M  V30 5469 H 522.377 -0.0812277 -1.69505 0
M  V30 5470 H 521.149 0.145202 -3.91031 0
M  V30 5471 H 520.772 1.81879 -3.53562 0
M  V30 5472 N 521.769 1.56035 0.221574 0
M  V30 5473 C 522.699 1.95434 1.2778 0
M  V30 5474 C 523.68 0.822564 1.48889 0
M  V30 5475 O 524.865 1.08486 1.61072 0
M  V30 5476 C 521.995 2.27102 2.62759 0
M  V30 5477 C 520.949 3.4277 2.56306 0
M  V30 5478 C 520.275 3.60043 3.95314 0
M  V30 5479 C 521.575 4.77742 2.11093 0
M  V30 5480 H 523.269 2.83912 0.950504 0
M  V30 5481 H 520.815 1.36596 0.455791 0
M  V30 5482 H 522.768 2.53256 3.36807 0
M  V30 5483 H 521.492 1.35478 2.97176 0
M  V30 5484 H 520.151 3.16664 1.84715 0
M  V30 5485 H 519.799 2.65794 4.27039 0
M  V30 5486 H 519.499 4.37841 3.91879 0
M  V30 5487 H 521.023 3.88545 4.71025 0
M  V30 5488 H 522.437 5.03102 2.74885 0
M  V30 5489 H 520.834 5.58823 2.18716 0
M  V30 5490 H 521.904 4.731 1.06321 0
M  V30 5491 N 523.247 -0.488276 1.49845 0
M  V30 5492 C 524.663 -0.820566 1.3689 0
M  V30 5493 C 524.863 -1.97248 0.411752 0
M  V30 5494 O 523.919 -2.52042 -0.151931 0
M  V30 5495 C 525.232 -1.1488 2.77891 0
M  V30 5496 C 526.78 -1.25626 2.86683 0
M  V30 5497 C 527.255 -1.61772 4.28479 0
M  V30 5498 N 528.746 -1.68797 4.31349 0
M  V30 5499 C 529.481 -1.98235 5.38043 0
M  V30 5500 N 528.977 -2.2581 6.54967 0
M  V30 5501 N 530.77 -1.99593 5.2547 0
M  V30 5502 H 522.921 0.271123 2.10662 0
M  V30 5503 H 525.184 0.058735 0.946179 0
M  V30 5504 H 524.89 -0.375614 3.49688 0
M  V30 5505 H 524.764 -2.08919 3.14058 0
M  V30 5506 H 527.151 -2.02014 2.15114 0
M  V30 5507 H 527.232 -0.296072 2.54081 0
M  V30 5508 H 526.876 -0.859295 5.00578 0
M  V30 5509 H 526.806 -2.58912 4.58554 0
M  V30 5510 H 529.297 -1.49595 3.4703 0
M  V30 5511 H 529.61 -2.47497 7.32096 0
M  V30 5512 H 527.955 -2.23239 6.58171 0
M  V30 5513 H 531.146 -1.77535 4.33127 0
M  V30 5514 H 531.319 -2.222 6.08713 0
M  V30 5515 N 524.725 -1.39134 -0.740242 0
M  V30 5516 C 525.655 -1.40165 -1.86751 0
M  V30 5517 C 526.636 -0.265708 -1.68012 0
M  V30 5518 O 527.821 -0.47076 -1.88408 0
M  V30 5519 C 524.951 -1.2392 -3.2444 0
M  V30 5520 C 523.905 -2.34858 -3.57807 0
M  V30 5521 C 523.231 -2.03707 -4.94376 0
M  V30 5522 C 524.531 -3.77159 -3.61315 0
M  V30 5523 H 526.225 -2.345 -1.86145 0
M  V30 5524 H 523.771 -1.12875 -0.89416 0
M  V30 5525 H 525.724 -1.23263 -4.02969 0
M  V30 5526 H 524.448 -0.26051 -3.25559 0
M  V30 5527 H 523.107 -2.34723 -2.81604 0
M  V30 5528 H 522.755 -1.04289 -4.9207 0
M  V30 5529 H 522.455 -2.78016 -5.17669 0
M  V30 5530 H 523.979 -2.04691 -5.75268 0
M  V30 5531 H 525.393 -3.79252 -4.29931 0
M  V30 5532 H 523.79 -4.50784 -3.96124 0
M  V30 5533 H 524.86 -4.08513 -2.61238 0
M  V30 5534 N 526.204 0.969867 -1.24223 0
M  V30 5535 C 527.615 1.52717 -1.07399 0
M  V30 5536 C 527.966 1.92956 0.355298 0
M  V30 5537 O 527.091 1.77112 1.2434 0
M  V30 5538 C 527.686 2.77521 -1.94339 0
M  V30 5539 C 526.245 3.29615 -1.81744 0
M  V30 5540 C 525.392 2.02537 -1.89405 0
M  V30 5541 H 528.343 0.788399 -1.37732 0
M  V30 5542 H 528.364 3.50773 -1.47439 0
M  V30 5543 H 527.876 2.48203 -2.98357 0
M  V30 5544 H 525.977 3.63789 -0.805505 0
M  V30 5545 H 526.09 3.98661 -2.65718 0
M  V30 5546 H 524.454 2.17151 -1.33108 0
M  V30 5547 H 525.237 1.75587 -2.94999 0
M  V30 5548 N 527.682 1.05563 1.17022 0
M  V30 5549 C 528.614 0.617888 2.20714 0
M  V30 5550 C 529.627 -0.320303 1.59618 0
M  V30 5551 O 530.816 -0.112449 1.78145 0
M  V30 5552 C 527.916 -0.115333 3.38704 0
M  V30 5553 C 527.089 0.834493 4.29366 0
M  V30 5554 C 526.148 0.141855 5.26009 0
M  V30 5555 O 525.174 0.777151 5.6387 0
M  V30 5556 N 526.376 -1.11934 5.69606 0
M  V30 5557 H 529.141 1.50981 2.58892 0
M  V30 5558 H 526.702 0.938008 1.31958 0
M  V30 5559 H 528.694 -0.588918 4.00392 0
M  V30 5560 H 527.264 -0.908967 2.99093 0
M  V30 5561 H 526.484 1.48762 3.65053 0
M  V30 5562 H 527.772 1.4791 4.86827 0
M  V30 5563 H 527.17 -1.65574 5.40927 0
M  V30 5564 H 525.727 -1.53692 6.33421 0
M  V30 5565 N 529.16 -1.33526 0.837174 0
M  V30 5566 C 530.09 -2.31764 0.284206 0
M  V30 5567 C 531.071 -1.58896 -0.607142 0
M  V30 5568 O 532.256 -1.86798 -0.531047 0
M  V30 5569 C 529.386 -3.43029 -0.542962 0
M  V30 5570 C 528.34 -4.27255 0.252451 0
M  V30 5571 C 527.666 -5.3012 -0.69836 0
M  V30 5572 C 528.966 -5.01229 1.46858 0
M  V30 5573 H 530.66 -2.78262 1.10502 0
M  V30 5574 H 528.206 -1.3378 0.532812 0
M  V30 5575 H 530.159 -4.1078 -0.940096 0
M  V30 5576 H 528.883 -2.95216 -1.39697 0
M  V30 5577 H 527.542 -3.61127 0.631124 0
M  V30 5578 H 527.19 -4.78564 -1.54872 0
M  V30 5579 H 526.89 -5.87353 -0.170274 0
M  V30 5580 H 528.414 -6.00737 -1.09305 0
M  V30 5581 H 529.828 -5.61756 1.14469 0
M  V30 5582 H 528.225 -5.68104 1.93333 0
M  V30 5583 H 529.295 -4.301 2.23924 0
M  V30 5584 N 530.638 -0.59345 -1.46 0
M  V30 5585 C 531.884 -0.0832754 -2.02629 0
M  V30 5586 C 532.217 1.27749 -1.46266 0
M  V30 5587 O 531.492 1.8395 -0.631866 0
M  V30 5588 C 531.775 -0.0290756 -3.60088 0
M  V30 5589 C 531.628 -1.41951 -4.26814 0
M  V30 5590 C 532.947 0.666055 -4.35031 0
M  V30 5591 H 530.066 -0.031736 -0.736316 0
M  V30 5592 H 532.708 -0.762711 -1.74019 0
M  V30 5593 H 530.858 0.549532 -3.84594 0
M  V30 5594 H 532.53 -2.04411 -4.13538 0
M  V30 5595 H 530.773 -1.98422 -3.8576 0
M  V30 5596 H 531.444 -1.33395 -5.3564 0
M  V30 5597 H 533.92 0.174401 -4.15734 0
M  V30 5598 H 532.796 0.673041 -5.44758 0
M  V30 5599 H 533.057 1.72946 -4.06869 0
M  V30 5600 N 532.116 1.54067 -0.331816 0
M  V30 5601 C 533.393 1.92915 0.322955 0
M  V30 5602 C 533.773 1.26225 1.69205 0
M  V30 5603 O 533.121 0.408919 2.24811 0
M  V30 5604 C 533.331 3.46619 0.406946 0
M  V30 5605 C 534.679 4.19386 0.663339 0
M  V30 5606 O 535.703 3.5282 0.489536 0
M  V30 5607 O 534.562 5.37288 0.999193 0
M  V30 5608 H 531.656 0.805808 0.186016 0
M  V30 5609 H 534.202 1.65342 -0.382135 0
M  V30 5610 H 532.974 3.87354 -0.554287 0
M  V30 5611 H 532.597 3.80324 1.15929 0
M  V30 5612 N 533.594 0.0601682 1.57485 0
M  V30 5613 C 534.527 -0.94676 2.07634 0
M  V30 5614 C 535.505 -1.29837 0.978826 0
M  V30 5615 O 536.689 -1.40969 1.2514 0
M  V30 5616 C 533.816 -2.25822 2.52433 0
M  V30 5617 C 532.862 -2.05901 3.73507 0
M  V30 5618 S 533.695 -1.32907 5.18745 0
M  V30 5619 C 534.851 -2.65356 5.66866 0
M  V30 5620 H 535.084 -0.520003 2.92717 0
M  V30 5621 H 532.617 -0.152319 1.53647 0
M  V30 5622 H 534.575 -3.01201 2.78905 0
M  V30 5623 H 533.236 -2.65624 1.67639 0
M  V30 5624 H 532.429 -3.02929 4.02803 0
M  V30 5625 H 532.031 -1.38659 3.47347 0
M  V30 5626 H 534.323 -3.61492 5.73001 0
M  V30 5627 H 535.266 -2.40685 6.6594 0
M  V30 5628 H 535.674 -2.72028 4.94632 0
M  V30 5629 N 535.072 -1.5615 -0.213296 0
M  V30 5630 C 536.035 -1.92249 -1.24792 0
M  V30 5631 C 537.035 -0.801828 -1.39382 0
M  V30 5632 O 538.225 -1.06948 -1.37506 0
M  V30 5633 C 535.357 -2.18056 -2.62039 0
M  V30 5634 H 536.55 -2.84793 -0.939845 0
M  V30 5635 H 534.103 -1.49559 -0.454062 0
M  V30 5636 H 534.838 -1.2809 -2.97932 0
M  V30 5637 H 534.623 -2.99703 -2.52825 0
M  V30 5638 H 536.113 -2.47051 -3.36683 0
M  V30 5639 N 536.55 0.480323 -1.50102 0
M  V30 5640 C 537.513 1.56181 -1.6775 0
M  V30 5641 C 538.513 1.51156 -0.548503 0
M  V30 5642 O 539.703 1.5394 -0.815363 0
M  V30 5643 C 536.835 2.95823 -1.69415 0
M  V30 5644 H 538.028 1.41855 -2.6423 0
M  V30 5645 H 535.581 0.70605 -1.39444 0
M  V30 5646 H 536.316 3.15604 -0.745948 0
M  V30 5647 H 536.101 3.00878 -2.51425 0
M  V30 5648 H 537.591 3.74359 -1.85054 0
M  V30 5649 N 538.028 1.39524 0.732853 0
M  V30 5650 C 538.96 1.34318 1.85718 0
M  V30 5651 C 539.973 0.251576 1.60844 0
M  V30 5652 O 541.162 0.510685 1.71039 0
M  V30 5653 C 538.262 1.06334 3.21786 0
M  V30 5654 C 537.435 2.26813 3.73998 0
M  V30 5655 C 536.494 1.95253 4.88634 0
M  V30 5656 O 535.52 2.67957 5.02183 0
M  V30 5657 N 536.722 0.919984 5.73164 0
M  V30 5658 H 539.487 2.3121 1.90688 0
M  V30 5659 H 537.048 1.33654 0.91368 0
M  V30 5660 H 539.04 0.832363 3.96048 0
M  V30 5661 H 537.61 0.181682 3.12072 0
M  V30 5662 H 536.83 2.65849 2.91064 0
M  V30 5663 H 538.118 3.0717 4.05616 0
M  V30 5664 H 537.516 0.317487 5.64808 0
M  V30 5665 H 536.073 0.748905 6.47483 0
M  V30 5666 N 539.506 -0.963266 1.24736 0
M  V30 5667 C 540.752 -1.70933 1.09131 0
M  V30 5668 C 541.085 -1.90676 -0.368273 0
M  V30 5669 O 540.36 -1.47147 -1.27193 0
M  V30 5670 C 540.643 -3.09744 1.83658 0
M  V30 5671 C 540.496 -2.97465 3.37394 0
M  V30 5672 C 541.815 -4.09483 1.61282 0
M  V30 5673 H 538.934 -0.620398 0.397838 0
M  V30 5674 H 541.576 -1.12028 1.53459 0
M  V30 5675 H 539.726 -3.60031 1.4598 0
M  V30 5676 H 541.398 -2.54571 3.84696 0
M  V30 5677 H 539.641 -2.33576 3.65547 0
M  V30 5678 H 540.312 -3.95822 3.84745 0
M  V30 5679 H 542.788 -3.68073 1.94066 0
M  V30 5680 H 541.664 -5.04666 2.15878 0
M  V30 5681 H 541.925 -4.38639 0.552102 0
M  V30 5682 N 540.985 -1.06182 -1.16461 0
M  V30 5683 C 541.948 -0.675723 -2.19013 0
M  V30 5684 C 542.948 0.277963 -1.58379 0
M  V30 5685 O 544.138 0.0604962 -1.74095 0
M  V30 5686 C 541.27 0.00591459 -3.40899 0
M  V30 5687 H 542.463 -1.58353 -2.54685 0
M  V30 5688 H 540.016 -0.856908 -1.30716 0
M  V30 5689 H 540.751 0.92652 -3.10783 0
M  V30 5690 H 540.536 -0.67984 -3.86161 0
M  V30 5691 H 542.026 0.26181 -4.16778 0
M  V30 5692 N 542.463 1.3308 -0.844243 0
M  V30 5693 C 543.373 2.32876 -0.283922 0
M  V30 5694 C 544.389 1.63589 0.592846 0
M  V30 5695 O 545.565 1.95205 0.495693 0
M  V30 5696 C 542.63 3.42667 0.527283 0
M  V30 5697 C 541.691 4.27664 -0.374394 0
M  V30 5698 C 540.924 5.32212 0.39819 0
M  V30 5699 O 541.147 5.46635 1.62932 0
M  V30 5700 O 540.081 6.01458 -0.2306 0
M  V30 5701 H 543.907 2.82671 -1.11045 0
M  V30 5702 H 541.492 1.36518 -0.606903 0
M  V30 5703 H 543.374 4.09652 0.988078 0
M  V30 5704 H 542.049 2.95079 1.33078 0
M  V30 5705 H 540.956 3.63526 -0.883144 0
M  V30 5706 H 542.289 4.78749 -1.1428 0
M  V30 5707 N 543.941 0.601185 1.45683 0
M  V30 5708 C 545.189 0.0936957 2.01883 0
M  V30 5709 C 545.51 -1.2779 1.47291 0
M  V30 5710 O 544.78 -1.84279 0.664691 0
M  V30 5711 H 543.36 0.0316466 0.746329 0
M  V30 5712 H 546.022 0.781137 1.78562 0
M  V30 5713 H 545.118 0.0386297 3.12076 0
M  V30 5714 N 545.419 -1.53889 0.339982 0
M  V30 5715 C 546.352 -2.21187 -0.561405 0
M  V30 5716 C 547.33 -1.19463 -1.10306 0
M  V30 5717 O 548.514 -1.48268 -1.164 0
M  V30 5718 C 545.641 -2.8865 -1.77198 0
M  V30 5719 C 544.687 -4.04232 -1.3601 0
M  V30 5720 S 545.52 -5.34129 -0.382909 0
M  V30 5721 C 546.676 -6.05094 -1.60039 0
M  V30 5722 H 546.909 -2.97298 0.0102092 0
M  V30 5723 H 544.442 -1.53901 0.124056 0
M  V30 5724 H 546.4 -3.28138 -2.4665 0
M  V30 5725 H 545.061 -2.12311 -2.3148 0
M  V30 5726 H 544.254 -4.50358 -2.2626 0
M  V30 5727 H 543.856 -3.66503 -0.745098 0
M  V30 5728 H 546.148 -6.2827 -2.53541 0
M  V30 5729 H 547.091 -6.98182 -1.18099 0
M  V30 5730 H 547.499 -5.35207 -1.79483 0
M  V30 5731 N 546.897 -0.0685191 -1.57451 0
M  V30 5732 C 547.86 0.885173 -2.11417 0
M  V30 5733 C 548.86 1.22853 -1.03748 0
M  V30 5734 O 550.05 1.16235 -1.2975 0
M  V30 5735 C 547.182 2.18964 -2.61281 0
M  V30 5736 H 548.375 0.417034 -2.96986 0
M  V30 5737 H 545.928 0.18014 -1.55258 0
M  V30 5738 H 546.663 2.70321 -1.79156 0
M  V30 5739 H 546.448 1.9534 -3.39977 0
M  V30 5740 H 547.938 2.87242 -3.0312 0
M  V30 5741 N 548.375 1.56261 0.205012 0
M  V30 5742 C 549.605 1.83874 0.942018 0
M  V30 5743 C 550.013 0.647595 1.77772 0
M  V30 5744 O 549.356 -0.393098 1.79445 0
M  V30 5745 C 549.418 3.05453 1.89575 0
M  V30 5746 C 549.082 4.39772 1.24296 0
M  V30 5747 C 550.079 5.16133 0.624724 0
M  V30 5748 C 547.764 4.86504 1.24978 0
M  V30 5749 C 549.758 6.37396 0.0220117 0
M  V30 5750 C 547.445 6.07705 0.643232 0
M  V30 5751 C 548.443 6.82993 0.0304164 0
M  V30 5752 O 548.131 8.019 -0.566654 0
M  V30 5753 H 547.863 0.614896 0.280854 0
M  V30 5754 H 550.417 2.04215 0.220285 0
M  V30 5755 H 548.647 2.80972 2.65691 0
M  V30 5756 H 550.336 3.19797 2.4997 0
M  V30 5757 H 551.102 4.81127 0.611666 0
M  V30 5758 H 546.981 4.27865 1.71616 0
M  V30 5759 H 550.525 6.96102 -0.456926 0
M  V30 5760 H 546.422 6.42181 0.653759 0
M  V30 5761 H 547.19 8.17192 -0.462588 0
M  V30 5762 N 549.853 -0.472356 1.50355 0
M  V30 5763 C 550.786 -1.58923 1.63764 0
M  V30 5764 C 551.764 -1.55173 0.485793 0
M  V30 5765 O 552.948 -1.74815 0.705132 0
M  V30 5766 C 550.075 -2.97497 1.61905 0
M  V30 5767 C 549.121 -3.19405 2.82635 0
M  V30 5768 S 549.954 -2.99441 4.43954 0
M  V30 5769 C 551.11 -4.40359 4.44786 0
M  V30 5770 H 551.343 -1.47309 2.58239 0
M  V30 5771 H 548.876 -0.659601 1.39602 0
M  V30 5772 H 550.834 -3.77389 1.61518 0
M  V30 5773 H 549.495 -3.06502 0.686683 0
M  V30 5774 H 548.688 -4.20636 2.77636 0
M  V30 5775 H 548.29 -2.47283 2.80583 0
M  V30 5776 H 550.582 -5.32969 4.1827 0
M  V30 5777 H 551.525 -4.50403 5.46391 0
M  V30 5778 H 551.933 -4.22378 3.74509 0
M  V30 5779 N 551.331 -1.39911 -0.725443 0
M  V30 5780 C 552.241 -1.41688 -1.8698 0
M  V30 5781 C 553.257 -0.310579 -1.71206 0
M  V30 5782 O 554.433 -0.55359 -1.93642 0
M  V30 5783 C 551.498 -1.26811 -3.22676 0
M  V30 5784 C 550.559 -2.47497 -3.50776 0
M  V30 5785 C 549.792 -2.3332 -4.79997 0
M  V30 5786 O 550.015 -1.34175 -5.54394 0
M  V30 5787 O 548.949 -3.22498 -5.08211 0
M  V30 5788 H 552.775 -2.38171 -1.88436 0
M  V30 5789 H 550.36 -1.21128 -0.874548 0
M  V30 5790 H 552.242 -1.20684 -4.03749 0
M  V30 5791 H 550.917 -0.334289 -3.21969 0
M  V30 5792 H 549.824 -2.59201 -2.69751 0
M  V30 5793 H 551.157 -3.39606 -3.5627 0
M  V30 5794 N 552.809 0.956637 -1.25245 0
M  V30 5795 C 554.225 1.22733 -1.02023 0
M  V30 5796 C 554.425 1.99761 0.264186 0
M  V30 5797 O 553.481 2.32814 0.977436 0
M  V30 5798 C 554.794 2.00367 -2.24217 0
M  V30 5799 C 556.342 2.13418 -2.28958 0
M  V30 5800 C 556.817 2.9445 -3.50803 0
M  V30 5801 N 558.308 3.02029 -3.51187 0
M  V30 5802 C 559.043 3.65116 -4.42129 0
M  V30 5803 N 558.539 4.2983 -5.43339 0
M  V30 5804 N 560.332 3.62237 -4.29815 0
M  V30 5805 H 552.483 0.441282 -2.07765 0
M  V30 5806 H 554.746 0.257686 -0.912306 0
M  V30 5807 H 554.452 1.51165 -3.17556 0
M  V30 5808 H 554.326 3.01077 -2.27228 0
M  V30 5809 H 556.713 2.61819 -1.36143 0
M  V30 5810 H 556.794 1.1202 -2.29968 0
M  V30 5811 H 556.438 2.46741 -4.43939 0
M  V30 5812 H 556.368 3.9607 -3.47039 0
M  V30 5813 H 558.859 2.56007 -2.77973 0
M  V30 5814 H 559.172 4.75819 -6.08947 0
M  V30 5815 H 557.517 4.28465 -5.47214 0
M  V30 5816 H 560.708 3.10863 -3.49974 0
M  V30 5817 H 560.881 4.11117 -5.00886 0
M  V30 5818 N 554.287 1.06798 1.15896 0
M  V30 5819 C 555.22 0.627503 2.19403 0
M  V30 5820 C 556.198 -0.352352 1.58736 0
M  V30 5821 O 557.382 -0.260111 1.86697 0
M  V30 5822 C 554.509 -0.079356 3.38607 0
M  V30 5823 C 553.555 0.858057 4.17779 0
M  V30 5824 S 554.388 2.35605 4.80885 0
M  V30 5825 C 555.544 1.66083 6.03463 0
M  V30 5826 H 555.777 1.50441 2.56427 0
M  V30 5827 H 553.31 0.881427 1.26768 0
M  V30 5828 H 555.268 -0.48095 4.07673 0
M  V30 5829 H 553.929 -0.932524 2.99938 0
M  V30 5830 H 553.122 0.310108 5.03045 0
M  V30 5831 H 552.724 1.19977 3.54234 0
M  V30 5832 H 555.016 0.969337 6.7053 0
M  V30 5833 H 555.959 2.49159 6.62816 0
M  V30 5834 H 556.367 1.14122 5.52844 0
M  V30 5835 N 555.766 -1.3263 0.851289 0
M  V30 5836 C 556.714 -2.30882 0.282202 0
M  V30 5837 C 557.708 -1.58697 -0.592589 0
M  V30 5838 O 558.914 -1.73461 -0.480768 0
M  V30 5839 H 555.289 -0.748492 0.0725487 0
M  V30 5840 H 557.26 -2.76374 1.12516 0
M  V30 5841 C 556.009 -3.43828 -0.517449 0
M  V30 5842 H 555.332 -3.99532 0.146392 0
M  V30 5843 H 556.772 -4.1474 -0.88128 0
M  V30 5844 C 555.231 -2.90786 -1.70133 0
M  V30 5845 O 555.761 -2.88 -2.80034 0
M  V30 5846 N 553.967 -2.4723 -1.52728 0
M  V30 5847 H 553.514 -2.49695 -0.633257 0
M  V30 5848 H 553.472 -2.12094 -2.32085 0
M  V30 5849 N 557.244 -0.608902 -1.45362 0
M  V30 5850 C 558.474 -0.110852 -2.06302 0
M  V30 5851 C 558.882 1.21062 -1.45398 0
M  V30 5852 O 558.225 1.74861 -0.562976 0
M  V30 5853 C 558.287 0.101793 -3.59356 0
M  V30 5854 C 557.951 -1.13808 -4.42602 0
M  V30 5855 C 558.948 -2.05653 -4.77496 0
M  V30 5856 C 556.633 -1.36727 -4.83333 0
M  V30 5857 C 558.627 -3.18745 -5.51978 0
M  V30 5858 C 556.314 -2.5012 -5.57569 0
M  V30 5859 C 557.312 -3.40957 -5.91809 0
M  V30 5860 O 557 -4.52376 -6.64538 0
M  V30 5861 H 556.732 -0.0666001 -0.672711 0
M  V30 5862 H 559.286 -0.836942 -1.87575 0
M  V30 5863 H 557.516 0.88279 -3.76489 0
M  V30 5864 H 559.205 0.551607 -4.02134 0
M  V30 5865 H 559.971 -1.89172 -4.46586 0
M  V30 5866 H 555.85 -0.669216 -4.56117 0
M  V30 5867 H 559.394 -3.8967 -5.78622 0
M  V30 5868 H 555.291 -2.66553 -5.87894 0
M  V30 5869 H 556.059 -4.51075 -6.82989 0
M  V30 5870 N 558.722 1.53707 -0.348139 0
M  V30 5871 C 559.971 2.0017 0.247992 0
M  V30 5872 C 560.284 1.23983 1.51286 0
M  V30 5873 O 561.49 1.60946 2.18652 0
M  V30 5874 C 559.946 3.56515 0.492459 0
M  V30 5875 C 559.554 4.41562 -0.756777 0
M  V30 5876 C 561.298 4.11381 1.0472 0
M  V30 5877 C 559.205 5.89426 -0.482856 0
M  V30 5878 H 558.135 0.747806 0.0964452 0
M  V30 5879 H 560.786 1.77532 -0.464179 0
M  V30 5880 H 559.168 3.75236 1.26545 0
M  V30 5881 H 560.342 4.34615 -1.53122 0
M  V30 5882 H 558.657 3.97711 -1.23348 0
M  V30 5883 H 561.254 5.19468 1.26717 0
M  V30 5884 H 561.597 3.64885 2.00411 0
M  V30 5885 H 562.13 3.96389 0.334801 0
M  V30 5886 H 558.869 6.40164 -1.40962 0
M  V30 5887 H 558.389 5.99264 0.253416 0
M  V30 5888 H 560.068 6.4692 -0.101816 0
M  V30 5889 N 560.2 0.0768682 1.57412 0
M  V30 5890 C 561.15 -0.898795 2.09537 0
M  V30 5891 C 562.134 -1.25556 1.0062 0
M  V30 5892 O 563.326 -1.23369 1.26921 0
M  V30 5893 C 560.455 -2.16453 2.66464 0
M  V30 5894 C 559.541 -1.83401 3.82393 0
M  V30 5895 N 559.932 -1.20823 4.91157 0
M  V30 5896 C 558.23 -2.13121 3.91785 0
M  V30 5897 C 558.931 -1.05976 5.71965 0
M  V30 5898 N 557.907 -1.57113 5.204 0
M  V30 5899 H 561.709 -0.410718 2.91016 0
M  V30 5900 H 559.223 -0.126878 1.61904 0
M  V30 5901 H 561.22 -2.87274 3.02125 0
M  V30 5902 H 559.88 -2.65844 1.86433 0
M  V30 5903 H 560.891 -0.877249 5.10416 0
M  V30 5904 H 557.568 -2.64854 3.22736 0
M  V30 5905 H 558.958 -0.571809 6.69462 0
M  V30 5906 N 561.678 -1.56367 -0.196722 0
M  V30 5907 C 563.094 -1.49916 -0.54749 0
M  V30 5908 C 563.294 -0.77659 -1.85934 0
M  V30 5909 O 562.35 -0.32644 -2.50381 0
M  V30 5910 C 563.663 -2.94577 -0.603734 0
M  V30 5911 C 565.211 -3.05239 -0.692677 0
M  V30 5912 C 565.686 -4.51308 -0.780046 0
M  V30 5913 N 567.177 -4.55453 -0.843616 0
M  V30 5914 C 567.912 -5.65786 -0.931358 0
M  V30 5915 N 567.408 -6.85812 -0.981503 0
M  V30 5916 N 569.201 -5.53695 -0.968421 0
M  V30 5917 H 561.352 -2.01761 0.663803 0
M  V30 5918 H 563.615 -0.918094 0.236238 0
M  V30 5919 H 563.321 -3.50494 0.29105 0
M  V30 5920 H 563.195 -3.47841 -1.45898 0
M  V30 5921 H 565.582 -2.49372 -1.57789 0
M  V30 5922 H 565.663 -2.55103 0.188736 0
M  V30 5923 H 565.307 -5.078 0.100811 0
M  V30 5924 H 565.237 -4.99176 -1.67724 0
M  V30 5925 H 567.728 -3.69025 -0.814176 0
M  V30 5926 H 568.041 -7.65648 -1.04892 0
M  V30 5927 H 566.386 -6.88474 -0.950208 0
M  V30 5928 H 569.577 -4.58848 -0.926072 0
M  V30 5929 H 569.75 -6.39708 -1.03334 0
M  V30 5930 N 563.156 0.464375 -1.50603 0
M  V30 5931 C 564.433 1.22549 -1.5245 0
M  V30 5932 C 564.813 2.09327 -0.273035 0
M  V30 5933 O 564.161 2.16074 0.743242 0
M  V30 5934 C 564.371 2.05074 -2.82393 0
M  V30 5935 C 565.719 2.63036 -3.33313 0
M  V30 5936 O 566.743 2.1531 -2.8376 0
M  V30 5937 O 565.602 3.5001 -4.19709 0
M  V30 5938 H 562.696 0.556471 -0.611775 0
M  V30 5939 H 565.242 0.475648 -1.62898 0
M  V30 5940 H 564.014 1.41169 -3.64948 0
M  V30 5941 H 563.637 2.87179 -2.7498 0
M  V30 5942 N 564.634 1.40294 0.718013 0
M  V30 5943 C 565.564 1.43118 1.84498 0
M  V30 5944 C 566.545 0.292403 1.67568 0
M  V30 5945 O 567.73 0.500675 1.87635 0
M  V30 5946 C 564.86 1.29065 3.22427 0
M  V30 5947 C 563.814 2.40521 3.54025 0
M  V30 5948 C 563.14 2.11546 4.91073 0
M  V30 5949 C 564.44 3.82859 3.55269 0
M  V30 5950 H 566.134 2.37432 1.82391 0
M  V30 5951 H 563.68 1.14283 0.87609 0
M  V30 5952 H 565.633 1.29658 4.00957 0
M  V30 5953 H 564.357 0.312271 3.25104 0
M  V30 5954 H 563.016 2.39173 2.77834 0
M  V30 5955 H 562.664 1.12104 4.90348 0
M  V30 5956 H 562.364 2.86216 5.1318 0
M  V30 5957 H 563.888 2.13817 5.71939 0
M  V30 5958 H 565.302 3.86044 4.23843 0
M  V30 5959 H 563.699 4.57029 3.88902 0
M  V30 5960 H 564.769 4.12617 2.54706 0
M  V30 5961 N 566.112 -0.949982 1.2575 0
M  V30 5962 C 567.528 -1.22191 1.02672 0
M  V30 5963 C 567.728 -1.99898 -0.253588 0
M  V30 5964 O 566.784 -2.33329 -0.965076 0
M  V30 5965 C 568.097 -1.99175 2.25277 0
M  V30 5966 C 569.645 -2.12201 2.30087 0
M  V30 5967 C 570.12 -2.92586 3.5236 0
M  V30 5968 N 571.611 -3.00163 3.52784 0
M  V30 5969 C 572.346 -3.62766 4.44059 0
M  V30 5970 N 571.842 -4.26943 5.45611 0
M  V30 5971 N 573.635 -3.59953 4.3173 0
M  V30 5972 H 565.786 -0.430258 2.07996 0
M  V30 5973 H 568.049 -0.252844 0.91366 0
M  V30 5974 H 567.755 -1.49479 3.18354 0
M  V30 5975 H 567.629 -2.99868 2.28821 0
M  V30 5976 H 570.016 -2.61093 1.3753 0
M  V30 5977 H 570.097 -1.10799 2.30559 0
M  V30 5978 H 569.741 -2.44383 4.45241 0
M  V30 5979 H 569.671 -3.94224 3.49134 0
M  V30 5980 H 572.162 -2.54529 2.79327 0
M  V30 5981 H 572.475 -4.72583 6.11461 0
M  V30 5982 H 570.82 -4.25557 5.49478 0
M  V30 5983 H 574.011 -3.09003 3.51617 0
M  V30 5984 H 574.184 -4.08455 5.03059 0
M  V30 5985 N 567.59 -1.07411 -1.15328 0
M  V30 5986 C 568.553 -0.698914 -2.18284 0
M  V30 5987 C 569.553 0.261149 -1.58665 0
M  V30 5988 O 570.743 0.0420277 -1.74149 0
M  V30 5989 C 567.875 -0.0302427 -3.40887 0
M  V30 5990 H 569.068 -1.61045 -2.52991 0
M  V30 5991 H 566.621 -0.870724 -1.298 0
M  V30 5992 H 567.356 0.893505 -3.11748 0
M  V30 5993 H 567.141 -0.720759 -3.85419 0
M  V30 5994 H 568.631 0.21759 -4.17033 0
M  V30 5995 N 569.068 1.32177 -0.85831 0
M  V30 5996 C 570.031 2.27086 -0.310588 0
M  V30 5997 C 571.031 1.51751 0.531806 0
M  V30 5998 O 572.221 1.70794 0.34279 0
M  V30 5999 C 569.353 3.36266 0.560179 0
M  V30 6000 H 570.546 2.77045 -1.1483 0
M  V30 6001 H 568.099 1.42911 -0.632942 0
M  V30 6002 H 568.834 2.9158 1.41956 0
M  V30 6003 H 568.619 3.92077 -0.0428473 0
M  V30 6004 H 570.109 4.06974 0.936056 0
M  V30 6005 N 570.547 0.616602 1.45037 0
M  V30 6006 C 571.495 -0.109318 2.32343 0
M  V30 6007 C 572.489 -0.850543 1.465 0
M  V30 6008 O 573.695 -0.765088 1.62931 0
M  V30 6009 H 570.07 -0.0541091 0.750051 0
M  V30 6010 H 572.041 0.645326 2.91338 0
M  V30 6011 C 570.79 -1.0872 3.30266 0
M  V30 6012 H 570.113 -0.526267 3.96321 0
M  V30 6013 H 571.553 -1.56489 3.94065 0
M  V30 6014 C 570.012 -2.16525 2.58105 0
M  V30 6015 O 570.542 -3.244 2.36913 0
M  V30 6016 N 568.748 -1.92057 2.18088 0
M  V30 6017 H 568.295 -1.04337 2.35524 0
M  V30 6018 H 568.253 -2.64391 1.70131 0
M  V30 6019 N 572.025 -1.5352 0.356285 0
M  V30 6020 C 573.274 -2.00298 -0.237373 0
M  V30 6021 C 573.587 -1.24784 -1.50627 0
M  V30 6022 O 574.793 -1.62103 -2.17795 0
M  V30 6023 C 573.249 -3.56771 -0.473545 0
M  V30 6024 C 572.857 -4.41154 0.780183 0
M  V30 6025 C 574.601 -4.1193 -1.02537 0
M  V30 6026 C 572.508 -5.89161 0.514108 0
M  V30 6027 H 571.438 -0.748307 -0.092478 0
M  V30 6028 H 574.089 -1.77283 0.473588 0
M  V30 6029 H 572.471 -3.75902 -1.24553 0
M  V30 6030 H 573.645 -4.33797 1.55425 0
M  V30 6031 H 571.96 -3.97052 1.25455 0
M  V30 6032 H 574.557 -5.20133 -1.2396 0
M  V30 6033 H 574.9 -3.65943 -1.98473 0
M  V30 6034 H 575.433 -3.96561 -0.313775 0
M  V30 6035 H 572.172 -6.39408 1.44355 0
M  V30 6036 H 571.692 -5.9939 -0.221632 0
M  V30 6037 H 573.371 -6.46857 0.136122 0
M  V30 6038 N 573.503 -0.0852151 -1.57369 0
M  V30 6039 C 574.433 0.874556 -2.16503 0
M  V30 6040 C 575.414 1.30111 -1.09568 0
M  V30 6041 O 576.599 1.36977 -1.37662 0
M  V30 6042 C 573.729 2.13731 -2.73745 0
M  V30 6043 C 572.683 1.84971 -3.85966 0
M  V30 6044 C 572.009 3.17991 -4.29867 0
M  V30 6045 C 573.309 1.14442 -5.09608 0
M  V30 6046 H 575.003 0.381899 -2.96954 0
M  V30 6047 H 572.549 0.18225 -1.42842 0
M  V30 6048 H 574.502 2.81302 -3.13763 0
M  V30 6049 H 573.226 2.65263 -1.90534 0
M  V30 6050 H 571.885 1.19801 -3.46473 0
M  V30 6051 H 571.533 3.6739 -3.4356 0
M  V30 6052 H 571.233 2.99534 -5.05523 0
M  V30 6053 H 572.757 3.86737 -4.72511 0
M  V30 6054 H 574.171 1.72105 -5.46857 0
M  V30 6055 H 572.568 1.06197 -5.90629 0
M  V30 6056 H 573.638 0.12559 -4.84737 0
M  V30 6057 N 574.981 1.5647 0.188427 0
M  V30 6058 C 576.227 1.81281 0.909124 0
M  V30 6059 C 576.56 0.66034 1.82628 0
M  V30 6060 O 575.835 -0.338737 1.91528 0
M  V30 6061 C 576.118 3.16388 1.7196 0
M  V30 6062 C 575.971 4.42137 0.826714 0
M  V30 6063 C 577.29 3.48256 2.69083 0
M  V30 6064 H 574.409 0.659457 0.329068 0
M  V30 6065 H 577.051 1.89182 0.176156 0
M  V30 6066 H 575.201 3.09784 2.34448 0
M  V30 6067 H 576.873 4.60794 0.216025 0
M  V30 6068 H 575.116 4.33594 0.133792 0
M  V30 6069 H 575.787 5.33184 1.42893 0
M  V30 6070 H 578.263 3.55203 2.16726 0
M  V30 6071 H 577.139 4.43899 3.2287 0
M  V30 6072 H 577.4 2.72088 3.48455 0
M  V30 6073 N 576.459 -0.456382 1.50847 0
M  V30 6074 C 577.707 -1.20497 1.62249 0
M  V30 6075 C 578.028 -1.92156 0.331839 0
M  V30 6076 O 577.298 -1.84751 -0.651443 0
M  V30 6077 H 575.878 -0.447775 0.597918 0
M  V30 6078 H 578.54 -0.525099 1.87693 0
M  V30 6079 H 577.636 -1.94492 2.44089 0
M  V30 6080 N 577.937 -1.40673 -0.710563 0
M  V30 6081 C 578.847 -1.43663 -1.85467 0
M  V30 6082 C 579.863 -0.328721 -1.70867 0
M  V30 6083 O 581.039 -0.574098 -1.93044 0
M  V30 6084 C 578.104 -1.30226 -3.21313 0
M  V30 6085 C 577.165 -2.51204 -3.48131 0
M  V30 6086 C 576.398 -2.38398 -4.77495 0
M  V30 6087 O 576.621 -1.40048 -5.5294 0
M  V30 6088 O 575.555 -3.2787 -5.04762 0
M  V30 6089 H 579.381 -2.40156 -1.859 0
M  V30 6090 H 576.966 -1.22049 -0.861652 0
M  V30 6091 H 578.848 -1.2496 -4.02446 0
M  V30 6092 H 577.523 -0.368419 -3.21597 0
M  V30 6093 H 576.43 -2.62048 -2.66987 0
M  V30 6094 H 577.763 -3.43366 -3.52648 0
M  V30 6095 N 579.415 0.9433 -1.26252 0
M  V30 6096 C 580.831 1.21644 -1.03319 0
M  V30 6097 C 581.031 2.0003 0.242983 0
M  V30 6098 O 580.087 2.33838 0.952688 0
M  V30 6099 C 581.4 1.97978 -2.2633 0
M  V30 6100 C 582.948 2.10978 -2.31209 0
M  V30 6101 C 583.423 2.90713 -3.53907 0
M  V30 6102 N 584.914 2.98287 -3.54371 0
M  V30 6103 C 585.649 3.60406 -4.45976 0
M  V30 6104 N 585.145 4.24043 -5.47868 0
M  V30 6105 N 586.938 3.57658 -4.33633 0
M  V30 6106 H 579.089 0.419221 -2.08222 0
M  V30 6107 H 581.352 0.247995 -0.914988 0
M  V30 6108 H 581.058 1.47788 -3.19142 0
M  V30 6109 H 580.932 2.9865 -2.30408 0
M  V30 6110 H 583.319 2.6036 -1.38913 0
M  V30 6111 H 583.4 1.09575 -2.31143 0
M  V30 6112 H 583.044 2.42018 -4.46531 0
M  V30 6113 H 582.974 3.92367 -3.5122 0
M  V30 6114 H 585.465 2.53044 -2.80673 0
M  V30 6115 H 585.778 4.69334 -6.13959 0
M  V30 6116 H 584.123 4.22637 -5.51728 0
M  V30 6117 H 587.314 3.07134 -3.53251 0
M  V30 6118 H 587.487 4.05782 -5.05218 0
M  V30 6119 N 580.893 1.08022 1.14757 0
M  V30 6120 C 581.823 0.728248 2.21853 0
M  V30 6121 C 582.804 -0.287486 1.67653 0
M  V30 6122 O 583.989 -0.158727 1.9355 0
M  V30 6123 C 581.119 0.132549 3.47047 0
M  V30 6124 C 580.073 1.07619 4.14249 0
M  V30 6125 C 579.399 0.342907 5.33599 0
M  V30 6126 C 580.699 2.41268 4.63235 0
M  V30 6127 H 582.393 1.62365 2.51551 0
M  V30 6128 H 579.939 0.782125 1.20908 0
M  V30 6129 H 581.892 -0.125665 4.21213 0
M  V30 6130 H 580.616 -0.797971 3.16702 0
M  V30 6131 H 579.275 1.31944 3.42033 0
M  V30 6132 H 578.923 -0.59129 4.99513 0
M  V30 6133 H 578.623 0.971955 5.79506 0
M  V30 6134 H 580.147 0.0926538 6.1053 0
M  V30 6135 H 581.561 2.21232 5.28894 0
M  V30 6136 H 579.958 2.9983 5.19829 0
M  V30 6137 H 581.028 3.03079 3.78512 0
M  V30 6138 N 582.371 -1.3172 0.865308 0
M  V30 6139 C 583.334 -2.26918 0.322627 0
M  V30 6140 C 584.334 -1.52031 -0.523751 0
M  V30 6141 O 585.524 -1.70973 -0.333727 0
M  V30 6142 C 582.656 -3.36558 -0.542338 0
M  V30 6143 H 583.849 -2.76432 1.16298 0
M  V30 6144 H 581.402 -1.42573 0.640512 0
M  V30 6145 H 582.137 -2.92329 -1.40407 0
M  V30 6146 H 581.922 -3.92048 0.0636395 0
M  V30 6147 H 583.412 -4.07465 -0.91446 0
M  V30 6148 N 583.85 -0.624285 -1.44708 0
M  V30 6149 C 585.09 -0.129273 -2.03991 0
M  V30 6150 C 585.454 1.22321 -1.47992 0
M  V30 6151 O 586.654 1.80993 -1.98734 0
M  V30 6152 C 584.926 -0.108231 -3.57236 0
M  V30 6153 S 586.485 0.323158 -4.37608 0
M  V30 6154 H 583.303 -0.0577318 -0.708652 0
M  V30 6155 H 585.904 -0.826139 -1.77187 0
M  V30 6156 H 584.609 -1.0958 -3.955 0
M  V30 6157 H 584.139 0.610101 -3.8864 0
M  V30 6158 H 586.154 1.56894 -4.70743 0
M  V30 6159 N 585.328 1.53329 -0.364422 0
M  V30 6160 C 586.275 2.25698 0.482607 0
M  V30 6161 C 587.245 1.26325 1.07848 0
M  V30 6162 O 588.43 1.55104 1.11119 0
M  V30 6163 C 585.57 3.04873 1.61699 0
M  V30 6164 C 584.683 4.19135 1.0464 0
M  V30 6165 C 583.818 4.85754 2.14979 0
M  V30 6166 C 582.857 5.9205 1.5538 0
M  V30 6167 N 581.994 6.52365 2.59547 0
M  V30 6168 H 586.834 2.97666 -0.141032 0
M  V30 6169 H 584.371 1.46875 -0.0813692 0
M  V30 6170 H 586.329 3.49051 2.28516 0
M  V30 6171 H 584.959 2.35162 2.2113 0
M  V30 6172 H 584.011 3.79451 0.268553 0
M  V30 6173 H 585.323 4.95525 0.570653 0
M  V30 6174 H 584.477 5.3311 2.89619 0
M  V30 6175 H 583.216 4.08834 2.65906 0
M  V30 6176 H 582.221 5.44058 0.792549 0
M  V30 6177 H 583.446 6.7089 1.0528 0
M  V30 6178 H 581.392 5.78298 3.09689 0
M  V30 6179 H 581.309 7.2429 2.16655 0
M  V30 6180 H 582.577 7.0437 3.33892 0
M  V30 6181 N 586.806 0.0935595 1.57322 0
M  V30 6182 C 588.055 -0.570191 1.93473 0
M  V30 6183 C 588.368 -1.69434 0.977318 0
M  V30 6184 O 589.574 -2.41914 1.23248 0
M  V30 6185 C 588.03 -1.06564 3.43762 0
M  V30 6186 C 587.638 0.0286723 4.47991 0
M  V30 6187 C 589.382 -1.70221 3.88877 0
M  V30 6188 C 587.289 -0.482046 5.89432 0
M  V30 6189 H 586.219 -0.216764 0.72217 0
M  V30 6190 H 588.87 0.169313 1.82717 0
M  V30 6191 H 587.252 -1.85878 3.49664 0
M  V30 6192 H 588.426 0.804106 4.5373 0
M  V30 6193 H 586.741 0.570336 4.12476 0
M  V30 6194 H 589.338 -2.09502 4.91948 0
M  V30 6195 H 589.681 -2.57078 3.27439 0
M  V30 6196 H 590.214 -0.974919 3.85668 0
M  V30 6197 H 586.953 0.349871 6.54566 0
M  V30 6198 H 586.473 -1.22452 5.87167 0
M  V30 6199 H 588.152 -0.951508 6.39965 0
M  V30 6200 N 588.284 -1.56567 -0.180126 0
M  V30 6201 C 589.247 -1.94852 -1.20686 0
M  V30 6202 C 590.247 -0.831212 -1.3765 0
M  V30 6203 O 591.437 -1.09841 -1.35206 0
M  V30 6204 C 588.569 -2.23565 -2.57355 0
M  V30 6205 H 589.762 -2.86722 -0.879225 0
M  V30 6206 H 587.315 -1.50489 -0.422237 0
M  V30 6207 H 588.05 -1.34381 -2.95148 0
M  V30 6208 H 587.835 -3.04999 -2.46411 0
M  V30 6209 H 589.325 -2.54137 -3.31367 0
M  V30 6210 N 589.762 0.448376 -1.51087 0
M  V30 6211 C 591.039 1.20926 -1.53741 0
M  V30 6212 C 591.419 2.09025 -0.295222 0
M  V30 6213 O 590.767 2.16851 0.720283 0
M  V30 6214 C 590.977 2.02067 -2.84552 0
M  V30 6215 C 592.325 2.59486 -3.36084 0
M  V30 6216 O 593.349 2.12289 -2.86028 0
M  V30 6217 O 592.208 3.45539 -4.23397 0
M  V30 6218 H 589.302 0.549951 -0.617643 0
M  V30 6219 H 591.848 0.458344 -1.63393 0
M  V30 6220 H 590.62 1.37291 -3.66425 0
M  V30 6221 H 590.243 2.84246 -2.78011 0
M  V30 6222 N 591.24 1.41047 0.703093 0
M  V30 6223 C 592.487 1.4 1.46309 0
M  V30 6224 C 592.815 0.00654574 1.94499 0
M  V30 6225 O 592.07 -0.980255 1.6938 0
M  V30 6226 C 592.369 2.34686 2.6955 0
M  V30 6227 C 592.035 3.81684 2.40058 0
M  V30 6228 C 590.697 4.21731 2.31725 0
M  V30 6229 C 593.049 4.74525 2.15581 0
M  V30 6230 C 590.377 5.52637 1.97001 0
M  V30 6231 C 592.729 6.05744 1.82366 0
M  V30 6232 C 591.393 6.44819 1.72524 0
M  V30 6233 H 590.663 0.512295 0.535382 0
M  V30 6234 H 593.31 1.73792 0.804275 0
M  V30 6235 H 591.615 1.94122 3.40329 0
M  V30 6236 H 593.312 2.31152 3.27673 0
M  V30 6237 H 589.902 3.49963 2.47435 0
M  V30 6238 H 594.086 4.44395 2.20968 0
M  V30 6239 H 589.342 5.81802 1.87928 0
M  V30 6240 H 593.516 6.77189 1.62444 0
M  V30 6241 H 591.143 7.46168 1.45385 0
M  V30 6242 N 592.718 -0.936591 1.26751 0
M  V30 6243 C 593.966 -1.67998 1.12343 0
M  V30 6244 C 594.287 -1.92137 -0.332938 0
M  V30 6245 O 593.557 -1.52132 -1.23421 0
M  V30 6246 H 592.137 -0.622609 0.412756 0
M  V30 6247 H 594.799 -1.12509 1.59147 0
M  V30 6248 H 593.895 -2.65185 1.64571 0
M  V30 6249 N 594.196 -1.08629 -1.14182 0
M  V30 6250 C 595.126 -0.740003 -2.21464 0
M  V30 6251 C 596.107 0.278591 -1.67803 0
M  V30 6252 O 597.292 0.148461 -1.93632 0
M  V30 6253 C 594.422 -0.150952 -3.46972 0
M  V30 6254 C 593.376 -1.09815 -4.13672 0
M  V30 6255 C 592.702 -0.3712 -5.3341 0
M  V30 6256 C 594.002 -2.43722 -4.61949 0
M  V30 6257 H 595.696 -1.63697 -2.50686 0
M  V30 6258 H 593.242 -0.788526 -1.20492 0
M  V30 6259 H 595.195 0.103325 -4.21273 0
M  V30 6260 H 593.919 0.781164 -3.1712 0
M  V30 6261 H 592.578 -1.33756 -3.41328 0
M  V30 6262 H 592.226 0.564792 -4.99819 0
M  V30 6263 H 591.926 -1.00267 -5.78982 0
M  V30 6264 H 593.45 -0.12503 -6.10472 0
M  V30 6265 H 594.864 -2.24034 -5.27714 0
M  V30 6266 H 593.261 -3.02582 -5.18232 0
M  V30 6267 H 594.331 -3.05082 -3.76899 0
M  V30 6268 N 595.674 1.31259 -0.872281 0
M  V30 6269 C 596.637 2.26744 -0.334656 0
M  V30 6270 C 597.637 1.52307 0.515681 0
M  V30 6271 O 598.827 1.71148 0.324656 0
M  V30 6272 C 595.959 3.36841 0.524482 0
M  V30 6273 H 597.152 2.75812 -1.17762 0
M  V30 6274 H 594.705 1.42232 -0.648064 0
M  V30 6275 H 595.44 2.93069 1.38855 0
M  V30 6276 H 595.225 3.92009 -0.0844299 0
M  V30 6277 H 596.715 4.07944 0.892838 0
M  V30 6278 N 597.152 0.631951 1.44375 0
M  V30 6279 C 598.568 0.297642 1.568 0
M  V30 6280 C 598.768 -1.19916 1.61934 0
M  V30 6281 O 597.824 -1.98324 1.56281 0
M  V30 6282 C 599.137 0.990286 2.83926 0
M  V30 6283 C 600.685 0.968507 2.97639 0
M  V30 6284 C 601.16 1.64163 4.27568 0
M  V30 6285 N 602.651 1.60826 4.34384 0
M  V30 6286 C 603.386 2.09802 5.33639 0
M  V30 6287 N 602.882 2.66973 6.39294 0
M  V30 6288 N 604.675 2.00426 5.25153 0
M  V30 6289 H 596.826 1.60353 1.39286 0
M  V30 6290 H 599.089 0.673142 0.667521 0
M  V30 6291 H 598.795 2.04519 2.8612 0
M  V30 6292 H 598.669 0.528563 3.73478 0
M  V30 6293 H 601.056 -0.0779247 2.94997 0
M  V30 6294 H 601.137 1.46873 2.09433 0
M  V30 6295 H 600.781 2.68752 4.3097 0
M  V30 6296 H 600.711 1.11624 5.14634 0
M  V30 6297 H 603.202 1.19087 3.58646 0
M  V30 6298 H 603.515 3.02074 7.11316 0
M  V30 6299 H 601.86 2.71024 6.39977 0
M  V30 6300 H 605.051 1.55483 4.41523 0
M  V30 6301 H 605.224 2.38906 6.02352 0
M  V30 6302 N 598.631 -1.53133 0.372548 0
M  V30 6303 C 599.561 -2.28876 -0.462412 0
M  V30 6304 C 600.542 -1.31583 -1.07796 0
M  V30 6305 O 601.727 -1.60461 -1.09389 0
M  V30 6306 C 598.857 -3.08317 -1.59868 0
M  V30 6307 C 597.811 -4.13355 -1.11003 0
M  V30 6308 C 597.137 -4.8092 -2.33708 0
M  V30 6309 C 598.437 -5.21955 -0.18983 0
M  V30 6310 H 600.131 -2.9892 0.169511 0
M  V30 6311 H 597.677 -1.43761 0.0829658 0
M  V30 6312 H 599.63 -3.60055 -2.18949 0
M  V30 6313 H 598.354 -2.35976 -2.25794 0
M  V30 6314 H 597.013 -3.62573 -0.541869 0
M  V30 6315 H 596.661 -4.05144 -2.98106 0
M  V30 6316 H 596.361 -5.51904 -2.01682 0
M  V30 6317 H 597.885 -5.35455 -2.93462 0
M  V30 6318 H 599.299 -5.69153 -0.688319 0
M  V30 6319 H 597.696 -6.00087 0.0398887 0
M  V30 6320 H 598.766 -4.78811 0.766057 0
M  V30 6321 N 600.109 -0.101901 -1.5727 0
M  V30 6322 C 601.358 0.559922 -1.93772 0
M  V30 6323 C 601.671 1.68913 -0.98629 0
M  V30 6324 O 602.877 2.41256 -1.24529 0
M  V30 6325 C 601.333 1.04739 -3.44322 0
M  V30 6326 C 600.941 -0.05243 -4.47969 0
M  V30 6327 C 602.685 1.68157 -3.89774 0
M  V30 6328 C 600.592 0.450781 -5.8968 0
M  V30 6329 H 599.522 0.212931 -0.723309 0
M  V30 6330 H 602.173 -0.179001 -1.82625 0
M  V30 6331 H 600.555 1.84021 -3.50645 0
M  V30 6332 H 601.729 -0.828157 -4.53297 0
M  V30 6333 H 600.044 -0.592202 -4.12167 0
M  V30 6334 H 602.641 2.0689 -4.93052 0
M  V30 6335 H 602.984 2.55338 -3.28798 0
M  V30 6336 H 603.517 0.954453 -3.8618 0
M  V30 6337 H 600.256 -0.38458 -6.54371 0
M  V30 6338 H 599.776 1.19336 -5.87809 0
M  V30 6339 H 601.455 0.917555 -6.40461 0
M  V30 6340 N 601.587 1.56661 0.17182 0
M  V30 6341 C 602.534 1.96371 1.21273 0
M  V30 6342 C 603.504 0.82756 1.44016 0
M  V30 6343 O 604.689 1.08764 1.56764 0
M  V30 6344 C 601.829 2.32838 2.54716 0
M  V30 6345 C 600.942 3.59628 2.39356 0
M  V30 6346 C 600.077 3.85311 3.65662 0
M  V30 6347 C 599.116 5.0545 3.45234 0
M  V30 6348 N 598.253 5.27268 4.63608 0
M  V30 6349 H 603.093 2.85106 0.86709 0
M  V30 6350 H 600.63 1.41073 0.416744 0
M  V30 6351 H 602.588 2.52004 3.3249 0
M  V30 6352 H 601.218 1.47214 2.87277 0
M  V30 6353 H 600.27 3.4838 1.52761 0
M  V30 6354 H 601.582 4.4756 2.20207 0
M  V30 6355 H 600.736 4.04841 4.51872 0
M  V30 6356 H 599.475 2.95753 3.8779 0
M  V30 6357 H 598.48 4.85819 2.5741 0
M  V30 6358 H 599.705 5.96538 3.24529 0
M  V30 6359 H 597.651 4.40662 4.85956 0
M  V30 6360 H 597.568 6.09422 4.4737 0
M  V30 6361 H 598.836 5.51277 5.51103 0
M  V30 6362 N 603.065 -0.440357 1.51323 0
M  V30 6363 C 604.342 -1.20109 1.5438 0
M  V30 6364 C 604.722 -2.08866 0.306303 0
M  V30 6365 O 604.07 -2.1723 -0.708773 0
M  V30 6366 C 604.28 -2.00555 2.8562 0
M  V30 6367 C 605.628 -2.577 3.37455 0
M  V30 6368 O 606.652 -2.10769 2.8715 0
M  V30 6369 O 605.511 -3.43289 4.25224 0
M  V30 6370 H 602.605 -0.546668 0.620551 0
M  V30 6371 H 605.151 -0.449672 1.63634 0
M  V30 6372 H 603.923 -1.35346 3.67147 0
M  V30 6373 H 603.546 -2.82768 2.79514 0
M  V30 6374 N 604.543 -1.41418 -0.695603 0
M  V30 6375 C 605.82 -1.31264 -1.45014 0
M  V30 6376 C 606.2 0.0597994 -2.11015 0
M  V30 6377 O 605.548 1.07403 -2.01685 0
M  V30 6378 C 605.758 -2.466 -2.4696 0
M  V30 6379 C 607.106 -2.87763 -3.12214 0
M  V30 6380 O 608.13 -2.46339 -2.57285 0
M  V30 6381 O 606.989 -3.59395 -4.11701 0
M  V30 6382 H 604.083 -0.516576 -0.645816 0
M  V30 6383 H 606.629 -1.53382 -0.726084 0
M  V30 6384 H 605.401 -3.38183 -1.96845 0
M  V30 6385 H 605.024 -2.26358 -3.26876 0
M  V30 6386 N 606.021 0.929856 -1.27246 0
M  V30 6387 C 606.931 2.0636 -1.11592 0
M  V30 6388 C 607.947 1.73938 -0.046496 0
M  V30 6389 O 609.123 1.9981 -0.252544 0
M  V30 6390 C 606.188 3.38213 -0.762437 0
M  V30 6391 C 605.249 3.84346 -1.9125 0
M  V30 6392 C 604.482 5.09906 -1.57579 0
M  V30 6393 O 604.705 5.68354 -0.482694 0
M  V30 6394 O 603.639 5.51359 -2.41426 0
M  V30 6395 H 607.465 2.22478 -2.0673 0
M  V30 6396 H 605.05 1.04865 -1.06413 0
M  V30 6397 H 606.932 4.1741 -0.57854 0
M  V30 6398 H 605.607 3.23307 0.159439 0
M  V30 6399 H 604.514 3.06045 -2.15144 0
M  V30 6400 H 605.847 4.0379 -2.81451 0
M  V30 6401 N 607.499 1.09233 1.13605 0
M  V30 6402 C 608.729 0.847677 1.88409 0
M  V30 6403 C 609.137 -0.604524 1.79282 0
M  V30 6404 O 608.48 -1.42773 1.15592 0
M  V30 6405 C 608.542 1.20153 3.38827 0
M  V30 6406 C 608.206 2.65824 3.71735 0
M  V30 6407 C 609.203 3.64072 3.71143 0
M  V30 6408 C 606.888 3.01894 4.01454 0
M  V30 6409 C 608.882 4.96419 3.99808 0
M  V30 6410 C 606.569 4.34433 4.29781 0
M  V30 6411 C 607.567 5.31505 4.28942 0
M  V30 6412 O 607.255 6.61659 4.56576 0
M  V30 6413 H 606.987 0.304813 0.603378 0
M  V30 6414 H 609.541 1.4573 1.44748 0
M  V30 6415 H 607.771 0.534946 3.82982 0
M  V30 6416 H 609.46 0.936349 3.94952 0
M  V30 6417 H 610.226 3.37549 3.4826 0
M  V30 6418 H 606.105 2.26971 4.01255 0
M  V30 6419 H 609.649 5.7218 3.99069 0
M  V30 6420 H 605.546 4.607 4.52135 0
M  V30 6421 H 606.314 6.67102 4.74254 0
M  V30 6422 N 608.977 -1.30795 0.87923 0
M  V30 6423 C 609.925 -2.30231 0.331112 0
M  V30 6424 C 610.919 -1.59918 -0.558794 0
M  V30 6425 O 612.125 -1.74441 -0.443866 0
M  V30 6426 H 608.5 -0.746785 0.088409 0
M  V30 6427 H 610.471 -2.73925 1.18353 0
M  V30 6428 C 609.22 -3.44848 -0.444401 0
M  V30 6429 H 608.543 -3.99131 0.231106 0
M  V30 6430 H 609.983 -4.16516 -0.793109 0
M  V30 6431 C 608.442 -2.94329 -1.63926 0
M  V30 6432 O 608.972 -2.93875 -2.73862 0
M  V30 6433 N 607.178 -2.50413 -1.4745 0
M  V30 6434 H 606.725 -2.50982 -0.58015 0
M  V30 6435 H 606.683 -2.16969 -2.27534 0
M  V30 6436 N 610.455 -0.639598 -1.44038 0
M  V30 6437 C 611.866 -0.228866 -1.85292 0
M  V30 6438 C 612.217 1.22161 -1.53529 0
M  V30 6439 O 611.342 1.93064 -0.977518 0
M  V30 6440 C 611.937 -0.408592 -3.36327 0
M  V30 6441 C 610.496 -0.0522953 -3.76364 0
M  V30 6442 C 609.643 -0.717959 -2.67844 0
M  V30 6443 H 612.594 -0.844194 -1.34384 0
M  V30 6444 H 612.615 0.349968 -3.78887 0
M  V30 6445 H 612.127 -1.46435 -3.59414 0
M  V30 6446 H 610.228 1.0014 -3.58891 0
M  V30 6447 H 610.341 -0.468261 -4.76806 0
M  V30 6448 H 608.705 -0.152459 -2.54243 0
M  V30 6449 H 609.488 -1.77648 -2.93762 0
M  V30 6450 N 611.933 1.52934 -0.380664 0
M  V30 6451 C 613.173 2.03378 0.204161 0
M  V30 6452 C 613.537 1.26132 1.44758 0
M  V30 6453 O 614.738 1.66657 2.109 0
M  V30 6454 C 613.009 3.54241 0.474118 0
M  V30 6455 S 614.568 4.26529 1.03046 0
M  V30 6456 H 611.386 0.708608 0.0582719 0
M  V30 6457 H 613.988 1.88263 -0.527017 0
M  V30 6458 H 612.692 4.08055 -0.438088 0
M  V30 6459 H 612.223 3.73547 1.23396 0
M  V30 6460 H 614.238 4.38964 2.31354 0
M  V30 6461 N 613.412 0.11024 1.57214 0
M  V30 6462 C 614.344 -0.873497 2.11902 0
M  V30 6463 C 615.357 -1.23588 1.05971 0
M  V30 6464 O 616.546 -1.18636 1.33371 0
M  V30 6465 C 613.646 -2.17805 2.59643 0
M  V30 6466 C 612.819 -1.98869 3.89576 0
M  V30 6467 C 611.878 -3.12974 4.23006 0
M  V30 6468 O 610.904 -2.86272 4.91973 0
M  V30 6469 N 612.106 -4.39167 3.79622 0
M  V30 6470 H 614.871 -0.406317 2.96933 0
M  V30 6471 H 612.432 -0.074437 1.61729 0
M  V30 6472 H 614.424 -2.93117 2.79042 0
M  V30 6473 H 612.994 -2.55899 1.7954 0
M  V30 6474 H 612.214 -1.078 3.79174 0
M  V30 6475 H 613.502 -1.83512 4.74553 0
M  V30 6476 H 612.9 -4.63739 3.2398 0
M  V30 6477 H 611.457 -5.11379 4.04147 0
M  V30 6478 N 614.89 -1.56749 -0.16351 0
M  V30 6479 C 616.138 -1.82074 -0.87713 0
M  V30 6480 C 616.459 -0.688503 -1.82441 0
M  V30 6481 O 615.729 0.291085 -1.93725 0
M  V30 6482 H 614.309 -0.671677 -0.326893 0
M  V30 6483 H 616.971 -1.9423 -0.161459 0
M  V30 6484 H 616.067 -2.76407 -1.44934 0
M  V30 6485 N 616.368 0.432326 -1.51554 0
M  V30 6486 C 617.593 1.20824 -1.68571 0
M  V30 6487 C 618.018 1.84126 -0.384596 0
M  V30 6488 O 617.376 1.69025 0.655751 0
M  V30 6489 C 617.424 2.26429 -2.80646 0
M  V30 6490 O 616.528 3.32032 -2.44598 0
M  V30 6491 H 615.869 0.353765 -0.561913 0
M  V30 6492 H 618.399 0.509916 -1.98144 0
M  V30 6493 H 618.409 2.71133 -3.04878 0
M  V30 6494 H 617.084 1.79733 -3.75058 0
M  V30 6495 H 615.661 2.92769 -2.30956 0
M  V30 6496 N 617.846 1.41785 0.688094 0
M  V30 6497 C 618.793 1.44221 1.80191 0
M  V30 6498 C 619.763 0.295688 1.63447 0
M  V30 6499 O 620.948 0.49783 1.84191 0
M  V30 6500 C 618.088 1.33743 3.1813 0
M  V30 6501 C 617.201 2.58325 3.46254 0
M  V30 6502 C 616.336 2.40086 4.73848 0
M  V30 6503 C 615.375 3.60107 4.94964 0
M  V30 6504 N 614.512 3.40892 6.13789 0
M  V30 6505 H 619.352 2.39411 1.77444 0
M  V30 6506 H 616.889 1.18876 0.866423 0
M  V30 6507 H 618.847 1.25669 3.97823 0
M  V30 6508 H 617.477 0.42157 3.20035 0
M  V30 6509 H 616.529 2.7682 2.60912 0
M  V30 6510 H 617.841 3.4758 3.57756 0
M  V30 6511 H 616.995 2.29522 5.61609 0
M  V30 6512 H 615.734 1.483 4.64606 0
M  V30 6513 H 614.739 3.71118 4.05649 0
M  V30 6514 H 615.964 4.52857 5.06061 0
M  V30 6515 H 613.91 2.51812 6.05745 0
M  V30 6516 H 613.827 4.23727 6.26092 0
M  V30 6517 H 615.095 3.34114 7.04264 0
M  V30 6518 N 619.324 -0.923095 1.27737 0
M  V30 6519 C 620.571 -1.67127 1.14345 0
M  V30 6520 C 620.899 -1.92017 -0.30982 0
M  V30 6521 O 620.154 -1.51185 -1.24264 0
M  V30 6522 C 620.453 -3.04125 1.8773 0
M  V30 6523 C 620.119 -2.98929 3.37568 0
M  V30 6524 C 618.781 -2.9722 3.78436 0
M  V30 6525 C 621.133 -2.89875 4.33154 0
M  V30 6526 C 618.461 -2.84244 5.13247 0
M  V30 6527 C 620.813 -2.7844 5.68026 0
M  V30 6528 C 619.477 -2.75083 6.08182 0
M  V30 6529 H 618.747 -0.611562 0.418417 0
M  V30 6530 H 621.394 -1.07618 1.584 0
M  V30 6531 H 619.699 -3.67366 1.36196 0
M  V30 6532 H 621.396 -3.609 1.74792 0
M  V30 6533 H 617.986 -3.0105 3.05069 0
M  V30 6534 H 622.17 -2.9029 4.02548 0
M  V30 6535 H 617.426 -2.80034 5.43499 0
M  V30 6536 H 621.6 -2.70401 6.4176 0
M  V30 6537 H 619.227 -2.64786 7.12596 0
M  V30 6538 N 620.802 -1.09834 -1.13024 0
M  V30 6539 C 622.213 -0.855651 -1.65938 0
M  V30 6540 C 622.564 0.615159 -1.86307 0
M  V30 6541 O 621.689 1.47335 -1.58497 0
M  V30 6542 C 622.284 -1.5467 -3.01434 0
M  V30 6543 C 620.843 -1.35088 -3.51323 0
M  V30 6544 C 619.99 -1.6001 -2.26478 0
M  V30 6545 H 622.941 -1.25691 -0.968889 0
M  V30 6546 H 622.962 -0.982179 -3.67605 0
M  V30 6547 H 622.474 -2.61715 -2.86578 0
M  V30 6548 H 620.575 -0.30179 -3.71376 0
M  V30 6549 H 620.688 -2.0886 -4.31178 0
M  V30 6550 H 619.052 -1.02246 -2.33276 0
M  V30 6551 H 619.835 -2.68293 -2.14182 0
M  V30 6552 N 622.28 1.30327 -0.886154 0
M  V30 6553 C 623.529 1.95373 -0.501243 0
M  V30 6554 C 623.842 1.70722 0.954634 0
M  V30 6555 O 625.048 2.29761 1.44644 0
M  V30 6556 C 623.504 3.49828 -0.845493 0
M  V30 6557 C 623.112 3.83296 -2.31922 0
M  V30 6558 C 624.856 4.2118 -0.529838 0
M  V30 6559 C 622.763 5.30935 -2.60504 0
M  V30 6560 H 621.693 0.731274 -0.183722 0
M  V30 6561 H 624.344 1.48258 -1.08129 0
M  V30 6562 H 622.726 3.95522 -0.19452 0
M  V30 6563 H 623.9 3.48508 -3.01461 0
M  V30 6564 H 622.215 3.2505 -2.60253 0
M  V30 6565 H 624.812 5.29825 -0.720401 0
M  V30 6566 H 625.155 4.12902 0.530828 0
M  V30 6567 H 625.688 3.81173 -1.13806 0
M  V30 6568 H 622.427 5.44265 -3.65316 0
M  V30 6569 H 621.947 5.67019 -1.95575 0
M  V30 6570 H 623.626 5.98381 -2.46066 0
M  V30 6571 N 623.758 0.647228 1.43697 0
M  V30 6572 C 624.705 -0.0480092 2.3075 0
M  V30 6573 C 625.675 -0.820705 1.44408 0
M  V30 6574 O 626.86 -0.798515 1.73287 0
M  V30 6575 C 624 -1.01259 3.2991 0
M  V30 6576 C 623.113 -0.236629 4.31351 0
M  V30 6577 C 622.248 -1.19447 5.17596 0
M  V30 6578 C 621.287 -0.408595 6.10735 0
M  V30 6579 N 620.424 -1.31772 6.89623 0
M  V30 6580 H 625.264 0.700238 2.89656 0
M  V30 6581 H 622.801 0.357082 1.427 0
M  V30 6582 H 624.759 -1.58538 3.85903 0
M  V30 6583 H 623.389 -1.72778 2.72667 0
M  V30 6584 H 622.441 0.452353 3.77701 0
M  V30 6585 H 623.753 0.374731 4.9739 0
M  V30 6586 H 622.907 -1.83809 5.78186 0
M  V30 6587 H 621.646 -1.83975 4.51669 0
M  V30 6588 H 620.651 0.24841 5.49239 0
M  V30 6589 H 621.876 0.232188 6.78703 0
M  V30 6590 H 619.822 -1.94991 6.2635 0
M  V30 6591 H 619.739 -0.760779 7.52162 0
M  V30 6592 H 621.007 -1.94967 7.54724 0
M  V30 6593 N 625.236 -1.5273 0.388769 0
M  V30 6594 C 626.482 -2.02545 -0.186351 0
M  V30 6595 C 626.837 -1.27017 -1.44514 0
M  V30 6596 O 626.13 -0.361948 -1.8815 0
M  V30 6597 C 626.324 -3.53765 -0.508445 0
M  V30 6598 C 626.153 -4.43938 0.71758 0
M  V30 6599 C 624.923 -4.89933 1.23668 0
M  V30 6600 C 627.121 -4.89113 1.58974 0
M  V30 6601 N 625.103 -5.64176 2.42031 0
M  V30 6602 C 626.474 -5.61931 2.61979 0
M  V30 6603 C 628.529 -4.71155 1.60989 0
M  V30 6604 C 627.232 -6.18698 3.66886 0
M  V30 6605 C 629.258 -5.28804 2.64803 0
M  V30 6606 C 628.62 -6.01527 3.6653 0
M  V30 6607 H 624.719 -0.781413 -0.0302921 0
M  V30 6608 H 627.303 -1.87104 0.538539 0
M  V30 6609 H 625.474 -3.6932 -1.20239 0
M  V30 6610 H 627.206 -3.9028 -1.07067 0
M  V30 6611 H 623.961 -4.66833 0.797763 0
M  V30 6612 H 624.385 -6.05949 3.01919 0
M  V30 6613 H 629.027 -4.14435 0.836881 0
M  V30 6614 H 626.745 -6.74501 4.45055 0
M  V30 6615 H 630.331 -5.1679 2.67245 0
M  V30 6616 H 629.211 -6.45339 4.45542 0
M  V30 6617 N 626.714 -0.118576 -1.57153 0
M  V30 6618 C 627.942 0.54726 -1.99531 0
M  V30 6619 C 628.357 1.60251 -0.998246 0
M  V30 6620 O 627.714 1.82498 0.00893106 0
M  V30 6621 C 627.765 1.17378 -3.41913 0
M  V30 6622 O 627.486 0.160703 -4.37805 0
M  V30 6623 C 628.987 1.92297 -3.9942 0
M  V30 6624 H 626.207 0.144919 -0.655164 0
M  V30 6625 H 628.751 -0.20479 -2.03472 0
M  V30 6626 H 626.906 1.87661 -3.38913 0
M  V30 6627 H 627.32 0.61586 -5.20872 0
M  V30 6628 H 628.794 2.31462 -5.01128 0
M  V30 6629 H 629.271 2.79801 -3.38538 0
M  V30 6630 H 629.877 1.26777 -4.05965 0
M  V30 6631 N 628.193 1.56834 0.155195 0
M  V30 6632 C 629.156 1.96748 1.17571 0
M  V30 6633 C 630.156 0.853006 1.3631 0
M  V30 6634 O 631.346 1.11978 1.33441 0
M  V30 6635 C 628.478 2.27631 2.53765 0
M  V30 6636 H 629.671 2.88085 0.833498 0
M  V30 6637 H 627.224 1.51141 0.398242 0
M  V30 6638 H 627.959 1.39059 2.92973 0
M  V30 6639 H 627.744 3.0888 2.41527 0
M  V30 6640 H 629.234 2.59377 3.27282 0
M  V30 6641 N 629.671 -0.424282 1.51781 0
M  V30 6642 C 631.082 -1.00368 1.57427 0
M  V30 6643 C 631.433 -1.91962 0.40558 0
M  V30 6644 O 630.558 -2.111 -0.47601 0
M  V30 6645 C 631.153 -1.82707 2.85313 0
M  V30 6646 C 629.712 -2.35675 2.93487 0
M  V30 6647 C 628.859 -1.1524 2.5222 0
M  V30 6648 H 631.81 -0.205064 1.5737 0
M  V30 6649 H 631.831 -2.68294 2.69812 0
M  V30 6650 H 631.343 -1.16017 3.70353 0
M  V30 6651 H 629.444 -3.05781 2.12906 0
M  V30 6652 H 629.557 -2.67578 3.97415 0
M  V30 6653 H 627.921 -1.50174 2.05718 0
M  V30 6654 H 628.704 -0.5014 3.39619 0
M  V30 6655 N 631.149 -1.42148 -0.680565 0
M  V30 6656 C 632.059 -1.47565 -1.82378 0
M  V30 6657 C 633.075 -0.36489 -1.70131 0
M  V30 6658 O 634.251 -0.614916 -1.91783 0
M  V30 6659 C 631.316 -1.37013 -3.18478 0
M  V30 6660 C 630.377 -2.58532 -3.42724 0
M  V30 6661 C 629.61 -2.48473 -4.72331 0
M  V30 6662 O 629.833 -1.51745 -5.49845 0
M  V30 6663 O 628.767 -3.38503 -4.97694 0
M  V30 6664 H 632.593 -2.44045 -1.80764 0
M  V30 6665 H 630.178 -1.23849 -0.835569 0
M  V30 6666 H 632.06 -1.33468 -3.99705 0
M  V30 6667 H 630.735 -0.436552 -3.20743 0
M  V30 6668 H 629.642 -2.67652 -2.61368 0
M  V30 6669 H 630.975 -3.50769 -3.45286 0
M  V30 6670 N 632.627 0.916307 -1.28225 0
M  V30 6671 C 633.59 1.99996 -1.11957 0
M  V30 6672 C 634.59 1.60688 -0.0600152 0
M  V30 6673 O 635.78 1.71499 -0.30558 0
M  V30 6674 C 632.912 3.33458 -0.708411 0
M  V30 6675 H 634.105 2.15858 -2.08196 0
M  V30 6676 H 631.658 1.09863 -1.11175 0
M  V30 6677 H 632.393 3.23297 0.254859 0
M  V30 6678 H 632.178 3.63349 -1.47377 0
M  V30 6679 H 633.668 4.13014 -0.617164 0
M  V30 6680 N 634.105 1.10431 1.1244 0
M  V30 6681 C 635.068 0.756542 2.16354 0
M  V30 6682 C 636.068 -0.21899 1.59302 0
M  V30 6683 O 637.258 0.00415969 1.742 0
M  V30 6684 C 634.39 0.120612 3.40687 0
M  V30 6685 H 635.583 1.67696 2.48632 0
M  V30 6686 H 633.136 0.904832 1.27446 0
M  V30 6687 H 633.871 -0.810536 3.14008 0
M  V30 6688 H 633.656 0.822693 3.83372 0
M  V30 6689 H 635.146 -0.106945 4.17463 0
M  V30 6690 N 635.583 -1.29855 0.893053 0
M  V30 6691 C 636.513 -2.3035 0.382249 0
M  V30 6692 C 637.494 -1.61328 -0.539203 0
M  V30 6693 O 638.679 -1.88882 -0.451342 0
M  V30 6694 C 635.809 -3.45024 -0.396983 0
M  V30 6695 C 634.763 -4.258 0.433437 0
M  V30 6696 C 634.089 -5.32605 -0.472889 0
M  V30 6697 C 635.389 -4.94549 1.67984 0
M  V30 6698 H 637.083 -2.73325 1.22205 0
M  V30 6699 H 634.629 -1.314 0.589073 0
M  V30 6700 H 636.582 -4.14398 -0.765024 0
M  V30 6701 H 635.306 -3.00875 -1.2705 0
M  V30 6702 H 633.965 -3.58125 0.783723 0
M  V30 6703 H 633.613 -4.84702 -1.34435 0
M  V30 6704 H 633.313 -5.87547 0.0789958 0
M  V30 6705 H 634.837 -6.04832 -0.837269 0
M  V30 6706 H 636.251 -5.56395 1.38192 0
M  V30 6707 H 634.648 -5.59393 2.17254 0
M  V30 6708 H 635.718 -4.20215 2.41965 0
M  V30 6709 N 637.061 -0.65484 -1.43351 0
M  V30 6710 C 638.308 -0.168892 -2.01794 0
M  V30 6711 C 638.636 1.2177 -1.51665 0
M  V30 6712 O 637.891 1.82717 -0.70092 0
M  V30 6713 C 638.19 -0.130424 -3.57162 0
M  V30 6714 C 637.856 -1.45898 -4.26643 0
M  V30 6715 C 636.518 -1.82279 -4.4534 0
M  V30 6716 C 638.87 -2.33485 -4.65976 0
M  V30 6717 C 636.198 -3.0591 -5.00635 0
M  V30 6718 C 638.55 -3.5641 -5.22642 0
M  V30 6719 C 637.214 -3.92985 -5.39555 0
M  V30 6720 H 636.484 -0.061802 -0.738418 0
M  V30 6721 H 639.131 -0.845869 -1.71806 0
M  V30 6722 H 637.436 0.630008 -3.86702 0
M  V30 6723 H 639.133 0.262465 -4.0014 0
M  V30 6724 H 635.723 -1.16591 -4.12437 0
M  V30 6725 H 639.907 -2.06668 -4.51223 0
M  V30 6726 H 635.163 -3.34295 -5.11915 0
M  V30 6727 H 639.337 -4.24495 -5.52066 0
M  V30 6728 H 636.964 -4.88862 -5.82167 0
M  V30 6729 N 638.539 1.52521 -0.396863 0
M  V30 6730 C 639.787 2.01274 0.182536 0
M  V30 6731 C 640.108 1.28485 1.46685 0
M  V30 6732 O 639.378 0.407134 1.91623 0
M  V30 6733 H 637.958 0.743671 0.0704442 0
M  V30 6734 H 640.62 1.87547 -0.530289 0
M  V30 6735 H 639.716 3.09687 0.387385 0
M  V30 6736 N 640.017 0.126909 1.57088 0
M  V30 6737 C 641.433 -0.229641 1.57939 0
M  V30 6738 C 641.633 -1.66145 1.1401 0
M  V30 6739 O 640.689 -2.3843 0.831119 0
M  V30 6740 C 642.002 0.0108648 3.00698 0
M  V30 6741 C 643.55 -0.054418 3.12953 0
M  V30 6742 C 644.025 0.158497 4.57726 0
M  V30 6743 N 645.516 0.104735 4.63082 0
M  V30 6744 C 646.251 0.24427 5.72879 0
M  V30 6745 N 645.747 0.440415 6.91399 0
M  V30 6746 N 647.54 0.183286 5.61801 0
M  V30 6747 H 639.691 1.06203 1.83942 0
M  V30 6748 H 641.954 0.418834 0.85046 0
M  V30 6749 H 641.66 1.00102 3.37154 0
M  V30 6750 H 641.534 -0.717512 3.70313 0
M  V30 6751 H 643.921 -1.0351 2.7635 0
M  V30 6752 H 644.002 0.705967 2.45865 0
M  V30 6753 H 643.646 1.13619 4.95028 0
M  V30 6754 H 643.576 -0.62197 5.22914 0
M  V30 6755 H 646.067 -0.0430298 3.77876 0
M  V30 6756 H 646.38 0.537536 7.70928 0
M  V30 6757 H 644.725 0.476488 6.93365 0
M  V30 6758 H 647.916 0.0309561 4.6809 0
M  V30 6759 H 648.089 0.295471 6.47326 0
M  V30 6760 N 641.495 -1.56914 -0.146875 0
M  V30 6761 C 642.742 -1.83356 -0.859467 0
M  V30 6762 C 643.07 -0.707811 -1.81164 0
M  V30 6763 O 642.325 0.303155 -1.93338 0
M  V30 6764 C 642.624 -3.16128 -1.66727 0
M  V30 6765 C 642.29 -4.42586 -0.861881 0
M  V30 6766 C 640.952 -4.76929 -0.639687 0
M  V30 6767 C 643.304 -5.20344 -0.298643 0
M  V30 6768 C 640.632 -5.86491 0.156451 0
M  V30 6769 C 642.984 -6.30742 0.484536 0
M  V30 6770 C 641.648 -6.63635 0.717306 0
M  V30 6771 H 640.918 -0.670947 -0.314501 0
M  V30 6772 H 643.565 -1.91104 -0.123108 0
M  V30 6773 H 641.87 -3.03831 -2.47374 0
M  V30 6774 H 643.567 -3.33802 -2.2221 0
M  V30 6775 H 640.157 -4.15662 -1.04513 0
M  V30 6776 H 644.341 -4.94186 -0.457585 0
M  V30 6777 H 639.597 -6.10419 0.346292 0
M  V30 6778 H 643.771 -6.90188 0.928105 0
M  V30 6779 H 641.398 -7.48367 1.33607 0
M  V30 6780 N 642.974 0.416227 -1.52004 0
M  V30 6781 C 644.202 1.18573 -1.69553 0
M  V30 6782 C 644.617 1.84472 -0.401919 0
M  V30 6783 O 643.974 1.71593 0.621463 0
M  V30 6784 C 644.025 2.25413 -2.82615 0
M  V30 6785 O 643.746 1.62205 -4.06966 0
M  V30 6786 C 645.247 3.15297 -3.11613 0
M  V30 6787 H 642.467 0.356582 -0.56841 0
M  V30 6788 H 645.011 0.490618 -1.98528 0
M  V30 6789 H 643.166 2.90604 -2.56179 0
M  V30 6790 H 643.58 2.3298 -4.69916 0
M  V30 6791 H 645.054 3.86351 -3.94255 0
M  V30 6792 H 645.531 3.77264 -2.24874 0
M  V30 6793 H 646.137 2.55783 -3.39787 0
M  V30 6794 N 644.452 1.42507 0.673017 0
M  V30 6795 C 645.701 1.42364 1.42883 0
M  V30 6796 C 646.014 0.0441598 1.9555 0
M  V30 6797 O 647.22 -0.0798679 2.71382 0
M  V30 6798 C 645.676 2.5043 2.58482 0
M  V30 6799 C 645.284 3.94392 2.12506 0
M  V30 6800 C 647.028 2.59455 3.35981 0
M  V30 6801 C 644.935 4.93964 3.25198 0
M  V30 6802 H 643.865 0.52951 0.536782 0
M  V30 6803 H 646.516 1.68422 0.728448 0
M  V30 6804 H 644.898 2.1754 3.30896 0
M  V30 6805 H 646.072 4.36645 1.47233 0
M  V30 6806 H 644.387 3.89233 1.4794 0
M  V30 6807 H 646.984 3.31025 4.19912 0
M  V30 6808 H 647.327 1.63869 3.82691 0
M  V30 6809 H 647.86 2.91549 2.70637 0
M  V30 6810 H 644.599 5.91034 2.83477 0
M  V30 6811 H 644.119 4.56341 3.89247 0
M  V30 6812 H 645.798 5.15763 3.90637 0
M  V30 6813 N 645.93 -0.909495 1.28709 0
M  V30 6814 C 646.877 -2.01245 1.13 0
M  V30 6815 C 647.847 -1.6608 0.0259684 0
M  V30 6816 O 649.032 -1.89835 0.191687 0
M  V30 6817 C 646.172 -3.35644 0.802315 0
M  V30 6818 C 645.285 -3.83653 1.98582 0
M  V30 6819 C 644.42 -5.06582 1.59837 0
M  V30 6820 C 643.459 -5.46934 2.74827 0
M  V30 6821 N 642.596 -6.61053 2.36546 0
M  V30 6822 H 647.436 -2.14013 2.0737 0
M  V30 6823 H 644.973 -1.0482 1.03205 0
M  V30 6824 H 646.931 -4.12963 0.593057 0
M  V30 6825 H 645.561 -3.22631 -0.104457 0
M  V30 6826 H 644.613 -3.02454 2.30708 0
M  V30 6827 H 645.925 -4.09515 2.84779 0
M  V30 6828 H 645.079 -5.91457 1.35143 0
M  V30 6829 H 643.818 -4.82537 0.707753 0
M  V30 6830 H 642.823 -4.60599 3.00215 0
M  V30 6831 H 644.048 -5.72965 3.64538 0
M  V30 6832 H 641.994 -6.3863 1.49959 0
M  V30 6833 H 641.911 -6.86662 3.16277 0
M  V30 6834 H 643.179 -7.49221 2.15146 0
M  V30 6835 N 647.408 -1.11026 -1.11852 0
M  V30 6836 C 648.633 -0.879064 -1.87849 0
M  V30 6837 C 649.058 0.565406 -1.79401 0
M  V30 6838 O 648.416 1.39886 -1.15333 0
M  V30 6839 C 648.464 -1.33985 -3.34784 0
M  V30 6840 O 647.568 -0.508803 -4.09249 0
M  V30 6841 H 646.909 -0.316992 -0.583448 0
M  V30 6842 H 649.439 -1.47863 -1.41413 0
M  V30 6843 H 649.449 -1.33248 -3.85628 0
M  V30 6844 H 648.124 -2.39172 -3.40249 0
M  V30 6845 H 646.701 -0.581913 -3.68332 0
M  V30 6846 N 648.886 1.2938 -0.899927 0
M  V30 6847 C 650.163 1.9046 -0.445443 0
M  V30 6848 C 650.543 1.81683 1.07492 0
M  V30 6849 O 649.891 1.24371 1.91688 0
M  V30 6850 C 650.101 3.35529 -0.960279 0
M  V30 6851 C 651.449 4.12556 -1.00412 0
M  V30 6852 O 652.473 3.44434 -0.907965 0
M  V30 6853 O 651.332 5.34294 -1.14857 0
M  V30 6854 H 648.426 0.815253 -0.138893 0
M  V30 6855 H 650.972 1.37844 -0.989808 0
M  V30 6856 H 649.744 3.36074 -2.00425 0
M  V30 6857 H 649.367 3.95624 -0.395939 0
M  V30 6858 N 650.364 0.662433 1.43002 0
M  V30 6859 C 651.61 0.179857 2.02001 0
M  V30 6860 C 651.943 -1.20625 1.52195 0
M  V30 6861 O 651.218 -1.80726 0.718911 0
M  V30 6862 C 651.501 0.200845 3.59539 0
M  V30 6863 C 651.354 1.62153 4.19555 0
M  V30 6864 C 652.673 -0.457738 4.37713 0
M  V30 6865 H 649.792 0.0668305 0.733964 0
M  V30 6866 H 652.434 0.84487 1.70182 0
M  V30 6867 H 650.584 -0.365411 3.86778 0
M  V30 6868 H 652.256 2.23908 4.03315 0
M  V30 6869 H 650.499 2.16601 3.75854 0
M  V30 6870 H 651.17 1.58799 5.28665 0
M  V30 6871 H 653.646 0.0241495 4.16093 0
M  V30 6872 H 652.522 -0.412363 5.47349 0
M  V30 6873 H 652.783 -1.53336 4.14657 0
M  V30 6874 N 651.842 -1.52309 0.404946 0
M  V30 6875 C 653.088 -2.02731 -0.164857 0
M  V30 6876 C 653.443 -1.28543 -1.43159 0
M  V30 6877 O 652.736 -0.381883 -1.87756 0
M  V30 6878 C 652.93 -3.54284 -0.470895 0
M  V30 6879 C 652.759 -4.43152 0.764625 0
M  V30 6880 C 651.529 -4.88594 1.28858 0
M  V30 6881 C 653.727 -4.874 1.64152 0
M  V30 6882 N 651.709 -5.61577 2.48001 0
M  V30 6883 C 653.08 -5.59121 2.67924 0
M  V30 6884 C 655.135 -4.69421 1.65978 0
M  V30 6885 C 653.838 -6.14772 3.73427 0
M  V30 6886 C 655.864 -5.25966 2.70396 0
M  V30 6887 C 655.226 -5.97606 3.7289 0
M  V30 6888 H 651.325 -0.78169 -0.0220025 0
M  V30 6889 H 653.909 -1.86522 0.558354 0
M  V30 6890 H 652.08 -3.70574 -1.16315 0
M  V30 6891 H 653.812 -3.91394 -1.02921 0
M  V30 6892 H 650.567 -4.6596 0.847232 0
M  V30 6893 H 650.991 -6.02712 3.08329 0
M  V30 6894 H 655.633 -4.13524 0.88079 0
M  V30 6895 H 653.351 -6.69743 4.52184 0
M  V30 6896 H 656.937 -5.13926 2.72711 0
M  V30 6897 H 655.817 -6.40577 4.52361 0
M  V30 6898 N 653.32 -0.135238 -1.57019 0
M  V30 6899 C 654.545 0.529343 -2.00531 0
M  V30 6900 C 654.97 1.58391 -1.01459 0
M  V30 6901 O 654.328 1.81296 0.0113986 0
M  V30 6902 C 654.376 1.11748 -3.42848 0
M  V30 6903 O 653.48 2.23267 -3.46736 0
M  V30 6904 H 652.821 0.130669 -0.651016 0
M  V30 6905 H 655.351 -0.228503 -2.0332 0
M  V30 6906 H 655.361 1.44905 -3.81401 0
M  V30 6907 H 654.036 0.345147 -4.14465 0
M  V30 6908 H 652.613 1.91428 -3.20015 0
M  V30 6909 N 654.798 1.5699 0.138552 0
M  V30 6910 C 656.045 1.83809 0.849732 0
M  V30 6911 C 656.373 0.717409 1.80786 0
M  V30 6912 O 655.628 -0.292897 1.93496 0
M  V30 6913 C 655.927 3.17007 1.65049 0
M  V30 6914 C 655.593 4.43037 0.838398 0
M  V30 6915 C 654.255 4.77262 0.614385 0
M  V30 6916 C 656.607 5.20495 0.271044 0
M  V30 6917 C 653.935 5.864 -0.187552 0
M  V30 6918 C 656.287 6.30476 -0.517979 0
M  V30 6919 C 654.951 6.63245 -0.75249 0
M  V30 6920 H 654.221 0.672605 0.310939 0
M  V30 6921 H 656.868 1.91166 0.112971 0
M  V30 6922 H 655.173 3.05138 2.4576 0
M  V30 6923 H 656.87 3.34975 2.20437 0
M  V30 6924 H 653.46 4.16211 1.02307 0
M  V30 6925 H 657.644 4.94422 0.431371 0
M  V30 6926 H 652.9 6.10226 -0.378659 0
M  V30 6927 H 657.074 6.89686 -0.964694 0
M  V30 6928 H 654.701 7.47648 -1.37573 0
M  V30 6929 N 656.276 -0.40816 1.52223 0
M  V30 6930 C 657.524 -1.15274 1.66001 0
M  V30 6931 C 657.845 -1.91003 0.392803 0
M  V30 6932 O 657.115 -1.8673 -0.592336 0
M  V30 6933 H 655.695 -0.428526 0.611861 0
M  V30 6934 H 658.357 -0.46512 1.89269 0
M  V30 6935 H 657.453 -1.86628 2.50153 0
M  V30 6936 N 657.755 -1.42862 -0.66545 0
M  V30 6937 C 659.004 -1.43119 -1.42126 0
M  V30 6938 C 659.317 -0.0545297 -1.95524 0
M  V30 6939 O 660.523 0.0654747 -2.71421 0
M  V30 6940 C 658.979 -2.51797 -2.5715 0
M  V30 6941 C 658.587 -3.95514 -2.10411 0
M  V30 6942 C 660.331 -2.61233 -3.346 0
M  V30 6943 C 658.238 -4.95682 -3.22573 0
M  V30 6944 H 657.168 -0.532349 -0.533966 0
M  V30 6945 H 659.819 -1.68806 -0.719506 0
M  V30 6946 H 658.201 -2.19292 -3.29738 0
M  V30 6947 H 659.375 -4.3742 -1.44915 0
M  V30 6948 H 657.69 -3.90012 -1.45874 0
M  V30 6949 H 660.287 -3.33248 -4.18151 0
M  V30 6950 H 660.63 -1.65896 -3.81817 0
M  V30 6951 H 661.163 -2.9298 -2.69087 0
M  V30 6952 H 657.902 -5.92529 -2.80338 0
M  V30 6953 H 657.422 -4.58399 -3.86821 0
M  V30 6954 H 659.101 -5.17828 -3.87896 0
M  V30 6955 N 659.233 0.902656 -1.29189 0
M  V30 6956 C 660.163 2.02294 -1.16616 0
M  V30 6957 C 661.144 1.6999 -0.0611175 0
M  V30 6958 O 662.329 1.9271 -0.240072 0
M  V30 6959 C 659.459 3.37018 -0.83882 0
M  V30 6960 C 658.413 3.83522 -1.89986 0
M  V30 6961 C 657.739 5.15337 -1.42589 0
M  V30 6962 C 659.039 4.04169 -3.30824 0
M  V30 6963 H 660.733 2.13071 -2.10336 0
M  V30 6964 H 658.279 1.02378 -1.01266 0
M  V30 6965 H 660.232 4.14895 -0.737584 0
M  V30 6966 H 658.956 3.26325 0.134071 0
M  V30 6967 H 657.615 3.07859 -1.99043 0
M  V30 6968 H 657.263 5.01056 -0.441759 0
M  V30 6969 H 656.963 5.47423 -2.13547 0
M  V30 6970 H 658.487 5.95758 -1.3381 0
M  V30 6971 H 659.901 4.72537 -3.24626 0
M  V30 6972 H 658.298 4.47604 -3.99713 0
M  V30 6973 H 659.368 3.08604 -3.74021 0
M  V30 6974 N 660.711 1.11618 1.11262 0
M  V30 6975 C 661.641 0.79846 2.19424 0
M  V30 6976 C 662.622 -0.234003 1.68483 0
M  V30 6977 O 663.807 -0.0970704 1.93957 0
M  V30 6978 C 660.937 0.242892 3.4645 0
M  V30 6979 C 659.891 1.20744 4.10615 0
M  V30 6980 C 659.217 0.512494 5.32238 0
M  V30 6981 C 660.517 2.55884 4.55325 0
M  V30 6982 H 662.211 1.70286 2.46258 0
M  V30 6983 H 659.757 0.820195 1.18359 0
M  V30 6984 H 661.71 0.00840447 4.21399 0
M  V30 6985 H 660.434 -0.696811 3.1908 0
M  V30 6986 H 659.093 1.42759 3.37662 0
M  V30 6987 H 658.741 -0.432075 5.01141 0
M  V30 6988 H 658.441 1.15583 5.7612 0
M  V30 6989 H 659.965 0.286842 6.09926 0
M  V30 6990 H 661.379 2.37946 5.21588 0
M  V30 6991 H 659.776 3.16216 5.10027 0
M  V30 6992 H 660.846 3.14968 3.68678 0
M  V30 6993 N 662.189 -1.289 0.906776 0
M  V30 6994 C 663.417 -1.99401 0.551969 0
M  V30 6995 C 663.832 -1.67816 -0.865048 0
M  V30 6996 O 663.189 -0.927078 -1.57199 0
M  V30 6997 C 663.24 -3.53779 0.743152 0
M  V30 6998 O 662.961 -3.84248 2.1044 0
M  V30 6999 C 664.462 -4.41543 0.39424 0
M  V30 7000 H 661.682 -0.636926 0.211106 0
M  V30 7001 H 664.226 -1.64266 1.21807 0
M  V30 7002 H 662.381 -3.87201 0.124143 0
M  V30 7003 H 662.795 -4.78904 2.13895 0
M  V30 7004 H 664.269 -5.48957 0.578814 0
M  V30 7005 H 664.746 -4.34073 -0.669137 0
M  V30 7006 H 665.352 -4.13605 0.990491 0
M  V30 7007 N 663.667 -0.670007 -1.42649 0
M  V30 7008 C 664.577 0.0114788 -2.34597 0
M  V30 7009 C 665.593 0.794055 -1.54825 0
M  V30 7010 O 666.769 0.737472 -1.87412 0
M  V30 7011 C 663.834 0.954436 -3.33304 0
M  V30 7012 C 662.895 0.166925 -4.28975 0
M  V30 7013 C 662.128 1.06497 -5.22967 0
M  V30 7014 O 662.351 2.30446 -5.21777 0
M  V30 7015 O 661.285 0.528347 -5.99577 0
M  V30 7016 H 665.111 -0.745794 -2.944 0
M  V30 7017 H 662.696 -0.430228 -1.43071 0
M  V30 7018 H 664.578 1.49589 -3.93956 0
M  V30 7019 H 663.253 1.69164 -2.7598 0
M  V30 7020 H 662.16 -0.418515 -3.71752 0
M  V30 7021 H 663.493 -0.531067 -4.89327 0
M  V30 7022 N 665.145 1.52092 -0.413018 0
M  V30 7023 C 666.075 2.30021 0.401567 0
M  V30 7024 C 667.056 1.34395 1.04269 0
M  V30 7025 O 668.241 1.63304 1.05097 0
M  V30 7026 C 665.371 3.12447 1.51638 0
M  V30 7027 C 664.325 4.16153 1.00005 0
M  V30 7028 C 663.651 4.86948 2.20875 0
M  V30 7029 C 664.951 5.22275 0.0513757 0
M  V30 7030 H 666.645 2.98365 -0.248704 0
M  V30 7031 H 664.191 1.4349 -0.121052 0
M  V30 7032 H 666.144 3.65733 2.09326 0
M  V30 7033 H 664.868 2.41879 2.19458 0
M  V30 7034 H 663.527 3.63882 0.445549 0
M  V30 7035 H 663.175 4.12905 2.8726 0
M  V30 7036 H 662.875 5.57057 1.86978 0
M  V30 7037 H 664.399 5.43048 2.79162 0
M  V30 7038 H 665.813 5.70778 0.537176 0
M  V30 7039 H 664.21 5.9977 -0.198977 0
M  V30 7040 H 665.28 4.76611 -0.892736 0
M  V30 7041 N 666.623 0.143563 1.56945 0
M  V30 7042 C 667.872 -0.50835 1.95189 0
M  V30 7043 C 668.185 -1.66239 1.03073 0
M  V30 7044 O 669.391 -2.3787 1.30882 0
M  V30 7045 C 667.847 -0.955735 3.46978 0
M  V30 7046 C 667.455 0.171183 4.47673 0
M  V30 7047 C 669.199 -1.57763 3.94095 0
M  V30 7048 C 667.106 -0.294279 5.90667 0
M  V30 7049 H 666.036 -0.193679 0.728701 0
M  V30 7050 H 668.687 0.227357 1.82086 0
M  V30 7051 H 667.069 -1.7466 3.55401 0
M  V30 7052 H 668.243 0.948049 4.50942 0
M  V30 7053 H 666.558 0.701273 4.10452 0
M  V30 7054 H 669.155 -1.93745 4.98364 0
M  V30 7055 H 669.498 -2.46531 3.35452 0
M  V30 7056 H 670.031 -0.851728 3.88575 0
M  V30 7057 H 666.77 0.557939 6.53121 0
M  V30 7058 H 666.29 -1.0371 5.90766 0
M  V30 7059 H 667.969 -0.747426 6.42668 0
M  V30 7060 N 668.101 -1.57061 -0.130224 0
M  V30 7061 C 669.329 -1.88432 -0.854456 0
M  V30 7062 C 669.744 -0.733608 -1.73964 0
M  V30 7063 O 669.101 0.296029 -1.80083 0
M  V30 7064 C 669.152 -3.1918 -1.69724 0
M  V30 7065 O 668.873 -4.2982 -0.847705 0
M  V30 7066 C 670.374 -3.6418 -2.5276 0
M  V30 7067 H 667.594 -0.624193 -0.246221 0
M  V30 7068 H 670.138 -2.04159 -0.11798 0
M  V30 7069 H 668.293 -3.05156 -2.3866 0
M  V30 7070 H 668.707 -5.04689 -1.42792 0
M  V30 7071 H 670.181 -4.58457 -3.07443 0
M  V30 7072 H 670.658 -2.90285 -3.29592 0
M  V30 7073 H 671.264 -3.80954 -1.89087 0
M  V30 7074 N 669.579 0.400081 -1.52437 0
M  V30 7075 C 670.526 1.48803 -1.76426 0
M  V30 7076 C 671.496 1.5461 -0.607032 0
M  V30 7077 O 672.681 1.71041 -0.845563 0
M  V30 7078 C 669.821 2.86156 -1.92896 0
M  V30 7079 C 668.934 2.89587 -3.20567 0
M  V30 7080 C 668.069 4.18296 -3.27417 0
M  V30 7081 C 667.108 4.15736 -4.49255 0
M  V30 7082 N 666.245 5.36032 -4.53447 0
M  V30 7083 H 671.085 1.27649 -2.69276 0
M  V30 7084 H 668.622 0.619451 -1.33421 0
M  V30 7085 H 670.58 3.65901 -2.00429 0
M  V30 7086 H 669.21 3.05785 -1.03418 0
M  V30 7087 H 668.262 2.02278 -3.22161 0
M  V30 7088 H 669.574 2.83562 -4.10358 0
M  V30 7089 H 668.728 5.06439 -3.34072 0
M  V30 7090 H 667.467 4.27028 -2.35581 0
M  V30 7091 H 666.472 3.25982 -4.42737 0
M  V30 7092 H 667.697 4.08636 -5.42396 0
M  V30 7093 H 665.643 5.45415 -3.64498 0
M  V30 7094 H 665.56 5.32038 -5.37096 0
M  V30 7095 H 666.828 6.26104 -4.64343 0
M  V30 7096 N 671.057 1.43213 0.657864 0
M  V30 7097 C 672.305 1.44298 1.41501 0
M  V30 7098 C 672.626 0.0666478 1.94886 0
M  V30 7099 O 671.896 -0.897345 1.74139 0
M  V30 7100 H 670.476 0.531257 0.525143 0
M  V30 7101 H 673.138 1.78777 0.776195 0
M  V30 7102 H 672.234 2.1528 2.25966 0
M  V30 7103 N 672.536 -0.895792 1.29666 0
M  V30 7104 C 673.952 -1.17726 1.07763 0
M  V30 7105 C 674.152 -2.00794 -0.168576 0
M  V30 7106 O 673.208 -2.37213 -0.865244 0
M  V30 7107 C 674.521 -1.89441 2.33522 0
M  V30 7108 C 676.069 -2.02251 2.3888 0
M  V30 7109 C 676.544 -2.77378 3.64452 0
M  V30 7110 N 678.035 -2.8493 3.65198 0
M  V30 7111 C 678.77 -3.43606 4.59045 0
M  V30 7112 N 678.266 -4.03417 5.63228 0
M  V30 7113 N 680.059 -3.41317 4.46608 0
M  V30 7114 H 672.21 -0.341652 2.09634 0
M  V30 7115 H 674.473 -0.213865 0.923561 0
M  V30 7116 H 674.179 -1.35842 3.24407 0
M  V30 7117 H 674.053 -2.89893 2.41334 0
M  V30 7118 H 676.44 -2.55025 1.4848 0
M  V30 7119 H 676.521 -1.0092 2.3505 0
M  V30 7120 H 676.165 -2.25279 4.55205 0
M  V30 7121 H 676.095 -3.79062 3.65541 0
M  V30 7122 H 678.586 -2.42453 2.89871 0
M  V30 7123 H 678.899 -4.46224 6.30955 0
M  V30 7124 H 677.244 -4.01868 5.67033 0
M  V30 7125 H 680.435 -2.93812 3.64407 0
M  V30 7126 H 680.608 -3.86751 5.1993 0
M  V30 7127 N 674.014 -1.12206 -1.10668 0
M  V30 7128 C 675.263 -0.870595 -1.81944 0
M  V30 7129 C 675.576 0.605447 -1.85994 0
M  V30 7130 O 676.782 0.973433 -2.53449 0
M  V30 7131 C 675.238 -1.50783 -3.26791 0
M  V30 7132 C 674.846 -3.01849 -3.31046 0
M  V30 7133 C 676.59 -1.33653 -4.02911 0
M  V30 7134 C 674.497 -3.58518 -4.70339 0
M  V30 7135 H 673.427 -0.322043 -0.681765 0
M  V30 7136 H 676.078 -1.34827 -1.24475 0
M  V30 7137 H 674.46 -0.957825 -3.84242 0
M  V30 7138 H 675.634 -3.63321 -2.83433 0
M  V30 7139 H 673.949 -3.18346 -2.68411 0
M  V30 7140 H 676.546 -1.73416 -5.05797 0
M  V30 7141 H 676.889 -0.279949 -4.15358 0
M  V30 7142 H 677.422 -1.85562 -3.51868 0
M  V30 7143 H 674.161 -4.63925 -4.63091 0
M  V30 7144 H 673.681 -3.01819 -5.18329 0
M  V30 7145 H 675.36 -3.57434 -5.39305 0
M  V30 7146 N 675.492 1.28418 -0.913599 0
M  V30 7147 C 676.903 1.77024 -0.593237 0
M  V30 7148 C 677.254 1.74779 0.891441 0
M  V30 7149 O 676.379 1.34237 1.69733 0
M  V30 7150 C 676.974 3.21456 -1.07011 0
M  V30 7151 C 675.533 3.67786 -0.800664 0
M  V30 7152 C 674.68 2.48185 -1.23691 0
M  V30 7153 H 677.631 1.14883 -1.09487 0
M  V30 7154 H 677.652 3.78269 -0.411481 0
M  V30 7155 H 677.164 3.23058 -2.1507 0
M  V30 7156 H 675.265 3.71644 0.266725 0
M  V30 7157 H 675.378 4.57934 -1.4083 0
M  V30 7158 H 673.742 2.46116 -0.655655 0
M  V30 7159 H 674.525 2.52506 -2.32585 0
M  V30 7160 N 676.97 0.677563 1.42291 0
M  V30 7161 C 678.2 0.209155 2.05539 0
M  V30 7162 C 678.608 -1.13987 1.51009 0
M  V30 7163 O 677.951 -1.71976 0.645764 0
M  V30 7164 C 678.013 0.0697758 3.59432 0
M  V30 7165 C 677.677 1.34795 4.36668 0
M  V30 7166 C 678.674 2.28201 4.67141 0
M  V30 7167 C 676.359 1.59632 4.76259 0
M  V30 7168 C 678.353 3.44718 5.36142 0
M  V30 7169 C 676.04 2.76437 5.45 0
M  V30 7170 C 677.038 3.68805 5.74867 0
M  V30 7171 O 676.726 4.83567 6.42198 0
M  V30 7172 H 676.458 0.0986202 0.668768 0
M  V30 7173 H 679.012 0.925483 1.83368 0
M  V30 7174 H 677.242 -0.702157 3.80272 0
M  V30 7175 H 678.931 -0.359115 4.04308 0
M  V30 7176 H 679.697 2.10264 4.37052 0
M  V30 7177 H 675.576 0.886073 4.52404 0
M  V30 7178 H 679.12 4.16833 5.59371 0
M  V30 7179 H 675.017 2.94299 5.74507 0
M  V30 7180 H 675.785 4.83147 6.6069 0
M  V30 7181 N 678.448 -1.51871 0.421078 0
M  V30 7182 C 679.859 -1.86644 -0.0457991 0
M  V30 7183 C 680.21 -1.33919 -1.43388 0
M  V30 7184 O 679.335 -0.683316 -2.05328 0
M  V30 7185 C 679.93 -3.38681 -0.0898844 0
M  V30 7186 C 678.489 -3.73049 -0.501127 0
M  V30 7187 C 677.636 -2.75485 0.316723 0
M  V30 7188 H 680.587 -1.45327 0.637635 0
M  V30 7189 H 680.608 -3.69636 -0.902734 0
M  V30 7190 H 680.12 -3.77025 0.920513 0
M  V30 7191 H 678.221 -3.40288 -1.51773 0
M  V30 7192 H 678.334 -4.78512 -0.237217 0
M  V30 7193 H 676.698 -2.53725 -0.222663 0
M  V30 7194 H 677.481 -3.16671 1.32569 0
M  V30 7195 N 679.926 -0.151884 -1.56866 0
M  V30 7196 C 681.174 0.497021 -1.95893 0
M  V30 7197 C 681.495 1.65078 -1.03799 0
M  V30 7198 O 680.765 1.95642 -0.10049 0
M  V30 7199 H 679.345 0.186603 -0.723318 0
M  V30 7200 H 682.007 -0.228525 -1.93556 0
M  V30 7201 H 681.103 0.869933 -2.99731 0
M  V30 7202 N 681.404 1.57128 0.121893 0
M  V30 7203 C 682.337 1.95327 1.17995 0
M  V30 7204 C 683.315 0.822524 1.40262 0
M  V30 7205 O 684.499 1.08044 1.54463 0
M  V30 7206 C 681.626 2.24699 2.53432 0
M  V30 7207 C 680.672 3.47263 2.4761 0
M  V30 7208 S 681.505 4.99951 1.91857 0
M  V30 7209 C 682.661 5.32473 3.28973 0
M  V30 7210 H 682.894 2.84765 0.854182 0
M  V30 7211 H 680.427 1.50864 0.328534 0
M  V30 7212 H 682.385 2.423 3.31362 0
M  V30 7213 H 681.046 1.3588 2.83188 0
M  V30 7214 H 680.239 3.65171 3.4737 0
M  V30 7215 H 679.841 3.29034 1.778 0
M  V30 7216 H 682.133 5.27478 4.25175 0
M  V30 7217 H 683.076 6.33732 3.15895 0
M  V30 7218 H 683.484 4.59952 3.27268 0
M  V30 7219 N 682.882 -0.391992 1.52647 0
M  V30 7220 C 683.83 -1.4991 1.77848 0
M  V30 7221 C 684.824 -1.56587 0.646282 0
M  V30 7222 O 686.03 -1.59789 0.828698 0
M  V30 7223 H 682.405 -0.498883 0.56269 0
M  V30 7224 H 684.376 -1.25847 2.70564 0
M  V30 7225 C 683.125 -2.87081 1.96163 0
M  V30 7226 H 682.448 -2.82692 2.82711 0
M  V30 7227 H 683.888 -3.63792 2.17787 0
M  V30 7228 C 682.347 -3.28822 0.733348 0
M  V30 7229 O 682.877 -4.01598 -0.0906481 0
M  V30 7230 N 681.083 -2.85068 0.564317 0
M  V30 7231 H 680.63 -2.26012 1.23598 0
M  V30 7232 H 680.588 -3.13355 -0.256166 0
M  V30 7233 N 684.36 -1.4356 -0.65026 0
M  V30 7234 C 685.307 -1.48948 -1.76304 0
M  V30 7235 C 686.277 -0.338919 -1.62605 0
M  V30 7236 O 687.462 -0.54649 -1.82806 0
M  V30 7237 C 684.602 -1.42131 -3.14472 0
M  V30 7238 C 683.715 -2.67415 -3.39284 0
M  V30 7239 C 682.85 -2.52565 -4.67316 0
M  V30 7240 C 681.889 -3.73103 -4.85243 0
M  V30 7241 N 681.026 -3.57046 -6.04535 0
M  V30 7242 H 685.866 -2.44032 -1.71034 0
M  V30 7243 H 683.403 -1.21131 -0.834601 0
M  V30 7244 H 685.361 -1.36172 -3.94351 0
M  V30 7245 H 683.991 -0.506273 -3.18805 0
M  V30 7246 H 683.043 -2.8364 -2.53481 0
M  V30 7247 H 684.355 -3.56943 -3.48415 0
M  V30 7248 H 683.509 -2.44331 -5.55326 0
M  V30 7249 H 682.248 -1.60566 -4.60511 0
M  V30 7250 H 681.253 -3.81743 -3.95667 0
M  V30 7251 H 682.478 -4.66115 -4.93876 0
M  V30 7252 H 680.424 -2.67783 -5.98856 0
M  V30 7253 H 680.341 -4.40178 -6.14638 0
M  V30 7254 H 681.609 -3.52669 -6.95158 0
M  V30 7255 N 685.838 0.888903 -1.30139 0
M  V30 7256 C 687.254 1.17153 -1.08385 0
M  V30 7257 C 687.454 2.0088 0.157925 0
M  V30 7258 O 686.51 2.37668 0.852652 0
M  V30 7259 C 687.823 1.882 -2.34523 0
M  V30 7260 C 689.371 2.00981 -2.39949 0
M  V30 7261 C 689.846 2.75441 -3.65918 0
M  V30 7262 N 691.337 2.82989 -3.66704 0
M  V30 7263 C 692.072 3.41167 -4.60861 0
M  V30 7264 N 691.568 4.00425 -5.6536 0
M  V30 7265 N 693.361 3.38944 -4.48412 0
M  V30 7266 H 685.512 0.33053 -2.09812 0
M  V30 7267 H 687.775 0.208964 -0.924683 0
M  V30 7268 H 687.481 1.34119 -3.25123 0
M  V30 7269 H 687.355 2.88609 -2.42868 0
M  V30 7270 H 689.742 2.54234 -1.4983 0
M  V30 7271 H 689.823 0.996725 -2.35582 0
M  V30 7272 H 689.467 2.22861 -4.56394 0
M  V30 7273 H 689.397 3.77118 -3.67546 0
M  V30 7274 H 691.888 2.40912 -2.91153 0
M  V30 7275 H 692.201 4.42871 -6.33313 0
M  V30 7276 H 690.546 3.98856 -5.69157 0
M  V30 7277 H 693.737 2.91875 -3.6596 0
M  V30 7278 H 693.91 3.83989 -5.21974 0
M  V30 7279 N 687.317 1.12792 1.10072 0
M  V30 7280 C 688.227 0.812369 2.20086 0
M  V30 7281 C 689.243 -0.200349 1.72843 0
M  V30 7282 O 690.419 -0.0330262 2.01373 0
M  V30 7283 C 687.484 0.275685 3.45602 0
M  V30 7284 C 686.545 1.34881 4.07561 0
M  V30 7285 C 685.778 0.837639 5.27086 0
M  V30 7286 O 686.001 -0.327224 5.69461 0
M  V30 7287 O 684.935 1.60894 5.79997 0
M  V30 7288 H 688.761 1.73133 2.49517 0
M  V30 7289 H 686.346 0.904863 1.18881 0
M  V30 7290 H 688.228 -0.0185375 4.21396 0
M  V30 7291 H 686.903 -0.615783 3.17789 0
M  V30 7292 H 685.81 1.69625 3.33434 0
M  V30 7293 H 687.143 2.21418 4.39585 0
M  V30 7294 N 688.795 -1.27931 0.920396 0
M  V30 7295 C 690.041 -1.94977 0.557832 0
M  V30 7296 C 690.374 -1.72224 -0.897365 0
M  V30 7297 O 689.649 -1.04705 -1.63912 0
M  V30 7298 C 689.932 -3.49289 0.875741 0
M  V30 7299 C 689.785 -3.81416 2.38416 0
M  V30 7300 C 691.104 -4.38486 0.376517 0
M  V30 7301 H 688.223 -0.708164 0.20414 0
M  V30 7302 H 690.865 -1.5118 1.15085 0
M  V30 7303 H 689.015 -3.86724 0.371062 0
M  V30 7304 H 690.687 -3.53813 2.95997 0
M  V30 7305 H 688.93 -3.28225 2.83639 0
M  V30 7306 H 689.601 -4.89198 2.55713 0
M  V30 7307 H 692.077 -4.08161 0.808945 0
M  V30 7308 H 690.953 -5.45296 0.627976 0
M  V30 7309 H 691.214 -4.36143 -0.723293 0
M  V30 7310 N 690.273 -0.685099 -1.4193 0
M  V30 7311 C 691.203 -0.0273506 -2.33484 0
M  V30 7312 C 692.184 0.778366 -1.51246 0
M  V30 7313 O 693.369 0.733449 -1.79817 0
M  V30 7314 C 690.499 0.917272 -3.34968 0
M  V30 7315 C 689.453 0.21941 -4.27437 0
M  V30 7316 C 688.779 1.27768 -5.1921 0
M  V30 7317 C 690.079 -0.907894 -5.14349 0
M  V30 7318 H 691.773 -0.791994 -2.88735 0
M  V30 7319 H 689.319 -0.382308 -1.38832 0
M  V30 7320 H 691.272 1.38657 -3.97935 0
M  V30 7321 H 689.996 1.71346 -2.78043 0
M  V30 7322 H 688.655 -0.229757 -3.65879 0
M  V30 7323 H 688.303 2.06612 -4.58607 0
M  V30 7324 H 688.003 0.815803 -5.81909 0
M  V30 7325 H 689.527 1.7477 -5.85054 0
M  V30 7326 H 690.941 -0.519348 -5.70943 0
M  V30 7327 H 689.338 -1.2962 -5.85934 0
M  V30 7328 H 690.408 -1.75218 -4.52136 0
M  V30 7329 N 691.751 1.51645 -0.429126 0
M  V30 7330 C 692.661 2.31288 0.392809 0
M  V30 7331 C 693.677 1.39852 1.03525 0
M  V30 7332 O 694.853 1.72926 1.03241 0
M  V30 7333 C 691.918 3.13347 1.48372 0
M  V30 7334 C 690.979 4.20551 0.862268 0
M  V30 7335 C 690.212 4.98688 1.9012 0
M  V30 7336 O 690.435 4.77359 3.12225 0
M  V30 7337 O 689.369 5.83005 1.4963 0
M  V30 7338 H 693.195 3.02609 -0.257138 0
M  V30 7339 H 690.78 1.48163 -0.191851 0
M  V30 7340 H 692.662 3.64387 2.1166 0
M  V30 7341 H 691.337 2.44799 2.1179 0
M  V30 7342 H 690.244 3.73609 0.191568 0
M  V30 7343 H 691.577 4.91449 0.271704 0
M  V30 7344 N 693.229 0.160201 1.56784 0
M  V30 7345 C 694.161 -0.80564 2.14574 0
M  V30 7346 C 695.174 -1.20154 1.09849 0
M  V30 7347 O 696.363 -1.14333 1.37078 0
M  V30 7348 C 693.463 -2.09434 2.6644 0
M  V30 7349 C 692.636 -1.86375 3.95706 0
M  V30 7350 C 691.695 -2.99358 4.32749 0
M  V30 7351 O 690.721 -2.70475 5.00831 0
M  V30 7352 N 691.923 -4.26867 3.93402 0
M  V30 7353 H 694.688 -0.311644 2.98075 0
M  V30 7354 H 692.249 -0.0229465 1.61884 0
M  V30 7355 H 694.241 -2.84091 2.88226 0
M  V30 7356 H 692.811 -2.50057 1.8759 0
M  V30 7357 H 692.031 -0.956821 3.82412 0
M  V30 7358 H 693.319 -1.68322 4.80151 0
M  V30 7359 H 692.717 -4.53197 3.38569 0
M  V30 7360 H 691.274 -4.98263 4.20211 0
M  V30 7361 N 694.707 -1.5719 -0.113559 0
M  V30 7362 C 695.953 -1.85412 -0.821597 0
M  V30 7363 C 696.286 -0.746722 -1.7927 0
M  V30 7364 O 695.561 0.246971 -1.92926 0
M  V30 7365 C 695.844 -3.24233 -1.56669 0
M  V30 7366 C 695.697 -4.45578 -0.614823 0
M  V30 7367 C 697.016 -3.60697 -2.52161 0
M  V30 7368 H 694.135 -0.674406 -0.29723 0
M  V30 7369 H 696.777 -1.89807 -0.085694 0
M  V30 7370 H 694.927 -3.20617 -2.19401 0
M  V30 7371 H 696.599 -4.613 0.00407137 0
M  V30 7372 H 694.842 -4.33738 0.0732332 0
M  V30 7373 H 695.513 -5.39395 -1.17292 0
M  V30 7374 H 697.989 -3.65139 -1.99532 0
M  V30 7375 H 696.865 -4.58798 -3.01323 0
M  V30 7376 H 697.126 -2.88403 -3.35076 0
M  V30 7377 N 696.185 0.383891 -1.52853 0
M  V30 7378 C 697.095 1.49343 -1.80925 0
M  V30 7379 C 698.111 1.59458 -0.696348 0
M  V30 7380 O 699.287 1.75698 -0.984481 0
M  V30 7381 C 696.352 2.84819 -1.97684 0
M  V30 7382 C 695.413 2.84382 -3.21598 0
M  V30 7383 C 694.646 4.13397 -3.37548 0
M  V30 7384 O 694.869 5.08619 -2.58192 0
M  V30 7385 O 693.803 4.20325 -4.30826 0
M  V30 7386 H 697.629 1.2855 -2.75152 0
M  V30 7387 H 695.214 0.572229 -1.38007 0
M  V30 7388 H 697.096 3.65125 -2.10385 0
M  V30 7389 H 695.771 3.05627 -1.06647 0
M  V30 7390 H 694.678 2.0284 -3.14336 0
M  V30 7391 H 696.011 2.68526 -4.12498 0
M  V30 7392 N 697.663 1.43903 0.642637 0
M  V30 7393 C 698.595 1.45857 1.768 0
M  V30 7394 C 699.608 0.353358 1.58919 0
M  V30 7395 O 700.797 0.618426 1.67445 0
M  V30 7396 C 697.897 1.26583 3.14372 0
M  V30 7397 C 697.07 2.50139 3.58817 0
M  V30 7398 C 696.129 2.25933 4.75227 0
M  V30 7399 O 695.155 2.99351 4.84125 0
M  V30 7400 N 696.357 1.28263 5.66153 0
M  V30 7401 H 699.122 2.42869 1.75598 0
M  V30 7402 H 696.683 1.39194 0.826832 0
M  V30 7403 H 698.675 1.08255 3.89953 0
M  V30 7404 H 697.245 0.37978 3.10284 0
M  V30 7405 H 696.465 2.83821 2.73568 0
M  V30 7406 H 697.753 3.32344 3.8526 0
M  V30 7407 H 697.151 0.676041 5.61646 0
M  V30 7408 H 695.708 1.15916 6.4141 0
M  V30 7409 N 699.141 -0.881989 1.30609 0
M  V30 7410 C 700.389 -1.63082 1.19368 0
M  V30 7411 C 700.71 -1.93376 -0.251147 0
M  V30 7412 O 699.98 -1.5723 -1.16857 0
M  V30 7413 H 698.56 -0.604542 0.438791 0
M  V30 7414 H 701.222 -1.05658 1.63776 0
M  V30 7415 H 700.318 -2.57966 1.7567 0
M  V30 7416 N 700.619 -1.13374 -1.09472 0
M  V30 7417 C 701.849 -0.917019 -1.85133 0
M  V30 7418 C 702.257 0.537568 -1.81402 0
M  V30 7419 O 701.6 1.38385 -1.20811 0
M  V30 7420 C 701.662 -1.32646 -3.34134 0
M  V30 7421 C 701.326 -2.79437 -3.61613 0
M  V30 7422 C 702.323 -3.77596 -3.57375 0
M  V30 7423 C 700.008 -3.16586 -3.89973 0
M  V30 7424 C 702.002 -5.10916 -3.81108 0
M  V30 7425 C 699.689 -4.50085 -4.13361 0
M  V30 7426 C 700.687 -5.47059 -4.0892 0
M  V30 7427 O 700.375 -6.78149 -4.31705 0
M  V30 7428 H 700.107 -0.326997 -0.591649 0
M  V30 7429 H 702.661 -1.51002 -1.39239 0
M  V30 7430 H 700.891 -0.676719 -3.80733 0
M  V30 7431 H 702.58 -1.08229 -3.91205 0
M  V30 7432 H 703.346 -3.50242 -3.35493 0
M  V30 7433 H 699.225 -2.41707 -3.92554 0
M  V30 7434 H 702.769 -5.86597 -3.77558 0
M  V30 7435 H 698.666 -4.77163 -4.34724 0
M  V30 7436 H 699.434 -6.84244 -4.49168 0
M  V30 7437 N 702.098 1.27442 -0.927168 0
M  V30 7438 C 703.048 2.24519 -0.396878 0
M  V30 7439 C 704.032 1.52981 0.498555 0
M  V30 7440 O 705.224 1.7378 0.336087 0
M  V30 7441 C 702.353 3.41514 0.349694 0
M  V30 7442 C 701.439 4.20357 -0.562226 0
M  V30 7443 N 701.83 4.7702 -1.68182 0
M  V30 7444 C 700.128 4.44503 -0.365135 0
M  V30 7445 C 700.829 5.36467 -2.24895 0
M  V30 7446 N 699.805 5.21371 -1.5386 0
M  V30 7447 H 703.607 2.65911 -1.25173 0
M  V30 7448 H 701.121 1.42366 -0.78138 0
M  V30 7449 H 703.118 4.10161 0.746536 0
M  V30 7450 H 701.778 3.01653 1.20148 0
M  V30 7451 H 702.789 4.74985 -2.06421 0
M  V30 7452 H 699.466 4.15111 0.446037 0
M  V30 7453 H 700.856 5.91264 -3.1915 0
M  V30 7454 N 703.576 0.692616 1.41565 0
M  V30 7455 C 704.509 -0.025063 2.28186 0
M  V30 7456 C 705.487 -0.790912 1.42068 0
M  V30 7457 O 706.671 -0.782344 1.71498 0
M  V30 7458 C 703.798 -1.04285 3.22246 0
M  V30 7459 C 702.844 -0.370515 4.24888 0
M  V30 7460 S 703.677 0.884942 5.28137 0
M  V30 7461 C 704.833 -0.131324 6.25762 0
M  V30 7462 H 705.066 0.709626 2.88707 0
M  V30 7463 H 702.599 0.482783 1.46658 0
M  V30 7464 H 704.557 -1.62493 3.7697 0
M  V30 7465 H 703.218 -1.7501 2.60827 0
M  V30 7466 H 702.411 -1.13911 4.90959 0
M  V30 7467 H 702.013 0.138411 3.73744 0
M  V30 7468 H 704.305 -0.985527 6.70294 0
M  V30 7469 H 705.248 0.495384 7.06365 0
M  V30 7470 H 705.656 -0.484777 5.62415 0
M  V30 7471 N 705.054 -1.51416 0.437162 0
M  V30 7472 C 706.465 -1.86682 -0.0260005 0
M  V30 7473 C 706.816 -1.35432 -1.4196 0
M  V30 7474 O 705.941 -0.705055 -2.04592 0
M  V30 7475 C 706.536 -3.38757 -0.0539577 0
M  V30 7476 C 705.095 -3.7356 -0.461532 0
M  V30 7477 C 704.242 -2.75134 0.345924 0
M  V30 7478 H 707.193 -1.44642 0.653013 0
M  V30 7479 H 707.214 -3.70573 -0.863478 0
M  V30 7480 H 706.726 -3.76028 0.96045 0
M  V30 7481 H 704.827 -3.41878 -1.48155 0
M  V30 7482 H 704.94 -4.78737 -0.186451 0
M  V30 7483 H 703.304 -2.53947 -0.195739 0
M  V30 7484 H 704.087 -3.15247 1.35921 0
M  V30 7485 N 706.532 -0.168513 -1.56696 0
M  V30 7486 C 707.772 0.479648 -1.98693 0
M  V30 7487 C 708.136 1.60609 -1.05209 0
M  V30 7488 O 709.337 2.3166 -1.36334 0
M  V30 7489 C 707.608 0.952852 -3.44464 0
M  V30 7490 S 709.167 1.60259 -4.08488 0
M  V30 7491 H 705.985 0.154377 -0.694038 0
M  V30 7492 H 708.587 -0.265312 -1.93691 0
M  V30 7493 H 707.291 0.12257 -4.10217 0
M  V30 7494 H 706.822 1.73192 -3.53225 0
M  V30 7495 H 708.837 2.89065 -4.03307 0
M  V30 7496 N 708.01 1.57248 0.105221 0
M  V30 7497 C 709.421 1.74612 0.660865 0
M  V30 7498 C 709.772 0.789231 1.79626 0
M  V30 7499 O 708.897 -0.0346611 2.16372 0
M  V30 7500 C 709.492 3.16624 1.20559 0
M  V30 7501 C 708.051 3.35447 1.7074 0
M  V30 7502 C 707.198 2.70445 0.612764 0
M  V30 7503 H 710.149 1.5824 -0.12079 0
M  V30 7504 H 710.17 3.18937 2.07508 0
M  V30 7505 H 709.682 3.86245 0.379012 0
M  V30 7506 H 707.783 2.7089 2.5583 0
M  V30 7507 H 707.896 4.43702 1.80736 0
M  V30 7508 H 706.26 2.32061 1.04975 0
M  V30 7509 H 707.043 3.42699 -0.203066 0
M  V30 7510 N 709.488 -0.375779 1.53054 0
M  V30 7511 C 710.899 -0.95309 1.6054 0
M  V30 7512 C 711.25 -1.90575 0.466446 0
M  V30 7513 O 710.375 -2.12507 -0.408609 0
M  V30 7514 C 710.97 -1.73537 2.90982 0
M  V30 7515 C 709.529 -2.26218 3.00836 0
M  V30 7516 C 708.676 -1.07157 2.55759 0
M  V30 7517 H 711.627 -0.154895 1.57942 0
M  V30 7518 H 711.648 -2.59574 2.78211 0
M  V30 7519 H 711.16 -1.04176 3.73857 0
M  V30 7520 H 709.261 -2.98852 2.22527 0
M  V30 7521 H 709.374 -2.54799 4.05727 0
M  V30 7522 H 707.738 -1.43553 2.10391 0
M  V30 7523 H 708.521 -0.393099 3.41042 0
M  V30 7524 N 710.966 -1.44241 -0.634997 0
M  V30 7525 C 712.214 -1.46531 -1.39187 0
M  V30 7526 C 712.535 -0.0976441 -1.94755 0
M  V30 7527 O 711.805 0.869528 -1.75545 0
M  V30 7528 H 710.385 -0.539544 -0.516625 0
M  V30 7529 H 713.047 -1.79989 -0.747655 0
M  V30 7530 H 712.143 -2.18848 -2.22513 0
M  V30 7531 N 712.444 0.87505 -1.31075 0
M  V30 7532 C 713.684 1.64174 -1.21763 0
M  V30 7533 C 714.048 1.90713 0.221933 0
M  V30 7534 O 715.249 2.652 0.438458 0
M  V30 7535 C 713.52 2.93932 -2.0332 0
M  V30 7536 S 715.079 3.84841 -2.10815 0
M  V30 7537 H 711.897 0.563358 -0.433761 0
M  V30 7538 H 714.499 1.03788 -1.65675 0
M  V30 7539 H 713.203 2.72349 -3.07009 0
M  V30 7540 H 712.734 3.59345 -1.60108 0
M  V30 7541 H 714.749 4.80385 -1.24276 0
M  V30 7542 N 713.922 1.13953 1.08869 0
M  V30 7543 C 715.333 0.916649 1.62648 0
M  V30 7544 C 715.684 -0.545589 1.88462 0
M  V30 7545 O 714.809 -1.41351 1.63856 0
M  V30 7546 C 715.404 1.65751 2.95486 0
M  V30 7547 C 713.963 1.48034 3.46068 0
M  V30 7548 C 713.11 1.68305 2.20383 0
M  V30 7549 H 716.061 1.292 0.921572 0
M  V30 7550 H 716.082 1.11794 3.63707 0
M  V30 7551 H 715.594 2.72171 2.76667 0
M  V30 7552 H 713.695 0.439416 3.7 0
M  V30 7553 H 713.808 2.24719 4.23129 0
M  V30 7554 H 712.172 1.10833 2.29321 0
M  V30 7555 H 712.955 2.76057 2.04077 0
M  V30 7556 N 715.4 -1.26948 0.933913 0
M  V30 7557 C 716.363 -2.24889 0.442457 0
M  V30 7558 C 717.363 -1.54594 -0.442426 0
M  V30 7559 O 718.553 -1.72502 -0.242629 0
M  V30 7560 C 715.685 -3.3896 -0.363173 0
M  V30 7561 H 716.878 -2.69879 1.30787 0
M  V30 7562 H 714.431 -1.38978 0.715187 0
M  V30 7563 H 715.166 -2.99361 -1.24714 0
M  V30 7564 H 714.951 -3.9116 0.271366 0
M  V30 7565 H 716.441 -4.11739 -0.697186 0
M  V30 7566 N 716.879 -0.700114 -1.41195 0
M  V30 7567 C 718.104 -0.240704 -2.05998 0
M  V30 7568 C 718.529 1.10313 -1.52357 0
M  V30 7569 O 717.887 1.69154 -0.652424 0
M  V30 7570 C 717.935 -0.213783 -3.59966 0
M  V30 7571 O 717.039 0.809933 -4.04368 0
M  V30 7572 H 716.38 -0.116471 -0.653705 0
M  V30 7573 H 718.91 -0.956251 -1.80878 0
M  V30 7574 H 718.92 -0.0461852 -4.07974 0
M  V30 7575 H 717.595 -1.19454 -3.98376 0
M  V30 7576 H 716.172 0.611319 -3.67855 0
M  V30 7577 N 718.357 1.51182 -0.445186 0
M  V30 7578 C 719.287 2.30821 0.352686 0
M  V30 7579 C 720.268 1.36576 1.01395 0
M  V30 7580 O 721.453 1.65497 1.01609 0
M  V30 7581 C 718.583 3.15593 1.44976 0
M  V30 7582 C 717.537 4.1818 0.911553 0
M  V30 7583 C 716.863 4.91523 2.10497 0
M  V30 7584 C 718.163 5.22266 -0.059418 0
M  V30 7585 H 719.857 2.97771 -0.311936 0
M  V30 7586 H 717.403 1.43201 -0.151461 0
M  V30 7587 H 719.356 3.70091 2.01521 0
M  V30 7588 H 718.08 2.4648 2.14278 0
M  V30 7589 H 716.739 3.64746 0.368264 0
M  V30 7590 H 716.387 4.18906 2.78437 0
M  V30 7591 H 716.087 5.60898 1.7512 0
M  V30 7592 H 717.611 5.48847 2.6758 0
M  V30 7593 H 719.025 5.71789 0.415985 0
M  V30 7594 H 717.422 5.99213 -0.326152 0
M  V30 7595 H 718.492 4.7461 -0.993631 0
M  V30 7596 N 719.835 0.176821 1.56605 0
M  V30 7597 C 721.065 -0.472142 2.01133 0
M  V30 7598 C 721.473 -1.56979 1.05614 0
M  V30 7599 O 720.816 -1.83632 0.0500137 0
M  V30 7600 C 720.878 -1.10547 3.42081 0
M  V30 7601 C 720.542 -0.148806 4.56758 0
M  V30 7602 C 721.539 0.634939 5.16008 0
M  V30 7603 C 719.224 -0.0430325 5.02282 0
M  V30 7604 C 721.218 1.5116 6.19217 0
M  V30 7605 C 718.905 0.83721 6.05338 0
M  V30 7606 C 719.903 1.61311 6.63677 0
M  V30 7607 O 719.591 2.47863 7.64735 0
M  V30 7608 H 719.323 -0.124725 0.664394 0
M  V30 7609 H 721.877 0.277329 2.03519 0
M  V30 7610 H 720.107 -1.90318 3.36625 0
M  V30 7611 H 721.796 -1.6572 3.70529 0
M  V30 7612 H 722.562 0.563424 4.81716 0
M  V30 7613 H 718.441 -0.636753 4.56581 0
M  V30 7614 H 721.985 2.11767 6.64681 0
M  V30 7615 H 717.882 0.909908 6.39055 0
M  V30 7616 H 718.65 2.4144 7.8208 0
M  V30 7617 N 721.313 -1.57302 -0.09688 0
M  V30 7618 C 722.223 -2.05258 -1.13606 0
M  V30 7619 C 723.239 -0.977137 -1.43972 0
M  V30 7620 O 724.415 -1.29018 -1.54649 0
M  V30 7621 C 721.48 -2.46593 -2.43706 0
M  V30 7622 C 720.541 -3.68322 -2.20538 0
M  V30 7623 C 719.774 -4.07676 -3.44435 0
M  V30 7624 O 719.997 -3.47141 -4.52603 0
M  V30 7625 O 718.931 -5.00641 -3.34129 0
M  V30 7626 H 722.757 -2.94069 -0.758752 0
M  V30 7627 H 720.342 -1.46164 -0.309263 0
M  V30 7628 H 722.224 -2.73814 -3.20318 0
M  V30 7629 H 720.899 -1.6092 -2.80867 0
M  V30 7630 H 719.806 -3.4622 -1.41713 0
M  V30 7631 H 721.139 -4.54769 -1.88271 0
M  V30 7632 N 722.791 0.367657 -1.53252 0
M  V30 7633 C 723.754 1.43308 -1.78873 0
M  V30 7634 C 724.754 1.46671 -0.659115 0
M  V30 7635 O 725.944 1.47468 -0.927306 0
M  V30 7636 C 723.076 2.82442 -1.90892 0
M  V30 7637 H 724.269 1.21864 -2.74024 0
M  V30 7638 H 721.822 0.600668 -1.44297 0
M  V30 7639 H 722.557 3.09202 -0.978 0
M  V30 7640 H 722.342 2.81399 -2.73051 0
M  V30 7641 H 723.832 3.59601 -2.12314 0
M  V30 7642 N 724.269 1.44576 0.627338 0
M  V30 7643 C 725.202 1.46206 1.75212 0
M  V30 7644 C 726.18 0.320483 1.5941 0
M  V30 7645 O 727.364 0.518028 1.81242 0
M  V30 7646 C 724.491 1.29834 3.12827 0
M  V30 7647 C 723.537 2.47603 3.47268 0
M  V30 7648 S 724.37 4.10125 3.44322 0
M  V30 7649 C 725.526 3.96183 4.84551 0
M  V30 7650 H 725.759 2.41378 1.73563 0
M  V30 7651 H 723.292 1.3192 0.802283 0
M  V30 7652 H 725.25 1.21075 3.92239 0
M  V30 7653 H 723.911 0.361662 3.12011 0
M  V30 7654 H 723.104 2.3202 4.47418 0
M  V30 7655 H 722.706 2.53121 2.75329 0
M  V30 7656 H 724.998 3.60107 5.73872 0
M  V30 7657 H 725.941 4.96176 5.05188 0
M  V30 7658 H 726.349 3.28177 4.59304 0
M  V30 7659 N 725.747 -0.868086 1.31537 0
M  V30 7660 C 726.657 -2.00801 1.21311 0
M  V30 7661 C 727.673 -1.73518 0.129431 0
M  V30 7662 O 728.849 -1.98378 0.347588 0
M  V30 7663 C 725.914 -3.3419 0.922935 0
M  V30 7664 C 724.975 -3.74783 2.0937 0
M  V30 7665 C 724.208 -5.01807 1.81728 0
M  V30 7666 O 724.431 -5.65404 0.753313 0
M  V30 7667 O 723.365 -5.39213 2.67457 0
M  V30 7668 H 727.191 -2.12361 2.17109 0
M  V30 7669 H 724.776 -0.996684 1.11295 0
M  V30 7670 H 726.658 -4.14174 0.777033 0
M  V30 7671 H 725.333 -3.237 -0.00500301 0
M  V30 7672 H 724.24 -2.95432 2.29501 0
M  V30 7673 H 725.573 -3.89902 3.00396 0
M  V30 7674 N 727.225 -1.14528 -1.08264 0
M  V30 7675 C 728.157 -0.791325 -2.15106 0
M  V30 7676 C 729.17 0.192449 -1.61659 0
M  V30 7677 O 730.359 -0.0294704 -1.78476 0
M  V30 7678 C 727.459 -0.154183 -3.38549 0
M  V30 7679 C 726.632 -1.17305 -4.21377 0
M  V30 7680 C 725.691 -0.559401 -5.23218 0
M  V30 7681 O 724.717 -1.22277 -5.55911 0
M  V30 7682 N 725.919 0.663159 -5.767 0
M  V30 7683 H 728.684 -1.71076 -2.46075 0
M  V30 7684 H 726.245 -1.0399 -1.24087 0
M  V30 7685 H 728.237 0.268884 -4.03806 0
M  V30 7686 H 726.807 0.668418 -3.0537 0
M  V30 7687 H 726.027 -1.773 -3.52077 0
M  V30 7688 H 727.315 -1.86128 -4.73533 0
M  V30 7689 H 726.713 1.22066 -5.52373 0
M  V30 7690 H 725.27 1.02871 -6.43631 0
M  V30 7691 N 728.703 1.26451 -0.940633 0
M  V30 7692 C 729.931 1.97868 -0.604642 0
M  V30 7693 C 730.346 1.70051 0.820251 0
M  V30 7694 O 729.703 0.96843 1.54686 0
M  V30 7695 C 729.754 3.51684 -0.836689 0
M  V30 7696 O 729.475 3.78533 -2.20554 0
M  V30 7697 C 730.976 4.40343 -0.511169 0
M  V30 7698 H 728.196 0.631105 -0.227919 0
M  V30 7699 H 730.74 1.60979 -1.26119 0
M  V30 7700 H 728.895 3.86736 -0.226759 0
M  V30 7701 H 729.309 4.73065 -2.26517 0
M  V30 7702 H 730.783 5.47229 -0.724157 0
M  V30 7703 H 731.26 4.35694 0.553815 0
M  V30 7704 H 731.866 4.10834 -1.0998 0
M  V30 7705 N 730.181 0.707592 1.40822 0
M  V30 7706 C 731.427 0.252828 2.01823 0
M  V30 7707 C 731.782 -1.13876 1.55081 0
M  V30 7708 O 731.075 -1.75993 0.757439 0
M  V30 7709 C 731.269 0.262892 3.56432 0
M  V30 7710 C 731.098 1.65392 4.18181 0
M  V30 7711 C 729.868 2.25966 4.5196 0
M  V30 7712 C 732.066 2.60272 4.4358 0
M  V30 7713 N 730.048 3.57508 4.9906 0
M  V30 7714 C 731.419 3.76509 4.92586 0
M  V30 7715 C 733.474 2.58386 4.25607 0
M  V30 7716 C 732.177 4.91157 5.25507 0
M  V30 7717 C 734.203 3.72155 4.59625 0
M  V30 7718 C 733.565 4.87123 5.08813 0
M  V30 7719 H 729.664 0.138172 0.769696 0
M  V30 7720 H 732.248 0.927667 1.7118 0
M  V30 7721 H 730.419 -0.381479 3.86522 0
M  V30 7722 H 732.151 -0.20783 4.04166 0
M  V30 7723 H 728.906 1.78138 4.38821 0
M  V30 7724 H 729.33 4.24968 5.27002 0
M  V30 7725 H 733.972 1.7071 3.86805 0
M  V30 7726 H 731.69 5.79483 5.63227 0
M  V30 7727 H 735.276 3.71961 4.47366 0
M  V30 7728 H 734.156 5.73698 5.3464 0
M  V30 7729 N 731.66 -1.50943 0.453197 0
M  V30 7730 C 733.076 -1.59245 0.106342 0
M  V30 7731 C 733.276 -1.46287 -1.38572 0
M  V30 7732 O 732.332 -1.31219 -2.15726 0
M  V30 7733 C 733.645 -2.93797 0.640595 0
M  V30 7734 C 735.193 -3.07148 0.602435 0
M  V30 7735 C 735.668 -4.44247 1.11393 0
M  V30 7736 N 737.159 -4.50611 1.07258 0
M  V30 7737 C 737.894 -5.55049 1.43905 0
M  V30 7738 N 737.39 -6.66828 1.87914 0
M  V30 7739 N 739.183 -5.45494 1.35621 0
M  V30 7740 H 731.334 -1.5761 1.42382 0
M  V30 7741 H 733.597 -0.74384 0.587713 0
M  V30 7742 H 733.303 -3.087 1.68515 0
M  V30 7743 H 733.177 -3.77127 0.0742272 0
M  V30 7744 H 735.564 -2.91903 -0.433171 0
M  V30 7745 H 735.645 -2.25619 1.20539 0
M  V30 7746 H 735.289 -4.60239 2.14808 0
M  V30 7747 H 735.219 -5.2434 0.487353 0
M  V30 7748 H 737.71 -3.70391 0.749585 0
M  V30 7749 H 738.023 -7.42558 2.14072 0
M  V30 7750 H 736.368 -6.67995 1.91853 0
M  V30 7751 H 739.559 -4.57053 1.01093 0
M  V30 7752 H 739.732 -6.2677 1.64508 0
M  V30 7753 N 733.138 -0.185124 -1.56509 0
M  V30 7754 C 734.068 0.735098 -2.21627 0
M  V30 7755 C 735.049 1.2288 -1.1762 0
M  V30 7756 O 736.234 1.27945 -1.46095 0
M  V30 7757 C 733.364 1.95889 -2.86783 0
M  V30 7758 C 732.318 1.6005 -3.96948 0
M  V30 7759 C 731.644 2.90009 -4.4922 0
M  V30 7760 C 732.944 0.818008 -5.15855 0
M  V30 7761 H 734.638 0.192274 -2.98782 0
M  V30 7762 H 732.184 0.0910393 -1.43712 0
M  V30 7763 H 734.137 2.60779 -3.31017 0
M  V30 7764 H 732.861 2.52608 -2.07018 0
M  V30 7765 H 731.52 0.975237 -3.5339 0
M  V30 7766 H 731.168 3.44797 -3.6623 0
M  V30 7767 H 730.868 2.66778 -5.23549 0
M  V30 7768 H 732.392 3.55904 -4.9615 0
M  V30 7769 H 733.806 1.36979 -5.56695 0
M  V30 7770 H 732.203 0.684207 -5.96187 0
M  V30 7771 H 733.273 -0.182939 -4.84555 0
M  V30 7772 N 734.616 1.57351 0.0885366 0
M  V30 7773 C 735.893 1.77449 0.822873 0
M  V30 7774 C 736.273 0.768463 1.96616 0
M  V30 7775 O 735.621 -0.201757 2.27608 0
M  V30 7776 C 735.831 3.23425 1.31137 0
M  V30 7777 C 737.179 3.86791 1.75152 0
M  V30 7778 O 738.203 3.27215 1.40745 0
M  V30 7779 O 737.062 4.91568 2.38794 0
M  V30 7780 H 734.156 0.727653 0.393002 0
M  V30 7781 H 736.702 1.69556 0.0699095 0
M  V30 7782 H 735.474 3.88188 0.49254 0
M  V30 7783 H 735.097 3.35977 2.12615 0
M  V30 7784 N 736.094 -0.359525 1.53444 0
M  V30 7785 C 737.505 -0.936009 1.61542 0
M  V30 7786 C 737.856 -1.90069 0.486633 0
M  V30 7787 O 736.981 -2.12929 -0.386047 0
M  V30 7788 C 737.576 -1.70441 2.92806 0
M  V30 7789 C 736.135 -2.23015 3.03218 0
M  V30 7790 C 735.282 -1.04438 2.56881 0
M  V30 7791 H 738.233 -0.138134 1.58098 0
M  V30 7792 H 738.254 -2.56609 2.80948 0
M  V30 7793 H 737.766 -1.00205 3.74941 0
M  V30 7794 H 735.867 -2.96475 2.25684 0
M  V30 7795 H 735.98 -2.50481 4.08407 0
M  V30 7796 H 734.344 -1.41314 2.11902 0
M  V30 7797 H 735.127 -0.356905 3.4144 0
M  V30 7798 N 737.572 -1.44907 -0.619662 0
M  V30 7799 C 738.482 -1.55168 -1.75955 0
M  V30 7800 C 739.498 -0.43672 -1.6843 0
M  V30 7801 O 740.674 -0.695704 -1.89002 0
M  V30 7802 C 737.739 -1.50397 -3.12381 0
M  V30 7803 C 736.8 -2.72835 -3.31451 0
M  V30 7804 C 736.033 -2.68283 -4.61368 0
M  V30 7805 O 736.256 -1.74929 -5.42914 0
M  V30 7806 O 735.19 -3.59308 -4.82889 0
M  V30 7807 H 739.016 -2.51493 -1.7025 0
M  V30 7808 H 736.601 -1.27282 -0.782289 0
M  V30 7809 H 738.483 -1.50301 -3.93685 0
M  V30 7810 H 737.158 -0.572197 -3.18603 0
M  V30 7811 H 736.065 -2.78496 -2.49781 0
M  V30 7812 H 737.398 -3.65098 -3.30098 0
M  V30 7813 N 739.05 0.861098 -1.31996 0
M  V30 7814 C 739.96 2.00154 -1.22374 0
M  V30 7815 C 740.976 1.73447 -0.138631 0
M  V30 7816 O 742.152 1.98191 -0.358104 0
M  V30 7817 C 739.217 3.33696 -0.940645 0
M  V30 7818 C 738.278 3.73668 -2.11355 0
M  V30 7819 C 737.511 5.00837 -1.84386 0
M  V30 7820 O 737.734 5.64996 -0.783287 0
M  V30 7821 O 736.668 5.37787 -2.70313 0
M  V30 7822 H 740.494 2.11207 -2.18233 0
M  V30 7823 H 738.079 0.990768 -1.11822 0
M  V30 7824 H 739.961 4.13756 -0.798987 0
M  V30 7825 H 738.636 3.23698 -0.0121636 0
M  V30 7826 H 737.543 2.94211 -2.31065 0
M  V30 7827 H 738.876 3.88303 -3.02459 0
M  V30 7828 N 740.528 1.15101 1.07655 0
M  V30 7829 C 741.944 0.893004 1.32279 0
M  V30 7830 C 742.144 -0.461701 1.96139 0
M  V30 7831 O 741.2 -1.20431 2.21929 0
M  V30 7832 C 742.513 2.03161 2.21689 0
M  V30 7833 C 744.061 2.06579 2.35147 0
M  V30 7834 C 744.536 3.19754 3.27905 0
M  V30 7835 N 746.027 3.19382 3.35484 0
M  V30 7836 C 746.762 4.03592 4.07309 0
M  V30 7837 N 746.258 4.97859 4.81776 0
M  V30 7838 N 748.051 3.91626 4.03219 0
M  V30 7839 H 740.202 2.02341 0.645886 0
M  V30 7840 H 742.465 0.882127 0.347211 0
M  V30 7841 H 742.171 3.00934 1.82021 0
M  V30 7842 H 742.045 1.96132 3.22199 0
M  V30 7843 H 744.432 1.09408 2.74069 0
M  V30 7844 H 744.513 2.17676 1.34353 0
M  V30 7845 H 744.157 4.17175 2.89702 0
M  V30 7846 H 744.087 3.05893 4.28645 0
M  V30 7847 H 746.578 2.51112 2.82403 0
M  V30 7848 H 746.891 5.58563 5.34067 0
M  V30 7849 H 745.236 5.0185 4.80803 0
M  V30 7850 H 748.427 3.17295 3.44154 0
M  V30 7851 H 748.6 4.57479 4.5893 0
M  V30 7852 N 742.006 -1.2595 0.947325 0
M  V30 7853 C 743.417 -1.75389 0.639963 0
M  V30 7854 C 743.768 -1.77081 -0.844788 0
M  V30 7855 O 742.893 -1.3869 -1.66114 0
M  V30 7856 C 743.488 -3.18506 1.15496 0
M  V30 7857 C 742.047 -3.65534 0.897894 0
M  V30 7858 C 741.194 -2.44818 1.30228 0
M  V30 7859 H 744.145 -1.1194 1.12495 0
M  V30 7860 H 744.166 -3.77045 0.511627 0
M  V30 7861 H 743.678 -3.17243 2.23559 0
M  V30 7862 H 741.779 -3.72221 -0.168096 0
M  V30 7863 H 741.892 -4.54039 1.52922 0
M  V30 7864 H 740.256 -2.44291 0.720678 0
M  V30 7865 H 741.039 -2.46251 2.39198 0
M  V30 7866 N 743.484 -0.715051 -1.40445 0
M  V30 7867 C 744.712 -0.263959 -2.05209 0
M  V30 7868 C 745.127 1.09403 -1.53871 0
M  V30 7869 O 744.484 1.68746 -0.695064 0
M  V30 7870 C 744.535 -0.234545 -3.60738 0
M  V30 7871 O 744.256 -1.53891 -4.10182 0
M  V30 7872 C 745.757 0.235164 -4.42676 0
M  V30 7873 H 742.977 -0.11876 -0.660407 0
M  V30 7874 H 745.521 -0.973107 -1.79864 0
M  V30 7875 H 743.676 0.425563 -3.85055 0
M  V30 7876 H 744.09 -1.43903 -5.04373 0
M  V30 7877 H 745.564 0.204598 -5.51621 0
M  V30 7878 H 746.041 1.27724 -4.20218 0
M  V30 7879 H 746.647 -0.394649 -4.23465 0
M  V30 7880 N 744.962 1.50701 -0.461195 0
M  V30 7881 C 746.209 2.02267 0.0971971 0
M  V30 7882 C 746.537 1.34387 1.40608 0
M  V30 7883 O 745.792 0.455254 1.90331 0
M  V30 7884 C 746.091 3.55788 0.33908 0
M  V30 7885 C 745.757 4.42092 -0.886885 0
M  V30 7886 C 744.419 4.65398 -1.22304 0
M  V30 7887 C 746.771 4.92571 -1.70361 0
M  V30 7888 C 744.099 5.36429 -2.37616 0
M  V30 7889 C 746.451 5.64868 -2.84793 0
M  V30 7890 C 745.115 5.86431 -3.18834 0
M  V30 7891 H 744.385 0.740146 0.0355669 0
M  V30 7892 H 747.032 1.81415 -0.61326 0
M  V30 7893 H 745.337 3.751 1.13168 0
M  V30 7894 H 747.034 3.93243 0.784937 0
M  V30 7895 H 743.624 4.24165 -0.614981 0
M  V30 7896 H 747.808 4.74428 -1.4571 0
M  V30 7897 H 743.064 5.51333 -2.64276 0
M  V30 7898 H 747.238 6.02966 -3.48432 0
M  V30 7899 H 744.865 6.41248 -4.08296 0
M  V30 7900 N 746.441 0.193421 1.56409 0
M  V30 7901 C 747.351 -0.740112 2.2262 0
M  V30 7902 C 748.367 -1.23597 1.22474 0
M  V30 7903 O 749.543 -1.28348 1.55206 0
M  V30 7904 C 746.608 -1.94317 2.87127 0
M  V30 7905 C 745.669 -1.49205 4.02538 0
M  V30 7906 C 744.902 -2.63776 4.63959 0
M  V30 7907 O 745.125 -3.81215 4.24301 0
M  V30 7908 O 744.059 -2.36585 5.53454 0
M  V30 7909 H 747.885 -0.206238 3.02999 0
M  V30 7910 H 745.47 -0.0357938 1.49357 0
M  V30 7911 H 747.352 -2.64633 3.27944 0
M  V30 7912 H 746.027 -2.46568 2.09728 0
M  V30 7913 H 744.934 -0.757738 3.66346 0
M  V30 7914 H 746.267 -1.01622 4.81595 0
M  V30 7915 N 747.919 -1.57396 -0.0801906 0
M  V30 7916 C 749.149 -1.90778 -0.792924 0
M  V30 7917 C 749.557 -0.786814 -1.72064 0
M  V30 7918 O 748.9 0.249259 -1.82001 0
M  V30 7919 C 748.962 -3.19552 -1.64702 0
M  V30 7920 C 748.626 -4.48259 -0.889567 0
M  V30 7921 C 749.623 -5.19465 -0.212602 0
M  V30 7922 C 747.308 -4.94896 -0.859229 0
M  V30 7923 C 749.302 -6.35555 0.484566 0
M  V30 7924 C 746.989 -6.10895 -0.158284 0
M  V30 7925 C 747.987 -6.81075 0.512421 0
M  V30 7926 O 747.675 -7.94862 1.20209 0
M  V30 7927 H 747.407 -0.63527 -0.231103 0
M  V30 7928 H 749.961 -2.0532 -0.0573081 0
M  V30 7929 H 748.191 -3.01196 -2.42524 0
M  V30 7930 H 749.88 -3.38649 -2.23767 0
M  V30 7931 H 750.646 -4.84467 -0.227403 0
M  V30 7932 H 746.525 -4.4015 -1.37073 0
M  V30 7933 H 750.069 -6.9027 1.00864 0
M  V30 7934 H 745.966 -6.45345 -0.141381 0
M  V30 7935 H 746.734 -8.10932 1.11051 0
M  V30 7936 N 749.397 0.351382 -1.53633 0
M  V30 7937 C 750.327 1.43688 -1.84055 0
M  V30 7938 C 751.308 1.55251 -0.695073 0
M  V30 7939 O 752.493 1.69587 -0.946257 0
M  V30 7940 C 749.623 2.80843 -2.04315 0
M  V30 7941 C 748.577 2.84094 -3.20117 0
M  V30 7942 C 747.903 4.2406 -3.25696 0
M  V30 7943 C 749.203 2.50334 -4.58399 0
M  V30 7944 H 750.897 1.18478 -2.74961 0
M  V30 7945 H 748.443 0.568509 -1.32303 0
M  V30 7946 H 750.396 3.56821 -2.2418 0
M  V30 7947 H 749.12 3.07471 -1.10132 0
M  V30 7948 H 747.779 2.10568 -3.00094 0
M  V30 7949 H 747.427 4.47785 -2.29123 0
M  V30 7950 H 747.127 4.27147 -4.03509 0
M  V30 7951 H 748.651 5.0189 -3.47762 0
M  V30 7952 H 750.065 3.16025 -4.78332 0
M  V30 7953 H 748.462 2.64717 -5.38558 0
M  V30 7954 H 749.532 1.45542 -4.62543 0
M  V30 7955 N 750.875 1.45233 0.611969 0
M  V30 7956 C 751.807 1.49575 1.73666 0
M  V30 7957 C 752.82 0.386987 1.58134 0
M  V30 7958 O 754.009 0.653804 1.66095 0
M  V30 7959 C 751.109 1.33223 3.11617 0
M  V30 7960 C 750.282 2.57694 3.5343 0
M  V30 7961 C 749.341 2.35962 4.70328 0
M  V30 7962 O 748.367 3.09553 4.77667 0
M  V30 7963 N 749.569 1.40243 5.63305 0
M  V30 7964 H 752.334 2.46539 1.70407 0
M  V30 7965 H 749.895 1.40917 0.79712 0
M  V30 7966 H 751.887 1.16502 3.87569 0
M  V30 7967 H 750.457 0.44551 3.09409 0
M  V30 7968 H 749.677 2.8956 2.67486 0
M  V30 7969 H 750.965 3.40441 3.78124 0
M  V30 7970 H 750.363 0.795023 5.60086 0
M  V30 7971 H 748.92 1.29496 6.38807 0
M  V30 7972 N 752.353 -0.854086 1.3245 0
M  V30 7973 C 753.578 -1.64597 1.26185 0
M  V30 7974 C 754.003 -1.87357 -0.167074 0
M  V30 7975 O 753.361 -1.42675 -1.11864 0
M  V30 7976 C 753.409 -2.98213 2.02734 0
M  V30 7977 O 752.513 -3.88784 1.37554 0
M  V30 7978 H 751.854 -0.50179 0.434859 0
M  V30 7979 H 754.384 -1.06372 1.74775 0
M  V30 7980 H 754.394 -3.4803 2.1293 0
M  V30 7981 H 753.069 -2.80969 3.06642 0
M  V30 7982 H 751.646 -3.4725 1.3591 0
M  V30 7983 N 753.831 -1.1567 -1.07043 0
M  V30 7984 C 755.078 -0.933517 -1.79699 0
M  V30 7985 C 755.406 0.539162 -1.86878 0
M  V30 7986 O 754.661 1.41592 -1.35093 0
M  V30 7987 C 754.96 -1.49677 -3.24548 0
M  V30 7988 C 754.626 -2.99047 -3.37463 0
M  V30 7989 C 753.288 -3.39824 -3.40695 0
M  V30 7990 C 755.64 -3.95027 -3.40004 0
M  V30 7991 C 752.968 -4.75215 -3.44075 0
M  V30 7992 C 755.32 -5.30295 -3.44921 0
M  V30 7993 C 753.984 -5.70562 -3.46432 0
M  V30 7994 H 753.254 -0.341598 -0.657565 0
M  V30 7995 H 755.901 -1.44263 -1.25938 0
M  V30 7996 H 754.206 -0.908915 -3.81111 0
M  V30 7997 H 755.903 -1.29986 -3.79348 0
M  V30 7998 H 752.493 -2.6653 -3.35648 0
M  V30 7999 H 756.677 -3.64596 -3.36725 0
M  V30 8000 H 751.933 -5.05754 -3.43545 0
M  V30 8001 H 756.107 -6.0446 -3.45833 0
M  V30 8002 H 753.734 -6.75456 -3.48803 0
M  V30 8003 N 755.309 1.25446 -0.953992 0
M  V30 8004 C 756.239 2.28264 -0.491717 0
M  V30 8005 C 757.22 1.63717 0.461617 0
M  V30 8006 O 758.405 1.90821 0.36071 0
M  V30 8007 C 755.535 3.46525 0.231915 0
M  V30 8008 C 754.489 4.23247 -0.636098 0
M  V30 8009 C 753.815 5.34254 0.218238 0
M  V30 8010 C 755.115 4.85971 -1.91389 0
M  V30 8011 H 756.809 2.67183 -1.35106 0
M  V30 8012 H 754.355 1.2844 -0.651095 0
M  V30 8013 H 756.308 4.17576 0.566439 0
M  V30 8014 H 755.032 3.06594 1.12551 0
M  V30 8015 H 753.691 3.53978 -0.953696 0
M  V30 8016 H 753.339 4.90564 1.11156 0
M  V30 8017 H 753.039 5.86501 -0.359232 0
M  V30 8018 H 754.563 6.08138 0.547743 0
M  V30 8019 H 755.977 5.49168 -1.64581 0
M  V30 8020 H 754.374 5.48391 -2.43696 0
M  V30 8021 H 755.444 4.08192 -2.61738 0
M  V30 8022 N 756.787 0.722489 1.40064 0
M  V30 8023 C 757.697 0.0755984 2.34478 0
M  V30 8024 C 758.713 -0.736046 1.57665 0
M  V30 8025 O 759.889 -0.667407 1.9002 0
M  V30 8026 C 756.954 -0.830075 3.36616 0
M  V30 8027 C 756.015 -0.00759884 4.29299 0
M  V30 8028 C 755.248 -0.870139 5.26559 0
M  V30 8029 O 755.471 -2.10921 5.2997 0
M  V30 8030 O 754.405 -0.305454 6.01124 0
M  V30 8031 H 758.231 0.854545 2.9143 0
M  V30 8032 H 755.816 0.483032 1.41376 0
M  V30 8033 H 757.698 -1.34864 3.99236 0
M  V30 8034 H 756.373 -1.58805 2.82069 0
M  V30 8035 H 755.28 0.556199 3.69942 0
M  V30 8036 H 756.613 0.712312 4.87018 0
M  V30 8037 N 758.265 -1.50454 0.469181 0
M  V30 8038 C 759.542 -1.9504 -0.147955 0
M  V30 8039 C 759.922 -1.40946 -1.57154 0
M  V30 8040 O 759.27 -0.609663 -2.20217 0
M  V30 8041 C 759.48 -3.48875 -0.0932198 0
M  V30 8042 C 760.828 -4.23655 -0.283056 0
M  V30 8043 O 761.852 -3.55795 -0.169892 0
M  V30 8044 O 760.711 -5.44102 -0.511396 0
M  V30 8045 H 757.805 -0.819283 -0.11271 0
M  V30 8046 H 760.351 -1.6123 0.529446 0
M  V30 8047 H 759.123 -3.80791 0.900784 0
M  V30 8048 H 758.746 -3.89217 -0.812161 0
M  V30 8049 N 759.743 -0.201713 -1.56304 0
M  V30 8050 C 760.973 0.440084 -2.01858 0
M  V30 8051 C 761.381 1.55279 -1.08098 0
M  V30 8052 O 760.724 1.83529 -0.0792216 0
M  V30 8053 C 760.786 1.05091 -3.43797 0
M  V30 8054 C 760.45 0.0761208 -4.56937 0
M  V30 8055 C 761.447 -0.716951 -5.14933 0
M  V30 8056 C 759.132 -0.0368815 -5.02286 0
M  V30 8057 C 761.126 -1.60993 -6.16733 0
M  V30 8058 C 758.813 -0.933409 -6.03929 0
M  V30 8059 C 759.811 -1.71849 -6.61027 0
M  V30 8060 O 759.499 -2.59998 -7.60695 0
M  V30 8061 H 759.231 0.114139 -0.666294 0
M  V30 8062 H 761.785 -0.309672 -2.03052 0
M  V30 8063 H 760.015 1.84938 -3.3961 0
M  V30 8064 H 761.704 1.59804 -3.73118 0
M  V30 8065 H 762.47 -0.63999 -4.80759 0
M  V30 8066 H 758.349 0.564034 -4.57537 0
M  V30 8067 H 761.893 -2.22315 -6.61227 0
M  V30 8068 H 757.79 -1.01146 -6.37526 0
M  V30 8069 H 758.558 -2.53851 -7.7814 0
M  V30 8070 N 761.222 1.57436 0.0718424 0
M  V30 8071 C 762.469 1.87248 0.771007 0
M  V30 8072 C 762.797 0.793441 1.7758 0
M  V30 8073 O 762.052 -0.210565 1.94564 0
M  V30 8074 C 762.351 3.23723 1.51455 0
M  V30 8075 C 762.017 4.46194 0.649736 0
M  V30 8076 C 760.679 4.79438 0.411409 0
M  V30 8077 C 763.031 5.21176 0.05004 0
M  V30 8078 C 760.359 5.85077 -0.436096 0
M  V30 8079 C 762.711 6.27712 -0.784919 0
M  V30 8080 C 761.375 6.59457 -1.03312 0
M  V30 8081 H 760.645 0.685188 0.282132 0
M  V30 8082 H 763.292 1.91474 0.0317896 0
M  V30 8083 H 761.597 3.15287 2.32597 0
M  V30 8084 H 763.294 3.44023 2.06031 0
M  V30 8085 H 759.884 4.20175 0.84562 0
M  V30 8086 H 764.068 4.95806 0.221282 0
M  V30 8087 H 759.324 6.08071 -0.637136 0
M  V30 8088 H 763.498 6.84974 -1.25635 0
M  V30 8089 H 761.125 7.4114 -1.6916 0
M  V30 8090 N 762.7 -0.34323 1.53817 0
M  V30 8091 C 763.928 -1.10348 1.75017 0
M  V30 8092 C 764.343 -1.82345 0.489475 0
M  V30 8093 O 763.7 -1.74362 -0.538886 0
M  V30 8094 C 763.751 -2.11672 2.93048 0
M  V30 8095 O 763.472 -1.42603 4.14241 0
M  V30 8096 C 764.973 -3.0007 3.26301 0
M  V30 8097 H 762.193 -0.329056 0.584776 0
M  V30 8098 H 764.737 -0.395339 2.00642 0
M  V30 8099 H 762.892 -2.78051 2.69753 0
M  V30 8100 H 763.306 -2.10294 4.80496 0
M  V30 8101 H 764.78 -3.67101 4.12239 0
M  V30 8102 H 765.257 -3.66105 2.42618 0
M  V30 8103 H 765.863 -2.3928 3.51604 0
M  V30 8104 N 764.178 -1.45556 -0.604258 0
M  V30 8105 C 765.403 -1.53509 -1.39462 0
M  V30 8106 C 765.828 -0.169638 -1.87333 0
M  V30 8107 O 765.186 0.846346 -1.60333 0
M  V30 8108 C 765.234 -2.52654 -2.5729 0
M  V30 8109 O 764.338 -2.04666 -3.5803 0
M  V30 8110 H 763.679 -0.517355 -0.416221 0
M  V30 8111 H 766.209 -1.90939 -0.735072 0
M  V30 8112 H 766.219 -2.71568 -3.04491 0
M  V30 8113 H 764.894 -3.51823 -2.21797 0
M  V30 8114 H 763.471 -1.95643 -3.17456 0
M  V30 8115 N 765.656 0.84705 -1.32902 0
M  V30 8116 C 766.619 1.9378 -1.224 0
M  V30 8117 C 767.619 1.60144 -0.145108 0
M  V30 8118 O 768.809 1.69638 -0.396058 0
M  V30 8119 C 765.941 3.29234 -0.884174 0
M  V30 8120 H 767.134 2.04518 -2.19345 0
M  V30 8121 H 764.687 1.03816 -1.16842 0
M  V30 8122 H 765.422 3.24193 0.0831277 0
M  V30 8123 H 765.207 3.55026 -1.6643 0
M  V30 8124 H 766.697 4.09162 -0.835226 0
M  V30 8125 N 767.134 1.16236 1.06428 0
M  V30 8126 C 768.044 0.881976 2.1739 0
M  V30 8127 C 769.06 -0.145259 1.73393 0
M  V30 8128 O 770.236 0.0310558 2.01376 0
M  V30 8129 C 767.301 0.385496 3.4455 0
M  V30 8130 C 766.362 1.47779 4.03063 0
M  V30 8131 C 765.595 1.0049 5.24154 0
M  V30 8132 O 765.818 -0.145889 5.70213 0
M  V30 8133 O 764.752 1.79265 5.74585 0
M  V30 8134 H 768.578 1.80983 2.43883 0
M  V30 8135 H 766.163 0.942226 1.15942 0
M  V30 8136 H 768.045 0.115536 4.21242 0
M  V30 8137 H 766.72 -0.514369 3.19587 0
M  V30 8138 H 765.627 1.80147 3.27869 0
M  V30 8139 H 766.96 2.35291 4.32318 0
M  V30 8140 N 768.612 -1.24939 0.960631 0
M  V30 8141 C 770.023 -1.74701 0.658529 0
M  V30 8142 C 770.374 -1.77967 -0.825959 0
M  V30 8143 O 769.499 -1.40444 -1.64634 0
M  V30 8144 C 770.094 -3.17263 1.18867 0
M  V30 8145 C 768.653 -3.64561 0.936614 0
M  V30 8146 C 767.8 -2.43423 1.32817 0
M  V30 8147 H 770.751 -1.10741 1.13676 0
M  V30 8148 H 770.772 -3.76481 0.551589 0
M  V30 8149 H 770.284 -3.14854 2.26912 0
M  V30 8150 H 768.385 -3.72378 -0.128608 0
M  V30 8151 H 768.498 -4.52392 1.57729 0
M  V30 8152 H 766.862 -2.43513 0.746548 0
M  V30 8153 H 767.645 -2.437 2.41796 0
M  V30 8154 N 770.09 -0.729906 -1.39679 0
M  V30 8155 C 771.022 -0.0470588 -2.29152 0
M  V30 8156 C 772.035 0.708808 -1.4656 0
M  V30 8157 O 773.224 0.553815 -1.69691 0
M  V30 8158 C 770.324 0.957612 -3.25089 0
M  V30 8159 C 769.497 0.264321 -4.36601 0
M  V30 8160 C 768.556 1.17638 -5.12882 0
M  V30 8161 O 767.582 0.655777 -5.6541 0
M  V30 8162 N 768.784 2.50649 -5.23598 0
M  V30 8163 H 771.549 -0.815364 -2.88395 0
M  V30 8164 H 769.11 -0.578707 -1.51204 0
M  V30 8165 H 771.102 1.57026 -3.72995 0
M  V30 8166 H 769.672 1.62716 -2.66912 0
M  V30 8167 H 768.892 -0.528732 -3.90638 0
M  V30 8168 H 770.18 -0.216344 -5.0834 0
M  V30 8169 H 769.578 2.95427 -4.82431 0
M  V30 8170 H 768.135 3.07022 -5.74961 0
M  V30 8171 N 771.568 1.50203 -0.477153 0
M  V30 8172 C 772.798 2.0647 0.0731427 0
M  V30 8173 C 773.206 1.3405 1.33518 0
M  V30 8174 O 772.549 0.405164 1.79176 0
M  V30 8175 C 772.611 3.57025 0.421121 0
M  V30 8176 C 772.275 4.50973 -0.739765 0
M  V30 8177 C 773.272 4.939 -1.62353 0
M  V30 8178 C 770.957 4.93581 -0.93181 0
M  V30 8179 C 772.951 5.78149 -2.6837 0
M  V30 8180 C 770.638 5.77612 -1.99519 0
M  V30 8181 C 771.636 6.19798 -2.86949 0
M  V30 8182 O 771.324 7.02152 -3.91456 0
M  V30 8183 H 771.056 0.675969 -0.00648243 0
M  V30 8184 H 773.61 1.94278 -0.66673 0
M  V30 8185 H 771.84 3.67141 1.21426 0
M  V30 8186 H 773.529 3.95632 0.907213 0
M  V30 8187 H 774.295 4.61646 -1.48687 0
M  V30 8188 H 770.174 4.60262 -0.260739 0
M  V30 8189 H 773.718 6.10997 -3.36643 0
M  V30 8190 H 769.615 6.09279 -2.13189 0
M  V30 8191 H 770.383 7.20414 -3.88518 0
M  V30 8192 N 773.046 0.209999 1.56195 0
M  V30 8193 C 773.978 -0.736967 2.17029 0
M  V30 8194 C 774.991 -1.16599 1.13616 0
M  V30 8195 O 776.18 -1.09914 1.40646 0
M  V30 8196 C 773.28 -2.00852 2.72969 0
M  V30 8197 C 772.453 -1.73691 4.01435 0
M  V30 8198 C 771.512 -2.85439 4.42053 0
M  V30 8199 O 770.538 -2.54405 5.09183 0
M  V30 8200 N 771.74 -4.14135 4.06783 0
M  V30 8201 H 774.505 -0.216656 2.98916 0
M  V30 8202 H 772.066 0.0285672 1.61875 0
M  V30 8203 H 774.058 -2.74778 2.97118 0
M  V30 8204 H 772.628 -2.43963 1.95451 0
M  V30 8205 H 771.848 -0.834676 3.85262 0
M  V30 8206 H 773.136 -1.52961 4.85263 0
M  V30 8207 H 772.534 -4.42196 3.52816 0
M  V30 8208 H 771.091 -4.84642 4.35851 0
M  V30 8209 N 774.524 -1.57472 -0.0634922 0
M  V30 8210 C 775.935 -1.76303 -0.614337 0
M  V30 8211 C 776.286 -0.836578 -1.77471 0
M  V30 8212 O 775.411 -0.0227184 -2.16388 0
M  V30 8213 C 776.006 -3.19709 -1.12122 0
M  V30 8214 C 774.565 -3.39856 -1.61786 0
M  V30 8215 C 773.712 -2.71975 -0.540845 0
M  V30 8216 H 776.663 -1.57864 0.162702 0
M  V30 8217 H 776.684 -3.24326 -1.98979 0
M  V30 8218 H 776.196 -3.87114 -0.276472 0
M  V30 8219 H 774.297 -2.77578 -2.48558 0
M  V30 8220 H 774.41 -4.48338 -1.68908 0
M  V30 8221 H 772.774 -2.34763 -0.987854 0
M  V30 8222 H 773.557 -3.4204 0.293856 0
M  V30 8223 N 776.003 0.335068 -1.53997 0
M  V30 8224 C 777.251 1.07223 -1.71312 0
M  V30 8225 C 777.572 1.88911 -0.483486 0
M  V30 8226 O 776.842 1.89344 0.50257 0
M  V30 8227 H 775.422 0.398846 -0.63161 0
M  V30 8228 H 778.084 0.374288 -1.91272 0
M  V30 8229 H 777.18 1.7448 -2.58772 0
M  V30 8230 N 777.481 1.45874 0.596531 0
M  V30 8231 C 778.758 1.40942 1.35627 0
M  V30 8232 C 779.138 0.0857066 2.10926 0
M  V30 8233 O 778.486 -0.932544 2.08605 0
M  V30 8234 C 778.696 2.63027 2.29386 0
M  V30 8235 C 780.044 3.08588 2.91649 0
M  V30 8236 O 781.068 2.63478 2.39704 0
M  V30 8237 O 779.927 3.86902 3.85965 0
M  V30 8238 H 777.021 0.559838 0.608696 0
M  V30 8239 H 779.567 1.5802 0.618698 0
M  V30 8240 H 778.339 3.5094 1.7308 0
M  V30 8241 H 777.962 2.48338 3.10506 0
M  V30 8242 N 778.959 -0.83999 1.33349 0
M  V30 8243 C 779.891 -1.95678 1.19344 0
M  V30 8244 C 780.904 -1.62322 0.124692 0
M  V30 8245 O 782.093 -1.74516 0.375012 0
M  V30 8246 C 779.193 -3.29133 0.807771 0
M  V30 8247 C 778.366 -3.9063 1.96792 0
M  V30 8248 C 777.425 -5.02438 1.56341 0
M  V30 8249 O 776.451 -5.21646 2.27759 0
M  V30 8250 N 777.653 -5.78612 0.467767 0
M  V30 8251 H 780.418 -2.08229 2.15548 0
M  V30 8252 H 777.979 -1.01566 1.26079 0
M  V30 8253 H 779.971 -4.01355 0.519282 0
M  V30 8254 H 778.541 -3.12535 -0.063555 0
M  V30 8255 H 777.761 -3.11011 2.4221 0
M  V30 8256 H 779.049 -4.2845 2.74422 0
M  V30 8257 H 778.447 -5.65559 -0.126324 0
M  V30 8258 H 777.004 -6.51362 0.238945 0
M  V30 8259 N 780.437 -1.16799 -1.0581 0
M  V30 8260 C 781.665 -0.97687 -1.82387 0
M  V30 8261 C 782.08 0.474917 -1.82729 0
M  V30 8262 O 781.437 1.3297 -1.25001 0
M  V30 8263 C 781.488 -1.50279 -3.28783 0
M  V30 8264 O 781.209 -2.89772 -3.28578 0
M  V30 8265 C 782.71 -1.35538 -4.22071 0
M  V30 8266 H 779.93 -0.345977 -0.574927 0
M  V30 8267 H 782.474 -1.54942 -1.33466 0
M  V30 8268 H 780.629 -0.972414 -3.74997 0
M  V30 8269 H 781.043 -3.13954 -4.20159 0
M  V30 8270 H 782.517 -1.7716 -5.22799 0
M  V30 8271 H 782.994 -0.301598 -4.38163 0
M  V30 8272 H 783.6 -1.87562 -3.81708 0
M  V30 8273 O 781.954 1.1855 -1.09673 0
M  V30 8274 H 782.645 1.76666 -0.794287 0
M  V30 END ATOM
M  V30 BEGIN BOND
M  V30 END BOND
M  V30 END CTAB
M  END
$$$$
