drugbank_target|P11511 Aromatase (DB00184; DB00357; DB00655; DB00894; DB00990; DB01006; DB01217; DB02342; DB03467; DB04539; DB05749)
 OpenBabel12092120043D

  0  0  0     0  0            999 V3000
M  V30 BEGIN CTAB
M  V30 COUNTS 8205 8295 0 0 0
M  V30 BEGIN ATOM
M  V30 1 H -0.908 1.98254 -0.117106 0
M  V30 2 N 0 1.576 0 0
M  V30 3 C 0.933 2.03868 1.02534 0
M  V30 4 C 1.911 0.928543 1.3348 0
M  V30 5 O 3.095 1.19667 1.45644 0
M  V30 6 C 0.222 2.43627 2.35294 0
M  V30 7 C -0.732 3.65373 2.2001 0
M  V30 8 S 0.101 5.13292 1.52614 0
M  V30 9 C 1.257 5.56322 2.86805 0
M  V30 10 H 1.49 2.90518 0.631377 0
M  V30 11 H -0.977 1.52953 0.210867 0
M  V30 12 H 0.981 2.67203 3.11629 0
M  V30 13 H -0.358 1.57376 2.7183 0
M  V30 14 H -1.165 3.90944 3.18086 0
M  V30 15 H -1.563 3.418 1.51819 0
M  V30 16 H 0.729 5.58782 3.83104 0
M  V30 17 H 1.672 6.56266 2.65933 0
M  V30 18 H 2.08 4.83886 2.90714 0
M  V30 19 N 1.4781 -0.272755 1.55222 0
M  V30 20 C 2.7241 -1.00581 1.761 0
M  V30 21 C 3.0571 -1.85932 0.560625 0
M  V30 22 O 2.3321 -1.89416 -0.441801 0
M  V30 23 C 2.6151 -1.88816 3.06628 0
M  V30 24 C 2.4681 -1.06457 4.37021 0
M  V30 25 C 3.7871 -2.8752 3.33197 0
M  V30 26 H 0.9061 -0.364244 0.640699 0
M  V30 27 H 3.5481 -0.278189 1.87952 0
M  V30 28 H 1.6981 -2.50856 2.96654 0
M  V30 29 H 3.3701 -0.464863 4.58952 0
M  V30 30 H 1.6131 -0.368043 4.32236 0
M  V30 31 H 2.2841 -1.71514 5.24678 0
M  V30 32 H 4.7601 -2.35615 3.42965 0
M  V30 33 H 3.6361 -3.46399 4.25792 0
M  V30 34 H 3.8971 -3.62657 2.52849 0
M  V30 35 N 2.9562 -1.48159 -0.537278 0
M  V30 36 C 3.8862 -1.65029 -1.6519 0
M  V30 37 C 4.8672 -0.499281 -1.62607 0
M  V30 38 O 6.0522 -0.730972 -1.79918 0
M  V30 39 C 3.1822 -1.68303 -3.03795 0
M  V30 40 C 2.1362 -2.8283 -3.21234 0
M  V30 41 C 1.4622 -2.71189 -4.60826 0
M  V30 42 C 2.7622 -4.24211 -3.04701 0
M  V30 43 H 4.4562 -2.58341 -1.51328 0
M  V30 44 H 2.0022 -1.24325 -0.726585 0
M  V30 45 H 3.9552 -1.78693 -3.81637 0
M  V30 46 H 2.6792 -0.715635 -3.18663 0
M  V30 47 H 1.3382 -2.71983 -2.45807 0
M  V30 48 H 0.9862 -1.72435 -4.7252 0
M  V30 49 H 0.6862 -3.48035 -4.7344 0
M  V30 50 H 2.2102 -2.83537 -5.40777 0
M  V30 51 H 3.6242 -4.3593 -3.72341 0
M  V30 52 H 2.0212 -5.01998 -3.28813 0
M  V30 53 H 3.0912 -4.41184 -2.01209 0
M  V30 54 N 4.4343 0.785586 -1.36625 0
M  V30 55 C 5.3443 1.92964 -1.33425 0
M  V30 56 C 6.3603 1.72394 -0.235851 0
M  V30 57 O 7.5363 1.95866 -0.468878 0
M  V30 58 C 4.6013 3.27884 -1.12662 0
M  V30 59 C 3.6623 3.61204 -2.32013 0
M  V30 60 C 2.8953 4.89687 -2.12231 0
M  V30 61 O 3.1183 5.59704 -1.09945 0
M  V30 62 O 2.0523 5.21752 -3.00098 0
M  V30 63 H 5.8783 1.98613 -2.29753 0
M  V30 64 H 3.4633 0.926384 -1.17211 0
M  V30 65 H 5.3453 4.08614 -1.03016 0
M  V30 66 H 4.0203 3.23118 -0.193991 0
M  V30 67 H 2.9273 2.80765 -2.47228 0
M  V30 68 H 4.2603 3.70698 -3.23796 0
M  V30 69 N 5.9124 1.20967 1.01018 0
M  V30 70 C 6.8454 0.907578 2.09376 0
M  V30 71 C 7.8234 -0.142868 1.61971 0
M  V30 72 O 9.0074 -0.0150391 1.88494 0
M  V30 73 C 6.1344 0.361791 3.36762 0
M  V30 74 C 5.1804 1.39423 4.03068 0
M  V30 75 S 6.0134 2.96159 4.4615 0
M  V30 76 C 7.1694 2.43173 5.7673 0
M  V30 77 H 7.4024 1.82519 2.34678 0
M  V30 78 H 4.9354 1.03884 1.14225 0
M  V30 79 H 6.8934 0.0534523 4.10465 0
M  V30 80 H 5.5544 -0.53443 3.0952 0
M  V30 81 H 4.7474 0.961853 4.94737 0
M  V30 82 H 4.3494 1.65038 3.35617 0
M  V30 83 H 6.6414 1.83335 6.52223 0
M  V30 84 H 7.5844 3.33264 6.24773 0
M  V30 85 H 7.9924 1.85069 5.33301 0
M  V30 86 N 7.3905 -1.2043 1.01659 0
M  V30 87 C 8.3205 -2.25466 0.607226 0
M  V30 88 C 9.3015 -1.65853 -0.377716 0
M  V30 89 O 10.4865 -1.92409 -0.263149 0
M  V30 90 C 7.6165 -3.47256 -0.0552949 0
M  V30 91 C 6.5705 -4.19462 0.850632 0
M  V30 92 C 5.8965 -5.34673 0.0538859 0
M  V30 93 C 7.1965 -4.75603 2.15868 0
M  V30 94 H 8.8905 -2.59962 1.48526 0
M  V30 95 H 6.4365 -1.2496 0.715605 0
M  V30 96 H 8.3895 -4.19917 -0.353233 0
M  V30 97 H 7.1135 -3.11924 -0.968045 0
M  V30 98 H 5.7725 -3.48667 1.13257 0
M  V30 99 H 5.4205 -4.95585 -0.860514 0
M  V30 100 H 5.1205 -5.83913 0.657192 0
M  V30 101 H 6.6445 -6.10138 -0.237598 0
M  V30 102 H 8.0585 -5.40083 1.92311 0
M  V30 103 H 6.4555 -5.3528 2.71284 0
M  V30 104 H 7.5255 -3.94346 2.82169 0
M  V30 105 N 8.8686 -0.792821 -1.36206 0
M  V30 106 C 9.8166 -0.181555 -2.3189 0
M  V30 107 C 10.8106 0.661025 -1.55971 0
M  V30 108 O 12.0166 0.555728 -1.71206 0
M  V30 109 H 8.3916 -0.0399382 -0.750939 0
M  V30 110 H 10.3626 -1.00394 -2.81005 0
M  V30 111 C 9.1116 0.666444 -3.41253 0
M  V30 112 H 8.4346 0.0274489 -3.99791 0
M  V30 113 H 9.8746 1.06076 -4.10517 0
M  V30 114 C 8.3336 1.82614 -2.83114 0
M  V30 115 O 8.8636 2.9229 -2.75553 0
M  V30 116 N 7.0696 1.63333 -2.40356 0
M  V30 117 H 6.6166 0.741217 -2.46706 0
M  V30 118 H 6.5746 2.41087 -2.01803 0
M  V30 119 N 10.3467 1.47872 -0.545128 0
M  V30 120 C 11.7577 1.86384 -0.108581 0
M  V30 121 C 12.1087 1.45309 1.31832 0
M  V30 122 O 11.2337 0.850641 1.9898 0
M  V30 123 C 11.8287 3.38265 -0.190274 0
M  V30 124 C 10.3877 3.75914 0.191164 0
M  V30 125 C 9.5347 2.71926 -0.543273 0
M  V30 126 H 12.4857 1.39561 -0.755537 0
M  V30 127 H 12.5067 3.75831 0.594217 0
M  V30 128 H 12.0187 3.6813 -1.2289 0
M  V30 129 H 10.1197 3.51665 1.23136 0
M  V30 130 H 10.2327 4.78836 -0.158987 0
M  V30 131 H 8.5967 2.54697 0.0122495 0
M  V30 132 H 9.3797 3.04634 -1.58282 0
M  V30 133 N 11.8248 0.280983 1.55075 0
M  V30 134 C 13.0738 -0.334784 1.98902 0
M  V30 135 C 13.3868 -1.56534 1.17288 0
M  V30 136 O 14.5928 -2.25443 1.51287 0
M  V30 137 C 13.0488 -0.646994 3.54037 0
M  V30 138 C 12.6568 0.564085 4.44435 0
M  V30 139 C 14.4008 -1.22506 4.06439 0
M  V30 140 C 12.3078 0.226137 5.90967 0
M  V30 141 H 11.2378 -0.128866 0.742906 0
M  V30 142 H 13.8888 0.386556 1.79382 0
M  V30 143 H 12.2708 -1.42739 3.6938 0
M  V30 144 H 13.4448 1.34082 4.40861 0
M  V30 145 H 11.7598 1.0594 4.02698 0
M  V30 146 H 14.3568 -1.49182 5.13468 0
M  V30 147 H 14.6998 -2.16085 3.55827 0
M  V30 148 H 15.2328 -0.50682 3.94558 0
M  V30 149 H 11.9718 1.12996 6.45687 0
M  V30 150 H 11.4918 -0.513717 5.97596 0
M  V30 151 H 13.1708 -0.179539 6.46751 0
M  V30 152 N 13.3029 -1.57598 0.00835791 0
M  V30 153 C 14.2529 -2.05431 -0.989045 0
M  V30 154 C 15.2369 -0.950662 -1.29812 0
M  V30 155 O 16.4289 -1.21438 -1.28771 0
M  V30 156 C 13.5579 -2.56801 -2.27833 0
M  V30 157 C 12.6439 -3.74058 -1.99853 0
M  V30 158 N 13.0349 -4.8544 -1.42062 0
M  V30 159 C 11.3329 -3.82148 -2.29953 0
M  V30 160 C 12.0339 -5.66817 -1.30743 0
M  V30 161 N 11.0099 -5.13077 -1.7959 0
M  V30 162 H 14.8119 -2.88955 -0.536853 0
M  V30 163 H 12.3259 -1.61199 -0.197148 0
M  V30 164 H 14.3229 -2.89349 -3.00137 0
M  V30 165 H 12.9829 -1.74699 -2.73698 0
M  V30 166 H 13.9939 -5.0612 -1.09833 0
M  V30 167 H 10.6709 -3.10916 -2.78635 0
M  V30 168 H 12.0609 -6.66343 -0.862328 0
M  V30 169 N 14.781 0.264519 -1.55364 0
M  V30 170 C 16.011 1.01153 -1.80143 0
M  V30 171 C 16.419 1.80115 -0.579253 0
M  V30 172 O 15.762 1.77813 0.46132 0
M  V30 173 C 15.824 2.01098 -2.97993 0
M  V30 174 C 15.488 1.40995 -4.34706 0
M  V30 175 C 16.485 0.821316 -5.13372 0
M  V30 176 C 14.17 1.43461 -4.81378 0
M  V30 177 C 16.164 0.265339 -6.36847 0
M  V30 178 C 13.851 0.874771 -6.04807 0
M  V30 179 C 14.849 0.291146 -6.82379 0
M  V30 180 O 14.537 -0.260093 -8.03479 0
M  V30 181 H 14.269 0.304125 -0.603725 0
M  V30 182 H 16.823 0.298089 -2.03225 0
M  V30 183 H 15.053 2.76224 -2.70623 0
M  V30 184 H 16.742 2.61997 -3.1002 0
M  V30 185 H 17.508 0.794903 -4.78442 0
M  V30 186 H 13.387 1.87826 -4.21002 0
M  V30 187 H 16.931 -0.190837 -6.97339 0
M  V30 188 H 12.828 0.898452 -6.39217 0
M  V30 189 H 13.596 -0.150265 -8.18362 0
M  V30 190 N 16.2591 1.48442 0.529413 0
M  V30 191 C 17.2071 1.63452 1.65487 0
M  V30 192 C 18.2011 0.500955 1.61823 0
M  V30 193 O 19.4071 0.679695 1.66674 0
M  V30 194 H 15.7821 0.514905 0.548066 0
M  V30 195 H 17.7531 2.57975 1.49971 0
M  V30 196 C 16.5021 1.69196 3.03756 0
M  V30 197 H 15.8251 2.55784 3.07269 0
M  V30 198 H 17.2651 1.83743 3.82119 0
M  V30 199 C 15.7241 0.430765 3.34135 0
M  V30 200 O 16.2541 -0.4561 3.99102 0
M  V30 201 N 14.4601 0.302293 2.89023 0
M  V30 202 H 14.0071 1.02496 2.36331 0
M  V30 203 H 13.9651 -0.540546 3.09718 0
M  V30 204 N 17.7372 -0.778329 1.37039 0
M  V30 205 C 18.9862 -1.53189 1.3121 0
M  V30 206 C 19.2992 -1.95328 -0.103095 0
M  V30 207 O 20.5052 -2.70012 -0.283826 0
M  V30 208 C 18.9612 -2.76591 2.30272 0
M  V30 209 C 18.5692 -2.41577 3.77286 0
M  V30 210 C 20.3132 -3.5455 2.33441 0
M  V30 211 C 18.2202 -3.61441 4.68096 0
M  V30 212 H 17.1502 -0.5751 0.487622 0
M  V30 213 H 19.8012 -0.853101 1.62464 0
M  V30 214 H 18.1832 -3.46326 1.92027 0
M  V30 215 H 19.3572 -1.79668 4.2433 0
M  V30 216 H 17.6722 -1.76806 3.76999 0
M  V30 217 H 20.2692 -4.43628 2.98493 0
M  V30 218 H 20.6122 -3.93936 1.34611 0
M  V30 219 H 21.1452 -2.91805 2.7036 0
M  V30 220 H 17.8842 -3.27142 5.6803 0
M  V30 221 H 17.4042 -4.22478 4.25761 0
M  V30 222 H 19.0832 -4.28335 4.8491 0
M  V30 223 N 19.2153 -1.21501 -1.00376 0
M  V30 224 C 20.4433 -1.059 -1.77744 0
M  V30 225 C 20.8583 0.391125 -1.84704 0
M  V30 226 O 20.2153 1.27133 -1.30933 0
M  V30 227 C 20.2663 -1.65111 -3.21591 0
M  V30 228 O 19.9873 -3.0445 -3.15027 0
M  V30 229 C 21.4883 -1.54637 -4.15454 0
M  V30 230 H 18.7083 -0.371825 -0.558558 0
M  V30 231 H 21.2523 -1.60865 -1.26264 0
M  V30 232 H 19.4073 -1.14235 -3.70175 0
M  V30 233 H 19.8213 -3.3278 -4.0541 0
M  V30 234 H 21.2953 -2.00808 -5.14179 0
M  V30 235 H 21.7723 -0.501022 -4.36333 0
M  V30 236 H 22.3783 -2.04767 -3.72761 0
M  V30 237 N 20.6934 1.19889 -1.02296 0
M  V30 238 C 21.9184 1.9393 -0.735237 0
M  V30 239 C 22.3434 1.74639 0.698782 0
M  V30 240 O 21.7014 1.04481 1.48167 0
M  V30 241 C 21.7494 3.43916 -1.08417 0
M  V30 242 O 20.8534 4.11917 -0.199446 0
M  V30 243 H 20.1944 0.605645 -0.272196 0
M  V30 244 H 22.7244 1.52137 -1.36804 0
M  V30 245 H 22.7344 3.9456 -1.03856 0
M  V30 246 H 21.4094 3.5728 -2.12894 0
M  V30 247 H 19.9864 3.71666 -0.303136 0
M  V30 248 N 22.1715 0.800033 1.35784 0
M  V30 249 C 23.4205 0.37387 1.98205 0
M  V30 250 C 23.7335 -1.06302 1.64193 0
M  V30 251 O 24.9395 -1.59198 2.19928 0
M  V30 252 C 23.3955 0.617532 3.54562 0
M  V30 253 C 23.0035 2.06654 3.9749 0
M  V30 254 C 24.7475 0.256401 4.23725 0
M  V30 255 C 22.6545 2.2563 5.46667 0
M  V30 256 H 21.5845 0.136055 0.741623 0
M  V30 257 H 24.2355 0.983166 1.54939 0
M  V30 258 H 22.6175 -0.0616248 3.95952 0
M  V30 259 H 23.7915 2.78296 3.67271 0
M  V30 260 H 22.1065 2.38691 3.41197 0
M  V30 261 H 24.7035 0.376318 5.33374 0
M  V30 262 H 25.0465 -0.796692 4.08606 0
M  V30 263 H 25.5795 0.889214 3.87734 0
M  V30 264 H 22.3185 3.2936 5.66747 0
M  V30 265 H 21.8385 1.58504 5.78478 0
M  V30 266 H 23.5175 2.06861 6.1304 0
M  V30 267 N 23.6496 -1.47581 0.552962 0
M  V30 268 C 24.8956 -2.02782 0.0273648 0
M  V30 269 C 25.2286 -1.42687 -1.31734 0
M  V30 270 O 24.5036 -0.580897 -1.85623 0
M  V30 271 C 24.7866 -3.60031 -0.0702371 0
M  V30 272 C 24.6396 -4.30566 1.30126 0
M  V30 273 C 25.9586 -4.33028 -0.785771 0
M  V30 274 H 23.0776 -0.736912 0.0114185 0
M  V30 275 H 25.7196 -1.76056 0.714432 0
M  V30 276 H 23.8696 -3.82932 -0.655382 0
M  V30 277 H 25.5416 -4.19018 1.92929 0
M  V30 278 H 23.7846 -3.91086 1.87709 0
M  V30 279 H 24.4556 -5.39114 1.18573 0
M  V30 280 H 26.9316 -4.15095 -0.288982 0
M  V30 281 H 25.8076 -5.42695 -0.823013 0
M  V30 282 H 26.0686 -4.01945 -1.841 0
M  V30 283 N 25.1277 -0.289203 -1.54924 0
M  V30 284 C 26.5387 0.205791 -1.85562 0
M  V30 285 C 26.8897 1.54351 -1.2112 0
M  V30 286 O 26.0147 2.10435 -0.504601 0
M  V30 287 C 26.6097 0.380177 -3.3666 0
M  V30 288 C 25.1687 0.819395 -3.67373 0
M  V30 289 C 24.3157 -0.079159 -2.77187 0
M  V30 290 H 27.2667 -0.510577 -1.50262 0
M  V30 291 H 27.2877 1.21659 -3.60526 0
M  V30 292 H 26.7997 -0.593589 -3.83534 0
M  V30 293 H 24.9007 1.80413 -3.26009 0
M  V30 294 H 25.0137 0.646957 -4.74712 0
M  V30 295 H 23.3777 0.439565 -2.50878 0
M  V30 296 H 24.1607 -1.04906 -3.26878 0
M  V30 297 N 26.6058 1.57591 -0.0167156 0
M  V30 298 C 27.5158 2.1291 0.98521 0
M  V30 299 C 28.5318 1.07834 1.36557 0
M  V30 300 O 29.7078 1.39826 1.44951 0
M  V30 301 C 26.7728 2.63512 2.25305 0
M  V30 302 C 25.8338 3.83256 1.93426 0
M  V30 303 C 25.0668 4.31435 3.14165 0
M  V30 304 O 25.2898 3.78851 4.26413 0
M  V30 305 O 24.2238 5.23416 2.97186 0
M  V30 306 H 28.0498 2.98772 0.544888 0
M  V30 307 H 25.6348 1.48012 0.203141 0
M  V30 308 H 27.5168 2.96183 2.99756 0
M  V30 309 H 26.1918 1.8074 2.68542 0
M  V30 310 H 25.0988 3.55531 1.16398 0
M  V30 311 H 26.4318 4.67153 1.55013 0
M  V30 312 N 28.0839 -0.256276 1.55502 0
M  V30 313 C 29.0469 -1.30047 1.88734 0
M  V30 314 C 30.0469 -1.4154 0.763086 0
M  V30 315 O 31.2369 -1.40403 1.03115 0
M  V30 316 C 28.3689 -2.67953 2.10747 0
M  V30 317 H 29.5619 -1.01802 2.82093 0
M  V30 318 H 27.1149 -0.495134 1.4825 0
M  V30 319 H 27.8499 -3.01351 1.19825 0
M  V30 320 H 27.6349 -2.60993 2.92617 0
M  V30 321 H 29.1249 -3.43368 2.37673 0
M  V30 322 N 29.562 -1.4872 -0.521534 0
M  V30 323 C 30.495 -1.58451 -1.64221 0
M  V30 324 C 31.473 -0.434513 -1.56687 0
M  V30 325 O 32.657 -0.647275 -1.77038 0
M  V30 326 C 29.784 -1.52037 -3.02659 0
M  V30 327 C 28.83 -2.71981 -3.28525 0
M  V30 328 S 29.663 -4.33869 -3.13876 0
M  V30 329 C 30.819 -4.30067 -4.54745 0
M  V30 330 H 31.052 -2.53256 -1.55719 0
M  V30 331 H 28.585 -1.37358 -0.705143 0
M  V30 332 H 30.543 -1.49023 -3.82495 0
M  V30 333 H 29.204 -0.585541 -3.08594 0
M  V30 334 H 28.397 -2.63656 -4.29536 0
M  V30 335 H 27.999 -2.72302 -2.56374 0
M  V30 336 H 30.291 -4.00521 -5.46433 0
M  V30 337 H 31.234 -5.31287 -4.68123 0
M  V30 338 H 31.642 -3.60419 -4.34463 0
M  V30 339 N 31.0401 0.771051 -1.3745 0
M  V30 340 C 32.4511 1.34737 -1.29239 0
M  V30 341 C 32.8021 1.96109 0.0596908 0
M  V30 342 O 31.9271 1.93865 0.961534 0
M  V30 343 C 32.5221 2.44973 -2.34037 0
M  V30 344 C 31.0811 2.98372 -2.29458 0
M  V30 345 C 30.2281 1.71595 -2.17831 0
M  V30 346 H 33.1791 0.571256 -1.48062 0
M  V30 347 H 33.2001 3.24471 -1.98744 0
M  V30 348 H 32.7121 2.00276 -3.32432 0
M  V30 349 H 30.8131 3.47443 -1.34589 0
M  V30 350 H 30.9261 3.53939 -3.229 0
M  V30 351 H 29.2901 1.94547 -1.64388 0
M  V30 352 H 30.0731 1.29001 -3.18141 0
M  V30 353 N 32.5182 1.22032 0.997298 0
M  V30 354 C 33.4812 0.987909 2.06816 0
M  V30 355 C 34.4812 -0.0440084 1.6074 0
M  V30 356 O 35.6712 0.194053 1.73116 0
M  V30 357 C 32.8032 0.49132 3.37341 0
M  V30 358 H 33.9962 1.93803 2.28868 0
M  V30 359 H 31.5492 1.03838 1.16822 0
M  V30 360 H 32.2842 -0.463364 3.20973 0
M  V30 361 H 32.0692 1.23575 3.72118 0
M  V30 362 H 33.5592 0.348824 4.16141 0
M  V30 363 N 33.9963 -1.19345 1.0293 0
M  V30 364 C 34.9593 -2.20793 0.615069 0
M  V30 365 C 35.9593 -1.57553 -0.321533 0
M  V30 366 O 37.1493 -1.73862 -0.108483 0
M  V30 367 C 34.2813 -3.40754 -0.0999222 0
M  V30 368 H 35.4743 -2.58955 1.51269 0
M  V30 369 H 33.0273 -1.3303 0.820534 0
M  V30 370 H 33.7623 -3.0811 -1.01187 0
M  V30 371 H 33.5473 -3.87889 0.57309 0
M  V30 372 H 35.0373 -4.15898 -0.376645 0
M  V30 373 N 35.4744 -0.807222 -1.35358 0
M  V30 374 C 36.7024 -0.400377 -2.02989 0
M  V30 375 C 37.1174 0.988859 -1.60832 0
M  V30 376 O 36.4744 1.63729 -0.806175 0
M  V30 377 C 36.5254 -0.474867 -3.58368 0
M  V30 378 O 36.2464 -1.80933 -3.98992 0
M  V30 379 C 37.7474 -0.0609112 -4.43258 0
M  V30 380 H 34.9674 -0.162587 -0.651004 0
M  V30 381 H 37.5114 -1.09102 -1.72965 0
M  V30 382 H 35.6664 0.167534 -3.87038 0
M  V30 383 H 36.0804 -1.77256 -4.9364 0
M  V30 384 H 37.5544 -0.164145 -5.51756 0
M  V30 385 H 38.0314 0.993831 -4.27808 0
M  V30 386 H 38.6374 -0.676492 -4.19885 0
M  V30 387 N 36.9525 1.47285 -0.560781 0
M  V30 388 C 37.8855 2.27009 0.232821 0
M  V30 389 C 38.8635 1.34273 0.917039 0
M  V30 390 O 40.0475 1.63659 0.935315 0
M  V30 391 C 37.1745 3.11406 1.33206 0
M  V30 392 C 36.2205 4.19746 0.756019 0
M  V30 393 S 37.0535 5.34003 -0.400165 0
M  V30 394 C 38.2095 6.21964 0.700805 0
M  V30 395 H 38.4425 2.93971 -0.443683 0
M  V30 396 H 35.9755 1.50446 -0.347181 0
M  V30 397 H 37.9335 3.60601 1.96156 0
M  V30 398 H 36.5945 2.438 1.98041 0
M  V30 399 H 35.7875 4.78541 1.5816 0
M  V30 400 H 35.3895 3.73451 0.202619 0
M  V30 401 H 37.6815 6.58529 1.59202 0
M  V30 402 H 38.6245 7.07941 0.150126 0
M  V30 403 H 39.0325 5.5566 0.995083 0
M  V30 404 N 38.4306 0.297415 1.54768 0
M  V30 405 C 39.8416 -0.195947 1.85669 0
M  V30 406 C 40.1926 -1.53707 1.21937 0
M  V30 407 O 39.3176 -2.10164 0.515754 0
M  V30 408 C 39.9126 -0.362318 3.36857 0
M  V30 409 C 38.4716 -0.799901 3.67802 0
M  V30 410 C 37.6186 0.0938578 2.77141 0
M  V30 411 H 40.5696 0.518538 1.4999 0
M  V30 412 H 40.5906 -1.19745 3.61167 0
M  V30 413 H 40.1026 0.613921 3.83214 0
M  V30 414 H 38.2036 -1.78682 3.26961 0
M  V30 415 H 38.3166 -0.621773 4.75048 0
M  V30 416 H 36.6806 -0.426254 2.51108 0
M  V30 417 H 37.4636 1.06639 3.26318 0
M  V30 418 N 39.9087 -1.5758 0.0250728 0
M  V30 419 C 41.1547 -1.91917 -0.655413 0
M  V30 420 C 41.4877 -0.901433 -1.72011 0
M  V30 421 O 40.7627 0.0764069 -1.9435 0
M  V30 422 C 41.0457 -3.36751 -1.27558 0
M  V30 423 C 40.8987 -4.49258 -0.220719 0
M  V30 424 C 42.2177 -3.81469 -2.19475 0
M  V30 425 H 39.3367 -0.697925 -0.23679 0
M  V30 426 H 41.9787 -1.89825 0.0815036 0
M  V30 427 H 40.1287 -3.38664 -1.90365 0
M  V30 428 H 41.8007 -4.59478 0.409601 0
M  V30 429 H 40.0437 -4.31415 0.454264 0
M  V30 430 H 40.7147 -5.47618 -0.694175 0
M  V30 431 H 43.1907 -3.81266 -1.66659 0
M  V30 432 H 42.0667 -4.83512 -2.59822 0
M  V30 433 H 42.3277 -3.16744 -3.08424 0
M  V30 434 N 41.3868 0.248026 -1.55636 0
M  V30 435 C 42.3168 1.31079 -1.93237 0
M  V30 436 C 43.2978 1.50264 -0.797174 0
M  V30 437 O 44.4828 1.62891 -1.05737 0
M  V30 438 C 41.6128 2.66575 -2.22609 0
M  V30 439 C 40.5668 2.62087 -3.3837 0
M  V30 440 C 39.8928 4.01369 -3.53281 0
M  V30 441 C 41.1928 2.19171 -4.7409 0
M  V30 442 H 42.8868 0.998556 -2.82257 0
M  V30 443 H 40.4328 0.47891 -1.35803 0
M  V30 444 H 42.3858 3.41057 -2.47503 0
M  V30 445 H 41.1098 2.99432 -1.30414 0
M  V30 446 H 39.7688 1.90063 -3.13483 0
M  V30 447 H 39.4168 4.31489 -2.58508 0
M  V30 448 H 39.1168 3.99254 -4.31127 0
M  V30 449 H 40.6408 4.77552 -3.80495 0
M  V30 450 H 42.0548 2.83384 -4.98363 0
M  V30 451 H 40.4518 2.2817 -5.5503 0
M  V30 452 H 41.5218 1.14336 -4.71227 0
M  V30 453 N 42.8649 1.48995 0.513639 0
M  V30 454 C 43.7949 1.67636 1.62544 0
M  V30 455 C 44.7759 0.525087 1.61793 0
M  V30 456 O 45.9609 0.759502 1.78732 0
M  V30 457 C 43.0909 1.73114 3.01079 0
M  V30 458 C 42.0449 2.87905 3.16693 0
M  V30 459 C 41.3709 2.78486 4.56453 0
M  V30 460 C 42.6709 4.29005 2.97913 0
M  V30 461 H 44.3649 2.60716 1.47198 0
M  V30 462 H 41.9109 1.25465 0.706714 0
M  V30 463 H 43.8639 1.84742 3.78746 0
M  V30 464 H 42.5879 0.766241 3.17484 0
M  V30 465 H 41.2469 2.75859 2.41448 0
M  V30 466 H 40.8949 1.7993 4.69717 0
M  V30 467 H 40.5949 3.55523 4.67843 0
M  V30 468 H 42.1189 2.92104 5.36197 0
M  V30 469 H 43.5329 4.41798 3.65359 0
M  V30 470 H 41.9299 5.07166 3.20785 0
M  V30 471 H 42.9999 4.44329 1.94165 0
M  V30 472 N 44.343 -0.763751 1.37857 0
M  V30 473 C 45.273 -1.89103 1.36975 0
M  V30 474 C 46.254 -1.68439 0.237152 0
M  V30 475 O 47.439 -1.8918 0.438713 0
M  V30 476 C 44.569 -3.26496 1.18395 0
M  V30 477 C 43.523 -3.61741 2.28751 0
M  V30 478 C 42.849 -4.97762 1.95286 0
M  V30 479 C 44.149 -3.67665 3.70972 0
M  V30 480 H 45.843 -1.90099 2.31307 0
M  V30 481 H 43.389 -0.91319 1.11341 0
M  V30 482 H 45.342 -4.05003 1.16406 0
M  V30 483 H 44.066 -3.25955 0.205215 0
M  V30 484 H 42.725 -2.85547 2.29909 0
M  V30 485 H 42.373 -4.93769 0.959221 0
M  V30 486 H 42.073 -5.22313 2.69189 0
M  V30 487 H 43.597 -5.7866 1.94898 0
M  V30 488 H 45.011 -4.36307 3.719 0
M  V30 489 H 43.408 -4.03718 4.43995 0
M  V30 490 H 44.478 -2.68134 4.0402 0
M  V30 491 N 45.8211 -1.22559 -0.990812 0
M  V30 492 C 47.0491 -1.07779 -1.76611 0
M  V30 493 C 47.4641 0.371513 -1.85109 0
M  V30 494 O 46.8211 1.25737 -1.32274 0
M  V30 495 C 46.8721 -1.68512 -3.19822 0
M  V30 496 O 46.5931 -3.07774 -3.1178 0
M  V30 497 C 48.0941 -1.59035 -4.13791 0
M  V30 498 H 45.3141 -0.377729 -0.554583 0
M  V30 499 H 47.8581 -1.62195 -1.24551 0
M  V30 500 H 46.0131 -1.18154 -3.68942 0
M  V30 501 H 46.4271 -3.37062 -4.01858 0
M  V30 502 H 47.9011 -2.0625 -5.1202 0
M  V30 503 H 48.3781 -0.547273 -4.35777 0
M  V30 504 H 48.9841 -2.08709 -3.70568 0
M  V30 505 N 47.2992 1.18797 -1.03562 0
M  V30 506 C 48.5472 1.88278 -0.734569 0
M  V30 507 C 48.8682 1.8043 0.739586 0
M  V30 508 O 48.1382 1.21925 1.53333 0
M  V30 509 H 46.7182 0.696991 -0.268725 0
M  V30 510 H 49.3802 1.44192 -1.31129 0
M  V30 511 H 48.4762 2.94443 -1.03489 0
M  V30 512 N 48.7773 0.814389 1.34928 0
M  V30 513 C 49.7073 0.244827 2.32213 0
M  V30 514 C 50.6883 -0.634024 1.57842 0
M  V30 515 O 51.8733 -0.562676 1.8587 0
M  V30 516 C 49.0033 -0.601106 3.42058 0
M  V30 517 C 47.9573 0.179896 4.27622 0
M  V30 518 C 47.2833 -0.788237 5.28858 0
M  V30 519 C 48.5833 1.38329 5.03649 0
M  V30 520 H 50.2773 1.05763 2.80097 0
M  V30 521 H 47.8233 0.510029 1.34665 0
M  V30 522 H 49.7763 -1.00968 4.09125 0
M  V30 523 H 48.5003 -1.44688 2.92802 0
M  V30 524 H 47.1593 0.569739 3.62146 0
M  V30 525 H 46.8073 -1.62973 4.75866 0
M  V30 526 H 46.5073 -0.269942 5.8698 0
M  V30 527 H 48.0313 -1.19485 5.98795 0
M  V30 528 H 49.4453 1.04918 5.63618 0
M  V30 529 H 47.8423 1.83662 5.71304 0
M  V30 530 H 48.9123 2.16592 4.33839 0
M  V30 531 N 50.2554 -1.46986 0.568584 0
M  V30 532 C 51.5024 -2.02441 0.0487986 0
M  V30 533 C 51.8304 -1.44169 -1.30559 0
M  V30 534 O 51.0854 -0.591213 -1.86556 0
M  V30 535 C 51.3844 -3.57306 -0.081836 0
M  V30 536 C 51.0504 -4.34552 1.20313 0
M  V30 537 C 49.7124 -4.55376 1.5552 0
M  V30 538 C 52.0644 -4.79016 2.05411 0
M  V30 539 C 49.3924 -5.17913 2.7565 0
M  V30 540 C 51.7444 -5.42879 3.24754 0
M  V30 541 C 50.4084 -5.61933 3.60261 0
M  V30 542 H 49.6784 -0.740785 0.0178567 0
M  V30 543 H 52.3254 -1.76525 0.742384 0
M  V30 544 H 50.6304 -3.8228 -0.858463 0
M  V30 545 H 52.3274 -3.97876 -0.499546 0
M  V30 546 H 48.9174 -4.18631 0.919014 0
M  V30 547 H 53.1014 -4.62696 1.79516 0
M  V30 548 H 48.3574 -5.30858 3.03315 0
M  V30 549 H 52.5314 -5.76293 3.90973 0
M  V30 550 H 50.1584 -6.10161 4.53439 0
M  V30 551 N 51.7335 -0.305618 -1.54608 0
M  V30 552 C 52.6635 0.561482 -2.26649 0
M  V30 553 C 53.6445 1.13415 -1.26772 0
M  V30 554 O 54.8295 1.16262 -1.55553 0
M  V30 555 C 51.9595 1.73122 -3.01075 0
M  V30 556 C 50.9135 1.2887 -4.08138 0
M  V30 557 C 50.2395 2.54396 -4.70305 0
M  V30 558 C 51.5395 0.416578 -5.20636 0
M  V30 559 H 53.2335 -0.0393902 -2.99374 0
M  V30 560 H 50.7795 -0.020385 -1.43986 0
M  V30 561 H 52.7325 2.34396 -3.50195 0
M  V30 562 H 51.4565 2.3584 -2.25936 0
M  V30 563 H 50.1155 0.698991 -3.59875 0
M  V30 564 H 49.7635 3.15439 -3.918 0
M  V30 565 H 49.4635 2.25486 -5.42614 0
M  V30 566 H 50.9875 3.16464 -5.2219 0
M  V30 567 H 52.4015 0.935116 -5.65622 0
M  V30 568 H 50.7985 0.221046 -5.99693 0
M  V30 569 H 51.8685 -0.557162 -4.81688 0
M  V30 570 N 53.2116 1.57565 -0.0334293 0
M  V30 571 C 54.1416 2.13511 0.945265 0
M  V30 572 C 55.1226 1.05231 1.33643 0
M  V30 573 O 56.3076 1.33084 1.41429 0
M  V30 574 C 53.4376 2.6657 2.22616 0
M  V30 575 C 52.3916 3.79676 1.97561 0
M  V30 576 C 51.7176 4.1918 3.31952 0
M  V30 577 C 53.0176 5.0557 1.31135 0
M  V30 578 H 54.7116 2.95538 0.479325 0
M  V30 579 H 52.2576 1.42166 0.229115 0
M  V30 580 H 54.2106 3.04344 2.91466 0
M  V30 581 H 52.9346 1.8171 2.71384 0
M  V30 582 H 51.5936 3.42347 1.31127 0
M  V30 583 H 51.2416 3.31296 3.78487 0
M  V30 584 H 50.9416 4.95402 3.15992 0
M  V30 585 H 52.4656 4.59541 4.02063 0
M  V30 586 H 53.8796 5.40903 1.89992 0
M  V30 587 H 52.2766 5.86818 1.25559 0
M  V30 588 H 53.3466 4.84062 0.284894 0
M  V30 589 N 54.6897 -0.239769 1.55765 0
M  V30 590 C 55.9357 -0.968234 1.78194 0
M  V30 591 C 56.2687 -1.84701 0.599938 0
M  V30 592 O 55.5437 -1.9031 -0.401524 0
M  V30 593 C 55.8267 -1.8227 3.10564 0
M  V30 594 C 55.6797 -0.971633 4.3918 0
M  V30 595 C 56.9987 -2.80388 3.39221 0
M  V30 596 H 54.1177 -0.350572 0.648281 0
M  V30 597 H 56.7597 -0.238259 1.885 0
M  V30 598 H 54.9097 -2.44507 3.01908 0
M  V30 599 H 56.5817 -0.367408 4.59835 0
M  V30 600 H 54.8247 -0.276276 4.32919 0
M  V30 601 H 55.4957 -1.60346 5.28198 0
M  V30 602 H 57.9717 -2.28287 3.47885 0
M  V30 603 H 56.8477 -3.3729 4.33044 0
M  V30 604 H 57.1087 -3.57212 2.60484 0
M  V30 605 N 56.1678 -1.49265 -0.50573 0
M  V30 606 C 57.4138 -1.59723 -1.25937 0
M  V30 607 C 57.7688 -0.278236 -1.90378 0
M  V30 608 O 57.0618 0.72113 -1.77511 0
M  V30 609 C 57.2558 -2.69008 -2.35308 0
M  V30 610 C 57.0848 -4.11405 -1.81592 0
M  V30 611 C 55.8548 -4.78252 -1.63105 0
M  V30 612 C 58.0528 -4.96792 -1.33048 0
M  V30 613 N 56.0348 -6.0498 -1.04269 0
M  V30 614 C 57.4058 -6.13962 -0.863168 0
M  V30 615 C 59.4608 -4.82828 -1.21577 0
M  V30 616 C 58.1638 -7.18705 -0.292489 0
M  V30 617 C 60.1898 -5.87716 -0.65907 0
M  V30 618 C 59.5518 -7.0411 -0.201954 0
M  V30 619 H 55.6508 -0.638864 -0.450973 0
M  V30 620 H 58.2348 -1.86251 -0.567326 0
M  V30 621 H 56.4058 -2.4426 -3.01979 0
M  V30 622 H 58.1378 -2.69013 -3.02348 0
M  V30 623 H 54.8928 -4.34974 -1.87336 0
M  V30 624 H 55.3168 -6.72631 -0.767919 0
M  V30 625 H 59.9588 -3.93159 -1.55518 0
M  V30 626 H 57.6768 -8.08078 0.0591987 0
M  V30 627 H 61.2628 -5.7897 -0.573156 0
M  V30 628 H 60.1428 -7.83885 0.222101 0
M  V30 629 N 57.6459 0.756429 -1.3826 0
M  V30 630 C 58.5939 1.89149 -1.35372 0
M  V30 631 C 59.5879 1.67691 -0.24004 0
M  V30 632 O 60.7939 1.75294 -0.408919 0
M  V30 633 H 57.1689 0.622271 -0.422236 0
M  V30 634 H 59.1399 1.88701 -2.31159 0
M  V30 635 C 57.8889 3.26599 -1.19284 0
M  V30 636 H 57.2119 3.43695 -2.0424 0
M  V30 637 H 58.6519 4.06274 -1.21316 0
M  V30 638 C 57.1109 3.3675 0.100454 0
M  V30 639 O 57.6409 3.86951 1.07851 0
M  V30 640 N 55.8469 2.90179 0.15633 0
M  V30 641 H 55.3939 2.49517 -0.640253 0
M  V30 642 H 55.3519 2.97352 1.02123 0
M  V30 643 N 59.124 1.23083 0.984299 0
M  V30 644 C 60.354 1.08556 1.75781 0
M  V30 645 C 60.762 -0.366171 1.85623 0
M  V30 646 O 60.105 -1.26524 1.33182 0
M  V30 647 C 60.167 1.63208 3.20318 0
M  V30 648 C 59.831 3.11922 3.33997 0
M  V30 649 C 60.828 4.09259 3.2063 0
M  V30 650 C 58.513 3.51552 3.58771 0
M  V30 651 C 60.507 5.4421 3.31835 0
M  V30 652 C 58.194 4.86649 3.69616 0
M  V30 653 C 59.192 5.82787 3.56157 0
M  V30 654 O 58.88 7.15431 3.66626 0
M  V30 655 H 58.612 0.380713 0.5586 0
M  V30 656 H 61.166 1.63321 1.2456 0
M  V30 657 H 59.396 1.0286 3.72769 0
M  V30 658 H 61.085 1.44216 3.79416 0
M  V30 659 H 61.851 3.79984 3.01392 0
M  V30 660 H 57.73 2.77239 3.6832 0
M  V30 661 H 61.274 6.1923 3.21247 0
M  V30 662 H 57.171 5.15601 3.88363 0
M  V30 663 H 57.939 7.23127 3.83445 0
M  V30 664 N 60.6021 -1.18246 1.0419 0
M  V30 665 C 61.5121 -2.25574 0.644476 0
M  V30 666 C 62.5281 -1.70845 -0.329826 0
M  V30 667 O 63.7041 -2.00554 -0.184443 0
M  V30 668 C 60.7691 -3.46697 0.014877 0
M  V30 669 C 59.8301 -4.16554 1.03834 0
M  V30 670 C 59.0631 -5.31894 0.438692 0
M  V30 671 O 59.2861 -5.65385 -0.754752 0
M  V30 672 O 58.2201 -5.90459 1.168 0
M  V30 673 H 62.0461 -2.61836 1.53869 0
M  V30 674 H 59.6311 -1.25352 0.812854 0
M  V30 675 H 61.5131 -4.20062 -0.335538 0
M  V30 676 H 60.1881 -3.12255 -0.853138 0
M  V30 677 H 59.0951 -3.45251 1.44057 0
M  V30 678 H 60.4281 -4.54998 1.87716 0
M  V30 679 N 62.0802 -0.821533 -1.34494 0
M  V30 680 C 63.3282 -0.408139 -1.97936 0
M  V30 681 C 63.6492 1.03193 -1.65457 0
M  V30 682 O 62.9192 1.71622 -0.944595 0
M  V30 683 H 61.4992 -0.147928 -0.732206 0
M  V30 684 H 64.1612 -1.05067 -1.64155 0
M  V30 685 H 63.2572 -0.52601 -3.07635 0
M  V30 686 N 63.5583 1.46682 -0.576371 0
M  V30 687 C 64.7863 2.06798 -0.0649635 0
M  V30 688 C 65.2013 1.42612 1.23723 0
M  V30 689 O 64.5583 0.529203 1.74659 0
M  V30 690 C 64.6093 3.6132 0.114202 0
M  V30 691 O 64.3303 4.23104 -1.13644 0
M  V30 692 C 65.8313 4.38349 0.66069 0
M  V30 693 H 63.0513 0.668778 -0.0545616 0
M  V30 694 H 65.5953 1.88404 -0.795237 0
M  V30 695 H 63.7503 3.79162 0.794673 0
M  V30 696 H 64.1643 5.15894 -0.946253 0
M  V30 697 H 65.6383 5.47081 0.73526 0
M  V30 698 H 66.1153 4.05953 1.67627 0
M  V30 699 H 66.7213 4.25297 0.0152951 0
M  V30 700 N 65.0364 0.313813 1.54444 0
M  V30 701 C 66.2614 -0.296681 2.05267 0
M  V30 702 C 66.6864 -1.45757 1.18897 0
M  V30 703 O 66.0444 -1.80239 0.195886 0
M  V30 704 C 66.0924 -0.71831 3.53373 0
M  V30 705 O 65.1964 -1.82175 3.69981 0
M  V30 706 H 64.5374 -0.0554061 0.661684 0
M  V30 707 H 67.0674 0.459387 1.99376 0
M  V30 708 H 67.0774 -1.00364 3.95463 0
M  V30 709 H 65.7524 0.130821 4.15694 0
M  V30 710 H 64.3294 -1.53598 3.39797 0
M  V30 711 N 66.5145 -1.57545 0.0417849 0
M  V30 712 C 67.7395 -1.97035 -0.647455 0
M  V30 713 C 68.1645 -0.918775 -1.64135 0
M  V30 714 O 67.5225 0.119006 -1.80909 0
M  V30 715 C 67.5705 -3.35609 -1.31905 0
M  V30 716 O 66.6745 -3.3287 -2.43457 0
M  V30 717 H 66.0155 -0.64211 -0.169086 0
M  V30 718 H 68.5455 -2.04318 0.107399 0
M  V30 719 H 68.5555 -3.72126 -1.67291 0
M  V30 720 H 67.2305 -4.11685 -0.590586 0
M  V30 721 H 65.8075 -3.08087 -2.10088 0
M  V30 722 N 67.9926 0.231505 -1.5589 0
M  V30 723 C 69.2416 0.955346 -1.7764 0
M  V30 724 C 69.5546 1.85893 -0.608546 0
M  V30 725 O 70.7606 2.62067 -0.70943 0
M  V30 726 C 69.2166 1.74886 -3.14552 0
M  V30 727 C 68.8246 0.891915 -4.39032 0
M  V30 728 C 70.5686 2.46452 -3.45633 0
M  V30 729 C 68.4756 1.68221 -5.66971 0
M  V30 730 H 67.4056 0.360446 -0.662265 0
M  V30 731 H 70.0566 0.209516 -1.823 0
M  V30 732 H 68.4386 2.53723 -3.04041 0
M  V30 733 H 69.6126 0.144793 -4.60572 0
M  V30 734 H 67.9276 0.288863 -4.15397 0
M  V30 735 H 70.5246 3.06061 -4.38441 0
M  V30 736 H 70.8676 3.18841 -2.67668 0
M  V30 737 H 71.4006 1.74613 -3.57428 0
M  V30 738 H 68.1396 1.00178 -6.478 0
M  V30 739 H 67.6596 2.4042 -5.49507 0
M  V30 740 H 69.3386 2.24544 -6.06786 0
M  V30 741 N 69.4707 1.49531 0.497807 0
M  V30 742 C 70.8817 1.52344 1.07927 0
M  V30 743 C 71.2327 0.311469 1.93712 0
M  V30 744 O 70.3577 -0.578405 2.08527 0
M  V30 745 C 70.9527 2.76062 1.96405 0
M  V30 746 C 69.5117 2.81643 2.49709 0
M  V30 747 C 68.6587 2.46299 1.27404 0
M  V30 748 H 71.6097 1.56182 0.281576 0
M  V30 749 H 71.6307 2.56405 2.81135 0
M  V30 750 H 71.1427 3.64254 1.33943 0
M  V30 751 H 69.2437 1.97739 3.15801 0
M  V30 752 H 69.3567 3.83891 2.86643 0
M  V30 753 H 67.7207 1.98148 1.60029 0
M  V30 754 H 68.5037 3.36769 0.66645 0
M  V30 755 N 70.9488 -0.749086 1.3866 0
M  V30 756 C 72.1968 -1.50535 1.34847 0
M  V30 757 C 72.5178 -1.94909 -0.0595016 0
M  V30 758 O 71.7878 -1.67973 -1.00806 0
M  V30 759 H 70.3678 -0.558395 0.49619 0
M  V30 760 H 73.0298 -0.890165 1.73384 0
M  V30 761 H 72.1258 -2.39413 2.00219 0
M  V30 762 N 72.4269 -1.23603 -0.977757 0
M  V30 763 C 73.8379 -1.06424 -1.53398 0
M  V30 764 C 74.1889 0.367578 -1.92726 0
M  V30 765 O 73.3139 1.25465 -1.76316 0
M  V30 766 C 73.9089 -1.92568 -2.78753 0
M  V30 767 C 72.4679 -1.79642 -3.30765 0
M  V30 768 C 71.6149 -1.88111 -2.03739 0
M  V30 769 H 74.5659 -1.37227 -0.797152 0
M  V30 770 H 74.5869 -1.45203 -3.51705 0
M  V30 771 H 74.0989 -2.96771 -2.50098 0
M  V30 772 H 72.1999 -0.782325 -3.64294 0
M  V30 773 H 72.3129 -2.63174 -4.00345 0
M  V30 774 H 70.6769 -1.31723 -2.17994 0
M  V30 775 H 71.4599 -2.93875 -1.77461 0
M  V30 776 N 73.905 1.17692 -1.04816 0
M  V30 777 C 75.153 1.87488 -0.754497 0
M  V30 778 C 75.474 1.81205 0.720407 0
M  V30 779 O 74.744 1.23544 1.52032 0
M  V30 780 H 73.324 0.694101 -0.276102 0
M  V30 781 H 75.986 1.42793 -1.32651 0
M  V30 782 H 75.082 2.93328 -1.06606 0
M  V30 783 N 75.3831 0.828654 1.34056 0
M  V30 784 C 76.6131 0.431993 2.02033 0
M  V30 785 C 77.0211 -0.96844 1.62536 0
M  V30 786 O 76.3641 -1.6391 0.829408 0
M  V30 787 C 76.4261 0.461224 3.56529 0
M  V30 788 C 76.0901 1.81599 4.1937 0
M  V30 789 C 77.0871 2.7777 4.39477 0
M  V30 790 C 74.7721 2.10604 4.56017 0
M  V30 791 C 76.7661 4.01115 4.95364 0
M  V30 792 C 74.4531 3.34207 5.11614 0
M  V30 793 C 75.4511 4.2928 5.31232 0
M  V30 794 O 75.1391 5.50699 5.8565 0
M  V30 795 H 74.8711 0.170943 0.654029 0
M  V30 796 H 77.4251 1.11988 1.72185 0
M  V30 797 H 75.6551 -0.283388 3.8566 0
M  V30 798 H 77.3441 0.0838149 4.05813 0
M  V30 799 H 78.1101 2.56659 4.11523 0
M  V30 800 H 73.9891 1.37402 4.40047 0
M  V30 801 H 77.5331 4.75333 5.10592 0
M  V30 802 H 73.4301 3.55179 5.38997 0
M  V30 803 H 74.1981 5.52298 6.04077 0
M  V30 804 N 76.8612 -1.46375 0.584142 0
M  V30 805 C 78.1012 -2.0427 0.0729695 0
M  V30 806 C 78.4652 -1.44563 -1.26355 0
M  V30 807 O 79.6662 -1.93667 -1.86405 0
M  V30 808 C 77.9372 -3.57399 0.00967464 0
M  V30 809 S 79.4962 -4.36551 -0.443714 0
M  V30 810 H 76.3142 -0.709975 0.0381673 0
M  V30 811 H 78.9162 -1.79398 0.776962 0
M  V30 812 H 77.6202 -3.98372 0.986319 0
M  V30 813 H 77.1512 -3.8681 -0.717044 0
M  V30 814 H 79.1662 -4.66237 -1.69816 0
M  V30 815 N 78.3393 -0.321999 -1.54275 0
M  V30 816 C 79.2723 0.58718 -2.20516 0
M  V30 817 C 80.2503 1.11693 -1.18167 0
M  V30 818 O 81.4343 1.18122 -1.46899 0
M  V30 819 C 78.5613 1.80554 -2.86562 0
M  V30 820 C 77.6073 1.40718 -4.02617 0
M  V30 821 S 78.4403 0.445218 -5.33646 0
M  V30 822 C 79.5963 1.6709 -6.03185 0
M  V30 823 H 79.8293 0.0244875 -2.9729 0
M  V30 824 H 77.3623 -0.106087 -1.54035 0
M  V30 825 H 79.3203 2.50462 -3.25237 0
M  V30 826 H 77.9813 2.33942 -2.09595 0
M  V30 827 H 77.1743 2.31501 -4.47687 0
M  V30 828 H 76.7763 0.78782 -3.65608 0
M  V30 829 H 79.0683 2.60856 -6.25268 0
M  V30 830 H 80.0113 1.26239 -6.96756 0
M  V30 831 H 80.4193 1.85716 -5.33076 0
M  V30 832 N 79.8174 1.5752 -0.0501392 0
M  V30 833 C 81.0654 1.9227 0.622642 0
M  V30 834 C 81.3864 0.929083 1.71444 0
M  V30 835 O 80.6564 -0.0262186 1.95882 0
M  V30 836 H 79.2364 0.709739 0.232981 0
M  V30 837 H 81.8984 1.94628 -0.102898 0
M  V30 838 H 80.9944 2.93479 1.06191 0
M  V30 839 N 81.2955 -0.223234 1.56011 0
M  V30 840 C 82.5445 -0.945912 1.78144 0
M  V30 841 C 82.8575 -1.85567 0.618396 0
M  V30 842 O 84.0635 -2.61688 0.723318 0
M  V30 843 C 82.5195 -1.73216 3.15475 0
M  V30 844 C 82.1275 -0.868619 4.39499 0
M  V30 845 C 83.8715 -2.44615 3.46935 0
M  V30 846 C 81.7785 -1.65212 5.67855 0
M  V30 847 H 80.7085 -0.356929 0.664167 0
M  V30 848 H 83.3595 -0.199845 1.82409 0
M  V30 849 H 81.7415 -2.52107 3.05382 0
M  V30 850 H 82.9155 -0.120366 4.60643 0
M  V30 851 H 81.2305 -0.26683 4.15544 0
M  V30 852 H 83.8275 -3.03732 4.40058 0
M  V30 853 H 84.1705 -3.17417 2.69355 0
M  V30 854 H 84.7035 -1.72715 3.58349 0
M  V30 855 H 81.4425 -0.967407 6.48322 0
M  V30 856 H 80.9625 -2.37503 5.50774 0
M  V30 857 H 82.6415 -2.21322 6.07968 0
M  V30 858 N 82.7736 -1.49793 -0.48987 0
M  V30 859 C 84.0216 -1.59525 -1.24081 0
M  V30 860 C 84.3426 -0.288953 -1.92847 0
M  V30 861 O 83.6126 0.692436 -1.83254 0
M  V30 862 H 82.1926 -0.587796 -0.460983 0
M  V30 863 H 84.8546 -1.86477 -0.566778 0
M  V30 864 H 83.9506 -2.39696 -1.99881 0
M  V30 865 N 84.2517 0.741722 -1.39055 0
M  V30 866 C 85.6627 1.31966 -1.32068 0
M  V30 867 C 86.0137 1.96192 0.0180797 0
M  V30 868 O 85.1387 1.95861 0.920196 0
M  V30 869 C 85.7337 2.39954 -2.39181 0
M  V30 870 C 84.2927 2.93438 -2.35735 0
M  V30 871 C 83.4397 1.66936 -2.21422 0
M  V30 872 H 86.3907 0.539721 -1.4924 0
M  V30 873 H 86.4117 3.20182 -2.05581 0
M  V30 874 H 85.9237 1.9318 -3.36605 0
M  V30 875 H 84.0247 3.4451 -1.41929 0
M  V30 876 H 84.1377 3.4701 -3.30335 0
M  V30 877 H 82.5017 1.91016 -1.68478 0
M  V30 878 H 83.2847 1.22224 -3.20806 0
M  V30 879 N 85.7298 1.2412 0.971189 0
M  V30 880 C 86.6598 1.05508 2.08304 0
M  V30 881 C 87.6408 -0.0308864 1.70072 0
M  V30 882 O 88.8258 0.135521 1.93727 0
M  V30 883 C 85.9558 0.655365 3.4106 0
M  V30 884 C 84.9098 1.68971 3.93234 0
M  V30 885 C 84.2358 1.14516 5.22293 0
M  V30 886 C 85.5358 3.08487 4.21465 0
M  V30 887 H 87.2298 1.98507 2.24132 0
M  V30 888 H 84.7758 0.955821 1.07704 0
M  V30 889 H 86.7288 0.51217 4.18276 0
M  V30 890 H 85.4528 -0.31032 3.25122 0
M  V30 891 H 84.1118 1.82106 3.18171 0
M  V30 892 H 83.7598 0.170189 5.02712 0
M  V30 893 H 83.4598 1.83635 5.58168 0
M  V30 894 H 84.9838 1.01401 6.02121 0
M  V30 895 H 86.3978 2.98601 4.89398 0
M  V30 896 H 84.7948 3.74926 4.68562 0
M  V30 897 H 85.8648 3.56787 3.28376 0
M  V30 898 N 87.2079 -1.17134 1.05439 0
M  V30 899 C 88.4569 -1.86791 0.761049 0
M  V30 900 C 88.7699 -1.82072 -0.714795 0
M  V30 901 O 89.9759 -2.47223 -1.12218 0
M  V30 902 C 88.4319 -3.35166 1.31117 0
M  V30 903 C 88.0399 -3.48381 2.81664 0
M  V30 904 C 89.7839 -4.10134 1.09499 0
M  V30 905 C 87.6909 -4.90793 3.29964 0
M  V30 906 H 86.6209 -0.699681 0.281002 0
M  V30 907 H 89.2719 -1.3226 1.27199 0
M  V30 908 H 87.6539 -3.8925 0.72803 0
M  V30 909 H 88.8279 -3.04502 3.45855 0
M  V30 910 H 87.1429 -2.86836 3.01851 0
M  V30 911 H 89.7399 -5.152 1.43084 0
M  V30 912 H 90.0829 -4.16287 0.0328772 0
M  V30 913 H 90.6159 -3.62264 1.64346 0
M  V30 914 H 87.3549 -4.89816 4.35616 0
M  V30 915 H 86.8749 -5.35333 2.70516 0
M  V30 916 H 88.5539 -5.59573 3.24787 0
M  V30 917 N 88.686 -0.835752 -1.33615 0
M  V30 918 C 89.911 -0.442389 -2.02627 0
M  V30 919 C 90.336 0.947735 -1.62479 0
M  V30 920 O 89.694 1.61907 -0.815826 0
M  V30 921 C 89.742 -0.567216 -3.56111 0
M  V30 922 O 88.846 0.407799 -4.10379 0
M  V30 923 H 88.187 -0.180278 -0.639059 0
M  V30 924 H 90.717 -1.12972 -1.70583 0
M  V30 925 H 90.727 -0.447708 -4.05536 0
M  V30 926 H 89.402 -1.58103 -3.84677 0
M  V30 927 H 87.979 0.246107 -3.72087 0
M  V30 928 N 90.1641 1.46063 -0.591896 0
M  V30 929 C 91.1141 2.27458 0.157172 0
M  V30 930 C 92.0981 1.3641 0.853301 0
M  V30 931 O 93.2901 1.60517 0.74588 0
M  V30 932 C 90.4191 3.22956 1.16423 0
M  V30 933 C 89.5051 4.2149 0.469742 0
M  V30 934 N 89.8961 5.03519 -0.479839 0
M  V30 935 C 88.1941 4.40161 0.719319 0
M  V30 936 C 88.8951 5.74904 -0.886591 0
M  V30 937 N 87.8711 5.43097 -0.233731 0
M  V30 938 H 91.6731 2.88272 -0.572392 0
M  V30 939 H 89.1871 1.57024 -0.414375 0
M  V30 940 H 91.1841 3.79986 1.71513 0
M  V30 941 H 89.8441 2.63701 1.89451 0
M  V30 942 H 90.8551 5.1078 -0.855823 0
M  V30 943 H 87.5321 3.92046 1.43548 0
M  V30 944 H 88.9221 6.50844 -1.66888 0
M  V30 945 N 91.6422 0.330177 1.54103 0
M  V30 946 C 92.8902 -0.269871 2.0029 0
M  V30 947 C 93.2112 -1.52133 1.21986 0
M  V30 948 O 92.4812 -1.93212 0.323438 0
M  V30 949 H 91.0612 -0.10271 0.739905 0
M  V30 950 H 93.7232 0.448249 1.89675 0
M  V30 951 H 92.8192 -0.52166 3.07709 0
M  V30 952 N 93.1203 -1.57491 0.0584922 0
M  V30 953 C 94.5363 -1.56792 -0.298091 0
M  V30 954 C 94.7363 -1.06679 -1.70944 0
M  V30 955 O 93.7923 -0.726672 -2.41818 0
M  V30 956 C 95.1053 -3.00461 -0.119879 0
M  V30 957 C 96.6533 -3.1242 -0.190428 0
M  V30 958 C 97.1283 -4.57982 -0.0406567 0
M  V30 959 N 98.6193 -4.63099 -0.0966958 0
M  V30 960 C 99.3543 -5.734 -0.00502943 0
M  V30 961 N 98.8503 -6.9266 0.139402 0
M  V30 962 N 100.643 -5.62067 -0.0611391 0
M  V30 963 H 92.7943 -1.88386 0.98105 0
M  V30 964 H 95.0573 -0.867865 0.381463 0
M  V30 965 H 94.7633 -3.41187 0.85349 0
M  V30 966 H 94.6373 -3.66843 -0.877833 0
M  V30 967 H 97.0243 -2.71589 -1.15427 0
M  V30 968 H 97.1053 -2.48702 0.598405 0
M  V30 969 H 96.7493 -4.995 0.919897 0
M  V30 970 H 96.6793 -5.19715 -0.848727 0
M  V30 971 H 99.1703 -3.77331 -0.207277 0
M  V30 972 H 99.4833 -7.72536 0.201855 0
M  V30 973 H 97.8283 -6.94781 0.174586 0
M  V30 974 H 101.019 -4.67782 -0.172583 0
M  V30 975 H 101.192 -6.47999 0.0137562 0
M  V30 976 N 94.5984 0.214957 -1.56127 0
M  V30 977 C 95.8454 0.938372 -1.79446 0
M  V30 978 C 96.1734 1.8407 -0.628378 0
M  V30 979 O 95.4284 1.91837 0.386925 0
M  V30 980 C 95.7274 1.80314 -3.0858 0
M  V30 981 C 95.3934 1.05349 -4.3842 0
M  V30 982 C 94.0554 0.846435 -4.73697 0
M  V30 983 C 96.4074 0.524588 -5.18553 0
M  V30 984 C 93.7354 0.098683 -5.86617 0
M  V30 985 C 96.0874 -0.209853 -6.32252 0
M  V30 986 C 94.7514 -0.428102 -6.66126 0
M  V30 987 H 94.0214 0.343375 -0.656639 0
M  V30 988 H 96.6684 0.206077 -1.90388 0
M  V30 989 H 94.9734 2.6035 -2.92789 0
M  V30 990 H 96.6704 2.36513 -3.23825 0
M  V30 991 H 93.2604 1.22486 -4.10725 0
M  V30 992 H 97.4444 0.672008 -4.91729 0
M  V30 993 H 92.7004 -0.0805753 -6.11347 0
M  V30 994 H 96.8744 -0.627157 -6.9357 0
M  V30 995 H 94.5014 -1.00944 -7.53468 0
M  V30 996 N 96.0765 1.50051 0.48192 0
M  V30 997 C 97.0065 1.71046 1.58951 0
M  V30 998 C 97.9875 0.559288 1.60642 0
M  V30 999 O 99.1725 0.797243 1.77081 0
M  V30 1000 C 96.3025 1.79462 2.97339 0
M  V30 1001 C 95.2565 2.94558 3.10515 0
M  V30 1002 C 94.5825 2.88105 4.50444 0
M  V30 1003 C 95.8825 4.35227 2.88747 0
M  V30 1004 H 97.5765 2.6378 1.41635 0
M  V30 1005 H 95.1225 1.26936 0.679942 0
M  V30 1006 H 97.0755 1.92734 3.74742 0
M  V30 1007 H 95.7995 0.833412 3.15788 0
M  V30 1008 H 94.4585 2.80918 2.35543 0
M  V30 1009 H 94.1065 1.89853 4.65795 0
M  V30 1010 H 93.8065 3.65366 4.60197 0
M  V30 1011 H 95.3305 3.03412 5.29881 0
M  V30 1012 H 96.7445 4.49449 3.55905 0
M  V30 1013 H 95.1415 5.13856 3.09955 0
M  V30 1014 H 96.2115 4.48347 1.84696 0
M  V30 1015 N 97.5546 -0.734337 1.39446 0
M  V30 1016 C 98.8006 -1.49505 1.37913 0
M  V30 1017 C 99.1556 -1.92384 -0.0248416 0
M  V30 1018 O 98.4486 -1.6395 -0.991506 0
M  V30 1019 C 98.6426 -2.74711 2.28623 0
M  V30 1020 C 98.4716 -2.44075 3.777 0
M  V30 1021 C 97.2416 -2.36338 4.46623 0
M  V30 1022 C 99.4396 -2.09574 4.69663 0
M  V30 1023 N 97.4216 -1.9818 5.81032 0
M  V30 1024 C 98.7926 -1.81865 5.92727 0
M  V30 1025 C 100.848 -1.96048 4.57678 0
M  V30 1026 C 99.5506 -1.41992 7.05146 0
M  V30 1027 C 101.577 -1.57579 5.7002 0
M  V30 1028 C 100.939 -1.30754 6.92158 0
M  V30 1029 H 97.0376 -0.545896 0.55993 0
M  V30 1030 H 99.6216 -0.853373 1.75002 0
M  V30 1031 H 97.7926 -3.36657 1.93692 0
M  V30 1032 H 99.5246 -3.40916 2.18078 0
M  V30 1033 H 96.2796 -2.53456 4.00071 0
M  V30 1034 H 96.7036 -1.81691 6.52163 0
M  V30 1035 H 101.346 -2.15455 3.63784 0
M  V30 1036 H 99.0636 -1.21327 7.9894 0
M  V30 1037 H 102.65 -1.47718 5.62735 0
M  V30 1038 H 101.53 -1.01432 7.77612 0
M  V30 1039 N 99.0327 -1.24633 -0.964593 0
M  V30 1040 C 99.9657 -0.984662 -2.05863 0
M  V30 1041 C 100.944 0.0826554 -1.6239 0
M  V30 1042 O 102.128 -0.0549296 -1.8842 0
M  V30 1043 C 99.2547 -0.486529 -3.35187 0
M  V30 1044 C 98.3007 -1.54286 -3.97615 0
M  V30 1045 S 99.1337 -3.12513 -4.34851 0
M  V30 1046 C 100.29 -2.6441 -5.67308 0
M  V30 1047 H 100.523 -1.91104 -2.27743 0
M  V30 1048 H 98.0557 -1.08052 -1.10291 0
M  V30 1049 H 100.014 -0.205757 -4.09984 0
M  V30 1050 H 98.6747 0.419186 -3.1129 0
M  V30 1051 H 97.8677 -1.14481 -4.90826 0
M  V30 1052 H 97.4697 -1.7738 -3.2926 0
M  V30 1053 H 99.7617 -2.07416 -6.44969 0
M  V30 1054 H 100.705 -3.56222 -6.11973 0
M  V30 1055 H 101.113 -2.04734 -5.26065 0
M  V30 1056 N 100.511 1.16574 -1.06058 0
M  V30 1057 C 101.759 1.86677 -0.77434 0
M  V30 1058 C 102.08 1.81959 0.701147 0
M  V30 1059 O 101.35 1.2515 1.50713 0
M  V30 1060 H 99.9298 0.691134 -0.283449 0
M  V30 1061 H 102.592 1.41378 -1.34158 0
M  V30 1062 H 101.688 2.92181 -1.09711 0
M  V30 1063 N 101.989 0.842826 1.3317 0
M  V30 1064 C 103.238 0.436738 1.96915 0
M  V30 1065 C 103.551 -1.01025 1.67491 0
M  V30 1066 O 104.757 -1.5212 2.24881 0
M  V30 1067 C 103.213 0.730021 3.52418 0
M  V30 1068 C 102.821 2.19195 3.90714 0
M  V30 1069 C 104.565 0.391076 4.22695 0
M  V30 1070 C 102.472 2.42907 5.39212 0
M  V30 1071 H 101.402 0.15958 0.736919 0
M  V30 1072 H 104.053 1.03196 1.51733 0
M  V30 1073 H 102.435 0.0643755 3.95948 0
M  V30 1074 H 103.609 2.8984 3.58231 0
M  V30 1075 H 101.924 2.49425 3.33431 0
M  V30 1076 H 104.521 0.545817 5.31907 0
M  V30 1077 H 104.864 -0.666294 4.10933 0
M  V30 1078 H 105.397 1.01212 3.84709 0
M  V30 1079 H 102.136 3.47224 5.55982 0
M  V30 1080 H 101.656 1.76827 5.73142 0
M  V30 1081 H 103.335 2.2626 6.06148 0
M  V30 1082 N 103.467 -1.45747 0.599634 0
M  V30 1083 C 104.715 -2.01893 0.0915472 0
M  V30 1084 C 105.036 -1.47155 -1.27946 0
M  V30 1085 O 104.306 -0.66273 -1.84349 0
M  V30 1086 H 102.886 -0.746363 0.0308524 0
M  V30 1087 H 105.548 -1.78645 0.779237 0
M  V30 1088 H 104.644 -3.1208 0.0353086 0
M  V30 1089 N 104.945 -0.338344 -1.53925 0
M  V30 1090 C 106.17 0.263987 -2.05713 0
M  V30 1091 C 106.595 1.43847 -1.21201 0
M  V30 1092 O 105.953 1.79904 -0.224535 0
M  V30 1093 C 106.001 0.662 -3.54471 0
M  V30 1094 O 105.105 1.76265 -3.72833 0
M  V30 1095 H 104.446 0.0448722 -0.662482 0
M  V30 1096 H 106.976 -0.491048 -1.9862 0
M  V30 1097 H 106.986 0.940594 -3.9701 0
M  V30 1098 H 105.661 -0.196937 -4.15433 0
M  V30 1099 H 104.238 1.48173 -3.42198 0
M  V30 1100 N 106.423 1.57458 -0.0668435 0
M  V30 1101 C 107.386 2.11323 0.887422 0
M  V30 1102 C 108.386 1.03618 1.22964 0
M  V30 1103 O 109.576 1.29626 1.16373 0
M  V30 1104 C 106.708 2.61048 2.19242 0
M  V30 1105 H 107.901 2.96942 0.420194 0
M  V30 1106 H 105.454 1.55239 0.181793 0
M  V30 1107 H 106.189 1.78868 2.70512 0
M  V30 1108 H 105.974 3.39769 1.95702 0
M  V30 1109 H 107.464 3.02814 2.87565 0
M  V30 1110 N 107.901 -0.206675 1.56239 0
M  V30 1111 C 109.141 -0.93574 1.81723 0
M  V30 1112 C 109.505 -1.80927 0.642609 0
M  V30 1113 O 110.706 -2.57323 0.777081 0
M  V30 1114 C 108.977 -1.74012 3.12177 0
M  V30 1115 S 110.536 -2.52279 3.59028 0
M  V30 1116 H 107.354 -0.314065 0.637875 0
M  V30 1117 H 109.956 -0.200071 1.94474 0
M  V30 1118 H 108.66 -1.0888 3.95693 0
M  V30 1119 H 108.191 -2.51782 3.02274 0
M  V30 1120 H 110.206 -3.76209 3.23545 0
M  V30 1121 N 109.379 -1.50304 -0.473955 0
M  V30 1122 C 110.327 -1.69482 -1.59307 0
M  V30 1123 C 111.321 -0.560669 -1.59853 0
M  V30 1124 O 112.527 -0.741087 -1.64036 0
M  V30 1125 H 108.902 -0.534892 -0.528578 0
M  V30 1126 H 110.873 -2.63364 -1.40293 0
M  V30 1127 C 109.622 -1.80354 -2.97267 0
M  V30 1128 H 108.945 -2.67012 -2.97564 0
M  V30 1129 H 110.385 -1.97798 -3.75036 0
M  V30 1130 C 108.844 -0.55448 -3.32306 0
M  V30 1131 O 109.374 0.307661 -4.0052 0
M  V30 1132 N 107.58 -0.409354 -2.87702 0
M  V30 1133 H 107.127 -1.11196 -2.32364 0
M  V30 1134 H 107.085 0.425223 -3.11511 0
M  V30 1135 N 110.857 0.726932 -1.39834 0
M  V30 1136 C 112.087 1.51393 -1.40583 0
M  V30 1137 C 112.495 1.892 -0.000740625 0
M  V30 1138 O 111.838 1.55189 0.982951 0
M  V30 1139 C 111.9 2.82588 -2.22226 0
M  V30 1140 C 111.564 2.67169 -3.70769 0
M  V30 1141 C 112.561 2.3518 -4.63666 0
M  V30 1142 C 110.246 2.83788 -4.14451 0
M  V30 1143 C 112.24 2.20002 -5.98229 0
M  V30 1144 C 109.927 2.68229 -5.49087 0
M  V30 1145 C 110.925 2.36382 -6.4079 0
M  V30 1146 O 110.613 2.2093 -7.72946 0
M  V30 1147 H 110.345 0.474168 -0.48181 0
M  V30 1148 H 112.899 0.905247 -1.84376 0
M  V30 1149 H 111.129 3.45746 -1.73195 0
M  V30 1150 H 112.818 3.44247 -2.15055 0
M  V30 1151 H 113.584 2.21984 -4.31217 0
M  V30 1152 H 109.463 3.07566 -3.43401 0
M  V30 1153 H 113.007 1.95067 -6.69772 0
M  V30 1154 H 108.904 2.81006 -5.81125 0
M  V30 1155 H 109.672 2.35937 -7.83757 0
M  V30 1156 N 112.336 1.25143 0.95797 0
M  V30 1157 C 113.566 1.12261 1.73439 0
M  V30 1158 C 113.974 -0.326715 1.86358 0
M  V30 1159 O 113.317 -1.2367 1.35836 0
M  V30 1160 C 113.379 1.69966 3.16784 0
M  V30 1161 C 113.043 3.18936 3.27305 0
M  V30 1162 C 114.04 4.15968 3.11877 0
M  V30 1163 C 111.725 3.59083 3.51234 0
M  V30 1164 C 113.719 5.51126 3.20217 0
M  V30 1165 C 111.406 4.9438 3.5921 0
M  V30 1166 C 112.404 5.90211 3.43716 0
M  V30 1167 O 112.092 7.23046 3.51368 0
M  V30 1168 H 111.824 0.392476 0.550399 0
M  V30 1169 H 114.378 1.65927 1.21068 0
M  V30 1170 H 112.608 1.10744 3.70503 0
M  V30 1171 H 114.297 1.52232 3.76272 0
M  V30 1172 H 115.063 3.86292 2.93264 0
M  V30 1173 H 110.942 2.84989 3.62356 0
M  V30 1174 H 114.486 6.25905 3.0804 0
M  V30 1175 H 110.383 5.23723 3.77339 0
M  V30 1176 H 111.151 7.31097 3.6802 0
M  V30 1177 N 113.814 -1.1601 1.06675 0
M  V30 1178 C 114.762 -2.22586 0.675157 0
M  V30 1179 C 115.756 -1.66525 -0.310766 0
M  V30 1180 O 116.962 -1.79145 -0.175215 0
M  V30 1181 H 113.337 -0.724855 0.200223 0
M  V30 1182 H 115.308 -2.52899 1.58381 0
M  V30 1183 C 114.057 -3.47604 0.0817162 0
M  V30 1184 H 113.38 -3.91058 0.831484 0
M  V30 1185 H 114.82 -4.23718 -0.154708 0
M  V30 1186 C 113.279 -3.15718 -1.17576 0
M  V30 1187 O 113.809 -3.31878 -2.26318 0
M  V30 1188 N 112.015 -2.69816 -1.07923 0
M  V30 1189 H 111.562 -2.56866 -0.194293 0
M  V30 1190 H 111.52 -2.48855 -1.92141 0
M  V30 1191 N 115.292 -0.849877 -1.32721 0
M  V30 1192 C 116.708 -0.539102 -1.50219 0
M  V30 1193 C 116.908 0.931271 -1.78689 0
M  V30 1194 O 115.964 1.71455 -1.85363 0
M  V30 1195 C 117.277 -1.42196 -2.64954 0
M  V30 1196 C 118.825 -1.42189 -2.78839 0
M  V30 1197 C 119.3 -2.28985 -3.96648 0
M  V30 1198 N 120.791 -2.26754 -4.03902 0
M  V30 1199 C 121.526 -2.90644 -4.94281 0
M  V30 1200 N 121.022 -3.63629 -5.897 0
M  V30 1201 N 122.815 -2.80057 -4.87365 0
M  V30 1202 H 114.966 -1.80156 -1.12506 0
M  V30 1203 H 117.229 -0.769217 -0.554085 0
M  V30 1204 H 116.935 -2.46733 -2.50631 0
M  V30 1205 H 116.809 -1.10591 -3.60624 0
M  V30 1206 H 119.196 -0.38419 -2.92588 0
M  V30 1207 H 119.277 -1.77807 -1.83898 0
M  V30 1208 H 118.921 -3.32819 -3.83658 0
M  V30 1209 H 118.851 -1.90702 -4.90857 0
M  V30 1210 H 121.342 -1.73688 -3.3562 0
M  V30 1211 H 121.655 -4.09558 -6.55349 0
M  V30 1212 H 120 -3.67737 -5.89741 0
M  V30 1213 H 123.191 -2.22593 -4.11789 0
M  V30 1214 H 123.364 -3.30132 -5.57599 0
M  V30 1215 N 116.77 1.45427 -0.607355 0
M  V30 1216 C 118.016 2.0254 -0.102607 0
M  V30 1217 C 118.349 1.47478 1.26348 0
M  V30 1218 O 117.624 0.64939 1.83339 0
M  V30 1219 C 117.907 3.60044 -0.0634347 0
M  V30 1220 C 117.76 4.2544 -1.46017 0
M  V30 1221 C 119.079 4.35646 0.624514 0
M  V30 1222 H 116.198 0.73598 -0.0387607 0
M  V30 1223 H 118.84 1.73284 -0.779282 0
M  V30 1224 H 116.99 3.85101 0.512808 0
M  V30 1225 H 118.662 4.11569 -2.08347 0
M  V30 1226 H 116.905 3.83849 -2.02094 0
M  V30 1227 H 117.576 5.34342 -1.385 0
M  V30 1228 H 120.052 4.15882 0.134723 0
M  V30 1229 H 118.928 5.45376 0.621028 0
M  V30 1230 H 119.189 4.08501 1.69055 0
M  V30 1231 N 118.248 0.346503 1.53744 0
M  V30 1232 C 119.478 -0.250047 2.05081 0
M  V30 1233 C 119.886 -1.44529 1.22098 0
M  V30 1234 O 119.229 -1.81992 0.249917 0
M  V30 1235 C 119.291 -0.725934 3.52094 0
M  V30 1236 C 118.955 0.350053 4.55657 0
M  V30 1237 C 119.952 1.19372 5.0601 0
M  V30 1238 C 117.637 0.504827 4.99757 0
M  V30 1239 C 119.631 2.17768 5.99046 0
M  V30 1240 C 117.318 1.49218 5.92602 0
M  V30 1241 C 118.316 2.32706 6.42135 0
M  V30 1242 O 118.004 3.2976 7.33153 0
M  V30 1243 H 117.736 -0.0515469 0.674032 0
M  V30 1244 H 120.29 0.497559 1.99282 0
M  V30 1245 H 118.52 -1.52483 3.55367 0
M  V30 1246 H 120.209 -1.24336 3.86388 0
M  V30 1247 H 120.975 1.08525 4.72702 0
M  V30 1248 H 116.854 -0.135178 4.60802 0
M  V30 1249 H 120.398 2.82971 6.37631 0
M  V30 1250 H 116.295 1.6012 6.25325 0
M  V30 1251 H 117.063 3.25265 7.51096 0
M  V30 1252 N 119.726 -1.57421 0.075193 0
M  V30 1253 C 120.974 -1.93236 -0.591974 0
M  V30 1254 C 121.295 -0.956241 -1.69944 0
M  V30 1255 O 120.565 -0.00494792 -1.95899 0
M  V30 1256 H 119.145 -0.713355 -0.22166 0
M  V30 1257 H 121.807 -1.9444 0.133848 0
M  V30 1258 H 120.903 -2.95131 -1.01509 0
M  V30 1259 N 121.204 0.198386 -1.56346 0
M  V30 1260 C 122.114 1.2664 -1.97483 0
M  V30 1261 C 123.13 1.49989 -0.882002 0
M  V30 1262 O 124.306 1.62668 -1.18748 0
M  V30 1263 C 121.371 2.59141 -2.30319 0
M  V30 1264 C 120.432 2.43892 -3.53292 0
M  V30 1265 C 119.665 3.70074 -3.84553 0
M  V30 1266 O 119.888 4.74101 -3.1715 0
M  V30 1267 O 118.822 3.658 -4.7799 0
M  V30 1268 H 122.648 0.947304 -2.88548 0
M  V30 1269 H 120.233 0.403123 -1.43859 0
M  V30 1270 H 122.115 3.37352 -2.5253 0
M  V30 1271 H 120.79 2.90684 -1.42423 0
M  V30 1272 H 119.697 1.63803 -3.36332 0
M  V30 1273 H 121.03 2.17282 -4.41644 0
M  V30 1274 N 122.682 1.50554 0.465978 0
M  V30 1275 C 123.929 1.61798 1.21768 0
M  V30 1276 C 124.257 0.320696 1.91838 0
M  V30 1277 O 123.512 -0.693724 1.82992 0
M  V30 1278 C 123.811 2.75152 2.28093 0
M  V30 1279 C 123.477 4.15454 1.75239 0
M  V30 1280 C 122.139 4.53628 1.60546 0
M  V30 1281 C 124.491 5.03121 1.36083 0
M  V30 1282 C 121.819 5.77204 1.05128 0
M  V30 1283 C 124.171 6.27249 0.821056 0
M  V30 1284 C 122.835 6.64221 0.660795 0
M  V30 1285 H 122.105 0.592063 0.445582 0
M  V30 1286 H 124.752 1.84503 0.512927 0
M  V30 1287 H 123.057 2.46556 3.04496 0
M  V30 1288 H 124.754 2.81055 2.86023 0
M  V30 1289 H 121.344 3.85341 1.87644 0
M  V30 1290 H 125.528 4.74257 1.46267 0
M  V30 1291 H 120.784 6.0452 0.91462 0
M  V30 1292 H 124.958 6.94537 0.509018 0
M  V30 1293 H 122.585 7.59854 0.229226 0
M  V30 1294 N 124.16 -0.719506 1.40217 0
M  V30 1295 C 125.093 -1.84298 1.34571 0
M  V30 1296 C 126.071 -1.61149 0.216741 0
M  V30 1297 O 127.255 -1.84212 0.399756 0
M  V30 1298 C 124.382 -3.20568 1.09335 0
M  V30 1299 C 123.428 -3.62551 2.24631 0
M  V30 1300 S 124.261 -3.7012 3.87004 0
M  V30 1301 C 125.417 -5.09154 3.64024 0
M  V30 1302 H 125.65 -1.88807 2.2965 0
M  V30 1303 H 123.183 -0.885901 1.26456 0
M  V30 1304 H 125.141 -3.99246 0.954602 0
M  V30 1305 H 123.802 -3.13696 0.159164 0
M  V30 1306 H 122.995 -4.61483 2.02606 0
M  V30 1307 H 122.597 -2.91119 2.34789 0
M  V30 1308 H 124.889 -5.95955 3.22248 0
M  V30 1309 H 125.832 -5.36213 4.62473 0
M  V30 1310 H 126.24 -4.79562 2.97793 0
M  V30 1311 N 125.638 -1.25649 -0.95132 0
M  V30 1312 C 127.054 -1.02542 -1.223 0
M  V30 1313 C 127.254 0.255715 -1.99871 0
M  V30 1314 O 126.31 0.967558 -2.33226 0
M  V30 1315 C 127.623 -2.25065 -1.99415 0
M  V30 1316 C 129.171 -2.29861 -2.12446 0
M  V30 1317 C 129.646 -3.52048 -2.92961 0
M  V30 1318 N 131.137 -3.52465 -3.00538 0
M  V30 1319 C 131.872 -4.43672 -3.63239 0
M  V30 1320 N 131.368 -5.45157 -4.27523 0
M  V30 1321 N 133.161 -4.31346 -3.60412 0
M  V30 1322 H 125.312 -2.07951 -0.432471 0
M  V30 1323 H 127.575 -0.91339 -0.253816 0
M  V30 1324 H 127.281 -3.18194 -1.49817 0
M  V30 1325 H 127.155 -2.28502 -3.00111 0
M  V30 1326 H 129.542 -1.37252 -2.61239 0
M  V30 1327 H 129.623 -2.3044 -1.11044 0
M  V30 1328 H 129.267 -4.44981 -2.44856 0
M  V30 1329 H 129.197 -3.48715 -3.94596 0
M  V30 1330 H 131.688 -2.79056 -2.54826 0
M  V30 1331 H 132.001 -6.10958 -4.73234 0
M  V30 1332 H 130.346 -5.49025 -4.26141 0
M  V30 1333 H 133.537 -3.51288 -3.09377 0
M  V30 1334 H 133.71 -5.02624 -4.0899 0
M  V30 1335 N 127.117 1.15442 -1.07289 0
M  V30 1336 C 128.363 1.86489 -0.796846 0
M  V30 1337 C 128.696 1.82078 0.675371 0
M  V30 1338 O 127.971 1.24346 1.4956 0
M  V30 1339 C 128.254 3.35626 -1.30489 0
M  V30 1340 C 128.107 3.48673 -2.84161 0
M  V30 1341 C 129.426 4.30357 -0.920907 0
M  V30 1342 H 126.545 0.677144 -0.290939 0
M  V30 1343 H 129.187 1.35633 -1.33056 0
M  V30 1344 H 127.337 3.79068 -0.850883 0
M  V30 1345 H 129.009 3.14099 -3.37846 0
M  V30 1346 H 127.252 2.90253 -3.22391 0
M  V30 1347 H 127.923 4.53453 -3.14777 0
M  V30 1348 H 130.399 3.94871 -1.3121 0
M  V30 1349 H 129.275 5.33193 -1.30372 0
M  V30 1350 H 129.536 4.4176 0.173226 0
M  V30 1351 N 128.595 0.856903 1.32268 0
M  V30 1352 C 129.841 0.471355 1.97863 0
M  V30 1353 C 130.196 -0.962896 1.66572 0
M  V30 1354 O 129.489 -1.66686 0.944797 0
M  V30 1355 C 129.683 0.649919 3.51441 0
M  V30 1356 C 129.512 2.09997 3.97657 0
M  V30 1357 C 128.282 2.73893 4.2463 0
M  V30 1358 C 130.48 3.07081 4.1256 0
M  V30 1359 N 128.462 4.09786 4.57109 0
M  V30 1360 C 129.833 4.27968 4.48602 0
M  V30 1361 C 131.888 3.03247 3.949 0
M  V30 1362 C 130.591 5.45521 4.68827 0
M  V30 1363 C 132.617 4.20046 4.16311 0
M  V30 1364 C 131.979 5.39692 4.52672 0
M  V30 1365 H 128.078 0.221263 0.750044 0
M  V30 1366 H 130.662 1.10876 1.60045 0
M  V30 1367 H 128.833 0.0421938 3.88377 0
M  V30 1368 H 130.565 0.234044 4.04023 0
M  V30 1369 H 127.32 2.24918 4.16784 0
M  V30 1370 H 127.744 4.7989 4.7753 0
M  V30 1371 H 132.386 2.11863 3.65888 0
M  V30 1372 H 130.104 6.37434 4.96693 0
M  V30 1373 H 133.69 4.18517 4.04147 0
M  V30 1374 H 132.57 6.28566 4.68907 0
M  V30 1375 N 130.073 -1.45103 0.615059 0
M  V30 1376 C 131.322 -2.01396 0.110718 0
M  V30 1377 C 131.635 -1.48834 -1.26916 0
M  V30 1378 O 132.841 -1.97152 -1.86664 0
M  V30 1379 C 131.297 -3.59599 0.14723 0
M  V30 1380 C 130.905 -4.21158 1.52743 0
M  V30 1381 C 132.649 -4.23428 -0.30148 0
M  V30 1382 C 130.556 -5.71535 1.51992 0
M  V30 1383 H 129.486 -0.753061 0.0376241 0
M  V30 1384 H 132.137 -1.66494 0.77149 0
M  V30 1385 H 130.519 -3.91724 -0.580339 0
M  V30 1386 H 131.693 -4.00594 2.2773 0
M  V30 1387 H 130.008 -3.69552 1.91886 0
M  V30 1388 H 132.605 -5.33703 -0.326392 0
M  V30 1389 H 132.948 -3.94629 -1.32565 0
M  V30 1390 H 133.481 -3.96047 0.373065 0
M  V30 1391 H 130.22 -6.05044 2.52193 0
M  V30 1392 H 129.74 -5.94268 0.81274 0
M  V30 1393 H 131.419 -6.34873 1.24681 0
M  V30 1394 N 131.551 -0.354651 -1.53558 0
M  V30 1395 C 132.776 0.242153 -2.05981 0
M  V30 1396 C 133.201 1.42553 -1.2272 0
M  V30 1397 O 132.559 1.79656 -0.243604 0
M  V30 1398 C 132.607 0.624367 -3.55154 0
M  V30 1399 O 131.711 1.72301 -3.74681 0
M  V30 1400 H 131.052 0.0378432 -0.662921 0
M  V30 1401 H 133.582 -0.512087 -1.98088 0
M  V30 1402 H 133.592 0.898433 -3.97985 0
M  V30 1403 H 132.267 -0.240989 -4.15201 0
M  V30 1404 H 130.844 1.44535 -3.4375 0
M  V30 1405 N 133.029 1.57378 -0.0835403 0
M  V30 1406 C 134.277 1.93547 0.581718 0
M  V30 1407 C 134.598 0.96524 1.69435 0
M  V30 1408 O 133.868 0.0153369 1.95894 0
M  V30 1409 H 132.448 0.714521 0.217874 0
M  V30 1410 H 135.11 1.94366 -0.144158 0
M  V30 1411 H 134.206 2.95665 0.999423 0
M  V30 1412 N 134.507 -0.190092 1.56449 0
M  V30 1413 C 135.417 -1.25591 1.98152 0
M  V30 1414 C 136.433 -1.49519 0.889944 0
M  V30 1415 O 137.609 -1.62036 1.19609 0
M  V30 1416 C 134.674 -2.57916 2.3169 0
M  V30 1417 C 133.735 -2.42015 3.5458 0
M  V30 1418 C 132.968 -3.6803 3.8651 0
M  V30 1419 O 133.191 -4.72413 3.1966 0
M  V30 1420 O 132.125 -3.6326 4.79923 0
M  V30 1421 H 135.951 -0.931988 2.89046 0
M  V30 1422 H 133.536 -0.395488 1.4407 0
M  V30 1423 H 135.418 -3.36008 2.54316 0
M  V30 1424 H 134.093 -2.89925 1.43963 0
M  V30 1425 H 133 -1.62017 3.37196 0
M  V30 1426 H 134.333 -2.14937 4.4279 0
M  V30 1427 N 135.985 -1.50799 -0.457987 0
M  V30 1428 C 136.895 -1.73426 -1.57989 0
M  V30 1429 C 137.911 -0.617745 -1.62665 0
M  V30 1430 O 139.087 -0.897614 -1.80291 0
M  V30 1431 C 136.152 -1.83557 -2.94122 0
M  V30 1432 C 135.213 -3.07345 -2.99729 0
M  V30 1433 C 134.446 -3.16983 -4.29368 0
M  V30 1434 O 134.669 -2.33077 -5.20607 0
M  V30 1435 O 133.603 -4.09812 -4.40837 0
M  V30 1436 H 137.429 -2.68555 -1.41817 0
M  V30 1437 H 135.014 -1.35052 -0.638859 0
M  V30 1438 H 136.896 -1.92326 -3.74952 0
M  V30 1439 H 135.571 -0.916137 -3.10465 0
M  V30 1440 H 134.478 -3.04068 -2.1793 0
M  V30 1441 H 135.811 -3.9891 -2.88326 0
M  V30 1442 N 137.463 0.71206 -1.40597 0
M  V30 1443 C 138.691 1.50111 -1.42388 0
M  V30 1444 C 139.106 1.88784 -0.0245395 0
M  V30 1445 O 138.463 1.55681 0.952351 0
M  V30 1446 C 138.514 2.7742 -2.31776 0
M  V30 1447 O 138.235 2.40382 -3.66262 0
M  V30 1448 C 139.736 3.7129 -2.42196 0
M  V30 1449 H 136.956 0.46314 -0.485533 0
M  V30 1450 H 139.5 0.878068 -1.8469 0
M  V30 1451 H 137.655 3.36001 -1.92827 0
M  V30 1452 H 138.069 3.22324 -4.13772 0
M  V30 1453 H 139.543 4.57448 -3.08943 0
M  V30 1454 H 140.02 4.14641 -1.44809 0
M  V30 1455 H 140.626 3.18619 -2.81712 0
M  V30 1456 N 138.941 1.26152 0.944643 0
M  V30 1457 C 139.871 1.09902 2.06019 0
M  V30 1458 C 140.852 0.00519538 1.70099 0
M  V30 1459 O 142.037 0.176583 1.93396 0
M  V30 1460 C 139.167 0.727562 3.39594 0
M  V30 1461 C 138.121 1.77274 3.89561 0
M  V30 1462 C 137.447 1.25569 5.19747 0
M  V30 1463 C 138.747 3.17357 4.14827 0
M  V30 1464 H 140.441 2.03217 2.19871 0
M  V30 1465 H 137.987 0.978452 1.05652 0
M  V30 1466 H 139.94 0.600777 4.17095 0
M  V30 1467 H 138.664 -0.241287 3.25707 0
M  V30 1468 H 137.323 1.88814 3.14237 0
M  V30 1469 H 136.971 0.276783 5.02238 0
M  V30 1470 H 136.671 1.95433 5.54148 0
M  V30 1471 H 138.195 1.1415 5.99835 0
M  V30 1472 H 139.609 3.08914 4.82954 0
M  V30 1473 H 138.006 3.84781 4.60504 0
M  V30 1474 H 139.076 3.63673 3.20734 0
M  V30 1475 N 140.419 -1.14872 1.07899 0
M  V30 1476 C 141.668 -1.85135 0.800499 0
M  V30 1477 C 141.981 -1.83547 -0.676014 0
M  V30 1478 O 143.187 -2.49548 -1.06948 0
M  V30 1479 C 141.643 -3.3231 1.38197 0
M  V30 1480 C 141.251 -3.42329 2.8899 0
M  V30 1481 C 142.995 -4.0772 1.18174 0
M  V30 1482 C 140.902 -4.83684 3.403 0
M  V30 1483 H 139.832 -0.693563 0.29578 0
M  V30 1484 H 142.483 -1.29532 1.29976 0
M  V30 1485 H 140.865 -3.87618 0.810431 0
M  V30 1486 H 142.039 -2.97097 3.52236 0
M  V30 1487 H 140.354 -2.80369 3.07867 0
M  V30 1488 H 142.951 -5.12049 1.5398 0
M  V30 1489 H 143.294 -4.16124 0.12117 0
M  V30 1490 H 143.827 -3.58696 1.71994 0
M  V30 1491 H 140.566 -4.80465 4.45907 0
M  V30 1492 H 140.086 -5.29474 2.81811 0
M  V30 1493 H 141.765 -5.52558 3.36584 0
M  V30 1494 N 141.898 -0.863906 -1.31812 0
M  V30 1495 C 143.147 -0.46801 -1.96195 0
M  V30 1496 C 143.46 0.983474 -1.69077 0
M  V30 1497 O 144.666 1.48523 -2.27273 0
M  V30 1498 C 143.122 -0.785995 -3.51212 0
M  V30 1499 C 142.73 -2.25383 -3.87178 0
M  V30 1500 C 144.474 -0.458274 -4.22019 0
M  V30 1501 C 142.381 -2.51455 -5.3528 0
M  V30 1502 H 141.311 -0.171283 -0.734287 0
M  V30 1503 H 143.962 -1.05597 -1.50072 0
M  V30 1504 H 142.344 -0.127359 -3.95795 0
M  V30 1505 H 143.518 -2.95502 -3.53575 0
M  V30 1506 H 141.833 -2.54698 -3.2942 0
M  V30 1507 H 144.43 -0.630369 -5.30971 0
M  V30 1508 H 144.773 0.600834 -4.11941 0
M  V30 1509 H 145.306 -1.07319 -3.8305 0
M  V30 1510 H 142.045 -3.56025 -5.50387 0
M  V30 1511 H 141.565 -1.85923 -5.70257 0
M  V30 1512 H 143.244 -2.35874 -6.02472 0
M  V30 1513 N 143.376 1.44774 -0.622745 0
M  V30 1514 C 144.601 2.06999 -0.128968 0
M  V30 1515 C 145.026 1.4617 1.1839 0
M  V30 1516 O 144.384 0.560007 1.72434 0
M  V30 1517 C 144.432 3.60595 -0.0188351 0
M  V30 1518 O 143.536 3.99398 1.02739 0
M  V30 1519 H 142.877 0.659047 -0.0809544 0
M  V30 1520 H 145.407 1.85784 -0.85705 0
M  V30 1521 H 145.417 4.07627 0.174476 0
M  V30 1522 H 144.092 4.04252 -0.977384 0
M  V30 1523 H 142.669 3.64011 0.809326 0
M  V30 1524 N 144.854 0.36279 1.53368 0
M  V30 1525 C 145.801 -0.485008 2.25646 0
M  V30 1526 C 146.771 -1.07982 1.2621 0
M  V30 1527 O 147.956 -1.11284 1.54986 0
M  V30 1528 C 145.096 -1.62023 3.04701 0
M  V30 1529 C 144.209 -1.05086 4.19024 0
M  V30 1530 C 143.344 -2.15496 4.85525 0
M  V30 1531 C 142.383 -1.5601 5.91884 0
M  V30 1532 N 141.52 -2.60241 6.52088 0
M  V30 1533 H 146.36 0.137864 2.97681 0
M  V30 1534 H 143.897 0.0798061 1.46883 0
M  V30 1535 H 145.855 -2.28887 3.48807 0
M  V30 1536 H 144.485 -2.2138 2.34927 0
M  V30 1537 H 143.537 -0.27259 3.79422 0
M  V30 1538 H 144.849 -0.575926 4.95464 0
M  V30 1539 H 144.003 -2.90186 5.32801 0
M  V30 1540 H 142.742 -2.66341 4.08551 0
M  V30 1541 H 141.747 -0.798338 5.43973 0
M  V30 1542 H 142.972 -1.05994 6.70777 0
M  V30 1543 H 140.918 -3.10304 5.77968 0
M  V30 1544 H 140.835 -2.17426 7.24059 0
M  V30 1545 H 142.103 -3.34641 7.04014 0
M  V30 1546 N 146.332 -1.57332 0.0918853 0
M  V30 1547 C 147.557 -1.98995 -0.584442 0
M  V30 1548 C 147.982 -0.970528 -1.61128 0
M  V30 1549 O 147.34 0.0613904 -1.81196 0
M  V30 1550 C 147.388 -3.39636 -1.21161 0
M  V30 1551 O 146.492 -3.40447 -2.32744 0
M  V30 1552 H 145.833 -0.647165 -0.148572 0
M  V30 1553 H 148.363 -2.03873 0.172347 0
M  V30 1554 H 148.373 -3.7726 -1.55367 0
M  V30 1555 H 147.048 -4.13356 -0.459313 0
M  V30 1556 H 145.625 -3.14614 -2.0018 0
M  V30 1557 N 147.81 0.181792 -1.56548 0
M  V30 1558 C 149.035 0.920019 -1.85877 0
M  V30 1559 C 149.46 1.75494 -0.677021 0
M  V30 1560 O 148.818 1.77399 0.374056 0
M  V30 1561 C 148.866 1.78112 -3.13542 0
M  V30 1562 O 147.97 2.88152 -2.95029 0
M  V30 1563 H 147.311 0.258334 -0.611686 0
M  V30 1564 H 149.841 0.183092 -2.03779 0
M  V30 1565 H 149.851 2.18314 -3.44678 0
M  V30 1566 H 148.526 1.16777 -3.99169 0
M  V30 1567 H 147.103 2.51609 -2.75222 0
M  V30 1568 N 149.288 1.51039 0.449983 0
M  V30 1569 C 150.513 1.6715 1.22783 0
M  V30 1570 C 150.938 0.363081 1.84563 0
M  V30 1571 O 150.296 -0.675433 1.68249 0
M  V30 1572 C 150.344 2.77985 2.29689 0
M  V30 1573 O 149.448 2.40707 3.34864 0
M  V30 1574 H 148.789 0.557746 0.360299 0
M  V30 1575 H 151.319 1.97535 0.533005 0
M  V30 1576 H 151.329 3.01693 2.74673 0
M  V30 1577 H 150.004 3.72935 1.84098 0
M  V30 1578 H 148.581 2.27523 2.95445 0
M  V30 1579 N 150.766 -0.704594 1.40972 0
M  V30 1580 C 151.699 -1.82861 1.36518 0
M  V30 1581 C 152.677 -1.6091 0.23382 0
M  V30 1582 O 153.861 -1.83778 0.419271 0
M  V30 1583 C 150.988 -3.1939 1.12729 0
M  V30 1584 C 150.034 -3.60148 2.28463 0
M  V30 1585 S 150.867 -3.65994 3.90907 0
M  V30 1586 C 152.023 -5.05264 3.69403 0
M  V30 1587 H 152.256 -1.86361 2.3164 0
M  V30 1588 H 149.789 -0.872439 1.27389 0
M  V30 1589 H 151.747 -3.98211 0.996893 0
M  V30 1590 H 150.408 -3.1351 0.192427 0
M  V30 1591 H 149.601 -4.59309 2.07489 0
M  V30 1592 H 149.203 -2.88612 2.37863 0
M  V30 1593 H 151.495 -5.92504 3.28551 0
M  V30 1594 H 152.438 -5.31278 4.68134 0
M  V30 1595 H 152.846 -4.76377 3.02862 0
M  V30 1596 N 152.244 -1.26651 -0.937939 0
M  V30 1597 C 153.491 -1.12387 -1.6845 0
M  V30 1598 C 153.819 0.332208 -1.91642 0
M  V30 1599 O 153.074 1.2602 -1.49725 0
M  V30 1600 C 153.373 -1.84168 -3.06295 0
M  V30 1601 C 153.039 -3.34056 -3.02849 0
M  V30 1602 C 151.701 -3.74942 -3.01616 0
M  V30 1603 C 154.053 -4.29741 -2.9491 0
M  V30 1604 C 151.381 -5.09894 -2.90215 0
M  V30 1605 C 153.733 -5.64738 -2.8505 0
M  V30 1606 C 152.397 -6.0493 -2.82162 0
M  V30 1607 H 151.667 -0.411252 -0.616403 0
M  V30 1608 H 154.314 -1.57134 -1.09459 0
M  V30 1609 H 152.619 -1.319 -3.6893 0
M  V30 1610 H 154.316 -1.70569 -3.62915 0
M  V30 1611 H 150.906 -3.01534 -3.0459 0
M  V30 1612 H 155.09 -3.99133 -2.94969 0
M  V30 1613 H 150.346 -5.40194 -2.86358 0
M  V30 1614 H 154.52 -6.38561 -2.77872 0
M  V30 1615 H 152.147 -7.09457 -2.73084 0
M  V30 1616 N 153.722 1.14298 -1.08507 0
M  V30 1617 C 154.672 2.17449 -0.685569 0
M  V30 1618 C 155.656 1.58167 0.295315 0
M  V30 1619 O 156.848 1.76675 0.107172 0
M  V30 1620 C 153.977 3.43161 -0.0975318 0
M  V30 1621 C 153.063 4.09471 -1.10426 0
M  V30 1622 N 153.454 4.51089 -2.28806 0
M  V30 1623 C 151.752 4.35976 -0.940258 0
M  V30 1624 C 152.453 5.02654 -2.9277 0
M  V30 1625 N 151.429 4.96927 -2.20374 0
M  V30 1626 H 155.231 2.47369 -1.587 0
M  V30 1627 H 152.745 1.30992 -0.959936 0
M  V30 1628 H 154.742 4.16388 0.20664 0
M  V30 1629 H 153.402 3.14719 0.798872 0
M  V30 1630 H 154.413 4.44097 -2.66455 0
M  V30 1631 H 151.09 4.17386 -0.0977441 0
M  V30 1632 H 152.48 5.44723 -3.93352 0
M  V30 1633 N 155.201 0.870884 1.31352 0
M  V30 1634 C 156.45 0.478408 1.95944 0
M  V30 1635 C 156.763 -0.974493 1.69597 0
M  V30 1636 O 157.969 -1.47316 2.28058 0
M  V30 1637 C 156.425 0.804609 3.50791 0
M  V30 1638 C 156.033 2.27433 3.85977 0
M  V30 1639 C 157.777 0.480648 4.2177 0
M  V30 1640 C 155.684 2.5429 5.33939 0
M  V30 1641 H 154.614 0.175175 0.733369 0
M  V30 1642 H 157.265 1.06391 1.4951 0
M  V30 1643 H 155.647 0.148347 3.95722 0
M  V30 1644 H 156.821 2.97373 3.52002 0
M  V30 1645 H 155.136 2.56442 3.28065 0
M  V30 1646 H 157.733 0.658519 5.30629 0
M  V30 1647 H 158.076 -0.578979 4.12254 0
M  V30 1648 H 158.609 1.09349 3.82476 0
M  V30 1649 H 155.348 3.58939 5.48491 0
M  V30 1650 H 154.868 1.88945 5.69263 0
M  V30 1651 H 156.547 2.39066 6.01212 0
M  V30 1652 N 156.679 -1.44442 0.630414 0
M  V30 1653 C 157.612 -2.27862 -0.124247 0
M  V30 1654 C 158.59 -1.38495 -0.851931 0
M  V30 1655 O 159.774 -1.67935 -0.856166 0
M  V30 1656 C 156.901 -3.17407 -1.18197 0
M  V30 1657 C 155.947 -4.22875 -0.554892 0
M  V30 1658 S 156.78 -5.31485 0.654489 0
M  V30 1659 C 157.936 -6.246 -0.40326 0
M  V30 1660 H 158.169 -2.91519 0.583435 0
M  V30 1661 H 155.702 -1.48618 0.418565 0
M  V30 1662 H 157.66 -3.69549 -1.78728 0
M  V30 1663 H 156.321 -2.52971 -1.86184 0
M  V30 1664 H 155.514 -4.85542 -1.35148 0
M  V30 1665 H 155.116 -3.73992 -0.0242105 0
M  V30 1666 H 157.408 -6.65375 -1.27602 0
M  V30 1667 H 158.351 -7.07851 0.187813 0
M  V30 1668 H 158.759 -5.59775 -0.728837 0
M  V30 1669 N 158.157 -0.370918 -1.53173 0
M  V30 1670 C 159.104 0.473035 -2.259 0
M  V30 1671 C 160.074 1.07311 -1.26781 0
M  V30 1672 O 161.259 1.1046 -1.55574 0
M  V30 1673 C 158.399 1.60405 -3.05556 0
M  V30 1674 C 157.512 1.02863 -4.19575 0
M  V30 1675 C 156.647 2.12918 -4.86661 0
M  V30 1676 C 155.686 1.52869 -5.92704 0
M  V30 1677 N 154.823 2.56779 -6.53459 0
M  V30 1678 H 159.663 -0.153649 -2.97604 0
M  V30 1679 H 157.2 -0.0875946 -1.46839 0
M  V30 1680 H 159.158 2.27034 -3.50016 0
M  V30 1681 H 157.788 2.20131 -2.36097 0
M  V30 1682 H 156.84 0.252465 -3.79561 0
M  V30 1683 H 158.152 0.549642 -4.95762 0
M  V30 1684 H 157.306 2.87356 -5.34333 0
M  V30 1685 H 156.045 2.6417 -4.09958 0
M  V30 1686 H 155.05 0.769479 -5.44389 0
M  V30 1687 H 156.275 1.02435 -6.7133 0
M  V30 1688 H 154.221 3.07235 -5.79606 0
M  V30 1689 H 154.138 2.13583 -7.25202 0
M  V30 1690 H 155.406 3.30903 -7.05779 0
M  V30 1691 N 159.635 1.57281 -0.100228 0
M  V30 1692 C 160.585 2.10848 0.86759 0
M  V30 1693 C 161.569 1.02473 1.24049 0
M  V30 1694 O 162.761 1.28739 1.21471 0
M  V30 1695 C 159.89 2.69648 2.12474 0
M  V30 1696 C 158.976 3.85074 1.77704 0
M  V30 1697 N 159.367 4.92897 1.13518 0
M  V30 1698 C 157.665 3.94905 2.07282 0
M  V30 1699 C 158.366 5.73475 0.974735 0
M  V30 1700 N 157.342 5.22675 1.4937 0
M  V30 1701 H 161.144 2.91594 0.367471 0
M  V30 1702 H 158.658 1.62074 0.102829 0
M  V30 1703 H 160.655 3.06356 2.82757 0
M  V30 1704 H 159.315 1.90359 2.63047 0
M  V30 1705 H 160.326 5.11662 0.801381 0
M  V30 1706 H 157.003 3.26633 2.60033 0
M  V30 1707 H 158.393 6.70238 0.472364 0
M  V30 1708 N 161.113 -0.173488 1.56642 0
M  V30 1709 C 162.061 -1.23417 1.97157 0
M  V30 1710 C 163.055 -1.45946 0.860013 0
M  V30 1711 O 164.261 -1.46551 1.04512 0
M  V30 1712 H 160.636 -0.414818 0.62724 0
M  V30 1713 H 162.607 -0.865582 2.8557 0
M  V30 1714 C 161.356 -2.5665 2.34576 0
M  V30 1715 H 160.679 -2.40137 3.19647 0
M  V30 1716 H 162.119 -3.2956 2.6677 0
M  V30 1717 C 160.578 -3.15245 1.18836 0
M  V30 1718 O 161.108 -3.98883 0.474869 0
M  V30 1719 N 159.314 -2.74303 0.959497 0
M  V30 1720 H 158.861 -2.0639 1.54146 0
M  V30 1721 H 158.819 -3.13844 0.186932 0
M  V30 1722 N 162.591 -1.51276 -0.441967 0
M  V30 1723 C 163.541 -1.6864 -1.53442 0
M  V30 1724 C 164.525 -0.540444 -1.51552 0
M  V30 1725 O 165.717 -0.796157 -1.58083 0
M  V30 1726 C 162.846 -1.8106 -2.91672 0
M  V30 1727 C 161.932 -3.01424 -2.98336 0
M  V30 1728 N 162.323 -4.2467 -2.74752 0
M  V30 1729 C 160.621 -3.00584 -3.29493 0
M  V30 1730 C 161.322 -5.05891 -2.87139 0
M  V30 1731 N 160.298 -4.40442 -3.18609 0
M  V30 1732 H 164.1 -2.61598 -1.33954 0
M  V30 1733 H 161.614 -1.4886 -0.6492 0
M  V30 1734 H 163.611 -1.91609 -3.70259 0
M  V30 1735 H 162.271 -0.892795 -3.12185 0
M  V30 1736 H 163.282 -4.53691 -2.49769 0
M  V30 1737 H 159.959 -2.18417 -3.55809 0
M  V30 1738 H 161.349 -6.13983 -2.72899 0
M  V30 1739 N 164.069 0.697108 -1.41344 0
M  V30 1740 C 165.299 1.48377 -1.43763 0
M  V30 1741 C 165.707 1.89156 -0.0408726 0
M  V30 1742 O 165.05 1.57239 0.949812 0
M  V30 1743 C 165.112 2.7781 -2.2817 0
M  V30 1744 C 164.776 2.59244 -3.76353 0
M  V30 1745 C 165.773 2.25292 -4.68551 0
M  V30 1746 C 163.458 2.74933 -4.20378 0
M  V30 1747 C 165.452 2.07264 -6.02761 0
M  V30 1748 C 163.139 2.56521 -5.54653 0
M  V30 1749 C 164.137 2.22737 -6.4566 0
M  V30 1750 O 163.825 2.04485 -7.77458 0
M  V30 1751 H 163.557 0.463842 -0.491759 0
M  V30 1752 H 166.111 0.865934 -1.86255 0
M  V30 1753 H 164.341 3.41995 -1.8049 0
M  V30 1754 H 166.03 3.39608 -2.22309 0
M  V30 1755 H 166.796 2.12787 -4.35829 0
M  V30 1756 H 162.675 3.00213 -3.49848 0
M  V30 1757 H 166.219 1.80817 -6.73759 0
M  V30 1758 H 162.116 2.68616 -5.86955 0
M  V30 1759 H 162.884 2.1926 -7.88586 0
M  V30 1760 N 165.547 1.27147 0.931209 0
M  V30 1761 C 166.772 1.16191 1.71797 0
M  V30 1762 C 167.197 -0.278004 1.86034 0
M  V30 1763 O 166.555 -1.20137 1.35782 0
M  V30 1764 C 166.603 1.84673 3.09723 0
M  V30 1765 O 165.707 1.14231 3.96264 0
M  V30 1766 H 165.048 0.404303 0.526721 0
M  V30 1767 H 167.578 1.68152 1.1656 0
M  V30 1768 H 167.588 1.91893 3.60057 0
M  V30 1769 H 166.263 2.89421 2.98677 0
M  V30 1770 H 164.84 1.15056 3.54706 0
M  V30 1771 N 167.025 -1.13721 1.09112 0
M  V30 1772 C 168.25 -1.89314 0.847053 0
M  V30 1773 C 168.675 -1.78416 -0.595774 0
M  V30 1774 O 168.033 -1.12942 -1.41823 0
M  V30 1775 C 168.081 -3.3701 1.28284 0
M  V30 1776 O 167.185 -4.10054 0.439267 0
M  V30 1777 H 166.526 -0.588745 0.307044 0
M  V30 1778 H 169.056 -1.43902 1.45442 0
M  V30 1779 H 169.066 -3.87834 1.26683 0
M  V30 1780 H 167.741 -3.4426 2.33363 0
M  V30 1781 H 166.318 -3.69266 0.519312 0
M  V30 1782 N 168.503 -0.877838 -1.30888 0
M  V30 1783 C 169.919 -0.570844 -1.49042 0
M  V30 1784 C 170.119 0.893159 -1.80624 0
M  V30 1785 O 169.175 1.67485 -1.88958 0
M  V30 1786 C 170.488 -1.47784 -2.61878 0
M  V30 1787 C 172.036 -1.48071 -2.75761 0
M  V30 1788 C 172.511 -2.37347 -3.91702 0
M  V30 1789 N 174.002 -2.35271 -3.99001 0
M  V30 1790 C 174.737 -3.01063 -4.88004 0
M  V30 1791 N 174.233 -3.76055 -5.81854 0
M  V30 1792 N 176.026 -2.90332 -4.81315 0
M  V30 1793 H 168.177 -1.82502 -1.0866 0
M  V30 1794 H 170.44 -0.780797 -0.537644 0
M  V30 1795 H 170.146 -2.51993 -2.45341 0
M  V30 1796 H 170.02 -1.18215 -3.58197 0
M  V30 1797 H 172.407 -0.446166 -2.91708 0
M  V30 1798 H 172.488 -1.81668 -1.80085 0
M  V30 1799 H 172.132 -3.40883 -3.76512 0
M  V30 1800 H 172.062 -2.01071 -4.86701 0
M  V30 1801 H 174.553 -1.80768 -3.3186 0
M  V30 1802 H 174.866 -4.23366 -6.46514 0
M  V30 1803 H 173.211 -3.80163 -5.81808 0
M  V30 1804 H 176.402 -2.31278 -4.06974 0
M  V30 1805 H 176.575 -3.41885 -5.50471 0
M  V30 1806 N 169.982 1.44106 -0.638065 0
M  V30 1807 C 171.229 2.01978 -0.14533 0
M  V30 1808 C 171.557 1.50234 1.23532 0
M  V30 1809 O 170.812 0.679548 1.83523 0
M  V30 1810 C 171.111 3.5729 -0.0887327 0
M  V30 1811 C 170.777 4.28317 -1.40909 0
M  V30 1812 C 169.439 4.47437 -1.77069 0
M  V30 1813 C 171.791 4.6867 -2.28031 0
M  V30 1814 C 169.119 5.04171 -3.00047 0
M  V30 1815 C 171.471 5.26766 -3.50286 0
M  V30 1816 C 170.135 5.44104 -3.86661 0
M  V30 1817 H 169.405 0.739089 -0.0531801 0
M  V30 1818 H 172.052 1.72781 -0.825761 0
M  V30 1819 H 170.357 3.8594 0.675095 0
M  V30 1820 H 172.054 3.99807 0.309145 0
M  V30 1821 H 168.644 4.1377 -1.1177 0
M  V30 1822 H 172.828 4.53604 -2.01388 0
M  V30 1823 H 168.084 5.15782 -3.28298 0
M  V30 1824 H 172.258 5.56983 -4.18023 0
M  V30 1825 H 169.885 5.87832 -4.82034 0
M  V30 1826 N 171.46 0.379036 1.52974 0
M  V30 1827 C 172.708 -0.206014 2.01047 0
M  V30 1828 C 173.029 -1.48175 1.26765 0
M  V30 1829 O 172.299 -1.92085 0.384743 0
M  V30 1830 H 170.879 -0.0791184 0.742798 0
M  V30 1831 H 173.541 0.508366 1.88153 0
M  V30 1832 H 172.637 -0.423501 3.09213 0
M  V30 1833 N 172.938 -1.57226 0.108567 0
M  V30 1834 C 174.163 -1.99604 -0.563303 0
M  V30 1835 C 174.588 -0.987563 -1.6009 0
M  V30 1836 O 173.946 0.0421687 -1.81251 0
M  V30 1837 C 173.994 -3.40902 -1.17552 0
M  V30 1838 O 173.098 -3.42896 -2.2912 0
M  V30 1839 H 172.439 -0.648704 -0.1417 0
M  V30 1840 H 174.969 -2.03679 0.193961 0
M  V30 1841 H 174.979 -3.78886 -1.51357 0
M  V30 1842 H 173.654 -4.1382 -0.415445 0
M  V30 1843 H 172.231 -3.1672 -1.96832 0
M  V30 1844 N 174.416 0.165178 -1.56732 0
M  V30 1845 C 175.363 1.2044 -1.96883 0
M  V30 1846 C 176.333 1.43664 -0.833657 0
M  V30 1847 O 177.518 1.56302 -1.09427 0
M  V30 1848 C 174.658 2.53727 -2.33916 0
M  V30 1849 C 173.771 2.3783 -3.6064 0
M  V30 1850 C 172.906 3.64026 -3.86857 0
M  V30 1851 C 171.945 3.43088 -5.06909 0
M  V30 1852 N 171.082 4.61369 -5.29229 0
M  V30 1853 H 175.922 0.854996 -2.85471 0
M  V30 1854 H 173.459 0.41076 -1.41249 0
M  V30 1855 H 175.417 3.31419 -2.53411 0
M  V30 1856 H 174.047 2.8665 -1.48431 0
M  V30 1857 H 173.099 1.51282 -3.49024 0
M  V30 1858 H 174.411 2.18308 -4.4849 0
M  V30 1859 H 173.565 4.50152 -4.06753 0
M  V30 1860 H 172.304 3.86533 -2.97394 0
M  V30 1861 H 171.309 2.55349 -4.86906 0
M  V30 1862 H 172.534 3.21997 -5.97909 0
M  V30 1863 H 170.48 4.84084 -4.42718 0
M  V30 1864 H 170.397 4.44783 -6.11313 0
M  V30 1865 H 171.665 5.48761 -5.53608 0
M  V30 1866 N 175.894 1.51508 0.433938 0
M  V30 1867 C 176.824 1.76016 1.53429 0
M  V30 1868 C 177.805 0.610112 1.58782 0
M  V30 1869 O 178.99 0.853177 1.74455 0
M  V30 1870 C 176.12 1.88831 2.9148 0
M  V30 1871 C 175.074 3.04288 3.00987 0
M  V30 1872 C 174.4 3.0229 4.4105 0
M  V30 1873 C 175.7 4.44193 2.74754 0
M  V30 1874 H 177.394 2.68152 1.33171 0
M  V30 1875 H 174.94 1.29035 0.639214 0
M  V30 1876 H 176.893 2.04559 3.6842 0
M  V30 1877 H 175.617 0.933455 3.12976 0
M  V30 1878 H 174.276 2.8827 2.26486 0
M  V30 1879 H 173.924 2.04576 4.59519 0
M  V30 1880 H 173.624 3.79822 4.4834 0
M  V30 1881 H 175.148 3.20116 5.1996 0
M  V30 1882 H 176.562 4.60544 3.41426 0
M  V30 1883 H 174.959 5.23457 2.9345 0
M  V30 1884 H 176.029 4.53996 1.70339 0
M  V30 1885 N 177.372 -0.689602 1.41712 0
M  V30 1886 C 178.62 -1.4468 1.4111 0
M  V30 1887 C 178.941 -1.94986 0.0232196 0
M  V30 1888 O 178.211 -1.72097 -0.935913 0
M  V30 1889 H 176.791 -0.536847 0.519427 0
M  V30 1890 H 179.453 -0.815825 1.77004 0
M  V30 1891 H 178.549 -2.30706 2.10193 0
M  V30 1892 N 178.85 -1.27639 -0.924453 0
M  V30 1893 C 179.78 -1.13166 -2.04244 0
M  V30 1894 C 180.761 -0.032256 -1.70069 0
M  V30 1895 O 181.946 -0.207328 -1.9309 0
M  V30 1896 C 179.076 -0.781496 -3.38393 0
M  V30 1897 C 178.03 -1.83449 -3.86692 0
M  V30 1898 C 177.356 -1.33822 -5.17683 0
M  V30 1899 C 178.656 -3.23917 -4.09726 0
M  V30 1900 H 180.35 -2.06689 -2.1661 0
M  V30 1901 H 177.896 -0.995136 -1.04082 0
M  V30 1902 H 179.849 -0.667057 -4.16087 0
M  V30 1903 H 178.573 0.189439 -3.2605 0
M  V30 1904 H 177.232 -1.93789 -3.11193 0
M  V30 1905 H 176.88 -0.35665 -5.01734 0
M  V30 1906 H 176.58 -2.04224 -5.50968 0
M  V30 1907 H 178.104 -1.23679 -5.97943 0
M  V30 1908 H 179.518 -3.16559 -4.77978 0
M  V30 1909 H 177.915 -3.92059 -4.54324 0
M  V30 1910 H 178.985 -3.68729 -3.14908 0
M  V30 1911 N 180.328 1.1314 -1.09713 0
M  V30 1912 C 181.26 2.18343 -0.697056 0
M  V30 1913 C 182.273 1.60669 0.262551 0
M  V30 1914 O 183.462 1.78435 0.0481527 0
M  V30 1915 C 180.562 3.38899 -0.00684728 0
M  V30 1916 C 179.735 4.26078 -0.988741 0
M  V30 1917 C 178.794 5.25155 -0.331394 0
M  V30 1918 O 177.82 5.60701 -0.979926 0
M  V30 1919 N 179.022 5.73271 0.913261 0
M  V30 1920 H 181.787 2.5328 -1.60216 0
M  V30 1921 H 179.348 1.28491 -0.984971 0
M  V30 1922 H 181.34 4.02255 0.444191 0
M  V30 1923 H 179.91 3.02175 0.800551 0
M  V30 1924 H 179.13 3.59453 -1.61826 0
M  V30 1925 H 180.418 4.81178 -1.65364 0
M  V30 1926 H 179.816 5.46544 1.45966 0
M  V30 1927 H 178.373 6.3855 1.30757 0
M  V30 1928 N 181.806 0.884767 1.30421 0
M  V30 1929 C 183.046 0.509806 1.9794 0
M  V30 1930 C 183.41 -0.923736 1.68319 0
M  V30 1931 O 184.611 -1.40481 2.29169 0
M  V30 1932 C 182.882 0.776732 3.48858 0
M  V30 1933 S 184.441 0.503843 4.35898 0
M  V30 1934 H 181.259 0.189699 0.685227 0
M  V30 1935 H 183.861 1.14399 1.58535 0
M  V30 1936 H 182.565 1.81857 3.67908 0
M  V30 1937 H 182.096 0.1301 3.93185 0
M  V30 1938 H 184.111 -0.657625 4.91823 0
M  V30 1939 N 183.284 -1.43765 0.645699 0
M  V30 1940 C 184.533 -2.01116 0.153412 0
M  V30 1941 C 184.846 -1.51493 -1.23731 0
M  V30 1942 O 186.052 -2.01067 -1.8244 0
M  V30 1943 C 184.508 -3.59206 0.223473 0
M  V30 1944 C 184.116 -4.17823 1.61642 0
M  V30 1945 C 185.86 -4.23972 -0.211597 0
M  V30 1946 C 183.767 -5.68183 1.64081 0
M  V30 1947 H 182.697 -0.752093 0.0535891 0
M  V30 1948 H 185.348 -1.6482 0.806633 0
M  V30 1949 H 183.73 -3.92867 -0.497118 0
M  V30 1950 H 184.904 -3.95674 2.36176 0
M  V30 1951 H 183.219 -3.65399 1.99681 0
M  V30 1952 H 185.816 -5.34275 -0.213112 0
M  V30 1953 H 186.159 -3.97352 -1.24165 0
M  V30 1954 H 186.692 -3.95166 0.456988 0
M  V30 1955 H 183.431 -5.99559 2.64971 0
M  V30 1956 H 182.951 -5.9241 0.938611 0
M  V30 1957 H 184.63 -6.32085 1.3812 0
M  V30 1958 N 184.763 -0.387143 -1.52771 0
M  V30 1959 C 186.011 0.195349 -2.01154 0
M  V30 1960 C 186.332 1.475 -1.27549 0
M  V30 1961 O 185.602 1.91878 -0.394924 0
M  V30 1962 H 184.182 0.075178 -0.743207 0
M  V30 1963 H 186.844 -0.518337 -1.87881 0
M  V30 1964 H 185.94 0.407096 -3.09434 0
M  V30 1965 N 186.241 1.57166 -0.116904 0
M  V30 1966 C 187.174 2.10912 0.871291 0
M  V30 1967 C 188.152 1.025 1.26224 0
M  V30 1968 O 189.336 1.3014 1.36366 0
M  V30 1969 C 186.463 2.6041 2.16574 0
M  V30 1970 C 185.509 3.80687 1.92302 0
M  V30 1971 S 186.342 5.23199 1.14119 0
M  V30 1972 C 187.498 5.76064 2.44748 0
M  V30 1973 H 187.731 2.94401 0.414138 0
M  V30 1974 H 185.264 1.54096 0.096829 0
M  V30 1975 H 187.222 2.89583 2.9095 0
M  V30 1976 H 185.883 1.77106 2.59408 0
M  V30 1977 H 185.076 4.13462 2.8821 0
M  V30 1978 H 184.678 3.5212 1.26047 0
M  V30 1979 H 186.97 5.8566 3.406 0
M  V30 1980 H 187.913 6.74184 2.16521 0
M  V30 1981 H 188.321 5.04117 2.54019 0
M  V30 1982 N 187.719 -0.156864 1.56817 0
M  V30 1983 C 188.669 -1.19891 1.93934 0
M  V30 1984 C 189.653 -1.39061 0.809372 0
M  V30 1985 O 190.845 -1.40789 1.07273 0
M  V30 1986 C 187.974 -2.53493 2.31508 0
M  V30 1987 C 187.06 -2.37957 3.51052 0
M  V30 1988 N 187.451 -1.92158 4.67877 0
M  V30 1989 C 185.749 -2.68739 3.55943 0
M  V30 1990 C 186.45 -1.8943 5.49992 0
M  V30 1991 N 185.426 -2.32375 4.91429 0
M  V30 1992 H 189.228 -0.836746 2.81737 0
M  V30 1993 H 186.742 -0.365012 1.58245 0
M  V30 1994 H 188.739 -3.28811 2.56299 0
M  V30 1995 H 187.399 -2.905 1.45051 0
M  V30 1996 H 188.41 -1.62274 4.91821 0
M  V30 1997 H 185.087 -3.09687 2.80001 0
M  V30 1998 H 186.477 -1.55596 6.53636 0
M  V30 1999 N 189.197 -1.51736 -0.425897 0
M  V30 2000 C 190.107 -1.76738 -1.54275 0
M  V30 2001 C 191.123 -0.65211 -1.61318 0
M  V30 2002 O 192.299 -0.935654 -1.78346 0
M  V30 2003 C 189.364 -1.89755 -2.90162 0
M  V30 2004 C 188.425 -3.13633 -2.93143 0
M  V30 2005 C 187.658 -3.2602 -4.22548 0
M  V30 2006 O 187.881 -2.44067 -5.15546 0
M  V30 2007 O 186.815 -4.19071 -4.32046 0
M  V30 2008 H 190.641 -2.71502 -1.36089 0
M  V30 2009 H 188.226 -1.36376 -0.610069 0
M  V30 2010 H 190.108 -2.00236 -3.70788 0
M  V30 2011 H 188.783 -0.981785 -3.08452 0
M  V30 2012 H 187.69 -3.08622 -2.11431 0
M  V30 2013 H 189.023 -4.04936 -2.798 0
M  V30 2014 N 190.675 0.682077 -1.42076 0
M  V30 2015 C 191.622 1.79578 -1.44984 0
M  V30 2016 C 192.592 1.6332 -0.302614 0
M  V30 2017 O 193.777 1.83978 -0.505633 0
M  V30 2018 C 190.917 3.1756 -1.35091 0
M  V30 2019 C 190.03 3.45156 -2.59791 0
M  V30 2020 C 189.165 4.72826 -2.42093 0
M  V30 2021 C 188.204 4.93433 -3.62202 0
M  V30 2022 N 187.341 6.12338 -3.43491 0
M  V30 2023 H 192.181 1.76427 -2.40161 0
M  V30 2024 H 189.718 0.861376 -1.19242 0
M  V30 2025 H 191.676 3.97287 -1.27354 0
M  V30 2026 H 190.306 3.19854 -0.435133 0
M  V30 2027 H 189.358 2.59736 -2.77923 0
M  V30 2028 H 190.67 3.5628 -3.49094 0
M  V30 2029 H 189.824 5.60631 -2.319 0
M  V30 2030 H 188.563 4.63973 -1.50268 0
M  V30 2031 H 187.568 4.04073 -3.72834 0
M  V30 2032 H 188.793 5.04136 -4.54998 0
M  V30 2033 H 186.739 6.04672 -2.54377 0
M  V30 2034 H 186.656 6.2429 -4.26377 0
M  V30 2035 H 187.924 7.02841 -3.37097 0
M  V30 2036 N 192.153 1.28127 0.917671 0
M  V30 2037 C 193.401 1.14825 1.66312 0
M  V30 2038 C 193.722 -0.304379 1.9261 0
M  V30 2039 O 192.992 -1.21149 1.53947 0
M  V30 2040 H 191.572 0.421953 0.616413 0
M  V30 2041 H 194.234 1.608 1.10134 0
M  V30 2042 H 193.33 1.68489 2.62712 0
M  V30 2043 N 193.631 -1.12557 1.10312 0
M  V30 2044 C 194.88 -1.83395 0.839588 0
M  V30 2045 C 195.193 -1.84939 -0.636929 0
M  V30 2046 O 196.399 -2.51761 -1.01631 0
M  V30 2047 C 194.855 -3.29303 1.45215 0
M  V30 2048 C 194.463 -3.36122 2.96186 0
M  V30 2049 C 196.207 -4.05121 1.26796 0
M  V30 2050 C 194.114 -4.76357 3.50483 0
M  V30 2051 H 193.044 -0.687133 0.310425 0
M  V30 2052 H 195.695 -1.26746 1.32694 0
M  V30 2053 H 194.077 -3.85812 0.892469 0
M  V30 2054 H 195.251 -2.89559 3.58458 0
M  V30 2055 H 193.566 -2.73776 3.13745 0
M  V30 2056 H 196.163 -5.08668 1.64806 0
M  V30 2057 H 196.506 -4.15773 0.209409 0
M  V30 2058 H 197.039 -3.54967 1.79563 0
M  V30 2059 H 193.778 -4.70899 4.55998 0
M  V30 2060 H 193.298 -5.23377 2.92978 0
M  V30 2061 H 194.977 -5.45294 3.48228 0
M  V30 2062 N 195.109 -0.891671 -1.2995 0
M  V30 2063 C 196.358 -0.509521 -1.95158 0
M  V30 2064 C 196.671 0.947388 -1.71125 0
M  V30 2065 O 197.877 1.43669 -2.30372 0
M  V30 2066 C 196.333 -0.860315 -3.49466 0
M  V30 2067 C 195.941 -2.33545 -3.8231 0
M  V30 2068 C 197.685 -0.547687 -4.20952 0
M  V30 2069 C 195.592 -2.62752 -5.29826 0
M  V30 2070 H 194.522 -0.18682 -0.730489 0
M  V30 2071 H 197.173 -1.08756 -1.47798 0
M  V30 2072 H 195.555 -0.211285 -3.95436 0
M  V30 2073 H 196.729 -3.02936 -3.47227 0
M  V30 2074 H 195.044 -2.61629 -3.23944 0
M  V30 2075 H 197.641 -0.742854 -5.29515 0
M  V30 2076 H 197.984 0.51332 -4.13123 0
M  V30 2077 H 198.517 -1.1542 -3.80688 0
M  V30 2078 H 195.256 -3.6762 -5.42712 0
M  V30 2079 H 194.776 -1.97977 -5.66185 0
M  V30 2080 H 196.455 -2.48601 -5.97333 0
M  V30 2081 N 196.587 1.43421 -0.653314 0
M  V30 2082 C 197.834 2.01812 -0.166745 0
M  V30 2083 C 198.162 1.51535 1.21931 0
M  V30 2084 O 197.417 0.698975 1.82792 0
M  V30 2085 C 197.716 3.57176 -0.126623 0
M  V30 2086 C 197.382 4.26798 -1.45444 0
M  V30 2087 C 196.044 4.45534 -1.81805 0
M  V30 2088 C 198.396 4.66225 -2.32989 0
M  V30 2089 C 195.724 5.00961 -3.05377 0
M  V30 2090 C 198.076 5.23021 -3.55853 0
M  V30 2091 C 196.74 5.39973 -3.9241 0
M  V30 2092 H 196.01 0.738484 -0.0610162 0
M  V30 2093 H 198.657 1.71896 -0.84404 0
M  V30 2094 H 196.962 3.86634 0.634123 0
M  V30 2095 H 198.659 4.00112 0.266723 0
M  V30 2096 H 195.249 4.12561 -1.16153 0
M  V30 2097 H 199.433 4.51443 -2.06187 0
M  V30 2098 H 194.689 5.12271 -3.3375 0
M  V30 2099 H 198.863 5.52518 -4.23907 0
M  V30 2100 H 196.49 5.82687 -4.88242 0
M  V30 2101 N 198.065 0.39524 1.52563 0
M  V30 2102 C 199.013 -0.451859 2.28169 0
M  V30 2103 C 200.007 -1.05792 1.32304 0
M  V30 2104 O 201.213 -0.997718 1.49818 0
M  V30 2105 H 197.588 -0.164481 0.733792 0
M  V30 2106 H 199.559 0.207199 2.9768 0
M  V30 2107 C 198.308 -1.56385 3.10546 0
M  V30 2108 H 197.631 -1.10682 3.84174 0
M  V30 2109 H 199.071 -2.13067 3.66577 0
M  V30 2110 C 197.53 -2.52328 2.23231 0
M  V30 2111 O 198.06 -3.5588 1.86312 0
M  V30 2112 N 196.266 -2.22209 1.87274 0
M  V30 2113 H 195.813 -1.38033 2.17496 0
M  V30 2114 H 195.771 -2.86652 1.29143 0
M  V30 2115 N 199.544 -1.57102 0.125237 0
M  V30 2116 C 200.492 -2.16905 -0.839927 0
M  V30 2117 C 201.486 -1.11998 -1.27094 0
M  V30 2118 O 202.692 -1.3029 -1.24195 0
M  V30 2119 H 199.067 -0.694252 -0.288995 0
M  V30 2120 H 201.038 -2.96774 -0.311115 0
M  V30 2121 C 199.787 -2.78795 -2.07771 0
M  V30 2122 H 199.11 -3.59221 -1.755 0
M  V30 2123 H 200.55 -3.2417 -2.73295 0
M  V30 2124 C 199.009 -1.76193 -2.87155 0
M  V30 2125 O 199.539 -1.21909 -3.82755 0
M  V30 2126 N 197.745 -1.45991 -2.51267 0
M  V30 2127 H 197.292 -1.90325 -1.73592 0
M  V30 2128 H 197.25 -0.775844 -3.04677 0
M  V30 2129 N 201.022 0.148545 -1.56898 0
M  V30 2130 C 201.97 1.20265 -1.99096 0
M  V30 2131 C 202.964 1.44559 -0.883123 0
M  V30 2132 O 204.17 1.4487 -1.0683 0
M  V30 2133 H 200.545 0.404786 -0.63376 0
M  V30 2134 H 202.516 0.82004 -2.86911 0
M  V30 2135 C 201.265 2.52886 -2.3863 0
M  V30 2136 H 200.588 2.35021 -3.23427 0
M  V30 2137 H 202.028 3.25274 -2.7198 0
M  V30 2138 C 200.487 3.13315 -1.23837 0
M  V30 2139 O 201.017 3.98077 -0.538268 0
M  V30 2140 N 199.223 2.72742 -1.00301 0
M  V30 2141 H 198.77 2.03912 -1.5741 0
M  V30 2142 H 198.728 3.13507 -0.236838 0
M  V30 2143 N 202.5 1.5196 0.417844 0
M  V30 2144 C 203.911 1.57851 0.997 0
M  V30 2145 C 204.262 0.413714 1.91789 0
M  V30 2146 O 203.387 -0.467057 2.113 0
M  V30 2147 C 203.982 2.86085 1.81496 0
M  V30 2148 C 202.541 2.94483 2.34428 0
M  V30 2149 C 201.688 2.52707 1.14169 0
M  V30 2150 H 204.639 1.57455 0.198392 0
M  V30 2151 H 204.66 2.70947 2.67148 0
M  V30 2152 H 204.172 3.70842 1.14446 0
M  V30 2153 H 202.273 2.142 3.04875 0
M  V30 2154 H 202.386 3.98546 2.65891 0
M  V30 2155 H 200.75 2.06353 1.49301 0
M  V30 2156 H 201.533 3.39828 0.486999 0
M  V30 2157 N 203.978 -0.674533 1.42435 0
M  V30 2158 C 204.888 -1.81751 1.48337 0
M  V30 2159 C 205.904 -1.69975 0.372099 0
M  V30 2160 O 207.08 -1.91521 0.62304 0
M  V30 2161 C 204.145 -3.17895 1.38361 0
M  V30 2162 C 203.206 -3.41625 2.59982 0
M  V30 2163 C 202.439 -4.71274 2.50473 0
M  V30 2164 O 202.662 -5.49197 1.54075 0
M  V30 2165 O 201.596 -4.96254 3.4061 0
M  V30 2166 H 205.422 -1.79728 2.44809 0
M  V30 2167 H 203.007 -0.830312 1.24202 0
M  V30 2168 H 204.889 -3.99136 1.35161 0
M  V30 2169 H 203.564 -3.20555 0.450144 0
M  V30 2170 H 202.471 -2.60231 2.68757 0
M  V30 2171 H 203.804 -3.43796 3.52229 0
M  V30 2172 N 205.456 -1.28612 -0.910864 0
M  V30 2173 C 206.386 -1.15326 -2.03032 0
M  V30 2174 C 207.367 -0.0502924 -1.70026 0
M  V30 2175 O 208.552 -0.227797 -1.92859 0
M  V30 2176 C 205.682 -0.817343 -3.37545 0
M  V30 2177 C 204.636 -1.8754 -3.84724 0
M  V30 2178 C 203.962 -1.39305 -5.16235 0
M  V30 2179 C 205.262 -3.28244 -4.06267 0
M  V30 2180 H 206.956 -2.08975 -2.14406 0
M  V30 2181 H 204.502 -1.00612 -1.03021 0
M  V30 2182 H 206.455 -0.711151 -4.15356 0
M  V30 2183 H 205.179 0.154846 -3.26233 0
M  V30 2184 H 203.838 -1.97079 -3.09121 0
M  V30 2185 H 203.486 -0.409846 -5.01328 0
M  V30 2186 H 203.186 -2.10057 -5.48771 0
M  V30 2187 H 204.71 -1.30014 -5.96598 0
M  V30 2188 H 206.124 -3.21611 -4.74594 0
M  V30 2189 H 204.521 -3.96855 -4.5014 0
M  V30 2190 H 205.591 -3.72048 -3.10979 0
M  V30 2191 N 206.934 1.1197 -1.10907 0
M  V30 2192 C 208.18 1.84059 -0.865674 0
M  V30 2193 C 208.535 1.82731 0.602254 0
M  V30 2194 O 207.828 1.26543 1.43866 0
M  V30 2195 C 208.022 3.30749 -1.35425 0
M  V30 2196 C 207.851 3.46363 -2.86815 0
M  V30 2197 C 206.621 3.59712 -3.54874 0
M  V30 2198 C 208.819 3.41116 -3.84895 0
M  V30 2199 N 206.801 3.63741 -4.94536 0
M  V30 2200 C 208.172 3.51698 -5.10596 0
M  V30 2201 C 210.227 3.24612 -3.77533 0
M  V30 2202 C 208.93 3.4748 -6.29802 0
M  V30 2203 C 210.956 3.21708 -4.96244 0
M  V30 2204 C 210.318 3.32856 -6.20795 0
M  V30 2205 H 206.417 0.689015 -0.369841 0
M  V30 2206 H 209.001 1.34016 -1.41237 0
M  V30 2207 H 207.172 3.79322 -0.834814 0
M  V30 2208 H 208.904 3.90718 -1.05458 0
M  V30 2209 H 205.659 3.62038 -3.05329 0
M  V30 2210 H 206.083 3.69408 -5.67333 0
M  V30 2211 H 210.725 3.14883 -2.8215 0
M  V30 2212 H 208.443 3.55978 -7.25469 0
M  V30 2213 H 212.029 3.10113 -4.92261 0
M  V30 2214 H 210.909 3.3059 -7.11112 0
M  V30 2215 N 208.412 0.89855 1.29475 0
M  V30 2216 C 209.359 0.373819 2.27753 0
M  V30 2217 C 210.329 -0.543444 1.56958 0
M  V30 2218 O 211.514 -0.468934 1.84948 0
M  V30 2219 C 208.654 -0.393648 3.42848 0
M  V30 2220 C 207.767 0.554379 4.28428 0
M  V30 2221 C 206.902 -0.230026 5.30702 0
M  V30 2222 C 205.941 0.712599 6.07938 0
M  V30 2223 N 205.078 -0.0373283 7.0209 0
M  V30 2224 H 209.918 1.21699 2.72017 0
M  V30 2225 H 207.455 0.611456 1.33789 0
M  V30 2226 H 209.413 -0.85466 4.08352 0
M  V30 2227 H 208.043 -1.20128 2.99615 0
M  V30 2228 H 207.095 1.13391 3.63107 0
M  V30 2229 H 208.407 1.27597 4.82204 0
M  V30 2230 H 207.561 -0.752288 6.02018 0
M  V30 2231 H 206.3 -0.984758 4.77654 0
M  V30 2232 H 205.305 1.24637 5.35486 0
M  V30 2233 H 206.53 1.46664 6.63074 0
M  V30 2234 H 204.476 -0.774348 6.51414 0
M  V30 2235 H 204.393 0.624374 7.53417 0
M  V30 2236 H 205.661 -0.539891 7.77628 0
M  V30 2237 N 209.89 -1.43072 0.660911 0
M  V30 2238 C 211.118 -2.06067 0.185422 0
M  V30 2239 C 211.533 -1.49582 -1.15198 0
M  V30 2240 O 210.89 -0.630134 -1.71276 0
M  V30 2241 C 210.941 -3.61371 0.0966523 0
M  V30 2242 O 210.662 -4.15758 1.38119 0
M  V30 2243 C 212.163 -4.41455 -0.403996 0
M  V30 2244 H 209.383 -0.664459 0.0934604 0
M  V30 2245 H 211.927 -1.83447 0.90373 0
M  V30 2246 H 210.082 -3.8315 -0.572259 0
M  V30 2247 H 210.496 -5.09499 1.24542 0
M  V30 2248 H 211.97 -5.50437 -0.415045 0
M  V30 2249 H 212.447 -4.15036 -1.43674 0
M  V30 2250 H 213.053 -4.24663 0.232691 0
M  V30 2251 N 211.368 -0.403325 -1.52352 0
M  V30 2252 C 212.596 0.174012 -2.06167 0
M  V30 2253 C 213.011 1.39347 -1.27388 0
M  V30 2254 O 212.368 1.79597 -0.324201 0
M  V30 2255 C 212.419 0.530223 -3.5759 0
M  V30 2256 O 212.14 -0.640806 -4.33388 0
M  V30 2257 C 213.641 1.16192 -4.27802 0
M  V30 2258 H 210.861 0.0229464 -0.670608 0
M  V30 2259 H 213.405 -0.572604 -1.9632 0
M  V30 2260 H 211.56 1.22673 -3.67464 0
M  V30 2261 H 211.974 -0.344851 -5.23365 0
M  V30 2262 H 213.448 1.36141 -5.34948 0
M  V30 2263 H 213.925 2.13335 -3.83907 0
M  V30 2264 H 214.531 0.505775 -4.22282 0
M  V30 2265 N 212.846 1.57033 -0.133567 0
M  V30 2266 C 214.262 1.58035 0.222944 0
M  V30 2267 C 214.462 1.14713 1.6566 0
M  V30 2268 O 213.518 0.841218 2.38075 0
M  V30 2269 C 214.831 3.00691 -0.0236116 0
M  V30 2270 C 216.379 3.12973 0.0411512 0
M  V30 2271 C 216.854 4.57654 -0.177899 0
M  V30 2272 N 218.345 4.63033 -0.124365 0
M  V30 2273 C 219.08 5.72771 -0.268553 0
M  V30 2274 N 218.576 6.91206 -0.46972 0
M  V30 2275 N 220.369 5.61718 -0.2071 0
M  V30 2276 H 212.52 1.8349 -1.06981 0
M  V30 2277 H 214.783 0.848677 -0.422436 0
M  V30 2278 H 214.489 3.36726 -1.0153 0
M  V30 2279 H 214.363 3.70614 0.701808 0
M  V30 2280 H 216.75 2.76787 1.02338 0
M  V30 2281 H 216.831 2.45564 -0.716383 0
M  V30 2282 H 216.475 4.94542 -1.15717 0
M  V30 2283 H 216.405 5.23173 0.599797 0
M  V30 2284 H 218.896 3.7789 0.027011 0
M  V30 2285 H 219.209 7.70693 -0.570212 0
M  V30 2286 H 217.554 6.93156 -0.505876 0
M  V30 2287 H 220.745 4.68072 -0.0507986 0
M  V30 2288 H 220.918 6.47195 -0.322909 0
M  V30 2289 N 214.325 -0.140222 1.56975 0
M  V30 2290 C 215.736 -0.699596 1.73097 0
M  V30 2291 C 216.087 -1.8134 0.749022 0
M  V30 2292 O 215.212 -2.16241 -0.0828503 0
M  V30 2293 C 215.807 -1.27582 3.1386 0
M  V30 2294 C 214.366 -1.78169 3.31561 0
M  V30 2295 C 213.513 -0.672855 2.69013 0
M  V30 2296 H 216.464 0.0855115 1.58469 0
M  V30 2297 H 216.485 -2.14561 3.14235 0
M  V30 2298 H 215.997 -0.464955 3.85305 0
M  V30 2299 H 214.098 -2.61801 2.65124 0
M  V30 2300 H 214.211 -1.90574 4.39566 0
M  V30 2301 H 212.575 -1.10118 2.29665 0
M  V30 2302 H 213.358 0.126679 3.43066 0
M  V30 2303 N 215.803 -1.52179 -0.40978 0
M  V30 2304 C 217.05 -1.66206 -1.15679 0
M  V30 2305 C 217.378 -0.391674 -1.90516 0
M  V30 2306 O 216.633 0.62533 -1.8544 0
M  V30 2307 C 216.932 -2.83428 -2.17723 0
M  V30 2308 C 216.598 -4.21672 -1.59699 0
M  V30 2309 C 215.26 -4.59274 -1.43599 0
M  V30 2310 C 217.612 -5.07825 -1.17317 0
M  V30 2311 C 214.94 -5.80709 -0.836328 0
M  V30 2312 C 217.292 -6.29864 -0.587691 0
M  V30 2313 C 215.956 -6.66216 -0.413818 0
M  V30 2314 H 215.226 -0.608192 -0.423301 0
M  V30 2315 H 217.873 -1.86279 -0.444097 0
M  V30 2316 H 216.178 -2.57687 -2.95135 0
M  V30 2317 H 217.875 -2.91477 -2.75394 0
M  V30 2318 H 214.465 -3.9204 -1.73213 0
M  V30 2319 H 218.649 -4.79359 -1.28565 0
M  V30 2320 H 213.905 -6.07498 -0.689626 0
M  V30 2321 H 218.079 -6.95948 -0.250894 0
M  V30 2322 H 215.706 -7.60182 0.0529471 0
M  V30 2323 N 217.281 0.66697 -1.42791 0
M  V30 2324 C 218.528 1.42699 -1.43678 0
M  V30 2325 C 218.856 1.94419 -0.0560425 0
M  V30 2326 O 218.111 1.7182 0.936831 0
M  V30 2327 C 218.41 2.6349 -2.4147 0
M  V30 2328 C 218.076 2.30267 -3.8767 0
M  V30 2329 C 216.738 2.20918 -4.27491 0
M  V30 2330 C 219.09 2.03435 -4.79858 0
M  V30 2331 C 216.418 1.82873 -5.57471 0
M  V30 2332 C 218.77 1.66892 -6.10188 0
M  V30 2333 C 217.434 1.56058 -6.49001 0
M  V30 2334 H 216.704 0.522171 -0.525755 0
M  V30 2335 H 219.351 0.759785 -1.75783 0
M  V30 2336 H 217.656 3.35279 -2.0272 0
M  V30 2337 H 219.353 3.21684 -2.39417 0
M  V30 2338 H 215.943 2.38449 -3.56146 0
M  V30 2339 H 220.127 2.09586 -4.49875 0
M  V30 2340 H 215.383 1.7306 -5.86396 0
M  V30 2341 H 219.557 1.45157 -6.81104 0
M  V30 2342 H 217.184 1.26348 -7.49627 0
M  V30 2343 N 218.759 1.29093 0.90403 0
M  V30 2344 C 219.692 1.08176 2.00931 0
M  V30 2345 C 220.67 -0.005083 1.62599 0
M  V30 2346 O 221.854 0.144765 1.87943 0
M  V30 2347 C 218.981 0.645897 3.32484 0
M  V30 2348 C 218.027 1.73081 3.89801 0
M  V30 2349 S 218.86 3.32905 4.19446 0
M  V30 2350 C 220.016 2.91176 5.54046 0
M  V30 2351 H 220.249 2.01752 2.18365 0
M  V30 2352 H 217.782 1.13191 1.0501 0
M  V30 2353 H 219.74 0.401131 4.08535 0
M  V30 2354 H 218.401 -0.270188 3.12936 0
M  V30 2355 H 217.594 1.37768 4.84805 0
M  V30 2356 H 217.196 1.92888 3.20422 0
M  V30 2357 H 219.488 2.37952 6.34338 0
M  V30 2358 H 220.431 3.85014 5.94281 0
M  V30 2359 H 220.839 2.296 5.15698 0
M  V30 2360 N 220.237 -1.11381 1.11499 0
M  V30 2361 C 221.184 -2.17439 0.773887 0
M  V30 2362 C 222.154 -1.64132 -0.254899 0
M  V30 2363 O 223.339 -1.90345 -0.13168 0
M  V30 2364 C 220.479 -3.44373 0.223917 0
M  V30 2365 C 219.592 -4.1168 1.30934 0
M  V30 2366 C 218.727 -5.263 0.71984 0
M  V30 2367 C 217.766 -5.85493 1.78507 0
M  V30 2368 N 216.903 -6.91507 1.21502 0
M  V30 2369 H 221.743 -2.45962 1.68246 0
M  V30 2370 H 219.28 -1.20744 0.840191 0
M  V30 2371 H 221.238 -4.17047 -0.112921 0
M  V30 2372 H 219.868 -3.16232 -0.647851 0
M  V30 2373 H 218.92 -3.37073 1.76312 0
M  V30 2374 H 220.232 -4.51729 2.11524 0
M  V30 2375 H 219.386 -6.05785 0.333094 0
M  V30 2376 H 218.125 -4.87559 -0.117377 0
M  V30 2377 H 217.13 -5.04686 2.18111 0
M  V30 2378 H 218.355 -6.26301 2.62533 0
M  V30 2379 H 216.301 -6.54783 0.399455 0
M  V30 2380 H 216.218 -7.30214 1.95763 0
M  V30 2381 H 217.486 -7.74795 0.855181 0
M  V30 2382 N 221.715 -0.905404 -1.28997 0
M  V30 2383 C 222.678 -0.392253 -2.25819 0
M  V30 2384 C 223.678 0.476753 -1.5357 0
M  V30 2385 O 224.868 0.280994 -1.71919 0
M  V30 2386 C 222 0.438588 -3.38067 0
M  V30 2387 H 223.193 -1.24743 -2.72725 0
M  V30 2388 H 220.746 -0.684051 -1.40536 0
M  V30 2389 H 221.481 1.31352 -2.96508 0
M  V30 2390 H 221.266 -0.184167 -3.91667 0
M  V30 2391 H 222.756 0.78873 -4.10084 0
M  V30 2392 N 223.193 1.4272 -0.668489 0
M  V30 2393 C 224.123 2.335 -0.000100175 0
M  V30 2394 C 225.104 1.50328 0.795964 0
M  V30 2395 O 226.289 1.78949 0.754385 0
M  V30 2396 C 223.419 3.33874 0.956302 0
M  V30 2397 C 222.373 4.27152 0.269278 0
M  V30 2398 C 221.699 5.17684 1.33818 0
M  V30 2399 C 222.999 5.15373 -0.847805 0
M  V30 2400 H 224.693 2.89639 -0.758244 0
M  V30 2401 H 222.239 1.39269 -0.366079 0
M  V30 2402 H 224.192 3.9629 1.43292 0
M  V30 2403 H 222.916 2.76025 1.74579 0
M  V30 2404 H 221.575 3.66123 -0.187042 0
M  V30 2405 H 221.223 4.56165 2.1195 0
M  V30 2406 H 220.923 5.80918 0.883659 0
M  V30 2407 H 222.447 5.82974 1.81586 0
M  V30 2408 H 223.861 5.7151 -0.452681 0
M  V30 2409 H 222.258 5.87407 -1.22773 0
M  V30 2410 H 223.328 4.5415 -1.69929 0
M  V30 2411 N 224.671 0.411399 1.52136 0
M  V30 2412 C 225.896 -0.165538 2.06738 0
M  V30 2413 C 226.321 -1.379 1.27926 0
M  V30 2414 O 225.679 -1.78628 0.310114 0
M  V30 2415 C 225.727 -0.492124 3.57226 0
M  V30 2416 O 224.831 -1.58276 3.80818 0
M  V30 2417 H 224.172 -0.0132132 0.663869 0
M  V30 2418 H 226.702 0.585253 1.96051 0
M  V30 2419 H 226.712 -0.750104 4.01045 0
M  V30 2420 H 225.387 0.394922 4.14021 0
M  V30 2421 H 223.964 -1.31677 3.48877 0
M  V30 2422 N 226.149 -1.5696 0.141893 0
M  V30 2423 C 227.397 -1.95573 -0.509484 0
M  V30 2424 C 227.718 -1.02746 -1.65736 0
M  V30 2425 O 226.988 -0.0880311 -1.95702 0
M  V30 2426 H 225.568 -0.722115 -0.191205 0
M  V30 2427 H 228.23 -1.93697 0.216196 0
M  V30 2428 H 227.326 -2.99171 -0.889 0
M  V30 2429 N 227.627 0.131896 -1.57047 0
M  V30 2430 C 229.038 0.690407 -1.73465 0
M  V30 2431 C 229.389 1.8094 -0.758629 0
M  V30 2432 O 228.514 2.16282 0.0713813 0
M  V30 2433 C 229.109 1.25916 -3.14532 0
M  V30 2434 C 227.668 1.76409 -3.32501 0
M  V30 2435 C 226.815 0.658579 -2.69366 0
M  V30 2436 H 229.766 -0.0939144 -1.58422 0
M  V30 2437 H 229.787 2.12892 -3.15369 0
M  V30 2438 H 229.299 0.444515 -3.85546 0
M  V30 2439 H 227.4 2.60391 -2.66509 0
M  V30 2440 H 227.513 1.88241 -4.4057 0
M  V30 2441 H 225.877 1.08899 -2.30246 0
M  V30 2442 H 226.66 -0.14487 -3.42994 0
M  V30 2443 N 229.106 1.52395 0.401703 0
M  V30 2444 C 230.354 1.66488 1.14569 0
M  V30 2445 C 230.675 0.400897 1.90835 0
M  V30 2446 O 229.945 -0.584415 1.8698 0
M  V30 2447 H 228.525 0.613672 0.425929 0
M  V30 2448 H 231.187 1.89464 0.457093 0
M  V30 2449 H 230.283 2.50942 1.85566 0
M  V30 2450 N 230.584 -0.659388 1.43143 0
M  V30 2451 C 231.514 -1.78422 1.50625 0
M  V30 2452 C 232.495 -1.66216 0.361443 0
M  V30 2453 O 233.68 -1.85404 0.577834 0
M  V30 2454 C 230.81 -3.16815 1.42287 0
M  V30 2455 C 229.764 -3.43777 2.54954 0
M  V30 2456 C 229.09 -4.81905 2.31671 0
M  V30 2457 C 230.39 -3.39134 3.97222 0
M  V30 2458 H 232.084 -1.72417 2.44771 0
M  V30 2459 H 229.63 -0.828084 1.17808 0
M  V30 2460 H 231.583 -3.95253 1.46127 0
M  V30 2461 H 230.307 -3.23534 0.446435 0
M  V30 2462 H 228.966 -2.67707 2.50457 0
M  V30 2463 H 228.614 -4.85294 1.32284 0
M  V30 2464 H 228.314 -5.00906 3.07192 0
M  V30 2465 H 229.838 -5.62609 2.37284 0
M  V30 2466 H 231.252 -4.07518 4.03239 0
M  V30 2467 H 229.649 -3.69671 4.72719 0
M  V30 2468 H 230.719 -2.37426 4.22797 0
M  V30 2469 N 232.062 -1.29571 -0.897171 0
M  V30 2470 C 233.308 -1.17863 -1.65034 0
M  V30 2471 C 233.641 0.268729 -1.92332 0
M  V30 2472 O 232.916 1.19378 -1.53555 0
M  V30 2473 C 233.199 -1.995 -2.99786 0
M  V30 2474 C 233.052 -3.5239 -2.79538 0
M  V30 2475 C 234.371 -1.82335 -4.00552 0
M  V30 2476 H 231.49 -0.429528 -0.598895 0
M  V30 2477 H 234.132 -1.59072 -1.03905 0
M  V30 2478 H 232.282 -1.64485 -3.51962 0
M  V30 2479 H 233.954 -3.97401 -2.34244 0
M  V30 2480 H 232.197 -3.77187 -2.14273 0
M  V30 2481 H 232.868 -4.04787 -3.75302 0
M  V30 2482 H 235.344 -2.12924 -3.57495 0
M  V30 2483 H 234.22 -2.41801 -4.92771 0
M  V30 2484 H 234.481 -0.779209 -4.35179 0
M  V30 2485 N 233.54 1.10788 -1.12088 0
M  V30 2486 C 234.956 1.34691 -0.856186 0
M  V30 2487 C 235.156 1.94791 0.515615 0
M  V30 2488 O 234.212 2.18524 1.26505 0
M  V30 2489 C 235.525 2.27208 -1.9697 0
M  V30 2490 C 237.073 2.40755 -2.00016 0
M  V30 2491 C 237.548 3.36598 -3.1059 0
M  V30 2492 N 239.039 3.44164 -3.10008 0
M  V30 2493 C 239.774 4.18284 -3.92206 0
M  V30 2494 N 239.27 4.95322 -4.84384 0
M  V30 2495 N 241.063 4.13865 -3.80357 0
M  V30 2496 H 233.214 0.70144 -2.00483 0
M  V30 2497 H 235.477 0.371405 -0.872217 0
M  V30 2498 H 235.183 1.90251 -2.958 0
M  V30 2499 H 235.057 3.27485 -1.87172 0
M  V30 2500 H 237.444 2.76982 -1.01808 0
M  V30 2501 H 237.525 1.40305 -2.13888 0
M  V30 2502 H 237.169 3.01096 -4.09028 0
M  V30 2503 H 237.099 4.36918 -2.93956 0
M  V30 2504 H 239.59 2.8922 -2.43228 0
M  V30 2505 H 239.903 5.49267 -5.43623 0
M  V30 2506 H 238.248 4.94459 -4.884 0
M  V30 2507 H 241.439 3.52773 -3.07683 0
M  V30 2508 H 241.612 4.71372 -4.44649 0
M  V30 2509 N 235.018 0.912232 1.28515 0
M  V30 2510 C 235.951 0.343928 2.25593 0
M  V30 2511 C 236.929 -0.550994 1.5298 0
M  V30 2512 O 238.113 -0.494991 1.81885 0
M  V30 2513 C 235.24 -0.508525 3.34861 0
M  V30 2514 C 234.286 0.320808 4.25292 0
M  V30 2515 S 235.119 1.72658 5.06902 0
M  V30 2516 C 236.275 0.881394 6.19663 0
M  V30 2517 H 236.508 1.16674 2.73449 0
M  V30 2518 H 234.041 0.713384 1.36931 0
M  V30 2519 H 235.999 -0.994539 3.9827 0
M  V30 2520 H 234.66 -1.30571 2.85675 0
M  V30 2521 H 233.853 -0.330941 5.02912 0
M  V30 2522 H 233.455 0.74042 3.66598 0
M  V30 2523 H 235.747 0.110359 6.7741 0
M  V30 2524 H 236.69 1.63009 6.89082 0
M  V30 2525 H 237.098 0.430239 5.62858 0
M  V30 2526 N 236.496 -1.42363 0.676048 0
M  V30 2527 C 237.742 -2.0182 0.199125 0
M  V30 2528 C 238.075 -1.53339 -1.19168 0
M  V30 2529 O 237.35 -0.736124 -1.80032 0
M  V30 2530 C 237.633 -3.59331 0.235144 0
M  V30 2531 C 237.486 -4.17989 1.66149 0
M  V30 2532 C 238.805 -4.3813 -0.41595 0
M  V30 2533 H 235.924 -0.733293 0.0738311 0
M  V30 2534 H 238.566 -1.69368 0.86107 0
M  V30 2535 H 236.716 -3.87109 -0.328487 0
M  V30 2536 H 238.388 -4.0116 2.27747 0
M  V30 2537 H 236.631 -3.7377 2.20178 0
M  V30 2538 H 237.302 -5.27126 1.63837 0
M  V30 2539 H 239.778 -4.16051 0.0638529 0
M  V30 2540 H 238.654 -5.47717 -0.360115 0
M  V30 2541 H 238.915 -4.16101 -1.49373 0
M  V30 2542 N 237.974 -0.419461 -1.51915 0
M  V30 2543 C 239.202 0.152136 -2.0634 0
M  V30 2544 C 239.617 1.37988 -1.28859 0
M  V30 2545 O 238.974 1.79243 -0.343232 0
M  V30 2546 C 239.025 0.492266 -3.58133 0
M  V30 2547 O 238.746 -0.686736 -4.32684 0
M  V30 2548 C 240.247 1.11648 -4.2901 0
M  V30 2549 H 237.467 0.0158325 -0.670813 0
M  V30 2550 H 240.011 -0.593394 -1.95702 0
M  V30 2551 H 238.166 1.18769 -3.68745 0
M  V30 2552 H 238.58 -0.400341 -5.2297 0
M  V30 2553 H 240.054 1.3046 -5.36362 0
M  V30 2554 H 240.531 2.09251 -3.86148 0
M  V30 2555 H 241.137 0.460958 -4.22795 0
M  V30 2556 N 239.452 1.56882 -0.150215 0
M  V30 2557 C 240.698 1.96518 0.500834 0
M  V30 2558 C 241.031 1.03527 1.64304 0
M  V30 2559 O 240.306 0.0782751 1.94342 0
M  V30 2560 C 240.589 3.45822 1.00395 0
M  V30 2561 C 240.442 4.49591 -0.136983 0
M  V30 2562 C 241.761 3.97704 1.88467 0
M  V30 2563 H 238.88 0.714535 0.18058 0
M  V30 2564 H 241.522 1.88577 -0.232091 0
M  V30 2565 H 239.672 3.5272 1.62851 0
M  V30 2566 H 241.344 4.5477 -0.77343 0
M  V30 2567 H 239.587 4.26441 -0.795652 0
M  V30 2568 H 240.258 5.51402 0.256815 0
M  V30 2569 H 242.734 3.93304 1.35834 0
M  V30 2570 H 241.61 5.0263 2.20578 0
M  V30 2571 H 241.871 3.40252 2.82279 0
M  V30 2572 N 240.93 -0.123565 1.57115 0
M  V30 2573 C 242.17 -0.838097 1.86428 0
M  V30 2574 C 242.534 -1.77266 0.737611 0
M  V30 2575 O 243.735 -2.52842 0.912389 0
M  V30 2576 C 242.006 -1.57219 3.20962 0
M  V30 2577 S 243.565 -2.32893 3.71896 0
M  V30 2578 H 240.383 -0.279811 0.653626 0
M  V30 2579 H 242.985 -0.0967034 1.95261 0
M  V30 2580 H 241.689 -0.877522 4.00909 0
M  V30 2581 H 241.22 -2.35405 3.15195 0
M  V30 2582 H 243.235 -3.5853 3.43032 0
M  V30 2583 N 242.408 -1.52605 -0.393616 0
M  V30 2584 C 243.371 -1.76415 -1.46323 0
M  V30 2585 C 244.371 -0.634126 -1.47768 0
M  V30 2586 O 245.561 -0.902142 -1.4902 0
M  V30 2587 C 242.693 -1.8607 -2.85641 0
M  V30 2588 H 243.886 -2.71916 -1.26498 0
M  V30 2589 H 241.439 -1.43257 -0.625073 0
M  V30 2590 H 242.174 -0.925378 -3.10817 0
M  V30 2591 H 241.959 -2.68235 -2.85993 0
M  V30 2592 H 243.449 -2.06179 -3.63153 0
M  V30 2593 N 243.887 0.651787 -1.4349 0
M  V30 2594 C 244.797 1.79368 -1.5121 0
M  V30 2595 C 245.813 1.69361 -0.399093 0
M  V30 2596 O 246.989 1.90505 -0.653431 0
M  V30 2597 C 244.054 3.15653 -1.43401 0
M  V30 2598 C 243.115 3.37446 -2.65384 0
M  V30 2599 C 242.348 4.67229 -2.57939 0
M  V30 2600 O 242.571 5.46676 -1.62792 0
M  V30 2601 O 241.505 4.90773 -3.48462 0
M  V30 2602 H 245.331 1.7581 -2.47638 0
M  V30 2603 H 242.916 0.810447 -1.25507 0
M  V30 2604 H 244.798 3.96935 -1.41494 0
M  V30 2605 H 243.473 3.19798 -0.501085 0
M  V30 2606 H 242.38 2.55923 -2.72863 0
M  V30 2607 H 243.713 3.38148 -3.57654 0
M  V30 2608 N 245.365 1.30045 0.890287 0
M  V30 2609 C 246.59 1.21598 1.68014 0
M  V30 2610 C 247.015 -0.218678 1.86825 0
M  V30 2611 O 246.373 -1.15756 1.39536 0
M  V30 2612 C 246.421 1.94434 3.03691 0
M  V30 2613 O 245.525 1.2678 3.92429 0
M  V30 2614 H 244.866 0.420856 0.513592 0
M  V30 2615 H 247.396 1.71775 1.11151 0
M  V30 2616 H 247.406 2.03251 3.5377 0
M  V30 2617 H 246.081 2.98777 2.89318 0
M  V30 2618 H 244.658 1.26282 3.50866 0
M  V30 2619 N 246.843 -1.10192 1.12674 0
M  V30 2620 C 247.773 -2.18652 0.819362 0
M  V30 2621 C 248.754 -1.68698 -0.217915 0
M  V30 2622 O 249.939 -1.94041 -0.0785581 0
M  V30 2623 C 247.069 -3.46202 0.27594 0
M  V30 2624 C 246.023 -4.09444 1.24656 0
M  V30 2625 C 245.349 -5.31725 0.563258 0
M  V30 2626 C 246.649 -4.52863 2.60217 0
M  V30 2627 H 248.343 -2.44622 1.72628 0
M  V30 2628 H 245.889 -1.17571 0.831451 0
M  V30 2629 H 247.842 -4.21372 0.0486149 0
M  V30 2630 H 246.566 -3.1973 -0.666331 0
M  V30 2631 H 245.225 -3.36284 1.45974 0
M  V30 2632 H 244.873 -5.0153 -0.384235 0
M  V30 2633 H 244.573 -5.74991 1.21075 0
M  V30 2634 H 246.097 -6.09624 0.34503 0
M  V30 2635 H 247.511 -5.19294 2.42913 0
M  V30 2636 H 245.908 -5.06986 3.21068 0
M  V30 2637 H 246.978 -3.65656 3.18471 0
M  V30 2638 N 248.321 -0.919034 -1.28029 0
M  V30 2639 C 249.268 -0.410005 -2.27129 0
M  V30 2640 C 250.238 0.518405 -1.57803 0
M  V30 2641 O 251.423 0.439451 -1.8567 0
M  V30 2642 C 248.563 0.339054 -3.4343 0
M  V30 2643 C 247.676 -0.622468 -4.27492 0
M  V30 2644 C 246.811 0.145567 -5.31001 0
M  V30 2645 C 245.85 -0.809226 -6.06727 0
M  V30 2646 N 244.987 -0.0743728 -7.02061 0
M  V30 2647 H 249.827 -1.26011 -2.70047 0
M  V30 2648 H 247.364 -0.632663 -1.328 0
M  V30 2649 H 249.322 0.789586 -4.0966 0
M  V30 2650 H 247.952 1.15346 -3.01488 0
M  V30 2651 H 247.004 -1.19153 -3.61257 0
M  V30 2652 H 248.316 -1.35252 -4.80113 0
M  V30 2653 H 247.47 0.656417 -6.03139 0
M  V30 2654 H 246.209 0.908643 -4.79161 0
M  V30 2655 H 245.214 -1.3314 -5.33436 0
M  V30 2656 H 246.439 -1.57194 -6.60656 0
M  V30 2657 H 244.385 0.670616 -6.52563 0
M  V30 2658 H 244.302 -0.744157 -7.52329 0
M  V30 2659 H 245.57 0.416109 -7.78389 0
M  V30 2660 N 249.799 1.42003 -0.683588 0
M  V30 2661 C 251.027 2.05746 -0.218182 0
M  V30 2662 C 251.442 1.51396 1.12804 0
M  V30 2663 O 250.799 0.657303 1.70252 0
M  V30 2664 C 250.85 3.61171 -0.154131 0
M  V30 2665 O 250.571 4.13508 -1.44716 0
M  V30 2666 C 252.072 4.42042 0.333713 0
M  V30 2667 H 249.292 0.662888 -0.10402 0
M  V30 2668 H 251.836 1.81987 -0.9328 0
M  V30 2669 H 249.991 3.84012 0.511231 0
M  V30 2670 H 250.405 5.07453 -1.32632 0
M  V30 2671 H 251.879 5.51028 0.327423 0
M  V30 2672 H 252.356 4.17269 1.37053 0
M  V30 2673 H 252.962 4.24239 -0.300222 0
M  V30 2674 N 251.277 0.427512 1.51691 0
M  V30 2675 C 252.227 -0.406604 2.24345 0
M  V30 2676 C 253.211 -0.998276 1.26187 0
M  V30 2677 O 254.403 -0.918045 1.51331 0
M  V30 2678 C 251.532 -1.51266 3.08177 0
M  V30 2679 C 250.618 -0.930868 4.13758 0
M  V30 2680 N 251.009 -0.0773552 5.05741 0
M  V30 2681 C 249.307 -1.19948 4.29568 0
M  V30 2682 C 250.008 0.248344 5.8117 0
M  V30 2683 N 248.984 -0.365535 5.4237 0
M  V30 2684 H 252.786 0.251581 2.92821 0
M  V30 2685 H 250.3 0.239003 1.60632 0
M  V30 2686 H 252.297 -2.123 3.58796 0
M  V30 2687 H 250.957 -2.17328 2.41244 0
M  V30 2688 H 251.968 0.288351 5.17097 0
M  V30 2689 H 248.645 -1.85832 3.73862 0
M  V30 2690 H 250.035 0.942286 6.6526 0
M  V30 2691 N 252.755 -1.56801 0.158532 0
M  V30 2692 C 253.685 -2.20347 -0.772609 0
M  V30 2693 C 254.666 -1.15518 -1.24859 0
M  V30 2694 O 255.851 -1.43902 -1.30406 0
M  V30 2695 C 252.981 -2.83417 -2.00729 0
M  V30 2696 C 251.935 -3.94174 -1.66765 0
M  V30 2697 C 251.261 -4.44233 -2.97592 0
M  V30 2698 C 252.561 -5.14392 -0.905447 0
M  V30 2699 H 254.255 -2.98413 -0.242959 0
M  V30 2700 H 251.801 -1.43537 -0.115419 0
M  V30 2701 H 253.754 -3.26543 -2.6636 0
M  V30 2702 H 252.478 -2.02701 -2.56086 0
M  V30 2703 H 251.137 -3.51684 -1.03508 0
M  V30 2704 H 250.785 -3.60325 -3.50963 0
M  V30 2705 H 250.485 -5.18945 -2.75626 0
M  V30 2706 H 252.009 -4.90037 -3.64274 0
M  V30 2707 H 253.423 -5.5429 -1.46408 0
M  V30 2708 H 251.82 -5.9494 -0.7853 0
M  V30 2709 H 252.89 -4.84795 0.100668 0
M  V30 2710 N 254.233 0.115231 -1.57178 0
M  V30 2711 C 255.51 0.852873 -1.76027 0
M  V30 2712 C 255.89 1.97892 -0.73498 0
M  V30 2713 O 255.238 2.27232 0.24036 0
M  V30 2714 C 255.448 1.36608 -3.21153 0
M  V30 2715 C 256.796 1.81692 -3.83762 0
M  V30 2716 O 257.82 1.46278 -3.24779 0
M  V30 2717 O 256.679 2.47104 -4.87444 0
M  V30 2718 H 253.773 0.405296 -0.720877 0
M  V30 2719 H 256.319 0.0986785 -1.69413 0
M  V30 2720 H 255.091 0.558357 -3.87296 0
M  V30 2721 H 254.714 2.18287 -3.3232 0
M  V30 2722 N 255.711 1.52812 0.385517 0
M  V30 2723 C 257.127 1.4214 0.725829 0
M  V30 2724 C 257.327 0.544589 1.94001 0
M  V30 2725 O 256.383 0.0193693 2.52493 0
M  V30 2726 C 257.696 2.85042 0.957668 0
M  V30 2727 C 259.244 2.94543 1.05892 0
M  V30 2728 C 259.719 4.38464 1.32337 0
M  V30 2729 N 261.21 4.41804 1.39151 0
M  V30 2730 C 261.945 5.5025 1.61285 0
M  V30 2731 N 261.441 6.68775 1.80866 0
M  V30 2732 N 263.234 5.37798 1.63492 0
M  V30 2733 H 255.385 2.08338 -0.413383 0
M  V30 2734 H 257.648 0.940016 -0.122775 0
M  V30 2735 H 257.354 3.51431 0.137568 0
M  V30 2736 H 257.228 3.27505 1.87137 0
M  V30 2737 H 259.615 2.28321 1.86959 0
M  V30 2738 H 259.696 2.55504 0.123057 0
M  V30 2739 H 259.34 5.05254 0.517793 0
M  V30 2740 H 259.27 4.75059 2.27214 0
M  V30 2741 H 261.761 3.56377 1.25713 0
M  V30 2742 H 262.074 7.47197 1.97271 0
M  V30 2743 H 260.419 6.71797 1.78083 0
M  V30 2744 H 263.61 4.44171 1.47749 0
M  V30 2745 H 263.783 6.22382 1.80402 0
M  V30 2746 N 257.189 -0.644168 1.43834 0
M  V30 2747 C 258.119 -1.76814 1.52509 0
M  V30 2748 C 259.1 -1.65823 0.379052 0
M  V30 2749 O 260.285 -1.84781 0.597466 0
M  V30 2750 C 257.415 -3.15288 1.4564 0
M  V30 2751 C 256.369 -3.41053 2.58586 0
M  V30 2752 C 255.695 -4.79421 2.36769 0
M  V30 2753 C 256.995 -3.34902 4.00797 0
M  V30 2754 H 258.689 -1.69812 2.46586 0
M  V30 2755 H 256.235 -0.815542 1.1868 0
M  V30 2756 H 258.188 -3.93681 1.50311 0
M  V30 2757 H 256.912 -3.23043 0.480725 0
M  V30 2758 H 255.571 -2.65035 2.53282 0
M  V30 2759 H 255.219 -4.83863 1.37424 0
M  V30 2760 H 254.919 -4.9762 3.12487 0
M  V30 2761 H 256.443 -5.6006 2.43238 0
M  V30 2762 H 257.857 -4.03218 4.07539 0
M  V30 2763 H 256.254 -3.64637 4.76613 0
M  V30 2764 H 257.324 -2.32928 4.25291 0
M  V30 2765 N 258.668 -1.30515 -0.883378 0
M  V30 2766 C 259.578 -1.18959 -2.02203 0
M  V30 2767 C 260.594 -0.109172 -1.73657 0
M  V30 2768 O 261.77 -0.324413 -1.9877 0
M  V30 2769 C 258.835 -0.883871 -3.35244 0
M  V30 2770 C 257.896 -2.04982 -3.77201 0
M  V30 2771 C 257.129 -1.75859 -5.03894 0
M  V30 2772 O 257.352 -0.687276 -5.66244 0
M  V30 2773 O 256.286 -2.61146 -5.42297 0
M  V30 2774 H 260.112 -2.14616 -2.1488 0
M  V30 2775 H 257.697 -1.10124 -1.0096 0
M  V30 2776 H 259.579 -0.728644 -4.15053 0
M  V30 2777 H 258.254 0.0427798 -3.23672 0
M  V30 2778 H 257.161 -2.26038 -2.9809 0
M  V30 2779 H 258.494 -2.95825 -3.93381 0
M  V30 2780 N 260.146 1.09593 -1.13257 0
M  V30 2781 C 261.056 2.19739 -0.821691 0
M  V30 2782 C 262.072 1.72926 0.19302 0
M  V30 2783 O 263.248 2.01385 0.0244895 0
M  V30 2784 C 260.313 3.45482 -0.290333 0
M  V30 2785 C 259.374 4.06985 -1.36607 0
M  V30 2786 C 258.607 5.26726 -0.859975 0
M  V30 2787 O 258.83 5.69594 0.303082 0
M  V30 2788 O 257.764 5.7931 -1.63351 0
M  V30 2789 H 261.59 2.48781 -1.74189 0
M  V30 2790 H 259.175 1.18496 -0.909894 0
M  V30 2791 H 261.057 4.214 0.000674022 0
M  V30 2792 H 259.732 3.18047 0.602306 0
M  V30 2793 H 258.639 3.32712 -1.71037 0
M  V30 2794 H 259.972 4.38643 -2.23279 0
M  V30 2795 N 261.624 0.925811 1.2754 0
M  V30 2796 C 262.87 0.566092 1.94739 0
M  V30 2797 C 263.203 -0.890057 1.72603 0
M  V30 2798 O 262.478 -1.63467 1.05399 0
M  V30 2799 C 262.761 0.89054 3.48915 0
M  V30 2800 C 262.614 2.4003 3.80402 0
M  V30 2801 C 263.933 0.395101 4.38323 0
M  V30 2802 H 261.052 0.20714 0.707292 0
M  V30 2803 H 263.694 1.15725 1.50691 0
M  V30 2804 H 261.844 0.387452 3.86563 0
M  V30 2805 H 263.516 2.97494 3.52555 0
M  V30 2806 H 261.759 2.85028 3.2702 0
M  V30 2807 H 262.43 2.57785 4.8811 0
M  V30 2808 H 264.906 0.826241 4.07814 0
M  V30 2809 H 263.782 0.651086 5.45025 0
M  V30 2810 H 264.043 -0.704798 4.36446 0
M  V30 2811 N 263.102 -1.41638 0.69111 0
M  V30 2812 C 264.33 -2.05628 0.22909 0
M  V30 2813 C 264.745 -1.51992 -1.11999 0
M  V30 2814 O 264.102 -0.666322 -1.69901 0
M  V30 2815 C 264.153 -3.61084 0.173283 0
M  V30 2816 O 263.874 -4.12735 1.46907 0
M  V30 2817 C 265.375 -4.42213 -0.310266 0
M  V30 2818 H 262.595 -0.662327 0.107534 0
M  V30 2819 H 265.139 -1.81489 0.942438 0
M  V30 2820 H 263.294 -3.84278 -0.490858 0
M  V30 2821 H 263.708 -5.06743 1.35322 0
M  V30 2822 H 265.182 -5.51194 -0.298196 0
M  V30 2823 H 265.659 -4.1799 -1.34838 0
M  V30 2824 H 266.265 -4.24074 0.322716 0
M  V30 2825 N 264.58 -0.43555 -1.51462 0
M  V30 2826 C 265.528 0.391205 -2.29287 0
M  V30 2827 C 266.522 1.02247 -1.35062 0
M  V30 2828 O 267.728 0.957646 -1.52411 0
M  V30 2829 H 264.103 0.144968 -0.737895 0
M  V30 2830 H 266.074 -0.286051 -2.97026 0
M  V30 2831 C 264.823 1.48096 -3.14583 0
M  V30 2832 H 264.146 1.00457 -3.86973 0
M  V30 2833 H 265.586 2.03273 -3.72097 0
M  V30 2834 C 264.045 2.46321 -2.29843 0
M  V30 2835 O 264.575 3.50815 -1.95682 0
M  V30 2836 N 262.781 2.17166 -1.931 0
M  V30 2837 H 262.328 1.32218 -2.21079 0
M  V30 2838 H 262.286 2.83127 -1.36698 0
M  V30 2839 N 266.058 1.56714 -0.166846 0
M  V30 2840 C 266.968 2.21331 0.777791 0
M  V30 2841 C 267.984 1.20358 1.25658 0
M  V30 2842 O 269.16 1.53005 1.30964 0
M  V30 2843 C 266.225 2.83787 1.99163 0
M  V30 2844 C 265.286 3.99947 1.56016 0
M  V30 2845 C 264.519 4.59415 2.71613 0
M  V30 2846 O 264.742 4.17769 3.88362 0
M  V30 2847 O 263.676 5.49359 2.45945 0
M  V30 2848 H 267.502 3.02605 0.257636 0
M  V30 2849 H 265.087 1.49275 0.0611393 0
M  V30 2850 H 266.969 3.23405 2.70161 0
M  V30 2851 H 265.644 2.05513 2.50092 0
M  V30 2852 H 264.551 3.65007 0.819809 0
M  V30 2853 H 265.884 4.79801 1.09782 0
M  V30 2854 N 267.536 -0.106894 1.57237 0
M  V30 2855 C 268.761 -0.830287 1.90055 0
M  V30 2856 C 269.186 -1.72064 0.75998 0
M  V30 2857 O 268.544 -1.78982 -0.288991 0
M  V30 2858 C 268.592 -1.6295 3.21683 0
M  V30 2859 O 267.696 -2.73748 3.08441 0
M  V30 2860 H 267.037 -0.228855 0.623315 0
M  V30 2861 H 269.567 -0.085658 2.04421 0
M  V30 2862 H 269.577 -2.01621 3.54701 0
M  V30 2863 H 268.252 -0.975989 4.04286 0
M  V30 2864 H 266.829 -2.38192 2.86913 0
M  V30 2865 N 269.014 -1.53014 -0.377408 0
M  V30 2866 C 270.262 -1.6829 -1.11906 0
M  V30 2867 C 270.583 -0.431206 -1.90173 0
M  V30 2868 O 269.853 0.554595 -1.87886 0
M  V30 2869 H 268.433 -0.620371 -0.416112 0
M  V30 2870 H 271.095 -1.90167 -0.426893 0
M  V30 2871 H 270.191 -2.53862 -1.8155 0
M  V30 2872 N 270.492 0.636531 -1.44174 0
M  V30 2873 C 271.722 1.42146 -1.49927 0
M  V30 2874 C 272.13 1.88812 -0.121063 0
M  V30 2875 O 271.473 1.61126 0.882267 0
M  V30 2876 C 271.535 2.67883 -2.39748 0
M  V30 2877 C 271.199 2.43048 -3.8701 0
M  V30 2878 C 272.196 2.05216 -4.77684 0
M  V30 2879 C 269.881 2.56856 -4.3166 0
M  V30 2880 C 271.875 1.81512 -6.11009 0
M  V30 2881 C 269.562 2.32766 -5.65034 0
M  V30 2882 C 270.56 1.95152 -6.54526 0
M  V30 2883 O 270.248 1.71326 -7.85431 0
M  V30 2884 H 269.98 0.442567 -0.51099 0
M  V30 2885 H 272.534 0.786158 -1.8976 0
M  V30 2886 H 270.764 3.34032 -1.94832 0
M  V30 2887 H 272.453 3.29874 -2.36513 0
M  V30 2888 H 273.219 1.94111 -4.44462 0
M  V30 2889 H 269.098 2.85104 -3.62266 0
M  V30 2890 H 272.642 1.52077 -6.80822 0
M  V30 2891 H 268.539 2.43479 -5.97819 0
M  V30 2892 H 269.307 1.85616 -7.97176 0
M  V30 2893 N 271.97 1.30982 0.876444 0
M  V30 2894 C 273.216 1.20474 1.63138 0
M  V30 2895 C 273.549 -0.238096 1.92735 0
M  V30 2896 O 272.824 -1.1692 1.55435 0
M  V30 2897 C 273.107 2.04244 2.96574 0
M  V30 2898 C 272.96 3.56793 2.73896 0
M  V30 2899 C 274.279 1.88684 3.97601 0
M  V30 2900 H 271.398 0.439001 0.591985 0
M  V30 2901 H 274.04 1.60704 1.01361 0
M  V30 2902 H 272.19 1.70063 3.493 0
M  V30 2903 H 273.862 4.01077 2.27892 0
M  V30 2904 H 272.105 3.80548 2.08245 0
M  V30 2905 H 272.776 4.10706 3.68815 0
M  V30 2906 H 275.252 2.18584 3.54062 0
M  V30 2907 H 274.128 2.4961 4.88862 0
M  V30 2908 H 274.389 0.848343 4.33884 0
M  V30 2909 N 273.449 -1.08991 1.13837 0
M  V30 2910 C 274.726 -1.77863 0.813876 0
M  V30 2911 C 275.106 -1.99375 -0.693746 0
M  V30 2912 O 274.454 -1.59875 -1.63255 0
M  V30 2913 C 274.664 -3.0986 1.60586 0
M  V30 2914 C 276.012 -3.84493 1.8014 0
M  V30 2915 O 277.036 -3.19624 1.57222 0
M  V30 2916 O 275.895 -5.00957 2.18413 0
M  V30 2917 H 272.989 -0.771589 0.297624 0
M  V30 2918 H 275.535 -1.15507 1.24323 0
M  V30 2919 H 274.307 -2.89715 2.63022 0
M  V30 2920 H 273.93 -3.79942 1.17173 0
M  V30 2921 N 274.927 -0.932562 -1.27047 0
M  V30 2922 C 276.173 -0.576412 -1.94436 0
M  V30 2923 C 276.506 0.880891 -1.73072 0
M  V30 2924 O 275.781 1.62905 -1.06264 0
M  V30 2925 C 276.064 -0.909031 -3.48437 0
M  V30 2926 C 275.917 -2.42044 -3.79123 0
M  V30 2927 C 277.236 -0.418341 -4.38107 0
M  V30 2928 H 274.355 -0.210888 -0.706184 0
M  V30 2929 H 276.997 -1.16522 -1.50075 0
M  V30 2930 H 275.147 -0.407947 -3.86352 0
M  V30 2931 H 276.819 -2.99359 -3.50973 0
M  V30 2932 H 275.062 -2.86758 -3.25503 0
M  V30 2933 H 275.733 -2.6037 -4.86736 0
M  V30 2934 H 278.209 -0.847856 -4.0737 0
M  V30 2935 H 277.085 -0.679981 -5.44672 0
M  V30 2936 H 277.346 0.681642 -4.36814 0
M  V30 2937 N 276.405 1.4127 -0.698611 0
M  V30 2938 C 277.335 2.33447 -0.049629 0
M  V30 2939 C 278.316 1.51982 0.763898 0
M  V30 2940 O 279.501 1.80509 0.716257 0
M  V30 2941 C 276.631 3.35828 0.885267 0
M  V30 2942 C 275.585 4.27627 0.178613 0
M  V30 2943 C 274.911 5.20406 1.22807 0
M  V30 2944 C 276.211 5.13459 -0.956933 0
M  V30 2945 H 277.905 2.87966 -0.81951 0
M  V30 2946 H 275.451 1.38461 -0.395538 0
M  V30 2947 H 277.404 3.9924 1.34854 0
M  V30 2948 H 276.128 2.79666 1.68685 0
M  V30 2949 H 274.787 3.65643 -0.26466 0
M  V30 2950 H 274.435 4.60558 2.02226 0
M  V30 2951 H 274.135 5.82661 0.760239 0
M  V30 2952 H 275.659 5.86695 1.69179 0
M  V30 2953 H 277.073 5.70421 -0.573805 0
M  V30 2954 H 275.47 5.8467 -1.35205 0
M  V30 2955 H 276.54 4.50443 -1.79524 0
M  V30 2956 N 277.883 0.443576 1.51229 0
M  V30 2957 C 279.111 -0.11929 2.06556 0
M  V30 2958 C 279.526 -1.35921 1.31038 0
M  V30 2959 O 278.883 -1.78675 0.371704 0
M  V30 2960 C 278.934 -0.435228 3.5887 0
M  V30 2961 O 278.655 0.755486 4.31537 0
M  V30 2962 C 280.156 -1.04808 4.30732 0
M  V30 2963 H 277.376 -0.0051584 0.67098 0
M  V30 2964 H 279.92 0.624453 1.94733 0
M  V30 2965 H 278.075 -1.12887 3.70588 0
M  V30 2966 H 278.489 0.483491 5.22267 0
M  V30 2967 H 279.963 -1.2191 5.3837 0
M  V30 2968 H 280.44 -2.03081 3.89429 0
M  V30 2969 H 281.046 -0.393637 4.23474 0
M  V30 2970 N 279.361 -1.56624 0.175154 0
M  V30 2971 C 280.291 -2.21155 -0.749195 0
M  V30 2972 C 281.272 -1.16836 -1.23626 0
M  V30 2973 O 282.457 -1.45277 -1.28873 0
M  V30 2974 C 279.587 -2.8553 -1.97711 0
M  V30 2975 C 278.541 -3.95921 -1.62575 0
M  V30 2976 C 277.867 -4.47365 -2.92864 0
M  V30 2977 C 279.167 -5.15323 -0.850838 0
M  V30 2978 H 280.861 -2.98653 -0.211295 0
M  V30 2979 H 278.407 -1.43651 -0.100188 0
M  V30 2980 H 280.36 -3.2935 -2.62881 0
M  V30 2981 H 279.084 -2.05406 -2.53921 0
M  V30 2982 H 277.743 -3.52762 -0.997719 0
M  V30 2983 H 277.391 -3.64027 -3.47122 0
M  V30 2984 H 277.091 -5.21839 -2.70106 0
M  V30 2985 H 278.615 -4.93873 -3.59056 0
M  V30 2986 H 280.029 -5.55812 -1.40521 0
M  V30 2987 H 278.426 -5.95739 -0.722154 0
M  V30 2988 H 279.496 -4.84661 0.152082 0
M  V30 2989 N 280.839 0.0985539 -1.57292 0
M  V30 2990 C 281.769 1.12064 -2.04851 0
M  V30 2991 C 282.75 1.41981 -0.936767 0
M  V30 2992 O 283.935 1.52071 -1.20781 0
M  V30 2993 C 281.065 2.44144 -2.47004 0
M  V30 2994 C 280.019 2.28643 -3.6181 0
M  V30 2995 C 279.345 3.65869 -3.89929 0
M  V30 2996 C 280.645 1.72986 -4.92822 0
M  V30 2997 H 282.339 0.724979 -2.9049 0
M  V30 2998 H 279.885 0.34729 -1.39749 0
M  V30 2999 H 281.838 3.15914 -2.78884 0
M  V30 3000 H 280.562 2.85639 -1.5836 0
M  V30 3001 H 279.221 1.59318 -3.30172 0
M  V30 3002 H 278.869 4.04885 -2.98458 0
M  V30 3003 H 278.569 3.56344 -4.67218 0
M  V30 3004 H 280.093 4.39112 -4.2428 0
M  V30 3005 H 281.507 2.34593 -5.23105 0
M  V30 3006 H 279.904 1.74229 -5.74251 0
M  V30 3007 H 280.974 0.689007 -4.7998 0
M  V30 3008 N 282.317 1.53212 0.369288 0
M  V30 3009 C 283.733 1.42902 0.710712 0
M  V30 3010 C 283.933 0.565135 1.93413 0
M  V30 3011 O 282.989 0.0461484 2.52458 0
M  V30 3012 C 284.302 2.86042 0.927382 0
M  V30 3013 C 285.85 2.9565 1.02762 0
M  V30 3014 C 286.325 4.39843 1.27679 0
M  V30 3015 N 287.816 4.43256 1.34457 0
M  V30 3016 C 288.551 5.51929 1.55439 0
M  V30 3017 N 288.047 6.70655 1.73762 0
M  V30 3018 N 289.84 5.39502 1.57779 0
M  V30 3019 H 281.991 2.07888 -0.435457 0
M  V30 3020 H 284.254 0.938661 -0.132739 0
M  V30 3021 H 283.96 3.51557 0.100287 0
M  V30 3022 H 283.834 3.29472 1.83653 0
M  V30 3023 H 286.221 2.30291 1.84527 0
M  V30 3024 H 286.302 2.5562 0.0959504 0
M  V30 3025 H 285.946 5.05774 0.464175 0
M  V30 3026 H 285.876 4.77443 2.22162 0
M  V30 3027 H 288.367 3.5769 1.21926 0
M  V30 3028 H 288.68 7.49248 1.89335 0
M  V30 3029 H 287.025 6.73648 1.70948 0
M  V30 3030 H 290.216 4.45713 1.43029 0
M  V30 3031 H 290.389 6.2426 1.7379 0
M  V30 3032 N 283.795 -0.628877 1.44509 0
M  V30 3033 C 285.211 -0.947305 1.28446 0
M  V30 3034 C 285.411 -2.00275 0.221872 0
M  V30 3035 O 284.467 -2.49447 -0.391471 0
M  V30 3036 C 285.78 -1.40843 2.65676 0
M  V30 3037 C 287.328 -1.52379 2.73404 0
M  V30 3038 C 287.803 -2.01875 4.11109 0
M  V30 3039 N 289.294 -2.09142 4.13296 0
M  V30 3040 C 290.029 -2.48615 5.16699 0
M  V30 3041 N 289.525 -2.87209 6.30462 0
M  V30 3042 N 291.318 -2.48768 5.04054 0
M  V30 3043 H 283.469 0.0690977 2.12288 0
M  V30 3044 H 285.732 -0.0317164 0.947469 0
M  V30 3045 H 285.438 -0.707206 3.44516 0
M  V30 3046 H 285.312 -2.37902 2.92716 0
M  V30 3047 H 287.699 -2.21598 1.9488 0
M  V30 3048 H 287.78 -0.536898 2.50102 0
M  V30 3049 H 287.424 -1.3325 4.90109 0
M  V30 3050 H 287.354 -3.0144 4.31789 0
M  V30 3051 H 289.845 -1.81991 3.31191 0
M  V30 3052 H 290.158 -3.16149 7.05174 0
M  V30 3053 H 288.503 -2.84955 6.33897 0
M  V30 3054 H 291.694 -2.18009 4.14234 0
M  V30 3055 H 291.867 -2.79207 5.84763 0
M  V30 3056 N 285.273 -1.31445 -0.869486 0
M  V30 3057 C 286.519 -1.21337 -1.62496 0
M  V30 3058 C 286.852 0.227872 -1.92858 0
M  V30 3059 O 286.127 1.16094 -1.56053 0
M  V30 3060 C 286.41 -2.05814 -2.95487 0
M  V30 3061 C 286.263 -3.5824 -2.72 0
M  V30 3062 C 287.582 -1.9079 -3.96594 0
M  V30 3063 H 284.701 -0.442135 -0.589649 0
M  V30 3064 H 287.343 -1.6124 -1.00507 0
M  V30 3065 H 285.493 -1.71913 -3.48394 0
M  V30 3066 H 287.165 -4.0228 -2.25762 0
M  V30 3067 H 285.408 -3.81647 -2.06224 0
M  V30 3068 H 286.079 -4.12657 -3.66631 0
M  V30 3069 H 288.555 -2.20459 -3.52898 0
M  V30 3070 H 287.431 -2.52199 -4.87531 0
M  V30 3071 H 287.692 -0.871341 -4.33428 0
M  V30 3072 N 286.751 1.08385 -1.14413 0
M  V30 3073 C 287.684 2.14642 -0.774871 0
M  V30 3074 C 288.662 1.60761 0.243876 0
M  V30 3075 O 289.846 1.88031 0.132883 0
M  V30 3076 C 286.973 3.38366 -0.150491 0
M  V30 3077 C 286.019 4.10997 -1.13945 0
M  V30 3078 S 286.852 4.63797 -2.67679 0
M  V30 3079 C 288.008 5.90808 -2.06631 0
M  V30 3080 H 288.241 2.45633 -1.67487 0
M  V30 3081 H 285.774 1.20498 -0.96538 0
M  V30 3082 H 287.732 4.09996 0.203334 0
M  V30 3083 H 286.393 3.05572 0.72694 0
M  V30 3084 H 285.586 4.99783 -0.65059 0
M  V30 3085 H 285.188 3.4528 -1.43727 0
M  V30 3086 H 287.48 6.62411 -1.4219 0
M  V30 3087 H 288.423 6.4439 -2.93542 0
M  V30 3088 H 288.831 5.4383 -1.51357 0
M  V30 3089 N 288.23 0.939286 1.26551 0
M  V30 3090 C 289.16 0.465044 2.28822 0
M  V30 3091 C 290.141 -0.480692 1.63167 0
M  V30 3092 O 291.326 -0.382955 1.90387 0
M  V30 3093 C 288.456 -0.27234 3.46231 0
M  V30 3094 C 287.41 0.58666 4.2396 0
M  V30 3095 C 286.736 -0.280573 5.33963 0
M  V30 3096 C 288.036 1.85704 4.88171 0
M  V30 3097 H 289.73 1.31979 2.68741 0
M  V30 3098 H 287.276 0.636061 1.29191 0
M  V30 3099 H 289.229 -0.615133 4.16886 0
M  V30 3100 H 287.953 -1.16121 3.0526 0
M  V30 3101 H 286.612 0.91232 3.55067 0
M  V30 3102 H 286.26 -1.16874 4.89234 0
M  V30 3103 H 285.96 0.29076 5.8688 0
M  V30 3104 H 287.484 -0.618678 6.07458 0
M  V30 3105 H 288.898 1.58161 5.51052 0
M  V30 3106 H 287.295 2.37279 5.51197 0
M  V30 3107 H 288.365 2.56957 4.11219 0
M  V30 3108 N 289.708 -1.40897 0.706093 0
M  V30 3109 C 290.985 -1.94868 0.169099 0
M  V30 3110 C 291.365 -1.64485 -1.32318 0
M  V30 3111 O 290.713 -0.95744 -2.07474 0
M  V30 3112 C 290.923 -3.45798 0.471654 0
M  V30 3113 C 292.271 -4.22663 0.405127 0
M  V30 3114 O 293.295 -3.53865 0.407168 0
M  V30 3115 O 292.154 -5.45216 0.374383 0
M  V30 3116 H 289.248 -0.82673 0.0211352 0
M  V30 3117 H 291.794 -1.50558 0.782976 0
M  V30 3118 H 290.566 -3.61235 1.50416 0
M  V30 3119 H 290.189 -3.97225 -0.172666 0
M  V30 3120 N 291.186 -0.45159 -1.50991 0
M  V30 3121 C 292.414 0.108334 -2.06616 0
M  V30 3122 C 292.829 1.35224 -1.31757 0
M  V30 3123 O 292.186 1.78475 -0.381174 0
M  V30 3124 C 292.237 0.41619 -3.59096 0
M  V30 3125 O 291.958 -0.778361 -4.3113 0
M  V30 3126 C 293.459 1.02523 -4.31282 0
M  V30 3127 H 290.679 0.00159995 -0.670998 0
M  V30 3128 H 293.223 -0.634771 -1.94399 0
M  V30 3129 H 291.378 1.10921 -3.71181 0
M  V30 3130 H 291.792 -0.511181 -5.22003 0
M  V30 3131 H 293.266 1.19053 -5.39009 0
M  V30 3132 H 293.743 2.01013 -3.905 0
M  V30 3133 H 294.349 0.371173 -4.23677 0
M  V30 3134 N 292.664 1.56529 -0.183458 0
M  V30 3135 C 293.889 2.02064 0.467428 0
M  V30 3136 C 294.314 1.06282 1.55196 0
M  V30 3137 O 293.672 0.0443565 1.81246 0
M  V30 3138 C 293.72 3.46122 1.01153 0
M  V30 3139 O 292.824 3.53437 2.12499 0
M  V30 3140 H 292.165 0.654726 0.110588 0
M  V30 3141 H 294.695 2.02521 -0.290917 0
M  V30 3142 H 294.705 3.85676 1.33108 0
M  V30 3143 H 293.38 4.15331 0.217533 0
M  V30 3144 H 291.957 3.2575 1.81497 0
M  V30 3145 N 294.142 -0.090211 1.57342 0
M  V30 3146 C 295.09 -1.12792 2.03422 0
M  V30 3147 C 296.084 -1.41182 0.936166 0
M  V30 3148 O 297.29 -1.40805 1.12133 0
M  V30 3149 H 293.665 -0.380986 0.648347 0
M  V30 3150 H 295.636 -0.71299 2.89757 0
M  V30 3151 C 294.385 -2.43855 2.47851 0
M  V30 3152 H 293.708 -2.22855 3.31927 0
M  V30 3153 H 295.148 -3.14955 2.83865 0
M  V30 3154 C 293.607 -3.08503 1.3538 0
M  V30 3155 O 294.137 -3.95805 0.685641 0
M  V30 3156 N 292.343 -2.68831 1.10355 0
M  V30 3157 H 291.89 -1.97929 1.64869 0
M  V30 3158 H 291.848 -3.12412 0.353031 0
M  V30 3159 N 295.62 -1.53406 -0.361157 0
M  V30 3160 C 296.848 -1.73717 -1.12383 0
M  V30 3161 C 297.263 -0.468161 -1.82904 0
M  V30 3162 O 296.62 0.559198 -1.73722 0
M  V30 3163 C 296.671 -2.90558 -2.15078 0
M  V30 3164 O 296.392 -4.12549 -1.47428 0
M  V30 3165 C 297.893 -3.22777 -3.03858 0
M  V30 3166 H 295.113 -0.580896 -0.335858 0
M  V30 3167 H 297.657 -2.00167 -0.418728 0
M  V30 3168 H 295.812 -2.66489 -2.8118 0
M  V30 3169 H 296.226 -4.78009 -2.15887 0
M  V30 3170 H 297.7 -4.07927 -3.71887 0
M  V30 3171 H 298.177 -2.38329 -3.68912 0
M  V30 3172 H 298.783 -3.48787 -2.43367 0
M  V30 3173 N 297.098 0.621204 -1.44841 0
M  V30 3174 C 298.028 1.74366 -1.55303 0
M  V30 3175 C 299.009 1.65199 -0.405385 0
M  V30 3176 O 300.194 1.83807 -0.626787 0
M  V30 3177 C 297.324 3.12931 -1.50637 0
M  V30 3178 C 296.278 3.36896 -2.63979 0
M  V30 3179 C 295.604 4.75594 -2.44366 0
M  V30 3180 C 296.904 3.28483 -4.06074 0
M  V30 3181 H 298.598 1.65867 -2.49256 0
M  V30 3182 H 296.144 0.796558 -1.19962 0
M  V30 3183 H 298.097 3.9124 -1.56555 0
M  V30 3184 H 296.821 3.22237 -0.532057 0
M  V30 3185 H 295.48 2.60972 -2.57467 0
M  V30 3186 H 295.128 4.81616 -1.45105 0
M  V30 3187 H 294.828 4.92586 -3.20364 0
M  V30 3188 H 296.352 5.5612 -2.52117 0
M  V30 3189 H 297.766 3.96684 -4.13902 0
M  V30 3190 H 296.163 3.57008 -4.82354 0
M  V30 3191 H 297.233 2.26133 -4.28943 0
M  V30 3192 N 298.576 1.31904 0.862503 0
M  V30 3193 C 299.823 1.22017 1.61611 0
M  V30 3194 C 300.151 -0.21991 1.93253 0
M  V30 3195 O 299.406 -1.17076 1.56817 0
M  V30 3196 C 299.705 2.01713 2.95037 0
M  V30 3197 C 299.371 3.51145 2.82857 0
M  V30 3198 C 298.033 3.91889 2.79243 0
M  V30 3199 C 300.385 4.46204 2.69353 0
M  V30 3200 C 297.713 5.25947 2.59993 0
M  V30 3201 C 300.065 5.80397 2.5164 0
M  V30 3202 C 298.729 6.20352 2.46413 0
M  V30 3203 H 297.999 0.44649 0.591378 0
M  V30 3204 H 300.646 1.63248 1.00111 0
M  V30 3205 H 298.951 1.53185 3.60613 0
M  V30 3206 H 300.648 1.91437 3.52353 0
M  V30 3207 H 297.238 3.1878 2.86491 0
M  V30 3208 H 301.422 4.15652 2.71196 0
M  V30 3209 H 296.678 5.5597 2.54376 0
M  V30 3210 H 300.852 6.53676 2.40169 0
M  V30 3211 H 298.479 7.24172 2.31256 0
M  V30 3212 N 300.054 -1.07777 1.14986 0
M  V30 3213 C 300.984 -2.16865 0.865557 0
M  V30 3214 C 301.965 -1.69123 -0.182083 0
M  V30 3215 O 303.15 -1.94164 -0.0373815 0
M  V30 3216 C 300.28 -3.45539 0.349313 0
M  V30 3217 C 299.234 -4.06708 1.33313 0
M  V30 3218 C 298.56 -5.30411 0.675918 0
M  V30 3219 C 299.86 -4.47241 2.69764 0
M  V30 3220 H 301.554 -2.40905 1.77778 0
M  V30 3221 H 299.1 -1.15781 0.856203 0
M  V30 3222 H 301.053 -4.21174 0.137983 0
M  V30 3223 H 299.777 -3.21072 -0.598362 0
M  V30 3224 H 298.436 -3.33112 1.53075 0
M  V30 3225 H 298.084 -5.02232 -0.277767 0
M  V30 3226 H 297.784 -5.72293 1.33244 0
M  V30 3227 H 299.308 -6.08755 0.474262 0
M  V30 3228 H 300.722 -5.14025 2.53873 0
M  V30 3229 H 299.119 -5.00062 3.3175 0
M  V30 3230 H 300.189 -3.58818 3.26156 0
M  V30 3231 N 301.532 -0.945985 -1.26051 0
M  V30 3232 C 302.948 -0.649045 -1.45807 0
M  V30 3233 C 303.148 0.796158 -1.85104 0
M  V30 3234 O 302.204 1.57233 -1.97571 0
M  V30 3235 C 303.517 -1.61458 -2.53677 0
M  V30 3236 C 305.065 -1.62481 -2.67524 0
M  V30 3237 C 305.54 -2.57776 -3.7857 0
M  V30 3238 N 307.031 -2.5609 -3.85969 0
M  V30 3239 C 307.766 -3.26508 -4.7136 0
M  V30 3240 N 307.262 -4.0637 -5.61102 0
M  V30 3241 N 309.055 -3.15437 -4.65248 0
M  V30 3242 H 301.206 -1.88005 -0.988328 0
M  V30 3243 H 303.469 -0.808198 -0.4955 0
M  V30 3244 H 303.175 -2.64644 -2.31638 0
M  V30 3245 H 303.049 -1.37036 -3.51427 0
M  V30 3246 H 305.436 -0.600167 -2.88933 0
M  V30 3247 H 305.517 -1.90958 -1.70202 0
M  V30 3248 H 305.161 -3.60361 -3.57913 0
M  V30 3249 H 305.091 -2.26587 -4.75359 0
M  V30 3250 H 307.582 -1.98105 -3.21812 0
M  V30 3251 H 307.895 -4.57042 -6.23164 0
M  V30 3252 H 306.24 -4.10469 -5.60839 0
M  V30 3253 H 309.431 -2.52525 -3.94143 0
M  V30 3254 H 309.604 -3.70584 -5.31575 0
M  V30 3255 N 303.011 1.40521 -0.713556 0
M  V30 3256 C 304.26 2.00155 -0.249192 0
M  V30 3257 C 304.573 1.57224 1.16362 0
M  V30 3258 O 305.779 2.09542 1.72639 0
M  V30 3259 C 304.235 3.5773 -0.3946 0
M  V30 3260 C 303.843 4.09635 -1.81392 0
M  V30 3261 C 305.587 4.24499 0.00907364 0
M  V30 3262 C 303.494 5.59707 -1.91003 0
M  V30 3263 H 302.424 0.74868 -0.0894114 0
M  V30 3264 H 305.075 1.60784 -0.884352 0
M  V30 3265 H 303.457 3.94792 0.30911 0
M  V30 3266 H 304.631 3.83955 -2.54785 0
M  V30 3267 H 302.946 3.55456 -2.16888 0
M  V30 3268 H 305.543 5.34683 -0.0420404 0
M  V30 3269 H 305.886 4.02824 1.05065 0
M  V30 3270 H 306.419 3.92536 -0.645007 0
M  V30 3271 H 303.158 5.86234 -2.93275 0
M  V30 3272 H 302.678 5.87258 -1.22019 0
M  V30 3273 H 304.357 6.24776 -1.6812 0
M  V30 3274 N 304.489 0.459591 1.5075 0
M  V30 3275 C 305.9 0.00171547 1.867 0
M  V30 3276 C 306.251 -1.39934 1.37525 0
M  V30 3277 O 305.376 -2.03523 0.735349 0
M  V30 3278 C 305.971 -0.00366298 3.388 0
M  V30 3279 C 304.53 -0.406026 3.74204 0
M  V30 3280 C 303.677 0.38673 2.7459 0
M  V30 3281 H 306.628 0.674413 1.43657 0
M  V30 3282 H 306.649 -0.808371 3.71814 0
M  V30 3283 H 306.161 1.01617 3.74561 0
M  V30 3284 H 304.262 -1.43063 3.4404 0
M  V30 3285 H 304.375 -0.115362 4.78961 0
M  V30 3286 H 302.739 -0.158019 2.54209 0
M  V30 3287 H 303.522 1.40585 3.13194 0
M  V30 3288 N 305.967 -1.56429 0.191757 0
M  V30 3289 C 306.897 -2.21937 -0.725696 0
M  V30 3290 C 307.878 -1.1814 -1.2238 0
M  V30 3291 O 309.063 -1.46636 -1.27325 0
M  V30 3292 C 306.193 -2.87611 -1.94672 0
M  V30 3293 C 305.147 -3.97623 -1.58366 0
M  V30 3294 C 304.473 -4.50446 -2.88102 0
M  V30 3295 C 305.773 -5.16197 -0.796133 0
M  V30 3296 H 307.467 -2.98861 -0.179606 0
M  V30 3297 H 305.013 -1.43749 -0.0849464 0
M  V30 3298 H 306.966 -3.3212 -2.59373 0
M  V30 3299 H 305.69 -2.08087 -2.51728 0
M  V30 3300 H 304.349 -3.53801 -0.960247 0
M  V30 3301 H 303.997 -3.67688 -3.43241 0
M  V30 3302 H 303.697 -5.24675 -2.64556 0
M  V30 3303 H 305.221 -4.97654 -3.53798 0
M  V30 3304 H 306.635 -5.57271 -1.34618 0
M  V30 3305 H 305.032 -5.96471 -0.658928 0
M  V30 3306 H 306.102 -4.84473 0.203478 0
M  V30 3307 N 307.445 0.0818655 -1.57387 0
M  V30 3308 C 308.722 0.815343 -1.77796 0
M  V30 3309 C 309.102 1.96289 -0.77679 0
M  V30 3310 O 308.45 2.27691 0.192106 0
M  V30 3311 C 308.66 1.29765 -3.23978 0
M  V30 3312 C 310.008 1.7351 -3.8753 0
M  V30 3313 O 311.032 1.39356 -3.27808 0
M  V30 3314 O 309.891 2.36708 -4.92576 0
M  V30 3315 H 306.985 0.389914 -0.729312 0
M  V30 3316 H 309.531 0.0627213 -1.69584 0
M  V30 3317 H 308.303 0.47608 -3.88393 0
M  V30 3318 H 307.926 2.11189 -3.36875 0
M  V30 3319 N 308.923 1.53595 0.353017 0
M  V30 3320 C 309.833 1.83897 1.45667 0
M  V30 3321 C 310.849 0.728334 1.58023 0
M  V30 3322 O 312.025 1.01968 1.73679 0
M  V30 3323 C 309.09 2.03383 2.80778 0
M  V30 3324 C 308.151 3.27262 2.77845 0
M  V30 3325 C 307.384 3.45809 4.06512 0
M  V30 3326 O 307.607 2.68387 5.03314 0
M  V30 3327 O 306.541 4.39207 4.11559 0
M  V30 3328 H 310.367 2.77686 1.2298 0
M  V30 3329 H 307.952 1.39132 0.544308 0
M  V30 3330 H 309.834 2.17698 3.60812 0
M  V30 3331 H 308.509 1.12783 3.03417 0
M  V30 3332 H 307.416 3.18359 1.96465 0
M  V30 3333 H 308.749 4.17824 2.60161 0
M  V30 3334 N 310.401 -0.613514 1.45168 0
M  V30 3335 C 311.626 -1.40437 1.52618 0
M  V30 3336 C 312.051 -1.87438 0.157707 0
M  V30 3337 O 311.409 -1.59791 -0.856537 0
M  V30 3338 C 311.457 -2.58894 2.51011 0
M  V30 3339 O 310.561 -3.59326 2.02382 0
M  V30 3340 H 309.902 -0.419506 0.514695 0
M  V30 3341 H 312.432 -0.747215 1.90467 0
M  V30 3342 H 312.442 -3.06214 2.69624 0
M  V30 3343 H 311.117 -2.24032 3.50403 0
M  V30 3344 H 309.694 -3.18695 1.93618 0
M  V30 3345 N 311.879 -1.3236 -0.855495 0
M  V30 3346 C 312.842 -1.21164 -1.94556 0
M  V30 3347 C 313.842 -0.134908 -1.60233 0
M  V30 3348 O 315.032 -0.385249 -1.69887 0
M  V30 3349 C 312.164 -0.863192 -3.29791 0
M  V30 3350 H 313.357 -2.18038 -2.05911 0
M  V30 3351 H 310.91 -1.16179 -1.04557 0
M  V30 3352 H 311.645 0.103769 -3.24134 0
M  V30 3353 H 311.43 -1.64166 -3.56078 0
M  V30 3354 H 312.92 -0.809156 -4.09686 0
M  V30 3355 N 313.357 1.07166 -1.15556 0
M  V30 3356 C 314.606 1.79181 -0.926132 0
M  V30 3357 C 314.919 1.87768 0.547967 0
M  V30 3358 O 316.125 2.56323 0.895036 0
M  V30 3359 C 314.581 3.22 -1.60761 0
M  V30 3360 C 314.189 3.21607 -3.11886 0
M  V30 3361 C 315.933 3.9861 -1.4598 0
M  V30 3362 C 313.84 4.59092 -3.72812 0
M  V30 3363 H 312.77 0.67154 -0.342856 0
M  V30 3364 H 315.421 1.2027 -1.3859 0
M  V30 3365 H 313.803 3.81115 -1.07553 0
M  V30 3366 H 314.977 2.72127 -3.71865 0
M  V30 3367 H 313.292 2.58495 -3.2645 0
M  V30 3368 H 315.889 5.00225 -1.88888 0
M  V30 3369 H 316.232 4.143 -0.407541 0
M  V30 3370 H 316.765 3.45996 -1.96295 0
M  V30 3371 H 313.504 4.48606 -4.77946 0
M  V30 3372 H 313.024 5.08803 -3.17616 0
M  V30 3373 H 314.703 5.28059 -3.73848 0
M  V30 3374 N 314.835 0.952656 1.25548 0
M  V30 3375 C 316.081 0.607272 1.93494 0
M  V30 3376 C 316.414 -0.853245 1.74452 0
M  V30 3377 O 315.689 -1.61194 1.08843 0
M  V30 3378 C 315.972 0.96435 3.46947 0
M  V30 3379 C 315.825 2.48045 3.75225 0
M  V30 3380 C 317.144 0.487987 4.37386 0
M  V30 3381 H 314.263 0.222096 0.702739 0
M  V30 3382 H 316.905 1.18895 1.48203 0
M  V30 3383 H 315.055 0.469361 3.85654 0
M  V30 3384 H 316.727 3.04905 3.46166 0
M  V30 3385 H 314.97 2.919 3.209 0
M  V30 3386 H 315.641 2.6808 4.82532 0
M  V30 3387 H 318.117 0.912558 4.0597 0
M  V30 3388 H 316.993 0.766547 5.43521 0
M  V30 3389 H 317.254 -0.612063 4.37843 0
M  V30 3390 N 316.313 -1.40141 0.720998 0
M  V30 3391 C 317.559 -2.01084 0.263231 0
M  V30 3392 C 317.892 -1.57052 -1.14229 0
M  V30 3393 O 317.167 -0.793027 -1.77599 0
M  V30 3394 C 317.45 -3.58401 0.349344 0
M  V30 3395 C 317.303 -4.12491 1.79363 0
M  V30 3396 C 318.622 -4.39231 -0.276351 0
M  V30 3397 H 315.741 -0.730572 0.0971228 0
M  V30 3398 H 318.383 -1.66543 0.914518 0
M  V30 3399 H 316.533 -3.87958 -0.205165 0
M  V30 3400 H 318.205 -3.93711 2.40394 0
M  V30 3401 H 316.448 -3.66576 2.31958 0
M  V30 3402 H 317.119 -5.21646 1.80524 0
M  V30 3403 H 319.595 -4.15637 0.196184 0
M  V30 3404 H 318.471 -5.48586 -0.185681 0
M  V30 3405 H 318.732 -4.20643 -1.36059 0
M  V30 3406 N 317.792 -0.46758 -1.50504 0
M  V30 3407 C 318.739 0.328413 -2.28452 0
M  V30 3408 C 319.709 0.990313 -1.33349 0
M  V30 3409 O 320.894 1.00343 -1.62284 0
M  V30 3410 C 318.034 1.40648 -3.15138 0
M  V30 3411 C 317.147 0.759709 -4.25267 0
M  V30 3412 C 316.282 1.81537 -4.99217 0
M  V30 3413 C 315.321 1.14866 -6.01226 0
M  V30 3414 N 314.458 2.14702 -6.68467 0
M  V30 3415 H 319.298 -0.342603 -2.96024 0
M  V30 3416 H 316.835 -0.180801 -1.45985 0
M  V30 3417 H 318.793 2.04315 -3.63746 0
M  V30 3418 H 317.423 2.04671 -2.49619 0
M  V30 3419 H 316.475 0.0105671 -3.80399 0
M  V30 3420 H 317.787 0.233243 -4.98254 0
M  V30 3421 H 316.941 2.52793 -5.51526 0
M  V30 3422 H 315.68 2.37564 -4.25928 0
M  V30 3423 H 314.685 0.42171 -5.4818 0
M  V30 3424 H 315.91 0.595334 -6.76485 0
M  V30 3425 H 313.856 2.69752 -5.97972 0
M  V30 3426 H 313.773 1.6703 -7.37317 0
M  V30 3427 H 315.041 2.85348 -7.25394 0
M  V30 3428 N 319.27 1.56325 -0.20005 0
M  V30 3429 C 320.519 1.96895 0.437652 0
M  V30 3430 C 320.832 1.08999 1.62415 0
M  V30 3431 O 322.038 1.39372 2.32997 0
M  V30 3432 C 320.494 3.50198 0.830025 0
M  V30 3433 C 320.102 4.46765 -0.332461 0
M  V30 3434 C 321.846 3.99526 1.43453 0
M  V30 3435 C 319.753 5.91344 0.0811468 0
M  V30 3436 H 318.683 0.735209 0.167282 0
M  V30 3437 H 321.334 1.81148 -0.292853 0
M  V30 3438 H 319.716 3.61467 1.61734 0
M  V30 3439 H 320.89 4.47231 -1.11 0
M  V30 3440 H 319.205 4.07657 -0.848789 0
M  V30 3441 H 321.802 5.05025 1.75652 0
M  V30 3442 H 322.145 3.44122 2.34277 0
M  V30 3443 H 322.678 3.91393 0.71109 0
M  V30 3444 H 319.417 6.50685 -0.793033 0
M  V30 3445 H 318.937 5.94121 0.823445 0
M  V30 3446 H 320.616 6.44945 0.515252 0
M  V30 3447 N 320.748 -0.0735177 1.57428 0
M  V30 3448 C 321.68 -1.11423 2.00294 0
M  V30 3449 C 322.693 -1.35084 0.908637 0
M  V30 3450 O 323.882 -1.33355 1.18654 0
M  V30 3451 C 320.982 -2.46548 2.32523 0
M  V30 3452 C 320.155 -2.42867 3.63778 0
M  V30 3453 C 319.214 -3.60087 3.83697 0
M  V30 3454 O 318.24 -3.41595 4.55304 0
M  V30 3455 N 319.442 -4.80372 3.25919 0
M  V30 3456 H 322.207 -0.749206 2.90184 0
M  V30 3457 H 319.768 -0.262195 1.59763 0
M  V30 3458 H 321.76 -3.23607 2.43024 0
M  V30 3459 H 320.33 -2.75059 1.48531 0
M  V30 3460 H 319.55 -1.51206 3.64047 0
M  V30 3461 H 320.838 -2.37506 4.49965 0
M  V30 3462 H 320.236 -4.983 2.67795 0
M  V30 3463 H 318.793 -5.54948 3.41871 0
M  V30 3464 N 322.226 -1.5378 -0.344866 0
M  V30 3465 C 323.474 -1.70625 -1.08311 0
M  V30 3466 C 323.795 -0.471447 -1.89215 0
M  V30 3467 O 323.065 0.514616 -1.8902 0
M  V30 3468 H 321.645 -0.629058 -0.402859 0
M  V30 3469 H 324.307 -1.9103 -0.386459 0
M  V30 3470 H 323.403 -2.57656 -1.76124 0
M  V30 3471 N 323.704 0.605807 -1.45491 0
M  V30 3472 C 324.934 1.38934 -1.52908 0
M  V30 3473 C 325.342 1.88513 -0.161086 0
M  V30 3474 O 324.685 1.62962 0.847891 0
M  V30 3475 C 324.747 2.62737 -2.45376 0
M  V30 3476 C 324.411 2.34785 -3.92078 0
M  V30 3477 C 325.408 1.95038 -4.8193 0
M  V30 3478 C 323.093 2.47642 -4.37011 0
M  V30 3479 C 325.087 1.68511 -6.14722 0
M  V30 3480 C 322.774 2.20728 -5.69844 0
M  V30 3481 C 323.772 1.81225 -6.58519 0
M  V30 3482 O 323.46 1.54627 -7.88889 0
M  V30 3483 H 323.192 0.431629 -0.520262 0
M  V30 3484 H 325.746 0.74573 -1.91384 0
M  V30 3485 H 323.976 3.29824 -2.01874 0
M  V30 3486 H 325.665 3.24783 -2.43456 0
M  V30 3487 H 326.431 1.84639 -4.48479 0
M  V30 3488 H 322.31 2.77356 -3.68232 0
M  V30 3489 H 325.854 1.37602 -6.83894 0
M  V30 3490 H 321.751 2.30744 -6.02849 0
M  V30 3491 H 322.519 1.68665 -8.00933 0
M  V30 3492 N 325.182 1.32811 0.848464 0
M  V30 3493 C 326.429 1.23724 1.60308 0
M  V30 3494 C 326.757 -0.1994 1.93475 0
M  V30 3495 O 326.012 -1.15406 1.5805 0
M  V30 3496 C 326.311 2.04831 2.92881 0
M  V30 3497 C 325.977 3.54125 2.79117 0
M  V30 3498 C 324.639 3.94829 2.7507 0
M  V30 3499 C 326.991 4.49036 2.64606 0
M  V30 3500 C 324.319 5.28675 2.544 0
M  V30 3501 C 326.671 5.83033 2.4547 0
M  V30 3502 C 325.335 6.22931 2.39819 0
M  V30 3503 H 324.605 0.452737 0.586609 0
M  V30 3504 H 327.252 1.64301 0.983743 0
M  V30 3505 H 325.557 1.57001 3.58968 0
M  V30 3506 H 327.254 1.95164 3.50303 0
M  V30 3507 H 323.844 3.21801 2.83094 0
M  V30 3508 H 328.028 4.18505 2.66772 0
M  V30 3509 H 323.284 5.58637 2.48465 0
M  V30 3510 H 327.458 6.56186 2.33222 0
M  V30 3511 H 325.085 7.26584 2.23562 0
M  V30 3512 N 326.66 -1.06551 1.16123 0
M  V30 3513 C 327.937 -1.76097 0.85142 0
M  V30 3514 C 328.317 -2.00802 -0.6513 0
M  V30 3515 O 327.665 -1.63302 -1.59827 0
M  V30 3516 C 327.875 -3.06384 1.67122 0
M  V30 3517 C 329.223 -3.80585 1.88255 0
M  V30 3518 O 330.247 -3.16218 1.63966 0
M  V30 3519 O 329.106 -4.96212 2.2899 0
M  V30 3520 H 326.2 -0.765102 0.313923 0
M  V30 3521 H 328.746 -1.12844 1.26745 0
M  V30 3522 H 327.518 -2.84071 2.69108 0
M  V30 3523 H 327.141 -3.77371 1.25206 0
M  V30 3524 N 328.138 -0.959301 -1.25041 0
M  V30 3525 C 329.101 -0.487677 -2.23952 0
M  V30 3526 C 330.101 0.41119 -1.55454 0
M  V30 3527 O 331.291 0.207825 -1.72956 0
M  V30 3528 C 328.423 0.294807 -3.39623 0
M  V30 3529 H 329.616 -1.36198 -2.67189 0
M  V30 3530 H 327.169 -0.743042 -1.37508 0
M  V30 3531 H 327.904 1.18658 -3.01813 0
M  V30 3532 H 327.689 -0.35012 -3.90534 0
M  V30 3533 H 329.179 0.614089 -4.1306 0
M  V30 3534 N 329.616 1.39756 -0.72842 0
M  V30 3535 C 330.862 2.01425 -0.282761 0
M  V30 3536 C 331.217 1.56754 1.11561 0
M  V30 3537 O 330.51 0.783482 1.74849 0
M  V30 3538 C 330.704 3.56002 -0.315776 0
M  V30 3539 C 330.533 4.1568 -1.71582 0
M  V30 3540 C 329.303 4.48555 -2.32651 0
M  V30 3541 C 331.501 4.39667 -2.66829 0
M  V30 3542 N 329.483 4.93698 -3.64877 0
M  V30 3543 C 330.854 4.86942 -3.8378 0
M  V30 3544 C 332.909 4.21724 -2.64675 0
M  V30 3545 C 331.612 5.18158 -4.98904 0
M  V30 3546 C 333.638 4.54049 -3.78937 0
M  V30 3547 C 333 5.01525 -4.94623 0
M  V30 3548 H 329.099 0.76756 -0.149583 0
M  V30 3549 H 331.683 1.69784 -0.952976 0
M  V30 3550 H 329.854 3.87046 0.324057 0
M  V30 3551 H 331.586 4.0443 0.147808 0
M  V30 3552 H 328.341 4.36128 -1.84633 0
M  V30 3553 H 328.765 5.20635 -4.32744 0
M  V30 3554 H 333.407 3.84228 -1.76433 0
M  V30 3555 H 331.125 5.54562 -5.87781 0
M  V30 3556 H 334.711 4.41795 -3.78561 0
M  V30 3557 H 333.591 5.26065 -5.81572 0
M  V30 3558 N 331.094 0.475555 1.50254 0
M  V30 3559 C 332.026 -0.352649 2.26471 0
M  V30 3560 C 333.039 -0.953165 1.3198 0
M  V30 3561 O 334.228 -0.840815 1.57457 0
M  V30 3562 C 331.328 -1.50902 3.0345 0
M  V30 3563 C 330.501 -1.02047 4.25329 0
M  V30 3564 C 329.56 -2.05142 4.84565 0
M  V30 3565 O 328.586 -1.63023 5.45355 0
M  V30 3566 N 329.788 -3.37987 4.71959 0
M  V30 3567 H 332.553 0.300767 2.98187 0
M  V30 3568 H 330.114 0.306598 1.5897 0
M  V30 3569 H 332.106 -2.19572 3.39956 0
M  V30 3570 H 330.676 -2.06705 2.34504 0
M  V30 3571 H 329.896 -0.159507 3.93877 0
M  V30 3572 H 331.184 -0.672061 5.04342 0
M  V30 3573 H 330.582 -3.74913 4.23623 0
M  V30 3574 H 329.139 -4.02443 5.12721 0
M  V30 3575 N 332.573 -1.56217 0.208337 0
M  V30 3576 C 333.536 -2.18455 -0.693557 0
M  V30 3577 C 334.536 -1.14268 -1.13135 0
M  V30 3578 O 335.726 -1.39577 -1.0423 0
M  V30 3579 C 332.858 -2.79727 -1.94848 0
M  V30 3580 H 334.051 -2.99519 -0.15114 0
M  V30 3581 H 331.604 -1.56245 -0.041287 0
M  V30 3582 H 332.339 -2.02497 -2.53309 0
M  V30 3583 H 332.124 -3.56009 -1.64316 0
M  V30 3584 H 333.614 -3.27475 -2.59133 0
M  V30 3585 N 334.051 0.0651679 -1.57465 0
M  V30 3586 C 334.981 1.07693 -2.07182 0
M  V30 3587 C 335.962 1.39962 -0.966673 0
M  V30 3588 O 337.147 1.49475 -1.2398 0
M  V30 3589 C 334.277 2.3885 -2.52127 0
M  V30 3590 C 333.231 2.20917 -3.66579 0
M  V30 3591 C 332.557 3.57515 -3.97601 0
M  V30 3592 C 333.857 1.62493 -4.9638 0
M  V30 3593 H 335.551 0.663199 -2.91962 0
M  V30 3594 H 333.097 0.317569 -1.40455 0
M  V30 3595 H 335.05 3.09928 -2.85522 0
M  V30 3596 H 333.774 2.82215 -1.64384 0
M  V30 3597 H 332.433 1.52279 -3.33477 0
M  V30 3598 H 332.081 3.98463 -3.06979 0
M  V30 3599 H 331.781 3.46353 -4.74672 0
M  V30 3600 H 333.305 4.30013 -4.33499 0
M  V30 3601 H 334.719 2.23445 -5.27963 0
M  V30 3602 H 333.116 1.62009 -5.77818 0
M  V30 3603 H 334.186 0.587041 -4.81333 0
M  V30 3604 N 335.529 1.53961 0.336706 0
M  V30 3605 C 336.459 1.85417 1.41925 0
M  V30 3606 C 337.44 0.709856 1.5458 0
M  V30 3607 O 338.625 0.962396 1.68676 0
M  V30 3608 C 335.755 2.06985 2.78881 0
M  V30 3609 C 334.709 3.22813 2.81026 0
M  V30 3610 C 334.035 3.29727 4.20932 0
M  V30 3611 C 335.335 4.60767 2.45949 0
M  V30 3612 H 337.029 2.76079 1.15848 0
M  V30 3613 H 334.575 1.32839 0.555859 0
M  V30 3614 H 336.528 2.27575 3.54665 0
M  V30 3615 H 335.252 1.13061 3.06406 0
M  V30 3616 H 333.911 3.0209 2.07695 0
M  V30 3617 H 333.559 2.33385 4.45579 0
M  V30 3618 H 333.259 4.07566 4.23277 0
M  V30 3619 H 334.783 3.52536 4.98549 0
M  V30 3620 H 336.197 4.81325 3.11446 0
M  V30 3621 H 334.594 5.4106 2.59566 0
M  V30 3622 H 335.664 4.6391 1.41122 0
M  V30 3623 N 337.007 -0.598083 1.45811 0
M  V30 3624 C 338.256 -1.35295 1.49594 0
M  V30 3625 C 338.569 -1.95057 0.145679 0
M  V30 3626 O 339.775 -2.71431 0.0612099 0
M  V30 3627 C 338.231 -2.45124 2.63519 0
M  V30 3628 C 337.839 -1.91732 4.04899 0
M  V30 3629 C 339.583 -3.2205 2.76558 0
M  V30 3630 C 337.49 -2.991 5.1019 0
M  V30 3631 H 336.42 -0.508552 0.556679 0
M  V30 3632 H 339.071 -0.639977 1.71978 0
M  V30 3633 H 337.453 -3.19149 2.34435 0
M  V30 3634 H 338.627 -1.24352 4.43704 0
M  V30 3635 H 336.942 -1.27522 3.96393 0
M  V30 3636 H 339.539 -4.0215 3.52391 0
M  V30 3637 H 339.882 -3.73663 1.83526 0
M  V30 3638 H 340.415 -2.55127 3.05213 0
M  V30 3639 H 337.154 -2.52393 6.04961 0
M  V30 3640 H 336.674 -3.65017 4.75944 0
M  V30 3641 H 338.353 -3.63318 5.35359 0
M  V30 3642 N 338.485 -1.33259 -0.841409 0
M  V30 3643 C 339.432 -1.23302 -1.95103 0
M  V30 3644 C 340.402 -0.112204 -1.65721 0
M  V30 3645 O 341.587 -0.290038 -1.88583 0
M  V30 3646 C 338.727 -0.975583 -3.31023 0
M  V30 3647 C 337.84 -2.18243 -3.72819 0
M  V30 3648 C 336.975 -1.85936 -4.97595 0
M  V30 3649 C 336.014 -3.02866 -5.3192 0
M  V30 3650 N 335.151 -2.70565 -6.47873 0
M  V30 3651 H 339.991 -2.18207 -2.02952 0
M  V30 3652 H 337.528 -1.0851 -0.993173 0
M  V30 3653 H 339.486 -0.80677 -4.09325 0
M  V30 3654 H 338.116 -0.0632755 -3.22738 0
M  V30 3655 H 337.168 -2.46107 -2.90061 0
M  V30 3656 H 338.48 -3.05666 -3.94169 0
M  V30 3657 H 337.634 -1.65684 -5.83638 0
M  V30 3658 H 336.373 -0.957452 -4.78209 0
M  V30 3659 H 335.378 -3.23736 -4.44382 0
M  V30 3660 H 336.603 -3.93809 -5.53255 0
M  V30 3661 H 334.549 -1.8293 -6.29978 0
M  V30 3662 H 334.466 -3.51519 -6.69306 0
M  V30 3663 H 335.734 -2.53774 -7.37034 0
M  V30 3664 N 339.963 1.05934 -1.16686 0
M  V30 3665 C 341.374 1.60263 -0.957745 0
M  V30 3666 C 341.725 1.89789 0.49745 0
M  V30 3667 O 340.85 1.67401 1.37135 0
M  V30 3668 C 341.445 2.91172 -1.73218 0
M  V30 3669 C 340.004 3.42188 -1.56794 0
M  V30 3670 C 339.151 2.16028 -1.73859 0
M  V30 3671 H 342.102 0.888392 -1.31504 0
M  V30 3672 H 342.123 3.60744 -1.21014 0
M  V30 3673 H 341.635 2.6965 -2.79124 0
M  V30 3674 H 339.736 3.68762 -0.533437 0
M  V30 3675 H 339.849 4.17273 -2.35414 0
M  V30 3676 H 338.213 2.26426 -1.16633 0
M  V30 3677 H 338.996 1.96985 -2.81161 0
M  V30 3678 N 341.441 0.965919 1.2453 0
M  V30 3679 C 342.718 0.543777 1.87889 0
M  V30 3680 C 343.098 -0.97909 1.87021 0
M  V30 3681 O 342.446 -1.84969 1.3416 0
M  V30 3682 C 342.656 1.13327 3.30088 0
M  V30 3683 C 344.004 1.21707 4.06783 0
M  V30 3684 O 345.028 1.08566 3.39252 0
M  V30 3685 O 343.887 1.42456 5.27606 0
M  V30 3686 H 340.981 0.181054 0.806938 0
M  V30 3687 H 343.527 1.06007 1.32516 0
M  V30 3688 H 342.299 2.17612 3.25209 0
M  V30 3689 H 341.922 0.600911 3.93033 0
M  V30 3690 N 342.919 -1.39368 0.735821 0
M  V30 3691 C 344.168 -1.99733 0.281004 0
M  V30 3692 C 344.481 -1.59055 -1.13846 0
M  V30 3693 O 345.687 -2.12262 -1.69284 0
M  V30 3694 C 344.143 -3.57057 0.451462 0
M  V30 3695 C 343.751 -4.06697 1.87886 0
M  V30 3696 C 345.495 -4.2446 0.0584616 0
M  V30 3697 C 343.402 -5.56598 1.99883 0
M  V30 3698 H 342.332 -0.747163 0.101311 0
M  V30 3699 H 344.983 -1.59357 0.909819 0
M  V30 3700 H 343.365 -3.95234 -0.246263 0
M  V30 3701 H 344.539 -3.79853 2.60861 0
M  V30 3702 H 342.854 -3.5196 2.22515 0
M  V30 3703 H 345.451 -5.34549 0.127099 0
M  V30 3704 H 345.794 -4.04444 -0.986433 0
M  V30 3705 H 346.327 -3.9146 0.707374 0
M  V30 3706 H 343.066 -5.81494 3.02564 0
M  V30 3707 H 342.586 -5.85242 1.31346 0
M  V30 3708 H 344.265 -6.22022 1.78039 0
M  V30 3709 N 344.397 -0.483516 -1.5 0
M  V30 3710 C 345.644 0.0671597 -2.02389 0
M  V30 3711 C 345.972 1.38597 -1.36459 0
M  V30 3712 O 345.227 1.89634 -0.483458 0
M  V30 3713 C 345.526 0.286226 -3.56252 0
M  V30 3714 C 345.192 -0.952416 -4.40726 0
M  V30 3715 C 343.854 -1.29199 -4.63531 0
M  V30 3716 C 346.206 -1.77655 -4.89988 0
M  V30 3717 C 343.534 -2.45553 -5.32842 0
M  V30 3718 C 345.886 -2.93147 -5.60578 0
M  V30 3719 C 344.55 -3.27505 -5.81633 0
M  V30 3720 H 343.82 0.0245755 -0.740592 0
M  V30 3721 H 346.467 -0.640124 -1.80485 0
M  V30 3722 H 344.772 1.07587 -3.76739 0
M  V30 3723 H 346.469 0.726473 -3.94365 0
M  V30 3724 H 343.059 -0.677881 -4.23205 0
M  V30 3725 H 347.243 -1.52737 -4.72213 0
M  V30 3726 H 342.499 -2.72431 -5.47349 0
M  V30 3727 H 346.673 -3.57344 -5.97727 0
M  V30 3728 H 344.3 -4.1777 -6.35116 0
M  V30 3729 N 345.875 1.56104 -0.216619 0
M  V30 3730 C 347.122 1.98172 0.416416 0
M  V30 3731 C 347.45 1.10413 1.60122 0
M  V30 3732 O 346.705 0.147967 1.9514 0
M  V30 3733 C 347.004 3.45923 0.898464 0
M  V30 3734 C 346.67 4.50559 -0.175288 0
M  V30 3735 C 345.332 4.78897 -0.470271 0
M  V30 3736 C 347.684 5.1334 -0.901728 0
M  V30 3737 C 345.012 5.67299 -1.4963 0
M  V30 3738 C 347.364 6.02853 -1.91705 0
M  V30 3739 C 346.028 6.29537 -2.21901 0
M  V30 3740 H 345.298 0.725164 0.152377 0
M  V30 3741 H 347.945 1.88839 -0.318103 0
M  V30 3742 H 346.25 3.52434 1.71165 0
M  V30 3743 H 347.947 3.75841 1.39803 0
M  V30 3744 H 344.537 4.28551 0.0647806 0
M  V30 3745 H 348.721 4.91521 -0.687072 0
M  V30 3746 H 343.977 5.86239 -1.73592 0
M  V30 3747 H 348.151 6.50552 -2.48505 0
M  V30 3748 H 345.778 6.97835 -3.01548 0
M  V30 3749 N 347.353 -0.0568162 1.57498 0
M  V30 3750 C 348.3 -1.06591 2.04712 0
M  V30 3751 C 349.27 -1.3758 0.930644 0
M  V30 3752 O 350.455 -1.48392 1.19935 0
M  V30 3753 C 347.595 -2.3701 2.50839 0
M  V30 3754 C 346.708 -2.12421 3.76167 0
M  V30 3755 C 345.843 -3.36511 4.11015 0
M  V30 3756 C 344.882 -3.07353 5.2934 0
M  V30 3757 N 344.019 -4.23816 5.59754 0
M  V30 3758 H 348.859 -0.65631 2.90683 0
M  V30 3759 H 346.396 -0.312481 1.43743 0
M  V30 3760 H 348.354 -3.13175 2.7564 0
M  V30 3761 H 346.984 -2.75744 1.67825 0
M  V30 3762 H 346.036 -1.2688 3.58616 0
M  V30 3763 H 347.348 -1.86894 4.62463 0
M  V30 3764 H 346.502 -4.21062 4.36797 0
M  V30 3765 H 345.241 -3.65128 3.23315 0
M  V30 3766 H 344.246 -2.212 5.03339 0
M  V30 3767 H 345.471 -2.80043 6.1867 0
M  V30 3768 H 343.417 -4.52436 4.75014 0
M  V30 3769 H 343.334 -4.01614 6.40501 0
M  V30 3770 H 344.602 -5.0932 5.90096 0
M  V30 3771 N 348.832 -1.54138 -0.328536 0
M  V30 3772 C 350.081 -1.71318 -1.06456 0
M  V30 3773 C 350.394 -0.491109 -1.89334 0
M  V30 3774 O 351.6 -0.54416 -2.65991 0
M  V30 3775 C 350.056 -3.03 -1.94214 0
M  V30 3776 C 349.664 -4.32595 -1.16471 0
M  V30 3777 C 351.408 -3.29544 -2.67583 0
M  V30 3778 C 349.315 -5.55341 -2.03347 0
M  V30 3779 H 348.245 -0.638429 -0.401155 0
M  V30 3780 H 350.896 -1.80633 -0.323106 0
M  V30 3781 H 349.278 -2.87579 -2.72239 0
M  V30 3782 H 350.452 -4.58766 -0.432525 0
M  V30 3783 H 348.767 -4.12777 -0.548063 0
M  V30 3784 H 351.364 -4.18444 -3.3288 0
M  V30 3785 H 351.707 -2.47206 -3.34955 0
M  V30 3786 H 352.24 -3.45809 -1.96623 0
M  V30 3787 H 348.979 -6.40268 -1.40491 0
M  V30 3788 H 348.499 -5.33397 -2.74313 0
M  V30 3789 H 350.178 -5.91557 -2.62049 0
M  V30 3790 N 350.31 0.590341 -1.46126 0
M  V30 3791 C 351.535 1.37991 -1.54833 0
M  V30 3792 C 351.96 1.87163 -0.187506 0
M  V30 3793 O 351.318 1.61133 0.831008 0
M  V30 3794 C 351.366 2.54867 -2.55098 0
M  V30 3795 O 350.47 3.56061 -2.08073 0
M  V30 3796 H 349.811 0.411265 -0.521303 0
M  V30 3797 H 352.341 0.716819 -1.91632 0
M  V30 3798 H 352.351 3.01886 -2.74461 0
M  V30 3799 H 351.026 2.18429 -3.53923 0
M  V30 3800 H 349.603 3.15574 -1.98664 0
M  V30 3801 N 351.788 1.33704 0.83433 0
M  V30 3802 C 353.034 1.26612 1.59188 0
M  V30 3803 C 353.389 -0.165439 1.91687 0
M  V30 3804 O 352.682 -1.10873 1.56262 0
M  V30 3805 C 352.876 2.07926 2.90692 0
M  V30 3806 C 352.705 3.58844 2.71038 0
M  V30 3807 C 351.475 4.28148 2.68361 0
M  V30 3808 C 353.673 4.53082 2.43353 0
M  V30 3809 N 351.655 5.64987 2.40132 0
M  V30 3810 C 353.026 5.77843 2.24716 0
M  V30 3811 C 355.081 4.42119 2.28987 0
M  V30 3812 C 353.784 6.92877 1.9317 0
M  V30 3813 C 355.81 5.56973 1.98835 0
M  V30 3814 C 355.172 6.80745 1.81012 0
M  V30 3815 H 351.271 0.518517 0.585375 0
M  V30 3816 H 353.855 1.68294 0.979044 0
M  V30 3817 H 352.026 1.68558 3.49918 0
M  V30 3818 H 353.758 1.92568 3.55949 0
M  V30 3819 H 350.513 3.80469 2.82029 0
M  V30 3820 H 350.937 6.37133 2.28889 0
M  V30 3821 H 355.579 3.47058 2.41477 0
M  V30 3822 H 353.297 7.87931 1.79418 0
M  V30 3823 H 356.883 5.50428 1.88468 0
M  V30 3824 H 355.763 7.68115 1.58017 0
M  V30 3825 N 353.266 -1.05314 1.17247 0
M  V30 3826 C 354.196 -2.1498 0.911362 0
M  V30 3827 C 355.177 -1.69471 -0.146169 0
M  V30 3828 O 356.362 -1.942 0.003812 0
M  V30 3829 C 353.492 -3.4472 0.422528 0
M  V30 3830 C 352.446 -4.03789 1.4191 0
M  V30 3831 C 351.772 -5.28858 0.788274 0
M  V30 3832 C 353.072 -4.41418 2.7919 0
M  V30 3833 H 354.766 -2.3708 1.82848 0
M  V30 3834 H 352.312 -1.13938 0.880569 0
M  V30 3835 H 354.265 -4.20787 0.227289 0
M  V30 3836 H 352.989 -3.22269 -0.530123 0
M  V30 3837 H 351.648 -3.2979 1.60106 0
M  V30 3838 H 351.296 -5.02709 -0.171173 0
M  V30 3839 H 350.996 -5.69338 1.45353 0
M  V30 3840 H 352.52 -6.07612 0.603282 0
M  V30 3841 H 353.934 -5.08524 2.64719 0
M  V30 3842 H 352.331 -4.92913 3.42282 0
M  V30 3843 H 353.401 -3.51819 3.33693 0
M  V30 3844 N 354.744 -0.972509 -1.24016 0
M  V30 3845 C 355.974 -0.653853 -1.9598 0
M  V30 3846 C 356.382 0.781801 -1.72292 0
M  V30 3847 O 355.725 1.53677 -1.00644 0
M  V30 3848 C 355.787 -0.854608 -3.49194 0
M  V30 3849 C 355.451 -2.27082 -3.96589 0
M  V30 3850 C 356.448 -3.24892 -4.05883 0
M  V30 3851 C 354.133 -2.5998 -4.29786 0
M  V30 3852 C 356.127 -4.53684 -4.47716 0
M  V30 3853 C 353.814 -3.88997 -4.71301 0
M  V30 3854 C 354.812 -4.85661 -4.80232 0
M  V30 3855 O 354.5 -6.12376 -5.20818 0
M  V30 3856 H 354.232 -0.242572 -0.630979 0
M  V30 3857 H 356.786 -1.30431 -1.58673 0
M  V30 3858 H 355.016 -0.146985 -3.86421 0
M  V30 3859 H 356.705 -0.534311 -4.02368 0
M  V30 3860 H 357.471 -3.00805 -3.80449 0
M  V30 3861 H 353.35 -1.85457 -4.22051 0
M  V30 3862 H 356.894 -5.29135 -4.54601 0
M  V30 3863 H 352.791 -4.12882 -4.96184 0
M  V30 3864 H 353.559 -6.16013 -5.38953 0
M  V30 3865 N 356.222 1.38976 -0.743202 0
M  V30 3866 C 357.169 2.30544 -0.10861 0
M  V30 3867 C 358.139 1.49642 0.720869 0
M  V30 3868 O 359.324 1.78304 0.679142 0
M  V30 3869 C 356.464 3.36018 0.786496 0
M  V30 3870 C 355.577 4.31963 -0.0564849 0
M  V30 3871 C 354.712 5.24506 0.840657 0
M  V30 3872 C 353.751 6.121 -0.00658363 0
M  V30 3873 N 352.888 6.96973 0.846943 0
M  V30 3874 H 357.728 2.8424 -0.895088 0
M  V30 3875 H 355.265 1.3995 -0.453048 0
M  V30 3876 H 357.223 3.95768 1.31999 0
M  V30 3877 H 355.853 2.83758 1.53887 0
M  V30 3878 H 354.905 3.73763 -0.707492 0
M  V30 3879 H 356.217 4.93703 -0.711229 0
M  V30 3880 H 355.371 5.89322 1.4417 0
M  V30 3881 H 354.11 4.63107 1.52916 0
M  V30 3882 H 353.115 5.46289 -0.620366 0
M  V30 3883 H 354.34 6.75565 -0.691992 0
M  V30 3884 H 352.286 6.38133 1.52059 0
M  V30 3885 H 352.203 7.5559 0.248864 0
M  V30 3886 H 353.471 7.6621 1.43328 0
M  V30 3887 N 357.7 0.491464 1.49741 0
M  V30 3888 C 358.647 -0.292027 2.28945 0
M  V30 3889 C 359.617 -0.968973 1.34908 0
M  V30 3890 O 360.802 -0.97748 1.6386 0
M  V30 3891 C 357.942 -1.35617 3.17336 0
M  V30 3892 C 357.055 -0.691957 4.26422 0
M  V30 3893 C 356.19 -1.73572 5.02042 0
M  V30 3894 C 355.229 -1.05286 6.02977 0
M  V30 3895 N 354.366 -2.0404 6.71798 0
M  V30 3896 H 359.206 0.389654 2.95442 0
M  V30 3897 H 356.743 0.204003 1.45679 0
M  V30 3898 H 358.701 -1.98502 3.66951 0
M  V30 3899 H 357.331 -2.00674 2.52844 0
M  V30 3900 H 356.383 0.0499523 3.80367 0
M  V30 3901 H 357.695 -0.153946 4.98562 0
M  V30 3902 H 356.849 -2.43987 5.55478 0
M  V30 3903 H 355.588 -2.30757 4.29654 0
M  V30 3904 H 354.593 -0.334446 5.48782 0
M  V30 3905 H 355.818 -0.487636 6.77347 0
M  V30 3906 H 353.764 -2.60205 6.02187 0
M  V30 3907 H 353.681 -1.55279 7.39881 0
M  V30 3908 H 354.949 -2.73772 7.29842 0
M  V30 3909 N 359.178 -1.55987 0.224894 0
M  V30 3910 C 360.408 -2.02489 -0.41007 0
M  V30 3911 C 360.816 -1.10391 -1.53657 0
M  V30 3912 O 360.159 -0.106458 -1.83391 0
M  V30 3913 C 360.221 -3.45319 -0.999757 0
M  V30 3914 C 359.885 -4.56999 -0.00827976 0
M  V30 3915 C 360.882 -5.13812 0.793314 0
M  V30 3916 C 358.567 -5.02176 0.111442 0
M  V30 3917 C 360.561 -6.14276 1.7013 0
M  V30 3918 C 358.248 -6.02477 1.02296 0
M  V30 3919 C 359.246 -6.58403 1.81643 0
M  V30 3920 O 358.934 -7.56751 2.71262 0
M  V30 3921 H 358.666 -0.667915 -0.104235 0
M  V30 3922 H 361.22 -2.0257 0.339782 0
M  V30 3923 H 359.45 -3.42318 -1.79876 0
M  V30 3924 H 361.139 -3.7545 -1.54248 0
M  V30 3925 H 361.905 -4.79756 0.711288 0
M  V30 3926 H 357.784 -4.58323 -0.49605 0
M  V30 3927 H 361.328 -6.57854 2.32107 0
M  V30 3928 H 357.225 -6.35954 1.10599 0
M  V30 3929 H 357.993 -7.74286 2.65375 0
M  V30 3930 N 360.656 0.0484629 -1.57525 0
M  V30 3931 C 361.566 1.07241 -2.08654 0
M  V30 3932 C 362.582 1.409 -1.02095 0
M  V30 3933 O 363.758 1.50609 -1.33712 0
M  V30 3934 C 360.823 2.36008 -2.5397 0
M  V30 3935 C 359.884 2.09108 -3.7493 0
M  V30 3936 C 359.117 3.31736 -4.18075 0
M  V30 3937 O 359.34 4.41714 -3.60895 0
M  V30 3938 O 358.274 3.18576 -5.10679 0
M  V30 3939 H 362.1 0.667965 -2.96263 0
M  V30 3940 H 359.685 0.26417 -1.47046 0
M  V30 3941 H 361.567 3.11747 -2.83535 0
M  V30 3942 H 360.242 2.75786 -1.69481 0
M  V30 3943 H 359.149 1.31 -3.50414 0
M  V30 3944 H 360.482 1.74198 -4.60343 0
M  V30 3945 N 362.134 1.5431 0.320358 0
M  V30 3946 C 363.081 1.83918 1.39438 0
M  V30 3947 C 364.051 0.686525 1.51248 0
M  V30 3948 O 365.236 0.933269 1.66417 0
M  V30 3949 C 362.376 2.075 2.75749 0
M  V30 3950 C 361.489 3.35177 2.72544 0
M  V30 3951 C 360.624 3.48704 4.00723 0
M  V30 3952 C 359.663 4.70244 3.91838 0
M  V30 3953 N 358.8 4.80679 5.11754 0
M  V30 3954 H 363.64 2.75544 1.13489 0
M  V30 3955 H 361.177 1.36459 0.549309 0
M  V30 3956 H 363.135 2.19166 3.54996 0
M  V30 3957 H 361.765 1.19163 3 0
M  V30 3958 H 360.817 3.32233 1.85271 0
M  V30 3959 H 362.129 4.24534 2.61863 0
M  V30 3960 H 361.283 3.59928 4.88402 0
M  V30 3961 H 360.022 2.57445 4.14214 0
M  V30 3962 H 359.027 4.59072 3.02544 0
M  V30 3963 H 360.252 5.6289 3.7991 0
M  V30 3964 H 358.198 3.92337 5.25745 0
M  V30 3965 H 358.115 5.64007 5.0342 0
M  V30 3966 H 359.383 4.96239 6.01138 0
M  V30 3967 N 363.613 -0.582584 1.46437 0
M  V30 3968 C 364.838 -1.37168 1.55563 0
M  V30 3969 C 365.263 -1.87061 0.19743 0
M  V30 3970 O 364.621 -1.61572 -0.822451 0
M  V30 3971 C 364.669 -2.53511 2.56446 0
M  V30 3972 O 363.773 -3.54953 2.09958 0
M  V30 3973 H 363.114 -0.408494 0.523477 0
M  V30 3974 H 365.644 -0.706646 1.9201 0
M  V30 3975 H 365.654 -3.00426 2.76058 0
M  V30 3976 H 364.329 -2.16549 3.55076 0
M  V30 3977 H 362.906 -3.14516 2.00334 0
M  V30 3978 N 365.091 -1.34144 -0.827227 0
M  V30 3979 C 366.337 -1.26446 -1.58554 0
M  V30 3980 C 366.67 0.1664 -1.93486 0
M  V30 3981 O 365.945 1.1107 -1.59667 0
M  V30 3982 C 366.228 -2.15111 -2.8879 0
M  V30 3983 C 366.081 -3.66712 -2.60465 0
M  V30 3984 C 367.4 -2.03311 -3.90324 0
M  V30 3985 H 364.519 -0.46067 -0.575284 0
M  V30 3986 H 367.161 -1.64356 -0.953269 0
M  V30 3987 H 365.311 -1.8291 -3.42748 0
M  V30 3988 H 366.983 -4.09259 -2.1285 0
M  V30 3989 H 365.226 -3.88014 -1.93978 0
M  V30 3990 H 365.897 -4.24112 -3.53317 0
M  V30 3991 H 368.373 -2.31574 -3.45706 0
M  V30 3992 H 367.249 -2.67582 -4.79261 0
M  V30 3993 H 367.51 -1.00879 -4.30437 0
M  V30 3994 N 366.569 1.04691 -1.17803 0
M  V30 3995 C 367.516 2.12557 -0.899343 0
M  V30 3996 C 368.486 1.65339 0.158771 0
M  V30 3997 O 369.671 1.90789 0.0204797 0
M  V30 3998 C 366.811 3.42481 -0.424315 0
M  V30 3999 C 365.924 4.03346 -1.54713 0
M  V30 4000 C 365.059 5.21208 -1.02546 0
M  V30 4001 C 364.098 5.74089 -2.12339 0
M  V30 4002 N 363.235 6.83247 -1.61612 0
M  V30 4003 H 368.075 2.35734 -1.823 0
M  V30 4004 H 365.612 1.1564 -0.909159 0
M  V30 4005 H 367.57 4.16996 -0.130421 0
M  V30 4006 H 366.2 3.19471 0.462377 0
M  V30 4007 H 365.252 3.2622 -1.95664 0
M  V30 4008 H 366.564 4.38628 -2.37501 0
M  V30 4009 H 365.718 6.02812 -0.685718 0
M  V30 4010 H 364.457 4.87414 -0.167084 0
M  V30 4011 H 363.462 4.91111 -2.47165 0
M  V30 4012 H 364.687 6.0993 -2.98601 0
M  V30 4013 H 362.633 6.5134 -0.780533 0
M  V30 4014 H 362.55 7.17559 -2.38003 0
M  V30 4015 H 363.818 7.68491 -1.30545 0
M  V30 4016 N 368.047 0.979072 1.23499 0
M  V30 4017 C 369.324 0.563674 1.87302 0
M  V30 4018 C 369.704 -0.959199 1.88049 0
M  V30 4019 O 369.052 -1.83535 1.36114 0
M  V30 4020 C 369.262 1.16822 3.28867 0
M  V30 4021 C 370.61 1.26014 4.0547 0
M  V30 4022 O 371.634 1.12158 3.38082 0
M  V30 4023 O 370.493 1.48044 5.26066 0
M  V30 4024 H 367.587 0.189602 0.804972 0
M  V30 4025 H 370.133 1.07407 1.31384 0
M  V30 4026 H 368.905 2.21049 3.22883 0
M  V30 4027 H 368.528 0.642564 3.92373 0
M  V30 4028 N 369.525 -1.3858 0.750561 0
M  V30 4029 C 370.455 -2.33102 0.136237 0
M  V30 4030 C 371.436 -1.54713 -0.706965 0
M  V30 4031 O 372.621 -1.83043 -0.648769 0
M  V30 4032 C 369.751 -3.38882 -0.760017 0
M  V30 4033 C 368.705 -4.27995 -0.0197785 0
M  V30 4034 C 368.031 -5.24605 -1.03408 0
M  V30 4035 C 369.331 -5.09554 1.14684 0
M  V30 4036 H 371.025 -2.84726 0.925822 0
M  V30 4037 H 368.571 -1.36898 0.446654 0
M  V30 4038 H 370.524 -4.0397 -1.19943 0
M  V30 4039 H 369.248 -2.85734 -1.58189 0
M  V30 4040 H 367.907 -3.64409 0.400184 0
M  V30 4041 H 367.555 -4.67746 -1.84994 0
M  V30 4042 H 367.255 -5.85081 -0.543464 0
M  V30 4043 H 368.779 -5.9257 -1.47288 0
M  V30 4044 H 370.193 -5.67899 0.785118 0
M  V30 4045 H 368.59 -5.7925 1.56812 0
M  V30 4046 H 369.66 -4.4347 1.96118 0
M  V30 4047 N 371.003 -0.499398 -1.49478 0
M  V30 4048 C 371.95 0.279881 -2.29097 0
M  V30 4049 C 372.92 0.961805 -1.3542 0
M  V30 4050 O 374.105 0.968777 -1.64376 0
M  V30 4051 C 371.245 1.33932 -3.18051 0
M  V30 4052 C 370.358 0.669333 -4.26783 0
M  V30 4053 C 369.493 1.70907 -5.02955 0
M  V30 4054 C 368.532 1.02087 -6.03527 0
M  V30 4055 N 367.669 2.00474 -6.7287 0
M  V30 4056 H 372.509 -0.405317 -2.95231 0
M  V30 4057 H 370.046 -0.211726 -1.45568 0
M  V30 4058 H 372.004 1.96553 -3.67998 0
M  V30 4059 H 370.634 1.9933 -2.53904 0
M  V30 4060 H 369.686 -0.0701234 -3.80335 0
M  V30 4061 H 370.998 0.127503 -4.98637 0
M  V30 4062 H 370.152 2.41037 -5.56764 0
M  V30 4063 H 368.891 2.28476 -4.30871 0
M  V30 4064 H 367.896 0.305338 -5.48951 0
M  V30 4065 H 369.121 0.451708 -6.77596 0
M  V30 4066 H 367.067 2.57007 -6.03559 0
M  V30 4067 H 366.984 1.51353 -7.40694 0
M  V30 4068 H 368.252 2.69897 -7.31284 0
M  V30 4069 N 372.481 1.55866 -0.233164 0
M  V30 4070 C 373.758 1.90471 0.444988 0
M  V30 4071 C 374.138 1.15209 1.7689 0
M  V30 4072 O 373.486 0.265119 2.26957 0
M  V30 4073 C 373.696 3.4333 0.626559 0
M  V30 4074 C 375.044 4.14319 0.92871 0
M  V30 4075 O 376.068 3.48993 0.712926 0
M  V30 4076 O 374.927 5.29846 1.33887 0
M  V30 4077 H 372.021 0.792347 0.236885 0
M  V30 4078 H 374.567 1.67437 -0.276211 0
M  V30 4079 H 373.339 3.90095 -0.306822 0
M  V30 4080 H 372.962 3.72181 1.39881 0
M  V30 4081 N 373.959 -0.0401083 1.57549 0
M  V30 4082 C 374.922 -1.02871 2.04817 0
M  V30 4083 C 375.922 -1.29708 0.950388 0
M  V30 4084 O 377.112 -1.24897 1.21435 0
M  V30 4085 C 374.244 -2.36443 2.45576 0
M  V30 4086 H 375.437 -0.620631 2.93408 0
M  V30 4087 H 372.99 -0.286667 1.53649 0
M  V30 4088 H 373.725 -2.82021 1.60108 0
M  V30 4089 H 373.51 -2.18296 3.25713 0
M  V30 4090 H 375 -3.07441 2.82612 0
M  V30 4091 N 375.437 -1.54477 -0.31217 0
M  V30 4092 C 376.686 -1.72438 -1.04633 0
M  V30 4093 C 376.999 -0.511163 -1.88803 0
M  V30 4094 O 378.205 -0.572341 -2.65399 0
M  V30 4095 C 376.661 -3.05043 -1.9099 0
M  V30 4096 C 376.269 -4.33806 -1.11877 0
M  V30 4097 C 378.013 -3.32364 -2.64073 0
M  V30 4098 C 375.92 -5.57467 -1.97445 0
M  V30 4099 H 374.85 -0.642647 -0.394361 0
M  V30 4100 H 377.501 -1.80966 -0.303929 0
M  V30 4101 H 375.883 -2.90451 -2.69173 0
M  V30 4102 H 377.057 -4.59199 -0.383843 0
M  V30 4103 H 375.372 -4.13336 -0.504252 0
M  V30 4104 H 377.969 -4.21951 -3.28423 0
M  V30 4105 H 378.312 -2.50745 -3.32314 0
M  V30 4106 H 378.845 -3.47875 -1.92944 0
M  V30 4107 H 375.584 -6.41722 -1.33692 0
M  V30 4108 H 375.104 -5.36277 -2.6864 0
M  V30 4109 H 376.783 -5.94303 -2.5576 0
M  V30 4110 N 376.915 0.57481 -1.46744 0
M  V30 4111 C 377.825 1.711 -1.60505 0
M  V30 4112 C 378.841 1.67008 -0.488307 0
M  V30 4113 O 380.017 1.86774 -0.753495 0
M  V30 4114 C 377.082 3.07608 -1.59932 0
M  V30 4115 C 376.143 3.22904 -2.82898 0
M  V30 4116 C 375.376 4.529 -2.82343 0
M  V30 4117 O 375.599 5.37278 -1.91542 0
M  V30 4118 O 374.533 4.71611 -3.73987 0
M  V30 4119 H 378.359 1.62436 -2.56609 0
M  V30 4120 H 375.944 0.742779 -1.29627 0
M  V30 4121 H 377.826 3.88877 -1.62336 0
M  V30 4122 H 376.501 3.16692 -0.669898 0
M  V30 4123 H 375.408 2.41099 -2.86046 0
M  V30 4124 H 376.741 3.18715 -3.75076 0
M  V30 4125 N 378.394 1.34581 0.820102 0
M  V30 4126 C 379.64 1.27285 1.57881 0
M  V30 4127 C 379.973 -0.156137 1.93571 0
M  V30 4128 O 379.248 -1.10222 1.60254 0
M  V30 4129 C 379.531 2.16639 2.87645 0
M  V30 4130 C 379.384 3.68088 2.58517 0
M  V30 4131 C 380.703 2.05378 3.8924 0
M  V30 4132 H 377.822 0.463714 0.572833 0
M  V30 4133 H 380.464 1.64859 0.944539 0
M  V30 4134 H 378.614 1.84725 3.41773 0
M  V30 4135 H 380.286 4.10382 2.10676 0
M  V30 4136 H 378.529 3.89038 1.91917 0
M  V30 4137 H 379.2 4.2598 3.51063 0
M  V30 4138 H 381.676 2.33404 3.44473 0
M  V30 4139 H 380.552 2.7012 4.77835 0
M  V30 4140 H 380.813 1.0316 4.29896 0
M  V30 4141 N 379.872 -1.04064 1.18357 0
M  V30 4142 C 380.802 -2.14001 0.934113 0
M  V30 4143 C 381.783 -1.69616 -0.128186 0
M  V30 4144 O 382.968 -1.94185 0.0244093 0
M  V30 4145 C 380.098 -3.44253 0.459066 0
M  V30 4146 C 379.052 -4.02261 1.46185 0
M  V30 4147 C 378.378 -5.27992 0.844322 0
M  V30 4148 C 379.678 -4.38432 2.83856 0
M  V30 4149 H 381.372 -2.35127 1.85352 0
M  V30 4150 H 378.918 -1.12998 0.892604 0
M  V30 4151 H 380.871 -4.20522 0.271907 0
M  V30 4152 H 379.595 -3.22813 -0.495912 0
M  V30 4153 H 378.254 -3.28074 1.63595 0
M  V30 4154 H 377.902 -5.02862 -0.117845 0
M  V30 4155 H 377.602 -5.67765 1.51384 0
M  V30 4156 H 379.126 -6.06938 0.667693 0
M  V30 4157 H 380.54 -5.05688 2.70098 0
M  V30 4158 H 378.937 -4.89254 3.47491 0
M  V30 4159 H 380.007 -3.4826 3.37406 0
M  V30 4160 N 381.35 -0.985608 -1.22978 0
M  V30 4161 C 382.599 -0.652881 -1.90841 0
M  V30 4162 C 382.912 0.817842 -1.77681 0
M  V30 4163 O 384.118 1.26185 -2.40395 0
M  V30 4164 C 382.574 -1.11717 -3.42122 0
M  V30 4165 C 382.182 -2.6126 -3.63933 0
M  V30 4166 C 383.926 -0.85843 -4.1573 0
M  V30 4167 C 381.833 -3.0133 -5.08876 0
M  V30 4168 H 380.763 -0.240491 -0.714619 0
M  V30 4169 H 383.414 -1.1942 -1.39324 0
M  V30 4170 H 381.796 -0.504027 -3.92779 0
M  V30 4171 H 382.97 -3.27858 -3.23799 0
M  V30 4172 H 381.285 -2.84937 -3.03644 0
M  V30 4173 H 383.882 -1.13359 -5.22546 0
M  V30 4174 H 384.225 0.205461 -4.15793 0
M  V30 4175 H 384.758 -1.43341 -3.71077 0
M  V30 4176 H 381.497 -4.06864 -5.13947 0
M  V30 4177 H 381.017 -2.3943 -5.49939 0
M  V30 4178 H 382.696 -2.92224 -5.77247 0
M  V30 4179 N 382.828 1.3818 -0.7579 0
M  V30 4180 C 383.791 2.28764 -0.141286 0
M  V30 4181 C 384.791 1.47388 0.642907 0
M  V30 4182 O 385.981 1.67781 0.468536 0
M  V30 4183 C 383.113 3.31184 0.808069 0
M  V30 4184 H 384.306 2.848 -0.939633 0
M  V30 4185 H 381.859 1.47212 -0.525191 0
M  V30 4186 H 382.594 2.80247 1.63193 0
M  V30 4187 H 382.379 3.91314 0.248104 0
M  V30 4188 H 383.869 3.98909 1.23536 0
M  V30 4189 N 384.306 0.507319 1.49211 0
M  V30 4190 C 385.216 -0.272136 2.33016 0
M  V30 4191 C 386.232 -0.961206 1.45041 0
M  V30 4192 O 387.408 -0.941191 1.78055 0
M  V30 4193 C 384.473 -1.31895 3.20631 0
M  V30 4194 C 383.534 -0.642648 4.24463 0
M  V30 4195 C 382.767 -1.63959 5.07891 0
M  V30 4196 O 382.99 -2.87007 4.92933 0
M  V30 4197 O 381.924 -1.19143 5.8999 0
M  V30 4198 H 385.75 0.413982 3.00865 0
M  V30 4199 H 383.335 0.268556 1.46966 0
M  V30 4200 H 385.217 -1.92446 3.7489 0
M  V30 4201 H 383.892 -1.98788 2.5547 0
M  V30 4202 H 382.799 0.00276252 3.741 0
M  V30 4203 H 384.132 -0.0160534 4.92197 0
M  V30 4204 N 385.784 -1.5574 0.241426 0
M  V30 4205 C 386.731 -2.21149 -0.660432 0
M  V30 4206 C 387.701 -1.17356 -1.17545 0
M  V30 4207 O 388.886 -1.45784 -1.23093 0
M  V30 4208 C 386.026 -2.91059 -1.85414 0
M  V30 4209 C 385.139 -4.09495 -1.37616 0
M  V30 4210 C 384.274 -4.67135 -2.529 0
M  V30 4211 C 383.313 -5.77831 -2.01936 0
M  V30 4212 N 382.45 -6.29677 -3.10566 0
M  V30 4213 H 387.29 -2.97845 -0.095955 0
M  V30 4214 H 384.827 -1.47057 -0.0356024 0
M  V30 4215 H 386.785 -3.29788 -2.5553 0
M  V30 4216 H 385.415 -2.16846 -2.39118 0
M  V30 4217 H 384.467 -3.76117 -0.569235 0
M  V30 4218 H 385.779 -4.89423 -0.962618 0
M  V30 4219 H 384.933 -5.08409 -3.31067 0
M  V30 4220 H 383.672 -3.86411 -2.97553 0
M  V30 4221 H 382.677 -5.36039 -1.22238 0
M  V30 4222 H 383.902 -6.60402 -1.58259 0
M  V30 4223 H 381.848 -5.5186 -3.54664 0
M  V30 4224 H 381.765 -7.04783 -2.73526 0
M  V30 4225 H 383.033 -6.75609 -3.88809 0
M  V30 4226 N 387.262 0.0317525 -1.57568 0
M  V30 4227 C 388.678 0.38735 -1.54828 0
M  V30 4228 C 388.878 1.7677 -0.967187 0
M  V30 4229 O 387.934 2.45581 -0.587063 0
M  V30 4230 C 389.247 0.291667 -2.99282 0
M  V30 4231 C 390.795 0.368946 -3.10818 0
M  V30 4232 C 391.27 0.302741 -4.56998 0
M  V30 4233 N 392.761 0.361617 -4.61786 0
M  V30 4234 C 393.496 0.333238 -5.72431 0
M  V30 4235 N 392.992 0.257308 -6.92322 0
M  V30 4236 N 394.785 0.382769 -5.60795 0
M  V30 4237 H 386.936 -0.871609 -1.93692 0
M  V30 4238 H 389.199 -0.331161 -0.888277 0
M  V30 4239 H 388.905 -0.656794 -3.45513 0
M  V30 4240 H 388.779 1.08638 -3.61217 0
M  V30 4241 H 391.166 1.30784 -2.64536 0
M  V30 4242 H 391.247 -0.455066 -2.5172 0
M  V30 4243 H 390.891 -0.632473 -5.03947 0
M  V30 4244 H 390.821 1.14482 -5.14005 0
M  V30 4245 H 393.312 0.422923 -3.75526 0
M  V30 4246 H 393.625 0.24068 -7.72425 0
M  V30 4247 H 391.97 0.223396 -6.94641 0
M  V30 4248 H 395.161 0.44006 -4.66027 0
M  V30 4249 H 395.334 0.357184 -6.47015 0
M  V30 4250 N 388.74 1.54641 0.303973 0
M  V30 4251 C 390.156 1.45788 0.649463 0
M  V30 4252 C 390.356 0.64666 1.90842 0
M  V30 4253 O 389.412 0.153183 2.52035 0
M  V30 4254 C 390.725 2.89718 0.805227 0
M  V30 4255 C 392.273 2.99742 0.901305 0
M  V30 4256 C 392.748 4.44863 1.08909 0
M  V30 4257 N 394.239 4.48559 1.15536 0
M  V30 4258 C 394.974 5.58026 1.3189 0
M  V30 4259 N 394.47 6.77422 1.45161 0
M  V30 4260 N 396.263 5.45708 1.34755 0
M  V30 4261 H 388.414 2.05854 -0.523237 0
M  V30 4262 H 390.677 0.932186 -0.172431 0
M  V30 4263 H 390.383 3.51666 -0.0489108 0
M  V30 4264 H 390.257 3.36964 1.69513 0
M  V30 4265 H 392.644 2.3791 1.74593 0
M  V30 4266 H 392.725 2.55797 -0.0125531 0
M  V30 4267 H 392.369 5.07288 0.249241 0
M  V30 4268 H 392.299 4.86436 2.01713 0
M  V30 4269 H 394.79 3.6254 1.06646 0
M  V30 4270 H 395.103 7.56604 1.57387 0
M  V30 4271 H 393.448 6.80292 1.42223 0
M  V30 4272 H 396.639 4.51378 1.23996 0
M  V30 4273 H 396.812 6.3107 1.47157 0
M  V30 4274 N 390.218 -0.567019 1.47046 0
M  V30 4275 C 391.634 -0.891975 1.32348 0
M  V30 4276 C 391.834 -1.99154 0.306616 0
M  V30 4277 O 390.89 -2.50883 -0.28532 0
M  V30 4278 C 392.203 -1.29449 2.7141 0
M  V30 4279 C 393.751 -1.40646 2.79621 0
M  V30 4280 C 394.226 -1.84257 4.19301 0
M  V30 4281 N 395.717 -1.91424 4.21795 0
M  V30 4282 C 396.452 -2.26476 5.26779 0
M  V30 4283 N 395.948 -2.60211 6.42077 0
M  V30 4284 N 397.741 -2.27166 5.14152 0
M  V30 4285 H 389.892 0.159074 2.11803 0
M  V30 4286 H 392.155 0.00849752 0.947962 0
M  V30 4287 H 391.861 -0.560448 3.47206 0
M  V30 4288 H 391.735 -2.25273 3.02542 0
M  V30 4289 H 394.122 -2.13133 2.04104 0
M  V30 4290 H 394.203 -0.430339 2.52154 0
M  V30 4291 H 393.847 -1.12343 4.95319 0
M  V30 4292 H 393.777 -2.82855 4.44185 0
M  V30 4293 H 396.268 -1.6778 3.38612 0
M  V30 4294 H 396.581 -2.85956 7.17948 0
M  V30 4295 H 394.926 -2.57813 6.45413 0
M  V30 4296 H 398.117 -2.00244 4.23107 0
M  V30 4297 H 398.29 -2.54154 5.96079 0
M  V30 4298 N 391.696 -1.35014 -0.812953 0
M  V30 4299 C 392.945 -1.27269 -1.56479 0
M  V30 4300 C 393.258 0.152771 -1.95002 0
M  V30 4301 O 394.464 0.352451 -2.69203 0
M  V30 4302 C 392.92 -2.23159 -2.82362 0
M  V30 4303 C 392.528 -3.71016 -2.511 0
M  V30 4304 C 394.272 -2.24342 -3.60376 0
M  V30 4305 C 392.179 -4.58746 -3.73237 0
M  V30 4306 H 391.109 -0.472829 -0.587324 0
M  V30 4307 H 393.76 -1.6024 -0.894171 0
M  V30 4308 H 392.142 -1.83151 -3.51101 0
M  V30 4309 H 393.316 -4.1962 -1.90409 0
M  V30 4310 H 391.631 -3.72378 -1.86343 0
M  V30 4311 H 394.228 -2.87107 -4.51081 0
M  V30 4312 H 394.571 -1.24542 -3.97234 0
M  V30 4313 H 395.104 -2.62846 -2.98591 0
M  V30 4314 H 391.843 -5.59521 -3.41492 0
M  V30 4315 H 391.363 -4.14871 -4.33176 0
M  V30 4316 H 393.042 -4.73852 -4.40537 0
M  V30 4317 N 393.175 1.03435 -1.18907 0
M  V30 4318 C 394.4 1.80919 -1.01406 0
M  V30 4319 C 394.825 1.83055 0.432721 0
M  V30 4320 O 394.183 1.25252 1.31079 0
M  V30 4321 C 394.231 3.24091 -1.58105 0
M  V30 4322 O 393.335 4.04434 -0.806669 0
M  V30 4323 H 392.676 0.558709 -0.358803 0
M  V30 4324 H 395.206 1.30223 -1.57807 0
M  V30 4325 H 395.216 3.74853 -1.61087 0
M  V30 4326 H 393.891 3.21851 -2.6341 0
M  V30 4327 H 392.468 3.63091 -0.849666 0
M  V30 4328 N 394.653 0.992116 1.22453 0
M  V30 4329 C 395.881 0.685944 1.95198 0
M  V30 4330 C 396.296 -0.749233 1.73297 0
M  V30 4331 O 395.653 -1.50549 1.03156 0
M  V30 4332 C 395.704 0.981395 3.47924 0
M  V30 4333 O 395.425 2.36018 3.6909 0
M  V30 4334 C 396.926 0.692815 4.37853 0
M  V30 4335 H 394.146 0.253821 0.621141 0
M  V30 4336 H 396.69 1.32668 1.55626 0
M  V30 4337 H 394.845 0.386481 3.85467 0
M  V30 4338 H 395.259 2.45884 4.63294 0
M  V30 4339 H 396.733 0.949818 5.43767 0
M  V30 4340 H 397.21 -0.373181 4.37612 0
M  V30 4341 H 397.816 1.26874 4.05935 0
M  V30 4342 N 396.131 -1.37776 0.765217 0
M  V30 4343 C 397.041 -2.34135 0.147666 0
M  V30 4344 C 398.057 -1.59854 -0.687215 0
M  V30 4345 O 399.233 -1.91983 -0.608659 0
M  V30 4346 C 396.298 -3.3901 -0.72617 0
M  V30 4347 C 395.359 -4.2912 0.124417 0
M  V30 4348 C 394.592 -5.28986 -0.707807 0
M  V30 4349 O 394.815 -5.36205 -1.94525 0
M  V30 4350 O 393.749 -6.01779 -0.12046 0
M  V30 4351 H 397.575 -2.88664 0.943758 0
M  V30 4352 H 395.16 -1.39824 0.526277 0
M  V30 4353 H 397.042 -4.03195 -1.22524 0
M  V30 4354 H 395.717 -2.86819 -1.50056 0
M  V30 4355 H 394.624 -3.68057 0.669696 0
M  V30 4356 H 395.957 -4.84598 0.861736 0
M  V30 4357 N 397.609 -0.515225 -1.4894 0
M  V30 4358 C 398.519 0.259774 -2.33157 0
M  V30 4359 C 399.535 0.953501 -1.45548 0
M  V30 4360 O 400.711 0.931735 -1.78552 0
M  V30 4361 C 397.776 1.30193 -3.21326 0
M  V30 4362 C 396.837 0.620129 -4.24797 0
M  V30 4363 C 396.07 1.61263 -5.08753 0
M  V30 4364 O 396.293 2.84389 -4.94448 0
M  V30 4365 O 395.227 1.16013 -5.90614 0
M  V30 4366 H 399.053 -0.429932 -3.00641 0
M  V30 4367 H 396.638 -0.276346 -1.46822 0
M  V30 4368 H 398.52 1.90455 -3.75905 0
M  V30 4369 H 397.195 1.97431 -2.56521 0
M  V30 4370 H 396.102 -0.0226019 -3.74093 0
M  V30 4371 H 397.435 -0.0100493 -4.92199 0
M  V30 4372 N 399.087 1.5561 -0.249682 0
M  V30 4373 C 400.034 2.21496 0.648694 0
M  V30 4374 C 401.004 1.17977 1.16921 0
M  V30 4375 O 402.189 1.46434 1.22318 0
M  V30 4376 C 399.329 2.92039 1.83868 0
M  V30 4377 C 398.442 4.10219 1.35442 0
M  V30 4378 C 397.577 4.6847 2.50419 0
M  V30 4379 C 396.616 5.78893 1.98869 0
M  V30 4380 N 395.753 6.31315 3.07223 0
M  V30 4381 H 400.593 2.97892 0.0801582 0
M  V30 4382 H 398.13 1.47074 0.0278031 0
M  V30 4383 H 400.088 3.31138 2.53778 0
M  V30 4384 H 398.718 2.18111 2.37965 0
M  V30 4385 H 397.77 3.76413 0.54928 0
M  V30 4386 H 399.082 4.89927 0.936649 0
M  V30 4387 H 398.236 5.10158 3.28366 0
M  V30 4388 H 396.975 3.87984 2.95499 0
M  V30 4389 H 395.98 5.3668 1.19393 0
M  V30 4390 H 397.205 6.61232 1.54755 0
M  V30 4391 H 395.151 5.53733 3.51732 0
M  V30 4392 H 395.068 7.06224 2.69784 0
M  V30 4393 H 396.336 6.77662 3.8522 0
M  V30 4394 N 400.565 -0.0233959 1.57583 0
M  V30 4395 C 401.495 -1.02162 2.09965 0
M  V30 4396 C 402.476 -1.3735 1.00344 0
M  V30 4397 O 403.661 -1.46135 1.27899 0
M  V30 4398 C 400.791 -2.32081 2.58371 0
M  V30 4399 C 399.745 -2.1112 3.72307 0
M  V30 4400 C 399.071 -3.46848 4.06941 0
M  V30 4401 C 400.371 -1.49276 5.00514 0
M  V30 4402 H 402.065 -0.585557 2.93618 0
M  V30 4403 H 399.611 -0.280218 1.41247 0
M  V30 4404 H 401.564 -3.02249 2.93639 0
M  V30 4405 H 400.288 -2.77758 1.71808 0
M  V30 4406 H 398.947 -1.43384 3.37397 0
M  V30 4407 H 398.595 -3.90184 3.17436 0
M  V30 4408 H 398.295 -3.33646 4.83688 0
M  V30 4409 H 399.819 -4.18369 4.44747 0
M  V30 4410 H 401.233 -2.09368 5.33702 0
M  V30 4411 H 399.63 -1.46632 5.8191 0
M  V30 4412 H 400.7 -0.459217 4.82721 0
M  V30 4413 N 402.043 -1.548 -0.295768 0
M  V30 4414 C 402.953 -1.89177 -1.38742 0
M  V30 4415 C 403.969 -0.786481 -1.55211 0
M  V30 4416 O 405.145 -1.08344 -1.69775 0
M  V30 4417 C 402.21 -2.13663 -2.73036 0
M  V30 4418 C 401.271 -3.37349 -2.65508 0
M  V30 4419 C 400.504 -3.60658 -3.93398 0
M  V30 4420 O 400.727 -2.86882 -4.93006 0
M  V30 4421 O 399.661 -4.54179 -3.94975 0
M  V30 4422 H 403.487 -2.82059 -1.12589 0
M  V30 4423 H 401.072 -1.41056 -0.492295 0
M  V30 4424 H 402.954 -2.3094 -3.52484 0
M  V30 4425 H 401.629 -1.23967 -2.99022 0
M  V30 4426 H 400.536 -3.25431 -1.84514 0
M  V30 4427 H 401.869 -4.27192 -2.44474 0
M  V30 4428 N 403.521 0.559213 -1.47345 0
M  V30 4429 C 404.431 1.69388 -1.62311 0
M  V30 4430 C 405.447 1.6648 -0.505993 0
M  V30 4431 O 406.623 1.85964 -0.773262 0
M  V30 4432 C 403.688 3.05894 -1.63185 0
M  V30 4433 C 402.749 3.19885 -2.86307 0
M  V30 4434 C 401.982 4.49879 -2.87131 0
M  V30 4435 O 402.205 5.35217 -1.97229 0
M  V30 4436 O 401.139 4.67618 -3.78968 0
M  V30 4437 H 404.965 1.59706 -2.58317 0
M  V30 4438 H 402.55 0.728989 -1.30407 0
M  V30 4439 H 404.432 3.87133 -1.66451 0
M  V30 4440 H 403.107 3.15964 -0.70345 0
M  V30 4441 H 402.014 2.38052 -2.88587 0
M  V30 4442 H 403.347 3.14718 -3.78435 0
M  V30 4443 N 404.999 1.35443 0.805782 0
M  V30 4444 C 406.239 1.30127 1.57627 0
M  V30 4445 C 406.603 -0.122567 1.91608 0
M  V30 4446 O 407.804 -0.300107 2.67119 0
M  V30 4447 C 406.075 2.18314 2.82973 0
M  V30 4448 S 407.634 2.30521 3.7337 0
M  V30 4449 H 404.452 0.462439 0.540066 0
M  V30 4450 H 407.054 1.70843 0.95042 0
M  V30 4451 H 405.758 3.20741 2.56034 0
M  V30 4452 H 405.289 1.78558 3.50543 0
M  V30 4453 H 407.304 1.49062 4.73281 0
M  V30 4454 N 406.477 -1.02803 1.19454 0
M  V30 4455 C 407.41 -2.107 0.876396 0
M  V30 4456 C 408.388 -1.61741 -0.166897 0
M  V30 4457 O 409.572 -1.88451 -0.0430195 0
M  V30 4458 C 406.699 -3.37262 0.311758 0
M  V30 4459 C 405.745 -4.05093 1.33424 0
M  V30 4460 S 406.578 -4.50498 2.89503 0
M  V30 4461 C 407.734 -5.80277 2.34584 0
M  V30 4462 H 407.967 -2.37362 1.79016 0
M  V30 4463 H 405.5 -1.15755 1.02177 0
M  V30 4464 H 407.458 -4.10499 -0.00748752 0
M  V30 4465 H 406.119 -3.08693 -0.58032 0
M  V30 4466 H 405.312 -4.9611 0.888302 0
M  V30 4467 H 404.914 -3.3803 1.60037 0
M  V30 4468 H 407.206 -6.54873 1.73633 0
M  V30 4469 H 408.149 -6.29651 3.23952 0
M  V30 4470 H 408.557 -5.3599 1.77131 0
M  V30 4471 N 407.956 -0.998596 -1.21925 0
M  V30 4472 C 409.233 -0.593401 -1.86382 0
M  V30 4473 C 409.613 0.92916 -1.89552 0
M  V30 4474 O 408.961 1.81347 -1.39017 0
M  V30 4475 C 409.171 -1.22039 -3.26967 0
M  V30 4476 C 410.519 -1.32449 -4.03413 0
M  V30 4477 O 411.543 -1.17522 -3.36254 0
M  V30 4478 O 410.402 -1.56395 -5.23644 0
M  V30 4479 H 407.496 -0.202385 -0.801854 0
M  V30 4480 H 410.042 -1.09484 -1.29659 0
M  V30 4481 H 408.814 -2.26158 -3.19325 0
M  V30 4482 H 408.437 -0.704906 -3.91301 0
M  V30 4483 N 409.434 1.37368 -0.772513 0
M  V30 4484 C 410.681 1.99673 -0.337182 0
M  V30 4485 C 411.009 1.61324 1.0865 0
M  V30 4486 O 410.264 0.851377 1.7621 0
M  V30 4487 C 410.563 3.54817 -0.428876 0
M  V30 4488 C 410.229 4.12936 -1.81092 0
M  V30 4489 C 408.891 4.28523 -2.1891 0
M  V30 4490 C 411.243 4.44801 -2.71664 0
M  V30 4491 C 408.571 4.73277 -3.46735 0
M  V30 4492 C 410.923 4.90981 -3.98899 0
M  V30 4493 C 409.587 5.04773 -4.36761 0
M  V30 4494 H 408.857 0.730656 -0.123384 0
M  V30 4495 H 411.504 1.64124 -0.986686 0
M  V30 4496 H 409.809 3.90618 0.304167 0
M  V30 4497 H 411.506 4.00933 -0.0733334 0
M  V30 4498 H 408.096 4.01233 -1.50699 0
M  V30 4499 H 412.28 4.32344 -2.43706 0
M  V30 4500 H 407.536 4.82142 -3.75964 0
M  V30 4501 H 411.71 5.14603 -4.69208 0
M  V30 4502 H 409.337 5.39211 -5.35868 0
M  V30 4503 N 410.912 0.523116 1.48665 0
M  V30 4504 C 411.875 -0.232592 2.28017 0
M  V30 4505 C 412.875 -0.874021 1.34972 0
M  V30 4506 O 414.065 -0.735132 1.57929 0
M  V30 4507 C 411.197 -1.33586 3.13636 0
M  V30 4508 H 412.39 0.464008 2.96289 0
M  V30 4509 H 409.943 0.278816 1.53793 0
M  V30 4510 H 410.678 -2.06593 2.4998 0
M  V30 4511 H 410.463 -0.881125 3.82071 0
M  V30 4512 H 411.953 -1.86759 3.73511 0
M  V30 4513 N 412.39 -1.55475 0.257931 0
M  V30 4514 C 413.618 -2.03609 -0.367559 0
M  V30 4515 C 414.033 -1.13687 -1.50734 0
M  V30 4516 O 413.39 -0.153479 -1.81853 0
M  V30 4517 C 413.441 -3.51001 -0.864908 0
M  V30 4518 O 413.162 -4.37499 0.229465 0
M  V30 4519 C 414.663 -4.14946 -1.55997 0
M  V30 4520 H 411.883 -0.665459 -0.0860521 0
M  V30 4521 H 414.427 -2.00843 0.385014 0
M  V30 4522 H 412.582 -3.54266 -1.56762 0
M  V30 4523 H 412.996 -5.24286 -0.14998 0
M  V30 4524 H 414.47 -5.19735 -1.85956 0
M  V30 4525 H 414.947 -3.6209 -2.4857 0
M  V30 4526 H 415.553 -4.15635 -0.901543 0
M  V30 4527 N 413.868 0.0150385 -1.57593 0
M  V30 4528 C 414.778 1.02791 -2.10882 0
M  V30 4529 C 415.794 1.38702 -1.0506 0
M  V30 4530 O 416.97 1.47739 -1.36877 0
M  V30 4531 C 414.035 2.30568 -2.58919 0
M  V30 4532 C 413.096 2.01108 -3.79281 0
M  V30 4533 C 412.329 3.22794 -4.25018 0
M  V30 4534 O 412.552 4.33959 -3.70183 0
M  V30 4535 O 411.486 3.07672 -5.17322 0
M  V30 4536 H 415.312 0.604973 -2.97613 0
M  V30 4537 H 412.897 0.23292 -1.47573 0
M  V30 4538 H 414.779 3.05662 -2.90084 0
M  V30 4539 H 413.454 2.72129 -1.75293 0
M  V30 4540 H 412.361 1.23537 -3.53114 0
M  V30 4541 H 413.694 1.64394 -4.63935 0
M  V30 4542 N 415.346 1.54954 0.287554 0
M  V30 4543 C 416.276 1.89839 1.35954 0
M  V30 4544 C 417.257 0.758675 1.52244 0
M  V30 4545 O 418.442 1.01557 1.65529 0
M  V30 4546 C 415.572 2.15753 2.72154 0
M  V30 4547 C 414.526 3.3159 2.70614 0
M  V30 4548 C 413.852 3.42952 4.10229 0
M  V30 4549 C 415.152 4.68359 2.31165 0
M  V30 4550 H 416.846 2.79625 1.07007 0
M  V30 4551 H 414.392 1.3454 0.513316 0
M  V30 4552 H 416.345 2.38743 3.47246 0
M  V30 4553 H 415.069 1.22752 3.02654 0
M  V30 4554 H 413.728 3.08545 1.97979 0
M  V30 4555 H 413.376 2.47443 4.37928 0
M  V30 4556 H 413.076 4.20826 4.10097 0
M  V30 4557 H 414.6 3.68218 4.87081 0
M  V30 4558 H 416.014 4.9099 2.95976 0
M  V30 4559 H 414.411 5.49044 2.42221 0
M  V30 4560 H 415.481 4.68165 1.26291 0
M  V30 4561 N 416.824 -0.551391 1.4764 0
M  V30 4562 C 418.073 -1.30467 1.53822 0
M  V30 4563 C 418.386 -1.94495 0.207661 0
M  V30 4564 O 419.592 -2.71099 0.147533 0
M  V30 4565 C 418.048 -2.36616 2.71184 0
M  V30 4566 C 417.656 -1.78754 4.10793 0
M  V30 4567 C 419.4 -3.13088 2.86663 0
M  V30 4568 C 417.307 -2.82717 5.19447 0
M  V30 4569 H 416.237 -0.490584 0.572576 0
M  V30 4570 H 418.888 -0.58494 1.73927 0
M  V30 4571 H 417.27 -3.11529 2.4447 0
M  V30 4572 H 418.444 -1.10173 4.47435 0
M  V30 4573 H 416.759 -1.14846 4.00249 0
M  V30 4574 H 419.356 -3.90736 3.65007 0
M  V30 4575 H 419.699 -3.67635 1.95321 0
M  V30 4576 H 420.232 -2.45288 3.13175 0
M  V30 4577 H 416.971 -2.33018 6.12685 0
M  V30 4578 H 416.491 -3.4969 4.87316 0
M  V30 4579 H 418.17 -3.46102 5.46646 0
M  V30 4580 N 418.302 -1.35869 -0.798587 0
M  V30 4581 C 419.232 -1.32118 -1.92528 0
M  V30 4582 C 420.213 -0.194209 -1.68988 0
M  V30 4583 O 421.398 -0.390426 -1.90235 0
M  V30 4584 C 418.528 -1.10047 -3.29404 0
M  V30 4585 C 417.482 -2.19471 -3.67446 0
M  V30 4586 C 416.808 -1.82555 -5.02571 0
M  V30 4587 C 418.108 -3.61495 -3.76987 0
M  V30 4588 H 419.802 -2.26394 -1.95924 0
M  V30 4589 H 417.348 -1.08981 -0.94123 0
M  V30 4590 H 419.301 -1.06061 -4.07835 0
M  V30 4591 H 418.025 -0.122195 -3.26371 0
M  V30 4592 H 416.684 -2.22568 -2.91306 0
M  V30 4593 H 416.332 -0.833249 -4.9605 0
M  V30 4594 H 416.032 -2.5581 -5.28995 0
M  V30 4595 H 417.556 -1.80108 -5.83432 0
M  V30 4596 H 418.97 -3.60676 -4.4563 0
M  V30 4597 H 417.367 -4.33577 -4.14887 0
M  V30 4598 H 418.437 -3.97065 -2.78329 0
M  V30 4599 N 419.78 1.02168 -1.19998 0
M  V30 4600 C 420.743 2.08765 -0.94604 0
M  V30 4601 C 421.743 1.60618 0.0763846 0
M  V30 4602 O 422.933 1.73472 -0.159135 0
M  V30 4603 C 420.065 3.38262 -0.423255 0
M  V30 4604 H 421.258 2.32726 -1.89153 0
M  V30 4605 H 418.811 1.1889 -1.01464 0
M  V30 4606 H 419.546 3.19974 0.527938 0
M  V30 4607 H 419.331 3.74532 -1.16053 0
M  V30 4608 H 420.821 4.16759 -0.264911 0
M  V30 4609 N 421.258 1.00505 1.21394 0
M  V30 4610 C 422.168 0.574806 2.27449 0
M  V30 4611 C 423.184 -0.382206 1.6975 0
M  V30 4612 O 424.36 -0.246027 1.99892 0
M  V30 4613 C 421.425 -0.0917414 3.46579 0
M  V30 4614 C 420.486 0.909758 4.1955 0
M  V30 4615 C 419.719 0.274924 5.32991 0
M  V30 4616 O 419.942 -0.928254 5.62796 0
M  V30 4617 O 418.876 0.985877 5.93771 0
M  V30 4618 H 422.702 1.45744 2.66444 0
M  V30 4619 H 420.287 0.773923 1.27792 0
M  V30 4620 H 422.169 -0.464551 4.18832 0
M  V30 4621 H 420.844 -0.948755 3.09484 0
M  V30 4622 H 419.751 1.33372 3.49518 0
M  V30 4623 H 421.084 1.73636 4.60555 0
M  V30 4624 N 422.737 -1.36956 0.779787 0
M  V30 4625 C 423.684 -2.30175 0.169697 0
M  V30 4626 C 424.654 -1.51501 -0.68094 0
M  V30 4627 O 425.839 -1.80042 -0.631629 0
M  V30 4628 C 422.979 -3.37985 -0.697131 0
M  V30 4629 C 422.092 -4.31661 0.170992 0
M  V30 4630 C 421.227 -5.2655 -0.701298 0
M  V30 4631 C 420.266 -6.11867 0.168869 0
M  V30 4632 N 419.403 -6.98973 -0.661855 0
M  V30 4633 H 424.243 -2.81767 0.970135 0
M  V30 4634 H 421.78 -1.38699 0.489994 0
M  V30 4635 H 423.738 -3.99128 -1.2146 0
M  V30 4636 H 422.368 -2.87739 -1.46309 0
M  V30 4637 H 421.42 -3.71756 0.80634 0
M  V30 4638 H 422.732 -4.91644 0.841875 0
M  V30 4639 H 421.886 -5.92937 -1.28494 0
M  V30 4640 H 420.625 -4.66998 -1.40584 0
M  V30 4641 H 419.63 -5.44452 0.764986 0
M  V30 4642 H 420.855 -6.73493 0.870863 0
M  V30 4643 H 418.801 -6.41941 -1.35086 0
M  V30 4644 H 418.718 -7.55984 -0.0484447 0
M  V30 4645 H 419.986 -7.6974 -1.22963 0
M  V30 4646 N 424.215 -0.530993 -1.48385 0
M  V30 4647 C 425.631 -0.188919 -1.58478 0
M  V30 4648 C 425.831 1.30786 -1.53288 0
M  V30 4649 O 424.887 2.08619 -1.42248 0
M  V30 4650 C 426.2 -0.792343 -2.90073 0
M  V30 4651 C 427.748 -0.76117 -3.03604 0
M  V30 4652 C 428.223 -1.34319 -4.37861 0
M  V30 4653 N 429.714 -1.3052 -4.44431 0
M  V30 4654 C 430.449 -1.72543 -5.46824 0
M  V30 4655 N 429.945 -2.22299 -6.56167 0
M  V30 4656 N 431.738 -1.63773 -5.37712 0
M  V30 4657 H 423.889 -1.50377 -1.50002 0
M  V30 4658 H 426.152 -0.625559 -0.712306 0
M  V30 4659 H 425.858 -1.84323 -2.99529 0
M  V30 4660 H 425.732 -0.270026 -3.76232 0
M  V30 4661 H 428.119 0.280957 -2.93759 0
M  V30 4662 H 428.2 -1.32097 -2.19053 0
M  V30 4663 H 427.844 -2.38425 -4.4846 0
M  V30 4664 H 427.774 -0.759064 -5.21101 0
M  V30 4665 H 430.265 -0.940973 -3.65997 0
M  V30 4666 H 430.578 -2.52356 -7.30436 0
M  V30 4667 H 428.923 -2.26293 -6.57127 0
M  V30 4668 H 432.114 -1.24698 -4.51185 0
M  V30 4669 H 432.287 -1.96844 -6.17379 0
M  V30 4670 N 425.693 1.55336 -0.266172 0
M  V30 4671 C 426.941 1.99003 0.35246 0
M  V30 4672 C 427.262 1.15591 1.57047 0
M  V30 4673 O 426.532 0.243268 1.94384 0
M  V30 4674 H 425.112 0.735025 0.133217 0
M  V30 4675 H 427.774 1.91367 -0.369434 0
M  V30 4676 H 426.87 3.05289 0.648453 0
M  V30 4677 N 427.171 -0.0066808 1.57599 0
M  V30 4678 C 428.448 -0.729586 1.81484 0
M  V30 4679 C 428.828 -1.92359 0.869558 0
M  V30 4680 O 428.176 -2.28348 -0.0832533 0
M  V30 4681 C 428.386 -1.1416 3.29801 0
M  V30 4682 C 429.734 -1.54823 3.95367 0
M  V30 4683 O 430.758 -1.23558 3.34084 0
M  V30 4684 O 429.617 -2.12937 5.03309 0
M  V30 4685 H 426.711 -0.354674 0.747085 0
M  V30 4686 H 429.257 0.0182609 1.6969 0
M  V30 4687 H 428.029 -0.290231 3.90222 0
M  V30 4688 H 427.652 -1.94876 3.46568 0
M  V30 4689 N 428.649 -1.55105 -0.279332 0
M  V30 4690 C 429.579 -1.90557 -1.34945 0
M  V30 4691 C 430.56 -0.766738 -1.51839 0
M  V30 4692 O 431.745 -1.02434 -1.64988 0
M  V30 4693 C 428.875 -2.17193 -2.71006 0
M  V30 4694 C 427.829 -3.33021 -2.68851 0
M  V30 4695 C 427.155 -3.45123 -4.08405 0
M  V30 4696 C 428.455 -4.69578 -2.28678 0
M  V30 4697 H 430.149 -2.80188 -1.05522 0
M  V30 4698 H 427.695 -1.34811 -0.506173 0
M  V30 4699 H 429.648 -2.40581 -3.45975 0
M  V30 4700 H 428.372 -1.24355 -3.01999 0
M  V30 4701 H 427.031 -3.0959 -1.9634 0
M  V30 4702 H 426.679 -2.49762 -4.3661 0
M  V30 4703 H 426.379 -4.22995 -4.07859 0
M  V30 4704 H 427.903 -3.70796 -4.85121 0
M  V30 4705 H 429.317 -4.92553 -2.93368 0
M  V30 4706 H 427.714 -5.5032 -2.39306 0
M  V30 4707 H 428.784 -4.68828 -1.23807 0
M  V30 4708 N 430.127 0.543554 -1.4793 0
M  V30 4709 C 431.355 1.32516 -1.58894 0
M  V30 4710 C 431.77 1.87215 -0.244131 0
M  V30 4711 O 431.127 1.65709 0.764652 0
M  V30 4712 C 431.178 2.48554 -2.62494 0
M  V30 4713 O 430.899 1.96112 -3.91755 0
M  V30 4714 C 432.4 3.40572 -2.8377 0
M  V30 4715 H 429.62 0.403472 -0.536145 0
M  V30 4716 H 432.164 0.657106 -1.93655 0
M  V30 4717 H 430.319 3.1127 -2.30629 0
M  V30 4718 H 430.733 2.71967 -4.4848 0
M  V30 4719 H 432.207 4.18375 -3.60093 0
M  V30 4720 H 432.684 3.94965 -1.92092 0
M  V30 4721 H 433.29 2.8366 -3.16887 0
M  V30 4722 N 431.605 1.3629 0.791371 0
M  V30 4723 C 433.021 1.16661 1.08914 0
M  V30 4724 C 433.221 -0.0106266 2.01497 0
M  V30 4725 O 432.277 -0.676596 2.43266 0
M  V30 4726 C 433.59 2.47656 1.70549 0
M  V30 4727 C 435.138 2.54002 1.82899 0
M  V30 4728 C 435.613 3.85078 2.47949 0
M  V30 4729 N 437.104 3.86413 2.5542 0
M  V30 4730 C 437.839 4.84572 3.06557 0
M  V30 4731 N 437.335 5.93124 3.58016 0
M  V30 4732 N 439.128 4.71994 3.05251 0
M  V30 4733 H 431.279 2.11668 0.176238 0
M  V30 4734 H 433.542 0.937486 0.140796 0
M  V30 4735 H 433.248 3.34059 1.09989 0
M  V30 4736 H 433.122 2.63319 2.70079 0
M  V30 4737 H 435.509 1.68018 2.42598 0
M  V30 4738 H 435.59 2.42239 0.821808 0
M  V30 4739 H 435.234 4.71467 1.88895 0
M  V30 4740 H 435.164 3.94135 3.49235 0
M  V30 4741 H 437.655 3.07988 2.18979 0
M  V30 4742 H 437.968 6.63999 3.95381 0
M  V30 4743 H 436.313 5.96796 3.56173 0
M  V30 4744 H 439.504 3.86321 2.64336 0
M  V30 4745 H 439.677 5.48653 3.44796 0
M  V30 4746 N 433.083 -1.0153 1.20538 0
M  V30 4747 C 433.993 -2.13557 0.971113 0
M  V30 4748 C 435.009 -1.73845 -0.0734366 0
M  V30 4749 O 436.185 -2.01075 0.114299 0
M  V30 4750 C 433.25 -3.42661 0.527639 0
M  V30 4751 C 432.311 -3.96608 1.64319 0
M  V30 4752 C 431.544 -5.1955 1.22078 0
M  V30 4753 O 431.767 -5.70329 0.0900198 0
M  V30 4754 O 430.701 -5.66681 2.02871 0
M  V30 4755 H 434.527 -2.3619 1.90913 0
M  V30 4756 H 432.112 -1.11946 0.989362 0
M  V30 4757 H 433.994 -4.20404 0.289621 0
M  V30 4758 H 432.669 -3.21441 -0.381779 0
M  V30 4759 H 431.576 -3.20139 1.93551 0
M  V30 4760 H 432.909 -4.22219 2.52966 0
M  V30 4761 N 434.561 -1.01147 -1.20859 0
M  V30 4762 C 435.509 -0.57059 -2.25493 0
M  V30 4763 C 436.503 0.388109 -1.64894 0
M  V30 4764 O 437.709 0.258592 -1.78133 0
M  V30 4765 H 434.084 -0.166191 -0.733406 0
M  V30 4766 H 436.055 -1.46411 -2.60012 0
M  V30 4767 C 434.804 0.0805241 -3.47607 0
M  V30 4768 H 434.127 -0.648156 -3.94511 0
M  V30 4769 H 435.567 0.352197 -4.22535 0
M  V30 4770 C 434.026 1.32175 -3.09889 0
M  V30 4771 O 434.556 2.41553 -3.20959 0
M  V30 4772 N 432.762 1.20392 -2.64488 0
M  V30 4773 H 432.309 0.313905 -2.5568 0
M  V30 4774 H 432.267 2.03541 -2.39621 0
M  V30 4775 N 436.039 1.36541 -0.78704 0
M  V30 4776 C 437.285 1.99599 -0.358872 0
M  V30 4777 C 437.618 1.62323 1.06606 0
M  V30 4778 O 436.893 0.876858 1.73613 0
M  V30 4779 C 437.176 3.56327 -0.519944 0
M  V30 4780 C 437.029 4.03464 -1.98839 0
M  V30 4781 C 438.348 4.4005 0.0664737 0
M  V30 4782 H 435.467 0.725107 -0.131869 0
M  V30 4783 H 438.109 1.6199 -0.992936 0
M  V30 4784 H 436.259 3.88495 0.0198321 0
M  V30 4785 H 437.931 3.81793 -2.58905 0
M  V30 4786 H 436.174 3.55092 -2.49183 0
M  V30 4787 H 436.845 5.12439 -2.05207 0
M  V30 4788 H 439.321 4.14228 -0.394267 0
M  V30 4789 H 438.197 5.48847 -0.0762682 0
M  V30 4790 H 438.458 4.26655 1.15835 0
M  V30 4791 N 437.518 0.538854 1.48102 0
M  V30 4792 C 438.466 -0.232325 2.31437 0
M  V30 4793 C 439.46 -0.927004 1.41785 0
M  V30 4794 O 440.666 -0.850378 1.58646 0
M  V30 4795 H 437.041 -0.0937916 0.746128 0
M  V30 4796 H 439.012 0.489986 2.9435 0
M  V30 4797 C 437.761 -1.26074 3.24038 0
M  V30 4798 H 437.084 -0.735609 3.92974 0
M  V30 4799 H 438.524 -1.77157 3.85216 0
M  V30 4800 C 436.983 -2.29902 2.46265 0
M  V30 4801 O 437.513 -3.36502 2.19384 0
M  V30 4802 N 435.719 -2.03348 2.07601 0
M  V30 4803 H 435.266 -1.16675 2.29662 0
M  V30 4804 H 435.224 -2.73038 1.55877 0
M  V30 4805 N 438.996 -1.55193 0.274407 0
M  V30 4806 C 439.928 -2.1989 -0.646595 0
M  V30 4807 C 440.941 -1.1834 -1.11801 0
M  V30 4808 O 442.13 -1.4507 -1.04004 0
M  V30 4809 C 439.23 -2.8104 -1.89393 0
M  V30 4810 C 438.403 -4.08274 -1.56943 0
M  V30 4811 C 437.462 -4.53478 -2.66916 0
M  V30 4812 O 436.488 -5.19267 -2.33132 0
M  V30 4813 N 437.69 -4.2356 -3.9696 0
M  V30 4814 H 440.455 -2.99556 -0.0928686 0
M  V30 4815 H 438.016 -1.61618 0.0954783 0
M  V30 4816 H 440.008 -3.08226 -2.62257 0
M  V30 4817 H 438.578 -2.05372 -2.35672 0
M  V30 4818 H 437.798 -3.88384 -0.674655 0
M  V30 4819 H 439.086 -4.91173 -1.32764 0
M  V30 4820 H 438.484 -3.70799 -4.27229 0
M  V30 4821 H 437.041 -4.55518 -4.66205 0
M  V30 4822 N 440.474 -0.00167713 -1.576 0
M  V30 4823 C 441.714 0.687302 -1.92498 0
M  V30 4824 C 442.078 1.70844 -0.876144 0
M  V30 4825 O 443.279 2.44792 -1.11043 0
M  V30 4826 C 441.55 1.31217 -3.32441 0
M  V30 4827 S 443.109 2.02604 -3.89226 0
M  V30 4828 H 439.927 0.226985 -0.673794 0
M  V30 4829 H 442.529 -0.0587666 -1.95412 0
M  V30 4830 H 441.233 0.556164 -4.06614 0
M  V30 4831 H 440.764 2.09613 -3.32905 0
M  V30 4832 H 442.779 3.30137 -3.70438 0
M  V30 4833 N 441.952 1.55251 0.271103 0
M  V30 4834 C 443.201 1.75151 1.00025 0
M  V30 4835 C 443.514 0.561041 1.87381 0
M  V30 4836 O 444.72 0.642506 2.63788 0
M  V30 4837 C 443.176 3.09999 1.82835 0
M  V30 4838 C 442.784 4.3662 1.00336 0
M  V30 4839 C 444.528 3.39249 2.55168 0
M  V30 4840 C 442.435 5.62506 1.82595 0
M  V30 4841 H 441.365 0.652877 0.377183 0
M  V30 4842 H 444.016 1.81708 0.255843 0
M  V30 4843 H 442.398 2.97485 2.61378 0
M  V30 4844 H 443.572 4.60055 0.261959 0
M  V30 4845 H 441.887 4.14527 0.394486 0
M  V30 4846 H 444.484 4.3051 3.1712 0
M  V30 4847 H 444.827 2.59467 3.2555 0
M  V30 4848 H 445.36 3.52869 1.83653 0
M  V30 4849 H 442.099 6.45041 1.16631 0
M  V30 4850 H 441.619 5.43211 2.54327 0
M  V30 4851 H 443.298 6.00875 2.39913 0
M  V30 4852 N 443.43 -0.535701 1.48216 0
M  V30 4853 C 444.36 -1.65014 1.65204 0
M  V30 4854 C 445.341 -1.62554 0.501011 0
M  V30 4855 O 446.526 -1.7984 0.732886 0
M  V30 4856 C 443.656 -3.03616 1.68626 0
M  V30 4857 C 442.61 -3.20932 2.83172 0
M  V30 4858 C 441.936 -4.60537 2.71679 0
M  V30 4859 C 443.236 -3.04249 4.24535 0
M  V30 4860 H 444.93 -1.51053 2.58502 0
M  V30 4861 H 442.476 -0.725262 1.24402 0
M  V30 4862 H 444.429 -3.81446 1.79099 0
M  V30 4863 H 443.153 -3.18587 0.719026 0
M  V30 4864 H 441.812 -2.45517 2.72244 0
M  V30 4865 H 441.46 -4.72336 1.72937 0
M  V30 4866 H 441.16 -4.73069 3.48538 0
M  V30 4867 H 442.684 -5.40475 2.84112 0
M  V30 4868 H 444.098 -3.71877 4.36326 0
M  V30 4869 H 442.495 -3.28278 5.02348 0
M  V30 4870 H 443.565 -2.00739 4.41397 0
M  V30 4871 N 444.908 -1.36708 -0.784132 0
M  V30 4872 C 445.818 -1.3363 -1.92822 0
M  V30 4873 C 446.834 -0.237686 -1.72369 0
M  V30 4874 O 448.01 -0.470962 -1.95816 0
M  V30 4875 C 445.075 -1.13011 -3.27764 0
M  V30 4876 C 444.136 -2.32397 -3.60957 0
M  V30 4877 C 443.369 -2.12752 -4.89461 0
M  V30 4878 O 443.592 -1.10541 -5.59586 0
M  V30 4879 O 442.526 -3.00653 -5.21432 0
M  V30 4880 H 446.352 -2.29964 -1.98369 0
M  V30 4881 H 443.937 -1.1731 -0.925136 0
M  V30 4882 H 445.819 -1.03451 -4.08504 0
M  V30 4883 H 444.494 -0.19743 -3.23097 0
M  V30 4884 H 443.401 -2.47527 -2.80502 0
M  V30 4885 H 444.734 -3.2419 -3.70354 0
M  V30 4886 N 446.386 1.0089 -1.21074 0
M  V30 4887 C 447.319 2.09279 -0.909806 0
M  V30 4888 C 448.297 1.61986 0.141145 0
M  V30 4889 O 449.481 1.88495 0.0130332 0
M  V30 4890 C 446.608 3.36723 -0.365374 0
M  V30 4891 C 445.654 4.02919 -1.39852 0
M  V30 4892 S 446.487 4.45835 -2.96633 0
M  V30 4893 C 447.643 5.76471 -2.43786 0
M  V30 4894 H 447.876 2.34484 -1.82769 0
M  V30 4895 H 445.409 1.14115 -1.04006 0
M  V30 4896 H 447.367 4.10459 -0.0578203 0
M  V30 4897 H 446.028 3.09577 0.531136 0
M  V30 4898 H 445.221 4.94634 -0.967117 0
M  V30 4899 H 444.823 3.35441 -1.65395 0
M  V30 4900 H 447.115 6.52027 -1.84029 0
M  V30 4901 H 448.058 6.24418 -3.33928 0
M  V30 4902 H 448.466 5.33104 -1.85636 0
M  V30 4903 N 447.864 1.01787 1.20321 0
M  V30 4904 C 448.794 0.609625 2.25401 0
M  V30 4905 C 449.775 -0.375951 1.65893 0
M  V30 4906 O 450.96 -0.261101 1.92437 0
M  V30 4907 C 448.09 -0.0515995 3.47262 0
M  V30 4908 C 447.044 0.855095 4.19371 0
M  V30 4909 C 446.37 0.0595757 5.34667 0
M  V30 4910 C 447.67 2.16374 4.75373 0
M  V30 4911 H 449.364 1.48803 2.59804 0
M  V30 4912 H 446.91 0.716934 1.24884 0
M  V30 4913 H 448.863 -0.348764 4.19954 0
M  V30 4914 H 447.587 -0.964726 3.12027 0
M  V30 4915 H 446.246 1.13628 3.48546 0
M  V30 4916 H 445.894 -0.85524 4.95676 0
M  V30 4917 H 445.594 0.663406 5.83843 0
M  V30 4918 H 447.118 -0.231105 6.10162 0
M  V30 4919 H 448.532 1.92885 5.39878 0
M  V30 4920 H 446.929 2.71853 5.34991 0
M  V30 4921 H 447.999 2.82589 3.94045 0
M  V30 4922 N 449.342 -1.36122 0.79427 0
M  V30 4923 C 450.591 -1.98361 0.365464 0
M  V30 4924 C 450.904 -1.6374 -1.06997 0
M  V30 4925 O 452.11 -2.19251 -1.60129 0
M  V30 4926 C 450.566 -3.54821 0.602496 0
M  V30 4927 C 450.174 -3.98362 2.04967 0
M  V30 4928 C 451.918 -4.2383 0.238437 0
M  V30 4929 C 449.825 -5.47619 2.2331 0
M  V30 4930 H 448.755 -0.742193 0.13291 0
M  V30 4931 H 451.406 -1.55354 0.976589 0
M  V30 4932 H 449.788 -3.95922 -0.078409 0
M  V30 4933 H 450.962 -3.68447 2.76737 0
M  V30 4934 H 449.277 -3.42206 2.37243 0
M  V30 4935 H 451.874 -5.33529 0.353705 0
M  V30 4936 H 452.217 -4.08264 -0.814006 0
M  V30 4937 H 452.75 -3.88108 0.872769 0
M  V30 4938 H 449.489 -5.68138 3.26955 0
M  V30 4939 H 449.009 -5.79145 1.5605 0
M  V30 4940 H 450.688 -6.13911 2.0426 0
M  V30 4941 N 450.82 -0.546701 -1.47814 0
M  V30 4942 C 451.783 0.196287 -2.28358 0
M  V30 4943 C 452.783 0.852437 -1.36346 0
M  V30 4944 O 453.973 0.709913 -1.59078 0
M  V30 4945 C 451.105 1.28579 -3.15722 0
M  V30 4946 H 452.298 -0.511086 -2.95513 0
M  V30 4947 H 449.851 -0.303248 -1.5333 0
M  V30 4948 H 450.586 2.0259 -2.53235 0
M  V30 4949 H 450.371 0.820229 -3.83425 0
M  V30 4950 H 451.861 1.80793 -3.76435 0
M  V30 4951 N 452.299 1.55045 -0.282633 0
M  V30 4952 C 453.262 2.21515 0.588539 0
M  V30 4953 C 454.262 1.19535 1.07554 0
M  V30 4954 O 455.452 1.44391 0.974514 0
M  V30 4955 C 452.584 2.88704 1.8128 0
M  V30 4956 H 453.777 2.99899 0.00806397 0
M  V30 4957 H 451.33 1.56265 -0.0333067 0
M  V30 4958 H 452.065 2.14352 2.43359 0
M  V30 4959 H 451.85 3.63443 1.47144 0
M  V30 4960 H 453.34 3.39465 2.43214 0
M  V30 4961 N 453.777 0.010035 1.57597 0
M  V30 4962 C 455.188 -0.531426 1.78977 0
M  V30 4963 C 455.539 -1.73375 0.918454 0
M  V30 4964 O 454.664 -2.16047 0.123635 0
M  V30 4965 C 455.259 -0.97086 3.24592 0
M  V30 4966 C 453.818 -1.45756 3.47033 0
M  V30 4967 C 452.965 -0.413384 2.74201 0
M  V30 4968 H 455.916 0.236166 1.56933 0
M  V30 4969 H 455.937 -1.83633 3.33255 0
M  V30 4970 H 455.449 -0.0955893 3.87982 0
M  V30 4971 H 453.55 -2.35339 2.88871 0
M  V30 4972 H 453.663 -1.4781 4.55729 0
M  V30 4973 H 452.027 -0.877266 2.39115 0
M  V30 4974 H 452.81 0.453092 3.40297 0
M  V30 4975 N 455.255 -1.55392 -0.262866 0
M  V30 4976 C 456.532 -1.67204 -1.01499 0
M  V30 4977 C 456.912 -0.545186 -2.03939 0
M  V30 4978 O 456.26 0.453467 -2.23955 0
M  V30 4979 C 456.47 -3.06847 -1.6627 0
M  V30 4980 C 457.818 -3.64928 -2.17054 0
M  V30 4981 O 458.842 -3.09545 -1.76239 0
M  V30 4982 O 457.701 -4.61984 -2.91947 0
M  V30 4983 H 454.795 -0.679467 -0.471438 0
M  V30 4984 H 457.341 -1.67729 -0.257918 0
M  V30 4985 H 456.113 -3.80309 -0.920915 0
M  V30 4986 H 455.736 -3.10266 -2.48638 0
M  V30 4987 N 456.733 0.527833 -1.48498 0
M  V30 4988 C 457.961 1.30823 -1.6029 0
M  V30 4989 C 458.376 1.86945 -0.263974 0
M  V30 4990 O 457.733 1.6651 0.747034 0
M  V30 4991 C 457.784 2.45756 -2.65116 0
M  V30 4992 O 457.505 1.91946 -3.93813 0
M  V30 4993 C 459.006 3.37543 -2.87367 0
M  V30 4994 H 456.226 0.397763 -0.540394 0
M  V30 4995 H 458.77 0.636529 -1.94341 0
M  V30 4996 H 456.925 3.08806 -2.33917 0
M  V30 4997 H 457.339 2.67195 -4.51339 0
M  V30 4998 H 458.813 4.14532 -3.6451 0
M  V30 4999 H 459.29 3.92905 -1.9627 0
M  V30 5000 H 459.896 2.80283 -3.19878 0
M  V30 5001 N 458.211 1.37122 0.776871 0
M  V30 5002 C 459.144 1.26835 1.89705 0
M  V30 5003 C 460.122 0.14992 1.61907 0
M  V30 5004 O 461.306 0.323242 1.85708 0
M  V30 5005 C 458.433 0.95986 3.24814 0
M  V30 5006 C 457.479 2.09447 3.7153 0
M  V30 5007 S 458.312 3.71368 3.85806 0
M  V30 5008 C 459.468 3.42659 5.23771 0
M  V30 5009 H 459.701 2.21647 1.98141 0
M  V30 5010 H 457.234 1.22685 0.937433 0
M  V30 5011 H 459.192 0.788696 4.02852 0
M  V30 5012 H 457.853 0.0293137 3.14086 0
M  V30 5013 H 457.046 1.8335 4.69467 0
M  V30 5014 H 456.648 2.2255 3.00578 0
M  V30 5015 H 458.94 2.9733 6.0877 0
M  V30 5016 H 459.883 4.39905 5.54878 0
M  V30 5017 H 460.291 2.77708 4.91466 0
M  V30 5018 N 459.689 -1.00246 1.21608 0
M  V30 5019 C 460.914 -1.78167 1.06167 0
M  V30 5020 C 461.339 -1.84138 -0.384035 0
M  V30 5021 O 460.697 -1.28683 -1.27712 0
M  V30 5022 C 460.745 -3.19786 1.66642 0
M  V30 5023 O 459.849 -4.02153 0.913613 0
M  V30 5024 H 459.19 -0.549 0.37349 0
M  V30 5025 H 461.72 -1.25994 1.61204 0
M  V30 5026 H 461.73 -3.70451 1.70969 0
M  V30 5027 H 460.405 -3.14754 2.7185 0
M  V30 5028 H 458.982 -3.60711 0.945635 0
M  V30 5029 N 461.167 -1.02423 -1.1978 0
M  V30 5030 C 462.413 -0.719051 -1.89625 0
M  V30 5031 C 462.746 0.750083 -1.7913 0
M  V30 5032 O 462.021 1.54574 -1.18056 0
M  V30 5033 C 462.304 -1.16499 -3.40735 0
M  V30 5034 C 462.157 -2.695 -3.60125 0
M  V30 5035 C 463.476 -0.742166 -4.33797 0
M  V30 5036 H 460.595 -0.26269 -0.688595 0
M  V30 5037 H 463.237 -1.27333 -1.41018 0
M  V30 5038 H 461.387 -0.69341 -3.82262 0
M  V30 5039 H 463.059 -3.24569 -3.278 0
M  V30 5040 H 461.302 -3.10113 -3.03336 0
M  V30 5041 H 461.973 -2.95757 -4.66081 0
M  V30 5042 H 464.449 -1.1477 -3.99959 0
M  V30 5043 H 463.325 -1.08213 -5.38127 0
M  V30 5044 H 463.586 0.355747 -4.40666 0
M  V30 5045 N 462.645 1.35699 -0.801477 0
M  V30 5046 C 463.87 2.03687 -0.390678 0
M  V30 5047 C 464.295 1.60015 0.988778 0
M  V30 5048 O 463.653 0.774357 1.63931 0
M  V30 5049 C 463.701 3.57439 -0.476404 0
M  V30 5050 O 462.805 4.09208 0.512106 0
M  V30 5051 H 462.146 0.64344 -0.163956 0
M  V30 5052 H 464.676 1.73403 -1.08594 0
M  V30 5053 H 464.686 4.06544 -0.344357 0
M  V30 5054 H 463.361 3.88576 -1.48262 0
M  V30 5055 H 461.938 3.7134 0.340721 0
M  V30 5056 N 464.123 0.554532 1.47522 0
M  V30 5057 C 465.053 -0.182974 2.32782 0
M  V30 5058 C 466.034 -0.911377 1.43624 0
M  V30 5059 O 467.219 -0.892366 1.72483 0
M  V30 5060 C 464.349 -1.21513 3.25349 0
M  V30 5061 C 463.303 -0.603355 4.23726 0
M  V30 5062 C 462.629 -1.73995 5.05598 0
M  V30 5063 C 463.929 0.441121 5.20434 0
M  V30 5064 H 465.623 0.52882 2.94693 0
M  V30 5065 H 463.169 0.255759 1.41711 0
M  V30 5066 H 465.122 -1.73922 3.83835 0
M  V30 5067 H 463.846 -1.95683 2.61487 0
M  V30 5068 H 462.505 -0.10059 3.66462 0
M  V30 5069 H 462.153 -2.47063 4.38143 0
M  V30 5070 H 461.853 -1.3364 5.72201 0
M  V30 5071 H 463.377 -2.26735 5.66942 0
M  V30 5072 H 464.791 0.00319931 5.733 0
M  V30 5073 H 463.188 0.763402 5.95224 0
M  V30 5074 H 464.258 1.33799 4.66075 0
M  V30 5075 N 465.601 -1.54893 0.290851 0
M  V30 5076 C 466.848 -1.99933 -0.321391 0
M  V30 5077 C 467.176 -1.17927 -1.54672 0
M  V30 5078 O 466.431 -0.240902 -1.94212 0
M  V30 5079 C 466.73 -3.49815 -0.732397 0
M  V30 5080 C 466.396 -4.4921 0.390056 0
M  V30 5081 C 465.058 -4.76107 0.698223 0
M  V30 5082 C 467.41 -5.08453 1.14562 0
M  V30 5083 C 464.738 -5.59514 1.76526 0
M  V30 5084 C 467.09 -5.9302 2.2025 0
M  V30 5085 C 465.754 -6.18232 2.51684 0
M  V30 5086 H 465.024 -0.731608 -0.117605 0
M  V30 5087 H 467.671 -1.87107 0.407839 0
M  V30 5088 H 465.976 -3.60199 -1.54155 0
M  V30 5089 H 467.673 -3.82083 -1.21712 0
M  V30 5090 H 464.263 -4.28372 0.13976 0
M  V30 5091 H 468.447 -4.87683 0.920801 0
M  V30 5092 H 463.703 -5.77289 2.01364 0
M  V30 5093 H 467.877 -6.37955 2.7926 0
M  V30 5094 H 465.504 -6.82653 3.34499 0
M  V30 5095 N 467.08 -0.0183926 -1.57589 0
M  V30 5096 C 468.327 0.662562 -1.91354 0
M  V30 5097 C 468.655 1.72747 -0.893788 0
M  V30 5098 O 467.91 1.9545 0.0988509 0
M  V30 5099 C 468.209 1.32676 -3.31861 0
M  V30 5100 C 467.875 0.393267 -4.49182 0
M  V30 5101 C 466.537 0.136302 -4.81007 0
M  V30 5102 C 468.889 -0.248366 -5.20608 0
M  V30 5103 C 466.217 -0.770282 -5.81621 0
M  V30 5104 C 468.569 -1.14294 -6.22189 0
M  V30 5105 C 467.233 -1.4089 -6.52462 0
M  V30 5106 H 466.503 0.242448 -0.700214 0
M  V30 5107 H 469.15 -0.0778629 -1.91342 0
M  V30 5108 H 467.455 2.14168 -3.28084 0
M  V30 5109 H 469.152 1.86001 -3.55253 0
M  V30 5110 H 465.742 0.603723 -4.24327 0
M  V30 5111 H 469.926 -0.062883 -4.9626 0
M  V30 5112 H 465.182 -0.984154 -6.03427 0
M  V30 5113 H 469.356 -1.64637 -6.76659 0
M  V30 5114 H 466.983 -2.11306 -7.30242 0
M  V30 5115 N 468.558 1.5553 0.254621 0
M  V30 5116 C 469.491 1.84624 1.34124 0
M  V30 5117 C 470.469 0.700693 1.46728 0
M  V30 5118 O 471.653 0.94564 1.63064 0
M  V30 5119 C 468.78 2.02412 2.71564 0
M  V30 5120 C 467.826 3.25028 2.7615 0
M  V30 5121 S 468.659 4.81893 2.33538 0
M  V30 5122 C 469.815 5.02677 3.72917 0
M  V30 5123 H 470.048 2.76501 1.09245 0
M  V30 5124 H 467.581 1.47537 0.455211 0
M  V30 5125 H 469.539 2.13345 3.50705 0
M  V30 5126 H 468.2 1.11391 2.93685 0
M  V30 5127 H 467.393 3.34418 3.77069 0
M  V30 5128 H 466.995 3.12781 2.05046 0
M  V30 5129 H 469.287 4.89546 4.68349 0
M  V30 5130 H 470.23 6.0468 3.68467 0
M  V30 5131 H 470.638 4.30561 3.65072 0
M  V30 5132 N 470.036 -0.519951 1.48776 0
M  V30 5133 C 470.966 -1.63253 1.66945 0
M  V30 5134 C 471.947 -1.62014 0.518224 0
M  V30 5135 O 473.132 -1.79053 0.751919 0
M  V30 5136 C 470.262 -3.0181 1.71836 0
M  V30 5137 C 469.216 -3.17911 2.8656 0
M  V30 5138 C 468.542 -4.5763 2.76548 0
M  V30 5139 C 469.842 -2.99729 4.27738 0
M  V30 5140 H 471.536 -1.48302 2.6009 0
M  V30 5141 H 469.082 -0.712026 1.25165 0
M  V30 5142 H 471.035 -3.79525 1.83135 0
M  V30 5143 H 469.759 -3.17806 0.752775 0
M  V30 5144 H 468.418 -2.42616 2.74833 0
M  V30 5145 H 468.066 -4.70476 1.77937 0
M  V30 5146 H 467.766 -4.69346 3.53536 0
M  V30 5147 H 469.29 -5.37431 2.89828 0
M  V30 5148 H 470.704 -3.67228 4.40246 0
M  V30 5149 H 469.101 -3.22932 5.05801 0
M  V30 5150 H 470.171 -1.96047 4.43502 0
M  V30 5151 N 471.514 -1.37532 -0.769588 0
M  V30 5152 C 472.761 -1.3286 -1.52822 0
M  V30 5153 C 473.089 0.0862597 -1.94309 0
M  V30 5154 O 472.344 1.05995 -1.6451 0
M  V30 5155 C 472.643 -2.21558 -2.8044 0
M  V30 5156 C 472.309 -3.69796 -2.57996 0
M  V30 5157 C 470.971 -4.10194 -2.51583 0
M  V30 5158 C 473.323 -4.63699 -2.37976 0
M  V30 5159 C 470.651 -5.42608 -2.23144 0
M  V30 5160 C 473.003 -5.96353 -2.1106 0
M  V30 5161 C 471.667 -6.35853 -2.03093 0
M  V30 5162 H 470.937 -0.486168 -0.559215 0
M  V30 5163 H 473.584 -1.69757 -0.886277 0
M  V30 5164 H 471.889 -1.77663 -3.49204 0
M  V30 5165 H 473.586 -2.15256 -3.38328 0
M  V30 5166 H 470.176 -3.37759 -2.63851 0
M  V30 5167 H 474.36 -4.33346 -2.41919 0
M  V30 5168 H 469.616 -5.72173 -2.15472 0
M  V30 5169 H 473.79 -6.68667 -1.94568 0
M  V30 5170 H 471.417 -7.38382 -1.8082 0
M  V30 5171 N 472.992 0.995999 -1.22138 0
M  V30 5172 C 473.922 2.10387 -1.01289 0
M  V30 5173 C 474.903 1.69975 0.0651454 0
M  V30 5174 O 476.088 1.9396 -0.0964628 0
M  V30 5175 C 473.218 3.42312 -0.586517 0
M  V30 5176 C 472.172 3.96558 -1.61014 0
M  V30 5177 C 471.498 5.24494 -1.0397 0
M  V30 5178 C 472.798 4.27595 -2.99933 0
M  V30 5179 H 474.492 2.28086 -1.93951 0
M  V30 5180 H 472.038 1.09607 -0.933928 0
M  V30 5181 H 473.991 4.19223 -0.427793 0
M  V30 5182 H 472.715 3.24431 0.375761 0
M  V30 5183 H 471.374 3.21776 -1.75658 0
M  V30 5184 H 471.022 5.02953 -0.0688703 0
M  V30 5185 H 470.722 5.61755 -1.72352 0
M  V30 5186 H 472.246 6.04042 -0.892494 0
M  V30 5187 H 473.66 4.95315 -2.8868 0
M  V30 5188 H 472.057 4.76021 -3.6541 0
M  V30 5189 H 473.127 3.35498 -3.50099 0
M  V30 5190 N 474.47 1.03057 1.19235 0
M  V30 5191 C 475.719 0.72326 1.88287 0
M  V30 5192 C 476.032 -0.751333 1.80594 0
M  V30 5193 O 477.238 -1.17176 2.44912 0
M  V30 5194 C 475.694 1.24338 3.3774 0
M  V30 5195 C 475.302 2.74587 3.53986 0
M  V30 5196 C 477.046 1.01213 4.12257 0
M  V30 5197 C 474.953 3.20009 4.97341 0
M  V30 5198 H 473.883 0.266848 0.705201 0
M  V30 5199 H 476.534 1.24509 1.34795 0
M  V30 5200 H 474.916 0.649457 3.90638 0
M  V30 5201 H 476.09 3.39649 3.11408 0
M  V30 5202 H 474.405 2.9601 2.9286 0
M  V30 5203 H 477.002 1.32675 5.17978 0
M  V30 5204 H 477.345 -0.051001 4.16269 0
M  V30 5205 H 477.878 1.57014 3.65501 0
M  V30 5206 H 474.617 4.25659 4.98493 0
M  V30 5207 H 474.137 2.59676 5.40674 0
M  V30 5208 H 475.816 3.13447 5.66003 0
M  V30 5209 N 475.948 -1.35272 0.808662 0
M  V30 5210 C 476.911 -2.28082 0.226093 0
M  V30 5211 C 477.911 -1.49673 -0.587762 0
M  V30 5212 O 479.101 -1.69404 -0.405943 0
M  V30 5213 C 476.233 -3.33955 -0.684596 0
M  V30 5214 H 477.426 -2.81116 1.04469 0
M  V30 5215 H 474.979 -1.45162 0.579466 0
M  V30 5216 H 475.714 -2.86111 -1.5268 0
M  V30 5217 H 475.499 -3.91965 -0.102699 0
M  V30 5218 H 476.989 -4.03219 -1.08646 0
M  V30 5219 N 477.426 -0.562348 -1.47226 0
M  V30 5220 C 478.373 0.182461 -2.30078 0
M  V30 5221 C 479.343 0.903503 -1.39377 0
M  V30 5222 O 480.528 0.898188 -1.68337 0
M  V30 5223 C 477.668 1.20322 -3.23445 0
M  V30 5224 C 476.781 0.487717 -4.29238 0
M  V30 5225 C 475.916 1.49422 -5.09752 0
M  V30 5226 C 474.955 0.763976 -6.07314 0
M  V30 5227 N 474.092 1.71755 -6.80768 0
M  V30 5228 H 478.932 -0.530169 -2.93246 0
M  V30 5229 H 476.469 -0.273276 -1.44539 0
M  V30 5230 H 478.427 1.80768 -3.76004 0
M  V30 5231 H 477.057 1.88382 -2.6213 0
M  V30 5232 H 476.109 -0.231374 -3.79696 0
M  V30 5233 H 477.421 -0.0841003 -4.98729 0
M  V30 5234 H 476.575 2.17206 -5.66486 0
M  V30 5235 H 475.314 2.09995 -4.40174 0
M  V30 5236 H 474.319 0.0722344 -5.49753 0
M  V30 5237 H 475.544 0.16391 -6.78902 0
M  V30 5238 H 473.49 2.31177 -6.13916 0
M  V30 5239 H 473.407 1.19802 -7.46447 0
M  V30 5240 H 474.675 2.38638 -7.42073 0
M  V30 5241 N 478.904 1.54736 -0.299062 0
M  V30 5242 C 479.854 2.20155 0.592932 0
M  V30 5243 C 480.838 1.1739 1.10038 0
M  V30 5244 O 482.03 1.43116 1.04147 0
M  V30 5245 C 479.159 2.94437 1.76527 0
M  V30 5246 C 478.245 4.04516 1.27388 0
M  V30 5247 N 478.636 5.03319 0.500339 0
M  V30 5248 C 476.934 4.18022 1.55478 0
M  V30 5249 C 477.635 5.81209 0.238909 0
M  V30 5250 N 476.611 5.37408 0.818163 0
M  V30 5251 H 480.413 2.93899 -0.00563596 0
M  V30 5252 H 477.927 1.62068 -0.103732 0
M  V30 5253 H 479.924 3.3977 2.41582 0
M  V30 5254 H 478.584 2.22209 2.36756 0
M  V30 5255 H 479.595 5.17696 0.145419 0
M  V30 5256 H 476.272 3.56998 2.16469 0
M  V30 5257 H 477.662 6.70812 -0.382223 0
M  V30 5258 N 480.382 0.0267497 1.57577 0
M  V30 5259 C 481.793 -0.512413 1.79531 0
M  V30 5260 C 482.144 -1.72391 0.936791 0
M  V30 5261 O 481.269 -2.15903 0.146543 0
M  V30 5262 C 481.864 -0.936378 3.25603 0
M  V30 5263 C 480.423 -1.42067 3.4856 0
M  V30 5264 C 479.57 -0.384278 2.74624 0
M  V30 5265 H 482.521 0.252797 1.56674 0
M  V30 5266 H 482.542 -1.80088 3.35184 0
M  V30 5267 H 482.054 -0.0544332 3.88062 0
M  V30 5268 H 480.155 -2.32262 2.9135 0
M  V30 5269 H 480.268 -1.42968 4.57271 0
M  V30 5270 H 478.632 -0.851855 2.40032 0
M  V30 5271 H 479.415 0.489159 3.39797 0
M  V30 5272 N 481.861 -1.55662 -0.24637 0
M  V30 5273 C 482.809 -1.91186 -1.3248 0
M  V30 5274 C 483.803 -0.790996 -1.49799 0
M  V30 5275 O 485.009 -0.975617 -1.51267 0
M  V30 5276 H 481.384 -0.607207 -0.443626 0
M  V30 5277 H 483.355 -2.81221 -0.997853 0
M  V30 5278 C 482.104 -2.22349 -2.67313 0
M  V30 5279 H 481.427 -3.08097 -2.54786 0
M  V30 5280 H 482.867 -2.51107 -3.41645 0
M  V30 5281 C 481.326 -1.04001 -3.20446 0
M  V30 5282 O 481.856 -0.28828 -4.00664 0
M  V30 5283 N 480.062 -0.830494 -2.7848 0
M  V30 5284 H 479.609 -1.4435 -2.13356 0
M  V30 5285 H 479.567 -0.0403258 -3.14374 0
M  V30 5286 N 483.339 0.512053 -1.4905 0
M  V30 5287 C 484.585 1.26874 -1.58212 0
M  V30 5288 C 484.918 1.9241 -0.263073 0
M  V30 5289 O 484.193 1.80181 0.732476 0
M  V30 5290 C 484.476 2.34428 -2.73341 0
M  V30 5291 C 484.329 1.73466 -4.15006 0
M  V30 5292 C 485.648 3.36073 -2.84154 0
M  V30 5293 H 482.767 0.459924 -0.575881 0
M  V30 5294 H 485.409 0.568587 -1.81293 0
M  V30 5295 H 483.559 2.94146 -2.53792 0
M  V30 5296 H 485.231 1.17661 -4.46042 0
M  V30 5297 H 483.474 1.03921 -4.21168 0
M  V30 5298 H 484.145 2.51426 -4.91415 0
M  V30 5299 H 486.621 2.86332 -3.01916 0
M  V30 5300 H 485.497 4.08703 -3.66406 0
M  V30 5301 H 485.758 3.97725 -1.93048 0
M  V30 5302 N 484.817 1.37938 0.762283 0
M  V30 5303 C 485.727 1.36681 1.90671 0
M  V30 5304 C 486.743 0.265078 1.71969 0
M  V30 5305 O 487.919 0.502055 1.95042 0
M  V30 5306 C 484.984 1.18211 3.25925 0
M  V30 5307 C 484.045 2.3811 3.57214 0
M  V30 5308 C 483.278 2.20512 4.86014 0
M  V30 5309 O 483.501 1.19429 5.57757 0
M  V30 5310 O 482.435 3.08911 5.16583 0
M  V30 5311 H 486.261 2.33091 1.94685 0
M  V30 5312 H 483.846 1.18767 0.906356 0
M  V30 5313 H 485.728 1.09937 4.06807 0
M  V30 5314 H 484.403 0.248807 3.22742 0
M  V30 5315 H 483.31 2.51958 2.76529 0
M  V30 5316 H 484.643 3.30041 3.65149 0
M  V30 5317 N 486.295 -0.989507 1.22664 0
M  V30 5318 C 487.205 -2.11449 1.01619 0
M  V30 5319 C 488.221 -1.73962 -0.036545 0
M  V30 5320 O 489.397 -2.00788 0.156924 0
M  V30 5321 C 486.462 -3.41465 0.600204 0
M  V30 5322 C 485.523 -3.93033 1.72695 0
M  V30 5323 C 484.756 -5.16844 1.33071 0
M  V30 5324 O 484.979 -5.7001 0.210975 0
M  V30 5325 O 483.913 -5.6225 2.14845 0
M  V30 5326 H 487.739 -2.32088 1.9588 0
M  V30 5327 H 485.324 -1.09823 1.01289 0
M  V30 5328 H 487.206 -4.19695 0.37873 0
M  V30 5329 H 485.881 -3.22178 -0.313511 0
M  V30 5330 H 484.788 -3.15961 2.00298 0
M  V30 5331 H 486.121 -4.16758 2.61865 0
M  V30 5332 N 487.773 -1.03688 -1.18687 0
M  V30 5333 C 488.736 -0.629115 -2.20397 0
M  V30 5334 C 489.736 0.311495 -1.57754 0
M  V30 5335 O 490.926 0.0974107 -1.73927 0
M  V30 5336 C 488.058 0.0782231 -3.4081 0
M  V30 5337 H 489.251 -1.52915 -2.57987 0
M  V30 5338 H 486.804 -0.828988 -1.32505 0
M  V30 5339 H 487.539 0.992233 -3.08748 0
M  V30 5340 H 487.324 -0.597776 -3.87517 0
M  V30 5341 H 488.814 0.350156 -4.16129 0
M  V30 5342 N 489.251 1.34841 -0.815825 0
M  V30 5343 C 490.5 1.97755 -0.396976 0
M  V30 5344 C 490.813 1.65422 1.04379 0
M  V30 5345 O 492.019 2.21771 1.5662 0
M  V30 5346 C 490.475 3.53818 -0.658869 0
M  V30 5347 C 490.083 3.95051 -2.11278 0
M  V30 5348 C 491.827 4.23397 -0.305834 0
M  V30 5349 C 489.734 5.43997 -2.31994 0
M  V30 5350 H 488.664 0.739985 -0.1447 0
M  V30 5351 H 491.315 1.53781 -1.00118 0
M  V30 5352 H 489.697 3.95997 0.0154112 0
M  V30 5353 H 490.871 3.63998 -2.82564 0
M  V30 5354 H 489.186 3.38388 -2.42657 0
M  V30 5355 H 491.783 5.32899 -0.43854 0
M  V30 5356 H 492.126 4.09508 0.748952 0
M  V30 5357 H 492.659 3.8667 -0.934403 0
M  V30 5358 H 489.398 5.62865 -3.35952 0
M  V30 5359 H 488.918 5.76589 -1.65244 0
M  V30 5360 H 490.597 6.10584 -2.14001 0
M  V30 5361 N 490.729 0.570148 1.46925 0
M  V30 5362 C 491.978 0.0487352 2.01641 0
M  V30 5363 C 492.291 -1.31433 1.44861 0
M  V30 5364 O 493.497 -1.92638 1.91318 0
M  V30 5365 C 491.953 0.0365817 3.59881 0
M  V30 5366 C 491.561 1.39719 4.25655 0
M  V30 5367 C 493.305 -0.431545 4.22301 0
M  V30 5368 C 491.212 1.34345 5.75939 0
M  V30 5369 H 490.142 0.0144492 0.753862 0
M  V30 5370 H 492.793 0.719928 1.68788 0
M  V30 5371 H 491.175 -0.700522 3.89755 0
M  V30 5372 H 492.349 2.15303 4.07408 0
M  V30 5373 H 490.664 1.80431 3.75278 0
M  V30 5374 H 493.261 -0.490354 5.32447 0
M  V30 5375 H 493.604 -1.44638 3.90366 0
M  V30 5376 H 494.137 0.251102 3.97007 0
M  V30 5377 H 490.876 2.33469 6.12513 0
M  V30 5378 H 490.396 0.629615 5.96486 0
M  V30 5379 H 492.075 1.051 6.38407 0
M  V30 5380 N 492.207 -1.54576 0.307264 0
M  V30 5381 C 493.154 -2.23751 -0.56604 0
M  V30 5382 C 494.124 -1.22235 -1.12462 0
M  V30 5383 O 495.309 -1.50873 -1.16799 0
M  V30 5384 C 492.449 -2.98661 -1.72903 0
M  V30 5385 C 491.562 -4.14963 -1.20124 0
M  V30 5386 C 490.697 -4.77441 -2.3286 0
M  V30 5387 C 489.736 -5.85875 -1.77247 0
M  V30 5388 N 488.873 -6.42282 -2.8358 0
M  V30 5389 H 493.713 -2.97984 0.0304578 0
M  V30 5390 H 491.25 -1.47076 0.0268015 0
M  V30 5391 H 493.208 -3.40329 -2.41313 0
M  V30 5392 H 491.838 -2.26793 -2.29706 0
M  V30 5393 H 490.89 -3.78193 -0.409198 0
M  V30 5394 H 492.202 -4.93066 -0.754171 0
M  V30 5395 H 491.356 -5.21993 -3.09205 0
M  V30 5396 H 490.095 -3.98684 -2.80896 0
M  V30 5397 H 489.1 -5.40741 -0.993926 0
M  V30 5398 H 490.325 -6.6652 -1.30107 0
M  V30 5399 H 488.271 -5.66406 -3.30939 0
M  V30 5400 H 488.188 -7.1575 -2.43388 0
M  V30 5401 H 489.456 -6.91492 -3.59804 0
M  V30 5402 N 493.685 -0.035106 -1.57561 0
M  V30 5403 C 494.595 0.960295 -2.14046 0
M  V30 5404 C 495.611 1.3529 -1.0942 0
M  V30 5405 O 496.787 1.43309 -1.41508 0
M  V30 5406 C 493.852 2.22214 -2.66124 0
M  V30 5407 C 492.913 1.8894 -3.85487 0
M  V30 5408 C 492.146 3.09109 -4.35072 0
M  V30 5409 O 492.369 4.21963 -3.83802 0
M  V30 5410 O 491.303 2.91058 -5.26848 0
M  V30 5411 H 495.129 0.509983 -2.99387 0
M  V30 5412 H 492.714 0.185853 -1.48239 0
M  V30 5413 H 494.596 2.96279 -2.99661 0
M  V30 5414 H 493.271 2.66414 -1.83862 0
M  V30 5415 H 492.178 1.12241 -3.56865 0
M  V30 5416 H 493.511 1.49551 -4.6893 0
M  V30 5417 N 495.163 1.55791 0.238111 0
M  V30 5418 C 496.412 1.77234 0.962868 0
M  V30 5419 C 496.725 0.600661 1.86149 0
M  V30 5420 O 497.931 0.698315 2.62366 0
M  V30 5421 C 496.387 3.13808 1.76218 0
M  V30 5422 C 495.995 4.3865 0.910518 0
M  V30 5423 C 497.739 3.44585 2.47914 0
M  V30 5424 C 495.646 5.66252 1.70623 0
M  V30 5425 H 494.576 0.660731 0.36325 0
M  V30 5426 H 497.227 1.8221 0.217242 0
M  V30 5427 H 495.609 3.02963 2.55009 0
M  V30 5428 H 496.783 4.60507 0.164316 0
M  V30 5429 H 495.098 4.15271 0.30647 0
M  V30 5430 H 497.695 4.3714 3.07917 0
M  V30 5431 H 498.038 2.66314 3.19973 0
M  V30 5432 H 498.571 3.56685 1.76127 0
M  V30 5433 H 495.31 6.47369 1.02923 0
M  V30 5434 H 494.83 5.48483 2.42748 0
M  V30 5435 H 496.509 6.05829 2.27114 0
M  V30 5436 N 496.642 -0.504142 1.49319 0
M  V30 5437 C 497.574 -1.62265 1.61872 0
M  V30 5438 C 498.587 -1.54881 0.501573 0
M  V30 5439 O 499.776 -1.6087 0.773497 0
M  V30 5440 C 496.876 -3.01042 1.55651 0
M  V30 5441 C 496.049 -3.33642 2.82845 0
M  V30 5442 C 495.108 -4.51816 2.69719 0
M  V30 5443 O 494.134 -4.53755 3.4365 0
M  V30 5444 N 495.336 -5.51543 1.81055 0
M  V30 5445 H 498.101 -1.51924 2.58339 0
M  V30 5446 H 495.662 -0.691954 1.46368 0
M  V30 5447 H 497.654 -3.78013 1.44528 0
M  V30 5448 H 496.224 -3.05323 0.670546 0
M  V30 5449 H 495.444 -2.45598 3.08343 0
M  V30 5450 H 496.732 -3.5222 3.67177 0
M  V30 5451 H 496.13 -5.52774 1.20241 0
M  V30 5452 H 494.687 -6.27629 1.75856 0
M  V30 5453 N 498.12 -1.38341 -0.754957 0
M  V30 5454 C 499.348 -1.37704 -1.54419 0
M  V30 5455 C 499.763 0.0335243 -1.8877 0
M  V30 5456 O 499.12 0.999773 -1.52679 0
M  V30 5457 C 499.171 -2.23136 -2.84416 0
M  V30 5458 O 498.892 -3.58697 -2.51531 0
M  V30 5459 C 500.393 -2.30664 -3.78562 0
M  V30 5460 H 497.613 -0.471061 -0.477852 0
M  V30 5461 H 500.157 -1.81902 -0.934446 0
M  V30 5462 H 498.312 -1.82403 -3.41772 0
M  V30 5463 H 498.726 -4.03665 -3.34896 0
M  V30 5464 H 500.2 -2.9473 -4.66732 0
M  V30 5465 H 500.677 -1.3199 -4.18898 0
M  V30 5466 H 501.283 -2.71781 -3.27131 0
M  V30 5467 N 499.598 0.982988 -1.23187 0
M  V30 5468 C 500.844 1.72648 -1.06398 0
M  V30 5469 C 501.177 1.90066 0.398561 0
M  V30 5470 O 500.452 1.45105 1.29518 0
M  V30 5471 C 500.735 3.12627 -1.78707 0
M  V30 5472 C 500.588 3.02795 -3.32618 0
M  V30 5473 C 501.907 4.11997 -1.54747 0
M  V30 5474 H 499.026 0.626649 -0.387918 0
M  V30 5475 H 501.668 1.14455 -1.51658 0
M  V30 5476 H 499.818 3.62308 -1.40234 0
M  V30 5477 H 501.49 2.60659 -3.80598 0
M  V30 5478 H 499.733 2.39362 -3.61785 0
M  V30 5479 H 500.404 4.01893 -3.78399 0
M  V30 5480 H 502.88 3.71114 -1.88186 0
M  V30 5481 H 501.756 5.08037 -2.07821 0
M  V30 5482 H 502.017 4.39462 -0.482249 0
M  V30 5483 N 501.076 1.04316 1.18135 0
M  V30 5484 C 502.325 0.74319 1.87509 0
M  V30 5485 C 502.638 -0.732136 1.81381 0
M  V30 5486 O 503.844 -1.14572 2.46141 0
M  V30 5487 C 502.3 1.27913 3.36402 0
M  V30 5488 C 501.908 2.78326 3.51053 0
M  V30 5489 C 503.652 1.0558 4.11161 0
M  V30 5490 C 501.559 3.25266 4.93919 0
M  V30 5491 H 500.489 0.274313 0.702331 0
M  V30 5492 H 503.14 1.25931 1.33467 0
M  V30 5493 H 501.522 0.690853 3.89927 0
M  V30 5494 H 502.696 3.42933 3.07788 0
M  V30 5495 H 501.011 2.991 2.89704 0
M  V30 5496 H 503.608 1.38161 5.16542 0
M  V30 5497 H 503.951 -0.00684729 4.16299 0
M  V30 5498 H 504.484 1.60882 3.63816 0
M  V30 5499 H 501.223 4.30922 4.9395 0
M  V30 5500 H 500.743 2.65396 5.3789 0
M  V30 5501 H 502.422 3.19433 5.62647 0
M  V30 5502 N 502.554 -1.34406 0.822964 0
M  V30 5503 C 503.802 -1.97892 0.410245 0
M  V30 5504 C 504.123 -1.65567 -1.03017 0
M  V30 5505 O 503.393 -0.94642 -1.71522 0
M  V30 5506 H 501.973 -0.732049 0.148707 0
M  V30 5507 H 504.635 -1.64043 1.05242 0
M  V30 5508 H 503.731 -3.07579 0.529284 0
M  V30 5509 N 504.032 -0.577932 -1.46621 0
M  V30 5510 C 504.942 0.160651 -2.34049 0
M  V30 5511 C 505.958 0.890911 -1.49462 0
M  V30 5512 O 507.134 0.855166 -1.82343 0
M  V30 5513 C 504.199 1.16447 -3.26559 0
M  V30 5514 C 503.26 0.4394 -4.27045 0
M  V30 5515 C 502.493 1.3954 -5.15135 0
M  V30 5516 O 502.716 2.63162 -5.06065 0
M  V30 5517 O 501.65 0.908585 -5.95003 0
M  V30 5518 H 505.476 -0.557057 -2.98547 0
M  V30 5519 H 503.061 -0.338369 -1.45518 0
M  V30 5520 H 504.943 1.7434 -3.83645 0
M  V30 5521 H 503.618 1.86373 -2.64663 0
M  V30 5522 H 502.525 -0.181247 -3.73661 0
M  V30 5523 H 503.858 -0.218799 -4.91713 0
M  V30 5524 N 505.51 1.54411 -0.315457 0
M  V30 5525 C 506.926 1.59556 0.037464 0
M  V30 5526 C 507.126 1.33217 1.5118 0
M  V30 5527 O 506.182 1.11264 2.26664 0
M  V30 5528 C 507.495 2.98372 -0.373477 0
M  V30 5529 C 509.043 3.11324 -0.323452 0
M  V30 5530 C 509.518 4.52472 -0.709433 0
M  V30 5531 N 511.009 4.58437 -0.662524 0
M  V30 5532 C 511.744 5.65751 -0.933474 0
M  V30 5533 N 511.24 6.81039 -1.27114 0
M  V30 5534 N 513.033 5.55489 -0.859573 0
M  V30 5535 H 505.184 1.6979 -1.27614 0
M  V30 5536 H 507.447 0.793732 -0.518356 0
M  V30 5537 H 507.153 3.22618 -1.40037 0
M  V30 5538 H 507.027 3.76264 0.265615 0
M  V30 5539 H 509.414 2.86818 0.694223 0
M  V30 5540 H 509.495 2.35555 -0.997367 0
M  V30 5541 H 509.139 4.7771 -1.72498 0
M  V30 5542 H 509.069 5.26598 -0.0132923 0
M  V30 5543 H 511.56 3.75636 -0.413065 0
M  V30 5544 H 511.873 7.58816 -1.46348 0
M  V30 5545 H 510.218 6.82555 -1.30932 0
M  V30 5546 H 513.409 4.64299 -0.595324 0
M  V30 5547 H 513.582 6.39036 -1.0741 0
M  V30 5548 N 506.988 0.0434614 1.5754 0
M  V30 5549 C 508.265 -0.671479 1.83713 0
M  V30 5550 C 508.645 -1.89495 0.930315 0
M  V30 5551 O 507.993 -2.28498 -0.0105639 0
M  V30 5552 C 508.203 -1.0361 3.33266 0
M  V30 5553 C 509.551 -1.42167 4.00092 0
M  V30 5554 O 510.575 -1.12866 3.37846 0
M  V30 5555 O 509.434 -1.96817 5.09829 0
M  V30 5556 H 506.528 -0.330726 0.75799 0
M  V30 5557 H 509.074 0.0722373 1.69546 0
M  V30 5558 H 507.846 -0.165938 3.90948 0
M  V30 5559 H 507.469 -1.83751 3.52592 0
M  V30 5560 N 508.466 -1.55915 -0.229846 0
M  V30 5561 C 509.715 -1.77742 -0.953455 0
M  V30 5562 C 510.028 -0.610524 -1.85828 0
M  V30 5563 O 511.234 -0.712219 -2.61992 0
M  V30 5564 C 509.69 -3.14738 -1.74551 0
M  V30 5565 C 509.298 -4.39126 -0.887242 0
M  V30 5566 C 511.042 -3.45895 -2.46084 0
M  V30 5567 C 508.949 -5.67149 -1.67617 0
M  V30 5568 H 507.879 -0.662648 -0.359741 0
M  V30 5569 H 510.53 -1.82322 -0.207576 0
M  V30 5570 H 508.912 -3.04311 -2.53399 0
M  V30 5571 H 510.086 -4.60588 -0.139892 0
M  V30 5572 H 508.401 -4.15427 -0.284443 0
M  V30 5573 H 510.998 -4.38767 -3.05594 0
M  V30 5574 H 511.341 -2.68007 -3.18556 0
M  V30 5575 H 511.874 -3.57614 -1.74233 0
M  V30 5576 H 508.613 -6.47906 -0.994881 0
M  V30 5577 H 508.133 -5.49763 -2.39836 0
M  V30 5578 H 509.812 -6.07025 -2.23898 0
M  V30 5579 N 509.944 0.496216 -1.49584 0
M  V30 5580 C 510.891 1.59722 -1.66606 0
M  V30 5581 C 511.861 1.58158 -0.507477 0
M  V30 5582 O 513.046 1.76072 -0.735076 0
M  V30 5583 C 510.186 2.97844 -1.74308 0
M  V30 5584 C 509.299 3.09388 -3.01502 0
M  V30 5585 C 508.434 4.38271 -3.00153 0
M  V30 5586 C 507.473 4.43466 -4.21906 0
M  V30 5587 N 506.61 5.63784 -4.1844 0
M  V30 5588 H 511.45 1.44515 -2.60613 0
M  V30 5589 H 508.987 0.703048 -1.29212 0
M  V30 5590 H 510.945 3.77907 -1.76754 0
M  V30 5591 H 509.575 3.11743 -0.837619 0
M  V30 5592 H 508.627 2.22357 -3.08645 0
M  V30 5593 H 509.939 3.09085 -3.91494 0
M  V30 5594 H 509.093 5.2666 -3.01188 0
M  V30 5595 H 507.832 4.41146 -2.07947 0
M  V30 5596 H 506.837 3.53478 -4.21109 0
M  V30 5597 H 508.062 4.42303 -5.1531 0
M  V30 5598 H 506.008 5.67491 -3.29074 0
M  V30 5599 H 505.925 5.65118 -5.02173 0
M  V30 5600 H 507.193 6.54367 -4.23585 0
M  V30 5601 N 511.423 1.38739 0.74761 0
M  V30 5602 C 512.672 1.3459 1.50228 0
M  V30 5603 C 512.985 -0.0595592 1.95509 0
M  V30 5604 O 514.191 -0.22361 2.70578 0
M  V30 5605 C 512.647 2.36377 2.71393 0
M  V30 5606 C 512.255 3.82573 2.33113 0
M  V30 5607 C 513.999 2.41281 3.49262 0
M  V30 5608 C 511.906 4.76032 3.50924 0
M  V30 5609 H 510.836 0.500312 0.564096 0
M  V30 5610 H 513.487 1.64324 0.8167 0
M  V30 5611 H 511.869 1.99694 3.41962 0
M  V30 5612 H 513.043 4.28227 1.70171 0
M  V30 5613 H 511.358 3.80844 1.68365 0
M  V30 5614 H 513.955 3.08301 4.36869 0
M  V30 5615 H 514.298 1.43353 3.9084 0
M  V30 5616 H 514.831 2.76793 2.85711 0
M  V30 5617 H 511.57 5.75177 3.14408 0
M  V30 5618 H 511.09 4.35066 4.12889 0
M  V30 5619 H 512.769 4.94331 4.17427 0
M  V30 5620 N 512.901 -0.976442 1.23707 0
M  V30 5621 C 514.178 -1.69296 0.979699 0
M  V30 5622 C 514.558 -2.0508 -0.500555 0
M  V30 5623 O 513.906 -1.74708 -1.47273 0
M  V30 5624 C 514.116 -2.93143 1.89389 0
M  V30 5625 C 515.464 -3.65572 2.15968 0
M  V30 5626 O 516.488 -3.03184 1.86971 0
M  V30 5627 O 515.347 -4.77859 2.65167 0
M  V30 5628 H 512.441 -0.739708 0.369812 0
M  V30 5629 H 514.987 -1.03131 1.34767 0
M  V30 5630 H 513.759 -2.63327 2.89439 0
M  V30 5631 H 513.382 -3.67044 1.52854 0
M  V30 5632 N 514.379 -1.04941 -1.1758 0
M  V30 5633 C 515.656 -0.671918 -1.83697 0
M  V30 5634 C 516.036 0.847929 -1.93322 0
M  V30 5635 O 515.384 1.75287 -1.46583 0
M  V30 5636 C 515.594 -1.35797 -3.21497 0
M  V30 5637 C 516.942 -1.4944 -3.97433 0
M  V30 5638 O 517.966 -1.31678 -3.30967 0
M  V30 5639 O 516.825 -1.78463 -5.1654 0
M  V30 5640 H 513.919 -0.236212 -0.792548 0
M  V30 5641 H 516.465 -1.14884 -1.24899 0
M  V30 5642 H 515.237 -2.39498 -3.09446 0
M  V30 5643 H 514.86 -0.870236 -3.8796 0
M  V30 5644 N 515.857 1.33968 -0.830081 0
M  V30 5645 C 517.106 1.97323 -0.417928 0
M  V30 5646 C 517.419 1.6652 1.02618 0
M  V30 5647 O 518.625 2.2342 1.54259 0
M  V30 5648 C 517.081 3.53099 -0.696359 0
M  V30 5649 C 516.689 3.92788 -2.15457 0
M  V30 5650 C 518.433 4.23049 -0.350724 0
M  V30 5651 C 516.34 5.41506 -2.37751 0
M  V30 5652 H 515.27 0.738409 -0.152541 0
M  V30 5653 H 517.921 1.52711 -1.01744 0
M  V30 5654 H 516.303 3.95991 -0.0265904 0
M  V30 5655 H 517.477 3.6098 -2.86408 0
M  V30 5656 H 515.792 3.35795 -2.46232 0
M  V30 5657 H 518.389 5.32403 -0.495036 0
M  V30 5658 H 518.732 4.10279 0.705476 0
M  V30 5659 H 519.265 3.85657 -0.975362 0
M  V30 5660 H 516.004 5.5927 -3.41903 0
M  V30 5661 H 515.524 5.74804 -1.7135 0
M  V30 5662 H 517.203 6.0828 -2.20465 0
M  V30 5663 N 517.335 0.585699 1.46312 0
M  V30 5664 C 518.267 -0.183687 2.28463 0
M  V30 5665 C 519.28 -0.85264 1.38686 0
M  V30 5666 O 520.469 -0.721701 1.6326 0
M  V30 5667 C 517.569 -1.27977 3.13808 0
M  V30 5668 C 516.742 -0.702164 4.31727 0
M  V30 5669 C 515.801 -1.68633 4.98447 0
M  V30 5670 O 514.827 -1.22121 5.55945 0
M  V30 5671 N 516.029 -3.02047 4.95729 0
M  V30 5672 H 518.794 0.521127 2.95134 0
M  V30 5673 H 516.355 0.423673 1.56258 0
M  V30 5674 H 518.347 -1.9375 3.55307 0
M  V30 5675 H 516.917 -1.8874 2.4919 0
M  V30 5676 H 516.137 0.1331 3.93975 0
M  V30 5677 H 517.425 -0.296101 5.07938 0
M  V30 5678 H 516.823 -3.42457 4.50266 0
M  V30 5679 H 515.38 -3.63301 5.41161 0
M  V30 5680 N 518.813 -1.54241 0.323641 0
M  V30 5681 C 519.76 -2.24339 -0.542277 0
M  V30 5682 C 520.73 -1.23421 -1.11159 0
M  V30 5683 O 521.915 -1.52104 -1.15192 0
M  V30 5684 C 519.055 -3.00479 -1.69725 0
M  V30 5685 C 518.168 -4.16214 -1.15716 0
M  V30 5686 C 517.303 -4.79884 -2.27783 0
M  V30 5687 C 516.342 -5.87722 -1.71023 0
M  V30 5688 N 515.479 -6.45254 -2.76752 0
M  V30 5689 H 520.319 -2.97935 0.0620613 0
M  V30 5690 H 517.856 -1.47039 0.0423993 0
M  V30 5691 H 519.814 -3.42869 -2.3769 0
M  V30 5692 H 518.444 -2.29217 -2.27288 0
M  V30 5693 H 517.496 -3.78605 -0.369063 0
M  V30 5694 H 518.808 -4.93838 -0.701832 0
M  V30 5695 H 517.962 -5.25243 -3.03651 0
M  V30 5696 H 516.701 -4.01641 -2.76652 0
M  V30 5697 H 515.706 -5.41765 -0.936518 0
M  V30 5698 H 516.931 -6.67863 -1.2303 0
M  V30 5699 H 514.877 -5.69884 -3.24912 0
M  V30 5700 H 514.794 -7.18292 -2.35782 0
M  V30 5701 H 516.062 -6.95269 -3.5245 0
M  V30 5702 N 520.291 -0.0518155 -1.57515 0
M  V30 5703 C 521.221 0.920283 -2.146 0
M  V30 5704 C 522.202 1.32406 -1.06783 0
M  V30 5705 O 523.387 1.39866 -1.34726 0
M  V30 5706 C 520.517 2.1949 -2.6915 0
M  V30 5707 C 519.471 1.93116 -3.81956 0
M  V30 5708 C 518.797 3.27037 -4.23026 0
M  V30 5709 C 520.097 1.25225 -5.07066 0
M  V30 5710 H 521.791 0.444801 -2.96077 0
M  V30 5711 H 519.337 0.212508 -1.42423 0
M  V30 5712 H 521.29 2.87894 -3.07725 0
M  V30 5713 H 520.014 2.69244 -1.84865 0
M  V30 5714 H 518.673 1.27123 -3.43854 0
M  V30 5715 H 518.321 3.74595 -3.3569 0
M  V30 5716 H 518.021 3.10189 -4.99056 0
M  V30 5717 H 519.545 3.96673 -4.64202 0
M  V30 5718 H 520.959 1.83666 -5.43083 0
M  V30 5719 H 519.356 1.18702 -5.88243 0
M  V30 5720 H 520.426 0.228382 -4.84362 0
M  V30 5721 N 521.769 1.56035 0.221574 0
M  V30 5722 C 522.716 1.92413 1.27459 0
M  V30 5723 C 523.686 0.781323 1.46576 0
M  V30 5724 O 524.871 1.03721 1.60145 0
M  V30 5725 C 522.011 2.24617 2.61995 0
M  V30 5726 C 521.124 3.51831 2.50677 0
M  V30 5727 C 520.259 3.73482 3.77736 0
M  V30 5728 C 519.298 4.94211 3.6114 0
M  V30 5729 N 518.435 5.12252 4.80148 0
M  V30 5730 H 523.275 2.82203 0.957355 0
M  V30 5731 H 520.812 1.39676 0.461415 0
M  V30 5732 H 522.77 2.41298 3.40339 0
M  V30 5733 H 521.4 1.38 2.91815 0
M  V30 5734 H 520.452 3.43343 1.63767 0
M  V30 5735 H 521.764 4.40328 2.34334 0
M  V30 5736 H 520.918 3.9026 4.64523 0
M  V30 5737 H 519.657 2.83266 3.97003 0
M  V30 5738 H 518.662 4.77384 2.72736 0
M  V30 5739 H 519.887 5.85912 3.43343 0
M  V30 5740 H 517.833 4.24978 4.99729 0
M  V30 5741 H 517.75 5.94881 4.66532 0
M  V30 5742 H 519.018 5.33465 5.68362 0
M  V30 5743 N 523.247 -0.488276 1.49845 0
M  V30 5744 C 524.493 -1.24341 1.6021 0
M  V30 5745 C 524.826 -1.91967 0.293651 0
M  V30 5746 O 524.101 -1.81323 -0.703718 0
M  V30 5747 C 524.384 -2.3005 2.77036 0
M  V30 5748 C 524.237 -1.66842 4.17713 0
M  V30 5749 C 525.556 -3.31509 2.89464 0
M  V30 5750 H 522.675 -0.450704 0.583125 0
M  V30 5751 H 525.317 -0.539673 1.82174 0
M  V30 5752 H 523.467 -2.90071 2.58439 0
M  V30 5753 H 525.139 -1.1055 4.47858 0
M  V30 5754 H 523.382 -0.972079 4.22768 0
M  V30 5755 H 524.053 -2.43576 4.95353 0
M  V30 5756 H 526.529 -2.81493 3.06433 0
M  V30 5757 H 525.405 -4.02822 3.72861 0
M  V30 5758 H 525.666 -3.94603 1.99351 0
M  V30 5759 N 524.725 -1.39134 -0.740242 0
M  V30 5760 C 525.658 -1.3182 -1.86276 0
M  V30 5761 C 526.636 -0.192794 -1.61453 0
M  V30 5762 O 527.82 -0.372365 -1.84786 0
M  V30 5763 C 524.947 -1.04564 -3.22155 0
M  V30 5764 C 523.993 -2.19224 -3.65846 0
M  V30 5765 S 524.826 -3.81466 -3.75824 0
M  V30 5766 C 525.982 -3.56425 -5.14502 0
M  V30 5767 H 526.215 -2.26822 -1.92195 0
M  V30 5768 H 523.748 -1.25127 -0.904576 0
M  V30 5769 H 525.706 -0.895228 -4.00619 0
M  V30 5770 H 524.367 -0.112578 -3.13898 0
M  V30 5771 H 523.56 -1.95732 -4.6444 0
M  V30 5772 H 523.162 -2.30441 -2.94572 0
M  V30 5773 H 525.454 -3.13366 -6.00673 0
M  V30 5774 H 526.397 -4.54462 -5.43019 0
M  V30 5775 H 526.805 -2.90641 -4.8393 0
M  V30 5776 N 526.204 0.969867 -1.24223 0
M  V30 5777 C 527.114 2.09806 -1.0497 0
M  V30 5778 C 528.13 1.73998 0.00886455 0
M  V30 5779 O 529.306 2.00513 -0.188848 0
M  V30 5780 C 526.371 3.40467 -0.654452 0
M  V30 5781 C 525.432 3.90236 -1.78926 0
M  V30 5782 C 524.665 5.14662 -1.41277 0
M  V30 5783 O 524.888 5.69602 -0.301632 0
M  V30 5784 O 523.822 5.58761 -2.23763 0
M  V30 5785 H 527.648 2.28942 -1.99548 0
M  V30 5786 H 525.233 1.08197 -1.03023 0
M  V30 5787 H 527.115 4.19039 -0.445452 0
M  V30 5788 H 525.79 3.22636 0.262216 0
M  V30 5789 H 524.697 3.12735 -2.05299 0
M  V30 5790 H 526.03 4.1254 -2.68462 0
M  V30 5791 N 527.682 1.05563 1.17022 0
M  V30 5792 C 528.63 0.653887 2.2322 0
M  V30 5793 C 529.624 -0.326642 1.66221 0
M  V30 5794 O 530.83 -0.192301 1.7897 0
M  V30 5795 H 527.205 0.193297 0.726733 0
M  V30 5796 H 529.176 1.5596 2.54399 0
M  V30 5797 C 527.925 0.0485434 3.47666 0
M  V30 5798 H 527.248 0.79413 3.91834 0
M  V30 5799 H 528.688 -0.195133 4.23551 0
M  V30 5800 C 527.147 -1.20583 3.14581 0
M  V30 5801 O 527.677 -2.29475 3.29703 0
M  V30 5802 N 525.883 -1.10493 2.68774 0
M  V30 5803 H 525.43 -0.218795 2.56669 0
M  V30 5804 H 525.388 -1.94507 2.47011 0
M  V30 5805 N 529.16 -1.33526 0.837174 0
M  V30 5806 C 530.407 -1.97837 0.432064 0
M  V30 5807 C 530.735 -1.66324 -1.00829 0
M  V30 5808 O 529.99 -0.93448 -1.71948 0
M  V30 5809 C 530.289 -3.52367 0.597675 0
M  V30 5810 C 529.955 -4.03826 2.00587 0
M  V30 5811 C 528.617 -4.1759 2.39106 0
M  V30 5812 C 530.969 -4.31333 2.92576 0
M  V30 5813 C 528.297 -4.56195 3.68921 0
M  V30 5814 C 530.649 -4.7139 4.2187 0
M  V30 5815 C 529.313 -4.8336 4.60347 0
M  V30 5816 H 528.583 -0.723937 0.158104 0
M  V30 5817 H 531.23 -1.5923 1.06387 0
M  V30 5818 H 529.535 -3.91624 -0.117452 0
M  V30 5819 H 531.232 -4.00126 0.26454 0
M  V30 5820 H 527.822 -3.93586 1.69671 0
M  V30 5821 H 532.006 -4.20224 2.64056 0
M  V30 5822 H 527.262 -4.63655 3.9854 0
M  V30 5823 H 531.436 -4.91631 4.93226 0
M  V30 5824 H 529.063 -5.1303 5.60985 0
M  V30 5825 N 530.638 -0.59345 -1.46 0
M  V30 5826 C 531.887 -0.0808084 -2.01538 0
M  V30 5827 C 532.2 1.29112 -1.46934 0
M  V30 5828 O 533.406 1.8957 -1.94359 0
M  V30 5829 C 531.862 -0.0938311 -3.59778 0
M  V30 5830 C 531.47 -1.46474 -4.23379 0
M  V30 5831 C 533.214 0.364306 -4.22934 0
M  V30 5832 C 531.121 -1.4349 -5.73729 0
M  V30 5833 H 530.051 -0.0264407 -0.753536 0
M  V30 5834 H 532.702 -0.746689 -1.67621 0
M  V30 5835 H 531.084 0.638427 -3.9082 0
M  V30 5836 H 532.258 -2.21758 -4.03931 0
M  V30 5837 H 530.573 -1.86379 -3.7236 0
M  V30 5838 H 533.17 0.405584 -5.3316 0
M  V30 5839 H 533.513 1.38409 -3.92618 0
M  V30 5840 H 534.046 -0.31423 -3.96557 0
M  V30 5841 H 530.785 -2.43184 -6.08722 0
M  V30 5842 H 530.305 -0.724431 -5.95409 0
M  V30 5843 H 531.984 -1.15243 -6.36654 0
M  V30 5844 N 532.116 1.54067 -0.331816 0
M  V30 5845 C 533.346 2.04833 0.269605 0
M  V30 5846 C 533.754 1.20714 1.45687 0
M  V30 5847 O 533.097 0.232539 1.82222 0
M  V30 5848 C 533.159 3.51386 0.759499 0
M  V30 5849 C 532.823 4.55971 -0.306557 0
M  V30 5850 C 533.82 5.07126 -1.14538 0
M  V30 5851 C 531.505 5.00216 -0.457116 0
M  V30 5852 C 533.499 6.01096 -2.12042 0
M  V30 5853 C 531.186 5.93999 -1.43556 0
M  V30 5854 C 532.184 6.44326 -2.26568 0
M  V30 5855 O 531.872 7.36267 -3.22749 0
M  V30 5856 H 531.604 0.673509 0.0579763 0
M  V30 5857 H 534.158 1.99748 -0.478521 0
M  V30 5858 H 532.388 3.53896 1.55867 0
M  V30 5859 H 534.077 3.85184 1.28017 0
M  V30 5860 H 534.843 4.73716 -1.04009 0
M  V30 5861 H 530.722 4.60652 0.179142 0
M  V30 5862 H 534.266 6.40302 -2.76873 0
M  V30 5863 H 530.163 6.26825 -1.54146 0
M  V30 5864 H 530.931 7.54165 -3.18083 0
M  V30 5865 N 533.594 0.0601682 1.57485 0
M  V30 5866 C 534.504 -0.926121 2.15546 0
M  V30 5867 C 535.52 -1.33532 1.11558 0
M  V30 5868 O 536.696 -1.4104 1.4377 0
M  V30 5869 C 533.761 -2.17952 2.69625 0
M  V30 5870 C 532.822 -1.82783 3.88444 0
M  V30 5871 C 532.055 -3.02148 4.39935 0
M  V30 5872 O 532.278 -4.15803 3.90466 0
M  V30 5873 O 531.212 -2.82639 5.31412 0
M  V30 5874 H 535.038 -0.462289 3.00161 0
M  V30 5875 H 532.623 -0.162246 1.48516 0
M  V30 5876 H 534.505 -2.91474 3.04337 0
M  V30 5877 H 533.18 -2.63456 1.88077 0
M  V30 5878 H 532.087 -1.06549 3.58606 0
M  V30 5879 H 533.42 -1.42072 4.7125 0
M  V30 5880 N 535.072 -1.5615 -0.213296 0
M  V30 5881 C 536.297 -1.83986 -0.957282 0
M  V30 5882 C 536.722 -0.641526 -1.76822 0
M  V30 5883 O 536.08 0.409722 -1.7661 0
M  V30 5884 C 536.128 -3.09889 -1.84393 0
M  V30 5885 O 535.232 -2.89163 -2.94038 0
M  V30 5886 H 534.573 -0.606357 -0.270605 0
M  V30 5887 H 537.103 -2.03369 -0.224111 0
M  V30 5888 H 537.113 -3.40209 -2.25215 0
M  V30 5889 H 535.788 -3.96735 -1.24795 0
M  V30 5890 H 534.365 -2.70097 -2.57103 0
M  V30 5891 N 536.55 0.480323 -1.50102 0
M  V30 5892 C 537.483 1.59789 -1.62919 0
M  V30 5893 C 538.461 1.55429 -0.477557 0
M  V30 5894 O 539.645 1.75186 -0.695851 0
M  V30 5895 C 536.772 2.98351 -1.60325 0
M  V30 5896 C 535.818 3.20899 -2.80938 0
M  V30 5897 S 536.651 3.01791 -4.4236 0
M  V30 5898 C 537.807 4.42712 -4.42444 0
M  V30 5899 H 538.04 1.48676 -2.57454 0
M  V30 5900 H 535.573 0.666996 -1.3925 0
M  V30 5901 H 537.531 3.7824 -1.59514 0
M  V30 5902 H 536.192 3.06862 -0.670419 0
M  V30 5903 H 535.385 4.22102 -2.75401 0
M  V30 5904 H 534.987 2.48768 -2.79268 0
M  V30 5905 H 537.279 5.3518 -4.15438 0
M  V30 5906 H 538.222 4.53294 -5.43995 0
M  V30 5907 H 538.63 4.24359 -3.72263 0
M  V30 5908 N 538.028 1.39524 0.732853 0
M  V30 5909 C 539.444 1.21176 1.03868 0
M  V30 5910 C 539.644 0.0748448 2.01361 0
M  V30 5911 O 538.7 -0.57281 2.45917 0
M  V30 5912 C 540.013 2.54667 1.59892 0
M  V30 5913 C 541.561 2.6153 1.71962 0
M  V30 5914 C 542.036 3.95248 2.31394 0
M  V30 5915 N 543.527 3.96899 2.38801 0
M  V30 5916 C 544.262 4.97138 2.85729 0
M  V30 5917 N 543.758 6.07775 3.32537 0
M  V30 5918 N 545.551 4.84516 2.84957 0
M  V30 5919 H 537.702 2.12225 0.086304 0
M  V30 5920 H 539.965 0.942614 0.100907 0
M  V30 5921 H 539.671 3.38423 0.95721 0
M  V30 5922 H 539.545 2.74538 2.58668 0
M  V30 5923 H 541.932 1.78156 2.35254 0
M  V30 5924 H 542.013 2.45507 0.718327 0
M  V30 5925 H 541.657 4.79054 1.68729 0
M  V30 5926 H 541.587 4.08593 3.32204 0
M  V30 5927 H 544.078 3.16998 2.05719 0
M  V30 5928 H 544.391 6.8017 3.66862 0
M  V30 5929 H 542.736 6.11366 3.30541 0
M  V30 5930 H 545.927 3.97185 2.47713 0
M  V30 5931 H 546.1 5.62783 3.21215 0
M  V30 5932 N 539.506 -0.963266 1.24736 0
M  V30 5933 C 540.736 -1.73913 1.11524 0
M  V30 5934 C 541.144 -1.86218 -0.334612 0
M  V30 5935 O 540.487 -1.3531 -1.24245 0
M  V30 5936 C 540.549 -3.17501 1.68622 0
M  V30 5937 C 540.213 -3.28655 3.17546 0
M  V30 5938 C 541.21 -3.13637 4.14642 0
M  V30 5939 C 538.895 -3.52753 3.5759 0
M  V30 5940 C 540.889 -3.2255 5.49764 0
M  V30 5941 C 538.576 -3.61303 4.92852 0
M  V30 5942 C 539.574 -3.46214 5.88748 0
M  V30 5943 O 539.262 -3.5443 7.2155 0
M  V30 5944 H 538.994 -0.552057 0.390139 0
M  V30 5945 H 541.548 -1.2177 1.65412 0
M  V30 5946 H 539.778 -3.70969 1.09172 0
M  V30 5947 H 541.467 -3.76914 1.50635 0
M  V30 5948 H 542.233 -2.94899 3.85045 0
M  V30 5949 H 538.112 -3.63561 2.83451 0
M  V30 5950 H 541.656 -3.1069 6.24594 0
M  V30 5951 H 537.553 -3.79556 5.22118 0
M  V30 5952 H 538.321 -3.71116 7.29531 0
M  V30 5953 N 540.985 -1.06182 -1.16461 0
M  V30 5954 C 541.917 -0.629584 -2.20383 0
M  V30 5955 C 542.93 0.311834 -1.59786 0
M  V30 5956 O 544.119 0.103 -1.78203 0
M  V30 5957 C 541.219 0.0973695 -3.3876 0
M  V30 5958 C 540.392 -0.857252 -4.28917 0
M  V30 5959 C 539.451 -0.169749 -5.25926 0
M  V30 5960 O 538.477 -0.807044 -5.6345 0
M  V30 5961 N 539.679 1.08911 -5.70192 0
M  V30 5962 H 542.444 -1.52352 -2.58087 0
M  V30 5963 H 540.005 -0.944993 -1.31459 0
M  V30 5964 H 541.997 0.567676 -4.00699 0
M  V30 5965 H 540.567 0.893093 -2.99571 0
M  V30 5966 H 539.787 -1.50696 -3.64259 0
M  V30 5967 H 541.075 -1.50489 -4.86035 0
M  V30 5968 H 540.473 1.62703 -5.41797 0
M  V30 5969 H 539.03 1.50331 -6.34227 0
M  V30 5970 N 542.463 1.3308 -0.844243 0
M  V30 5971 C 543.874 1.7992 -0.498566 0
M  V30 5972 C 544.225 1.69808 0.982834 0
M  V30 5973 O 543.35 1.25051 1.7661 0
M  V30 5974 C 543.945 3.26677 -0.898204 0
M  V30 5975 C 542.504 3.71513 -0.604583 0
M  V30 5976 C 541.651 2.54393 -1.10362 0
M  V30 5977 H 544.602 1.20526 -1.03244 0
M  V30 5978 H 544.623 3.79918 -0.21039 0
M  V30 5979 H 544.135 3.34004 -1.97643 0
M  V30 5980 H 542.236 3.69708 0.46335 0
M  V30 5981 H 542.349 4.64755 -1.16358 0
M  V30 5982 H 540.713 2.49246 -0.524273 0
M  V30 5983 H 541.496 2.6448 -2.18873 0
M  V30 5984 N 543.941 0.601185 1.45683 0
M  V30 5985 C 545.187 0.0940202 2.02582 0
M  V30 5986 C 545.52 -1.26972 1.46941 0
M  V30 5987 O 544.795 -1.83613 0.641612 0
M  V30 5988 C 545.078 0.0481715 3.60068 0
M  V30 5989 C 544.931 1.44212 4.26055 0
M  V30 5990 C 546.25 -0.642975 4.35378 0
M  V30 5991 H 543.369 0.0356404 0.736138 0
M  V30 5992 H 546.011 0.771929 1.73612 0
M  V30 5993 H 544.161 -0.529128 3.8488 0
M  V30 5994 H 545.833 2.06601 4.12449 0
M  V30 5995 H 544.076 2.00465 3.84703 0
M  V30 5996 H 544.747 1.36234 5.34925 0
M  V30 5997 H 547.223 -0.152351 4.15821 0
M  V30 5998 H 546.099 -0.644141 5.45107 0
M  V30 5999 H 546.36 -1.70785 4.0778 0
M  V30 6000 N 545.419 -1.53889 0.339982 0
M  V30 6001 C 546.665 -2.01152 -0.258003 0
M  V30 6002 C 546.998 -1.22749 -1.50487 0
M  V30 6003 O 546.273 -0.314156 -1.91946 0
M  V30 6004 C 546.556 -3.55468 -0.575717 0
M  V30 6005 C 546.409 -4.44584 0.682996 0
M  V30 6006 C 547.728 -4.1768 -1.38677 0
M  V30 6007 H 544.847 -0.731198 -0.0922992 0
M  V30 6008 H 547.489 -1.84352 0.459814 0
M  V30 6009 H 545.639 -3.69914 -1.18725 0
M  V30 6010 H 547.311 -4.41981 1.32102 0
M  V30 6011 H 545.554 -4.13592 1.3086 0
M  V30 6012 H 546.225 -5.5043 0.416001 0
M  V30 6013 H 548.701 -4.0691 -0.869705 0
M  V30 6014 H 547.577 -5.25734 -1.57783 0
M  V30 6015 H 547.838 -3.72069 -2.38782 0
M  V30 6016 N 546.897 -0.0685191 -1.57451 0
M  V30 6017 C 548.174 0.642167 -1.84758 0
M  V30 6018 C 548.554 1.87991 -0.960344 0
M  V30 6019 O 547.902 2.28485 -0.0257894 0
M  V30 6020 C 548.112 0.982946 -3.34872 0
M  V30 6021 C 549.46 1.35784 -4.02303 0
M  V30 6022 O 550.484 1.07477 -3.39598 0
M  V30 6023 O 549.343 1.88681 -5.12895 0
M  V30 6024 H 546.437 0.318625 -0.763156 0
M  V30 6025 H 548.983 -0.0992015 -1.6941 0
M  V30 6026 H 547.755 0.10372 -3.91163 0
M  V30 6027 H 547.378 1.78119 -3.55471 0
M  V30 6028 N 548.375 1.56261 0.205012 0
M  V30 6029 C 549.305 1.96779 1.257 0
M  V30 6030 C 550.286 0.838309 1.48008 0
M  V30 6031 O 551.471 1.10189 1.59913 0
M  V30 6032 C 548.601 2.29876 2.60335 0
M  V30 6033 C 547.555 3.45469 2.52656 0
M  V30 6034 C 546.881 3.64215 3.91473 0
M  V30 6035 C 548.181 4.79954 2.06014 0
M  V30 6036 H 549.875 2.84904 0.920338 0
M  V30 6037 H 547.421 1.37072 0.441277 0
M  V30 6038 H 549.374 2.56814 3.34102 0
M  V30 6039 H 548.098 1.38622 2.95722 0
M  V30 6040 H 546.757 3.18605 1.81345 0
M  V30 6041 H 546.405 2.70309 4.24196 0
M  V30 6042 H 546.105 4.41973 3.87213 0
M  V30 6043 H 547.629 3.93519 4.66878 0
M  V30 6044 H 549.043 5.05989 2.69533 0
M  V30 6045 H 547.44 5.61111 2.12777 0
M  V30 6046 H 548.51 4.74201 1.01297 0
M  V30 6047 N 549.853 -0.472356 1.50355 0
M  V30 6048 C 551.099 -1.22634 1.6152 0
M  V30 6049 C 551.432 -1.91645 0.313995 0
M  V30 6050 O 550.707 -1.82059 -0.684446 0
M  V30 6051 C 550.99 -2.27099 2.7946 0
M  V30 6052 C 550.843 -1.62402 4.19459 0
M  V30 6053 C 552.162 -3.28421 2.92964 0
M  V30 6054 H 549.281 -0.444494 0.587873 0
M  V30 6055 H 551.923 -0.520321 1.82737 0
M  V30 6056 H 550.073 -2.87314 2.61501 0
M  V30 6057 H 551.745 -1.05793 4.49005 0
M  V30 6058 H 549.988 -0.927184 4.23776 0
M  V30 6059 H 550.659 -2.38309 4.97909 0
M  V30 6060 H 553.135 -2.78227 3.09401 0
M  V30 6061 H 552.011 -3.98845 3.77113 0
M  V30 6062 H 552.272 -3.92467 2.03525 0
M  V30 6063 N 551.331 -1.39911 -0.725443 0
M  V30 6064 C 552.264 -1.33788 -1.84867 0
M  V30 6065 C 553.242 -0.209907 -1.61239 0
M  V30 6066 O 554.426 -0.391943 -1.8438 0
M  V30 6067 C 551.553 -1.07975 -3.21028 0
M  V30 6068 C 550.599 -2.23092 -3.635 0
M  V30 6069 S 551.432 -3.85431 -3.71757 0
M  V30 6070 C 552.588 -3.61862 -5.10692 0
M  V30 6071 H 552.821 -2.28848 -1.89779 0
M  V30 6072 H 550.354 -1.26079 -0.891254 0
M  V30 6073 H 552.312 -0.937669 -3.99647 0
M  V30 6074 H 550.973 -0.145865 -3.13761 0
M  V30 6075 H 550.166 -2.00647 -4.62338 0
M  V30 6076 H 549.768 -2.33553 -2.92112 0
M  V30 6077 H 552.06 -3.19719 -5.97316 0
M  V30 6078 H 553.003 -4.60196 -5.38169 0
M  V30 6079 H 553.411 -2.95757 -4.8082 0
M  V30 6080 N 552.809 0.956637 -1.25245 0
M  V30 6081 C 554.225 1.22733 -1.02023 0
M  V30 6082 C 554.425 1.99761 0.264186 0
M  V30 6083 O 553.481 2.32814 0.977436 0
M  V30 6084 C 554.794 2.00367 -2.24217 0
M  V30 6085 C 556.342 2.13418 -2.28958 0
M  V30 6086 C 556.817 2.9445 -3.50803 0
M  V30 6087 N 558.308 3.02029 -3.51187 0
M  V30 6088 C 559.043 3.65116 -4.42129 0
M  V30 6089 N 558.539 4.2983 -5.43339 0
M  V30 6090 N 560.332 3.62237 -4.29815 0
M  V30 6091 H 552.483 0.441282 -2.07765 0
M  V30 6092 H 554.746 0.257686 -0.912306 0
M  V30 6093 H 554.452 1.51165 -3.17556 0
M  V30 6094 H 554.326 3.01077 -2.27228 0
M  V30 6095 H 556.713 2.61819 -1.36143 0
M  V30 6096 H 556.794 1.1202 -2.29968 0
M  V30 6097 H 556.438 2.46741 -4.43939 0
M  V30 6098 H 556.368 3.9607 -3.47039 0
M  V30 6099 H 558.859 2.56007 -2.77973 0
M  V30 6100 H 559.172 4.75819 -6.08947 0
M  V30 6101 H 557.517 4.28465 -5.47214 0
M  V30 6102 H 560.708 3.10863 -3.49974 0
M  V30 6103 H 560.881 4.11117 -5.00886 0
M  V30 6104 N 554.287 1.06798 1.15896 0
M  V30 6105 C 555.234 0.683314 2.20453 0
M  V30 6106 C 556.204 -0.32255 1.62938 0
M  V30 6107 O 557.389 -0.210276 1.89638 0
M  V30 6108 C 554.529 0.0813266 3.45004 0
M  V30 6109 C 553.642 1.13799 4.16742 0
M  V30 6110 C 552.777 0.501598 5.28826 0
M  V30 6111 C 551.816 1.54144 5.92373 0
M  V30 6112 N 550.953 0.928038 6.9594 0
M  V30 6113 H 555.793 1.57932 2.52708 0
M  V30 6114 H 553.33 0.789544 1.24115 0
M  V30 6115 H 555.288 -0.285274 4.16224 0
M  V30 6116 H 553.918 -0.77806 3.13283 0
M  V30 6117 H 552.97 1.62223 3.44075 0
M  V30 6118 H 554.282 1.92664 4.60089 0
M  V30 6119 H 553.436 0.0823162 6.06644 0
M  V30 6120 H 552.175 -0.318883 4.86656 0
M  V30 6121 H 551.18 1.97056 5.13273 0
M  V30 6122 H 552.405 2.3641 6.36621 0
M  V30 6123 H 550.351 0.12836 6.55874 0
M  V30 6124 H 550.268 1.65401 7.37685 0
M  V30 6125 H 551.536 0.534071 7.77668 0
M  V30 6126 N 555.766 -1.3263 0.851289 0
M  V30 6127 C 556.729 -2.27247 0.298541 0
M  V30 6128 C 557.729 -1.51467 -0.539847 0
M  V30 6129 O 558.919 -1.7061 -0.351843 0
M  V30 6130 C 556.051 -3.35964 -0.578004 0
M  V30 6131 H 557.244 -2.7765 1.13359 0
M  V30 6132 H 554.797 -1.43245 0.625354 0
M  V30 6133 H 555.532 -2.90823 -1.435 0
M  V30 6134 H 555.317 -3.92094 0.0220539 0
M  V30 6135 H 556.807 -4.06472 -0.957626 0
M  V30 6136 N 557.244 -0.608902 -1.45362 0
M  V30 6137 C 558.174 0.0964526 -2.33301 0
M  V30 6138 C 559.155 0.857444 -1.46908 0
M  V30 6139 O 560.34 0.827735 -1.75676 0
M  V30 6140 C 557.47 1.09354 -3.29635 0
M  V30 6141 C 556.424 0.445676 -4.25673 0
M  V30 6142 C 555.75 1.5511 -5.11708 0
M  V30 6143 C 557.05 -0.633972 -5.18438 0
M  V30 6144 H 558.744 -0.637829 -2.92527 0
M  V30 6145 H 556.29 -0.308178 -1.40664 0
M  V30 6146 H 558.243 1.59556 -3.90025 0
M  V30 6147 H 556.967 1.85843 -2.6857 0
M  V30 6148 H 555.626 -0.0354897 -3.66583 0
M  V30 6149 H 555.274 2.30631 -4.4701 0
M  V30 6150 H 554.974 1.12311 -5.76767 0
M  V30 6151 H 556.498 2.05537 -5.74967 0
M  V30 6152 H 557.912 -0.215974 -5.72893 0
M  V30 6153 H 556.309 -0.983789 -5.91981 0
M  V30 6154 H 557.379 -1.51005 -4.60788 0
M  V30 6155 N 558.722 1.53707 -0.348139 0
M  V30 6156 C 559.632 2.28881 0.514857 0
M  V30 6157 C 560.648 1.34168 1.10793 0
M  V30 6158 O 561.824 1.6721 1.12262 0
M  V30 6159 C 558.889 3.05042 1.64774 0
M  V30 6160 C 557.95 4.15389 1.08398 0
M  V30 6161 C 557.183 4.87909 2.16287 0
M  V30 6162 O 557.406 4.60137 3.3709 0
M  V30 6163 O 556.34 5.74254 1.80323 0
M  V30 6164 H 560.166 3.03547 -0.0963699 0
M  V30 6165 H 557.751 1.48972 -0.113043 0
M  V30 6166 H 559.633 3.52656 2.30677 0
M  V30 6167 H 558.308 2.33228 2.24469 0
M  V30 6168 H 557.215 3.72068 0.389341 0
M  V30 6169 H 558.548 4.89318 0.531829 0
M  V30 6170 N 560.2 0.0768682 1.57412 0
M  V30 6171 C 561.477 -0.632359 1.85096 0
M  V30 6172 C 561.857 -1.87479 0.9703 0
M  V30 6173 O 561.205 -2.28469 0.0379062 0
M  V30 6174 C 561.415 -0.965174 3.35388 0
M  V30 6175 C 562.763 -1.33648 4.03018 0
M  V30 6176 O 563.787 -1.05675 3.40164 0
M  V30 6177 O 562.646 -1.85959 5.13889 0
M  V30 6178 H 559.74 -0.314574 0.764835 0
M  V30 6179 H 562.286 0.108184 1.69355 0
M  V30 6180 H 561.058 -0.0829745 3.91212 0
M  V30 6181 H 560.681 -1.76231 3.5641 0
M  V30 6182 N 561.678 -1.56367 -0.196722 0
M  V30 6183 C 562.955 -1.71359 -0.943159 0
M  V30 6184 C 563.335 -0.631192 -2.01443 0
M  V30 6185 O 562.683 0.358071 -2.25677 0
M  V30 6186 C 562.893 -3.13623 -1.53106 0
M  V30 6187 C 564.241 -3.73806 -2.01381 0
M  V30 6188 O 565.265 -3.16742 -1.62951 0
M  V30 6189 O 564.124 -4.73951 -2.7209 0
M  V30 6190 H 561.218 -0.698851 -0.442195 0
M  V30 6191 H 563.764 -1.68672 -0.186547 0
M  V30 6192 H 562.536 -3.83873 -0.758785 0
M  V30 6193 H 562.159 -3.20532 -2.35255 0
M  V30 6194 N 563.156 0.464375 -1.50603 0
M  V30 6195 C 564.402 1.21776 -1.62168 0
M  V30 6196 C 564.735 1.91476 -0.324154 0
M  V30 6197 O 564.01 1.8242 0.674782 0
M  V30 6198 C 564.293 2.25614 -2.80661 0
M  V30 6199 C 564.146 1.60175 -4.20314 0
M  V30 6200 C 565.465 3.26862 -2.94702 0
M  V30 6201 H 562.584 0.44137 -0.590222 0
M  V30 6202 H 565.226 0.510623 -1.8301 0
M  V30 6203 H 563.376 2.85923 -2.63021 0
M  V30 6204 H 565.048 1.03411 -4.4956 0
M  V30 6205 H 563.291 0.904697 -4.24261 0
M  V30 6206 H 563.962 2.35665 -4.99165 0
M  V30 6207 H 566.438 2.76582 -3.10872 0
M  V30 6208 H 565.314 3.96839 -3.79223 0
M  V30 6209 H 565.575 3.91382 -2.05603 0
M  V30 6210 N 564.634 1.40294 0.718013 0
M  V30 6211 C 565.883 1.37746 1.4734 0
M  V30 6212 C 566.196 -0.0180754 1.95592 0
M  V30 6213 O 567.402 -0.166166 2.70991 0
M  V30 6214 C 565.858 2.4208 2.66318 0
M  V30 6215 C 565.466 3.87432 2.24945 0
M  V30 6216 C 567.21 2.48635 3.44065 0
M  V30 6217 C 565.117 4.83368 3.40748 0
M  V30 6218 H 564.047 0.512165 0.553356 0
M  V30 6219 H 566.698 1.66019 0.781661 0
M  V30 6220 H 565.08 2.06903 3.3765 0
M  V30 6221 H 566.254 4.3174 1.6105 0
M  V30 6222 H 564.569 3.8433 1.60249 0
M  V30 6223 H 567.166 3.17499 4.30231 0
M  V30 6224 H 567.509 1.51611 3.87711 0
M  V30 6225 H 568.042 2.82791 2.79775 0
M  V30 6226 H 564.781 5.81716 3.02136 0
M  V30 6227 H 564.301 4.43726 4.03568 0
M  V30 6228 H 565.98 5.03074 4.06848 0
M  V30 6229 N 566.112 -0.949982 1.2575 0
M  V30 6230 C 567.389 -1.6718 1.01539 0
M  V30 6231 C 567.769 -2.06095 -0.456942 0
M  V30 6232 O 567.117 -1.77792 -1.43534 0
M  V30 6233 C 567.327 -2.8906 1.95564 0
M  V30 6234 C 568.675 -3.60909 2.23673 0
M  V30 6235 O 569.699 -2.9915 1.9336 0
M  V30 6236 O 568.558 -4.72127 2.75243 0
M  V30 6237 H 565.652 -0.731697 0.385419 0
M  V30 6238 H 568.198 -1.00249 1.36924 0
M  V30 6239 H 566.97 -2.57128 2.94959 0
M  V30 6240 H 566.593 -3.63719 1.60605 0
M  V30 6241 N 567.59 -1.07411 -1.15328 0
M  V30 6242 C 568.838 -0.796073 -1.85761 0
M  V30 6243 C 569.159 0.679864 -1.82764 0
M  V30 6244 O 568.429 1.49242 -1.269 0
M  V30 6245 H 567.009 -0.291495 -0.687779 0
M  V30 6246 H 569.671 -1.35799 -1.39802 0
M  V30 6247 H 568.767 -1.13114 -2.90881 0
M  V30 6248 N 569.068 1.32177 -0.85831 0
M  V30 6249 C 570.298 2.01021 -0.476889 0
M  V30 6250 C 570.706 1.64653 0.931995 0
M  V30 6251 O 570.049 0.865713 1.62022 0
M  V30 6252 C 570.111 3.55413 -0.540528 0
M  V30 6253 C 569.775 4.1522 -1.90895 0
M  V30 6254 C 570.772 4.3318 -2.87491 0
M  V30 6255 C 568.457 4.51212 -2.20709 0
M  V30 6256 C 570.451 4.86306 -4.1205 0
M  V30 6257 C 568.138 5.04042 -3.45521 0
M  V30 6258 C 569.136 5.21538 -4.41007 0
M  V30 6259 O 568.824 5.73238 -5.63608 0
M  V30 6260 H 568.556 0.650059 -0.18547 0
M  V30 6261 H 571.11 1.69648 -1.15796 0
M  V30 6262 H 569.34 3.86196 0.19741 0
M  V30 6263 H 571.029 4.05526 -0.174191 0
M  V30 6264 H 571.795 4.05704 -2.65762 0
M  V30 6265 H 567.674 4.36878 -1.4717 0
M  V30 6266 H 571.218 4.99877 -4.86589 0
M  V30 6267 H 567.115 5.30952 -3.67098 0
M  V30 6268 H 567.883 5.91625 -5.65617 0
M  V30 6269 N 570.547 0.616602 1.45037 0
M  V30 6270 C 571.958 0.199359 1.85633 0
M  V30 6271 C 572.309 -1.24588 1.51566 0
M  V30 6272 O 571.434 -1.94594 0.94668 0
M  V30 6273 C 572.029 0.355033 3.36935 0
M  V30 6274 C 570.588 -0.00758748 3.76399 0
M  V30 6275 C 569.735 0.675256 2.68953 0
M  V30 6276 H 572.686 0.822708 1.3571 0
M  V30 6277 H 572.707 -0.410201 3.78282 0
M  V30 6278 H 572.219 1.40699 3.61698 0
M  V30 6279 H 570.32 -1.05837 3.57252 0
M  V30 6280 H 570.433 0.392346 4.77491 0
M  V30 6281 H 568.797 0.111992 2.54454 0
M  V30 6282 H 569.58 1.72952 2.96551 0
M  V30 6283 N 572.025 -1.5352 0.356285 0
M  V30 6284 C 573.271 -2.01414 -0.236653 0
M  V30 6285 C 573.604 -1.24339 -1.49176 0
M  V30 6286 O 572.879 -0.334496 -1.91602 0
M  V30 6287 C 573.162 -3.56059 -0.537982 0
M  V30 6288 C 573.015 -4.43835 0.730112 0
M  V30 6289 C 574.334 -4.19127 -1.34239 0
M  V30 6290 H 571.453 -0.732135 -0.0845386 0
M  V30 6291 H 574.095 -1.83854 0.479341 0
M  V30 6292 H 572.245 -3.71153 -1.14795 0
M  V30 6293 H 573.917 -4.40555 1.36782 0
M  V30 6294 H 572.16 -4.1218 1.3524 0
M  V30 6295 H 572.831 -5.49958 0.474358 0
M  V30 6296 H 575.307 -4.07809 -0.826498 0
M  V30 6297 H 574.183 -5.27378 -1.52198 0
M  V30 6298 H 574.444 -3.74581 -2.34822 0
M  V30 6299 N 573.503 -0.0852151 -1.57369 0
M  V30 6300 C 574.45 0.877268 -2.13478 0
M  V30 6301 C 575.42 1.28642 -1.05073 0
M  V30 6302 O 576.605 1.36992 -1.32808 0
M  V30 6303 C 573.745 2.13464 -2.71159 0
M  V30 6304 C 572.858 1.77691 -3.93764 0
M  V30 6305 C 571.993 2.98139 -4.39643 0
M  V30 6306 C 571.032 2.58447 -5.54862 0
M  V30 6307 N 570.169 3.71698 -5.95639 0
M  V30 6308 H 575.009 0.391933 -2.95411 0
M  V30 6309 H 572.546 0.181796 -1.45972 0
M  V30 6310 H 574.504 2.87086 -3.02717 0
M  V30 6311 H 573.134 2.59514 -1.91969 0
M  V30 6312 H 572.186 0.940768 -3.68583 0
M  V30 6313 H 573.498 1.44497 -4.77412 0
M  V30 6314 H 572.652 3.80026 -4.72933 0
M  V30 6315 H 571.391 3.34536 -3.54876 0
M  V30 6316 H 570.396 1.74984 -5.21211 0
M  V30 6317 H 571.621 2.23205 -6.41371 0
M  V30 6318 H 569.567 4.07831 -5.13819 0
M  V30 6319 H 569.484 3.42317 -6.74059 0
M  V30 6320 H 570.752 4.54123 -6.33555 0
M  V30 6321 N 574.981 1.5647 0.188427 0
M  V30 6322 C 575.928 1.95073 1.23349 0
M  V30 6323 C 576.898 0.812238 1.44886 0
M  V30 6324 O 578.083 1.07095 1.57909 0
M  V30 6325 C 575.223 2.30124 2.57171 0
M  V30 6326 C 574.336 3.57069 2.43157 0
M  V30 6327 C 573.471 3.81411 3.69729 0
M  V30 6328 C 572.51 5.0176 3.50575 0
M  V30 6329 N 571.647 5.22321 4.69175 0
M  V30 6330 H 576.487 2.84171 0.89728 0
M  V30 6331 H 574.024 1.40623 0.431683 0
M  V30 6332 H 575.982 2.48463 3.35145 0
M  V30 6333 H 574.612 1.44159 2.88822 0
M  V30 6334 H 573.664 3.4674 1.56447 0
M  V30 6335 H 574.976 4.452 2.24942 0
M  V30 6336 H 574.13 4.00026 4.56141 0
M  V30 6337 H 572.869 2.91624 3.90905 0
M  V30 6338 H 571.874 4.83061 2.62549 0
M  V30 6339 H 573.099 5.93063 3.30837 0
M  V30 6340 H 571.045 4.35483 4.90602 0
M  V30 6341 H 570.962 6.04643 4.53809 0
M  V30 6342 H 572.23 5.45401 5.56919 0
M  V30 6343 N 576.459 -0.456382 1.50847 0
M  V30 6344 C 577.707 -1.20497 1.62249 0
M  V30 6345 C 578.028 -1.92156 0.331839 0
M  V30 6346 O 577.298 -1.84751 -0.651443 0
M  V30 6347 H 575.878 -0.447775 0.597918 0
M  V30 6348 H 578.54 -0.525099 1.87693 0
M  V30 6349 H 577.636 -1.94492 2.44089 0
M  V30 6350 N 577.937 -1.40673 -0.710563 0
M  V30 6351 C 579.165 -1.42547 -1.4996 0
M  V30 6352 C 579.58 -0.0265485 -1.88781 0
M  V30 6353 O 578.937 0.950694 -1.55782 0
M  V30 6354 C 578.988 -2.32071 -2.77173 0
M  V30 6355 O 578.709 -3.66518 -2.39992 0
M  V30 6356 C 580.21 -2.42591 -3.71032 0
M  V30 6357 H 577.43 -0.486025 -0.462623 0
M  V30 6358 H 579.974 -1.84783 -0.876102 0
M  V30 6359 H 578.129 -1.93184 -3.35795 0
M  V30 6360 H 578.543 -4.14115 -3.21884 0
M  V30 6361 H 580.017 -3.09429 -4.57119 0
M  V30 6362 H 580.494 -1.4525 -4.14486 0
M  V30 6363 H 581.1 -2.82051 -3.18319 0
M  V30 6364 N 579.415 0.9433 -1.26252 0
M  V30 6365 C 580.363 2.06302 -1.07434 0
M  V30 6366 C 581.357 1.694 -0.00189471 0
M  V30 6367 O 582.563 1.79302 -0.158408 0
M  V30 6368 H 578.938 0.675453 -0.330556 0
M  V30 6369 H 580.909 2.19326 -2.02333 0
M  V30 6370 C 579.658 3.40125 -0.721817 0
M  V30 6371 H 578.981 3.68996 -1.5389 0
M  V30 6372 H 580.421 4.19295 -0.629922 0
M  V30 6373 C 578.88 3.31993 0.572902 0
M  V30 6374 O 579.41 3.67945 1.61182 0
M  V30 6375 N 577.616 2.85099 0.562748 0
M  V30 6376 H 577.163 2.5604 -0.283092 0
M  V30 6377 H 577.121 2.80041 1.42915 0
M  V30 6378 N 580.893 1.08022 1.14757 0
M  V30 6379 C 582.142 0.802468 1.8505 0
M  V30 6380 C 582.455 -0.674061 1.83619 0
M  V30 6381 O 583.661 -1.06683 2.49662 0
M  V30 6382 C 582.117 1.38551 3.32162 0
M  V30 6383 C 581.725 2.89354 3.42021 0
M  V30 6384 C 583.469 1.18608 4.07594 0
M  V30 6385 C 581.376 3.40815 4.83321 0
M  V30 6386 H 580.306 0.296518 0.693248 0
M  V30 6387 H 582.957 1.30114 1.29393 0
M  V30 6388 H 581.339 0.814556 3.87532 0
M  V30 6389 H 582.513 3.52552 2.96722 0
M  V30 6390 H 580.828 3.08165 2.80041 0
M  V30 6391 H 583.425 1.54525 5.11885 0
M  V30 6392 H 583.768 0.125599 4.1611 0
M  V30 6393 H 584.301 1.72375 3.58513 0
M  V30 6394 H 581.04 4.46418 4.79991 0
M  V30 6395 H 580.56 2.82374 5.29174 0
M  V30 6396 H 582.239 3.37171 5.522 0
M  V30 6397 N 582.371 -1.3172 0.865308 0
M  V30 6398 C 583.62 -1.96145 0.470098 0
M  V30 6399 C 583.933 -1.69182 -0.981674 0
M  V30 6400 O 585.139 -2.27431 -1.48281 0
M  V30 6401 C 583.595 -3.51129 0.789732 0
M  V30 6402 C 583.203 -3.86938 2.25795 0
M  V30 6403 C 584.947 -4.2197 0.462765 0
M  V30 6404 C 582.854 -5.35012 2.52024 0
M  V30 6405 H 581.784 -0.734105 0.172065 0
M  V30 6406 H 584.435 -1.49959 1.05757 0
M  V30 6407 H 582.817 -3.95781 0.131571 0
M  V30 6408 H 583.991 -3.5326 2.95879 0
M  V30 6409 H 582.306 -3.29149 2.55049 0
M  V30 6410 H 584.903 -5.30904 0.636019 0
M  V30 6411 H 585.246 -4.12005 -0.59645 0
M  V30 6412 H 585.779 -3.82936 1.07727 0
M  V30 6413 H 582.518 -5.50008 3.56611 0
M  V30 6414 H 582.038 -5.70058 1.8653 0
M  V30 6415 H 583.717 -6.0222 2.36515 0
M  V30 6416 N 583.85 -0.624285 -1.44708 0
M  V30 6417 C 584.779 0.0717025 -2.3339 0
M  V30 6418 C 585.76 0.841814 -1.47809 0
M  V30 6419 O 586.946 0.809056 -1.76544 0
M  V30 6420 C 584.076 1.05852 -3.30776 0
M  V30 6421 C 583.029 0.400503 -4.26122 0
M  V30 6422 C 582.356 1.49674 -5.13324 0
M  V30 6423 C 583.656 -0.688924 -5.17737 0
M  V30 6424 H 585.35 -0.668819 -2.91834 0
M  V30 6425 H 582.896 -0.32308 -1.40329 0
M  V30 6426 H 584.849 1.5541 -3.91696 0
M  V30 6427 H 583.572 1.82984 -2.70526 0
M  V30 6428 H 582.231 -0.0743687 -3.66525 0
M  V30 6429 H 581.88 2.25877 -4.49431 0
M  V30 6430 H 581.58 1.06188 -5.77926 0
M  V30 6431 H 583.104 1.99427 -5.77115 0
M  V30 6432 H 584.518 -0.276724 -5.72632 0
M  V30 6433 H 582.915 -1.04652 -5.90904 0
M  V30 6434 H 583.985 -1.55884 -4.5916 0
M  V30 6435 N 585.328 1.53329 -0.364422 0
M  V30 6436 C 586.276 2.27212 0.497737 0
M  V30 6437 C 587.27 1.30146 1.08437 0
M  V30 6438 O 588.476 1.47778 1.0277 0
M  V30 6439 H 584.851 0.730329 0.179232 0
M  V30 6440 H 586.822 2.98037 -0.147182 0
M  V30 6441 C 585.571 3.07333 1.6261 0
M  V30 6442 H 584.894 3.81866 1.184 0
M  V30 6443 H 586.334 3.62209 2.20409 0
M  V30 6444 C 584.793 2.18102 2.56775 0
M  V30 6445 O 585.323 1.79104 3.59562 0
M  V30 6446 N 583.529 1.82759 2.25937 0
M  V30 6447 H 583.076 2.14671 1.42387 0
M  V30 6448 H 583.034 1.23342 2.89196 0
M  V30 6449 N 586.806 0.0935595 1.57322 0
M  V30 6450 C 588.055 -0.570191 1.93473 0
M  V30 6451 C 588.368 -1.69434 0.977318 0
M  V30 6452 O 589.574 -2.41914 1.23248 0
M  V30 6453 C 588.03 -1.06564 3.43762 0
M  V30 6454 C 587.638 0.0286723 4.47991 0
M  V30 6455 C 589.382 -1.70221 3.88877 0
M  V30 6456 C 587.289 -0.482046 5.89432 0
M  V30 6457 H 586.219 -0.216764 0.72217 0
M  V30 6458 H 588.87 0.169313 1.82717 0
M  V30 6459 H 587.252 -1.85878 3.49664 0
M  V30 6460 H 588.426 0.804106 4.5373 0
M  V30 6461 H 586.741 0.570336 4.12476 0
M  V30 6462 H 589.338 -2.09502 4.91948 0
M  V30 6463 H 589.681 -2.57078 3.27439 0
M  V30 6464 H 590.214 -0.974919 3.85668 0
M  V30 6465 H 586.953 0.349871 6.54566 0
M  V30 6466 H 586.473 -1.22452 5.87167 0
M  V30 6467 H 588.152 -0.951508 6.39965 0
M  V30 6468 N 588.284 -1.56567 -0.180126 0
M  V30 6469 C 589.532 -1.81133 -0.896392 0
M  V30 6470 C 589.853 -0.669114 -1.83161 0
M  V30 6471 O 589.123 0.311616 -1.93406 0
M  V30 6472 H 587.703 -0.668172 -0.333999 0
M  V30 6473 H 590.365 -1.94048 -0.182051 0
M  V30 6474 H 589.461 -2.74854 -1.47857 0
M  V30 6475 N 589.762 0.448376 -1.51087 0
M  V30 6476 C 591.178 0.783984 -1.39017 0
M  V30 6477 C 591.378 1.96087 -0.463904 0
M  V30 6478 O 590.434 2.52357 0.0850534 0
M  V30 6479 C 591.747 1.07471 -2.80839 0
M  V30 6480 C 593.295 1.17981 -2.89913 0
M  V30 6481 C 593.77 1.50354 -4.32617 0
M  V30 6482 N 595.261 1.57301 -4.35673 0
M  V30 6483 C 595.996 1.839 -5.4311 0
M  V30 6484 N 595.492 2.08365 -6.60724 0
M  V30 6485 N 597.285 1.8559 -5.30578 0
M  V30 6486 H 589.436 -0.326881 -2.0987 0
M  V30 6487 H 591.699 -0.0838006 -0.944289 0
M  V30 6488 H 591.405 0.282768 -3.50561 0
M  V30 6489 H 591.279 2.00519 -3.19487 0
M  V30 6490 H 593.666 1.9624 -2.20395 0
M  V30 6491 H 593.747 0.228603 -2.54776 0
M  V30 6492 H 593.391 0.726273 -5.0268 0
M  V30 6493 H 593.321 2.46663 -4.65258 0
M  V30 6494 H 595.812 1.40342 -3.50874 0
M  V30 6495 H 596.125 2.27999 -7.38401 0
M  V30 6496 H 594.47 2.0571 -6.63859 0
M  V30 6497 H 597.661 1.65989 -4.37682 0
M  V30 6498 H 597.834 2.05983 -6.1439 0
M  V30 6499 N 591.24 1.41047 0.703093 0
M  V30 6500 C 592.173 1.36713 1.82715 0
M  V30 6501 C 593.151 0.235533 1.60885 0
M  V30 6502 O 594.335 0.421227 1.83733 0
M  V30 6503 C 591.462 1.13069 3.1927 0
M  V30 6504 C 590.508 2.28846 3.59905 0
M  V30 6505 S 591.341 3.91297 3.65578 0
M  V30 6506 C 592.497 3.69941 5.04871 0
M  V30 6507 H 592.73 2.31838 1.86114 0
M  V30 6508 H 590.263 1.27481 0.871083 0
M  V30 6509 H 592.221 1.00113 3.98105 0
M  V30 6510 H 590.882 0.195763 3.13489 0
M  V30 6511 H 590.075 2.07977 4.59088 0
M  V30 6512 H 589.677 2.3817 2.88359 0
M  V30 6513 H 591.969 3.29181 5.92154 0
M  V30 6514 H 592.912 4.68699 5.30779 0
M  V30 6515 H 593.32 3.03369 4.76054 0
M  V30 6516 N 592.718 -0.936591 1.26751 0
M  V30 6517 C 593.668 -2.0219 1.05371 0
M  V30 6518 C 594.652 -1.60893 -0.0154112 0
M  V30 6519 O 595.844 -1.75843 0.202085 0
M  V30 6520 C 592.973 -3.36222 0.693541 0
M  V30 6521 C 592.059 -3.8399 1.80035 0
M  V30 6522 N 592.45 -4.0436 3.03852 0
M  V30 6523 C 590.748 -4.12945 1.685 0
M  V30 6524 C 591.449 -4.44 3.75818 0
M  V30 6525 N 590.425 -4.50966 3.03531 0
M  V30 6526 H 594.227 -2.15958 1.99347 0
M  V30 6527 H 591.741 -1.12277 1.17335 0
M  V30 6528 H 593.738 -4.13625 0.521513 0
M  V30 6529 H 592.398 -3.23821 -0.238693 0
M  V30 6530 H 593.409 -3.9092 3.39709 0
M  V30 6531 H 590.086 -4.09308 0.822986 0
M  V30 6532 H 591.476 -4.67914 4.82189 0
M  V30 6533 N 594.196 -1.08629 -1.14182 0
M  V30 6534 C 595.612 -0.814363 -1.3726 0
M  V30 6535 C 595.812 0.575271 -1.93114 0
M  V30 6536 O 594.868 1.33165 -2.1453 0
M  V30 6537 C 596.181 -1.8989 -2.33157 0
M  V30 6538 C 597.729 -1.92518 -2.46791 0
M  V30 6539 C 598.204 -3.00092 -3.45989 0
M  V30 6540 N 599.695 -2.99279 -3.53534 0
M  V30 6541 C 600.43 -3.79158 -4.30147 0
M  V30 6542 N 599.926 -4.68923 -5.09983 0
M  V30 6543 N 601.719 -3.67451 -4.25366 0
M  V30 6544 H 593.87 -1.98232 -0.762758 0
M  V30 6545 H 596.133 -0.860383 -0.398051 0
M  V30 6546 H 595.839 -2.89809 -1.99257 0
M  V30 6547 H 595.713 -1.77013 -3.33086 0
M  V30 6548 H 598.1 -0.932425 -2.79982 0
M  V30 6549 H 598.181 -2.09473 -1.46816 0
M  V30 6550 H 597.825 -3.99575 -3.13532 0
M  V30 6551 H 597.755 -2.80382 -4.45751 0
M  V30 6552 H 600.246 -2.3422 -2.96563 0
M  V30 6553 H 600.559 -5.26475 -5.65724 0
M  V30 6554 H 598.904 -4.72964 -5.09244 0
M  V30 6555 H 602.095 -2.9669 -3.62067 0
M  V30 6556 H 602.268 -4.29944 -4.84822 0
M  V30 6557 N 595.674 1.31259 -0.872281 0
M  V30 6558 C 596.604 2.30929 -0.345554 0
M  V30 6559 C 597.585 1.60449 0.5648 0
M  V30 6560 O 598.77 1.8814 0.481335 0
M  V30 6561 C 595.9 3.44348 0.451823 0
M  V30 6562 C 594.854 4.26435 -0.365641 0
M  V30 6563 C 594.18 5.31785 0.557562 0
M  V30 6564 C 595.48 4.97159 -1.60095 0
M  V30 6565 H 597.174 2.75234 -1.17841 0
M  V30 6566 H 594.72 1.3232 -0.568094 0
M  V30 6567 H 596.673 4.13128 0.830854 0
M  V30 6568 H 595.397 2.98816 1.31821 0
M  V30 6569 H 594.056 3.59326 -0.726649 0
M  V30 6570 H 593.704 4.82502 1.4213 0
M  V30 6571 H 593.404 5.87598 0.0144878 0
M  V30 6572 H 594.928 6.03424 0.933387 0
M  V30 6573 H 596.342 5.58523 -1.29323 0
M  V30 6574 H 594.739 5.62779 -2.08327 0
M  V30 6575 H 595.809 4.24012 -2.35249 0
M  V30 6576 N 597.152 0.631951 1.44375 0
M  V30 6577 C 598.062 -0.073674 2.34484 0
M  V30 6578 C 599.078 -0.834825 1.52665 0
M  V30 6579 O 600.254 -0.786902 1.85391 0
M  V30 6580 C 597.319 -1.04247 3.30656 0
M  V30 6581 C 596.38 -0.280602 4.28382 0
M  V30 6582 C 595.613 -1.20325 5.19959 0
M  V30 6583 O 595.836 -2.44199 5.15484 0
M  V30 6584 O 594.77 -0.687128 5.97965 0
M  V30 6585 H 598.596 0.667477 2.96274 0
M  V30 6586 H 596.181 0.392144 1.44162 0
M  V30 6587 H 598.063 -1.59981 3.89851 0
M  V30 6588 H 596.738 -1.76422 2.71398 0
M  V30 6589 H 595.645 0.319804 3.72731 0
M  V30 6590 H 596.978 0.401144 4.90563 0
M  V30 6591 N 598.631 -1.53133 0.372548 0
M  V30 6592 C 599.878 -2.01356 -0.214959 0
M  V30 6593 C 600.206 -1.2596 -1.48204 0
M  V30 6594 O 599.461 -0.343511 -1.92662 0
M  V30 6595 C 599.76 -3.53206 -0.545938 0
M  V30 6596 C 599.426 -4.46511 0.627624 0
M  V30 6597 C 598.088 -4.71737 0.949615 0
M  V30 6598 C 600.44 -5.01666 1.41353 0
M  V30 6599 C 597.768 -5.4937 2.05936 0
M  V30 6600 C 600.12 -5.80511 2.51375 0
M  V30 6601 C 598.784 -6.04022 2.84101 0
M  V30 6602 H 598.054 -0.736813 -0.078659 0
M  V30 6603 H 600.701 -1.84682 0.506447 0
M  V30 6604 H 599.006 -3.67864 -1.34845 0
M  V30 6605 H 600.703 -3.87997 -1.01287 0
M  V30 6606 H 597.293 -4.27029 0.366635 0
M  V30 6607 H 601.477 -4.82117 1.17802 0
M  V30 6608 H 596.733 -5.65803 2.31682 0
M  V30 6609 H 600.907 -6.22255 3.12684 0
M  V30 6610 H 598.534 -6.63962 3.70214 0
M  V30 6611 N 600.109 -0.101901 -1.5727 0
M  V30 6612 C 601.356 0.560197 -1.94597 0
M  V30 6613 C 601.684 1.67767 -0.984101 0
M  V30 6614 O 600.939 1.95699 -0.00489193 0
M  V30 6615 C 601.238 1.14898 -3.38427 0
M  V30 6616 C 600.904 0.154613 -4.50635 0
M  V30 6617 C 599.566 -0.118861 -4.81053 0
M  V30 6618 C 601.918 -0.523979 -5.18559 0
M  V30 6619 C 599.246 -1.0775 -5.76721 0
M  V30 6620 C 601.598 -1.47114 -6.15256 0
M  V30 6621 C 600.262 -1.75278 -6.44076 0
M  V30 6622 H 599.532 0.204991 -0.712081 0
M  V30 6623 H 602.179 -0.17918 -1.9066 0
M  V30 6624 H 600.484 1.96476 -3.38976 0
M  V30 6625 H 602.181 1.66909 -3.64613 0
M  V30 6626 H 598.771 0.377948 -4.2693 0
M  V30 6627 H 602.955 -0.325851 -4.95229 0
M  V30 6628 H 598.211 -1.30263 -5.97362 0
M  V30 6629 H 602.385 -2.00274 -6.66981 0
M  V30 6630 H 600.012 -2.49717 -7.18015 0
M  V30 6631 N 601.587 1.56661 0.17182 0
M  V30 6632 C 602.998 1.71652 0.734329 0
M  V30 6633 C 603.349 0.712335 1.82812 0
M  V30 6634 O 602.474 -0.126401 2.16031 0
M  V30 6635 C 603.069 3.11226 1.3388 0
M  V30 6636 C 601.628 3.27904 1.84813 0
M  V30 6637 C 600.775 2.67603 0.726917 0
M  V30 6638 H 603.726 1.5861 -0.0535665 0
M  V30 6639 H 603.747 3.09849 2.20849 0
M  V30 6640 H 603.259 3.8429 0.54249 0
M  V30 6641 H 601.36 2.59796 2.6709 0
M  V30 6642 H 601.473 4.35637 1.99392 0
M  V30 6643 H 599.837 2.274 1.14723 0
M  V30 6644 H 600.62 3.43252 -0.0575334 0
M  V30 6645 N 603.065 -0.440357 1.51323 0
M  V30 6646 C 604.012 -1.53429 1.72419 0
M  V30 6647 C 604.982 -1.56165 0.565826 0
M  V30 6648 O 606.167 -1.73222 0.799917 0
M  V30 6649 C 603.307 -2.91169 1.85242 0
M  V30 6650 C 602.42 -2.97985 3.12777 0
M  V30 6651 C 601.555 -4.26829 3.16212 0
M  V30 6652 C 600.594 -4.27501 4.38074 0
M  V30 6653 N 599.731 -5.47866 4.39076 0
M  V30 6654 H 604.571 -1.34743 2.65797 0
M  V30 6655 H 602.108 -0.654608 1.31732 0
M  V30 6656 H 604.066 -3.71087 1.90658 0
M  V30 6657 H 602.696 -3.0842 0.952744 0
M  V30 6658 H 601.748 -2.10749 3.16685 0
M  V30 6659 H 603.06 -2.94342 4.02696 0
M  V30 6660 H 602.214 -5.15118 3.20527 0
M  V30 6661 H 600.953 -4.33124 2.24176 0
M  V30 6662 H 599.958 -3.37606 4.33938 0
M  V30 6663 H 601.183 -4.22873 5.31371 0
M  V30 6664 H 599.129 -5.54887 3.49909 0
M  V30 6665 H 599.046 -5.46091 5.22801 0
M  V30 6666 H 600.314 -6.38195 4.4758 0
M  V30 6667 N 604.543 -1.41418 -0.695603 0
M  V30 6668 C 605.954 -1.36335 -1.27552 0
M  V30 6669 C 606.305 -0.0464336 -1.96145 0
M  V30 6670 O 605.43 0.855304 -1.9878 0
M  V30 6671 C 606.025 -2.46941 -2.3196 0
M  V30 6672 C 604.584 -2.45256 -2.85529 0
M  V30 6673 C 603.731 -2.2679 -1.59566 0
M  V30 6674 H 606.682 -1.50934 -0.490362 0
M  V30 6675 H 606.703 -2.15997 -3.1325 0
M  V30 6676 H 606.215 -3.42775 -1.82008 0
M  V30 6677 H 604.316 -1.53179 -3.39657 0
M  V30 6678 H 604.429 -3.41565 -3.35961 0
M  V30 6679 H 602.793 -1.74667 -1.85374 0
M  V30 6680 H 603.576 -3.24651 -1.1161 0
M  V30 6681 N 606.021 0.929856 -1.27246 0
M  V30 6682 C 606.969 2.05151 -1.09616 0
M  V30 6683 C 607.963 1.69388 -0.0198617 0
M  V30 6684 O 609.169 1.79124 -0.177417 0
M  V30 6685 H 605.544 0.671909 -0.337701 0
M  V30 6686 H 607.515 2.17168 -2.04648 0
M  V30 6687 C 606.264 3.3934 -0.757851 0
M  V30 6688 H 605.587 3.67343 -1.57795 0
M  V30 6689 H 607.027 4.18603 -0.674358 0
M  V30 6690 C 605.486 3.32582 0.537658 0
M  V30 6691 O 606.016 3.69633 1.57271 0
M  V30 6692 N 604.222 2.8568 0.532478 0
M  V30 6693 H 603.769 2.55725 -0.310233 0
M  V30 6694 H 603.727 2.81541 1.39936 0
M  V30 6695 N 607.499 1.09233 1.13605 0
M  V30 6696 C 608.409 0.741939 2.22559 0
M  V30 6697 C 609.425 -0.255236 1.72118 0
M  V30 6698 O 610.601 -0.0970747 2.01166 0
M  V30 6699 C 607.666 0.165595 3.46304 0
M  V30 6700 C 606.727 1.21846 4.11645 0
M  V30 6701 C 605.96 0.669526 5.29484 0
M  V30 6702 O 606.183 -0.508228 5.68131 0
M  V30 6703 O 605.117 1.42361 5.84822 0
M  V30 6704 H 608.943 1.65107 2.54899 0
M  V30 6705 H 606.528 0.866584 1.21699 0
M  V30 6706 H 608.41 -0.152592 4.21124 0
M  V30 6707 H 607.085 -0.716573 3.15669 0
M  V30 6708 H 605.992 1.58931 3.38662 0
M  V30 6709 H 607.325 2.07321 4.46407 0
M  V30 6710 N 608.977 -1.30795 0.87923 0
M  V30 6711 C 610.224 -1.96362 0.494786 0
M  V30 6712 C 610.552 -1.69448 -0.954868 0
M  V30 6713 O 609.807 -0.988711 -1.68888 0
M  V30 6714 C 610.106 -3.50287 0.709476 0
M  V30 6715 C 609.772 -3.9724 2.13333 0
M  V30 6716 C 608.434 -4.09772 2.52271 0
M  V30 6717 C 610.786 -4.21807 3.06151 0
M  V30 6718 C 608.114 -4.44227 3.83248 0
M  V30 6719 C 610.466 -4.5773 4.36654 0
M  V30 6720 C 609.13 -4.68469 4.75492 0
M  V30 6721 H 608.4 -0.71854 0.181055 0
M  V30 6722 H 611.047 -1.55764 1.11399 0
M  V30 6723 H 609.352 -3.91799 0.0072 0
M  V30 6724 H 611.049 -3.99082 0.391703 0
M  V30 6725 H 607.639 -3.87988 1.82107 0
M  V30 6726 H 611.823 -4.11611 2.77291 0
M  V30 6727 H 607.079 -4.50741 4.13089 0
M  V30 6728 H 611.253 -4.7569 5.08617 0
M  V30 6729 H 608.88 -4.94923 5.77022 0
M  V30 6730 N 610.455 -0.639598 -1.44038 0
M  V30 6731 C 611.683 -0.154811 -2.0632 0
M  V30 6732 C 612.098 1.17406 -1.47856 0
M  V30 6733 O 611.455 1.72193 -0.604638 0
M  V30 6734 C 611.506 -0.0429958 -3.61474 0
M  V30 6735 O 611.227 -1.31932 -4.17763 0
M  V30 6736 C 612.728 0.469486 -4.40807 0
M  V30 6737 H 609.948 -0.0835862 -0.665773 0
M  V30 6738 H 612.492 -0.876397 -1.84769 0
M  V30 6739 H 610.647 0.629075 -3.82258 0
M  V30 6740 H 611.061 -1.16965 -5.11292 0
M  V30 6741 H 612.535 0.496712 -5.49761 0
M  V30 6742 H 613.012 1.49819 -4.12857 0
M  V30 6743 H 613.618 -0.169624 -4.24962 0
M  V30 6744 N 611.933 1.52934 -0.380664 0
M  V30 6745 C 612.863 2.29118 0.450268 0
M  V30 6746 C 613.844 1.32153 1.07096 0
M  V30 6747 O 615.029 1.61038 1.08537 0
M  V30 6748 C 612.159 3.09161 1.58231 0
M  V30 6749 C 611.113 4.13938 1.0881 0
M  V30 6750 C 610.439 4.82153 2.31155 0
M  V30 6751 C 611.739 5.22048 0.162146 0
M  V30 6752 H 613.433 2.98826 -0.185361 0
M  V30 6753 H 610.979 1.43715 -0.0905886 0
M  V30 6754 H 612.932 3.61211 2.17036 0
M  V30 6755 H 611.656 2.3717 2.2454 0
M  V30 6756 H 610.315 3.62855 0.522633 0
M  V30 6757 H 609.963 4.06719 2.95953 0
M  V30 6758 H 609.663 5.52966 1.98752 0
M  V30 6759 H 611.187 5.37004 2.90618 0
M  V30 6760 H 612.601 5.6951 0.658126 0
M  V30 6761 H 610.998 6.00057 -0.0717122 0
M  V30 6762 H 612.068 4.78398 -0.791438 0
M  V30 6763 N 613.412 0.11024 1.57214 0
M  V30 6764 C 614.322 -0.857077 2.18383 0
M  V30 6765 C 615.338 -1.29915 1.1575 0
M  V30 6766 O 616.514 -1.36394 1.48184 0
M  V30 6767 C 613.579 -2.09264 2.76423 0
M  V30 6768 C 612.64 -1.70333 3.94063 0
M  V30 6769 C 611.873 -2.87999 4.49324 0
M  V30 6770 O 612.096 -4.0317 4.03497 0
M  V30 6771 O 611.03 -2.6559 5.40135 0
M  V30 6772 H 614.856 -0.366561 3.0148 0
M  V30 6773 H 612.441 -0.114914 1.48957 0
M  V30 6774 H 614.323 -2.81644 3.13456 0
M  V30 6775 H 612.998 -2.57339 1.96363 0
M  V30 6776 H 611.905 -0.950864 3.61814 0
M  V30 6777 H 613.238 -1.27007 4.75531 0
M  V30 6778 N 614.89 -1.56749 -0.16351 0
M  V30 6779 C 615.838 -1.97939 -1.22159 0
M  V30 6780 C 616.832 -0.869288 -1.45395 0
M  V30 6781 O 618.038 -1.05443 -1.45883 0
M  V30 6782 H 614.413 -0.629869 -0.410815 0
M  V30 6783 H 616.384 -2.86115 -0.847381 0
M  V30 6784 C 615.133 -2.36206 -2.55151 0
M  V30 6785 H 614.456 -3.2117 -2.38097 0
M  V30 6786 H 615.896 -2.68863 -3.27854 0
M  V30 6787 C 614.355 -1.20841 -3.14482 0
M  V30 6788 O 614.885 -0.500258 -3.98573 0
M  V30 6789 N 613.091 -0.976943 -2.73686 0
M  V30 6790 H 612.638 -1.55457 -2.05404 0
M  V30 6791 H 612.596 -0.206912 -3.13718 0
M  V30 6792 N 616.368 0.432326 -1.51554 0
M  V30 6793 C 617.615 1.18134 -1.64471 0
M  V30 6794 C 617.943 1.91076 -0.363349 0
M  V30 6795 O 617.198 1.84492 0.65279 0
M  V30 6796 C 617.497 2.21907 -2.80164 0
M  V30 6797 C 617.163 1.65941 -4.19255 0
M  V30 6798 C 615.825 1.50401 -4.57092 0
M  V30 6799 C 618.177 1.24843 -5.06027 0
M  V30 6800 C 615.505 0.922443 -5.79403 0
M  V30 6801 C 617.857 0.68113 -6.28922 0
M  V30 6802 C 616.521 0.512673 -6.65528 0
M  V30 6803 H 615.791 0.432283 -0.601841 0
M  V30 6804 H 618.438 0.471701 -1.856 0
M  V30 6805 H 616.743 2.98928 -2.53277 0
M  V30 6806 H 618.44 2.79691 -2.87357 0
M  V30 6807 H 615.03 1.79014 -3.89425 0
M  V30 6808 H 619.214 1.35667 -4.77397 0
M  V30 6809 H 614.47 0.779733 -6.06408 0
M  V30 6810 H 618.644 0.35418 -6.95499 0
M  V30 6811 H 616.271 0.0599084 -7.60176 0
M  V30 6812 N 617.846 1.41785 0.688094 0
M  V30 6813 C 618.809 1.43936 1.78368 0
M  V30 6814 C 619.809 0.328866 1.57401 0
M  V30 6815 O 620.999 0.589093 1.63937 0
M  V30 6816 C 618.131 1.25804 3.16838 0
M  V30 6817 H 619.324 2.41472 1.77852 0
M  V30 6818 H 616.877 1.28037 0.896448 0
M  V30 6819 H 617.612 0.291386 3.22988 0
M  V30 6820 H 617.397 2.06272 3.33458 0
M  V30 6821 H 618.887 1.30162 3.96797 0
M  V30 6822 N 619.324 -0.923095 1.27737 0
M  V30 6823 C 620.271 -2.02432 1.1086 0
M  V30 6824 C 621.241 -1.66098 0.00835195 0
M  V30 6825 O 622.426 -1.90027 0.171542 0
M  V30 6826 C 619.566 -3.36476 0.766671 0
M  V30 6827 C 618.679 -3.85737 1.94501 0
M  V30 6828 C 617.814 -5.08249 1.54455 0
M  V30 6829 C 616.853 -5.49818 2.6901 0
M  V30 6830 N 615.99 -6.63524 2.29521 0
M  V30 6831 H 620.83 -2.16201 2.05089 0
M  V30 6832 H 618.367 -1.05909 1.02087 0
M  V30 6833 H 620.325 -4.13569 0.549223 0
M  V30 6834 H 618.955 -3.22502 -0.13867 0
M  V30 6835 H 618.007 -3.04883 2.27487 0
M  V30 6836 H 619.319 -4.12513 2.80419 0
M  V30 6837 H 618.473 -5.92857 1.28862 0
M  V30 6838 H 617.212 -4.83261 0.656534 0
M  V30 6839 H 616.217 -4.63757 2.95313 0
M  V30 6840 H 617.442 -5.76799 3.5844 0
M  V30 6841 H 615.388 -6.40185 1.43177 0
M  V30 6842 H 615.305 -6.89978 3.08977 0
M  V30 6843 H 616.573 -7.51461 2.07187 0
M  V30 6844 N 620.802 -1.09834 -1.13024 0
M  V30 6845 C 621.75 -0.736283 -2.20639 0
M  V30 6846 C 622.744 0.264725 -1.67319 0
M  V30 6847 O 623.95 0.125745 -1.7956 0
M  V30 6848 H 620.325 -0.220136 -0.719058 0
M  V30 6849 H 622.296 -1.65295 -2.48436 0
M  V30 6850 C 621.045 -0.177544 -3.47246 0
M  V30 6851 H 620.368 -0.939009 -3.88616 0
M  V30 6852 H 621.808 0.0378007 -4.23983 0
M  V30 6853 C 620.267 1.08824 -3.1884 0
M  V30 6854 O 620.797 2.1708 -3.37993 0
M  V30 6855 N 619.003 1.00442 -2.7269 0
M  V30 6856 H 618.55 0.123383 -2.57304 0
M  V30 6857 H 618.508 1.85206 -2.5406 0
M  V30 6858 N 622.28 1.30327 -0.886154 0
M  V30 6859 C 623.526 1.96388 -0.505941 0
M  V30 6860 C 623.859 1.69784 0.942712 0
M  V30 6861 O 623.134 1.00322 1.6663 0
M  V30 6862 C 623.417 3.51488 -0.782826 0
M  V30 6863 C 623.27 3.87603 -2.28219 0
M  V30 6864 C 624.589 4.39331 -0.260128 0
M  V30 6865 H 621.708 0.713327 -0.185292 0
M  V30 6866 H 624.35 1.54178 -1.11036 0
M  V30 6867 H 622.5 3.87572 -0.268399 0
M  V30 6868 H 624.172 3.61537 -2.86512 0
M  V30 6869 H 622.415 3.3563 -2.74837 0
M  V30 6870 H 623.086 4.95806 -2.42653 0
M  V30 6871 H 625.562 4.10162 -0.700444 0
M  V30 6872 H 624.438 5.46769 -0.483179 0
M  V30 6873 H 624.699 4.34072 0.838674 0
M  V30 6874 N 623.758 0.647228 1.43697 0
M  V30 6875 C 625.169 0.238689 1.85168 0
M  V30 6876 C 625.52 -1.21345 1.54175 0
M  V30 6877 O 624.645 -1.92542 0.987743 0
M  V30 6878 C 625.24 0.426422 3.36106 0
M  V30 6879 C 623.799 0.0722541 3.76331 0
M  V30 6880 C 622.946 0.732153 2.6746 0
M  V30 6881 H 625.897 0.851309 1.33934 0
M  V30 6882 H 625.918 -0.32987 3.79067 0
M  V30 6883 H 625.43 1.48339 3.58632 0
M  V30 6884 H 623.531 -0.982355 3.59417 0
M  V30 6885 H 623.644 0.493541 4.76551 0
M  V30 6886 H 622.008 0.16594 2.54159 0
M  V30 6887 H 622.791 1.79204 2.92816 0
M  V30 6888 N 625.236 -1.5273 0.388769 0
M  V30 6889 C 626.466 -2.05693 -0.193397 0
M  V30 6890 C 626.874 -1.26038 -1.41107 0
M  V30 6891 O 626.217 -0.30001 -1.81234 0
M  V30 6892 C 626.279 -3.53962 -0.628561 0
M  V30 6893 C 625.943 -4.54519 0.475576 0
M  V30 6894 C 626.94 -5.02526 1.33281 0
M  V30 6895 C 624.625 -4.98174 0.642453 0
M  V30 6896 C 626.619 -5.92812 2.34205 0
M  V30 6897 C 624.306 -5.88262 1.65503 0
M  V30 6898 C 625.304 -6.35473 2.50325 0
M  V30 6899 O 624.992 -7.23781 3.49852 0
M  V30 6900 H 624.724 -0.675197 -0.0329395 0
M  V30 6901 H 627.278 -1.97835 0.552326 0
M  V30 6902 H 625.508 -3.59437 -1.42625 0
M  V30 6903 H 627.197 -3.89669 -1.13633 0
M  V30 6904 H 627.963 -4.6953 1.21519 0
M  V30 6905 H 623.842 -4.60999 -0.00805093 0
M  V30 6906 H 627.386 -6.29585 3.00447 0
M  V30 6907 H 623.283 -6.20672 1.77304 0
M  V30 6908 H 624.051 -7.4184 3.45855 0
M  V30 6909 N 626.714 -0.118576 -1.57153 0
M  V30 6910 C 628.13 0.238014 -1.57815 0
M  V30 6911 C 628.33 1.66747 -1.13127 0
M  V30 6912 O 627.386 2.38867 -0.818462 0
M  V30 6913 C 628.699 0.00508207 -3.007 0
M  V30 6914 C 630.247 0.0710139 -3.12919 0
M  V30 6915 C 630.722 -0.13422 -4.57803 0
M  V30 6916 N 632.213 -0.0801755 -4.63131 0
M  V30 6917 C 632.948 -0.213885 -5.73001 0
M  V30 6918 N 632.444 -0.403742 -6.91623 0
M  V30 6919 N 634.237 -0.15349 -5.6189 0
M  V30 6920 H 626.388 -1.05226 -1.84503 0
M  V30 6921 H 628.651 -0.414318 -0.852669 0
M  V30 6922 H 628.357 -0.983125 -3.3768 0
M  V30 6923 H 628.231 0.73714 -3.69927 0
M  V30 6924 H 630.618 1.04975 -2.75798 0
M  V30 6925 H 630.699 -0.692918 -2.46236 0
M  V30 6926 H 630.343 -1.10992 -4.95624 0
M  V30 6927 H 630.273 0.649692 -5.22577 0
M  V30 6928 H 632.764 0.0630689 -3.77847 0
M  V30 6929 H 633.077 -0.496645 -7.71202 0
M  V30 6930 H 631.422 -0.43971 -6.93608 0
M  V30 6931 H 634.613 -0.00613174 -4.681 0
M  V30 6932 H 634.786 -0.261138 -6.47474 0
M  V30 6933 N 628.193 1.56834 0.155195 0
M  V30 6934 C 629.423 1.86778 0.883044 0
M  V30 6935 C 629.831 0.703824 1.75622 0
M  V30 6936 O 629.174 -0.33581 1.80605 0
M  V30 6937 C 629.236 3.1133 1.79761 0
M  V30 6938 C 628.9 4.43504 1.10242 0
M  V30 6939 C 629.897 5.17859 0.460204 0
M  V30 6940 C 627.582 4.90233 1.09437 0
M  V30 6941 C 629.576 6.37144 -0.180782 0
M  V30 6942 C 627.263 6.09444 0.449569 0
M  V30 6943 C 628.261 6.82744 -0.186888 0
M  V30 6944 O 627.949 7.99692 -0.821486 0
M  V30 6945 H 627.681 0.62352 0.261149 0
M  V30 6946 H 630.235 2.04813 0.155204 0
M  V30 6947 H 628.465 2.89282 2.56618 0
M  V30 6948 H 630.154 3.27587 2.39669 0
M  V30 6949 H 630.92 4.8283 0.458289 0
M  V30 6950 H 626.799 4.33109 1.57917 0
M  V30 6951 H 630.343 6.94296 -0.678154 0
M  V30 6952 H 626.24 6.43936 0.449123 0
M  V30 6953 H 627.008 8.15306 -0.722337 0
M  V30 6954 N 629.671 -0.424282 1.51781 0
M  V30 6955 C 630.918 -1.1726 1.65095 0
M  V30 6956 C 631.246 -1.90881 0.373477 0
M  V30 6957 O 630.501 -1.84835 -0.642997 0
M  V30 6958 C 630.8 -2.20418 2.81337 0
M  V30 6959 C 630.466 -1.63715 4.20129 0
M  V30 6960 C 629.128 -1.47975 4.57883 0
M  V30 6961 C 631.48 -1.22157 5.06682 0
M  V30 6962 C 628.808 -0.891703 5.79884 0
M  V30 6963 C 631.16 -0.647767 6.29275 0
M  V30 6964 C 629.824 -0.477371 6.65791 0
M  V30 6965 H 629.094 -0.429085 0.604125 0
M  V30 6966 H 631.741 -0.461852 1.85847 0
M  V30 6967 H 630.046 -2.97581 2.54859 0
M  V30 6968 H 631.743 -2.78163 2.88836 0
M  V30 6969 H 628.333 -1.76946 3.90369 0
M  V30 6970 H 632.517 -1.33133 4.7811 0
M  V30 6971 H 627.773 -0.747563 6.06813 0
M  V30 6972 H 631.947 -0.317291 6.95677 0
M  V30 6973 H 629.574 -0.0195936 7.60197 0
M  V30 6974 N 631.149 -1.42148 -0.680565 0
M  V30 6975 C 632.081 -1.41119 -1.80605 0
M  V30 6976 C 633.094 -0.311099 -1.598 0
M  V30 6977 O 634.283 -0.573813 -1.69026 0
M  V30 6978 C 631.383 -1.18204 -3.17618 0
M  V30 6979 C 630.556 -2.40537 -3.65322 0
M  V30 6980 C 629.615 -2.13254 -4.8105 0
M  V30 6981 O 628.641 -2.8641 -4.91892 0
M  V30 6982 N 629.843 -1.13208 -5.69354 0
M  V30 6983 H 632.608 -2.38128 -1.81975 0
M  V30 6984 H 630.169 -1.36953 -0.863446 0
M  V30 6985 H 632.161 -0.97878 -3.92686 0
M  V30 6986 H 630.731 -0.29738 -3.11182 0
M  V30 6987 H 629.951 -2.76468 -2.80996 0
M  V30 6988 H 631.239 -3.22012 -3.93936 0
M  V30 6989 H 630.637 -0.526893 -5.63241 0
M  V30 6990 H 629.194 -0.988699 -6.44258 0
M  V30 6991 N 632.627 0.916307 -1.28225 0
M  V30 6992 C 634.038 1.48024 -1.13779 0
M  V30 6993 C 634.389 1.94289 0.273139 0
M  V30 6994 O 633.514 1.82226 1.16716 0
M  V30 6995 C 634.109 2.69029 -2.05935 0
M  V30 6996 C 632.668 3.2161 -1.95561 0
M  V30 6997 C 631.815 1.94321 -1.97825 0
M  V30 6998 H 634.766 0.729272 -1.40951 0
M  V30 6999 H 634.787 3.44204 -1.62184 0
M  V30 7000 H 634.299 2.35325 -3.08616 0
M  V30 7001 H 632.4 3.60045 -0.959076 0
M  V30 7002 H 632.513 3.87032 -2.82388 0
M  V30 7003 H 630.877 2.1131 -1.42198 0
M  V30 7004 H 631.66 1.62917 -3.0218 0
M  V30 7005 N 634.105 1.10431 1.1244 0
M  V30 7006 C 635.352 0.846717 1.83948 0
M  V30 7007 C 635.68 -0.627709 1.84093 0
M  V30 7008 O 634.935 -1.47876 1.28184 0
M  V30 7009 C 635.234 1.34022 3.3132 0
M  V30 7010 C 634.9 2.82606 3.51347 0
M  V30 7011 C 633.562 3.23182 3.56521 0
M  V30 7012 C 635.914 3.78356 3.58464 0
M  V30 7013 C 633.242 4.58258 3.66356 0
M  V30 7014 C 635.594 5.13234 3.69829 0
M  V30 7015 C 634.258 5.53384 3.73259 0
M  V30 7016 H 633.528 0.309836 0.673114 0
M  V30 7017 H 636.175 1.38091 1.32677 0
M  V30 7018 H 634.48 0.726047 3.85014 0
M  V30 7019 H 636.177 1.11739 3.85118 0
M  V30 7020 H 632.767 2.50212 3.47983 0
M  V30 7021 H 636.951 3.48115 3.53737 0
M  V30 7022 H 632.207 4.88787 3.67284 0
M  V30 7023 H 636.381 5.87272 3.74279 0
M  V30 7024 H 634.008 6.58045 3.80633 0
M  V30 7025 N 635.583 -1.29855 0.893053 0
M  V30 7026 C 636.831 -1.9544 0.514566 0
M  V30 7027 C 637.152 -1.70795 -0.940959 0
M  V30 7028 O 636.422 -1.03601 -1.66264 0
M  V30 7029 H 635.002 -0.723137 0.187302 0
M  V30 7030 H 637.664 -1.58234 1.13789 0
M  V30 7031 H 636.76 -3.04341 0.691581 0
M  V30 7032 N 637.061 -0.65484 -1.43351 0
M  V30 7033 C 638.308 -0.168892 -2.01794 0
M  V30 7034 C 638.636 1.2177 -1.51665 0
M  V30 7035 O 637.891 1.82717 -0.70092 0
M  V30 7036 C 638.19 -0.130424 -3.57162 0
M  V30 7037 C 637.856 -1.45898 -4.26643 0
M  V30 7038 C 636.518 -1.82279 -4.4534 0
M  V30 7039 C 638.87 -2.33485 -4.65976 0
M  V30 7040 C 636.198 -3.0591 -5.00635 0
M  V30 7041 C 638.55 -3.5641 -5.22642 0
M  V30 7042 C 637.214 -3.92985 -5.39555 0
M  V30 7043 H 636.484 -0.061802 -0.738418 0
M  V30 7044 H 639.131 -0.845869 -1.71806 0
M  V30 7045 H 637.436 0.630008 -3.86702 0
M  V30 7046 H 639.133 0.262465 -4.0014 0
M  V30 7047 H 635.723 -1.16591 -4.12437 0
M  V30 7048 H 639.907 -2.06668 -4.51223 0
M  V30 7049 H 635.163 -3.34295 -5.11915 0
M  V30 7050 H 639.337 -4.24495 -5.52066 0
M  V30 7051 H 636.964 -4.88862 -5.82167 0
M  V30 7052 N 638.539 1.52521 -0.396863 0
M  V30 7053 C 639.787 2.01274 0.182536 0
M  V30 7054 C 640.108 1.28485 1.46685 0
M  V30 7055 O 639.378 0.407134 1.91623 0
M  V30 7056 H 637.958 0.743671 0.0704442 0
M  V30 7057 H 640.62 1.87547 -0.530289 0
M  V30 7058 H 639.716 3.09687 0.387385 0
M  V30 7059 N 640.017 0.126909 1.57088 0
M  V30 7060 C 641.428 -0.397201 1.82426 0
M  V30 7061 C 641.779 -1.66084 1.04453 0
M  V30 7062 O 640.904 -2.14534 0.283552 0
M  V30 7063 C 641.499 -0.727411 3.30899 0
M  V30 7064 C 640.058 -1.19612 3.56889 0
M  V30 7065 C 639.205 -0.20885 2.76512 0
M  V30 7066 H 642.156 0.351924 1.54749 0
M  V30 7067 H 642.177 -1.58407 3.45959 0
M  V30 7068 H 641.689 0.19247 3.87622 0
M  V30 7069 H 639.79 -2.13263 3.05532 0
M  V30 7070 H 639.903 -1.13598 4.65438 0
M  V30 7071 H 638.267 -0.697479 2.44964 0
M  V30 7072 H 639.05 0.704267 3.35998 0
M  V30 7073 N 641.495 -1.56914 -0.146875 0
M  V30 7074 C 642.911 -1.51582 -0.499518 0
M  V30 7075 C 643.111 -0.83535 -1.83369 0
M  V30 7076 O 642.167 -0.405932 -2.49216 0
M  V30 7077 C 643.48 -2.96349 -0.509711 0
M  V30 7078 C 645.028 -3.07288 -0.595217 0
M  V30 7079 C 645.503 -4.53562 -0.636071 0
M  V30 7080 N 646.994 -4.57906 -0.69829 0
M  V30 7081 C 647.729 -5.68462 -0.750886 0
M  V30 7082 N 647.225 -6.88588 -0.76282 0
M  V30 7083 N 649.018 -5.56496 -0.791777 0
M  V30 7084 H 641.169 -1.99547 0.727656 0
M  V30 7085 H 643.432 -0.910113 0.265327 0
M  V30 7086 H 643.138 -3.4939 0.402409 0
M  V30 7087 H 643.012 -3.52307 -1.34758 0
M  V30 7088 H 645.399 -2.54266 -1.49776 0
M  V30 7089 H 645.48 -2.54373 0.2698 0
M  V30 7090 H 645.124 -5.07222 0.262313 0
M  V30 7091 H 645.054 -5.04259 -1.51758 0
M  V30 7092 H 647.545 -3.71429 -0.696362 0
M  V30 7093 H 647.858 -7.68598 -0.804804 0
M  V30 7094 H 646.203 -6.91148 -0.730694 0
M  V30 7095 H 649.394 -4.61562 -0.779624 0
M  V30 7096 H 649.567 -6.42671 -0.829301 0
M  V30 7097 N 642.974 0.416227 -1.52004 0
M  V30 7098 C 644.222 1.16153 -1.65387 0
M  V30 7099 C 644.543 1.91208 -0.382669 0
M  V30 7100 O 643.813 1.86413 0.602231 0
M  V30 7101 H 642.393 0.431765 -0.60958 0
M  V30 7102 H 645.055 0.475151 -1.89019 0
M  V30 7103 H 644.151 1.87952 -2.4916 0
M  V30 7104 N 644.452 1.42507 0.673017 0
M  V30 7105 C 645.692 1.44559 1.44507 0
M  V30 7106 C 646.056 0.0606206 1.91904 0
M  V30 7107 O 647.257 -0.044139 2.68764 0
M  V30 7108 C 645.528 2.44291 2.60877 0
M  V30 7109 S 647.087 2.65059 3.49699 0
M  V30 7110 H 643.905 0.51181 0.49353 0
M  V30 7111 H 646.507 1.79124 0.783256 0
M  V30 7112 H 645.211 3.43685 2.24297 0
M  V30 7113 H 644.742 2.11157 3.31928 0
M  V30 7114 H 646.757 1.93494 4.56919 0
M  V30 7115 N 645.93 -0.909495 1.28709 0
M  V30 7116 C 646.893 -1.99399 1.13016 0
M  V30 7117 C 647.893 -1.60654 0.068536 0
M  V30 7118 O 649.083 -1.71334 0.314671 0
M  V30 7119 C 646.215 -3.33078 0.726085 0
M  V30 7120 H 647.408 -2.14751 2.09338 0
M  V30 7121 H 644.961 -1.09272 1.11756 0
M  V30 7122 H 645.696 -3.23428 -0.23771 0
M  V30 7123 H 645.481 -3.62562 1.49302 0
M  V30 7124 H 646.971 -4.12681 0.639058 0
M  V30 7125 N 647.408 -1.11026 -1.11852 0
M  V30 7126 C 648.656 -0.854769 -1.83134 0
M  V30 7127 C 648.977 0.621375 -1.84835 0
M  V30 7128 O 648.247 1.45129 -1.31584 0
M  V30 7129 H 646.827 -0.313229 -0.678157 0
M  V30 7130 H 649.489 -1.40178 -1.35411 0
M  V30 7131 H 648.585 -1.22311 -2.87135 0
M  V30 7132 N 648.886 1.2938 -0.899927 0
M  V30 7133 C 649.833 2.27713 -0.376243 0
M  V30 7134 C 650.803 1.57016 0.541774 0
M  V30 7135 O 651.988 1.84997 0.466966 0
M  V30 7136 C 649.128 3.42889 0.39 0
M  V30 7137 C 648.241 4.28369 -0.558938 0
M  V30 7138 C 647.376 5.30726 0.224379 0
M  V30 7139 C 646.415 6.07862 -0.719068 0
M  V30 7140 N 645.552 7.02094 0.0298569 0
M  V30 7141 H 650.392 2.71888 -1.21988 0
M  V30 7142 H 647.929 1.33724 -0.612879 0
M  V30 7143 H 649.887 4.08443 0.850314 0
M  V30 7144 H 648.517 2.99743 1.19809 0
M  V30 7145 H 647.569 3.62986 -1.13777 0
M  V30 7146 H 648.881 4.82068 -1.2811 0
M  V30 7147 H 648.035 6.02098 0.745881 0
M  V30 7148 H 646.774 4.77759 0.979674 0
M  V30 7149 H 645.779 5.35353 -1.25207 0
M  V30 7150 H 647.004 6.62917 -1.4737 0
M  V30 7151 H 644.95 6.51496 0.767415 0
M  V30 7152 H 644.867 7.5335 -0.632391 0
M  V30 7153 H 646.135 7.77685 0.531615 0
M  V30 7154 N 650.364 0.662433 1.43002 0
M  V30 7155 C 651.594 0.187343 2.05749 0
M  V30 7156 C 652.002 -1.15582 1.49791 0
M  V30 7157 O 651.345 -1.72651 0.627487 0
M  V30 7158 C 651.407 0.0316493 3.59486 0
M  V30 7159 C 651.071 1.30156 4.38073 0
M  V30 7160 C 652.068 2.23234 4.69535 0
M  V30 7161 C 649.753 1.54572 4.77926 0
M  V30 7162 C 651.747 3.39012 5.39768 0
M  V30 7163 C 649.434 2.70641 5.47902 0
M  V30 7164 C 650.432 3.62687 5.78746 0
M  V30 7165 O 650.12 4.76728 6.47291 0
M  V30 7166 H 649.852 0.0915214 0.669776 0
M  V30 7167 H 652.406 0.905982 1.8434 0
M  V30 7168 H 650.636 -0.742451 3.79506 0
M  V30 7169 H 652.325 -0.401977 4.03905 0
M  V30 7170 H 653.091 2.05616 4.39257 0
M  V30 7171 H 648.97 0.83804 4.53319 0
M  V30 7172 H 652.514 4.10877 5.63761 0
M  V30 7173 H 648.411 2.88189 5.77596 0
M  V30 7174 H 649.179 4.76113 6.65777 0
M  V30 7175 N 651.842 -1.52309 0.404946 0
M  V30 7176 C 653.091 -2.00952 -0.173529 0
M  V30 7177 C 653.404 -1.29512 -1.46581 0
M  V30 7178 O 654.61 -1.6895 -2.12528 0
M  V30 7179 C 653.066 -3.58097 -0.359801 0
M  V30 7180 C 652.674 -4.38449 0.920138 0
M  V30 7181 C 654.418 -4.14984 -0.893794 0
M  V30 7182 C 652.325 -5.87227 0.701285 0
M  V30 7183 H 651.255 -0.750871 -0.0686244 0
M  V30 7184 H 653.906 -1.75687 0.529749 0
M  V30 7185 H 652.288 -3.79675 -1.12531 0
M  V30 7186 H 653.462 -4.28633 1.69147 0
M  V30 7187 H 651.777 -3.92859 1.38024 0
M  V30 7188 H 654.374 -5.23813 -1.0735 0
M  V30 7189 H 654.717 -3.72072 -1.8673 0
M  V30 7190 H 655.25 -3.97358 -0.187453 0
M  V30 7191 H 651.989 -6.34491 1.64624 0
M  V30 7192 H 651.509 -5.99792 -0.0308288 0
M  V30 7193 H 653.188 -6.46096 0.341846 0
M  V30 7194 N 653.32 -0.135238 -1.57019 0
M  V30 7195 C 654.283 0.794707 -2.14981 0
M  V30 7196 C 655.283 1.18342 -1.08866 0
M  V30 7197 O 656.473 1.10627 -1.34563 0
M  V30 7198 C 653.605 2.07685 -2.70333 0
M  V30 7199 H 654.798 0.290696 -2.98488 0
M  V30 7200 H 652.351 0.114128 -1.55883 0
M  V30 7201 H 653.086 2.6248 -1.9046 0
M  V30 7202 H 652.871 1.80745 -3.47957 0
M  V30 7203 H 654.361 2.74127 -3.1503 0
M  V30 7204 N 654.798 1.5699 0.138552 0
M  V30 7205 C 655.731 1.94064 1.2006 0
M  V30 7206 C 656.709 0.807601 1.41126 0
M  V30 7207 O 657.893 1.06399 1.556 0
M  V30 7208 C 655.02 2.21999 2.55801 0
M  V30 7209 C 654.066 3.44617 2.5128 0
M  V30 7210 S 654.899 4.97888 1.97149 0
M  V30 7211 C 656.055 5.28954 3.34602 0
M  V30 7212 H 656.288 2.83843 0.884337 0
M  V30 7213 H 653.821 1.50507 0.344517 0
M  V30 7214 H 655.779 2.38772 3.33914 0
M  V30 7215 H 654.44 1.32869 2.84613 0
M  V30 7216 H 653.633 3.61466 3.51224 0
M  V30 7217 H 653.235 3.27129 1.8128 0
M  V30 7218 H 655.527 5.22938 4.30745 0
M  V30 7219 H 656.47 6.30346 3.22598 0
M  V30 7220 H 656.878 4.56455 3.32128 0
M  V30 7221 N 656.276 -0.40816 1.52223 0
M  V30 7222 C 657.522 -1.15673 1.66576 0
M  V30 7223 C 657.855 -1.90141 0.394996 0
M  V30 7224 O 657.13 -1.84798 -0.606613 0
M  V30 7225 C 657.413 -2.15042 2.88841 0
M  V30 7226 C 657.266 -1.44465 4.25969 0
M  V30 7227 C 658.585 -3.15699 3.0663 0
M  V30 7228 H 655.704 -0.41916 0.606196 0
M  V30 7229 H 658.346 -0.442348 1.84779 0
M  V30 7230 H 656.496 -2.75964 2.73452 0
M  V30 7231 H 658.168 -0.866544 4.53088 0
M  V30 7232 H 656.411 -0.746612 4.27327 0
M  V30 7233 H 657.082 -2.16976 5.07568 0
M  V30 7234 H 659.558 -2.64854 3.20923 0
M  V30 7235 H 658.434 -3.82491 3.9369 0
M  V30 7236 H 658.695 -3.83481 2.19987 0
M  V30 7237 N 657.755 -1.42862 -0.66545 0
M  V30 7238 C 658.688 -1.41509 -1.79026 0
M  V30 7239 C 659.666 -0.278106 -1.60204 0
M  V30 7240 O 660.85 -0.469792 -1.82552 0
M  V30 7241 C 657.977 -1.21494 -3.1616 0
M  V30 7242 C 657.023 -2.38308 -3.53711 0
M  V30 7243 S 657.856 -4.00852 -3.55075 0
M  V30 7244 C 659.012 -3.83197 -4.94885 0
M  V30 7245 H 659.245 -2.36691 -1.79902 0
M  V30 7246 H 656.778 -1.29746 -0.836977 0
M  V30 7247 H 658.736 -1.10633 -3.95311 0
M  V30 7248 H 657.397 -0.27881 -3.1286 0
M  V30 7249 H 656.59 -2.20076 -4.53412 0
M  V30 7250 H 656.192 -2.45732 -2.81943 0
M  V30 7251 H 658.484 -3.44765 -5.83218 0
M  V30 7252 H 659.427 -4.82607 -5.18166 0
M  V30 7253 H 659.835 -3.15884 -4.67843 0
M  V30 7254 N 659.233 0.902656 -1.29189 0
M  V30 7255 C 660.166 2.00816 -1.0839 0
M  V30 7256 C 661.144 1.626 0.00335266 0
M  V30 7257 O 662.328 1.87928 -0.146765 0
M  V30 7258 C 659.455 3.32415 -0.649435 0
M  V30 7259 C 658.501 3.89617 -1.73496 0
M  V30 7260 S 659.334 4.19091 -3.33351 0
M  V30 7261 C 660.49 5.53736 -2.91766 0
M  V30 7262 H 660.723 2.18151 -2.01984 0
M  V30 7263 H 658.256 1.0489 -1.13303 0
M  V30 7264 H 660.214 4.08492 -0.405479 0
M  V30 7265 H 658.875 3.12964 0.266857 0
M  V30 7266 H 658.068 4.84658 -1.38284 0
M  V30 7267 H 657.67 3.20217 -1.93229 0
M  V30 7268 H 659.962 6.34085 -2.38627 0
M  V30 7269 H 660.905 5.93871 -3.85647 0
M  V30 7270 H 661.313 5.15453 -2.30149 0
M  V30 7271 N 660.711 1.11618 1.11262 0
M  V30 7272 C 661.658 0.7762 2.17356 0
M  V30 7273 C 662.628 -0.253152 1.6416 0
M  V30 7274 O 663.813 -0.129655 1.90359 0
M  V30 7275 C 660.953 0.227581 3.44349 0
M  V30 7276 C 660.066 1.31372 4.1154 0
M  V30 7277 C 659.201 0.72544 5.26223 0
M  V30 7278 C 658.24 1.7913 5.85302 0
M  V30 7279 N 657.377 1.22237 6.91377 0
M  V30 7280 H 662.217 1.68508 2.45783 0
M  V30 7281 H 659.754 0.841475 1.20655 0
M  V30 7282 H 661.712 -0.108483 4.17059 0
M  V30 7283 H 660.342 -0.644486 3.16301 0
M  V30 7284 H 659.394 1.7667 3.36885 0
M  V30 7285 H 660.706 2.12005 4.51504 0
M  V30 7286 H 659.86 0.339541 6.05749 0
M  V30 7287 H 658.599 -0.112188 4.87571 0
M  V30 7288 H 657.604 2.18648 5.04453 0
M  V30 7289 H 658.829 2.63199 6.26022 0
M  V30 7290 H 656.775 0.406423 6.5474 0
M  V30 7291 H 656.692 1.9654 7.30006 0
M  V30 7292 H 657.96 0.863426 7.74703 0
M  V30 7293 N 662.189 -1.289 0.906776 0
M  V30 7294 C 663.152 -2.25777 0.394656 0
M  V30 7295 C 664.152 -1.53621 -0.475119 0
M  V30 7296 O 665.342 -1.71949 -0.279165 0
M  V30 7297 C 662.474 -3.38113 -0.43499 0
M  V30 7298 H 663.667 -2.72592 1.25033 0
M  V30 7299 H 661.22 -1.40463 0.685547 0
M  V30 7300 H 661.955 -2.96648 -1.31036 0
M  V30 7301 H 661.74 -3.91647 0.188334 0
M  V30 7302 H 663.23 -4.10168 -0.784365 0
M  V30 7303 N 663.667 -0.670007 -1.42649 0
M  V30 7304 C 664.916 -0.187526 -2.00826 0
M  V30 7305 C 665.229 1.21142 -1.53571 0
M  V30 7306 O 666.435 1.79001 -2.04134 0
M  V30 7307 C 664.891 -0.284409 -3.58774 0
M  V30 7308 C 664.499 -1.6871 -4.15019 0
M  V30 7309 C 666.243 0.139605 -4.2427 0
M  V30 7310 C 664.15 -1.73701 -5.65316 0
M  V30 7311 H 663.08 -0.0663468 -0.751075 0
M  V30 7312 H 665.731 -0.834492 -1.63427 0
M  V30 7313 H 664.113 0.430364 -3.93655 0
M  V30 7314 H 665.287 -2.42857 -3.91608 0
M  V30 7315 H 663.602 -2.05855 -3.61957 0
M  V30 7316 H 666.199 0.122398 -5.3456 0
M  V30 7317 H 666.542 1.17403 -3.99402 0
M  V30 7318 H 667.075 -0.523995 -3.94334 0
M  V30 7319 H 663.814 -2.75109 -5.94975 0
M  V30 7320 H 663.334 -1.03903 -5.90732 0
M  V30 7321 H 665.013 -1.48829 -6.2965 0
M  V30 7322 N 665.145 1.52092 -0.413018 0
M  V30 7323 C 666.075 2.30021 0.401567 0
M  V30 7324 C 667.056 1.34395 1.04269 0
M  V30 7325 O 668.241 1.63304 1.05097 0
M  V30 7326 C 665.371 3.12447 1.51638 0
M  V30 7327 C 664.325 4.16153 1.00005 0
M  V30 7328 C 663.651 4.86948 2.20875 0
M  V30 7329 C 664.951 5.22275 0.0513757 0
M  V30 7330 H 666.645 2.98365 -0.248704 0
M  V30 7331 H 664.191 1.4349 -0.121052 0
M  V30 7332 H 666.144 3.65733 2.09326 0
M  V30 7333 H 664.868 2.41879 2.19458 0
M  V30 7334 H 663.527 3.63882 0.445549 0
M  V30 7335 H 663.175 4.12905 2.8726 0
M  V30 7336 H 662.875 5.57057 1.86978 0
M  V30 7337 H 664.399 5.43048 2.79162 0
M  V30 7338 H 665.813 5.70778 0.537176 0
M  V30 7339 H 664.21 5.9977 -0.198977 0
M  V30 7340 H 665.28 4.76611 -0.892736 0
M  V30 7341 N 666.623 0.143563 1.56945 0
M  V30 7342 C 667.869 -0.50916 1.96304 0
M  V30 7343 C 668.202 -1.64741 1.0283 0
M  V30 7344 O 667.477 -1.94374 0.0700361 0
M  V30 7345 C 667.76 -1.0186 3.45393 0
M  V30 7346 C 667.613 0.117923 4.49645 0
M  V30 7347 C 668.932 -1.90151 3.96901 0
M  V30 7348 H 666.051 -0.183608 0.713763 0
M  V30 7349 H 668.693 0.224095 1.88674 0
M  V30 7350 H 666.843 -1.64345 3.52027 0
M  V30 7351 H 668.515 0.754145 4.55094 0
M  V30 7352 H 666.758 0.777568 4.26774 0
M  V30 7353 H 667.429 -0.280187 5.51288 0
M  V30 7354 H 669.905 -1.375 3.92725 0
M  V30 7355 H 668.781 -2.22707 5.0169 0
M  V30 7356 H 669.042 -2.83718 3.39052 0
M  V30 7357 N 668.101 -1.57061 -0.130224 0
M  V30 7358 C 669.329 -1.88432 -0.854456 0
M  V30 7359 C 669.744 -0.733608 -1.73964 0
M  V30 7360 O 669.101 0.296029 -1.80083 0
M  V30 7361 C 669.152 -3.1918 -1.69724 0
M  V30 7362 O 668.873 -4.2982 -0.847705 0
M  V30 7363 C 670.374 -3.6418 -2.5276 0
M  V30 7364 H 667.594 -0.624193 -0.246221 0
M  V30 7365 H 670.138 -2.04159 -0.11798 0
M  V30 7366 H 668.293 -3.05156 -2.3866 0
M  V30 7367 H 668.707 -5.04689 -1.42792 0
M  V30 7368 H 670.181 -4.58457 -3.07443 0
M  V30 7369 H 670.658 -2.90285 -3.29592 0
M  V30 7370 H 671.264 -3.80954 -1.89087 0
M  V30 7371 N 669.579 0.400081 -1.52437 0
M  V30 7372 C 670.509 1.4947 -1.7939 0
M  V30 7373 C 671.49 1.57383 -0.645329 0
M  V30 7374 O 672.675 1.72511 -0.891826 0
M  V30 7375 C 669.805 2.87201 -1.95276 0
M  V30 7376 C 668.759 2.94134 -3.10917 0
M  V30 7377 C 668.085 4.34207 -3.1204 0
M  V30 7378 C 669.385 2.64791 -4.50203 0
M  V30 7379 H 671.079 1.27165 -2.71052 0
M  V30 7380 H 668.625 0.610312 -1.30427 0
M  V30 7381 H 670.578 3.63772 -2.12715 0
M  V30 7382 H 669.302 3.10819 -1.00294 0
M  V30 7383 H 667.961 2.20009 -2.93243 0
M  V30 7384 H 667.609 4.54848 -2.14761 0
M  V30 7385 H 667.309 4.39768 -3.89715 0
M  V30 7386 H 668.833 5.127 -3.31619 0
M  V30 7387 H 670.247 3.31083 -4.68035 0
M  V30 7388 H 668.644 2.81717 -5.29864 0
M  V30 7389 H 669.714 1.60184 -4.57678 0
M  V30 7390 N 671.057 1.43213 0.657864 0
M  V30 7391 C 671.987 1.50815 1.78262 0
M  V30 7392 C 672.968 0.363211 1.66177 0
M  V30 7393 O 674.153 0.579806 1.85343 0
M  V30 7394 C 671.283 1.42625 3.16663 0
M  V30 7395 C 670.237 2.5532 3.43505 0
M  V30 7396 C 669.563 2.32184 4.81658 0
M  V30 7397 C 670.863 3.97583 3.38711 0
M  V30 7398 H 672.557 2.44954 1.72157 0
M  V30 7399 H 670.103 1.17896 0.82683 0
M  V30 7400 H 672.056 1.46548 3.95097 0
M  V30 7401 H 670.78 0.449877 3.23487 0
M  V30 7402 H 669.439 2.50742 2.6744 0
M  V30 7403 H 669.087 1.32801 4.85153 0
M  V30 7404 H 668.787 3.07724 5.00579 0
M  V30 7405 H 670.311 2.37883 5.62356 0
M  V30 7406 H 671.725 4.03673 4.07089 0
M  V30 7407 H 670.122 4.73112 3.69168 0
M  V30 7408 H 671.192 4.23049 2.36976 0
M  V30 7409 N 672.536 -0.895792 1.29666 0
M  V30 7410 C 673.952 -1.17726 1.07763 0
M  V30 7411 C 674.152 -2.00794 -0.168576 0
M  V30 7412 O 673.208 -2.37213 -0.865244 0
M  V30 7413 C 674.521 -1.89441 2.33522 0
M  V30 7414 C 676.069 -2.02251 2.3888 0
M  V30 7415 C 676.544 -2.77378 3.64452 0
M  V30 7416 N 678.035 -2.8493 3.65198 0
M  V30 7417 C 678.77 -3.43606 4.59045 0
M  V30 7418 N 678.266 -4.03417 5.63228 0
M  V30 7419 N 680.059 -3.41317 4.46608 0
M  V30 7420 H 672.21 -0.341652 2.09634 0
M  V30 7421 H 674.473 -0.213865 0.923561 0
M  V30 7422 H 674.179 -1.35842 3.24407 0
M  V30 7423 H 674.053 -2.89893 2.41334 0
M  V30 7424 H 676.44 -2.55025 1.4848 0
M  V30 7425 H 676.521 -1.0092 2.3505 0
M  V30 7426 H 676.165 -2.25279 4.55205 0
M  V30 7427 H 676.095 -3.79062 3.65541 0
M  V30 7428 H 678.586 -2.42453 2.89871 0
M  V30 7429 H 678.899 -4.46224 6.30955 0
M  V30 7430 H 677.244 -4.01868 5.67033 0
M  V30 7431 H 680.435 -2.93812 3.64407 0
M  V30 7432 H 680.608 -3.86751 5.1993 0
M  V30 7433 N 674.014 -1.12206 -1.10668 0
M  V30 7434 C 675.43 -0.857619 -1.346 0
M  V30 7435 C 675.63 0.513542 -1.94846 0
M  V30 7436 O 674.686 1.26273 -2.18658 0
M  V30 7437 C 675.999 -1.97212 -2.26998 0
M  V30 7438 C 677.547 -2.00272 -2.40542 0
M  V30 7439 C 678.022 -3.10948 -3.36267 0
M  V30 7440 N 679.513 -3.10375 -3.43834 0
M  V30 7441 C 680.248 -3.92651 -4.17867 0
M  V30 7442 N 679.744 -4.84911 -4.94807 0
M  V30 7443 N 681.537 -3.80798 -4.1346 0
M  V30 7444 H 673.688 -2.00558 -0.699306 0
M  V30 7445 H 675.951 -0.872612 -0.370477 0
M  V30 7446 H 675.657 -2.96002 -1.89936 0
M  V30 7447 H 675.531 -1.87521 -3.27286 0
M  V30 7448 H 677.918 -1.02103 -2.76874 0
M  V30 7449 H 677.999 -2.14037 -1.40077 0
M  V30 7450 H 677.643 -4.09348 -3.00661 0
M  V30 7451 H 677.573 -2.94421 -4.36605 0
M  V30 7452 H 680.064 -2.43536 -2.88961 0
M  V30 7453 H 680.377 -5.44207 -5.48688 0
M  V30 7454 H 678.722 -4.88926 -4.93939 0
M  V30 7455 H 681.913 -3.08058 -3.52445 0
M  V30 7456 H 682.086 -4.4515 -4.70898 0
M  V30 7457 N 675.492 1.28418 -0.913599 0
M  V30 7458 C 676.739 1.94981 -0.546674 0
M  V30 7459 C 677.067 1.7192 0.909606 0
M  V30 7460 O 676.322 1.03314 1.66207 0
M  V30 7461 C 676.621 3.48283 -0.802099 0
M  V30 7462 C 676.287 3.91444 -2.2379 0
M  V30 7463 C 674.949 4.02939 -2.63046 0
M  V30 7464 C 677.301 4.13542 -3.17227 0
M  V30 7465 C 674.629 4.3391 -3.94891 0
M  V30 7466 C 676.981 4.45992 -4.48636 0
M  V30 7467 C 675.645 4.55698 -4.87746 0
M  V30 7468 H 674.915 0.713487 -0.200042 0
M  V30 7469 H 677.562 1.52756 -1.15489 0
M  V30 7470 H 675.867 3.91643 -0.111076 0
M  V30 7471 H 677.564 3.97903 -0.497375 0
M  V30 7472 H 674.154 3.83024 -1.9233 0
M  V30 7473 H 678.338 4.04114 -2.88107 0
M  V30 7474 H 673.594 4.39631 -4.24894 0
M  V30 7475 H 677.768 4.62038 -5.21051 0
M  V30 7476 H 675.395 4.79451 -5.89942 0
M  V30 7477 N 676.97 0.677563 1.42291 0
M  V30 7478 C 677.92 -0.0218641 2.2799 0
M  V30 7479 C 678.904 -0.770816 1.41235 0
M  V30 7480 O 680.096 -0.649273 1.64662 0
M  V30 7481 C 677.225 -0.970449 3.29298 0
M  V30 7482 C 676.311 -0.218695 4.23536 0
M  V30 7483 N 676.702 0.777908 4.99782 0
M  V30 7484 C 675 -0.456748 4.43655 0
M  V30 7485 C 675.701 1.22632 5.68627 0
M  V30 7486 N 674.677 0.55573 5.40752 0
M  V30 7487 H 678.479 0.742516 2.84366 0
M  V30 7488 H 675.993 0.506862 1.54288 0
M  V30 7489 H 677.99 -1.48652 3.89497 0
M  V30 7490 H 676.65 -1.73463 2.74483 0
M  V30 7491 H 677.661 1.15754 5.04798 0
M  V30 7492 H 674.338 -1.20021 3.99877 0
M  V30 7493 H 675.728 2.05231 6.39789 0
M  V30 7494 N 678.448 -1.51871 0.421078 0
M  V30 7495 C 679.694 -2.02237 -0.151014 0
M  V30 7496 C 680.027 -1.30554 -1.43768 0
M  V30 7497 O 679.302 -0.41546 -1.90011 0
M  V30 7498 C 679.585 -3.5802 -0.386482 0
M  V30 7499 C 679.438 -4.40339 0.9177 0
M  V30 7500 C 680.757 -4.24444 -1.16342 0
M  V30 7501 H 677.876 -0.735062 -0.0534102 0
M  V30 7502 H 680.518 -1.81656 0.556888 0
M  V30 7503 H 678.668 -3.75688 -0.989494 0
M  V30 7504 H 680.34 -4.34357 1.55344 0
M  V30 7505 H 678.583 -4.06073 1.526 0
M  V30 7506 H 679.254 -5.47451 0.707187 0
M  V30 7507 H 681.73 -4.10948 -0.652788 0
M  V30 7508 H 680.606 -5.33358 -1.29693 0
M  V30 7509 H 680.867 -3.84204 -2.18724 0
M  V30 7510 N 679.926 -0.151884 -1.56866 0
M  V30 7511 C 680.873 0.785936 -2.17006 0
M  V30 7512 C 681.843 1.2407 -1.10435 0
M  V30 7513 O 683.028 1.31235 -1.38499 0
M  V30 7514 C 680.168 2.01771 -2.79969 0
M  V30 7515 C 679.281 1.6083 -4.00946 0
M  V30 7516 C 678.416 2.79224 -4.51893 0
M  V30 7517 C 677.455 2.3468 -5.65324 0
M  V30 7518 N 676.592 3.461 -6.10867 0
M  V30 7519 H 681.432 0.266286 -2.96808 0
M  V30 7520 H 678.969 0.11972 -1.46612 0
M  V30 7521 H 680.927 2.73989 -3.14621 0
M  V30 7522 H 679.557 2.51139 -2.02803 0
M  V30 7523 H 678.609 0.783592 -3.72242 0
M  V30 7524 H 679.921 1.24119 -4.83111 0
M  V30 7525 H 679.075 3.59625 -4.88625 0
M  V30 7526 H 677.814 3.19183 -3.68746 0
M  V30 7527 H 676.819 1.52721 -5.28163 0
M  V30 7528 H 678.044 1.95801 -6.5026 0
M  V30 7529 H 675.99 3.85671 -5.30654 0
M  V30 7530 H 675.907 3.1342 -6.87971 0
M  V30 7531 H 677.175 4.26844 -6.52246 0
M  V30 7532 N 681.404 1.57128 0.121893 0
M  V30 7533 C 682.632 1.88883 0.844451 0
M  V30 7534 C 683.047 0.742824 1.73573 0
M  V30 7535 O 682.404 -0.286475 1.80238 0
M  V30 7536 C 682.455 3.20076 1.68029 0
M  V30 7537 O 682.176 4.30264 0.824898 0
M  V30 7538 C 683.677 3.65515 2.50826 0
M  V30 7539 H 680.897 0.62549 0.242907 0
M  V30 7540 H 683.441 2.04219 0.107151 0
M  V30 7541 H 681.596 3.06418 2.37038 0
M  V30 7542 H 682.01 5.05439 1.40113 0
M  V30 7543 H 683.484 4.60081 3.05008 0
M  V30 7544 H 683.961 2.92029 3.28048 0
M  V30 7545 H 684.567 3.81952 1.87064 0
M  V30 7546 N 682.882 -0.391992 1.52647 0
M  V30 7547 C 683.812 -1.48517 1.8018 0
M  V30 7548 C 684.793 -1.57039 0.653667 0
M  V30 7549 O 685.978 -1.72036 0.900962 0
M  V30 7550 C 683.108 -2.86161 1.96797 0
M  V30 7551 C 682.062 -2.92481 3.12472 0
M  V30 7552 C 681.388 -4.32546 3.14338 0
M  V30 7553 C 682.688 -2.624 4.51601 0
M  V30 7554 H 684.382 -1.25726 2.71723 0
M  V30 7555 H 681.928 -0.603387 1.30749 0
M  V30 7556 H 683.881 -3.62639 2.14641 0
M  V30 7557 H 682.605 -3.10283 1.01941 0
M  V30 7558 H 681.264 -2.18451 2.94406 0
M  V30 7559 H 680.912 -4.53703 2.1717 0
M  V30 7560 H 680.612 -4.37695 3.92042 0
M  V30 7561 H 682.136 -5.10934 3.34333 0
M  V30 7562 H 683.55 -3.28596 4.69785 0
M  V30 7563 H 681.947 -2.78903 5.3135 0
M  V30 7564 H 683.017 -1.57754 4.58521 0
M  V30 7565 N 684.36 -1.4356 -0.65026 0
M  V30 7566 C 685.292 -1.44918 -1.77571 0
M  V30 7567 C 686.305 -0.344925 -1.59104 0
M  V30 7568 O 687.494 -0.609537 -1.6777 0
M  V30 7569 C 684.594 -1.24914 -3.15039 0
M  V30 7570 C 683.767 -2.48232 -3.60138 0
M  V30 7571 C 682.826 -2.23409 -4.76419 0
M  V30 7572 O 681.852 -2.9678 -4.85706 0
M  V30 7573 N 683.054 -1.25259 -5.66825 0
M  V30 7574 H 685.819 -2.41935 -1.76883 0
M  V30 7575 H 683.38 -1.38754 -0.834202 0
M  V30 7576 H 685.372 -1.06185 -3.90521 0
M  V30 7577 H 683.942 -0.363319 -3.10481 0
M  V30 7578 H 683.162 -2.82366 -2.75069 0
M  V30 7579 H 684.45 -3.30296 -3.87017 0
M  V30 7580 H 683.848 -0.646246 -5.61997 0
M  V30 7581 H 682.405 -1.12513 -6.42016 0
M  V30 7582 N 685.838 0.888903 -1.30139 0
M  V30 7583 C 687.086 1.63713 -1.18501 0
M  V30 7584 C 687.407 1.9324 0.261399 0
M  V30 7585 O 686.677 1.56608 1.17689 0
M  V30 7586 H 685.257 0.606861 -0.435579 0
M  V30 7587 H 687.919 1.06525 -1.63213 0
M  V30 7588 H 687.015 2.58894 -1.743 0
M  V30 7589 N 687.317 1.12792 1.10072 0
M  V30 7590 C 688.249 0.757003 2.16338 0
M  V30 7591 C 689.262 -0.218144 1.61332 0
M  V30 7592 O 690.451 0.0010727 1.785 0
M  V30 7593 C 687.551 0.100303 3.38752 0
M  V30 7594 C 686.724 1.10586 4.2319 0
M  V30 7595 C 685.783 0.47609 5.24042 0
M  V30 7596 O 684.809 1.13418 5.57786 0
M  V30 7597 N 686.011 -0.754823 5.75572 0
M  V30 7598 H 688.776 1.6714 2.48766 0
M  V30 7599 H 686.337 1.02003 1.25726 0
M  V30 7600 H 688.329 -0.333092 4.03327 0
M  V30 7601 H 686.899 -0.716915 3.04268 0
M  V30 7602 H 686.119 1.71677 3.54853 0
M  V30 7603 H 687.407 1.78571 4.76435 0
M  V30 7604 H 686.805 -1.30838 5.50362 0
M  V30 7605 H 685.362 -1.13098 6.41913 0
M  V30 7606 N 688.795 -1.27931 0.920396 0
M  V30 7607 C 690.035 -1.96459 0.564198 0
M  V30 7608 C 690.399 -1.70802 -0.876967 0
M  V30 7609 O 691.6 -2.32956 -1.34107 0
M  V30 7610 C 689.871 -3.46583 0.872641 0
M  V30 7611 S 691.43 -4.34343 0.623859 0
M  V30 7612 H 688.248 -0.679735 0.208523 0
M  V30 7613 H 690.85 -1.55319 1.18727 0
M  V30 7614 H 689.554 -3.62753 1.91933 0
M  V30 7615 H 689.085 -3.92677 0.238479 0
M  V30 7616 H 691.1 -4.93449 -0.521744 0
M  V30 7617 N 690.273 -0.685099 -1.4193 0
M  V30 7618 C 691.519 -0.211971 -2.01689 0
M  V30 7619 C 691.852 1.18189 -1.54094 0
M  V30 7620 O 691.127 1.79559 -0.747572 0
M  V30 7621 C 691.41 -0.258019 -3.59174 0
M  V30 7622 C 691.263 -1.68807 -4.16922 0
M  V30 7623 C 692.582 0.388044 -4.38386 0
M  V30 7624 H 689.701 -0.0784987 -0.732808 0
M  V30 7625 H 692.343 -0.871837 -1.68816 0
M  V30 7626 H 690.493 0.303832 -3.8731 0
M  V30 7627 H 692.165 -2.30296 -3.99702 0
M  V30 7628 H 690.408 -2.22553 -3.72361 0
M  V30 7629 H 691.079 -1.6719 -5.26072 0
M  V30 7630 H 693.555 -0.0903432 -4.16002 0
M  V30 7631 H 692.431 0.325232 -5.47936 0
M  V30 7632 H 692.692 1.4672 -4.17044 0
M  V30 7633 N 691.751 1.51645 -0.429126 0
M  V30 7634 C 692.661 2.31288 0.392809 0
M  V30 7635 C 693.677 1.39852 1.03525 0
M  V30 7636 O 694.853 1.72926 1.03241 0
M  V30 7637 C 691.918 3.13347 1.48372 0
M  V30 7638 C 690.979 4.20551 0.862268 0
M  V30 7639 C 690.212 4.98688 1.9012 0
M  V30 7640 O 690.435 4.77359 3.12225 0
M  V30 7641 O 689.369 5.83005 1.4963 0
M  V30 7642 H 693.195 3.02609 -0.257138 0
M  V30 7643 H 690.78 1.48163 -0.191851 0
M  V30 7644 H 692.662 3.64387 2.1166 0
M  V30 7645 H 691.337 2.44799 2.1179 0
M  V30 7646 H 690.244 3.73609 0.191568 0
M  V30 7647 H 691.577 4.91449 0.271704 0
M  V30 7648 N 693.229 0.160201 1.56784 0
M  V30 7649 C 694.454 -0.497373 2.01348 0
M  V30 7650 C 694.879 -1.56757 1.03966 0
M  V30 7651 O 694.237 -1.81292 0.0174455 0
M  V30 7652 C 694.285 -1.0628 3.44582 0
M  V30 7653 O 693.389 -2.17723 3.50244 0
M  V30 7654 H 692.73 -0.120295 0.653012 0
M  V30 7655 H 695.26 0.260821 2.02931 0
M  V30 7656 H 695.27 -1.38819 3.83658 0
M  V30 7657 H 693.945 -0.279166 4.14962 0
M  V30 7658 H 692.522 -1.86313 3.2302 0
M  V30 7659 N 694.707 -1.5719 -0.113559 0
M  V30 7660 C 695.956 -1.84325 -0.818984 0
M  V30 7661 C 696.269 -0.746685 -1.80787 0
M  V30 7662 O 697.475 -0.904596 -2.55987 0
M  V30 7663 C 695.931 -3.26818 -1.50724 0
M  V30 7664 C 695.539 -4.44498 -0.559065 0
M  V30 7665 C 697.283 -3.63196 -2.19748 0
M  V30 7666 C 695.19 -5.7802 -1.25086 0
M  V30 7667 H 694.12 -0.687507 -0.309596 0
M  V30 7668 H 696.771 -1.8336 -0.0717621 0
M  V30 7669 H 695.153 -3.22269 -2.30128 0
M  V30 7670 H 696.327 -4.60356 0.202146 0
M  V30 7671 H 694.642 -4.16393 0.024495 0
M  V30 7672 H 697.239 -4.60226 -2.72206 0
M  V30 7673 H 697.582 -2.90899 -2.97798 0
M  V30 7674 H 698.115 -3.69553 -1.47226 0
M  V30 7675 H 694.854 -6.53501 -0.511539 0
M  V30 7676 H 694.374 -5.66038 -1.98395 0
M  V30 7677 H 696.053 -6.2196 -1.78253 0
M  V30 7678 N 696.185 0.383891 -1.52853 0
M  V30 7679 C 697.117 1.48889 -1.74255 0
M  V30 7680 C 698.13 1.50405 -0.623063 0
M  V30 7681 O 699.319 1.54215 -0.898887 0
M  V30 7682 C 696.419 2.87721 -1.79081 0
M  V30 7683 C 695.592 3.10111 -3.08464 0
M  V30 7684 C 694.651 4.28954 -3.0477 0
M  V30 7685 O 693.677 4.25012 -3.78621 0
M  V30 7686 N 694.879 5.35411 -2.24311 0
M  V30 7687 H 697.644 1.30915 -2.69595 0
M  V30 7688 H 695.205 0.573454 -1.51404 0
M  V30 7689 H 697.197 3.65333 -1.7411 0
M  V30 7690 H 695.767 2.99029 -0.911052 0
M  V30 7691 H 694.987 2.20319 -3.26884 0
M  V30 7692 H 696.275 3.21928 -3.94005 0
M  V30 7693 H 695.673 5.41471 -1.63787 0
M  V30 7694 H 694.23 6.1167 -2.25175 0
M  V30 7695 N 697.663 1.43903 0.642637 0
M  V30 7696 C 698.61 1.49881 1.75512 0
M  V30 7697 C 699.58 0.347538 1.62423 0
M  V30 7698 O 700.765 0.556177 1.82514 0
M  V30 7699 C 697.905 1.43797 3.13714 0
M  V30 7700 C 697.018 2.6921 3.37861 0
M  V30 7701 C 696.153 2.5504 4.6597 0
M  V30 7702 C 695.192 3.75671 4.83257 0
M  V30 7703 N 694.329 3.60247 6.02633 0
M  V30 7704 H 699.169 2.44935 1.69737 0
M  V30 7705 H 696.706 1.21572 0.828165 0
M  V30 7706 H 698.664 1.38262 3.93624 0
M  V30 7707 H 697.294 0.523173 3.18532 0
M  V30 7708 H 696.346 2.8498 2.51973 0
M  V30 7709 H 697.658 3.58786 3.46517 0
M  V30 7710 H 696.812 2.47273 5.54023 0
M  V30 7711 H 695.551 1.63006 4.59653 0
M  V30 7712 H 694.556 3.83836 3.93637 0
M  V30 7713 H 695.781 4.68728 4.91397 0
M  V30 7714 H 693.727 2.70955 5.97427 0
M  V30 7715 H 693.644 4.43431 6.12295 0
M  V30 7716 H 694.912 3.56351 6.93278 0
M  V30 7717 N 699.141 -0.881989 1.30609 0
M  V30 7718 C 700.39 -1.62878 1.18969 0
M  V30 7719 C 700.703 -1.93946 -0.253859 0
M  V30 7720 O 701.909 -2.67008 -0.491813 0
M  V30 7721 C 700.365 -2.93573 2.0819 0
M  V30 7722 C 699.973 -2.70034 3.57471 0
M  V30 7723 C 701.717 -3.71543 2.0532 0
M  V30 7724 C 699.624 -3.96563 4.38739 0
M  V30 7725 H 698.554 -0.611092 0.441682 0
M  V30 7726 H 701.205 -0.976201 1.55379 0
M  V30 7727 H 699.587 -3.6014 1.64666 0
M  V30 7728 H 700.761 -2.11949 4.09163 0
M  V30 7729 H 699.076 -2.05435 3.62195 0
M  V30 7730 H 701.673 -4.65386 2.63288 0
M  V30 7731 H 702.016 -4.03167 1.03739 0
M  V30 7732 H 702.549 -3.11842 2.46981 0
M  V30 7733 H 699.288 -3.70095 5.41027 0
M  V30 7734 H 698.808 -4.54142 3.9181 0
M  V30 7735 H 700.487 -4.64557 4.50329 0
M  V30 7736 N 700.619 -1.13374 -1.09472 0
M  V30 7737 C 701.569 -0.77946 -2.14263 0
M  V30 7738 C 702.553 0.226271 -1.59301 0
M  V30 7739 O 703.745 0.0302581 -1.76974 0
M  V30 7740 C 700.874 -0.246635 -3.42413 0
M  V30 7741 C 699.96 -1.28124 -4.04283 0
M  V30 7742 N 700.351 -2.48201 -4.40715 0
M  V30 7743 C 698.649 -1.12892 -4.31476 0
M  V30 7744 C 699.35 -3.14347 -4.8945 0
M  V30 7745 N 698.326 -2.41771 -4.86876 0
M  V30 7746 H 702.128 -1.69305 -2.40235 0
M  V30 7747 H 699.642 -1.01598 -1.26695 0
M  V30 7748 H 701.639 0.0254131 -4.16892 0
M  V30 7749 H 700.299 0.661287 -3.17895 0
M  V30 7750 H 701.31 -2.85511 -4.32093 0
M  V30 7751 H 697.987 -0.279117 -4.16566 0
M  V30 7752 H 699.377 -4.16663 -5.27107 0
M  V30 7753 N 702.098 1.27442 -0.927168 0
M  V30 7754 C 703.375 1.89473 -0.485742 0
M  V30 7755 C 703.755 1.83922 1.03614 0
M  V30 7756 O 703.103 1.28409 1.89007 0
M  V30 7757 C 703.313 3.33417 -1.03123 0
M  V30 7758 C 704.661 4.10333 -1.0914 0
M  V30 7759 O 705.685 3.4243 -0.98082 0
M  V30 7760 O 704.544 5.31737 -1.26165 0
M  V30 7761 H 701.638 0.812124 -0.156154 0
M  V30 7762 H 704.184 1.35713 -1.01882 0
M  V30 7763 H 702.956 3.31747 -2.07508 0
M  V30 7764 H 702.579 3.94695 -0.479767 0
M  V30 7765 N 703.576 0.692616 1.41565 0
M  V30 7766 C 704.506 0.0397325 2.33466 0
M  V30 7767 C 705.487 -0.770334 1.51657 0
M  V30 7768 O 706.672 -0.723903 1.80203 0
M  V30 7769 C 703.802 -0.899495 3.3545 0
M  V30 7770 C 702.756 -0.196738 4.27548 0
M  V30 7771 C 702.082 -1.25012 5.19881 0
M  V30 7772 C 703.382 0.935158 5.1386 0
M  V30 7773 H 705.076 0.807296 2.88311 0
M  V30 7774 H 702.622 0.389665 1.38628 0
M  V30 7775 H 704.575 -1.36545 3.98665 0
M  V30 7776 H 703.299 -1.69869 2.78948 0
M  V30 7777 H 701.958 0.249158 3.65752 0
M  V30 7778 H 701.606 -2.04177 4.59696 0
M  V30 7779 H 701.306 -0.784931 5.82334 0
M  V30 7780 H 702.83 -1.71665 5.85972 0
M  V30 7781 H 704.244 0.549619 5.70659 0
M  V30 7782 H 702.641 1.32726 5.85238 0
M  V30 7783 H 703.711 1.77613 4.512 0
M  V30 7784 N 705.054 -1.51416 0.437162 0
M  V30 7785 C 706.279 -2.0699 -0.130424 0
M  V30 7786 C 706.704 -1.30249 -1.35709 0
M  V30 7787 O 706.062 -0.340388 -1.78076 0
M  V30 7788 C 706.11 -3.5801 -0.43142 0
M  V30 7789 O 705.214 -3.8345 -1.5179 0
M  V30 7790 H 704.555 -0.663997 -0.00194339 0
M  V30 7791 H 707.085 -1.95029 0.618445 0
M  V30 7792 H 707.095 -4.02261 -0.681926 0
M  V30 7793 H 705.77 -4.13291 0.465137 0
M  V30 7794 H 704.347 -3.51062 -1.25737 0
M  V30 7795 N 706.532 -0.168513 -1.56696 0
M  V30 7796 C 707.462 0.758563 -2.20835 0
M  V30 7797 C 708.443 1.24121 -1.1631 0
M  V30 7798 O 709.628 1.29487 -1.4473 0
M  V30 7799 C 706.758 1.9892 -2.8469 0
M  V30 7800 C 705.712 1.64252 -3.95228 0
M  V30 7801 C 705.038 2.94757 -4.46119 0
M  V30 7802 C 706.338 0.872675 -5.14958 0
M  V30 7803 H 708.032 0.223953 -2.98561 0
M  V30 7804 H 705.578 0.106277 -1.43607 0
M  V30 7805 H 707.531 2.64275 -3.28233 0
M  V30 7806 H 706.255 2.5479 -2.04327 0
M  V30 7807 H 704.914 1.01266 -3.52336 0
M  V30 7808 H 704.562 3.48662 -3.62552 0
M  V30 7809 H 704.262 2.72316 -5.2069 0
M  V30 7810 H 705.786 3.61147 -4.92347 0
M  V30 7811 H 707.2 1.42875 -5.55211 0
M  V30 7812 H 705.597 0.747402 -5.95428 0
M  V30 7813 H 706.667 -0.131535 -4.84722 0
M  V30 7814 N 708.01 1.57248 0.105221 0
M  V30 7815 C 708.96 1.9777 1.1345 0
M  V30 7816 C 709.944 0.854654 1.36325 0
M  V30 7817 O 711.136 1.11844 1.37186 0
M  V30 7818 C 708.265 2.39717 2.45745 0
M  V30 7819 C 707.351 3.58686 2.26286 0
M  V30 7820 N 707.742 4.73942 1.76671 0
M  V30 7821 C 706.04 3.64586 2.56891 0
M  V30 7822 C 706.741 5.55923 1.71245 0
M  V30 7823 N 705.717 4.98803 2.16093 0
M  V30 7824 H 709.519 2.84336 0.743664 0
M  V30 7825 H 707.033 1.59359 0.312787 0
M  V30 7826 H 709.03 2.66971 3.20206 0
M  V30 7827 H 707.69 1.54523 2.85574 0
M  V30 7828 H 708.701 4.9689 1.46016 0
M  V30 7829 H 705.378 2.90031 3.00314 0
M  V30 7830 H 706.768 6.58398 1.34022 0
M  V30 7831 N 709.488 -0.375779 1.53054 0
M  V30 7832 C 710.899 -0.95309 1.6054 0
M  V30 7833 C 711.25 -1.90575 0.466446 0
M  V30 7834 O 710.375 -2.12507 -0.408609 0
M  V30 7835 C 710.97 -1.73537 2.90982 0
M  V30 7836 C 709.529 -2.26218 3.00836 0
M  V30 7837 C 708.676 -1.07157 2.55759 0
M  V30 7838 H 711.627 -0.154895 1.57942 0
M  V30 7839 H 711.648 -2.59574 2.78211 0
M  V30 7840 H 711.16 -1.04176 3.73857 0
M  V30 7841 H 709.261 -2.98852 2.22527 0
M  V30 7842 H 709.374 -2.54799 4.05727 0
M  V30 7843 H 707.738 -1.43553 2.10391 0
M  V30 7844 H 708.521 -0.393099 3.41042 0
M  V30 7845 N 710.966 -1.44241 -0.634997 0
M  V30 7846 C 712.243 -1.37296 -1.39317 0
M  V30 7847 C 712.623 -0.0297532 -2.11079 0
M  V30 7848 O 711.971 0.987524 -2.06059 0
M  V30 7849 C 712.181 -2.56853 -2.36279 0
M  V30 7850 C 713.529 -3.00747 -2.99728 0
M  V30 7851 O 714.553 -2.5703 -2.46605 0
M  V30 7852 O 713.412 -3.76533 -3.96087 0
M  V30 7853 H 710.506 -0.543503 -0.623325 0
M  V30 7854 H 713.052 -1.56324 -0.660376 0
M  V30 7855 H 711.824 -3.46228 -1.82324 0
M  V30 7856 H 711.447 -2.40019 -3.16981 0
M  V30 7857 N 712.444 0.87505 -1.31075 0
M  V30 7858 C 713.354 2.01441 -1.20244 0
M  V30 7859 C 714.37 1.73584 -0.120227 0
M  V30 7860 O 715.546 1.98559 -0.337063 0
M  V30 7861 C 712.611 3.34675 -0.905199 0
M  V30 7862 C 711.672 3.75889 -2.0738 0
M  V30 7863 C 710.905 5.02764 -1.79064 0
M  V30 7864 O 711.128 5.65795 -0.723318 0
M  V30 7865 O 710.062 5.40623 -2.64594 0
M  V30 7866 H 713.888 2.13509 -2.1598 0
M  V30 7867 H 711.473 1.00257 -1.10765 0
M  V30 7868 H 713.355 4.1458 -0.755057 0
M  V30 7869 H 712.03 3.23692 0.0221695 0
M  V30 7870 H 710.937 2.96645 -2.27931 0
M  V30 7871 H 712.27 3.91489 -2.98324 0
M  V30 7872 N 713.922 1.13953 1.08869 0
M  V30 7873 C 715.15 0.92817 1.84912 0
M  V30 7874 C 715.565 -0.523197 1.81406 0
M  V30 7875 O 714.922 -1.36237 1.21432 0
M  V30 7876 C 714.973 1.41509 3.32652 0
M  V30 7877 O 714.694 2.80959 3.36145 0
M  V30 7878 C 716.195 1.243 4.25517 0
M  V30 7879 H 713.415 0.330612 0.583898 0
M  V30 7880 H 715.959 1.51349 1.37527 0
M  V30 7881 H 714.114 0.872648 3.77444 0
M  V30 7882 H 714.528 3.02704 4.28335 0
M  V30 7883 H 716.002 1.63237 5.27312 0
M  V30 7884 H 716.479 0.18532 4.38809 0
M  V30 7885 H 717.085 1.77375 3.86546 0
M  V30 7886 N 715.4 -1.26948 0.933913 0
M  V30 7887 C 716.347 -2.26635 0.436484 0
M  V30 7888 C 717.317 -1.58397 -0.499953 0
M  V30 7889 O 718.502 -1.86171 -0.417753 0
M  V30 7890 C 715.642 -3.43803 -0.298951 0
M  V30 7891 C 714.755 -4.26736 0.672316 0
M  V30 7892 C 713.89 -5.31134 -0.0835872 0
M  V30 7893 C 712.929 -6.05742 0.879979 0
M  V30 7894 N 712.066 -7.01926 0.156301 0
M  V30 7895 H 716.906 -2.68558 1.29154 0
M  V30 7896 H 714.443 -1.32052 0.648118 0
M  V30 7897 H 716.401 -4.10554 -0.741723 0
M  V30 7898 H 715.031 -3.02814 -1.1182 0
M  V30 7899 H 714.083 -3.59842 1.23361 0
M  V30 7900 H 715.395 -4.78502 1.40846 0
M  V30 7901 H 714.549 -6.03863 -0.585984 0
M  V30 7902 H 713.288 -4.80188 -0.852661 0
M  V30 7903 H 712.293 -5.31846 1.39357 0
M  V30 7904 H 713.518 -6.58777 1.64894 0
M  V30 7905 H 711.464 -6.53301 -0.594413 0
M  V30 7906 H 711.381 -7.51409 0.831906 0
M  V30 7907 H 712.649 -7.78821 -0.325239 0
M  V30 7908 N 716.879 -0.700114 -1.41195 0
M  V30 7909 C 717.827 -0.0263301 -2.32585 0
M  V30 7910 C 718.821 0.763683 -1.51209 0
M  V30 7911 O 720.027 0.668793 -1.67114 0
M  V30 7912 H 716.402 0.0102869 -0.75193 0
M  V30 7913 H 718.373 -0.814087 -2.8708 0
M  V30 7914 C 717.122 0.892793 -3.36042 0
M  V30 7915 H 716.445 0.294306 -3.98715 0
M  V30 7916 H 717.885 1.33247 -4.02518 0
M  V30 7917 C 716.344 2.01109 -2.7029 0
M  V30 7918 O 716.874 3.10035 -2.55423 0
M  V30 7919 N 715.08 1.79015 -2.28915 0
M  V30 7920 H 714.627 0.904275 -2.41207 0
M  V30 7921 H 714.585 2.54022 -1.85257 0
M  V30 7922 N 718.357 1.51182 -0.445186 0
M  V30 7923 C 719.29 2.24528 0.4077 0
M  V30 7924 C 720.268 1.26778 1.01814 0
M  V30 7925 O 721.452 1.55934 1.05909 0
M  V30 7926 C 718.579 3.00171 1.56892 0
M  V30 7927 C 717.625 4.12641 1.0784 0
M  V30 7928 S 718.458 5.35498 0.014049 0
M  V30 7929 C 719.614 6.14681 1.17975 0
M  V30 7930 H 719.847 2.96522 -0.214987 0
M  V30 7931 H 717.38 1.52681 -0.229781 0
M  V30 7932 H 719.338 3.44349 2.23459 0
M  V30 7933 H 717.999 2.27752 2.16304 0
M  V30 7934 H 717.192 4.64875 1.94698 0
M  V30 7935 H 716.794 3.70765 0.490852 0
M  V30 7936 H 719.086 6.44244 2.09658 0
M  V30 7937 H 720.029 7.04659 0.697222 0
M  V30 7938 H 720.437 5.46299 1.42187 0
M  V30 7939 N 719.835 0.176821 1.56605 0
M  V30 7940 C 720.765 -0.746841 2.21234 0
M  V30 7941 C 721.746 -1.23502 1.16967 0
M  V30 7942 O 722.931 -1.28718 1.45414 0
M  V30 7943 C 720.061 -1.97407 2.8574 0
M  V30 7944 C 719.015 -1.62153 3.96094 0
M  V30 7945 C 718.341 -2.92387 4.47676 0
M  V30 7946 C 719.641 -0.845353 5.15413 0
M  V30 7947 H 721.335 -0.208116 2.98676 0
M  V30 7948 H 718.881 -0.0986594 1.43662 0
M  V30 7949 H 720.834 -2.62531 3.2963 0
M  V30 7950 H 719.558 -2.53703 2.05676 0
M  V30 7951 H 718.217 -0.993964 3.52868 0
M  V30 7952 H 717.865 -3.46734 3.64396 0
M  V30 7953 H 717.565 -2.69551 5.22127 0
M  V30 7954 H 719.089 -3.5853 4.94255 0
M  V30 7955 H 720.503 -1.39929 5.55961 0
M  V30 7956 H 718.9 -0.715814 5.95815 0
M  V30 7957 H 719.97 0.157239 4.84645 0
M  V30 7958 N 721.313 -1.57302 -0.09688 0
M  V30 7959 C 722.223 -2.05258 -1.13606 0
M  V30 7960 C 723.239 -0.977137 -1.43972 0
M  V30 7961 O 724.415 -1.29018 -1.54649 0
M  V30 7962 C 721.48 -2.46593 -2.43706 0
M  V30 7963 C 720.541 -3.68322 -2.20538 0
M  V30 7964 C 719.774 -4.07676 -3.44435 0
M  V30 7965 O 719.997 -3.47141 -4.52603 0
M  V30 7966 O 718.931 -5.00641 -3.34129 0
M  V30 7967 H 722.757 -2.94069 -0.758752 0
M  V30 7968 H 720.342 -1.46164 -0.309263 0
M  V30 7969 H 722.224 -2.73814 -3.20318 0
M  V30 7970 H 720.899 -1.6092 -2.80867 0
M  V30 7971 H 719.806 -3.4622 -1.41713 0
M  V30 7972 H 721.139 -4.54769 -1.88271 0
M  V30 7973 N 722.791 0.367657 -1.53252 0
M  V30 7974 C 723.724 1.47264 -1.74323 0
M  V30 7975 C 724.702 1.51458 -0.591535 0
M  V30 7976 O 725.886 1.69542 -0.823883 0
M  V30 7977 C 723.013 2.85637 -1.82015 0
M  V30 7978 C 722.059 2.99176 -3.03967 0
M  V30 7979 S 722.892 2.68147 -4.63527 0
M  V30 7980 C 724.048 4.08673 -4.74065 0
M  V30 7981 H 724.281 1.29169 -2.67773 0
M  V30 7982 H 721.814 0.561866 -1.43814 0
M  V30 7983 H 723.772 3.65365 -1.87132 0
M  V30 7984 H 722.433 3.01043 -0.896195 0
M  V30 7985 H 721.626 4.00511 -3.05953 0
M  V30 7986 H 721.228 2.27367 -2.96952 0
M  V30 7987 H 723.52 5.02889 -4.53992 0
M  V30 7988 H 724.463 4.11693 -5.7612 0
M  V30 7989 H 724.871 3.95576 -4.02716 0
M  V30 7990 N 724.269 1.44576 0.627338 0
M  V30 7991 C 725.518 1.46837 1.38281 0
M  V30 7992 C 725.831 0.10635 1.95311 0
M  V30 7993 O 727.037 0.00651084 2.71499 0
M  V30 7994 C 725.493 2.58527 2.50384 0
M  V30 7995 C 725.101 4.00953 1.99851 0
M  V30 7996 C 726.845 2.70013 3.27557 0
M  V30 7997 C 724.752 5.0406 3.09318 0
M  V30 7998 H 723.682 0.546319 0.519664 0
M  V30 7999 H 726.333 1.70654 0.674497 0
M  V30 8000 H 724.715 2.27957 3.23808 0
M  V30 8001 H 725.889 4.41108 1.33267 0
M  V30 8002 H 724.204 3.93743 1.35482 0
M  V30 8003 H 726.801 3.44217 4.09168 0
M  V30 8004 H 727.144 1.75961 3.77284 0
M  V30 8005 H 727.677 3.00011 2.61224 0
M  V30 8006 H 724.416 5.99753 2.6453 0
M  V30 8007 H 723.936 4.68493 3.74532 0
M  V30 8008 H 725.615 5.2793 3.74031 0
M  V30 8009 N 725.747 -0.868086 1.31537 0
M  V30 8010 C 726.994 -1.62127 1.2133 0
M  V30 8011 C 727.322 -1.93158 -0.2281 0
M  V30 8012 O 726.577 -1.5632 -1.1774 0
M  V30 8013 C 726.876 -2.95889 2.0046 0
M  V30 8014 C 726.542 -2.84343 3.49943 0
M  V30 8015 C 725.204 -2.80901 3.90702 0
M  V30 8016 C 727.556 -2.71243 4.45058 0
M  V30 8017 C 724.884 -2.6222 5.24841 0
M  V30 8018 C 727.236 -2.54098 5.79325 0
M  V30 8019 C 725.9 -2.4904 6.19302 0
M  V30 8020 H 725.17 -0.593265 0.443979 0
M  V30 8021 H 727.817 -1.00803 1.62822 0
M  V30 8022 H 726.122 -3.61259 1.51655 0
M  V30 8023 H 727.819 -3.53161 1.89942 0
M  V30 8024 H 724.409 -2.8784 3.17563 0
M  V30 8025 H 728.593 -2.72956 4.14498 0
M  V30 8026 H 723.849 -2.56731 5.54887 0
M  V30 8027 H 728.023 -2.42938 6.52652 0
M  V30 8028 H 725.65 -2.34324 7.23185 0
M  V30 8029 N 727.225 -1.14528 -1.08264 0
M  V30 8030 C 728.453 -0.937964 -1.84418 0
M  V30 8031 C 728.868 0.51357 -1.81681 0
M  V30 8032 O 728.225 1.35591 -1.22153 0
M  V30 8033 C 728.276 -1.43272 -3.31897 0
M  V30 8034 O 727.997 -2.82738 -3.34651 0
M  V30 8035 C 729.498 -1.26555 -4.24851 0
M  V30 8036 H 726.718 -0.333704 -0.582136 0
M  V30 8037 H 729.262 -1.52076 -1.36723 0
M  V30 8038 H 727.417 -0.892653 -3.76975 0
M  V30 8039 H 727.831 -3.04971 -4.26724 0
M  V30 8040 H 729.305 -1.66031 -5.26439 0
M  V30 8041 H 729.782 -0.208589 -4.38704 0
M  V30 8042 H 730.388 -1.79423 -3.856 0
M  V30 8043 N 728.703 1.26451 -0.940633 0
M  V30 8044 C 730.114 1.75726 -0.630653 0
M  V30 8045 C 730.465 1.76631 0.854167 0
M  V30 8046 O 729.59 1.37807 1.66848 0
M  V30 8047 C 730.185 3.19114 -1.13805 0
M  V30 8048 C 728.744 3.66005 -0.878497 0
M  V30 8049 C 727.891 2.45505 -1.28928 0
M  V30 8050 H 730.842 1.12535 -1.119 0
M  V30 8051 H 730.863 3.77311 -0.491625 0
M  V30 8052 H 730.375 3.18424 -2.21874 0
M  V30 8053 H 728.476 3.72126 0.187833 0
M  V30 8054 H 728.589 4.54844 -1.50512 0
M  V30 8055 H 726.953 2.4467 -0.707713 0
M  V30 8056 H 727.736 2.47516 -2.37888 0
M  V30 8057 N 730.181 0.707592 1.40822 0
M  V30 8058 C 731.597 0.38034 1.55002 0
M  V30 8059 C 731.797 -1.11163 1.68062 0
M  V30 8060 O 730.853 -1.89761 1.66574 0
M  V30 8061 C 732.166 1.1394 2.78277 0
M  V30 8062 C 733.714 1.12492 2.92087 0
M  V30 8063 C 734.189 1.86597 4.18265 0
M  V30 8064 N 735.68 1.83626 4.25248 0
M  V30 8065 C 736.415 2.37794 5.21768 0
M  V30 8066 N 735.911 3.00485 6.24244 0
M  V30 8067 N 737.704 2.27982 5.13791 0
M  V30 8068 H 729.855 1.67511 1.3059 0
M  V30 8069 H 732.118 0.707579 0.630901 0
M  V30 8070 H 731.824 2.19398 2.74877 0
M  V30 8071 H 731.698 0.725793 3.70151 0
M  V30 8072 H 734.085 0.0785564 2.94995 0
M  V30 8073 H 734.166 1.57768 2.01353 0
M  V30 8074 H 733.81 2.91219 4.16118 0
M  V30 8075 H 733.74 1.38746 5.07993 0
M  V30 8076 H 736.231 1.3793 3.51829 0
M  V30 8077 H 736.544 3.39355 6.94304 0
M  V30 8078 H 734.889 3.04567 6.24711 0
M  V30 8079 H 738.08 1.78669 4.3266 0
M  V30 8080 H 738.253 2.70499 5.88841 0
M  V30 8081 N 731.66 -1.50943 0.453197 0
M  V30 8082 C 732.608 -2.29728 -0.364419 0
M  V30 8083 C 733.602 -1.36246 -1.00664 0
M  V30 8084 O 734.808 -1.53518 -0.939794 0
M  V30 8085 H 731.183 -0.739536 -0.136347 0
M  V30 8086 H 733.154 -2.96672 0.320696 0
M  V30 8087 C 731.903 -3.1629 -1.44415 0
M  V30 8088 H 731.226 -3.88119 -0.959343 0
M  V30 8089 H 732.666 -3.74444 -1.98917 0
M  V30 8090 C 731.125 -2.32702 -2.43622 0
M  V30 8091 O 731.655 -1.99763 -3.48508 0
M  V30 8092 N 729.861 -1.95621 -2.14897 0
M  V30 8093 H 729.408 -2.22607 -1.29629 0
M  V30 8094 H 729.366 -1.39993 -2.81513 0
M  V30 8095 N 733.138 -0.185124 -1.56509 0
M  V30 8096 C 734.363 0.465278 -2.02114 0
M  V30 8097 C 734.788 1.55083 -1.06447 0
M  V30 8098 O 734.146 1.81241 -0.0462852 0
M  V30 8099 C 734.194 1.00784 -3.46229 0
M  V30 8100 O 733.298 2.12123 -3.53663 0
M  V30 8101 H 732.639 0.109891 -0.654843 0
M  V30 8102 H 735.169 -0.293072 -2.0249 0
M  V30 8103 H 735.179 1.32697 -3.85818 0
M  V30 8104 H 733.854 0.213113 -4.15354 0
M  V30 8105 H 732.431 1.8115 -3.25943 0
M  V30 8106 N 734.616 1.57351 0.0885366 0
M  V30 8107 C 735.893 1.77449 0.822873 0
M  V30 8108 C 736.273 0.768463 1.96616 0
M  V30 8109 O 735.621 -0.201757 2.27608 0
M  V30 8110 C 735.831 3.23425 1.31137 0
M  V30 8111 C 737.179 3.86791 1.75152 0
M  V30 8112 O 738.203 3.27215 1.40745 0
M  V30 8113 O 737.062 4.91568 2.38794 0
M  V30 8114 H 734.156 0.727653 0.393002 0
M  V30 8115 H 736.702 1.69556 0.0699095 0
M  V30 8116 H 735.474 3.88188 0.49254 0
M  V30 8117 H 735.097 3.35977 2.12615 0
M  V30 8118 N 736.094 -0.359525 1.53444 0
M  V30 8119 C 737.51 -0.701599 1.43352 0
M  V30 8120 C 737.71 -1.93049 0.577439 0
M  V30 8121 O 736.766 -2.52423 0.0622224 0
M  V30 8122 C 738.079 -0.90915 2.86627 0
M  V30 8123 C 739.627 -1.00878 2.96298 0
M  V30 8124 C 740.102 -1.24876 4.40647 0
M  V30 8125 N 741.593 -1.31632 4.44103 0
M  V30 8126 C 742.328 -1.51922 5.52908 0
M  V30 8127 N 741.824 -1.69489 6.71748 0
M  V30 8128 N 743.617 -1.54341 5.40496 0
M  V30 8129 H 735.768 0.448685 2.07607 0
M  V30 8130 H 738.031 0.138713 0.937797 0
M  V30 8131 H 737.737 -0.0778997 3.51614 0
M  V30 8132 H 737.611 -1.81551 3.30634 0
M  V30 8133 H 739.998 -1.83057 2.31461 0
M  V30 8134 H 740.079 -0.0796721 2.55676 0
M  V30 8135 H 739.723 -0.431961 5.0606 0
M  V30 8136 H 739.653 -2.19118 4.78848 0
M  V30 8137 H 742.144 -1.19646 3.5846 0
M  V30 8138 H 742.457 -1.84561 7.50438 0
M  V30 8139 H 740.802 -1.66655 6.74723 0
M  V30 8140 H 743.993 -1.40188 4.46615 0
M  V30 8141 H 744.166 -1.69812 6.25354 0
M  V30 8142 N 737.572 -1.44907 -0.619662 0
M  V30 8143 C 738.812 -1.49822 -1.39042 0
M  V30 8144 C 739.176 -0.131803 -1.91547 0
M  V30 8145 O 740.377 -0.0556413 -2.68742 0
M  V30 8146 C 738.648 -2.53805 -2.5163 0
M  V30 8147 S 740.207 -2.77855 -3.3962 0
M  V30 8148 H 737.025 -0.529774 -0.474195 0
M  V30 8149 H 739.627 -1.81907 -0.716236 0
M  V30 8150 H 738.331 -3.51772 -2.11387 0
M  V30 8151 H 737.862 -2.23331 -3.23863 0
M  V30 8152 H 739.877 -2.10319 -4.49422 0
M  V30 8153 N 739.05 0.861098 -1.31996 0
M  V30 8154 C 739.98 1.98482 -1.22993 0
M  V30 8155 C 740.961 1.6971 -0.115168 0
M  V30 8156 O 742.146 1.91849 -0.30126 0
M  V30 8157 C 739.276 3.34179 -0.945615 0
M  V30 8158 C 738.23 3.77284 -2.02091 0
M  V30 8159 C 737.556 5.1054 -1.58912 0
M  V30 8160 C 738.856 3.93439 -3.43515 0
M  V30 8161 H 740.55 2.06271 -2.17008 0
M  V30 8162 H 738.096 0.991043 -1.04472 0
M  V30 8163 H 740.049 4.12338 -0.869206 0
M  V30 8164 H 738.773 3.26586 0.0301849 0
M  V30 8165 H 737.432 3.01371 -2.08737 0
M  V30 8166 H 737.08 4.99397 -0.600942 0
M  V30 8167 H 736.78 5.40352 -2.30854 0
M  V30 8168 H 738.304 5.91199 -1.52696 0
M  V30 8169 H 739.718 4.6197 -3.39495 0
M  V30 8170 H 738.115 4.34661 -4.13751 0
M  V30 8171 H 739.185 2.96548 -3.8365 0
M  V30 8172 N 740.528 1.15101 1.07655 0
M  V30 8173 C 741.438 0.858869 2.18313 0
M  V30 8174 C 742.454 -0.163641 1.73229 0
M  V30 8175 O 743.63 0.00969541 2.01398 0
M  V30 8176 C 740.695 0.34893 3.4494 0
M  V30 8177 C 739.756 1.43495 4.04608 0
M  V30 8178 C 738.989 0.949253 5.2519 0
M  V30 8179 O 739.212 -0.20636 5.70027 0
M  V30 8180 O 738.146 1.73161 5.76454 0
M  V30 8181 H 741.972 1.78386 2.45788 0
M  V30 8182 H 739.557 0.929876 1.16934 0
M  V30 8183 H 741.439 0.070851 4.2134 0
M  V30 8184 H 740.114 -0.548237 3.19024 0
M  V30 8185 H 739.021 1.7666 3.29761 0
M  V30 8186 H 740.354 2.30692 4.3479 0
M  V30 8187 N 742.006 -1.2595 0.947325 0
M  V30 8188 C 742.956 -2.23859 0.432547 0
M  V30 8189 C 743.94 -1.53755 -0.474154 0
M  V30 8190 O 745.132 -1.74293 -0.308397 0
M  V30 8191 C 742.261 -3.42027 -0.295318 0
M  V30 8192 C 741.347 -4.19409 0.62903 0
M  V30 8193 N 741.738 -4.74284 1.7575 0
M  V30 8194 C 740.036 -4.43866 0.435805 0
M  V30 8195 C 740.737 -5.32821 2.33401 0
M  V30 8196 N 739.713 -5.18858 1.62135 0
M  V30 8197 H 743.515 -2.63886 1.29388 0
M  V30 8198 H 741.029 -1.41105 0.80393 0
M  V30 8199 H 743.026 -4.11297 -0.681188 0
M  V30 8200 H 741.686 -3.03526 -1.15334 0
M  V30 8201 H 742.697 -4.71641 2.13952 0
M  V30 8202 H 739.374 -4.15768 -0.37994 0
M  V30 8203 H 740.764 -5.86111 3.28517 0
M  V30 8204 O 743.523 -0.8533 -1.37117 0
M  V30 8205 H 744.214 -0.44662 -1.88481 0
M  V30 END ATOM
M  V30 BEGIN BOND
M  V30 END BOND
M  V30 END CTAB
M  END
$$$$
