drugbank_target|O75469 Nuclear receptor subfamily 1 group I member 2 (DB00163; DB00239; DB00252; DB00255; DB00257; DB00312; DB00421; DB00431; DB00499; DB00503; DB00530; DB00531; DB00532; DB00564; DB00675; DB00682; DB00754; DB00783; DB00834; DB00849; DB00977; DB01026; DB01039; DB01045; DB01068; DB01110; DB01115; DB01127; DB01138; DB01174; DB01181; DB01220; DB01229; DB01234; DB01248; DB01393; DB01645; DB01708; DB01892; DB02709; DB02789; DB04216; DB04466; DB04468; DB04824; DB04930; DB05928; DB06777; DB07080; DB07931; DB08604; DB08864; DB11087; DB11605; DB12582; DB13179; DB13873; DB13952; DB13953; DB13954; DB13955; DB13956; DB14001; DB14002; DB14649)
 OpenBabel12092119443D

  0  0  0     0  0            999 V3000
M  V30 BEGIN CTAB
M  V30 COUNTS 6971 7041 0 0 0
M  V30 BEGIN ATOM
M  V30 1 H -0.908 1.98254 -0.117106 0
M  V30 2 N 0 1.576 0 0
M  V30 3 C 0.933 2.03868 1.02534 0
M  V30 4 C 1.911 0.928543 1.3348 0
M  V30 5 O 3.095 1.19667 1.45644 0
M  V30 6 C 0.222 2.43627 2.35294 0
M  V30 7 C -0.732 3.65373 2.2001 0
M  V30 8 S 0.101 5.13292 1.52614 0
M  V30 9 C 1.257 5.56322 2.86805 0
M  V30 10 H 1.49 2.90518 0.631377 0
M  V30 11 H -0.977 1.52953 0.210867 0
M  V30 12 H 0.981 2.67203 3.11629 0
M  V30 13 H -0.358 1.57376 2.7183 0
M  V30 14 H -1.165 3.90944 3.18086 0
M  V30 15 H -1.563 3.418 1.51819 0
M  V30 16 H 0.729 5.58782 3.83104 0
M  V30 17 H 1.672 6.56266 2.65933 0
M  V30 18 H 2.08 4.83886 2.90714 0
M  V30 19 N 1.4781 -0.272755 1.55222 0
M  V30 20 C 2.3881 -1.35918 1.91216 0
M  V30 21 C 3.4041 -1.54026 0.809436 0
M  V30 22 O 4.5801 -1.68148 1.10852 0
M  V30 23 C 1.6451 -2.69834 2.17693 0
M  V30 24 C 0.7061 -2.6047 3.41253 0
M  V30 25 C -0.0609 -3.88 3.66458 0
M  V30 26 O 0.1621 -4.88693 2.94169 0
M  V30 27 O -0.9039 -3.88189 4.59992 0
M  V30 28 H 2.9221 -1.0839 2.83699 0
M  V30 29 H 0.5071 -0.471301 1.41771 0
M  V30 30 H 2.3891 -3.49017 2.36147 0
M  V30 31 H 1.0641 -2.97148 1.28392 0
M  V30 32 H -0.0289 -1.79663 3.28134 0
M  V30 33 H 1.3041 -2.38106 4.30774 0
M  V30 34 N 2.9562 -1.48159 -0.537278 0
M  V30 35 C 4.2022 -1.56035 -1.29541 0
M  V30 36 C 4.5352 -0.230377 -1.92829 0
M  V30 37 O 3.8102 0.762952 -1.78911 0
M  V30 38 C 4.0932 -2.69323 -2.39034 0
M  V30 39 C 3.9462 -4.12002 -1.80485 0
M  V30 40 C 5.2652 -2.78408 -3.40847 0
M  V30 41 H 2.3842 -0.567992 -0.469632 0
M  V30 42 H 5.0262 -1.80302 -0.599277 0
M  V30 43 H 3.1762 -2.48763 -2.98412 0
M  V30 44 H 4.8482 -4.43981 -1.25215 0
M  V30 45 H 3.0912 -4.19344 -1.11055 0
M  V30 46 H 3.7622 -4.87077 -2.59731 0
M  V30 47 H 6.2382 -2.97012 -2.91416 0
M  V30 48 H 5.1142 -3.59416 -4.14863 0
M  V30 49 H 5.3752 -1.86269 -4.00944 0
M  V30 50 N 4.4343 0.785586 -1.36625 0
M  V30 51 C 5.8503 1.08419 -1.17122 0
M  V30 52 C 6.0503 2.015 0.00208491 0
M  V30 53 O 5.1063 2.43551 0.666278 0
M  V30 54 C 6.4193 1.69498 -2.48377 0
M  V30 55 C 7.9673 1.81821 -2.54775 0
M  V30 56 C 8.4423 2.46315 -3.86126 0
M  V30 57 N 9.9333 2.53779 -3.87492 0
M  V30 58 C 10.6683 3.045 -4.85868 0
M  V30 59 N 10.1643 3.55499 -5.94637 0
M  V30 60 N 11.9573 3.03247 -4.73284 0
M  V30 61 H 4.1083 0.167264 -2.1174 0
M  V30 62 H 6.3713 0.13682 -0.938075 0
M  V30 63 H 6.0773 1.08571 -3.34522 0
M  V30 64 H 5.9513 2.6896 -2.64462 0
M  V30 65 H 8.3383 2.41884 -1.69045 0
M  V30 66 H 8.4193 0.811532 -2.42586 0
M  V30 67 H 8.0633 1.86895 -4.72263 0
M  V30 68 H 7.9933 3.47561 -3.95612 0
M  V30 69 H 10.4843 2.17672 -3.08913 0
M  V30 70 H 10.7973 3.92562 -6.65669 0
M  V30 71 H 9.1423 3.5364 -5.98301 0
M  V30 72 H 12.3333 2.62696 -3.87438 0
M  V30 73 H 12.5063 3.42467 -5.50109 0
M  V30 74 N 5.9124 1.20967 1.01018 0
M  V30 75 C 7.3234 1.02319 1.56165 0
M  V30 76 C 7.6744 -0.418546 1.91684 0
M  V30 77 O 6.7994 -1.30096 1.72928 0
M  V30 78 C 7.3944 1.85109 2.8376 0
M  V30 79 C 5.9534 1.70809 3.35412 0
M  V30 80 C 5.1004 1.82643 2.08655 0
M  V30 81 H 8.0514 1.35065 0.833255 0
M  V30 82 H 8.0724 1.35827 3.55431 0
M  V30 83 H 7.5844 2.90035 2.57878 0
M  V30 84 H 5.6854 0.685464 3.66241 0
M  V30 85 H 5.7984 2.52467 4.07182 0
M  V30 86 H 4.1624 1.25896 2.21409 0
M  V30 87 H 4.9454 2.89066 1.85191 0
M  V30 88 N 7.3905 -1.2043 1.01659 0
M  V30 89 C 8.3375 -2.23215 0.586822 0
M  V30 90 C 9.3075 -1.61382 -0.393085 0
M  V30 91 O 10.4925 -1.88544 -0.292525 0
M  V30 92 C 7.6325 -3.45032 -0.0687464 0
M  V30 93 C 6.7455 -4.21296 0.955724 0
M  V30 94 C 5.8805 -5.30507 0.271208 0
M  V30 95 C 4.9195 -5.98515 1.28244 0
M  V30 96 N 4.0565 -6.99316 0.62459 0
M  V30 97 H 8.8965 -2.59336 1.46796 0
M  V30 98 H 6.4335 -1.27431 0.734836 0
M  V30 99 H 8.3915 -4.1459 -0.465965 0
M  V30 100 H 7.0215 -3.09604 -0.913529 0
M  V30 101 H 6.0735 -3.50803 1.4711 0
M  V30 102 H 7.3855 -4.6803 1.72479 0
M  V30 103 H 6.5395 -6.06428 -0.18151 0
M  V30 104 H 5.2785 -4.8481 -0.530163 0
M  V30 105 H 4.2835 -5.21355 1.74554 0
M  V30 106 H 5.5085 -6.46298 2.08509 0
M  V30 107 H 3.4545 -6.55812 -0.156914 0
M  V30 108 H 3.3715 -7.44178 1.33172 0
M  V30 109 H 4.6395 -7.79255 0.195462 0
M  V30 110 N 8.8686 -0.792821 -1.36206 0
M  V30 111 C 9.7786 -0.194808 -2.3379 0
M  V30 112 C 10.7946 0.654869 -1.61206 0
M  V30 113 O 11.9706 0.569856 -1.9317 0
M  V30 114 C 9.0356 0.657721 -3.40404 0
M  V30 115 C 8.0966 -0.210849 -4.28782 0
M  V30 116 C 7.3296 0.601086 -5.30304 0
M  V30 117 O 7.5526 1.83682 -5.40016 0
M  V30 118 O 6.4866 -0.000808277 -6.019 0
M  V30 119 H 10.3126 -1.00172 -2.86704 0
M  V30 120 H 7.8976 -0.554341 -1.38735 0
M  V30 121 H 9.7796 1.14375 -4.05581 0
M  V30 122 H 8.4546 1.44247 -2.89784 0
M  V30 123 H 7.3616 -0.743714 -3.66633 0
M  V30 124 H 8.6946 -0.959195 -4.82763 0
M  V30 125 N 10.3467 1.47872 -0.545128 0
M  V30 126 C 11.5717 2.07391 -0.0190611 0
M  V30 127 C 11.9967 1.39688 1.25971 0
M  V30 128 O 11.3547 0.467816 1.7516 0
M  V30 129 C 11.4027 3.60188 0.172335 0
M  V30 130 O 10.5067 3.9339 1.23766 0
M  V30 131 H 9.8477 0.662411 -0.0459059 0
M  V30 132 H 12.3777 1.90066 -0.757365 0
M  V30 133 H 12.3877 4.06129 0.390305 0
M  V30 134 H 11.0627 4.08865 -0.761725 0
M  V30 135 H 9.6397 3.5921 1.00114 0
M  V30 136 N 11.8248 0.280983 1.55075 0
M  V30 137 C 13.0708 -0.327573 2.00745 0
M  V30 138 C 13.4258 -1.53045 1.16598 0
M  V30 139 O 12.7188 -1.90221 0.229451 0
M  V30 140 C 12.9128 -0.754656 3.49342 0
M  V30 141 C 12.7418 0.40529 4.4787 0
M  V30 142 C 11.5118 0.890947 4.97383 0
M  V30 143 C 13.7098 1.24371 4.99035 0
M  V30 144 N 11.6918 2.01975 5.79724 0
M  V30 145 C 13.0628 2.22031 5.7888 0
M  V30 146 C 15.1178 1.27638 4.81262 0
M  V30 147 C 13.8208 3.22709 6.42846 0
M  V30 148 C 15.8468 2.27164 5.46031 0
M  V30 149 C 15.2088 3.23556 6.25692 0
M  V30 150 H 11.3078 -0.0848774 0.77738 0
M  V30 151 H 13.8918 0.406342 1.90413 0
M  V30 152 H 12.0628 -1.45778 3.60005 0
M  V30 153 H 13.7948 -1.34105 3.81835 0
M  V30 154 H 10.5498 0.469262 4.71269 0
M  V30 155 H 10.9738 2.58794 6.25584 0
M  V30 156 H 15.6158 0.544936 4.19274 0
M  V30 157 H 13.3338 3.96784 7.0398 0
M  V30 158 H 16.9198 2.30441 5.34217 0
M  V30 159 H 15.7998 3.99309 6.74924 0
M  V30 160 N 13.3029 -1.57598 0.00835791 0
M  V30 161 C 14.2509 -2.10078 -0.998508 0
M  V30 162 C 15.2449 -1.02262 -1.35051 0
M  V30 163 O 16.4509 -1.20719 -1.33518 0
M  V30 164 H 12.8259 -0.670903 -0.339696 0
M  V30 165 H 14.7969 -2.93648 -0.530398 0
M  V30 166 C 13.5459 -2.62615 -2.27879 0
M  V30 167 H 12.8689 -3.45213 -2.01662 0
M  V30 168 H 14.3089 -3.03004 -2.96588 0
M  V30 169 C 12.7679 -1.54407 -2.99433 0
M  V30 170 O 13.2979 -0.931812 -3.90743 0
M  V30 171 N 11.5039 -1.2695 -2.61404 0
M  V30 172 H 11.0509 -1.76924 -1.87232 0
M  V30 173 H 11.0089 -0.547704 -3.09593 0
M  V30 174 N 14.781 0.264519 -1.55364 0
M  V30 175 C 15.731 1.32966 -1.85214 0
M  V30 176 C 16.715 1.44306 -0.711653 0
M  V30 177 O 17.907 1.47844 -0.973192 0
M  V30 178 C 15.036 2.68839 -2.13495 0
M  V30 179 C 14.122 2.61575 -3.33825 0
M  V30 180 N 14.513 2.23933 -4.53528 0
M  V30 181 C 12.811 2.92621 -3.36584 0
M  V30 182 C 13.512 2.26868 -5.35636 0
M  V30 183 N 12.488 2.65677 -4.74254 0
M  V30 184 H 16.29 1.02884 -2.75304 0
M  V30 185 H 13.804 0.473157 -1.55354 0
M  V30 186 H 15.801 3.45685 -2.33039 0
M  V30 187 H 14.461 2.99802 -1.24694 0
M  V30 188 H 15.472 1.95769 -4.79474 0
M  V30 189 H 12.149 3.2824 -2.58002 0
M  V30 190 H 13.539 2.00254 -6.41364 0
M  V30 191 N 16.2591 1.48442 0.529413 0
M  V30 192 C 17.2221 1.62524 1.61612 0
M  V30 193 C 18.2221 0.498509 1.52877 0
M  V30 194 O 19.4121 0.76431 1.56537 0
M  V30 195 C 16.5441 1.59597 3.01233 0
M  V30 196 H 17.7371 2.59423 1.50465 0
M  V30 197 H 15.2901 1.37047 0.751514 0
M  V30 198 H 16.0251 0.641781 3.17886 0
M  V30 199 H 15.8101 2.41397 3.08982 0
M  V30 200 H 17.3001 1.72646 3.80241 0
M  V30 201 N 17.7372 -0.778329 1.37039 0
M  V30 202 C 19.0142 -1.52551 1.22424 0
M  V30 203 C 19.3942 -2.10288 -0.184964 0
M  V30 204 O 18.7422 -1.94953 -1.19187 0
M  V30 205 C 18.9522 -2.61164 2.31504 0
M  V30 206 C 20.3002 -3.28746 2.68721 0
M  V30 207 O 21.3242 -2.71455 2.30631 0
M  V30 208 O 20.1832 -4.3231 3.3432 0
M  V30 209 H 17.2772 -0.675343 0.477326 0
M  V30 210 H 19.8232 -0.815859 1.48801 0
M  V30 211 H 18.5952 -2.16574 3.25901 0
M  V30 212 H 18.2182 -3.39737 2.06554 0
M  V30 213 N 19.2153 -1.21501 -1.00376 0
M  V30 214 C 20.4623 -1.03299 -1.74171 0
M  V30 215 C 20.7903 0.433326 -1.89612 0
M  V30 216 O 20.0453 1.33779 -1.42834 0
M  V30 217 C 20.3443 -1.67673 -3.15627 0
M  V30 218 C 20.0103 -3.17533 -3.2013 0
M  V30 219 C 18.6723 -3.58427 -3.21067 0
M  V30 220 C 21.0243 -4.13504 -3.17275 0
M  V30 221 C 18.3523 -4.93794 -3.16835 0
M  V30 222 C 20.7043 -5.48834 -3.14585 0
M  V30 223 C 19.3683 -5.89123 -3.13831 0
M  V30 224 H 18.6383 -0.377999 -0.637336 0
M  V30 225 H 21.2853 -1.51111 -1.17634 0
M  V30 226 H 19.5903 -1.12158 -3.75404 0
M  V30 227 H 21.2873 -1.51091 -3.71446 0
M  V30 228 H 17.8773 -2.84965 -3.20145 0
M  V30 229 H 22.0613 -3.82936 -3.15711 0
M  V30 230 H 17.3173 -5.24255 -3.1459 0
M  V30 231 H 21.4913 -6.22934 -3.1133 0
M  V30 232 H 19.1183 -6.93984 -3.10307 0
M  V30 233 N 20.6934 1.19889 -1.02296 0
M  V30 234 C 21.9394 1.89701 -0.717033 0
M  V30 235 C 22.2724 1.7905 0.751989 0
M  V30 236 O 21.5474 1.17891 1.547 0
M  V30 237 C 21.8304 3.40858 -1.16136 0
M  V30 238 C 21.6834 3.60411 -2.69117 0
M  V30 239 C 23.0024 4.33876 -0.737549 0
M  V30 240 H 20.1214 0.688874 -0.261957 0
M  V30 241 H 22.7634 1.41154 -1.27183 0
M  V30 242 H 20.9134 3.82335 -0.689342 0
M  V30 243 H 22.5854 3.28145 -3.2422 0
M  V30 244 H 20.8284 3.03665 -3.0979 0
M  V30 245 H 21.4994 4.66396 -2.95261 0
M  V30 246 H 23.9754 4.00081 -1.14344 0
M  V30 247 H 22.8514 5.38242 -1.0764 0
M  V30 248 H 23.1124 4.40628 0.360436 0
M  V30 249 N 22.1715 0.800033 1.35784 0
M  V30 250 C 23.1215 0.178654 2.27299 0
M  V30 251 C 24.1055 -0.643667 1.47464 0
M  V30 252 O 25.2975 -0.502 1.69732 0
M  V30 253 C 22.4265 -0.677194 3.36555 0
M  V30 254 C 21.5125 0.154497 4.23818 0
M  V30 255 N 21.9035 1.21427 4.91008 0
M  V30 256 C 20.2015 -0.0649462 4.45953 0
M  V30 257 C 20.9025 1.72147 5.55644 0
M  V30 258 N 19.8785 1.02897 5.33773 0
M  V30 259 H 23.6805 0.989637 2.76737 0
M  V30 260 H 21.1945 0.64054 1.49234 0
M  V30 261 H 23.1915 -1.13835 4.01058 0
M  V30 262 H 21.8515 -1.4866 2.8867 0
M  V30 263 H 22.8625 1.59684 4.92668 0
M  V30 264 H 19.5395 -0.844016 4.0888 0
M  V30 265 H 20.9295 2.60683 6.19269 0
M  V30 266 N 23.6496 -1.47581 0.552962 0
M  V30 267 C 24.8896 -2.04379 0.0296245 0
M  V30 268 C 25.2536 -1.4185 -1.29393 0
M  V30 269 O 26.4546 -1.89669 -1.90471 0
M  V30 270 C 24.7256 -3.57339 -0.0661371 0
M  V30 271 S 26.2846 -4.35511 -0.536213 0
M  V30 272 H 23.1026 -0.710625 0.0230991 0
M  V30 273 H 25.7046 -1.81005 0.738734 0
M  V30 274 H 24.4086 -4.00374 0.901596 0
M  V30 275 H 23.9396 -3.85202 -0.798931 0
M  V30 276 H 25.9546 -4.6253 -1.79668 0
M  V30 277 N 25.1277 -0.289203 -1.54924 0
M  V30 278 C 26.0377 0.601863 -2.26748 0
M  V30 279 C 27.0537 1.15834 -1.2984 0
M  V30 280 O 28.2297 1.18564 -1.62802 0
M  V30 281 C 25.2947 1.76299 -2.98529 0
M  V30 282 C 24.3557 1.24178 -4.10948 0
M  V30 283 C 23.5887 2.34757 -4.79296 0
M  V30 284 O 23.8117 3.54411 -4.46933 0
M  V30 285 O 22.7457 2.02115 -5.66951 0
M  V30 286 H 26.5717 0.0195879 -3.03694 0
M  V30 287 H 24.1567 -0.0560868 -1.49295 0
M  V30 288 H 26.0387 2.43973 -3.43592 0
M  V30 289 H 24.7137 2.33209 -2.24488 0
M  V30 290 H 23.6207 0.531104 -3.70311 0
M  V30 291 H 24.9537 0.718252 -4.86931 0
M  V30 292 N 26.6058 1.57591 -0.0167156 0
M  V30 293 C 27.8828 1.82547 0.702564 0
M  V30 294 C 28.2628 0.898018 1.91047 0
M  V30 295 O 27.6108 -0.0493456 2.28447 0
M  V30 296 C 27.8208 3.31459 1.09251 0
M  V30 297 C 29.1688 3.97622 1.48937 0
M  V30 298 O 30.1928 3.35881 1.18584 0
M  V30 299 O 29.0518 5.06415 2.05442 0
M  V30 300 H 26.1458 0.752268 0.343544 0
M  V30 301 H 28.6918 1.69644 -0.0434495 0
M  V30 302 H 27.4638 3.9061 0.23227 0
M  V30 303 H 27.0868 3.49422 1.89709 0
M  V30 304 N 28.0839 -0.256276 1.55502 0
M  V30 305 C 29.3119 -1.00342 1.8094 0
M  V30 306 C 29.7269 -1.79307 0.59114 0
M  V30 307 O 29.0839 -1.77114 -0.440081 0
M  V30 308 C 29.1349 -1.94875 3.04476 0
M  V30 309 O 28.8559 -1.19107 4.21598 0
M  V30 310 C 30.3569 -2.81266 3.42644 0
M  V30 311 H 27.5769 -0.295685 0.602338 0
M  V30 312 H 30.1209 -0.281998 2.02546 0
M  V30 313 H 28.2759 -2.62457 2.84947 0
M  V30 314 H 28.6899 -1.82969 4.91551 0
M  V30 315 H 30.1639 -3.43362 4.32211 0
M  V30 316 H 30.6409 -3.51897 2.62802 0
M  V30 317 H 31.2469 -2.1915 3.64491 0
M  V30 318 N 29.562 -1.4872 -0.521534 0
M  V30 319 C 30.472 -1.66569 -1.65203 0
M  V30 320 C 31.488 -0.548197 -1.65139 0
M  V30 321 O 32.664 -0.820339 -1.83936 0
M  V30 322 C 29.729 -1.70917 -3.01642 0
M  V30 323 C 28.79 -2.94356 -3.12495 0
M  V30 324 C 28.023 -2.98487 -4.42426 0
M  V30 325 O 28.246 -2.10786 -5.30024 0
M  V30 326 O 27.18 -3.90746 -4.57822 0
M  V30 327 H 31.006 -2.62298 -1.5308 0
M  V30 328 H 28.591 -1.3222 -0.695565 0
M  V30 329 H 30.473 -1.7625 -3.82771 0
M  V30 330 H 29.148 -0.783633 -3.14071 0
M  V30 331 H 28.055 -2.94552 -2.3063 0
M  V30 332 H 29.388 -3.86322 -3.04986 0
M  V30 333 N 31.0401 0.771051 -1.3745 0
M  V30 334 C 32.2651 1.56529 -1.36065 0
M  V30 335 C 32.6901 1.88029 0.0515859 0
M  V30 336 O 32.0481 1.49282 1.02882 0
M  V30 337 C 32.0961 2.85187 -2.20683 0
M  V30 338 O 31.2001 3.79593 -1.61193 0
M  V30 339 H 30.5411 0.47411 -0.464883 0
M  V30 340 H 33.0711 0.954269 -1.80983 0
M  V30 341 H 33.0811 3.34283 -2.33921 0
M  V30 342 H 31.7561 2.61588 -3.23334 0
M  V30 343 H 30.3331 3.38239 -1.56999 0
M  V30 344 N 32.5182 1.22032 0.997298 0
M  V30 345 C 33.7642 1.04376 1.73878 0
M  V30 346 C 34.0972 -0.420716 1.89588 0
M  V30 347 O 33.3722 -1.31202 1.43583 0
M  V30 348 C 33.6552 1.75047 3.14691 0
M  V30 349 C 33.5082 3.29062 3.06656 0
M  V30 350 C 34.8272 1.49928 4.13775 0
M  V30 351 H 31.9462 0.380578 0.631133 0
M  V30 352 H 34.5882 1.50312 1.16217 0
M  V30 353 H 32.7382 1.35996 3.63919 0
M  V30 354 H 34.4102 3.7753 2.65083 0
M  V30 355 H 32.6532 3.58967 2.43568 0
M  V30 356 H 33.3242 3.73683 4.06282 0
M  V30 357 H 35.8002 1.83842 3.73285 0
M  V30 358 H 34.6762 2.01878 5.10428 0
M  V30 359 H 34.9372 0.430929 4.39995 0
M  V30 360 N 33.9963 -1.19345 1.0293 0
M  V30 361 C 35.4073 -1.70725 0.755633 0
M  V30 362 C 35.7583 -1.82326 -0.724676 0
M  V30 363 O 34.8833 -1.49471 -1.56484 0
M  V30 364 C 35.4783 -3.10084 1.36503 0
M  V30 365 C 34.0373 -3.58723 1.13994 0
M  V30 366 C 33.1843 -2.35577 1.46283 0
M  V30 367 H 36.1353 -1.0418 1.19718 0
M  V30 368 H 36.1563 -3.72787 0.762217 0
M  V30 369 H 35.6683 -3.01609 2.44241 0
M  V30 370 H 33.7693 -3.72512 0.0807901 0
M  V30 371 H 33.8823 -4.42816 1.82894 0
M  V30 372 H 32.2463 -2.38935 0.88217 0
M  V30 373 H 33.0293 -2.29731 2.55105 0
M  V30 374 N 35.4744 -0.807222 -1.35358 0
M  V30 375 C 36.7224 -0.387122 -1.98358 0
M  V30 376 C 37.0434 1.04942 -1.64354 0
M  V30 377 O 36.3134 1.72615 -0.926339 0
M  V30 378 H 34.8934 -0.140154 -0.733734 0
M  V30 379 H 37.5554 -1.0332 -1.6526 0
M  V30 380 H 36.6514 -0.493352 -3.08176 0
M  V30 381 N 36.9525 1.47285 -0.560781 0
M  V30 382 C 37.8995 2.30058 0.18491 0
M  V30 383 C 38.8695 1.39281 0.904986 0
M  V30 384 O 40.0545 1.68241 0.899979 0
M  V30 385 C 37.1945 3.23317 1.20666 0
M  V30 386 C 36.3075 4.29186 0.492285 0
M  V30 387 C 35.4425 5.09592 1.49964 0
M  V30 388 C 34.4815 6.07232 0.770439 0
M  V30 389 N 33.6185 6.80584 1.72479 0
M  V30 390 H 38.4585 2.93302 -0.527048 0
M  V30 391 H 35.9955 1.44568 -0.271738 0
M  V30 392 H 37.9535 3.75811 1.81168 0
M  V30 393 H 36.5835 2.61929 1.88661 0
M  V30 394 H 35.6355 3.7972 -0.227333 0
M  V30 395 H 36.9475 4.98738 -0.0787929 0
M  V30 396 H 36.1015 5.66254 2.17809 0
M  V30 397 H 34.8405 4.3995 2.10464 0
M  V30 398 H 33.8455 5.49745 0.0780846 0
M  V30 399 H 35.0705 6.78884 0.171134 0
M  V30 400 H 33.0165 6.1367 2.3183 0
M  V30 401 H 32.9335 7.46319 1.20596 0
M  V30 402 H 34.2015 7.41818 2.39428 0
M  V30 403 N 38.4306 0.297415 1.54768 0
M  V30 404 C 39.8416 -0.195947 1.85669 0
M  V30 405 C 40.1926 -1.53707 1.21937 0
M  V30 406 O 39.3176 -2.10164 0.515754 0
M  V30 407 C 39.9126 -0.362318 3.36857 0
M  V30 408 C 38.4716 -0.799901 3.67802 0
M  V30 409 C 37.6186 0.0938578 2.77141 0
M  V30 410 H 40.5696 0.518538 1.4999 0
M  V30 411 H 40.5906 -1.19745 3.61167 0
M  V30 412 H 40.1026 0.613921 3.83214 0
M  V30 413 H 38.2036 -1.78682 3.26961 0
M  V30 414 H 38.3166 -0.621773 4.75048 0
M  V30 415 H 36.6806 -0.426254 2.51108 0
M  V30 416 H 37.4636 1.06639 3.26318 0
M  V30 417 N 39.9087 -1.5758 0.0250728 0
M  V30 418 C 41.1337 -1.96337 -0.668317 0
M  V30 419 C 41.5587 -0.901314 -1.651 0
M  V30 420 O 40.9167 0.138187 -1.80773 0
M  V30 421 C 40.9647 -3.34191 -1.35457 0
M  V30 422 O 40.0687 -3.30269 -2.46974 0
M  V30 423 H 39.4097 -0.640281 -0.175887 0
M  V30 424 H 41.9397 -2.0442 0.0857224 0
M  V30 425 H 41.9497 -3.70331 -1.71228 0
M  V30 426 H 40.6247 -4.11036 -0.634218 0
M  V30 427 H 39.2017 -3.05841 -2.13344 0
M  V30 428 N 41.3868 0.248026 -1.55636 0
M  V30 429 C 42.6328 0.97767 -1.77678 0
M  V30 430 C 42.9658 1.85016 -0.590135 0
M  V30 431 O 42.2408 1.90095 0.411611 0
M  V30 432 C 42.5238 1.83914 -3.09593 0
M  V30 433 C 42.3768 0.99491 -4.38659 0
M  V30 434 C 43.6958 2.82183 -3.37729 0
M  V30 435 H 40.8148 0.354005 -0.646413 0
M  V30 436 H 43.4568 0.248253 -1.88371 0
M  V30 437 H 41.6068 2.46104 -3.00608 0
M  V30 438 H 43.2788 0.391789 -4.59633 0
M  V30 439 H 41.5218 0.299231 -4.32767 0
M  V30 440 H 42.1928 1.63145 -5.2734 0
M  V30 441 H 44.6688 2.30129 -3.4667 0
M  V30 442 H 43.5448 3.39582 -4.31249 0
M  V30 443 H 43.8058 3.58588 -2.58586 0
M  V30 444 N 42.8649 1.48995 0.513639 0
M  V30 445 C 43.8129 1.65199 1.63744 0
M  V30 446 C 44.8069 0.51809 1.61283 0
M  V30 447 O 46.0129 0.697335 1.65943 0
M  V30 448 H 42.3879 0.52069 0.542574 0
M  V30 449 H 44.3589 2.59552 1.47226 0
M  V30 450 C 43.1079 1.72409 3.01945 0
M  V30 451 H 42.4309 2.59029 3.04539 0
M  V30 452 H 43.8709 1.87785 3.80148 0
M  V30 453 C 42.3299 0.46618 3.33659 0
M  V30 454 O 42.8599 -0.413744 3.99564 0
M  V30 455 N 41.0659 0.332931 2.88687 0
M  V30 456 H 40.6129 1.04996 2.35231 0
M  V30 457 H 40.5709 -0.507665 3.10274 0
M  V30 458 N 44.343 -0.763751 1.37857 0
M  V30 459 C 45.306 -1.85889 1.34081 0
M  V30 460 C 46.306 -1.58949 0.243277 0
M  V30 461 O 47.496 -1.66882 0.499589 0
M  V30 462 C 44.628 -3.23176 1.08489 0
M  V30 463 H 45.821 -1.90648 2.31502 0
M  V30 464 H 43.374 -0.964367 1.23003 0
M  V30 465 H 44.109 -3.24091 0.116318 0
M  V30 466 H 43.894 -3.44124 1.8794 0
M  V30 467 H 45.384 -4.03254 1.08517 0
M  V30 468 N 45.8211 -1.22559 -0.990812 0
M  V30 469 C 47.0981 -0.959875 -1.70428 0
M  V30 470 C 47.4781 0.524455 -2.04481 0
M  V30 471 O 46.8261 1.49302 -1.72977 0
M  V30 472 C 47.0361 -1.85955 -2.95333 0
M  V30 473 C 48.3841 -2.11687 -3.68068 0
M  V30 474 O 49.4081 -1.8342 -3.05345 0
M  V30 475 O 48.2671 -2.59572 -4.80921 0
M  V30 476 H 45.3611 -0.361154 -0.743974 0
M  V30 477 H 47.9071 -1.33554 -1.04697 0
M  V30 478 H 46.6791 -2.86346 -2.66687 0
M  V30 479 H 46.3021 -1.4856 -3.68803 0
M  V30 480 N 47.2992 1.18797 -1.03562 0
M  V30 481 C 48.2092 2.25913 -0.632505 0
M  V30 482 C 49.2252 1.70668 0.338882 0
M  V30 483 O 50.4012 2.00453 0.195076 0
M  V30 484 C 47.4662 3.467 0.00350942 0
M  V30 485 C 46.5272 4.17098 -1.01624 0
M  V30 486 C 45.7602 5.32119 -0.410478 0
M  V30 487 O 45.9832 5.64976 0.784725 0
M  V30 488 O 44.9172 5.9107 -1.13667 0
M  V30 489 H 48.7432 2.62648 -1.52478 0
M  V30 490 H 46.3282 1.25781 -0.806195 0
M  V30 491 H 48.2102 4.19878 0.35781 0
M  V30 492 H 46.8852 3.11798 0.869686 0
M  V30 493 H 45.7922 3.4601 -1.42224 0
M  V30 494 H 47.1252 4.55987 -1.85301 0
M  V30 495 N 48.7773 0.814389 1.34928 0
M  V30 496 C 49.6873 0.231978 2.3345 0
M  V30 497 C 50.7033 -0.629139 1.62228 0
M  V30 498 O 51.8793 -0.539052 1.94052 0
M  V30 499 C 48.9443 -0.603482 3.41407 0
M  V30 500 C 48.0053 0.279037 4.28392 0
M  V30 501 C 47.2383 -0.516643 5.31193 0
M  V30 502 O 47.4613 -1.75068 5.4287 0
M  V30 503 O 46.3953 0.0965652 6.01823 0
M  V30 504 H 50.2213 1.04721 2.85074 0
M  V30 505 H 47.8063 0.576343 1.37836 0
M  V30 506 H 49.6883 -1.07908 4.0735 0
M  V30 507 H 48.3633 -1.39618 2.92042 0
M  V30 508 H 47.2703 0.801948 3.65403 0
M  V30 509 H 48.6033 1.03588 4.81176 0
M  V30 510 N 50.2554 -1.46986 0.568584 0
M  V30 511 C 51.5014 -2.02741 0.0488709 0
M  V30 512 C 51.8344 -1.44077 -1.30214 0
M  V30 513 O 51.1094 -0.600552 -1.84996 0
M  V30 514 C 51.3924 -3.60086 -0.032047 0
M  V30 515 C 51.2454 -4.29162 1.34686 0
M  V30 516 C 52.5644 -4.33838 -0.739798 0
M  V30 517 H 49.6834 -0.736749 0.0192338 0
M  V30 518 H 52.3254 -1.75289 0.733065 0
M  V30 519 H 50.4754 -3.83606 -0.61473 0
M  V30 520 H 52.1474 -4.16948 1.97362 0
M  V30 521 H 50.3904 -3.89073 1.91846 0
M  V30 522 H 51.0614 -5.37826 1.24285 0
M  V30 523 H 53.5374 -4.15378 -0.244939 0
M  V30 524 H 52.4134 -5.43537 -0.765406 0
M  V30 525 H 52.6744 -4.03875 -1.79827 0
M  V30 526 N 51.7335 -0.305618 -1.54608 0
M  V30 527 C 52.9815 0.301701 -1.99835 0
M  V30 528 C 53.3025 1.54054 -1.19551 0
M  V30 529 O 52.5725 1.93702 -0.292658 0
M  V30 530 H 51.1525 0.114468 -0.738178 0
M  V30 531 H 53.8145 -0.418016 -1.90364 0
M  V30 532 H 52.9105 0.570548 -3.06841 0
M  V30 533 N 53.2116 1.57565 -0.0334293 0
M  V30 534 C 54.4596 1.91598 0.642999 0
M  V30 535 C 54.7806 0.910847 1.7242 0
M  V30 536 O 54.0506 -0.0469931 1.95844 0
M  V30 537 H 52.6306 0.707228 0.240496 0
M  V30 538 H 55.2926 1.94726 -0.0822488 0
M  V30 539 H 54.3886 2.92336 1.09298 0
M  V30 540 N 54.6897 -0.239769 1.55765 0
M  V30 541 C 56.1007 -0.808263 1.68297 0
M  V30 542 C 56.4517 -1.85736 0.632181 0
M  V30 543 O 55.5767 -2.15277 -0.220204 0
M  V30 544 C 56.1717 -1.47284 3.05111 0
M  V30 545 C 54.7307 -1.98895 3.19559 0
M  V30 546 C 53.8777 -0.842575 2.64189 0
M  V30 547 H 56.8287 -0.0154422 1.58692 0
M  V30 548 H 56.8497 -2.34111 2.99954 0
M  V30 549 H 56.3617 -0.709053 3.81568 0
M  V30 550 H 54.4627 -2.78132 2.47938 0
M  V30 551 H 54.5757 -2.18143 4.26556 0
M  V30 552 H 52.9397 -1.24501 2.22197 0
M  V30 553 H 53.7227 -0.0917552 3.43177 0
M  V30 554 N 56.1678 -1.49265 -0.50573 0
M  V30 555 C 57.0998 -1.617 -1.62437 0
M  V30 556 C 58.1128 -0.499924 -1.54934 0
M  V30 557 O 59.3018 -0.771785 -1.60953 0
M  V30 558 C 56.4018 -1.5533 -3.01207 0
M  V30 559 C 55.5748 -2.8249 -3.33943 0
M  V30 560 C 54.6338 -2.69238 -4.52103 0
M  V30 561 O 53.6598 -3.43167 -4.5412 0
M  V30 562 N 54.8618 -1.80468 -5.51735 0
M  V30 563 H 57.6268 -2.58177 -1.52199 0
M  V30 564 H 55.1878 -1.46294 -0.693511 0
M  V30 565 H 57.1798 -1.44125 -3.78167 0
M  V30 566 H 55.7498 -0.667297 -3.05395 0
M  V30 567 H 54.9698 -3.08081 -2.45926 0
M  V30 568 H 56.2578 -3.66802 -3.5261 0
M  V30 569 H 55.6558 -1.19653 -5.52901 0
M  V30 570 H 54.2128 -1.75188 -6.27816 0
M  V30 571 N 57.6459 0.756429 -1.3826 0
M  V30 572 C 58.8949 1.51082 -1.3363 0
M  V30 573 C 59.2079 1.95467 0.0720068 0
M  V30 574 O 60.4139 2.7043 0.240834 0
M  V30 575 C 58.8699 2.72893 -2.34644 0
M  V30 576 C 58.4779 2.35544 -3.81081 0
M  V30 577 C 60.2219 3.50791 -2.39052 0
M  V30 578 C 58.1289 3.53948 -4.73787 0
M  V30 579 H 57.0589 0.56727 -0.49671 0
M  V30 580 H 59.7099 0.827147 -1.638 0
M  V30 581 H 58.0919 3.43227 -1.97513 0
M  V30 582 H 59.2659 1.72894 -4.27135 0
M  V30 583 H 57.5809 1.70786 -3.79764 0
M  V30 584 H 60.1779 4.38823 -3.05513 0
M  V30 585 H 60.5209 3.91745 -1.40861 0
M  V30 586 H 61.0539 2.87467 -2.74968 0
M  V30 587 H 57.7929 3.18064 -5.73163 0
M  V30 588 H 57.3129 4.15651 -4.32428 0
M  V30 589 H 58.9919 4.20566 -4.91663 0
M  V30 590 N 59.124 1.23083 0.984299 0
M  V30 591 C 60.364 1.07226 1.74017 0
M  V30 592 C 60.728 -0.384766 1.88105 0
M  V30 593 O 61.929 -0.664411 2.60459 0
M  V30 594 C 60.2 1.77348 3.10294 0
M  V30 595 S 61.759 1.77014 4.01512 0
M  V30 596 H 58.577 0.383819 0.598502 0
M  V30 597 H 61.179 1.56158 1.17622 0
M  V30 598 H 59.883 2.82506 2.97689 0
M  V30 599 H 59.414 1.28682 3.71759 0
M  V30 600 H 61.429 0.825956 4.89277 0
M  V30 601 N 60.6021 -1.18246 1.0419 0
M  V30 602 C 62.0181 -1.40269 0.761366 0
M  V30 603 C 62.2181 -1.90777 -0.648578 0
M  V30 604 O 61.2741 -2.0929 -1.41258 0
M  V30 605 C 62.5871 -2.40237 1.8085 0
M  V30 606 C 64.1351 -2.53961 1.82955 0
M  V30 607 C 64.6101 -3.57194 2.86664 0
M  V30 608 N 66.1011 -3.64702 2.85563 0
M  V30 609 C 66.8361 -4.44309 3.6246 0
M  V30 610 N 66.3321 -5.27514 4.49111 0
M  V30 611 N 68.1251 -4.39084 3.50944 0
M  V30 612 H 60.2761 -0.837882 1.95175 0
M  V30 613 H 62.5391 -0.430608 0.84456 0
M  V30 614 H 62.2451 -2.10176 2.81991 0
M  V30 615 H 62.1191 -3.39601 1.64168 0
M  V30 616 H 64.5061 -2.83338 0.824855 0
M  V30 617 H 64.5871 -1.54706 2.03715 0
M  V30 618 H 64.2311 -3.28558 3.87314 0
M  V30 619 H 64.1611 -4.5613 2.6316 0
M  V30 620 H 66.6521 -3.05289 2.22727 0
M  V30 621 H 66.9651 -5.85411 5.04493 0
M  V30 622 H 65.3101 -5.2693 4.53178 0
M  V30 623 H 68.5011 -3.7313 2.82651 0
M  V30 624 H 68.6741 -5.00883 4.11121 0
M  V30 625 N 62.0802 -0.821533 -1.34494 0
M  V30 626 C 63.3262 -0.409552 -1.98622 0
M  V30 627 C 63.6592 1.0244 -1.64984 0
M  V30 628 O 62.9342 1.71325 -0.920758 0
M  V30 629 C 63.2172 -0.610458 -3.54888 0
M  V30 630 C 63.0702 -2.09043 -3.98273 0
M  V30 631 C 64.3892 -0.0455379 -4.40076 0
M  V30 632 H 61.5082 -0.15028 -0.721516 0
M  V30 633 H 64.1502 -1.03384 -1.59411 0
M  V30 634 H 62.3002 -0.079044 -3.8842 0
M  V30 635 H 63.9722 -2.68537 -3.75081 0
M  V30 636 H 62.2152 -2.58139 -3.48635 0
M  V30 637 H 62.8862 -2.18182 -5.07051 0
M  V30 638 H 65.3622 -0.499557 -4.1309 0
M  V30 639 H 64.2382 -0.215922 -5.48475 0
M  V30 640 H 64.4992 1.04939 -4.29465 0
M  V30 641 N 63.5583 1.46682 -0.576371 0
M  V30 642 C 64.7983 2.04306 -0.0621356 0
M  V30 643 C 65.1623 1.4389 1.2712 0
M  V30 644 O 66.3633 1.92675 1.87429 0
M  V30 645 C 64.6343 3.57399 0.00927922 0
M  V30 646 S 66.1933 4.36309 0.466859 0
M  V30 647 H 63.0113 0.710167 -0.0344016 0
M  V30 648 H 65.6133 1.79807 -0.767437 0
M  V30 649 H 64.3173 3.98889 -0.965178 0
M  V30 650 H 63.8483 3.86424 0.737547 0
M  V30 651 H 65.8633 4.6533 1.72287 0
M  V30 652 N 65.0364 0.313813 1.54444 0
M  V30 653 C 66.2844 -0.291099 1.99993 0
M  V30 654 C 66.6054 -1.53418 1.20366 0
M  V30 655 O 65.8754 -1.93544 0.302927 0
M  V30 656 H 64.4554 -0.110552 0.738774 0
M  V30 657 H 67.1174 0.428106 1.9014 0
M  V30 658 H 66.2134 -0.554268 3.07139 0
M  V30 659 N 66.5145 -1.57545 0.0417849 0
M  V30 660 C 67.7915 -1.83642 -0.673433 0
M  V30 661 C 68.1715 -0.928298 -1.89594 0
M  V30 662 O 67.5195 0.0129955 -2.28496 0
M  V30 663 C 67.7295 -3.33155 -1.03964 0
M  V30 664 C 69.0775 -3.99941 -1.42592 0
M  V30 665 O 70.1015 -3.37725 -1.13226 0
M  V30 666 O 68.9605 -5.09619 -1.9736 0
M  V30 667 H 66.0545 -0.757638 -0.331533 0
M  V30 668 H 68.6005 -1.69554 0.070433 0
M  V30 669 H 67.3725 -3.9093 -0.170098 0
M  V30 670 H 66.9955 -3.52396 -1.84126 0
M  V30 671 N 67.9926 0.231505 -1.5589 0
M  V30 672 C 68.9396 1.28682 -1.91598 0
M  V30 673 C 69.9096 1.47071 -0.771974 0
M  V30 674 O 71.0946 1.60802 -1.027 0
M  V30 675 C 68.2346 2.6342 -2.22944 0
M  V30 676 C 67.3476 2.52912 -3.50228 0
M  V30 677 C 66.4826 3.80106 -3.7107 0
M  V30 678 C 65.5216 3.64279 -4.91902 0
M  V30 679 N 64.6586 4.834 -5.09184 0
M  V30 680 H 69.4986 0.975305 -2.81588 0
M  V30 681 H 67.0356 0.470299 -1.39379 0
M  V30 682 H 68.9936 3.41869 -2.39126 0
M  V30 683 H 67.6236 2.92687 -1.36139 0
M  V30 684 H 66.6756 1.6595 -3.42294 0
M  V30 685 H 67.9876 2.37133 -4.38827 0
M  V30 686 H 67.1416 4.66999 -3.87295 0
M  V30 687 H 65.8806 3.98799 -2.80733 0
M  V30 688 H 64.8856 2.7577 -4.75637 0
M  V30 689 H 66.1106 3.47067 -5.83714 0
M  V30 690 H 64.0566 5.02425 -4.21788 0
M  V30 691 H 63.9736 4.70311 -5.91898 0
M  V30 692 H 65.2416 5.71747 -5.29835 0
M  V30 693 N 69.4707 1.49531 0.497807 0
M  V30 694 C 70.4337 1.65916 1.58128 0
M  V30 695 C 71.4337 0.530825 1.51786 0
M  V30 696 O 72.6237 0.797342 1.54881 0
M  V30 697 C 69.7557 1.65951 2.9778 0
M  V30 698 H 70.9487 2.62556 1.44929 0
M  V30 699 H 68.5017 1.38611 0.722275 0
M  V30 700 H 69.2367 0.709065 3.16453 0
M  V30 701 H 69.0217 2.47897 3.03792 0
M  V30 702 H 70.5117 1.80673 3.76493 0
M  V30 703 N 70.9488 -0.749086 1.3866 0
M  V30 704 C 72.1768 -1.53834 1.38358 0
M  V30 705 C 72.5918 -1.88783 -0.0255219 0
M  V30 706 O 71.9488 -1.53101 -0.993292 0
M  V30 707 C 71.9998 -2.83468 2.2434 0
M  V30 708 O 71.7208 -2.50008 3.5976 0
M  V30 709 C 73.2218 -3.7758 2.32267 0
M  V30 710 H 70.4418 -0.47585 0.473083 0
M  V30 711 H 72.9858 -0.926726 1.82297 0
M  V30 712 H 71.1408 -3.40995 1.83851 0
M  V30 713 H 71.5548 -3.33182 4.05081 0
M  V30 714 H 73.0288 -4.65478 2.96706 0
M  V30 715 H 73.5058 -4.18334 1.33765 0
M  V30 716 H 74.1118 -3.25976 2.73166 0
M  V30 717 N 72.4269 -1.23603 -0.977757 0
M  V30 718 C 73.6749 -1.06759 -1.71601 0
M  V30 719 C 73.9959 0.395929 -1.90938 0
M  V30 720 O 73.2659 1.28356 -1.47992 0
M  V30 721 H 71.8459 -0.392062 -0.635843 0
M  V30 722 H 74.5079 -1.55362 -1.1768 0
M  V30 723 H 73.6039 -1.55763 -2.70452 0
M  V30 724 N 73.905 1.17692 -1.04816 0
M  V30 725 C 75.135 1.91508 -0.775128 0
M  V30 726 C 75.543 1.76844 0.67253 0
M  V30 727 O 74.886 1.10057 1.47082 0
M  V30 728 C 74.948 3.43167 -1.0713 0
M  V30 729 C 74.612 3.81612 -2.51438 0
M  V30 730 C 75.609 3.84772 -3.49638 0
M  V30 731 C 73.294 4.12687 -2.86348 0
M  V30 732 C 75.288 4.18469 -4.80794 0
M  V30 733 C 72.975 4.46053 -4.17708 0
M  V30 734 C 73.973 4.48921 -5.14741 0
M  V30 735 O 73.661 4.81504 -6.43746 0
M  V30 736 H 73.393 0.614575 -0.281555 0
M  V30 737 H 75.947 1.50206 -1.40098 0
M  V30 738 H 74.177 3.84745 -0.388342 0
M  V30 739 H 75.866 3.98239 -0.784883 0
M  V30 740 H 76.632 3.60893 -3.24008 0
M  V30 741 H 72.511 4.09627 -2.11486 0
M  V30 742 H 76.055 4.20623 -5.56527 0
M  V30 743 H 71.952 4.69393 -4.43103 0
M  V30 744 H 72.72 4.99377 -6.4851 0
M  V30 745 N 75.3831 0.828654 1.34056 0
M  V30 746 C 76.3331 0.226828 2.26869 0
M  V30 747 C 77.3171 -0.612243 1.48796 0
M  V30 748 O 78.5091 -0.465884 1.70759 0
M  V30 749 C 75.6381 -0.605654 3.37915 0
M  V30 750 C 74.7241 0.244361 4.23395 0
M  V30 751 N 75.1151 1.31815 4.88322 0
M  V30 752 C 73.4131 0.0296616 4.4599 0
M  V30 753 C 74.1141 1.83895 5.51867 0
M  V30 754 N 73.0901 1.14196 5.3147 0
M  V30 755 H 76.8921 1.04811 2.74576 0
M  V30 756 H 74.4061 0.67205 1.47842 0
M  V30 757 H 76.4031 -1.05302 4.03382 0
M  V30 758 H 75.0631 -1.42504 2.91758 0
M  V30 759 H 76.0741 1.70099 4.8917 0
M  V30 760 H 72.7511 -0.757097 4.10578 0
M  V30 761 H 74.1411 2.7376 6.136 0
M  V30 762 N 76.8612 -1.46375 0.584142 0
M  V30 763 C 78.1082 -2.02378 0.0702675 0
M  V30 764 C 78.4362 -1.45545 -1.29023 0
M  V30 765 O 77.6912 -0.610967 -1.85918 0
M  V30 766 C 77.9902 -3.57373 -0.0439342 0
M  V30 767 C 77.6562 -4.33252 1.24915 0
M  V30 768 C 76.3182 -4.53701 1.60341 0
M  V30 769 C 78.6702 -4.7681 2.1048 0
M  V30 770 C 75.9982 -5.1496 2.81128 0
M  V30 771 C 78.3502 -5.39404 3.30494 0
M  V30 772 C 77.0142 -5.5808 3.66201 0
M  V30 773 H 76.2842 -0.740554 0.0257127 0
M  V30 774 H 78.9312 -1.75727 0.761065 0
M  V30 775 H 77.2362 -3.83169 -0.817869 0
M  V30 776 H 78.9332 -3.98384 -0.457318 0
M  V30 777 H 75.5232 -4.17633 0.963364 0
M  V30 778 H 79.7072 -4.60766 1.84414 0
M  V30 779 H 74.9632 -5.27611 3.08928 0
M  V30 780 H 79.1372 -5.72114 3.97063 0
M  V30 781 H 76.7642 -6.05318 4.59885 0
M  V30 782 N 78.3393 -0.321999 -1.54275 0
M  V30 783 C 79.2873 0.560206 -2.25753 0
M  V30 784 C 80.2813 1.11984 -1.27106 0
M  V30 785 O 81.4873 1.06806 -1.44888 0
M  V30 786 H 77.8623 0.199304 -0.725108 0
M  V30 787 H 79.8333 -0.0649365 -2.98329 0
M  V30 788 C 78.5823 1.71023 -3.02731 0
M  V30 789 H 77.9053 1.28885 -3.78456 0
M  V30 790 H 79.3453 2.30314 -3.55993 0
M  V30 791 C 77.8043 2.62692 -2.10938 0
M  V30 792 O 78.3343 3.64364 -1.6912 0
M  V30 793 N 76.5403 2.30891 -1.76459 0
M  V30 794 H 76.0873 1.48253 -2.10663 0
M  V30 795 H 76.0453 2.92487 -1.1532 0
M  V30 796 N 79.8174 1.5752 -0.0501392 0
M  V30 797 C 81.0634 1.92936 0.624798 0
M  V30 798 C 81.3964 0.928685 1.70555 0
M  V30 799 O 80.6714 -0.0454779 1.94447 0
M  V30 800 C 80.9544 3.38737 1.22185 0
M  V30 801 C 80.8074 4.49552 0.149218 0
M  V30 802 C 82.1264 3.84913 2.13378 0
M  V30 803 H 79.2454 0.701604 0.225657 0
M  V30 804 H 81.8874 1.89671 -0.111693 0
M  V30 805 H 80.0374 3.4165 1.84953 0
M  V30 806 H 81.7094 4.58768 -0.482648 0
M  V30 807 H 79.9524 4.30638 -0.522841 0
M  V30 808 H 80.6234 5.48653 0.606966 0
M  V30 809 H 83.0994 3.8387 1.60572 0
M  V30 810 H 81.9754 4.87584 2.52097 0
M  V30 811 H 82.2364 3.21611 3.03346 0
M  V30 812 N 81.2955 -0.223234 1.56011 0
M  V30 813 C 82.2285 -1.30377 1.87289 0
M  V30 814 C 83.2065 -1.45286 0.730112 0
M  V30 815 O 84.3905 -1.61126 0.978302 0
M  V30 816 C 81.5175 -2.67431 2.07843 0
M  V30 817 C 80.5635 -2.69546 3.30526 0
M  V30 818 S 81.3965 -2.23781 4.865 0
M  V30 819 C 82.5525 -3.62714 5.10088 0
M  V30 820 H 82.7855 -1.03652 2.78646 0
M  V30 821 H 80.3185 -0.425393 1.48424 0
M  V30 822 H 82.2765 -3.46336 2.20368 0
M  V30 823 H 80.9375 -2.91381 1.17285 0
M  V30 824 H 80.1305 -3.70255 3.41947 0
M  V30 825 H 79.7325 -1.98703 3.16849 0
M  V30 826 H 82.0245 -4.58391 4.98883 0
M  V30 827 H 82.9675 -3.5621 6.11981 0
M  V30 828 H 83.3755 -3.56323 4.37829 0
M  V30 829 N 82.7736 -1.49793 -0.48987 0
M  V30 830 C 84.0016 -1.63568 -1.26701 0
M  V30 831 C 84.4166 -0.311465 -1.86213 0
M  V30 832 O 83.7736 0.704416 -1.68357 0
M  V30 833 C 83.8246 -2.71284 -2.38929 0
M  V30 834 O 83.5456 -3.9857 -1.81861 0
M  V30 835 C 85.0466 -2.95864 -3.3012 0
M  V30 836 H 82.2666 -0.550342 -0.383881 0
M  V30 837 H 84.8106 -1.95898 -0.586864 0
M  V30 838 H 82.9656 -2.417 -3.02753 0
M  V30 839 H 83.3796 -4.57993 -2.55622 0
M  V30 840 H 84.8536 -3.74941 -4.05121 0
M  V30 841 H 85.3306 -2.06206 -3.87783 0
M  V30 842 H 85.9366 -3.26907 -2.72051 0
M  V30 843 N 84.2517 0.741722 -1.39055 0
M  V30 844 C 85.4917 1.51385 -1.37338 0
M  V30 845 C 85.8557 1.91972 0.0330513 0
M  V30 846 O 87.0567 2.68229 0.175174 0
M  V30 847 C 85.3277 2.72481 -2.31276 0
M  V30 848 S 86.8867 3.62211 -2.47687 0
M  V30 849 H 83.7047 0.517906 -0.487129 0
M  V30 850 H 86.3067 0.86969 -1.7509 0
M  V30 851 H 85.0107 2.40793 -3.32336 0
M  V30 852 H 84.5417 3.41832 -1.94716 0
M  V30 853 H 86.5567 4.65812 -1.70978 0
M  V30 854 N 85.7298 1.2412 0.971189 0
M  V30 855 C 86.6398 1.04747 2.09917 0
M  V30 856 C 87.6558 -0.0107162 1.73997 0
M  V30 857 O 88.8318 0.186714 2.00533 0
M  V30 858 C 85.8968 0.650828 3.40537 0
M  V30 859 C 84.9578 1.7851 3.90426 0
M  V30 860 C 84.1908 1.40729 5.14812 0
M  V30 861 O 84.4138 0.29557 5.69634 0
M  V30 862 O 83.3478 2.23168 5.58999 0
M  V30 863 H 87.1738 1.99304 2.29154 0
M  V30 864 H 84.7588 1.02908 1.08307 0
M  V30 865 H 86.6408 0.440992 4.19086 0
M  V30 866 H 85.3158 -0.265649 3.22608 0
M  V30 867 H 84.2228 2.04966 3.12953 0
M  V30 868 H 85.5558 2.68023 4.12825 0
M  V30 869 N 87.2079 -1.17134 1.05439 0
M  V30 870 C 88.4559 -1.87085 0.764429 0
M  V30 871 C 88.7769 -1.81584 -0.710787 0
M  V30 872 O 88.0469 -1.24349 -1.51374 0
M  V30 873 H 86.6269 -0.692627 0.279779 0
M  V30 874 H 89.2889 -1.42087 1.33406 0
M  V30 875 H 88.3849 -2.92759 1.0816 0
M  V30 876 N 88.686 -0.835752 -1.33615 0
M  V30 877 C 89.926 -0.43599 -1.99696 0
M  V30 878 C 90.29 0.98557 -1.64774 0
M  V30 879 O 91.491 1.48889 -2.23798 0
M  V30 880 C 89.762 -0.646721 -3.515 0
M  V30 881 S 91.321 -0.341715 -4.37467 0
M  V30 882 H 88.139 -0.164136 -0.691795 0
M  V30 883 H 90.741 -1.08436 -1.62671 0
M  V30 884 H 89.445 -1.68077 -3.74404 0
M  V30 885 H 88.976 0.0159173 -3.93397 0
M  V30 886 H 90.991 0.839708 -4.89043 0
M  V30 887 N 90.1641 1.46063 -0.591896 0
M  V30 888 C 91.1111 2.30399 0.136069 0
M  V30 889 C 92.0811 1.41169 0.875238 0
M  V30 890 O 93.2661 1.70112 0.86409 0
M  V30 891 C 90.4061 3.25804 1.13781 0
M  V30 892 C 89.5191 4.30134 0.401137 0
M  V30 893 C 88.6541 5.12659 1.39121 0
M  V30 894 C 87.6931 6.0873 0.641462 0
M  V30 895 N 86.8301 6.8409 1.58004 0
M  V30 896 H 91.6701 2.92118 -0.589144 0
M  V30 897 H 89.2071 1.43959 -0.302342 0
M  V30 898 H 91.1651 3.79569 1.73156 0
M  V30 899 H 89.7951 2.65872 1.83062 0
M  V30 900 H 88.8471 3.79152 -0.307826 0
M  V30 901 H 90.1591 4.98458 -0.184565 0
M  V30 902 H 89.3131 5.70747 2.05749 0
M  V30 903 H 88.0521 4.44316 2.01084 0
M  V30 904 H 87.0571 5.49786 -0.0385419 0
M  V30 905 H 88.2821 6.79095 0.0270945 0
M  V30 906 H 86.2281 6.18449 2.18761 0
M  V30 907 H 86.1451 7.48709 1.04738 0
M  V30 908 H 87.4131 7.4673 2.23639 0
M  V30 909 N 91.6422 0.330177 1.54103 0
M  V30 910 C 92.8902 -0.269871 2.0029 0
M  V30 911 C 93.2112 -1.52133 1.21986 0
M  V30 912 O 92.4812 -1.93212 0.323438 0
M  V30 913 H 91.0612 -0.10271 0.739905 0
M  V30 914 H 93.7232 0.448249 1.89675 0
M  V30 915 H 92.8192 -0.52166 3.07709 0
M  V30 916 N 93.1203 -1.57491 0.0584922 0
M  V30 917 C 94.3673 -1.92978 -0.613648 0
M  V30 918 C 94.6953 -0.937461 -1.70417 0
M  V30 919 O 93.9503 0.049078 -1.95638 0
M  V30 920 C 94.2493 -3.3513 -1.24188 0
M  V30 921 C 93.9153 -4.50037 -0.278826 0
M  V30 922 C 92.5773 -4.81198 -0.0138447 0
M  V30 923 C 94.9293 -5.19807 0.380777 0
M  V30 924 C 92.2573 -5.79473 0.918052 0
M  V30 925 C 94.6093 -6.19079 1.30091 0
M  V30 926 C 93.2733 -6.48665 1.57449 0
M  V30 927 H 92.5433 -0.706157 -0.22455 0
M  V30 928 H 95.1903 -1.91082 0.126533 0
M  V30 929 H 93.4953 -3.33429 -2.05749 0
M  V30 930 H 95.1923 -3.59871 -1.769 0
M  V30 931 H 91.7823 -4.25726 -0.495539 0
M  V30 932 H 95.9663 -4.95939 0.189158 0
M  V30 933 H 91.2223 -6.00727 1.1374 0
M  V30 934 H 95.3963 -6.7225 1.81804 0
M  V30 935 H 93.0233 -7.24628 2.29822 0
M  V30 936 N 94.5984 0.214957 -1.56127 0
M  V30 937 C 95.8454 0.938372 -1.79446 0
M  V30 938 C 96.1734 1.8407 -0.628378 0
M  V30 939 O 95.4284 1.91837 0.386925 0
M  V30 940 C 95.7274 1.80314 -3.0858 0
M  V30 941 C 95.3934 1.05349 -4.3842 0
M  V30 942 C 94.0554 0.846435 -4.73697 0
M  V30 943 C 96.4074 0.524588 -5.18553 0
M  V30 944 C 93.7354 0.098683 -5.86617 0
M  V30 945 C 96.0874 -0.209853 -6.32252 0
M  V30 946 C 94.7514 -0.428102 -6.66126 0
M  V30 947 H 94.0214 0.343375 -0.656639 0
M  V30 948 H 96.6684 0.206077 -1.90388 0
M  V30 949 H 94.9734 2.6035 -2.92789 0
M  V30 950 H 96.6704 2.36513 -3.23825 0
M  V30 951 H 93.2604 1.22486 -4.10725 0
M  V30 952 H 97.4444 0.672008 -4.91729 0
M  V30 953 H 92.7004 -0.0805753 -6.11347 0
M  V30 954 H 96.8744 -0.627157 -6.9357 0
M  V30 955 H 94.5014 -1.00944 -7.53468 0
M  V30 956 N 96.0765 1.50051 0.48192 0
M  V30 957 C 97.4925 1.37237 0.814756 0
M  V30 958 C 97.6925 0.420109 1.97072 0
M  V30 959 O 96.7485 -0.141246 2.52105 0
M  V30 960 C 98.0615 2.78375 1.13701 0
M  V30 961 C 99.6095 2.87213 1.2441 0
M  V30 962 C 100.084 4.29161 1.59954 0
M  V30 963 N 101.575 4.32061 1.66967 0
M  V30 964 C 102.31 5.38879 1.95952 0
M  V30 965 N 101.806 6.55918 2.23031 0
M  V30 966 N 103.599 5.26312 1.97363 0
M  V30 967 H 95.7505 2.10546 -0.28005 0
M  V30 968 H 98.0135 0.945921 -0.0627454 0
M  V30 969 H 97.7195 3.49845 0.360787 0
M  V30 970 H 97.5935 3.14941 2.07586 0
M  V30 971 H 99.9805 2.15969 2.01101 0
M  V30 972 H 100.061 2.54204 0.285299 0
M  V30 973 H 99.7055 5.00938 0.838067 0
M  V30 974 H 99.6355 4.59648 2.56966 0
M  V30 975 H 102.126 3.47661 1.48123 0
M  V30 976 H 102.439 7.33139 2.44391 0
M  V30 977 H 100.784 6.59112 2.20447 0
M  V30 978 H 103.975 4.33876 1.75697 0
M  V30 979 H 104.148 6.09649 2.19618 0
M  V30 980 N 97.5546 -0.734337 1.39446 0
M  V30 981 C 98.9706 -1.03997 1.21065 0
M  V30 982 C 99.1706 -2.01369 0.0727019 0
M  V30 983 O 98.2266 -2.45856 -0.575426 0
M  V30 984 C 99.5396 -1.60163 2.54496 0
M  V30 985 C 101.088 -1.7224 2.61347 0
M  V30 986 C 101.563 -2.31814 3.95002 0
M  V30 987 N 103.054 -2.39223 3.96644 0
M  V30 988 C 103.789 -2.86258 4.96834 0
M  V30 989 N 103.285 -3.33184 6.07421 0
M  V30 990 N 105.078 -2.85473 4.84213 0
M  V30 991 H 97.2286 -0.0885624 2.12215 0
M  V30 992 H 99.4916 -0.10191 0.942506 0
M  V30 993 H 99.1976 -0.960811 3.38321 0
M  V30 994 H 99.0716 -2.5896 2.74262 0
M  V30 995 H 101.459 -2.35443 1.77906 0
M  V30 996 H 101.54 -0.720939 2.4543 0
M  V30 997 H 101.184 -1.69238 4.78875 0
M  V30 998 H 101.114 -3.32638 4.08239 0
M  V30 999 H 103.605 -2.06057 3.16779 0
M  V30 1000 H 103.918 -3.67586 6.7978 0
M  V30 1001 H 102.263 -3.31191 6.11013 0
M  V30 1002 H 105.454 -2.48136 3.96921 0
M  V30 1003 H 105.627 -3.21814 5.62441 0
M  V30 1004 N 99.0327 -1.24633 -0.964593 0
M  V30 1005 C 99.9957 -1.0424 -2.04124 0
M  V30 1006 C 100.996 0.00137563 -1.608 0
M  V30 1007 O 102.186 -0.239883 -1.7254 0
M  V30 1008 C 99.3177 -0.580588 -3.3592 0
M  V30 1009 H 100.511 -1.99803 -2.23649 0
M  V30 1010 H 98.0637 -1.06899 -1.14027 0
M  V30 1011 H 98.7987 0.3781 -3.22088 0
M  V30 1012 H 98.5837 -1.33398 -3.6871 0
M  V30 1013 H 100.074 -0.459034 -4.15069 0
M  V30 1014 N 100.511 1.16574 -1.06058 0
M  V30 1015 C 101.444 2.19798 -0.61352 0
M  V30 1016 C 102.422 1.58509 0.362453 0
M  V30 1017 O 103.606 1.86527 0.271994 0
M  V30 1018 C 100.733 3.3855 0.100915 0
M  V30 1019 C 99.7788 4.18317 -0.831438 0
M  V30 1020 S 100.612 4.82375 -2.32539 0
M  V30 1021 C 101.768 6.04508 -1.62238 0
M  V30 1022 H 102.001 2.5738 -1.48805 0
M  V30 1023 H 99.5338 1.27327 -0.873338 0
M  V30 1024 H 101.492 4.07358 0.506898 0
M  V30 1025 H 100.153 2.99338 0.951604 0
M  V30 1026 H 99.3458 5.03232 -0.278071 0
M  V30 1027 H 98.9478 3.5499 -1.17719 0
M  V30 1028 H 101.24 6.71133 -0.926622 0
M  V30 1029 H 102.183 6.64389 -2.44934 0
M  V30 1030 H 102.591 5.53559 -1.106 0
M  V30 1031 N 101.989 0.842826 1.3317 0
M  V30 1032 C 102.936 0.276885 2.29133 0
M  V30 1033 C 103.906 -0.609527 1.54512 0
M  V30 1034 O 105.091 -0.546955 1.82792 0
M  V30 1035 C 102.231 -0.538707 3.40869 0
M  V30 1036 C 101.344 0.372169 4.30394 0
M  V30 1037 C 100.479 -0.454908 5.29249 0
M  V30 1038 C 99.5179 0.45411 6.10413 0
M  V30 1039 N 98.6549 -0.335075 7.013 0
M  V30 1040 H 103.495 1.10052 2.76934 0
M  V30 1041 H 101.032 0.554161 1.36262 0
M  V30 1042 H 102.99 -1.02709 4.0436 0
M  V30 1043 H 101.62 -1.32727 2.9425 0
M  V30 1044 H 100.672 0.97888 3.6759 0
M  V30 1045 H 101.984 1.0703 4.87182 0
M  V30 1046 H 101.138 -1.00695 5.98285 0
M  V30 1047 H 99.8769 -1.18646 4.73048 0
M  V30 1048 H 98.8819 1.01813 5.40291 0
M  V30 1049 H 100.107 1.18409 6.68697 0
M  V30 1050 H 98.0529 -1.04994 6.47543 0
M  V30 1051 H 97.9699 0.304262 7.55387 0
M  V30 1052 H 99.2379 -0.869224 7.74638 0
M  V30 1053 N 103.467 -1.45747 0.599634 0
M  V30 1054 C 104.883 -1.57424 0.26264 0
M  V30 1055 C 105.083 -1.59222 -1.23493 0
M  V30 1056 O 104.139 -1.51825 -2.01756 0
M  V30 1057 C 105.452 -2.86061 0.926795 0
M  V30 1058 C 107 -2.99722 0.901967 0
M  V30 1059 C 107.475 -4.31119 1.54598 0
M  V30 1060 N 108.966 -4.37858 1.5111 0
M  V30 1061 C 109.701 -5.3818 1.97863 0
M  V30 1062 N 109.197 -6.45083 2.52666 0
M  V30 1063 N 110.99 -5.29487 1.88679 0
M  V30 1064 H 103.141 -1.42823 1.57211 0
M  V30 1065 H 105.404 -0.68235 0.658105 0
M  V30 1066 H 105.11 -2.90605 1.98095 0
M  V30 1067 H 104.984 -3.74563 0.445238 0
M  V30 1068 H 107.371 -2.9475 -0.143617 0
M  V30 1069 H 107.452 -2.12652 1.42171 0
M  V30 1070 H 107.096 -4.36849 2.59085 0
M  V30 1071 H 107.026 -5.16992 1.00132 0
M  V30 1072 H 109.517 -3.61209 1.11068 0
M  V30 1073 H 109.83 -7.17869 2.86155 0
M  V30 1074 H 108.175 -6.45856 2.56701 0
M  V30 1075 H 111.366 -4.44877 1.4561 0
M  V30 1076 H 111.539 -6.07524 2.25429 0
M  V30 1077 N 104.945 -0.338344 -1.53925 0
M  V30 1078 C 105.893 0.536231 -2.26335 0
M  V30 1079 C 106.887 1.1063 -1.28286 0
M  V30 1080 O 108.093 1.05264 -1.46012 0
M  V30 1081 H 104.468 0.191602 -0.727181 0
M  V30 1082 H 106.439 -0.0965747 -2.98244 0
M  V30 1083 C 105.188 1.67803 -3.04528 0
M  V30 1084 H 104.511 1.24864 -3.79801 0
M  V30 1085 H 105.951 2.26526 -3.58416 0
M  V30 1086 C 104.41 2.60439 -2.13712 0
M  V30 1087 O 104.94 3.6255 -1.72975 0
M  V30 1088 N 103.146 2.29006 -1.78898 0
M  V30 1089 H 102.693 1.46011 -2.12223 0
M  V30 1090 H 102.651 2.91248 -1.18416 0
M  V30 1091 N 106.423 1.57458 -0.0668435 0
M  V30 1092 C 107.386 2.11323 0.887422 0
M  V30 1093 C 108.386 1.03618 1.22964 0
M  V30 1094 O 109.576 1.29626 1.16373 0
M  V30 1095 C 106.708 2.61048 2.19242 0
M  V30 1096 H 107.901 2.96942 0.420194 0
M  V30 1097 H 105.454 1.55239 0.181793 0
M  V30 1098 H 106.189 1.78868 2.70512 0
M  V30 1099 H 105.974 3.39769 1.95702 0
M  V30 1100 H 107.464 3.02814 2.87565 0
M  V30 1101 N 107.901 -0.206675 1.56239 0
M  V30 1102 C 109.317 -0.557025 1.49564 0
M  V30 1103 C 109.517 -1.86424 0.764735 0
M  V30 1104 O 108.573 -2.50584 0.310491 0
M  V30 1105 C 109.886 -0.622478 2.94186 0
M  V30 1106 C 111.434 -0.712099 3.04792 0
M  V30 1107 C 111.909 -0.808767 4.50803 0
M  V30 1108 N 113.4 -0.8726 4.54907 0
M  V30 1109 C 114.135 -0.967365 5.65181 0
M  V30 1110 N 113.631 -1.02515 6.85173 0
M  V30 1111 N 115.424 -1.00366 5.53067 0
M  V30 1112 H 107.575 0.650943 2.02179 0
M  V30 1113 H 109.838 0.230387 0.919579 0
M  V30 1114 H 109.544 0.268727 3.50672 0
M  V30 1115 H 109.418 -1.4811 3.46905 0
M  V30 1116 H 111.805 -1.59374 2.48363 0
M  V30 1117 H 111.886 0.172489 2.55218 0
M  V30 1118 H 111.53 0.0684754 5.07854 0
M  V30 1119 H 111.46 -1.70899 4.98098 0
M  V30 1120 H 113.951 -0.837657 3.68499 0
M  V30 1121 H 114.264 -1.09765 7.64965 0
M  V30 1122 H 112.609 -0.994026 6.87855 0
M  V30 1123 H 115.8 -0.95527 4.58249 0
M  V30 1124 H 115.973 -1.07405 6.39037 0
M  V30 1125 N 109.379 -1.50304 -0.473955 0
M  V30 1126 C 110.309 -1.71886 -1.58042 0
M  V30 1127 C 111.29 -0.567799 -1.60344 0
M  V30 1128 O 112.475 -0.806623 -1.76656 0
M  V30 1129 C 109.605 -1.81036 -2.96384 0
M  V30 1130 C 108.559 -2.962 -3.08949 0
M  V30 1131 C 107.885 -2.9049 -4.48909 0
M  V30 1132 C 109.185 -4.36752 -2.86434 0
M  V30 1133 H 110.879 -2.64527 -1.40234 0
M  V30 1134 H 108.425 -1.27295 -0.673201 0
M  V30 1135 H 110.378 -1.94719 -3.73714 0
M  V30 1136 H 109.102 -0.850147 -3.15341 0
M  V30 1137 H 107.761 -2.82164 -2.3405 0
M  V30 1138 H 107.409 -1.92321 -4.64781 0
M  V30 1139 H 107.109 -3.67802 -4.58253 0
M  V30 1140 H 108.633 -3.06218 -5.28264 0
M  V30 1141 H 110.047 -4.5133 -3.53517 0
M  V30 1142 H 108.444 -5.15493 -3.07225 0
M  V30 1143 H 109.514 -4.49321 -1.82316 0
M  V30 1144 N 110.857 0.726932 -1.39834 0
M  V30 1145 C 112.273 1.03354 -1.21615 0
M  V30 1146 C 112.473 2.01327 -0.08338 0
M  V30 1147 O 111.529 2.46158 0.56238 0
M  V30 1148 C 112.842 1.58811 -2.55342 0
M  V30 1149 C 114.39 1.70851 -2.62257 0
M  V30 1150 C 114.865 2.29716 -3.96225 0
M  V30 1151 N 116.356 2.37116 -3.97907 0
M  V30 1152 C 117.091 2.83619 -4.98345 0
M  V30 1153 N 116.587 3.29958 -6.09179 0
M  V30 1154 N 118.38 2.82901 -4.8572 0
M  V30 1155 H 110.531 0.0773069 -2.12259 0
M  V30 1156 H 112.794 0.0969102 -0.943034 0
M  V30 1157 H 112.5 0.942855 -3.38826 0
M  V30 1158 H 112.374 2.57502 -2.75632 0
M  V30 1159 H 114.761 2.34497 -1.79152 0
M  V30 1160 H 114.842 0.707913 -2.45809 0
M  V30 1161 H 114.486 1.66696 -4.79765 0
M  V30 1162 H 114.416 3.30469 -4.09997 0
M  V30 1163 H 116.907 2.04374 -3.17868 0
M  V30 1164 H 117.22 3.63976 -6.8172 0
M  V30 1165 H 115.565 3.27946 -6.12761 0
M  V30 1166 H 118.756 2.46027 -3.98231 0
M  V30 1167 H 118.929 3.18827 -5.6414 0
M  V30 1168 N 112.336 1.25143 0.95797 0
M  V30 1169 C 113.576 1.10893 1.71703 0
M  V30 1170 C 113.94 -0.34478 1.88879 0
M  V30 1171 O 115.141 -0.609014 2.6181 0
M  V30 1172 C 113.412 1.83889 3.06463 0
M  V30 1173 S 114.971 1.85491 3.97666 0
M  V30 1174 H 111.789 0.396428 0.590226 0
M  V30 1175 H 114.391 1.58618 1.14283 0
M  V30 1176 H 113.095 2.88756 2.9163 0
M  V30 1177 H 112.626 1.36538 3.68946 0
M  V30 1178 H 114.641 0.929553 4.87415 0
M  V30 1179 N 113.814 -1.1601 1.06675 0
M  V30 1180 C 115.225 -1.68235 0.809565 0
M  V30 1181 C 115.576 -1.8454 -0.666303 0
M  V30 1182 O 114.701 -1.54374 -1.5165 0
M  V30 1183 C 115.296 -3.05585 1.46299 0
M  V30 1184 C 113.855 -3.54915 1.25349 0
M  V30 1185 C 113.002 -2.30804 1.53703 0
M  V30 1186 H 115.953 -1.00318 1.22971 0
M  V30 1187 H 115.974 -3.70174 0.880431 0
M  V30 1188 H 115.486 -2.93686 2.53713 0
M  V30 1189 H 113.587 -3.72067 0.199261 0
M  V30 1190 H 113.7 -4.36774 1.9689 0
M  V30 1191 H 112.064 -2.36007 0.957739 0
M  V30 1192 H 112.847 -2.21499 2.62284 0
M  V30 1193 N 115.292 -0.849877 -1.32721 0
M  V30 1194 C 116.539 -0.450923 -1.97416 0
M  V30 1195 C 116.867 0.992376 -1.67279 0
M  V30 1196 O 116.122 1.71048 -0.950845 0
M  V30 1197 C 116.421 -0.631272 -3.51781 0
M  V30 1198 C 116.087 -2.04432 -4.01894 0
M  V30 1199 C 114.749 -2.4308 -4.1529 0
M  V30 1200 C 117.101 -2.96679 -4.28522 0
M  V30 1201 C 114.429 -3.73257 -4.52654 0
M  V30 1202 C 116.781 -4.26349 -4.67343 0
M  V30 1203 C 115.445 -4.64939 -4.78945 0
M  V30 1204 H 114.715 -0.165004 -0.722395 0
M  V30 1205 H 117.362 -1.07901 -1.58207 0
M  V30 1206 H 115.667 0.0800767 -3.91718 0
M  V30 1207 H 117.364 -0.302709 -3.99856 0
M  V30 1208 H 113.954 -1.73419 -3.91949 0
M  V30 1209 H 118.138 -2.68054 -4.17685 0
M  V30 1210 H 113.394 -4.02946 -4.59831 0
M  V30 1211 H 117.568 -4.97895 -4.86902 0
M  V30 1212 H 115.195 -5.65855 -5.07654 0
M  V30 1213 N 116.77 1.45427 -0.607355 0
M  V30 1214 C 118.186 1.57283 -0.270985 0
M  V30 1215 C 118.386 1.59875 1.22647 0
M  V30 1216 O 117.442 1.52893 2.00948 0
M  V30 1217 C 118.755 2.85566 -0.941952 0
M  V30 1218 C 120.303 2.9924 -0.917849 0
M  V30 1219 C 120.778 4.30293 -1.56882 0
M  V30 1220 N 122.269 4.37051 -1.5343 0
M  V30 1221 C 123.004 5.37123 -2.00715 0
M  V30 1222 N 122.5 6.43734 -2.56084 0
M  V30 1223 N 124.293 5.28479 -1.91484 0
M  V30 1224 H 116.444 1.41988 -1.57966 0
M  V30 1225 H 118.707 0.67885 -0.661715 0
M  V30 1226 H 118.413 2.8955 -1.99633 0
M  V30 1227 H 118.287 3.74322 -0.465096 0
M  V30 1228 H 120.674 2.94822 0.127984 0
M  V30 1229 H 120.755 2.11895 -1.43297 0
M  V30 1230 H 120.399 4.35469 -2.61398 0
M  V30 1231 H 120.329 5.16454 -1.02873 0
M  V30 1232 H 122.82 3.60615 -1.12982 0
M  V30 1233 H 123.133 7.16341 -2.89958 0
M  V30 1234 H 121.478 6.44485 -2.60122 0
M  V30 1235 H 124.669 4.44098 -1.47967 0
M  V30 1236 H 124.842 6.0632 -2.28648 0
M  V30 1237 N 118.248 0.346503 1.53744 0
M  V30 1238 C 119.195 -0.508914 2.25119 0
M  V30 1239 C 120.165 -1.09315 1.25058 0
M  V30 1240 O 121.35 -1.12921 1.53797 0
M  V30 1241 C 118.49 -1.65246 3.02965 0
M  V30 1242 C 117.603 -1.09525 4.17886 0
M  V30 1243 C 116.738 -2.20634 4.83212 0
M  V30 1244 C 115.777 -1.62279 5.90196 0
M  V30 1245 N 114.914 -2.67143 6.49291 0
M  V30 1246 H 119.754 0.106283 2.9781 0
M  V30 1247 H 117.291 0.0642227 1.4696 0
M  V30 1248 H 119.249 -2.32574 3.4636 0
M  V30 1249 H 117.879 -2.2386 2.32565 0
M  V30 1250 H 116.931 -0.312818 3.79112 0
M  V30 1251 H 118.243 -0.628444 4.94825 0
M  V30 1252 H 117.397 -2.95821 5.29693 0
M  V30 1253 H 116.136 -2.70659 4.05703 0
M  V30 1254 H 115.141 -0.855989 5.43096 0
M  V30 1255 H 116.366 -1.13102 6.69615 0
M  V30 1256 H 114.312 -3.16417 5.74645 0
M  V30 1257 H 114.229 -2.25093 7.21713 0
M  V30 1258 H 115.497 -3.4209 7.00425 0
M  V30 1259 N 119.726 -1.57421 0.075193 0
M  V30 1260 C 120.974 -1.93236 -0.591974 0
M  V30 1261 C 121.295 -0.956241 -1.69944 0
M  V30 1262 O 120.565 -0.00494792 -1.95899 0
M  V30 1263 H 119.145 -0.713355 -0.22166 0
M  V30 1264 H 121.807 -1.9444 0.133848 0
M  V30 1265 H 120.903 -2.95131 -1.01509 0
M  V30 1266 N 121.204 0.198386 -1.56346 0
M  V30 1267 C 122.167 1.22952 -1.93431 0
M  V30 1268 C 123.167 1.38611 -0.815092 0
M  V30 1269 O 124.357 1.36479 -1.08255 0
M  V30 1270 C 121.489 2.59946 -2.20546 0
M  V30 1271 H 122.682 0.912626 -2.85677 0
M  V30 1272 H 120.235 0.43977 -1.49986 0
M  V30 1273 H 120.97 2.96696 -1.30927 0
M  V30 1274 H 120.755 2.49953 -3.02102 0
M  V30 1275 H 122.245 3.3431 -2.50253 0
M  V30 1276 N 122.682 1.50554 0.465978 0
M  V30 1277 C 123.922 1.63439 1.22747 0
M  V30 1278 C 124.286 0.329822 1.89146 0
M  V30 1279 O 125.487 0.334161 2.66715 0
M  V30 1280 C 123.758 2.78542 2.2394 0
M  V30 1281 S 125.317 3.11591 3.0896 0
M  V30 1282 H 122.135 0.576113 0.416672 0
M  V30 1283 H 124.737 1.88357 0.523641 0
M  V30 1284 H 123.441 3.71805 1.7375 0
M  V30 1285 H 122.972 2.55726 2.98944 0
M  V30 1286 H 124.987 2.55811 4.25176 0
M  V30 1287 N 124.16 -0.719506 1.40217 0
M  V30 1288 C 125.07 -1.86378 1.42479 0
M  V30 1289 C 126.086 -1.71073 0.317834 0
M  V30 1290 O 127.262 -1.93406 0.561794 0
M  V30 1291 C 124.327 -3.22136 1.28178 0
M  V30 1292 C 123.388 -3.49723 2.48982 0
M  V30 1293 C 122.621 -4.79004 2.35353 0
M  V30 1294 O 122.844 -5.53821 1.36524 0
M  V30 1295 O 121.778 -5.06839 3.2465 0
M  V30 1296 H 125.604 -1.87425 2.38968 0
M  V30 1297 H 123.189 -0.869405 1.21498 0
M  V30 1298 H 125.071 -4.03234 1.22395 0
M  V30 1299 H 123.746 -3.21825 0.347934 0
M  V30 1300 H 122.653 -2.6865 2.60342 0
M  V30 1301 H 123.986 -3.54828 3.41113 0
M  V30 1302 N 125.638 -1.25649 -0.95132 0
M  V30 1303 C 126.887 -1.09988 -1.69073 0
M  V30 1304 C 127.2 0.358355 -1.92289 0
M  V30 1305 O 128.406 0.635466 -2.63958 0
M  V30 1306 C 126.862 -1.92012 -3.044 0
M  V30 1307 C 126.47 -3.42347 -2.88968 0
M  V30 1308 C 128.214 -1.8493 -3.82101 0
M  V30 1309 C 126.121 -4.16655 -4.19705 0
M  V30 1310 H 125.051 -0.407993 -0.63408 0
M  V30 1311 H 127.702 -1.49873 -1.05879 0
M  V30 1312 H 126.084 -1.44952 -3.68517 0
M  V30 1313 H 127.258 -3.97104 -2.33762 0
M  V30 1314 H 125.573 -3.50557 -2.24719 0
M  V30 1315 H 128.17 -2.37739 -4.78941 0
M  V30 1316 H 128.513 -0.817883 -4.08187 0
M  V30 1317 H 129.046 -2.29758 -3.2474 0
M  V30 1318 H 125.785 -5.20224 -3.98807 0
M  V30 1319 H 125.305 -3.66681 -4.74663 0
M  V30 1320 H 126.984 -4.24551 -4.88227 0
M  V30 1321 N 127.117 1.15442 -1.07289 0
M  V30 1322 C 128.345 1.90096 -0.81676 0
M  V30 1323 C 128.76 1.7798 0.629966 0
M  V30 1324 O 128.117 1.1313 1.43206 0
M  V30 1325 C 128.168 3.40466 -1.21512 0
M  V30 1326 O 127.889 3.52232 -2.60508 0
M  V30 1327 C 129.39 4.32145 -0.988198 0
M  V30 1328 H 126.61 0.602495 -0.295366 0
M  V30 1329 H 129.154 1.4627 -1.42918 0
M  V30 1330 H 127.309 3.81958 -0.647039 0
M  V30 1331 H 127.723 4.45549 -2.76742 0
M  V30 1332 H 129.197 5.36072 -1.31645 0
M  V30 1333 H 129.674 4.39135 0.0755063 0
M  V30 1334 H 130.28 3.96395 -1.54115 0
M  V30 1335 N 128.595 0.856903 1.32268 0
M  V30 1336 C 130.011 0.547061 1.49931 0
M  V30 1337 C 130.211 -0.921781 1.7918 0
M  V30 1338 O 129.267 -1.70469 1.8627 0
M  V30 1339 C 130.58 1.43599 2.64196 0
M  V30 1340 C 132.128 1.43665 2.78081 0
M  V30 1341 C 132.603 2.31085 3.95428 0
M  V30 1342 N 134.094 2.28893 4.02694 0
M  V30 1343 C 134.829 2.93262 4.92732 0
M  V30 1344 N 134.325 3.66751 5.87763 0
M  V30 1345 N 136.118 2.82638 4.85873 0
M  V30 1346 H 128.269 1.8075 1.11549 0
M  V30 1347 H 130.532 0.772144 0.549997 0
M  V30 1348 H 130.238 2.48058 2.49319 0
M  V30 1349 H 130.112 1.12502 3.60032 0
M  V30 1350 H 132.499 0.399701 2.92381 0
M  V30 1351 H 132.58 1.7878 1.82952 0
M  V30 1352 H 132.224 3.34849 3.81888 0
M  V30 1353 H 132.154 1.93302 4.89839 0
M  V30 1354 H 134.645 1.75466 3.34694 0
M  V30 1355 H 134.958 4.13027 6.53168 0
M  V30 1356 H 133.303 3.70859 5.87783 0
M  V30 1357 H 136.494 2.24774 4.10602 0
M  V30 1358 H 136.667 3.33084 5.55841 0
M  V30 1359 N 130.073 -1.45103 0.615059 0
M  V30 1360 C 131.02 -2.30586 -0.0993978 0
M  V30 1361 C 131.99 -1.42544 -0.852669 0
M  V30 1362 O 133.175 -1.71465 -0.836917 0
M  V30 1363 C 130.315 -3.27572 -1.08583 0
M  V30 1364 C 129.428 -4.30717 -0.332656 0
M  V30 1365 C 128.563 -5.14807 -1.30947 0
M  V30 1366 C 127.602 -6.09673 -0.544538 0
M  V30 1367 N 126.739 -6.86517 -1.47101 0
M  V30 1368 H 131.579 -2.91144 0.635542 0
M  V30 1369 H 129.116 -1.4346 0.325206 0
M  V30 1370 H 131.074 -3.82276 -1.67095 0
M  V30 1371 H 129.704 -2.68751 -1.78809 0
M  V30 1372 H 128.756 -3.78615 0.368107 0
M  V30 1373 H 130.068 -4.98102 0.263842 0
M  V30 1374 H 129.222 -5.73948 -1.96643 0
M  V30 1375 H 127.961 -4.47458 -1.9399 0
M  V30 1376 H 126.966 -5.49656 0.126003 0
M  V30 1377 H 128.191 -6.79052 0.080947 0
M  V30 1378 H 126.137 -6.21851 -2.08895 0
M  V30 1379 H 126.054 -7.50281 -0.928137 0
M  V30 1380 H 127.322 -7.50194 -2.11731 0
M  V30 1381 N 131.551 -0.354651 -1.53558 0
M  V30 1382 C 132.779 0.239515 -2.05509 0
M  V30 1383 C 133.194 1.4333 -1.2289 0
M  V30 1384 O 132.551 1.80538 -0.266899 0
M  V30 1385 C 132.602 0.643719 -3.55723 0
M  V30 1386 O 132.323 -0.502602 -4.35207 0
M  V30 1387 C 133.824 1.29743 -4.23889 0
M  V30 1388 H 131.044 0.0442697 -0.669538 0
M  V30 1389 H 133.588 -0.509856 -1.98042 0
M  V30 1390 H 131.743 1.34302 -3.63376 0
M  V30 1391 H 132.157 -0.178172 -5.24197 0
M  V30 1392 H 133.631 1.53091 -5.30346 0
M  V30 1393 H 134.108 2.25441 -3.76926 0
M  V30 1394 H 134.714 0.639865 -4.20459 0
M  V30 1395 N 133.029 1.57378 -0.0835403 0
M  V30 1396 C 134.445 1.57246 0.273109 0
M  V30 1397 C 134.645 1.09385 1.69225 0
M  V30 1398 O 133.701 0.765051 2.40631 0
M  V30 1399 C 135.014 3.00614 0.0720628 0
M  V30 1400 C 136.562 3.12684 0.1407 0
M  V30 1401 C 137.037 4.57989 -0.0322094 0
M  V30 1402 N 138.528 4.63194 0.0230085 0
M  V30 1403 C 139.263 5.73335 -0.0861941 0
M  V30 1404 N 138.759 6.9235 -0.24958 0
M  V30 1405 N 140.552 5.62093 -0.0282886 0
M  V30 1406 H 132.703 1.86801 -1.0109 0
M  V30 1407 H 134.966 0.861687 -0.395222 0
M  V30 1408 H 134.672 3.39786 -0.907662 0
M  V30 1409 H 134.546 3.68193 0.81936 0
M  V30 1410 H 136.933 2.73391 1.11092 0
M  V30 1411 H 137.014 2.47719 -0.637896 0
M  V30 1412 H 136.658 4.97973 -0.999247 0
M  V30 1413 H 136.588 5.21 0.765937 0
M  V30 1414 H 139.079 3.77613 0.14722 0
M  V30 1415 H 139.392 7.72117 -0.324733 0
M  V30 1416 H 137.737 6.94415 -0.285097 0
M  V30 1417 H 140.928 4.67997 0.0981408 0
M  V30 1418 H 141.101 6.47895 -0.116845 0
M  V30 1419 N 134.507 -0.190092 1.56449 0
M  V30 1420 C 135.923 -0.54113 1.50146 0
M  V30 1421 C 136.123 -1.85603 0.784465 0
M  V30 1422 O 135.179 -2.5024 0.337051 0
M  V30 1423 C 136.492 -0.591241 2.9483 0
M  V30 1424 C 138.04 -0.679732 3.0553 0
M  V30 1425 C 138.515 -0.760908 4.51635 0
M  V30 1426 N 140.006 -0.824302 4.55806 0
M  V30 1427 C 140.741 -0.907365 5.66175 0
M  V30 1428 N 140.237 -0.952422 6.86222 0
M  V30 1429 N 142.03 -0.94494 5.541 0
M  V30 1430 H 134.181 0.67235 2.01478 0
M  V30 1431 H 136.444 0.240127 0.917084 0
M  V30 1432 H 136.15 0.305905 3.50367 0
M  V30 1433 H 136.024 -1.44422 3.48457 0
M  V30 1434 H 138.411 -1.56731 2.50039 0
M  V30 1435 H 138.492 0.199549 2.5502 0
M  V30 1436 H 138.136 0.122336 5.07753 0
M  V30 1437 H 138.066 -1.65606 4.99882 0
M  V30 1438 H 140.557 -0.798526 3.69367 0
M  V30 1439 H 140.87 -1.01645 7.66086 0
M  V30 1440 H 139.215 -0.921014 6.8887 0
M  V30 1441 H 142.406 -0.906612 4.59236 0
M  V30 1442 H 142.579 -1.00622 6.4014 0
M  V30 1443 N 135.985 -1.50799 -0.457987 0
M  V30 1444 C 136.917 -1.66786 -1.57211 0
M  V30 1445 C 137.93 -0.548962 -1.53265 0
M  V30 1446 O 139.119 -0.8226 -1.58416 0
M  V30 1447 C 136.219 -1.64834 -2.96113 0
M  V30 1448 C 135.392 -2.92971 -3.24787 0
M  V30 1449 C 134.451 -2.83485 -4.43309 0
M  V30 1450 O 133.477 -3.5744 -4.42973 0
M  V30 1451 N 134.679 -1.97929 -5.45714 0
M  V30 1452 H 137.444 -2.62889 -1.43909 0
M  V30 1453 H 135.005 -1.48427 -0.646617 0
M  V30 1454 H 136.997 -1.56084 -3.7339 0
M  V30 1455 H 135.567 -0.764118 -3.03117 0
M  V30 1456 H 134.787 -3.15749 -2.36 0
M  V30 1457 H 136.075 -3.77834 -3.40762 0
M  V30 1458 H 135.473 -1.37182 -5.48815 0
M  V30 1459 H 134.03 -1.95073 -6.21924 0
M  V30 1460 N 137.463 0.71206 -1.40597 0
M  V30 1461 C 138.703 1.48438 -1.40519 0
M  V30 1462 C 139.067 1.91998 -0.00767611 0
M  V30 1463 O 140.268 2.6854 0.118239 0
M  V30 1464 C 138.539 2.67514 -2.37004 0
M  V30 1465 S 140.098 3.56875 -2.55315 0
M  V30 1466 H 136.916 0.507457 -0.498005 0
M  V30 1467 H 139.518 0.832355 -1.76896 0
M  V30 1468 H 138.222 2.33689 -3.37368 0
M  V30 1469 H 137.753 3.37625 -2.01923 0
M  V30 1470 H 139.768 4.62081 -1.8082 0
M  V30 1471 N 138.941 1.26152 0.944643 0
M  V30 1472 C 139.873 1.03199 2.04652 0
M  V30 1473 C 140.886 -0.00642356 1.62799 0
M  V30 1474 O 142.075 0.233263 1.76969 0
M  V30 1475 C 139.175 0.540111 3.34568 0
M  V30 1476 C 138.348 1.64697 4.05208 0
M  V30 1477 C 137.407 1.15374 5.13396 0
M  V30 1478 O 136.433 1.85013 5.38293 0
M  V30 1479 N 137.635 0.00031529 5.805 0
M  V30 1480 H 140.4 1.9808 2.2491 0
M  V30 1481 H 137.961 1.17491 1.11389 0
M  V30 1482 H 139.953 0.194401 4.04233 0
M  V30 1483 H 138.523 -0.315021 3.11009 0
M  V30 1484 H 137.743 2.16379 3.29506 0
M  V30 1485 H 139.031 2.3903 4.49157 0
M  V30 1486 H 138.429 -0.581336 5.62705 0
M  V30 1487 H 136.986 -0.286346 6.51171 0
M  V30 1488 N 140.419 -1.14872 1.07899 0
M  V30 1489 C 141.382 -2.17986 0.708161 0
M  V30 1490 C 142.382 -1.58775 -0.25442 0
M  V30 1491 O 143.572 -1.74166 -0.034645 0
M  V30 1492 C 140.704 -3.40871 0.0446929 0
M  V30 1493 H 141.897 -2.52306 1.62116 0
M  V30 1494 H 139.45 -1.2943 0.876218 0
M  V30 1495 H 140.185 -3.12124 -0.880281 0
M  V30 1496 H 139.97 -3.8511 0.737091 0
M  V30 1497 H 141.46 -4.17121 -0.19991 0
M  V30 1498 N 141.898 -0.863906 -1.31812 0
M  V30 1499 C 143.138 -0.47825 -1.98726 0
M  V30 1500 C 143.502 0.950397 -1.66828 0
M  V30 1501 O 144.703 1.44109 -2.26905 0
M  V30 1502 C 142.974 -0.721134 -3.50049 0
M  V30 1503 S 144.533 -0.434432 -4.36644 0
M  V30 1504 H 141.351 -0.178773 -0.688158 0
M  V30 1505 H 143.953 -1.11862 -1.60334 0
M  V30 1506 H 142.657 -1.75981 -3.70755 0
M  V30 1507 H 142.188 -0.0675315 -3.93342 0
M  V30 1508 H 144.203 0.735786 -4.90714 0
M  V30 1509 N 143.376 1.44774 -0.622745 0
M  V30 1510 C 144.792 1.56986 -0.287652 0
M  V30 1511 C 144.992 1.61167 1.20944 0
M  V30 1512 O 144.048 1.55015 1.99315 0
M  V30 1513 C 145.361 2.84551 -0.972188 0
M  V30 1514 C 146.909 2.9825 -0.949536 0
M  V30 1515 C 147.384 4.28605 -1.61437 0
M  V30 1516 N 148.875 4.35399 -1.58057 0
M  V30 1517 C 149.61 5.34964 -2.064 0
M  V30 1518 N 149.106 6.40981 -2.62897 0
M  V30 1519 N 150.899 5.26419 -1.97078 0
M  V30 1520 H 143.05 1.40304 -1.59463 0
M  V30 1521 H 145.313 0.671794 -0.668878 0
M  V30 1522 H 145.019 2.87417 -2.02693 0
M  V30 1523 H 144.893 3.73807 -0.504771 0
M  V30 1524 H 147.28 2.94941 0.0967067 0
M  V30 1525 H 147.361 2.10364 -1.45536 0
M  V30 1526 H 147.005 4.32672 -2.66002 0
M  V30 1527 H 146.935 5.15334 -1.08344 0
M  V30 1528 H 149.426 3.59397 -1.16801 0
M  V30 1529 H 149.739 7.13225 -2.97539 0
M  V30 1530 H 148.084 6.4169 -2.66943 0
M  V30 1531 H 151.275 4.42504 -1.52669 0
M  V30 1532 H 151.448 6.03861 -2.35066 0
M  V30 1533 N 144.854 0.36279 1.53368 0
M  V30 1534 C 145.784 -0.476976 2.28576 0
M  V30 1535 C 146.765 -1.08631 1.30894 0
M  V30 1536 O 147.95 -1.10409 1.59761 0
M  V30 1537 C 145.08 -1.61828 3.07293 0
M  V30 1538 C 144.034 -1.13633 4.1264 0
M  V30 1539 C 143.36 -2.36766 4.79423 0
M  V30 1540 C 144.66 -0.223061 5.21823 0
M  V30 1541 H 146.354 0.150474 2.99022 0
M  V30 1542 H 143.9 0.0738103 1.43811 0
M  V30 1543 H 145.853 -2.21237 3.58653 0
M  V30 1544 H 144.577 -2.27292 2.34533 0
M  V30 1545 H 143.236 -0.564945 3.62221 0
M  V30 1546 H 142.884 -3.0068 4.03238 0
M  V30 1547 H 142.584 -2.05192 5.50609 0
M  V30 1548 H 144.108 -2.96865 5.33576 0
M  V30 1549 H 145.522 -0.724545 5.68703 0
M  V30 1550 H 143.919 0.001678 6.001 0
M  V30 1551 H 144.989 0.735553 4.79289 0
M  V30 1552 N 146.332 -1.57332 0.0918853 0
M  V30 1553 C 147.748 -1.57389 -0.264766 0
M  V30 1554 C 147.948 -1.10281 -1.68643 0
M  V30 1555 O 147.004 -0.777801 -2.40222 0
M  V30 1556 C 148.317 -3.00648 -0.0561195 0
M  V30 1557 C 149.865 -3.12754 -0.124116 0
M  V30 1558 C 150.34 -4.57965 0.0564972 0
M  V30 1559 N 151.831 -4.632 0.00155611 0
M  V30 1560 C 152.566 -5.73281 0.116598 0
M  V30 1561 N 152.062 -6.92208 0.286294 0
M  V30 1562 N 153.855 -5.6207 0.0580973 0
M  V30 1563 H 146.006 -1.86262 1.02079 0
M  V30 1564 H 148.269 -0.859579 0.399786 0
M  V30 1565 H 147.975 -3.393 0.925669 0
M  V30 1566 H 147.849 -3.68623 -0.799823 0
M  V30 1567 H 150.236 -2.73976 -1.09641 0
M  V30 1568 H 150.317 -2.47377 0.651024 0
M  V30 1569 H 149.961 -4.97436 1.02564 0
M  V30 1570 H 149.891 -5.21399 -0.738297 0
M  V30 1571 H 152.382 -3.77686 -0.127192 0
M  V30 1572 H 152.695 -7.71934 0.365676 0
M  V30 1573 H 151.04 -6.94254 0.32192 0
M  V30 1574 H 154.231 -4.68043 -0.0733204 0
M  V30 1575 H 154.404 -6.47824 0.151203 0
M  V30 1576 N 147.81 0.181792 -1.56548 0
M  V30 1577 C 148.757 1.22521 -1.95595 0
M  V30 1578 C 149.727 1.4454 -0.818373 0
M  V30 1579 O 150.912 1.57454 -1.07763 0
M  V30 1580 C 148.052 2.56193 -2.31212 0
M  V30 1581 C 147.165 2.41641 -3.58097 0
M  V30 1582 C 146.3 3.68108 -3.82975 0
M  V30 1583 C 145.339 3.48445 -5.03242 0
M  V30 1584 N 144.476 4.66956 -5.24306 0
M  V30 1585 H 149.316 0.885226 -2.84548 0
M  V30 1586 H 146.853 0.425718 -1.40805 0
M  V30 1587 H 148.811 3.34088 -2.49882 0
M  V30 1588 H 147.441 2.88208 -1.45382 0
M  V30 1589 H 146.493 1.54976 -3.474 0
M  V30 1590 H 147.805 2.23052 -4.46149 0
M  V30 1591 H 146.959 4.54441 -4.01956 0
M  V30 1592 H 145.698 3.89666 -2.93278 0
M  V30 1593 H 144.703 2.60499 -4.8417 0
M  V30 1594 H 145.928 3.2832 -5.9446 0
M  V30 1595 H 143.874 4.88752 -4.37559 0
M  V30 1596 H 143.791 4.51242 -6.06561 0
M  V30 1597 H 145.059 5.54602 -5.47756 0
M  V30 1598 N 149.288 1.51039 0.449983 0
M  V30 1599 C 150.528 1.64732 1.21007 0
M  V30 1600 C 150.892 0.349865 1.88785 0
M  V30 1601 O 152.093 0.362431 2.66345 0
M  V30 1602 C 150.364 2.80902 2.20973 0
M  V30 1603 S 151.923 3.14851 3.05638 0
M  V30 1604 H 148.741 0.5805 0.410538 0
M  V30 1605 H 151.343 1.88901 0.503634 0
M  V30 1606 H 150.047 3.73627 1.69796 0
M  V30 1607 H 149.578 2.58882 2.96215 0
M  V30 1608 H 151.593 2.60306 4.22439 0
M  V30 1609 N 150.766 -0.704594 1.40972 0
M  V30 1610 C 151.696 -1.83124 1.44872 0
M  V30 1611 C 152.677 -1.67281 0.30838 0
M  V30 1612 O 153.862 -1.87149 0.518556 0
M  V30 1613 C 150.992 -3.21181 1.32136 0
M  V30 1614 C 149.946 -3.51714 2.43888 0
M  V30 1615 C 149.272 -4.89032 2.16222 0
M  V30 1616 C 150.572 -3.516 3.86232 0
M  V30 1617 H 152.266 -1.80117 2.39161 0
M  V30 1618 H 149.812 -0.865145 1.15114 0
M  V30 1619 H 151.765 -3.99702 1.33479 0
M  V30 1620 H 150.489 -3.24791 0.343279 0
M  V30 1621 H 149.148 -2.75539 2.41813 0
M  V30 1622 H 148.796 -4.89256 1.16778 0
M  V30 1623 H 148.496 -5.10426 2.911 0
M  V30 1624 H 150.02 -5.69873 2.19265 0
M  V30 1625 H 151.434 -4.2014 3.9007 0
M  V30 1626 H 149.831 -3.84523 4.60719 0
M  V30 1627 H 150.901 -2.50757 4.15029 0
M  V30 1628 N 152.244 -1.26651 -0.937939 0
M  V30 1629 C 153.154 -1.10276 -2.07066 0
M  V30 1630 C 154.17 -0.0354197 -1.73964 0
M  V30 1631 O 155.346 -0.239816 -1.99967 0
M  V30 1632 C 152.411 -0.740887 -3.38691 0
M  V30 1633 C 151.472 -1.88799 -3.85556 0
M  V30 1634 C 150.705 -1.54329 -5.10899 0
M  V30 1635 O 150.928 -0.446494 -5.6865 0
M  V30 1636 O 149.862 -2.37911 -5.52885 0
M  V30 1637 H 153.688 -2.05309 -2.23789 0
M  V30 1638 H 151.273 -1.05743 -1.0554 0
M  V30 1639 H 153.155 -0.55195 -4.1777 0
M  V30 1640 H 151.83 0.180022 -3.23199 0
M  V30 1641 H 150.737 -2.13191 -3.07409 0
M  V30 1642 H 152.07 -2.78874 -4.05574 0
M  V30 1643 N 153.722 1.14298 -1.08507 0
M  V30 1644 C 154.947 1.8976 -0.837001 0
M  V30 1645 C 155.372 1.78097 0.605228 0
M  V30 1646 O 154.73 1.12188 1.4242 0
M  V30 1647 C 154.778 3.37685 -1.26495 0
M  V30 1648 O 153.882 4.10281 -0.417514 0
M  V30 1649 H 153.223 0.590365 -0.303917 0
M  V30 1650 H 155.753 1.44672 -1.44676 0
M  V30 1651 H 155.763 3.88501 -1.24625 0
M  V30 1652 H 154.438 3.45492 -2.31534 0
M  V30 1653 H 153.015 3.69536 -0.499722 0
M  V30 1654 N 155.201 0.870884 1.31352 0
M  V30 1655 C 156.449 0.48132 1.96285 0
M  V30 1656 C 156.77 -0.969813 1.69173 0
M  V30 1657 O 156.04 -1.67998 1.00764 0
M  V30 1658 H 154.62 0.175002 0.726212 0
M  V30 1659 H 157.282 1.11087 1.60143 0
M  V30 1660 H 156.378 0.639825 3.05471 0
M  V30 1661 N 156.679 -1.44442 0.630414 0
M  V30 1662 C 157.612 -2.27862 -0.124247 0
M  V30 1663 C 158.59 -1.38495 -0.851931 0
M  V30 1664 O 159.774 -1.67935 -0.856166 0
M  V30 1665 C 156.901 -3.17407 -1.18197 0
M  V30 1666 C 155.947 -4.22875 -0.554892 0
M  V30 1667 S 156.78 -5.31485 0.654489 0
M  V30 1668 C 157.936 -6.246 -0.40326 0
M  V30 1669 H 158.169 -2.91519 0.583435 0
M  V30 1670 H 155.702 -1.48618 0.418565 0
M  V30 1671 H 157.66 -3.69549 -1.78728 0
M  V30 1672 H 156.321 -2.52971 -1.86184 0
M  V30 1673 H 155.514 -4.85542 -1.35148 0
M  V30 1674 H 155.116 -3.73992 -0.0242105 0
M  V30 1675 H 157.408 -6.65375 -1.27602 0
M  V30 1676 H 158.351 -7.07851 0.187813 0
M  V30 1677 H 158.759 -5.59775 -0.728837 0
M  V30 1678 N 158.157 -0.370918 -1.53173 0
M  V30 1679 C 159.104 0.473035 -2.259 0
M  V30 1680 C 160.074 1.07311 -1.26781 0
M  V30 1681 O 161.259 1.1046 -1.55574 0
M  V30 1682 C 158.399 1.60405 -3.05556 0
M  V30 1683 C 157.512 1.02863 -4.19575 0
M  V30 1684 C 156.647 2.12918 -4.86661 0
M  V30 1685 C 155.686 1.52869 -5.92704 0
M  V30 1686 N 154.823 2.56779 -6.53459 0
M  V30 1687 H 159.663 -0.153649 -2.97604 0
M  V30 1688 H 157.2 -0.0875946 -1.46839 0
M  V30 1689 H 159.158 2.27034 -3.50016 0
M  V30 1690 H 157.788 2.20131 -2.36097 0
M  V30 1691 H 156.84 0.252465 -3.79561 0
M  V30 1692 H 158.152 0.549642 -4.95762 0
M  V30 1693 H 157.306 2.87356 -5.34333 0
M  V30 1694 H 156.045 2.6417 -4.09958 0
M  V30 1695 H 155.05 0.769479 -5.44389 0
M  V30 1696 H 156.275 1.02435 -6.7133 0
M  V30 1697 H 154.221 3.07235 -5.79606 0
M  V30 1698 H 154.138 2.13583 -7.25202 0
M  V30 1699 H 155.406 3.30903 -7.05779 0
M  V30 1700 N 159.635 1.57281 -0.100228 0
M  V30 1701 C 160.582 2.14305 0.856858 0
M  V30 1702 C 161.552 1.06296 1.27634 0
M  V30 1703 O 162.737 1.34109 1.35718 0
M  V30 1704 C 159.877 2.73184 2.10866 0
M  V30 1705 C 158.99 3.95442 1.73925 0
M  V30 1706 C 158.125 4.42468 2.93931 0
M  V30 1707 C 157.164 5.57303 2.5314 0
M  V30 1708 N 156.301 5.99158 3.65997 0
M  V30 1709 H 161.141 2.95772 0.363726 0
M  V30 1710 H 158.678 1.46139 0.167858 0
M  V30 1711 H 160.636 3.05442 2.84185 0
M  V30 1712 H 159.266 1.94437 2.57671 0
M  V30 1713 H 158.318 3.69464 0.905554 0
M  V30 1714 H 159.63 4.78769 1.39935 0
M  V30 1715 H 158.784 4.76537 3.75496 0
M  V30 1716 H 157.523 3.58052 3.31134 0
M  V30 1717 H 156.528 5.22857 1.70003 0
M  V30 1718 H 157.753 6.43471 2.17075 0
M  V30 1719 H 155.699 5.17687 4.02909 0
M  V30 1720 H 155.616 6.77295 3.35869 0
M  V30 1721 H 156.884 6.3786 4.48057 0
M  V30 1722 N 161.113 -0.173488 1.56642 0
M  V30 1723 C 162.023 -1.23482 1.99473 0
M  V30 1724 C 163.039 -1.48567 0.905752 0
M  V30 1725 O 164.215 -1.60758 1.21321 0
M  V30 1726 C 161.28 -2.55444 2.34413 0
M  V30 1727 C 160.341 -2.38241 3.57127 0
M  V30 1728 C 159.574 -3.63909 3.90392 0
M  V30 1729 O 159.797 -4.68996 3.24653 0
M  V30 1730 O 158.731 -3.58149 4.83749 0
M  V30 1731 H 162.557 -0.901279 2.90018 0
M  V30 1732 H 160.142 -0.380185 1.44482 0
M  V30 1733 H 162.024 -3.33292 2.57865 0
M  V30 1734 H 160.699 -2.88382 1.4703 0
M  V30 1735 H 159.606 -1.58431 3.38896 0
M  V30 1736 H 160.939 -2.10228 4.45045 0
M  V30 1737 N 162.591 -1.51276 -0.441967 0
M  V30 1738 C 163.524 -1.66933 -1.55591 0
M  V30 1739 C 164.502 -0.516958 -1.54163 0
M  V30 1740 O 165.686 -0.740209 -1.73358 0
M  V30 1741 C 162.813 -1.67866 -2.94174 0
M  V30 1742 C 161.859 -2.89013 -3.13646 0
M  V30 1743 S 162.692 -4.49897 -2.90436 0
M  V30 1744 C 163.848 -4.53568 -4.31308 0
M  V30 1745 H 164.081 -2.61155 -1.42076 0
M  V30 1746 H 161.614 -1.40902 -0.631341 0
M  V30 1747 H 163.572 -1.69089 -3.74058 0
M  V30 1748 H 162.233 -0.748296 -3.05056 0
M  V30 1749 H 161.426 -2.86054 -4.14957 0
M  V30 1750 H 161.028 -2.85509 -2.4158 0
M  V30 1751 H 163.32 -4.28924 -5.24434 0
M  V30 1752 H 164.263 -5.55355 -4.39303 0
M  V30 1753 H 164.671 -3.82943 -4.14747 0
M  V30 1754 N 164.069 0.697108 -1.41344 0
M  V30 1755 C 165.318 1.45279 -1.39918 0
M  V30 1756 C 165.631 1.95597 -0.0109624 0
M  V30 1757 O 166.837 2.71208 0.125919 0
M  V30 1758 C 165.293 2.62695 -2.46007 0
M  V30 1759 C 164.901 2.19169 -3.90729 0
M  V30 1760 C 166.645 3.40336 -2.53715 0
M  V30 1761 C 164.552 3.33535 -4.88373 0
M  V30 1762 H 163.482 0.545692 -0.520323 0
M  V30 1763 H 166.133 0.756929 -1.67161 0
M  V30 1764 H 164.515 3.34541 -2.11892 0
M  V30 1765 H 165.689 1.54623 -4.34083 0
M  V30 1766 H 164.004 1.54525 -3.86666 0
M  V30 1767 H 166.601 4.2547 -3.2385 0
M  V30 1768 H 166.944 3.85418 -1.5735 0
M  V30 1769 H 167.477 2.75546 -2.86913 0
M  V30 1770 H 164.216 2.93468 -5.86137 0
M  V30 1771 H 163.736 3.96936 -4.49668 0
M  V30 1772 H 165.415 3.99335 -5.09059 0
M  V30 1773 N 165.547 1.27147 0.931209 0
M  V30 1774 C 166.48 1.0389 2.0318 0
M  V30 1775 C 167.458 -0.0395716 1.62552 0
M  V30 1776 O 168.642 0.104867 1.88208 0
M  V30 1777 C 165.769 0.575227 3.3378 0
M  V30 1778 C 164.815 1.64774 3.93385 0
M  V30 1779 S 165.648 3.23933 4.26413 0
M  V30 1780 C 166.804 2.79358 5.60098 0
M  V30 1781 H 167.037 1.97075 2.22596 0
M  V30 1782 H 164.57 1.10938 1.07387 0
M  V30 1783 H 166.528 0.314385 4.09294 0
M  V30 1784 H 165.189 -0.336505 3.12292 0
M  V30 1785 H 164.382 1.27454 4.87618 0
M  V30 1786 H 163.984 1.86048 3.24441 0
M  V30 1787 H 166.276 2.24443 6.39243 0
M  V30 1788 H 167.219 3.72322 6.02314 0
M  V30 1789 H 167.627 2.1861 5.20452 0
M  V30 1790 N 167.025 -1.13721 1.09112 0
M  V30 1791 C 168.25 -1.89314 0.847053 0
M  V30 1792 C 168.675 -1.78416 -0.595774 0
M  V30 1793 O 168.033 -1.12942 -1.41823 0
M  V30 1794 C 168.081 -3.3701 1.28284 0
M  V30 1795 O 167.185 -4.10054 0.439267 0
M  V30 1796 H 166.526 -0.588745 0.307044 0
M  V30 1797 H 169.056 -1.43902 1.45442 0
M  V30 1798 H 169.066 -3.87834 1.26683 0
M  V30 1799 H 167.741 -3.4426 2.33363 0
M  V30 1800 H 166.318 -3.69266 0.519312 0
M  V30 1801 N 168.503 -0.877838 -1.30888 0
M  V30 1802 C 169.78 -0.413052 -1.91189 0
M  V30 1803 C 170.16 1.1056 -1.79832 0
M  V30 1804 O 169.508 1.93771 -1.21099 0
M  V30 1805 C 169.718 -0.903191 -3.3711 0
M  V30 1806 C 171.066 -0.93395 -4.14201 0
M  V30 1807 O 172.09 -0.849373 -3.45925 0
M  V30 1808 O 170.949 -1.05772 -5.36167 0
M  V30 1809 H 168.043 -0.125035 -0.817493 0
M  V30 1810 H 170.589 -0.966269 -1.39504 0
M  V30 1811 H 169.361 -1.94692 -3.39427 0
M  V30 1812 H 168.984 -0.328732 -3.96239 0
M  V30 1813 N 169.982 1.44106 -0.638065 0
M  V30 1814 C 170.892 2.34513 0.0637334 0
M  V30 1815 C 171.908 1.53018 0.828346 0
M  V30 1816 O 173.084 1.85723 0.779036 0
M  V30 1817 C 170.149 3.31095 1.02844 0
M  V30 1818 C 169.21 4.28497 0.26244 0
M  V30 1819 C 168.443 5.20465 1.1812 0
M  V30 1820 O 168.666 5.16514 2.42011 0
M  V30 1821 O 167.6 5.98251 0.661774 0
M  V30 1822 H 171.426 2.95989 -0.68003 0
M  V30 1823 H 169.011 1.43994 -0.398252 0
M  V30 1824 H 170.893 3.90526 1.58327 0
M  V30 1825 H 169.568 2.72144 1.7527 0
M  V30 1826 H 168.475 3.72592 -0.335602 0
M  V30 1827 H 169.808 4.90388 -0.421936 0
M  V30 1828 N 171.46 0.379036 1.52974 0
M  V30 1829 C 172.423 -0.448865 2.24762 0
M  V30 1830 C 173.423 -0.998689 1.26027 0
M  V30 1831 O 174.613 -0.882313 1.50203 0
M  V30 1832 C 171.745 -1.62872 2.99476 0
M  V30 1833 H 172.938 0.179491 2.99362 0
M  V30 1834 H 170.491 0.13096 1.5575 0
M  V30 1835 H 171.226 -2.29479 2.29151 0
M  V30 1836 H 171.011 -1.24128 3.71934 0
M  V30 1837 H 172.501 -2.2151 3.5401 0
M  V30 1838 N 172.938 -1.57226 0.108567 0
M  V30 1839 C 174.184 -1.95121 -0.552761 0
M  V30 1840 C 174.517 -0.991345 -1.66991 0
M  V30 1841 O 173.792 -0.0267211 -1.94482 0
M  V30 1842 C 174.075 -3.43039 -1.09528 0
M  V30 1843 C 173.928 -4.49797 0.0177332 0
M  V30 1844 C 175.247 -3.92567 -1.98945 0
M  V30 1845 H 172.366 -0.709496 -0.199461 0
M  V30 1846 H 175.008 -1.89126 0.182011 0
M  V30 1847 H 173.158 -3.48279 -1.72146 0
M  V30 1848 H 174.83 -4.56661 0.652584 0
M  V30 1849 H 173.073 -4.284 0.682309 0
M  V30 1850 H 173.744 -5.50528 -0.402919 0
M  V30 1851 H 176.22 -3.89565 -1.46214 0
M  V30 1852 H 175.096 -4.96605 -2.33827 0
M  V30 1853 H 175.357 -3.32648 -2.91201 0
M  V30 1854 N 174.416 0.165178 -1.56732 0
M  V30 1855 C 175.326 1.22423 -2.00125 0
M  V30 1856 C 176.342 1.48084 -0.913619 0
M  V30 1857 O 177.518 1.60112 -1.22172 0
M  V30 1858 C 174.583 2.54197 -2.35764 0
M  V30 1859 C 173.644 2.36343 -3.58386 0
M  V30 1860 C 172.877 3.61834 -3.92316 0
M  V30 1861 O 173.1 4.67267 -3.27135 0
M  V30 1862 O 172.034 3.55579 -4.85641 0
M  V30 1863 H 175.86 0.885886 -2.90492 0
M  V30 1864 H 173.445 0.372518 -1.44681 0
M  V30 1865 H 175.327 3.3192 -2.59629 0
M  V30 1866 H 174.002 2.87598 -1.48557 0
M  V30 1867 H 172.909 1.56632 -3.39731 0
M  V30 1868 H 174.242 2.07865 -4.46154 0
M  V30 1869 N 175.894 1.51508 0.433938 0
M  V30 1870 C 176.804 1.75917 1.5521 0
M  V30 1871 C 177.82 0.643545 1.61662 0
M  V30 1872 O 178.996 0.926183 1.7884 0
M  V30 1873 C 176.061 1.88213 2.91164 0
M  V30 1874 C 175.122 3.12074 2.94802 0
M  V30 1875 C 174.355 3.23774 4.24271 0
M  V30 1876 O 174.578 2.4133 5.16833 0
M  V30 1877 O 173.512 4.16774 4.34262 0
M  V30 1878 H 177.338 2.70777 1.37527 0
M  V30 1879 H 174.923 1.36051 0.617293 0
M  V30 1880 H 176.805 1.98267 3.71845 0
M  V30 1881 H 175.48 0.965413 3.08968 0
M  V30 1882 H 174.387 3.07497 2.13065 0
M  V30 1883 H 175.72 4.03446 2.81943 0
M  V30 1884 N 177.372 -0.689602 1.41712 0
M  V30 1885 C 178.788 -1.00093 1.24312 0
M  V30 1886 C 178.988 -2.01036 0.136729 0
M  V30 1887 O 178.044 -2.47562 -0.496918 0
M  V30 1888 C 179.357 -1.51985 2.59463 0
M  V30 1889 C 180.905 -1.63838 2.66695 0
M  V30 1890 C 181.38 -2.1913 4.02177 0
M  V30 1891 N 182.871 -2.26483 4.04054 0
M  V30 1892 C 183.606 -2.70306 5.0569 0
M  V30 1893 N 183.102 -3.13691 6.17713 0
M  V30 1894 N 184.895 -2.69923 4.9305 0
M  V30 1895 H 177.046 -0.0210029 2.1239 0
M  V30 1896 H 179.309 -0.0718733 0.945272 0
M  V30 1897 H 179.015 -0.85269 3.41207 0
M  V30 1898 H 178.889 -2.50103 2.82362 0
M  V30 1899 H 181.276 -2.29664 1.85306 0
M  V30 1900 H 181.357 -0.642492 2.476 0
M  V30 1901 H 181.001 -1.53918 4.84016 0
M  V30 1902 H 180.931 -3.19482 4.18615 0
M  V30 1903 H 183.422 -1.95874 3.23174 0
M  V30 1904 H 183.735 -3.45773 6.9113 0
M  V30 1905 H 182.08 -3.11585 6.21241 0
M  V30 1906 H 185.271 -2.35382 4.04614 0
M  V30 1907 H 185.444 -3.03758 5.72394 0
M  V30 1908 N 178.85 -1.27639 -0.924453 0
M  V30 1909 C 180.266 -1.05113 -1.20097 0
M  V30 1910 C 180.466 0.213262 -2.00368 0
M  V30 1911 O 179.522 0.91787 -2.35226 0
M  V30 1912 C 180.835 -2.29244 -1.94596 0
M  V30 1913 C 182.383 -2.34315 -2.07522 0
M  V30 1914 C 182.858 -3.58183 -2.85427 0
M  V30 1915 N 184.349 -3.5876 -2.92994 0
M  V30 1916 C 185.084 -4.51277 -3.53746 0
M  V30 1917 N 184.58 -5.54102 -4.15863 0
M  V30 1918 N 186.373 -4.38894 -3.51181 0
M  V30 1919 H 178.524 -2.08821 -0.388264 0
M  V30 1920 H 180.787 -0.918568 -0.234385 0
M  V30 1921 H 180.493 -3.21301 -1.43034 0
M  V30 1922 H 180.367 -2.34816 -2.95197 0
M  V30 1923 H 182.754 -1.42762 -2.58269 0
M  V30 1924 H 182.835 -2.32744 -1.06131 0
M  V30 1925 H 182.479 -4.50074 -2.35363 0
M  V30 1926 H 182.409 -3.57006 -3.8711 0
M  V30 1927 H 184.9 -2.84398 -2.4885 0
M  V30 1928 H 185.213 -6.20859 -4.60168 0
M  V30 1929 H 183.558 -5.57941 -4.144 0
M  V30 1930 H 186.749 -3.57772 -3.01856 0
M  V30 1931 H 186.922 -5.11186 -3.98237 0
M  V30 1932 N 180.328 1.1314 -1.09713 0
M  V30 1933 C 181.291 2.16831 -0.742751 0
M  V30 1934 C 182.291 1.59159 0.229129 0
M  V30 1935 O 183.481 1.74199 0.00693237 0
M  V30 1936 C 180.613 3.40756 -0.0989168 0
M  V30 1937 H 181.806 2.49695 -1.66109 0
M  V30 1938 H 179.359 1.2802 -0.896699 0
M  V30 1939 H 180.094 3.13485 0.830514 0
M  V30 1940 H 179.879 3.83888 -0.798265 0
M  V30 1941 H 181.369 4.17386 0.133524 0
M  V30 1942 N 181.806 0.884767 1.30421 0
M  V30 1943 C 182.736 0.367574 2.30589 0
M  V30 1944 C 183.717 -0.549464 1.60981 0
M  V30 1945 O 184.902 -0.46336 1.88591 0
M  V30 1946 C 182.032 -0.418944 3.44764 0
M  V30 1947 C 180.986 0.406316 4.26067 0
M  V30 1948 C 180.312 -0.506793 5.32293 0
M  V30 1949 C 181.612 1.64832 4.95608 0
M  V30 1950 H 183.306 1.20462 2.74097 0
M  V30 1951 H 180.852 0.580695 1.31772 0
M  V30 1952 H 182.805 -0.791395 4.13902 0
M  V30 1953 H 181.529 -1.28964 3.0006 0
M  V30 1954 H 180.188 0.760903 3.58617 0
M  V30 1955 H 179.836 -1.37519 4.83836 0
M  V30 1956 H 179.536 0.0415828 5.87585 0
M  V30 1957 H 181.06 -0.875764 6.04287 0
M  V30 1958 H 182.474 1.34646 5.57264 0
M  V30 1959 H 180.871 2.13688 5.60765 0
M  V30 1960 H 181.941 2.39284 4.21748 0
M  V30 1961 N 183.284 -1.43765 0.645699 0
M  V30 1962 C 184.533 -2.01116 0.153412 0
M  V30 1963 C 184.846 -1.51493 -1.23731 0
M  V30 1964 O 186.052 -2.01067 -1.8244 0
M  V30 1965 C 184.508 -3.59206 0.223473 0
M  V30 1966 C 184.116 -4.17823 1.61642 0
M  V30 1967 C 185.86 -4.23972 -0.211597 0
M  V30 1968 C 183.767 -5.68183 1.64081 0
M  V30 1969 H 182.697 -0.752093 0.0535891 0
M  V30 1970 H 185.348 -1.6482 0.806633 0
M  V30 1971 H 183.73 -3.92867 -0.497118 0
M  V30 1972 H 184.904 -3.95674 2.36176 0
M  V30 1973 H 183.219 -3.65399 1.99681 0
M  V30 1974 H 185.816 -5.34275 -0.213112 0
M  V30 1975 H 186.159 -3.97352 -1.24165 0
M  V30 1976 H 186.692 -3.95166 0.456988 0
M  V30 1977 H 183.431 -5.99559 2.64971 0
M  V30 1978 H 182.951 -5.9241 0.938611 0
M  V30 1979 H 184.63 -6.32085 1.3812 0
M  V30 1980 N 184.763 -0.387143 -1.52771 0
M  V30 1981 C 185.71 0.449048 -2.26389 0
M  V30 1982 C 186.68 1.05961 -1.27912 0
M  V30 1983 O 187.865 1.08804 -1.56737 0
M  V30 1984 C 185.005 1.57155 -3.0724 0
M  V30 1985 C 184.118 0.984066 -4.20643 0
M  V30 1986 C 183.253 2.07745 -4.88892 0
M  V30 1987 C 182.292 1.46574 -5.94292 0
M  V30 1988 N 181.429 2.49834 -6.56146 0
M  V30 1989 H 186.269 -0.185205 -2.97424 0
M  V30 1990 H 183.806 -0.103164 -1.46738 0
M  V30 1991 H 185.764 2.23309 -3.52405 0
M  V30 1992 H 184.394 2.17615 -2.38419 0
M  V30 1993 H 183.446 0.212193 -3.79808 0
M  V30 1994 H 184.758 0.497029 -4.96318 0
M  V30 1995 H 183.912 2.81673 -5.3735 0
M  V30 1996 H 182.651 2.59807 -4.12737 0
M  V30 1997 H 181.656 0.711696 -5.45174 0
M  V30 1998 H 182.881 0.953088 -6.72379 0
M  V30 1999 H 180.827 3.0107 -5.82832 0
M  V30 2000 H 180.744 2.05879 -7.27427 0
M  V30 2001 H 182.012 3.23399 -7.09249 0
M  V30 2002 N 186.241 1.57166 -0.116904 0
M  V30 2003 C 187.657 1.5779 0.239693 0
M  V30 2004 C 187.857 1.1295 1.66867 0
M  V30 2005 O 186.913 0.81592 2.38954 0
M  V30 2006 C 188.226 3.00699 0.00828202 0
M  V30 2007 C 189.774 3.12912 0.0743438 0
M  V30 2008 C 190.249 4.57817 -0.129348 0
M  V30 2009 N 191.74 4.63139 -0.075247 0
M  V30 2010 C 192.475 5.73023 -0.207788 0
M  V30 2011 N 191.971 6.91665 -0.396382 0
M  V30 2012 N 193.764 5.61906 -0.14751 0
M  V30 2013 H 185.915 1.84615 -1.05029 0
M  V30 2014 H 188.178 0.85311 -0.41341 0
M  V30 2015 H 187.884 3.37784 -0.979531 0
M  V30 2016 H 187.758 3.69848 0.741077 0
M  V30 2017 H 190.145 2.75686 1.05268 0
M  V30 2018 H 190.226 2.4631 -0.690297 0
M  V30 2019 H 189.87 4.95742 -1.10465 0
M  V30 2020 H 189.8 5.22507 0.655253 0
M  V30 2021 H 192.291 3.7784 0.0670898 0
M  V30 2022 H 192.604 7.71255 -0.488437 0
M  V30 2023 H 190.949 6.93654 -0.432329 0
M  V30 2024 H 194.14 4.681 -0.00115036 0
M  V30 2025 H 194.313 6.47501 -0.254247 0
M  V30 2026 N 187.719 -0.156864 1.56817 0
M  V30 2027 C 188.666 -1.19394 1.97519 0
M  V30 2028 C 189.636 -1.4322 0.841265 0
M  V30 2029 O 190.821 -1.55719 1.10255 0
M  V30 2030 C 187.961 -2.52483 2.35258 0
M  V30 2031 C 187.074 -2.35914 3.61896 0
M  V30 2032 C 186.209 -3.61969 3.88782 0
M  V30 2033 C 185.248 -3.40395 5.08722 0
M  V30 2034 N 184.385 -4.58556 5.31668 0
M  V30 2035 H 189.225 -0.839845 2.85921 0
M  V30 2036 H 186.762 -0.403264 1.41464 0
M  V30 2037 H 188.72 -3.30071 2.55165 0
M  V30 2038 H 187.35 -2.85859 1.49949 0
M  V30 2039 H 186.402 -1.49429 3.49821 0
M  V30 2040 H 187.714 -2.15926 4.49641 0
M  V30 2041 H 186.868 -4.47989 4.09135 0
M  V30 2042 H 185.607 -3.84951 2.9944 0
M  V30 2043 H 184.612 -2.52763 4.88253 0
M  V30 2044 H 185.837 -3.18822 5.99608 0
M  V30 2045 H 183.783 -4.81729 4.45279 0
M  V30 2046 H 183.7 -4.41535 6.13664 0
M  V30 2047 H 184.968 -5.45817 5.5651 0
M  V30 2048 N 189.197 -1.51736 -0.425897 0
M  V30 2049 C 190.144 -1.73875 -1.51776 0
M  V30 2050 C 191.114 -0.580702 -1.55618 0
M  V30 2051 O 192.299 -0.81641 -1.72451 0
M  V30 2052 C 189.439 -1.88012 -2.89388 0
M  V30 2053 C 188.552 -3.15606 -2.94986 0
M  V30 2054 C 187.687 -3.20271 -4.23793 0
M  V30 2055 C 186.726 -4.42134 -4.23302 0
M  V30 2056 N 185.863 -4.44284 -5.43651 0
M  V30 2057 H 190.703 -2.67071 -1.32201 0
M  V30 2058 H 188.24 -1.32351 -0.642008 0
M  V30 2059 H 190.198 -1.9419 -3.69251 0
M  V30 2060 H 188.828 -0.98213 -3.07496 0
M  V30 2061 H 187.88 -3.18681 -2.07717 0
M  V30 2062 H 189.192 -4.05486 -2.90486 0
M  V30 2063 H 188.346 -3.25428 -5.12036 0
M  V30 2064 H 187.085 -2.28299 -4.30965 0
M  V30 2065 H 186.09 -4.3714 -3.3345 0
M  V30 2066 H 187.315 -5.35382 -4.17783 0
M  V30 2067 H 185.261 -3.55188 -5.51523 0
M  V30 2068 H 185.178 -5.27988 -5.41078 0
M  V30 2069 H 186.446 -4.53649 -6.33895 0
M  V30 2070 N 190.675 0.682077 -1.42076 0
M  V30 2071 C 191.9 1.47558 -1.45744 0
M  V30 2072 C 192.325 1.87977 -0.0680981 0
M  V30 2073 O 191.683 1.55522 0.9318 0
M  V30 2074 C 191.731 2.70575 -2.38373 0
M  V30 2075 O 190.835 3.68573 -1.85007 0
M  V30 2076 H 190.176 0.443585 -0.494093 0
M  V30 2077 H 192.706 0.837238 -1.86686 0
M  V30 2078 H 192.716 3.18729 -2.54707 0
M  V30 2079 H 191.391 2.40495 -3.39315 0
M  V30 2080 H 189.968 3.2757 -1.78192 0
M  V30 2081 N 192.153 1.28127 0.917671 0
M  V30 2082 C 193.063 1.13556 2.05286 0
M  V30 2083 C 194.079 0.0630914 1.73886 0
M  V30 2084 O 195.255 0.271598 1.9956 0
M  V30 2085 C 192.32 0.794676 3.3747 0
M  V30 2086 C 191.381 1.94909 3.82504 0
M  V30 2087 C 190.614 1.62437 5.0838 0
M  V30 2088 O 190.837 0.536905 5.67867 0
M  V30 2089 O 189.771 2.46677 5.4903 0
M  V30 2090 H 193.597 2.08844 2.20495 0
M  V30 2091 H 191.182 1.07409 1.03845 0
M  V30 2092 H 193.064 0.618344 4.16839 0
M  V30 2093 H 191.739 -0.128581 3.23445 0
M  V30 2094 H 190.646 2.18055 3.03978 0
M  V30 2095 H 191.979 2.85291 4.01086 0
M  V30 2096 N 193.631 -1.12557 1.10312 0
M  V30 2097 C 195.047 -1.36036 0.834649 0
M  V30 2098 C 195.247 -1.93946 -0.546539 0
M  V30 2099 O 194.303 -2.16484 -1.29966 0
M  V30 2100 C 195.616 -2.30312 1.9333 0
M  V30 2101 C 197.164 -2.43906 1.9616 0
M  V30 2102 C 197.639 -3.41496 3.05195 0
M  V30 2103 N 199.13 -3.49053 3.04494 0
M  V30 2104 C 199.865 -4.24471 3.85502 0
M  V30 2105 N 199.361 -5.02966 4.76442 0
M  V30 2106 N 201.154 -4.19864 3.73725 0
M  V30 2107 H 193.305 -0.733246 1.99342 0
M  V30 2108 H 195.568 -0.385234 0.866198 0
M  V30 2109 H 195.274 -1.94933 2.92735 0
M  V30 2110 H 195.148 -3.30421 1.81939 0
M  V30 2111 H 197.535 -2.78567 0.973886 0
M  V30 2112 H 197.616 -1.4369 2.11629 0
M  V30 2113 H 197.26 -3.07565 4.04186 0
M  V30 2114 H 197.19 -4.41539 2.86968 0
M  V30 2115 H 199.681 -2.93053 2.38596 0
M  V30 2116 H 199.994 -5.57846 5.34815 0
M  V30 2117 H 198.339 -5.02167 4.80472 0
M  V30 2118 H 201.53 -3.57623 3.02032 0
M  V30 2119 H 201.703 -4.78386 4.37093 0
M  V30 2120 N 195.109 -0.891671 -1.2995 0
M  V30 2121 C 196.337 -0.52866 -2.00032 0
M  V30 2122 C 196.752 0.884574 -1.66795 0
M  V30 2123 O 196.109 1.5827 -0.908669 0
M  V30 2124 C 196.16 -0.701814 -3.54622 0
M  V30 2125 O 195.881 -2.05942 -3.86678 0
M  V30 2126 C 197.382 -0.342683 -4.41973 0
M  V30 2127 H 194.602 -0.203659 -0.639347 0
M  V30 2128 H 197.146 -1.19881 -1.65677 0
M  V30 2129 H 195.301 -0.0789468 -3.8732 0
M  V30 2130 H 195.715 -2.08291 -4.81368 0
M  V30 2131 H 197.189 -0.514709 -5.49595 0
M  V30 2132 H 197.666 0.71975 -4.33262 0
M  V30 2133 H 198.272 -0.942154 -4.14733 0
M  V30 2134 N 196.587 1.43421 -0.653314 0
M  V30 2135 C 197.835 2.01414 -0.166415 0
M  V30 2136 C 198.156 1.51803 1.22397 0
M  V30 2137 O 197.426 0.730693 1.81763 0
M  V30 2138 H 196.006 0.744703 -0.0585319 0
M  V30 2139 H 198.668 1.75629 -0.845003 0
M  V30 2140 H 197.764 3.11734 -0.151111 0
M  V30 2141 N 198.065 0.39524 1.52563 0
M  V30 2142 C 199.293 -0.184943 2.06072 0
M  V30 2143 C 199.708 -1.40021 1.26647 0
M  V30 2144 O 199.065 -1.79767 0.314672 0
M  V30 2145 C 199.116 -0.549179 3.57304 0
M  V30 2146 O 198.837 0.617813 4.33722 0
M  V30 2147 C 200.338 -1.18459 4.2718 0
M  V30 2148 H 197.558 -0.0265025 0.670476 0
M  V30 2149 H 200.102 0.562184 1.96621 0
M  V30 2150 H 198.257 -1.2462 3.66809 0
M  V30 2151 H 198.671 0.317091 5.23541 0
M  V30 2152 H 200.145 -1.38976 5.34219 0
M  V30 2153 H 200.622 -2.15368 3.82771 0
M  V30 2154 H 201.228 -0.528163 4.22008 0
M  V30 2155 N 199.544 -1.57102 0.125237 0
M  V30 2156 C 200.476 -2.12726 -0.853237 0
M  V30 2157 C 201.489 -1.07145 -1.22571 0
M  V30 2158 O 202.678 -1.34497 -1.17358 0
M  V30 2159 C 199.778 -2.61709 -2.15317 0
M  V30 2160 C 198.951 -3.91456 -1.95143 0
M  V30 2161 C 198.01 -4.25973 -3.08923 0
M  V30 2162 O 197.036 -4.94682 -2.81564 0
M  V30 2163 N 198.238 -3.83795 -4.35524 0
M  V30 2164 H 201.003 -2.97307 -0.377964 0
M  V30 2165 H 198.564 -1.61792 -0.0590011 0
M  V30 2166 H 200.556 -2.81826 -2.90441 0
M  V30 2167 H 199.126 -1.81974 -2.54174 0
M  V30 2168 H 198.346 -3.80185 -1.04177 0
M  V30 2169 H 199.634 -4.76283 -1.78976 0
M  V30 2170 H 199.032 -3.2839 -4.60626 0
M  V30 2171 H 197.589 -4.09008 -5.07499 0
M  V30 2172 N 201.022 0.148545 -1.56898 0
M  V30 2173 C 202.433 0.708766 -1.72723 0
M  V30 2174 C 202.784 1.81734 -0.739395 0
M  V30 2175 O 201.909 2.16194 0.0943169 0
M  V30 2176 C 202.504 1.29245 -3.13179 0
M  V30 2177 C 201.063 1.79925 -3.30611 0
M  V30 2178 C 200.21 0.687111 -2.68652 0
M  V30 2179 H 203.161 -0.0771063 -1.58513 0
M  V30 2180 H 203.182 2.16224 -3.13093 0
M  V30 2181 H 202.694 0.485382 -3.85053 0
M  V30 2182 H 200.795 2.63203 -2.63732 0
M  V30 2183 H 200.908 1.92903 -4.38549 0
M  V30 2184 H 199.272 1.11335 -2.29078 0
M  V30 2185 H 200.055 -0.108483 -3.43129 0
M  V30 2186 N 202.5 1.5196 0.417844 0
M  V30 2187 C 203.43 1.77634 1.51554 0
M  V30 2188 C 204.411 0.626918 1.58126 0
M  V30 2189 O 205.596 0.871632 1.7354 0
M  V30 2190 C 202.726 1.91911 2.8946 0
M  V30 2191 C 201.68 3.07463 2.97743 0
M  V30 2192 C 201.006 3.06951 4.37819 0
M  V30 2193 C 202.306 4.47082 2.70027 0
M  V30 2194 H 204 2.6955 1.3032 0
M  V30 2195 H 201.546 1.29706 0.625492 0
M  V30 2196 H 203.499 2.08455 3.6623 0
M  V30 2197 H 202.223 0.966598 3.11969 0
M  V30 2198 H 200.882 2.90656 2.23416 0
M  V30 2199 H 200.53 2.09438 4.57323 0
M  V30 2200 H 200.23 3.84556 4.44286 0
M  V30 2201 H 201.754 3.25613 5.16535 0
M  V30 2202 H 203.168 4.6414 3.36522 0
M  V30 2203 H 201.565 5.2654 2.87881 0
M  V30 2204 H 202.635 4.55777 1.65514 0
M  V30 2205 N 203.978 -0.674533 1.42435 0
M  V30 2206 C 205.226 -1.43175 1.42637 0
M  V30 2207 C 205.547 -1.94951 0.0438992 0
M  V30 2208 O 204.817 -1.7308 -0.917607 0
M  V30 2209 H 203.397 -0.531307 0.525092 0
M  V30 2210 H 206.059 -0.797006 1.77859 0
M  V30 2211 H 205.155 -2.28463 2.12629 0
M  V30 2212 N 205.456 -1.28612 -0.910864 0
M  V30 2213 C 206.702 -1.16106 -1.66274 0
M  V30 2214 C 207.035 0.289113 -1.92036 0
M  V30 2215 O 206.31 1.21 -1.52281 0
M  V30 2216 C 206.593 -1.96309 -3.01885 0
M  V30 2217 C 206.446 -3.49405 -2.8326 0
M  V30 2218 C 207.765 -1.78076 -4.02463 0
M  V30 2219 H 204.884 -0.423152 -0.603417 0
M  V30 2220 H 207.526 -1.57961 -1.05586 0
M  V30 2221 H 205.676 -1.60742 -3.53687 0
M  V30 2222 H 207.348 -3.94894 -2.38446 0
M  V30 2223 H 205.591 -3.74893 -2.18261 0
M  V30 2224 H 206.262 -4.00784 -3.79574 0
M  V30 2225 H 208.738 -2.0912 -3.59733 0
M  V30 2226 H 207.614 -2.36561 -4.95308 0
M  V30 2227 H 207.875 -0.733008 -4.35981 0
M  V30 2228 N 206.934 1.1197 -1.10907 0
M  V30 2229 C 207.866 2.17592 -0.720175 0
M  V30 2230 C 208.879 1.60938 0.245495 0
M  V30 2231 O 210.068 1.78476 0.0292245 0
M  V30 2232 C 207.168 3.38873 -0.0427917 0
M  V30 2233 C 206.341 4.25006 -1.03388 0
M  V30 2234 C 205.4 5.24774 -0.387075 0
M  V30 2235 O 204.426 5.59631 -1.03934 0
M  V30 2236 N 205.628 5.74208 0.852407 0
M  V30 2237 H 208.393 2.51567 -1.62893 0
M  V30 2238 H 205.954 1.27439 -0.998543 0
M  V30 2239 H 207.946 4.02703 0.401501 0
M  V30 2240 H 206.516 3.03007 0.768456 0
M  V30 2241 H 205.736 3.57716 -1.65629 0
M  V30 2242 H 207.024 4.79397 -1.70458 0
M  V30 2243 H 206.422 5.48062 1.40161 0
M  V30 2244 H 204.979 6.39901 1.23977 0
M  V30 2245 N 208.412 0.89855 1.29475 0
M  V30 2246 C 209.66 0.522847 1.9522 0
M  V30 2247 C 209.981 -0.93371 1.71192 0
M  V30 2248 O 209.251 -1.65823 1.04305 0
M  V30 2249 H 207.831 0.190366 0.722336 0
M  V30 2250 H 210.493 1.14459 1.5775 0
M  V30 2251 H 209.589 0.704476 3.04045 0
M  V30 2252 N 209.89 -1.43072 0.660911 0
M  V30 2253 C 210.82 -2.33497 -0.0122829 0
M  V30 2254 C 211.801 -1.49903 -0.803925 0
M  V30 2255 O 212.986 -1.78546 -0.763864 0
M  V30 2256 C 210.116 -3.33363 -0.973994 0
M  V30 2257 C 209.07 -4.27003 -0.291928 0
M  V30 2258 C 208.396 -5.16967 -1.36562 0
M  V30 2259 C 209.696 -5.15816 0.820462 0
M  V30 2260 H 211.39 -2.90038 0.742873 0
M  V30 2261 H 208.936 -1.39461 0.358688 0
M  V30 2262 H 210.889 -3.95524 -1.45392 0
M  V30 2263 H 209.613 -2.75095 -1.7604 0
M  V30 2264 H 208.272 -3.66217 0.167623 0
M  V30 2265 H 207.92 -4.55034 -2.14366 0
M  V30 2266 H 207.62 -5.80441 -0.914454 0
M  V30 2267 H 209.144 -5.82003 -1.84675 0
M  V30 2268 H 210.558 -5.71742 0.422366 0
M  V30 2269 H 208.955 -5.8805 1.19656 0
M  V30 2270 H 210.025 -4.55045 1.67518 0
M  V30 2271 N 211.368 -0.403325 -1.52352 0
M  V30 2272 C 212.596 0.174012 -2.06167 0
M  V30 2273 C 213.011 1.39347 -1.27388 0
M  V30 2274 O 212.368 1.79597 -0.324201 0
M  V30 2275 C 212.419 0.530223 -3.5759 0
M  V30 2276 O 212.14 -0.640806 -4.33388 0
M  V30 2277 C 213.641 1.16192 -4.27802 0
M  V30 2278 H 210.861 0.0229464 -0.670608 0
M  V30 2279 H 213.405 -0.572604 -1.9632 0
M  V30 2280 H 211.56 1.22673 -3.67464 0
M  V30 2281 H 211.974 -0.344851 -5.23365 0
M  V30 2282 H 213.448 1.36141 -5.34948 0
M  V30 2283 H 213.925 2.13335 -3.83907 0
M  V30 2284 H 214.531 0.505775 -4.22282 0
M  V30 2285 N 212.846 1.57033 -0.133567 0
M  V30 2286 C 213.756 2.19632 0.824564 0
M  V30 2287 C 214.772 1.17666 1.28182 0
M  V30 2288 O 215.948 1.50193 1.3418 0
M  V30 2289 C 213.013 2.79499 2.05137 0
M  V30 2290 C 212.074 3.96548 1.64464 0
M  V30 2291 C 211.307 4.5355 2.81297 0
M  V30 2292 O 211.53 4.09438 3.97136 0
M  V30 2293 O 210.464 5.44018 2.57542 0
M  V30 2294 H 214.29 3.01991 0.321766 0
M  V30 2295 H 211.875 1.49112 0.0927889 0
M  V30 2296 H 213.757 3.17602 2.7696 0
M  V30 2297 H 212.432 2.00162 2.54395 0
M  V30 2298 H 211.339 3.63186 0.897048 0
M  V30 2299 H 212.672 4.77364 1.19934 0
M  V30 2300 N 214.325 -0.140222 1.56975 0
M  V30 2301 C 215.235 -1.19223 2.02047 0
M  V30 2302 C 216.251 -1.46612 0.937062 0
M  V30 2303 O 217.427 -1.58148 1.24704 0
M  V30 2304 C 214.492 -2.50414 2.39778 0
M  V30 2305 C 213.553 -2.30612 3.621 0
M  V30 2306 C 212.786 -3.55547 3.98023 0
M  V30 2307 O 213.009 -4.62004 3.34528 0
M  V30 2308 O 211.943 -3.47808 4.91237 0
M  V30 2309 H 215.769 -0.839559 2.91865 0
M  V30 2310 H 213.354 -0.349453 1.45256 0
M  V30 2311 H 215.236 -3.27747 2.64877 0
M  V30 2312 H 213.911 -2.85198 1.53114 0
M  V30 2313 H 212.818 -1.51207 3.4218 0
M  V30 2314 H 214.151 -2.00741 4.49404 0
M  V30 2315 N 215.803 -1.52179 -0.40978 0
M  V30 2316 C 216.735 -1.71703 -1.51825 0
M  V30 2317 C 217.748 -0.597445 -1.51441 0
M  V30 2318 O 218.937 -0.872582 -1.55719 0
M  V30 2319 C 216.037 -1.74171 -2.90719 0
M  V30 2320 C 215.21 -3.03156 -3.15302 0
M  V30 2321 C 214.269 -2.97445 -4.34065 0
M  V30 2322 O 213.295 -3.71352 -4.31377 0
M  V30 2323 N 214.497 -2.15191 -5.39141 0
M  V30 2324 H 217.262 -2.67334 -1.35472 0
M  V30 2325 H 214.823 -1.50409 -0.599069 0
M  V30 2326 H 216.815 -1.67884 -3.68235 0
M  V30 2327 H 215.385 -0.860166 -3.00533 0
M  V30 2328 H 214.605 -3.23097 -2.25836 0
M  V30 2329 H 215.893 -3.88484 -3.28569 0
M  V30 2330 H 215.291 -1.54573 -5.44173 0
M  V30 2331 H 213.848 -2.1476 -6.15403 0
M  V30 2332 N 217.281 0.66697 -1.42791 0
M  V30 2333 C 218.697 0.981027 -1.25889 0
M  V30 2334 C 218.897 2.00793 -0.168695 0
M  V30 2335 O 217.953 2.48321 0.45747 0
M  V30 2336 C 219.266 1.47838 -2.61848 0
M  V30 2337 C 220.814 1.59575 -2.69267 0
M  V30 2338 C 221.289 2.12704 -4.05612 0
M  V30 2339 N 222.78 2.20026 -4.07606 0
M  V30 2340 C 223.515 2.62227 -5.09926 0
M  V30 2341 N 223.011 3.03824 -6.22626 0
M  V30 2342 N 224.804 2.62045 -4.97281 0
M  V30 2343 H 216.955 -0.0127891 -2.12396 0
M  V30 2344 H 219.218 0.0568258 -0.946295 0
M  V30 2345 H 218.924 0.798299 -3.4252 0
M  V30 2346 H 218.798 2.45579 -2.86305 0
M  V30 2347 H 221.185 2.26687 -1.88936 0
M  V30 2348 H 221.266 0.60302 -2.48591 0
M  V30 2349 H 220.91 1.46198 -4.86404 0
M  V30 2350 H 220.84 3.12782 -4.23645 0
M  V30 2351 H 223.331 1.90708 -3.2625 0
M  V30 2352 H 223.644 3.34734 -6.96544 0
M  V30 2353 H 221.989 3.01662 -6.26119 0
M  V30 2354 H 225.18 2.28916 -4.08308 0
M  V30 2355 H 225.353 2.94613 -5.77154 0
M  V30 2356 N 218.759 1.29093 0.90403 0
M  V30 2357 C 219.692 1.08176 2.00931 0
M  V30 2358 C 220.67 -0.005083 1.62599 0
M  V30 2359 O 221.854 0.144765 1.87943 0
M  V30 2360 C 218.981 0.645897 3.32484 0
M  V30 2361 C 218.027 1.73081 3.89801 0
M  V30 2362 S 218.86 3.32905 4.19446 0
M  V30 2363 C 220.016 2.91176 5.54046 0
M  V30 2364 H 220.249 2.01752 2.18365 0
M  V30 2365 H 217.782 1.13191 1.0501 0
M  V30 2366 H 219.74 0.401131 4.08535 0
M  V30 2367 H 218.401 -0.270188 3.12936 0
M  V30 2368 H 217.594 1.37768 4.84805 0
M  V30 2369 H 217.196 1.92888 3.20422 0
M  V30 2370 H 219.488 2.37952 6.34338 0
M  V30 2371 H 220.431 3.85014 5.94281 0
M  V30 2372 H 220.839 2.296 5.15698 0
M  V30 2373 N 220.237 -1.11381 1.11499 0
M  V30 2374 C 221.17 -2.16621 0.71769 0
M  V30 2375 C 222.148 -1.60058 -0.286413 0
M  V30 2376 O 223.332 -1.87613 -0.182689 0
M  V30 2377 C 220.459 -3.38646 0.0607265 0
M  V30 2378 C 219.505 -4.13874 1.03008 0
M  V30 2379 S 220.338 -4.70731 2.55289 0
M  V30 2380 C 221.494 -5.96079 1.90895 0
M  V30 2381 H 221.727 -2.49987 1.60915 0
M  V30 2382 H 219.26 -1.23015 0.933092 0
M  V30 2383 H 221.218 -4.09313 -0.311965 0
M  V30 2384 H 219.879 -3.03537 -0.807702 0
M  V30 2385 H 219.072 -5.01333 0.517853 0
M  V30 2386 H 218.674 -3.4897 1.34522 0
M  V30 2387 H 220.966 -6.65948 1.24577 0
M  V30 2388 H 221.909 -6.51946 2.76354 0
M  V30 2389 H 222.317 -5.47652 1.36885 0
M  V30 2390 N 221.715 -0.905404 -1.28997 0
M  V30 2391 C 222.964 -0.530191 -1.94607 0
M  V30 2392 C 223.277 0.929185 -1.72121 0
M  V30 2393 O 224.483 1.41218 -2.31883 0
M  V30 2394 C 222.939 -0.897333 -3.48534 0
M  V30 2395 C 222.547 -2.37587 -3.79811 0
M  V30 2396 C 224.291 -0.592304 -4.20347 0
M  V30 2397 C 222.198 -2.68357 -5.27009 0
M  V30 2398 H 221.128 -0.194558 -0.728466 0
M  V30 2399 H 223.779 -1.10318 -1.46636 0
M  V30 2400 H 222.161 -0.253214 -3.9519 0
M  V30 2401 H 223.335 -3.06602 -3.43994 0
M  V30 2402 H 221.65 -2.6505 -3.2115 0
M  V30 2403 H 224.247 -0.798975 -5.28697 0
M  V30 2404 H 224.59 0.469474 -4.13644 0
M  V30 2405 H 225.123 -1.19452 -3.79442 0
M  V30 2406 H 221.862 -3.73355 -5.38782 0
M  V30 2407 H 221.382 -2.03971 -5.64053 0
M  V30 2408 H 223.061 -2.54922 -5.94663 0
M  V30 2409 N 223.193 1.4272 -0.668489 0
M  V30 2410 C 224.609 1.55992 -0.33745 0
M  V30 2411 C 224.809 1.64933 1.15756 0
M  V30 2412 O 223.865 1.61278 1.94282 0
M  V30 2413 C 225.178 2.81314 -1.06222 0
M  V30 2414 C 226.726 2.95078 -1.04394 0
M  V30 2415 C 227.201 4.23252 -1.74991 0
M  V30 2416 N 228.692 4.3015 -1.71829 0
M  V30 2417 C 229.427 5.28127 -2.23315 0
M  V30 2418 N 228.923 6.32293 -2.83156 0
M  V30 2419 N 230.716 5.19882 -2.13726 0
M  V30 2420 H 222.867 1.3516 -1.63846 0
M  V30 2421 H 225.13 0.650174 -0.689912 0
M  V30 2422 H 224.836 2.80823 -2.11734 0
M  V30 2423 H 224.71 3.72012 -0.62344 0
M  V30 2424 H 227.097 2.951 0.0028244 0
M  V30 2425 H 227.178 2.05627 -1.52155 0
M  V30 2426 H 226.822 4.2399 -2.79633 0
M  V30 2427 H 226.752 5.11626 -1.24685 0
M  V30 2428 H 229.243 3.55499 -1.28175 0
M  V30 2429 H 229.556 7.03398 -3.20079 0
M  V30 2430 H 227.901 6.32873 -2.87223 0
M  V30 2431 H 231.092 4.37423 -1.66669 0
M  V30 2432 H 231.265 5.96077 -2.54158 0
M  V30 2433 N 224.671 0.411399 1.52136 0
M  V30 2434 C 225.581 -0.419774 2.30814 0
M  V30 2435 C 226.597 -1.0515 1.38634 0
M  V30 2436 O 227.773 -1.05252 1.71709 0
M  V30 2437 C 224.838 -1.52019 3.11594 0
M  V30 2438 C 223.899 -0.91129 4.19516 0
M  V30 2439 C 223.132 -1.95927 4.96436 0
M  V30 2440 O 223.355 -3.17775 4.73683 0
M  V30 2441 O 222.289 -1.56423 5.81219 0
M  V30 2442 H 226.115 0.221805 3.02889 0
M  V30 2443 H 223.7 0.174547 1.48377 0
M  V30 2444 H 225.582 -2.15898 3.61892 0
M  V30 2445 H 224.257 -2.14633 2.42311 0
M  V30 2446 H 223.164 -0.235157 3.7336 0
M  V30 2447 H 224.497 -0.32904 4.91099 0
M  V30 2448 N 226.149 -1.5696 0.141893 0
M  V30 2449 C 227.079 -2.19516 -0.795936 0
M  V30 2450 C 228.06 -1.14187 -1.26077 0
M  V30 2451 O 229.245 -1.42511 -1.31925 0
M  V30 2452 C 226.375 -2.81272 -2.03723 0
M  V30 2453 C 225.329 -3.92384 -1.70936 0
M  V30 2454 C 224.655 -4.41052 -3.02287 0
M  V30 2455 C 225.955 -5.13403 -0.959954 0
M  V30 2456 H 227.649 -2.98138 -0.274596 0
M  V30 2457 H 225.195 -1.43406 -0.130636 0
M  V30 2458 H 227.148 -3.237 -2.69808 0
M  V30 2459 H 225.872 -1.99973 -2.58221 0
M  V30 2460 H 224.531 -3.50566 -1.07232 0
M  V30 2461 H 224.179 -3.56582 -3.54765 0
M  V30 2462 H 223.879 -5.15993 -2.81114 0
M  V30 2463 H 225.403 -4.86146 -3.69451 0
M  V30 2464 H 226.817 -5.52706 -1.52279 0
M  V30 2465 H 225.214 -5.94073 -0.848357 0
M  V30 2466 H 226.284 -4.84875 0.0492434 0
M  V30 2467 N 227.627 0.131896 -1.57047 0
M  V30 2468 C 228.56 1.19236 -1.94571 0
M  V30 2469 C 229.538 1.40782 -0.813576 0
M  V30 2470 O 230.722 1.55148 -1.07058 0
M  V30 2471 C 227.849 2.54858 -2.23081 0
M  V30 2472 C 226.895 2.49817 -3.45679 0
M  V30 2473 S 227.728 1.95036 -4.98719 0
M  V30 2474 C 228.884 3.32357 -5.30367 0
M  V30 2475 H 229.117 0.872297 -2.84215 0
M  V30 2476 H 226.65 0.338134 -1.50652 0
M  V30 2477 H 228.608 3.32898 -2.40185 0
M  V30 2478 H 227.269 2.84047 -1.34074 0
M  V30 2479 H 226.462 3.49688 -3.62952 0
M  V30 2480 H 226.064 1.79892 -3.27895 0
M  V30 2481 H 228.356 4.28525 -5.2476 0
M  V30 2482 H 229.299 3.19923 -6.31708 0
M  V30 2483 H 229.707 3.3019 -4.57859 0
M  V30 2484 N 229.106 1.52395 0.401703 0
M  V30 2485 C 230.383 1.57387 1.16141 0
M  V30 2486 C 230.763 0.359359 2.08019 0
M  V30 2487 O 230.111 -0.65326 2.18963 0
M  V30 2488 C 230.321 2.90631 1.93221 0
M  V30 2489 C 231.669 3.43904 2.49028 0
M  V30 2490 O 232.693 2.92421 2.03393 0
M  V30 2491 O 231.552 4.33823 3.32356 0
M  V30 2492 H 228.646 0.634262 0.530698 0
M  V30 2493 H 231.192 1.64725 0.407883 0
M  V30 2494 H 229.964 3.70473 1.25958 0
M  V30 2495 H 229.587 2.8662 2.75563 0
M  V30 2496 N 230.584 -0.659388 1.43143 0
M  V30 2497 C 231.547 -1.75432 1.47501 0
M  V30 2498 C 232.547 -1.56707 0.360512 0
M  V30 2499 O 233.737 -1.62717 0.622002 0
M  V30 2500 C 230.869 -3.14239 1.32162 0
M  V30 2501 H 232.062 -1.7295 2.45006 0
M  V30 2502 H 229.615 -0.870469 1.29817 0
M  V30 2503 H 230.35 -3.22336 0.356401 0
M  V30 2504 H 230.135 -3.29235 2.12948 0
M  V30 2505 H 231.625 -3.94094 1.3813 0
M  V30 2506 N 232.062 -1.29571 -0.897171 0
M  V30 2507 C 232.994 -1.10724 -2.00681 0
M  V30 2508 C 234.007 -0.0540026 -1.6271 0
M  V30 2509 O 235.196 -0.298783 -1.75982 0
M  V30 2510 C 232.296 -0.663912 -3.32333 0
M  V30 2511 C 231.469 -1.79622 -3.98816 0
M  V30 2512 C 230.528 -1.34349 -5.0876 0
M  V30 2513 O 229.554 -2.04864 -5.31055 0
M  V30 2514 N 230.756 -0.215764 -5.80099 0
M  V30 2515 H 233.521 -2.06291 -2.17403 0
M  V30 2516 H 231.082 -1.21544 -1.06951 0
M  V30 2517 H 233.074 -0.344295 -4.03233 0
M  V30 2518 H 231.644 0.199375 -3.11964 0
M  V30 2519 H 230.864 -2.28459 -3.21248 0
M  V30 2520 H 232.152 -2.55535 -4.39976 0
M  V30 2521 H 231.55 0.372091 -5.64475 0
M  V30 2522 H 230.107 0.0444707 -6.51785 0
M  V30 2523 N 233.54 1.10788 -1.12088 0
M  V30 2524 C 234.473 2.16237 -0.729168 0
M  V30 2525 C 235.451 1.60207 0.277921 0
M  V30 2526 O 236.635 1.87707 0.172737 0
M  V30 2527 C 233.762 3.38609 -0.0786848 0
M  V30 2528 C 232.808 4.13322 -1.05201 0
M  V30 2529 S 233.641 4.69371 -2.57781 0
M  V30 2530 C 234.797 5.95058 -1.94053 0
M  V30 2531 H 235.03 2.4913 -1.62239 0
M  V30 2532 H 232.563 1.22519 -0.939603 0
M  V30 2533 H 234.521 4.09473 0.290254 0
M  V30 2534 H 233.182 3.03962 0.791593 0
M  V30 2535 H 232.375 5.01051 -0.544433 0
M  V30 2536 H 231.977 3.48251 -1.36371 0
M  V30 2537 H 234.269 6.65278 -1.28107 0
M  V30 2538 H 235.212 6.50472 -2.79807 0
M  V30 2539 H 235.62 5.46918 -1.39787 0
M  V30 2540 N 235.018 0.912232 1.28515 0
M  V30 2541 C 235.965 0.397954 2.27343 0
M  V30 2542 C 236.935 -0.526766 1.57526 0
M  V30 2543 O 238.12 -0.449292 1.85435 0
M  V30 2544 C 235.26 -0.357263 3.43246 0
M  V30 2545 C 234.373 0.599788 4.27816 0
M  V30 2546 C 233.508 -0.173725 5.30916 0
M  V30 2547 C 232.547 0.777039 6.07148 0
M  V30 2548 N 231.684 0.0371398 7.0209 0
M  V30 2549 H 236.524 1.24577 2.70711 0
M  V30 2550 H 234.061 0.625612 1.33133 0
M  V30 2551 H 236.019 -0.8113 4.09236 0
M  V30 2552 H 234.649 -1.16943 3.00872 0
M  V30 2553 H 233.701 1.17235 3.61884 0
M  V30 2554 H 235.013 1.32704 4.80823 0
M  V30 2555 H 234.167 -0.688394 6.02782 0
M  V30 2556 H 232.906 -0.934041 4.78672 0
M  V30 2557 H 231.911 1.3031 5.34134 0
M  V30 2558 H 233.136 1.53689 6.61481 0
M  V30 2559 H 231.082 -0.705213 6.52198 0
M  V30 2560 H 230.999 0.704249 7.52713 0
M  V30 2561 H 232.267 -0.457383 7.78157 0
M  V30 2562 N 236.496 -1.42363 0.676048 0
M  V30 2563 C 237.724 -2.05859 0.207268 0
M  V30 2564 C 238.139 -1.50796 -1.13605 0
M  V30 2565 O 237.496 -0.648265 -1.70598 0
M  V30 2566 C 237.547 -3.61248 0.134975 0
M  V30 2567 O 237.268 -4.1427 1.42521 0
M  V30 2568 C 238.769 -4.41859 -0.357151 0
M  V30 2569 H 235.989 -0.663431 0.100503 0
M  V30 2570 H 238.533 -1.82479 0.923136 0
M  V30 2571 H 236.688 -3.83735 -0.531588 0
M  V30 2572 H 237.102 -5.0815 1.29939 0
M  V30 2573 H 238.576 -5.50847 -0.356641 0
M  V30 2574 H 239.053 -4.16536 -1.39264 0
M  V30 2575 H 239.659 -4.24392 0.27772 0
M  V30 2576 N 237.974 -0.419461 -1.51915 0
M  V30 2577 C 239.221 0.152939 -2.01922 0
M  V30 2578 C 239.549 1.4426 -1.30458 0
M  V30 2579 O 238.804 1.91514 -0.402593 0
M  V30 2580 C 239.103 0.437067 -3.54717 0
M  V30 2581 C 238.769 -0.764632 -4.44369 0
M  V30 2582 C 237.431 -1.09423 -4.68594 0
M  V30 2583 C 239.783 -1.56713 -4.97082 0
M  V30 2584 C 237.111 -2.22732 -5.42777 0
M  V30 2585 C 239.463 -2.69107 -5.72507 0
M  V30 2586 C 238.127 -3.02541 -5.95 0
M  V30 2587 H 237.397 0.0559644 -0.738884 0
M  V30 2588 H 240.044 -0.562998 -1.83037 0
M  V30 2589 H 238.349 1.23469 -3.71837 0
M  V30 2590 H 240.046 0.893083 -3.90928 0
M  V30 2591 H 236.636 -0.497775 -4.257 0
M  V30 2592 H 240.82 -1.32571 -4.78266 0
M  V30 2593 H 236.076 -2.48971 -5.58411 0
M  V30 2594 H 240.25 -3.31671 -6.12346 0
M  V30 2595 H 237.877 -3.90457 -6.52264 0
M  V30 2596 N 239.452 1.56882 -0.150215 0
M  V30 2597 C 240.729 1.87844 0.545327 0
M  V30 2598 C 241.109 1.0567 1.82749 0
M  V30 2599 O 240.457 0.144442 2.28043 0
M  V30 2600 C 240.667 3.39526 0.80767 0
M  V30 2601 C 242.015 4.08814 1.14703 0
M  V30 2602 O 243.039 3.44723 0.896917 0
M  V30 2603 O 241.898 5.22004 1.61784 0
M  V30 2604 H 238.992 0.778677 0.278553 0
M  V30 2605 H 241.538 1.68666 -0.187068 0
M  V30 2606 H 240.31 3.91173 -0.0996096 0
M  V30 2607 H 239.933 3.64243 1.59413 0
M  V30 2608 N 240.93 -0.123565 1.57115 0
M  V30 2609 C 242.158 -0.846461 1.88793 0
M  V30 2610 C 242.573 -1.73652 0.740976 0
M  V30 2611 O 241.93 -1.80207 -0.288393 0
M  V30 2612 C 241.981 -1.6837 3.19897 0
M  V30 2613 O 241.702 -0.829477 4.30176 0
M  V30 2614 C 243.203 -2.51214 3.65248 0
M  V30 2615 H 240.423 -0.243573 0.625231 0
M  V30 2616 H 242.967 -0.109324 2.04208 0
M  V30 2617 H 241.122 -2.37364 3.06165 0
M  V30 2618 H 241.536 -1.40651 5.0529 0
M  V30 2619 H 243.01 -3.05497 4.59756 0
M  V30 2620 H 243.487 -3.28359 2.9168 0
M  V30 2621 H 244.093 -1.8747 3.81752 0
M  V30 2622 N 242.408 -1.52605 -0.393616 0
M  V30 2623 C 243.636 -1.71294 -1.16043 0
M  V30 2624 C 244.051 -0.429259 -1.83855 0
M  V30 2625 O 243.408 0.595921 -1.72496 0
M  V30 2626 C 243.459 -2.8593 -2.21193 0
M  V30 2627 O 243.18 -4.09329 -1.56146 0
M  V30 2628 C 244.681 -3.16259 -3.10636 0
M  V30 2629 H 241.901 -0.573641 -0.348104 0
M  V30 2630 H 244.445 -1.99234 -0.461092 0
M  V30 2631 H 242.6 -2.60465 -2.86769 0
M  V30 2632 H 243.014 -4.73323 -2.25978 0
M  V30 2633 H 244.488 -3.99946 -3.80456 0
M  V30 2634 H 244.965 -2.3045 -3.73884 0
M  V30 2635 H 245.571 -3.43547 -2.50711 0
M  V30 2636 N 243.887 0.651787 -1.4349 0
M  V30 2637 C 245.134 1.41167 -1.45183 0
M  V30 2638 C 245.462 1.94349 -0.0766601 0
M  V30 2639 O 244.717 1.72804 0.918555 0
M  V30 2640 C 245.016 2.60914 -2.44251 0
M  V30 2641 C 244.682 2.26142 -3.9009 0
M  V30 2642 C 243.344 2.16371 -4.2981 0
M  V30 2643 C 245.696 1.98334 -4.81989 0
M  V30 2644 C 243.024 1.7695 -5.5938 0
M  V30 2645 C 245.376 1.6041 -6.11924 0
M  V30 2646 C 244.04 1.49166 -6.5062 0
M  V30 2647 H 243.31 0.516566 -0.531263 0
M  V30 2648 H 245.957 0.741099 -1.76579 0
M  V30 2649 H 244.262 3.3311 -2.06265 0
M  V30 2650 H 245.959 3.19127 -2.42815 0
M  V30 2651 H 242.549 2.34658 -3.58655 0
M  V30 2652 H 246.733 2.04803 -4.52072 0
M  V30 2653 H 241.989 1.66831 -5.88198 0
M  V30 2654 H 246.163 1.37925 -6.82605 0
M  V30 2655 H 243.79 1.1839 -7.50925 0
M  V30 2656 N 245.365 1.30045 0.890287 0
M  V30 2657 C 246.59 1.21598 1.68014 0
M  V30 2658 C 247.015 -0.218678 1.86825 0
M  V30 2659 O 246.373 -1.15756 1.39536 0
M  V30 2660 C 246.421 1.94434 3.03691 0
M  V30 2661 O 245.525 1.2678 3.92429 0
M  V30 2662 H 244.866 0.420856 0.513592 0
M  V30 2663 H 247.396 1.71775 1.11151 0
M  V30 2664 H 247.406 2.03251 3.5377 0
M  V30 2665 H 246.081 2.98777 2.89318 0
M  V30 2666 H 244.658 1.26282 3.50866 0
M  V30 2667 N 246.843 -1.10192 1.12674 0
M  V30 2668 C 247.793 -2.14754 0.765801 0
M  V30 2669 C 248.777 -1.59154 -0.236409 0
M  V30 2670 O 249.969 -1.76951 -0.0415261 0
M  V30 2671 C 247.098 -3.42563 0.224827 0
M  V30 2672 C 246.184 -4.05091 1.25548 0
M  V30 2673 N 246.575 -4.42287 2.4539 0
M  V30 2674 C 244.873 -4.32186 1.10142 0
M  V30 2675 C 245.574 -4.91441 3.11224 0
M  V30 2676 N 244.55 -4.88405 2.38666 0
M  V30 2677 H 248.352 -2.41309 1.67772 0
M  V30 2678 H 245.866 -1.27339 1.00789 0
M  V30 2679 H 247.863 -4.16868 -0.0519578 0
M  V30 2680 H 246.523 -3.17467 -0.681515 0
M  V30 2681 H 247.534 -4.33902 2.82754 0
M  V30 2682 H 244.211 -4.16735 0.252587 0
M  V30 2683 H 245.601 -5.29749 4.13298 0
M  V30 2684 N 248.321 -0.919034 -1.28029 0
M  V30 2685 C 249.568 -0.554934 -1.94748 0
M  V30 2686 C 249.896 0.90231 -1.72304 0
M  V30 2687 O 249.151 1.65767 -1.04018 0
M  V30 2688 C 249.45 -0.816855 -3.4794 0
M  V30 2689 C 249.116 -2.25448 -3.90492 0
M  V30 2690 C 247.778 -2.64752 -4.01821 0
M  V30 2691 C 250.13 -3.18977 -4.12193 0
M  V30 2692 C 247.458 -3.96727 -4.32232 0
M  V30 2693 C 249.81 -4.50523 -4.44086 0
M  V30 2694 C 248.474 -4.89673 -4.53626 0
M  V30 2695 H 247.744 -0.203065 -0.712633 0
M  V30 2696 H 250.391 -1.16136 -1.52265 0
M  V30 2697 H 248.696 -0.127677 -3.91592 0
M  V30 2698 H 250.393 -0.514238 -3.97689 0
M  V30 2699 H 246.983 -1.93952 -3.82205 0
M  V30 2700 H 251.167 -2.89817 -4.02889 0
M  V30 2701 H 246.423 -4.26754 -4.37825 0
M  V30 2702 H 250.597 -5.23005 -4.59825 0
M  V30 2703 H 248.224 -5.91969 -4.76946 0
M  V30 2704 N 249.799 1.42003 -0.683588 0
M  V30 2705 C 250.746 2.30798 -0.0107309 0
M  V30 2706 C 251.716 1.4645 0.783688 0
M  V30 2707 O 252.901 1.75263 0.754156 0
M  V30 2708 C 250.041 3.3238 0.928306 0
M  V30 2709 C 249.154 4.31814 0.126776 0
M  V30 2710 C 248.289 5.20468 1.06236 0
M  V30 2711 C 247.328 6.11577 0.253035 0
M  V30 2712 N 246.465 6.92754 1.14179 0
M  V30 2713 H 251.305 2.8778 -0.773727 0
M  V30 2714 H 248.842 1.41745 -0.393283 0
M  V30 2715 H 250.8 3.89813 1.48666 0
M  V30 2716 H 249.43 2.76976 1.65783 0
M  V30 2717 H 248.482 3.76427 -0.54833 0
M  V30 2718 H 249.794 4.96276 -0.501192 0
M  V30 2719 H 248.948 5.82677 1.69035 0
M  V30 2720 H 247.687 4.56204 1.7242 0
M  V30 2721 H 246.692 5.48428 -0.388108 0
M  V30 2722 H 247.917 6.77892 -0.404839 0
M  V30 2723 H 245.863 6.3111 1.78987 0
M  V30 2724 H 245.78 7.53855 0.569111 0
M  V30 2725 H 247.048 7.59441 1.75697 0
M  V30 2726 N 251.277 0.427512 1.51691 0
M  V30 2727 C 252.225 -0.403359 2.29076 0
M  V30 2728 C 253.219 -1.02962 1.34518 0
M  V30 2729 O 254.425 -0.965715 1.51901 0
M  V30 2730 H 250.8 -0.148879 0.737115 0
M  V30 2731 H 252.771 0.270295 2.97173 0
M  V30 2732 C 251.52 -1.49763 3.13794 0
M  V30 2733 H 250.843 -1.02508 3.86435 0
M  V30 2734 H 252.283 -2.05244 3.71014 0
M  V30 2735 C 250.742 -2.47536 2.28533 0
M  V30 2736 O 251.272 -3.51848 1.93819 0
M  V30 2737 N 249.478 -2.18187 1.91945 0
M  V30 2738 H 249.025 -1.33389 2.20375 0
M  V30 2739 H 248.983 -2.83848 1.35195 0
M  V30 2740 N 252.755 -1.56801 0.158532 0
M  V30 2741 C 254.002 -1.9649 -0.489679 0
M  V30 2742 C 254.33 -1.04394 -1.6411 0
M  V30 2743 O 253.585 -0.0754401 -1.95555 0
M  V30 2744 C 253.884 -3.4235 -1.02623 0
M  V30 2745 C 253.55 -4.50899 0.00794526 0
M  V30 2746 C 252.212 -4.80312 0.292207 0
M  V30 2747 C 254.564 -5.16333 0.710584 0
M  V30 2748 C 251.892 -5.72461 1.28472 0
M  V30 2749 C 254.244 -6.09553 1.69199 0
M  V30 2750 C 252.908 -6.37339 1.98383 0
M  V30 2751 H 252.178 -0.719009 -0.179186 0
M  V30 2752 H 254.825 -1.8989 0.247798 0
M  V30 2753 H 253.13 -3.45838 -1.84128 0
M  V30 2754 H 254.827 -3.70393 -1.53656 0
M  V30 2755 H 251.417 -4.28015 -0.22379 0
M  V30 2756 H 255.601 -4.93732 0.504174 0
M  V30 2757 H 250.857 -5.92278 1.51714 0
M  V30 2758 H 255.031 -6.59327 2.24189 0
M  V30 2759 H 252.658 -7.08546 2.7544 0
M  V30 2760 N 254.233 0.115231 -1.57178 0
M  V30 2761 C 255.649 0.468877 -1.52557 0
M  V30 2762 C 255.849 1.81649 -0.872125 0
M  V30 2763 O 254.905 2.48347 -0.45606 0
M  V30 2764 C 256.218 0.4499 -2.97315 0
M  V30 2765 C 257.766 0.533185 -3.08425 0
M  V30 2766 C 258.241 0.54456 -4.54751 0
M  V30 2767 N 259.732 0.605892 -4.5922 0
M  V30 2768 C 260.467 0.636203 -5.6986 0
M  V30 2769 N 259.963 0.623931 -6.89985 0
M  V30 2770 N 261.756 0.679496 -5.57978 0
M  V30 2771 H 253.907 -0.767712 -1.9804 0
M  V30 2772 H 256.17 -0.283609 -0.904583 0
M  V30 2773 H 255.876 -0.472721 -3.48509 0
M  V30 2774 H 255.75 1.27632 -3.5495 0
M  V30 2775 H 258.137 1.44623 -2.57232 0
M  V30 2776 H 258.218 -0.320995 -2.53778 0
M  V30 2777 H 257.862 -0.364452 -5.06591 0
M  V30 2778 H 257.792 1.41568 -5.07214 0
M  V30 2779 H 260.283 0.621386 -3.72756 0
M  V30 2780 H 260.596 0.649787 -7.70063 0
M  V30 2781 H 258.941 0.591296 -6.9248 0
M  V30 2782 H 262.132 0.686472 -4.63039 0
M  V30 2783 H 262.305 0.69965 -6.44212 0
M  V30 2784 N 255.711 1.52812 0.385517 0
M  V30 2785 C 256.641 1.80808 1.47752 0
M  V30 2786 C 257.622 0.660318 1.5676 0
M  V30 2787 O 258.807 0.908246 1.71652 0
M  V30 2788 C 255.937 1.98008 2.85324 0
M  V30 2789 C 254.891 3.13709 2.91154 0
M  V30 2790 C 254.217 3.16169 4.31209 0
M  V30 2791 C 255.517 4.52709 2.60483 0
M  V30 2792 H 257.211 2.72253 1.24573 0
M  V30 2793 H 254.757 1.31003 0.597839 0
M  V30 2794 H 256.71 2.16176 3.61726 0
M  V30 2795 H 255.434 1.03255 3.09848 0
M  V30 2796 H 254.093 2.95329 2.17201 0
M  V30 2797 H 253.741 2.19092 4.52778 0
M  V30 2798 H 253.441 3.93894 4.36029 0
M  V30 2799 H 254.965 3.36496 5.09512 0
M  V30 2800 H 256.379 4.71173 3.26602 0
M  V30 2801 H 254.776 5.32528 2.76648 0
M  V30 2802 H 255.846 4.59186 1.55809 0
M  V30 2803 N 257.189 -0.644168 1.43834 0
M  V30 2804 C 258.6 -1.22554 1.40845 0
M  V30 2805 C 258.951 -1.9585 0.117115 0
M  V30 2806 O 258.076 -2.01734 -0.783086 0
M  V30 2807 C 258.671 -2.22907 2.55143 0
M  V30 2808 C 257.23 -2.76501 2.5539 0
M  V30 2809 C 256.377 -1.51287 2.32396 0
M  V30 2810 H 259.328 -0.43563 1.52604 0
M  V30 2811 H 259.349 -3.05259 2.2715 0
M  V30 2812 H 258.861 -1.69533 3.49114 0
M  V30 2813 H 256.962 -3.33914 1.65324 0
M  V30 2814 H 257.075 -3.23429 3.53455 0
M  V30 2815 H 255.439 -1.78957 1.81236 0
M  V30 2816 H 256.222 -0.998336 3.28463 0
M  V30 2817 N 258.668 -1.30515 -0.883378 0
M  V30 2818 C 259.916 -1.19194 -1.63209 0
M  V30 2819 C 260.237 0.253205 -1.93349 0
M  V30 2820 O 259.507 1.17025 -1.57105 0
M  V30 2821 H 258.087 -0.438148 -0.605009 0
M  V30 2822 H 260.749 -1.63663 -1.05832 0
M  V30 2823 H 259.845 -1.75396 -2.58153 0
M  V30 2824 N 260.146 1.09593 -1.13257 0
M  V30 2825 C 261.392 1.82003 -0.89458 0
M  V30 2826 C 261.725 1.85402 0.577906 0
M  V30 2827 O 261 1.32099 1.42759 0
M  V30 2828 C 261.283 3.28237 -1.48096 0
M  V30 2829 C 261.136 3.3312 -3.02244 0
M  V30 2830 C 262.455 4.24871 -1.14774 0
M  V30 2831 H 259.574 0.66077 -0.326424 0
M  V30 2832 H 262.216 1.28389 -1.40058 0
M  V30 2833 H 260.366 3.74024 -1.05062 0
M  V30 2834 H 262.038 2.95748 -3.54021 0
M  V30 2835 H 260.281 2.72756 -3.37323 0
M  V30 2836 H 260.952 4.3613 -3.38371 0
M  V30 2837 H 263.428 3.87361 -1.51957 0
M  V30 2838 H 262.304 5.25532 -1.58452 0
M  V30 2839 H 262.565 4.42058 -0.0611849 0
M  V30 2840 N 261.624 0.925811 1.2754 0
M  V30 2841 C 262.554 0.440748 2.29303 0
M  V30 2842 C 263.535 -0.497971 1.62648 0
M  V30 2843 O 264.72 -0.403126 1.8997 0
M  V30 2844 C 261.85 -0.309048 3.45922 0
M  V30 2845 C 260.804 0.54166 4.24559 0
M  V30 2846 C 260.13 -0.337191 5.33636 0
M  V30 2847 C 261.43 1.80516 4.90114 0
M  V30 2848 H 263.124 1.29121 2.70126 0
M  V30 2849 H 260.67 0.622323 1.29858 0
M  V30 2850 H 262.623 -0.659315 4.1621 0
M  V30 2851 H 261.347 -1.19352 3.04011 0
M  V30 2852 H 260.006 0.874609 3.56014 0
M  V30 2853 H 259.654 -1.22056 4.87966 0
M  V30 2854 H 259.354 0.228497 5.87156 0
M  V30 2855 H 260.878 -0.683072 6.06767 0
M  V30 2856 H 262.292 1.52307 5.52698 0
M  V30 2857 H 260.689 2.3142 5.53683 0
M  V30 2858 H 261.759 2.52581 4.13921 0
M  V30 2859 N 263.102 -1.41638 0.69111 0
M  V30 2860 C 264.327 -2.06148 0.227583 0
M  V30 2861 C 264.752 -1.51652 -1.11281 0
M  V30 2862 O 264.11 -0.64164 -1.69566 0
M  V30 2863 C 264.158 -3.60095 0.190858 0
M  V30 2864 O 263.262 -4.03845 -0.835664 0
M  V30 2865 H 262.603 -0.654434 0.112306 0
M  V30 2866 H 265.133 -1.81484 0.944714 0
M  V30 2867 H 265.143 -4.07995 0.020207 0
M  V30 2868 H 263.818 -3.99129 1.16915 0
M  V30 2869 H 262.395 -3.67458 -0.63473 0
M  V30 2870 N 264.58 -0.43555 -1.51462 0
M  V30 2871 C 265.805 0.132627 -2.06976 0
M  V30 2872 C 266.23 1.35848 -1.30104 0
M  V30 2873 O 265.588 1.78112 -0.338493 0
M  V30 2874 C 265.636 0.43523 -3.57964 0
M  V30 2875 O 264.74 1.52198 -3.83288 0
M  V30 2876 H 264.081 0.00265 -0.663995 0
M  V30 2877 H 266.611 -0.616369 -1.95095 0
M  V30 2878 H 266.621 0.686206 -4.02188 0
M  V30 2879 H 265.296 -0.460739 -4.1334 0
M  V30 2880 H 263.873 1.2611 -3.50928 0
M  V30 2881 N 266.058 1.56714 -0.166846 0
M  V30 2882 C 267.306 1.96358 0.478305 0
M  V30 2883 C 267.627 1.0537 1.6408 0
M  V30 2884 O 266.897 0.119154 1.95537 0
M  V30 2885 H 265.477 0.725065 0.179692 0
M  V30 2886 H 268.139 1.93329 -0.246985 0
M  V30 2887 H 267.235 3.00547 0.841292 0
M  V30 2888 N 267.536 -0.106894 1.57237 0
M  V30 2889 C 268.776 -0.818277 1.87306 0
M  V30 2890 C 269.14 -1.76474 0.756371 0
M  V30 2891 O 270.341 -2.5186 0.939155 0
M  V30 2892 C 268.612 -1.53806 3.22612 0
M  V30 2893 S 270.171 -2.28935 3.74345 0
M  V30 2894 H 266.989 -0.272862 0.656557 0
M  V30 2895 H 269.591 -0.075988 1.95352 0
M  V30 2896 H 268.295 -0.834951 4.01817 0
M  V30 2897 H 267.826 -2.32049 3.17674 0
M  V30 2898 H 269.841 -3.54871 3.46815 0
M  V30 2899 N 269.014 -1.53014 -0.377408 0
M  V30 2900 C 269.924 -1.81557 -1.48574 0
M  V30 2901 C 270.94 -0.703102 -1.59162 0
M  V30 2902 O 272.116 -0.99192 -1.75279 0
M  V30 2903 C 269.181 -1.9889 -2.83978 0
M  V30 2904 C 268.242 -3.22801 -2.83016 0
M  V30 2905 C 267.475 -3.39298 -4.11962 0
M  V30 2906 O 267.698 -2.60345 -5.0752 0
M  V30 2907 O 266.632 -4.32604 -4.18494 0
M  V30 2908 H 270.458 -2.75695 -1.27382 0
M  V30 2909 H 268.043 -1.38248 -0.566373 0
M  V30 2910 H 269.925 -2.11931 -3.6423 0
M  V30 2911 H 268.6 -1.07942 -3.05172 0
M  V30 2912 H 267.507 -3.15193 -2.01505 0
M  V30 2913 H 268.84 -4.13632 -2.66775 0
M  V30 2914 N 270.492 0.636531 -1.44174 0
M  V30 2915 C 271.422 1.76003 -1.53444 0
M  V30 2916 C 272.403 1.65619 -0.387841 0
M  V30 2917 O 273.588 1.84461 -0.607257 0
M  V30 2918 C 270.718 3.14511 -1.4731 0
M  V30 2919 C 269.672 3.39677 -2.60391 0
M  V30 2920 C 268.998 4.78159 -2.39308 0
M  V30 2921 C 270.298 3.32772 -4.02567 0
M  V30 2922 H 271.992 1.68501 -2.47483 0
M  V30 2923 H 269.538 0.809237 -1.19111 0
M  V30 2924 H 271.491 3.92878 -1.52397 0
M  V30 2925 H 270.215 3.22783 -0.49785 0
M  V30 2926 H 268.874 2.63688 -2.54684 0
M  V30 2927 H 268.522 4.83128 -1.39988 0
M  V30 2928 H 268.222 4.95956 -3.15122 0
M  V30 2929 H 269.746 5.58762 -2.46205 0
M  V30 2930 H 271.16 4.01051 -4.09672 0
M  V30 2931 H 269.557 3.62104 -4.7854 0
M  V30 2932 H 270.627 2.30669 -4.2652 0
M  V30 2933 N 271.97 1.30982 0.876444 0
M  V30 2934 C 273.381 1.18277 1.44456 0
M  V30 2935 C 273.732 -0.213265 1.95037 0
M  V30 2936 O 272.857 -1.11057 1.85729 0
M  V30 2937 C 273.452 2.1411 2.62569 0
M  V30 2938 C 272.011 2.05358 3.15444 0
M  V30 2939 C 271.158 2.03706 1.88146 0
M  V30 2940 H 274.109 1.43127 0.685584 0
M  V30 2941 H 274.13 1.72692 3.39054 0
M  V30 2942 H 273.642 3.15706 2.25724 0
M  V30 2943 H 271.743 1.06934 3.56926 0
M  V30 2944 H 271.856 2.94156 3.78166 0
M  V30 2945 H 270.22 1.48629 2.06837 0
M  V30 2946 H 271.003 3.07047 1.53547 0
M  V30 2947 N 273.449 -1.08991 1.13837 0
M  V30 2948 C 274.359 -2.19301 0.833333 0
M  V30 2949 C 275.375 -1.73026 -0.183847 0
M  V30 2950 O 276.551 -2.01395 -0.0138092 0
M  V30 2951 C 273.616 -3.45323 0.308651 0
M  V30 2952 C 272.677 -4.06255 1.38764 0
M  V30 2953 C 271.91 -5.26262 0.887896 0
M  V30 2954 O 272.133 -5.69747 -0.27287 0
M  V30 2955 O 271.067 -5.78435 1.66421 0
M  V30 2956 H 274.893 -2.47854 1.75506 0
M  V30 2957 H 272.478 -1.18012 0.916166 0
M  V30 2958 H 274.36 -4.21394 0.0216739 0
M  V30 2959 H 273.035 -3.18362 -0.585431 0
M  V30 2960 H 271.942 -3.318 1.72799 0
M  V30 2961 H 273.275 -4.37452 2.25602 0
M  V30 2962 N 274.927 -0.932562 -1.27047 0
M  V30 2963 C 276.152 -0.591474 -1.98787 0
M  V30 2964 C 276.577 0.824601 -1.69062 0
M  V30 2965 O 275.935 1.5541 -0.933677 0
M  V30 2966 C 275.983 -0.829808 -3.50922 0
M  V30 2967 O 275.087 0.102266 -4.12273 0
M  V30 2968 H 274.428 -0.227185 -0.623926 0
M  V30 2969 H 276.958 -1.25314 -1.61733 0
M  V30 2970 H 276.968 -0.747292 -4.01098 0
M  V30 2971 H 275.643 -1.86201 -3.7189 0
M  V30 2972 H 274.22 -0.0305761 -3.72887 0
M  V30 2973 N 276.405 1.4127 -0.698611 0
M  V30 2974 C 277.335 2.33447 -0.049629 0
M  V30 2975 C 278.316 1.51982 0.763898 0
M  V30 2976 O 279.501 1.80509 0.716257 0
M  V30 2977 C 276.631 3.35828 0.885267 0
M  V30 2978 C 275.585 4.27627 0.178613 0
M  V30 2979 C 274.911 5.20406 1.22807 0
M  V30 2980 C 276.211 5.13459 -0.956933 0
M  V30 2981 H 277.905 2.87966 -0.81951 0
M  V30 2982 H 275.451 1.38461 -0.395538 0
M  V30 2983 H 277.404 3.9924 1.34854 0
M  V30 2984 H 276.128 2.79666 1.68685 0
M  V30 2985 H 274.787 3.65643 -0.26466 0
M  V30 2986 H 274.435 4.60558 2.02226 0
M  V30 2987 H 274.135 5.82661 0.760239 0
M  V30 2988 H 275.659 5.86695 1.69179 0
M  V30 2989 H 277.073 5.70421 -0.573805 0
M  V30 2990 H 275.47 5.8467 -1.35205 0
M  V30 2991 H 276.54 4.50443 -1.79524 0
M  V30 2992 N 277.883 0.443576 1.51229 0
M  V30 2993 C 278.815 -0.400608 2.25672 0
M  V30 2994 C 279.828 -0.980945 1.29928 0
M  V30 2995 O 281.017 -0.874024 1.55638 0
M  V30 2996 C 278.117 -1.57304 3.00181 0
M  V30 2997 C 277.29 -1.11046 4.23069 0
M  V30 2998 C 276.349 -2.15374 4.80105 0
M  V30 2999 O 275.375 -1.74554 5.41774 0
M  V30 3000 N 276.577 -3.47922 4.64683 0
M  V30 3001 H 279.342 0.23745 2.98758 0
M  V30 3002 H 276.903 0.272809 1.59585 0
M  V30 3003 H 278.895 -2.26733 3.35223 0
M  V30 3004 H 277.465 -2.11632 2.30066 0
M  V30 3005 H 276.685 -0.243019 3.9345 0
M  V30 3006 H 277.973 -0.778888 5.02803 0
M  V30 3007 H 277.371 -3.83815 4.15575 0
M  V30 3008 H 275.928 -4.13228 5.0407 0
M  V30 3009 N 279.361 -1.56624 0.175154 0
M  V30 3010 C 280.324 -2.16934 -0.739738 0
M  V30 3011 C 281.324 -1.11842 -1.15533 0
M  V30 3012 O 282.514 -1.37335 -1.07167 0
M  V30 3013 C 279.646 -2.75531 -2.00738 0
M  V30 3014 H 280.839 -2.99131 -0.214639 0
M  V30 3015 H 278.392 -1.56123 -0.0744197 0
M  V30 3016 H 279.127 -1.97078 -2.57548 0
M  V30 3017 H 278.912 -3.52444 -1.71831 0
M  V30 3018 H 280.402 -3.21904 -2.66021 0
M  V30 3019 N 280.839 0.0985539 -1.57292 0
M  V30 3020 C 282.25 0.653457 -1.74891 0
M  V30 3021 C 282.601 1.7929 -0.796838 0
M  V30 3022 O 281.726 2.16385 0.0254886 0
M  V30 3023 C 282.321 1.19216 -3.17133 0
M  V30 3024 C 280.88 1.69316 -3.36168 0
M  V30 3025 C 280.027 0.601294 -2.70702 0
M  V30 3026 H 282.978 -0.127497 -1.58187 0
M  V30 3027 H 282.999 2.06154 -3.19814 0
M  V30 3028 H 282.511 0.362635 -3.86402 0
M  V30 3029 H 280.612 2.5468 -2.71972 0
M  V30 3030 H 280.725 1.78853 -4.44464 0
M  V30 3031 H 279.089 1.0399 -2.32504 0
M  V30 3032 H 279.872 -0.217592 -3.4261 0
M  V30 3033 N 282.317 1.53212 0.369288 0
M  V30 3034 C 283.542 1.73423 1.1375 0
M  V30 3035 C 283.967 0.460404 1.82378 0
M  V30 3036 O 283.325 -0.585298 1.71592 0
M  V30 3037 C 283.373 2.89769 2.1463 0
M  V30 3038 O 282.477 2.58119 3.21634 0
M  V30 3039 H 281.818 0.576061 0.330227 0
M  V30 3040 H 284.348 2.00083 0.427547 0
M  V30 3041 H 284.358 3.15829 2.58294 0
M  V30 3042 H 283.033 3.8217 1.64071 0
M  V30 3043 H 281.61 2.42864 2.82969 0
M  V30 3044 N 283.795 -0.628877 1.44509 0
M  V30 3045 C 285.211 -0.947305 1.28446 0
M  V30 3046 C 285.411 -2.00275 0.221872 0
M  V30 3047 O 284.467 -2.49447 -0.391471 0
M  V30 3048 C 285.78 -1.40843 2.65676 0
M  V30 3049 C 287.328 -1.52379 2.73404 0
M  V30 3050 C 287.803 -2.01875 4.11109 0
M  V30 3051 N 289.294 -2.09142 4.13296 0
M  V30 3052 C 290.029 -2.48615 5.16699 0
M  V30 3053 N 289.525 -2.87209 6.30462 0
M  V30 3054 N 291.318 -2.48768 5.04054 0
M  V30 3055 H 283.469 0.0690977 2.12288 0
M  V30 3056 H 285.732 -0.0317164 0.947469 0
M  V30 3057 H 285.438 -0.707206 3.44516 0
M  V30 3058 H 285.312 -2.37902 2.92716 0
M  V30 3059 H 287.699 -2.21598 1.9488 0
M  V30 3060 H 287.78 -0.536898 2.50102 0
M  V30 3061 H 287.424 -1.3325 4.90109 0
M  V30 3062 H 287.354 -3.0144 4.31789 0
M  V30 3063 H 289.845 -1.81991 3.31191 0
M  V30 3064 H 290.158 -3.16149 7.05174 0
M  V30 3065 H 288.503 -2.84955 6.33897 0
M  V30 3066 H 291.694 -2.18009 4.14234 0
M  V30 3067 H 291.867 -2.79207 5.84763 0
M  V30 3068 N 285.273 -1.31445 -0.869486 0
M  V30 3069 C 286.183 -1.21097 -2.0093 0
M  V30 3070 C 287.199 -0.127584 -1.73532 0
M  V30 3071 O 288.375 -0.345477 -1.98415 0
M  V30 3072 C 285.44 -0.919378 -3.34288 0
M  V30 3073 C 284.501 -2.08971 -3.75006 0
M  V30 3074 C 283.734 -1.81194 -5.02001 0
M  V30 3075 O 283.957 -0.747296 -5.65484 0
M  V30 3076 O 282.891 -2.66883 -5.39497 0
M  V30 3077 H 286.717 -2.16883 -2.12592 0
M  V30 3078 H 284.302 -1.11189 -0.997868 0
M  V30 3079 H 286.184 -0.772625 -4.14257 0
M  V30 3080 H 284.859 0.00844772 -3.23699 0
M  V30 3081 H 283.766 -2.29187 -2.95676 0
M  V30 3082 H 285.099 -2.9998 -3.90221 0
M  V30 3083 N 286.751 1.08385 -1.14413 0
M  V30 3084 C 287.661 2.18856 -0.844951 0
M  V30 3085 C 288.677 1.73121 0.174668 0
M  V30 3086 O 289.853 2.014 0.00312857 0
M  V30 3087 C 286.918 3.45155 -0.32696 0
M  V30 3088 C 285.979 4.05513 -1.40916 0
M  V30 3089 C 285.212 5.25784 -0.915793 0
M  V30 3090 O 285.435 5.69884 0.242651 0
M  V30 3091 O 284.369 5.77545 -1.69487 0
M  V30 3092 H 288.195 2.46919 -1.76818 0
M  V30 3093 H 285.78 1.17524 -0.922411 0
M  V30 3094 H 287.662 4.21377 -0.0440211 0
M  V30 3095 H 286.337 3.18668 0.568539 0
M  V30 3096 H 285.244 3.30879 -1.74556 0
M  V30 3097 H 286.577 4.3625 -2.27919 0
M  V30 3098 N 288.23 0.939286 1.26551 0
M  V30 3099 C 289.193 0.451987 2.24699 0
M  V30 3100 C 290.193 -0.435869 1.5478 0
M  V30 3101 O 291.383 -0.235314 1.72603 0
M  V30 3102 C 288.515 -0.348801 3.39111 0
M  V30 3103 H 289.708 1.3193 2.69322 0
M  V30 3104 H 287.261 0.721072 1.38673 0
M  V30 3105 H 287.996 -1.23444 2.99887 0
M  V30 3106 H 287.781 0.287945 3.91041 0
M  V30 3107 H 289.271 -0.679726 4.12031 0
M  V30 3108 N 289.708 -1.40897 0.706093 0
M  V30 3109 C 290.671 -2.29131 0.0562841 0
M  V30 3110 C 291.671 -1.44901 -0.697166 0
M  V30 3111 O 292.861 -1.65926 -0.530484 0
M  V30 3112 C 289.993 -3.27957 -0.93043 0
M  V30 3113 H 291.186 -2.88091 0.833284 0
M  V30 3114 H 288.739 -1.4906 0.470192 0
M  V30 3115 H 289.474 -2.73997 -1.73482 0
M  V30 3116 H 289.259 -3.90124 -0.393166 0
M  V30 3117 H 290.749 -3.94049 -1.38256 0
M  V30 3118 N 291.186 -0.45159 -1.50991 0
M  V30 3119 C 292.133 0.352625 -2.2809 0
M  V30 3120 C 293.103 1.0044 -1.32291 0
M  V30 3121 O 294.288 1.02058 -1.6121 0
M  V30 3122 C 291.428 1.43983 -3.13629 0
M  V30 3123 C 290.541 0.804772 -4.24438 0
M  V30 3124 C 289.676 1.86822 -4.97263 0
M  V30 3125 C 288.715 1.21236 -5.99973 0
M  V30 3126 N 287.852 2.2178 -6.66152 0
M  V30 3127 H 292.692 -0.311186 -2.96371 0
M  V30 3128 H 290.229 -0.165308 -1.46168 0
M  V30 3129 H 292.187 2.08161 -3.61559 0
M  V30 3130 H 290.817 2.07307 -2.47434 0
M  V30 3131 H 289.869 0.0509129 -3.80366 0
M  V30 3132 H 291.181 0.286076 -4.97979 0
M  V30 3133 H 290.335 2.58628 -5.48813 0
M  V30 3134 H 289.074 2.42068 -4.23385 0
M  V30 3135 H 288.079 0.479828 -5.47702 0
M  V30 3136 H 289.304 0.667051 -6.75816 0
M  V30 3137 H 287.25 2.76079 -5.95077 0
M  V30 3138 H 287.167 1.74841 -7.35504 0
M  V30 3139 H 288.435 2.93026 -7.22327 0
M  V30 3140 N 292.664 1.56529 -0.183458 0
M  V30 3141 C 293.91 1.98304 0.452466 0
M  V30 3142 C 294.265 1.06799 1.60037 0
M  V30 3143 O 293.558 0.110049 1.91284 0
M  V30 3144 C 293.752 3.43939 0.971637 0
M  V30 3145 C 293.581 4.49528 -0.124425 0
M  V30 3146 C 292.351 5.01981 -0.578168 0
M  V30 3147 C 294.549 5.05836 -0.929207 0
M  V30 3148 N 292.531 5.91219 -1.65327 0
M  V30 3149 C 293.902 5.91632 -1.85396 0
M  V30 3150 C 295.957 4.88302 -0.972929 0
M  V30 3151 C 294.66 6.61768 -2.81878 0
M  V30 3152 C 296.686 5.59168 -1.92574 0
M  V30 3153 C 296.048 6.44701 -2.83795 0
M  V30 3154 H 292.147 0.770551 0.133324 0
M  V30 3155 H 294.731 1.92581 -0.286473 0
M  V30 3156 H 292.902 3.50184 1.68006 0
M  V30 3157 H 294.634 3.72702 1.5772 0
M  V30 3158 H 291.389 4.73282 -0.173639 0
M  V30 3159 H 291.813 6.40543 -2.19167 0
M  V30 3160 H 296.455 4.21861 -0.28168 0
M  V30 3161 H 294.173 7.27415 -3.51984 0
M  V30 3162 H 297.759 5.47582 -1.96583 0
M  V30 3163 H 296.639 6.98573 -3.56322 0
M  V30 3164 N 294.142 -0.090211 1.57342 0
M  V30 3165 C 295.367 -0.810082 1.90925 0
M  V30 3166 C 295.792 -1.71248 0.778187 0
M  V30 3167 O 295.15 -1.79278 -0.269991 0
M  V30 3168 C 295.198 -1.59529 3.23393 0
M  V30 3169 O 294.302 -2.70461 3.11327 0
M  V30 3170 H 293.643 -0.222231 0.625707 0
M  V30 3171 H 296.173 -0.0639716 2.045 0
M  V30 3172 H 296.183 -1.97847 3.5682 0
M  V30 3173 H 294.858 -0.933055 4.05299 0
M  V30 3174 H 293.435 -2.35135 2.89423 0
M  V30 3175 N 295.62 -1.53406 -0.361157 0
M  V30 3176 C 296.552 -1.76446 -1.46286 0
M  V30 3177 C 297.565 -0.645322 -1.49464 0
M  V30 3178 O 298.754 -0.921681 -1.52864 0
M  V30 3179 C 295.854 -1.83332 -2.85031 0
M  V30 3180 C 295.027 -3.13033 -3.05498 0
M  V30 3181 C 294.086 -3.11104 -4.24383 0
M  V30 3182 O 293.112 -3.84888 -4.19344 0
M  V30 3183 N 294.314 -2.32234 -5.32022 0
M  V30 3184 H 297.079 -2.71508 -1.26899 0
M  V30 3185 H 294.64 -1.52238 -0.550915 0
M  V30 3186 H 296.632 -1.79514 -3.62708 0
M  V30 3187 H 295.202 -0.955342 -2.97644 0
M  V30 3188 H 294.422 -3.30119 -2.15442 0
M  V30 3189 H 295.71 -3.9874 -3.16044 0
M  V30 3190 H 295.108 -1.71807 -5.38979 0
M  V30 3191 H 293.665 -2.3423 -6.08259 0
M  V30 3192 N 297.098 0.621204 -1.44841 0
M  V30 3193 C 298.344 1.3826 -1.48365 0
M  V30 3194 C 298.677 1.93831 -0.119624 0
M  V30 3195 O 297.952 1.74251 0.864111 0
M  V30 3196 C 298.235 2.54058 -2.55199 0
M  V30 3197 C 298.088 2.03772 -4.00995 0
M  V30 3198 C 299.407 3.56225 -2.58442 0
M  V30 3199 H 296.526 0.501374 -0.540179 0
M  V30 3200 H 299.168 0.7015 -1.76576 0
M  V30 3201 H 297.318 3.12162 -2.31274 0
M  V30 3202 H 298.99 1.50423 -4.36086 0
M  V30 3203 H 297.233 1.34876 -4.12299 0
M  V30 3204 H 297.904 2.87185 -4.71411 0
M  V30 3205 H 300.38 3.07939 -2.79844 0
M  V30 3206 H 299.256 4.34756 -3.3508 0
M  V30 3207 H 299.517 4.10949 -1.63013 0
M  V30 3208 N 298.576 1.31904 0.862503 0
M  V30 3209 C 299.992 1.10724 1.14945 0
M  V30 3210 C 300.192 -0.117421 2.01158 0
M  V30 3211 O 299.248 -0.804595 2.39338 0
M  V30 3212 C 300.561 2.38267 1.83437 0
M  V30 3213 C 302.109 2.43949 1.96106 0
M  V30 3214 C 302.584 3.71394 2.68013 0
M  V30 3215 N 304.075 3.72331 2.75543 0
M  V30 3216 C 304.81 4.67641 3.31812 0
M  V30 3217 N 304.306 5.73313 3.88953 0
M  V30 3218 N 306.099 4.5515 3.29841 0
M  V30 3219 H 298.25 2.10436 0.288191 0
M  V30 3220 H 300.513 0.928705 0.190292 0
M  V30 3221 H 300.219 3.27759 1.27542 0
M  V30 3222 H 300.093 2.48633 2.83657 0
M  V30 3223 H 302.48 1.54922 2.51164 0
M  V30 3224 H 302.561 2.37543 0.949059 0
M  V30 3225 H 302.205 4.60791 2.13621 0
M  V30 3226 H 302.135 3.75069 3.69636 0
M  V30 3227 H 304.626 2.95947 2.34997 0
M  V30 3228 H 304.939 6.42107 4.30022 0
M  V30 3229 H 303.284 5.77077 3.87308 0
M  V30 3230 H 306.475 3.71766 2.84443 0
M  V30 3231 H 306.648 5.29604 3.73394 0
M  V30 3232 N 300.054 -1.07777 1.14986 0
M  V30 3233 C 301.001 -2.14867 0.842672 0
M  V30 3234 C 301.971 -1.6486 -0.202552 0
M  V30 3235 O 303.156 -1.90668 -0.0710568 0
M  V30 3236 C 300.296 -3.43486 0.333363 0
M  V30 3237 C 299.409 -4.07306 1.43965 0
M  V30 3238 C 298.544 -5.23744 0.886914 0
M  V30 3239 C 297.583 -5.79517 1.97043 0
M  V30 3240 N 296.72 -6.87291 1.4344 0
M  V30 3241 H 301.56 -2.40485 1.75986 0
M  V30 3242 H 299.097 -1.1801 0.878179 0
M  V30 3243 H 301.055 -4.17195 0.0198163 0
M  V30 3244 H 299.685 -3.18133 -0.546916 0
M  V30 3245 H 298.737 -3.31293 1.86946 0
M  V30 3246 H 300.049 -4.44771 2.25788 0
M  V30 3247 H 299.203 -6.04419 0.525651 0
M  V30 3248 H 297.942 -4.87685 0.0377957 0
M  V30 3249 H 296.947 -4.97491 2.34057 0
M  V30 3250 H 298.172 -6.17632 2.82325 0
M  V30 3251 H 296.118 -6.5318 0.607567 0
M  V30 3252 H 296.035 -7.23617 2.18895 0
M  V30 3253 H 297.303 -7.71682 1.10124 0
M  V30 3254 N 301.532 -0.945985 -1.26051 0
M  V30 3255 C 302.809 -0.513816 -1.88731 0
M  V30 3256 C 303.189 1.00872 -1.8544 0
M  V30 3257 O 302.537 1.8708 -1.312 0
M  V30 3258 C 302.747 -1.08062 -3.31849 0
M  V30 3259 C 304.095 -1.1522 -4.08668 0
M  V30 3260 O 305.119 -1.03155 -3.40936 0
M  V30 3261 O 303.978 -1.34044 -5.29806 0
M  V30 3262 H 301.072 -0.168193 -0.809716 0
M  V30 3263 H 303.618 -1.03886 -1.34186 0
M  V30 3264 H 302.39 -2.1241 -3.2863 0
M  V30 3265 H 302.013 -0.538307 -3.93939 0
M  V30 3266 N 303.011 1.40521 -0.713556 0
M  V30 3267 C 303.941 2.33381 -0.0743864 0
M  V30 3268 C 304.922 1.52784 0.747735 0
M  V30 3269 O 306.107 1.81258 0.697071 0
M  V30 3270 C 303.237 3.36748 0.849598 0
M  V30 3271 C 302.191 4.27793 0.133247 0
M  V30 3272 C 301.517 5.21679 1.17281 0
M  V30 3273 C 302.817 5.12415 -1.01134 0
M  V30 3274 H 304.511 2.87081 -0.850007 0
M  V30 3275 H 302.057 1.38034 -0.410201 0
M  V30 3276 H 304.01 4.00648 1.30612 0
M  V30 3277 H 302.734 2.81439 1.65709 0
M  V30 3278 H 301.393 3.65342 -0.303426 0
M  V30 3279 H 301.041 4.62677 1.9733 0
M  V30 3280 H 300.741 5.83435 0.698397 0
M  V30 3281 H 302.265 5.88456 1.62947 0
M  V30 3282 H 303.679 5.69781 -0.634274 0
M  V30 3283 H 302.076 5.83203 -1.41399 0
M  V30 3284 H 303.146 4.48514 -1.84292 0
M  V30 3285 N 304.489 0.459591 1.5075 0
M  V30 3286 C 305.729 -0.09824 2.04164 0
M  V30 3287 C 306.093 -1.3801 1.33481 0
M  V30 3288 O 307.294 -2.01959 1.77387 0
M  V30 3289 C 305.565 -0.289467 3.56226 0
M  V30 3290 S 307.124 -0.807507 4.31306 0
M  V30 3291 H 303.942 -0.0213845 0.710678 0
M  V30 3292 H 306.544 0.624098 1.85271 0
M  V30 3293 H 305.248 0.649461 4.05229 0
M  V30 3294 H 304.779 -1.03825 3.79452 0
M  V30 3295 H 306.794 -2.0824 4.50389 0
M  V30 3296 N 305.967 -1.56429 0.191757 0
M  V30 3297 C 307.192 -2.02309 -0.456706 0
M  V30 3298 C 307.617 -1.07103 -1.5463 0
M  V30 3299 O 306.975 -0.0539677 -1.8122 0
M  V30 3300 C 307.023 -3.46654 -0.993159 0
M  V30 3301 O 306.127 -3.54559 -2.10622 0
M  V30 3302 H 305.468 -0.655303 -0.107114 0
M  V30 3303 H 307.998 -2.02364 0.301653 0
M  V30 3304 H 308.008 -3.86377 -1.31061 0
M  V30 3305 H 306.683 -4.1544 -0.195504 0
M  V30 3306 H 305.26 -3.26708 -1.79767 0
M  V30 3307 N 307.445 0.0818655 -1.57387 0
M  V30 3308 C 308.375 1.09885 -2.06028 0
M  V30 3309 C 309.356 1.4098 -0.951774 0
M  V30 3310 O 310.541 1.50781 -1.22387 0
M  V30 3311 C 307.671 2.4151 -2.4958 0
M  V30 3312 C 306.625 2.24792 -3.64215 0
M  V30 3313 C 305.951 3.61712 -3.93787 0
M  V30 3314 C 307.251 1.67749 -4.94629 0
M  V30 3315 H 308.945 0.694128 -2.91243 0
M  V30 3316 H 306.491 0.332448 -1.4011 0
M  V30 3317 H 308.444 3.12939 -2.82219 0
M  V30 3318 H 307.168 2.83943 -1.61381 0
M  V30 3319 H 305.827 1.55807 -3.31843 0
M  V30 3320 H 305.475 4.01697 -3.02735 0
M  V30 3321 H 305.175 3.51368 -4.70971 0
M  V30 3322 H 306.699 4.34587 -4.28913 0
M  V30 3323 H 308.113 2.29032 -5.25564 0
M  V30 3324 H 306.51 1.68128 -5.76067 0
M  V30 3325 H 307.58 0.638059 -4.80684 0
M  V30 3326 N 308.923 1.53595 0.353017 0
M  V30 3327 C 309.87 1.80919 1.43308 0
M  V30 3328 C 310.84 0.654288 1.5267 0
M  V30 3329 O 312.025 0.897759 1.6836 0
M  V30 3330 C 309.165 2.01605 2.80089 0
M  V30 3331 C 308.278 3.29321 2.79593 0
M  V30 3332 C 307.413 3.40125 4.0803 0
M  V30 3333 C 306.452 4.61826 4.01725 0
M  V30 3334 N 305.589 4.69716 5.21834 0
M  V30 3335 H 310.429 2.73074 1.19308 0
M  V30 3336 H 307.966 1.35263 0.578131 0
M  V30 3337 H 309.924 2.11586 3.59565 0
M  V30 3338 H 308.554 1.12772 3.0246 0
M  V30 3339 H 307.606 3.28229 1.92276 0
M  V30 3340 H 308.918 4.18884 2.70809 0
M  V30 3341 H 308.072 3.49488 4.95927 0
M  V30 3342 H 306.811 2.48601 4.19582 0
M  V30 3343 H 305.816 4.52552 3.12213 0
M  V30 3344 H 307.041 5.54705 3.91764 0
M  V30 3345 H 304.987 3.81097 5.33948 0
M  V30 3346 H 304.904 5.53202 5.1527 0
M  V30 3347 H 306.172 4.83376 6.11529 0
M  V30 3348 N 310.401 -0.613514 1.45168 0
M  V30 3349 C 311.647 -1.37471 1.49096 0
M  V30 3350 C 311.98 -1.93765 0.129901 0
M  V30 3351 O 311.255 -1.74707 -0.854858 0
M  V30 3352 C 311.538 -2.52701 2.56542 0
M  V30 3353 C 311.391 -2.01643 4.0207 0
M  V30 3354 C 312.71 -3.54849 2.60327 0
M  V30 3355 H 309.829 -0.498502 0.54283 0
M  V30 3356 H 312.471 -0.692125 1.76945 0
M  V30 3357 H 310.621 -3.10931 2.32926 0
M  V30 3358 H 312.293 -1.48108 4.36877 0
M  V30 3359 H 310.536 -1.32688 4.13009 0
M  V30 3360 H 311.207 -2.84681 4.72928 0
M  V30 3361 H 313.683 -3.0645 2.81474 0
M  V30 3362 H 312.559 -4.32973 3.37381 0
M  V30 3363 H 312.82 -4.10079 1.6519 0
M  V30 3364 N 311.879 -1.3236 -0.855495 0
M  V30 3365 C 313.104 -1.2601 -1.64731 0
M  V30 3366 C 313.529 0.169068 -1.87339 0
M  V30 3367 O 312.887 1.12016 -1.42556 0
M  V30 3368 C 312.935 -2.02417 -2.98429 0
M  V30 3369 O 312.039 -1.3714 -3.8893 0
M  V30 3370 H 311.38 -0.434325 -0.502253 0
M  V30 3371 H 313.91 -1.74661 -1.06558 0
M  V30 3372 H 313.92 -2.12559 -3.48257 0
M  V30 3373 H 312.595 -3.06343 -2.81295 0
M  V30 3374 H 311.172 -1.3554 -3.47395 0
M  V30 3375 N 313.357 1.07166 -1.15556 0
M  V30 3376 C 314.287 2.16403 -0.877046 0
M  V30 3377 C 315.268 1.69217 0.173111 0
M  V30 3378 O 316.453 1.94181 0.027084 0
M  V30 3379 C 313.583 3.45349 -0.367632 0
M  V30 3380 C 312.537 4.05995 -1.35468 0
M  V30 3381 C 311.863 5.30045 -0.704038 0
M  V30 3382 C 313.163 4.45804 -2.72132 0
M  V30 3383 H 314.857 2.39959 -1.79053 0
M  V30 3384 H 312.403 1.15325 -0.862331 0
M  V30 3385 H 314.356 4.21095 -0.160317 0
M  V30 3386 H 313.08 3.21385 0.581326 0
M  V30 3387 H 311.739 3.32296 -1.54839 0
M  V30 3388 H 311.387 5.02373 0.251128 0
M  V30 3389 H 311.087 5.71579 -1.36277 0
M  V30 3390 H 312.611 6.08495 -0.50654 0
M  V30 3391 H 314.025 5.12671 -2.56595 0
M  V30 3392 H 312.422 4.98296 -3.34397 0
M  V30 3393 H 313.492 3.57083 -3.28054 0
M  V30 3394 N 314.835 0.952656 1.25548 0
M  V30 3395 C 315.767 0.428609 2.25157 0
M  V30 3396 C 316.78 -0.454428 1.56329 0
M  V30 3397 O 317.969 -0.263023 1.76552 0
M  V30 3398 C 315.069 -0.401972 3.36508 0
M  V30 3399 C 314.242 0.467601 4.34893 0
M  V30 3400 C 313.301 -0.30445 5.25319 0
M  V30 3401 O 312.327 0.296473 5.68427 0
M  V30 3402 N 313.529 -1.59805 5.5807 0
M  V30 3403 H 316.294 1.28497 2.70756 0
M  V30 3404 H 313.855 0.822798 1.39433 0
M  V30 3405 H 315.847 -0.926134 3.9396 0
M  V30 3406 H 314.417 -1.15918 2.90313 0
M  V30 3407 H 313.637 1.17288 3.76347 0
M  V30 3408 H 314.925 1.06119 4.97611 0
M  V30 3409 H 314.323 -2.10823 5.24948 0
M  V30 3410 H 312.88 -2.06822 6.18116 0
M  V30 3411 N 316.313 -1.40141 0.720998 0
M  V30 3412 C 317.243 -2.33339 0.0867621 0
M  V30 3413 C 318.224 -1.53178 -0.739622 0
M  V30 3414 O 319.409 -1.81625 -0.687449 0
M  V30 3415 C 316.539 -3.37194 -0.831728 0
M  V30 3416 C 315.493 -4.27857 -0.110558 0
M  V30 3417 C 314.819 -5.22294 -1.14513 0
M  V30 3418 C 316.119 -5.11872 1.0385 0
M  V30 3419 H 317.813 -2.86626 0.865219 0
M  V30 3420 H 315.359 -1.37814 0.417516 0
M  V30 3421 H 317.312 -4.01335 -1.28485 0
M  V30 3422 H 316.036 -2.82314 -1.64214 0
M  V30 3423 H 314.695 -3.65176 0.322797 0
M  V30 3424 H 314.343 -4.63717 -1.94874 0
M  V30 3425 H 314.043 -5.83797 -0.667446 0
M  V30 3426 H 315.567 -5.89312 -1.59824 0
M  V30 3427 H 316.981 -5.69436 0.664482 0
M  V30 3428 H 315.378 -5.82445 1.4449 0
M  V30 3429 H 316.448 -4.4753 1.86668 0
M  V30 3430 N 317.792 -0.46758 -1.50504 0
M  V30 3431 C 319.208 -0.121533 -1.59137 0
M  V30 3432 C 319.408 1.3717 -1.47603 0
M  V30 3433 O 318.464 2.14464 -1.33272 0
M  V30 3434 C 319.777 -0.6686 -2.93173 0
M  V30 3435 C 321.325 -0.631716 -3.06559 0
M  V30 3436 C 321.8 -1.15627 -4.43164 0
M  V30 3437 N 323.291 -1.11553 -4.49567 0
M  V30 3438 C 324.026 -1.49195 -5.5365 0
M  V30 3439 N 323.522 -1.94269 -6.65005 0
M  V30 3440 N 325.315 -1.4082 -5.44175 0
M  V30 3441 H 317.466 -1.4388 -1.56245 0
M  V30 3442 H 319.729 -0.594784 -0.738198 0
M  V30 3443 H 319.435 -1.71453 -3.07078 0
M  V30 3444 H 319.309 -0.11021 -3.77039 0
M  V30 3445 H 321.696 0.405297 -2.92304 0
M  V30 3446 H 321.777 -1.22687 -2.24458 0
M  V30 3447 H 321.421 -2.1919 -4.58168 0
M  V30 3448 H 321.351 -0.537365 -5.23851 0
M  V30 3449 H 323.842 -0.784895 -3.69659 0
M  V30 3450 H 324.155 -2.21148 -7.40482 0
M  V30 3451 H 322.5 -1.98219 -6.66134 0
M  V30 3452 H 325.691 -1.0545 -4.56068 0
M  V30 3453 H 325.864 -1.70481 -6.25172 0
M  V30 3454 N 319.27 1.56325 -0.20005 0
M  V30 3455 C 320.518 1.97329 0.436547 0
M  V30 3456 C 320.839 1.08826 1.61808 0
M  V30 3457 O 320.109 0.160604 1.95241 0
M  V30 3458 H 318.689 0.728714 0.164272 0
M  V30 3459 H 321.351 1.92761 -0.287937 0
M  V30 3460 H 320.447 3.02264 0.777353 0
M  V30 3461 N 320.748 -0.0735177 1.57428 0
M  V30 3462 C 321.658 -1.10547 2.06922 0
M  V30 3463 C 322.674 -1.42506 0.998402 0
M  V30 3464 O 323.85 -1.52717 1.31299 0
M  V30 3465 C 320.915 -2.40019 2.50184 0
M  V30 3466 C 319.976 -2.15046 3.71556 0
M  V30 3467 C 319.209 -3.38345 4.12745 0
M  V30 3468 O 319.432 -4.47399 3.53822 0
M  V30 3469 O 318.366 -3.2666 5.05546 0
M  V30 3470 H 322.192 -0.715013 2.95163 0
M  V30 3471 H 319.777 -0.287531 1.46607 0
M  V30 3472 H 321.659 -3.16218 2.78539 0
M  V30 3473 H 320.334 -2.78447 1.65072 0
M  V30 3474 H 319.241 -1.36558 3.48285 0
M  V30 3475 H 320.574 -1.81499 4.57514 0
M  V30 3476 N 322.226 -1.5378 -0.344866 0
M  V30 3477 C 323.503 -1.61589 -1.10219 0
M  V30 3478 C 323.883 -0.436316 -2.06542 0
M  V30 3479 O 323.231 0.571543 -2.21237 0
M  V30 3480 C 323.441 -2.97602 -1.82301 0
M  V30 3481 C 324.789 -3.5291 -2.36093 0
M  V30 3482 O 325.813 -2.99768 -1.924 0
M  V30 3483 O 324.672 -4.45859 -3.16026 0
M  V30 3484 H 321.766 -0.653522 -0.506792 0
M  V30 3485 H 324.312 -1.66126 -0.346465 0
M  V30 3486 H 323.084 -3.74893 -1.12121 0
M  V30 3487 H 322.707 -2.9665 -2.64735 0
M  V30 3488 N 323.704 0.605807 -1.45491 0
M  V30 3489 C 324.952 1.36207 -1.49305 0
M  V30 3490 C 325.273 1.94519 -0.136863 0
M  V30 3491 O 324.543 1.77261 0.833983 0
M  V30 3492 H 323.123 0.50565 -0.549843 0
M  V30 3493 H 325.785 0.711239 -1.81459 0
M  V30 3494 H 324.881 2.18058 -2.23287 0
M  V30 3495 N 325.182 1.32811 0.848464 0
M  V30 3496 C 326.407 1.26882 1.6406 0
M  V30 3497 C 326.832 -0.15913 1.87426 0
M  V30 3498 O 326.19 -1.11258 1.43148 0
M  V30 3499 C 326.238 2.03997 2.97351 0
M  V30 3500 O 325.342 1.39201 3.88197 0
M  V30 3501 H 324.683 0.436982 0.499943 0
M  V30 3502 H 327.213 1.75224 1.0563 0
M  V30 3503 H 327.223 2.14403 3.47124 0
M  V30 3504 H 325.898 3.0783 2.79666 0
M  V30 3505 H 324.475 1.37381 3.46671 0
M  V30 3506 N 326.66 -1.06551 1.16123 0
M  V30 3507 C 327.906 -1.79567 0.94252 0
M  V30 3508 C 328.239 -1.86869 -0.528547 0
M  V30 3509 O 327.514 -1.35838 -1.39206 0
M  V30 3510 C 327.797 -3.24195 1.56747 0
M  V30 3511 C 327.65 -3.24989 3.10969 0
M  V30 3512 C 328.969 -4.21678 1.25998 0
M  V30 3513 H 326.088 -0.651883 0.343828 0
M  V30 3514 H 328.73 -1.2463 1.43413 0
M  V30 3515 H 326.88 -3.71107 1.14942 0
M  V30 3516 H 328.552 -2.86258 3.61737 0
M  V30 3517 H 326.795 -2.63716 3.44436 0
M  V30 3518 H 327.466 -4.27005 3.49815 0
M  V30 3519 H 329.942 -3.83196 1.62174 0
M  V30 3520 H 328.818 -5.21146 1.7233 0
M  V30 3521 H 329.079 -4.4174 0.178367 0
M  V30 3522 N 328.138 -0.959301 -1.25041 0
M  V30 3523 C 329.384 -0.627096 -1.93492 0
M  V30 3524 C 329.739 0.827484 -1.73696 0
M  V30 3525 O 329.032 1.58651 -1.07427 0
M  V30 3526 C 329.226 -0.927136 -3.45165 0
M  V30 3527 C 329.055 -2.40933 -3.79712 0
M  V30 3528 C 327.825 -3.0677 -4.01522 0
M  V30 3529 C 330.023 -3.38894 -3.86853 0
M  V30 3530 N 328.005 -4.44815 -4.231 0
M  V30 3531 C 329.376 -4.62263 -4.13174 0
M  V30 3532 C 331.431 -3.33668 -3.69554 0
M  V30 3533 C 330.134 -5.81052 -4.23995 0
M  V30 3534 C 332.16 -4.518 -3.81616 0
M  V30 3535 C 331.522 -5.73957 -4.08354 0
M  V30 3536 H 327.621 -0.280166 -0.73009 0
M  V30 3537 H 330.205 -1.23244 -1.50729 0
M  V30 3538 H 328.376 -0.350685 -3.86814 0
M  V30 3539 H 330.108 -0.554361 -4.00885 0
M  V30 3540 H 326.863 -2.57327 -3.97593 0
M  V30 3541 H 327.287 -5.16319 -4.37885 0
M  V30 3542 H 331.929 -2.40268 -3.47895 0
M  V30 3543 H 329.647 -6.74888 -4.44468 0
M  V30 3544 H 333.233 -4.49309 -3.69612 0
M  V30 3545 H 332.113 -6.6384 -4.17475 0
M  V30 3546 N 329.616 1.39756 -0.72842 0
M  V30 3547 C 330.564 2.32485 -0.0731849 0
M  V30 3548 C 331.558 1.52717 0.733063 0
M  V30 3549 O 332.764 1.68428 0.634988 0
M  V30 3550 H 329.139 0.751984 -0.00486469 0
M  V30 3551 H 331.11 2.85382 -0.871761 0
M  V30 3552 C 329.859 3.37773 0.824908 0
M  V30 3553 H 329.182 3.99227 0.213915 0
M  V30 3554 H 330.622 4.05121 1.25111 0
M  V30 3555 C 329.081 2.74287 1.95622 0
M  V30 3556 O 329.611 2.61618 3.04826 0
M  V30 3557 N 327.817 2.32475 1.74367 0
M  V30 3558 H 327.364 2.4298 0.855494 0
M  V30 3559 H 327.322 1.90337 2.50238 0
M  V30 3560 N 331.094 0.475555 1.50254 0
M  V30 3561 C 332.324 -0.0753399 2.06463 0
M  V30 3562 C 332.732 -1.33661 1.33908 0
M  V30 3563 O 332.075 -1.79219 0.403257 0
M  V30 3564 C 332.137 -0.424921 3.5698 0
M  V30 3565 C 331.801 0.734965 4.51051 0
M  V30 3566 C 332.798 1.61827 4.94073 0
M  V30 3567 C 330.483 0.926557 4.9368 0
M  V30 3568 C 332.477 2.67754 5.78434 0
M  V30 3569 C 330.164 1.98904 5.77824 0
M  V30 3570 C 331.162 2.8629 6.20103 0
M  V30 3571 O 330.85 3.90708 7.02568 0
M  V30 3572 H 330.582 0.00576308 0.675975 0
M  V30 3573 H 333.136 0.664662 1.94349 0
M  V30 3574 H 331.366 -1.21817 3.67012 0
M  V30 3575 H 333.055 -0.911422 3.95535 0
M  V30 3576 H 333.821 1.48196 4.61804 0
M  V30 3577 H 329.7 0.25584 4.6029 0
M  V30 3578 H 333.244 3.35992 6.11355 0
M  V30 3579 H 329.141 2.12541 6.09505 0
M  V30 3580 H 329.909 3.87751 7.20827 0
M  V30 3581 N 332.573 -1.56217 0.208337 0
M  V30 3582 C 333.52 -2.19699 -0.707192 0
M  V30 3583 C 334.49 -1.14836 -1.20008 0
M  V30 3584 O 335.675 -1.4314 -1.26157 0
M  V30 3585 C 332.815 -2.87061 -1.91546 0
M  V30 3586 C 331.928 -4.06483 -1.46271 0
M  V30 3587 C 331.063 -4.61665 -2.62752 0
M  V30 3588 C 330.102 -5.73417 -2.14147 0
M  V30 3589 N 329.239 -6.22948 -3.23853 0
M  V30 3590 H 334.079 -2.97575 -0.159111 0
M  V30 3591 H 331.616 -1.46948 -0.0667874 0
M  V30 3592 H 333.574 -3.24294 -2.62468 0
M  V30 3593 H 332.204 -2.11725 -2.43664 0
M  V30 3594 H 331.256 -3.74825 -0.648886 0
M  V30 3595 H 332.568 -4.87271 -1.06622 0
M  V30 3596 H 331.722 -5.01272 -3.41776 0
M  V30 3597 H 330.461 -3.80013 -3.05682 0
M  V30 3598 H 329.466 -5.33326 -1.33581 0
M  V30 3599 H 330.691 -6.56897 -1.72232 0
M  V30 3600 H 328.637 -5.44213 -3.6629 0
M  V30 3601 H 328.554 -6.98823 -2.88414 0
M  V30 3602 H 329.822 -6.6721 -4.03052 0
M  V30 3603 N 334.051 0.0651679 -1.57465 0
M  V30 3604 C 335.462 0.616213 -1.76238 0
M  V30 3605 C 335.813 1.7756 -0.834689 0
M  V30 3606 O 334.938 2.1639 -0.0204156 0
M  V30 3607 C 335.533 1.12462 -3.1959 0
M  V30 3608 C 334.092 1.62147 -3.39684 0
M  V30 3609 C 333.239 0.543739 -2.71917 0
M  V30 3610 H 336.19 -0.161022 -1.57881 0
M  V30 3611 H 336.211 1.99324 -3.24114 0
M  V30 3612 H 335.723 0.280592 -3.87084 0
M  V30 3613 H 333.824 2.48854 -2.77313 0
M  V30 3614 H 333.937 1.69385 -4.48158 0
M  V30 3615 H 332.301 0.990352 -2.34657 0
M  V30 3616 H 333.084 -0.290216 -3.42071 0
M  V30 3617 N 335.529 1.53961 0.336706 0
M  V30 3618 C 336.94 1.62914 0.911925 0
M  V30 3619 C 337.291 0.514795 1.89326 0
M  V30 3620 O 336.416 -0.354395 2.13478 0
M  V30 3621 C 337.011 2.95304 1.66076 0
M  V30 3622 C 335.57 3.06496 2.18489 0
M  V30 3623 C 334.717 2.58403 1.00613 0
M  V30 3624 H 337.668 1.58285 0.114649 0
M  V30 3625 H 337.689 2.84727 2.5241 0
M  V30 3626 H 337.201 3.76387 0.946276 0
M  V30 3627 H 335.302 2.3006 2.93092 0
M  V30 3628 H 335.415 4.1208 2.44391 0
M  V30 3629 H 333.779 2.13977 1.38152 0
M  V30 3630 H 334.562 3.41932 0.306179 0
M  V30 3631 N 337.007 -0.598083 1.45811 0
M  V30 3632 C 337.97 -1.69018 1.54808 0
M  V30 3633 C 338.97 -1.55037 0.426652 0
M  V30 3634 O 340.16 -1.59932 0.690456 0
M  V30 3635 C 337.292 -3.0835 1.45371 0
M  V30 3636 H 338.485 -1.62403 2.52121 0
M  V30 3637 H 336.038 -0.814626 1.33392 0
M  V30 3638 H 336.773 -3.20534 0.492793 0
M  V30 3639 H 336.558 -3.19907 2.26721 0
M  V30 3640 H 338.048 -3.8788 1.54721 0
M  V30 3641 N 338.485 -1.33259 -0.841409 0
M  V30 3642 C 339.762 -1.15174 -1.58096 0
M  V30 3643 C 340.142 0.282858 -2.09196 0
M  V30 3644 O 339.49 1.28151 -1.89181 0
M  V30 3645 C 339.7 -2.1907 -2.71679 0
M  V30 3646 C 341.048 -2.53093 -3.40924 0
M  V30 3647 O 342.072 -2.17717 -2.81918 0
M  V30 3648 O 340.931 -3.1379 -4.47435 0
M  V30 3649 H 338.025 -0.445303 -0.696875 0
M  V30 3650 H 340.571 -1.44833 -0.884385 0
M  V30 3651 H 339.343 -3.15443 -2.31541 0
M  V30 3652 H 338.966 -1.90481 -3.49002 0
M  V30 3653 N 339.963 1.05934 -1.16686 0
M  V30 3654 C 341.188 1.83029 -0.975455 0
M  V30 3655 C 341.613 1.82096 0.471452 0
M  V30 3656 O 340.971 1.22443 1.33706 0
M  V30 3657 C 341.019 3.27372 -1.51195 0
M  V30 3658 O 340.123 4.06054 -0.720701 0
M  V30 3659 H 339.464 0.566194 -0.346872 0
M  V30 3660 H 341.994 1.33541 -1.55009 0
M  V30 3661 H 342.004 3.78186 -1.53099 0
M  V30 3662 H 340.679 3.27366 -2.56523 0
M  V30 3663 H 339.256 3.64812 -0.772458 0
M  V30 3664 N 341.441 0.965919 1.2453 0
M  V30 3665 C 342.689 0.625593 1.92174 0
M  V30 3666 C 343.01 -0.841652 1.75901 0
M  V30 3667 O 342.28 -1.60061 1.12948 0
M  V30 3668 H 340.86 0.228388 0.71123 0
M  V30 3669 H 343.522 1.2266 1.51461 0
M  V30 3670 H 342.618 0.864653 2.99884 0
M  V30 3671 N 342.919 -1.39368 0.735821 0
M  V30 3672 C 344.167 -2.00101 0.283562 0
M  V30 3673 C 344.488 -1.5868 -1.13338 0
M  V30 3674 O 343.758 -0.835423 -1.77193 0
M  V30 3675 H 342.338 -0.740024 0.101851 0
M  V30 3676 H 345 -1.70404 0.945962 0
M  V30 3677 H 344.096 -3.10323 0.332604 0
M  V30 3678 N 344.397 -0.483516 -1.5 0
M  V30 3679 C 345.344 0.304164 -2.28787 0
M  V30 3680 C 346.314 0.976114 -1.34392 0
M  V30 3681 O 347.499 0.986156 -1.63339 0
M  V30 3682 C 344.639 1.37298 -3.16612 0
M  V30 3683 C 343.752 0.714561 -4.26049 0
M  V30 3684 C 342.887 1.76232 -5.01114 0
M  V30 3685 C 341.926 1.08483 -6.0241 0
M  V30 3686 N 341.063 2.076 -6.70706 0
M  V30 3687 H 345.903 -0.373981 -2.95644 0
M  V30 3688 H 343.44 -0.196275 -1.45785 0
M  V30 3689 H 345.398 2.00445 -3.65893 0
M  V30 3690 H 344.028 2.02012 -2.51776 0
M  V30 3691 H 343.08 -0.0297798 -3.80388 0
M  V30 3692 H 344.392 0.180383 -4.98474 0
M  V30 3693 H 343.546 2.46929 -5.54176 0
M  V30 3694 H 342.285 2.33033 -4.28424 0
M  V30 3695 H 341.29 0.363545 -5.48597 0
M  V30 3696 H 342.515 0.523551 -6.77079 0
M  V30 3697 H 340.461 2.63394 -6.00799 0
M  V30 3698 H 340.378 1.59201 -7.39047 0
M  V30 3699 H 341.646 2.77639 -7.2838 0
M  V30 3700 N 345.875 1.56104 -0.216619 0
M  V30 3701 C 346.785 2.23694 0.706982 0
M  V30 3702 C 347.801 1.24295 1.21765 0
M  V30 3703 O 348.977 1.57094 1.2603 0
M  V30 3704 C 346.042 2.8998 1.90033 0
M  V30 3705 C 345.103 4.04708 1.43213 0
M  V30 3706 C 344.336 4.67824 2.56859 0
M  V30 3707 O 344.559 4.29913 3.74874 0
M  V30 3708 O 343.493 5.56905 2.28343 0
M  V30 3709 H 347.319 3.03272 0.161235 0
M  V30 3710 H 344.904 1.49394 0.0136177 0
M  V30 3711 H 346.786 3.31837 2.59735 0
M  V30 3712 H 345.461 2.13365 2.43428 0
M  V30 3713 H 344.368 3.6743 0.70327 0
M  V30 3714 H 345.701 4.83051 0.944615 0
M  V30 3715 N 347.353 -0.0568162 1.57498 0
M  V30 3716 C 348.602 -0.752001 1.87157 0
M  V30 3717 C 348.915 -1.77978 0.811375 0
M  V30 3718 O 350.121 -2.52559 0.996293 0
M  V30 3719 C 348.577 -1.38844 3.3204 0
M  V30 3720 C 348.185 -0.398456 4.46225 0
M  V30 3721 C 349.929 -2.06512 3.70882 0
M  V30 3722 C 347.836 -1.04166 5.82154 0
M  V30 3723 H 346.766 -0.28461 0.698222 0
M  V30 3724 H 349.417 -0.00561272 1.83499 0
M  V30 3725 H 347.799 -2.1836 3.30356 0
M  V30 3726 H 348.973 0.367977 4.59328 0
M  V30 3727 H 347.288 0.174592 4.16034 0
M  V30 3728 H 349.885 -2.55437 4.6974 0
M  V30 3729 H 350.228 -2.87117 3.01445 0
M  V30 3730 H 350.761 -1.33808 3.7462 0
M  V30 3731 H 347.5 -0.275614 6.5492 0
M  V30 3732 H 347.02 -1.7786 5.72823 0
M  V30 3733 H 348.699 -1.55715 6.27982 0
M  V30 3734 N 348.832 -1.54138 -0.328536 0
M  V30 3735 C 350.079 -1.72105 -1.06706 0
M  V30 3736 C 350.407 -0.492111 -1.88171 0
M  V30 3737 O 349.662 0.526153 -1.88494 0
M  V30 3738 C 349.961 -2.9457 -2.02393 0
M  V30 3739 C 349.627 -4.29544 -1.37122 0
M  V30 3740 C 348.289 -4.6624 -1.19052 0
M  V30 3741 C 350.641 -5.1333 -0.902331 0
M  V30 3742 C 347.969 -5.84325 -0.527331 0
M  V30 3743 C 350.321 -6.32094 -0.252988 0
M  V30 3744 C 348.985 -6.67473 -0.0600901 0
M  V30 3745 H 348.255 -0.629775 -0.390466 0
M  V30 3746 H 350.902 -1.88372 -0.34473 0
M  V30 3747 H 349.207 -2.72969 -2.81061 0
M  V30 3748 H 350.904 -3.05665 -2.59557 0
M  V30 3749 H 347.494 -4.0067 -1.52188 0
M  V30 3750 H 351.678 -4.855 -1.02974 0
M  V30 3751 H 346.934 -6.103 -0.366634 0
M  V30 3752 H 351.108 -6.96299 0.118366 0
M  V30 3753 H 348.735 -7.58832 0.455828 0
M  V30 3754 N 350.31 0.590341 -1.46126 0
M  V30 3755 C 351.535 1.37991 -1.54833 0
M  V30 3756 C 351.96 1.87163 -0.187506 0
M  V30 3757 O 351.318 1.61133 0.831008 0
M  V30 3758 C 351.366 2.54867 -2.55098 0
M  V30 3759 O 350.47 3.56061 -2.08073 0
M  V30 3760 H 349.811 0.411265 -0.521303 0
M  V30 3761 H 352.341 0.716819 -1.91632 0
M  V30 3762 H 352.351 3.01886 -2.74461 0
M  V30 3763 H 351.026 2.18429 -3.53923 0
M  V30 3764 H 349.603 3.15574 -1.98664 0
M  V30 3765 N 351.788 1.33704 0.83433 0
M  V30 3766 C 352.718 1.26967 1.95963 0
M  V30 3767 C 353.699 0.149337 1.69443 0
M  V30 3768 O 354.884 0.339852 1.91203 0
M  V30 3769 C 352.014 1.01275 3.32206 0
M  V30 3770 C 350.968 2.09652 3.73136 0
M  V30 3771 C 350.294 1.69166 5.07235 0
M  V30 3772 C 351.594 3.51372 3.86439 0
M  V30 3773 H 353.288 2.2112 2.01857 0
M  V30 3774 H 350.834 1.06447 0.969793 0
M  V30 3775 H 352.787 0.952106 4.10503 0
M  V30 3776 H 351.511 0.0356203 3.26581 0
M  V30 3777 H 350.17 2.14766 2.97104 0
M  V30 3778 H 349.818 0.701437 4.98085 0
M  V30 3779 H 349.518 2.41694 5.35591 0
M  V30 3780 H 351.042 1.64576 5.88003 0
M  V30 3781 H 352.456 3.48734 4.55036 0
M  V30 3782 H 350.853 4.22425 4.26236 0
M  V30 3783 H 351.923 3.89546 2.88759 0
M  V30 3784 N 353.266 -1.05314 1.17247 0
M  V30 3785 C 354.196 -2.1498 0.911362 0
M  V30 3786 C 355.177 -1.69471 -0.146169 0
M  V30 3787 O 356.362 -1.942 0.003812 0
M  V30 3788 C 353.492 -3.4472 0.422528 0
M  V30 3789 C 352.446 -4.03789 1.4191 0
M  V30 3790 C 351.772 -5.28858 0.788274 0
M  V30 3791 C 353.072 -4.41418 2.7919 0
M  V30 3792 H 354.766 -2.3708 1.82848 0
M  V30 3793 H 352.312 -1.13938 0.880569 0
M  V30 3794 H 354.265 -4.20787 0.227289 0
M  V30 3795 H 352.989 -3.22269 -0.530123 0
M  V30 3796 H 351.648 -3.2979 1.60106 0
M  V30 3797 H 351.296 -5.02709 -0.171173 0
M  V30 3798 H 350.996 -5.69338 1.45353 0
M  V30 3799 H 352.52 -6.07612 0.603282 0
M  V30 3800 H 353.934 -5.08524 2.64719 0
M  V30 3801 H 352.331 -4.92913 3.42282 0
M  V30 3802 H 353.401 -3.51819 3.33693 0
M  V30 3803 N 354.744 -0.972509 -1.24016 0
M  V30 3804 C 356.155 -0.67517 -1.74064 0
M  V30 3805 C 356.506 0.808939 -1.78747 0
M  V30 3806 O 355.631 1.63286 -1.42009 0
M  V30 3807 C 356.226 -1.21889 -3.16115 0
M  V30 3808 C 354.785 -0.971358 -3.6365 0
M  V30 3809 C 353.932 -1.35134 -2.42145 0
M  V30 3810 H 356.883 -1.14727 -1.09651 0
M  V30 3811 H 356.904 -0.587489 -3.75937 0
M  V30 3812 H 356.416 -2.29906 -3.12674 0
M  V30 3813 H 354.517 0.0930686 -3.72484 0
M  V30 3814 H 354.63 -1.62039 -4.50866 0
M  V30 3815 H 352.994 -0.769751 -2.4279 0
M  V30 3816 H 353.777 -2.4411 -2.41381 0
M  V30 3817 N 356.222 1.38976 -0.743202 0
M  V30 3818 C 357.172 2.27843 -0.084513 0
M  V30 3819 C 358.156 1.44677 0.704094 0
M  V30 3820 O 359.348 1.67511 0.571755 0
M  V30 3821 C 356.477 3.33466 0.815781 0
M  V30 3822 C 355.563 4.24095 0.0208844 0
M  V30 3823 N 355.954 4.95609 -1.0102 0
M  V30 3824 C 354.252 4.45303 0.249293 0
M  V30 3825 C 354.953 5.62287 -1.49024 0
M  V30 3826 N 353.929 5.37571 -0.807377 0
M  V30 3827 H 357.731 2.80593 -0.87436 0
M  V30 3828 H 355.245 1.51755 -0.578283 0
M  V30 3829 H 357.242 3.96008 1.30321 0
M  V30 3830 H 355.902 2.82276 1.6047 0
M  V30 3831 H 356.913 4.98849 -1.39176 0
M  V30 3832 H 353.59 4.0504 1.01237 0
M  V30 3833 H 354.98 6.29519 -2.34853 0
M  V30 3834 N 357.7 0.491464 1.49741 0
M  V30 3835 C 358.633 -0.338464 2.25676 0
M  V30 3836 C 359.611 -0.978676 1.29849 0
M  V30 3837 O 360.795 -1.01064 1.59117 0
M  V30 3838 C 357.922 -1.47588 3.04853 0
M  V30 3839 C 356.968 -0.951 4.15762 0
M  V30 3840 S 357.801 0.150626 5.35288 0
M  V30 3841 C 358.957 -0.990178 6.18018 0
M  V30 3842 H 359.19 0.306068 2.9572 0
M  V30 3843 H 356.723 0.276622 1.51902 0
M  V30 3844 H 358.681 -2.12764 3.51058 0
M  V30 3845 H 357.342 -2.09199 2.34296 0
M  V30 3846 H 356.535 -1.80311 4.70642 0
M  V30 3847 H 356.137 -0.376607 3.72099 0
M  V30 3848 H 358.429 -1.89748 6.50386 0
M  V30 3849 H 359.372 -0.480205 7.0647 0
M  V30 3850 H 359.78 -1.25321 5.50413 0
M  V30 3851 N 359.178 -1.55987 0.224894 0
M  V30 3852 C 360.141 -2.19178 -0.670348 0
M  V30 3853 C 361.141 -1.15461 -1.11917 0
M  V30 3854 O 362.331 -1.40675 -1.02743 0
M  V30 3855 C 359.463 -2.81777 -1.9187 0
M  V30 3856 H 360.656 -2.99662 -0.119364 0
M  V30 3857 H 358.209 -1.5628 -0.0247128 0
M  V30 3858 H 358.944 -2.05172 -2.51147 0
M  V30 3859 H 358.729 -3.57732 -1.60531 0
M  V30 3860 H 360.219 -3.30205 -2.55645 0
M  V30 3861 N 360.656 0.0484629 -1.57525 0
M  V30 3862 C 361.933 0.777447 -1.79486 0
M  V30 3863 C 362.313 1.94597 -0.818251 0
M  V30 3864 O 361.661 2.28047 0.143767 0
M  V30 3865 C 361.871 1.22864 -3.26658 0
M  V30 3866 C 363.219 1.65251 -3.91123 0
M  V30 3867 O 364.243 1.32372 -3.3069 0
M  V30 3868 O 363.102 2.26207 -4.97486 0
M  V30 3869 H 360.196 0.374357 -0.737419 0
M  V30 3870 H 362.742 0.0267359 -1.69679 0
M  V30 3871 H 361.514 0.393589 -3.89316 0
M  V30 3872 H 361.137 2.03996 -3.41279 0
M  V30 3873 N 362.134 1.5431 0.320358 0
M  V30 3874 C 363.067 1.78769 1.41834 0
M  V30 3875 C 364.045 0.63783 1.49568 0
M  V30 3876 O 365.229 0.875628 1.66928 0
M  V30 3877 C 362.356 1.90712 2.79905 0
M  V30 3878 C 361.402 3.13023 2.89687 0
M  V30 3879 S 362.235 4.71554 2.53766 0
M  V30 3880 C 363.391 4.86408 3.93902 0
M  V30 3881 H 363.624 2.71619 1.20874 0
M  V30 3882 H 361.157 1.45474 0.517377 0
M  V30 3883 H 363.115 1.98279 3.59438 0
M  V30 3884 H 361.776 0.988343 2.98145 0
M  V30 3885 H 360.969 3.18124 3.90913 0
M  V30 3886 H 360.571 3.03803 2.18128 0
M  V30 3887 H 362.863 4.69241 4.88691 0
M  V30 3888 H 363.806 5.88508 3.93782 0
M  V30 3889 H 364.214 4.14689 3.83005 0
M  V30 3890 N 363.613 -0.582584 1.46437 0
M  V30 3891 C 364.838 -1.37168 1.55563 0
M  V30 3892 C 365.263 -1.87061 0.19743 0
M  V30 3893 O 364.621 -1.61572 -0.822451 0
M  V30 3894 C 364.669 -2.53511 2.56446 0
M  V30 3895 O 363.773 -3.54953 2.09958 0
M  V30 3896 H 363.114 -0.408494 0.523477 0
M  V30 3897 H 365.644 -0.706646 1.9201 0
M  V30 3898 H 365.654 -3.00426 2.76058 0
M  V30 3899 H 364.329 -2.16549 3.55076 0
M  V30 3900 H 362.906 -3.14516 2.00334 0
M  V30 3901 N 365.091 -1.34144 -0.827227 0
M  V30 3902 C 366.319 -1.29325 -1.61501 0
M  V30 3903 C 366.734 0.13354 -1.88327 0
M  V30 3904 O 366.091 1.0793 -1.47164 0
M  V30 3905 C 366.142 -2.07746 -2.95844 0
M  V30 3906 O 365.863 -3.4486 -2.70191 0
M  V30 3907 C 367.364 -2.10273 -3.90256 0
M  V30 3908 H 364.584 -0.445069 -0.50215 0
M  V30 3909 H 367.128 -1.76693 -1.02955 0
M  V30 3910 H 365.283 -1.6403 -3.5096 0
M  V30 3911 H 365.697 -3.85345 -3.55822 0
M  V30 3912 H 367.171 -2.69575 -4.81698 0
M  V30 3913 H 367.648 -1.096 -4.25305 0
M  V30 3914 H 368.254 -2.54059 -3.41078 0
M  V30 3915 N 366.569 1.04691 -1.17803 0
M  V30 3916 C 367.799 1.81183 -0.992788 0
M  V30 3917 C 368.207 1.8347 0.462098 0
M  V30 3918 O 367.55 1.2643 1.33271 0
M  V30 3919 C 367.612 3.28363 -1.46349 0
M  V30 3920 C 367.276 3.49749 -2.94151 0
M  V30 3921 C 368.273 3.41456 -3.92051 0
M  V30 3922 C 365.958 3.76548 -3.32441 0
M  V30 3923 C 367.952 3.59656 -5.26238 0
M  V30 3924 C 365.639 3.94396 -4.66792 0
M  V30 3925 C 366.637 3.8595 -5.635 0
M  V30 3926 O 366.325 4.03294 -6.9542 0
M  V30 3927 H 366.057 0.577622 -0.351182 0
M  V30 3928 H 368.611 1.32876 -1.5663 0
M  V30 3929 H 366.841 3.77609 -0.833574 0
M  V30 3930 H 368.53 3.86395 -1.24313 0
M  V30 3931 H 369.296 3.20723 -3.63815 0
M  V30 3932 H 365.175 3.82224 -2.57732 0
M  V30 3933 H 368.719 3.52979 -6.01707 0
M  V30 3934 H 364.616 4.14622 -4.94731 0
M  V30 3935 H 365.384 4.2049 -7.02232 0
M  V30 3936 N 368.047 0.979072 1.23499 0
M  V30 3937 C 368.98 0.463027 2.23453 0
M  V30 3938 C 369.958 -0.469128 1.55685 0
M  V30 3939 O 371.142 -0.397882 1.84253 0
M  V30 3940 C 368.269 -0.330308 3.37086 0
M  V30 3941 C 367.315 0.545795 4.22993 0
M  V30 3942 S 368.148 1.99285 4.97037 0
M  V30 3943 C 369.304 1.20862 6.1412 0
M  V30 3944 H 369.537 1.31005 2.6688 0
M  V30 3945 H 367.07 0.784965 1.32957 0
M  V30 3946 H 369.028 -0.782027 4.02982 0
M  V30 3947 H 367.689 -1.15244 2.92194 0
M  V30 3948 H 366.882 -0.0638928 5.03959 0
M  V30 3949 H 366.484 0.933705 3.62157 0
M  V30 3950 H 368.776 0.469284 6.75873 0
M  V30 3951 H 369.719 1.99307 6.79472 0
M  V30 3952 H 370.127 0.727992 5.59786 0
M  V30 3953 N 369.525 -1.3858 0.750561 0
M  V30 3954 C 370.772 -2.00184 0.305373 0
M  V30 3955 C 371.1 -1.59575 -1.11203 0
M  V30 3956 O 370.355 -0.823236 -1.77542 0
M  V30 3957 C 370.654 -3.55455 0.372373 0
M  V30 3958 C 370.32 -4.15765 1.745 0
M  V30 3959 C 368.982 -4.31951 2.12065 0
M  V30 3960 C 371.334 -4.49067 2.64553 0
M  V30 3961 C 368.662 -4.78734 3.39162 0
M  V30 3962 C 371.014 -4.97265 3.91038 0
M  V30 3963 C 369.678 -5.11658 4.28676 0
M  V30 3964 H 368.948 -0.732526 0.111744 0
M  V30 3965 H 371.595 -1.65673 0.960451 0
M  V30 3966 H 369.9 -3.90084 -0.366272 0
M  V30 3967 H 371.597 -4.00999 0.00953918 0
M  V30 3968 H 368.187 -4.03579 1.44297 0
M  V30 3969 H 372.371 -4.36166 2.36796 0
M  V30 3970 H 367.627 -4.88062 3.68246 0
M  V30 3971 H 371.801 -5.22003 4.60962 0
M  V30 3972 H 369.428 -5.47668 5.27222 0
M  V30 3973 N 371.003 -0.499398 -1.49478 0
M  V30 3974 C 371.95 0.279881 -2.29097 0
M  V30 3975 C 372.92 0.961805 -1.3542 0
M  V30 3976 O 374.105 0.968777 -1.64376 0
M  V30 3977 C 371.245 1.33932 -3.18051 0
M  V30 3978 C 370.358 0.669333 -4.26783 0
M  V30 3979 C 369.493 1.70907 -5.02955 0
M  V30 3980 C 368.532 1.02087 -6.03527 0
M  V30 3981 N 367.669 2.00474 -6.7287 0
M  V30 3982 H 372.509 -0.405317 -2.95231 0
M  V30 3983 H 370.046 -0.211726 -1.45568 0
M  V30 3984 H 372.004 1.96553 -3.67998 0
M  V30 3985 H 370.634 1.9933 -2.53904 0
M  V30 3986 H 369.686 -0.0701234 -3.80335 0
M  V30 3987 H 370.998 0.127503 -4.98637 0
M  V30 3988 H 370.152 2.41037 -5.56764 0
M  V30 3989 H 368.891 2.28476 -4.30871 0
M  V30 3990 H 367.896 0.305338 -5.48951 0
M  V30 3991 H 369.121 0.451708 -6.77596 0
M  V30 3992 H 367.067 2.57007 -6.03559 0
M  V30 3993 H 366.984 1.51353 -7.40694 0
M  V30 3994 H 368.252 2.69897 -7.31284 0
M  V30 3995 N 372.481 1.55866 -0.233164 0
M  V30 3996 C 373.729 1.9821 0.394593 0
M  V30 3997 C 374.05 1.12234 1.59463 0
M  V30 3998 O 373.32 0.201981 1.94856 0
M  V30 3999 H 371.9 0.732034 0.148778 0
M  V30 4000 H 374.562 1.92107 -0.32876 0
M  V30 4001 H 373.658 3.03845 0.713063 0
M  V30 4002 N 373.959 -0.0401083 1.57549 0
M  V30 4003 C 375.208 -0.732108 1.87944 0
M  V30 4004 C 375.521 -1.77107 0.830206 0
M  V30 4005 O 376.727 -2.51488 1.02302 0
M  V30 4006 C 375.183 -1.35315 3.33494 0
M  V30 4007 C 374.791 -0.351105 4.46622 0
M  V30 4008 C 376.535 -2.02566 3.73051 0
M  V30 4009 C 374.442 -0.979859 5.83226 0
M  V30 4010 H 373.372 -0.277188 0.701201 0
M  V30 4011 H 376.023 0.0138501 1.83495 0
M  V30 4012 H 374.405 -2.14844 3.32653 0
M  V30 4013 H 375.579 0.416674 4.58912 0
M  V30 4014 H 373.894 0.218708 4.15825 0
M  V30 4015 H 376.491 -2.50441 4.72423 0
M  V30 4016 H 376.834 -2.83904 3.04474 0
M  V30 4017 H 377.367 -1.29827 3.76018 0
M  V30 4018 H 374.106 -0.206135 6.55176 0
M  V30 4019 H 373.626 -1.71774 5.74677 0
M  V30 4020 H 375.305 -1.49046 6.29599 0
M  V30 4021 N 375.437 -1.54477 -0.31217 0
M  V30 4022 C 376.686 -1.72438 -1.04633 0
M  V30 4023 C 376.999 -0.511163 -1.88803 0
M  V30 4024 O 378.205 -0.572341 -2.65399 0
M  V30 4025 C 376.661 -3.05043 -1.9099 0
M  V30 4026 C 376.269 -4.33806 -1.11877 0
M  V30 4027 C 378.013 -3.32364 -2.64073 0
M  V30 4028 C 375.92 -5.57467 -1.97445 0
M  V30 4029 H 374.85 -0.642647 -0.394361 0
M  V30 4030 H 377.501 -1.80966 -0.303929 0
M  V30 4031 H 375.883 -2.90451 -2.69173 0
M  V30 4032 H 377.057 -4.59199 -0.383843 0
M  V30 4033 H 375.372 -4.13336 -0.504252 0
M  V30 4034 H 377.969 -4.21951 -3.28423 0
M  V30 4035 H 378.312 -2.50745 -3.32314 0
M  V30 4036 H 378.845 -3.47875 -1.92944 0
M  V30 4037 H 375.584 -6.41722 -1.33692 0
M  V30 4038 H 375.104 -5.36277 -2.6864 0
M  V30 4039 H 376.783 -5.94303 -2.5576 0
M  V30 4040 N 376.915 0.57481 -1.46744 0
M  V30 4041 C 378.14 1.36341 -1.56288 0
M  V30 4042 C 378.565 1.86954 -0.207347 0
M  V30 4043 O 377.923 1.62006 0.813871 0
M  V30 4044 C 377.971 2.52147 -2.57787 0
M  V30 4045 O 377.075 3.53834 -2.11838 0
M  V30 4046 H 376.416 0.405713 -0.525636 0
M  V30 4047 H 378.946 0.696453 -1.92382 0
M  V30 4048 H 378.956 2.98958 -2.77648 0
M  V30 4049 H 377.631 2.14663 -3.5622 0
M  V30 4050 H 376.208 3.1345 -2.01999 0
M  V30 4051 N 378.394 1.34581 0.820102 0
M  V30 4052 C 379.641 1.27096 1.57648 0
M  V30 4053 C 379.969 -0.158317 1.93855 0
M  V30 4054 O 379.224 -1.12028 1.60463 0
M  V30 4055 C 379.523 2.10997 2.8847 0
M  V30 4056 C 379.189 3.59966 2.71543 0
M  V30 4057 C 377.851 4.00575 2.66634 0
M  V30 4058 C 380.203 4.54548 2.55021 0
M  V30 4059 C 377.531 5.33953 2.43128 0
M  V30 4060 C 379.883 5.88109 2.33047 0
M  V30 4061 C 378.547 6.27878 2.26552 0
M  V30 4062 H 377.817 0.465078 0.576874 0
M  V30 4063 H 380.464 1.6635 0.948671 0
M  V30 4064 H 378.769 1.6458 3.55557 0
M  V30 4065 H 380.466 2.0255 3.46084 0
M  V30 4066 H 377.056 3.27733 2.76205 0
M  V30 4067 H 381.24 4.24069 2.57835 0
M  V30 4068 H 376.496 5.63781 2.3656 0
M  V30 4069 H 380.67 6.60985 2.19251 0
M  V30 4070 H 378.297 7.31162 2.081 0
M  V30 4071 N 379.872 -1.04064 1.18357 0
M  V30 4072 C 380.835 -2.10243 0.912707 0
M  V30 4073 C 381.835 -1.60477 -0.101928 0
M  V30 4074 O 383.025 -1.73703 0.131517 0
M  V30 4075 C 380.157 -3.38893 0.369387 0
M  V30 4076 H 381.35 -2.35706 1.85426 0
M  V30 4077 H 378.903 -1.20489 0.995594 0
M  V30 4078 H 379.638 -3.19094 -0.578776 0
M  V30 4079 H 379.423 -3.76331 1.1008 0
M  V30 4080 H 380.913 -4.17128 0.198575 0
M  V30 4081 N 381.35 -0.985608 -1.22978 0
M  V30 4082 C 382.297 -0.529825 -2.24636 0
M  V30 4083 C 383.267 0.434028 -1.60329 0
M  V30 4084 O 384.452 0.340414 -1.87739 0
M  V30 4085 C 381.592 0.156533 -3.44745 0
M  V30 4086 C 380.705 -0.848197 -4.23591 0
M  V30 4087 C 379.84 -0.136109 -5.31026 0
M  V30 4088 C 378.879 -1.1297 -6.01585 0
M  V30 4089 N 378.016 -0.446415 -7.00679 0
M  V30 4090 H 382.856 -1.40148 -2.62988 0
M  V30 4091 H 380.393 -0.702168 -1.29259 0
M  V30 4092 H 382.351 0.571324 -4.1327 0
M  V30 4093 H 380.981 0.992025 -3.07179 0
M  V30 4094 H 380.033 -1.38135 -3.54433 0
M  V30 4095 H 381.345 -1.60512 -4.72268 0
M  V30 4096 H 380.499 0.335784 -6.0577 0
M  V30 4097 H 379.238 0.653373 -4.83304 0
M  V30 4098 H 378.243 -1.6123 -5.25628 0
M  V30 4099 H 379.468 -1.91993 -6.51395 0
M  V30 4100 H 377.414 0.323763 -6.55201 0
M  V30 4101 H 377.331 -1.1419 -7.47326 0
M  V30 4102 H 378.599 0.00291697 -7.795 0
M  V30 4103 N 382.828 1.3818 -0.7579 0
M  V30 4104 C 384.074 2.00316 -0.316453 0
M  V30 4105 C 384.407 1.60026 1.10025 0
M  V30 4106 O 383.682 0.839835 1.75434 0
M  V30 4107 C 383.965 3.57349 -0.444245 0
M  V30 4108 C 383.818 4.07591 -1.90236 0
M  V30 4109 C 385.137 4.3981 0.1598 0
M  V30 4110 H 382.256 0.727741 -0.116459 0
M  V30 4111 H 384.898 1.6406 -0.958352 0
M  V30 4112 H 383.048 3.88365 0.102233 0
M  V30 4113 H 384.72 3.87199 -2.50748 0
M  V30 4114 H 382.963 3.60297 -2.41595 0
M  V30 4115 H 383.634 5.16677 -1.94291 0
M  V30 4116 H 386.11 4.14971 -0.306314 0
M  V30 4117 H 384.986 5.48885 0.0401675 0
M  V30 4118 H 385.247 4.24102 1.24859 0
M  V30 4119 N 384.306 0.507319 1.49211 0
M  V30 4120 C 385.555 -0.0368315 2.01666 0
M  V30 4121 C 385.868 -1.37459 1.39156 0
M  V30 4122 O 387.074 -2.00579 1.82976 0
M  V30 4123 C 385.53 -0.116089 3.59713 0
M  V30 4124 C 385.138 1.2154 4.31198 0
M  V30 4125 C 386.882 -0.610268 4.2009 0
M  V30 4126 C 384.789 1.09796 5.81119 0
M  V30 4127 H 383.719 -0.0175376 0.753796 0
M  V30 4128 H 386.37 0.647691 1.71689 0
M  V30 4129 H 384.752 -0.8652 3.86433 0
M  V30 4130 H 385.926 1.9783 4.16173 0
M  V30 4131 H 384.241 1.64352 3.82593 0
M  V30 4132 H 386.838 -0.715742 5.29888 0
M  V30 4133 H 387.181 -1.61064 3.8388 0
M  V30 4134 H 387.714 0.0824916 3.97714 0
M  V30 4135 H 384.453 2.0728 6.21864 0
M  V30 4136 H 383.973 0.376058 5.9862 0
M  V30 4137 H 385.652 0.779281 6.4229 0
M  V30 4138 N 385.784 -1.5574 0.241426 0
M  V30 4139 C 387.009 -2.0366 -0.392111 0
M  V30 4140 C 387.434 -1.11969 -1.51144 0
M  V30 4141 O 386.792 -0.111594 -1.80956 0
M  V30 4142 C 386.84 -3.49638 -0.882371 0
M  V30 4143 O 385.944 -3.6108 -1.99235 0
M  V30 4144 H 385.285 -0.658379 -0.0862122 0
M  V30 4145 H 387.815 -2.01302 0.365881 0
M  V30 4146 H 387.825 -3.90351 -1.18702 0
M  V30 4147 H 386.5 -4.15852 -0.0632361 0
M  V30 4148 H 385.077 -3.32262 -1.69282 0
M  V30 4149 N 387.262 0.0317525 -1.57568 0
M  V30 4150 C 388.492 0.733884 -1.93126 0
M  V30 4151 C 388.9 1.69563 -0.839352 0
M  V30 4152 O 388.243 1.82681 0.193175 0
M  V30 4153 C 388.305 1.54798 -3.24465 0
M  V30 4154 C 387.969 0.751304 -4.50782 0
M  V30 4155 C 388.966 0.0527632 -5.19873 0
M  V30 4156 C 386.651 0.706639 -4.97305 0
M  V30 4157 C 388.645 -0.679774 -6.33765 0
M  V30 4158 C 386.332 -0.0296449 -6.11093 0
M  V30 4159 C 387.33 -0.721614 -6.79177 0
M  V30 4160 O 387.018 -1.44595 -7.90789 0
M  V30 4161 H 386.75 0.211459 -0.642076 0
M  V30 4162 H 389.304 -0.00585615 -2.05399 0
M  V30 4163 H 387.534 2.33147 -3.08512 0
M  V30 4164 H 389.223 2.13247 -3.4537 0
M  V30 4165 H 389.989 0.0783188 -4.84937 0
M  V30 4166 H 385.868 1.23474 -4.44157 0
M  V30 4167 H 389.412 -1.22042 -6.86842 0
M  V30 4168 H 385.309 -0.0571331 -6.45475 0
M  V30 4169 H 386.077 -1.35935 -8.07133 0
M  V30 4170 N 388.74 1.54641 0.303973 0
M  V30 4171 C 389.987 1.7378 1.03955 0
M  V30 4172 C 390.315 0.521986 1.87365 0
M  V30 4173 O 389.57 -0.496099 1.89308 0
M  V30 4174 C 389.869 2.97753 1.97681 0
M  V30 4175 C 389.535 4.31671 1.30271 0
M  V30 4176 C 388.197 4.68075 1.11619 0
M  V30 4177 C 390.549 5.147 0.82055 0
M  V30 4178 C 387.877 5.8509 0.434304 0
M  V30 4179 C 390.229 6.32416 0.152395 0
M  V30 4180 C 388.893 6.67484 -0.0461067 0
M  V30 4181 H 388.163 0.635908 0.380398 0
M  V30 4182 H 390.81 1.88896 0.314718 0
M  V30 4183 H 389.115 2.77406 2.76682 0
M  V30 4184 H 390.812 3.09756 2.54661 0
M  V30 4185 H 387.402 4.03041 1.45795 0
M  V30 4186 H 391.586 4.87077 0.952374 0
M  V30 4187 H 386.842 6.10806 0.269495 0
M  V30 4188 H 391.016 6.96023 -0.229126 0
M  V30 4189 H 388.643 7.58011 -0.576494 0
M  V30 4190 N 390.218 -0.567019 1.47046 0
M  V30 4191 C 391.634 -0.891975 1.32348 0
M  V30 4192 C 391.834 -1.99154 0.306616 0
M  V30 4193 O 390.89 -2.50883 -0.28532 0
M  V30 4194 C 392.203 -1.29449 2.7141 0
M  V30 4195 C 393.751 -1.40646 2.79621 0
M  V30 4196 C 394.226 -1.84257 4.19301 0
M  V30 4197 N 395.717 -1.91424 4.21795 0
M  V30 4198 C 396.452 -2.26476 5.26779 0
M  V30 4199 N 395.948 -2.60211 6.42077 0
M  V30 4200 N 397.741 -2.27166 5.14152 0
M  V30 4201 H 389.892 0.159074 2.11803 0
M  V30 4202 H 392.155 0.00849752 0.947962 0
M  V30 4203 H 391.861 -0.560448 3.47206 0
M  V30 4204 H 391.735 -2.25273 3.02542 0
M  V30 4205 H 394.122 -2.13133 2.04104 0
M  V30 4206 H 394.203 -0.430339 2.52154 0
M  V30 4207 H 393.847 -1.12343 4.95319 0
M  V30 4208 H 393.777 -2.82855 4.44185 0
M  V30 4209 H 396.268 -1.6778 3.38612 0
M  V30 4210 H 396.581 -2.85956 7.17948 0
M  V30 4211 H 394.926 -2.57813 6.45413 0
M  V30 4212 H 398.117 -2.00244 4.23107 0
M  V30 4213 H 398.29 -2.54154 5.96079 0
M  V30 4214 N 391.696 -1.35014 -0.812953 0
M  V30 4215 C 392.973 -1.18502 -1.55617 0
M  V30 4216 C 393.353 0.238421 -2.09749 0
M  V30 4217 O 392.701 1.2411 -1.91857 0
M  V30 4218 C 392.911 -2.24783 -2.66971 0
M  V30 4219 C 394.259 -2.60268 -3.35478 0
M  V30 4220 O 395.283 -2.23648 -2.77236 0
M  V30 4221 O 394.142 -3.2321 -4.40678 0
M  V30 4222 H 391.236 -0.459984 -0.687272 0
M  V30 4223 H 393.782 -1.46677 -0.853464 0
M  V30 4224 H 392.554 -3.20284 -2.24798 0
M  V30 4225 H 392.177 -1.97841 -3.44884 0
M  V30 4226 N 393.175 1.03435 -1.18907 0
M  V30 4227 C 394.105 2.13503 -0.945448 0
M  V30 4228 C 395.086 1.69682 0.119189 0
M  V30 4229 O 396.271 1.94169 -0.034707 0
M  V30 4230 C 393.401 3.44004 -0.477316 0
M  V30 4231 C 392.355 4.0148 -1.48316 0
M  V30 4232 C 391.681 5.27537 -0.872311 0
M  V30 4233 C 392.981 4.36921 -2.86177 0
M  V30 4234 H 394.675 2.34141 -1.86597 0
M  V30 4235 H 392.221 1.12523 -0.898584 0
M  V30 4236 H 394.174 4.20372 -0.294204 0
M  V30 4237 H 392.898 3.23072 0.478786 0
M  V30 4238 H 391.557 3.27201 -1.65332 0
M  V30 4239 H 391.205 5.02917 0.0911752 0
M  V30 4240 H 390.905 5.66954 -1.54393 0
M  V30 4241 H 392.429 6.06576 -0.699871 0
M  V30 4242 H 393.843 5.04248 -2.72776 0
M  V30 4243 H 392.24 4.87405 -3.50081 0
M  V30 4244 H 393.31 3.46466 -3.39248 0
M  V30 4245 N 394.653 0.992116 1.22453 0
M  V30 4246 C 396.064 0.702776 1.72968 0
M  V30 4247 C 396.415 -0.780399 1.80012 0
M  V30 4248 O 395.54 -1.61007 1.44589 0
M  V30 4249 C 396.135 1.26903 3.14135 0
M  V30 4250 C 394.694 1.02909 3.62059 0
M  V30 4251 C 393.841 1.38969 2.39964 0
M  V30 4252 H 396.792 1.16457 1.07812 0
M  V30 4253 H 396.813 0.647223 3.74955 0
M  V30 4254 H 396.325 2.34851 3.08977 0
M  V30 4255 H 394.426 -0.0337979 3.72585 0
M  V30 4256 H 394.539 1.69191 4.48231 0
M  V30 4257 H 392.903 0.808279 2.41535 0
M  V30 4258 H 393.686 2.4792 2.37467 0
M  V30 4259 N 396.131 -1.37776 0.765217 0
M  V30 4260 C 397.38 -1.99092 0.323307 0
M  V30 4261 C 397.693 -1.61434 -1.10446 0
M  V30 4262 O 398.899 -2.15805 -1.64743 0
M  V30 4263 C 397.355 -3.56019 0.527098 0
M  V30 4264 C 396.963 -4.0262 1.96471 0
M  V30 4265 C 398.707 -4.2424 0.148483 0
M  V30 4266 C 396.614 -5.52233 2.11644 0
M  V30 4267 H 395.544 -0.744846 0.117137 0
M  V30 4268 H 398.195 -1.57391 0.943417 0
M  V30 4269 H 396.577 -3.95667 -0.162372 0
M  V30 4270 H 397.751 -3.74234 2.68859 0
M  V30 4271 H 396.066 -3.47161 2.29931 0
M  V30 4272 H 398.663 -5.34159 0.240456 0
M  V30 4273 H 399.006 -4.06446 -0.900422 0
M  V30 4274 H 399.539 -3.89872 0.79025 0
M  V30 4275 H 396.278 -5.74945 3.1483 0
M  V30 4276 H 395.798 -5.82324 1.4373 0
M  V30 4277 H 397.477 -6.18106 1.91193 0
M  V30 4278 N 397.609 -0.515225 -1.4894 0
M  V30 4279 C 398.519 0.259774 -2.33157 0
M  V30 4280 C 399.535 0.953501 -1.45548 0
M  V30 4281 O 400.711 0.931735 -1.78552 0
M  V30 4282 C 397.776 1.30193 -3.21326 0
M  V30 4283 C 396.837 0.620129 -4.24797 0
M  V30 4284 C 396.07 1.61263 -5.08753 0
M  V30 4285 O 396.293 2.84389 -4.94448 0
M  V30 4286 O 395.227 1.16013 -5.90614 0
M  V30 4287 H 399.053 -0.429932 -3.00641 0
M  V30 4288 H 396.638 -0.276346 -1.46822 0
M  V30 4289 H 398.52 1.90455 -3.75905 0
M  V30 4290 H 397.195 1.97431 -2.56521 0
M  V30 4291 H 396.102 -0.0226019 -3.74093 0
M  V30 4292 H 397.435 -0.0100493 -4.92199 0
M  V30 4293 N 399.087 1.5561 -0.249682 0
M  V30 4294 C 400.364 1.90932 0.424761 0
M  V30 4295 C 400.744 1.17078 1.75658 0
M  V30 4296 O 400.092 0.289176 2.26663 0
M  V30 4297 C 400.302 3.43975 0.590109 0
M  V30 4298 C 401.65 4.15281 0.884714 0
M  V30 4299 O 402.674 3.49729 0.67587 0
M  V30 4300 O 401.533 5.31236 1.28259 0
M  V30 4301 H 398.627 0.794815 0.228468 0
M  V30 4302 H 401.173 1.67135 -0.293954 0
M  V30 4303 H 399.945 3.89748 -0.34818 0
M  V30 4304 H 399.568 3.73644 1.35926 0
M  V30 4305 N 400.565 -0.0233959 1.57583 0
M  V30 4306 C 401.497 -1.04994 2.03737 0
M  V30 4307 C 402.51 -1.32125 0.951152 0
M  V30 4308 O 403.699 -1.29512 1.22837 0
M  V30 4309 C 400.799 -2.39026 2.40249 0
M  V30 4310 C 399.972 -2.31171 3.7132 0
M  V30 4311 C 399.031 -3.47698 3.94959 0
M  V30 4312 O 398.057 -3.26937 4.65941 0
M  V30 4313 N 399.259 -4.6976 3.41037 0
M  V30 4314 H 402.024 -0.656507 2.92421 0
M  V30 4315 H 399.585 -0.211235 1.60516 0
M  V30 4316 H 401.577 -3.15712 2.53196 0
M  V30 4317 H 400.147 -2.70194 1.57207 0
M  V30 4318 H 399.367 -1.39547 3.68674 0
M  V30 4319 H 400.655 -2.23071 4.57293 0
M  V30 4320 H 400.053 -4.89528 2.83512 0
M  V30 4321 H 398.61 -5.43791 3.59353 0
M  V30 4322 N 402.043 -1.548 -0.295768 0
M  V30 4323 C 403.292 -1.73538 -1.02798 0
M  V30 4324 C 403.605 -0.531159 -1.8825 0
M  V30 4325 O 404.811 -0.600458 -2.64777 0
M  V30 4326 C 403.267 -3.07051 -1.87744 0
M  V30 4327 C 402.875 -4.34968 -1.07269 0
M  V30 4328 C 404.619 -3.35146 -2.60533 0
M  V30 4329 C 402.526 -5.5953 -1.91521 0
M  V30 4330 H 401.456 -0.646794 -0.387522 0
M  V30 4331 H 404.107 -1.81278 -0.284718 0
M  V30 4332 H 402.489 -2.93289 -2.66078 0
M  V30 4333 H 403.663 -4.5958 -0.335117 0
M  V30 4334 H 401.978 -4.13847 -0.460384 0
M  V30 4335 H 404.575 -4.2541 -3.23929 0
M  V30 4336 H 404.918 -2.54255 -3.29636 0
M  V30 4337 H 405.451 -3.49902 -1.89244 0
M  V30 4338 H 402.19 -6.43103 -1.26878 0
M  V30 4339 H 401.71 -5.39096 -2.62937 0
M  V30 4340 H 403.389 -5.96982 -2.49442 0
M  V30 4341 N 403.521 0.559213 -1.47345 0
M  V30 4342 C 404.746 1.34676 -1.57725 0
M  V30 4343 C 405.171 1.86723 -0.227164 0
M  V30 4344 O 404.529 1.6286 0.796642 0
M  V30 4345 C 404.577 2.49399 -2.60447 0
M  V30 4346 O 403.681 3.51567 -2.15578 0
M  V30 4347 H 403.022 0.400115 -0.52991 0
M  V30 4348 H 405.552 0.676009 -1.93109 0
M  V30 4349 H 405.562 2.95996 -2.80803 0
M  V30 4350 H 404.237 2.10873 -3.58477 0
M  V30 4351 H 402.814 3.11289 -2.05313 0
M  V30 4352 N 404.999 1.35443 0.805782 0
M  V30 4353 C 405.929 1.31095 1.93226 0
M  V30 4354 C 406.91 0.185244 1.69088 0
M  V30 4355 O 408.095 0.380332 1.90439 0
M  V30 4356 C 405.225 1.08299 3.29983 0
M  V30 4357 C 404.179 2.17519 3.68605 0
M  V30 4358 C 403.505 1.79887 5.03532 0
M  V30 4359 C 404.805 3.5949 3.78898 0
M  V30 4360 H 406.499 2.25352 1.97122 0
M  V30 4361 H 404.045 1.0848 0.946996 0
M  V30 4362 H 405.998 1.03897 4.08391 0
M  V30 4363 H 404.722 0.104885 3.26432 0
M  V30 4364 H 403.381 2.2102 2.92482 0
M  V30 4365 H 403.029 0.80693 4.96485 0
M  V30 4366 H 402.729 2.53001 5.30344 0
M  V30 4367 H 404.253 1.77011 5.84379 0
M  V30 4368 H 405.667 3.58307 4.47536 0
M  V30 4369 H 404.064 4.31371 4.1718 0
M  V30 4370 H 405.134 3.95584 2.80431 0
M  V30 4371 N 406.477 -1.02803 1.19454 0
M  V30 4372 C 407.407 -2.12999 0.956758 0
M  V30 4373 C 408.388 -1.69743 -0.110188 0
M  V30 4374 O 409.573 -1.94148 0.0450038 0
M  V30 4375 C 406.703 -3.43746 0.495553 0
M  V30 4376 C 405.657 -4.00688 1.50443 0
M  V30 4377 C 404.983 -5.27067 0.900275 0
M  V30 4378 C 406.283 -4.35397 2.8849 0
M  V30 4379 H 407.977 -2.33148 1.87836 0
M  V30 4380 H 405.523 -1.12045 0.904539 0
M  V30 4381 H 407.476 -4.2021 0.316493 0
M  V30 4382 H 406.2 -3.23321 -0.461646 0
M  V30 4383 H 404.859 -3.2632 1.67065 0
M  V30 4384 H 404.507 -5.02959 -0.064503 0
M  V30 4385 H 404.207 -5.66127 1.57397 0
M  V30 4386 H 405.731 -6.06196 0.73203 0
M  V30 4387 H 407.145 -5.02795 2.75446 0
M  V30 4388 H 405.542 -4.85541 3.52661 0
M  V30 4389 H 406.612 -3.44662 3.41081 0
M  V30 4390 N 407.956 -0.998596 -1.21925 0
M  V30 4391 C 408.903 -0.553621 -2.24062 0
M  V30 4392 C 409.873 0.416999 -1.6078 0
M  V30 4393 O 411.058 0.320482 -1.88089 0
M  V30 4394 C 408.198 0.119959 -3.44891 0
M  V30 4395 C 407.311 -0.893077 -4.22668 0
M  V30 4396 C 406.446 -0.192424 -5.30851 0
M  V30 4397 C 405.485 -1.19344 -6.00353 0
M  V30 4398 N 404.622 -0.520707 -7.00166 0
M  V30 4399 H 409.462 -1.4293 -2.61486 0
M  V30 4400 H 406.999 -0.715838 -1.28507 0
M  V30 4401 H 408.957 0.527459 -4.13852 0
M  V30 4402 H 407.587 0.959389 -3.08214 0
M  V30 4403 H 406.639 -1.41886 -3.52948 0
M  V30 4404 H 407.951 -1.65512 -4.70539 0
M  V30 4405 H 407.105 0.271515 -6.06092 0
M  V30 4406 H 405.844 0.602075 -4.83969 0
M  V30 4407 H 404.849 -1.66795 -5.23889 0
M  V30 4408 H 406.074 -1.98891 -6.49322 0
M  V30 4409 H 404.02 0.254252 -6.55507 0
M  V30 4410 H 403.937 -1.2211 -7.46073 0
M  V30 4411 H 405.205 -0.0797596 -7.79459 0
M  V30 4412 N 409.434 1.37368 -0.772513 0
M  V30 4413 C 410.682 1.99279 -0.336516 0
M  V30 4414 C 411.003 1.6163 1.09091 0
M  V30 4415 O 410.273 0.882109 1.74916 0
M  V30 4416 H 408.853 0.737063 -0.121435 0
M  V30 4417 H 411.515 1.67836 -0.990809 0
M  V30 4418 H 410.611 3.09332 -0.414763 0
M  V30 4419 N 410.912 0.523116 1.48665 0
M  V30 4420 C 411.875 -0.232592 2.28017 0
M  V30 4421 C 412.875 -0.874021 1.34972 0
M  V30 4422 O 414.065 -0.735132 1.57929 0
M  V30 4423 C 411.197 -1.33586 3.13636 0
M  V30 4424 H 412.39 0.464008 2.96289 0
M  V30 4425 H 409.943 0.278816 1.53793 0
M  V30 4426 H 410.678 -2.06593 2.4998 0
M  V30 4427 H 410.463 -0.881125 3.82071 0
M  V30 4428 H 411.953 -1.86759 3.73511 0
M  V30 4429 N 412.39 -1.55475 0.257931 0
M  V30 4430 C 413.353 -2.20551 -0.623706 0
M  V30 4431 C 414.353 -1.17809 -1.09443 0
M  V30 4432 O 415.543 -1.42823 -0.997362 0
M  V30 4433 C 412.675 -2.85784 -1.8585 0
M  V30 4434 H 413.868 -2.99848 -0.0557743 0
M  V30 4435 H 411.421 -1.56298 0.0084422 0
M  V30 4436 H 412.156 -2.10453 -2.46739 0
M  V30 4437 H 411.941 -3.61057 -1.52907 0
M  V30 4438 H 413.431 -3.35553 -2.48584 0
M  V30 4439 N 413.868 0.0150385 -1.57593 0
M  V30 4440 C 415.115 0.703001 -1.89906 0
M  V30 4441 C 415.443 1.74604 -0.856944 0
M  V30 4442 O 414.698 1.95197 0.140287 0
M  V30 4443 C 414.997 1.39686 -3.28972 0
M  V30 4444 C 414.663 0.488457 -4.48246 0
M  V30 4445 C 413.325 0.2383 -4.8061 0
M  V30 4446 C 415.677 -0.137881 -5.21018 0
M  V30 4447 C 413.005 -0.646738 -5.83125 0
M  V30 4448 C 415.357 -1.0107 -6.24474 0
M  V30 4449 C 414.021 -1.27019 -6.55303 0
M  V30 4450 H 413.291 0.257246 -0.694914 0
M  V30 4451 H 415.938 -0.037259 -1.91464 0
M  V30 4452 H 414.243 2.21079 -3.23468 0
M  V30 4453 H 415.94 1.93495 -3.51227 0
M  V30 4454 H 412.53 0.693593 -4.22951 0
M  V30 4455 H 416.714 0.0423953 -4.96282 0
M  V30 4456 H 411.97 -0.855937 -6.05379 0
M  V30 4457 H 416.144 -1.50247 -6.79999 0
M  V30 4458 H 413.771 -1.95769 -7.3456 0
M  V30 4459 N 415.346 1.54954 0.287554 0
M  V30 4460 C 416.256 1.8991 1.37736 0
M  V30 4461 C 417.272 0.794701 1.54792 0
M  V30 4462 O 418.448 1.09243 1.69198 0
M  V30 4463 C 415.513 2.15108 2.71899 0
M  V30 4464 C 414.574 3.38752 2.63715 0
M  V30 4465 C 413.807 3.62739 3.91479 0
M  V30 4466 O 414.03 2.89492 4.91478 0
M  V30 4467 O 412.964 4.56267 3.92561 0
M  V30 4468 H 416.79 2.82652 1.11092 0
M  V30 4469 H 414.375 1.41315 0.484807 0
M  V30 4470 H 416.257 2.32806 3.51254 0
M  V30 4471 H 414.932 1.25551 2.9836 0
M  V30 4472 H 413.839 3.26405 1.82786 0
M  V30 4473 H 415.172 4.28483 2.42205 0
M  V30 4474 N 416.824 -0.551391 1.4764 0
M  V30 4475 C 417.754 -1.66757 1.63445 0
M  V30 4476 C 418.735 -1.63077 0.483742 0
M  V30 4477 O 419.92 -1.80607 0.71377 0
M  V30 4478 C 417.05 -3.05387 1.65396 0
M  V30 4479 C 416.004 -3.23918 2.79752 0
M  V30 4480 C 415.33 -4.63393 2.66779 0
M  V30 4481 C 416.63 -3.08735 4.21284 0
M  V30 4482 H 418.324 -1.53786 2.56886 0
M  V30 4483 H 415.87 -0.738415 1.23626 0
M  V30 4484 H 417.823 -3.83325 1.75043 0
M  V30 4485 H 416.547 -3.19332 0.685195 0
M  V30 4486 H 415.206 -2.48391 2.69625 0
M  V30 4487 H 414.854 -4.74144 1.67918 0
M  V30 4488 H 414.554 -4.7674 3.43501 0
M  V30 4489 H 416.078 -5.43458 2.78364 0
M  V30 4490 H 417.492 -3.76484 4.32357 0
M  V30 4491 H 415.889 -3.33588 4.98838 0
M  V30 4492 H 416.959 -2.0541 4.39243 0
M  V30 4493 N 418.302 -1.35869 -0.798587 0
M  V30 4494 C 419.542 -1.30961 -1.56935 0
M  V30 4495 C 419.906 0.112404 -1.91671 0
M  V30 4496 O 421.107 0.285937 -2.67275 0
M  V30 4497 C 419.378 -2.19811 -2.81811 0
M  V30 4498 S 420.937 -2.32498 -3.72143 0
M  V30 4499 H 417.755 -0.465297 -0.537606 0
M  V30 4500 H 420.357 -1.71344 -0.941346 0
M  V30 4501 H 419.061 -3.22095 -2.54329 0
M  V30 4502 H 418.592 -1.80415 -3.49591 0
M  V30 4503 H 420.607 -1.5157 -4.72484 0
M  V30 4504 N 419.78 1.02168 -1.19998 0
M  V30 4505 C 420.712 2.10705 -0.901994 0
M  V30 4506 C 421.725 1.6244 0.108216 0
M  V30 4507 O 422.914 1.78082 -0.12214 0
M  V30 4508 C 420.014 3.37291 -0.329834 0
M  V30 4509 C 419.187 4.14714 -1.39035 0
M  V30 4510 C 418.246 5.19606 -0.830432 0
M  V30 4511 O 417.272 5.48809 -1.50989 0
M  V30 4512 N 418.474 5.79366 0.362696 0
M  V30 4513 H 421.239 2.36856 -1.83628 0
M  V30 4514 H 418.8 1.18518 -1.10296 0
M  V30 4515 H 420.792 4.04657 0.0587633 0
M  V30 4516 H 419.362 3.0843 0.508891 0
M  V30 4517 H 418.582 3.42392 -1.9535 0
M  V30 4518 H 419.87 4.63226 -2.10474 0
M  V30 4519 H 419.268 5.57968 0.932081 0
M  V30 4520 H 417.825 6.48106 0.69299 0
M  V30 4521 N 421.258 1.00505 1.21394 0
M  V30 4522 C 422.188 0.585684 2.26035 0
M  V30 4523 C 423.169 -0.393525 1.65485 0
M  V30 4524 O 424.354 -0.281497 1.92149 0
M  V30 4525 C 421.484 -0.0884283 3.47187 0
M  V30 4526 C 420.438 0.810567 4.20254 0
M  V30 4527 C 419.764 0.00286382 5.347 0
M  V30 4528 C 421.064 2.1132 4.77641 0
M  V30 4529 H 422.758 1.46039 2.61368 0
M  V30 4530 H 420.304 0.703648 1.25638 0
M  V30 4531 H 422.257 -0.393286 4.19561 0
M  V30 4532 H 420.981 -0.997766 3.10986 0
M  V30 4533 H 419.64 1.09925 3.49731 0
M  V30 4534 H 419.288 -0.907765 4.94741 0
M  V30 4535 H 418.988 0.601444 5.84514 0
M  V30 4536 H 420.512 -0.295808 6.09883 0
M  V30 4537 H 421.926 1.87148 5.41893 0
M  V30 4538 H 420.323 2.66164 5.37845 0
M  V30 4539 H 421.393 2.78393 3.9702 0
M  V30 4540 N 422.737 -1.36956 0.779787 0
M  V30 4541 C 424.153 -1.52817 0.460342 0
M  V30 4542 C 424.353 -1.7361 -1.02283 0
M  V30 4543 O 423.409 -1.76207 -1.80852 0
M  V30 4544 C 424.722 -2.71983 1.28241 0
M  V30 4545 C 426.27 -2.85849 1.27512 0
M  V30 4546 C 426.745 -4.08008 2.08072 0
M  V30 4547 N 428.236 -4.15135 2.05467 0
M  V30 4548 C 428.971 -5.08711 2.64577 0
M  V30 4549 N 428.467 -6.07792 3.32506 0
M  V30 4550 N 430.26 -5.01254 2.54363 0
M  V30 4551 H 422.411 -1.21713 1.74068 0
M  V30 4552 H 424.674 -0.593294 0.739396 0
M  V30 4553 H 424.38 -2.63109 2.33381 0
M  V30 4554 H 424.254 -3.65882 0.917088 0
M  V30 4555 H 426.641 -2.94189 0.231686 0
M  V30 4556 H 426.722 -1.92886 1.68014 0
M  V30 4557 H 426.366 -4.00429 3.12441 0
M  V30 4558 H 426.296 -5.001 1.64947 0
M  V30 4559 H 428.787 -3.44189 1.5602 0
M  V30 4560 H 429.1 -6.75739 3.74963 0
M  V30 4561 H 427.445 -6.08047 3.36606 0
M  V30 4562 H 430.636 -4.22795 2.00902 0
M  V30 4563 H 430.809 -5.73995 3.00722 0
M  V30 4564 N 424.215 -0.530993 -1.48385 0
M  V30 4565 C 425.462 0.0027373 -2.025 0
M  V30 4566 C 425.79 1.34186 -1.40799 0
M  V30 4567 O 425.045 1.88 -0.543544 0
M  V30 4568 C 425.344 0.172742 -3.56982 0
M  V30 4569 C 425.01 -1.09215 -4.37473 0
M  V30 4570 C 423.672 -1.43881 -4.59186 0
M  V30 4571 C 426.024 -1.93153 -4.84088 0
M  V30 4572 C 423.352 -2.62381 -5.2476 0
M  V30 4573 C 425.704 -3.10833 -5.50968 0
M  V30 4574 C 424.368 -3.45843 -5.70919 0
M  V30 4575 H 423.638 0.00100165 -0.740999 0
M  V30 4576 H 426.285 -0.697219 -1.78357 0
M  V30 4577 H 424.59 0.955473 -3.79971 0
M  V30 4578 H 426.287 0.600642 -3.96476 0
M  V30 4579 H 422.877 -0.812177 -4.20834 0
M  V30 4580 H 427.061 -1.67683 -4.67115 0
M  V30 4581 H 422.317 -2.89707 -5.38405 0
M  V30 4582 H 426.491 -3.7618 -5.86056 0
M  V30 4583 H 424.118 -4.37764 -6.21503 0
M  V30 4584 N 425.693 1.55336 -0.266172 0
M  V30 4585 C 426.641 2.23587 0.641228 0
M  V30 4586 C 427.635 1.22986 1.16494 0
M  V30 4587 O 428.841 1.40943 1.1196 0
M  V30 4588 H 425.216 0.717452 0.225315 0
M  V30 4589 H 427.187 2.9837 0.0426561 0
M  V30 4590 C 425.936 2.96369 1.81826 0
M  V30 4591 H 425.259 3.73563 1.42445 0
M  V30 4592 H 426.699 3.47459 2.42998 0
M  V30 4593 C 425.158 2.0133 2.70125 0
M  V30 4594 O 425.688 1.55875 3.70224 0
M  V30 4595 N 423.894 1.6802 2.37102 0
M  V30 4596 H 423.441 2.05181 1.55751 0
M  V30 4597 H 423.399 1.047 2.96454 0
M  V30 4598 N 427.171 -0.0066808 1.57599 0
M  V30 4599 C 428.399 -0.704087 1.94551 0
M  V30 4600 C 428.814 -1.67677 0.867746 0
M  V30 4601 O 428.171 -1.8185 -0.153925 0
M  V30 4602 C 428.222 -1.44177 3.31505 0
M  V30 4603 O 427.943 -0.508097 4.35144 0
M  V30 4604 C 429.444 -2.23429 3.82876 0
M  V30 4605 H 426.664 -0.196523 0.641576 0
M  V30 4606 H 429.208 0.042453 2.04456 0
M  V30 4607 H 427.363 -2.13999 3.22929 0
M  V30 4608 H 427.777 -1.02782 5.14331 0
M  V30 4609 H 429.251 -2.70552 4.8115 0
M  V30 4610 H 429.728 -3.05818 3.15233 0
M  V30 4611 H 430.334 -1.58636 3.94607 0
M  V30 4612 N 428.649 -1.55105 -0.279332 0
M  V30 4613 C 429.895 -1.75672 -1.01327 0
M  V30 4614 C 430.228 -0.552739 -1.86168 0
M  V30 4615 O 429.503 0.449827 -1.89227 0
M  V30 4616 C 429.786 -3.05825 -1.90114 0
M  V30 4617 C 429.639 -4.36565 -1.08309 0
M  V30 4618 C 430.958 -3.31975 -2.8893 0
M  V30 4619 H 428.077 -0.639149 -0.366957 0
M  V30 4620 H 430.719 -1.87833 -0.286154 0
M  V30 4621 H 428.869 -2.95588 -2.52111 0
M  V30 4622 H 430.541 -4.58751 -0.484314 0
M  V30 4623 H 428.784 -4.32076 -0.386362 0
M  V30 4624 H 429.455 -5.23946 -1.73737 0
M  V30 4625 H 431.931 -3.41963 -2.37067 0
M  V30 4626 H 430.807 -4.2432 -3.48201 0
M  V30 4627 H 431.068 -2.51309 -3.63725 0
M  V30 4628 N 430.127 0.543554 -1.4793 0
M  V30 4629 C 431.374 1.30008 -1.55255 0
M  V30 4630 C 431.702 1.93245 -0.220612 0
M  V30 4631 O 430.957 1.79141 0.787843 0
M  V30 4632 C 431.256 2.42078 -2.62932 0
M  V30 4633 C 430.922 1.96583 -4.0579 0
M  V30 4634 C 429.584 1.83893 -4.44676 0
M  V30 4635 C 431.936 1.62034 -4.95373 0
M  V30 4636 C 429.264 1.34969 -5.70964 0
M  V30 4637 C 431.616 1.14577 -6.22137 0
M  V30 4638 C 430.28 1.00493 -6.59892 0
M  V30 4639 H 429.55 0.475735 -0.568117 0
M  V30 4640 H 432.197 0.608075 -1.81589 0
M  V30 4641 H 430.502 3.16892 -2.30406 0
M  V30 4642 H 432.199 3.00236 -2.65818 0
M  V30 4643 H 428.789 2.07407 -3.75074 0
M  V30 4644 H 432.973 1.70705 -4.66019 0
M  V30 4645 H 428.229 1.2274 -5.98953 0
M  V30 4646 H 432.403 0.869109 -6.90955 0
M  V30 4647 H 430.03 0.623624 -7.57638 0
M  V30 4648 N 431.605 1.3629 0.791371 0
M  V30 4649 C 432.553 1.30514 1.92533 0
M  V30 4650 C 433.547 0.197285 1.68247 0
M  V30 4651 O 434.753 0.364176 1.76278 0
M  V30 4652 H 431.128 0.406263 0.632815 0
M  V30 4653 H 433.099 2.26282 1.94523 0
M  V30 4654 C 431.848 1.10933 3.29529 0
M  V30 4655 H 431.171 1.95427 3.48781 0
M  V30 4656 H 432.611 1.10937 4.0923 0
M  V30 4657 C 431.07 -0.186123 3.36385 0
M  V30 4658 O 431.6 -1.17664 3.84081 0
M  V30 4659 N 429.806 -0.230128 2.89687 0
M  V30 4660 H 429.353 0.576545 2.51065 0
M  V30 4661 H 429.311 -1.09658 2.94657 0
M  V30 4662 N 433.083 -1.0153 1.20538 0
M  V30 4663 C 434.046 -2.0826 0.957098 0
M  V30 4664 C 435.046 -1.60657 -0.0678655 0
M  V30 4665 O 436.236 -1.73385 0.168332 0
M  V30 4666 C 433.368 -3.38033 0.441188 0
M  V30 4667 H 434.561 -2.31719 1.90384 0
M  V30 4668 H 432.114 -1.1835 1.02093 0
M  V30 4669 H 432.849 -3.20249 -0.510961 0
M  V30 4670 H 432.634 -3.73911 1.18038 0
M  V30 4671 H 434.124 -4.16613 0.287009 0
M  V30 4672 N 434.561 -1.01147 -1.20859 0
M  V30 4673 C 435.471 -0.58686 -2.27141 0
M  V30 4674 C 436.487 0.373198 -1.69951 0
M  V30 4675 O 437.663 0.235423 -2.00019 0
M  V30 4676 C 434.728 0.0733602 -3.46622 0
M  V30 4677 C 433.789 -0.931995 -4.19061 0
M  V30 4678 C 433.022 -0.303186 -5.32838 0
M  V30 4679 O 433.245 0.898395 -5.63281 0
M  V30 4680 O 432.179 -1.01735 -5.9324 0
M  V30 4681 H 436.005 -1.47155 -2.65667 0
M  V30 4682 H 433.59 -0.780689 -1.2738 0
M  V30 4683 H 435.472 0.442333 -4.19072 0
M  V30 4684 H 434.147 0.932329 -3.09983 0
M  V30 4685 H 433.054 -1.35224 -3.48805 0
M  V30 4686 H 434.387 -1.76076 -4.59628 0
M  V30 4687 N 436.039 1.36541 -0.78704 0
M  V30 4688 C 437.267 2.03561 -0.370199 0
M  V30 4689 C 437.682 1.59347 1.01263 0
M  V30 4690 O 437.039 0.781781 1.64907 0
M  V30 4691 C 437.09 3.59033 -0.421614 0
M  V30 4692 O 436.811 4.01634 -1.7499 0
M  V30 4693 C 438.312 4.433 0.00489763 0
M  V30 4694 H 435.532 0.653346 -0.152904 0
M  V30 4695 H 438.076 1.74566 -1.06522 0
M  V30 4696 H 436.231 3.86746 0.224971 0
M  V30 4697 H 436.645 4.96217 -1.69909 0
M  V30 4698 H 438.119 5.51939 -0.0822184 0
M  V30 4699 H 438.596 4.26285 1.05723 0
M  V30 4700 H 439.202 4.20843 -0.614085 0
M  V30 4701 N 437.518 0.538854 1.48102 0
M  V30 4702 C 438.766 0.00798599 2.02098 0
M  V30 4703 C 439.087 -1.33922 1.41739 0
M  V30 4704 O 438.357 -1.86932 0.585934 0
M  V30 4705 H 436.937 -3.62179e-05 0.747 0
M  V30 4706 H 439.599 0.7047 1.81714 0
M  V30 4707 H 438.695 -0.0937672 3.11959 0
M  V30 4708 N 438.996 -1.55193 0.274407 0
M  V30 4709 C 440.224 -2.03987 -0.345943 0
M  V30 4710 C 440.639 -1.15279 -1.4952 0
M  V30 4711 O 439.996 -0.172759 -1.8168 0
M  V30 4712 C 440.047 -3.51898 -0.827631 0
M  V30 4713 O 439.768 -4.37231 0.275855 0
M  V30 4714 C 441.269 -4.16577 -1.51587 0
M  V30 4715 H 438.489 -0.666335 -0.0789892 0
M  V30 4716 H 441.033 -2.00423 0.406294 0
M  V30 4717 H 439.188 -3.55909 -1.52996 0
M  V30 4718 H 439.602 -5.24415 -0.0943638 0
M  V30 4719 H 441.076 -5.21678 -1.80433 0
M  V30 4720 H 441.553 -3.64707 -2.44716 0
M  V30 4721 H 442.159 -4.16568 -0.857409 0
M  V30 4722 N 440.474 -0.00167713 -1.576 0
M  V30 4723 C 441.72 0.67819 -1.91761 0
M  V30 4724 C 442.075 1.71288 -0.876256 0
M  V30 4725 O 441.368 1.91276 0.111333 0
M  V30 4726 C 441.562 1.36189 -3.30435 0
M  V30 4727 C 441.391 0.394938 -4.47962 0
M  V30 4728 C 440.161 0.00472875 -5.053 0
M  V30 4729 C 442.359 -0.339521 -5.13178 0
M  V30 4730 N 440.341 -0.960257 -6.06343 0
M  V30 4731 C 441.712 -1.15914 -6.09068 0
M  V30 4732 C 443.767 -0.403177 -4.96265 0
M  V30 4733 C 442.47 -2.03661 -6.89866 0
M  V30 4734 C 444.496 -1.26788 -5.77649 0
M  V30 4735 C 443.858 -2.07535 -6.73134 0
M  V30 4736 H 439.957 0.221317 -0.750028 0
M  V30 4737 H 442.541 -0.0624182 -1.946 0
M  V30 4738 H 440.712 2.07278 -3.28467 0
M  V30 4739 H 442.444 1.99658 -3.52021 0
M  V30 4740 H 439.199 0.373452 -4.72125 0
M  V30 4741 H 439.623 -1.43817 -6.61548 0
M  V30 4742 H 444.265 0.206818 -4.22294 0
M  V30 4743 H 441.983 -2.65727 -7.63161 0
M  V30 4744 H 445.569 -1.32107 -5.66603 0
M  V30 4745 H 444.449 -2.73363 -7.35012 0
M  V30 4746 N 441.952 1.55251 0.271103 0
M  V30 4747 C 442.862 1.9136 1.35714 0
M  V30 4748 C 443.878 0.811075 1.5394 0
M  V30 4749 O 445.054 1.11031 1.6803 0
M  V30 4750 C 442.119 2.1798 2.69603 0
M  V30 4751 C 441.18 3.4153 2.60107 0
M  V30 4752 C 440.413 3.66871 3.8761 0
M  V30 4753 O 440.636 2.94689 4.8838 0
M  V30 4754 O 439.57 4.60405 3.87699 0
M  V30 4755 H 443.396 2.83815 1.08088 0
M  V30 4756 H 440.981 1.41821 0.469792 0
M  V30 4757 H 442.863 2.36518 3.48765 0
M  V30 4758 H 441.538 1.28708 2.97012 0
M  V30 4759 H 440.445 3.28325 1.79314 0
M  V30 4760 H 441.778 4.31027 2.37647 0
M  V30 4761 N 443.43 -0.535701 1.48216 0
M  V30 4762 C 444.67 -1.30238 1.57536 0
M  V30 4763 C 445.034 -1.90479 0.241229 0
M  V30 4764 O 446.235 -2.67983 0.20938 0
M  V30 4765 C 444.506 -2.3669 2.67792 0
M  V30 4766 S 446.065 -3.23159 2.9684 0
M  V30 4767 H 442.883 -0.443093 0.556048 0
M  V30 4768 H 445.485 -0.610937 1.85709 0
M  V30 4769 H 444.189 -1.90905 3.63296 0
M  V30 4770 H 443.72 -3.10548 2.41502 0
M  V30 4771 H 445.735 -4.36647 2.35699 0
M  V30 4772 N 444.908 -1.36708 -0.784132 0
M  V30 4773 C 446.156 -1.30972 -1.53918 0
M  V30 4774 C 446.477 0.109086 -1.94695 0
M  V30 4775 O 445.747 1.05048 -1.65353 0
M  V30 4776 H 444.327 -0.481819 -0.570841 0
M  V30 4777 H 446.989 -1.71063 -0.934002 0
M  V30 4778 H 446.085 -1.94061 -2.44431 0
M  V30 4779 N 446.386 1.0089 -1.21074 0
M  V30 4780 C 447.802 1.2695 -0.967257 0
M  V30 4781 C 448.002 1.9846 0.348673 0
M  V30 4782 O 447.058 2.28459 1.0753 0
M  V30 4783 C 448.371 2.09697 -2.15517 0
M  V30 4784 C 449.919 2.22937 -2.197 0
M  V30 4785 C 450.394 3.09064 -3.37999 0
M  V30 4786 N 451.885 3.16653 -3.38061 0
M  V30 4787 C 452.62 3.8354 -4.26245 0
M  V30 4788 N 452.116 4.52488 -5.2462 0
M  V30 4789 N 453.909 3.80141 -4.14064 0
M  V30 4790 H 446.06 0.529005 -2.05707 0
M  V30 4791 H 448.323 0.296148 -0.900556 0
M  V30 4792 H 448.029 1.64497 -3.10859 0
M  V30 4793 H 447.903 3.10444 -2.14253 0
M  V30 4794 H 450.29 2.67357 -1.24916 0
M  V30 4795 H 450.371 1.21673 -2.2501 0
M  V30 4796 H 450.015 2.65347 -4.33074 0
M  V30 4797 H 449.945 4.10433 -3.29928 0
M  V30 4798 H 452.436 2.67566 -2.66865 0
M  V30 4799 H 452.749 5.01219 -5.88217 0
M  V30 4800 H 451.094 4.51288 -5.28549 0
M  V30 4801 H 454.285 3.25427 -3.36474 0
M  V30 4802 H 454.458 4.31992 -4.82998 0
M  V30 4803 N 447.864 1.01787 1.20321 0
M  V30 4804 C 448.794 0.609625 2.25401 0
M  V30 4805 C 449.775 -0.375951 1.65893 0
M  V30 4806 O 450.96 -0.261101 1.92437 0
M  V30 4807 C 448.09 -0.0515995 3.47262 0
M  V30 4808 C 447.044 0.855095 4.19371 0
M  V30 4809 C 446.37 0.0595757 5.34667 0
M  V30 4810 C 447.67 2.16374 4.75373 0
M  V30 4811 H 449.364 1.48803 2.59804 0
M  V30 4812 H 446.91 0.716934 1.24884 0
M  V30 4813 H 448.863 -0.348764 4.19954 0
M  V30 4814 H 447.587 -0.964726 3.12027 0
M  V30 4815 H 446.246 1.13628 3.48546 0
M  V30 4816 H 445.894 -0.85524 4.95676 0
M  V30 4817 H 445.594 0.663406 5.83843 0
M  V30 4818 H 447.118 -0.231105 6.10162 0
M  V30 4819 H 448.532 1.92885 5.39878 0
M  V30 4820 H 446.929 2.71853 5.34991 0
M  V30 4821 H 447.999 2.82589 3.94045 0
M  V30 4822 N 449.342 -1.36122 0.79427 0
M  V30 4823 C 450.567 -2.03891 0.379871 0
M  V30 4824 C 450.992 -1.59488 -0.997251 0
M  V30 4825 O 450.35 -0.765652 -1.64339 0
M  V30 4826 C 450.398 -3.57687 0.457442 0
M  V30 4827 O 449.502 -4.08931 -0.5338 0
M  V30 4828 H 448.843 -0.6443 0.160541 0
M  V30 4829 H 451.373 -1.73976 1.07673 0
M  V30 4830 H 451.383 -4.06721 0.322792 0
M  V30 4831 H 450.058 -3.89357 1.46199 0
M  V30 4832 H 448.635 -3.71154 -0.360409 0
M  V30 4833 N 450.82 -0.546701 -1.47814 0
M  V30 4834 C 452.05 -0.0232519 -2.06587 0
M  V30 4835 C 452.458 1.2712 -1.40133 0
M  V30 4836 O 451.801 1.77091 -0.488305 0
M  V30 4837 C 451.863 0.254117 -3.58601 0
M  V30 4838 C 451.527 -0.949331 -4.47031 0
M  V30 4839 C 452.524 -1.85216 -4.85789 0
M  V30 4840 C 450.209 -1.16104 -4.88697 0
M  V30 4841 C 452.203 -2.95047 -5.65001 0
M  V30 4842 C 449.89 -2.26247 -5.67676 0
M  V30 4843 C 450.888 -3.1555 -6.05737 0
M  V30 4844 O 450.576 -4.23784 -6.83127 0
M  V30 4845 H 450.308 -0.0380082 -0.674931 0
M  V30 4846 H 452.862 -0.756631 -1.90956 0
M  V30 4847 H 451.092 1.04168 -3.72406 0
M  V30 4848 H 452.781 0.72167 -3.99433 0
M  V30 4849 H 453.547 -1.70061 -4.54207 0
M  V30 4850 H 449.426 -0.475159 -4.58545 0
M  V30 4851 H 452.97 -3.64778 -5.94628 0
M  V30 4852 H 448.867 -2.41379 -5.98671 0
M  V30 4853 H 449.635 -4.21701 -7.01506 0
M  V30 4854 N 452.299 1.55045 -0.282633 0
M  V30 4855 C 453.539 2.01668 0.333088 0
M  V30 4856 C 453.903 1.1667 1.52486 0
M  V30 4857 O 455.104 1.52907 2.21072 0
M  V30 4858 C 453.375 3.50509 0.698442 0
M  V30 4859 S 454.934 4.19112 1.29963 0
M  V30 4860 H 451.752 0.703468 0.103219 0
M  V30 4861 H 454.354 1.91233 -0.406222 0
M  V30 4862 H 453.058 4.10015 -0.177693 0
M  V30 4863 H 452.589 3.64943 1.46902 0
M  V30 4864 H 454.604 4.23362 2.58803 0
M  V30 4865 N 453.777 0.010035 1.57597 0
M  V30 4866 C 454.707 -0.976857 2.12084 0
M  V30 4867 C 455.688 -1.35191 1.03235 0
M  V30 4868 O 456.873 -1.43389 1.3097 0
M  V30 4869 C 454.003 -2.26548 2.63236 0
M  V30 4870 C 452.957 -2.03175 3.76701 0
M  V30 4871 C 452.283 -3.38138 4.14206 0
M  V30 4872 C 453.583 -1.38625 5.03568 0
M  V30 4873 H 455.277 -0.523145 2.94794 0
M  V30 4874 H 452.823 -0.250195 1.4181 0
M  V30 4875 H 454.776 -2.95952 2.99984 0
M  V30 4876 H 453.5 -2.74051 1.77661 0
M  V30 4877 H 452.159 -1.36195 3.40362 0
M  V30 4878 H 451.807 -3.83363 3.25641 0
M  V30 4879 H 451.507 -3.23312 4.90656 0
M  V30 4880 H 453.031 -4.08841 4.53521 0
M  V30 4881 H 454.445 -1.98 5.38023 0
M  V30 4882 H 452.842 -1.34256 5.84889 0
M  V30 4883 H 453.912 -0.356722 4.83586 0
M  V30 4884 N 455.255 -1.55392 -0.262866 0
M  V30 4885 C 456.165 -1.92077 -1.34698 0
M  V30 4886 C 457.181 -0.819227 -1.53508 0
M  V30 4887 O 458.357 -1.11921 -1.67439 0
M  V30 4888 C 455.422 -2.19407 -2.68443 0
M  V30 4889 C 454.483 -3.42905 -2.58292 0
M  V30 4890 C 453.716 -3.68921 -3.85659 0
M  V30 4891 O 453.939 -2.97275 -4.8681 0
M  V30 4892 O 452.873 -4.62455 -3.85252 0
M  V30 4893 H 456.699 -2.84384 -1.06581 0
M  V30 4894 H 454.284 -1.42069 -0.462264 0
M  V30 4895 H 456.166 -2.38365 -3.47506 0
M  V30 4896 H 454.841 -1.30282 -2.96325 0
M  V30 4897 H 453.748 -3.29272 -1.7757 0
M  V30 4898 H 455.081 -4.32282 -2.35358 0
M  V30 4899 N 456.733 0.527833 -1.48498 0
M  V30 4900 C 458.01 1.28905 -1.47115 0
M  V30 4901 C 458.39 2.10297 -0.184007 0
M  V30 4902 O 457.738 2.12728 0.834218 0
M  V30 4903 C 457.948 2.16866 -2.73441 0
M  V30 4904 C 459.296 2.76936 -3.21857 0
M  V30 4905 O 460.32 2.27152 -2.74373 0
M  V30 4906 O 459.179 3.67496 -4.04486 0
M  V30 4907 H 456.273 0.581918 -0.587623 0
M  V30 4908 H 458.819 0.544311 -1.60734 0
M  V30 4909 H 457.591 1.56521 -3.58632 0
M  V30 4910 H 457.214 2.98583 -2.62553 0
M  V30 4911 N 458.211 1.37122 0.776871 0
M  V30 4912 C 459.439 1.3523 1.5659 0
M  V30 4913 C 459.854 -0.0635518 1.88693 0
M  V30 4914 O 459.211 -1.02394 1.51069 0
M  V30 4915 C 459.262 2.18583 2.8793 0
M  V30 4916 O 458.983 3.5465 2.57206 0
M  V30 4917 C 460.484 2.24612 3.82183 0
M  V30 4918 H 457.704 0.4634 0.485285 0
M  V30 4919 H 460.248 1.80392 0.963266 0
M  V30 4920 H 458.403 1.76943 3.4463 0
M  V30 4921 H 458.817 3.98286 3.41275 0
M  V30 4922 H 460.291 2.87267 4.71361 0
M  V30 4923 H 460.768 1.25309 4.20944 0
M  V30 4924 H 461.374 2.66543 3.31414 0
M  V30 4925 N 459.689 -1.00246 1.21608 0
M  V30 4926 C 460.652 -2.07233 0.979133 0
M  V30 4927 C 461.652 -1.6072 -0.0508219 0
M  V30 4928 O 462.842 -1.73196 0.186712 0
M  V30 4929 C 459.974 -3.37546 0.477016 0
M  V30 4930 H 461.167 -2.29687 1.92831 0
M  V30 4931 H 458.72 -1.17261 1.03342 0
M  V30 4932 H 459.455 -3.20773 -0.476966 0
M  V30 4933 H 459.24 -3.72638 1.21997 0
M  V30 4934 H 460.73 -4.16285 0.331181 0
M  V30 4935 N 461.167 -1.02423 -1.1978 0
M  V30 4936 C 462.415 -0.716569 -1.8897 0
M  V30 4937 C 462.736 0.756769 -1.79716 0
M  V30 4938 O 462.006 1.5449 -1.20456 0
M  V30 4939 H 460.586 -0.262062 -0.699523 0
M  V30 4940 H 463.248 -1.29747 -1.45436 0
M  V30 4941 H 462.344 -1.00675 -2.95417 0
M  V30 4942 N 462.645 1.35699 -0.801477 0
M  V30 4943 C 463.893 1.9852 -0.37871 0
M  V30 4944 C 464.214 1.63907 1.05638 0
M  V30 4945 O 463.484 0.919013 1.73006 0
M  V30 4946 H 462.064 0.734322 -0.137042 0
M  V30 4947 H 464.726 1.65697 -1.02619 0
M  V30 4948 H 463.822 3.08382 -0.480284 0
M  V30 4949 N 464.123 0.554532 1.47522 0
M  V30 4950 C 465.37 0.029479 2.02479 0
M  V30 4951 C 465.698 -1.31929 1.42916 0
M  V30 4952 O 464.953 -1.87112 0.573385 0
M  V30 4953 C 465.252 -0.115927 3.57212 0
M  V30 4954 C 464.918 1.16161 4.3568 0
M  V30 4955 C 463.58 1.51168 4.56839 0
M  V30 4956 C 465.932 2.0083 4.80954 0
M  V30 4957 C 463.26 2.70696 5.2052 0
M  V30 4958 C 465.612 3.19559 5.45953 0
M  V30 4959 C 464.276 3.54882 5.65345 0
M  V30 4960 H 463.546 0.0107871 0.740921 0
M  V30 4961 H 466.193 0.725506 1.77225 0
M  V30 4962 H 464.498 -0.894902 3.81443 0
M  V30 4963 H 466.195 -0.53749 3.97381 0
M  V30 4964 H 462.785 0.879026 4.19489 0
M  V30 4965 H 466.969 1.75093 4.64388 0
M  V30 4966 H 462.225 2.98236 5.33728 0
M  V30 4967 H 466.399 3.85456 5.79997 0
M  V30 4968 H 464.026 4.47596 6.1446 0
M  V30 4969 N 465.601 -1.54893 0.290851 0
M  V30 4970 C 466.533 -2.20564 -0.623236 0
M  V30 4971 C 467.546 -1.19519 -1.1054 0
M  V30 4972 O 468.735 -1.46165 -1.02459 0
M  V30 4973 C 465.835 -2.83033 -1.86401 0
M  V30 4974 C 465.008 -4.09916 -1.52604 0
M  V30 4975 C 464.067 -4.56284 -2.62091 0
M  V30 4976 O 463.093 -5.2171 -2.27612 0
M  V30 4977 N 464.295 -4.27746 -3.92446 0
M  V30 4978 H 467.06 -2.99638 -0.0610915 0
M  V30 4979 H 464.621 -1.61508 0.112615 0
M  V30 4980 H 466.613 -3.1099 -2.58973 0
M  V30 4981 H 465.183 -2.0786 -2.33481 0
M  V30 4982 H 464.403 -3.89078 -0.633424 0
M  V30 4983 H 465.691 -4.92554 -1.27547 0
M  V30 4984 H 465.089 -3.7531 -4.23272 0
M  V30 4985 H 463.646 -4.60437 -4.61347 0
M  V30 4986 N 467.08 -0.0183926 -1.57589 0
M  V30 4987 C 468.012 0.995557 -2.06449 0
M  V30 4988 C 469.025 1.29556 -0.985849 0
M  V30 4989 O 470.214 1.2621 -1.26227 0
M  V30 4990 C 467.314 2.32572 -2.46502 0
M  V30 4991 C 466.487 2.21245 -3.77319 0
M  V30 4992 C 465.546 3.37104 -4.04039 0
M  V30 4993 O 464.572 3.14468 -4.74445 0
M  V30 4994 N 465.774 4.60553 -3.53372 0
M  V30 4995 H 468.539 0.578746 -2.94059 0
M  V30 4996 H 466.1 0.168603 -1.6102 0
M  V30 4997 H 468.092 3.08887 -2.61478 0
M  V30 4998 H 466.662 2.65931 -1.64315 0
M  V30 4999 H 465.882 1.29723 -3.72244 0
M  V30 5000 H 467.17 2.10868 -4.63047 0
M  V30 5001 H 466.568 4.81839 -2.96391 0
M  V30 5002 H 465.125 5.34072 -3.73644 0
M  V30 5003 N 468.558 1.5553 0.254621 0
M  V30 5004 C 469.488 1.9268 1.31897 0
M  V30 5005 C 470.469 0.790797 1.506 0
M  V30 5006 O 471.654 1.05045 1.63337 0
M  V30 5007 C 468.784 2.21477 2.67517 0
M  V30 5008 C 467.738 3.37256 2.63519 0
M  V30 5009 C 467.064 3.51576 4.02862 0
M  V30 5010 C 468.364 4.73157 2.21179 0
M  V30 5011 H 470.058 2.81832 1.01051 0
M  V30 5012 H 467.604 1.35599 0.484662 0
M  V30 5013 H 469.557 2.46055 3.42104 0
M  V30 5014 H 468.281 1.29144 2.99982 0
M  V30 5015 H 466.94 3.12675 1.9139 0
M  V30 5016 H 466.588 2.56676 4.32581 0
M  V30 5017 H 466.288 4.2943 4.01078 0
M  V30 5018 H 467.812 3.78467 4.79161 0
M  V30 5019 H 469.226 4.97158 2.85494 0
M  V30 5020 H 467.623 5.54058 2.30521 0
M  V30 5021 H 468.693 4.70739 1.16332 0
M  V30 5022 N 470.036 -0.519951 1.48776 0
M  V30 5023 C 470.966 -1.63253 1.66945 0
M  V30 5024 C 471.947 -1.62014 0.518224 0
M  V30 5025 O 473.132 -1.79053 0.751919 0
M  V30 5026 C 470.262 -3.0181 1.71836 0
M  V30 5027 C 469.216 -3.17911 2.8656 0
M  V30 5028 C 468.542 -4.5763 2.76548 0
M  V30 5029 C 469.842 -2.99729 4.27738 0
M  V30 5030 H 471.536 -1.48302 2.6009 0
M  V30 5031 H 469.082 -0.712026 1.25165 0
M  V30 5032 H 471.035 -3.79525 1.83135 0
M  V30 5033 H 469.759 -3.17806 0.752775 0
M  V30 5034 H 468.418 -2.42616 2.74833 0
M  V30 5035 H 468.066 -4.70476 1.77937 0
M  V30 5036 H 467.766 -4.69346 3.53536 0
M  V30 5037 H 469.29 -5.37431 2.89828 0
M  V30 5038 H 470.704 -3.67228 4.40246 0
M  V30 5039 H 469.101 -3.22932 5.05801 0
M  V30 5040 H 470.171 -1.96047 4.43502 0
M  V30 5041 N 471.514 -1.37532 -0.769588 0
M  V30 5042 C 472.444 -1.36172 -1.89682 0
M  V30 5043 C 473.425 -0.23001 -1.68538 0
M  V30 5044 O 474.61 -0.43069 -1.89364 0
M  V30 5045 C 471.74 -1.1701 -3.26995 0
M  V30 5046 C 470.694 -2.27216 -3.62708 0
M  V30 5047 C 470.02 -1.93174 -4.98586 0
M  V30 5048 C 471.32 -3.6941 -3.69234 0
M  V30 5049 H 473.014 -2.30499 -1.91078 0
M  V30 5050 H 470.56 -1.10953 -0.917902 0
M  V30 5051 H 472.513 -1.14688 -4.05493 0
M  V30 5052 H 471.237 -0.191395 -3.26039 0
M  V30 5053 H 469.896 -2.28697 -2.86519 0
M  V30 5054 H 469.544 -0.938281 -4.94171 0
M  V30 5055 H 469.244 -2.66973 -5.23449 0
M  V30 5056 H 470.768 -1.92443 -5.79481 0
M  V30 5057 H 472.182 -3.70047 -4.37879 0
M  V30 5058 H 470.579 -4.4228 -4.05597 0
M  V30 5059 H 471.649 -4.0288 -2.69844 0
M  V30 5060 N 472.992 0.995999 -1.22138 0
M  V30 5061 C 473.902 2.11985 -1.00496 0
M  V30 5062 C 474.918 1.7394 0.0457701 0
M  V30 5063 O 476.094 2.00868 -0.146273 0
M  V30 5064 C 473.159 3.41779 -0.582086 0
M  V30 5065 C 472.22 3.93943 -1.70608 0
M  V30 5066 C 471.453 5.17542 -1.30328 0
M  V30 5067 O 471.676 5.70114 -0.180743 0
M  V30 5068 O 470.61 5.63382 -2.11861 0
M  V30 5069 H 474.436 2.33123 -1.94647 0
M  V30 5070 H 472.021 1.10358 -1.00705 0
M  V30 5071 H 473.903 4.1989 -0.356467 0
M  V30 5072 H 472.578 3.22007 0.330592 0
M  V30 5073 H 471.485 3.17019 -1.98619 0
M  V30 5074 H 472.818 4.18141 -2.59651 0
M  V30 5075 N 474.47 1.03057 1.19235 0
M  V30 5076 C 475.881 0.757449 1.70645 0
M  V30 5077 C 476.232 -0.722735 1.82403 0
M  V30 5078 O 475.357 -1.56325 1.49638 0
M  V30 5079 C 475.952 1.36833 3.09939 0
M  V30 5080 C 474.511 1.14375 3.58602 0
M  V30 5081 C 473.658 1.46533 2.35422 0
M  V30 5082 H 476.609 1.19828 1.04052 0
M  V30 5083 H 476.63 0.766184 3.72706 0
M  V30 5084 H 476.142 2.44562 3.01349 0
M  V30 5085 H 474.243 0.0847542 3.72504 0
M  V30 5086 H 474.356 1.83366 4.42622 0
M  V30 5087 H 472.72 0.884712 2.38841 0
M  V30 5088 H 473.503 2.55349 2.2946 0
M  V30 5089 N 475.948 -1.35272 0.808662 0
M  V30 5090 C 476.881 -2.27595 0.165994 0
M  V30 5091 C 477.859 -1.48189 -0.669241 0
M  V30 5092 O 479.043 -1.77444 -0.636073 0
M  V30 5093 C 476.17 -3.29843 -0.769505 0
M  V30 5094 C 475.216 -4.26498 -0.0136267 0
M  V30 5095 S 476.049 -5.18878 1.32384 0
M  V30 5096 C 477.205 -6.24666 0.392838 0
M  V30 5097 H 477.438 -2.81755 0.948756 0
M  V30 5098 H 474.971 -1.42103 0.603828 0
M  V30 5099 H 476.929 -3.89247 -1.30374 0
M  V30 5100 H 475.59 -2.74558 -1.52567 0
M  V30 5101 H 474.783 -4.98769 -0.724227 0
M  V30 5102 H 474.385 -3.71274 0.450713 0
M  V30 5103 H 476.677 -6.7619 -0.4211 0
M  V30 5104 H 477.62 -6.99741 1.0848 0
M  V30 5105 H 478.028 -5.64499 -0.0123908 0
M  V30 5106 N 477.426 -0.562348 -1.47226 0
M  V30 5107 C 478.356 0.170627 -2.32876 0
M  V30 5108 C 479.337 0.903748 -1.44106 0
M  V30 5109 O 480.522 0.883206 -1.72954 0
M  V30 5110 C 477.652 1.19786 -3.25989 0
M  V30 5111 C 476.606 0.580875 -4.2404 0
M  V30 5112 C 475.932 1.71311 -5.06514 0
M  V30 5113 C 477.232 -0.468714 -5.20193 0
M  V30 5114 H 478.926 -0.544441 -2.94408 0
M  V30 5115 H 476.472 -0.263271 -1.41573 0
M  V30 5116 H 478.425 1.71884 -3.84752 0
M  V30 5117 H 477.149 1.94294 -2.62521 0
M  V30 5118 H 475.808 0.0811538 -3.6651 0
M  V30 5119 H 475.456 2.44736 -4.39447 0
M  V30 5120 H 475.156 1.30604 -5.72902 0
M  V30 5121 H 476.68 2.23725 -5.68137 0
M  V30 5122 H 478.094 -0.0336028 -5.7329 0
M  V30 5123 H 476.491 -0.794957 -5.94811 0
M  V30 5124 H 477.561 -1.36269 -4.65359 0
M  V30 5125 N 478.904 1.54736 -0.299062 0
M  V30 5126 C 479.851 2.23448 0.577899 0
M  V30 5127 C 480.821 1.21637 1.13109 0
M  V30 5128 O 482.006 1.50252 1.17597 0
M  V30 5129 C 479.146 2.9774 1.74484 0
M  V30 5130 C 478.259 4.1432 1.22323 0
M  V30 5131 C 477.394 4.76199 2.35388 0
M  V30 5132 C 476.433 5.84927 1.80351 0
M  V30 5133 N 475.57 6.4077 2.86982 0
M  V30 5134 H 480.41 2.97996 -0.0146545 0
M  V30 5135 H 477.947 1.47088 -0.0190013 0
M  V30 5136 H 479.905 3.39045 2.43114 0
M  V30 5137 H 478.535 2.25572 2.30905 0
M  V30 5138 H 477.587 3.7797 0.429249 0
M  V30 5139 H 478.899 4.92659 0.780309 0
M  V30 5140 H 478.053 5.20346 3.11969 0
M  V30 5141 H 476.792 3.97188 2.83006 0
M  V30 5142 H 475.797 5.40207 1.02259 0
M  V30 5143 H 477.022 6.65821 1.3364 0
M  V30 5144 H 474.968 5.64643 3.33938 0
M  V30 5145 H 474.885 7.1445 2.4718 0
M  V30 5146 H 476.153 6.89574 3.63466 0
M  V30 5147 N 480.382 0.0267497 1.57577 0
M  V30 5148 C 481.629 -0.652404 1.91703 0
M  V30 5149 C 481.957 -1.72271 0.902936 0
M  V30 5150 O 481.212 -1.955 -0.0884843 0
M  V30 5151 C 481.511 -1.30914 3.3256 0
M  V30 5152 C 481.177 -0.369441 4.49384 0
M  V30 5153 C 479.839 -0.110791 4.81072 0
M  V30 5154 C 482.191 0.275971 5.20469 0
M  V30 5155 C 479.519 0.801116 5.81205 0
M  V30 5156 C 481.871 1.17592 6.21575 0
M  V30 5157 C 480.535 1.44348 6.51705 0
M  V30 5158 H 479.805 -0.238732 0.70149 0
M  V30 5159 H 482.452 0.0880091 1.91298 0
M  V30 5160 H 480.757 -2.12425 3.29216 0
M  V30 5161 H 482.454 -1.84115 3.56234 0
M  V30 5162 H 479.044 -0.581211 4.24641 0
M  V30 5163 H 483.228 0.0892 4.9622 0
M  V30 5164 H 478.484 1.01614 6.02897 0
M  V30 5165 H 482.658 1.68223 6.75777 0
M  V30 5166 H 480.285 2.15176 7.29111 0
M  V30 5167 N 481.861 -1.55662 -0.24637 0
M  V30 5168 C 482.811 -1.86753 -1.30795 0
M  V30 5169 C 483.795 -0.728445 -1.43466 0
M  V30 5170 O 484.987 -0.99038 -1.46699 0
M  V30 5171 C 482.116 -2.16618 -2.66329 0
M  V30 5172 C 481.202 -3.36855 -2.57661 0
M  V30 5173 N 481.593 -4.56111 -2.18624 0
M  V30 5174 C 479.891 -3.39976 -2.88673 0
M  V30 5175 C 480.592 -5.38247 -2.20601 0
M  V30 5176 N 479.568 -4.77322 -2.60124 0
M  V30 5177 H 483.37 -2.76486 -0.996642 0
M  V30 5178 H 480.884 -1.55896 -0.454994 0
M  V30 5179 H 482.881 -2.37057 -3.42942 0
M  V30 5180 H 481.541 -1.28185 -2.98327 0
M  V30 5181 H 482.552 -4.81726 -1.9016 0
M  V30 5182 H 479.229 -2.61815 -3.25206 0
M  V30 5183 H 480.619 -6.43657 -1.92756 0
M  V30 5184 N 483.339 0.512053 -1.4905 0
M  V30 5185 C 484.569 1.28928 -1.61434 0
M  V30 5186 C 484.977 1.87107 -0.280647 0
M  V30 5187 O 484.32 1.68024 0.742537 0
M  V30 5188 C 484.382 2.466 -2.61588 0
M  V30 5189 C 484.046 2.09375 -4.06216 0
M  V30 5190 C 485.043 1.63994 -4.93358 0
M  V30 5191 C 482.728 2.19348 -4.51876 0
M  V30 5192 C 484.722 1.29076 -6.24194 0
M  V30 5193 C 482.409 1.84041 -5.82728 0
M  V30 5194 C 483.407 1.38978 -6.68711 0
M  V30 5195 O 483.095 1.04144 -7.97126 0
M  V30 5196 H 482.827 0.397668 -0.546659 0
M  V30 5197 H 485.381 0.622507 -1.9574 0
M  V30 5198 H 483.611 3.16318 -2.22441 0
M  V30 5199 H 485.3 3.08642 -2.63619 0
M  V30 5200 H 486.066 1.55744 -4.59313 0
M  V30 5201 H 481.945 2.53376 -3.85125 0
M  V30 5202 H 485.489 0.938303 -6.91261 0
M  V30 5203 H 481.386 1.91938 -6.16304 0
M  V30 5204 H 482.154 1.17387 -8.10039 0
M  V30 5205 N 484.817 1.37938 0.762283 0
M  V30 5206 C 485.75 1.2884 1.88349 0
M  V30 5207 C 486.728 0.167084 1.61739 0
M  V30 5208 O 487.912 0.34292 1.85355 0
M  V30 5209 C 485.039 0.994257 3.23778 0
M  V30 5210 C 484.085 2.13376 3.69287 0
M  V30 5211 S 484.918 3.75439 3.81845 0
M  V30 5212 C 486.074 3.48195 5.20107 0
M  V30 5213 H 486.307 2.23736 1.95779 0
M  V30 5214 H 483.84 1.23672 0.924368 0
M  V30 5215 H 485.798 0.83138 4.01993 0
M  V30 5216 H 484.459 0.0626251 3.14038 0
M  V30 5217 H 483.652 1.88319 4.67495 0
M  V30 5218 H 483.254 2.25726 2.98201 0
M  V30 5219 H 485.546 3.0377 6.05583 0
M  V30 5220 H 486.489 4.45765 5.50181 0
M  V30 5221 H 486.897 2.82905 4.88493 0
M  V30 5222 N 486.295 -0.989507 1.22664 0
M  V30 5223 C 487.225 -2.09847 1.02404 0
M  V30 5224 C 488.206 -1.70007 -0.0561303 0
M  V30 5225 O 489.391 -1.93906 0.106748 0
M  V30 5226 C 486.521 -3.41996 0.604663 0
M  V30 5227 C 485.475 -3.95699 1.63115 0
M  V30 5228 C 484.801 -5.23936 1.0675 0
M  V30 5229 C 486.101 -4.25999 3.02196 0
M  V30 5230 H 487.795 -2.27054 1.95158 0
M  V30 5231 H 485.341 -1.09111 0.939727 0
M  V30 5232 H 487.294 -4.1899 0.45002 0
M  V30 5233 H 486.018 -3.24626 -0.35855 0
M  V30 5234 H 484.677 -3.2084 1.77362 0
M  V30 5235 H 484.325 -5.02909 0.0955422 0
M  V30 5236 H 484.025 -5.60833 1.75328 0
M  V30 5237 H 485.549 -6.0356 0.924516 0
M  V30 5238 H 486.963 -4.93777 2.91303 0
M  V30 5239 H 485.36 -4.74076 3.67929 0
M  V30 5240 H 486.43 -3.33636 3.51873 0
M  V30 5241 N 487.773 -1.03688 -1.18687 0
M  V30 5242 C 488.72 -0.624624 -2.22187 0
M  V30 5243 C 489.69 0.365636 -1.62026 0
M  V30 5244 O 490.875 0.260481 -1.89014 0
M  V30 5245 C 488.015 0.0101738 -3.45099 0
M  V30 5246 C 487.128 -1.02709 -4.19613 0
M  V30 5247 C 486.263 -0.361213 -5.2997 0
M  V30 5248 C 485.302 -1.38384 -5.96252 0
M  V30 5249 N 484.439 -0.743196 -6.98155 0
M  V30 5250 H 489.279 -1.51176 -2.56807 0
M  V30 5251 H 486.816 -0.75636 -1.26165 0
M  V30 5252 H 488.774 0.395528 -4.15321 0
M  V30 5253 H 487.404 0.860848 -3.1111 0
M  V30 5254 H 486.456 -1.53043 -3.48256 0
M  V30 5255 H 487.768 -1.80398 -4.65036 0
M  V30 5256 H 486.922 0.0785537 -6.06649 0
M  V30 5257 H 485.661 0.447799 -4.8564 0
M  V30 5258 H 484.666 -1.83378 -5.18317 0
M  V30 5259 H 485.891 -2.19448 -6.42666 0
M  V30 5260 H 483.837 0.0455789 -6.55984 0
M  V30 5261 H 483.754 -1.45784 -7.41811 0
M  V30 5262 H 485.022 -0.327698 -7.78811 0
M  V30 5263 N 489.251 1.34841 -0.815825 0
M  V30 5264 C 490.198 2.29644 -0.230664 0
M  V30 5265 C 491.168 1.53253 0.640533 0
M  V30 5266 O 492.353 1.81653 0.583672 0
M  V30 5267 C 489.493 3.39715 0.607275 0
M  V30 5268 C 488.606 4.31056 -0.28538 0
M  V30 5269 C 487.741 5.28225 0.561446 0
M  V30 5270 C 486.78 6.11204 -0.331035 0
M  V30 5271 N 485.917 7.00483 0.476302 0
M  V30 5272 H 490.757 2.79095 -1.0445 0
M  V30 5273 H 488.294 1.37351 -0.526595 0
M  V30 5274 H 490.252 4.02208 1.10835 0
M  V30 5275 H 488.882 2.91517 1.38629 0
M  V30 5276 H 487.934 3.69487 -0.904621 0
M  V30 5277 H 489.246 4.89239 -0.97193 0
M  V30 5278 H 488.4 5.96135 1.12728 0
M  V30 5279 H 487.139 4.70562 1.28153 0
M  V30 5280 H 486.144 5.42232 -0.909069 0
M  V30 5281 H 487.369 6.70947 -1.04912 0
M  V30 5282 H 485.315 6.45296 1.18019 0
M  V30 5283 H 485.232 7.55847 -0.152008 0
M  V30 5284 H 486.5 7.7273 1.02512 0
M  V30 5285 N 490.729 0.570148 1.46925 0
M  V30 5286 C 491.659 -0.158274 2.32963 0
M  V30 5287 C 492.64 -0.896093 1.44583 0
M  V30 5288 O 493.825 -0.874022 1.7342 0
M  V30 5289 C 490.955 -1.18055 3.26619 0
M  V30 5290 C 489.909 -0.558379 4.24342 0
M  V30 5291 C 489.235 -1.68623 5.07415 0
M  V30 5292 C 490.535 0.496295 5.19937 0
M  V30 5293 H 492.229 0.560046 2.94115 0
M  V30 5294 H 489.775 0.270775 1.41431 0
M  V30 5295 H 491.728 -1.69841 3.85658 0
M  V30 5296 H 490.452 -1.92899 2.63548 0
M  V30 5297 H 489.111 -0.0617157 3.66548 0
M  V30 5298 H 488.759 -2.42402 4.40738 0
M  V30 5299 H 488.459 -1.27564 5.73586 0
M  V30 5300 H 489.983 -2.20709 5.69315 0
M  V30 5301 H 491.397 0.0640052 5.73264 0
M  V30 5302 H 489.794 0.82649 5.94381 0
M  V30 5303 H 490.864 1.38735 4.6463 0
M  V30 5304 N 492.207 -1.54576 0.307264 0
M  V30 5305 C 493.139 -2.21212 -0.599807 0
M  V30 5306 C 494.152 -1.20685 -1.09266 0
M  V30 5307 O 495.341 -1.47244 -1.00903 0
M  V30 5308 C 492.441 -2.84994 -1.83389 0
M  V30 5309 C 491.614 -4.11511 -1.48248 0
M  V30 5310 C 490.673 -4.59038 -2.57237 0
M  V30 5311 O 489.699 -5.24095 -2.22065 0
M  V30 5312 N 490.901 -4.31884 -3.87887 0
M  V30 5313 H 493.666 -2.99686 -0.0293075 0
M  V30 5314 H 491.227 -1.61379 0.129738 0
M  V30 5315 H 493.219 -3.1372 -2.5566 0
M  V30 5316 H 491.789 -2.10324 -2.31263 0
M  V30 5317 H 491.009 -3.89728 -0.592122 0
M  V30 5318 H 492.297 -4.93879 -1.22316 0
M  V30 5319 H 491.695 -3.79778 -4.19268 0
M  V30 5320 H 490.252 -4.65304 -4.56438 0
M  V30 5321 N 493.685 -0.035106 -1.57561 0
M  V30 5322 C 494.615 0.942993 -2.13612 0
M  V30 5323 C 495.596 1.33531 -1.05373 0
M  V30 5324 O 496.781 1.41287 -1.33235 0
M  V30 5325 C 493.911 2.22332 -2.66807 0
M  V30 5326 C 492.865 1.97156 -3.79886 0
M  V30 5327 C 492.191 3.31506 -4.19533 0
M  V30 5328 C 493.491 1.30596 -5.05709 0
M  V30 5329 H 495.185 0.476179 -2.95589 0
M  V30 5330 H 492.731 0.227602 -1.4219 0
M  V30 5331 H 494.684 2.91142 -3.04654 0
M  V30 5332 H 493.408 2.7119 -1.81999 0
M  V30 5333 H 492.067 1.30763 -3.42486 0
M  V30 5334 H 491.715 3.78134 -3.31698 0
M  V30 5335 H 491.415 3.15465 -4.95738 0
M  V30 5336 H 492.939 4.01574 -4.59968 0
M  V30 5337 H 494.353 1.89416 -5.41105 0
M  V30 5338 H 492.75 1.24934 -5.86951 0
M  V30 5339 H 493.82 0.279742 -4.84092 0
M  V30 5340 N 495.163 1.55791 0.238111 0
M  V30 5341 C 496.113 1.87444 1.29803 0
M  V30 5342 C 497.097 0.736043 1.43078 0
M  V30 5343 O 498.289 0.998146 1.46171 0
M  V30 5344 C 495.418 2.18028 2.65177 0
M  V30 5345 C 494.504 3.38217 2.55871 0
M  V30 5346 N 494.895 4.57264 2.16202 0
M  V30 5347 C 493.193 3.41502 2.86866 0
M  V30 5348 C 493.894 5.3941 2.17744 0
M  V30 5349 N 492.87 4.78695 2.57589 0
M  V30 5350 H 496.672 2.7701 0.981965 0
M  V30 5351 H 494.186 1.56135 0.44672 0
M  V30 5352 H 496.183 2.38873 3.4168 0
M  V30 5353 H 494.843 1.29765 2.97643 0
M  V30 5354 H 495.854 4.82727 1.87602 0
M  V30 5355 H 492.531 2.63536 3.23813 0
M  V30 5356 H 493.921 6.44671 1.89339 0
M  V30 5357 N 496.642 -0.504142 1.49319 0
M  V30 5358 C 497.552 -1.63248 1.68486 0
M  V30 5359 C 498.568 -1.64488 0.567432 0
M  V30 5360 O 499.744 -1.82966 0.841749 0
M  V30 5361 C 496.809 -2.99627 1.74426 0
M  V30 5362 C 495.87 -3.09039 2.97982 0
M  V30 5363 C 495.103 -4.38913 3.0363 0
M  V30 5364 O 495.326 -5.27528 2.16958 0
M  V30 5365 O 494.26 -4.53231 3.96062 0
M  V30 5366 H 498.086 -1.50008 2.64067 0
M  V30 5367 H 495.671 -0.680086 1.33023 0
M  V30 5368 H 497.553 -3.80689 1.80705 0
M  V30 5369 H 496.228 -3.13136 0.820233 0
M  V30 5370 H 495.135 -2.27177 2.97223 0
M  V30 5371 H 496.468 -3.00456 3.89855 0
M  V30 5372 N 498.12 -1.38341 -0.754957 0
M  V30 5373 C 499.03 -1.3769 -1.89944 0
M  V30 5374 C 500.046 -0.274194 -1.71826 0
M  V30 5375 O 501.222 -0.512391 -1.94773 0
M  V30 5376 C 498.287 -1.19938 -3.25293 0
M  V30 5377 C 497.348 -2.40001 -3.55946 0
M  V30 5378 C 496.581 -2.23087 -4.84838 0
M  V30 5379 O 496.804 -1.22386 -5.57116 0
M  V30 5380 O 495.738 -3.11646 -5.14937 0
M  V30 5381 H 499.564 -2.3412 -1.93446 0
M  V30 5382 H 497.149 -1.19246 -0.900044 0
M  V30 5383 H 499.031 -1.12093 -4.06218 0
M  V30 5384 H 497.706 -0.265919 -3.22606 0
M  V30 5385 H 496.613 -2.53421 -2.75188 0
M  V30 5386 H 497.946 -3.31973 -3.63394 0
M  V30 5387 N 499.598 0.982988 -1.23187 0
M  V30 5388 C 500.508 2.10907 -1.02739 0
M  V30 5389 C 501.524 1.73979 0.0273188 0
M  V30 5390 O 502.7 2.00702 -0.16757 0
M  V30 5391 C 499.765 3.41142 -0.618304 0
M  V30 5392 C 498.826 3.92112 -1.74777 0
M  V30 5393 C 498.059 5.16131 -1.3581 0
M  V30 5394 O 498.282 5.6989 -0.241201 0
M  V30 5395 O 497.216 5.61103 -2.17824 0
M  V30 5396 H 501.042 2.31046 -1.97108 0
M  V30 5397 H 498.627 1.09284 -1.01869 0
M  V30 5398 H 500.509 4.19488 -0.400982 0
M  V30 5399 H 499.184 3.2234 0.296421 0
M  V30 5400 H 498.091 3.14895 -2.0197 0
M  V30 5401 H 499.424 4.15364 -2.64071 0
M  V30 5402 N 501.076 1.04316 1.18135 0
M  V30 5403 C 502.306 0.767003 1.91835 0
M  V30 5404 C 502.714 -0.68002 1.76557 0
M  V30 5405 O 502.057 -1.47548 1.09432 0
M  V30 5406 C 502.119 1.05674 3.43618 0
M  V30 5407 C 501.783 2.49818 3.82675 0
M  V30 5408 C 502.78 3.48003 3.86251 0
M  V30 5409 C 500.465 2.84596 4.13897 0
M  V30 5410 C 502.459 4.79016 4.20503 0
M  V30 5411 C 500.146 4.15813 4.4782 0
M  V30 5412 C 501.144 5.12834 4.51099 0
M  V30 5413 O 500.832 6.41699 4.84229 0
M  V30 5414 H 500.564 0.278948 0.615763 0
M  V30 5415 H 503.118 1.3946 1.50798 0
M  V30 5416 H 501.348 0.372029 3.84906 0
M  V30 5417 H 503.037 0.767994 3.98568 0
M  V30 5418 H 503.803 3.22475 3.62264 0
M  V30 5419 H 499.682 2.09748 4.1052 0
M  V30 5420 H 503.226 5.54739 4.22978 0
M  V30 5421 H 499.123 4.41109 4.71268 0
M  V30 5422 H 499.891 6.46387 5.02121 0
M  V30 5423 N 502.554 -1.34406 0.822964 0
M  V30 5424 C 503.8 -1.98578 0.411666 0
M  V30 5425 C 504.133 -1.65093 -1.02264 0
M  V30 5426 O 503.408 -0.92258 -1.71227 0
M  V30 5427 C 503.691 -3.54823 0.614235 0
M  V30 5428 C 503.544 -3.9805 2.09466 0
M  V30 5429 C 504.863 -4.40071 0.050221 0
M  V30 5430 H 501.982 -0.721355 0.151047 0
M  V30 5431 H 504.624 -1.59301 1.03554 0
M  V30 5432 H 502.774 -3.88411 0.0831774 0
M  V30 5433 H 504.446 -3.74795 2.68936 0
M  V30 5434 H 502.689 -3.4836 2.5851 0
M  V30 5435 H 503.36 -5.06819 2.18721 0
M  V30 5436 H 505.836 -4.13037 0.503953 0
M  V30 5437 H 504.712 -5.48452 0.221759 0
M  V30 5438 H 504.973 -4.29576 -1.04482 0
M  V30 5439 N 504.032 -0.577932 -1.46621 0
M  V30 5440 C 504.962 0.145917 -2.33044 0
M  V30 5441 C 505.943 0.888412 -1.45056 0
M  V30 5442 O 507.128 0.864812 -1.73881 0
M  V30 5443 C 504.258 1.16322 -3.27241 0
M  V30 5444 C 503.212 0.535868 -4.24632 0
M  V30 5445 C 502.538 1.65929 -5.08303 0
M  V30 5446 C 503.838 -0.523861 -5.19666 0
M  V30 5447 H 505.532 -0.575636 -2.93814 0
M  V30 5448 H 503.078 -0.278272 -1.41286 0
M  V30 5449 H 505.031 1.67793 -3.86553 0
M  V30 5450 H 503.755 1.91498 -2.64567 0
M  V30 5451 H 502.414 0.0422759 -3.66576 0
M  V30 5452 H 502.062 2.40061 -4.42018 0
M  V30 5453 H 501.762 1.2452 -5.74255 0
M  V30 5454 H 503.286 2.17686 -5.70478 0
M  V30 5455 H 504.7 -0.0944059 -5.73222 0
M  V30 5456 H 503.097 -0.858 -5.93935 0
M  V30 5457 H 504.167 -1.41197 -4.63887 0
M  V30 5458 N 505.51 1.54411 -0.315457 0
M  V30 5459 C 506.443 2.20265 0.596522 0
M  V30 5460 C 507.421 1.17693 1.12192 0
M  V30 5461 O 508.605 1.46397 1.18744 0
M  V30 5462 C 505.732 2.85794 1.81767 0
M  V30 5463 C 504.778 4.02017 1.42424 0
M  V30 5464 S 505.611 5.33452 0.467836 0
M  V30 5465 C 506.767 6.02471 1.69645 0
M  V30 5466 H 507 2.97277 0.0370896 0
M  V30 5467 H 504.533 1.54079 -0.0995562 0
M  V30 5468 H 506.491 3.24172 2.51839 0
M  V30 5469 H 505.152 2.08601 2.34828 0
M  V30 5470 H 504.345 4.46701 2.33396 0
M  V30 5471 H 503.947 3.65271 0.803311 0
M  V30 5472 H 506.239 6.24157 2.63504 0
M  V30 5473 H 507.182 6.96215 1.29192 0
M  V30 5474 H 507.59 5.32284 1.87974 0
M  V30 5475 N 506.988 0.0434614 1.5754 0
M  V30 5476 C 507.92 -0.962586 2.08007 0
M  V30 5477 C 508.933 -1.27972 1.00634 0
M  V30 5478 O 510.122 -1.24186 1.28219 0
M  V30 5479 C 507.222 -2.28621 2.50171 0
M  V30 5480 C 506.395 -2.15214 3.80791 0
M  V30 5481 C 505.454 -3.30633 4.09351 0
M  V30 5482 O 504.48 -3.0688 4.79388 0
M  V30 5483 N 505.682 -4.54873 3.60654 0
M  V30 5484 H 508.447 -0.531891 2.94942 0
M  V30 5485 H 506.008 -0.142965 1.61268 0
M  V30 5486 H 508 -3.04689 2.66359 0
M  V30 5487 H 506.57 -2.63283 1.68525 0
M  V30 5488 H 505.79 -1.23785 3.74261 0
M  V30 5489 H 507.078 -2.03475 4.66343 0
M  V30 5490 H 506.476 -4.77063 3.04019 0
M  V30 5491 H 505.033 -5.2806 3.82094 0
M  V30 5492 N 508.466 -1.55915 -0.229846 0
M  V30 5493 C 509.429 -1.90914 -1.26824 0
M  V30 5494 C 510.429 -0.786999 -1.40225 0
M  V30 5495 O 511.619 -1.05484 -1.38632 0
M  V30 5496 C 508.751 -2.15264 -2.64337 0
M  V30 5497 H 509.944 -2.8378 -0.969998 0
M  V30 5498 H 507.497 -1.49069 -0.4699 0
M  V30 5499 H 508.232 -1.24923 -2.99274 0
M  V30 5500 H 508.017 -2.97005 -2.55989 0
M  V30 5501 H 509.507 -2.43467 -3.39284 0
M  V30 5502 N 509.944 0.496216 -1.49584 0
M  V30 5503 C 511.193 1.24668 -1.58558 0
M  V30 5504 C 511.506 1.9359 -0.279703 0
M  V30 5505 O 512.712 2.70365 -0.248048 0
M  V30 5506 C 511.168 2.26388 -2.79779 0
M  V30 5507 C 510.776 1.63384 -4.17145 0
M  V30 5508 C 512.52 3.02233 -2.98086 0
M  V30 5509 C 510.427 2.63243 -5.29582 0
M  V30 5510 H 509.357 0.468995 -0.590389 0
M  V30 5511 H 512.008 0.519985 -1.75978 0
M  V30 5512 H 510.39 3.02241 -2.55863 0
M  V30 5513 H 511.564 0.93491 -4.51216 0
M  V30 5514 H 509.879 0.999121 -4.04236 0
M  V30 5515 H 512.476 3.76919 -3.79257 0
M  V30 5516 H 512.819 3.60132 -2.08831 0
M  V30 5517 H 513.352 2.33495 -3.22063 0
M  V30 5518 H 510.091 2.10119 -6.20911 0
M  V30 5519 H 509.611 3.31363 -4.99959 0
M  V30 5520 H 511.29 3.25575 -5.59115 0
M  V30 5521 N 511.423 1.38739 0.74761 0
M  V30 5522 C 512.648 1.38702 1.54197 0
M  V30 5523 C 513.073 -0.019664 1.8809 0
M  V30 5524 O 512.431 -1.00333 1.51006 0
M  V30 5525 C 512.479 2.25492 2.814 0
M  V30 5526 O 511.583 1.67613 3.76802 0
M  V30 5527 H 510.924 0.472863 0.466151 0
M  V30 5528 H 513.454 1.82577 0.923413 0
M  V30 5529 H 513.464 2.39561 3.30264 0
M  V30 5530 H 512.139 3.27727 2.56062 0
M  V30 5531 H 510.716 1.62718 3.35526 0
M  V30 5532 N 512.901 -0.976442 1.23707 0
M  V30 5533 C 513.831 -2.08749 1.04624 0
M  V30 5534 C 514.812 -1.70057 -0.0380956 0
M  V30 5535 O 515.997 -1.93782 0.127308 0
M  V30 5536 C 513.127 -3.41335 0.640902 0
M  V30 5537 C 512.081 -3.93947 1.67302 0
M  V30 5538 C 511.407 -5.22774 1.12301 0
M  V30 5539 C 512.707 -4.22769 3.06697 0
M  V30 5540 H 514.401 -2.24972 1.97555 0
M  V30 5541 H 511.947 -1.08108 0.951247 0
M  V30 5542 H 513.9 -4.18489 0.494434 0
M  V30 5543 H 512.624 -3.24988 -0.324099 0
M  V30 5544 H 511.283 -3.18941 1.80755 0
M  V30 5545 H 510.931 -5.0278 0.148877 0
M  V30 5546 H 510.631 -5.58942 1.81267 0
M  V30 5547 H 512.155 -6.02546 0.988479 0
M  V30 5548 H 513.569 -4.90659 2.96524 0
M  V30 5549 H 511.966 -4.70147 3.72937 0
M  V30 5550 H 513.036 -3.29885 3.55392 0
M  V30 5551 N 514.379 -1.04941 -1.1758 0
M  V30 5552 C 515.626 -0.757989 -1.87779 0
M  V30 5553 C 515.954 0.714827 -1.80888 0
M  V30 5554 O 515.209 1.53824 -1.20982 0
M  V30 5555 C 515.508 -1.18062 -3.37337 0
M  V30 5556 C 515.174 -2.65521 -3.6443 0
M  V30 5557 C 513.836 -3.05804 -3.71534 0
M  V30 5558 C 516.188 -3.60822 -3.76108 0
M  V30 5559 C 513.516 -4.40256 -3.87803 0
M  V30 5560 C 515.868 -4.95005 -3.93895 0
M  V30 5561 C 514.532 -5.34945 -3.99237 0
M  V30 5562 H 513.802 -0.277368 -0.68713 0
M  V30 5563 H 516.449 -1.31603 -1.39115 0
M  V30 5564 H 514.754 -0.541525 -3.8804 0
M  V30 5565 H 516.451 -0.932368 -3.9001 0
M  V30 5566 H 513.041 -2.33324 -3.59524 0
M  V30 5567 H 517.225 -3.30841 -3.69943 0
M  V30 5568 H 512.481 -4.70707 -3.90186 0
M  V30 5569 H 516.655 -5.68746 -4.01872 0
M  V30 5570 H 514.282 -6.39135 -4.11596 0
M  V30 5571 N 515.857 1.33968 -0.830081 0
M  V30 5572 C 517.082 2.02813 -0.433796 0
M  V30 5573 C 517.507 1.62076 0.954614 0
M  V30 5574 O 516.865 0.808955 1.62252 0
M  V30 5575 C 516.913 3.56348 -0.552115 0
M  V30 5576 O 516.017 4.10202 0.425191 0
M  V30 5577 H 515.358 0.639817 -0.177567 0
M  V30 5578 H 517.888 1.7106 -1.12248 0
M  V30 5579 H 517.898 4.05722 -0.430513 0
M  V30 5580 H 516.573 3.85344 -1.56471 0
M  V30 5581 H 515.15 3.71979 0.261878 0
M  V30 5582 N 517.335 0.585699 1.46312 0
M  V30 5583 C 518.746 0.159938 1.86014 0
M  V30 5584 C 519.097 -1.27775 1.48889 0
M  V30 5585 O 518.222 -1.96559 0.90519 0
M  V30 5586 C 518.817 0.283485 3.37612 0
M  V30 5587 C 517.376 -0.0874256 3.76298 0
M  V30 5588 C 516.523 0.618055 2.70325 0
M  V30 5589 H 519.474 0.793737 1.37425 0
M  V30 5590 H 519.495 -0.490348 3.77327 0
M  V30 5591 H 519.007 1.32995 3.64601 0
M  V30 5592 H 517.108 -1.13391 3.54927 0
M  V30 5593 H 517.221 0.290975 4.78216 0
M  V30 5594 H 515.585 0.057993 2.54634 0
M  V30 5595 H 516.368 1.66623 3.00153 0
M  V30 5596 N 518.813 -1.54241 0.323641 0
M  V30 5597 C 520.09 -1.92741 -0.333181 0
M  V30 5598 C 520.47 -1.25326 -1.69872 0
M  V30 5599 O 519.818 -0.396991 -2.25025 0
M  V30 5600 C 520.028 -3.46399 -0.425322 0
M  V30 5601 C 521.376 -4.19029 -0.68557 0
M  V30 5602 O 522.4 -3.52555 -0.50824 0
M  V30 5603 O 521.259 -5.36751 -1.02767 0
M  V30 5604 H 518.353 -0.804811 -0.190286 0
M  V30 5605 H 520.899 -1.65542 0.373361 0
M  V30 5606 H 519.671 -3.87643 0.533737 0
M  V30 5607 H 519.294 -3.79704 -1.17944 0
M  V30 5608 N 520.291 -0.0518155 -1.57515 0
M  V30 5609 C 521.707 0.304735 -1.56664 0
M  V30 5610 C 521.907 1.71395 -1.05953 0
M  V30 5611 O 520.963 2.42123 -0.716414 0
M  V30 5612 C 522.276 0.132614 -3.00407 0
M  V30 5613 C 523.824 0.20367 -3.12337 0
M  V30 5614 C 524.299 0.0600706 -4.57961 0
M  V30 5615 N 525.79 0.116326 -4.63054 0
M  V30 5616 C 526.525 0.0293363 -5.73392 0
M  V30 5617 N 526.021 -0.110038 -6.92713 0
M  V30 5618 N 527.814 0.0849651 -5.62036 0
M  V30 5619 H 519.965 -0.973056 -1.888 0
M  V30 5620 H 522.228 -0.377781 -0.869474 0
M  V30 5621 H 521.934 -0.839019 -3.41546 0
M  V30 5622 H 521.808 0.893376 -3.66468 0
M  V30 5623 H 524.195 1.16578 -2.71097 0
M  V30 5624 H 524.276 -0.587857 -2.48954 0
M  V30 5625 H 523.92 -0.898715 -4.99886 0
M  V30 5626 H 523.85 0.87075 -5.19351 0
M  V30 5627 H 526.341 0.22327 -3.7724 0
M  V30 5628 H 526.654 -0.169104 -7.72615 0
M  V30 5629 H 524.999 -0.145132 -6.94848 0
M  V30 5630 H 528.19 0.192411 -4.67704 0
M  V30 5631 H 528.363 0.0137131 -6.47999 0
M  V30 5632 N 521.769 1.56035 0.221574 0
M  V30 5633 C 523.18 1.69229 0.788567 0
M  V30 5634 C 523.531 0.653814 1.84986 0
M  V30 5635 O 522.656 -0.195065 2.15519 0
M  V30 5636 C 523.251 3.06809 1.43713 0
M  V30 5637 C 521.81 3.21858 1.95152 0
M  V30 5638 C 520.957 2.65155 0.811685 0
M  V30 5639 H 523.908 1.587 -0.00307894 0
M  V30 5640 H 523.929 3.02666 2.30594 0
M  V30 5641 H 523.441 3.82369 0.664475 0
M  V30 5642 H 521.542 2.51167 2.7522 0
M  V30 5643 H 521.655 4.29073 2.1315 0
M  V30 5644 H 520.019 2.23635 1.21899 0
M  V30 5645 H 520.802 3.43261 0.0516987 0
M  V30 5646 N 523.247 -0.488276 1.49845 0
M  V30 5647 C 524.495 -1.23911 1.59657 0
M  V30 5648 C 524.816 -1.92816 0.291005 0
M  V30 5649 O 524.086 -1.83328 -0.690485 0
M  V30 5650 H 522.666 -0.460357 0.588286 0
M  V30 5651 H 525.328 -0.564794 1.86537 0
M  V30 5652 H 524.424 -1.99625 2.39909 0
M  V30 5653 N 524.725 -1.39134 -0.740242 0
M  V30 5654 C 525.971 -1.36273 -1.50192 0
M  V30 5655 C 526.304 0.0430136 -1.94152 0
M  V30 5656 O 525.579 1.00691 -1.66408 0
M  V30 5657 C 525.862 -2.33041 -2.74525 0
M  V30 5658 C 525.715 -3.82535 -2.36617 0
M  V30 5659 C 527.034 -2.27723 -3.76604 0
M  V30 5660 H 524.153 -0.496323 -0.544823 0
M  V30 5661 H 526.795 -1.70085 -0.846815 0
M  V30 5662 H 524.945 -2.04337 -3.30422 0
M  V30 5663 H 526.617 -4.21967 -1.86391 0
M  V30 5664 H 524.86 -3.99565 -1.68909 0
M  V30 5665 H 525.531 -4.45723 -3.2563 0
M  V30 5666 H 528.007 -2.53091 -3.30279 0
M  V30 5667 H 526.883 -2.97519 -4.61274 0
M  V30 5668 H 527.144 -1.28049 -4.2315 0
M  V30 5669 N 526.204 0.969867 -1.24223 0
M  V30 5670 C 527.134 2.08191 -1.05729 0
M  V30 5671 C 528.115 1.70075 0.0290765 0
M  V30 5672 O 529.3 1.93712 -0.137583 0
M  V30 5673 C 526.43 3.40991 -0.658995 0
M  V30 5674 C 525.384 3.93054 -1.69389 0
M  V30 5675 C 524.71 5.22171 -1.15072 0
M  V30 5676 C 526.01 4.21137 -3.08935 0
M  V30 5677 H 527.704 2.23921 -1.98746 0
M  V30 5678 H 525.25 1.07602 -0.956967 0
M  V30 5679 H 527.203 4.18221 -0.51662 0
M  V30 5680 H 525.927 3.25155 0.30686 0
M  V30 5681 H 524.586 3.17977 -1.82444 0
M  V30 5682 H 524.234 5.02694 -0.175539 0
M  V30 5683 H 523.934 5.57973 -1.84229 0
M  V30 5684 H 525.458 6.02013 -1.02042 0
M  V30 5685 H 526.872 4.8908 -2.99121 0
M  V30 5686 H 525.269 4.68163 -3.75425 0
M  V30 5687 H 526.339 3.27996 -3.57137 0
M  V30 5688 N 527.682 1.05563 1.17022 0
M  V30 5689 C 528.614 0.617888 2.20714 0
M  V30 5690 C 529.627 -0.320303 1.59618 0
M  V30 5691 O 530.816 -0.112449 1.78145 0
M  V30 5692 C 527.916 -0.115333 3.38704 0
M  V30 5693 C 527.089 0.834493 4.29366 0
M  V30 5694 C 526.148 0.141855 5.26009 0
M  V30 5695 O 525.174 0.777151 5.6387 0
M  V30 5696 N 526.376 -1.11934 5.69606 0
M  V30 5697 H 529.141 1.50981 2.58892 0
M  V30 5698 H 526.702 0.938008 1.31958 0
M  V30 5699 H 528.694 -0.588918 4.00392 0
M  V30 5700 H 527.264 -0.908967 2.99093 0
M  V30 5701 H 526.484 1.48762 3.65053 0
M  V30 5702 H 527.772 1.4791 4.86827 0
M  V30 5703 H 527.17 -1.65574 5.40927 0
M  V30 5704 H 525.727 -1.53692 6.33421 0
M  V30 5705 N 529.16 -1.33526 0.837174 0
M  V30 5706 C 530.11 -2.2672 0.241269 0
M  V30 5707 C 531.094 -1.49183 -0.602756 0
M  V30 5708 O 532.286 -1.71052 -0.455002 0
M  V30 5709 C 529.415 -3.38294 -0.584125 0
M  V30 5710 C 528.501 -4.23231 0.271315 0
M  V30 5711 N 528.892 -4.87473 1.34922 0
M  V30 5712 C 527.19 -4.45962 0.0580589 0
M  V30 5713 C 527.891 -5.50685 1.87405 0
M  V30 5714 N 526.867 -5.30732 1.17578 0
M  V30 5715 H 530.669 -2.73903 1.06558 0
M  V30 5716 H 528.183 -1.47411 0.68145 0
M  V30 5717 H 530.18 -4.04044 -1.02731 0
M  V30 5718 H 528.84 -2.9266 -1.40643 0
M  V30 5719 H 529.851 -4.88077 1.7321 0
M  V30 5720 H 526.528 -4.11052 -0.730938 0
M  V30 5721 H 527.918 -6.11845 2.77661 0
M  V30 5722 N 530.638 -0.59345 -1.46 0
M  V30 5723 C 532.054 -0.255965 -1.57534 0
M  V30 5724 C 532.254 1.24167 -1.58697 0
M  V30 5725 O 531.31 2.02398 -1.50968 0
M  V30 5726 C 532.623 -0.91466 -2.86451 0
M  V30 5727 C 534.171 -0.889253 -3.00102 0
M  V30 5728 C 534.646 -1.52769 -4.3177 0
M  V30 5729 N 536.137 -1.49253 -4.38495 0
M  V30 5730 C 536.872 -1.9558 -5.39014 0
M  V30 5731 N 536.368 -2.49929 -6.46148 0
M  V30 5732 N 538.161 -1.86432 -5.30282 0
M  V30 5733 H 530.312 -1.56604 -1.43489 0
M  V30 5734 H 532.575 -0.655207 -0.685133 0
M  V30 5735 H 532.281 -1.96861 -2.91442 0
M  V30 5736 H 532.155 -0.429356 -3.74748 0
M  V30 5737 H 534.542 0.156111 -2.94687 0
M  V30 5738 H 534.623 -1.41268 -2.13253 0
M  V30 5739 H 534.267 -2.57231 -4.37944 0
M  V30 5740 H 534.197 -0.979398 -5.17412 0
M  V30 5741 H 536.688 -1.09536 -3.61677 0
M  V30 5742 H 537.001 -2.83109 -7.19075 0
M  V30 5743 H 535.346 -2.53961 -6.46938 0
M  V30 5744 H 538.537 -1.43722 -4.4549 0
M  V30 5745 H 538.71 -2.22852 -6.08474 0
M  V30 5746 N 532.116 1.54067 -0.331816 0
M  V30 5747 C 533.362 2.01012 0.268667 0
M  V30 5748 C 533.695 1.2195 1.51136 0
M  V30 5749 O 532.97 0.303972 1.9211 0
M  V30 5750 C 533.253 3.55158 0.59456 0
M  V30 5751 C 533.106 4.4494 -0.659409 0
M  V30 5752 C 534.425 4.16939 1.4089 0
M  V30 5753 H 531.544 0.730698 0.0961756 0
M  V30 5754 H 534.186 1.84593 -0.450031 0
M  V30 5755 H 532.336 3.6928 1.20685 0
M  V30 5756 H 534.008 4.42675 -1.29756 0
M  V30 5757 H 532.251 4.1428 -1.28665 0
M  V30 5758 H 532.922 5.50643 -0.386804 0
M  V30 5759 H 535.398 4.06443 0.891272 0
M  V30 5760 H 534.274 5.24889 1.60569 0
M  V30 5761 H 534.535 3.70798 2.40752 0
M  V30 5762 N 533.594 0.0601682 1.57485 0
M  V30 5763 C 534.84 -0.612501 1.93329 0
M  V30 5764 C 535.173 -1.6996 0.939526 0
M  V30 5765 O 534.448 -1.94472 -0.0330957 0
M  V30 5766 C 534.731 -1.20025 3.39508 0
M  V30 5767 C 534.584 -0.12059 4.49638 0
M  V30 5768 C 535.903 -2.10923 3.86264 0
M  V30 5769 H 533.022 -0.221185 0.703027 0
M  V30 5770 H 535.664 0.123768 1.89596 0
M  V30 5771 H 533.814 -1.82774 3.42821 0
M  V30 5772 H 535.486 0.51185 4.58452 0
M  V30 5773 H 533.729 0.550251 4.30296 0
M  V30 5774 H 534.4 -0.572019 5.49028 0
M  V30 5775 H 536.876 -1.58124 3.84884 0
M  V30 5776 H 535.752 -2.48987 4.8918 0
M  V30 5777 H 536.013 -3.01292 3.23536 0
M  V30 5778 N 535.072 -1.5615 -0.213296 0
M  V30 5779 C 536.349 -1.70349 -0.961281 0
M  V30 5780 C 536.729 -0.609791 -2.02101 0
M  V30 5781 O 536.077 0.381987 -2.25285 0
M  V30 5782 C 536.287 -3.11982 -1.56424 0
M  V30 5783 C 537.635 -3.71649 -2.05334 0
M  V30 5784 O 538.659 -3.14995 -1.66302 0
M  V30 5785 O 537.518 -4.71038 -2.77102 0
M  V30 5786 H 534.612 -0.694121 -0.449582 0
M  V30 5787 H 537.158 -1.68464 -0.204426 0
M  V30 5788 H 535.93 -3.83046 -0.799457 0
M  V30 5789 H 535.553 -3.18019 -2.38641 0
M  V30 5790 N 536.55 0.480323 -1.50102 0
M  V30 5791 C 537.482 1.59669 -1.64433 0
M  V30 5792 C 538.495 1.54063 -0.52615 0
M  V30 5793 O 539.684 1.59619 -0.798992 0
M  V30 5794 C 536.784 2.98527 -1.6042 0
M  V30 5795 C 535.957 3.291 -2.88117 0
M  V30 5796 C 535.016 4.47468 -2.76873 0
M  V30 5797 O 534.042 4.4823 -3.50825 0
M  V30 5798 N 535.244 5.48593 -1.89806 0
M  V30 5799 H 538.009 1.47795 -2.60723 0
M  V30 5800 H 535.57 0.66858 -1.4745 0
M  V30 5801 H 537.562 3.75666 -1.50523 0
M  V30 5802 H 536.132 3.04218 -0.719036 0
M  V30 5803 H 535.352 2.40662 -3.12211 0
M  V30 5804 H 536.64 3.46334 -3.72734 0
M  V30 5805 H 536.038 5.50791 -1.2902 0
M  V30 5806 H 534.595 6.24752 -1.85819 0
M  V30 5807 N 538.028 1.39524 0.732853 0
M  V30 5808 C 538.958 1.41153 1.86005 0
M  V30 5809 C 539.939 0.274614 1.67869 0
M  V30 5810 O 541.124 0.480745 1.88155 0
M  V30 5811 C 538.254 1.25638 3.23778 0
M  V30 5812 C 537.208 2.36752 3.56556 0
M  V30 5813 C 536.534 2.06326 4.93289 0
M  V30 5814 C 537.834 3.79069 3.5931 0
M  V30 5815 H 539.528 2.35484 1.84899 0
M  V30 5816 H 537.074 1.13348 0.888162 0
M  V30 5817 H 539.027 1.25398 4.0231 0
M  V30 5818 H 537.751 0.277772 3.25417 0
M  V30 5819 H 536.41 2.36213 2.80355 0
M  V30 5820 H 536.058 1.06897 4.9151 0
M  V30 5821 H 535.758 2.80757 5.16187 0
M  V30 5822 H 537.282 2.07739 5.74175 0
M  V30 5823 H 538.696 3.81526 4.27914 0
M  V30 5824 H 537.093 4.52878 3.93728 0
M  V30 5825 H 538.163 4.09893 2.59068 0
M  V30 5826 N 539.506 -0.963266 1.24736 0
M  V30 5827 C 540.438 -2.06162 1.0015 0
M  V30 5828 C 541.451 -1.62771 -0.0305905 0
M  V30 5829 O 542.64 -1.77296 0.206966 0
M  V30 5830 C 539.74 -3.35333 0.490385 0
M  V30 5831 C 538.913 -4.07609 1.58663 0
M  V30 5832 C 537.972 -5.15052 1.0774 0
M  V30 5833 O 536.998 -5.4098 1.77002 0
M  V30 5834 N 538.2 -5.80436 -0.0858605 0
M  V30 5835 H 540.965 -2.27825 1.94719 0
M  V30 5836 H 538.526 -1.13121 1.15825 0
M  V30 5837 H 540.518 -4.04477 0.134371 0
M  V30 5838 H 539.088 -3.10507 -0.361155 0
M  V30 5839 H 538.308 -3.32681 2.11463 0
M  V30 5840 H 539.596 -4.52656 2.32336 0
M  V30 5841 H 538.994 -5.6178 -0.664806 0
M  V30 5842 H 537.551 -6.50674 -0.382981 0
M  V30 5843 N 540.985 -1.06182 -1.16461 0
M  V30 5844 C 541.895 -0.682671 -2.24448 0
M  V30 5845 C 542.911 0.30078 -1.71381 0
M  V30 5846 O 544.087 0.150376 -2.00838 0
M  V30 5847 C 541.152 -0.0737202 -3.46622 0
M  V30 5848 C 540.213 -1.10889 -4.14731 0
M  V30 5849 C 539.446 -0.528908 -5.31073 0
M  V30 5850 O 539.669 0.65868 -5.66584 0
M  V30 5851 O 538.603 -1.26805 -5.88391 0
M  V30 5852 H 542.429 -1.58291 -2.59187 0
M  V30 5853 H 540.014 -0.834013 -1.23954 0
M  V30 5854 H 541.896 0.264192 -4.20571 0
M  V30 5855 H 540.571 0.800015 -3.13658 0
M  V30 5856 H 539.478 -1.49896 -3.42756 0
M  V30 5857 H 540.811 -1.95412 -4.51747 0
M  V30 5858 N 542.463 1.3308 -0.844243 0
M  V30 5859 C 543.395 2.27954 -0.238671 0
M  V30 5860 C 544.408 1.51978 0.583665 0
M  V30 5861 O 545.597 1.73731 0.409857 0
M  V30 5862 C 542.697 3.31963 0.682185 0
M  V30 5863 C 541.87 4.37281 -0.101998 0
M  V30 5864 C 540.929 5.20928 0.743022 0
M  V30 5865 O 539.955 5.68914 0.180285 0
M  V30 5866 N 541.157 5.42738 2.0595 0
M  V30 5867 H 543.922 2.8056 -1.05386 0
M  V30 5868 H 541.483 1.4583 -0.70322 0
M  V30 5869 H 543.475 3.84828 1.25259 0
M  V30 5870 H 542.045 2.79594 1.39808 0
M  V30 5871 H 541.265 3.84843 -0.853802 0
M  V30 5872 H 542.553 5.04746 -0.641015 0
M  V30 5873 H 541.951 5.05463 2.54016 0
M  V30 5874 H 540.508 5.98639 2.57827 0
M  V30 5875 N 543.941 0.601185 1.45683 0
M  V30 5876 C 545.188 0.0938811 2.02282 0
M  V30 5877 C 545.516 -1.27315 1.47041 0
M  V30 5878 O 544.771 -1.85193 0.632623 0
M  V30 5879 C 545.07 -0.00222425 3.574 0
M  V30 5880 C 544.736 1.29963 4.31764 0
M  V30 5881 C 543.398 1.65625 4.51798 0
M  V30 5882 C 545.75 2.1603 4.74321 0
M  V30 5883 C 543.078 2.87119 5.11644 0
M  V30 5884 C 545.43 3.36766 5.3551 0
M  V30 5885 C 544.094 3.72689 5.53768 0
M  V30 5886 H 543.364 0.0343535 0.740203 0
M  V30 5887 H 546.011 0.781522 1.74827 0
M  V30 5888 H 544.316 -0.773096 3.84097 0
M  V30 5889 H 546.013 -0.410794 3.9889 0
M  V30 5890 H 542.603 1.01204 4.1648 0
M  V30 5891 H 546.787 1.89778 4.58582 0
M  V30 5892 H 542.043 3.15065 5.2397 0
M  V30 5893 H 546.217 4.03713 5.67441 0
M  V30 5894 H 543.844 4.66918 5.99909 0
M  V30 5895 N 545.419 -1.53889 0.339982 0
M  V30 5896 C 546.382 -2.23547 -0.50592 0
M  V30 5897 C 547.382 -1.23445 -1.03044 0
M  V30 5898 O 548.572 -1.47909 -0.920253 0
M  V30 5899 C 545.704 -2.95234 -1.7044 0
M  V30 5900 H 546.897 -2.99722 0.103247 0
M  V30 5901 H 544.45 -1.56033 0.0912804 0
M  V30 5902 H 545.185 -2.23236 -2.35236 0
M  V30 5903 H 544.97 -3.68654 -1.33553 0
M  V30 5904 H 546.46 -3.48258 -2.30447 0
M  V30 5905 N 546.897 -0.0685191 -1.57451 0
M  V30 5906 C 548.146 0.600898 -1.92541 0
M  V30 5907 C 548.459 1.70967 -0.950239 0
M  V30 5908 O 549.665 2.43844 -1.19384 0
M  V30 5909 C 548.121 1.12019 -3.42023 0
M  V30 5910 C 547.729 0.0426028 -4.4798 0
M  V30 5911 C 549.473 1.76386 -3.86119 0
M  V30 5912 C 547.38 0.575759 -5.88591 0
M  V30 5913 H 546.31 0.228225 -0.71863 0
M  V30 5914 H 548.961 -0.140223 -1.82963 0
M  V30 5915 H 547.343 1.91418 -3.46663 0
M  V30 5916 H 548.517 -0.73182 -4.54952 0
M  V30 5917 H 546.832 -0.504642 -4.13331 0
M  V30 5918 H 549.429 2.17302 -4.88553 0
M  V30 5919 H 549.772 2.62255 -3.23308 0
M  V30 5920 H 550.305 1.03615 -3.84069 0
M  V30 5921 H 547.044 -0.245691 -6.55039 0
M  V30 5922 H 546.564 1.31778 -5.85145 0
M  V30 5923 H 548.243 1.0532 -6.3837 0
M  V30 5924 N 548.375 1.56261 0.205012 0
M  V30 5925 C 549.603 1.84141 0.943386 0
M  V30 5926 C 550.018 0.649772 1.77266 0
M  V30 5927 O 549.375 -0.381612 1.78466 0
M  V30 5928 C 549.426 3.10719 1.84759 0
M  V30 5929 O 549.147 4.25286 1.05181 0
M  V30 5930 C 550.648 3.51706 2.69848 0
M  V30 5931 H 547.868 0.611734 0.275721 0
M  V30 5932 H 550.412 2.03364 0.215253 0
M  V30 5933 H 548.567 2.93422 2.52947 0
M  V30 5934 H 548.981 4.97301 1.66709 0
M  V30 5935 H 550.455 4.43266 3.28967 0
M  V30 5936 H 550.932 2.7423 3.43067 0
M  V30 5937 H 551.538 3.71499 2.07047 0
M  V30 5938 N 549.853 -0.472356 1.50355 0
M  V30 5939 C 550.783 -1.57859 1.72055 0
M  V30 5940 C 551.764 -1.60283 0.569505 0
M  V30 5941 O 552.949 -1.7657 0.808503 0
M  V30 5942 C 550.079 -2.96191 1.81351 0
M  V30 5943 C 549.033 -3.08633 2.96529 0
M  V30 5944 C 548.359 -4.486 2.90968 0
M  V30 5945 C 549.659 -2.85969 4.37057 0
M  V30 5946 H 551.353 -1.39953 2.64676 0
M  V30 5947 H 548.899 -0.671846 1.27367 0
M  V30 5948 H 550.852 -3.73507 1.95117 0
M  V30 5949 H 549.576 -3.15251 0.853502 0
M  V30 5950 H 548.235 -2.33749 2.82413 0
M  V30 5951 H 547.883 -4.64577 1.92815 0
M  V30 5952 H 547.583 -4.57861 3.68289 0
M  V30 5953 H 549.107 -5.27938 3.0678 0
M  V30 5954 H 550.521 -3.53036 4.51706 0
M  V30 5955 H 548.918 -3.06677 5.15819 0
M  V30 5956 H 549.988 -1.81838 4.49514 0
M  V30 5957 N 551.331 -1.39911 -0.725443 0
M  V30 5958 C 552.278 -1.39393 -1.83952 0
M  V30 5959 C 553.248 -0.252249 -1.64173 0
M  V30 5960 O 554.433 -0.44882 -1.85446 0
M  V30 5961 C 551.573 -1.25262 -3.21564 0
M  V30 5962 C 550.686 -2.49054 -3.52982 0
M  V30 5963 C 549.821 -2.27439 -4.80047 0
M  V30 5964 C 548.86 -3.46857 -5.04338 0
M  V30 5965 N 547.997 -3.24499 -6.22611 0
M  V30 5966 H 552.837 -2.34622 -1.83729 0
M  V30 5967 H 550.374 -1.16537 -0.897636 0
M  V30 5968 H 552.332 -1.15077 -4.01015 0
M  V30 5969 H 550.962 -0.33657 -3.21041 0
M  V30 5970 H 550.014 -2.69805 -2.6816 0
M  V30 5971 H 551.326 -3.37973 -3.66846 0
M  V30 5972 H 550.48 -2.14551 -5.67497 0
M  V30 5973 H 549.219 -1.35929 -4.68374 0
M  V30 5974 H 548.224 -3.60232 -4.15346 0
M  V30 5975 H 549.449 -4.3928 -5.17889 0
M  V30 5976 H 547.395 -2.35663 -6.12208 0
M  V30 5977 H 547.312 -4.06978 -6.37106 0
M  V30 5978 H 548.58 -3.15325 -7.12875 0
M  V30 5979 N 552.809 0.956637 -1.25245 0
M  V30 5980 C 554.034 1.74104 -1.12706 0
M  V30 5981 C 554.459 1.85436 0.315429 0
M  V30 5982 O 553.817 1.33334 1.22848 0
M  V30 5983 C 553.865 3.1338 -1.78396 0
M  V30 5984 O 552.969 3.98485 -1.06224 0
M  V30 5985 H 552.31 0.53476 -0.393609 0
M  V30 5986 H 554.84 1.19924 -1.65769 0
M  V30 5987 H 554.85 3.6385 -1.846 0
M  V30 5988 H 553.525 3.04448 -2.83345 0
M  V30 5989 H 552.102 3.56952 -1.07886 0
M  V30 5990 N 554.287 1.06798 1.15896 0
M  V30 5991 C 555.517 0.807522 1.90165 0
M  V30 5992 C 555.925 -0.642417 1.7796 0
M  V30 5993 O 555.268 -1.45193 1.12537 0
M  V30 5994 C 555.33 1.12939 3.41299 0
M  V30 5995 C 554.994 2.57879 3.7729 0
M  V30 5996 C 555.991 3.56118 3.78782 0
M  V30 5997 C 553.676 2.93311 4.07767 0
M  V30 5998 C 555.67 4.87827 4.10248 0
M  V30 5999 C 553.357 4.25219 4.38899 0
M  V30 6000 C 554.355 5.22287 4.4012 0
M  V30 6001 O 554.043 6.51826 4.70508 0
M  V30 6002 H 553.775 0.291946 0.609708 0
M  V30 6003 H 556.329 1.42627 1.47806 0
M  V30 6004 H 554.559 0.45359 3.84031 0
M  V30 6005 H 556.248 0.852363 3.9685 0
M  V30 6006 H 557.014 3.30086 3.55342 0
M  V30 6007 H 552.893 2.18409 4.05979 0
M  V30 6008 H 556.437 5.63586 4.11116 0
M  V30 6009 H 552.334 4.51006 4.61805 0
M  V30 6010 H 553.102 6.56893 4.88298 0
M  V30 6011 N 555.766 -1.3263 0.851289 0
M  V30 6012 C 557.015 -1.96633 0.449267 0
M  V30 6013 C 557.328 -1.68131 -0.999562 0
M  V30 6014 O 558.534 -2.25845 -1.50685 0
M  V30 6015 C 556.99 -3.51946 0.752446 0
M  V30 6016 C 556.598 -3.89311 2.21678 0
M  V30 6017 C 558.342 -4.22437 0.417983 0
M  V30 6018 C 556.249 -5.37655 2.46336 0
M  V30 6019 H 555.179 -0.735888 0.164269 0
M  V30 6020 H 557.83 -1.51073 1.0416 0
M  V30 6021 H 556.212 -3.95899 0.0895858 0
M  V30 6022 H 557.386 -3.56378 2.92115 0
M  V30 6023 H 555.701 -3.31836 2.51543 0
M  V30 6024 H 558.298 -5.31549 0.579674 0
M  V30 6025 H 558.641 -4.11349 -0.640115 0
M  V30 6026 H 559.174 -3.84057 1.03659 0
M  V30 6027 H 555.913 -5.5376 3.50757 0
M  V30 6028 H 555.433 -5.72005 1.80473 0
M  V30 6029 H 557.112 -6.04695 2.30115 0
M  V30 6030 N 557.244 -0.608902 -1.45362 0
M  V30 6031 C 558.154 0.110969 -2.34337 0
M  V30 6032 C 559.17 0.859007 -1.51318 0
M  V30 6033 O 560.346 0.816296 -1.84116 0
M  V30 6034 C 557.411 1.09494 -3.28956 0
M  V30 6035 C 556.472 0.348718 -4.27881 0
M  V30 6036 C 555.705 1.28582 -5.17979 0
M  V30 6037 O 555.928 2.52369 -5.11533 0
M  V30 6038 O 554.862 0.782172 -5.96796 0
M  V30 6039 H 558.688 -0.620258 -2.97299 0
M  V30 6040 H 556.273 -0.36916 -1.44767 0
M  V30 6041 H 558.155 1.66163 -3.87257 0
M  V30 6042 H 556.83 1.80717 -2.68557 0
M  V30 6043 H 555.737 -0.260465 -3.73192 0
M  V30 6044 H 557.07 -0.323049 -4.91139 0
M  V30 6045 N 558.722 1.53707 -0.348139 0
M  V30 6046 C 559.962 2.02899 0.247254 0
M  V30 6047 C 560.326 1.23033 1.47401 0
M  V30 6048 O 561.527 1.62146 2.14388 0
M  V30 6049 C 559.798 3.53156 0.549151 0
M  V30 6050 S 561.357 4.24247 1.1207 0
M  V30 6051 H 558.175 0.707213 0.0732894 0
M  V30 6052 H 560.777 1.89338 -0.486965 0
M  V30 6053 H 559.481 4.08893 -0.351435 0
M  V30 6054 H 559.012 3.70845 1.31291 0
M  V30 6055 H 561.027 4.33958 2.40613 0
M  V30 6056 N 560.2 0.0768682 1.57412 0
M  V30 6057 C 561.148 -0.906229 2.1422 0
M  V30 6058 C 562.142 -1.30477 1.08037 0
M  V30 6059 O 563.348 -1.28143 1.2641 0
M  V30 6060 H 559.723 -0.310207 0.685037 0
M  V30 6061 H 561.694 -0.402228 2.95677 0
M  V30 6062 C 560.443 -2.16245 2.72274 0
M  V30 6063 H 559.766 -1.86463 3.53655 0
M  V30 6064 H 561.206 -2.83134 3.15613 0
M  V30 6065 C 559.665 -2.92437 1.67279 0
M  V30 6066 O 560.195 -3.86322 1.10081 0
M  V30 6067 N 558.401 -2.55637 1.38195 0
M  V30 6068 H 557.948 -1.79363 1.84897 0
M  V30 6069 H 557.906 -3.06919 0.681787 0
M  V30 6070 N 561.678 -1.56367 -0.196722 0
M  V30 6071 C 563.094 -1.49916 -0.54749 0
M  V30 6072 C 563.294 -0.77659 -1.85934 0
M  V30 6073 O 562.35 -0.32644 -2.50381 0
M  V30 6074 C 563.663 -2.94577 -0.603734 0
M  V30 6075 C 565.211 -3.05239 -0.692677 0
M  V30 6076 C 565.686 -4.51308 -0.780046 0
M  V30 6077 N 567.177 -4.55453 -0.843616 0
M  V30 6078 C 567.912 -5.65786 -0.931358 0
M  V30 6079 N 567.408 -6.85812 -0.981503 0
M  V30 6080 N 569.201 -5.53695 -0.968421 0
M  V30 6081 H 561.352 -2.01761 0.663803 0
M  V30 6082 H 563.615 -0.918094 0.236238 0
M  V30 6083 H 563.321 -3.50494 0.29105 0
M  V30 6084 H 563.195 -3.47841 -1.45898 0
M  V30 6085 H 565.582 -2.49372 -1.57789 0
M  V30 6086 H 565.663 -2.55103 0.188736 0
M  V30 6087 H 565.307 -5.078 0.100811 0
M  V30 6088 H 565.237 -4.99176 -1.67724 0
M  V30 6089 H 567.728 -3.69025 -0.814176 0
M  V30 6090 H 568.041 -7.65648 -1.04892 0
M  V30 6091 H 566.386 -6.88474 -0.950208 0
M  V30 6092 H 569.577 -4.58848 -0.926072 0
M  V30 6093 H 569.75 -6.39708 -1.03334 0
M  V30 6094 N 563.156 0.464375 -1.50603 0
M  V30 6095 C 564.567 1.04507 -1.5471 0
M  V30 6096 C 564.918 1.9297 -0.354542 0
M  V30 6097 O 564.043 2.09763 0.531812 0
M  V30 6098 C 564.638 1.90207 -2.80369 0
M  V30 6099 C 563.197 2.43373 -2.87135 0
M  V30 6100 C 562.344 1.21886 -2.49076 0
M  V30 6101 H 565.295 0.246716 -1.56771 0
M  V30 6102 H 565.316 2.75353 -2.62604 0
M  V30 6103 H 564.828 1.25796 -3.67147 0
M  V30 6104 H 562.929 3.11318 -2.04724 0
M  V30 6105 H 563.042 2.7802 -3.90181 0
M  V30 6106 H 561.406 1.55575 -2.01664 0
M  V30 6107 H 562.189 0.591268 -3.3817 0
M  V30 6108 N 564.634 1.40294 0.718013 0
M  V30 6109 C 565.566 1.36281 1.84283 0
M  V30 6110 C 566.579 0.268621 1.60569 0
M  V30 6111 O 567.768 0.528798 1.70487 0
M  V30 6112 C 564.868 1.09741 3.2064 0
M  V30 6113 C 564.041 2.30767 3.71571 0
M  V30 6114 C 563.1 2.00424 4.86535 0
M  V30 6115 O 562.126 2.73268 4.99313 0
M  V30 6116 N 563.328 0.980724 5.72156 0
M  V30 6117 H 566.093 2.3322 1.88225 0
M  V30 6118 H 563.654 1.34616 0.899453 0
M  V30 6119 H 565.646 0.874322 3.95143 0
M  V30 6120 H 564.216 0.214771 3.11861 0
M  V30 6121 H 563.436 2.68921 2.88228 0
M  V30 6122 H 564.724 3.11455 4.02335 0
M  V30 6123 H 564.122 0.377375 5.6444 0
M  V30 6124 H 562.679 0.817538 6.46653 0
M  V30 6125 N 566.112 -0.949982 1.2575 0
M  V30 6126 C 567.523 -1.50989 1.09815 0
M  V30 6127 C 567.874 -1.93497 -0.324556 0
M  V30 6128 O 566.999 -1.79068 -1.21506 0
M  V30 6129 C 567.594 -2.74394 1.98729 0
M  V30 6130 C 566.153 -3.26682 1.86965 0
M  V30 6131 C 565.3 -1.99498 1.92603 0
M  V30 6132 H 568.251 -0.766387 1.38968 0
M  V30 6133 H 568.272 -3.48383 1.53001 0
M  V30 6134 H 567.784 -2.43425 3.02268 0
M  V30 6135 H 565.885 -3.62461 0.863279 0
M  V30 6136 H 565.998 -3.94383 2.72027 0
M  V30 6137 H 564.362 -2.15005 1.36546 0
M  V30 6138 H 565.145 -1.70871 2.97755 0
M  V30 6139 N 567.59 -1.07411 -1.15328 0
M  V30 6140 C 568.553 -0.698914 -2.18284 0
M  V30 6141 C 569.553 0.261149 -1.58665 0
M  V30 6142 O 570.743 0.0420277 -1.74149 0
M  V30 6143 C 567.875 -0.0302427 -3.40887 0
M  V30 6144 H 569.068 -1.61045 -2.52991 0
M  V30 6145 H 566.621 -0.870724 -1.298 0
M  V30 6146 H 567.356 0.893505 -3.11748 0
M  V30 6147 H 567.141 -0.720759 -3.85419 0
M  V30 6148 H 568.631 0.21759 -4.17033 0
M  V30 6149 N 569.068 1.32177 -0.85831 0
M  V30 6150 C 570.018 2.26307 -0.277307 0
M  V30 6151 C 571.002 1.50123 0.578946 0
M  V30 6152 O 572.194 1.71754 0.427731 0
M  V30 6153 C 569.323 3.39181 0.530232 0
M  V30 6154 C 568.409 4.22746 -0.338613 0
M  V30 6155 N 568.8 4.85265 -1.4266 0
M  V30 6156 C 567.098 4.45813 -0.129 0
M  V30 6157 C 567.799 5.47634 -1.96142 0
M  V30 6158 N 566.775 5.28794 -1.26007 0
M  V30 6159 H 570.577 2.72173 -1.10902 0
M  V30 6160 H 568.091 1.46308 -0.704816 0
M  V30 6161 H 570.088 4.05628 0.962904 0
M  V30 6162 H 568.748 2.9486 1.35969 0
M  V30 6163 H 569.759 4.85259 -1.80953 0
M  V30 6164 H 566.436 4.12163 0.665451 0
M  V30 6165 H 567.826 6.0735 -2.8736 0
M  V30 6166 N 570.547 0.616602 1.45037 0
M  V30 6167 C 571.963 0.280994 1.57107 0
M  V30 6168 C 572.163 -1.21627 1.60653 0
M  V30 6169 O 571.219 -1.9997 1.54169 0
M  V30 6170 C 572.532 0.960116 2.8496 0
M  V30 6171 C 574.08 0.936884 2.98649 0
M  V30 6172 C 574.555 1.59619 4.29285 0
M  V30 6173 N 576.046 1.5621 4.36065 0
M  V30 6174 C 576.781 2.04131 5.35834 0
M  V30 6175 N 576.277 2.60177 6.4209 0
M  V30 6176 N 578.07 1.94845 5.27249 0
M  V30 6177 H 570.221 1.58867 1.40979 0
M  V30 6178 H 572.484 0.666024 0.674623 0
M  V30 6179 H 572.19 2.01473 2.88273 0
M  V30 6180 H 572.064 0.488921 3.74018 0
M  V30 6181 H 574.451 -0.109209 2.94898 0
M  V30 6182 H 574.532 1.44643 2.10979 0
M  V30 6183 H 574.176 2.64166 4.33796 0
M  V30 6184 H 574.106 1.06159 5.15789 0
M  V30 6185 H 576.597 1.15276 3.59889 0
M  V30 6186 H 576.91 2.94513 7.1448 0
M  V30 6187 H 575.255 2.64221 6.42816 0
M  V30 6188 H 578.446 1.50792 4.43147 0
M  V30 6189 H 578.619 2.32504 6.04852 0
M  V30 6190 N 572.025 -1.5352 0.356285 0
M  V30 6191 C 573.272 -2.01117 -0.236303 0
M  V30 6192 C 573.6 -1.24381 -1.49531 0
M  V30 6193 O 572.855 -0.323057 -1.93015 0
M  V30 6194 C 573.154 -3.52607 -0.583369 0
M  V30 6195 C 572.82 -4.47151 0.58023 0
M  V30 6196 C 571.482 -4.72718 0.899528 0
M  V30 6197 C 573.834 -5.03137 1.36024 0
M  V30 6198 C 571.162 -5.51523 2.00098 0
M  V30 6199 C 573.514 -5.83145 2.45204 0
M  V30 6200 C 572.178 -6.07001 2.77679 0
M  V30 6201 H 571.448 -0.735938 -0.0864695 0
M  V30 6202 H 574.095 -1.85209 0.48683 0
M  V30 6203 H 572.4 -3.66413 -1.38739 0
M  V30 6204 H 574.097 -3.86901 -1.05397 0
M  V30 6205 H 570.687 -4.27394 0.321322 0
M  V30 6206 H 574.871 -4.83339 1.12682 0
M  V30 6207 H 570.127 -5.68229 2.25668 0
M  V30 6208 H 574.301 -6.25537 3.06067 0
M  V30 6209 H 571.928 -6.67851 3.63151 0
M  V30 6210 N 573.503 -0.0852151 -1.57369 0
M  V30 6211 C 574.433 0.874556 -2.16503 0
M  V30 6212 C 575.414 1.30111 -1.09568 0
M  V30 6213 O 576.599 1.36977 -1.37662 0
M  V30 6214 C 573.729 2.13731 -2.73745 0
M  V30 6215 C 572.683 1.84971 -3.85966 0
M  V30 6216 C 572.009 3.17991 -4.29867 0
M  V30 6217 C 573.309 1.14442 -5.09608 0
M  V30 6218 H 575.003 0.381899 -2.96954 0
M  V30 6219 H 572.549 0.18225 -1.42842 0
M  V30 6220 H 574.502 2.81302 -3.13763 0
M  V30 6221 H 573.226 2.65263 -1.90534 0
M  V30 6222 H 571.885 1.19801 -3.46473 0
M  V30 6223 H 571.533 3.6739 -3.4356 0
M  V30 6224 H 571.233 2.99534 -5.05523 0
M  V30 6225 H 572.757 3.86737 -4.72511 0
M  V30 6226 H 574.171 1.72105 -5.46857 0
M  V30 6227 H 572.568 1.06197 -5.90629 0
M  V30 6228 H 573.638 0.12559 -4.84737 0
M  V30 6229 N 574.981 1.5647 0.188427 0
M  V30 6230 C 576.228 1.81013 0.907779 0
M  V30 6231 C 576.556 0.65953 1.82977 0
M  V30 6232 O 575.811 -0.354308 1.92466 0
M  V30 6233 C 576.11 3.11596 1.7505 0
M  V30 6234 C 575.776 4.40145 0.978922 0
M  V30 6235 C 574.438 4.75066 0.765912 0
M  V30 6236 C 576.79 5.19369 0.436498 0
M  V30 6237 C 574.118 5.867 -0.00089868 0
M  V30 6238 C 576.47 6.31805 -0.317136 0
M  V30 6239 C 575.134 6.65303 -0.541103 0
M  V30 6240 H 574.404 0.662373 0.33218 0
M  V30 6241 H 577.051 1.9071 0.173732 0
M  V30 6242 H 575.356 2.97165 2.55343 0
M  V30 6243 H 577.053 3.27793 2.30983 0
M  V30 6244 H 573.643 4.12745 1.15497 0
M  V30 6245 H 577.827 4.92799 0.588449 0
M  V30 6246 H 573.083 6.11122 -0.184329 0
M  V30 6247 H 577.257 6.92406 -0.744788 0
M  V30 6248 H 574.884 7.51646 -1.13718 0
M  V30 6249 N 576.459 -0.456382 1.50847 0
M  V30 6250 C 577.389 -1.56025 1.73719 0
M  V30 6251 C 578.37 -1.5967 0.586473 0
M  V30 6252 O 579.555 -1.75702 0.827185 0
M  V30 6253 C 576.685 -2.94251 1.84483 0
M  V30 6254 C 575.639 -3.05471 2.99786 0
M  V30 6255 C 574.965 -4.45489 2.95709 0
M  V30 6256 C 576.265 -2.81318 4.40065 0
M  V30 6257 H 577.959 -1.37138 2.66146 0
M  V30 6258 H 575.505 -0.658299 1.28072 0
M  V30 6259 H 577.458 -3.71417 1.99067 0
M  V30 6260 H 576.182 -3.14328 0.886891 0
M  V30 6261 H 574.841 -2.30741 2.84876 0
M  V30 6262 H 574.489 -4.62505 1.97732 0
M  V30 6263 H 574.189 -4.53929 3.73125 0
M  V30 6264 H 575.713 -5.24655 3.12362 0
M  V30 6265 H 577.127 -3.48226 4.55425 0
M  V30 6266 H 575.524 -3.01188 5.19043 0
M  V30 6267 H 576.594 -1.7706 4.51418 0
M  V30 6268 N 577.937 -1.40673 -0.710563 0
M  V30 6269 C 578.884 -1.41336 -1.82463 0
M  V30 6270 C 579.854 -0.269648 -1.63897 0
M  V30 6271 O 581.039 -0.468463 -1.8496 0
M  V30 6272 C 578.179 -1.28665 -3.20218 0
M  V30 6273 C 577.292 -2.52784 -3.5032 0
M  V30 6274 C 576.427 -2.32517 -4.77608 0
M  V30 6275 C 575.466 -3.52187 -5.0063 0
M  V30 6276 N 574.603 -3.31084 -6.19135 0
M  V30 6277 H 579.443 -2.36558 -1.8123 0
M  V30 6278 H 576.98 -1.17483 -0.885226 0
M  V30 6279 H 578.938 -1.19324 -3.99772 0
M  V30 6280 H 577.568 -0.370602 -3.20666 0
M  V30 6281 H 576.62 -2.72634 -2.65283 0
M  V30 6282 H 577.932 -3.41845 -3.63241 0
M  V30 6283 H 577.086 -2.20558 -5.65189 0
M  V30 6284 H 575.825 -1.40889 -4.66906 0
M  V30 6285 H 574.83 -3.64617 -4.11502 0
M  V30 6286 H 576.055 -4.44749 -5.13201 0
M  V30 6287 H 574.001 -2.42143 -6.09674 0
M  V30 6288 H 573.918 -4.13713 -6.32754 0
M  V30 6289 H 575.186 -3.22868 -7.0949 0
M  V30 6290 N 579.415 0.9433 -1.26252 0
M  V30 6291 C 580.664 1.68369 -1.11062 0
M  V30 6292 C 580.977 1.92514 0.346104 0
M  V30 6293 O 582.183 2.64358 0.618646 0
M  V30 6294 C 580.639 3.03171 -1.93946 0
M  V30 6295 C 580.247 2.86782 -3.4418 0
M  V30 6296 C 581.991 3.80916 -1.87359 0
M  V30 6297 C 579.898 4.17044 -4.19319 0
M  V30 6298 H 578.828 0.631469 -0.412023 0
M  V30 6299 H 581.479 1.04922 -1.50544 0
M  V30 6300 H 579.861 3.67587 -1.47296 0
M  V30 6301 H 581.035 2.31229 -3.98585 0
M  V30 6302 H 579.35 2.22482 -3.51981 0
M  V30 6303 H 581.947 4.77417 -2.40784 0
M  V30 6304 H 582.29 4.07658 -0.843857 0
M  V30 6305 H 582.823 3.2327 -2.31821 0
M  V30 6306 H 579.562 3.95487 -5.22753 0
M  V30 6307 H 579.082 4.72319 -3.69696 0
M  V30 6308 H 580.761 4.85513 -4.27651 0
M  V30 6309 N 580.893 1.08022 1.14757 0
M  V30 6310 C 581.826 0.650738 2.18725 0
M  V30 6311 C 582.804 -0.335496 1.59101 0
M  V30 6312 O 583.988 -0.240295 1.86962 0
M  V30 6313 C 581.115 -0.0434377 3.38672 0
M  V30 6314 C 580.161 0.90232 4.16846 0
M  V30 6315 S 580.994 2.40693 4.78359 0
M  V30 6316 C 582.15 1.72475 6.01667 0
M  V30 6317 H 582.383 1.53152 2.54817 0
M  V30 6318 H 579.916 0.894823 1.25826 0
M  V30 6319 H 581.874 -0.437684 4.0816 0
M  V30 6320 H 580.535 -0.900659 3.0091 0
M  V30 6321 H 579.728 0.363445 5.02688 0
M  V30 6322 H 579.33 1.23728 3.52941 0
M  V30 6323 H 581.622 1.0404 6.69464 0
M  V30 6324 H 582.565 2.56175 6.60136 0
M  V30 6325 H 582.973 1.19979 5.51602 0
M  V30 6326 N 582.371 -1.3172 0.865308 0
M  V30 6327 C 583.334 -2.26918 0.322627 0
M  V30 6328 C 584.334 -1.52031 -0.523751 0
M  V30 6329 O 585.524 -1.70973 -0.333727 0
M  V30 6330 C 582.656 -3.36558 -0.542338 0
M  V30 6331 H 583.849 -2.76432 1.16298 0
M  V30 6332 H 581.402 -1.42573 0.640512 0
M  V30 6333 H 582.137 -2.92329 -1.40407 0
M  V30 6334 H 581.922 -3.92048 0.0636395 0
M  V30 6335 H 583.412 -4.07465 -0.91446 0
M  V30 6336 N 583.85 -0.624285 -1.44708 0
M  V30 6337 C 584.783 0.133905 -2.27807 0
M  V30 6338 C 585.76 0.857794 -1.38133 0
M  V30 6339 O 586.945 0.863277 -1.6757 0
M  V30 6340 C 584.072 1.19541 -3.16903 0
M  V30 6341 C 583.118 0.572813 -4.22636 0
M  V30 6342 S 583.951 -0.631953 -5.31758 0
M  V30 6343 C 585.106 0.429733 -6.24423 0
M  V30 6344 H 585.34 -0.571072 -2.91764 0
M  V30 6345 H 582.873 -0.412261 -1.48794 0
M  V30 6346 H 584.831 1.80293 -3.68788 0
M  V30 6347 H 583.492 1.87255 -2.5218 0
M  V30 6348 H 582.685 1.37205 -4.84965 0
M  V30 6349 H 582.287 0.0400641 -3.73979 0
M  V30 6350 H 584.579 1.30421 -6.64828 0
M  V30 6351 H 585.522 -0.157804 -7.07924 0
M  V30 6352 H 585.93 0.75256 -5.59461 0
M  V30 6353 N 585.328 1.53329 -0.364422 0
M  V30 6354 C 586.258 2.28627 0.474543 0
M  V30 6355 C 587.239 1.31009 1.08492 0
M  V30 6356 O 588.424 1.59878 1.10239 0
M  V30 6357 C 585.554 3.07465 1.61501 0
M  V30 6358 C 584.508 4.1276 1.13194 0
M  V30 6359 C 583.834 4.79674 2.36255 0
M  V30 6360 C 585.134 5.21847 0.217507 0
M  V30 6361 H 586.828 2.99005 -0.153656 0
M  V30 6362 H 584.374 1.43803 -0.0753406 0
M  V30 6363 H 586.327 3.58889 2.20855 0
M  V30 6364 H 585.051 2.34775 2.27042 0
M  V30 6365 H 583.71 3.62281 0.56109 0
M  V30 6366 H 583.358 4.03557 3.00251 0
M  V30 6367 H 583.058 5.50827 2.04606 0
M  V30 6368 H 584.582 5.33892 2.96297 0
M  V30 6369 H 585.996 5.6878 0.718493 0
M  V30 6370 H 584.393 6.00099 -0.00806408 0
M  V30 6371 H 585.463 4.7921 -0.740653 0
M  V30 6372 N 586.806 0.0935595 1.57322 0
M  V30 6373 C 588.034 -0.578934 1.98635 0
M  V30 6374 C 588.449 -1.61819 0.972626 0
M  V30 6375 O 587.806 -1.82461 -0.0379638 0
M  V30 6376 C 587.857 -1.22802 3.40003 0
M  V30 6377 O 587.578 -0.230334 4.37494 0
M  V30 6378 C 589.079 -1.98627 3.96311 0
M  V30 6379 H 586.299 -0.155324 0.652775 0
M  V30 6380 H 588.843 0.172393 2.03772 0
M  V30 6381 H 586.998 -1.93029 3.35885 0
M  V30 6382 H 587.412 -0.698649 5.19826 0
M  V30 6383 H 588.886 -2.39405 4.97382 0
M  V30 6384 H 589.363 -2.85151 3.34044 0
M  V30 6385 H 589.969 -1.3322 4.03897 0
M  V30 6386 N 588.284 -1.56567 -0.180126 0
M  V30 6387 C 589.194 -1.98947 -1.24327 0
M  V30 6388 C 590.21 -0.899446 -1.4895 0
M  V30 6389 O 591.386 -1.20639 -1.61271 0
M  V30 6390 C 588.451 -2.33328 -2.56435 0
M  V30 6391 C 587.512 -3.56114 -2.39752 0
M  V30 6392 C 586.745 -3.88845 -3.65561 0
M  V30 6393 O 586.968 -3.22662 -4.70368 0
M  V30 6394 O 585.902 -4.82226 -3.60197 0
M  V30 6395 H 589.728 -2.89634 -0.913565 0
M  V30 6396 H 587.313 -1.44319 -0.386306 0
M  V30 6397 H 589.195 -2.5645 -3.34382 0
M  V30 6398 H 587.87 -1.45806 -2.89002 0
M  V30 6399 H 586.777 -3.38221 -1.59866 0
M  V30 6400 H 588.11 -4.4415 -2.12113 0
M  V30 6401 N 589.762 0.448376 -1.51087 0
M  V30 6402 C 590.692 1.55102 -1.74544 0
M  V30 6403 C 591.673 1.59357 -0.594932 0
M  V30 6404 O 592.858 1.75261 -0.836491 0
M  V30 6405 C 589.988 2.93268 -1.86041 0
M  V30 6406 C 588.942 3.03877 -3.01402 0
M  V30 6407 C 588.268 4.43914 -2.98068 0
M  V30 6408 C 589.568 2.7898 -4.41551 0
M  V30 6409 H 591.262 1.35724 -2.66869 0
M  V30 6410 H 588.808 0.651498 -1.28419 0
M  V30 6411 H 590.761 3.70356 -2.01034 0
M  V30 6412 H 589.485 3.13853 -0.903548 0
M  V30 6413 H 588.144 2.29227 -2.86096 0
M  V30 6414 H 587.792 4.6145 -2.00182 0
M  V30 6415 H 587.492 4.51944 -3.75527 0
M  V30 6416 H 589.016 5.22991 -3.1514 0
M  V30 6417 H 590.43 3.45805 -4.57265 0
M  V30 6418 H 588.827 2.98431 -5.20633 0
M  V30 6419 H 589.897 1.74663 -4.5235 0
M  V30 6420 N 591.24 1.41047 0.703093 0
M  V30 6421 C 592.656 1.23351 1.01275 0
M  V30 6422 C 592.856 0.11754 2.01157 0
M  V30 6423 O 591.912 -0.520518 2.47077 0
M  V30 6424 C 593.225 2.58001 1.54454 0
M  V30 6425 C 594.773 2.65119 1.66376 0
M  V30 6426 C 595.248 4.00067 2.22958 0
M  V30 6427 N 596.739 4.01875 2.30328 0
M  V30 6428 C 597.474 5.03087 2.75119 0
M  V30 6429 N 596.97 6.14692 3.19571 0
M  V30 6430 N 598.763 4.90451 2.74616 0
M  V30 6431 H 590.914 2.1236 0.0412686 0
M  V30 6432 H 593.177 0.944543 0.08089 0
M  V30 6433 H 592.883 3.40378 0.88521 0
M  V30 6434 H 592.757 2.79962 2.52786 0
M  V30 6435 H 595.144 1.83106 2.31422 0
M  V30 6436 H 595.225 2.46975 0.666089 0
M  V30 6437 H 594.869 4.82526 1.58529 0
M  V30 6438 H 594.799 4.15547 3.23462 0
M  V30 6439 H 597.29 3.21291 1.98949 0
M  V30 6440 H 597.603 6.87799 3.52352 0
M  V30 6441 H 595.948 6.18239 3.17498 0
M  V30 6442 H 599.139 4.0235 2.39233 0
M  V30 6443 H 599.312 5.6947 3.09206 0
M  V30 6444 N 592.718 -0.936591 1.26751 0
M  V30 6445 C 593.943 -1.72288 1.15462 0
M  V30 6446 C 594.368 -1.85915 -0.285887 0
M  V30 6447 O 593.726 -1.35272 -1.20711 0
M  V30 6448 C 593.774 -3.10503 1.83359 0
M  V30 6449 O 592.878 -3.96745 1.1255 0
M  V30 6450 H 592.219 -0.52843 0.402067 0
M  V30 6451 H 594.749 -1.17271 1.67656 0
M  V30 6452 H 594.759 -3.60867 1.90365 0
M  V30 6453 H 593.434 -2.99901 2.88153 0
M  V30 6454 H 592.011 -3.55191 1.13551 0
M  V30 6455 N 594.196 -1.08629 -1.14182 0
M  V30 6456 C 595.445 -0.812271 -1.84621 0
M  V30 6457 C 595.758 0.664313 -1.83973 0
M  V30 6458 O 596.964 1.05357 -2.50224 0
M  V30 6459 C 595.42 -1.4031 -3.31423 0
M  V30 6460 C 595.028 -2.91164 -3.40481 0
M  V30 6461 C 596.772 -1.20767 -4.06959 0
M  V30 6462 C 594.679 -3.43373 -4.81507 0
M  V30 6463 H 593.609 -0.30019 -0.691666 0
M  V30 6464 H 596.26 -1.30798 -1.28701 0
M  V30 6465 H 594.642 -0.835096 -3.87094 0
M  V30 6466 H 595.816 -3.5412 -2.94848 0
M  V30 6467 H 594.131 -3.09646 -2.78403 0
M  V30 6468 H 596.728 -1.57237 -5.11058 0
M  V30 6469 H 597.071 -0.147664 -4.16038 0
M  V30 6470 H 597.604 -1.74274 -3.57594 0
M  V30 6471 H 594.343 -4.48958 -4.77616 0
M  V30 6472 H 593.863 -2.85176 -5.27669 0
M  V30 6473 H 595.542 -3.40095 -5.50404 0
M  V30 6474 N 595.674 1.31259 -0.872281 0
M  V30 6475 C 596.622 2.30404 -0.318897 0
M  V30 6476 C 597.616 1.5962 0.567267 0
M  V30 6477 O 598.822 1.74204 0.453111 0
M  V30 6478 H 595.197 0.747243 -0.0844474 0
M  V30 6479 H 597.168 2.74549 -1.16899 0
M  V30 6480 C 595.917 3.44608 0.462683 0
M  V30 6481 H 595.24 3.99248 -0.209936 0
M  V30 6482 H 596.68 4.1609 0.815187 0
M  V30 6483 C 595.139 2.93456 1.65485 0
M  V30 6484 O 595.669 2.92418 2.75417 0
M  V30 6485 N 593.875 2.49628 1.48776 0
M  V30 6486 H 593.422 2.50671 0.593452 0
M  V30 6487 H 593.38 2.15759 2.28682 0
M  V30 6488 N 597.152 0.631951 1.44375 0
M  V30 6489 C 598.115 -0.0628142 2.29114 0
M  V30 6490 C 599.115 -0.771494 1.41084 0
M  V30 6491 O 600.305 -0.615959 1.62947 0
M  V30 6492 C 597.437 -1.09953 3.22681 0
M  V30 6493 H 598.63 0.682509 2.92031 0
M  V30 6494 H 596.183 0.392128 1.51301 0
M  V30 6495 H 596.918 -1.87481 2.64616 0
M  V30 6496 H 596.703 -0.595286 3.87555 0
M  V30 6497 H 598.193 -1.58538 3.86336 0
M  V30 6498 N 598.631 -1.53133 0.372548 0
M  V30 6499 C 599.563 -2.23557 -0.505444 0
M  V30 6500 C 600.576 -1.25211 -1.04049 0
M  V30 6501 O 601.765 -1.51391 -0.945675 0
M  V30 6502 C 598.865 -2.92516 -1.71136 0
M  V30 6503 C 598.038 -4.17428 -1.30661 0
M  V30 6504 C 597.097 -4.69535 -2.37536 0
M  V30 6505 O 596.123 -5.33042 -1.99637 0
M  V30 6506 N 597.325 -4.47947 -3.6922 0
M  V30 6507 H 600.09 -2.9954 0.0978259 0
M  V30 6508 H 597.651 -1.60684 0.198068 0
M  V30 6509 H 599.643 -3.24281 -2.42124 0
M  V30 6510 H 598.213 -2.19944 -2.22134 0
M  V30 6511 H 597.433 -3.91888 -0.426292 0
M  V30 6512 H 598.721 -4.98622 -1.01259 0
M  V30 6513 H 598.119 -3.97219 -4.02783 0
M  V30 6514 H 596.676 -4.84245 -4.36292 0
M  V30 6515 N 600.109 -0.101901 -1.5727 0
M  V30 6516 C 601.059 0.865346 -2.1094 0
M  V30 6517 C 602.043 1.2394 -1.02605 0
M  V30 6518 O 603.235 1.21334 -1.28868 0
M  V30 6519 C 600.364 2.12187 -2.69874 0
M  V30 6520 C 599.45 1.77295 -3.85263 0
M  V30 6521 N 599.841 1.12993 -4.93017 0
M  V30 6522 C 598.139 2.06862 -3.95126 0
M  V30 6523 C 598.84 0.968631 -5.73579 0
M  V30 6524 N 597.816 1.48814 -5.22834 0
M  V30 6525 H 601.618 0.364368 -2.91633 0
M  V30 6526 H 599.132 0.101104 -1.62085 0
M  V30 6527 H 601.129 2.82431 -3.06657 0
M  V30 6528 H 599.789 2.62844 -1.90639 0
M  V30 6529 H 600.8 0.795935 -5.11747 0
M  V30 6530 H 597.477 2.59686 -3.26909 0
M  V30 6531 H 598.867 0.465231 -6.70287 0
M  V30 6532 N 601.587 1.56661 0.17182 0
M  V30 6533 C 602.815 1.861 0.904115 0
M  V30 6534 C 603.23 0.687227 1.75848 0
M  V30 6535 O 602.587 -0.343671 1.79235 0
M  V30 6536 C 602.638 3.14568 1.78127 0
M  V30 6537 O 602.359 4.27422 0.961366 0
M  V30 6538 C 603.86 3.5735 2.62327 0
M  V30 6539 H 601.08 0.617445 0.262684 0
M  V30 6540 H 603.624 2.03775 0.172068 0
M  V30 6541 H 601.779 2.98721 2.46666 0
M  V30 6542 H 602.193 5.00725 1.56123 0
M  V30 6543 H 603.667 4.50144 3.1949 0
M  V30 6544 H 604.144 2.81445 3.37173 0
M  V30 6545 H 604.75 3.75807 1.99121 0
M  V30 6546 N 603.065 -0.440357 1.51323 0
M  V30 6547 C 603.997 -1.55254 1.68609 0
M  V30 6548 C 605.01 -1.52614 0.566812 0
M  V30 6549 O 606.199 -1.57445 0.841032 0
M  V30 6550 C 603.299 -2.94169 1.68279 0
M  V30 6551 C 602.472 -3.21346 2.96742 0
M  V30 6552 C 601.531 -4.3997 2.8864 0
M  V30 6553 O 600.557 -4.38771 3.62586 0
M  V30 6554 N 601.759 -5.43367 2.04285 0
M  V30 6555 H 604.524 -1.40831 2.6455 0
M  V30 6556 H 602.085 -0.629251 1.49171 0
M  V30 6557 H 604.077 -3.71543 1.60431 0
M  V30 6558 H 602.647 -3.02205 0.799441 0
M  V30 6559 H 601.867 -2.32299 3.18482 0
M  V30 6560 H 603.155 -3.3633 3.81785 0
M  V30 6561 H 602.553 -5.47176 1.43578 0
M  V30 6562 H 601.11 -6.19605 2.02318 0
M  V30 6563 N 604.543 -1.41418 -0.695603 0
M  V30 6564 C 605.959 -1.23887 -1.00619 0
M  V30 6565 C 606.159 -0.128206 -2.01092 0
M  V30 6566 O 605.215 0.507408 -2.47349 0
M  V30 6567 C 606.528 -2.58816 -1.53083 0
M  V30 6568 C 608.076 -2.65998 -1.64967 0
M  V30 6569 C 608.551 -4.01244 -2.20833 0
M  V30 6570 N 610.042 -4.0309 -2.28194 0
M  V30 6571 C 610.777 -5.04539 -2.72448 0
M  V30 6572 N 610.273 -6.16378 -3.16306 0
M  V30 6573 N 612.066 -4.91901 -2.72011 0
M  V30 6574 H 604.217 -2.12379 -0.0300061 0
M  V30 6575 H 606.48 -0.944958 -0.0758797 0
M  V30 6576 H 606.186 -3.40842 -0.867147 0
M  V30 6577 H 606.06 -2.81299 -2.51298 0
M  V30 6578 H 608.447 -1.84331 -2.30448 0
M  V30 6579 H 608.528 -2.47325 -0.652982 0
M  V30 6580 H 608.172 -4.83359 -1.55968 0
M  V30 6581 H 608.102 -4.17257 -3.21254 0
M  V30 6582 H 610.593 -3.22341 -1.97242 0
M  V30 6583 H 610.906 -6.89658 -3.487 0
M  V30 6584 H 609.251 -6.19914 -3.14215 0
M  V30 6585 H 612.442 -4.03613 -2.37095 0
M  V30 6586 H 612.615 -5.71102 -3.06181 0
M  V30 6587 N 606.021 0.929856 -1.27246 0
M  V30 6588 C 606.951 2.04722 -1.12299 0
M  V30 6589 C 607.932 1.70082 -0.0250464 0
M  V30 6590 O 609.117 1.93176 -0.199141 0
M  V30 6591 C 606.247 3.38721 -0.767145 0
M  V30 6592 C 605.201 3.87466 -1.81808 0
M  V30 6593 C 604.527 5.18246 -1.31626 0
M  V30 6594 C 605.827 4.11095 -3.22177 0
M  V30 6595 H 607.521 2.17485 -2.05769 0
M  V30 6596 H 605.067 1.04503 -0.990715 0
M  V30 6597 H 607.02 4.16366 -0.649413 0
M  V30 6598 H 605.744 3.25967 0.203259 0
M  V30 6599 H 604.403 3.12012 -1.92468 0
M  V30 6600 H 604.051 5.01881 -0.335378 0
M  V30 6601 H 603.751 5.51829 -2.01887 0
M  V30 6602 H 605.275 5.98462 -1.21143 0
M  V30 6603 H 606.689 4.79316 -3.1453 0
M  V30 6604 H 605.086 4.55982 -3.90129 0
M  V30 6605 H 606.156 3.16468 -3.67391 0
M  V30 6606 N 607.499 1.09233 1.13605 0
M  V30 6607 C 608.429 0.751738 2.21068 0
M  V30 6608 C 609.41 -0.269688 1.67948 0
M  V30 6609 O 610.595 -0.13819 1.93708 0
M  V30 6610 C 607.725 0.16935 3.46887 0
M  V30 6611 C 606.679 1.12007 4.13084 0
M  V30 6612 C 606.005 0.399483 5.33206 0
M  V30 6613 C 607.305 2.46168 4.6065 0
M  V30 6614 H 608.999 1.65024 2.49815 0
M  V30 6615 H 606.545 0.794905 1.20072 0
M  V30 6616 H 608.498 -0.0809824 4.21322 0
M  V30 6617 H 607.222 -0.764335 3.1753 0
M  V30 6618 H 605.881 1.35564 3.40614 0
M  V30 6619 H 605.529 -0.538277 5.00112 0
M  V30 6620 H 605.229 1.03337 5.78442 0
M  V30 6621 H 606.753 0.157403 6.10397 0
M  V30 6622 H 608.167 2.26829 5.26518 0
M  V30 6623 H 606.564 3.05326 5.1662 0
M  V30 6624 H 607.634 3.07076 3.75276 0
M  V30 6625 N 608.977 -1.30795 0.87923 0
M  V30 6626 C 610.393 -1.48981 0.57243 0
M  V30 6627 C 610.593 -1.80719 -0.891236 0
M  V30 6628 O 609.649 -1.89136 -1.67283 0
M  V30 6629 C 610.962 -2.61721 1.48063 0
M  V30 6630 C 612.51 -2.75603 1.48365 0
M  V30 6631 C 612.985 -3.91449 2.37763 0
M  V30 6632 N 614.476 -3.98751 2.35695 0
M  V30 6633 C 615.211 -4.87684 3.01583 0
M  V30 6634 N 614.707 -5.81454 3.76674 0
M  V30 6635 N 616.5 -4.81005 2.90844 0
M  V30 6636 H 608.651 -1.08465 1.82617 0
M  V30 6637 H 610.914 -0.536813 0.781368 0
M  V30 6638 H 610.62 -2.45073 2.52254 0
M  V30 6639 H 610.494 -3.58071 1.18596 0
M  V30 6640 H 612.881 -2.9166 0.44927 0
M  V30 6641 H 612.962 -1.79891 1.81859 0
M  V30 6642 H 612.606 -3.76149 3.41283 0
M  V30 6643 H 612.536 -4.86487 2.01589 0
M  V30 6644 H 615.027 -3.31668 1.81121 0
M  V30 6645 H 615.34 -6.46063 4.24054 0
M  V30 6646 H 613.685 -5.81403 3.80782 0
M  V30 6647 H 616.876 -4.06728 2.31711 0
M  V30 6648 H 617.049 -5.50107 3.42471 0
M  V30 6649 N 610.455 -0.639598 -1.44038 0
M  V30 6650 C 611.704 -0.144885 -2.01179 0
M  V30 6651 C 612.017 1.24372 -1.50967 0
M  V30 6652 O 613.223 1.83291 -2.00292 0
M  V30 6653 C 611.679 -0.208244 -3.59297 0
M  V30 6654 C 611.287 -1.59869 -4.18504 0
M  V30 6655 C 613.031 0.229568 -4.23879 0
M  V30 6656 C 610.938 -1.61671 -5.68873 0
M  V30 6657 H 609.868 -0.0504005 -0.752314 0
M  V30 6658 H 612.519 -0.799639 -1.65161 0
M  V30 6659 H 610.901 0.513767 -3.92653 0
M  V30 6660 H 612.075 -2.34496 -3.96671 0
M  V30 6661 H 610.39 -1.98131 -3.66242 0
M  V30 6662 H 612.987 0.235758 -5.3418 0
M  V30 6663 H 613.33 1.25848 -3.96822 0
M  V30 6664 H 613.863 -0.440233 -3.95357 0
M  V30 6665 H 610.602 -2.62427 -6.00677 0
M  V30 6666 H 610.122 -0.913489 -5.92803 0
M  V30 6667 H 611.801 -1.35439 -6.32665 0
M  V30 6668 N 611.933 1.52934 -0.380664 0
M  V30 6669 C 612.865 2.23822 0.493581 0
M  V30 6670 C 613.878 1.25761 1.03383 0
M  V30 6671 O 615.067 1.5189 0.937633 0
M  V30 6672 C 612.167 2.9342 1.69582 0
M  V30 6673 C 611.34 4.18115 1.28445 0
M  V30 6674 C 610.399 4.70788 2.35042 0
M  V30 6675 O 609.425 5.34093 1.96807 0
M  V30 6676 N 610.627 4.49899 3.66839 0
M  V30 6677 H 613.392 2.99484 -0.11371 0
M  V30 6678 H 610.953 1.60577 -0.206587 0
M  V30 6679 H 612.945 3.2556 2.40401 0
M  V30 6680 H 611.515 2.21119 2.20965 0
M  V30 6681 H 610.735 3.92109 0.405503 0
M  V30 6682 H 612.023 4.99152 0.986132 0
M  V30 6683 H 611.421 3.99349 4.0067 0
M  V30 6684 H 609.978 4.86551 4.33718 0
M  V30 6685 N 613.412 0.11024 1.57214 0
M  V30 6686 C 614.689 -0.592956 1.86396 0
M  V30 6687 C 615.069 -1.85379 1.00985 0
M  V30 6688 O 614.417 -2.28337 0.0863592 0
M  V30 6689 C 614.627 -0.893816 3.3736 0
M  V30 6690 C 615.975 -1.25069 4.05762 0
M  V30 6691 O 616.999 -0.984356 3.42329 0
M  V30 6692 O 615.858 -1.75017 5.17718 0
M  V30 6693 H 612.952 -0.29828 0.771335 0
M  V30 6694 H 615.498 0.144083 1.69087 0
M  V30 6695 H 614.27 2.6031e-05 3.913 0
M  V30 6696 H 613.893 -1.68631 3.60068 0
M  V30 6697 N 614.89 -1.56749 -0.16351 0
M  V30 6698 C 616.139 -1.81626 -0.877211 0
M  V30 6699 C 616.452 -0.688791 -1.83071 0
M  V30 6700 O 617.658 -0.822697 -2.58735 0
M  V30 6701 C 616.114 -3.21858 -1.61045 0
M  V30 6702 C 615.722 -4.42494 -0.700195 0
M  V30 6703 C 617.466 -3.56021 -2.31192 0
M  V30 6704 C 615.373 -5.73748 -1.43412 0
M  V30 6705 H 614.303 -0.67731 -0.331312 0
M  V30 6706 H 616.954 -1.83039 -0.13006 0
M  V30 6707 H 615.336 -3.14784 -2.40264 0
M  V30 6708 H 616.51 -4.60766 0.0555849 0
M  V30 6709 H 614.825 -4.1626 -0.10799 0
M  V30 6710 H 617.422 -4.51333 -2.8671 0
M  V30 6711 H 617.765 -2.81277 -3.06902 0
M  V30 6712 H 618.298 -3.64682 -1.58909 0
M  V30 6713 H 615.037 -6.51543 -0.719186 0
M  V30 6714 H 614.557 -5.5944 -2.16302 0
M  V30 6715 H 616.236 -6.15975 -1.9795 0
M  V30 6716 N 616.368 0.432326 -1.51554 0
M  V30 6717 C 617.318 1.52366 -1.69614 0
M  V30 6718 C 618.302 1.51205 -0.550083 0
M  V30 6719 O 619.494 1.57573 -0.806206 0
M  V30 6720 C 616.623 2.90513 -1.82913 0
M  V30 6721 C 615.709 2.9641 -3.03318 0
M  V30 6722 N 616.1 2.72043 -4.26411 0
M  V30 6723 C 614.398 3.27572 -3.02675 0
M  V30 6724 C 615.099 2.83912 -5.07709 0
M  V30 6725 N 614.075 3.15798 -4.42462 0
M  V30 6726 H 617.877 1.32285 -2.62446 0
M  V30 6727 H 615.391 0.639708 -1.4927 0
M  V30 6728 H 617.388 3.69032 -1.93962 0
M  V30 6729 H 616.048 3.1161 -0.912655 0
M  V30 6730 H 617.059 2.46876 -4.55272 0
M  V30 6731 H 613.736 3.54411 -2.20678 0
M  V30 6732 H 615.126 2.68984 -6.15709 0
M  V30 6733 N 617.846 1.41785 0.688094 0
M  V30 6734 C 619.257 1.3701 1.26828 0
M  V30 6735 C 619.608 0.056835 1.96118 0
M  V30 6736 O 618.733 -0.84475 1.99231 0
M  V30 6737 C 619.328 2.48168 2.30648 0
M  V30 6738 C 617.887 2.46766 2.84224 0
M  V30 6739 C 617.034 2.27633 1.58361 0
M  V30 6740 H 619.985 1.51192 0.482351 0
M  V30 6741 H 620.006 2.17655 3.121 0
M  V30 6742 H 619.518 3.43735 1.80188 0
M  V30 6743 H 617.619 1.54978 3.3884 0
M  V30 6744 H 617.732 3.43342 3.34145 0
M  V30 6745 H 616.096 1.75648 1.84445 0
M  V30 6746 H 616.879 3.25238 1.09887 0
M  V30 6747 N 619.324 -0.923095 1.27737 0
M  V30 6748 C 620.571 -1.67127 1.14345 0
M  V30 6749 C 620.899 -1.92017 -0.30982 0
M  V30 6750 O 620.154 -1.51185 -1.24264 0
M  V30 6751 C 620.453 -3.04125 1.8773 0
M  V30 6752 C 620.119 -2.98929 3.37568 0
M  V30 6753 C 618.781 -2.9722 3.78436 0
M  V30 6754 C 621.133 -2.89875 4.33154 0
M  V30 6755 C 618.461 -2.84244 5.13247 0
M  V30 6756 C 620.813 -2.7844 5.68026 0
M  V30 6757 C 619.477 -2.75083 6.08182 0
M  V30 6758 H 618.747 -0.611562 0.418417 0
M  V30 6759 H 621.394 -1.07618 1.584 0
M  V30 6760 H 619.699 -3.67366 1.36196 0
M  V30 6761 H 621.396 -3.609 1.74792 0
M  V30 6762 H 617.986 -3.0105 3.05069 0
M  V30 6763 H 622.17 -2.9029 4.02548 0
M  V30 6764 H 617.426 -2.80034 5.43499 0
M  V30 6765 H 621.6 -2.70401 6.4176 0
M  V30 6766 H 619.227 -2.64786 7.12596 0
M  V30 6767 N 620.802 -1.09834 -1.13024 0
M  V30 6768 C 621.765 -0.745058 -2.16752 0
M  V30 6769 C 622.765 0.227435 -1.59183 0
M  V30 6770 O 623.955 0.0050786 -1.74199 0
M  V30 6771 C 621.087 -0.102543 -3.40746 0
M  V30 6772 H 622.28 -1.66375 -2.49518 0
M  V30 6773 H 619.833 -0.898061 -1.27924 0
M  V30 6774 H 620.568 0.827177 -3.13573 0
M  V30 6775 H 620.353 -0.80235 -3.83803 0
M  V30 6776 H 621.843 0.129082 -4.174 0
M  V30 6777 N 622.28 1.30327 -0.886154 0
M  V30 6778 C 623.508 2.00254 -0.520176 0
M  V30 6779 C 623.923 1.66419 0.891637 0
M  V30 6780 O 623.28 0.901951 1.58654 0
M  V30 6781 C 623.331 3.54916 -0.686775 0
M  V30 6782 O 623.052 3.87547 -2.04301 0
M  V30 6783 C 624.553 4.42115 -0.323945 0
M  V30 6784 H 621.773 0.640204 -0.200947 0
M  V30 6785 H 624.317 1.66183 -1.19178 0
M  V30 6786 H 622.472 3.8735 -0.0625273 0
M  V30 6787 H 622.886 4.82247 -2.06249 0
M  V30 6788 H 624.36 5.49808 -0.491407 0
M  V30 6789 H 624.837 4.32953 0.73811 0
M  V30 6790 H 625.443 4.15129 -0.924565 0
M  V30 6791 N 623.758 0.647228 1.43697 0
M  V30 6792 C 625.169 0.238689 1.85168 0
M  V30 6793 C 625.52 -1.21345 1.54175 0
M  V30 6794 O 624.645 -1.92542 0.987743 0
M  V30 6795 C 625.24 0.426422 3.36106 0
M  V30 6796 C 623.799 0.0722541 3.76331 0
M  V30 6797 C 622.946 0.732153 2.6746 0
M  V30 6798 H 625.897 0.851309 1.33934 0
M  V30 6799 H 625.918 -0.32987 3.79067 0
M  V30 6800 H 625.43 1.48339 3.58632 0
M  V30 6801 H 623.531 -0.982355 3.59417 0
M  V30 6802 H 623.644 0.493541 4.76551 0
M  V30 6803 H 622.008 0.16594 2.54159 0
M  V30 6804 H 622.791 1.79204 2.92816 0
M  V30 6805 N 625.236 -1.5273 0.388769 0
M  V30 6806 C 626.166 -2.29353 -0.438111 0
M  V30 6807 C 627.147 -1.32719 -1.06394 0
M  V30 6808 O 628.332 -1.61612 -1.07681 0
M  V30 6809 C 625.462 -3.09995 -1.56589 0
M  V30 6810 C 624.416 -4.14509 -1.06613 0
M  V30 6811 C 623.742 -4.83372 -2.28594 0
M  V30 6812 C 625.042 -5.22127 -0.134459 0
M  V30 6813 H 626.736 -2.98723 0.201206 0
M  V30 6814 H 624.282 -1.43665 0.0982089 0
M  V30 6815 H 626.235 -3.62357 -2.15118 0
M  V30 6816 H 624.959 -2.38357 -2.23279 0
M  V30 6817 H 623.618 -3.63128 -0.503383 0
M  V30 6818 H 623.266 -4.08283 -2.93792 0
M  V30 6819 H 622.966 -5.54012 -1.95817 0
M  V30 6820 H 624.49 -5.38538 -2.87766 0
M  V30 6821 H 625.904 -5.69851 -0.627914 0
M  V30 6822 H 624.301 -6.00011 0.103534 0
M  V30 6823 H 625.371 -4.77971 0.816798 0
M  V30 6824 N 626.714 -0.118576 -1.57153 0
M  V30 6825 C 627.647 0.869046 -2.11004 0
M  V30 6826 C 628.625 1.26115 -1.02634 0
M  V30 6827 O 629.809 1.36228 -1.30285 0
M  V30 6828 C 626.936 2.16297 -2.6064 0
M  V30 6829 C 625.982 1.91896 -3.80891 0
M  V30 6830 S 626.815 1.13562 -5.2332 0
M  V30 6831 C 627.971 2.44135 -5.76324 0
M  V30 6832 H 628.204 0.411005 -2.94445 0
M  V30 6833 H 625.737 0.0951891 -1.54106 0
M  V30 6834 H 627.695 2.90642 -2.89892 0
M  V30 6835 H 626.356 2.59219 -1.77382 0
M  V30 6836 H 625.549 2.8777 -4.13768 0
M  V30 6837 H 625.151 1.25672 -3.52253 0
M  V30 6838 H 627.443 3.39976 -5.86022 0
M  V30 6839 H 628.386 2.15803 -6.74414 0
M  V30 6840 H 628.794 2.53483 -5.04387 0
M  V30 6841 N 628.193 1.56834 0.155195 0
M  V30 6842 C 629.125 1.94235 1.21677 0
M  V30 6843 C 630.138 0.83724 1.39621 0
M  V30 6844 O 631.327 1.11567 1.39338 0
M  V30 6845 C 628.427 2.19402 2.58294 0
M  V30 6846 C 627.6 3.50671 2.61436 0
M  V30 6847 C 626.659 3.64475 3.79532 0
M  V30 6848 O 625.685 4.36945 3.64784 0
M  V30 6849 N 626.887 3.00526 4.96653 0
M  V30 6850 H 629.652 2.85901 0.898932 0
M  V30 6851 H 627.213 1.58185 0.34483 0
M  V30 6852 H 629.205 2.25886 3.35794 0
M  V30 6853 H 627.775 1.34042 2.82403 0
M  V30 6854 H 626.995 3.55702 1.69912 0
M  V30 6855 H 628.283 4.3702 2.60559 0
M  V30 6856 H 627.681 2.41549 5.11538 0
M  V30 6857 H 626.238 3.12583 5.71958 0
M  V30 6858 N 629.671 -0.424282 1.51781 0
M  V30 6859 C 630.581 -1.54087 1.76902 0
M  V30 6860 C 631.597 -1.61249 0.653826 0
M  V30 6861 O 632.773 -1.78247 0.937552 0
M  V30 6862 C 629.838 -2.8996 1.90063 0
M  V30 6863 C 628.899 -2.92809 3.13945 0
M  V30 6864 C 628.132 -4.22201 3.26469 0
M  V30 6865 O 628.355 -5.15286 2.44616 0
M  V30 6866 O 627.289 -4.31599 4.1953 0
M  V30 6867 H 631.115 -1.358 2.71647 0
M  V30 6868 H 628.7 -0.608618 1.36441 0
M  V30 6869 H 630.582 -3.70575 2.0063 0
M  V30 6870 H 629.257 -3.08347 0.985067 0
M  V30 6871 H 628.164 -2.11102 3.08847 0
M  V30 6872 H 629.497 -2.79369 4.05233 0
M  V30 6873 N 631.149 -1.42148 -0.680565 0
M  V30 6874 C 632.079 -1.4796 -1.80638 0
M  V30 6875 C 633.06 -0.336728 -1.66734 0
M  V30 6876 O 634.245 -0.550247 -1.86242 0
M  V30 6877 C 631.375 -1.37569 -3.18892 0
M  V30 6878 C 630.329 -2.49823 -3.47524 0
M  V30 6879 C 629.655 -2.24491 -4.85291 0
M  V30 6880 C 630.955 -3.92144 -3.44994 0
M  V30 6881 H 632.649 -2.42184 -1.76032 0
M  V30 6882 H 630.195 -1.16566 -0.845481 0
M  V30 6883 H 632.148 -1.40243 -3.97379 0
M  V30 6884 H 630.872 -0.398357 -3.24162 0
M  V30 6885 H 629.531 -2.46455 -2.71395 0
M  V30 6886 H 629.179 -1.25066 -4.87204 0
M  V30 6887 H 628.879 -2.99722 -5.05411 0
M  V30 6888 H 630.403 -2.28906 -5.66069 0
M  V30 6889 H 631.817 -3.97145 -4.13459 0
M  V30 6890 H 630.214 -4.67179 -3.76648 0
M  V30 6891 H 631.284 -4.19225 -2.43676 0
M  V30 6892 N 632.627 0.916307 -1.28225 0
M  V30 6893 C 633.874 1.66518 -1.1523 0
M  V30 6894 C 634.202 1.92178 0.299632 0
M  V30 6895 O 633.457 1.51842 1.2346 0
M  V30 6896 C 633.756 3.03125 -1.8934 0
M  V30 6897 C 633.422 2.97135 -3.39148 0
M  V30 6898 C 632.084 2.95208 -3.80007 0
M  V30 6899 C 634.436 2.87574 -4.34685 0
M  V30 6900 C 631.764 2.81518 -5.14747 0
M  V30 6901 C 634.116 2.75424 -5.69495 0
M  V30 6902 C 632.78 2.71854 -6.09632 0
M  V30 6903 H 632.05 0.609334 -0.421655 0
M  V30 6904 H 634.697 1.06776 -1.58969 0
M  V30 6905 H 633.002 3.66639 -1.38143 0
M  V30 6906 H 634.699 3.59968 -1.76704 0
M  V30 6907 H 631.289 2.99428 -3.06661 0
M  V30 6908 H 635.473 2.88152 -4.04082 0
M  V30 6909 H 630.729 2.77148 -5.44976 0
M  V30 6910 H 634.903 2.66993 -6.43185 0
M  V30 6911 H 632.53 2.61003 -7.1399 0
M  V30 6912 N 634.105 1.10431 1.1244 0
M  V30 6913 C 635.353 0.845045 1.83585 0
M  V30 6914 C 635.674 -0.631168 1.84503 0
M  V30 6915 O 634.944 -1.45825 1.30813 0
M  V30 6916 H 633.524 0.309628 0.679809 0
M  V30 6917 H 636.186 1.39458 1.36153 0
M  V30 6918 H 635.282 1.20786 2.8778 0
M  V30 6919 N 635.583 -1.29855 0.893053 0
M  V30 6920 C 636.832 -1.95104 0.511597 0
M  V30 6921 C 637.145 -1.71226 -0.945567 0
M  V30 6922 O 638.351 -2.30525 -1.43424 0
M  V30 6923 C 636.807 -3.49374 0.864034 0
M  V30 6924 C 636.415 -3.82061 2.33952 0
M  V30 6925 C 638.159 -4.20894 0.552167 0
M  V30 6926 C 636.066 -5.29546 2.63316 0
M  V30 6927 H 634.996 -0.73029 0.187597 0
M  V30 6928 H 637.647 -1.47682 1.08914 0
M  V30 6929 H 636.029 -3.95413 0.215493 0
M  V30 6930 H 637.203 -3.46904 3.03305 0
M  V30 6931 H 635.518 -3.23665 2.61973 0
M  V30 6932 H 638.115 -5.29435 0.748489 0
M  V30 6933 H 638.458 -4.13178 -0.508924 0
M  V30 6934 H 638.991 -3.80564 1.15825 0
M  V30 6935 H 635.73 -5.4232 3.68197 0
M  V30 6936 H 635.25 -5.65974 1.9858 0
M  V30 6937 H 636.929 -5.97068 2.49236 0
M  V30 6938 N 637.061 -0.65484 -1.43351 0
M  V30 6939 C 638.289 -0.176685 -2.06144 0
M  V30 6940 C 638.704 1.15831 -1.49093 0
M  V30 6941 O 638.061 1.71542 -0.622868 0
M  V30 6942 C 638.112 -0.0813326 -3.61408 0
M  V30 6943 O 637.833 -1.36355 -4.1634 0
M  V30 6944 C 639.334 0.422706 -4.4128 0
M  V30 6945 H 636.554 -0.0906429 -0.66485 0
M  V30 6946 H 639.098 -0.895945 -1.83829 0
M  V30 6947 H 637.253 0.588496 -3.82904 0
M  V30 6948 H 637.667 -1.22381 -5.10023 0
M  V30 6949 H 639.141 0.438375 -5.50257 0
M  V30 6950 H 639.618 1.45432 -4.14423 0
M  V30 6951 H 640.224 -0.214687 -4.24758 0
M  V30 6952 N 638.539 1.52521 -0.396863 0
M  V30 6953 C 639.787 2.01274 0.182536 0
M  V30 6954 C 640.108 1.28485 1.46685 0
M  V30 6955 O 639.378 0.407134 1.91623 0
M  V30 6956 H 637.958 0.743671 0.0704442 0
M  V30 6957 H 640.62 1.87547 -0.530289 0
M  V30 6958 H 639.716 3.09687 0.387385 0
M  V30 6959 N 640.017 0.126909 1.57088 0
M  V30 6960 C 641.242 -0.53997 2.00248 0
M  V30 6961 C 641.667 -1.58927 1.00618 0
M  V30 6962 O 641.025 -1.81288 -0.0210131 0
M  V30 6963 C 641.073 -1.13565 3.4225 0
M  V30 6964 O 640.177 -2.25103 3.45547 0
M  V30 6965 H 639.518 -0.13412 0.650314 0
M  V30 6966 H 642.048 0.217718 2.03438 0
M  V30 6967 H 642.058 -1.46925 3.80627 0
M  V30 6968 H 640.733 -0.367122 4.14277 0
M  V30 6969 H 639.31 -1.93123 3.18995 0
M  V30 6970 O 641.534 -1.61495 -0.0122585 0
M  V30 6971 H 642.225 -1.83148 -0.630585 0
M  V30 END ATOM
M  V30 BEGIN BOND
M  V30 END BOND
M  V30 END CTAB
M  END
$$$$
