drugbank_target|P77173 Cell division protein ZipA (DB01967; DB02191; DB03916; DB04154)
 OpenBabel12092120443D

  0  0  0     0  0            999 V3000
M  V30 BEGIN CTAB
M  V30 COUNTS 5074 5146 0 0 0
M  V30 BEGIN ATOM
M  V30 1 H -0.908 1.98254 -0.117106 0
M  V30 2 N 0 1.576 0 0
M  V30 3 C 0.933 2.03868 1.02534 0
M  V30 4 C 1.911 0.928543 1.3348 0
M  V30 5 O 3.095 1.19667 1.45644 0
M  V30 6 C 0.222 2.43627 2.35294 0
M  V30 7 C -0.732 3.65373 2.2001 0
M  V30 8 S 0.101 5.13292 1.52614 0
M  V30 9 C 1.257 5.56322 2.86805 0
M  V30 10 H 1.49 2.90518 0.631377 0
M  V30 11 H -0.977 1.52953 0.210867 0
M  V30 12 H 0.981 2.67203 3.11629 0
M  V30 13 H -0.358 1.57376 2.7183 0
M  V30 14 H -1.165 3.90944 3.18086 0
M  V30 15 H -1.563 3.418 1.51819 0
M  V30 16 H 0.729 5.58782 3.83104 0
M  V30 17 H 1.672 6.56266 2.65933 0
M  V30 18 H 2.08 4.83886 2.90714 0
M  V30 19 N 1.4781 -0.272755 1.55222 0
M  V30 20 C 2.4111 -1.3627 1.83046 0
M  V30 21 C 3.3891 -1.47536 0.683521 0
M  V30 22 O 4.5731 -1.64157 0.926545 0
M  V30 23 C 1.7001 -2.73908 1.99229 0
M  V30 24 C 0.7461 -2.79925 3.21783 0
M  V30 25 S 1.5791 -2.39146 4.79134 0
M  V30 26 C 2.7351 -3.78758 4.9829 0
M  V30 27 H 2.9681 -1.12464 2.75207 0
M  V30 28 H 0.5011 -0.472398 1.46996 0
M  V30 29 H 2.4591 -3.53171 2.09238 0
M  V30 30 H 1.1201 -2.94965 1.07956 0
M  V30 31 H 0.3131 -3.80946 3.29994 0
M  V30 32 H -0.0849 -2.08683 3.10367 0
M  V30 33 H 2.2071 -4.7403 4.84047 0
M  V30 34 H 3.1501 -3.75499 6.00338 0
M  V30 35 H 3.5581 -3.70072 4.26271 0
M  V30 36 N 2.9562 -1.48159 -0.537278 0
M  V30 37 C 3.8882 -1.58218 -1.65831 0
M  V30 38 C 4.9012 -0.466948 -1.5596 0
M  V30 39 O 6.0902 -0.73747 -1.62553 0
M  V30 40 C 3.1902 -1.48906 -3.04434 0
M  V30 41 C 2.3632 -2.75343 -3.3986 0
M  V30 42 C 1.4222 -2.59588 -4.57712 0
M  V30 43 O 0.4482 -3.33457 -4.61297 0
M  V30 44 N 1.6502 -1.68724 -5.55439 0
M  V30 45 H 4.4152 -2.54891 -1.57641 0
M  V30 46 H 1.9762 -1.4479 -0.724386 0
M  V30 47 H 3.9682 -1.36072 -3.81139 0
M  V30 48 H 2.5382 -0.602368 -3.06741 0
M  V30 49 H 1.7582 -3.02795 -2.52406 0
M  V30 50 H 3.0462 -3.5924 -3.60311 0
M  V30 51 H 2.4442 -1.07898 -5.55315 0
M  V30 52 H 1.0012 -1.61832 -6.3139 0
M  V30 53 N 4.4343 0.785586 -1.36625 0
M  V30 54 C 5.7113 1.53198 -1.21613 0
M  V30 55 C 6.0913 2.10187 0.196113 0
M  V30 56 O 5.4393 1.94318 1.20219 0
M  V30 57 C 5.6493 2.62388 -2.30116 0
M  V30 58 C 6.9973 3.30167 -2.66974 0
M  V30 59 O 8.0213 2.72674 -2.29188 0
M  V30 60 O 6.8803 4.34077 -3.32023 0
M  V30 61 H 3.9743 0.677865 -0.473738 0
M  V30 62 H 6.5203 0.823739 -1.48367 0
M  V30 63 H 5.2923 2.18299 -3.24748 0
M  V30 64 H 4.9153 3.40827 -2.0475 0
M  V30 65 N 5.9124 1.20967 1.01018 0
M  V30 66 C 6.8424 0.988272 2.11555 0
M  V30 67 C 7.8234 -0.0849778 1.69888 0
M  V30 68 O 9.0084 0.0738202 1.9406 0
M  V30 69 C 6.1384 0.546528 3.42973 0
M  V30 70 C 5.0924 1.56375 3.9841 0
M  V30 71 C 4.4184 0.97842 5.25672 0
M  V30 72 C 5.7184 2.94922 4.31066 0
M  V30 73 H 7.4124 1.91276 2.30334 0
M  V30 74 H 4.9584 0.921073 1.1069 0
M  V30 75 H 6.9114 0.378839 4.19694 0
M  V30 76 H 5.6354 -0.413598 3.23971 0
M  V30 77 H 4.2944 1.71891 3.23804 0
M  V30 78 H 3.9424 0.0101688 5.02999 0
M  V30 79 H 3.6424 1.65784 5.63728 0
M  V30 80 H 5.1664 0.821939 6.05043 0
M  V30 81 H 6.5804 2.8288 4.9865 0
M  V30 82 H 4.9774 3.5983 4.80253 0
M  V30 83 H 6.0474 3.4616 3.39561 0
M  V30 84 N 7.3905 -1.2043 1.01659 0
M  V30 85 C 8.8065 -1.41852 0.731442 0
M  V30 86 C 9.0065 -1.89358 -0.688898 0
M  V30 87 O 8.0625 -2.06247 -1.45666 0
M  V30 88 C 9.3755 -2.44019 1.75714 0
M  V30 89 C 10.9235 -2.57785 1.77527 0
M  V30 90 C 11.3985 -3.63194 2.79023 0
M  V30 91 N 12.8895 -3.70678 2.77763 0
M  V30 92 C 13.6245 -4.51897 3.52954 0
M  V30 93 N 13.1205 -5.36921 4.37821 0
M  V30 94 N 14.9135 -4.4643 3.41551 0
M  V30 95 H 7.0645 -0.879093 1.93354 0
M  V30 96 H 9.3275 -0.448425 0.835236 0
M  V30 97 H 9.0335 -2.1611 2.77469 0
M  V30 98 H 8.9075 -3.43007 1.56927 0
M  V30 99 H 11.2945 -2.85023 0.764569 0
M  V30 100 H 11.3755 -1.58992 2.00387 0
M  V30 101 H 11.0195 -3.36699 3.80258 0
M  V30 102 H 10.9495 -4.61609 2.53425 0
M  V30 103 H 13.4405 -3.09944 2.16201 0
M  V30 104 H 13.7535 -5.95981 4.91962 0
M  V30 105 H 12.0985 -5.36424 4.41899 0
M  V30 106 H 15.2895 -3.79042 2.74672 0
M  V30 107 H 15.4625 -5.09491 4.00404 0
M  V30 108 N 8.8686 -0.792821 -1.36206 0
M  V30 109 C 9.7986 -0.207853 -2.32573 0
M  V30 110 C 10.7796 0.659055 -1.56813 0
M  V30 111 O 11.9646 0.592176 -1.84951 0
M  V30 112 C 9.0946 0.655449 -3.41059 0
M  V30 113 C 8.0486 -0.111842 -4.27854 0
M  V30 114 C 7.3746 0.872274 -5.27537 0
M  V30 115 C 8.6746 -1.30299 -5.05786 0
M  V30 116 H 10.3686 -1.01294 -2.81744 0
M  V30 117 H 7.9146 -0.48854 -1.3546 0
M  V30 118 H 9.8676 1.07464 -4.07467 0
M  V30 119 H 8.5916 1.49328 -2.90463 0
M  V30 120 H 7.2506 -0.512053 -3.63006 0
M  V30 121 H 6.8986 1.70523 -4.73214 0
M  V30 122 H 6.5986 0.363291 -5.86476 0
M  V30 123 H 8.1226 1.28996 -5.96818 0
M  V30 124 H 9.5366 -0.959379 -5.65216 0
M  V30 125 H 7.9336 -1.7455 -5.74154 0
M  V30 126 H 9.0036 -2.09663 -4.37229 0
M  V30 127 N 10.3467 1.47872 -0.545128 0
M  V30 128 C 11.5957 2.01695 -0.0145033 0
M  V30 129 C 11.9087 1.42609 1.33873 0
M  V30 130 O 13.1147 1.88021 1.95858 0
M  V30 131 C 11.5707 3.59892 0.0245068 0
M  V30 132 C 11.1787 4.27966 -1.32475 0
M  V30 133 C 12.9227 4.21507 0.50316 0
M  V30 134 C 10.8297 5.78136 -1.2455 0
M  V30 135 H 9.7597 0.753998 -0.00165172 0
M  V30 136 H 12.4107 1.69985 -0.691175 0
M  V30 137 H 10.7927 3.88509 0.766575 0
M  V30 138 H 11.9667 4.11003 -2.08357 0
M  V30 139 H 10.2817 3.78286 -1.74036 0
M  V30 140 H 12.8787 5.31538 0.580656 0
M  V30 141 H 13.2217 3.87855 1.51243 0
M  V30 142 H 13.7547 3.97376 -0.183681 0
M  V30 143 H 10.4937 6.16388 -2.23039 0
M  V30 144 H 10.0137 5.97469 -0.528282 0
M  V30 145 H 11.6927 6.40099 -0.942488 0
M  V30 146 N 11.8248 0.280983 1.55075 0
M  V30 147 C 12.7548 -0.597469 2.25727 0
M  V30 148 C 13.7358 -1.15417 1.24952 0
M  V30 149 O 14.9208 -1.18722 1.53684 0
M  V30 150 C 12.0508 -1.7789 2.98283 0
M  V30 151 C 11.0048 -1.35347 4.06036 0
M  V30 152 C 10.3308 -2.61846 4.66198 0
M  V30 153 C 11.6308 -0.499354 5.19907 0
M  V30 154 H 13.3248 -0.00824265 2.99399 0
M  V30 155 H 10.8708 -0.0025244 1.44 0
M  V30 156 H 12.8238 -2.39937 3.46422 0
M  V30 157 H 11.5478 -2.39405 2.22155 0
M  V30 158 H 10.2068 -0.756156 3.58717 0
M  V30 159 H 9.8548 -3.21632 3.86732 0
M  V30 160 H 9.5548 -2.3409 5.38958 0
M  V30 161 H 11.0788 -3.24732 5.1709 0
M  V30 162 H 12.4928 -1.02498 5.64063 0
M  V30 163 H 10.8898 -0.316424 5.99265 0
M  V30 164 H 11.9598 0.480459 4.82514 0
M  V30 165 N 13.3029 -1.57598 0.00835791 0
M  V30 166 C 14.5519 -1.90107 -0.673968 0
M  V30 167 C 14.8649 -0.884275 -1.7447 0
M  V30 168 O 16.0709 -1.09987 -2.48224 0
M  V30 169 C 14.5269 -3.37497 -1.24995 0
M  V30 170 C 14.1349 -4.47491 -0.2136 0
M  V30 171 C 15.8789 -3.79104 -1.90999 0
M  V30 172 C 13.7859 -5.85963 -0.80005 0
M  V30 173 H 12.7159 -0.709393 -0.255495 0
M  V30 174 H 15.3669 -1.83365 0.0702693 0
M  V30 175 H 13.7489 -3.39102 -2.04513 0
M  V30 176 H 14.9229 -4.57414 0.557596 0
M  V30 177 H 13.2379 -4.14956 0.346474 0
M  V30 178 H 15.8349 -4.79901 -2.35795 0
M  V30 179 H 16.1779 -3.1306 -2.74407 0
M  V30 180 H 16.7109 -3.79833 -1.18203 0
M  V30 181 H 13.4499 -6.555 -0.00456708 0
M  V30 182 H 12.9699 -5.79687 -1.54021 0
M  V30 183 H 14.6489 -6.33884 -1.29615 0
M  V30 184 N 14.781 0.264519 -1.55364 0
M  V30 185 C 16.03 0.992812 -1.75574 0
M  V30 186 C 16.343 1.87142 -0.568979 0
M  V30 187 O 17.549 2.63513 -0.653682 0
M  V30 188 C 16.005 1.81519 -3.10771 0
M  V30 189 C 15.613 0.984839 -4.37041 0
M  V30 190 C 17.357 2.53727 -3.40327 0
M  V30 191 C 15.264 1.80209 -5.63275 0
M  V30 192 H 14.194 0.374412 -0.65447 0
M  V30 193 H 16.845 0.248138 -1.81815 0
M  V30 194 H 15.227 2.60115 -2.98591 0
M  V30 195 H 16.401 0.242455 -4.60162 0
M  V30 196 H 14.716 0.37691 -4.14691 0
M  V30 197 H 17.313 3.15292 -4.3185 0
M  V30 198 H 17.656 3.24447 -2.60845 0
M  V30 199 H 18.189 1.82156 -3.53644 0
M  V30 200 H 14.928 1.13896 -6.45529 0
M  V30 201 H 14.448 2.52022 -5.44284 0
M  V30 202 H 16.127 2.37364 -6.01887 0
M  V30 203 N 16.2591 1.48442 0.529413 0
M  V30 204 C 17.5051 1.5672 1.28711 0
M  V30 205 C 17.8381 0.2406 1.92704 0
M  V30 206 O 17.1131 -0.753454 1.79313 0
M  V30 207 C 17.3961 2.70587 2.37603 0
M  V30 208 C 17.2491 4.12953 1.78297 0
M  V30 209 C 18.5681 2.80212 3.39366 0
M  V30 210 H 15.6871 0.570474 0.466613 0
M  V30 211 H 18.3291 1.80617 0.589706 0
M  V30 212 H 16.4791 2.50342 2.97088 0
M  V30 213 H 18.1511 4.44639 1.22858 0
M  V30 214 H 16.3941 4.19927 1.0883 0
M  V30 215 H 17.0651 4.88448 2.57144 0
M  V30 216 H 19.5411 2.98553 2.89836 0
M  V30 217 H 18.4171 3.61611 4.12951 0
M  V30 218 H 18.6781 1.88393 3.99951 0
M  V30 219 N 17.7372 -0.778329 1.37039 0
M  V30 220 C 18.9852 -1.53361 1.31623 0
M  V30 221 C 19.3062 -1.94739 -0.100831 0
M  V30 222 O 18.5762 -1.65797 -1.04347 0
M  V30 223 H 17.1562 -0.568794 0.484234 0
M  V30 224 H 19.8182 -0.926742 1.71457 0
M  V30 225 H 18.9142 -2.43606 1.95096 0
M  V30 226 N 19.2153 -1.21501 -1.00376 0
M  V30 227 C 20.1783 -0.976927 -2.07337 0
M  V30 228 C 21.1783 0.0525322 -1.60714 0
M  V30 229 O 22.3683 -0.184869 -1.73216 0
M  V30 230 C 19.5003 -0.473423 -3.37597 0
M  V30 231 H 20.6933 -1.92587 -2.29892 0
M  V30 232 H 18.2463 -1.03217 -1.17371 0
M  V30 233 H 18.9813 0.480379 -3.20722 0
M  V30 234 H 18.7663 -1.216 -3.72768 0
M  V30 235 H 20.2563 -0.32675 -4.1632 0
M  V30 236 N 20.6934 1.19889 -1.02296 0
M  V30 237 C 21.9424 1.88743 -0.711257 0
M  V30 238 C 22.2554 1.80112 0.762817 0
M  V30 239 O 23.4614 2.44161 1.18733 0
M  V30 240 C 21.9174 3.38525 -1.22185 0
M  V30 241 C 21.5254 3.55727 -2.72328 0
M  V30 242 C 23.2694 4.12893 -0.985864 0
M  V30 243 C 21.1764 4.99369 -3.16835 0
M  V30 244 H 20.1064 0.706885 -0.262353 0
M  V30 245 H 22.7574 1.35586 -1.23648 0
M  V30 246 H 21.1394 3.91044 -0.624571 0
M  V30 247 H 22.3134 3.13564 -3.3766 0
M  V30 248 H 20.6284 2.94739 -2.9414 0
M  V30 249 H 23.2254 5.18813 -1.29374 0
M  V30 250 H 23.5684 4.16228 0.0775055 0
M  V30 251 H 24.1014 3.66494 -1.54684 0
M  V30 252 H 20.8404 5.01193 -4.22476 0
M  V30 253 H 20.3604 5.42317 -2.56228 0
M  V30 254 H 22.0394 5.67988 -3.09837 0
M  V30 255 N 22.1715 0.800033 1.35784 0
M  V30 256 C 23.1345 0.211565 2.28221 0
M  V30 257 C 24.1345 -0.59728 1.49296 0
M  V30 258 O 25.3245 -0.416721 1.69142 0
M  V30 259 C 22.4565 -0.705846 3.33513 0
M  V30 260 H 23.6495 1.02677 2.81776 0
M  V30 261 H 21.2025 0.570211 1.45528 0
M  V30 262 H 21.9375 -1.54498 2.85133 0
M  V30 263 H 21.7225 -0.127655 3.91892 0
M  V30 264 H 23.2125 -1.11211 4.02519 0
M  V30 265 N 23.6496 -1.47581 0.552962 0
M  V30 266 C 24.8986 -2.01684 0.0251995 0
M  V30 267 C 25.2116 -1.43317 -1.33115 0
M  V30 268 O 26.4176 -1.89057 -1.94858 0
M  V30 269 C 24.8736 -3.599 -0.00542052 0
M  V30 270 C 24.4816 -4.27257 1.34742 0
M  V30 271 C 26.2256 -4.21768 -0.4808 0
M  V30 272 C 24.1326 -5.77467 1.27614 0
M  V30 273 H 23.0626 -0.753979 0.00565033 0
M  V30 274 H 25.7136 -1.69616 0.70018 0
M  V30 275 H 24.0956 -3.88911 -0.745961 0
M  V30 276 H 25.2696 -4.09893 2.10534 0
M  V30 277 H 23.5846 -3.77358 1.76039 0
M  V30 278 H 26.1816 -5.31838 -0.55246 0
M  V30 279 H 26.5246 -3.88651 -1.49184 0
M  V30 280 H 27.0576 -3.97273 0.204752 0
M  V30 281 H 23.7966 -6.15196 2.26304 0
M  V30 282 H 23.3166 -5.9718 0.55996 0
M  V30 283 H 24.9956 -6.3959 0.976421 0
M  V30 284 N 25.1277 -0.289203 -1.54924 0
M  V30 285 C 26.3767 0.324231 -1.99077 0
M  V30 286 C 26.6897 1.5591 -1.18117 0
M  V30 287 O 27.8957 2.24637 -1.52481 0
M  V30 288 C 26.3517 0.628209 -3.54375 0
M  V30 289 C 25.9597 -0.587647 -4.44129 0
M  V30 290 C 27.7037 1.20349 -4.07083 0
M  V30 291 C 25.6107 -0.257475 -5.90839 0
M  V30 292 H 24.5407 0.124924 -0.743579 0
M  V30 293 H 27.1917 -0.396063 -1.79175 0
M  V30 294 H 25.5737 1.40778 -3.70132 0
M  V30 295 H 26.7477 -1.36418 -4.40144 0
M  V30 296 H 25.0627 -1.08074 -4.0213 0
M  V30 297 H 27.6597 1.46456 -5.14252 0
M  V30 298 H 28.0027 2.14195 -3.56968 0
M  V30 299 H 28.5357 0.485889 -3.94821 0
M  V30 300 H 25.2747 -1.16419 -6.45079 0
M  V30 301 H 24.7947 0.482018 -5.9786 0
M  V30 302 H 26.4737 0.145238 -6.46837 0
M  V30 303 N 26.6058 1.57591 -0.0167156 0
M  V30 304 C 27.5688 2.08393 0.954204 0
M  V30 305 C 28.5688 0.996531 1.26198 0
M  V30 306 O 29.7588 1.25858 1.20438 0
M  V30 307 C 26.8908 2.5394 2.27436 0
M  V30 308 H 28.0838 2.95455 0.514451 0
M  V30 309 H 25.6368 1.54582 0.231089 0
M  V30 310 H 26.3718 1.70171 2.76066 0
M  V30 311 H 26.1568 3.33371 2.06412 0
M  V30 312 H 27.6468 2.93512 2.97053 0
M  V30 313 N 28.0839 -0.256276 1.55502 0
M  V30 314 C 29.0139 -1.32102 1.92539 0
M  V30 315 C 29.9949 -1.50684 0.789194 0
M  V30 316 O 31.1799 -1.63449 1.04872 0
M  V30 317 C 28.3099 -2.67752 2.21192 0
M  V30 318 C 27.2639 -2.63878 3.36975 0
M  V30 319 C 26.5899 -4.03236 3.51147 0
M  V30 320 C 27.8899 -2.21682 4.72921 0
M  V30 321 H 29.5839 -1.01351 2.81724 0
M  V30 322 H 27.1299 -0.486105 1.35547 0
M  V30 323 H 29.0829 -3.42365 2.45691 0
M  V30 324 H 27.8069 -3.0012 1.28824 0
M  V30 325 H 26.4659 -1.91722 3.12471 0
M  V30 326 H 26.1139 -4.32854 2.56216 0
M  V30 327 H 25.8139 -4.01535 4.29003 0
M  V30 328 H 27.3379 -4.79563 3.77957 0
M  V30 329 H 28.7519 -2.86023 4.96854 0
M  V30 330 H 27.1489 -2.3111 5.53812 0
M  V30 331 H 28.2189 -1.16833 4.70615 0
M  V30 332 N 29.562 -1.4872 -0.521534 0
M  V30 333 C 30.492 -1.66771 -1.63431 0
M  V30 334 C 31.473 -0.516499 -1.62069 0
M  V30 335 O 32.658 -0.750013 -1.79132 0
M  V30 336 C 29.788 -1.71515 -3.01993 0
M  V30 337 C 28.742 -2.86222 -3.18216 0
M  V30 338 C 28.068 -2.76061 -4.57924 0
M  V30 339 C 29.368 -4.27419 -3.00184 0
M  V30 340 H 31.062 -2.59932 -1.48579 0
M  V30 341 H 28.608 -1.25089 -0.713358 0
M  V30 342 H 30.561 -1.82731 -3.7972 0
M  V30 343 H 29.285 -0.749393 -3.17886 0
M  V30 344 H 27.944 -2.74575 -2.42908 0
M  V30 345 H 27.592 -1.77437 -4.70665 0
M  V30 346 H 27.292 -3.53037 -4.69722 0
M  V30 347 H 28.816 -2.89256 -5.37739 0
M  V30 348 H 30.23 -4.39855 -3.67697 0
M  V30 349 H 28.627 -5.05458 -3.2347 0
M  V30 350 H 29.697 -4.43293 -1.96518 0
M  V30 351 N 31.0401 0.771051 -1.3745 0
M  V30 352 C 32.2861 1.5319 -1.32894 0
M  V30 353 C 32.6191 1.94008 0.0862511 0
M  V30 354 O 31.8941 1.64124 1.04373 0
M  V30 355 C 32.1771 2.79648 -2.26868 0
M  V30 356 C 32.0301 2.45079 -3.77169 0
M  V30 357 C 33.3491 3.81583 -2.19277 0
M  V30 358 H 30.4681 0.555744 -0.484064 0
M  V30 359 H 33.1101 0.884492 -1.68157 0
M  V30 360 H 31.2601 3.34891 -1.96926 0
M  V30 361 H 32.9321 1.95745 -4.1771 0
M  V30 362 H 31.1751 1.77767 -3.95704 0
M  V30 363 H 31.8461 3.35478 -4.38359 0
M  V30 364 H 34.3221 3.35835 -2.45671 0
M  V30 365 H 33.1981 4.67787 -2.87171 0
M  V30 366 H 33.4591 4.25897 -1.18592 0
M  V30 367 N 32.5182 1.22032 0.997298 0
M  V30 368 C 33.4682 0.953838 2.07089 0
M  V30 369 C 34.4522 -0.0938669 1.60626 0
M  V30 370 O 35.6442 0.116078 1.76619 0
M  V30 371 C 32.7732 0.528726 3.39204 0
M  V30 372 C 31.8592 1.61092 3.92314 0
M  V30 373 N 32.2502 2.83768 4.18699 0
M  V30 374 C 30.5482 1.48158 4.20672 0
M  V30 375 C 31.2492 3.53715 4.61802 0
M  V30 376 N 30.2252 2.81174 4.65233 0
M  V30 377 H 34.0272 1.88577 2.25424 0
M  V30 378 H 31.5412 1.11719 1.17867 0
M  V30 379 H 33.5382 0.31915 4.15677 0
M  V30 380 H 32.1982 -0.39635 3.22272 0
M  V30 381 H 33.2092 3.20238 4.07023 0
M  V30 382 H 29.8862 0.622369 4.12835 0
M  V30 383 H 31.2762 4.58793 4.90875 0
M  V30 384 N 33.9963 -1.19345 1.0293 0
M  V30 385 C 35.2443 -1.88665 0.724574 0
M  V30 386 C 35.5653 -1.80036 -0.749144 0
M  V30 387 O 34.8353 -1.2111 -1.53978 0
M  V30 388 H 33.4153 -0.698406 0.265025 0
M  V30 389 H 36.0773 -1.44885 1.30362 0
M  V30 390 H 35.1733 -2.94987 1.01926 0
M  V30 391 N 35.4744 -0.807222 -1.35358 0
M  V30 392 C 36.7214 -0.387888 -1.9875 0
M  V30 393 C 37.0494 1.04509 -1.64037 0
M  V30 394 O 36.3044 1.73986 -0.895946 0
M  V30 395 C 36.6034 -0.519036 -3.53611 0
M  V30 396 C 36.2694 -1.91542 -4.08194 0
M  V30 397 C 34.9314 -2.29745 -4.22813 0
M  V30 398 C 37.2834 -2.82896 -4.37744 0
M  V30 399 C 34.6114 -3.58668 -4.643 0
M  V30 400 C 36.9634 -4.11265 -4.8067 0
M  V30 401 C 35.6274 -4.49466 -4.93494 0
M  V30 402 H 34.8974 -0.141938 -0.727279 0
M  V30 403 H 37.5444 -1.02814 -1.6156 0
M  V30 404 H 35.8494 0.204658 -3.91265 0
M  V30 405 H 37.5464 -0.175345 -4.00616 0
M  V30 406 H 34.1364 -1.60862 -3.97268 0
M  V30 407 H 38.3204 -2.54629 -4.26002 0
M  V30 408 H 33.5764 -3.88113 -4.72418 0
M  V30 409 H 37.7504 -4.82153 -5.02496 0
M  V30 410 H 35.3774 -5.49418 -5.25399 0
M  V30 411 N 36.9525 1.47285 -0.560781 0
M  V30 412 C 38.1985 2.03347 -0.0463654 0
M  V30 413 C 38.5535 1.42702 1.2905 0
M  V30 414 O 37.8465 0.574619 1.8278 0
M  V30 415 C 38.0405 3.57258 0.100784 0
M  V30 416 C 37.8695 4.32827 -1.22027 0
M  V30 417 C 36.6395 4.72588 -1.78854 0
M  V30 418 C 38.8375 4.67739 -2.13834 0
M  V30 419 N 36.8195 5.32816 -3.04927 0
M  V30 420 C 38.1905 5.28307 -3.24487 0
M  V30 421 C 40.2455 4.49667 -2.13784 0
M  V30 422 C 38.9485 5.72711 -4.35194 0
M  V30 423 C 40.9745 4.95073 -3.23506 0
M  V30 424 C 40.3365 5.55693 -4.32879 0
M  V30 425 H 36.4355 0.779755 -0.0592166 0
M  V30 426 H 39.0195 1.79723 -0.748857 0
M  V30 427 H 37.1905 3.80642 0.772404 0
M  V30 428 H 38.9225 3.9996 0.617589 0
M  V30 429 H 35.6775 4.54656 -1.32609 0
M  V30 430 H 36.1015 5.67471 -3.69197 0
M  V30 431 H 40.7435 4.02154 -1.30507 0
M  V30 432 H 38.4615 6.19214 -5.1923 0
M  V30 433 H 42.0475 4.82859 -3.24559 0
M  V30 434 H 40.9275 5.90188 -5.1638 0
M  V30 435 N 38.4306 0.297415 1.54768 0
M  V30 436 C 39.6586 -0.315623 2.04478 0
M  V30 437 C 40.0736 -1.47792 1.17486 0
M  V30 438 O 39.4306 -1.81404 0.19971 0
M  V30 439 C 39.4816 -0.7753 3.53088 0
M  V30 440 O 39.2026 0.340732 4.36773 0
M  V30 441 C 40.7036 -1.45386 4.18781 0
M  V30 442 H 37.9236 -0.0690887 0.667434 0
M  V30 443 H 40.4676 0.436003 1.99798 0
M  V30 444 H 38.6226 -1.47696 3.58141 0
M  V30 445 H 39.0366 -0.0165035 5.24497 0
M  V30 446 H 40.5106 -1.72669 5.24299 0
M  V30 447 H 40.9876 -2.39275 3.68299 0
M  V30 448 H 41.5936 -0.795475 4.17795 0
M  V30 449 N 39.9087 -1.5758 0.0250728 0
M  V30 450 C 41.1337 -1.96337 -0.668317 0
M  V30 451 C 41.5587 -0.901314 -1.651 0
M  V30 452 O 40.9167 0.138187 -1.80773 0
M  V30 453 C 40.9647 -3.34191 -1.35457 0
M  V30 454 O 40.0687 -3.30269 -2.46974 0
M  V30 455 H 39.4097 -0.640281 -0.175887 0
M  V30 456 H 41.9397 -2.0442 0.0857224 0
M  V30 457 H 41.9497 -3.70331 -1.71228 0
M  V30 458 H 40.6247 -4.11036 -0.634218 0
M  V30 459 H 39.2017 -3.05841 -2.13344 0
M  V30 460 N 41.3868 0.248026 -1.55636 0
M  V30 461 C 42.8028 0.596483 -1.48035 0
M  V30 462 C 43.0028 1.88386 -0.715039 0
M  V30 463 O 42.0588 2.51319 -0.243944 0
M  V30 464 C 43.3718 0.700258 -2.92433 0
M  V30 465 C 44.9198 0.792659 -3.02797 0
M  V30 466 C 45.3948 0.928005 -4.485 0
M  V30 467 N 46.8858 0.992903 -4.52433 0
M  V30 468 C 47.6208 1.11687 -5.62418 0
M  V30 469 N 47.1168 1.20645 -6.82214 0
M  V30 470 N 48.9098 1.14994 -5.50212 0
M  V30 471 H 41.0608 -0.597109 -2.03834 0
M  V30 472 H 43.3238 -0.205925 -0.925364 0
M  V30 473 H 43.0298 -0.175658 -3.51261 0
M  V30 474 H 42.9038 1.57255 -3.42857 0
M  V30 475 H 45.2908 1.65903 -2.4405 0
M  V30 476 H 45.3718 -0.104762 -2.55585 0
M  V30 477 H 45.0158 0.0661971 -5.07857 0
M  V30 478 H 44.9458 1.84045 -4.93391 0
M  V30 479 H 47.4368 0.935064 -3.66149 0
M  V30 480 H 47.7498 1.30008 -7.61786 0
M  V30 481 H 46.0948 1.17605 -6.84977 0
M  V30 482 H 49.2858 1.07643 -4.55555 0
M  V30 483 H 49.4588 1.24311 -6.35965 0
M  V30 484 N 42.8649 1.48995 0.513639 0
M  V30 485 C 43.8119 1.6473 1.61656 0
M  V30 486 C 44.7819 0.488984 1.58739 0
M  V30 487 O 45.9669 0.714478 1.76918 0
M  V30 488 C 43.1069 1.7082 2.99858 0
M  V30 489 C 42.2199 2.9787 3.12885 0
M  V30 490 C 41.3549 2.95017 4.41744 0
M  V30 491 C 40.3939 4.16702 4.48359 0
M  V30 492 N 39.5309 4.11832 5.68629 0
M  V30 493 H 44.3709 2.58909 1.47547 0
M  V30 494 H 41.9079 1.28382 0.71808 0
M  V30 495 H 43.8659 1.72331 3.79944 0
M  V30 496 H 42.4959 0.801181 3.12699 0
M  V30 497 H 41.5479 3.06029 2.25944 0
M  V30 498 H 42.8599 3.8786 3.13633 0
M  V30 499 H 42.0139 2.95021 5.30139 0
M  V30 500 H 40.7529 2.02784 4.43542 0
M  V30 501 H 39.7579 4.16955 3.58369 0
M  V30 502 H 40.9829 5.10113 4.48287 0
M  V30 503 H 38.9289 3.22428 5.71293 0
M  V30 504 H 38.8459 4.95543 5.7094 0
M  V30 505 H 40.1139 4.1592 6.59266 0
M  V30 506 N 44.343 -0.763751 1.37857 0
M  V30 507 C 45.253 -1.90817 1.36478 0
M  V30 508 C 46.269 -1.71997 0.263248 0
M  V30 509 O 47.445 -1.95095 0.499979 0
M  V30 510 C 44.51 -3.2605 1.17864 0
M  V30 511 C 43.571 -3.57467 2.3773 0
M  V30 512 C 42.804 -4.86249 2.19995 0
M  V30 513 O 43.027 -5.57884 1.18836 0
M  V30 514 O 41.961 -5.16911 3.08361 0
M  V30 515 H 45.787 -1.94933 2.32884 0
M  V30 516 H 43.372 -0.907619 1.1867 0
M  V30 517 H 45.254 -4.06924 1.09504 0
M  V30 518 H 43.929 -3.22769 0.245372 0
M  V30 519 H 42.836 -2.76796 2.51664 0
M  V30 520 H 44.169 -3.655 3.29652 0
M  V30 521 N 45.8211 -1.22559 -0.990812 0
M  V30 522 C 47.2371 -0.985996 -1.255 0
M  V30 523 C 47.4371 0.319173 -1.98956 0
M  V30 524 O 46.4931 1.04127 -2.3003 0
M  V30 525 C 47.8061 -2.18607 -2.06474 0
M  V30 526 C 49.3541 -2.22985 -2.19651 0
M  V30 527 C 49.8291 -3.4255 -3.04012 0
M  V30 528 N 51.3201 -3.42725 -3.11599 0
M  V30 529 C 52.0551 -4.31892 -3.7717 0
M  V30 530 N 51.5511 -5.31279 -4.44651 0
M  V30 531 N 53.3441 -4.19662 -3.73952 0
M  V30 532 H 45.4951 -2.06469 -0.49841 0
M  V30 533 H 47.7581 -0.904853 -0.282747 0
M  V30 534 H 47.4641 -3.13267 -1.59865 0
M  V30 535 H 47.3381 -2.18838 -3.07229 0
M  V30 536 H 49.7251 -1.28871 -2.65474 0
M  V30 537 H 49.8061 -2.26791 -1.18319 0
M  V30 538 H 49.4501 -4.36965 -2.58889 0
M  V30 539 H 49.3801 -3.35984 -4.0549 0
M  V30 540 H 51.8711 -2.70807 -2.63575 0
M  V30 541 H 52.1841 -5.95593 -4.92431 0
M  V30 542 H 50.5291 -5.3519 -4.43392 0
M  V30 543 H 53.7201 -3.41268 -3.20396 0
M  V30 544 H 53.8931 -4.89358 -4.24774 0
M  V30 545 N 47.2992 1.18797 -1.03562 0
M  V30 546 C 48.5242 1.9314 -0.755764 0
M  V30 547 C 48.9492 1.7537 0.68022 0
M  V30 548 O 48.3072 1.06046 1.47051 0
M  V30 549 C 48.3552 3.42747 -1.12058 0
M  V30 550 O 47.4592 4.11683 -0.243124 0
M  V30 551 H 46.8002 0.602724 -0.278604 0
M  V30 552 H 49.3302 1.50678 -1.3841 0
M  V30 553 H 49.3402 3.93437 -1.08035 0
M  V30 554 H 48.0152 3.55002 -2.16672 0
M  V30 555 H 46.5922 3.71323 -0.342539 0
M  V30 556 N 48.7773 0.814389 1.34928 0
M  V30 557 C 50.0023 0.410097 2.03305 0
M  V30 558 C 50.4273 -0.973464 1.60951 0
M  V30 559 O 49.7853 -1.63185 0.789964 0
M  V30 560 C 49.8333 0.51049 3.56968 0
M  V30 561 O 48.9373 -0.473035 4.09678 0
M  V30 562 H 48.2783 0.170088 0.641846 0
M  V30 563 H 50.8083 1.10244 1.72358 0
M  V30 564 H 50.8183 0.383135 4.06197 0
M  V30 565 H 49.4933 1.51963 3.87144 0
M  V30 566 H 48.0703 -0.305272 3.71648 0
M  V30 567 N 50.2554 -1.46986 0.568584 0
M  V30 568 C 51.1884 -2.27129 -0.220779 0
M  V30 569 C 52.1664 -1.34757 -0.909905 0
M  V30 570 O 53.3504 -1.64152 -0.926622 0
M  V30 571 C 50.4774 -3.12108 -1.31553 0
M  V30 572 C 49.5234 -4.20141 -0.733748 0
M  V30 573 S 50.3564 -5.33783 0.428479 0
M  V30 574 C 51.5124 -6.22327 -0.667811 0
M  V30 575 H 51.7454 -2.93731 0.459267 0
M  V30 576 H 49.2784 -1.5026 0.355154 0
M  V30 577 H 51.2364 -3.61636 -1.94241 0
M  V30 578 H 49.8974 -2.44847 -1.96746 0
M  V30 579 H 49.0904 -4.79373 -1.5562 0
M  V30 580 H 48.6924 -3.73553 -0.182812 0
M  V30 581 H 50.9844 -6.59364 -1.55708 0
M  V30 582 H 51.9274 -7.0801 -0.11258 0
M  V30 583 H 52.3354 -5.5618 -0.965601 0
M  V30 584 N 51.7335 -0.305618 -1.54608 0
M  V30 585 C 52.9805 0.302298 -2.00231 0
M  V30 586 C 53.3085 1.5354 -1.19398 0
M  V30 587 O 52.5635 1.93973 -0.259423 0
M  V30 588 C 52.8625 0.698983 -3.50498 0
M  V30 589 C 52.5285 -0.432903 -4.48817 0
M  V30 590 C 51.1905 -0.743622 -4.75419 0
M  V30 591 C 53.5425 -1.19409 -5.07337 0
M  V30 592 C 50.8705 -1.81857 -5.57804 0
M  V30 593 C 53.2225 -2.25899 -5.90891 0
M  V30 594 C 51.8865 -2.57572 -6.15803 0
M  V30 595 H 51.1565 0.110619 -0.732697 0
M  V30 596 H 53.8035 -0.425674 -1.86709 0
M  V30 597 H 52.1085 1.50711 -3.61654 0
M  V30 598 H 53.8055 1.1806 -3.83227 0
M  V30 599 H 50.3955 -0.18063 -4.28219 0
M  V30 600 H 54.5795 -0.967295 -4.86782 0
M  V30 601 H 49.8355 -2.06864 -5.75341 0
M  V30 602 H 54.0095 -2.85335 -6.35261 0
M  V30 603 H 51.6365 -3.40998 -6.7943 0
M  V30 604 N 53.2116 1.57565 -0.0334293 0
M  V30 605 C 54.6276 1.56297 0.322997 0
M  V30 606 C 54.8276 1.03945 1.7262 0
M  V30 607 O 53.8836 0.688109 2.42943 0
M  V30 608 C 55.1966 3.00232 0.167664 0
M  V30 609 C 56.7446 3.12078 0.240107 0
M  V30 610 C 57.2196 4.57859 0.113513 0
M  V30 611 N 58.7106 4.62887 0.170359 0
M  V30 612 C 59.4456 5.73319 0.0962517 0
M  V30 613 N 58.9416 6.92794 -0.0291881 0
M  V30 614 N 60.7346 5.61898 0.150551 0
M  V30 615 H 52.8856 1.89923 -0.950956 0
M  V30 616 H 55.1486 0.873824 -0.367608 0
M  V30 617 H 54.8546 3.42501 -0.799102 0
M  V30 618 H 54.7286 3.654 0.936083 0
M  V30 619 H 57.1156 2.69718 1.19733 0
M  V30 620 H 57.1966 2.49623 -0.558763 0
M  V30 621 H 56.8406 5.009 -0.840314 0
M  V30 622 H 56.7706 5.18299 0.931302 0
M  V30 623 H 59.2616 3.76954 0.26728 0
M  V30 624 H 59.5746 7.7276 -0.0789252 0
M  V30 625 H 57.9196 6.94971 -0.0640299 0
M  V30 626 H 61.1106 4.67448 0.246981 0
M  V30 627 H 61.2836 6.47938 0.0893365 0
M  V30 628 N 54.6897 -0.239769 1.55765 0
M  V30 629 C 55.9667 -0.990056 1.68693 0
M  V30 630 C 56.3467 -2.03107 0.5754 0
M  V30 631 O 55.6947 -2.24604 -0.42017 0
M  V30 632 C 55.9047 -1.61696 3.09282 0
M  V30 633 C 57.2527 -2.11613 3.6811 0
M  V30 634 O 58.2767 -1.71624 3.12127 0
M  V30 635 O 57.1357 -2.85057 4.66267 0
M  V30 636 H 54.2297 -0.461299 0.686391 0
M  V30 637 H 56.7757 -0.232991 1.68093 0
M  V30 638 H 55.5477 -0.864357 3.81634 0
M  V30 639 H 55.1707 -2.44005 3.13923 0
M  V30 640 N 56.1678 -1.49265 -0.50573 0
M  V30 641 C 57.5838 -1.35923 -0.836486 0
M  V30 642 C 57.7838 -0.388704 -1.97715 0
M  V30 643 O 56.8398 0.181336 -2.51848 0
M  V30 644 C 58.1528 -2.76531 -1.18115 0
M  V30 645 C 59.7008 -2.85197 -1.28964 0
M  V30 646 C 60.1758 -4.26561 -1.66761 0
M  V30 647 N 61.6668 -4.2935 -1.73819 0
M  V30 648 C 62.4018 -5.35693 -2.045 0
M  V30 649 N 61.8978 -6.52287 -2.33438 0
M  V30 650 N 63.6908 -5.23105 -2.05711 0
M  V30 651 H 55.8418 -2.10965 0.246519 0
M  V30 652 H 58.1048 -0.9468 0.0476887 0
M  V30 653 H 57.8108 -3.49226 -0.416398 0
M  V30 654 H 57.6848 -3.11599 -2.1257 0
M  V30 655 H 60.0718 -2.12742 -2.04511 0
M  V30 656 H 60.1528 -2.53718 -0.325704 0
M  V30 657 H 59.7968 -4.99541 -0.917656 0
M  V30 658 H 59.7268 -4.55502 -2.64246 0
M  V30 659 H 62.2178 -3.4526 -1.53635 0
M  V30 660 H 62.5308 -7.29158 -2.56024 0
M  V30 661 H 60.8758 -6.55521 -2.30905 0
M  V30 662 H 64.0668 -4.31026 -1.82577 0
M  V30 663 H 64.2398 -6.06078 -2.29289 0
M  V30 664 N 57.6459 0.756429 -1.3826 0
M  V30 665 C 59.0569 1.33359 -1.30661 0
M  V30 666 C 59.4079 1.96161 0.0388875 0
M  V30 667 O 58.5329 1.94874 0.940918 0
M  V30 668 C 59.1279 2.42477 -2.36622 0
M  V30 669 C 57.6869 2.95922 -2.3261 0
M  V30 670 C 56.8339 1.69275 -2.19639 0
M  V30 671 H 59.7849 0.55552 -1.4866 0
M  V30 672 H 59.8059 3.22345 -2.02174 0
M  V30 673 H 59.3179 1.96739 -3.34538 0
M  V30 674 H 57.4189 3.45996 -1.38267 0
M  V30 675 H 57.5319 3.50494 -3.26636 0
M  V30 676 H 55.8959 1.92793 -1.66442 0
M  V30 677 H 56.6789 1.25619 -3.19491 0
M  V30 678 N 59.124 1.23083 0.984299 0
M  V30 679 C 60.054 1.03292 2.09411 0
M  V30 680 C 61.035 -0.048923 1.7003 0
M  V30 681 O 62.22 0.114967 1.93859 0
M  V30 682 C 59.35 0.619155 3.41736 0
M  V30 683 C 58.304 1.64791 3.95004 0
M  V30 684 C 57.63 1.0897 5.23478 0
M  V30 685 C 58.93 3.03999 4.24714 0
M  V30 686 H 60.624 1.96119 2.26225 0
M  V30 687 H 58.17 0.944344 1.08711 0
M  V30 688 H 60.123 0.467777 4.18796 0
M  V30 689 H 58.847 -0.344786 3.24775 0
M  V30 690 H 57.506 1.78721 3.20085 0
M  V30 691 H 57.154 0.11686 5.02864 0
M  V30 692 H 56.854 1.77704 5.60085 0
M  V30 693 H 58.378 0.950093 6.03163 0
M  V30 694 H 59.792 2.93393 4.92538 0
M  V30 695 H 58.189 3.69936 4.72512 0
M  V30 696 H 59.259 3.53285 3.32142 0
M  V30 697 N 60.6021 -1.18246 1.0419 0
M  V30 698 C 61.5491 -2.2192 0.634037 0
M  V30 699 C 62.5191 -1.62179 -0.358765 0
M  V30 700 O 63.7041 -1.89122 -0.252466 0
M  V30 701 C 60.8441 -3.451 0.00445535 0
M  V30 702 C 59.9571 -4.19174 1.04487 0
M  V30 703 C 59.0921 -5.29813 0.383676 0
M  V30 704 C 58.1311 -5.9566 1.4091 0
M  V30 705 N 57.2681 -6.97834 0.772784 0
M  V30 706 H 62.1081 -2.56164 1.52263 0
M  V30 707 H 59.6451 -1.25843 0.761701 0
M  V30 708 H 61.6031 -4.15485 -0.377919 0
M  V30 709 H 60.2331 -3.11472 -0.847652 0
M  V30 710 H 59.2851 -3.47604 1.54518 0
M  V30 711 H 60.5971 -4.64267 1.82368 0
M  V30 712 H 59.7511 -6.06677 -0.0528366 0
M  V30 713 H 58.4901 -4.85825 -0.427208 0
M  V30 714 H 57.4951 -5.17535 1.85574 0
M  V30 715 H 58.7201 -6.4173 2.22171 0
M  V30 716 H 56.6661 -6.55998 -0.0177708 0
M  V30 717 H 56.5831 -7.41186 1.48928 0
M  V30 718 H 57.8511 -7.78665 0.36071 0
M  V30 719 N 62.0802 -0.821533 -1.34494 0
M  V30 720 C 63.4962 -0.507117 -1.51329 0
M  V30 721 C 63.6962 0.968964 -1.76673 0
M  V30 722 O 62.7522 1.75348 -1.81685 0
M  V30 723 C 64.0652 -1.36544 -2.67911 0
M  V30 724 C 65.6132 -1.36242 -2.81793 0
M  V30 725 C 66.0882 -2.2052 -4.01416 0
M  V30 726 N 67.5792 -2.18136 -4.08621 0
M  V30 727 C 68.3142 -2.80095 -5.00334 0
M  V30 728 N 67.8102 -3.51039 -5.9728 0
M  V30 729 N 69.6032 -2.69656 -4.93196 0
M  V30 730 H 61.7542 -1.77729 -1.16302 0
M  V30 731 H 64.0172 -0.757291 -0.570276 0
M  V30 732 H 63.7232 -2.41361 -2.55808 0
M  V30 733 H 63.5972 -1.02917 -3.62888 0
M  V30 734 H 65.9842 -0.322041 -2.93338 0
M  V30 735 H 66.0652 -1.73866 -1.87628 0
M  V30 736 H 65.7092 -3.24607 -3.90631 0
M  V30 737 H 65.6392 -1.80247 -4.94791 0
M  V30 738 H 68.1302 -1.6653 -3.39229 0
M  V30 739 H 68.4432 -3.95565 -6.63889 0
M  V30 740 H 66.7882 -3.55145 -5.97409 0
M  V30 741 H 69.9792 -2.13808 -4.16418 0
M  V30 742 H 70.1522 -3.1823 -5.64476 0
M  V30 743 N 63.5583 1.46682 -0.576371 0
M  V30 744 C 64.4913 2.27243 0.208731 0
M  V30 745 C 65.4693 1.35238 0.902746 0
M  V30 746 O 66.6533 1.64641 0.917904 0
M  V30 747 C 63.7803 3.12802 1.29896 0
M  V30 748 C 62.8263 4.20524 0.711457 0
M  V30 749 S 63.6593 5.33548 -0.456781 0
M  V30 750 C 64.8153 6.22673 0.634798 0
M  V30 751 H 65.0483 2.93484 -0.474838 0
M  V30 752 H 62.5813 1.50069 -0.363118 0
M  V30 753 H 64.5393 3.62661 1.92321 0
M  V30 754 H 63.2003 2.45887 1.95444 0
M  V30 755 H 62.3933 4.80191 1.53076 0
M  V30 756 H 61.9953 3.73645 0.162999 0
M  V30 757 H 64.2873 6.60181 1.52209 0
M  V30 758 H 65.2303 7.0806 0.0750311 0
M  V30 759 H 65.6383 5.56684 0.936092 0
M  V30 760 N 65.0364 0.313813 1.54444 0
M  V30 761 C 65.9834 -0.55655 2.23989 0
M  V30 762 C 66.9534 -1.11943 1.22711 0
M  V30 763 O 68.1384 -1.16158 1.51367 0
M  V30 764 C 65.2784 -1.71635 2.99392 0
M  V30 765 C 64.3914 -1.18364 4.15468 0
M  V30 766 C 63.5264 -2.30834 4.78424 0
M  V30 767 C 62.5654 -1.74762 5.86622 0
M  V30 768 N 61.7024 -2.80855 6.43479 0
M  V30 769 H 66.5424 0.0430893 2.97969 0
M  V30 770 H 64.0794 0.0330359 1.47063 0
M  V30 771 H 66.0374 -2.39868 3.41349 0
M  V30 772 H 64.6674 -2.28742 2.27765 0
M  V30 773 H 63.7194 -0.393163 3.78363 0
M  V30 774 H 65.0314 -0.733262 4.93381 0
M  V30 775 H 64.1854 -3.0699 5.23299 0
M  V30 776 H 62.9244 -2.79204 3.99871 0
M  V30 777 H 61.9294 -0.970995 5.41158 0
M  V30 778 H 63.1544 -1.2728 6.67066 0
M  V30 779 H 61.1004 -3.28535 5.67804 0
M  V30 780 H 61.0174 -2.40351 7.16776 0
M  V30 781 H 62.2854 -3.5687 6.93011 0
M  V30 782 N 66.5145 -1.57545 0.0417849 0
M  V30 783 C 67.7395 -1.97035 -0.647455 0
M  V30 784 C 68.1645 -0.918775 -1.64135 0
M  V30 785 O 67.5225 0.119006 -1.80909 0
M  V30 786 C 67.5705 -3.35609 -1.31905 0
M  V30 787 O 66.6745 -3.3287 -2.43457 0
M  V30 788 H 66.0155 -0.64211 -0.169086 0
M  V30 789 H 68.5455 -2.04318 0.107399 0
M  V30 790 H 68.5555 -3.72126 -1.67291 0
M  V30 791 H 67.2305 -4.11685 -0.590586 0
M  V30 792 H 65.8075 -3.08087 -2.10088 0
M  V30 793 N 67.9926 0.231505 -1.5589 0
M  V30 794 C 68.9396 1.28682 -1.91598 0
M  V30 795 C 69.9096 1.47071 -0.771974 0
M  V30 796 O 71.0946 1.60802 -1.027 0
M  V30 797 C 68.2346 2.6342 -2.22944 0
M  V30 798 C 67.3476 2.52912 -3.50228 0
M  V30 799 C 66.4826 3.80106 -3.7107 0
M  V30 800 C 65.5216 3.64279 -4.91902 0
M  V30 801 N 64.6586 4.834 -5.09184 0
M  V30 802 H 69.4986 0.975305 -2.81588 0
M  V30 803 H 67.0356 0.470299 -1.39379 0
M  V30 804 H 68.9936 3.41869 -2.39126 0
M  V30 805 H 67.6236 2.92687 -1.36139 0
M  V30 806 H 66.6756 1.6595 -3.42294 0
M  V30 807 H 67.9876 2.37133 -4.38827 0
M  V30 808 H 67.1416 4.66999 -3.87295 0
M  V30 809 H 65.8806 3.98799 -2.80733 0
M  V30 810 H 64.8856 2.7577 -4.75637 0
M  V30 811 H 66.1106 3.47067 -5.83714 0
M  V30 812 H 64.0566 5.02425 -4.21788 0
M  V30 813 H 63.9736 4.70311 -5.91898 0
M  V30 814 H 65.2416 5.71747 -5.29835 0
M  V30 815 N 69.4707 1.49531 0.497807 0
M  V30 816 C 70.8867 1.36365 0.829266 0
M  V30 817 C 71.0867 0.399184 1.97506 0
M  V30 818 O 70.1427 -0.167977 2.51941 0
M  V30 819 C 71.4557 2.77153 1.16647 0
M  V30 820 C 73.0037 2.85877 1.27449 0
M  V30 821 C 73.4787 4.2744 1.64497 0
M  V30 822 N 74.9697 4.30265 1.7154 0
M  V30 823 C 75.7047 5.3677 2.01656 0
M  V30 824 N 75.2007 6.53516 2.29976 0
M  V30 825 N 76.9937 5.24189 2.02934 0
M  V30 826 H 69.1447 2.10831 -0.257703 0
M  V30 827 H 71.4077 0.946534 -0.0527091 0
M  V30 828 H 71.1137 3.49442 0.397872 0
M  V30 829 H 70.9877 3.12722 2.10915 0
M  V30 830 H 73.3747 2.13824 2.0338 0
M  V30 831 H 73.4557 2.53887 0.312244 0
M  V30 832 H 73.0997 5.00021 0.891151 0
M  V30 833 H 73.0297 4.56896 2.61827 0
M  V30 834 H 75.5207 3.4607 1.51802 0
M  V30 835 H 75.8337 7.30506 2.52153 0
M  V30 836 H 74.1787 6.56737 2.27425 0
M  V30 837 H 77.3697 4.31988 1.80289 0
M  V30 838 H 77.5427 6.07286 2.26071 0
M  V30 839 N 70.9488 -0.749086 1.3866 0
M  V30 840 C 72.2258 -1.4992 1.25632 0
M  V30 841 C 72.6058 -2.10633 -0.140317 0
M  V30 842 O 71.9538 -1.97437 -1.15025 0
M  V30 843 C 72.1638 -2.56195 2.36992 0
M  V30 844 C 73.5118 -3.22972 2.75634 0
M  V30 845 O 74.5358 -2.66502 2.36337 0
M  V30 846 O 73.3948 -4.25122 3.43415 0
M  V30 847 H 70.4888 -0.665067 0.491544 0
M  V30 848 H 73.0348 -0.784113 1.50498 0
M  V30 849 H 71.8068 -2.09612 3.30422 0
M  V30 850 H 71.4298 -3.35279 2.13714 0
M  V30 851 N 72.4269 -1.23603 -0.977757 0
M  V30 852 C 73.7039 -0.977897 -1.69401 0
M  V30 853 C 74.0839 0.502738 -2.05026 0
M  V30 854 O 73.4319 1.47459 -1.74551 0
M  V30 855 C 73.6419 -1.89077 -2.93345 0
M  V30 856 C 74.9899 -2.15579 -3.65802 0
M  V30 857 O 76.0139 -1.86648 -3.03383 0
M  V30 858 O 74.8729 -2.64658 -4.78141 0
M  V30 859 H 71.9669 -0.369025 -0.740101 0
M  V30 860 H 74.5129 -1.34657 -1.03274 0
M  V30 861 H 73.2849 -2.89158 -2.63634 0
M  V30 862 H 72.9079 -1.52463 -3.67207 0
M  V30 863 N 73.905 1.17692 -1.04816 0
M  V30 864 C 75.182 1.83768 -0.669963 0
M  V30 865 C 75.562 1.93232 0.849986 0
M  V30 866 O 74.91 1.46397 1.75443 0
M  V30 867 C 75.12 3.21641 -1.35455 0
M  V30 868 C 76.468 3.97592 -1.49017 0
M  V30 869 O 77.492 3.31107 -1.31326 0
M  V30 870 O 76.351 5.16729 -1.77914 0
M  V30 871 H 73.445 0.792799 -0.235368 0
M  V30 872 H 75.991 1.25021 -1.14751 0
M  V30 873 H 74.763 3.097 -2.39168 0
M  V30 874 H 74.386 3.88052 -0.866107 0
M  V30 875 N 75.3831 0.828654 1.34056 0
M  V30 876 C 76.6081 0.431637 2.02859 0
M  V30 877 C 77.0331 -0.956339 1.61975 0
M  V30 878 O 76.3911 -1.62338 0.807228 0
M  V30 879 C 76.4391 0.548323 3.56407 0
M  V30 880 O 75.5431 -0.429556 4.10157 0
M  V30 881 H 74.8841 0.176886 0.640006 0
M  V30 882 H 77.4141 1.12066 1.71179 0
M  V30 883 H 77.4241 0.426196 4.05768 0
M  V30 884 H 76.0991 1.5606 3.8551 0
M  V30 885 H 74.6761 -0.265836 3.71951 0
M  V30 886 N 76.8612 -1.46375 0.584142 0
M  V30 887 C 78.0912 -2.06461 0.0758195 0
M  V30 888 C 78.4992 -1.43322 -1.23512 0
M  V30 889 O 77.8422 -0.533216 -1.75791 0
M  V30 890 C 77.9042 -3.59131 -0.162773 0
M  V30 891 C 77.5682 -4.4447 1.06279 0
M  V30 892 C 78.5652 -4.80918 1.97519 0
M  V30 893 C 76.2502 -4.85584 1.28504 0
M  V30 894 C 78.2442 -5.57309 3.09331 0
M  V30 895 C 75.9312 -5.61734 2.4062 0
M  V30 896 C 76.9292 -5.9751 3.30863 0
M  V30 897 O 76.6172 -6.72121 4.41032 0
M  V30 898 H 76.3492 -0.673745 0.0551725 0
M  V30 899 H 78.9032 -1.88969 0.804984 0
M  V30 900 H 77.1332 -3.74936 -0.946565 0
M  V30 901 H 78.8222 -4.0114 -0.619782 0
M  V30 902 H 79.5882 -4.49732 1.81565 0
M  V30 903 H 75.4672 -4.57187 0.591702 0
M  V30 904 H 79.0112 -5.85152 3.79793 0
M  V30 905 H 74.9082 -5.92334 2.56537 0
M  V30 906 H 75.6762 -6.90547 4.39417 0
M  V30 907 N 78.3393 -0.321999 -1.54275 0
M  V30 908 C 79.6163 0.335232 -1.92706 0
M  V30 909 C 79.9963 1.70006 -1.25145 0
M  V30 910 O 79.3443 2.25067 -0.394596 0
M  V30 911 C 79.5543 0.429008 -3.46353 0
M  V30 912 C 80.9023 0.690029 -4.18956 0
M  V30 913 O 81.9263 0.511992 -3.52501 0
M  V30 914 O 80.7853 1.03338 -5.36641 0
M  V30 915 H 77.8793 0.191143 -0.804608 0
M  V30 916 H 80.4253 -0.3716 -1.65581 0
M  V30 917 H 79.1973 -0.529611 -3.87699 0
M  V30 918 H 78.8203 1.18348 -3.79578 0
M  V30 919 N 79.8174 1.5752 -0.0501392 0
M  V30 920 C 80.7274 2.14952 0.939827 0
M  V30 921 C 81.7434 1.10706 1.34239 0
M  V30 922 O 82.9194 1.42869 1.41952 0
M  V30 923 C 79.9844 2.68232 2.19665 0
M  V30 924 C 79.0454 3.87272 1.85253 0
M  V30 925 C 78.2784 4.38002 3.04943 0
M  V30 926 O 78.5014 3.87811 4.18281 0
M  V30 927 O 77.4354 5.29602 2.86017 0
M  V30 928 H 81.2614 2.9986 0.481392 0
M  V30 929 H 78.8464 1.4841 0.171699 0
M  V30 930 H 80.7284 3.02475 2.93406 0
M  V30 931 H 79.4034 1.86395 2.64648 0
M  V30 932 H 78.3104 3.5792 1.0883 0
M  V30 933 H 79.6434 4.70336 1.4507 0
M  V30 934 N 81.2955 -0.223234 1.56011 0
M  V30 935 C 82.5725 -0.972108 1.69733 0
M  V30 936 C 82.9525 -2.02485 0.59691 0
M  V30 937 O 82.3005 -2.25037 -0.396324 0
M  V30 938 C 82.5105 -1.58407 3.10979 0
M  V30 939 C 83.8585 -2.07696 3.70334 0
M  V30 940 O 84.8825 -1.68304 3.1393 0
M  V30 941 O 83.7415 -2.80096 4.69264 0
M  V30 942 H 80.8355 -0.453993 0.691245 0
M  V30 943 H 83.3815 -0.215149 1.68331 0
M  V30 944 H 82.1535 -0.823831 3.82529 0
M  V30 945 H 81.7765 -2.40661 3.16493 0
M  V30 946 N 82.7736 -1.49793 -0.48987 0
M  V30 947 C 84.0196 -1.60078 -1.24511 0
M  V30 948 C 84.3526 -0.291608 -1.91998 0
M  V30 949 O 83.6276 0.705647 -1.81248 0
M  V30 950 C 83.9106 -2.76791 -2.30345 0
M  V30 951 C 83.7636 -4.17535 -1.67286 0
M  V30 952 C 85.0826 -2.89111 -3.31817 0
M  V30 953 H 82.2016 -0.582645 -0.451324 0
M  V30 954 H 84.8436 -1.82117 -0.541612 0
M  V30 955 H 82.9936 -2.5813 -2.90346 0
M  V30 956 H 84.6656 -4.4774 -1.11026 0
M  V30 957 H 82.9086 -4.22665 -0.976577 0
M  V30 958 H 83.5796 -4.95094 -2.44103 0
M  V30 959 H 86.0556 -3.06133 -2.81819 0
M  V30 960 H 84.9316 -3.72433 -4.03219 0
M  V30 961 H 85.1926 -1.9893 -3.94815 0
M  V30 962 N 84.2517 0.741722 -1.39055 0
M  V30 963 C 85.1617 1.88621 -1.39496 0
M  V30 964 C 86.1777 1.71557 -0.290578 0
M  V30 965 O 87.3537 1.94275 -0.530954 0
M  V30 966 C 84.4187 3.24134 -1.23037 0
M  V30 967 C 83.4797 3.5364 -2.43387 0
M  V30 968 C 82.7127 4.82687 -2.27703 0
M  V30 969 O 82.9357 5.55922 -1.27696 0
M  V30 970 O 81.8697 5.1194 -3.16545 0
M  V30 971 H 85.6957 1.91203 -2.35956 0
M  V30 972 H 83.2807 0.888625 -1.20099 0
M  V30 973 H 85.1627 4.0513 -1.15964 0
M  V30 974 H 83.8377 3.22337 -0.296691 0
M  V30 975 H 82.7447 2.72758 -2.56035 0
M  V30 976 H 84.0777 3.60209 -3.35425 0
M  V30 977 N 85.7298 1.2412 0.971189 0
M  V30 978 C 87.0068 0.986867 1.6888 0
M  V30 979 C 87.3868 -0.491857 2.0529 0
M  V30 980 O 86.7348 -1.46531 1.75331 0
M  V30 981 C 86.9448 1.9063 2.92338 0
M  V30 982 C 88.2928 2.17515 3.64654 0
M  V30 983 O 89.3168 1.88254 3.02388 0
M  V30 984 O 88.1758 2.6719 4.7673 0
M  V30 985 H 85.2698 0.372944 0.738134 0
M  V30 986 H 87.8158 1.35203 1.02559 0
M  V30 987 H 86.5878 2.90552 2.62097 0
M  V30 988 H 86.2108 1.54408 3.66393 0
M  V30 989 N 87.2079 -1.17134 1.05439 0
M  V30 990 C 88.4849 -1.83411 0.679699 0
M  V30 991 C 88.8649 -1.9368 -0.839726 0
M  V30 992 O 88.2129 -1.47325 -1.74664 0
M  V30 993 C 88.4229 -3.20918 1.37159 0
M  V30 994 C 89.7709 -3.96796 1.51123 0
M  V30 995 O 90.7949 -3.30406 1.3308 0
M  V30 996 O 89.6539 -5.15778 1.80651 0
M  V30 997 H 86.7479 -0.79154 0.239569 0
M  V30 998 H 89.2939 -1.24411 1.15413 0
M  V30 999 H 88.0659 -3.08428 2.40807 0
M  V30 1000 H 87.6889 -3.87587 0.886674 0
M  V30 1001 N 88.686 -0.835752 -1.33615 0
M  V30 1002 C 89.596 -0.269088 -2.33052 0
M  V30 1003 C 90.612 0.603251 -1.63208 0
M  V30 1004 O 91.788 0.508112 -1.94885 0
M  V30 1005 C 88.853 0.549091 -3.42324 0
M  V30 1006 C 87.914 -0.347156 -4.27894 0
M  V30 1007 C 87.147 0.43207 -5.31948 0
M  V30 1008 O 87.37 1.66409 -5.45586 0
M  V30 1009 O 86.304 -0.192298 -6.01593 0
M  V30 1010 H 90.13 -1.09243 -2.83372 0
M  V30 1011 H 87.715 -0.598198 -1.36901 0
M  V30 1012 H 89.597 1.01414 -4.09015 0
M  V30 1013 H 88.272 1.34955 -2.94226 0
M  V30 1014 H 87.179 -0.859979 -3.64081 0
M  V30 1015 H 88.512 -1.1123 -4.79467 0
M  V30 1016 N 90.1641 1.46063 -0.591896 0
M  V30 1017 C 91.4121 2.01938 -0.0808391 0
M  V30 1018 C 91.7331 1.46475 1.28725 0
M  V30 1019 O 91.0031 0.652944 1.84698 0
M  V30 1020 H 89.5831 0.746516 -0.0268938 0
M  V30 1021 H 92.2451 1.79055 -0.769752 0
M  V30 1022 H 91.3411 3.12094 -0.0187578 0
M  V30 1023 N 91.6422 0.330177 1.54103 0
M  V30 1024 C 92.8882 -0.270806 2.00984 0
M  V30 1025 C 93.2212 -1.51265 1.21789 0
M  V30 1026 O 92.4962 -1.92142 0.301927 0
M  V30 1027 C 92.7792 -0.598339 3.55094 0
M  V30 1028 C 92.6322 0.654674 4.4501 0
M  V30 1029 C 93.9512 -1.41334 4.16789 0
M  V30 1030 H 91.0702 -0.0969531 0.730595 0
M  V30 1031 H 93.7122 0.448066 1.84641 0
M  V30 1032 H 91.8622 -1.21078 3.69151 0
M  V30 1033 H 93.5342 1.29285 4.42813 0
M  V30 1034 H 91.7772 1.28224 4.14416 0
M  V30 1035 H 92.4482 0.380944 5.50684 0
M  V30 1036 H 94.9242 -0.895597 4.06347 0
M  V30 1037 H 93.8002 -1.61127 5.24718 0
M  V30 1038 H 94.0612 -2.41146 3.70541 0
M  V30 1039 N 93.1203 -1.57491 0.0584922 0
M  V30 1040 C 94.3683 -1.92597 -0.612436 0
M  V30 1041 C 94.6893 -0.938162 -1.70949 0
M  V30 1042 O 93.9593 0.0158301 -1.95894 0
M  V30 1043 H 92.5393 -0.710964 -0.229214 0
M  V30 1044 H 95.2013 -1.94571 0.113218 0
M  V30 1045 H 94.2973 -2.94038 -1.04633 0
M  V30 1046 N 94.5984 0.214957 -1.56127 0
M  V30 1047 C 95.5084 1.28727 -1.96129 0
M  V30 1048 C 96.5244 1.50916 -0.866044 0
M  V30 1049 O 97.7004 1.63918 -1.17016 0
M  V30 1050 C 94.7654 2.61569 -2.27558 0
M  V30 1051 C 93.8264 2.47625 -3.50685 0
M  V30 1052 C 93.0594 3.74132 -3.80606 0
M  V30 1053 O 93.2824 4.77438 -3.12104 0
M  V30 1054 O 92.2164 3.70849 -4.74083 0
M  V30 1055 H 96.0424 0.977855 -2.87527 0
M  V30 1056 H 93.6274 0.418358 -1.43423 0
M  V30 1057 H 95.5094 3.40012 -2.48938 0
M  V30 1058 H 94.1844 2.92178 -1.39332 0
M  V30 1059 H 93.0914 1.67361 -3.34576 0
M  V30 1060 H 94.4244 2.21954 -4.39315 0
M  V30 1061 N 96.0765 1.50051 0.48192 0
M  V30 1062 C 97.3225 1.60736 1.2366 0
M  V30 1063 C 97.6555 0.301786 1.91841 0
M  V30 1064 O 96.9305 -0.696025 1.8162 0
M  V30 1065 C 97.2135 2.78009 2.28874 0
M  V30 1066 C 97.0665 4.18416 1.65069 0
M  V30 1067 C 98.3855 2.90867 3.30279 0
M  V30 1068 H 95.5045 0.585031 0.448228 0
M  V30 1069 H 98.1465 1.82402 0.531946 0
M  V30 1070 H 96.2965 2.59667 2.88973 0
M  V30 1071 H 97.9685 4.48322 1.0865 0
M  V30 1072 H 96.2115 4.23177 0.954148 0
M  V30 1073 H 96.8825 4.96381 2.41474 0
M  V30 1074 H 99.3585 3.07623 2.80191 0
M  V30 1075 H 98.2345 3.74566 4.01238 0
M  V30 1076 H 98.4955 2.01021 3.93755 0
M  V30 1077 N 97.5546 -0.734337 1.39446 0
M  V30 1078 C 98.9706 -1.03997 1.21065 0
M  V30 1079 C 99.1706 -2.01369 0.0727019 0
M  V30 1080 O 98.2266 -2.45856 -0.575426 0
M  V30 1081 C 99.5396 -1.60163 2.54496 0
M  V30 1082 C 101.088 -1.7224 2.61347 0
M  V30 1083 C 101.563 -2.31814 3.95002 0
M  V30 1084 N 103.054 -2.39223 3.96644 0
M  V30 1085 C 103.789 -2.86258 4.96834 0
M  V30 1086 N 103.285 -3.33184 6.07421 0
M  V30 1087 N 105.078 -2.85473 4.84213 0
M  V30 1088 H 97.2286 -0.0885624 2.12215 0
M  V30 1089 H 99.4916 -0.10191 0.942506 0
M  V30 1090 H 99.1976 -0.960811 3.38321 0
M  V30 1091 H 99.0716 -2.5896 2.74262 0
M  V30 1092 H 101.459 -2.35443 1.77906 0
M  V30 1093 H 101.54 -0.720939 2.4543 0
M  V30 1094 H 101.184 -1.69238 4.78875 0
M  V30 1095 H 101.114 -3.32638 4.08239 0
M  V30 1096 H 103.605 -2.06057 3.16779 0
M  V30 1097 H 103.918 -3.67586 6.7978 0
M  V30 1098 H 102.263 -3.31191 6.11013 0
M  V30 1099 H 105.454 -2.48136 3.96921 0
M  V30 1100 H 105.627 -3.21814 5.62441 0
M  V30 1101 N 99.0327 -1.24633 -0.964593 0
M  V30 1102 C 100.279 -1.08949 -1.71049 0
M  V30 1103 C 100.612 0.370302 -1.90637 0
M  V30 1104 O 99.8867 1.27349 -1.47011 0
M  V30 1105 C 100.17 -1.83329 -3.0994 0
M  V30 1106 C 100.023 -3.37077 -2.97824 0
M  V30 1107 C 101.342 -1.60846 -4.09654 0
M  V30 1108 H 98.4607 -0.397178 -0.620821 0
M  V30 1109 H 101.103 -1.5334 -1.12191 0
M  V30 1110 H 99.2527 -1.45597 -3.60186 0
M  V30 1111 H 100.925 -3.84425 -2.5498 0
M  V30 1112 H 99.1677 -3.65298 -2.33965 0
M  V30 1113 H 99.8387 -3.84324 -3.96231 0
M  V30 1114 H 102.315 -1.93674 -3.68279 0
M  V30 1115 H 101.191 -2.1534 -5.04896 0
M  V30 1116 H 101.452 -0.547434 -4.38698 0
M  V30 1117 N 100.511 1.16574 -1.06058 0
M  V30 1118 C 101.461 2.18854 -0.63929 0
M  V30 1119 C 102.445 1.57505 0.328798 0
M  V30 1120 O 103.637 1.76408 0.144623 0
M  V30 1121 C 100.766 3.43291 -0.0247203 0
M  V30 1122 C 99.8518 4.11722 -1.01716 0
M  V30 1123 N 100.243 4.55841 -2.19186 0
M  V30 1124 C 98.5408 4.37872 -0.847569 0
M  V30 1125 C 99.2418 5.08751 -2.82042 0
M  V30 1126 N 98.2178 5.01489 -2.09784 0
M  V30 1127 H 102.02 2.5068 -1.53417 0
M  V30 1128 H 99.5338 1.32999 -0.931935 0
M  V30 1129 H 101.531 4.15856 0.294915 0
M  V30 1130 H 100.191 3.12954 0.865448 0
M  V30 1131 H 101.202 4.49649 -2.56975 0
M  V30 1132 H 97.8788 4.17499 -0.00918848 0
M  V30 1133 H 99.2688 5.52944 -3.81709 0
M  V30 1134 N 101.989 0.842826 1.3317 0
M  V30 1135 C 103.405 0.531128 1.50503 0
M  V30 1136 C 103.605 -0.940734 1.78192 0
M  V30 1137 O 102.661 -1.72436 1.84451 0
M  V30 1138 C 103.974 1.40789 2.65705 0
M  V30 1139 C 105.522 1.40708 2.79589 0
M  V30 1140 C 105.997 2.26878 3.97857 0
M  V30 1141 N 107.488 2.24609 4.05099 0
M  V30 1142 C 108.223 2.88019 4.95815 0
M  V30 1143 N 107.719 3.60496 5.9162 0
M  V30 1144 N 109.512 2.77469 4.88843 0
M  V30 1145 H 101.663 1.79557 1.1346 0
M  V30 1146 H 103.926 0.766267 0.558156 0
M  V30 1147 H 103.632 2.454 2.51936 0
M  V30 1148 H 103.506 1.08677 3.61205 0
M  V30 1149 H 105.893 0.368668 2.92788 0
M  V30 1150 H 105.974 1.76829 1.84838 0
M  V30 1151 H 105.618 3.3078 3.85418 0
M  V30 1152 H 105.548 1.88096 4.91861 0
M  V30 1153 H 108.039 1.71906 3.36536 0
M  V30 1154 H 108.352 4.06076 6.57512 0
M  V30 1155 H 106.697 3.64604 5.91683 0
M  V30 1156 H 109.888 2.20406 4.12963 0
M  V30 1157 H 110.061 3.2717 5.59342 0
M  V30 1158 N 103.467 -1.45747 0.599634 0
M  V30 1159 C 104.713 -2.02592 0.0918643 0
M  V30 1160 C 105.046 -1.46806 -1.27128 0
M  V30 1161 O 104.321 -0.639658 -1.83681 0
M  V30 1162 C 104.604 -3.60073 0.0443398 0
M  V30 1163 C 104.457 -4.26208 1.43759 0
M  V30 1164 C 105.776 -4.35309 -0.647608 0
M  V30 1165 H 102.895 -0.736175 0.034857 0
M  V30 1166 H 105.537 -1.73694 0.770081 0
M  V30 1167 H 103.687 -3.84823 -0.533224 0
M  V30 1168 H 105.359 -4.12668 2.06162 0
M  V30 1169 H 103.602 -3.84916 2.00056 0
M  V30 1170 H 104.273 -5.35069 1.35665 0
M  V30 1171 H 106.749 -4.15805 -0.156776 0
M  V30 1172 H 105.625 -5.45038 -0.649942 0
M  V30 1173 H 105.886 -4.07598 -1.71219 0
M  V30 1174 N 104.945 -0.338344 -1.53925 0
M  V30 1175 C 105.893 0.536231 -2.26335 0
M  V30 1176 C 106.887 1.1063 -1.28286 0
M  V30 1177 O 108.093 1.05264 -1.46012 0
M  V30 1178 H 104.468 0.191602 -0.727181 0
M  V30 1179 H 106.439 -0.0965747 -2.98244 0
M  V30 1180 C 105.188 1.67803 -3.04528 0
M  V30 1181 H 104.511 1.24864 -3.79801 0
M  V30 1182 H 105.951 2.26526 -3.58416 0
M  V30 1183 C 104.41 2.60439 -2.13712 0
M  V30 1184 O 104.94 3.6255 -1.72975 0
M  V30 1185 N 103.146 2.29006 -1.78898 0
M  V30 1186 H 102.693 1.46011 -2.12223 0
M  V30 1187 H 102.651 2.91248 -1.18416 0
M  V30 1188 N 106.423 1.57458 -0.0668435 0
M  V30 1189 C 107.373 2.0896 0.912119 0
M  V30 1190 C 108.357 0.998186 1.26195 0
M  V30 1191 O 109.549 1.26133 1.24175 0
M  V30 1192 C 106.678 2.6508 2.18145 0
M  V30 1193 C 105.764 3.81218 1.85832 0
M  V30 1194 N 106.155 4.90378 1.23948 0
M  V30 1195 C 104.453 3.9042 2.15612 0
M  V30 1196 C 105.154 5.71279 1.09616 0
M  V30 1197 N 104.13 5.19389 1.60423 0
M  V30 1198 H 107.932 2.90749 0.42924 0
M  V30 1199 H 105.446 1.6182 0.137184 0
M  V30 1200 H 107.443 3.0029 2.89192 0
M  V30 1201 H 106.103 1.84736 2.67025 0
M  V30 1202 H 107.114 5.09847 0.909731 0
M  V30 1203 H 103.791 3.21043 2.66903 0
M  V30 1204 H 105.181 6.69085 0.614425 0
M  V30 1205 N 107.901 -0.206675 1.56239 0
M  V30 1206 C 108.864 -1.23976 1.92776 0
M  V30 1207 C 109.864 -1.39041 0.807729 0
M  V30 1208 O 111.054 -1.37051 1.0753 0
M  V30 1209 C 108.186 -2.61112 2.19165 0
M  V30 1210 H 109.379 -0.927764 2.85189 0
M  V30 1211 H 106.932 -0.447718 1.4975 0
M  V30 1212 H 107.667 -2.97386 1.29352 0
M  V30 1213 H 107.452 -2.51552 3.00772 0
M  V30 1214 H 108.942 -3.35633 2.48476 0
M  V30 1215 N 109.379 -1.50304 -0.473955 0
M  V30 1216 C 110.79 -1.54042 -1.0549 0
M  V30 1217 C 111.141 -0.342248 -1.93192 0
M  V30 1218 O 110.266 0.545157 -2.09421 0
M  V30 1219 C 110.861 -2.79152 -1.91989 0
M  V30 1220 C 109.42 -2.8558 -2.45196 0
M  V30 1221 C 108.567 -2.48295 -1.2347 0
M  V30 1222 H 111.518 -1.5661 -0.256693 0
M  V30 1223 H 111.539 -2.60845 -2.7702 0
M  V30 1224 H 111.051 -3.66339 -1.28131 0
M  V30 1225 H 109.152 -2.02738 -3.12615 0
M  V30 1226 H 109.265 -3.88403 -2.80499 0
M  V30 1227 H 107.629 -2.00669 -1.56856 0
M  V30 1228 H 108.412 -3.37787 -0.612789 0
M  V30 1229 N 110.857 0.726932 -1.39834 0
M  V30 1230 C 111.82 1.82269 -1.38962 0
M  V30 1231 C 112.82 1.58248 -0.285334 0
M  V30 1232 O 114.01 1.65499 -0.54366 0
M  V30 1233 C 111.142 3.20186 -1.17019 0
M  V30 1234 H 112.335 1.84443 -2.36476 0
M  V30 1235 H 109.888 0.931416 -1.25516 0
M  V30 1236 H 110.623 3.23669 -0.202204 0
M  V30 1237 H 110.408 3.3902 -1.96998 0
M  V30 1238 H 111.898 4.00235 -1.1917 0
M  V30 1239 N 112.336 1.25143 0.95797 0
M  V30 1240 C 113.284 1.05019 2.07542 0
M  V30 1241 C 114.278 -0.0178751 1.69391 0
M  V30 1242 O 115.484 0.137472 1.79474 0
M  V30 1243 H 111.859 0.32265 0.679265 0
M  V30 1244 H 113.83 1.99759 2.21673 0
M  V30 1245 C 112.579 0.682074 3.40944 0
M  V30 1246 H 111.902 1.49573 3.70767 0
M  V30 1247 H 113.342 0.580945 4.20001 0
M  V30 1248 C 111.801 -0.611608 3.31302 0
M  V30 1249 O 112.331 -1.65465 3.66038 0
M  V30 1250 N 110.537 -0.595982 2.84423 0
M  V30 1251 H 110.084 0.253192 2.56353 0
M  V30 1252 H 110.042 -1.46173 2.78354 0
M  V30 1253 N 113.814 -1.1601 1.06675 0
M  V30 1254 C 114.777 -2.18724 0.685001 0
M  V30 1255 C 115.777 -1.58496 -0.271246 0
M  V30 1256 O 116.967 -1.74119 -0.0531156 0
M  V30 1257 C 114.099 -3.40899 0.00853648 0
M  V30 1258 H 115.292 -2.54011 1.59431 0
M  V30 1259 H 112.845 -1.30352 0.862441 0
M  V30 1260 H 113.58 -3.11173 -0.913337 0
M  V30 1261 H 113.365 -3.8587 0.696204 0
M  V30 1262 H 114.855 -4.16886 -0.24414 0
M  V30 1263 N 115.292 -0.849877 -1.32721 0
M  V30 1264 C 116.224 -0.248332 -2.27851 0
M  V30 1265 C 117.237 0.577218 -1.52224 0
M  V30 1266 O 118.426 0.402489 -1.73903 0
M  V30 1267 C 115.526 0.668107 -3.32249 0
M  V30 1268 C 114.699 -0.120534 -4.37234 0
M  V30 1269 C 113.758 0.720932 -5.21238 0
M  V30 1270 O 112.784 0.156166 -5.68986 0
M  V30 1271 N 113.986 2.03647 -5.43607 0
M  V30 1272 H 116.751 -1.06575 -2.80111 0
M  V30 1273 H 114.312 -0.709395 -1.45531 0
M  V30 1274 H 116.304 1.23627 -3.85355 0
M  V30 1275 H 114.874 1.38621 -2.80184 0
M  V30 1276 H 114.094 -0.870108 -3.84477 0
M  V30 1277 H 115.382 -0.662406 -5.0447 0
M  V30 1278 H 114.78 2.51871 -5.06535 0
M  V30 1279 H 113.337 2.55287 -5.99727 0
M  V30 1280 N 116.77 1.45427 -0.607355 0
M  V30 1281 C 117.68 2.34325 0.113463 0
M  V30 1282 C 118.696 1.51226 0.860617 0
M  V30 1283 O 119.872 1.84029 0.818255 0
M  V30 1284 C 116.937 3.28839 1.09844 0
M  V30 1285 C 115.998 4.27844 0.353271 0
M  V30 1286 C 115.231 5.17842 1.29133 0
M  V30 1287 O 115.454 5.11264 2.52913 0
M  V30 1288 O 114.388 5.96713 0.788523 0
M  V30 1289 H 118.214 2.97364 -0.617094 0
M  V30 1290 H 115.799 1.44807 -0.367619 0
M  V30 1291 H 117.681 3.8708 1.66575 0
M  V30 1292 H 116.356 2.68365 1.81003 0
M  V30 1293 H 115.263 3.7322 -0.256494 0
M  V30 1294 H 116.596 4.91173 -0.317822 0
M  V30 1295 N 118.248 0.346503 1.53744 0
M  V30 1296 C 119.198 -0.524953 2.21874 0
M  V30 1297 C 120.182 -1.06376 1.20718 0
M  V30 1298 O 121.374 -0.996972 1.46251 0
M  V30 1299 C 118.503 -1.6739 2.99726 0
M  V30 1300 C 117.589 -1.14888 4.08242 0
M  V30 1301 N 117.98 -0.345329 5.0462 0
M  V30 1302 C 116.278 -1.4255 4.22606 0
M  V30 1303 C 116.979 -0.0600706 5.81669 0
M  V30 1304 N 115.955 -0.65252 5.39669 0
M  V30 1305 H 119.757 0.0960091 2.93743 0
M  V30 1306 H 117.271 0.15352 1.61673 0
M  V30 1307 H 119.268 -2.3102 3.47038 0
M  V30 1308 H 117.928 -2.29811 2.29384 0
M  V30 1309 H 118.939 0.0138439 5.17898 0
M  V30 1310 H 115.616 -2.05389 3.63486 0
M  V30 1311 H 117.006 0.588321 6.69319 0
M  V30 1312 N 119.726 -1.57421 0.075193 0
M  V30 1313 C 120.636 -2.1642 -0.905511 0
M  V30 1314 C 121.652 -1.12828 -1.32461 0
M  V30 1315 O 122.828 -1.45109 -1.39661 0
M  V30 1316 C 119.893 -2.71693 -2.15369 0
M  V30 1317 C 118.954 -3.90171 -1.79068 0
M  V30 1318 C 118.187 -4.42798 -2.97936 0
M  V30 1319 O 118.41 -3.94416 -4.12058 0
M  V30 1320 O 117.344 -5.34085 -2.77555 0
M  V30 1321 H 121.17 -3.00588 -0.433626 0
M  V30 1322 H 118.755 -1.48664 -0.148067 0
M  V30 1323 H 120.637 -3.07104 -2.88557 0
M  V30 1324 H 119.312 -1.90582 -2.61649 0
M  V30 1325 H 118.219 -3.59606 -1.03122 0
M  V30 1326 H 119.552 -4.72584 -1.37569 0
M  V30 1327 N 121.204 0.198386 -1.56346 0
M  V30 1328 C 122.167 1.22952 -1.93431 0
M  V30 1329 C 123.167 1.38611 -0.815092 0
M  V30 1330 O 124.357 1.36479 -1.08255 0
M  V30 1331 C 121.489 2.59946 -2.20546 0
M  V30 1332 H 122.682 0.912626 -2.85677 0
M  V30 1333 H 120.235 0.43977 -1.49986 0
M  V30 1334 H 120.97 2.96696 -1.30927 0
M  V30 1335 H 120.755 2.49953 -3.02102 0
M  V30 1336 H 122.245 3.3431 -2.50253 0
M  V30 1337 N 122.682 1.50554 0.465978 0
M  V30 1338 C 123.645 1.69233 1.54574 0
M  V30 1339 C 124.645 0.562901 1.50626 0
M  V30 1340 O 125.835 0.830016 1.53155 0
M  V30 1341 C 122.967 1.7223 2.94193 0
M  V30 1342 H 124.16 2.65571 1.39327 0
M  V30 1343 H 121.713 1.40111 0.692711 0
M  V30 1344 H 122.448 0.77603 3.14878 0
M  V30 1345 H 122.233 2.54285 2.98466 0
M  V30 1346 H 123.723 1.88618 3.72576 0
M  V30 1347 N 124.16 -0.719506 1.40217 0
M  V30 1348 C 125.576 -1.02707 1.22161 0
M  V30 1349 C 125.776 -2.0128 0.0940557 0
M  V30 1350 O 124.832 -2.46452 -0.549318 0
M  V30 1351 C 126.145 -1.57454 2.56181 0
M  V30 1352 C 127.693 -1.69458 2.63159 0
M  V30 1353 C 128.168 -2.27611 3.97438 0
M  V30 1354 N 129.659 -2.35002 3.99159 0
M  V30 1355 C 130.394 -2.80972 4.99842 0
M  V30 1356 N 129.89 -3.26723 6.10921 0
M  V30 1357 N 131.683 -2.80321 4.87213 0
M  V30 1358 H 123.834 -0.0660492 2.12297 0
M  V30 1359 H 126.097 -0.0919077 0.943534 0
M  V30 1360 H 125.803 -0.924873 3.39321 0
M  V30 1361 H 125.677 -2.56036 2.76993 0
M  V30 1362 H 128.064 -2.33543 1.80393 0
M  V30 1363 H 128.145 -0.694867 2.46181 0
M  V30 1364 H 127.789 -1.6415 4.80643 0
M  V30 1365 H 127.719 -3.2829 4.11744 0
M  V30 1366 H 130.21 -2.02685 3.18947 0
M  V30 1367 H 130.523 -3.60355 6.8364 0
M  V30 1368 H 128.868 -3.24692 6.14492 0
M  V30 1369 H 132.059 -2.43912 3.9953 0
M  V30 1370 H 132.232 -3.15831 5.65822 0
M  V30 1371 N 125.638 -1.25649 -0.95132 0
M  V30 1372 C 127.049 -1.09654 -1.51106 0
M  V30 1373 C 127.4 0.326615 -1.93462 0
M  V30 1374 O 126.525 1.21697 -1.78938 0
M  V30 1375 C 127.12 -1.98437 -2.74605 0
M  V30 1376 C 125.679 -1.86618 -3.2688 0
M  V30 1377 C 124.826 -1.9239 -1.99703 0
M  V30 1378 H 127.777 -1.38887 -0.767865 0
M  V30 1379 H 127.798 -1.5263 -3.48546 0
M  V30 1380 H 127.31 -3.02009 -2.43746 0
M  V30 1381 H 125.411 -0.859421 -3.62553 0
M  V30 1382 H 125.524 -2.71607 -3.94673 0
M  V30 1383 H 123.888 -1.36317 -2.15151 0
M  V30 1384 H 124.671 -2.97573 -1.71188 0
M  V30 1385 N 127.117 1.15442 -1.07289 0
M  V30 1386 C 128.342 1.90638 -0.816828 0
M  V30 1387 C 128.767 1.77445 0.624083 0
M  V30 1388 O 128.125 1.10671 1.43602 0
M  V30 1389 C 128.173 3.39008 -1.22906 0
M  V30 1390 O 127.277 4.10701 -0.373975 0
M  V30 1391 H 126.618 0.593555 -0.297638 0
M  V30 1392 H 129.148 1.46198 -1.43134 0
M  V30 1393 H 129.158 3.89801 -1.20497 0
M  V30 1394 H 127.833 3.47929 -2.27856 0
M  V30 1395 H 126.41 3.70046 -0.460499 0
M  V30 1396 N 128.595 0.856903 1.32268 0
M  V30 1397 C 130.006 0.515711 1.79436 0
M  V30 1398 C 130.357 -0.966586 1.70738 0
M  V30 1399 O 129.482 -1.75409 1.26731 0
M  V30 1400 C 130.077 0.929335 3.25805 0
M  V30 1401 C 128.636 0.640006 3.70919 0
M  V30 1402 C 127.783 1.12784 2.53328 0
M  V30 1403 H 130.734 1.04389 1.19535 0
M  V30 1404 H 130.755 0.246633 3.797 0
M  V30 1405 H 130.267 2.00821 3.32103 0
M  V30 1406 H 128.368 -0.428051 3.70133 0
M  V30 1407 H 128.481 1.20788 4.63624 0
M  V30 1408 H 126.845 0.548033 2.48734 0
M  V30 1409 H 127.628 2.21387 2.62379 0
M  V30 1410 N 130.073 -1.45103 0.615059 0
M  V30 1411 C 131.005 -2.28786 -0.13762 0
M  V30 1412 C 132.018 -1.40376 -0.824525 0
M  V30 1413 O 133.207 -1.64681 -0.688662 0
M  V30 1414 C 130.307 -3.16322 -1.21628 0
M  V30 1415 C 129.48 -4.33054 -0.615039 0
M  V30 1416 C 128.539 -5.01743 -1.58556 0
M  V30 1417 O 127.565 -5.58293 -1.10895 0
M  V30 1418 N 128.767 -5.01714 -2.91998 0
M  V30 1419 H 131.532 -2.94025 0.580483 0
M  V30 1420 H 129.093 -1.55373 0.45507 0
M  V30 1421 H 131.085 -3.59139 -1.86552 0
M  V30 1422 H 129.655 -2.52943 -1.83681 0
M  V30 1423 H 128.875 -3.93627 0.21245 0
M  V30 1424 H 130.163 -5.08431 -0.193704 0
M  V30 1425 H 129.561 -4.57075 -3.33316 0
M  V30 1426 H 128.118 -5.48371 -3.52325 0
M  V30 1427 N 131.551 -0.354651 -1.53558 0
M  V30 1428 C 132.501 0.513179 -2.2215 0
M  V30 1429 C 133.485 1.05734 -1.21281 0
M  V30 1430 O 134.677 0.989202 -1.46778 0
M  V30 1431 C 131.806 1.65798 -3.00609 0
M  V30 1432 C 130.892 1.12722 -4.08845 0
M  V30 1433 N 131.283 0.318563 -5.04796 0
M  V30 1434 C 129.581 1.40307 -4.23356 0
M  V30 1435 C 130.282 0.0292224 -5.81693 0
M  V30 1436 N 129.258 0.623891 -5.40008 0
M  V30 1437 H 133.06 -0.111586 -2.93688 0
M  V30 1438 H 130.574 -0.162091 -1.61589 0
M  V30 1439 H 132.571 2.29176 -3.48258 0
M  V30 1440 H 131.231 2.28591 -2.306 0
M  V30 1441 H 132.242 -0.0413091 -5.17884 0
M  V30 1442 H 128.919 2.03458 -3.6457 0
M  V30 1443 H 130.309 -0.623808 -6.68998 0
M  V30 1444 N 133.029 1.57378 -0.0835403 0
M  V30 1445 C 133.961 2.10389 0.909338 0
M  V30 1446 C 134.974 1.03858 1.25369 0
M  V30 1447 O 136.163 1.31338 1.20882 0
M  V30 1448 C 133.263 2.55908 2.2218 0
M  V30 1449 C 132.436 3.86145 2.05453 0
M  V30 1450 C 131.495 4.17633 3.20108 0
M  V30 1451 O 130.521 4.87043 2.94581 0
M  V30 1452 N 131.723 3.72113 4.45547 0
M  V30 1453 H 134.488 2.962 0.456657 0
M  V30 1454 H 132.049 1.61579 0.101877 0
M  V30 1455 H 134.041 2.74027 2.97811 0
M  V30 1456 H 132.611 1.75171 2.58909 0
M  V30 1457 H 131.831 3.7729 1.1422 0
M  V30 1458 H 133.119 4.7137 1.91541 0
M  V30 1459 H 132.517 3.16062 4.69171 0
M  V30 1460 H 131.074 3.95409 5.18165 0
M  V30 1461 N 134.507 -0.190092 1.56449 0
M  V30 1462 C 135.737 -0.92443 1.84764 0
M  V30 1463 C 136.145 -1.77146 0.664529 0
M  V30 1464 O 135.488 -1.79812 -0.375957 0
M  V30 1465 C 135.55 -1.86651 3.07248 0
M  V30 1466 C 135.214 -1.20094 4.40938 0
M  V30 1467 C 136.211 -0.575445 5.16706 0
M  V30 1468 C 133.896 -1.2033 4.87674 0
M  V30 1469 C 135.89 0.0388111 6.37388 0
M  V30 1470 C 133.577 -0.585214 6.08291 0
M  V30 1471 C 134.575 0.0347578 6.82991 0
M  V30 1472 O 134.263 0.643147 8.01323 0
M  V30 1473 H 133.995 -0.274974 0.617548 0
M  V30 1474 H 136.549 -0.200788 2.04416 0
M  V30 1475 H 134.779 -2.62998 2.83494 0
M  V30 1476 H 136.468 -2.46907 3.22167 0
M  V30 1477 H 137.234 -0.565728 4.81689 0
M  V30 1478 H 133.113 -1.67526 4.29484 0
M  V30 1479 H 136.657 0.523329 6.95634 0
M  V30 1480 H 132.554 -0.592451 6.42775 0
M  V30 1481 H 133.322 0.540545 8.16713 0
M  V30 1482 N 135.985 -1.50799 -0.457987 0
M  V30 1483 C 136.917 -1.66786 -1.57211 0
M  V30 1484 C 137.93 -0.548962 -1.53265 0
M  V30 1485 O 139.119 -0.8226 -1.58416 0
M  V30 1486 C 136.219 -1.64834 -2.96113 0
M  V30 1487 C 135.392 -2.92971 -3.24787 0
M  V30 1488 C 134.451 -2.83485 -4.43309 0
M  V30 1489 O 133.477 -3.5744 -4.42973 0
M  V30 1490 N 134.679 -1.97929 -5.45714 0
M  V30 1491 H 137.444 -2.62889 -1.43909 0
M  V30 1492 H 135.005 -1.48427 -0.646617 0
M  V30 1493 H 136.997 -1.56084 -3.7339 0
M  V30 1494 H 135.567 -0.764118 -3.03117 0
M  V30 1495 H 134.787 -3.15749 -2.36 0
M  V30 1496 H 136.075 -3.77834 -3.40762 0
M  V30 1497 H 135.473 -1.37182 -5.48815 0
M  V30 1498 H 134.03 -1.95073 -6.21924 0
M  V30 1499 N 137.463 0.71206 -1.40597 0
M  V30 1500 C 138.874 1.29135 -1.34837 0
M  V30 1501 C 139.225 1.96186 -0.0235395 0
M  V30 1502 O 138.35 1.97768 0.878444 0
M  V30 1503 C 138.945 2.34827 -2.44217 0
M  V30 1504 C 137.504 2.88371 -2.41907 0
M  V30 1505 C 136.651 1.62202 -2.24913 0
M  V30 1506 H 139.602 0.507944 -1.50352 0
M  V30 1507 H 139.623 3.15749 -2.12327 0
M  V30 1508 H 139.135 1.85996 -3.40627 0
M  V30 1509 H 137.236 3.41422 -1.49204 0
M  V30 1510 H 137.349 3.39925 -3.37621 0
M  V30 1511 H 135.713 1.874 -1.72492 0
M  V30 1512 H 136.496 1.15391 -3.23326 0
M  V30 1513 N 138.941 1.26152 0.944643 0
M  V30 1514 C 140.352 1.10454 1.50522 0
M  V30 1515 C 140.703 -0.31635 1.93633 0
M  V30 1516 O 139.828 -1.20746 1.79581 0
M  V30 1517 C 140.423 1.99891 2.73549 0
M  V30 1518 C 138.982 1.88348 3.25886 0
M  V30 1519 C 138.129 1.93447 1.9868 0
M  V30 1520 H 141.08 1.39292 0.760489 0
M  V30 1521 H 141.101 1.54477 3.47732 0
M  V30 1522 H 140.613 3.03297 2.42141 0
M  V30 1523 H 138.714 0.878636 3.62092 0
M  V30 1524 H 138.827 2.73696 3.93227 0
M  V30 1525 H 137.191 1.37456 2.14425 0
M  V30 1526 H 137.974 2.98476 1.69607 0
M  V30 1527 N 140.419 -1.14872 1.07899 0
M  V30 1528 C 141.649 -1.89386 0.825631 0
M  V30 1529 C 142.057 -1.78565 -0.625406 0
M  V30 1530 O 141.4 -1.13918 -1.44113 0
M  V30 1531 C 141.462 -3.40206 1.16191 0
M  V30 1532 C 141.126 -3.74812 2.61467 0
M  V30 1533 C 142.123 -3.75367 3.59716 0
M  V30 1534 C 139.808 -4.0495 2.97189 0
M  V30 1535 C 141.802 -4.05574 4.9172 0
M  V30 1536 C 139.489 -4.34821 4.29388 0
M  V30 1537 C 140.487 -4.35116 5.26463 0
M  V30 1538 O 140.175 -4.64267 6.56286 0
M  V30 1539 H 139.907 -0.606894 0.297751 0
M  V30 1540 H 142.461 -1.46438 1.44031 0
M  V30 1541 H 140.691 -3.8358 0.490214 0
M  V30 1542 H 142.38 -3.96018 0.890193 0
M  V30 1543 H 143.146 -3.52176 3.33462 0
M  V30 1544 H 139.025 -4.03876 2.22273 0
M  V30 1545 H 142.569 -4.05719 5.67484 0
M  V30 1546 H 138.466 -4.5748 4.55392 0
M  V30 1547 H 139.234 -4.82007 6.61522 0
M  V30 1548 N 141.898 -0.863906 -1.31812 0
M  V30 1549 C 142.861 -0.320212 -2.26952 0
M  V30 1550 C 143.861 0.525369 -1.51975 0
M  V30 1551 O 145.051 0.335547 -1.70938 0
M  V30 1552 C 142.183 0.545919 -3.365 0
M  V30 1553 H 143.376 -1.16004 -2.76556 0
M  V30 1554 H 140.929 -0.638995 -1.42641 0
M  V30 1555 H 141.664 1.40718 -2.92179 0
M  V30 1556 H 141.449 -0.0594674 -3.92055 0
M  V30 1557 H 142.939 0.918796 -4.07367 0
M  V30 1558 N 143.376 1.44774 -0.622745 0
M  V30 1559 C 144.601 2.06999 -0.128968 0
M  V30 1560 C 145.026 1.4617 1.1839 0
M  V30 1561 O 144.384 0.560007 1.72434 0
M  V30 1562 C 144.432 3.60595 -0.0188351 0
M  V30 1563 O 143.536 3.99398 1.02739 0
M  V30 1564 H 142.877 0.659047 -0.0809544 0
M  V30 1565 H 145.407 1.85784 -0.85705 0
M  V30 1566 H 145.417 4.07627 0.174476 0
M  V30 1567 H 144.092 4.04252 -0.977384 0
M  V30 1568 H 142.669 3.64011 0.809326 0
M  V30 1569 N 144.854 0.36279 1.53368 0
M  V30 1570 C 145.817 -0.472679 2.24273 0
M  V30 1571 C 146.817 -1.012 1.24961 0
M  V30 1572 O 148.007 -0.898194 1.49259 0
M  V30 1573 C 145.139 -1.66039 2.97731 0
M  V30 1574 H 146.332 0.14773 2.99536 0
M  V30 1575 H 143.885 0.114434 1.55881 0
M  V30 1576 H 144.62 -2.31896 2.26704 0
M  V30 1577 H 144.405 -1.28066 3.70596 0
M  V30 1578 H 145.895 -2.25252 3.51641 0
M  V30 1579 N 146.332 -1.57332 0.0918853 0
M  V30 1580 C 147.264 -2.10869 -0.898168 0
M  V30 1581 C 148.277 -1.04521 -1.24817 0
M  V30 1582 O 149.466 -1.31977 -1.20184 0
M  V30 1583 C 146.566 -2.57083 -2.2082 0
M  V30 1584 C 145.739 -3.87229 -2.03402 0
M  V30 1585 C 144.798 -4.19324 -3.17889 0
M  V30 1586 O 143.824 -4.88598 -2.91994 0
M  V30 1587 N 145.026 -3.74471 -4.43567 0
M  V30 1588 H 147.791 -2.96439 -0.440943 0
M  V30 1589 H 145.352 -1.61631 -0.0933064 0
M  V30 1590 H 147.344 -2.75602 -2.96354 0
M  V30 1591 H 145.914 -1.76541 -2.57977 0
M  V30 1592 H 145.134 -3.7789 -1.12218 0
M  V30 1593 H 146.422 -4.72379 -1.89038 0
M  V30 1594 H 145.82 -3.18546 -4.67488 0
M  V30 1595 H 144.377 -3.98151 -5.16061 0
M  V30 1596 N 147.81 0.181792 -1.56548 0
M  V30 1597 C 149.221 0.745244 -1.71181 0
M  V30 1598 C 149.572 1.83262 -0.70068 0
M  V30 1599 O 148.697 2.15946 0.140154 0
M  V30 1600 C 149.292 1.35859 -3.10367 0
M  V30 1601 C 147.851 1.86898 -3.2672 0
M  V30 1602 C 146.998 0.743942 -2.67134 0
M  V30 1603 H 149.949 -0.0434661 -1.5864 0
M  V30 1604 H 149.97 2.22817 -3.08436 0
M  V30 1605 H 149.482 0.566948 -3.83937 0
M  V30 1606 H 147.583 2.68738 -2.5809 0
M  V30 1607 H 147.696 2.02162 -4.34359 0
M  V30 1608 H 146.06 1.16169 -2.26665 0
M  V30 1609 H 146.843 -0.035676 -3.43281 0
M  V30 1610 N 149.288 1.51039 0.449983 0
M  V30 1611 C 150.704 1.38934 0.785462 0
M  V30 1612 C 150.904 0.461817 1.96136 0
M  V30 1613 O 149.96 -0.0877389 2.52348 0
M  V30 1614 C 151.273 2.80724 1.0777 0
M  V30 1615 C 152.821 2.89787 1.1829 0
M  V30 1616 C 153.296 4.32457 1.50815 0
M  V30 1617 N 154.787 4.35505 1.57764 0
M  V30 1618 C 155.522 5.42914 1.84477 0
M  V30 1619 N 155.018 6.60502 2.09068 0
M  V30 1620 N 156.811 5.3038 1.86155 0
M  V30 1621 H 148.962 2.09904 -0.324647 0
M  V30 1622 H 151.225 0.944378 -0.0827957 0
M  V30 1623 H 150.931 3.50531 0.286498 0
M  V30 1624 H 150.805 3.19273 2.00859 0
M  V30 1625 H 153.192 2.20186 1.96474 0
M  V30 1626 H 153.273 2.54752 0.231314 0
M  V30 1627 H 152.917 5.02603 0.731622 0
M  V30 1628 H 152.847 4.64995 2.47158 0
M  V30 1629 H 155.338 3.50724 1.40715 0
M  V30 1630 H 155.651 7.38158 2.28785 0
M  V30 1631 H 153.996 6.63639 2.06416 0
M  V30 1632 H 157.187 4.37505 1.66454 0
M  V30 1633 H 157.36 6.1417 2.06637 0
M  V30 1634 N 150.766 -0.704594 1.40972 0
M  V30 1635 C 151.698 -1.82974 1.38033 0
M  V30 1636 C 152.711 -1.60305 0.283931 0
M  V30 1637 O 153.9 -1.69975 0.545042 0
M  V30 1638 C 151 -3.19578 1.12795 0
M  V30 1639 C 150.173 -3.69352 2.34302 0
M  V30 1640 C 149.232 -4.84601 2.05058 0
M  V30 1641 O 148.258 -4.96682 2.7802 0
M  V30 1642 N 149.46 -5.71194 1.03528 0
M  V30 1643 H 152.225 -1.85991 2.35005 0
M  V30 1644 H 149.786 -0.886567 1.35468 0
M  V30 1645 H 151.778 -3.9429 0.911987 0
M  V30 1646 H 150.348 -3.11642 0.24452 0
M  V30 1647 H 149.568 -2.85649 2.71659 0
M  V30 1648 H 150.856 -3.99345 3.1528 0
M  V30 1649 H 150.254 -5.64054 0.431217 0
M  V30 1650 H 148.811 -6.45843 0.879205 0
M  V30 1651 N 152.244 -1.26651 -0.937939 0
M  V30 1652 C 153.655 -1.1125 -1.49934 0
M  V30 1653 C 154.006 0.306077 -1.93798 0
M  V30 1654 O 153.131 1.19792 -1.80219 0
M  V30 1655 C 153.726 -2.01339 -2.72485 0
M  V30 1656 C 152.285 -1.90074 -3.24883 0
M  V30 1657 C 151.432 -1.94498 -1.97651 0
M  V30 1658 H 154.383 -1.39693 -0.753091 0
M  V30 1659 H 154.404 -1.56319 -3.46907 0
M  V30 1660 H 153.916 -3.04577 -2.40529 0
M  V30 1661 H 152.017 -0.897827 -3.61621 0
M  V30 1662 H 152.13 -2.75778 -3.9177 0
M  V30 1663 H 150.494 -1.38591 -2.13693 0
M  V30 1664 H 151.277 -2.99372 -1.68022 0
M  V30 1665 N 153.722 1.14298 -1.08507 0
M  V30 1666 C 154.968 1.85633 -0.816581 0
M  V30 1667 C 155.301 1.82784 0.656021 0
M  V30 1668 O 154.576 1.25926 1.48233 0
M  V30 1669 C 154.859 3.34223 -1.34041 0
M  V30 1670 C 154.712 3.45639 -2.87843 0
M  V30 1671 C 156.031 4.29356 -0.9665 0
M  V30 1672 H 153.15 0.67402 -0.298104 0
M  V30 1673 H 155.792 1.34214 -1.34487 0
M  V30 1674 H 153.942 3.78144 -0.89104 0
M  V30 1675 H 155.614 3.10498 -3.41158 0
M  V30 1676 H 153.857 2.86817 -3.25451 0
M  V30 1677 H 154.528 4.50089 -3.19569 0
M  V30 1678 H 157.004 3.93457 -1.35391 0
M  V30 1679 H 155.88 5.3178 -1.3602 0
M  V30 1680 H 156.141 4.41919 0.126362 0
M  V30 1681 N 155.201 0.870884 1.31352 0
M  V30 1682 C 156.133 0.28455 2.27427 0
M  V30 1683 C 157.146 -0.552927 1.53123 0
M  V30 1684 O 158.335 -0.374771 1.74521 0
M  V30 1685 C 155.435 -0.615164 3.3327 0
M  V30 1686 C 154.608 0.190079 4.36987 0
M  V30 1687 C 153.667 -0.637917 5.22319 0
M  V30 1688 O 152.693 -0.065626 5.69162 0
M  V30 1689 N 153.895 -1.94973 5.46778 0
M  V30 1690 H 156.66 1.11017 2.7838 0
M  V30 1691 H 154.221 0.732458 1.44384 0
M  V30 1692 H 156.213 -1.1748 3.87273 0
M  V30 1693 H 154.783 -1.34146 2.82354 0
M  V30 1694 H 154.003 0.931165 3.83044 0
M  V30 1695 H 155.291 0.742579 5.03352 0
M  V30 1696 H 154.689 -2.4378 5.10478 0
M  V30 1697 H 153.246 -2.45713 6.03712 0
M  V30 1698 N 156.679 -1.44442 0.630414 0
M  V30 1699 C 157.611 -2.2892 -0.113347 0
M  V30 1700 C 158.624 -1.41243 -0.80959 0
M  V30 1701 O 159.813 -1.65402 -0.671156 0
M  V30 1702 C 156.913 -3.17594 -1.18266 0
M  V30 1703 C 156.086 -4.33682 -0.569073 0
M  V30 1704 C 155.145 -5.03397 -1.53226 0
M  V30 1705 O 154.171 -5.59438 -1.04967 0
M  V30 1706 N 155.373 -5.04783 -2.86661 0
M  V30 1707 H 158.138 -2.93392 0.611636 0
M  V30 1708 H 155.699 -1.54881 0.471523 0
M  V30 1709 H 157.691 -3.61097 -1.82732 0
M  V30 1710 H 156.261 -2.54876 -1.80988 0
M  V30 1711 H 155.481 -3.9338 0.254187 0
M  V30 1712 H 156.769 -5.08608 -0.139767 0
M  V30 1713 H 156.167 -4.60584 -3.28449 0
M  V30 1714 H 154.724 -5.52077 -3.46489 0
M  V30 1715 N 158.157 -0.370918 -1.53173 0
M  V30 1716 C 159.568 0.107139 -1.86392 0
M  V30 1717 C 159.919 1.47714 -1.29132 0
M  V30 1718 O 159.044 2.07464 -0.615439 0
M  V30 1719 C 159.639 0.201187 -3.38202 0
M  V30 1720 C 158.198 0.623507 -3.712 0
M  V30 1721 C 157.345 -0.225978 -2.76378 0
M  V30 1722 H 160.296 -0.58951 -1.47345 0
M  V30 1723 H 160.317 1.02377 -3.66468 0
M  V30 1724 H 159.829 -0.796058 -3.79848 0
M  V30 1725 H 157.93 1.62879 -3.35114 0
M  V30 1726 H 158.043 0.394414 -4.77474 0
M  V30 1727 H 156.407 0.305962 -2.52856 0
M  V30 1728 H 157.19 -1.22086 -3.20858 0
M  V30 1729 N 159.635 1.57281 -0.100228 0
M  V30 1730 C 161.046 1.81725 0.428107 0
M  V30 1731 C 161.397 1.01619 1.67833 0
M  V30 1732 O 160.522 0.247098 2.14985 0
M  V30 1733 C 161.117 3.29617 0.78347 0
M  V30 1734 C 159.676 3.54808 1.25653 0
M  V30 1735 C 158.823 2.76118 0.255752 0
M  V30 1736 H 161.774 1.55324 -0.325608 0
M  V30 1737 H 161.795 3.4322 1.64256 0
M  V30 1738 H 161.307 3.87893 -0.12665 0
M  V30 1739 H 159.408 3.01868 2.18418 0
M  V30 1740 H 159.521 4.63443 1.21482 0
M  V30 1741 H 157.885 2.43745 0.738956 0
M  V30 1742 H 158.668 3.37145 -0.647136 0
M  V30 1743 N 161.113 -0.173488 1.56642 0
M  V30 1744 C 162.023 -1.23482 1.99473 0
M  V30 1745 C 163.039 -1.48567 0.905752 0
M  V30 1746 O 164.215 -1.60758 1.21321 0
M  V30 1747 C 161.28 -2.55444 2.34413 0
M  V30 1748 C 160.341 -2.38241 3.57127 0
M  V30 1749 C 159.574 -3.63909 3.90392 0
M  V30 1750 O 159.797 -4.68996 3.24653 0
M  V30 1751 O 158.731 -3.58149 4.83749 0
M  V30 1752 H 162.557 -0.901279 2.90018 0
M  V30 1753 H 160.142 -0.380185 1.44482 0
M  V30 1754 H 162.024 -3.33292 2.57865 0
M  V30 1755 H 160.699 -2.88382 1.4703 0
M  V30 1756 H 159.606 -1.58431 3.38896 0
M  V30 1757 H 160.939 -2.10228 4.45045 0
M  V30 1758 N 162.591 -1.51276 -0.441967 0
M  V30 1759 C 163.554 -1.7167 -1.51862 0
M  V30 1760 C 164.554 -0.586793 -1.49711 0
M  V30 1761 O 165.744 -0.854276 -1.51815 0
M  V30 1762 C 162.876 -1.76889 -2.91416 0
M  V30 1763 H 164.069 -2.67754 -1.35084 0
M  V30 1764 H 161.622 -1.41196 -0.670333 0
M  V30 1765 H 162.357 -0.826026 -3.13604 0
M  V30 1766 H 162.142 -2.59001 -2.94382 0
M  V30 1767 H 163.632 -1.94522 -3.69528 0
M  V30 1768 N 164.069 0.697108 -1.41344 0
M  V30 1769 C 165.001 1.8224 -1.39001 0
M  V30 1770 C 166.014 1.60152 -0.292428 0
M  V30 1771 O 167.203 1.69684 -0.554048 0
M  V30 1772 C 164.303 3.18976 -1.14489 0
M  V30 1773 C 163.476 3.68105 -2.36258 0
M  V30 1774 C 162.535 4.83506 -2.07625 0
M  V30 1775 O 161.561 4.95201 -2.8065 0
M  V30 1776 N 162.763 5.70637 -1.06555 0
M  V30 1777 H 165.528 1.84742 -2.35988 0
M  V30 1778 H 163.089 0.87937 -1.35936 0
M  V30 1779 H 165.081 3.93801 -0.932885 0
M  V30 1780 H 163.651 3.11508 -0.261043 0
M  V30 1781 H 162.871 2.84204 -2.7317 0
M  V30 1782 H 164.159 3.97667 -3.17393 0
M  V30 1783 H 163.557 5.63817 -0.461125 0
M  V30 1784 H 162.114 6.45368 -0.913444 0
M  V30 1785 N 165.547 1.27147 0.931209 0
M  V30 1786 C 166.793 1.13446 1.68101 0
M  V30 1787 C 167.126 -0.319628 1.91552 0
M  V30 1788 O 166.401 -1.23407 1.50336 0
M  V30 1789 C 166.684 1.91482 3.0497 0
M  V30 1790 C 166.537 3.44855 2.88782 0
M  V30 1791 C 167.856 1.71651 4.05246 0
M  V30 1792 H 164.975 0.413498 0.610072 0
M  V30 1793 H 167.617 1.56261 1.08086 0
M  V30 1794 H 165.767 1.55095 3.56199 0
M  V30 1795 H 167.439 3.9105 2.44698 0
M  V30 1796 H 165.682 3.71373 2.24198 0
M  V30 1797 H 166.353 3.94694 3.85902 0
M  V30 1798 H 168.829 2.0337 3.63015 0
M  V30 1799 H 167.705 2.28651 4.99009 0
M  V30 1800 H 167.966 0.663555 4.37092 0
M  V30 1801 N 167.025 -1.13721 1.09112 0
M  V30 1802 C 168.436 -1.6648 0.845068 0
M  V30 1803 C 168.787 -1.85911 -0.62701 0
M  V30 1804 O 167.912 -1.57556 -1.48341 0
M  V30 1805 C 168.507 -3.02413 1.52748 0
M  V30 1806 C 167.066 -3.52176 1.32849 0
M  V30 1807 C 166.213 -2.27492 1.58564 0
M  V30 1808 H 169.164 -0.976872 1.25072 0
M  V30 1809 H 169.185 -3.68223 0.958752 0
M  V30 1810 H 168.697 -2.88238 2.59885 0
M  V30 1811 H 166.798 -3.7156 0.278137 0
M  V30 1812 H 166.911 -4.32499 2.0611 0
M  V30 1813 H 165.275 -2.33923 1.00758 0
M  V30 1814 H 166.058 -2.15886 2.66924 0
M  V30 1815 N 168.503 -0.877838 -1.30888 0
M  V30 1816 C 169.914 -0.544193 -1.78593 0
M  V30 1817 C 170.265 0.939301 -1.72254 0
M  V30 1818 O 169.39 1.7337 -1.29505 0
M  V30 1819 C 169.985 -0.98105 -3.24285 0
M  V30 1820 C 168.544 -0.698935 -3.69854 0
M  V30 1821 C 167.691 -1.168 -2.51502 0
M  V30 1822 H 170.642 -1.06278 -1.17859 0
M  V30 1823 H 170.663 -0.307009 -3.79259 0
M  V30 1824 H 170.175 -2.06079 -3.28866 0
M  V30 1825 H 168.276 0.369112 -3.70767 0
M  V30 1826 H 168.389 -1.28148 -4.61644 0
M  V30 1827 H 166.753 -0.587535 -2.47831 0
M  V30 1828 H 167.536 -2.25533 -2.58824 0
M  V30 1829 N 169.982 1.44106 -0.638065 0
M  V30 1830 C 170.914 2.28976 0.101205 0
M  V30 1831 C 171.927 1.4167 0.802088 0
M  V30 1832 O 173.116 1.65755 0.662375 0
M  V30 1833 C 170.216 3.18217 1.16581 0
M  V30 1834 C 169.389 4.33978 0.546066 0
M  V30 1835 C 168.448 5.04202 1.50554 0
M  V30 1836 O 167.474 5.59986 1.01999 0
M  V30 1837 N 168.676 5.06296 2.8398 0
M  V30 1838 H 171.441 2.93064 -0.627186 0
M  V30 1839 H 169.002 1.54629 -0.479731 0
M  V30 1840 H 170.994 3.62061 1.80815 0
M  V30 1841 H 169.564 2.55833 1.79634 0
M  V30 1842 H 168.784 3.93239 -0.275046 0
M  V30 1843 H 170.072 5.08675 0.112793 0
M  V30 1844 H 169.47 4.62319 3.26002 0
M  V30 1845 H 168.027 5.53907 3.43556 0
M  V30 1846 N 171.46 0.379036 1.52974 0
M  V30 1847 C 172.41 -0.477772 2.22938 0
M  V30 1848 C 173.394 -1.03792 1.22948 0
M  V30 1849 O 174.586 -0.965725 1.48333 0
M  V30 1850 C 171.715 -1.60994 3.03209 0
M  V30 1851 C 170.801 -1.06203 4.10587 0
M  V30 1852 N 171.192 -0.238214 5.05239 0
M  V30 1853 C 169.49 -1.33554 4.25534 0
M  V30 1854 C 170.191 0.0633235 5.81666 0
M  V30 1855 N 169.167 -0.537901 5.40932 0
M  V30 1856 H 172.969 0.158295 2.93473 0
M  V30 1857 H 170.483 0.187778 1.61311 0
M  V30 1858 H 172.48 -2.23607 3.5186 0
M  V30 1859 H 171.14 -2.24893 2.34207 0
M  V30 1860 H 172.151 0.123695 5.17752 0
M  V30 1861 H 168.828 -1.97632 3.6776 0
M  V30 1862 H 170.218 0.730161 6.67921 0
M  V30 1863 N 172.938 -1.57226 0.108567 0
M  V30 1864 C 173.901 -2.13602 -0.831082 0
M  V30 1865 C 174.901 -1.06841 -1.20173 0
M  V30 1866 O 176.091 -1.32666 -1.12895 0
M  V30 1867 C 173.223 -2.66769 -2.12243 0
M  V30 1868 H 174.416 -2.97951 -0.341317 0
M  V30 1869 H 171.969 -1.55667 -0.14057 0
M  V30 1870 H 172.704 -1.85977 -2.65675 0
M  V30 1871 H 172.489 -3.44839 -1.86625 0
M  V30 1872 H 173.979 -3.10332 -2.79435 0
M  V30 1873 N 174.416 0.165178 -1.56732 0
M  V30 1874 C 175.827 0.727046 -1.71962 0
M  V30 1875 C 176.178 1.82508 -0.720078 0
M  V30 1876 O 175.303 2.16082 0.117242 0
M  V30 1877 C 175.898 1.32559 -3.11791 0
M  V30 1878 C 174.457 1.83422 -3.28684 0
M  V30 1879 C 173.604 0.715567 -2.67908 0
M  V30 1880 H 176.555 -0.0602896 -1.58585 0
M  V30 1881 H 176.576 2.19533 -3.10782 0
M  V30 1882 H 176.088 0.526195 -3.84516 0
M  V30 1883 H 174.189 2.65986 -2.60926 0
M  V30 1884 H 174.302 1.97543 -4.36478 0
M  V30 1885 H 172.666 1.13758 -2.27884 0
M  V30 1886 H 173.449 -0.0720836 -3.43224 0
M  V30 1887 N 175.894 1.51508 0.433938 0
M  V30 1888 C 176.844 1.69451 1.52546 0
M  V30 1889 C 177.828 0.548474 1.51263 0
M  V30 1890 O 179.02 0.804529 1.57659 0
M  V30 1891 C 176.149 1.82604 2.90707 0
M  V30 1892 C 175.235 3.03002 2.96733 0
M  V30 1893 N 175.626 4.26121 2.72496 0
M  V30 1894 C 173.924 3.02327 3.27894 0
M  V30 1895 C 174.625 5.07407 2.84452 0
M  V30 1896 N 173.601 4.42126 3.16269 0
M  V30 1897 H 177.403 2.62305 1.32564 0
M  V30 1898 H 174.917 1.49202 0.641297 0
M  V30 1899 H 176.914 1.93569 3.69238 0
M  V30 1900 H 175.574 0.909339 3.11707 0
M  V30 1901 H 176.585 4.55009 2.4736 0
M  V30 1902 H 173.262 2.20301 3.54646 0
M  V30 1903 H 174.652 6.15422 2.69639 0
M  V30 1904 N 177.372 -0.689602 1.41712 0
M  V30 1905 C 178.783 -1.26973 1.36875 0
M  V30 1906 C 179.134 -1.96124 0.054748 0
M  V30 1907 O 178.259 -1.99141 -0.84687 0
M  V30 1908 C 178.854 -2.30912 2.47922 0
M  V30 1909 C 177.413 -2.84486 2.46464 0
M  V30 1910 C 176.56 -1.58603 2.27465 0
M  V30 1911 H 179.511 -0.48396 1.51141 0
M  V30 1912 H 179.532 -3.12331 2.17323 0
M  V30 1913 H 179.044 -1.80554 3.43543 0
M  V30 1914 H 177.145 -3.39005 1.54617 0
M  V30 1915 H 177.258 -3.34511 3.42986 0
M  V30 1916 H 175.622 -1.84632 1.75451 0
M  V30 1917 H 176.405 -1.10233 3.25121 0
M  V30 1918 N 178.85 -1.27639 -0.924453 0
M  V30 1919 C 179.813 -1.10681 -2.00705 0
M  V30 1920 C 180.813 -0.0497823 -1.60723 0
M  V30 1921 O 182.003 -0.294654 -1.7169 0
M  V30 1922 C 179.135 -0.687164 -3.33902 0
M  V30 1923 H 180.328 -2.06817 -2.17179 0
M  V30 1924 H 177.881 -1.10473 -1.10569 0
M  V30 1925 H 178.616 0.275439 -3.23128 0
M  V30 1926 H 178.401 -1.45061 -3.6428 0
M  V30 1927 H 179.891 -0.590853 -4.13399 0
M  V30 1928 N 180.328 1.1314 -1.09713 0
M  V30 1929 C 181.26 2.18343 -0.697056 0
M  V30 1930 C 182.273 1.60669 0.262551 0
M  V30 1931 O 183.462 1.78435 0.0481527 0
M  V30 1932 C 180.562 3.38899 -0.00684728 0
M  V30 1933 C 179.735 4.26078 -0.988741 0
M  V30 1934 C 178.794 5.25155 -0.331394 0
M  V30 1935 O 177.82 5.60701 -0.979926 0
M  V30 1936 N 179.022 5.73271 0.913261 0
M  V30 1937 H 181.787 2.5328 -1.60216 0
M  V30 1938 H 179.348 1.28491 -0.984971 0
M  V30 1939 H 181.34 4.02255 0.444191 0
M  V30 1940 H 179.91 3.02175 0.800551 0
M  V30 1941 H 179.13 3.59453 -1.61826 0
M  V30 1942 H 180.418 4.81178 -1.65364 0
M  V30 1943 H 179.816 5.46544 1.45966 0
M  V30 1944 H 178.373 6.3855 1.30757 0
M  V30 1945 N 181.806 0.884767 1.30421 0
M  V30 1946 C 183.217 0.553656 1.78302 0
M  V30 1947 C 183.568 -0.930153 1.7275 0
M  V30 1948 O 182.693 -1.72681 1.30423 0
M  V30 1949 C 183.288 0.998234 3.2376 0
M  V30 1950 C 181.847 0.71854 3.69478 0
M  V30 1951 C 180.994 1.18132 2.50879 0
M  V30 1952 H 183.945 1.06901 1.17294 0
M  V30 1953 H 183.966 0.327118 3.79091 0
M  V30 1954 H 183.478 2.0782 3.27769 0
M  V30 1955 H 181.579 -0.349444 3.70958 0
M  V30 1956 H 181.692 1.30595 4.60958 0
M  V30 1957 H 180.056 0.600669 2.47516 0
M  V30 1958 H 180.839 2.26902 2.57624 0
M  V30 1959 N 183.284 -1.43765 0.645699 0
M  V30 1960 C 184.53 -2.02197 0.156271 0
M  V30 1961 C 184.863 -1.50776 -1.22393 0
M  V30 1962 O 184.138 -0.697771 -1.81553 0
M  V30 1963 C 184.421 -3.59749 0.158872 0
M  V30 1964 C 184.274 -4.21419 1.57245 0
M  V30 1965 C 185.593 -4.37149 -0.50879 0
M  V30 1966 H 182.712 -0.734694 0.0582602 0
M  V30 1967 H 185.354 -1.71157 0.824951 0
M  V30 1968 H 183.504 -3.86325 -0.410525 0
M  V30 1969 H 185.176 -4.059 2.19186 0
M  V30 1970 H 183.419 -3.78356 2.122 0
M  V30 1971 H 184.09 -5.30482 1.52619 0
M  V30 1972 H 186.566 -4.16093 -0.024412 0
M  V30 1973 H 185.442 -5.4683 -0.476213 0
M  V30 1974 H 185.703 -4.12839 -1.58165 0
M  V30 1975 N 184.763 -0.387143 -1.52771 0
M  V30 1976 C 185.695 0.484089 -2.2403 0
M  V30 1977 C 186.708 1.02849 -1.26198 0
M  V30 1978 O 187.897 0.931186 -1.52286 0
M  V30 1979 C 184.997 1.68337 -2.94136 0
M  V30 1980 C 184.17 1.26672 -4.18656 0
M  V30 1981 C 183.229 2.33045 -4.7178 0
M  V30 1982 O 182.255 1.94541 -5.34923 0
M  V30 1983 N 183.457 3.64929 -4.5145 0
M  V30 1984 H 186.222 -0.126404 -2.99433 0
M  V30 1985 H 183.783 -0.213392 -1.60488 0
M  V30 1986 H 185.775 2.39019 -3.26577 0
M  V30 1987 H 184.345 2.20025 -2.22053 0
M  V30 1988 H 183.565 0.388878 -3.92277 0
M  V30 1989 H 184.853 0.964964 -4.99566 0
M  V30 1990 H 184.251 3.98974 -4.01044 0
M  V30 1991 H 182.808 4.31651 -4.88386 0
M  V30 1992 N 186.241 1.57166 -0.116904 0
M  V30 1993 C 187.173 2.12271 0.864507 0
M  V30 1994 C 188.186 1.06494 1.23138 0
M  V30 1995 O 189.375 1.33873 1.18069 0
M  V30 1996 C 186.475 2.60564 2.16702 0
M  V30 1997 C 185.648 3.90416 1.97216 0
M  V30 1998 C 184.707 4.24329 3.11178 0
M  V30 1999 O 183.733 4.93182 2.84184 0
M  V30 2000 N 184.935 3.8148 4.37554 0
M  V30 2001 H 187.7 2.97102 0.393726 0
M  V30 2002 H 185.261 1.61759 0.0675805 0
M  V30 2003 H 187.253 2.80282 2.91932 0
M  V30 2004 H 185.823 1.80623 2.55135 0
M  V30 2005 H 185.043 3.79627 1.06192 0
M  V30 2006 H 186.331 4.75327 1.81499 0
M  V30 2007 H 185.729 3.25943 4.62361 0
M  V30 2008 H 184.286 4.06311 5.09661 0
M  V30 2009 N 187.719 -0.156864 1.56817 0
M  V30 2010 C 189.13 -0.717916 1.72345 0
M  V30 2011 C 189.481 -1.82124 0.729747 0
M  V30 2012 O 188.606 -2.16141 -0.105781 0
M  V30 2013 C 189.201 -1.30904 3.12489 0
M  V30 2014 C 187.76 -1.81676 3.29653 0
M  V30 2015 C 186.907 -0.701349 2.68284 0
M  V30 2016 H 189.858 0.0686989 1.58551 0
M  V30 2017 H 189.879 -2.17882 3.11942 0
M  V30 2018 H 189.391 -0.505796 3.8479 0
M  V30 2019 H 187.492 -2.64598 2.62333 0
M  V30 2020 H 187.605 -1.95226 4.3752 0
M  V30 2021 H 185.969 -1.12548 2.28484 0
M  V30 2022 H 186.752 0.0902846 3.43181 0
M  V30 2023 N 189.197 -1.51736 -0.425897 0
M  V30 2024 C 190.16 -1.73271 -1.50032 0
M  V30 2025 C 191.16 -0.602639 -1.4908 0
M  V30 2026 O 192.35 -0.87033 -1.509 0
M  V30 2027 C 189.482 -1.79969 -2.89523 0
M  V30 2028 H 190.675 -2.69172 -1.32237 0
M  V30 2029 H 188.228 -1.41899 -0.65532 0
M  V30 2030 H 188.963 -0.859241 -3.1271 0
M  V30 2031 H 188.748 -2.62109 -2.91619 0
M  V30 2032 H 190.238 -1.9843 -3.67444 0
M  V30 2033 N 190.675 0.682077 -1.42076 0
M  V30 2034 C 191.905 1.46844 -1.45329 0
M  V30 2035 C 192.313 1.89102 -0.0609328 0
M  V30 2036 O 191.656 1.58238 0.933082 0
M  V30 2037 C 191.718 2.75375 -2.31104 0
M  V30 2038 C 191.382 2.55238 -3.79081 0
M  V30 2039 C 192.379 2.20309 -4.70914 0
M  V30 2040 C 190.064 2.70459 -4.2327 0
M  V30 2041 C 192.058 2.00859 -6.04925 0
M  V30 2042 C 189.745 2.50624 -5.57343 0
M  V30 2043 C 190.743 2.15876 -6.47986 0
M  V30 2044 O 190.431 1.96227 -7.79583 0
M  V30 2045 H 190.163 0.4586 -0.496651 0
M  V30 2046 H 192.717 0.846131 -1.87162 0
M  V30 2047 H 190.947 3.40061 -1.84107 0
M  V30 2048 H 192.636 3.37231 -2.25898 0
M  V30 2049 H 193.402 2.08153 -4.38061 0
M  V30 2050 H 189.281 2.96485 -3.53012 0
M  V30 2051 H 192.825 1.7366 -6.75639 0
M  V30 2052 H 188.722 2.62375 -5.89771 0
M  V30 2053 H 189.49 2.10883 -7.90867 0
M  V30 2054 N 192.153 1.28127 0.917671 0
M  V30 2055 C 193.085 1.07517 2.02417 0
M  V30 2056 C 194.098 0.0281099 1.62776 0
M  V30 2057 O 195.287 0.270748 1.76435 0
M  V30 2058 C 192.387 0.610957 3.33347 0
M  V30 2059 C 191.56 1.73255 4.01624 0
M  V30 2060 C 190.619 1.26238 5.10833 0
M  V30 2061 O 189.645 1.96389 5.34247 0
M  V30 2062 N 190.847 0.123448 5.80369 0
M  V30 2063 H 193.612 2.02806 2.20658 0
M  V30 2064 H 191.173 1.19827 1.08871 0
M  V30 2065 H 193.165 0.280101 4.0373 0
M  V30 2066 H 191.735 -0.24898 3.11607 0
M  V30 2067 H 190.955 2.23319 3.24842 0
M  V30 2068 H 192.243 2.48503 4.43986 0
M  V30 2069 H 191.641 -0.461847 5.63812 0
M  V30 2070 H 190.198 -0.148158 6.51632 0
M  V30 2071 N 193.631 -1.12557 1.10312 0
M  V30 2072 C 195.042 -1.65574 0.862678 0
M  V30 2073 C 195.393 -1.86566 -0.607256 0
M  V30 2074 O 194.518 -1.59121 -1.46662 0
M  V30 2075 C 195.113 -3.00776 1.55947 0
M  V30 2076 C 193.672 -3.50748 1.36576 0
M  V30 2077 C 192.819 -2.25797 1.60968 0
M  V30 2078 H 195.77 -0.963552 1.26101 0
M  V30 2079 H 195.791 -3.67185 0.997753 0
M  V30 2080 H 195.303 -2.85465 2.62928 0
M  V30 2081 H 193.404 -3.71245 0.317531 0
M  V30 2082 H 193.517 -4.30289 2.10686 0
M  V30 2083 H 191.881 -2.32841 1.03234 0
M  V30 2084 H 192.664 -2.13043 2.69198 0
M  V30 2085 N 195.109 -0.891671 -1.2995 0
M  V30 2086 C 196.041 -0.320695 -2.26945 0
M  V30 2087 C 197.054 0.528497 -1.53983 0
M  V30 2088 O 198.243 0.346959 -1.75096 0
M  V30 2089 C 195.343 0.562066 -3.34207 0
M  V30 2090 C 194.516 -0.259576 -4.36629 0
M  V30 2091 C 193.575 0.554739 -5.23268 0
M  V30 2092 O 192.601 -0.0249311 -5.69195 0
M  V30 2093 N 193.803 1.8625 -5.4981 0
M  V30 2094 H 196.568 -1.15432 -2.76578 0
M  V30 2095 H 194.129 -0.755336 -1.432 0
M  V30 2096 H 196.121 1.11304 -3.89093 0
M  V30 2097 H 194.691 1.29637 -2.84452 0
M  V30 2098 H 193.911 -0.991986 -3.81514 0
M  V30 2099 H 195.199 -0.822564 -5.02107 0
M  V30 2100 H 194.597 2.35628 -5.14292 0
M  V30 2101 H 193.154 2.36078 -6.07545 0
M  V30 2102 N 196.587 1.43421 -0.653314 0
M  V30 2103 C 197.998 1.85065 -0.246537 0
M  V30 2104 C 198.349 1.54688 1.2069 0
M  V30 2105 O 197.474 0.995896 1.92122 0
M  V30 2106 C 198.069 3.35922 -0.440666 0
M  V30 2107 C 196.628 3.76297 -0.0882064 0
M  V30 2108 C 195.775 2.67147 -0.743484 0
M  V30 2109 H 198.726 1.33572 -0.856979 0
M  V30 2110 H 198.747 3.79204 0.313798 0
M  V30 2111 H 198.259 3.58 -1.49858 0
M  V30 2112 H 196.36 3.5983 0.96711 0
M  V30 2113 H 196.473 4.76338 -0.513738 0
M  V30 2114 H 194.837 2.54086 -0.176712 0
M  V30 2115 H 195.62 2.92053 -1.80443 0
M  V30 2116 N 198.065 0.39524 1.52563 0
M  V30 2117 C 198.975 -0.444232 2.30356 0
M  V30 2118 C 199.991 -1.06615 1.37511 0
M  V30 2119 O 201.167 -1.07067 1.70583 0
M  V30 2120 C 198.232 -1.55315 3.09964 0
M  V30 2121 C 197.293 -0.955734 4.18526 0
M  V30 2122 C 196.526 -2.01181 4.9433 0
M  V30 2123 O 196.749 -3.22781 4.70285 0
M  V30 2124 O 195.683 -1.62579 5.79527 0
M  V30 2125 H 199.509 0.189667 3.03107 0
M  V30 2126 H 197.094 0.1588 1.48554 0
M  V30 2127 H 198.976 -2.19724 3.59582 0
M  V30 2128 H 197.651 -2.17191 2.4002 0
M  V30 2129 H 196.558 -0.274743 3.7309 0
M  V30 2130 H 197.891 -0.381109 4.90722 0
M  V30 2131 N 199.544 -1.57102 0.125237 0
M  V30 2132 C 200.476 -2.12726 -0.853237 0
M  V30 2133 C 201.489 -1.07145 -1.22571 0
M  V30 2134 O 202.678 -1.34497 -1.17358 0
M  V30 2135 C 199.778 -2.61709 -2.15317 0
M  V30 2136 C 198.951 -3.91456 -1.95143 0
M  V30 2137 C 198.01 -4.25973 -3.08923 0
M  V30 2138 O 197.036 -4.94682 -2.81564 0
M  V30 2139 N 198.238 -3.83795 -4.35524 0
M  V30 2140 H 201.003 -2.97307 -0.377964 0
M  V30 2141 H 198.564 -1.61792 -0.0590011 0
M  V30 2142 H 200.556 -2.81826 -2.90441 0
M  V30 2143 H 199.126 -1.81974 -2.54174 0
M  V30 2144 H 198.346 -3.80185 -1.04177 0
M  V30 2145 H 199.634 -4.76283 -1.78976 0
M  V30 2146 H 199.032 -3.2839 -4.60626 0
M  V30 2147 H 197.589 -4.09008 -5.07499 0
M  V30 2148 N 201.022 0.148545 -1.56898 0
M  V30 2149 C 202.433 0.708766 -1.72723 0
M  V30 2150 C 202.784 1.81734 -0.739395 0
M  V30 2151 O 201.909 2.16194 0.0943169 0
M  V30 2152 C 202.504 1.29245 -3.13179 0
M  V30 2153 C 201.063 1.79925 -3.30611 0
M  V30 2154 C 200.21 0.687111 -2.68652 0
M  V30 2155 H 203.161 -0.0771063 -1.58513 0
M  V30 2156 H 203.182 2.16224 -3.13093 0
M  V30 2157 H 202.694 0.485382 -3.85053 0
M  V30 2158 H 200.795 2.63203 -2.63732 0
M  V30 2159 H 200.908 1.92903 -4.38549 0
M  V30 2160 H 199.272 1.11335 -2.29078 0
M  V30 2161 H 200.055 -0.108483 -3.43129 0
M  V30 2162 N 202.5 1.5196 0.417844 0
M  V30 2163 C 203.43 1.77634 1.51554 0
M  V30 2164 C 204.411 0.626918 1.58126 0
M  V30 2165 O 205.596 0.871632 1.7354 0
M  V30 2166 C 202.726 1.91911 2.8946 0
M  V30 2167 C 201.68 3.07463 2.97743 0
M  V30 2168 C 201.006 3.06951 4.37819 0
M  V30 2169 C 202.306 4.47082 2.70027 0
M  V30 2170 H 204 2.6955 1.3032 0
M  V30 2171 H 201.546 1.29706 0.625492 0
M  V30 2172 H 203.499 2.08455 3.6623 0
M  V30 2173 H 202.223 0.966598 3.11969 0
M  V30 2174 H 200.882 2.90656 2.23416 0
M  V30 2175 H 200.53 2.09438 4.57323 0
M  V30 2176 H 200.23 3.84556 4.44286 0
M  V30 2177 H 201.754 3.25613 5.16535 0
M  V30 2178 H 203.168 4.6414 3.36522 0
M  V30 2179 H 201.565 5.2654 2.87881 0
M  V30 2180 H 202.635 4.55777 1.65514 0
M  V30 2181 N 203.978 -0.674533 1.42435 0
M  V30 2182 C 204.91 -1.80005 1.41883 0
M  V30 2183 C 205.923 -1.59667 0.31787 0
M  V30 2184 O 207.112 -1.68781 0.580973 0
M  V30 2185 C 204.212 -3.17114 1.19549 0
M  V30 2186 C 203.385 -3.64299 2.42084 0
M  V30 2187 C 202.444 -4.80142 2.15291 0
M  V30 2188 O 201.47 -4.90673 2.88493 0
M  V30 2189 N 202.672 -5.68869 1.1562 0
M  V30 2190 H 205.437 -1.80964 2.38898 0
M  V30 2191 H 202.998 -0.857633 1.37318 0
M  V30 2192 H 204.99 -3.92267 0.995417 0
M  V30 2193 H 203.56 -3.11053 0.310569 0
M  V30 2194 H 202.78 -2.79822 2.77657 0
M  V30 2195 H 204.068 -3.92567 3.23679 0
M  V30 2196 H 203.466 -5.63012 0.550765 0
M  V30 2197 H 202.023 -6.43833 1.016 0
M  V30 2198 N 205.456 -1.28612 -0.910864 0
M  V30 2199 C 206.388 -1.08589 -2.01844 0
M  V30 2200 C 207.401 -0.0367419 -1.62759 0
M  V30 2201 O 208.59 -0.280101 -1.76289 0
M  V30 2202 C 205.69 -0.628626 -3.33019 0
M  V30 2203 C 204.863 -1.75382 -4.00699 0
M  V30 2204 C 203.922 -1.28945 -5.10156 0
M  V30 2205 O 202.948 -1.9922 -5.33198 0
M  V30 2206 N 204.15 -0.154224 -5.80295 0
M  V30 2207 H 206.915 -2.03973 -2.19579 0
M  V30 2208 H 204.476 -1.20403 -1.08234 0
M  V30 2209 H 206.468 -0.301508 -4.03575 0
M  V30 2210 H 205.038 0.232451 -3.11735 0
M  V30 2211 H 204.258 -2.25039 -3.23653 0
M  V30 2212 H 205.546 -2.50854 -4.42662 0
M  V30 2213 H 204.944 0.43194 -5.64049 0
M  V30 2214 H 203.501 0.113599 -6.51701 0
M  V30 2215 N 206.934 1.1197 -1.10907 0
M  V30 2216 C 208.345 1.65114 -0.871446 0
M  V30 2217 C 208.696 1.86885 0.597353 0
M  V30 2218 O 207.821 1.59896 1.45816 0
M  V30 2219 C 208.416 2.99944 -1.5754 0
M  V30 2220 C 206.975 3.50018 -1.38435 0
M  V30 2221 C 206.122 2.24941 -1.62164 0
M  V30 2222 H 209.073 0.956851 -1.2661 0
M  V30 2223 H 209.094 3.66651 -1.01721 0
M  V30 2224 H 208.606 2.84067 -2.64438 0
M  V30 2225 H 206.707 3.71071 -0.337214 0
M  V30 2226 H 206.82 4.29165 -2.12965 0
M  V30 2227 H 205.184 2.3229 -1.04467 0
M  V30 2228 H 205.967 2.11612 -2.70324 0
M  V30 2229 N 208.412 0.89855 1.29475 0
M  V30 2230 C 209.658 0.524658 1.95896 0
M  V30 2231 C 209.991 -0.926468 1.70676 0
M  V30 2232 O 209.266 -1.65665 1.01908 0
M  V30 2233 C 209.549 0.81633 3.50725 0
M  V30 2234 C 209.402 2.31907 3.85408 0
M  V30 2235 C 210.721 0.302038 4.39062 0
M  V30 2236 H 207.84 0.19209 0.711527 0
M  V30 2237 H 210.482 1.12502 1.53112 0
M  V30 2238 H 208.632 0.305369 3.87298 0
M  V30 2239 H 210.304 2.89949 3.58786 0
M  V30 2240 H 208.547 2.78027 3.32992 0
M  V30 2241 H 209.218 2.47373 4.93468 0
M  V30 2242 H 211.694 0.739551 4.09475 0
M  V30 2243 H 210.57 0.535331 5.46283 0
M  V30 2244 H 210.831 -0.797216 4.34853 0
M  V30 2245 N 209.89 -1.43072 0.660911 0
M  V30 2246 C 211.115 -2.06584 0.183805 0
M  V30 2247 C 211.54 -1.49257 -1.14472 0
M  V30 2248 O 210.898 -0.605528 -1.70889 0
M  V30 2249 C 210.946 -3.60418 0.114434 0
M  V30 2250 O 210.05 -4.01981 -0.921137 0
M  V30 2251 H 209.391 -0.656669 0.0983994 0
M  V30 2252 H 211.921 -1.83447 0.906006 0
M  V30 2253 H 211.931 -4.07946 -0.0663394 0
M  V30 2254 H 210.606 -4.01519 1.08422 0
M  V30 2255 H 209.183 -3.66029 -0.71253 0
M  V30 2256 N 211.368 -0.403325 -1.52352 0
M  V30 2257 C 212.779 0.0675782 -1.86578 0
M  V30 2258 C 213.13 1.44941 -1.32236 0
M  V30 2259 O 212.255 2.06112 -0.659307 0
M  V30 2260 C 212.85 0.129404 -3.38553 0
M  V30 2261 C 211.409 0.544629 -3.72439 0
M  V30 2262 C 210.556 -0.284551 -2.75836 0
M  V30 2263 H 213.507 -0.620631 -1.46061 0
M  V30 2264 H 213.528 0.94581 -3.68558 0
M  V30 2265 H 213.04 -0.87645 -3.78074 0
M  V30 2266 H 211.141 1.55734 -3.38493 0
M  V30 2267 H 211.254 0.293046 -4.78203 0
M  V30 2268 H 209.618 0.252258 -2.53448 0
M  V30 2269 H 210.401 -1.28865 -3.18196 0
M  V30 2270 N 212.846 1.57033 -0.133567 0
M  V30 2271 C 213.778 2.13176 0.841944 0
M  V30 2272 C 214.791 1.07794 1.22001 0
M  V30 2273 O 215.98 1.35117 1.16643 0
M  V30 2274 C 213.08 2.62847 2.13926 0
M  V30 2275 C 212.253 3.92486 1.93064 0
M  V30 2276 C 211.312 4.27605 3.0666 0
M  V30 2277 O 210.338 4.96168 2.78937 0
M  V30 2278 N 211.54 3.861 4.33483 0
M  V30 2279 H 214.305 2.97503 0.362192 0
M  V30 2280 H 211.866 1.61821 0.05042 0
M  V30 2281 H 213.858 2.83363 2.88942 0
M  V30 2282 H 212.428 1.83319 2.53205 0
M  V30 2283 H 211.648 3.80732 1.02159 0
M  V30 2284 H 212.936 4.77225 1.76447 0
M  V30 2285 H 212.334 3.30828 4.58878 0
M  V30 2286 H 210.891 4.11694 5.05323 0
M  V30 2287 N 214.325 -0.140222 1.56975 0
M  V30 2288 C 215.571 -0.852949 1.83991 0
M  V30 2289 C 215.904 -1.80512 0.716187 0
M  V30 2290 O 215.179 -1.92479 -0.279681 0
M  V30 2291 C 215.462 -1.6215 3.21527 0
M  V30 2292 C 215.315 -0.690363 4.4447 0
M  V30 2293 C 216.634 -2.58247 3.56366 0
M  V30 2294 H 213.753 -0.308634 0.669264 0
M  V30 2295 H 216.395 -0.117898 1.89634 0
M  V30 2296 H 214.545 -2.24812 3.16847 0
M  V30 2297 H 216.217 -0.0742264 4.6124 0
M  V30 2298 H 214.46 -0.000396433 4.338 0
M  V30 2299 H 215.131 -1.2643 5.37326 0
M  V30 2300 H 217.607 -2.05701 3.61699 0
M  V30 2301 H 216.483 -3.09067 4.53617 0
M  V30 2302 H 216.744 -3.39923 2.82674 0
M  V30 2303 N 215.803 -1.52179 -0.40978 0
M  V30 2304 C 216.766 -1.74853 -1.48186 0
M  V30 2305 C 217.766 -0.618417 -1.48433 0
M  V30 2306 O 218.956 -0.886286 -1.49969 0
M  V30 2307 C 216.088 -1.8303 -2.87598 0
M  V30 2308 H 217.281 -2.70559 -1.29374 0
M  V30 2309 H 214.834 -1.42586 -0.640233 0
M  V30 2310 H 215.569 -0.89236 -3.11781 0
M  V30 2311 H 215.354 -2.65187 -2.88822 0
M  V30 2312 H 216.844 -2.02316 -3.65319 0
M  V30 2313 N 217.281 0.66697 -1.42791 0
M  V30 2314 C 218.692 1.2478 -1.38877 0
M  V30 2315 C 219.043 1.96012 -0.0859426 0
M  V30 2316 O 218.168 2.00463 0.815081 0
M  V30 2317 C 218.763 2.26938 -2.51564 0
M  V30 2318 C 217.322 2.80529 -2.50959 0
M  V30 2319 C 216.469 1.54965 -2.29959 0
M  V30 2320 H 219.42 0.459853 -1.51892 0
M  V30 2321 H 219.441 3.08834 -2.22265 0
M  V30 2322 H 218.953 1.75065 -3.46372 0
M  V30 2323 H 217.054 3.36502 -1.59991 0
M  V30 2324 H 217.167 3.29012 -3.48265 0
M  V30 2325 H 215.531 1.81817 -1.78366 0
M  V30 2326 H 216.314 1.05047 -3.26833 0
M  V30 2327 N 218.759 1.29093 0.90403 0
M  V30 2328 C 219.722 1.1386 1.98919 0
M  V30 2329 C 220.722 0.0753457 1.60623 0
M  V30 2330 O 221.912 0.321931 1.71199 0
M  V30 2331 C 219.044 0.740198 3.32767 0
M  V30 2332 H 220.237 2.10246 2.13861 0
M  V30 2333 H 217.79 1.12218 1.08797 0
M  V30 2334 H 218.525 -0.223997 3.23525 0
M  V30 2335 H 218.31 1.50838 3.61926 0
M  V30 2336 H 219.8 0.656546 4.12407 0
M  V30 2337 N 220.237 -1.11381 1.11499 0
M  V30 2338 C 221.648 -1.6465 0.880191 0
M  V30 2339 C 221.999 -1.87199 -0.587434 0
M  V30 2340 O 221.124 -1.60667 -1.44966 0
M  V30 2341 C 221.719 -2.99105 1.59128 0
M  V30 2342 C 220.278 -3.49279 1.40289 0
M  V30 2343 C 219.425 -2.24077 1.63354 0
M  V30 2344 H 222.376 -0.950123 1.27116 0
M  V30 2345 H 222.397 -3.66107 1.03664 0
M  V30 2346 H 221.909 -2.82661 2.65941 0
M  V30 2347 H 220.01 -3.70887 0.356888 0
M  V30 2348 H 220.123 -4.2803 2.15238 0
M  V30 2349 H 218.487 -2.31733 1.05698 0
M  V30 2350 H 219.27 -2.10175 2.71443 0
M  V30 2351 N 221.715 -0.905404 -1.28997 0
M  V30 2352 C 222.647 -0.344748 -2.26592 0
M  V30 2353 C 223.66 0.512135 -1.54535 0
M  V30 2354 O 224.849 0.328368 -1.75454 0
M  V30 2355 C 221.949 0.526587 -3.34784 0
M  V30 2356 C 221.122 -0.305871 -4.36329 0
M  V30 2357 C 220.181 0.499209 -5.23827 0
M  V30 2358 O 219.207 -0.0853004 -5.69136 0
M  V30 2359 N 220.409 1.80408 -5.51755 0
M  V30 2360 H 223.174 -1.18359 -2.75338 0
M  V30 2361 H 220.735 -0.770481 -1.42391 0
M  V30 2362 H 222.727 1.07171 -3.90252 0
M  V30 2363 H 221.297 1.26613 -2.85811 0
M  V30 2364 H 220.517 -1.0324 -3.80441 0
M  V30 2365 H 221.805 -0.875773 -5.01206 0
M  V30 2366 H 221.203 2.3016 -5.16762 0
M  V30 2367 H 219.76 2.29621 -6.10014 0
M  V30 2368 N 223.193 1.4272 -0.668489 0
M  V30 2369 C 224.604 1.84793 -0.266151 0
M  V30 2370 C 224.955 1.55959 1.19043 0
M  V30 2371 O 224.08 1.01622 1.91055 0
M  V30 2372 C 224.675 3.35436 -0.476271 0
M  V30 2373 C 223.234 3.76182 -0.128113 0
M  V30 2374 C 222.381 2.66344 -0.771777 0
M  V30 2375 H 225.332 1.32656 -0.871098 0
M  V30 2376 H 225.353 3.79515 0.273561 0
M  V30 2377 H 224.865 3.5639 -1.53647 0
M  V30 2378 H 222.966 3.60836 0.928891 0
M  V30 2379 H 223.079 4.75766 -0.564231 0
M  V30 2380 H 221.443 2.53885 -0.203652 0
M  V30 2381 H 222.226 2.90123 -1.83531 0
M  V30 2382 N 224.671 0.411399 1.52136 0
M  V30 2383 C 225.917 -0.163888 2.02137 0
M  V30 2384 C 226.25 -1.44597 1.29636 0
M  V30 2385 O 225.525 -1.90272 0.403353 0
M  V30 2386 C 225.808 -0.40927 3.57767 0
M  V30 2387 C 225.661 0.889643 4.40914 0
M  V30 2388 C 226.98 -1.19042 4.23694 0
M  V30 2389 H 224.099 -0.0580896 0.734707 0
M  V30 2390 H 226.741 0.54531 1.82007 0
M  V30 2391 H 224.891 -1.0134 3.7505 0
M  V30 2392 H 226.563 1.52575 4.35337 0
M  V30 2393 H 224.806 1.50011 4.07037 0
M  V30 2394 H 225.477 0.672314 5.4789 0
M  V30 2395 H 227.953 -0.678942 4.10524 0
M  V30 2396 H 226.829 -1.33086 5.32522 0
M  V30 2397 H 227.09 -2.21166 3.82803 0
M  V30 2398 N 226.149 -1.5696 0.141893 0
M  V30 2399 C 227.099 -2.13074 -0.811383 0
M  V30 2400 C 228.083 -1.05726 -1.21288 0
M  V30 2401 O 229.275 -1.31914 -1.18015 0
M  V30 2402 C 226.404 -2.75186 -2.0525 0
M  V30 2403 C 225.49 -3.8965 -1.67432 0
M  V30 2404 N 225.881 -4.95733 -1.0041 0
M  V30 2405 C 224.179 -4.00262 -1.96739 0
M  V30 2406 C 224.88 -5.75858 -0.822345 0
M  V30 2407 N 223.856 -5.26452 -1.3546 0
M  V30 2408 H 227.658 -2.92465 -0.290031 0
M  V30 2409 H 225.172 -1.6229 -0.0598218 0
M  V30 2410 H 227.169 -3.13745 -2.74535 0
M  V30 2411 H 225.829 -1.97266 -2.57907 0
M  V30 2412 H 226.84 -5.13607 -0.665441 0
M  V30 2413 H 223.517 -3.33412 -2.51282 0
M  V30 2414 H 224.907 -6.71254 -0.294496 0
M  V30 2415 N 227.627 0.131896 -1.57047 0
M  V30 2416 C 228.852 0.860418 -1.8871 0
M  V30 2417 C 229.277 1.73251 -0.73251 0
M  V30 2418 O 228.635 1.785 0.317429 0
M  V30 2419 C 228.683 1.68047 -3.19049 0
M  V30 2420 O 227.787 2.7862 -3.04047 0
M  V30 2421 H 227.128 0.238743 -0.619595 0
M  V30 2422 H 229.658 0.118169 -2.04258 0
M  V30 2423 H 229.668 2.07238 -3.51449 0
M  V30 2424 H 228.343 1.04018 -4.02682 0
M  V30 2425 H 226.92 2.42726 -2.83088 0
M  V30 2426 N 229.106 1.52395 0.401703 0
M  V30 2427 C 230.069 1.75636 1.47257 0
M  V30 2428 C 231.069 0.62628 1.48103 0
M  V30 2429 O 232.259 0.894227 1.49497 0
M  V30 2430 C 229.391 1.84553 2.86624 0
M  V30 2431 H 230.584 2.71241 1.27938 0
M  V30 2432 H 228.137 1.42923 0.632662 0
M  V30 2433 H 228.872 0.908882 3.11303 0
M  V30 2434 H 228.657 2.66715 2.87412 0
M  V30 2435 H 230.147 2.04251 3.64241 0
M  V30 2436 N 230.584 -0.659388 1.43143 0
M  V30 2437 C 231.995 -1.24041 1.39537 0
M  V30 2438 C 232.346 -1.95963 0.0963364 0
M  V30 2439 O 231.471 -2.00892 -0.804438 0
M  V30 2440 C 232.066 -2.25601 2.52764 0
M  V30 2441 C 230.625 -2.79195 2.52443 0
M  V30 2442 C 229.772 -1.53743 2.30778 0
M  V30 2443 H 232.723 -0.451792 1.52133 0
M  V30 2444 H 232.744 -3.07651 2.23899 0
M  V30 2445 H 232.256 -1.73226 3.47296 0
M  V30 2446 H 230.357 -3.35649 1.61773 0
M  V30 2447 H 230.47 -3.2716 3.50004 0
M  V30 2448 H 228.834 -1.80869 1.79328 0
M  V30 2449 H 229.617 -1.03312 3.27386 0
M  V30 2450 N 232.062 -1.29571 -0.897171 0
M  V30 2451 C 232.994 -1.10724 -2.00681 0
M  V30 2452 C 234.007 -0.0540026 -1.6271 0
M  V30 2453 O 235.196 -0.298783 -1.75982 0
M  V30 2454 C 232.296 -0.663912 -3.32333 0
M  V30 2455 C 231.469 -1.79622 -3.98816 0
M  V30 2456 C 230.528 -1.34349 -5.0876 0
M  V30 2457 O 229.554 -2.04864 -5.31055 0
M  V30 2458 N 230.756 -0.215764 -5.80099 0
M  V30 2459 H 233.521 -2.06291 -2.17403 0
M  V30 2460 H 231.082 -1.21544 -1.06951 0
M  V30 2461 H 233.074 -0.344295 -4.03233 0
M  V30 2462 H 231.644 0.199375 -3.11964 0
M  V30 2463 H 230.864 -2.28459 -3.21248 0
M  V30 2464 H 232.152 -2.55535 -4.39976 0
M  V30 2465 H 231.55 0.372091 -5.64475 0
M  V30 2466 H 230.107 0.0444707 -6.51785 0
M  V30 2467 N 233.54 1.10788 -1.12088 0
M  V30 2468 C 234.951 1.64181 -0.88891 0
M  V30 2469 C 235.302 1.87508 0.577498 0
M  V30 2470 O 234.427 1.61434 1.44112 0
M  V30 2471 C 235.022 2.98257 -1.60712 0
M  V30 2472 C 233.581 3.4853 -1.42139 0
M  V30 2473 C 232.728 2.23208 -1.6454 0
M  V30 2474 H 235.679 0.943368 -1.27618 0
M  V30 2475 H 235.7 3.65552 -1.05604 0
M  V30 2476 H 235.212 2.81246 -2.67436 0
M  V30 2477 H 233.313 3.70692 -0.376552 0
M  V30 2478 H 233.426 4.26882 -2.17505 0
M  V30 2479 H 231.79 2.31169 -1.06925 0
M  V30 2480 H 232.573 2.08733 -2.72554 0
M  V30 2481 N 235.018 0.912232 1.28515 0
M  V30 2482 C 235.981 0.404223 2.25607 0
M  V30 2483 C 236.981 -0.468602 1.53821 0
M  V30 2484 O 238.171 -0.271873 1.72065 0
M  V30 2485 C 235.303 -0.420653 3.38295 0
M  V30 2486 H 236.496 1.26188 2.7206 0
M  V30 2487 H 234.049 0.691495 1.40171 0
M  V30 2488 H 234.784 -1.29777 2.97201 0
M  V30 2489 H 234.569 0.204935 3.91564 0
M  V30 2490 H 236.059 -0.766971 4.10496 0
M  V30 2491 N 236.496 -1.42363 0.676048 0
M  V30 2492 C 237.428 -2.29164 -0.0404605 0
M  V30 2493 C 238.441 -1.43747 -0.764245 0
M  V30 2494 O 239.63 -1.67453 -0.618195 0
M  V30 2495 C 236.73 -3.21196 -1.08103 0
M  V30 2496 C 235.903 -4.35273 -0.430812 0
M  V30 2497 C 234.962 -5.08017 -1.37133 0
M  V30 2498 O 233.988 -5.62494 -0.87116 0
M  V30 2499 N 235.19 -5.13647 -2.70456 0
M  V30 2500 H 237.955 -2.91298 0.704667 0
M  V30 2501 H 235.516 -1.53303 0.520559 0
M  V30 2502 H 237.508 -3.66728 -1.71152 0
M  V30 2503 H 236.078 -2.60505 -1.72788 0
M  V30 2504 H 235.298 -3.92372 0.379209 0
M  V30 2505 H 236.586 -5.08795 0.0221132 0
M  V30 2506 H 235.984 -4.708 -3.1363 0
M  V30 2507 H 234.541 -5.62821 -3.28749 0
M  V30 2508 N 237.974 -0.419461 -1.51915 0
M  V30 2509 C 238.906 0.43646 -2.25006 0
M  V30 2510 C 239.919 1.00149 -1.28351 0
M  V30 2511 O 241.108 0.898674 -1.54227 0
M  V30 2512 C 238.208 1.6206 -2.9764 0
M  V30 2513 C 237.381 1.17763 -4.21249 0
M  V30 2514 C 236.44 2.22985 -4.76617 0
M  V30 2515 O 235.466 1.83151 -5.38929 0
M  V30 2516 N 236.668 3.55271 -4.59089 0
M  V30 2517 H 239.433 -0.18989 -2.99098 0
M  V30 2518 H 236.994 -0.247386 -1.59999 0
M  V30 2519 H 238.986 2.32038 -3.31573 0
M  V30 2520 H 237.556 2.15266 -2.2667 0
M  V30 2521 H 236.776 0.305582 -3.93014 0
M  V30 2522 H 238.064 0.858781 -5.015 0
M  V30 2523 H 237.462 3.90377 -4.09417 0
M  V30 2524 H 236.019 4.21195 -4.97432 0
M  V30 2525 N 239.452 1.56882 -0.150215 0
M  V30 2526 C 240.415 2.1573 0.774157 0
M  V30 2527 C 241.415 1.0999 1.17298 0
M  V30 2528 O 242.605 1.35613 1.09338 0
M  V30 2529 C 239.737 2.72302 2.05096 0
M  V30 2530 H 240.93 2.98752 0.262201 0
M  V30 2531 H 238.483 1.55985 0.099248 0
M  V30 2532 H 239.218 1.92956 2.6065 0
M  V30 2533 H 239.003 3.49665 1.77416 0
M  V30 2534 H 240.493 3.17632 2.71109 0
M  V30 2535 N 240.93 -0.123565 1.57115 0
M  V30 2536 C 242.177 -0.832153 1.84612 0
M  V30 2537 C 242.505 -1.80093 0.734627 0
M  V30 2538 O 241.76 -1.93766 -0.27442 0
M  V30 2539 C 242.059 -1.62016 3.18568 0
M  V30 2540 C 241.725 -0.796084 4.43817 0
M  V30 2541 C 240.387 -0.568816 4.77826 0
M  V30 2542 C 242.739 -0.221364 5.2073 0
M  V30 2543 C 240.067 0.243499 5.86194 0
M  V30 2544 C 242.419 0.578117 6.29953 0
M  V30 2545 C 241.083 0.815744 6.62497 0
M  V30 2546 H 240.353 -0.304507 0.675542 0
M  V30 2547 H 243 -0.0947248 1.91266 0
M  V30 2548 H 241.305 -2.42837 3.0747 0
M  V30 2549 H 243.002 -2.17231 3.37064 0
M  V30 2550 H 239.592 -0.983307 4.17168 0
M  V30 2551 H 243.776 -0.384173 4.94811 0
M  V30 2552 H 239.032 0.436871 6.09837 0
M  V30 2553 H 243.206 1.03046 6.88734 0
M  V30 2554 H 240.833 1.44701 7.46301 0
M  V30 2555 N 242.408 -1.52605 -0.393616 0
M  V30 2556 C 243.34 -1.73303 -1.49995 0
M  V30 2557 C 244.353 -0.613473 -1.50799 0
M  V30 2558 O 245.542 -0.889049 -1.54784 0
M  V30 2559 C 242.642 -1.77245 -2.88855 0
M  V30 2560 C 241.815 -3.06483 -3.12069 0
M  V30 2561 C 240.874 -3.02033 -4.30886 0
M  V30 2562 O 239.9 -3.75907 -4.27414 0
M  V30 2563 N 241.102 -2.20897 -5.36828 0
M  V30 2564 H 243.867 -2.68756 -1.32629 0
M  V30 2565 H 241.428 -1.51036 -0.583083 0
M  V30 2566 H 243.42 -1.7178 -3.66434 0
M  V30 2567 H 241.99 -0.891993 -2.99603 0
M  V30 2568 H 241.21 -3.25474 -2.22396 0
M  V30 2569 H 242.498 -3.91947 -3.2443 0
M  V30 2570 H 241.896 -1.60336 -5.42502 0
M  V30 2571 H 240.453 -2.21275 -6.13091 0
M  V30 2572 N 243.887 0.651787 -1.4349 0
M  V30 2573 C 245.298 1.233 -1.40193 0
M  V30 2574 C 245.649 1.9591 -0.106727 0
M  V30 2575 O 244.774 2.01316 0.793773 0
M  V30 2576 C 245.369 2.24257 -2.53957 0
M  V30 2577 C 243.928 2.77852 -2.5392 0
M  V30 2578 C 243.075 1.52517 -2.3159 0
M  V30 2579 H 246.026 0.443717 -1.52371 0
M  V30 2580 H 246.047 3.0646 -2.25528 0
M  V30 2581 H 245.559 1.71382 -3.4821 0
M  V30 2582 H 243.66 3.34786 -1.63551 0
M  V30 2583 H 243.773 3.25299 -3.51735 0
M  V30 2584 H 242.137 1.79915 -1.80285 0
M  V30 2585 H 242.92 1.01574 -3.27929 0
M  V30 2586 N 245.365 1.30045 0.890287 0
M  V30 2587 C 246.328 1.15963 1.977 0
M  V30 2588 C 247.328 0.0923777 1.60534 0
M  V30 2589 O 248.518 0.340071 1.70848 0
M  V30 2590 C 245.65 0.775451 3.31963 0
M  V30 2591 H 246.843 2.12502 2.11619 0
M  V30 2592 H 244.396 1.13366 1.07601 0
M  V30 2593 H 245.131 -0.189671 3.23745 0
M  V30 2594 H 244.916 1.54668 3.60306 0
M  V30 2595 H 246.406 0.700251 4.11687 0
M  V30 2596 N 246.843 -1.10192 1.12674 0
M  V30 2597 C 247.753 -2.20172 0.810026 0
M  V30 2598 C 248.769 -1.72821 -0.202188 0
M  V30 2599 O 249.945 -2.01369 -0.0351691 0
M  V30 2600 C 247.01 -3.45631 0.272007 0
M  V30 2601 C 246.071 -4.07704 1.34447 0
M  V30 2602 C 245.304 -5.27175 0.832029 0
M  V30 2603 O 245.527 -5.69425 -0.333284 0
M  V30 2604 O 244.461 -5.80168 1.60277 0
M  V30 2605 H 248.287 -2.49701 1.72867 0
M  V30 2606 H 245.872 -1.18977 0.903597 0
M  V30 2607 H 247.754 -4.21394 -0.0230219 0
M  V30 2608 H 246.429 -3.17723 -0.619164 0
M  V30 2609 H 245.336 -3.33614 1.6927 0
M  V30 2610 H 246.669 -4.3982 2.2095 0
M  V30 2611 N 248.321 -0.919034 -1.28029 0
M  V30 2612 C 249.732 -0.600735 -1.76771 0
M  V30 2613 C 250.083 0.884024 -1.75156 0
M  V30 2614 O 249.208 1.69163 -1.34956 0
M  V30 2615 C 249.803 -1.08372 -3.21 0
M  V30 2616 C 248.362 -0.816248 -3.67443 0
M  V30 2617 C 247.509 -1.24742 -2.47658 0
M  V30 2618 H 250.46 -1.09974 -1.14418 0
M  V30 2619 H 250.481 -0.427512 -3.78091 0
M  V30 2620 H 249.993 -2.16437 -3.22144 0
M  V30 2621 H 248.094 0.250968 -3.71754 0
M  V30 2622 H 248.207 -1.4277 -4.57333 0
M  V30 2623 H 246.571 -0.666083 -2.45836 0
M  V30 2624 H 247.354 -2.33653 -2.51518 0
M  V30 2625 N 249.799 1.42003 -0.683588 0
M  V30 2626 C 251.045 2.01712 -0.209825 0
M  V30 2627 C 251.378 1.53968 1.18353 0
M  V30 2628 O 250.653 0.745661 1.79639 0
M  V30 2629 C 250.936 3.59202 -0.254197 0
M  V30 2630 C 250.789 4.17102 -1.68363 0
M  V30 2631 C 252.108 4.38344 0.392709 0
M  V30 2632 H 249.227 0.732891 -0.0777189 0
M  V30 2633 H 251.869 1.68909 -0.87004 0
M  V30 2634 H 250.019 3.87278 0.307954 0
M  V30 2635 H 251.691 3.99946 -2.29871 0
M  V30 2636 H 249.934 3.72597 -2.22157 0
M  V30 2637 H 250.605 5.26249 -1.6663 0
M  V30 2638 H 253.081 4.16011 -0.0859162 0
M  V30 2639 H 251.957 5.47901 0.331063 0
M  V30 2640 H 252.218 4.16887 1.47164 0
M  V30 2641 N 251.277 0.427512 1.51691 0
M  V30 2642 C 252.24 -0.377132 2.26076 0
M  V30 2643 C 253.24 -0.958089 1.29141 0
M  V30 2644 O 254.43 -0.83408 1.52934 0
M  V30 2645 C 251.562 -1.53262 3.04506 0
M  V30 2646 H 252.755 0.27464 2.9864 0
M  V30 2647 H 250.308 0.180445 1.55255 0
M  V30 2648 H 251.043 -2.22072 2.36335 0
M  V30 2649 H 250.828 -1.12232 3.75694 0
M  V30 2650 H 252.318 -2.10135 3.60878 0
M  V30 2651 N 252.755 -1.56801 0.158532 0
M  V30 2652 C 253.718 -2.16138 -0.762705 0
M  V30 2653 C 254.718 -1.1061 -1.16713 0
M  V30 2654 O 255.908 -1.36191 -1.08617 0
M  V30 2655 C 253.04 -2.73386 -2.03649 0
M  V30 2656 H 254.233 -2.98886 -0.246354 0
M  V30 2657 H 251.786 -1.56035 -0.0909744 0
M  V30 2658 H 252.521 -1.94335 -2.59623 0
M  V30 2659 H 252.306 -3.50601 -1.75559 0
M  V30 2660 H 253.796 -3.19065 -2.6942 0
M  V30 2661 N 254.233 0.115231 -1.57178 0
M  V30 2662 C 255.644 0.67197 -1.74188 0
M  V30 2663 C 255.995 1.80125 -0.777777 0
M  V30 2664 O 255.12 2.16346 0.0484376 0
M  V30 2665 C 255.715 1.22573 -3.1585 0
M  V30 2666 C 254.274 1.72872 -3.34353 0
M  V30 2667 C 253.421 0.629972 -2.70049 0
M  V30 2668 H 256.372 -0.110712 -1.58313 0
M  V30 2669 H 256.393 2.09535 -3.17609 0
M  V30 2670 H 255.905 0.403598 -3.85996 0
M  V30 2671 H 254.006 2.5755 -2.69256 0
M  V30 2672 H 254.119 1.83557 -4.42542 0
M  V30 2673 H 252.483 1.0645 -2.31388 0
M  V30 2674 H 253.266 -0.181241 -3.42821 0
M  V30 2675 N 255.711 1.52812 0.385517 0
M  V30 2676 C 256.643 1.74096 1.49074 0
M  V30 2677 C 257.656 0.621462 1.50472 0
M  V30 2678 O 258.845 0.897245 1.54311 0
M  V30 2679 C 255.945 1.78774 2.87911 0
M  V30 2680 C 255.118 3.08134 3.10439 0
M  V30 2681 C 254.177 3.04313 4.29278 0
M  V30 2682 O 253.203 3.78168 4.25415 0
M  V30 2683 N 254.405 2.23741 5.35649 0
M  V30 2684 H 257.17 2.69455 1.31202 0
M  V30 2685 H 254.731 1.51343 0.575065 0
M  V30 2686 H 256.723 1.73721 3.65518 0
M  V30 2687 H 255.293 0.907869 2.99126 0
M  V30 2688 H 254.513 3.26649 2.20667 0
M  V30 2689 H 255.801 3.93662 3.22347 0
M  V30 2690 H 255.199 1.63211 5.41645 0
M  V30 2691 H 253.756 2.24524 6.11909 0
M  V30 2692 N 257.189 -0.644168 1.43834 0
M  V30 2693 C 258.6 -1.22554 1.40845 0
M  V30 2694 C 258.951 -1.9585 0.117115 0
M  V30 2695 O 258.076 -2.01734 -0.783086 0
M  V30 2696 C 258.671 -2.22907 2.55143 0
M  V30 2697 C 257.23 -2.76501 2.5539 0
M  V30 2698 C 256.377 -1.51287 2.32396 0
M  V30 2699 H 259.328 -0.43563 1.52604 0
M  V30 2700 H 259.349 -3.05259 2.2715 0
M  V30 2701 H 258.861 -1.69533 3.49114 0
M  V30 2702 H 256.962 -3.33914 1.65324 0
M  V30 2703 H 257.075 -3.23429 3.53455 0
M  V30 2704 H 255.439 -1.78957 1.81236 0
M  V30 2705 H 256.222 -0.998336 3.28463 0
M  V30 2706 N 258.668 -1.30515 -0.883378 0
M  V30 2707 C 259.578 -1.18959 -2.02203 0
M  V30 2708 C 260.594 -0.109172 -1.73657 0
M  V30 2709 O 261.77 -0.324413 -1.9877 0
M  V30 2710 C 258.835 -0.883871 -3.35244 0
M  V30 2711 C 257.896 -2.04982 -3.77201 0
M  V30 2712 C 257.129 -1.75859 -5.03894 0
M  V30 2713 O 257.352 -0.687276 -5.66244 0
M  V30 2714 O 256.286 -2.61146 -5.42297 0
M  V30 2715 H 260.112 -2.14616 -2.1488 0
M  V30 2716 H 257.697 -1.10124 -1.0096 0
M  V30 2717 H 259.579 -0.728644 -4.15053 0
M  V30 2718 H 258.254 0.0427798 -3.23672 0
M  V30 2719 H 257.161 -2.26038 -2.9809 0
M  V30 2720 H 258.494 -2.95825 -3.93381 0
M  V30 2721 N 260.146 1.09593 -1.13257 0
M  V30 2722 C 261.557 1.63229 -0.906274 0
M  V30 2723 C 261.908 1.8811 0.557578 0
M  V30 2724 O 261.033 1.62953 1.42391 0
M  V30 2725 C 261.628 2.96535 -1.63867 0
M  V30 2726 C 260.187 3.47003 -1.45828 0
M  V30 2727 C 259.334 2.2145 -1.66898 0
M  V30 2728 H 262.285 0.92978 -1.28611 0
M  V30 2729 H 262.306 3.64411 -1.09476 0
M  V30 2730 H 261.818 2.78394 -2.70404 0
M  V30 2731 H 259.919 3.70272 -0.415848 0
M  V30 2732 H 260.032 4.24551 -2.2202 0
M  V30 2733 H 258.396 2.30022 -1.09371 0
M  V30 2734 H 259.179 2.0583 -2.74752 0
M  V30 2735 N 261.624 0.925811 1.2754 0
M  V30 2736 C 262.87 0.566092 1.94739 0
M  V30 2737 C 263.203 -0.890057 1.72603 0
M  V30 2738 O 262.478 -1.63467 1.05399 0
M  V30 2739 C 262.761 0.89054 3.48915 0
M  V30 2740 C 262.614 2.4003 3.80402 0
M  V30 2741 C 263.933 0.395101 4.38323 0
M  V30 2742 H 261.052 0.20714 0.707292 0
M  V30 2743 H 263.694 1.15725 1.50691 0
M  V30 2744 H 261.844 0.387452 3.86563 0
M  V30 2745 H 263.516 2.97494 3.52555 0
M  V30 2746 H 261.759 2.85028 3.2702 0
M  V30 2747 H 262.43 2.57785 4.8811 0
M  V30 2748 H 264.906 0.826241 4.07814 0
M  V30 2749 H 263.782 0.651086 5.45025 0
M  V30 2750 H 264.043 -0.704798 4.36446 0
M  V30 2751 N 263.102 -1.41638 0.69111 0
M  V30 2752 C 264.065 -2.29178 0.0319786 0
M  V30 2753 C 265.065 -1.44153 -0.712496 0
M  V30 2754 O 266.255 -1.65354 -0.548053 0
M  V30 2755 C 263.387 -3.26952 -0.965161 0
M  V30 2756 H 264.58 -2.88959 0.802681 0
M  V30 2757 H 262.133 -1.4955 0.454356 0
M  V30 2758 H 262.868 -2.72142 -1.76378 0
M  V30 2759 H 262.653 -3.89685 -0.434522 0
M  V30 2760 H 264.143 -3.92561 -1.42428 0
M  V30 2761 N 264.58 -0.43555 -1.51462 0
M  V30 2762 C 265.49 0.383001 -2.31453 0
M  V30 2763 C 266.506 1.02931 -1.4029 0
M  V30 2764 O 267.682 1.02507 -1.73362 0
M  V30 2765 C 264.747 1.47043 -3.13973 0
M  V30 2766 C 263.808 0.844433 -4.20913 0
M  V30 2767 C 263.041 1.88004 -4.9949 0
M  V30 2768 O 263.264 3.10199 -4.78678 0
M  V30 2769 O 262.198 1.47157 -5.83634 0
M  V30 2770 H 266.024 -0.269964 -3.02498 0
M  V30 2771 H 263.609 -0.19813 -1.4808 0
M  V30 2772 H 265.491 2.10113 -3.65281 0
M  V30 2773 H 264.166 2.10751 -2.45695 0
M  V30 2774 H 263.073 0.175729 -3.73687 0
M  V30 2775 H 264.406 0.250869 -4.9156 0
M  V30 2776 N 266.058 1.56714 -0.166846 0
M  V30 2777 C 267.469 1.83378 0.350646 0
M  V30 2778 C 267.82 1.08646 1.63372 0
M  V30 2779 O 266.945 0.338058 2.13743 0
M  V30 2780 C 267.54 3.32643 0.642963 0
M  V30 2781 C 266.099 3.59818 1.10491 0
M  V30 2782 C 265.246 2.76954 0.138411 0
M  V30 2783 H 268.197 1.53803 -0.391193 0
M  V30 2784 H 268.218 3.49878 1.49551 0
M  V30 2785 H 267.73 3.87007 -0.291055 0
M  V30 2786 H 265.831 3.1086 2.05418 0
M  V30 2787 H 265.944 4.68178 1.01716 0
M  V30 2788 H 264.308 2.4666 0.634911 0
M  V30 2789 H 265.091 3.34097 -0.789549 0
M  V30 2790 N 267.536 -0.106894 1.57237 0
M  V30 2791 C 268.499 -1.11466 2.0027 0
M  V30 2792 C 269.499 -1.33623 0.894519 0
M  V30 2793 O 270.689 -1.29935 1.16028 0
M  V30 2794 C 267.821 -2.46646 2.35327 0
M  V30 2795 H 269.014 -0.744516 2.90512 0
M  V30 2796 H 266.567 -0.351576 1.52295 0
M  V30 2797 H 267.302 -2.88558 1.48003 0
M  V30 2798 H 267.087 -2.31915 3.16161 0
M  V30 2799 H 268.577 -3.19151 2.69318 0
M  V30 2800 N 269.014 -1.53014 -0.377408 0
M  V30 2801 C 270.425 -1.60438 -0.954798 0
M  V30 2802 C 270.776 -0.464418 -1.90624 0
M  V30 2803 O 269.901 0.41087 -2.12464 0
M  V30 2804 C 270.496 -2.90797 -1.73847 0
M  V30 2805 C 269.055 -3.00595 -2.26538 0
M  V30 2806 C 268.202 -2.55645 -1.07429 0
M  V30 2807 H 271.153 -1.57926 -0.156575 0
M  V30 2808 H 271.174 -2.77935 -2.5987 0
M  V30 2809 H 270.686 -3.73746 -1.04574 0
M  V30 2810 H 268.787 -2.22208 -2.99089 0
M  V30 2811 H 268.9 -4.05456 -2.5523 0
M  V30 2812 H 267.264 -2.10239 -1.43777 0
M  V30 2813 H 268.047 -3.41 -0.396728 0
M  V30 2814 N 270.492 0.636531 -1.44174 0
M  V30 2815 C 271.738 1.39826 -1.4689 0
M  V30 2816 C 272.071 1.93947 -0.0990585 0
M  V30 2817 O 271.346 1.73325 0.882544 0
M  V30 2818 C 271.629 2.56751 -2.5249 0
M  V30 2819 C 271.482 2.08014 -3.98811 0
M  V30 2820 C 272.801 3.58946 -2.54649 0
M  V30 2821 H 269.92 0.507075 -0.53483 0
M  V30 2822 H 272.562 0.720188 -1.75822 0
M  V30 2823 H 270.712 3.14597 -2.2795 0
M  V30 2824 H 272.384 1.5504 -4.34466 0
M  V30 2825 H 270.627 1.39242 -4.10846 0
M  V30 2826 H 271.298 2.92169 -4.68339 0
M  V30 2827 H 273.774 3.1089 -2.76563 0
M  V30 2828 H 272.65 4.38286 -3.3045 0
M  V30 2829 H 272.911 4.12655 -1.58646 0
M  V30 2830 N 271.97 1.30982 0.876444 0
M  V30 2831 C 272.903 1.12414 1.98591 0
M  V30 2832 C 273.881 0.0294078 1.62573 0
M  V30 2833 O 275.065 0.184598 1.87594 0
M  V30 2834 C 272.192 0.716276 3.3104 0
M  V30 2835 C 271.238 1.81311 3.86042 0
M  V30 2836 S 272.071 3.41727 4.1229 0
M  V30 2837 C 273.227 3.02863 5.47745 0
M  V30 2838 H 273.46 2.06338 2.14037 0
M  V30 2839 H 270.993 1.15393 1.02586 0
M  V30 2840 H 272.951 0.487697 4.07593 0
M  V30 2841 H 271.612 -0.203749 3.13438 0
M  V30 2842 H 270.805 1.48021 4.81774 0
M  V30 2843 H 270.407 1.99641 3.16259 0
M  V30 2844 H 272.699 2.51353 6.29148 0
M  V30 2845 H 273.642 3.97533 5.8598 0
M  V30 2846 H 274.05 2.40487 5.10711 0
M  V30 2847 N 273.449 -1.08991 1.13837 0
M  V30 2848 C 274.726 -1.77863 0.813876 0
M  V30 2849 C 275.106 -1.99375 -0.693746 0
M  V30 2850 O 274.454 -1.59875 -1.63255 0
M  V30 2851 C 274.664 -3.0986 1.60586 0
M  V30 2852 C 276.012 -3.84493 1.8014 0
M  V30 2853 O 277.036 -3.19624 1.57222 0
M  V30 2854 O 275.895 -5.00957 2.18413 0
M  V30 2855 H 272.989 -0.771589 0.297624 0
M  V30 2856 H 275.535 -1.15507 1.24323 0
M  V30 2857 H 274.307 -2.89715 2.63022 0
M  V30 2858 H 273.93 -3.79942 1.17173 0
M  V30 2859 N 274.927 -0.932562 -1.27047 0
M  V30 2860 C 275.874 -0.434072 -2.26681 0
M  V30 2861 C 276.844 0.501639 -1.58344 0
M  V30 2862 O 278.029 0.419734 -1.86126 0
M  V30 2863 C 275.169 0.30261 -3.43771 0
M  V30 2864 C 274.282 -0.667774 -4.26808 0
M  V30 2865 C 273.417 0.0892393 -5.31125 0
M  V30 2866 C 272.456 -0.873532 -6.05835 0
M  V30 2867 N 271.593 -0.148832 -7.01942 0
M  V30 2868 H 276.433 -1.28868 -2.68695 0
M  V30 2869 H 273.97 -0.646713 -1.32121 0
M  V30 2870 H 275.928 0.746092 -4.10474 0
M  V30 2871 H 274.558 1.12142 -3.02695 0
M  V30 2872 H 273.61 -1.22978 -3.59973 0
M  V30 2873 H 274.922 -1.40337 -4.78651 0
M  V30 2874 H 274.076 0.592409 -6.03801 0
M  V30 2875 H 272.815 0.85777 -4.80097 0
M  V30 2876 H 271.82 -1.38791 -5.31994 0
M  V30 2877 H 273.045 -1.64193 -6.58952 0
M  V30 2878 H 270.991 0.601365 -6.53238 0
M  V30 2879 H 270.908 -0.82391 -7.51497 0
M  V30 2880 H 272.176 0.333527 -7.78786 0
M  V30 2881 N 276.405 1.4127 -0.698611 0
M  V30 2882 C 277.816 1.84187 -0.305289 0
M  V30 2883 C 278.167 1.58449 1.15708 0
M  V30 2884 O 277.292 1.05651 1.88856 0
M  V30 2885 C 277.887 3.3435 -0.547314 0
M  V30 2886 C 276.446 3.75826 -0.207878 0
M  V30 2887 C 275.593 2.64647 -0.828099 0
M  V30 2888 H 278.544 1.30778 -0.89904 0
M  V30 2889 H 278.565 3.8001 0.192998 0
M  V30 2890 H 278.077 3.53051 -1.61172 0
M  V30 2891 H 276.178 3.62725 0.852143 0
M  V30 2892 H 276.291 4.74462 -0.665021 0
M  V30 2893 H 274.655 2.53395 -0.257458 0
M  V30 2894 H 275.438 2.86165 -1.89643 0
M  V30 2895 N 277.883 0.443576 1.51229 0
M  V30 2896 C 278.83 -0.364716 2.279 0
M  V30 2897 C 279.8 -1.0114 1.31757 0
M  V30 2898 O 280.985 -1.02912 1.60667 0
M  V30 2899 C 278.125 -1.45644 3.12861 0
M  V30 2900 C 277.238 -0.827269 4.24005 0
M  V30 2901 C 276.373 -1.89456 4.96266 0
M  V30 2902 C 275.412 -1.24416 5.99322 0
M  V30 2903 N 274.549 -2.25309 6.64966 0
M  V30 2904 H 279.389 0.295464 2.96532 0
M  V30 2905 H 276.926 0.157554 1.46254 0
M  V30 2906 H 278.884 -2.10076 3.6045 0
M  V30 2907 H 277.514 -2.08616 2.46331 0
M  V30 2908 H 276.566 -0.0710839 3.80334 0
M  V30 2909 H 277.878 -0.312481 4.9782 0
M  V30 2910 H 277.032 -2.61535 5.47434 0
M  V30 2911 H 275.771 -2.4431 4.22095 0
M  V30 2912 H 274.776 -0.508868 5.4744 0
M  V30 2913 H 276.001 -0.702882 6.75453 0
M  V30 2914 H 273.947 -2.79231 5.93604 0
M  V30 2915 H 273.864 -1.78739 7.34567 0
M  V30 2916 H 275.132 -2.96853 7.20763 0
M  V30 2917 N 279.361 -1.56624 0.175154 0
M  V30 2918 C 280.777 -1.58571 -0.180966 0
M  V30 2919 C 280.977 -1.19065 -1.6256 0
M  V30 2920 O 280.033 -0.904044 -2.35761 0
M  V30 2921 C 281.346 -3.00522 0.103326 0
M  V30 2922 C 282.894 -3.12972 0.0418426 0
M  V30 2923 C 283.369 -4.57022 0.299175 0
M  V30 2924 N 284.86 -4.62541 0.247086 0
M  V30 2925 C 285.595 -5.71857 0.420318 0
M  V30 2926 N 285.091 -6.89717 0.652816 0
M  V30 2927 N 286.884 -5.60972 0.355957 0
M  V30 2928 H 279.035 -1.80589 1.11809 0
M  V30 2929 H 281.298 -0.837178 0.444788 0
M  V30 2930 H 281.004 -3.33916 1.10422 0
M  V30 2931 H 280.878 -3.72344 -0.603299 0
M  V30 2932 H 283.265 -2.79403 -0.949636 0
M  V30 2933 H 283.346 -2.43578 0.781238 0
M  V30 2934 H 282.99 -4.913 1.28788 0
M  V30 2935 H 282.92 -5.24579 -0.460876 0
M  V30 2936 H 285.411 -3.77829 0.0731895 0
M  V30 2937 H 285.724 -7.68911 0.774347 0
M  V30 2938 H 284.069 -6.91572 0.689476 0
M  V30 2939 H 287.26 -4.67773 0.174882 0
M  V30 2940 H 287.433 -6.46111 0.494388 0
M  V30 2941 N 280.839 0.0985539 -1.57292 0
M  V30 2942 C 281.786 1.11981 -2.01814 0
M  V30 2943 C 282.756 1.39999 -0.89384 0
M  V30 2944 O 283.941 1.5152 -1.15958 0
M  V30 2945 C 281.081 2.43577 -2.44467 0
M  V30 2946 C 280.194 2.2232 -3.70402 0
M  V30 2947 C 279.329 3.4729 -4.01949 0
M  V30 2948 C 278.368 3.2128 -5.21005 0
M  V30 2949 N 277.505 4.38507 -5.48321 0
M  V30 2950 H 282.345 0.733149 -2.88841 0
M  V30 2951 H 279.882 0.350482 -1.42864 0
M  V30 2952 H 281.84 3.20373 -2.6724 0
M  V30 2953 H 280.47 2.80097 -1.60455 0
M  V30 2954 H 279.522 1.36343 -3.55126 0
M  V30 2955 H 280.834 1.99089 -4.57345 0
M  V30 2956 H 279.988 4.32495 -4.25479 0
M  V30 2957 H 278.727 3.73572 -3.13521 0
M  V30 2958 H 277.732 2.34468 -4.97298 0
M  V30 2959 H 278.957 2.96348 -6.11028 0
M  V30 2960 H 276.903 4.64871 -4.62851 0
M  V30 2961 H 276.82 4.18455 -6.29628 0
M  V30 2962 H 278.088 5.24787 -5.76385 0
M  V30 2963 N 282.317 1.53212 0.369288 0
M  V30 2964 C 283.227 1.82342 1.47609 0
M  V30 2965 C 284.243 0.711532 1.58787 0
M  V30 2966 O 285.419 1.0012 1.74751 0
M  V30 2967 C 282.484 2.00393 2.8292 0
M  V30 2968 C 281.545 3.24297 2.81301 0
M  V30 2969 C 280.778 3.41478 4.10157 0
M  V30 2970 O 281.001 2.63033 5.06132 0
M  V30 2971 O 279.935 4.34817 4.16194 0
M  V30 2972 H 283.761 2.76366 1.25918 0
M  V30 2973 H 281.346 1.38547 0.559034 0
M  V30 2974 H 283.228 2.13859 3.63101 0
M  V30 2975 H 281.903 1.09559 3.04596 0
M  V30 2976 H 280.81 3.16257 1.99831 0
M  V30 2977 H 282.143 4.15041 2.64578 0
M  V30 2978 N 283.795 -0.628877 1.44509 0
M  V30 2979 C 284.758 -1.72263 1.51188 0
M  V30 2980 C 285.758 -1.55907 0.39367 0
M  V30 2981 O 286.948 -1.61361 0.656377 0
M  V30 2982 C 284.08 -3.11365 1.38798 0
M  V30 2983 H 285.273 -1.67714 2.4862 0
M  V30 2984 H 282.826 -0.842737 1.31634 0
M  V30 2985 H 283.561 -3.21507 0.424693 0
M  V30 2986 H 283.346 -3.24644 2.19884 0
M  V30 2987 H 284.836 -3.91075 1.46458 0
M  V30 2988 N 285.273 -1.31445 -0.869486 0
M  V30 2989 C 286.519 -1.21337 -1.62496 0
M  V30 2990 C 286.852 0.227872 -1.92858 0
M  V30 2991 O 286.127 1.16094 -1.56053 0
M  V30 2992 C 286.41 -2.05814 -2.95487 0
M  V30 2993 C 286.263 -3.5824 -2.72 0
M  V30 2994 C 287.582 -1.9079 -3.96594 0
M  V30 2995 H 284.701 -0.442135 -0.589649 0
M  V30 2996 H 287.343 -1.6124 -1.00507 0
M  V30 2997 H 285.493 -1.71913 -3.48394 0
M  V30 2998 H 287.165 -4.0228 -2.25762 0
M  V30 2999 H 285.408 -3.81647 -2.06224 0
M  V30 3000 H 286.079 -4.12657 -3.66631 0
M  V30 3001 H 288.555 -2.20459 -3.52898 0
M  V30 3002 H 287.431 -2.52199 -4.87531 0
M  V30 3003 H 287.692 -0.871341 -4.33428 0
M  V30 3004 N 286.751 1.08385 -1.14413 0
M  V30 3005 C 288 1.80153 -0.907076 0
M  V30 3006 C 288.313 1.87176 0.567851 0
M  V30 3007 O 289.519 2.55359 0.922172 0
M  V30 3008 C 287.975 3.23687 -1.57336 0
M  V30 3009 C 287.583 3.24897 -3.08457 0
M  V30 3010 C 289.327 4.00136 -1.41744 0
M  V30 3011 C 287.234 4.6302 -3.67921 0
M  V30 3012 H 286.164 0.675139 -0.335714 0
M  V30 3013 H 288.815 1.21733 -1.37307 0
M  V30 3014 H 287.197 3.82234 -1.03505 0
M  V30 3015 H 288.371 2.76055 -3.68958 0
M  V30 3016 H 286.686 2.61943 -3.2369 0
M  V30 3017 H 289.283 5.02201 -1.83572 0
M  V30 3018 H 289.626 4.14709 -0.363576 0
M  V30 3019 H 290.159 3.48058 -1.92614 0
M  V30 3020 H 286.898 4.5365 -4.73161 0
M  V30 3021 H 286.418 5.12143 -3.12201 0
M  V30 3022 H 288.097 5.31994 -3.68227 0
M  V30 3023 N 288.23 0.939286 1.26551 0
M  V30 3024 C 289.479 0.581601 1.93133 0
M  V30 3025 C 289.792 -0.883224 1.74524 0
M  V30 3026 O 290.998 -1.3502 2.35546 0
M  V30 3027 C 289.454 0.989425 3.46032 0
M  V30 3028 C 289.062 2.47573 3.73379 0
M  V30 3029 C 290.806 0.703544 4.18629 0
M  V30 3030 C 288.713 2.82235 5.19709 0
M  V30 3031 H 287.643 0.213803 0.723052 0
M  V30 3032 H 290.294 1.14167 1.4366 0
M  V30 3033 H 288.676 0.357902 3.94379 0
M  V30 3034 H 289.85 3.15614 3.35744 0
M  V30 3035 H 288.165 2.73471 3.1401 0
M  V30 3036 H 290.762 0.938869 5.26393 0
M  V30 3037 H 291.105 -0.359639 4.14744 0
M  V30 3038 H 291.638 1.2947 3.76141 0
M  V30 3039 H 288.377 3.87509 5.28694 0
M  V30 3040 H 287.897 2.18854 5.58447 0
M  V30 3041 H 289.576 2.70599 5.87695 0
M  V30 3042 N 289.708 -1.40897 0.706093 0
M  V30 3043 C 290.641 -2.282 -0.00328781 0
M  V30 3044 C 291.619 -1.42816 -0.77732 0
M  V30 3045 O 292.803 -1.72237 -0.765944 0
M  V30 3046 C 289.93 -3.23226 -1.01205 0
M  V30 3047 C 288.976 -4.25222 -0.329955 0
M  V30 3048 S 289.809 -5.27269 0.935298 0
M  V30 3049 C 290.965 -6.25859 -0.0716061 0
M  V30 3050 H 291.198 -2.88016 0.737143 0
M  V30 3051 H 288.731 -1.46191 0.496756 0
M  V30 3052 H 290.689 -3.78503 -1.58888 0
M  V30 3053 H 289.35 -2.62485 -1.72513 0
M  V30 3054 H 288.543 -4.92023 -1.09221 0
M  V30 3055 H 288.145 -3.73595 0.174069 0
M  V30 3056 H 290.437 -6.71204 -0.921521 0
M  V30 3057 H 291.38 -7.0586 0.562765 0
M  V30 3058 H 291.788 -5.62852 -0.431088 0
M  V30 3059 N 291.186 -0.45159 -1.50991 0
M  V30 3060 C 292.134 0.366864 -2.29689 0
M  V30 3061 C 293.128 1.00809 -1.36139 0
M  V30 3062 O 294.334 0.941427 -1.53418 0
M  V30 3063 H 290.709 0.137133 -0.739391 0
M  V30 3064 H 292.68 -0.317538 -2.96706 0
M  V30 3065 C 291.429 1.44751 -3.16137 0
M  V30 3066 H 290.752 0.963473 -3.88017 0
M  V30 3067 H 292.192 1.99315 -3.74232 0
M  V30 3068 C 290.651 2.43869 -2.32442 0
M  V30 3069 O 291.181 3.4872 -1.99392 0
M  V30 3070 N 289.387 2.15105 -1.95392 0
M  V30 3071 H 288.934 1.29866 -2.22469 0
M  V30 3072 H 288.892 2.81661 -1.39693 0
M  V30 3073 N 292.664 1.56529 -0.183458 0
M  V30 3074 C 293.91 1.97537 0.459036 0
M  V30 3075 C 294.243 1.06989 1.62071 0
M  V30 3076 O 293.518 0.11948 1.94133 0
M  V30 3077 C 293.801 3.47874 0.930368 0
M  V30 3078 C 293.654 4.492 -0.232317 0
M  V30 3079 C 294.973 4.01612 1.79989 0
M  V30 3080 H 292.092 0.718204 0.165383 0
M  V30 3081 H 294.734 1.88042 -0.272038 0
M  V30 3082 H 292.884 3.56095 1.55333 0
M  V30 3083 H 294.556 4.53027 -0.86972 0
M  V30 3084 H 292.799 4.24657 -0.885928 0
M  V30 3085 H 293.47 5.51823 0.139796 0
M  V30 3086 H 295.946 3.96097 1.27461 0
M  V30 3087 H 294.822 5.07195 2.09867 0
M  V30 3088 H 295.083 3.46163 2.74998 0
M  V30 3089 N 294.142 -0.090211 1.57342 0
M  V30 3090 C 295.105 -1.09335 2.01441 0
M  V30 3091 C 296.105 -1.32666 0.908641 0
M  V30 3092 O 297.295 -1.28697 1.174 0
M  V30 3093 C 294.427 -2.44136 2.3793 0
M  V30 3094 H 295.62 -0.713662 2.91285 0
M  V30 3095 H 293.173 -0.335404 1.52659 0
M  V30 3096 H 293.908 -2.86972 1.51055 0
M  V30 3097 H 293.693 -2.28548 3.18603 0
M  V30 3098 H 295.183 -3.16277 2.72688 0
M  V30 3099 N 295.62 -1.53406 -0.361157 0
M  V30 3100 C 296.583 -1.79479 -1.42548 0
M  V30 3101 C 297.583 -0.665327 -1.4639 0
M  V30 3102 O 298.773 -0.933549 -1.47073 0
M  V30 3103 C 295.905 -1.92087 -2.8163 0
M  V30 3104 H 297.098 -2.74538 -1.20701 0
M  V30 3105 H 294.651 -1.4455 -0.594546 0
M  V30 3106 H 295.386 -0.991099 -3.08784 0
M  V30 3107 H 295.171 -2.74241 -2.80239 0
M  V30 3108 H 296.661 -2.13836 -3.58697 0
M  V30 3109 N 297.098 0.621204 -1.44841 0
M  V30 3110 C 298.048 1.72663 -1.48901 0
M  V30 3111 C 299.032 1.56964 -0.353702 0
M  V30 3112 O 300.224 1.66532 -0.599669 0
M  V30 3113 C 297.353 3.11381 -1.44557 0
M  V30 3114 C 296.439 3.32514 -2.6324 0
M  V30 3115 N 296.83 3.23969 -3.8843 0
M  V30 3116 C 295.128 3.63343 -2.58647 0
M  V30 3117 C 295.829 3.46062 -4.67564 0
M  V30 3118 N 294.805 3.69407 -3.98797 0
M  V30 3119 H 298.607 1.64529 -2.43531 0
M  V30 3120 H 296.121 0.82401 -1.39942 0
M  V30 3121 H 298.118 3.90667 -1.4555 0
M  V30 3122 H 296.778 3.20674 -0.509731 0
M  V30 3123 H 297.789 3.02669 -4.20252 0
M  V30 3124 H 294.466 3.79556 -1.73906 0
M  V30 3125 H 295.856 3.44963 -5.76585 0
M  V30 3126 N 298.576 1.31904 0.862503 0
M  V30 3127 C 299.526 1.16772 1.95827 0
M  V30 3128 C 300.51 0.0767098 1.60717 0
M  V30 3129 O 301.702 0.302407 1.74398 0
M  V30 3130 C 298.831 0.884858 3.317 0
M  V30 3131 C 297.917 2.0172 3.73055 0
M  V30 3132 N 298.308 3.265 3.86305 0
M  V30 3133 C 296.606 1.91861 4.02623 0
M  V30 3134 C 297.307 4.00616 4.2176 0
M  V30 3135 N 296.283 3.28847 4.32852 0
M  V30 3136 H 300.085 2.11382 2.04193 0
M  V30 3137 H 297.599 1.2357 1.05377 0
M  V30 3138 H 299.596 0.757419 4.09962 0
M  V30 3139 H 298.256 -0.0529448 3.24657 0
M  V30 3140 H 299.267 3.61529 3.70833 0
M  V30 3141 H 295.944 1.05593 4.03926 0
M  V30 3142 H 297.334 5.08182 4.39546 0
M  V30 3143 N 300.054 -1.07777 1.14986 0
M  V30 3144 C 301.302 -1.79934 0.920235 0
M  V30 3145 C 301.623 -1.86955 -0.554336 0
M  V30 3146 O 300.893 -1.36731 -1.40291 0
M  V30 3147 H 299.473 -0.666424 0.337473 0
M  V30 3148 H 302.135 -1.3027 1.44968 0
M  V30 3149 H 301.231 -2.82539 1.32583 0
M  V30 3150 N 301.532 -0.945985 -1.26051 0
M  V30 3151 C 302.757 -0.612525 -1.98149 0
M  V30 3152 C 303.182 0.806623 -1.69927 0
M  V30 3153 O 302.54 1.54411 -0.950108 0
M  V30 3154 C 302.588 -0.866981 -3.50023 0
M  V30 3155 O 301.692 0.0585333 -4.12358 0
M  V30 3156 H 301.033 -0.23379 -0.621481 0
M  V30 3157 H 303.563 -1.27023 -1.60395 0
M  V30 3158 H 303.573 -0.789792 -4.00283 0
M  V30 3159 H 302.248 -1.90135 -3.69894 0
M  V30 3160 H 300.825 -0.0701241 -3.72834 0
M  V30 3161 N 303.011 1.40521 -0.713556 0
M  V30 3162 C 303.921 2.34522 -0.0606667 0
M  V30 3163 C 304.937 1.57193 0.74607 0
M  V30 3164 O 306.113 1.89591 0.679493 0
M  V30 3165 C 303.178 3.36081 0.851491 0
M  V30 3166 C 302.239 4.29286 0.0349339 0
M  V30 3167 C 301.472 5.25994 0.903649 0
M  V30 3168 O 301.695 5.28616 2.14292 0
M  V30 3169 O 300.629 6.00918 0.343723 0
M  V30 3170 H 304.455 2.91968 -0.835972 0
M  V30 3171 H 302.04 1.41681 -0.47402 0
M  V30 3172 H 303.922 3.98369 1.37404 0
M  V30 3173 H 302.597 2.81052 1.60598 0
M  V30 3174 H 301.504 3.70289 -0.532633 0
M  V30 3175 H 302.837 4.87462 -0.681287 0
M  V30 3176 N 304.489 0.459591 1.5075 0
M  V30 3177 C 305.419 -0.330644 2.31147 0
M  V30 3178 C 306.4 -1.00087 1.37538 0
M  V30 3179 O 307.585 -1.00025 1.66459 0
M  V30 3180 C 304.715 -1.41958 3.16962 0
M  V30 3181 C 303.669 -0.871608 4.19031 0
M  V30 3182 C 302.995 -2.05797 4.9351 0
M  V30 3183 C 304.295 0.109251 5.22186 0
M  V30 3184 H 305.989 0.340336 2.97459 0
M  V30 3185 H 303.535 0.165119 1.4305 0
M  V30 3186 H 305.488 -1.9798 3.71997 0
M  V30 3187 H 304.212 -2.11917 2.48513 0
M  V30 3188 H 302.871 -0.333442 3.6508 0
M  V30 3189 H 302.519 -2.74427 4.21544 0
M  V30 3190 H 302.219 -1.6976 5.62544 0
M  V30 3191 H 303.743 -2.62331 5.51375 0
M  V30 3192 H 305.157 -0.361405 5.7216 0
M  V30 3193 H 303.554 0.383316 5.98875 0
M  V30 3194 H 304.624 1.03887 4.73641 0
M  V30 3195 N 305.967 -1.56429 0.191757 0
M  V30 3196 C 306.915 -2.20273 -0.747174 0
M  V30 3197 C 307.909 -1.17288 -1.22229 0
M  V30 3198 O 309.115 -1.35441 -1.18557 0
M  V30 3199 H 305.49 -0.705885 -0.259289 0
M  V30 3200 H 307.461 -2.97826 -0.184963 0
M  V30 3201 C 306.21 -2.87356 -1.95759 0
M  V30 3202 H 305.533 -3.66341 -1.60106 0
M  V30 3203 H 306.973 -3.3547 -2.59299 0
M  V30 3204 C 305.432 -1.88213 -2.79423 0
M  V30 3205 O 305.962 -1.38033 -3.7724 0
M  V30 3206 N 304.168 -1.56516 -2.44849 0
M  V30 3207 H 303.715 -1.97516 -1.65364 0
M  V30 3208 H 303.673 -0.904369 -3.01112 0
M  V30 3209 N 307.445 0.0818655 -1.57387 0
M  V30 3210 C 308.693 0.781368 -1.86384 0
M  V30 3211 C 309.014 1.78618 -0.782342 0
M  V30 3212 O 308.284 1.94976 0.190061 0
M  V30 3213 H 306.864 0.291562 -0.687751 0
M  V30 3214 H 309.526 0.060348 -1.94807 0
M  V30 3215 H 308.622 1.3038 -2.83562 0
M  V30 3216 N 308.923 1.53595 0.353017 0
M  V30 3217 C 309.833 1.83897 1.45667 0
M  V30 3218 C 310.849 0.728334 1.58023 0
M  V30 3219 O 312.025 1.01968 1.73679 0
M  V30 3220 C 309.09 2.03383 2.80778 0
M  V30 3221 C 308.151 3.27262 2.77845 0
M  V30 3222 C 307.384 3.45809 4.06512 0
M  V30 3223 O 307.607 2.68387 5.03314 0
M  V30 3224 O 306.541 4.39207 4.11559 0
M  V30 3225 H 310.367 2.77686 1.2298 0
M  V30 3226 H 307.952 1.39132 0.544308 0
M  V30 3227 H 309.834 2.17698 3.60812 0
M  V30 3228 H 308.509 1.12783 3.03417 0
M  V30 3229 H 307.416 3.18359 1.96465 0
M  V30 3230 H 308.749 4.17824 2.60161 0
M  V30 3231 N 310.401 -0.613514 1.45168 0
M  V30 3232 C 311.331 -1.7354 1.56225 0
M  V30 3233 C 312.312 -1.64981 0.41414 0
M  V30 3234 O 313.497 -1.83472 0.636526 0
M  V30 3235 C 310.627 -3.12128 1.52295 0
M  V30 3236 C 309.581 -3.35491 2.65762 0
M  V30 3237 C 308.907 -4.74291 2.46885 0
M  V30 3238 C 310.207 -3.26325 4.0781 0
M  V30 3239 H 311.901 -1.64543 2.50132 0
M  V30 3240 H 309.447 -0.790185 1.20383 0
M  V30 3241 H 311.4 -3.90404 1.58628 0
M  V30 3242 H 310.124 -3.2195 0.549139 0
M  V30 3243 H 308.783 -2.59603 2.58847 0
M  V30 3244 H 308.431 -4.80839 1.47657 0
M  V30 3245 H 308.131 -4.9088 3.22972 0
M  V30 3246 H 309.655 -5.54775 2.55063 0
M  V30 3247 H 311.069 -3.94483 4.16 0
M  V30 3248 H 309.466 -3.54445 4.8424 0
M  V30 3249 H 310.536 -2.23855 4.30136 0
M  V30 3250 N 311.879 -1.3236 -0.855495 0
M  V30 3251 C 312.809 -1.23833 -1.97958 0
M  V30 3252 C 313.79 -0.122361 -1.69659 0
M  V30 3253 O 314.975 -0.30939 -1.9172 0
M  V30 3254 C 312.105 -0.959772 -3.33775 0
M  V30 3255 C 311.059 -2.03689 -3.76424 0
M  V30 3256 C 310.385 -1.61075 -5.09862 0
M  V30 3257 C 311.685 -3.4518 -3.9198 0
M  V30 3258 H 313.379 -2.1788 -2.0535 0
M  V30 3259 H 310.925 -1.04891 -0.986605 0
M  V30 3260 H 312.878 -0.886678 -4.11966 0
M  V30 3261 H 311.602 0.0163404 -3.26596 0
M  V30 3262 H 310.261 -2.10012 -3.00484 0
M  V30 3263 H 309.909 -0.622107 -4.99138 0
M  V30 3264 H 309.609 -2.33143 -5.39368 0
M  V30 3265 H 311.133 -1.55201 -5.90546 0
M  V30 3266 H 312.547 -3.4145 -4.60526 0
M  V30 3267 H 310.944 -4.1559 -4.32903 0
M  V30 3268 H 312.014 -3.84903 -2.94919 0
M  V30 3269 N 313.357 1.07166 -1.15556 0
M  V30 3270 C 314.287 2.16403 -0.877046 0
M  V30 3271 C 315.268 1.69217 0.173111 0
M  V30 3272 O 316.453 1.94181 0.027084 0
M  V30 3273 C 313.583 3.45349 -0.367632 0
M  V30 3274 C 312.537 4.05995 -1.35468 0
M  V30 3275 C 311.863 5.30045 -0.704038 0
M  V30 3276 C 313.163 4.45804 -2.72132 0
M  V30 3277 H 314.857 2.39959 -1.79053 0
M  V30 3278 H 312.403 1.15325 -0.862331 0
M  V30 3279 H 314.356 4.21095 -0.160317 0
M  V30 3280 H 313.08 3.21385 0.581326 0
M  V30 3281 H 311.739 3.32296 -1.54839 0
M  V30 3282 H 311.387 5.02373 0.251128 0
M  V30 3283 H 311.087 5.71579 -1.36277 0
M  V30 3284 H 312.611 6.08495 -0.50654 0
M  V30 3285 H 314.025 5.12671 -2.56595 0
M  V30 3286 H 312.422 4.98296 -3.34397 0
M  V30 3287 H 313.492 3.57083 -3.28054 0
M  V30 3288 N 314.835 0.952656 1.25548 0
M  V30 3289 C 315.783 0.462354 2.27958 0
M  V30 3290 C 316.777 -0.46634 1.62855 0
M  V30 3291 O 317.983 -0.343287 1.76696 0
M  V30 3292 H 314.358 0.13101 0.7405 0
M  V30 3293 H 316.329 1.33839 2.66702 0
M  V30 3294 C 315.078 -0.24628 3.46827 0
M  V30 3295 H 314.401 0.459192 3.97154 0
M  V30 3296 H 315.841 -0.553393 4.20373 0
M  V30 3297 C 314.3 -1.4681 3.0323 0
M  V30 3298 O 314.83 -2.56591 3.09069 0
M  V30 3299 N 313.036 -1.32874 2.58443 0
M  V30 3300 H 312.583 -0.435536 2.53891 0
M  V30 3301 H 312.541 -2.14742 2.29637 0
M  V30 3302 N 316.313 -1.40141 0.720998 0
M  V30 3303 C 317.538 -2.05618 0.271258 0
M  V30 3304 C 317.963 -1.53978 -1.08039 0
M  V30 3305 O 317.321 -0.677463 -1.68167 0
M  V30 3306 C 317.369 -3.59609 0.267197 0
M  V30 3307 O 316.473 -4.05526 -0.749814 0
M  V30 3308 H 315.814 -0.651904 0.126162 0
M  V30 3309 H 318.344 -1.79439 0.982997 0
M  V30 3310 H 318.354 -4.0786 0.106744 0
M  V30 3311 H 317.029 -3.96559 1.25354 0
M  V30 3312 H 315.606 -3.68722 -0.556644 0
M  V30 3313 N 317.792 -0.46758 -1.50504 0
M  V30 3314 C 319.041 0.0902868 -2.01498 0
M  V30 3315 C 319.354 1.411 -1.35463 0
M  V30 3316 O 320.56 2.0536 -1.77594 0
M  V30 3317 C 319.016 0.21142 -3.59278 0
M  V30 3318 C 318.624 -1.10065 -4.34269 0
M  V30 3319 C 320.368 0.721433 -4.18325 0
M  V30 3320 C 318.275 -0.943505 -5.83825 0
M  V30 3321 H 317.205 0.037517 -0.753066 0
M  V30 3322 H 319.856 -0.601943 -1.73346 0
M  V30 3323 H 318.238 0.967352 -3.84003 0
M  V30 3324 H 319.412 -1.86726 -4.21272 0
M  V30 3325 H 317.727 -1.5415 -3.86816 0
M  V30 3326 H 320.324 0.85598 -5.27804 0
M  V30 3327 H 320.667 1.71186 -3.79475 0
M  V30 3328 H 321.2 0.0229843 -3.97793 0
M  V30 3329 H 317.939 -1.90719 -6.27141 0
M  V30 3330 H 317.459 -0.217213 -5.99407 0
M  V30 3331 H 319.138 -0.608715 -6.4413 0
M  V30 3332 N 319.27 1.56325 -0.20005 0
M  V30 3333 C 320.202 2.16555 0.750771 0
M  V30 3334 C 321.215 1.12871 1.1732 0
M  V30 3335 O 322.404 1.39943 1.10807 0
M  V30 3336 C 319.504 2.71684 2.02586 0
M  V30 3337 C 318.677 4.00321 1.76244 0
M  V30 3338 C 317.736 4.40227 2.88248 0
M  V30 3339 O 316.762 5.07552 2.57642 0
M  V30 3340 N 317.964 4.04138 4.16717 0
M  V30 3341 H 320.729 2.98772 0.235685 0
M  V30 3342 H 318.29 1.6189 -0.0182594 0
M  V30 3343 H 320.282 2.95363 2.76664 0
M  V30 3344 H 318.852 1.93893 2.45202 0
M  V30 3345 H 318.072 3.84723 0.85919 0
M  V30 3346 H 319.36 4.84279 1.56048 0
M  V30 3347 H 318.758 3.49993 4.44434 0
M  V30 3348 H 317.315 4.32756 4.87407 0
M  V30 3349 N 320.748 -0.0735177 1.57428 0
M  V30 3350 C 321.68 -1.11423 2.00294 0
M  V30 3351 C 322.693 -1.35084 0.908637 0
M  V30 3352 O 323.882 -1.33355 1.18654 0
M  V30 3353 C 320.982 -2.46548 2.32523 0
M  V30 3354 C 320.155 -2.42867 3.63778 0
M  V30 3355 C 319.214 -3.60087 3.83697 0
M  V30 3356 O 318.24 -3.41595 4.55304 0
M  V30 3357 N 319.442 -4.80372 3.25919 0
M  V30 3358 H 322.207 -0.749206 2.90184 0
M  V30 3359 H 319.768 -0.262195 1.59763 0
M  V30 3360 H 321.76 -3.23607 2.43024 0
M  V30 3361 H 320.33 -2.75059 1.48531 0
M  V30 3362 H 319.55 -1.51206 3.64047 0
M  V30 3363 H 320.838 -2.37506 4.49965 0
M  V30 3364 H 320.236 -4.983 2.67795 0
M  V30 3365 H 318.793 -5.54948 3.41871 0
M  V30 3366 N 322.226 -1.5378 -0.344866 0
M  V30 3367 C 323.189 -1.80981 -1.40637 0
M  V30 3368 C 324.189 -0.680816 -1.45676 0
M  V30 3369 O 325.379 -0.949095 -1.46075 0
M  V30 3370 C 322.511 -1.95063 -2.79577 0
M  V30 3371 H 323.704 -2.75803 -1.17783 0
M  V30 3372 H 321.257 -1.45173 -0.579181 0
M  V30 3373 H 321.992 -1.02379 -3.07716 0
M  V30 3374 H 321.777 -2.77198 -2.77315 0
M  V30 3375 H 323.267 -2.17629 -3.56409 0
M  V30 3376 N 323.704 0.605807 -1.45491 0
M  V30 3377 C 324.952 1.36207 -1.49305 0
M  V30 3378 C 325.273 1.94519 -0.136863 0
M  V30 3379 O 324.543 1.77261 0.833983 0
M  V30 3380 H 323.123 0.50565 -0.549843 0
M  V30 3381 H 325.785 0.711239 -1.81459 0
M  V30 3382 H 324.881 2.18058 -2.23287 0
M  V30 3383 N 325.182 1.32811 0.848464 0
M  V30 3384 C 326.429 1.23724 1.60308 0
M  V30 3385 C 326.757 -0.1994 1.93475 0
M  V30 3386 O 326.012 -1.15406 1.5805 0
M  V30 3387 C 326.311 2.04831 2.92881 0
M  V30 3388 C 325.977 3.54125 2.79117 0
M  V30 3389 C 324.639 3.94829 2.7507 0
M  V30 3390 C 326.991 4.49036 2.64606 0
M  V30 3391 C 324.319 5.28675 2.544 0
M  V30 3392 C 326.671 5.83033 2.4547 0
M  V30 3393 C 325.335 6.22931 2.39819 0
M  V30 3394 H 324.605 0.452737 0.586609 0
M  V30 3395 H 327.252 1.64301 0.983743 0
M  V30 3396 H 325.557 1.57001 3.58968 0
M  V30 3397 H 327.254 1.95164 3.50303 0
M  V30 3398 H 323.844 3.21801 2.83094 0
M  V30 3399 H 328.028 4.18505 2.66772 0
M  V30 3400 H 323.284 5.58637 2.48465 0
M  V30 3401 H 327.458 6.56186 2.33222 0
M  V30 3402 H 325.085 7.26584 2.23562 0
M  V30 3403 N 326.66 -1.06551 1.16123 0
M  V30 3404 C 327.909 -1.78687 0.935622 0
M  V30 3405 C 328.222 -1.88056 -0.538001 0
M  V30 3406 O 329.428 -2.56794 -0.88143 0
M  V30 3407 C 327.884 -3.21143 1.62466 0
M  V30 3408 C 327.492 -3.19949 3.13587 0
M  V30 3409 C 329.236 -3.9783 1.48092 0
M  V30 3410 C 327.143 -4.57108 3.75241 0
M  V30 3411 H 326.073 -0.669712 0.346412 0
M  V30 3412 H 328.724 -1.19534 1.39226 0
M  V30 3413 H 327.106 -3.80539 1.09572 0
M  V30 3414 H 328.28 -2.70151 3.73303 0
M  V30 3415 H 326.595 -2.5676 3.27816 0
M  V30 3416 H 329.192 -4.99217 1.91538 0
M  V30 3417 H 329.535 -4.14078 0.429507 0
M  V30 3418 H 330.068 -3.4495 1.98127 0
M  V30 3419 H 326.807 -4.46065 4.80319 0
M  V30 3420 H 326.327 -5.07111 3.20309 0
M  V30 3421 H 328.006 -5.26069 3.76644 0
M  V30 3422 N 328.138 -0.959301 -1.25041 0
M  V30 3423 C 329.385 -0.616611 -1.92884 0
M  V30 3424 C 329.713 0.847036 -1.75087 0
M  V30 3425 O 328.968 1.62374 -1.09239 0
M  V30 3426 C 329.267 -0.927136 -3.45165 0
M  V30 3427 C 328.933 -2.37757 -3.83122 0
M  V30 3428 C 327.595 -2.77402 -3.93194 0
M  V30 3429 C 329.947 -3.31929 -4.01836 0
M  V30 3430 C 327.275 -4.10277 -4.19392 0
M  V30 3431 C 329.627 -4.64423 -4.29528 0
M  V30 3432 C 328.291 -5.03857 -4.37818 0
M  V30 3433 H 327.561 -0.225634 -0.705812 0
M  V30 3434 H 330.208 -1.20921 -1.48493 0
M  V30 3435 H 328.513 -0.252195 -3.90987 0
M  V30 3436 H 330.21 -0.6405 -3.95852 0
M  V30 3437 H 326.8 -2.06013 -3.75841 0
M  V30 3438 H 330.984 -3.02488 -3.93465 0
M  V30 3439 H 326.24 -4.40467 -4.24027 0
M  V30 3440 H 330.414 -5.37369 -4.42953 0
M  V30 3441 H 328.041 -6.06843 -4.57871 0
M  V30 3442 N 329.616 1.39756 -0.72842 0
M  V30 3443 C 330.864 2.00248 -0.272946 0
M  V30 3444 C 331.185 1.58077 1.14178 0
M  V30 3445 O 330.455 0.826014 1.77634 0
M  V30 3446 H 329.035 0.740554 -0.0979247 0
M  V30 3447 H 331.697 1.70903 -0.936912 0
M  V30 3448 H 330.793 3.10495 -0.316142 0
M  V30 3449 N 331.094 0.475555 1.50254 0
M  V30 3450 C 332.371 -0.139685 1.95101 0
M  V30 3451 C 332.751 -1.56555 1.41611 0
M  V30 3452 O 332.099 -2.19956 0.618993 0
M  V30 3453 C 332.309 -0.0784298 3.48912 0
M  V30 3454 C 333.657 -0.265095 4.23772 0
M  V30 3455 O 334.681 -0.154808 3.55863 0
M  V30 3456 O 333.54 -0.488327 5.44314 0
M  V30 3457 H 330.634 -0.109236 0.819754 0
M  V30 3458 H 333.18 0.536276 1.61004 0
M  V30 3459 H 331.952 0.916918 3.80405 0
M  V30 3460 H 331.575 -0.795655 3.89558 0
M  V30 3461 N 332.573 -1.56217 0.208337 0
M  V30 3462 C 333.506 -2.15633 -0.746842 0
M  V30 3463 C 334.484 -1.09685 -1.20034 0
M  V30 3464 O 335.668 -1.3787 -1.28547 0
M  V30 3465 C 332.795 -2.72594 -2.01023 0
M  V30 3466 C 331.841 -3.91251 -1.69779 0
M  V30 3467 S 332.674 -5.28962 -0.834209 0
M  V30 3468 C 333.83 -5.89353 -2.10745 0
M  V30 3469 H 334.063 -2.96315 -0.241789 0
M  V30 3470 H 331.596 -1.54398 -0.00682183 0
M  V30 3471 H 333.554 -3.06053 -2.73572 0
M  V30 3472 H 332.215 -1.91929 -2.48641 0
M  V30 3473 H 331.408 -4.29562 -2.63614 0
M  V30 3474 H 331.01 -3.58869 -1.05303 0
M  V30 3475 H 333.302 -6.04522 -3.05875 0
M  V30 3476 H 334.245 -6.85661 -1.76845 0
M  V30 3477 H 334.653 -5.1807 -2.24196 0
M  V30 3478 N 334.051 0.0651679 -1.57465 0
M  V30 3479 C 334.999 1.09542 -2.05191 0
M  V30 3480 C 335.993 1.39675 -0.958509 0
M  V30 3481 O 337.199 1.39003 -1.14359 0
M  V30 3482 H 333.574 0.370623 -0.654326 0
M  V30 3483 H 335.545 0.666802 -2.90854 0
M  V30 3484 C 334.294 2.39881 -2.51699 0
M  V30 3485 H 333.617 2.17547 -3.3543 0
M  V30 3486 H 335.057 3.104 -2.88839 0
M  V30 3487 C 333.516 3.0631 -1.40271 0
M  V30 3488 O 334.046 3.94664 -0.748523 0
M  V30 3489 N 332.252 2.67041 -1.14618 0
M  V30 3490 H 331.799 1.95281 -1.67997 0
M  V30 3491 H 331.757 3.1181 -0.402688 0
M  V30 3492 N 335.529 1.53961 0.336706 0
M  V30 3493 C 336.778 1.70751 1.07363 0
M  V30 3494 C 337.091 0.481061 1.89592 0
M  V30 3495 O 338.297 0.530046 2.66276 0
M  V30 3496 C 336.753 3.01965 1.95818 0
M  V30 3497 C 336.361 4.31971 1.18764 0
M  V30 3498 C 338.105 3.28121 2.69327 0
M  V30 3499 C 336.012 5.54255 2.06289 0
M  V30 3500 H 334.942 0.636292 0.404535 0
M  V30 3501 H 337.593 1.80459 0.332681 0
M  V30 3502 H 335.975 2.86132 2.7376 0
M  V30 3503 H 337.149 4.5853 0.456849 0
M  V30 3504 H 335.464 4.12481 0.569946 0
M  V30 3505 H 338.061 4.16673 3.35094 0
M  V30 3506 H 338.404 2.45426 3.36261 0
M  V30 3507 H 338.937 3.44762 1.98454 0
M  V30 3508 H 335.676 6.39513 1.43885 0
M  V30 3509 H 335.196 5.31935 2.77138 0
M  V30 3510 H 336.875 5.90159 2.65182 0
M  V30 3511 N 337.007 -0.598083 1.45811 0
M  V30 3512 C 338.237 -1.38121 1.53643 0
M  V30 3513 C 338.645 -1.88425 0.171081 0
M  V30 3514 O 337.988 -1.63409 -0.839237 0
M  V30 3515 C 338.05 -2.61432 2.46766 0
M  V30 3516 C 337.714 -2.32702 3.93318 0
M  V30 3517 C 338.711 -1.92479 4.82957 0
M  V30 3518 C 336.396 -2.45321 4.38318 0
M  V30 3519 C 338.39 -1.65248 6.15607 0
M  V30 3520 C 336.077 -2.17703 5.71007 0
M  V30 3521 C 337.075 -1.7773 6.5947 0
M  V30 3522 O 336.763 -1.50441 7.89698 0
M  V30 3523 H 336.495 -0.428863 0.522544 0
M  V30 3524 H 339.049 -0.73557 1.91777 0
M  V30 3525 H 337.279 -3.28749 2.0362 0
M  V30 3526 H 338.968 -3.23487 2.45175 0
M  V30 3527 H 339.734 -1.82258 4.49452 0
M  V30 3528 H 335.613 -2.75399 3.69697 0
M  V30 3529 H 339.157 -1.33973 6.84614 0
M  V30 3530 H 335.054 -2.27544 6.04065 0
M  V30 3531 H 335.822 -1.64415 8.01817 0
M  V30 3532 N 338.485 -1.33259 -0.841409 0
M  V30 3533 C 339.435 -1.19872 -1.93945 0
M  V30 3534 C 340.419 -0.102269 -1.60575 0
M  V30 3535 O 341.611 -0.330114 -1.73894 0
M  V30 3536 C 338.74 -0.937517 -3.30251 0
M  V30 3537 C 337.826 -2.07629 -3.69799 0
M  V30 3538 N 338.217 -3.32604 -3.81062 0
M  V30 3539 C 336.515 -1.98242 -3.9952 0
M  V30 3540 C 337.216 -4.07275 -4.15333 0
M  V30 3541 N 336.192 -3.35691 -4.27566 0
M  V30 3542 H 339.994 -2.14604 -2.00805 0
M  V30 3543 H 337.508 -1.2523 -1.03398 0
M  V30 3544 H 339.505 -0.822545 -4.08705 0
M  V30 3545 H 338.165 0.00128798 -3.247 0
M  V30 3546 H 339.176 -3.67382 -3.65035 0
M  V30 3547 H 335.853 -1.12005 -4.02195 0
M  V30 3548 H 337.243 -5.1511 -4.31406 0
M  V30 3549 N 339.963 1.05934 -1.16686 0
M  V30 3550 C 341.379 1.30938 -0.912542 0
M  V30 3551 C 341.579 1.96803 0.432533 0
M  V30 3552 O 340.635 2.23693 1.17123 0
M  V30 3553 C 341.948 2.18649 -2.06429 0
M  V30 3554 C 343.496 2.32055 -2.10047 0
M  V30 3555 C 343.971 3.23122 -3.24586 0
M  V30 3556 N 345.462 3.30706 -3.24327 0
M  V30 3557 C 346.197 4.01273 -4.09594 0
M  V30 3558 N 345.693 4.74332 -5.04956 0
M  V30 3559 N 347.486 3.97361 -3.97569 0
M  V30 3560 H 339.637 0.615777 -2.03278 0
M  V30 3561 H 341.9 0.334077 -0.887185 0
M  V30 3562 H 341.606 1.77534 -3.03603 0
M  V30 3563 H 341.48 3.19252 -2.00894 0
M  V30 3564 H 343.867 2.72415 -1.13464 0
M  V30 3565 H 343.948 1.31107 -2.19647 0
M  V30 3566 H 343.592 2.83477 -4.2143 0
M  V30 3567 H 343.522 4.24057 -3.12223 0
M  V30 3568 H 346.013 2.78644 -2.55276 0
M  V30 3569 H 346.326 5.25716 -5.6643 0
M  V30 3570 H 344.671 4.733 -5.08933 0
M  V30 3571 H 347.862 3.39405 -3.22369 0
M  V30 3572 H 348.035 4.52089 -4.64241 0
M  V30 3573 N 341.441 0.965919 1.2453 0
M  V30 3574 C 342.391 0.465731 2.23193 0
M  V30 3575 C 343.375 -0.451277 1.54442 0
M  V30 3576 O 344.567 -0.282489 1.74731 0
M  V30 3577 C 341.696 -0.244511 3.42428 0
M  V30 3578 C 340.782 0.691222 4.18429 0
M  V30 3579 N 341.173 1.82771 4.71623 0
M  V30 3580 C 339.471 0.501649 4.4317 0
M  V30 3581 C 340.172 2.41285 5.29298 0
M  V30 3582 N 339.148 1.69819 5.16394 0
M  V30 3583 H 342.95 1.33291 2.61937 0
M  V30 3584 H 340.464 0.824789 1.39896 0
M  V30 3585 H 342.461 -0.620056 4.12263 0
M  V30 3586 H 341.121 -1.10815 3.05205 0
M  V30 3587 H 342.132 2.20929 4.68413 0
M  V30 3588 H 338.809 -0.318177 4.16286 0
M  V30 3589 H 340.199 3.37181 5.8117 0
M  V30 3590 N 342.919 -1.39368 0.735821 0
M  V30 3591 C 343.849 -2.33234 0.111506 0
M  V30 3592 C 344.83 -1.53954 -0.723334 0
M  V30 3593 O 346.015 -1.82344 -0.668147 0
M  V30 3594 C 343.145 -3.38057 -0.795917 0
M  V30 3595 C 342.099 -4.2795 -0.065172 0
M  V30 3596 C 341.425 -5.23479 -1.08967 0
M  V30 3597 C 342.725 -5.10741 1.09273 0
M  V30 3598 H 344.419 -2.85692 0.895571 0
M  V30 3599 H 341.965 -1.37364 0.432109 0
M  V30 3600 H 343.918 -4.02675 -1.24221 0
M  V30 3601 H 342.642 -2.8404 -1.61211 0
M  V30 3602 H 341.301 -3.64813 0.361511 0
M  V30 3603 H 340.949 -4.65758 -1.89944 0
M  V30 3604 H 340.649 -5.84472 -0.605489 0
M  V30 3605 H 342.173 -5.90974 -1.53565 0
M  V30 3606 H 343.587 -5.68699 0.724841 0
M  V30 3607 H 341.984 -5.8088 1.50659 0
M  V30 3608 H 343.054 -4.45525 1.91404 0
M  V30 3609 N 344.397 -0.483516 -1.5 0
M  V30 3610 C 345.622 0.0667119 -2.07293 0
M  V30 3611 C 346.047 1.3164 -1.3436 0
M  V30 3612 O 345.405 1.76945 -0.394987 0
M  V30 3613 C 345.453 0.321126 -3.59167 0
M  V30 3614 O 344.557 1.39927 -3.87936 0
M  V30 3615 H 343.898 -0.0184758 -0.663743 0
M  V30 3616 H 346.428 -0.678125 -1.93035 0
M  V30 3617 H 346.438 0.557906 -4.04168 0
M  V30 3618 H 345.113 -0.592007 -4.11665 0
M  V30 3619 H 343.69 1.14882 -3.54763 0
M  V30 3620 N 345.875 1.56104 -0.216619 0
M  V30 3621 C 347.286 1.844 0.292128 0
M  V30 3622 C 347.637 1.13788 1.59833 0
M  V30 3623 O 346.762 0.405888 2.12559 0
M  V30 3624 C 347.357 3.3452 0.53681 0
M  V30 3625 C 345.916 3.63151 0.989876 0
M  V30 3626 C 345.063 2.77255 0.0502302 0
M  V30 3627 H 348.014 1.52481 -0.439926 0
M  V30 3628 H 348.035 3.54459 1.38345 0
M  V30 3629 H 347.547 3.85885 -0.414031 0
M  V30 3630 H 345.648 3.17238 1.95425 0
M  V30 3631 H 345.761 4.71177 0.867698 0
M  V30 3632 H 344.125 2.48555 0.556117 0
M  V30 3633 H 344.908 3.31416 -0.89544 0
M  V30 3634 N 347.353 -0.0568162 1.57498 0
M  V30 3635 C 348.63 -0.786954 1.79071 0
M  V30 3636 C 349.01 -1.95028 0.80792 0
M  V30 3637 O 348.358 -2.27968 -0.155858 0
M  V30 3638 C 348.568 -1.24594 3.26002 0
M  V30 3639 C 349.916 -1.67323 3.90241 0
M  V30 3640 O 350.94 -1.34124 3.29984 0
M  V30 3641 O 349.799 -2.28842 4.9628 0
M  V30 3642 H 346.893 -0.378262 0.735423 0
M  V30 3643 H 349.439 -0.035734 1.69662 0
M  V30 3644 H 348.211 -0.41423 3.89101 0
M  V30 3645 H 347.834 -2.05803 3.40192 0
M  V30 3646 N 348.832 -1.54138 -0.328536 0
M  V30 3647 C 350.08 -1.71765 -1.06496 0
M  V30 3648 C 350.401 -0.49149 -1.88704 0
M  V30 3649 O 349.671 0.494539 -1.89555 0
M  V30 3650 H 348.251 -0.633295 -0.396164 0
M  V30 3651 H 350.913 -1.91429 -0.366176 0
M  V30 3652 H 350.009 -2.5951 -1.73381 0
M  V30 3653 N 350.31 0.590341 -1.46126 0
M  V30 3654 C 351.535 1.37991 -1.54833 0
M  V30 3655 C 351.96 1.87163 -0.187506 0
M  V30 3656 O 351.318 1.61133 0.831008 0
M  V30 3657 C 351.366 2.54867 -2.55098 0
M  V30 3658 O 350.47 3.56061 -2.08073 0
M  V30 3659 H 349.811 0.411265 -0.521303 0
M  V30 3660 H 352.341 0.716819 -1.91632 0
M  V30 3661 H 352.351 3.01886 -2.74461 0
M  V30 3662 H 351.026 2.18429 -3.53923 0
M  V30 3663 H 349.603 3.15574 -1.98664 0
M  V30 3664 N 351.788 1.33704 0.83433 0
M  V30 3665 C 353.036 1.25169 1.58673 0
M  V30 3666 C 353.357 -0.18127 1.94156 0
M  V30 3667 O 352.627 -1.11113 1.6134 0
M  V30 3668 H 351.207 0.4603 0.58833 0
M  V30 3669 H 353.869 1.67478 0.996847 0
M  V30 3670 H 352.965 1.84856 2.51465 0
M  V30 3671 N 353.266 -1.05314 1.17247 0
M  V30 3672 C 354.677 -1.59753 0.96623 0
M  V30 3673 C 355.028 -1.9005 -0.487378 0
M  V30 3674 O 354.153 -1.68126 -1.36245 0
M  V30 3675 C 354.748 -2.90249 1.74759 0
M  V30 3676 C 353.307 -3.41352 1.58606 0
M  V30 3677 C 352.454 -2.15103 1.75002 0
M  V30 3678 H 355.405 -0.881406 1.31973 0
M  V30 3679 H 355.426 -3.60097 1.22925 0
M  V30 3680 H 354.938 -2.68166 2.8055 0
M  V30 3681 H 353.039 -3.68474 0.552985 0
M  V30 3682 H 353.152 -4.16019 2.37624 0
M  V30 3683 H 351.516 -2.25804 1.17833 0
M  V30 3684 H 352.299 -1.95491 2.82202 0
M  V30 3685 N 354.744 -0.972509 -1.24016 0
M  V30 3686 C 355.707 -0.511403 -2.23422 0
M  V30 3687 C 356.707 0.394679 -1.55881 0
M  V30 3688 O 357.897 0.189469 -1.73167 0
M  V30 3689 C 355.029 0.258769 -3.39916 0
M  V30 3690 H 356.222 -1.39024 -2.6573 0
M  V30 3691 H 353.775 -0.757585 -1.36713 0
M  V30 3692 H 354.51 1.1545 -3.03054 0
M  V30 3693 H 354.295 -0.391522 -3.9014 0
M  V30 3694 H 355.785 0.570244 -4.13688 0
M  V30 3695 N 356.222 1.38976 -0.743202 0
M  V30 3696 C 357.152 2.33171 -0.123873 0
M  V30 3697 C 358.133 1.54336 0.71516 0
M  V30 3698 O 359.318 1.82696 0.658467 0
M  V30 3699 C 356.448 3.38474 0.777978 0
M  V30 3700 C 355.402 4.27979 0.0424758 0
M  V30 3701 C 354.728 5.2405 1.06189 0
M  V30 3702 C 356.028 5.10155 -1.1198 0
M  V30 3703 H 357.722 2.85213 -0.910709 0
M  V30 3704 H 355.268 1.37133 -0.439388 0
M  V30 3705 H 357.221 4.03328 1.22084 0
M  V30 3706 H 355.945 2.84891 1.59702 0
M  V30 3707 H 354.604 3.64616 -0.380853 0
M  V30 3708 H 354.252 4.66758 1.87472 0
M  V30 3709 H 353.952 5.84785 0.574485 0
M  V30 3710 H 355.476 5.9178 1.50428 0
M  V30 3711 H 356.89 5.68307 -0.75499 0
M  V30 3712 H 355.287 5.80073 -1.53738 0
M  V30 3713 H 356.357 4.44504 -1.93764 0
M  V30 3714 N 357.7 0.491464 1.49741 0
M  V30 3715 C 358.947 -0.0564256 2.02421 0
M  V30 3716 C 359.275 -1.37872 1.37192 0
M  V30 3717 O 358.53 -1.89375 0.493508 0
M  V30 3718 C 358.829 -0.267329 3.56399 0
M  V30 3719 C 358.495 0.975775 4.40215 0
M  V30 3720 C 357.157 1.31655 4.62839 0
M  V30 3721 C 359.509 1.80251 4.89039 0
M  V30 3722 C 356.837 2.48375 5.31532 0
M  V30 3723 C 359.189 2.96116 5.59015 0
M  V30 3724 C 357.853 3.30585 5.79888 0
M  V30 3725 H 357.123 -0.0206476 0.740712 0
M  V30 3726 H 359.77 0.649686 1.80143 0
M  V30 3727 H 358.075 -1.05588 3.77304 0
M  V30 3728 H 359.772 -0.705549 3.94744 0
M  V30 3729 H 356.362 0.700315 4.2284 0
M  V30 3730 H 360.546 1.55239 4.71396 0
M  V30 3731 H 355.802 2.7533 5.45897 0
M  V30 3732 H 359.976 3.60509 5.95824 0
M  V30 3733 H 357.603 4.21132 6.32892 0
M  V30 3734 N 359.178 -1.55987 0.224894 0
M  V30 3735 C 360.403 -2.03232 -0.41369 0
M  V30 3736 C 360.828 -1.10359 -1.52323 0
M  V30 3737 O 360.186 -0.092395 -1.81064 0
M  V30 3738 C 360.234 -3.48682 -0.919405 0
M  V30 3739 O 359.338 -3.58947 -2.03054 0
M  V30 3740 H 358.679 -0.657428 -0.0931903 0
M  V30 3741 H 361.209 -2.01679 0.34451 0
M  V30 3742 H 361.219 -3.8907 -1.22835 0
M  V30 3743 H 359.894 -4.15761 -0.107339 0
M  V30 3744 H 358.471 -3.30448 -1.72796 0
M  V30 3745 N 360.656 0.0484629 -1.57525 0
M  V30 3746 C 361.586 1.0549 -2.08313 0
M  V30 3747 C 362.567 1.38929 -0.981463 0
M  V30 3748 O 363.752 1.48151 -1.25558 0
M  V30 3749 C 360.882 2.36162 -2.54646 0
M  V30 3750 C 359.836 2.17016 -3.68901 0
M  V30 3751 C 359.162 3.53278 -4.01371 0
M  V30 3752 C 360.462 1.57219 -4.98076 0
M  V30 3753 H 362.156 0.632195 -2.92649 0
M  V30 3754 H 359.702 0.302654 -1.40784 0
M  V30 3755 H 361.655 3.06882 -2.88793 0
M  V30 3756 H 360.379 2.80456 -1.67368 0
M  V30 3757 H 359.038 1.48733 -3.35073 0
M  V30 3758 H 358.686 3.95185 -3.11188 0
M  V30 3759 H 358.386 3.41299 -4.78318 0
M  V30 3760 H 359.91 4.25391 -4.38035 0
M  V30 3761 H 361.324 2.17832 -5.30304 0
M  V30 3762 H 359.721 1.55871 -5.79503 0
M  V30 3763 H 360.791 0.535956 -4.81929 0
M  V30 3764 N 362.134 1.5431 0.320358 0
M  V30 3765 C 363.097 1.83195 1.3774 0
M  V30 3766 C 364.097 0.703906 1.44575 0
M  V30 3767 O 365.287 0.972214 1.44546 0
M  V30 3768 C 362.419 1.99487 2.76438 0
M  V30 3769 H 363.612 2.77642 1.1338 0
M  V30 3770 H 361.165 1.46076 0.556012 0
M  V30 3771 H 361.9 1.07262 3.06048 0
M  V30 3772 H 361.685 2.81575 2.7287 0
M  V30 3773 H 363.175 2.23271 3.52902 0
M  V30 3774 N 363.613 -0.582584 1.46437 0
M  V30 3775 C 364.561 -1.71272 1.5738 0
M  V30 3776 C 365.555 -1.63524 0.44229 0
M  V30 3777 O 366.761 -1.69016 0.619166 0
M  V30 3778 H 363.136 -0.566273 0.494813 0
M  V30 3779 H 365.107 -1.59174 2.52401 0
M  V30 3780 C 363.856 -3.09658 1.58136 0
M  V30 3781 H 363.179 -3.16291 2.44541 0
M  V30 3782 H 364.619 -3.88494 1.69847 0
M  V30 3783 C 363.078 -3.3547 0.310026 0
M  V30 3784 O 363.608 -3.97199 -0.599683 0
M  V30 3785 N 361.814 -2.89925 0.197901 0
M  V30 3786 H 361.361 -2.39873 0.93909 0
M  V30 3787 H 361.319 -3.07568 -0.65185 0
M  V30 3788 N 365.091 -1.34144 -0.827227 0
M  V30 3789 C 366.024 -1.19707 -1.94282 0
M  V30 3790 C 367.002 -0.0897256 -1.62352 0
M  V30 3791 O 368.186 -0.254095 -1.8678 0
M  V30 3792 C 365.313 -0.838646 -3.28153 0
M  V30 3793 C 364.359 -1.95514 -3.79047 0
M  V30 3794 S 365.192 -3.56793 -3.99323 0
M  V30 3795 C 366.348 -3.22983 -5.36127 0
M  V30 3796 H 366.581 -2.1414 -2.06231 0
M  V30 3797 H 364.114 -1.19121 -0.982321 0
M  V30 3798 H 366.072 -0.638637 -4.05502 0
M  V30 3799 H 364.733 0.0872776 -3.13979 0
M  V30 3800 H 363.926 -1.658 -4.75948 0
M  V30 3801 H 363.528 -2.11241 -3.08631 0
M  V30 3802 H 365.82 -2.74531 -6.19386 0
M  V30 3803 H 366.763 -4.19008 -5.70822 0
M  V30 3804 H 367.171 -2.59276 -5.01434 0
M  V30 3805 N 366.569 1.04691 -1.17803 0
M  V30 3806 C 367.815 1.78045 -0.970969 0
M  V30 3807 C 368.148 1.87686 0.498751 0
M  V30 3808 O 367.423 1.38035 1.37027 0
M  V30 3809 C 367.706 3.2166 -1.61884 0
M  V30 3810 C 367.559 3.20001 -3.161 0
M  V30 3811 C 368.878 4.1962 -1.3269 0
M  V30 3812 H 365.997 0.64633 -0.354155 0
M  V30 3813 H 368.639 1.22333 -1.45378 0
M  V30 3814 H 366.789 3.69232 -1.20831 0
M  V30 3815 H 368.461 2.80467 -3.66246 0
M  V30 3816 H 366.704 2.58203 -3.48588 0
M  V30 3817 H 367.375 4.21386 -3.56564 0
M  V30 3818 H 369.851 3.80567 -1.68249 0
M  V30 3819 H 368.727 5.18339 -1.80599 0
M  V30 3820 H 368.988 4.414 -0.248622 0
M  V30 3821 N 368.047 0.979072 1.23499 0
M  V30 3822 C 368.994 0.517904 2.24914 0
M  V30 3823 C 369.964 -0.442525 1.60097 0
M  V30 3824 O 371.149 -0.350365 1.87556 0
M  V30 3825 C 368.289 -0.174813 3.44657 0
M  V30 3826 C 367.402 0.825721 4.24035 0
M  V30 3827 C 366.537 0.107946 5.3109 0
M  V30 3828 C 365.576 1.09778 6.02175 0
M  V30 3829 N 364.713 0.40925 7.00906 0
M  V30 3830 H 369.553 1.38751 2.63727 0
M  V30 3831 H 367.09 0.695303 1.2963 0
M  V30 3832 H 369.048 -0.593233 4.12961 0
M  V30 3833 H 367.678 -1.0083 3.06648 0
M  V30 3834 H 366.73 1.36253 3.55161 0
M  V30 3835 H 368.042 1.58005 4.73113 0
M  V30 3836 H 367.196 -0.367904 6.05583 0
M  V30 3837 H 365.935 -0.678994 4.8295 0
M  V30 3838 H 364.94 1.5844 5.26476 0
M  V30 3839 H 366.165 1.88536 6.52404 0
M  V30 3840 H 364.111 -0.358506 6.5502 0
M  V30 3841 H 364.028 1.10226 7.47921 0
M  V30 3842 H 365.296 -0.0442557 7.79487 0
M  V30 3843 N 369.525 -1.3858 0.750561 0
M  V30 3844 C 370.936 -1.82927 0.373438 0
M  V30 3845 C 371.287 -1.62634 -1.09748 0
M  V30 3846 O 370.412 -1.12588 -1.84805 0
M  V30 3847 C 371.007 -3.32088 0.671029 0
M  V30 3848 C 369.566 -3.74795 0.34722 0
M  V30 3849 C 368.713 -2.61391 0.92575 0
M  V30 3850 H 371.664 -1.27351 0.946958 0
M  V30 3851 H 371.685 -3.80465 -0.0518269 0
M  V30 3852 H 371.197 -3.46826 1.74164 0
M  V30 3853 H 369.298 -3.65638 -0.716933 0
M  V30 3854 H 369.411 -4.71667 0.840656 0
M  V30 3855 H 367.775 -2.52265 0.351327 0
M  V30 3856 H 368.558 -2.78929 2.00133 0
M  V30 3857 N 371.003 -0.499398 -1.49478 0
M  V30 3858 C 372.251 0.0455996 -2.02049 0
M  V30 3859 C 372.572 1.37633 -1.38138 0
M  V30 3860 O 371.842 1.8842 -0.536166 0
M  V30 3861 H 370.422 0.0198416 -0.746736 0
M  V30 3862 H 373.084 -0.656274 -1.83519 0
M  V30 3863 H 372.18 0.176445 -3.11601 0
M  V30 3864 N 372.481 1.55866 -0.233164 0
M  V30 3865 C 373.709 2.02998 0.399905 0
M  V30 3866 C 374.124 1.11274 1.52524 0
M  V30 3867 O 373.481 0.124528 1.82075 0
M  V30 3868 C 373.532 3.4958 0.920639 0
M  V30 3869 O 373.253 4.37808 -0.159834 0
M  V30 3870 C 374.754 4.12411 1.62578 0
M  V30 3871 H 371.974 0.664006 0.0966281 0
M  V30 3872 H 374.518 2.0143 -0.353013 0
M  V30 3873 H 372.673 3.51727 1.62379 0
M  V30 3874 H 373.087 5.23981 0.23337 0
M  V30 3875 H 374.561 5.16711 1.94201 0
M  V30 3876 H 375.038 3.5809 2.54299 0
M  V30 3877 H 375.644 4.14148 0.967553 0
M  V30 3878 N 373.959 -0.0401083 1.57549 0
M  V30 3879 C 375.206 -0.733125 1.88763 0
M  V30 3880 C 375.534 -1.75946 0.829058 0
M  V30 3881 O 374.789 -1.94949 -0.171323 0
M  V30 3882 C 375.088 -1.44902 3.26708 0
M  V30 3883 C 374.754 -0.559707 4.47413 0
M  V30 3884 C 373.416 -0.314731 4.8017 0
M  V30 3885 C 375.768 0.0549743 5.21171 0
M  V30 3886 C 373.096 0.553886 5.8408 0
M  V30 3887 C 375.448 0.911229 6.26003 0
M  V30 3888 C 374.112 1.16577 6.57241 0
M  V30 3889 H 373.382 -0.268269 0.690733 0
M  V30 3890 H 376.029 0.00679408 1.91499 0
M  V30 3891 H 374.334 -2.26197 3.1991 0
M  V30 3892 H 376.031 -1.99058 3.48105 0
M  V30 3893 H 372.621 -0.760793 4.21794 0
M  V30 3894 H 376.805 -0.121344 4.96152 0
M  V30 3895 H 372.061 0.759518 6.06664 0
M  V30 3896 H 376.235 1.3941 6.82303 0
M  V30 3897 H 373.862 1.84058 7.37582 0
M  V30 3898 N 375.437 -1.54477 -0.31217 0
M  V30 3899 C 376.714 -1.63891 -1.06767 0
M  V30 3900 C 377.094 -0.480028 -2.0557 0
M  V30 3901 O 376.442 0.524487 -2.22399 0
M  V30 3902 C 376.652 -3.01402 -1.75948 0
M  V30 3903 C 378 -3.57838 -2.28554 0
M  V30 3904 O 379.024 -3.03782 -1.85998 0
M  V30 3905 O 377.883 -4.52462 -3.06497 0
M  V30 3906 H 374.977 -0.664125 -0.492816 0
M  V30 3907 H 377.523 -1.66823 -0.311149 0
M  V30 3908 H 376.295 -3.77187 -1.04144 0
M  V30 3909 H 375.918 -3.02199 -2.58383 0
M  V30 3910 N 376.915 0.57481 -1.46744 0
M  V30 3911 C 378.326 1.15695 -1.46532 0
M  V30 3912 C 378.677 1.95068 -0.210425 0
M  V30 3913 O 377.802 2.05241 0.685944 0
M  V30 3914 C 378.397 2.1048 -2.65487 0
M  V30 3915 C 376.956 2.64002 -2.68291 0
M  V30 3916 C 376.103 1.40026 -2.39349 0
M  V30 3917 H 379.054 0.362325 -1.54509 0
M  V30 3918 H 379.075 2.94074 -2.41455 0
M  V30 3919 H 378.587 1.52683 -3.56805 0
M  V30 3920 H 376.688 3.25646 -1.81067 0
M  V30 3921 H 376.801 3.06197 -3.68483 0
M  V30 3922 H 375.165 1.70106 -1.89568 0
M  V30 3923 H 375.948 0.840485 -3.32852 0
M  V30 3924 N 378.394 1.34581 0.820102 0
M  V30 3925 C 379.304 1.28471 1.96297 0
M  V30 3926 C 380.32 0.191902 1.72939 0
M  V30 3927 O 381.496 0.418879 1.96996 0
M  V30 3928 C 378.561 1.04281 3.30645 0
M  V30 3929 C 377.622 2.22745 3.66992 0
M  V30 3930 C 376.855 1.997 4.9493 0
M  V30 3931 O 377.078 0.956656 5.6232 0
M  V30 3932 O 376.012 2.86723 5.2922 0
M  V30 3933 H 379.838 2.24624 2.04396 0
M  V30 3934 H 377.423 1.14816 0.955913 0
M  V30 3935 H 379.305 0.925841 4.11104 0
M  V30 3936 H 377.98 0.111697 3.23507 0
M  V30 3937 H 376.887 2.40003 2.86966 0
M  V30 3938 H 378.22 3.14257 3.78819 0
M  V30 3939 N 379.872 -1.04064 1.18357 0
M  V30 3940 C 380.805 -2.11618 0.854 0
M  V30 3941 C 381.783 -1.61555 -0.184043 0
M  V30 3942 O 382.967 -1.88395 -0.0630048 0
M  V30 3943 C 380.094 -3.37574 0.27597 0
M  V30 3944 C 379.14 -4.06485 1.2912 0
M  V30 3945 S 379.973 -4.53543 2.84709 0
M  V30 3946 C 381.129 -5.82732 2.28417 0
M  V30 3947 H 381.362 -2.39247 1.76488 0
M  V30 3948 H 378.895 -1.16832 1.00944 0
M  V30 3949 H 380.853 -4.10468 -0.051026 0
M  V30 3950 H 379.514 -3.0806 -0.613028 0
M  V30 3951 H 378.707 -4.97024 0.835633 0
M  V30 3952 H 378.309 -3.39708 1.56443 0
M  V30 3953 H 380.601 -6.56677 1.66677 0
M  V30 3954 H 381.544 -6.33052 3.17256 0
M  V30 3955 H 381.952 -5.37838 1.71436 0
M  V30 3956 N 381.35 -0.985608 -1.22978 0
M  V30 3957 C 382.297 -0.529825 -2.24636 0
M  V30 3958 C 383.267 0.434028 -1.60329 0
M  V30 3959 O 384.452 0.340414 -1.87739 0
M  V30 3960 C 381.592 0.156533 -3.44745 0
M  V30 3961 C 380.705 -0.848197 -4.23591 0
M  V30 3962 C 379.84 -0.136109 -5.31026 0
M  V30 3963 C 378.879 -1.1297 -6.01585 0
M  V30 3964 N 378.016 -0.446415 -7.00679 0
M  V30 3965 H 382.856 -1.40148 -2.62988 0
M  V30 3966 H 380.393 -0.702168 -1.29259 0
M  V30 3967 H 382.351 0.571324 -4.1327 0
M  V30 3968 H 380.981 0.992025 -3.07179 0
M  V30 3969 H 380.033 -1.38135 -3.54433 0
M  V30 3970 H 381.345 -1.60512 -4.72268 0
M  V30 3971 H 380.499 0.335784 -6.0577 0
M  V30 3972 H 379.238 0.653373 -4.83304 0
M  V30 3973 H 378.243 -1.6123 -5.25628 0
M  V30 3974 H 379.468 -1.91993 -6.51395 0
M  V30 3975 H 377.414 0.323763 -6.55201 0
M  V30 3976 H 377.331 -1.1419 -7.47326 0
M  V30 3977 H 378.599 0.00291697 -7.795 0
M  V30 3978 N 382.828 1.3818 -0.7579 0
M  V30 3979 C 384.105 1.94106 -0.241306 0
M  V30 3980 C 384.485 1.69282 1.26122 0
M  V30 3981 O 383.833 1.03378 2.03777 0
M  V30 3982 C 384.043 3.43809 -0.59967 0
M  V30 3983 C 385.391 4.20868 -0.561717 0
M  V30 3984 O 386.415 3.5211 -0.538222 0
M  V30 3985 O 385.274 5.43451 -0.576478 0
M  V30 3986 H 382.368 0.825376 -0.0518042 0
M  V30 3987 H 384.914 1.47548 -0.838315 0
M  V30 3988 H 383.686 3.55403 -1.6372 0
M  V30 3989 H 383.309 3.97592 0.0251197 0
M  V30 3990 N 384.306 0.507319 1.49211 0
M  V30 3991 C 385.553 -0.0349529 2.0247 0
M  V30 3992 C 385.881 -1.36409 1.38647 0
M  V30 3993 O 385.136 -1.88841 0.513566 0
M  V30 3994 C 385.435 -0.229513 3.56662 0
M  V30 3995 C 385.101 1.02241 4.39156 0
M  V30 3996 C 383.763 1.36557 4.61417 0
M  V30 3997 C 386.115 1.85428 4.871 0
M  V30 3998 C 383.443 2.53999 5.28868 0
M  V30 3999 C 385.795 3.02028 5.55843 0
M  V30 4000 C 384.459 3.36717 5.76349 0
M  V30 4001 H 383.729 -0.0127902 0.74089 0
M  V30 4002 H 386.376 0.668756 1.79443 0
M  V30 4003 H 384.681 -1.0158 3.78403 0
M  V30 4004 H 386.378 -0.663641 3.9547 0
M  V30 4005 H 382.968 0.745124 4.22073 0
M  V30 4006 H 387.152 1.6023 4.69723 0
M  V30 4007 H 382.408 2.81105 5.42946 0
M  V30 4008 H 386.582 3.66808 5.91967 0
M  V30 4009 H 384.209 4.27821 6.28389 0
M  V30 4010 N 385.784 -1.5574 0.241426 0
M  V30 4011 C 387.012 -2.03208 -0.389134 0
M  V30 4012 C 387.427 -1.12082 -1.51931 0
M  V30 4013 O 386.784 -0.134183 -1.82006 0
M  V30 4014 C 386.835 -3.50064 -0.902087 0
M  V30 4015 O 386.556 -4.37717 0.18305 0
M  V30 4016 C 388.057 -4.13268 -1.60389 0
M  V30 4017 H 385.277 -0.664509 -0.0931053 0
M  V30 4018 H 387.821 -2.0124 0.36369 0
M  V30 4019 H 385.976 -3.52583 -1.60511 0
M  V30 4020 H 386.39 -5.24097 -0.205579 0
M  V30 4021 H 387.864 -5.17733 -1.91458 0
M  V30 4022 H 388.341 -3.59434 -2.52397 0
M  V30 4023 H 388.947 -4.14655 -0.945576 0
M  V30 4024 N 387.262 0.0317525 -1.57568 0
M  V30 4025 C 388.49 0.734949 -1.93407 0
M  V30 4026 C 388.905 1.69036 -0.84096 0
M  V30 4027 O 388.262 1.81582 0.182836 0
M  V30 4028 C 388.313 1.49432 -3.29169 0
M  V30 4029 O 388.034 0.577261 -4.3428 0
M  V30 4030 C 389.535 2.29492 -3.79273 0
M  V30 4031 H 386.755 0.206706 -0.638368 0
M  V30 4032 H 389.299 -0.00992046 -2.04498 0
M  V30 4033 H 387.454 2.1911 -3.19483 0
M  V30 4034 H 387.868 1.10952 -5.1263 0
M  V30 4035 H 389.342 2.78172 -4.76785 0
M  V30 4036 H 389.819 3.10794 -3.10328 0
M  V30 4037 H 390.425 1.64894 -3.92033 0
M  V30 4038 N 388.74 1.54641 0.303973 0
M  V30 4039 C 390.151 1.64811 0.877163 0
M  V30 4040 C 390.502 0.554838 1.88191 0
M  V30 4041 O 389.627 -0.309033 2.14182 0
M  V30 4042 C 390.222 2.9876 1.59775 0
M  V30 4043 C 388.781 3.11061 2.11938 0
M  V30 4044 C 387.928 2.60479 0.951097 0
M  V30 4045 H 390.879 1.58493 0.0810486 0
M  V30 4046 H 390.9 2.90017 2.46314 0
M  V30 4047 H 390.412 3.7831 0.866226 0
M  V30 4048 H 388.513 2.36225 2.88146 0
M  V30 4049 H 388.626 4.17171 2.35595 0
M  V30 4050 H 386.99 2.16859 1.33583 0
M  V30 4051 H 387.773 3.42504 0.233581 0
M  V30 4052 N 390.218 -0.567019 1.47046 0
M  V30 4053 C 391.466 -1.322 1.52864 0
M  V30 4054 C 391.787 -1.94088 0.188388 0
M  V30 4055 O 391.057 -1.7941 -0.786693 0
M  V30 4056 H 389.637 -0.490894 0.563056 0
M  V30 4057 H 392.299 -0.662879 1.83281 0
M  V30 4058 H 391.395 -2.12062 2.2899 0
M  V30 4059 N 391.696 -1.35014 -0.812953 0
M  V30 4060 C 392.942 -1.2812 -1.57204 0
M  V30 4061 C 393.275 0.145869 -1.93651 0
M  V30 4062 O 392.55 1.0937 -1.60836 0
M  V30 4063 C 392.833 -2.18162 -2.86492 0
M  V30 4064 C 392.686 -3.69454 -2.56561 0
M  V30 4065 C 394.005 -2.07439 -3.88145 0
M  V30 4066 H 391.124 -0.466746 -0.570366 0
M  V30 4067 H 393.766 -1.65357 -0.935783 0
M  V30 4068 H 391.916 -1.86535 -3.40789 0
M  V30 4069 H 393.588 -4.11493 -2.08497 0
M  V30 4070 H 391.831 -3.9005 -1.89851 0
M  V30 4071 H 392.502 -4.27835 -3.48799 0
M  V30 4072 H 394.978 -2.35228 -3.4323 0
M  V30 4073 H 393.854 -2.7265 -4.76396 0
M  V30 4074 H 394.115 -1.05439 -4.29343 0
M  V30 4075 N 393.175 1.03435 -1.18907 0
M  V30 4076 C 394.403 1.80381 -1.01342 0
M  V30 4077 C 394.818 1.83649 0.438005 0
M  V30 4078 O 394.175 1.27655 1.30424 0
M  V30 4079 C 394.226 3.25689 -1.56873 0
M  V30 4080 O 393.947 3.22673 -2.96334 0
M  V30 4081 C 395.448 4.19255 -1.44014 0
M  V30 4082 H 392.668 0.56784 -0.35749 0
M  V30 4083 H 395.212 1.30317 -1.576 0
M  V30 4084 H 393.367 3.72962 -1.04777 0
M  V30 4085 H 393.781 4.13748 -3.22355 0
M  V30 4086 H 395.255 5.19123 -1.87657 0
M  V30 4087 H 395.732 4.37467 -0.389815 0
M  V30 4088 H 396.338 3.77851 -1.95214 0
M  V30 4089 N 394.653 0.992116 1.22453 0
M  V30 4090 C 395.902 0.662992 1.90492 0
M  V30 4091 C 396.215 -0.808407 1.78113 0
M  V30 4092 O 397.421 -1.24908 2.41061 0
M  V30 4093 C 395.877 1.1353 3.41524 0
M  V30 4094 C 395.485 2.63187 3.62542 0
M  V30 4095 C 397.229 0.880465 4.15269 0
M  V30 4096 C 395.136 3.04024 5.0727 0
M  V30 4097 H 394.066 0.244278 0.713333 0
M  V30 4098 H 396.717 1.20157 1.38688 0
M  V30 4099 H 395.099 0.52485 3.92506 0
M  V30 4100 H 396.273 3.2957 3.22056 0
M  V30 4101 H 394.588 2.86543 3.02129 0
M  V30 4102 H 397.185 1.16128 5.21937 0
M  V30 4103 H 397.528 -0.183408 4.15896 0
M  V30 4104 H 398.061 1.45307 3.70312 0
M  V30 4105 H 394.8 4.09584 5.11782 0
M  V30 4106 H 394.32 2.42343 5.48662 0
M  V30 4107 H 395.999 2.95282 5.75689 0
M  V30 4108 N 396.131 -1.37776 0.765217 0
M  V30 4109 C 397.378 -1.99849 0.326588 0
M  V30 4110 C 397.706 -1.60746 -1.09504 0
M  V30 4111 O 396.961 -0.84202 -1.76659 0
M  V30 4112 C 397.26 -3.5504 0.410053 0
M  V30 4113 C 396.926 -4.13891 1.78899 0
M  V30 4114 C 395.588 -4.29678 2.16635 0
M  V30 4115 C 397.94 -4.46236 2.69301 0
M  V30 4116 C 395.268 -4.7511 3.44221 0
M  V30 4117 C 397.62 -4.93089 3.9629 0
M  V30 4118 C 396.284 -5.07082 4.34078 0
M  V30 4119 H 395.554 -0.7313 0.119507 0
M  V30 4120 H 398.201 -1.64645 0.977968 0
M  V30 4121 H 396.506 -3.90451 -0.324878 0
M  V30 4122 H 398.203 -4.00966 0.0520699 0
M  V30 4123 H 394.793 -4.02026 1.48569 0
M  V30 4124 H 398.977 -4.3363 2.41409 0
M  V30 4125 H 394.233 -4.84129 3.73402 0
M  V30 4126 H 398.407 -5.17084 4.66472 0
M  V30 4127 H 396.034 -5.42046 5.33001 0
M  V30 4128 N 397.609 -0.515225 -1.4894 0
M  V30 4129 C 398.542 0.302518 -2.26186 0
M  V30 4130 C 399.52 0.957895 -1.31389 0
M  V30 4131 O 400.704 0.985198 -1.60705 0
M  V30 4132 C 397.831 1.42719 -3.07163 0
M  V30 4133 C 396.877 0.884736 -4.17223 0
M  V30 4134 S 397.71 -0.235767 -5.34981 0
M  V30 4135 C 398.866 0.891731 -6.19515 0
M  V30 4136 H 399.099 -0.353076 -2.95196 0
M  V30 4137 H 396.632 -0.300753 -1.51443 0
M  V30 4138 H 398.59 2.07152 -3.54398 0
M  V30 4139 H 397.251 2.05445 -2.37595 0
M  V30 4140 H 396.444 1.72801 -4.73451 0
M  V30 4141 H 396.046 0.317362 -3.72651 0
M  V30 4142 H 398.338 1.79377 -6.53322 0
M  V30 4143 H 399.281 0.367751 -7.07144 0
M  V30 4144 H 399.689 1.16548 -5.52338 0
M  V30 4145 N 399.087 1.5561 -0.249682 0
M  V30 4146 C 400.019 2.18834 0.681496 0
M  V30 4147 C 401.032 1.16546 1.1367 0
M  V30 4148 O 402.221 1.43397 1.06299 0
M  V30 4149 C 399.321 2.77992 1.9384 0
M  V30 4150 C 398.494 4.05725 1.63419 0
M  V30 4151 C 397.553 4.49174 2.74096 0
M  V30 4152 O 396.579 5.15492 2.41364 0
M  V30 4153 N 397.781 4.17191 4.03649 0
M  V30 4154 H 400.546 2.9937 0.140514 0
M  V30 4155 H 398.107 1.6175 -0.0697541 0
M  V30 4156 H 400.099 3.04015 2.67127 0
M  V30 4157 H 398.669 2.01596 2.38909 0
M  V30 4158 H 397.889 3.87261 0.736358 0
M  V30 4159 H 399.177 4.88999 1.40562 0
M  V30 4160 H 398.575 3.63955 4.33074 0
M  V30 4161 H 397.132 4.48043 4.73393 0
M  V30 4162 N 400.565 -0.0233959 1.57583 0
M  V30 4163 C 401.811 -0.714119 1.89811 0
M  V30 4164 C 402.144 -1.74702 0.848113 0
M  V30 4165 O 401.419 -1.94023 -0.136135 0
M  V30 4166 C 401.702 -1.37853 3.32669 0
M  V30 4167 C 401.555 -0.358764 4.48367 0
M  V30 4168 C 402.874 -2.31101 3.7454 0
M  V30 4169 H 399.993 -0.25814 0.690314 0
M  V30 4170 H 402.635 0.0230927 1.89986 0
M  V30 4171 H 400.785 -2.00689 3.3265 0
M  V30 4172 H 402.457 0.268115 4.6052 0
M  V30 4173 H 400.7 0.321387 4.32608 0
M  V30 4174 H 401.371 -0.862242 5.45224 0
M  V30 4175 H 403.847 -1.78304 3.75961 0
M  V30 4176 H 402.723 -2.74567 4.75294 0
M  V30 4177 H 402.984 -3.18018 3.0711 0
M  V30 4178 N 402.043 -1.548 -0.295768 0
M  V30 4179 C 403.454 -1.65274 -0.868411 0
M  V30 4180 C 403.805 -0.56481 -1.87894 0
M  V30 4181 O 402.93 0.29767 -2.14343 0
M  V30 4182 C 403.525 -2.99603 -1.58188 0
M  V30 4183 C 402.084 -3.12181 -2.10286 0
M  V30 4184 C 401.231 -2.6098 -0.93727 0
M  V30 4185 H 404.182 -1.58534 -0.0726422 0
M  V30 4186 H 404.203 -2.91319 -2.44772 0
M  V30 4187 H 403.715 -3.78764 -0.846151 0
M  V30 4188 H 401.816 -2.3775 -2.8689 0
M  V30 4189 H 401.929 -4.18415 -2.33379 0
M  V30 4190 H 400.293 -2.17564 -1.32431 0
M  V30 4191 H 401.076 -3.42623 -0.215414 0
M  V30 4192 N 403.521 0.559213 -1.47345 0
M  V30 4193 C 404.746 1.34676 -1.57725 0
M  V30 4194 C 405.171 1.86723 -0.227164 0
M  V30 4195 O 404.529 1.6286 0.796642 0
M  V30 4196 C 404.577 2.49399 -2.60447 0
M  V30 4197 O 403.681 3.51567 -2.15578 0
M  V30 4198 H 403.022 0.400115 -0.52991 0
M  V30 4199 H 405.552 0.676009 -1.93109 0
M  V30 4200 H 405.562 2.95996 -2.80803 0
M  V30 4201 H 404.237 2.10873 -3.58477 0
M  V30 4202 H 402.814 3.11289 -2.05313 0
M  V30 4203 N 404.999 1.35443 0.805782 0
M  V30 4204 C 406.229 1.31687 1.59192 0
M  V30 4205 C 406.637 -0.10756 1.88894 0
M  V30 4206 O 405.98 -1.07017 1.49309 0
M  V30 4207 C 406.042 2.05686 2.94845 0
M  V30 4208 C 405.706 3.54868 2.87954 0
M  V30 4209 C 406.703 4.49444 2.61335 0
M  V30 4210 C 404.388 3.97528 3.07046 0
M  V30 4211 C 406.382 5.84655 2.53885 0
M  V30 4212 C 404.069 5.32833 2.99219 0
M  V30 4213 C 405.067 6.26209 2.72674 0
M  V30 4214 O 404.755 7.59032 2.64811 0
M  V30 4215 H 404.487 0.453878 0.50097 0
M  V30 4216 H 407.041 1.78892 1.0093 0
M  V30 4217 H 405.271 1.5312 3.55093 0
M  V30 4218 H 406.96 1.94998 3.55993 0
M  V30 4219 H 407.726 4.17804 2.46303 0
M  V30 4220 H 403.605 3.25233 3.26718 0
M  V30 4221 H 407.149 6.57508 2.33086 0
M  V30 4222 H 403.046 5.64087 3.13809 0
M  V30 4223 H 403.814 7.68967 2.80413 0
M  V30 4224 N 406.477 -1.02803 1.19454 0
M  V30 4225 C 407.725 -1.75869 0.995722 0
M  V30 4226 C 408.046 -1.89138 -0.474543 0
M  V30 4227 O 407.316 -1.42558 -1.34366 0
M  V30 4228 H 405.896 -0.651511 0.365435 0
M  V30 4229 H 408.558 -1.24004 1.50363 0
M  V30 4230 H 407.654 -2.76661 1.44447 0
M  V30 4231 N 407.956 -0.998596 -1.21925 0
M  V30 4232 C 409.233 -0.593401 -1.86382 0
M  V30 4233 C 409.613 0.92916 -1.89552 0
M  V30 4234 O 408.961 1.81347 -1.39017 0
M  V30 4235 C 409.171 -1.22039 -3.26967 0
M  V30 4236 C 410.519 -1.32449 -4.03413 0
M  V30 4237 O 411.543 -1.17522 -3.36254 0
M  V30 4238 O 410.402 -1.56395 -5.23644 0
M  V30 4239 H 407.496 -0.202385 -0.801854 0
M  V30 4240 H 410.042 -1.09484 -1.29659 0
M  V30 4241 H 408.814 -2.26158 -3.19325 0
M  V30 4242 H 408.437 -0.704906 -3.91301 0
M  V30 4243 N 409.434 1.37368 -0.772513 0
M  V30 4244 C 410.344 2.34053 -0.160081 0
M  V30 4245 C 411.36 1.60216 0.678728 0
M  V30 4246 O 412.536 1.92303 0.59847 0
M  V30 4247 C 409.601 3.3939 0.708182 0
M  V30 4248 C 408.662 4.29048 -0.147172 0
M  V30 4249 C 407.895 5.29354 0.679744 0
M  V30 4250 O 408.118 5.3723 1.91678 0
M  V30 4251 O 407.052 6.01835 0.0885444 0
M  V30 4252 H 410.878 2.88159 -0.959053 0
M  V30 4253 H 408.463 1.39543 -0.533685 0
M  V30 4254 H 410.345 4.03839 1.20384 0
M  V30 4255 H 409.02 2.8761 1.48533 0
M  V30 4256 H 407.927 3.67697 -0.689205 0
M  V30 4257 H 409.26 4.84134 -0.887423 0
M  V30 4258 N 410.912 0.523116 1.48665 0
M  V30 4259 C 411.842 -0.23231 2.32342 0
M  V30 4260 C 412.823 -0.941637 1.41659 0
M  V30 4261 O 414.008 -0.928751 1.70552 0
M  V30 4262 C 411.138 -1.28387 3.22698 0
M  V30 4263 C 410.092 -0.693098 4.22351 0
M  V30 4264 C 409.418 -1.8468 5.01794 0
M  V30 4265 C 410.718 0.33063 5.21252 0
M  V30 4266 H 412.412 0.466192 2.95748 0
M  V30 4267 H 409.958 0.225643 1.42221 0
M  V30 4268 H 411.911 -1.82024 3.80059 0
M  V30 4269 H 410.635 -2.01186 2.57278 0
M  V30 4270 H 409.294 -0.178299 3.66166 0
M  V30 4271 H 408.942 -2.56301 4.32804 0
M  V30 4272 H 408.642 -1.45747 5.69238 0
M  V30 4273 H 410.166 -2.38709 5.62006 0
M  V30 4274 H 411.58 -0.118407 5.73178 0
M  V30 4275 H 409.977 0.636974 5.9671 0
M  V30 4276 H 411.047 1.23883 4.68808 0
M  V30 4277 N 412.39 -1.55475 0.257931 0
M  V30 4278 C 413.322 -2.19192 -0.669881 0
M  V30 4279 C 414.335 -1.17148 -1.1305 0
M  V30 4280 O 415.524 -1.43959 -1.05537 0
M  V30 4281 C 412.624 -2.79016 -1.92363 0
M  V30 4282 C 411.797 -4.06586 -1.61265 0
M  V30 4283 C 410.856 -4.50622 -2.7171 0
M  V30 4284 O 409.882 -5.16765 -2.38627 0
M  V30 4285 N 411.084 -4.19325 -4.01431 0
M  V30 4286 H 413.849 -2.99441 -0.124635 0
M  V30 4287 H 411.41 -1.6171 0.0783311 0
M  V30 4288 H 413.402 -3.05427 -2.65511 0
M  V30 4289 H 411.972 -2.0286 -2.37837 0
M  V30 4290 H 411.192 -3.87646 -0.715811 0
M  V30 4291 H 412.48 -4.89737 -1.37967 0
M  V30 4292 H 411.878 -3.66247 -4.31138 0
M  V30 4293 H 410.435 -4.50547 -4.7101 0
M  V30 4294 N 413.868 0.0150385 -1.57593 0
M  V30 4295 C 414.816 1.02958 -2.08572 0
M  V30 4296 C 415.81 1.36554 -1.00246 0
M  V30 4297 O 417.016 1.35295 -1.18724 0
M  V30 4298 H 413.391 0.349619 -0.665786 0
M  V30 4299 H 415.362 0.573932 -2.92829 0
M  V30 4300 C 414.111 2.31752 -2.59203 0
M  V30 4301 H 413.434 2.06765 -3.42182 0
M  V30 4302 H 414.874 3.01053 -2.98568 0
M  V30 4303 C 413.333 3.01692 -1.49945 0
M  V30 4304 O 413.863 3.92083 -0.873704 0
M  V30 4305 N 412.069 2.6326 -1.23056 0
M  V30 4306 H 411.616 1.89838 -1.74125 0
M  V30 4307 H 411.574 3.10372 -0.501685 0
M  V30 4308 N 415.346 1.54954 0.287554 0
M  V30 4309 C 416.593 1.74873 1.02106 0
M  V30 4310 C 416.921 0.541829 1.86801 0
M  V30 4311 O 416.176 -0.475992 1.89823 0
M  V30 4312 C 416.475 2.99833 1.94512 0
M  V30 4313 C 416.141 4.33029 1.25686 0
M  V30 4314 C 414.803 4.69233 1.06649 0
M  V30 4315 C 417.155 5.15542 0.765913 0
M  V30 4316 C 414.483 5.85518 0.372222 0
M  V30 4317 C 416.835 6.32542 0.0853101 0
M  V30 4318 C 415.499 6.67398 -0.1169 0
M  V30 4319 H 414.769 0.639906 0.373632 0
M  V30 4320 H 417.416 1.89219 0.294665 0
M  V30 4321 H 415.721 2.80325 2.73725 0
M  V30 4322 H 417.418 3.1244 2.51361 0
M  V30 4323 H 414.008 4.04564 1.41512 0
M  V30 4324 H 418.192 4.88059 0.90066 0
M  V30 4325 H 413.448 6.11057 0.204695 0
M  V30 4326 H 417.622 6.95741 -0.302936 0
M  V30 4327 H 415.249 7.57357 -0.656859 0
M  V30 4328 N 416.824 -0.551391 1.4764 0
M  V30 4329 C 417.771 -1.65796 1.60563 0
M  V30 4330 C 418.741 -1.59932 0.448428 0
M  V30 4331 O 419.926 -1.78679 0.669222 0
M  V30 4332 C 417.066 -3.04108 1.63133 0
M  V30 4333 C 416.179 -3.20365 2.89811 0
M  V30 4334 C 415.314 -4.49109 2.8368 0
M  V30 4335 C 414.353 -4.58819 4.05156 0
M  V30 4336 N 413.49 -5.78926 3.97227 0
M  V30 4337 H 418.33 -1.54088 2.5507 0
M  V30 4338 H 415.867 -0.75052 1.26513 0
M  V30 4339 H 417.825 -3.84207 1.62606 0
M  V30 4340 H 416.455 -3.14637 0.721341 0
M  V30 4341 H 415.507 -2.33659 3.00179 0
M  V30 4342 H 416.819 -3.23402 3.79753 0
M  V30 4343 H 415.973 -5.37475 2.81434 0
M  V30 4344 H 414.712 -4.4856 1.91431 0
M  V30 4345 H 413.717 -3.68864 4.077 0
M  V30 4346 H 414.942 -4.61124 4.98539 0
M  V30 4347 H 412.888 -5.79314 3.07785 0
M  V30 4348 H 412.805 -5.83367 4.80853 0
M  V30 4349 H 414.073 -6.69637 3.99007 0
M  V30 4350 N 418.302 -1.35869 -0.798587 0
M  V30 4351 C 419.232 -1.32118 -1.92528 0
M  V30 4352 C 420.213 -0.194209 -1.68988 0
M  V30 4353 O 421.398 -0.390426 -1.90235 0
M  V30 4354 C 418.528 -1.10047 -3.29404 0
M  V30 4355 C 417.482 -2.19471 -3.67446 0
M  V30 4356 C 416.808 -1.82555 -5.02571 0
M  V30 4357 C 418.108 -3.61495 -3.76987 0
M  V30 4358 H 419.802 -2.26394 -1.95924 0
M  V30 4359 H 417.348 -1.08981 -0.94123 0
M  V30 4360 H 419.301 -1.06061 -4.07835 0
M  V30 4361 H 418.025 -0.122195 -3.26371 0
M  V30 4362 H 416.684 -2.22568 -2.91306 0
M  V30 4363 H 416.332 -0.833249 -4.9605 0
M  V30 4364 H 416.032 -2.5581 -5.28995 0
M  V30 4365 H 417.556 -1.80108 -5.83432 0
M  V30 4366 H 418.97 -3.60676 -4.4563 0
M  V30 4367 H 417.367 -4.33577 -4.14887 0
M  V30 4368 H 418.437 -3.97065 -2.78329 0
M  V30 4369 N 419.78 1.02168 -1.19998 0
M  V30 4370 C 420.713 2.10232 -0.887558 0
M  V30 4371 C 421.691 1.61827 0.158317 0
M  V30 4372 O 422.875 1.88471 0.0330249 0
M  V30 4373 C 420.002 3.37092 -0.32964 0
M  V30 4374 C 419.048 4.0438 -1.3557 0
M  V30 4375 S 419.881 4.48956 -2.91888 0
M  V30 4376 C 421.037 5.79024 -2.37658 0
M  V30 4377 H 421.27 2.36409 -1.80272 0
M  V30 4378 H 418.803 1.15211 -1.0279 0
M  V30 4379 H 420.761 4.10498 -0.0142824 0
M  V30 4380 H 419.422 3.08996 0.563941 0
M  V30 4381 H 418.615 4.95632 -0.9146 0
M  V30 4382 H 418.217 3.37176 -1.61828 0
M  V30 4383 H 420.509 6.53942 -1.77103 0
M  V30 4384 H 421.452 6.27924 -3.27287 0
M  V30 4385 H 421.86 5.35043 -1.79971 0
M  V30 4386 N 421.258 1.00505 1.21394 0
M  V30 4387 C 422.188 0.585684 2.26035 0
M  V30 4388 C 423.169 -0.393525 1.65485 0
M  V30 4389 O 424.354 -0.281497 1.92149 0
M  V30 4390 C 421.484 -0.0884283 3.47187 0
M  V30 4391 C 420.438 0.810567 4.20254 0
M  V30 4392 C 419.764 0.00286382 5.347 0
M  V30 4393 C 421.064 2.1132 4.77641 0
M  V30 4394 H 422.758 1.46039 2.61368 0
M  V30 4395 H 420.304 0.703648 1.25638 0
M  V30 4396 H 422.257 -0.393286 4.19561 0
M  V30 4397 H 420.981 -0.997766 3.10986 0
M  V30 4398 H 419.64 1.09925 3.49731 0
M  V30 4399 H 419.288 -0.907765 4.94741 0
M  V30 4400 H 418.988 0.601444 5.84514 0
M  V30 4401 H 420.512 -0.295808 6.09883 0
M  V30 4402 H 421.926 1.87148 5.41893 0
M  V30 4403 H 420.323 2.66164 5.37845 0
M  V30 4404 H 421.393 2.78393 3.9702 0
M  V30 4405 N 422.737 -1.36956 0.779787 0
M  V30 4406 C 423.669 -2.28833 0.129639 0
M  V30 4407 C 424.682 -1.4902 -0.655511 0
M  V30 4408 O 425.871 -1.71578 -0.492279 0
M  V30 4409 C 422.971 -3.2833 -0.839792 0
M  V30 4410 C 422.144 -4.3727 -0.10675 0
M  V30 4411 C 421.203 -5.16789 -0.990717 0
M  V30 4412 O 420.229 -5.67406 -0.451516 0
M  V30 4413 N 421.431 -5.32294 -2.3161 0
M  V30 4414 H 424.196 -2.85268 0.918803 0
M  V30 4415 H 421.757 -1.49019 0.632841 0
M  V30 4416 H 423.749 -3.78413 -1.43477 0
M  V30 4417 H 422.319 -2.72605 -1.52988 0
M  V30 4418 H 421.539 -3.88478 0.669216 0
M  V30 4419 H 422.827 -5.07229 0.399464 0
M  V30 4420 H 422.225 -4.92768 -2.77843 0
M  V30 4421 H 420.782 -5.85656 -2.86095 0
M  V30 4422 N 424.215 -0.530993 -1.48385 0
M  V30 4423 C 425.44 0.000729535 -2.074 0
M  V30 4424 C 425.865 1.27298 -1.3848 0
M  V30 4425 O 425.223 1.75599 -0.451081 0
M  V30 4426 C 425.271 0.206697 -3.60007 0
M  V30 4427 O 424.375 1.27514 -3.92191 0
M  V30 4428 H 423.716 -0.039583 -0.662819 0
M  V30 4429 H 426.246 -0.739194 -1.9078 0
M  V30 4430 H 426.256 0.42904 -4.05738 0
M  V30 4431 H 424.931 -0.722675 -4.09573 0
M  V30 4432 H 423.508 1.03537 -3.58238 0
M  V30 4433 N 425.693 1.55336 -0.266172 0
M  V30 4434 C 426.656 2.20878 0.612001 0
M  V30 4435 C 427.656 1.18388 1.08816 0
M  V30 4436 O 428.846 1.4335 0.989774 0
M  V30 4437 C 425.978 2.86765 1.84332 0
M  V30 4438 H 427.171 2.99873 0.0398718 0
M  V30 4439 H 424.724 1.56291 -0.0167309 0
M  V30 4440 H 425.459 2.11759 2.45619 0
M  V30 4441 H 425.244 3.61862 1.5099 0
M  V30 4442 H 426.734 3.36867 2.46801 0
M  V30 4443 N 427.171 -0.0066808 1.57599 0
M  V30 4444 C 428.103 -1.02827 2.04839 0
M  V30 4445 C 429.116 -1.31108 0.965113 0
M  V30 4446 O 430.305 -1.28202 1.24203 0
M  V30 4447 C 427.405 -2.36464 2.42771 0
M  V30 4448 C 426.578 -2.27219 3.73751 0
M  V30 4449 C 425.637 -3.43489 3.98625 0
M  V30 4450 O 424.663 -3.21976 4.69382 0
M  V30 4451 N 425.865 -4.66116 3.46 0
M  V30 4452 H 428.63 -0.625455 2.93101 0
M  V30 4453 H 426.191 -0.194198 1.60731 0
M  V30 4454 H 428.183 -3.13008 2.56531 0
M  V30 4455 H 426.753 -2.68512 1.60063 0
M  V30 4456 H 425.973 -1.35629 3.70133 0
M  V30 4457 H 427.261 -2.18208 4.59633 0
M  V30 4458 H 426.659 -4.86493 2.88688 0
M  V30 4459 H 425.216 -5.39949 3.65101 0
M  V30 4460 N 428.649 -1.55105 -0.279332 0
M  V30 4461 C 429.599 -1.83937 -1.34727 0
M  V30 4462 C 430.583 -0.69785 -1.44979 0
M  V30 4463 O 431.775 -0.95904 -1.48766 0
M  V30 4464 C 428.904 -2.1092 -2.70864 0
M  V30 4465 C 427.99 -3.31314 -2.64748 0
M  V30 4466 N 428.381 -4.51371 -2.2825 0
M  V30 4467 C 426.679 -3.33777 -2.95819 0
M  V30 4468 C 427.38 -5.33447 -2.31969 0
M  V30 4469 N 426.356 -4.71697 -2.7019 0
M  V30 4470 H 430.158 -2.74309 -1.05506 0
M  V30 4471 H 427.672 -1.54896 -0.487959 0
M  V30 4472 H 429.669 -2.2973 -3.47893 0
M  V30 4473 H 428.329 -1.21828 -3.00979 0
M  V30 4474 H 429.34 -4.77584 -2.00335 0
M  V30 4475 H 426.017 -2.54858 -3.30687 0
M  V30 4476 H 427.407 -6.39424 -2.06365 0
M  V30 4477 N 430.127 0.543554 -1.4793 0
M  V30 4478 C 431.376 1.29649 -1.54512 0
M  V30 4479 C 431.689 1.94382 -0.217973 0
M  V30 4480 O 432.895 2.71017 -0.161908 0
M  V30 4481 C 431.351 2.35175 -2.72435 0
M  V30 4482 C 430.959 1.76572 -4.11736 0
M  V30 4483 C 432.703 3.11564 -2.8832 0
M  V30 4484 C 430.61 2.79958 -5.20939 0
M  V30 4485 H 429.54 0.487541 -0.57517 0
M  V30 4486 H 432.191 0.575708 -1.74235 0
M  V30 4487 H 430.573 3.10229 -2.46118 0
M  V30 4488 H 431.747 1.07799 -4.48013 0
M  V30 4489 H 430.062 1.12722 -4.00852 0
M  V30 4490 H 432.659 3.88794 -3.67074 0
M  V30 4491 H 433.002 3.66594 -1.97268 0
M  V30 4492 H 433.535 2.43623 -3.14472 0
M  V30 4493 H 430.274 2.29766 -6.13912 0
M  V30 4494 H 429.794 3.47101 -4.89164 0
M  V30 4495 H 431.473 3.43198 -5.48474 0
M  V30 4496 N 431.605 1.3629 0.791371 0
M  V30 4497 C 432.568 1.30309 1.88553 0
M  V30 4498 C 433.568 0.211204 1.59407 0
M  V30 4499 O 434.758 0.465865 1.67855 0
M  V30 4500 C 431.89 1.01956 3.25297 0
M  V30 4501 H 433.083 2.27614 1.95273 0
M  V30 4502 H 430.636 1.21035 0.988953 0
M  V30 4503 H 431.371 0.050998 3.2426 0
M  V30 4504 H 431.156 1.80968 3.4784 0
M  V30 4505 H 432.646 1.0037 4.05359 0
M  V30 4506 N 433.083 -1.0153 1.20538 0
M  V30 4507 C 434.36 -1.72327 0.925343 0
M  V30 4508 C 434.74 -2.03383 -0.565547 0
M  V30 4509 O 434.088 -1.69934 -1.52757 0
M  V30 4510 C 434.298 -2.9902 1.79967 0
M  V30 4511 C 435.646 -3.72258 2.04228 0
M  V30 4512 O 436.67 -3.08979 1.77231 0
M  V30 4513 O 435.529 -4.86053 2.4983 0
M  V30 4514 H 432.623 -0.751099 0.346092 0
M  V30 4515 H 435.169 -1.07366 1.31417 0
M  V30 4516 H 433.941 -2.72402 2.80915 0
M  V30 4517 H 433.564 -3.71721 1.41099 0
M  V30 4518 N 434.561 -1.01147 -1.20859 0
M  V30 4519 C 435.471 -0.58686 -2.27141 0
M  V30 4520 C 436.487 0.373198 -1.69951 0
M  V30 4521 O 437.663 0.235423 -2.00019 0
M  V30 4522 C 434.728 0.0733602 -3.46622 0
M  V30 4523 C 433.789 -0.931995 -4.19061 0
M  V30 4524 C 433.022 -0.303186 -5.32838 0
M  V30 4525 O 433.245 0.898395 -5.63281 0
M  V30 4526 O 432.179 -1.01735 -5.9324 0
M  V30 4527 H 436.005 -1.47155 -2.65667 0
M  V30 4528 H 433.59 -0.780689 -1.2738 0
M  V30 4529 H 435.472 0.442333 -4.19072 0
M  V30 4530 H 434.147 0.932329 -3.09983 0
M  V30 4531 H 433.054 -1.35224 -3.48805 0
M  V30 4532 H 434.387 -1.76076 -4.59628 0
M  V30 4533 N 436.039 1.36541 -0.78704 0
M  V30 4534 C 437.285 1.99599 -0.358872 0
M  V30 4535 C 437.618 1.62323 1.06606 0
M  V30 4536 O 436.893 0.876858 1.73613 0
M  V30 4537 C 437.176 3.56327 -0.519944 0
M  V30 4538 C 437.029 4.03464 -1.98839 0
M  V30 4539 C 438.348 4.4005 0.0664737 0
M  V30 4540 H 435.467 0.725107 -0.131869 0
M  V30 4541 H 438.109 1.6199 -0.992936 0
M  V30 4542 H 436.259 3.88495 0.0198321 0
M  V30 4543 H 437.931 3.81793 -2.58905 0
M  V30 4544 H 436.174 3.55092 -2.49183 0
M  V30 4545 H 436.845 5.12439 -2.05207 0
M  V30 4546 H 439.321 4.14228 -0.394267 0
M  V30 4547 H 438.197 5.48847 -0.0762682 0
M  V30 4548 H 438.458 4.26655 1.15835 0
M  V30 4549 N 437.518 0.538854 1.48102 0
M  V30 4550 C 438.766 0.00798599 2.02098 0
M  V30 4551 C 439.087 -1.33922 1.41739 0
M  V30 4552 O 438.357 -1.86932 0.585934 0
M  V30 4553 H 436.937 -3.62179e-05 0.747 0
M  V30 4554 H 439.599 0.7047 1.81714 0
M  V30 4555 H 438.695 -0.0937672 3.11959 0
M  V30 4556 N 438.996 -1.55193 0.274407 0
M  V30 4557 C 440.244 -1.99187 -0.341902 0
M  V30 4558 C 440.565 -1.16422 -1.56431 0
M  V30 4559 O 439.835 -0.253573 -1.94252 0
M  V30 4560 H 438.415 -0.735721 -0.129317 0
M  V30 4561 H 441.077 -1.91168 0.379578 0
M  V30 4562 H 440.173 -3.05629 -0.632253 0
M  V30 4563 N 440.474 -0.00167713 -1.576 0
M  V30 4564 C 441.72 0.683832 -1.90923 0
M  V30 4565 C 442.053 1.7333 -0.875799 0
M  V30 4566 O 441.328 1.94215 0.10525 0
M  V30 4567 C 441.611 1.32543 -3.3482 0
M  V30 4568 C 441.464 0.287387 -4.48881 0
M  V30 4569 C 442.783 2.25114 -3.78169 0
M  V30 4570 H 439.902 0.247125 -0.694333 0
M  V30 4571 H 442.544 -0.0533149 -1.89925 0
M  V30 4572 H 440.694 1.95372 -3.35801 0
M  V30 4573 H 442.366 -0.341346 -4.60035 0
M  V30 4574 H 440.609 -0.39017 -4.32042 0
M  V30 4575 H 441.28 0.775393 -5.46527 0
M  V30 4576 H 443.756 1.723 -3.7875 0
M  V30 4577 H 442.632 2.66971 -4.79602 0
M  V30 4578 H 442.893 3.13092 -3.12131 0
M  V30 4579 N 441.952 1.55251 0.271103 0
M  V30 4580 C 443.198 1.76207 1.00394 0
M  V30 4581 C 443.531 0.562604 1.85872 0
M  V30 4582 O 442.806 -0.439785 1.89463 0
M  V30 4583 C 443.089 3.06828 1.8849 0
M  V30 4584 C 442.942 4.37134 1.05992 0
M  V30 4585 C 444.261 3.33503 2.87165 0
M  V30 4586 H 441.38 0.641086 0.363562 0
M  V30 4587 H 444.022 1.87982 0.276189 0
M  V30 4588 H 442.172 2.96921 2.5054 0
M  V30 4589 H 443.844 4.59001 0.459978 0
M  V30 4590 H 442.087 4.32275 0.363443 0
M  V30 4591 H 442.758 5.2486 1.70955 0
M  V30 4592 H 445.234 3.43215 2.3525 0
M  V30 4593 H 444.11 4.2616 3.45946 0
M  V30 4594 H 444.371 2.53235 3.62387 0
M  V30 4595 N 443.43 -0.535701 1.48216 0
M  V30 4596 C 444.36 -1.65014 1.65204 0
M  V30 4597 C 445.341 -1.62554 0.501011 0
M  V30 4598 O 446.526 -1.7984 0.732886 0
M  V30 4599 C 443.656 -3.03616 1.68626 0
M  V30 4600 C 442.61 -3.20932 2.83172 0
M  V30 4601 C 441.936 -4.60537 2.71679 0
M  V30 4602 C 443.236 -3.04249 4.24535 0
M  V30 4603 H 444.93 -1.51053 2.58502 0
M  V30 4604 H 442.476 -0.725262 1.24402 0
M  V30 4605 H 444.429 -3.81446 1.79099 0
M  V30 4606 H 443.153 -3.18587 0.719026 0
M  V30 4607 H 441.812 -2.45517 2.72244 0
M  V30 4608 H 441.46 -4.72336 1.72937 0
M  V30 4609 H 441.16 -4.73069 3.48538 0
M  V30 4610 H 442.684 -5.40475 2.84112 0
M  V30 4611 H 444.098 -3.71877 4.36326 0
M  V30 4612 H 442.495 -3.28278 5.02348 0
M  V30 4613 H 443.565 -2.00739 4.41397 0
M  V30 4614 N 444.908 -1.36708 -0.784132 0
M  V30 4615 C 446.185 -1.21776 -1.53069 0
M  V30 4616 C 446.565 0.193876 -2.10208 0
M  V30 4617 O 445.913 1.20012 -1.94446 0
M  V30 4618 C 446.123 -2.30395 -2.62143 0
M  V30 4619 C 447.471 -2.67325 -3.29882 0
M  V30 4620 O 448.495 -2.29478 -2.7243 0
M  V30 4621 O 447.354 -3.32485 -4.33724 0
M  V30 4622 H 444.448 -0.474459 -0.677361 0
M  V30 4623 H 446.994 -1.48454 -0.82216 0
M  V30 4624 H 445.766 -3.2498 -2.17953 0
M  V30 4625 H 445.389 -2.05112 -3.40609 0
M  V30 4626 N 446.386 1.0089 -1.21074 0
M  V30 4627 C 447.663 1.71834 -0.934469 0
M  V30 4628 C 448.043 2.0368 0.554753 0
M  V30 4629 O 447.391 1.70742 1.51854 0
M  V30 4630 C 447.601 2.98061 -1.8155 0
M  V30 4631 C 448.949 3.7117 -2.06199 0
M  V30 4632 O 449.973 3.08034 -1.78867 0
M  V30 4633 O 448.832 4.84721 -2.52404 0
M  V30 4634 H 445.926 0.749253 -0.35007 0
M  V30 4635 H 448.472 1.06668 -1.31985 0
M  V30 4636 H 447.244 2.70908 -2.82355 0
M  V30 4637 H 446.867 3.70968 -1.43068 0
M  V30 4638 N 447.864 1.01787 1.20321 0
M  V30 4639 C 448.796 0.547357 2.22568 0
M  V30 4640 C 449.809 -0.370922 1.58518 0
M  V30 4641 O 450.998 -0.169067 1.77698 0
M  V30 4642 C 448.098 -0.223031 3.38165 0
M  V30 4643 C 447.271 0.697472 4.31803 0
M  V30 4644 C 446.33 -0.025562 5.26194 0
M  V30 4645 O 445.356 0.597367 5.66057 0
M  V30 4646 N 446.558 -1.29999 5.65757 0
M  V30 4647 H 449.323 1.42668 2.63564 0
M  V30 4648 H 446.884 0.895552 1.34876 0
M  V30 4649 H 448.876 -0.716002 3.98316 0
M  V30 4650 H 447.446 -1.00366 2.9605 0
M  V30 4651 H 446.666 1.37073 3.69601 0
M  V30 4652 H 447.954 1.32347 4.91286 0
M  V30 4653 H 447.352 -1.827 5.35385 0
M  V30 4654 H 445.909 -1.73766 6.28211 0
M  V30 4655 N 449.342 -1.36122 0.79427 0
M  V30 4656 C 450.758 -1.5232 0.476525 0
M  V30 4657 C 450.958 -1.74685 -1.00436 0
M  V30 4658 O 450.014 -1.78115 -1.78973 0
M  V30 4659 C 451.327 -2.70607 1.31119 0
M  V30 4660 C 452.875 -2.8448 1.30537 0
M  V30 4661 C 453.35 -4.05778 2.12387 0
M  V30 4662 N 454.841 -4.12933 2.09859 0
M  V30 4663 C 455.576 -5.05876 2.69957 0
M  V30 4664 N 455.072 -6.04232 3.38934 0
M  V30 4665 N 456.865 -4.98528 2.59665 0
M  V30 4666 H 449.016 -1.1986 1.75349 0
M  V30 4667 H 451.279 -0.585418 0.745647 0
M  V30 4668 H 450.985 -2.60619 2.36158 0
M  V30 4669 H 450.859 -3.64888 0.955843 0
M  V30 4670 H 453.246 -2.93927 0.262876 0
M  V30 4671 H 453.327 -1.91093 1.70051 0
M  V30 4672 H 452.971 -3.97092 3.1667 0
M  V30 4673 H 452.901 -4.98323 1.70242 0
M  V30 4674 H 455.392 -3.42515 1.59662 0
M  V30 4675 H 455.705 -6.71724 3.82109 0
M  V30 4676 H 454.05 -6.04443 3.43036 0
M  V30 4677 H 457.241 -4.20641 2.05375 0
M  V30 4678 H 457.414 -5.70773 3.06793 0
M  V30 4679 N 450.82 -0.546701 -1.47814 0
M  V30 4680 C 452.236 -0.205717 -1.58269 0
M  V30 4681 C 452.436 1.29153 -1.54667 0
M  V30 4682 O 451.492 2.07098 -1.44453 0
M  V30 4683 C 452.805 -0.823065 -2.89216 0
M  V30 4684 C 454.353 -0.793328 -3.02779 0
M  V30 4685 C 454.828 -1.38955 -4.36412 0
M  V30 4686 N 456.319 -1.35227 -4.43021 0
M  V30 4687 C 457.054 -1.78333 -5.44963 0
M  V30 4688 N 456.55 -2.29246 -6.53772 0
M  V30 4689 N 458.343 -1.69467 -5.35945 0
M  V30 4690 H 450.494 -1.5196 -1.48398 0
M  V30 4691 H 452.757 -0.633078 -0.705632 0
M  V30 4692 H 452.463 -1.8749 -2.97558 0
M  V30 4693 H 452.337 -0.309915 -3.75925 0
M  V30 4694 H 454.724 0.249784 -2.94041 0
M  V30 4695 H 454.805 -1.34412 -2.17639 0
M  V30 4696 H 454.449 -2.43168 -4.45906 0
M  V30 4697 H 454.379 -0.814291 -5.20266 0
M  V30 4698 H 456.87 -0.979739 -3.64979 0
M  V30 4699 H 457.183 -2.60089 -7.27718 0
M  V30 4700 H 455.528 -2.3325 -6.5469 0
M  V30 4701 H 458.719 -1.29477 -4.49837 0
M  V30 4702 H 458.892 -2.03381 -6.15256 0
M  V30 4703 N 452.299 1.55045 -0.282633 0
M  V30 4704 C 453.232 2.18951 0.64311 0
M  V30 4705 C 454.21 1.15287 1.14664 0
M  V30 4706 O 455.394 1.43846 1.21822 0
M  V30 4707 C 452.521 2.81874 1.87789 0
M  V30 4708 C 451.567 3.98906 1.50919 0
M  V30 4709 S 452.4 5.3234 0.580884 0
M  V30 4710 C 453.556 5.98737 1.82387 0
M  V30 4711 H 453.789 2.97131 0.100138 0
M  V30 4712 H 451.322 1.54255 -0.0668514 0
M  V30 4713 H 453.28 3.18757 2.58658 0
M  V30 4714 H 451.941 2.03573 2.392 0
M  V30 4715 H 451.134 4.4165 2.42819 0
M  V30 4716 H 450.736 3.63485 0.88061 0
M  V30 4717 H 453.028 6.18427 2.76684 0
M  V30 4718 H 453.971 6.93318 1.4393 0
M  V30 4719 H 454.379 5.28177 1.99223 0
M  V30 4720 N 453.777 0.010035 1.57597 0
M  V30 4721 C 454.71 -1.01234 2.04516 0
M  V30 4722 C 455.688 -1.32886 0.937024 0
M  V30 4723 O 456.872 -1.44879 1.20592 0
M  V30 4724 C 453.999 -2.33738 2.45121 0
M  V30 4725 C 453.045 -2.17679 3.66767 0
M  V30 4726 S 453.878 -1.49343 5.14254 0
M  V30 4727 C 455.034 -2.83256 5.58137 0
M  V30 4728 H 455.267 -0.612866 2.90914 0
M  V30 4729 H 452.8 -0.201124 1.53084 0
M  V30 4730 H 454.758 -3.09922 2.69182 0
M  V30 4731 H 453.419 -2.70823 1.59103 0
M  V30 4732 H 452.612 -3.1559 3.92962 0
M  V30 4733 H 452.214 -1.4964 3.42759 0
M  V30 4734 H 454.506 -3.79538 5.6121 0
M  V30 4735 H 455.449 -2.61749 6.57946 0
M  V30 4736 H 455.857 -2.87627 4.85727 0
M  V30 4737 N 455.255 -1.55392 -0.262866 0
M  V30 4738 C 456.483 -1.80513 -1.01108 0
M  V30 4739 C 456.898 -0.583533 -1.79556 0
M  V30 4740 O 456.255 0.447585 -1.76926 0
M  V30 4741 C 456.306 -3.03648 -1.96164 0
M  V30 4742 O 456.027 -4.2109 -1.20893 0
M  V30 4743 C 457.528 -3.41448 -2.82715 0
M  V30 4744 H 454.748 -0.601079 -0.298236 0
M  V30 4745 H 457.292 -2.02425 -0.290582 0
M  V30 4746 H 455.447 -2.83832 -2.63663 0
M  V30 4747 H 455.861 -4.90771 -1.85051 0
M  V30 4748 H 457.335 -4.30751 -3.45192 0
M  V30 4749 H 457.812 -2.61308 -3.53008 0
M  V30 4750 H 458.418 -3.63559 -2.20693 0
M  V30 4751 N 456.733 0.527833 -1.48498 0
M  V30 4752 C 458.144 1.10975 -1.50138 0
M  V30 4753 C 458.495 1.943 -0.272378 0
M  V30 4754 O 457.62 2.07319 0.620301 0
M  V30 4755 C 458.215 2.01927 -2.72049 0
M  V30 4756 C 456.774 2.55332 -2.76554 0
M  V30 4757 C 455.921 1.32341 -2.43683 0
M  V30 4758 H 458.872 0.312986 -1.55583 0
M  V30 4759 H 458.893 2.86244 -2.50689 0
M  V30 4760 H 458.405 1.41254 -3.61481 0
M  V30 4761 H 456.506 3.19721 -1.91336 0
M  V30 4762 H 456.619 2.94319 -3.78038 0
M  V30 4763 H 454.983 1.63989 -1.94884 0
M  V30 4764 H 455.766 0.734165 -3.35358 0
M  V30 4765 N 458.211 1.37122 0.776871 0
M  V30 4766 C 459.143 1.28342 1.89897 0
M  V30 4767 C 460.156 0.200277 1.61563 0
M  V30 4768 O 461.345 0.456012 1.72577 0
M  V30 4769 C 458.445 0.960427 3.25006 0
M  V30 4770 C 457.618 2.148 3.81025 0
M  V30 4771 C 456.677 1.79608 4.94598 0
M  V30 4772 O 455.703 2.51845 5.10454 0
M  V30 4773 N 456.905 0.737171 5.758 0
M  V30 4774 H 459.67 2.25027 1.97947 0
M  V30 4775 H 457.231 1.3068 0.955739 0
M  V30 4776 H 459.223 0.705942 3.98495 0
M  V30 4777 H 457.793 0.0823066 3.12492 0
M  V30 4778 H 457.013 2.56454 2.99374 0
M  V30 4779 H 458.301 2.9411 4.15183 0
M  V30 4780 H 457.699 0.137637 5.65533 0
M  V30 4781 H 456.256 0.542534 6.49538 0
M  V30 4782 N 459.689 -1.00246 1.21608 0
M  V30 4783 C 460.636 -2.09073 0.977613 0
M  V30 4784 C 461.606 -1.65815 -0.097297 0
M  V30 4785 O 462.791 -1.90734 0.0503445 0
M  V30 4786 C 459.931 -3.40671 0.551133 0
M  V30 4787 C 459.044 -3.97326 1.69576 0
M  V30 4788 C 458.179 -5.17043 1.2182 0
M  V30 4789 C 457.218 -5.65813 2.335 0
M  V30 4790 N 456.355 -6.76778 1.86859 0
M  V30 4791 H 461.195 -2.28806 1.90924 0
M  V30 4792 H 458.732 -1.12186 0.951452 0
M  V30 4793 H 460.69 -4.16225 0.285097 0
M  V30 4794 H 459.32 -3.20967 -0.343489 0
M  V30 4795 H 458.372 -3.18734 2.07637 0
M  V30 4796 H 459.684 -4.29511 2.53617 0
M  V30 4797 H 458.838 -5.99852 0.908975 0
M  V30 4798 H 457.577 -4.86458 0.347869 0
M  V30 4799 H 456.582 -4.81599 2.65222 0
M  V30 4800 H 457.807 -5.98427 3.21033 0
M  V30 4801 H 455.753 -6.47994 1.02174 0
M  V30 4802 H 455.67 -7.08231 2.64471 0
M  V30 4803 H 456.938 -7.63116 1.58978 0
M  V30 4804 N 461.167 -1.02423 -1.1978 0
M  V30 4805 C 462.097 -0.62157 -2.25075 0
M  V30 4806 C 463.078 0.367148 -1.6609 0
M  V30 4807 O 464.263 0.250892 -1.92573 0
M  V30 4808 C 461.393 0.0331826 -3.47284 0
M  V30 4809 C 460.347 -0.877323 -4.18912 0
M  V30 4810 C 459.673 -0.0879296 -5.34628 0
M  V30 4811 C 460.973 -2.18892 -4.74219 0
M  V30 4812 H 462.667 -1.50179 -2.59011 0
M  V30 4813 H 460.213 -0.723547 -1.24502 0
M  V30 4814 H 462.166 0.326488 -4.20133 0
M  V30 4815 H 460.89 0.948164 -3.12534 0
M  V30 4816 H 459.549 -1.15475 -3.47938 0
M  V30 4817 H 459.197 0.828941 -4.96123 0
M  V30 4818 H 458.897 -0.694359 -5.83483 0
M  V30 4819 H 460.421 0.198743 -6.10276 0
M  V30 4820 H 461.835 -1.95746 -5.38847 0
M  V30 4821 H 460.232 -2.74686 -5.33542 0
M  V30 4822 H 461.302 -2.84674 -3.92541 0
M  V30 4823 N 462.645 1.35699 -0.801477 0
M  V30 4824 C 464.061 1.52065 -0.484596 0
M  V30 4825 C 464.261 1.75215 0.995084 0
M  V30 4826 O 463.317 1.79061 1.78026 0
M  V30 4827 C 464.63 2.69908 -1.32552 0
M  V30 4828 C 466.178 2.83784 -1.32044 0
M  V30 4829 C 466.653 4.04646 -2.14536 0
M  V30 4830 N 468.144 4.11814 -2.12046 0
M  V30 4831 C 468.879 5.04437 -2.72636 0
M  V30 4832 N 468.375 6.02426 -3.42133 0
M  V30 4833 N 470.168 4.97144 -2.62305 0
M  V30 4834 H 462.319 1.18928 -1.75983 0
M  V30 4835 H 464.582 0.581455 -0.748741 0
M  V30 4836 H 464.288 2.59363 -2.37537 0
M  V30 4837 H 464.162 3.64376 -0.975181 0
M  V30 4838 H 466.549 2.93783 -0.27846 0
M  V30 4839 H 466.63 1.90188 -1.71062 0
M  V30 4840 H 466.274 3.95407 -3.18772 0
M  V30 4841 H 466.204 4.97413 -1.72882 0
M  V30 4842 H 468.695 3.41664 -1.61476 0
M  V30 4843 H 469.008 6.69688 -3.85666 0
M  V30 4844 H 467.353 6.02615 -3.46237 0
M  V30 4845 H 470.544 4.19546 -2.07603 0
M  V30 4846 H 470.717 5.69138 -3.09815 0
M  V30 4847 N 464.123 0.554532 1.47522 0
M  V30 4848 C 465.033 -0.197865 2.33764 0
M  V30 4849 C 466.049 -0.914576 1.48025 0
M  V30 4850 O 467.225 -0.884067 1.80959 0
M  V30 4851 C 464.29 -1.21628 3.24665 0
M  V30 4852 C 463.351 -0.507283 4.26292 0
M  V30 4853 C 462.584 -1.47718 5.1285 0
M  V30 4854 O 462.807 -2.7118 5.01814 0
M  V30 4855 O 461.741 -1.00313 5.93482 0
M  V30 4856 H 465.567 0.50949 2.99396 0
M  V30 4857 H 463.152 0.315176 1.46038 0
M  V30 4858 H 465.034 -1.80421 3.80823 0
M  V30 4859 H 463.709 -1.9056 2.61665 0
M  V30 4860 H 462.616 0.121778 3.73902 0
M  V30 4861 H 463.949 0.140544 4.91999 0
M  V30 4862 N 465.601 -1.54893 0.290851 0
M  V30 4863 C 466.831 -2.04047 -0.323818 0
M  V30 4864 C 467.239 -1.16809 -1.48837 0
M  V30 4865 O 466.582 -0.184145 -1.82775 0
M  V30 4866 C 466.644 -3.49248 -0.852395 0
M  V30 4867 C 466.308 -4.56623 0.185557 0
M  V30 4868 C 467.305 -5.09985 1.01053 0
M  V30 4869 C 464.99 -5.01252 0.324332 0
M  V30 4870 C 466.984 -6.06507 1.96031 0
M  V30 4871 C 464.671 -5.97596 1.27757 0
M  V30 4872 C 465.669 -6.50107 2.09405 0
M  V30 4873 O 465.357 -7.44565 3.03114 0
M  V30 4874 H 465.089 -0.671735 -0.0758129 0
M  V30 4875 H 467.643 -2.00947 0.425393 0
M  V30 4876 H 465.873 -3.49639 -1.65195 0
M  V30 4877 H 467.562 -3.81654 -1.38185 0
M  V30 4878 H 468.328 -4.76307 0.914129 0
M  V30 4879 H 464.207 -4.60015 -0.301213 0
M  V30 4880 H 467.751 -6.47418 2.598 0
M  V30 4881 H 463.648 -6.30691 1.37473 0
M  V30 4882 H 464.416 -7.62334 2.97976 0
M  V30 4883 N 467.08 -0.0183926 -1.57589 0
M  V30 4884 C 468.012 0.995557 -2.06449 0
M  V30 4885 C 469.025 1.29556 -0.985849 0
M  V30 4886 O 470.214 1.2621 -1.26227 0
M  V30 4887 C 467.314 2.32572 -2.46502 0
M  V30 4888 C 466.487 2.21245 -3.77319 0
M  V30 4889 C 465.546 3.37104 -4.04039 0
M  V30 4890 O 464.572 3.14468 -4.74445 0
M  V30 4891 N 465.774 4.60553 -3.53372 0
M  V30 4892 H 468.539 0.578746 -2.94059 0
M  V30 4893 H 466.1 0.168603 -1.6102 0
M  V30 4894 H 468.092 3.08887 -2.61478 0
M  V30 4895 H 466.662 2.65931 -1.64315 0
M  V30 4896 H 465.882 1.29723 -3.72244 0
M  V30 4897 H 467.17 2.10868 -4.63047 0
M  V30 4898 H 466.568 4.81839 -2.96391 0
M  V30 4899 H 465.125 5.34072 -3.73644 0
M  V30 4900 N 468.558 1.5553 0.254621 0
M  V30 4901 C 469.835 1.6774 1.00611 0
M  V30 4902 C 470.215 0.555993 2.03647 0
M  V30 4903 O 469.563 -0.441583 2.24193 0
M  V30 4904 C 469.773 3.07725 1.6464 0
M  V30 4905 C 471.121 3.66074 2.15116 0
M  V30 4906 O 472.145 3.10476 1.74595 0
M  V30 4907 O 471.004 4.63526 2.89493 0
M  V30 4908 H 468.098 0.681958 0.467828 0
M  V30 4909 H 470.644 1.67863 0.24902 0
M  V30 4910 H 469.416 3.80792 0.900734 0
M  V30 4911 H 469.039 3.1158 2.46989 0
M  V30 4912 N 470.036 -0.519951 1.48776 0
M  V30 4913 C 471.285 -1.27175 1.56555 0
M  V30 4914 C 471.598 -1.9401 0.248869 0
M  V30 4915 O 472.804 -2.70725 0.205004 0
M  V30 4916 C 471.26 -2.30811 2.76142 0
M  V30 4917 C 470.868 -1.7 4.14493 0
M  V30 4918 C 472.612 -3.06937 2.9324 0
M  V30 4919 C 470.519 -2.71635 5.25327 0
M  V30 4920 H 469.449 -0.478329 0.582853 0
M  V30 4921 H 472.1 -0.547916 1.75129 0
M  V30 4922 H 470.482 -3.06274 2.51023 0
M  V30 4923 H 471.656 -1.00658 4.49672 0
M  V30 4924 H 469.971 -1.06331 4.02595 0
M  V30 4925 H 472.568 -3.82905 3.73213 0
M  V30 4926 H 472.911 -3.63409 2.03075 0
M  V30 4927 H 473.444 -2.38589 3.18308 0
M  V30 4928 H 470.183 -2.1997 6.1749 0
M  V30 4929 H 469.703 -3.39275 4.94624 0
M  V30 4930 H 471.382 -3.34429 5.53865 0
M  V30 4931 N 471.514 -1.37532 -0.769588 0
M  V30 4932 C 472.763 -1.32183 -1.5235 0
M  V30 4933 C 473.076 0.0906555 -1.9539 0
M  V30 4934 O 474.282 0.266628 -2.70188 0
M  V30 4935 C 472.738 -2.32029 -2.75119 0
M  V30 4936 C 472.346 -3.78816 -2.3917 0
M  V30 4937 C 474.09 -2.35694 -3.53056 0
M  V30 4938 C 471.997 -4.70388 -3.58453 0
M  V30 4939 H 470.927 -0.491275 -0.571984 0
M  V30 4940 H 473.578 -1.63004 -0.842739 0
M  V30 4941 H 471.96 -1.94229 -3.45096 0
M  V30 4942 H 473.134 -4.25466 -1.76962 0
M  V30 4943 H 471.449 -3.78117 -1.74402 0
M  V30 4944 H 474.046 -3.01312 -4.41718 0
M  V30 4945 H 474.389 -1.37117 -3.93071 0
M  V30 4946 H 474.922 -2.72212 -2.90078 0
M  V30 4947 H 471.661 -5.70102 -3.23518 0
M  V30 4948 H 471.181 -4.28442 -4.19758 0
M  V30 4949 H 472.86 -4.87628 -4.25239 0
M  V30 4950 N 472.992 0.995999 -1.22138 0
M  V30 4951 C 474.408 1.25917 -0.980667 0
M  V30 4952 C 474.608 1.98819 0.327604 0
M  V30 4953 O 473.664 2.29587 1.05101 0
M  V30 4954 C 474.977 2.07399 -2.17729 0
M  V30 4955 C 476.525 2.20594 -2.22052 0
M  V30 4956 C 477 3.05462 -3.41258 0
M  V30 4957 N 478.491 3.13049 -3.41401 0
M  V30 4958 C 479.226 3.78997 -4.30289 0
M  V30 4959 N 478.722 4.46899 -5.2939 0
M  V30 4960 N 480.515 3.75728 -4.18073 0
M  V30 4961 H 472.666 0.507158 -2.06256 0
M  V30 4962 H 474.929 0.28658 -0.903646 0
M  V30 4963 H 474.635 1.61191 -3.12586 0
M  V30 4964 H 474.509 3.08154 -2.17534 0
M  V30 4965 H 476.896 2.66017 -1.27745 0
M  V30 4966 H 476.977 1.1928 -2.26287 0
M  V30 4967 H 476.621 2.60739 -4.35864 0
M  V30 4968 H 476.551 4.06911 -3.34262 0
M  V30 4969 H 479.042 2.64721 -2.69688 0
M  V30 4970 H 479.355 4.94952 -5.935 0
M  V30 4971 H 477.7 4.45657 -5.33306 0
M  V30 4972 H 480.891 3.2184 -3.39907 0
M  V30 4973 H 481.064 4.26845 -4.87553 0
M  V30 4974 N 474.47 1.03057 1.19235 0
M  V30 4975 C 475.38 0.622922 2.26179 0
M  V30 4976 C 476.396 -0.346113 1.70523 0
M  V30 4977 O 477.572 -0.203572 2.00369 0
M  V30 4978 C 474.637 -0.0182063 3.46695 0
M  V30 4979 C 473.698 0.998546 4.17526 0
M  V30 4980 C 472.931 0.387917 5.32288 0
M  V30 4981 O 473.154 -0.808668 5.64639 0
M  V30 4982 O 472.088 1.1116 5.91546 0
M  V30 4983 H 475.914 1.51363 2.63292 0
M  V30 4984 H 473.499 0.800856 1.26122 0
M  V30 4985 H 475.381 -0.375606 4.19723 0
M  V30 4986 H 474.056 -0.882895 3.11427 0
M  V30 4987 H 472.963 1.40756 3.4661 0
M  V30 4988 H 474.296 1.83366 4.56769 0
M  V30 4989 N 475.948 -1.35272 0.808662 0
M  V30 4990 C 477.194 -1.99003 0.390581 0
M  V30 4991 C 477.527 -1.63999 -1.0401 0
M  V30 4992 O 476.802 -0.904368 -1.72196 0
M  V30 4993 C 477.085 -3.55454 0.576566 0
M  V30 4994 C 476.938 -4.00249 2.05233 0
M  V30 4995 C 478.257 -4.401 0.00354277 0
M  V30 4996 H 475.376 -0.722917 0.143388 0
M  V30 4997 H 478.018 -1.6039 1.01858 0
M  V30 4998 H 476.168 -3.88477 0.0419766 0
M  V30 4999 H 477.84 -3.77626 2.64946 0
M  V30 5000 H 476.083 -3.51082 2.54801 0
M  V30 5001 H 476.754 -5.0911 2.13333 0
M  V30 5002 H 479.23 -4.13548 0.460117 0
M  V30 5003 H 478.106 -5.48656 0.163575 0
M  V30 5004 H 478.367 -4.28444 -1.09032 0
M  V30 5005 N 477.426 -0.562348 -1.47226 0
M  V30 5006 C 478.373 0.182461 -2.30078 0
M  V30 5007 C 479.343 0.903503 -1.39377 0
M  V30 5008 O 480.528 0.898188 -1.68337 0
M  V30 5009 C 477.668 1.20322 -3.23445 0
M  V30 5010 C 476.781 0.487717 -4.29238 0
M  V30 5011 C 475.916 1.49422 -5.09752 0
M  V30 5012 C 474.955 0.763976 -6.07314 0
M  V30 5013 N 474.092 1.71755 -6.80768 0
M  V30 5014 H 478.932 -0.530169 -2.93246 0
M  V30 5015 H 476.469 -0.273276 -1.44539 0
M  V30 5016 H 478.427 1.80768 -3.76004 0
M  V30 5017 H 477.057 1.88382 -2.6213 0
M  V30 5018 H 476.109 -0.231374 -3.79696 0
M  V30 5019 H 477.421 -0.0841003 -4.98729 0
M  V30 5020 H 476.575 2.17206 -5.66486 0
M  V30 5021 H 475.314 2.09995 -4.40174 0
M  V30 5022 H 474.319 0.0722344 -5.49753 0
M  V30 5023 H 475.544 0.16391 -6.78902 0
M  V30 5024 H 473.49 2.31177 -6.13916 0
M  V30 5025 H 473.407 1.19802 -7.46447 0
M  V30 5026 H 474.675 2.38638 -7.42073 0
M  V30 5027 N 478.904 1.54736 -0.299062 0
M  V30 5028 C 480.181 1.92187 0.363802 0
M  V30 5029 C 480.561 1.22607 1.71845 0
M  V30 5030 O 479.909 0.361141 2.25628 0
M  V30 5031 C 480.119 3.45678 0.480377 0
M  V30 5032 C 481.467 4.17885 0.752147 0
M  V30 5033 O 482.491 3.51702 0.564264 0
M  V30 5034 O 481.35 5.35048 1.11294 0
M  V30 5035 H 478.444 0.801681 0.203066 0
M  V30 5036 H 480.99 1.66115 -0.346978 0
M  V30 5037 H 479.762 3.88443 -0.471999 0
M  V30 5038 H 479.385 3.77779 1.2397 0
M  V30 5039 N 480.382 0.0267497 1.57577 0
M  V30 5040 C 481.345 -0.940916 2.08996 0
M  V30 5041 C 482.345 -1.25561 1.00455 0
M  V30 5042 O 483.535 -1.19634 1.26623 0
M  V30 5043 C 480.667 -2.25814 2.55384 0
M  V30 5044 H 481.86 -0.495628 2.95776 0
M  V30 5045 H 479.413 -0.221241 1.54726 0
M  V30 5046 H 480.148 -2.74976 1.71926 0
M  V30 5047 H 479.933 -2.04285 3.34679 0
M  V30 5048 H 481.423 -2.95178 2.95398 0
M  V30 5049 N 481.861 -1.55662 -0.24637 0
M  V30 5050 C 482.809 -1.91186 -1.3248 0
M  V30 5051 C 483.803 -0.790996 -1.49799 0
M  V30 5052 O 485.009 -0.975617 -1.51267 0
M  V30 5053 H 481.384 -0.607207 -0.443626 0
M  V30 5054 H 483.355 -2.81221 -0.997853 0
M  V30 5055 C 482.104 -2.22349 -2.67313 0
M  V30 5056 H 481.427 -3.08097 -2.54786 0
M  V30 5057 H 482.867 -2.51107 -3.41645 0
M  V30 5058 C 481.326 -1.04001 -3.20446 0
M  V30 5059 O 481.856 -0.28828 -4.00664 0
M  V30 5060 N 480.062 -0.830494 -2.7848 0
M  V30 5061 H 479.609 -1.4435 -2.13356 0
M  V30 5062 H 479.567 -0.0403258 -3.14374 0
M  V30 5063 N 483.339 0.512053 -1.4905 0
M  V30 5064 C 484.302 1.59704 -1.64399 0
M  V30 5065 C 485.302 1.52285 -0.516317 0
M  V30 5066 O 486.492 1.55635 -0.782527 0
M  V30 5067 C 483.624 2.9935 -1.63102 0
M  V30 5068 H 484.817 1.47428 -2.61161 0
M  V30 5069 H 482.37 0.735469 -1.37915 0
M  V30 5070 H 483.105 3.17116 -0.678836 0
M  V30 5071 H 482.89 3.06144 -2.44986 0
M  V30 5072 H 484.38 3.782 -1.77072 0
M  V30 5073 O 484.856 1.47522 0.657231 0
M  V30 5074 H 485.547 1.42634 1.31055 0
M  V30 END ATOM
M  V30 BEGIN BOND
M  V30 END BOND
M  V30 END CTAB
M  END
$$$$
