drugbank_target|P56868 Glutamate racemase (DB02174)
 OpenBabel12092119543D

  0  0  0     0  0            999 V3000
M  V30 BEGIN CTAB
M  V30 COUNTS 4048 4081 0 0 0
M  V30 BEGIN ATOM
M  V30 1 H -0.908 1.98254 -0.117106 0
M  V30 2 N 0 1.576 0 0
M  V30 3 C 0.933 2.03868 1.02534 0
M  V30 4 C 1.911 0.928543 1.3348 0
M  V30 5 O 3.095 1.19667 1.45644 0
M  V30 6 C 0.222 2.43627 2.35294 0
M  V30 7 C -0.732 3.65373 2.2001 0
M  V30 8 S 0.101 5.13292 1.52614 0
M  V30 9 C 1.257 5.56322 2.86805 0
M  V30 10 H 1.49 2.90518 0.631377 0
M  V30 11 H -0.977 1.52953 0.210867 0
M  V30 12 H 0.981 2.67203 3.11629 0
M  V30 13 H -0.358 1.57376 2.7183 0
M  V30 14 H -1.165 3.90944 3.18086 0
M  V30 15 H -1.563 3.418 1.51819 0
M  V30 16 H 0.729 5.58782 3.83104 0
M  V30 17 H 1.672 6.56266 2.65933 0
M  V30 18 H 2.08 4.83886 2.90714 0
M  V30 19 N 1.4781 -0.272755 1.55222 0
M  V30 20 C 2.4251 -1.33716 1.88119 0
M  V30 21 C 3.3951 -1.49066 0.73271 0
M  V30 22 O 4.5801 -1.63469 0.984002 0
M  V30 23 C 1.7201 -2.69238 2.15882 0
M  V30 24 C 0.8331 -2.62108 3.43399 0
M  V30 25 C -0.0319 -3.89811 3.60861 0
M  V30 26 C -0.9929 -3.77193 4.8207 0
M  V30 27 N -1.8559 -4.9673 4.96189 0
M  V30 28 H 2.9841 -1.04962 2.78903 0
M  V30 29 H 0.5211 -0.507088 1.38083 0
M  V30 30 H 2.4791 -3.48089 2.29978 0
M  V30 31 H 1.1091 -2.96194 1.28331 0
M  V30 32 H 0.1611 -1.74967 3.37773 0
M  V30 33 H 1.4731 -2.48685 4.32386 0
M  V30 34 H 0.6271 -4.77103 3.74777 0
M  V30 35 H -0.6339 -4.06102 2.7006 0
M  V30 36 H -1.6289 -2.88284 4.68159 0
M  V30 37 H -0.4039 -3.62421 5.74307 0
M  V30 38 H -2.4579 -5.13431 4.08319 0
M  V30 39 H -2.5409 -4.85839 5.79221 0
M  V30 40 H -1.2729 -5.85594 5.1449 0
M  V30 41 N 2.9562 -1.48159 -0.537278 0
M  V30 42 C 4.2052 -1.5506 -1.28993 0
M  V30 43 C 4.5182 -0.226211 -1.94288 0
M  V30 44 O 5.7242 -0.173395 -2.70946 0
M  V30 45 C 4.1802 -2.73429 -2.34018 0
M  V30 46 C 3.7882 -4.1248 -1.74825 0
M  V30 47 C 5.5322 -2.89638 -3.10339 0
M  V30 48 C 3.4392 -5.22121 -2.77747 0
M  V30 49 H 2.3692 -0.577231 -0.485098 0
M  V30 50 H 5.0202 -1.74478 -0.568317 0
M  V30 51 H 3.4022 -2.47431 -3.09182 0
M  V30 52 H 4.5762 -4.48466 -1.05899 0
M  V30 53 H 2.8912 -4.01327 -1.11022 0
M  V30 54 H 5.4882 -3.68718 -3.87235 0
M  V30 55 H 5.8312 -1.9882 -3.65754 0
M  V30 56 H 6.3642 -3.15502 -2.42288 0
M  V30 57 H 3.1032 -6.1488 -2.27161 0
M  V30 58 H 2.6232 -4.90631 -3.45024 0
M  V30 59 H 4.3022 -5.49924 -3.4087 0
M  V30 60 N 4.4343 0.785586 -1.36625 0
M  V30 61 C 5.6823 1.54057 -1.30808 0
M  V30 62 C 6.0033 1.94683 0.111157 0
M  V30 63 O 5.2733 1.65241 1.05224 0
M  V30 64 H 3.8533 0.571354 -0.481211 0
M  V30 65 H 6.5153 0.935821 -1.70963 0
M  V30 66 H 5.6113 2.44637 -1.93801 0
M  V30 67 N 5.9124 1.20967 1.01018 0
M  V30 68 C 7.1614 1.01796 1.74128 0
M  V30 69 C 7.4744 -0.449691 1.90361 0
M  V30 70 O 8.6804 -0.76068 2.60626 0
M  V30 71 C 7.1364 1.7727 3.13215 0
M  V30 72 C 6.7444 3.28171 3.04972 0
M  V30 73 C 8.4884 1.66489 3.90489 0
M  V30 74 C 6.3954 3.96156 4.39107 0
M  V30 75 H 5.3254 0.377276 0.652824 0
M  V30 76 H 7.9764 1.44651 1.12909 0
M  V30 77 H 6.3584 1.27205 3.75013 0
M  V30 78 H 7.5324 3.85499 2.52443 0
M  V30 79 H 5.8474 3.39437 2.41188 0
M  V30 80 H 8.4444 2.14617 4.89738 0
M  V30 81 H 8.7874 0.6222 4.11624 0
M  V30 82 H 9.3204 2.14003 3.35332 0
M  V30 83 H 6.0594 5.00604 4.23174 0
M  V30 84 H 5.5794 3.43617 4.91617 0
M  V30 85 H 7.2584 4.00774 5.07926 0
M  V30 86 N 7.3905 -1.2043 1.01659 0
M  V30 87 C 8.6375 -1.89797 0.705917 0
M  V30 88 C 8.9655 -1.78848 -0.764439 0
M  V30 89 O 8.2205 -1.16694 -1.57102 0
M  V30 90 C 8.5195 -3.40464 1.08714 0
M  V30 91 C 8.1855 -3.71614 2.5537 0
M  V30 92 C 6.8475 -3.79826 2.95441 0
M  V30 93 C 9.1995 -3.85915 3.50313 0
M  V30 94 C 6.5275 -3.99797 4.29394 0
M  V30 95 C 8.8795 -4.07396 4.83954 0
M  V30 96 C 7.5435 -4.13837 5.23732 0
M  V30 97 H 6.8135 -0.694518 0.258313 0
M  V30 98 H 9.4605 -1.42691 1.27717 0
M  V30 99 H 7.7655 -3.89385 0.434309 0
M  V30 100 H 9.4625 -3.92433 0.824461 0
M  V30 101 H 6.0525 -3.65822 2.23321 0
M  V30 102 H 10.2365 -3.78926 3.20513 0
M  V30 103 H 5.4925 -4.03018 4.59768 0
M  V30 104 H 9.6665 -4.17404 5.57447 0
M  V30 105 H 7.2935 -4.29064 6.27541 0
M  V30 106 N 8.8686 -0.792821 -1.36206 0
M  V30 107 C 10.1456 -0.290627 -1.93429 0
M  V30 108 C 10.5256 1.21773 -1.72437 0
M  V30 109 O 9.8736 2.0108 -1.08531 0
M  V30 110 C 10.0836 -0.686973 -3.42172 0
M  V30 111 C 11.4316 -0.668643 -4.19302 0
M  V30 112 O 12.4556 -0.627658 -3.50626 0
M  V30 113 O 11.3146 -0.714597 -5.41808 0
M  V30 114 H 8.4086 -0.0727927 -0.82379 0
M  V30 115 H 10.9546 -0.875593 -1.45367 0
M  V30 116 H 9.7266 -1.72711 -3.51122 0
M  V30 117 H 9.3496 -0.0760733 -3.97527 0
M  V30 118 N 10.3467 1.47872 -0.545128 0
M  V30 119 C 11.5717 2.07391 -0.0190611 0
M  V30 120 C 11.9967 1.39688 1.25971 0
M  V30 121 O 11.3547 0.467816 1.7516 0
M  V30 122 C 11.4027 3.60188 0.172335 0
M  V30 123 O 10.5067 3.9339 1.23766 0
M  V30 124 H 9.8477 0.662411 -0.0459059 0
M  V30 125 H 12.3777 1.90066 -0.757365 0
M  V30 126 H 12.3877 4.06129 0.390305 0
M  V30 127 H 11.0627 4.08865 -0.761725 0
M  V30 128 H 9.6397 3.5921 1.00114 0
M  V30 129 N 11.8248 0.280983 1.55075 0
M  V30 130 C 13.0728 -0.333455 1.9933 0
M  V30 131 C 13.3938 -1.55937 1.17085 0
M  V30 132 O 12.6638 -1.94143 0.261805 0
M  V30 133 H 11.2438 -0.126197 0.736263 0
M  V30 134 H 13.9058 0.387678 1.91005 0
M  V30 135 H 13.0018 -0.619292 3.05894 0
M  V30 136 N 13.3029 -1.57598 0.00835791 0
M  V30 137 C 14.5489 -1.91211 -0.675732 0
M  V30 138 C 14.8819 -0.883139 -1.72958 0
M  V30 139 O 14.1569 0.097016 -1.94258 0
M  V30 140 C 14.4399 -3.35379 -1.31123 0
M  V30 141 C 14.2929 -4.48999 -0.268356 0
M  V30 142 C 15.6119 -3.7912 -2.23508 0
M  V30 143 H 12.7309 -0.695374 -0.244179 0
M  V30 144 H 15.3729 -1.89901 0.0613655 0
M  V30 145 H 13.5229 -3.36626 -1.93946 0
M  V30 146 H 15.1949 -4.59887 0.360844 0
M  V30 147 H 13.4379 -4.31873 0.408482 0
M  V30 148 H 14.1089 -5.46851 -0.752218 0
M  V30 149 H 16.5849 -3.79477 -1.70693 0
M  V30 150 H 15.4609 -4.80729 -2.64936 0
M  V30 151 H 15.7219 -3.13455 -3.11766 0
M  V30 152 N 14.781 0.264519 -1.55364 0
M  V30 153 C 16.029 0.993021 -1.76021 0
M  V30 154 C 16.35 1.86511 -0.569099 0
M  V30 155 O 15.62 1.91438 0.415735 0
M  V30 156 H 14.2 0.369639 -0.649135 0
M  V30 157 H 16.862 0.286707 -1.9278 0
M  V30 158 H 15.958 1.62502 -2.66457 0
M  V30 159 N 16.2591 1.48442 0.529413 0
M  V30 160 C 17.5071 1.56179 1.28267 0
M  V30 161 C 17.8281 0.237721 1.93546 0
M  V30 162 O 17.0981 -0.740779 1.81354 0
M  V30 163 H 15.6781 0.575367 0.476405 0
M  V30 164 H 18.3401 1.84909 0.61602 0
M  V30 165 H 17.4361 2.34312 2.06165 0
M  V30 166 N 17.7372 -0.778329 1.37039 0
M  V30 167 C 18.6672 -1.90546 1.34962 0
M  V30 168 C 19.6482 -1.68681 0.219274 0
M  V30 169 O 20.8332 -1.89634 0.418624 0
M  V30 170 C 17.9632 -3.27734 1.14925 0
M  V30 171 C 16.9172 -3.64147 2.24902 0
M  V30 172 C 16.2432 -4.99806 1.89996 0
M  V30 173 C 17.5432 -3.71579 3.67051 0
M  V30 174 H 19.2372 -1.92541 2.29277 0
M  V30 175 H 16.7832 -0.924948 1.10366 0
M  V30 176 H 18.7362 -4.06215 1.12104 0
M  V30 177 H 17.4602 -3.26154 0.170631 0
M  V30 178 H 16.1192 -2.8797 2.26868 0
M  V30 179 H 15.7672 -4.94759 0.906796 0
M  V30 180 H 15.4672 -5.25139 2.63634 0
M  V30 181 H 16.9912 -5.80694 1.88749 0
M  V30 182 H 18.4052 -4.40227 3.67251 0
M  V30 183 H 16.8022 -4.08405 4.39688 0
M  V30 184 H 17.8722 -2.72404 4.01154 0
M  V30 185 N 19.2153 -1.21501 -1.00376 0
M  V30 186 C 20.4433 -1.059 -1.77744 0
M  V30 187 C 20.8583 0.391125 -1.84704 0
M  V30 188 O 20.2153 1.27133 -1.30933 0
M  V30 189 C 20.2663 -1.65111 -3.21591 0
M  V30 190 O 19.9873 -3.0445 -3.15027 0
M  V30 191 C 21.4883 -1.54637 -4.15454 0
M  V30 192 H 18.7083 -0.371825 -0.558558 0
M  V30 193 H 21.2523 -1.60865 -1.26264 0
M  V30 194 H 19.4073 -1.14235 -3.70175 0
M  V30 195 H 19.8213 -3.3278 -4.0541 0
M  V30 196 H 21.2953 -2.00808 -5.14179 0
M  V30 197 H 21.7723 -0.501022 -4.36333 0
M  V30 198 H 22.3783 -2.04767 -3.72761 0
M  V30 199 N 20.6934 1.19889 -1.02296 0
M  V30 200 C 21.9394 1.89701 -0.717033 0
M  V30 201 C 22.2724 1.7905 0.751989 0
M  V30 202 O 21.5474 1.17891 1.547 0
M  V30 203 C 21.8304 3.40858 -1.16136 0
M  V30 204 C 21.6834 3.60411 -2.69117 0
M  V30 205 C 23.0024 4.33876 -0.737549 0
M  V30 206 H 20.1214 0.688874 -0.261957 0
M  V30 207 H 22.7634 1.41154 -1.27183 0
M  V30 208 H 20.9134 3.82335 -0.689342 0
M  V30 209 H 22.5854 3.28145 -3.2422 0
M  V30 210 H 20.8284 3.03665 -3.0979 0
M  V30 211 H 21.4994 4.66396 -2.95261 0
M  V30 212 H 23.9754 4.00081 -1.14344 0
M  V30 213 H 22.8514 5.38242 -1.0764 0
M  V30 214 H 23.1124 4.40628 0.360436 0
M  V30 215 N 22.1715 0.800033 1.35784 0
M  V30 216 C 23.1015 0.220184 2.3246 0
M  V30 217 C 24.0825 -0.65073 1.57161 0
M  V30 218 O 25.2675 -0.582359 1.85263 0
M  V30 219 C 22.3975 -0.637353 3.41402 0
M  V30 220 C 21.3515 0.134531 4.27789 0
M  V30 221 C 20.6775 -0.844285 5.27992 0
M  V30 222 C 21.9775 1.32979 5.05088 0
M  V30 223 H 23.6715 1.02787 2.81203 0
M  V30 224 H 21.2175 0.495717 1.35199 0
M  V30 225 H 23.1705 -1.05302 4.08031 0
M  V30 226 H 21.8945 -1.47785 2.91251 0
M  V30 227 H 20.5535 0.531296 3.6273 0
M  V30 228 H 20.2015 -1.68011 4.74111 0
M  V30 229 H 19.9015 -0.332184 5.8666 0
M  V30 230 H 21.4255 -1.2583 5.97494 0
M  V30 231 H 22.8395 0.98934 5.64699 0
M  V30 232 H 21.2365 1.77593 5.7322 0
M  V30 233 H 22.3065 2.11978 4.36111 0
M  V30 234 N 23.6496 -1.47581 0.552962 0
M  V30 235 C 24.5966 -2.29957 -0.197108 0
M  V30 236 C 25.5666 -1.38799 -0.912359 0
M  V30 237 O 26.7516 -1.67761 -0.908888 0
M  V30 238 C 23.8916 -3.22672 -1.22379 0
M  V30 239 C 23.0046 -4.28919 -0.515038 0
M  V30 240 C 22.1396 -5.0879 -1.52664 0
M  V30 241 C 21.1786 -6.06815 -0.802631 0
M  V30 242 N 20.3156 -6.7966 -1.76086 0
M  V30 243 H 25.1556 -2.93578 0.511486 0
M  V30 244 H 22.6926 -1.4471 0.264067 0
M  V30 245 H 24.6506 -3.74845 -1.83159 0
M  V30 246 H 23.2806 -2.60925 -1.90047 0
M  V30 247 H 22.3326 -3.79835 0.207192 0
M  V30 248 H 23.6446 -4.98773 0.0523425 0
M  V30 249 H 22.7986 -5.65091 -2.20809 0
M  V30 250 H 21.5376 -4.38828 -2.12794 0
M  V30 251 H 20.5426 -5.49695 -0.107238 0
M  V30 252 H 21.7676 -6.78784 -0.207135 0
M  V30 253 H 19.7136 -6.12432 -2.35081 0
M  V30 254 H 19.6306 -7.45669 -1.24552 0
M  V30 255 H 20.8986 -7.40538 -2.43359 0
M  V30 256 N 25.1277 -0.289203 -1.54924 0
M  V30 257 C 26.0907 0.579144 -2.21762 0
M  V30 258 C 27.0907 1.07047 -1.1999 0
M  V30 259 O 28.2807 0.968384 -1.44803 0
M  V30 260 C 25.4127 1.80055 -2.8947 0
M  V30 261 H 26.6057 -0.00464908 -2.999 0
M  V30 262 H 24.1587 -0.0399306 -1.56249 0
M  V30 263 H 24.8937 2.42449 -2.15381 0
M  V30 264 H 24.6787 1.45602 -3.64064 0
M  V30 265 H 26.1687 2.41773 -3.40493 0
M  V30 266 N 26.6058 1.57591 -0.0167156 0
M  V30 267 C 27.8548 1.90461 0.663877 0
M  V30 268 C 28.1678 0.893515 1.73999 0
M  V30 269 O 29.3738 1.11302 2.47637 0
M  V30 270 C 27.8298 3.38155 1.23204 0
M  V30 271 C 27.4378 4.47597 0.189866 0
M  V30 272 C 29.1818 3.80111 1.88986 0
M  V30 273 C 27.0888 5.86379 0.768964 0
M  V30 274 H 26.0188 0.710738 0.251729 0
M  V30 275 H 28.6698 1.83326 -0.0799926 0
M  V30 276 H 27.0518 3.40182 2.02712 0
M  V30 277 H 28.2258 4.57112 -0.581846 0
M  V30 278 H 26.5408 4.14766 -0.368475 0
M  V30 279 H 29.1378 4.81145 2.33247 0
M  V30 280 H 29.4808 3.14511 2.72743 0
M  V30 281 H 30.0138 3.80454 1.16187 0
M  V30 282 H 26.7528 6.55493 -0.0301957 0
M  V30 283 H 26.2728 5.80496 1.50945 0
M  V30 284 H 27.9518 6.34563 1.26251 0
M  V30 285 N 28.0839 -0.256276 1.55502 0
M  V30 286 C 29.4999 -0.604325 1.47716 0
M  V30 287 C 29.6999 -1.88763 0.705039 0
M  V30 288 O 28.7559 -2.51445 0.230613 0
M  V30 289 C 30.0689 -0.715756 2.92057 0
M  V30 290 C 31.6169 -0.808706 3.02372 0
M  V30 291 C 32.0919 -0.951777 4.48001 0
M  V30 292 N 33.5829 -1.01688 4.519 0
M  V30 293 C 34.3179 -1.14668 5.61817 0
M  V30 294 N 33.8139 -1.24261 6.81565 0
M  V30 295 N 35.6069 -1.1791 5.49594 0
M  V30 296 H 27.7579 0.586291 2.04148 0
M  V30 297 H 30.0209 0.201015 0.926443 0
M  V30 298 H 29.7269 0.157027 3.51349 0
M  V30 299 H 29.6009 -1.59071 3.42018 0
M  V30 300 H 31.9879 -1.67195 2.43166 0
M  V30 301 H 32.0689 0.0912063 2.55637 0
M  V30 302 H 31.7129 -0.0931291 5.07815 0
M  V30 303 H 31.6429 -1.86659 4.92408 0
M  V30 304 H 34.1339 -0.954468 3.65648 0
M  V30 305 H 34.4469 -1.34046 7.61086 0
M  V30 306 H 32.7919 -1.21236 6.84344 0
M  V30 307 H 35.9829 -1.10057 4.54978 0
M  V30 308 H 36.1559 -1.27681 6.35296 0
M  V30 309 N 29.562 -1.4872 -0.521534 0
M  V30 310 C 30.51 -1.64328 -1.64618 0
M  V30 311 C 31.504 -0.50953 -1.61555 0
M  V30 312 O 32.71 -0.688525 -1.66311 0
M  V30 313 H 29.085 -0.517805 -0.545328 0
M  V30 314 H 31.056 -2.58767 -1.48601 0
M  V30 315 C 29.805 -1.70805 -3.02855 0
M  V30 316 H 29.128 -2.5741 -3.05909 0
M  V30 317 H 30.568 -1.85766 -3.81139 0
M  V30 318 C 29.027 -0.448479 -3.33902 0
M  V30 319 O 29.557 0.434928 -3.99339 0
M  V30 320 N 27.763 -0.317616 -2.88859 0
M  V30 321 H 27.31 -1.03748 -2.35784 0
M  V30 322 H 27.268 0.524113 -3.10001 0
M  V30 323 N 31.0401 0.771051 -1.3745 0
M  V30 324 C 32.4561 1.07171 -1.18265 0
M  V30 325 C 32.6561 2.01491 -0.019287 0
M  V30 326 O 31.7121 2.44244 0.640408 0
M  V30 327 C 33.0251 1.66854 -2.50161 0
M  V30 328 C 34.5731 1.79109 -2.56689 0
M  V30 329 C 35.0481 2.42205 -3.88717 0
M  V30 330 N 36.5391 2.49655 -3.90162 0
M  V30 331 C 37.2741 2.9933 -4.8907 0
M  V30 332 N 36.7701 3.49172 -5.98374 0
M  V30 333 N 38.5631 2.9821 -4.76474 0
M  V30 334 H 30.7141 0.144796 -2.11906 0
M  V30 335 H 32.9771 0.126863 -0.939473 0
M  V30 336 H 32.6831 1.05017 -3.35655 0
M  V30 337 H 32.5571 2.6614 -2.673 0
M  V30 338 H 34.9441 2.40077 -1.71601 0
M  V30 339 H 35.0251 0.785757 -2.43433 0
M  V30 340 H 34.6691 1.81875 -4.74219 0
M  V30 341 H 34.5991 3.43345 -3.99276 0
M  V30 342 H 37.0901 2.14383 -3.11205 0
M  V30 343 H 37.4031 3.8548 -6.69795 0
M  V30 344 H 35.7481 3.47275 -6.02018 0
M  V30 345 H 38.9391 2.58572 -3.90203 0
M  V30 346 H 39.1121 3.36613 -5.53711 0
M  V30 347 N 32.5182 1.22032 0.997298 0
M  V30 348 C 33.7482 1.06686 1.76923 0
M  V30 349 C 34.1562 -0.385838 1.85224 0
M  V30 350 O 33.4992 -1.27929 1.31833 0
M  V30 351 C 33.5612 1.59802 3.22031 0
M  V30 352 C 33.2252 3.08362 3.37286 0
M  V30 353 C 34.2222 4.05835 3.24952 0
M  V30 354 C 31.9072 3.47727 3.6248 0
M  V30 355 C 33.9012 5.4066 3.37588 0
M  V30 356 C 31.5882 4.82701 3.74757 0
M  V30 357 C 32.5862 5.78977 3.62319 0
M  V30 358 O 32.2742 7.11502 3.74193 0
M  V30 359 H 32.0062 0.374767 0.562606 0
M  V30 360 H 34.5602 1.61991 1.26286 0
M  V30 361 H 32.7902 0.989003 3.73839 0
M  V30 362 H 34.4792 1.40184 3.80924 0
M  V30 363 H 35.2452 3.76766 3.05405 0
M  V30 364 H 31.1242 2.73317 3.7124 0
M  V30 365 H 34.6682 6.15788 3.27796 0
M  V30 366 H 30.5652 5.11453 3.9381 0
M  V30 367 H 31.3332 7.19019 3.91093 0
M  V30 368 N 33.9963 -1.19345 1.0293 0
M  V30 369 C 35.4123 -1.41069 0.746446 0
M  V30 370 C 35.6123 -1.90078 -0.668776 0
M  V30 371 O 34.6683 -2.0778 -1.4347 0
M  V30 372 C 35.9813 -2.42141 1.78292 0
M  V30 373 C 37.5293 -2.55887 1.80252 0
M  V30 374 C 38.0043 -3.60214 2.8286 0
M  V30 375 N 39.4953 -3.67711 2.81679 0
M  V30 376 C 40.2303 -4.48128 3.57727 0
M  V30 377 N 39.7263 -5.32248 4.43491 0
M  V30 378 N 41.5193 -4.42782 3.46267 0
M  V30 379 H 33.6703 -0.858536 1.94275 0
M  V30 380 H 35.9333 -0.439541 0.839945 0
M  V30 381 H 35.6393 -2.13155 2.79746 0
M  V30 382 H 35.5133 -3.41323 1.60557 0
M  V30 383 H 37.9003 -2.84196 0.794757 0
M  V30 384 H 37.9813 -1.56858 2.02062 0
M  V30 385 H 37.6253 -3.32647 3.83807 0
M  V30 386 H 37.5553 -4.58895 2.58307 0
M  V30 387 H 40.0463 -3.07634 2.19476 0
M  V30 388 H 40.3593 -5.90729 4.98256 0
M  V30 389 H 38.7043 -5.31707 4.47564 0
M  V30 390 H 41.8953 -3.76107 2.78677 0
M  V30 391 H 42.0683 -5.05215 4.05785 0
M  V30 392 N 35.4744 -0.807222 -1.35358 0
M  V30 393 C 36.4214 -0.216037 -2.29787 0
M  V30 394 C 37.3914 0.650278 -1.52842 0
M  V30 395 O 38.5764 0.595227 -1.81278 0
M  V30 396 C 35.7164 0.628893 -3.39321 0
M  V30 397 C 34.8294 -0.257927 -4.31229 0
M  V30 398 C 33.9644 0.595069 -5.27856 0
M  V30 399 C 33.0034 -0.292111 -6.11403 0
M  V30 400 N 32.1404 0.520895 -7.00165 0
M  V30 401 H 36.9804 -1.02671 -2.79755 0
M  V30 402 H 34.5174 -0.517839 -1.37684 0
M  V30 403 H 36.4754 1.13393 -4.01494 0
M  V30 404 H 35.1054 1.40482 -2.90628 0
M  V30 405 H 34.1574 -0.881076 -3.70056 0
M  V30 406 H 35.4694 -0.940759 -4.89848 0
M  V30 407 H 34.6234 1.16522 -5.95405 0
M  V30 408 H 33.3624 1.31146 -4.69736 0
M  V30 409 H 32.3674 -0.874525 -5.428 0
M  V30 410 H 33.5924 -1.00638 -6.71602 0
M  V30 411 H 31.5384 1.22125 -6.44532 0
M  V30 412 H 31.4554 -0.103877 -7.55929 0
M  V30 413 H 32.7234 1.0743 -7.72062 0
M  V30 414 N 36.9525 1.47285 -0.560781 0
M  V30 415 C 38.1985 2.02764 -0.0381184 0
M  V30 416 C 38.5315 1.43384 1.30976 0
M  V30 417 O 37.8065 0.590733 1.85312 0
M  V30 418 C 38.0895 3.60064 0.0511427 0
M  V30 419 C 37.9425 4.2987 -1.32408 0
M  V30 420 C 39.2615 4.33439 0.762795 0
M  V30 421 H 36.3805 0.736841 -0.0153264 0
M  V30 422 H 39.0225 1.75675 -0.723759 0
M  V30 423 H 37.1725 3.83274 0.635065 0
M  V30 424 H 38.8445 4.17989 -1.95148 0
M  V30 425 H 37.0875 3.90085 -1.8978 0
M  V30 426 H 37.7585 5.38478 -1.21431 0
M  V30 427 H 40.2345 4.15243 0.266965 0
M  V30 428 H 39.1105 5.43124 0.794221 0
M  V30 429 H 39.3715 4.02915 1.81966 0
M  V30 430 N 38.4306 0.297415 1.54768 0
M  V30 431 C 39.7076 -0.365847 1.92148 0
M  V30 432 C 40.0876 -1.71975 1.22424 0
M  V30 433 O 39.4356 -2.25666 0.358739 0
M  V30 434 C 39.6456 -0.484056 3.45627 0
M  V30 435 C 40.9936 -0.756594 4.17805 0
M  V30 436 O 42.0176 -0.568007 3.51642 0
M  V30 437 O 40.8766 -1.11863 5.34929 0
M  V30 438 H 37.9706 -0.203919 0.801465 0
M  V30 439 H 40.5166 0.34521 1.66152 0
M  V30 440 H 39.2886 0.467865 3.88493 0
M  V30 441 H 38.9116 -1.24372 3.77647 0
M  V30 442 N 39.9087 -1.5758 0.0250728 0
M  V30 443 C 41.1577 -1.90811 -0.653767 0
M  V30 444 C 41.4707 -0.90273 -1.73523 0
M  V30 445 O 42.6767 -1.12614 -2.47043 0
M  V30 446 C 41.1327 -3.38804 -1.21409 0
M  V30 447 C 40.7407 -4.47692 -0.166126 0
M  V30 448 C 42.4847 -3.81108 -1.86967 0
M  V30 449 C 40.3917 -5.86779 -0.737856 0
M  V30 450 H 39.3217 -0.712063 -0.247956 0
M  V30 451 H 41.9727 -1.83281 0.0897137 0
M  V30 452 H 40.3547 -3.41252 -2.00905 0
M  V30 453 H 41.5287 -4.56797 0.606079 0
M  V30 454 H 39.8437 -4.14565 0.390466 0
M  V30 455 H 42.4407 -4.82375 -2.30692 0
M  V30 456 H 42.7837 -3.15953 -2.71071 0
M  V30 457 H 43.3167 -3.81065 -1.14167 0
M  V30 458 H 40.0557 -6.55468 0.0649577 0
M  V30 459 H 39.5757 -5.81288 -1.47864 0
M  V30 460 H 41.2547 -6.35223 -1.22884 0
M  V30 461 N 41.3868 0.248026 -1.55636 0
M  V30 462 C 42.6328 0.97767 -1.77678 0
M  V30 463 C 42.9658 1.85016 -0.590135 0
M  V30 464 O 42.2408 1.90095 0.411611 0
M  V30 465 C 42.5238 1.83914 -3.09593 0
M  V30 466 C 42.3768 0.99491 -4.38659 0
M  V30 467 C 43.6958 2.82183 -3.37729 0
M  V30 468 H 40.8148 0.354005 -0.646413 0
M  V30 469 H 43.4568 0.248253 -1.88371 0
M  V30 470 H 41.6068 2.46104 -3.00608 0
M  V30 471 H 43.2788 0.391789 -4.59633 0
M  V30 472 H 41.5218 0.299231 -4.32767 0
M  V30 473 H 42.1928 1.63145 -5.2734 0
M  V30 474 H 44.6688 2.30129 -3.4667 0
M  V30 475 H 43.5448 3.39582 -4.31249 0
M  V30 476 H 43.8058 3.58588 -2.58586 0
M  V30 477 N 42.8649 1.48995 0.513639 0
M  V30 478 C 44.0949 1.61297 1.291 0
M  V30 479 C 44.5029 0.278656 1.87137 0
M  V30 480 O 43.8459 -0.744325 1.67945 0
M  V30 481 C 43.9079 2.61326 2.46879 0
M  V30 482 C 43.5719 4.05993 2.09807 0
M  V30 483 C 44.5689 4.93183 1.64519 0
M  V30 484 C 42.2539 4.51642 2.19829 0
M  V30 485 C 44.2479 6.24056 1.2974 0
M  V30 486 C 41.9349 5.82532 1.84662 0
M  V30 487 C 42.9329 6.68562 1.3969 0
M  V30 488 O 42.6209 7.97014 1.04992 0
M  V30 489 H 42.3529 0.546236 0.39825 0
M  V30 490 H 44.9069 1.95673 0.62459 0
M  V30 491 H 43.1369 2.22104 3.16554 0
M  V30 492 H 44.8259 2.6329 3.08923 0
M  V30 493 H 45.5919 4.59147 1.56233 0
M  V30 494 H 41.4709 3.84855 2.53786 0
M  V30 495 H 45.0149 6.91161 0.945659 0
M  V30 496 H 40.9119 6.16099 1.92594 0
M  V30 497 H 41.6799 8.09913 1.18249 0
M  V30 498 N 44.343 -0.763751 1.37857 0
M  V30 499 C 45.273 -1.89103 1.36975 0
M  V30 500 C 46.254 -1.68439 0.237152 0
M  V30 501 O 47.439 -1.8918 0.438713 0
M  V30 502 C 44.569 -3.26496 1.18395 0
M  V30 503 C 43.523 -3.61741 2.28751 0
M  V30 504 C 42.849 -4.97762 1.95286 0
M  V30 505 C 44.149 -3.67665 3.70972 0
M  V30 506 H 45.843 -1.90099 2.31307 0
M  V30 507 H 43.389 -0.91319 1.11341 0
M  V30 508 H 45.342 -4.05003 1.16406 0
M  V30 509 H 44.066 -3.25955 0.205215 0
M  V30 510 H 42.725 -2.85547 2.29909 0
M  V30 511 H 42.373 -4.93769 0.959221 0
M  V30 512 H 42.073 -5.22313 2.69189 0
M  V30 513 H 43.597 -5.7866 1.94898 0
M  V30 514 H 45.011 -4.36307 3.719 0
M  V30 515 H 43.408 -4.03718 4.43995 0
M  V30 516 H 44.478 -2.68134 4.0402 0
M  V30 517 N 45.8211 -1.22559 -0.990812 0
M  V30 518 C 47.0691 -1.04933 -1.72724 0
M  V30 519 C 47.3901 0.416158 -1.90508 0
M  V30 520 O 46.6601 1.29918 -1.46622 0
M  V30 521 H 45.2401 -0.385296 -0.639965 0
M  V30 522 H 47.9021 -1.54105 -1.19322 0
M  V30 523 H 46.9981 -1.52886 -2.72089 0
M  V30 524 N 47.2992 1.18797 -1.03562 0
M  V30 525 C 48.5762 1.84469 -0.650434 0
M  V30 526 C 48.9562 1.92319 0.870433 0
M  V30 527 O 48.3042 1.44528 1.76986 0
M  V30 528 C 48.5142 3.2306 -1.32036 0
M  V30 529 C 49.8622 3.9915 -1.44792 0
M  V30 530 O 50.8862 3.32481 -1.27806 0
M  V30 531 O 49.7452 5.18587 -1.72423 0
M  V30 532 H 46.8392 0.795251 -0.226946 0
M  V30 533 H 49.3852 1.26231 -1.13419 0
M  V30 534 H 48.1572 3.1222 -2.3587 0
M  V30 535 H 47.7802 3.88949 -0.8249 0
M  V30 536 N 48.7773 0.814389 1.34928 0
M  V30 537 C 50.0053 0.411136 2.02774 0
M  V30 538 C 50.4203 -0.980316 1.61354 0
M  V30 539 O 49.7773 -1.63299 0.814847 0
M  V30 540 C 49.8283 0.493865 3.58111 0
M  V30 541 O 49.5493 1.83047 3.98027 0
M  V30 542 C 51.0503 0.0844174 4.4322 0
M  V30 543 H 48.2703 0.166037 0.650133 0
M  V30 544 H 50.8143 1.10018 1.72384 0
M  V30 545 H 48.9693 -0.147006 3.87121 0
M  V30 546 H 49.3833 1.79872 4.92693 0
M  V30 547 H 50.8573 0.193404 5.51661 0
M  V30 548 H 51.3343 -0.97113 4.28329 0
M  V30 549 H 51.9403 0.69875 4.19521 0
M  V30 550 N 50.2554 -1.46986 0.568584 0
M  V30 551 C 51.2184 -2.28624 -0.162366 0
M  V30 552 C 52.2184 -1.37596 -0.832103 0
M  V30 553 O 53.4084 -1.60115 -0.68622 0
M  V30 554 C 50.5404 -3.17596 -1.23878 0
M  V30 555 H 51.7334 -2.94722 0.554899 0
M  V30 556 H 49.2864 -1.52863 0.325976 0
M  V30 557 H 50.0214 -2.56214 -1.98808 0
M  V30 558 H 49.8064 -3.846 -0.763219 0
M  V30 559 H 51.2964 -3.79078 -1.75185 0
M  V30 560 N 51.7335 -0.305618 -1.54608 0
M  V30 561 C 53.1495 0.0476228 -1.59529 0
M  V30 562 C 53.3495 1.52025 -1.32252 0
M  V30 563 O 52.4055 2.27368 -1.09818 0
M  V30 564 C 53.7185 -0.354471 -2.98603 0
M  V30 565 C 55.2665 -0.303622 -3.11524 0
M  V30 566 C 55.7415 -0.680608 -4.52915 0
M  V30 567 N 57.2325 -0.63332 -4.5885 0
M  V30 568 C 57.9675 -0.897432 -5.66334 0
M  V30 569 N 57.4635 -1.22775 -6.81834 0
M  V30 570 N 59.2565 -0.824186 -5.56025 0
M  V30 571 H 51.4075 -1.2653 -1.70599 0
M  V30 572 H 53.6705 -0.513291 -0.797017 0
M  V30 573 H 53.3765 -1.3798 -3.23503 0
M  V30 574 H 53.2505 0.289568 -3.76087 0
M  V30 575 H 55.6375 0.712472 -2.8637 0
M  V30 576 H 55.7185 -0.982348 -2.36185 0
M  V30 577 H 55.3625 -1.69453 -4.78799 0
M  V30 578 H 55.2925 0.0202385 -5.26596 0
M  V30 579 H 57.7835 -0.389138 -3.75891 0
M  V30 580 H 58.0965 -1.41513 -7.59733 0
M  V30 581 H 56.4415 -1.26583 -6.83375 0
M  V30 582 H 59.6325 -0.565748 -4.64669 0
M  V30 583 H 59.8055 -1.03338 -6.39707 0
M  V30 584 N 53.2116 1.57565 -0.0334293 0
M  V30 585 C 54.4576 1.92262 0.645226 0
M  V30 586 C 54.7906 0.910543 1.71531 0
M  V30 587 O 54.0656 -0.066099 1.94388 0
M  V30 588 C 54.3486 3.37422 1.2577 0
M  V30 589 C 54.2016 4.49369 0.196891 0
M  V30 590 C 55.5206 3.82628 2.17449 0
M  V30 591 H 52.6396 0.699171 0.233085 0
M  V30 592 H 55.2816 1.89779 -0.0915694 0
M  V30 593 H 53.4316 3.39669 1.88566 0
M  V30 594 H 55.1036 4.59254 -0.433962 0
M  V30 595 H 53.3466 4.31168 -0.477137 0
M  V30 596 H 54.0176 5.47978 0.665124 0
M  V30 597 H 56.4936 3.82145 1.64634 0
M  V30 598 H 55.3696 4.84883 2.57254 0
M  V30 599 H 55.6306 3.18376 3.0674 0
M  V30 600 N 54.6897 -0.239769 1.55765 0
M  V30 601 C 56.1007 -0.808263 1.68297 0
M  V30 602 C 56.4517 -1.85736 0.632181 0
M  V30 603 O 55.5767 -2.15277 -0.220204 0
M  V30 604 C 56.1717 -1.47284 3.05111 0
M  V30 605 C 54.7307 -1.98895 3.19559 0
M  V30 606 C 53.8777 -0.842575 2.64189 0
M  V30 607 H 56.8287 -0.0154422 1.58692 0
M  V30 608 H 56.8497 -2.34111 2.99954 0
M  V30 609 H 56.3617 -0.709053 3.81568 0
M  V30 610 H 54.4627 -2.78132 2.47938 0
M  V30 611 H 54.5757 -2.18143 4.26556 0
M  V30 612 H 52.9397 -1.24501 2.22197 0
M  V30 613 H 53.7227 -0.0917552 3.43177 0
M  V30 614 N 56.1678 -1.49265 -0.50573 0
M  V30 615 C 57.3978 -1.61979 -1.28243 0
M  V30 616 C 57.8058 -0.288576 -1.86986 0
M  V30 617 O 57.1488 0.735408 -1.68337 0
M  V30 618 C 57.2108 -2.62632 -2.45489 0
M  V30 619 C 56.8748 -4.071 -2.07651 0
M  V30 620 C 57.8718 -4.94049 -1.61901 0
M  V30 621 C 55.5568 -4.52801 -2.17431 0
M  V30 622 C 57.5508 -6.24736 -1.26428 0
M  V30 623 C 55.2378 -5.83503 -1.8157 0
M  V30 624 C 56.2358 -6.69294 -1.36142 0
M  V30 625 O 55.9238 -7.9756 -1.00764 0
M  V30 626 H 55.6558 -0.54834 -0.395347 0
M  V30 627 H 58.2098 -1.96002 -0.614204 0
M  V30 628 H 56.4398 -2.2378 -3.15372 0
M  V30 629 H 58.1288 -2.64925 -3.07522 0
M  V30 630 H 58.8948 -4.5997 -1.53795 0
M  V30 631 H 54.7738 -3.86196 -2.51742 0
M  V30 632 H 58.3178 -6.91652 -0.908992 0
M  V30 633 H 54.2148 -6.17112 -1.89324 0
M  V30 634 H 54.9828 -8.10529 -1.13952 0
M  V30 635 N 57.6459 0.756429 -1.3826 0
M  V30 636 C 58.8939 1.51248 -1.34047 0
M  V30 637 C 59.2149 1.94875 0.0698372 0
M  V30 638 O 58.4849 1.67436 1.01696 0
M  V30 639 H 57.0649 0.561018 -0.493222 0
M  V30 640 H 59.7269 0.899347 -1.7291 0
M  V30 641 H 58.8229 2.40472 -1.98947 0
M  V30 642 N 59.124 1.23083 0.984299 0
M  V30 643 C 60.373 1.05466 1.71929 0
M  V30 644 C 60.686 -0.409211 1.91272 0
M  V30 645 O 61.892 -0.705226 2.62181 0
M  V30 646 C 60.348 1.83874 3.09384 0
M  V30 647 C 59.956 3.34566 2.97943 0
M  V30 648 C 61.7 1.74734 3.8687 0
M  V30 649 C 59.607 4.05381 4.30605 0
M  V30 650 H 58.537 0.391039 0.644674 0
M  V30 651 H 61.188 1.47013 1.09815 0
M  V30 652 H 59.57 1.35131 3.72231 0
M  V30 653 H 60.744 3.90767 2.44209 0
M  V30 654 H 59.059 3.44476 2.33934 0
M  V30 655 H 61.656 2.24957 4.85076 0
M  V30 656 H 61.999 0.709372 4.10212 0
M  V30 657 H 62.532 2.21067 3.30717 0
M  V30 658 H 59.271 5.09467 4.1246 0
M  V30 659 H 58.791 3.53967 4.84218 0
M  V30 660 H 60.47 4.11458 4.99311 0
M  V30 661 N 60.6021 -1.18246 1.0419 0
M  V30 662 C 62.0181 -1.40269 0.761366 0
M  V30 663 C 62.2181 -1.90777 -0.648578 0
M  V30 664 O 61.2741 -2.0929 -1.41258 0
M  V30 665 C 62.5871 -2.40237 1.8085 0
M  V30 666 C 64.1351 -2.53961 1.82955 0
M  V30 667 C 64.6101 -3.57194 2.86664 0
M  V30 668 N 66.1011 -3.64702 2.85563 0
M  V30 669 C 66.8361 -4.44309 3.6246 0
M  V30 670 N 66.3321 -5.27514 4.49111 0
M  V30 671 N 68.1251 -4.39084 3.50944 0
M  V30 672 H 60.2761 -0.837882 1.95175 0
M  V30 673 H 62.5391 -0.430608 0.84456 0
M  V30 674 H 62.2451 -2.10176 2.81991 0
M  V30 675 H 62.1191 -3.39601 1.64168 0
M  V30 676 H 64.5061 -2.83338 0.824855 0
M  V30 677 H 64.5871 -1.54706 2.03715 0
M  V30 678 H 64.2311 -3.28558 3.87314 0
M  V30 679 H 64.1611 -4.5613 2.6316 0
M  V30 680 H 66.6521 -3.05289 2.22727 0
M  V30 681 H 66.9651 -5.85411 5.04493 0
M  V30 682 H 65.3101 -5.2693 4.53178 0
M  V30 683 H 68.5011 -3.7313 2.82651 0
M  V30 684 H 68.6741 -5.00883 4.11121 0
M  V30 685 N 62.0802 -0.821533 -1.34494 0
M  V30 686 C 63.3052 -0.420873 -2.03085 0
M  V30 687 C 63.7302 0.964915 -1.61465 0
M  V30 688 O 63.0882 1.62763 -0.798607 0
M  V30 689 C 63.1362 -0.529414 -3.56693 0
M  V30 690 O 62.2402 0.451302 -4.09923 0
M  V30 691 H 61.5812 -0.173489 -0.640935 0
M  V30 692 H 64.1112 -1.11157 -1.71771 0
M  V30 693 H 64.1212 -0.404671 -4.05988 0
M  V30 694 H 62.7962 -1.54014 -3.86332 0
M  V30 695 H 61.3732 0.285558 -3.71805 0
M  V30 696 N 63.5583 1.46682 -0.576371 0
M  V30 697 C 64.5053 2.30241 0.160499 0
M  V30 698 C 65.4753 1.40233 0.890162 0
M  V30 699 O 66.6603 1.69186 0.882084 0
M  V30 700 C 63.8003 3.24578 1.1723 0
M  V30 701 C 62.9133 4.29684 0.446736 0
M  V30 702 C 62.0483 5.11154 1.44551 0
M  V30 703 C 61.0873 6.08015 0.70599 0
M  V30 704 N 60.2243 6.82376 1.65251 0
M  V30 705 H 65.0643 2.92727 -0.558127 0
M  V30 706 H 62.6013 1.44272 -0.287056 0
M  V30 707 H 64.5593 3.77711 1.77172 0
M  V30 708 H 63.1893 2.63916 1.85872 0
M  V30 709 H 62.2413 3.79458 -0.267594 0
M  V30 710 H 63.5533 4.98626 -0.131686 0
M  V30 711 H 62.7073 5.68533 2.11791 0
M  V30 712 H 61.4463 4.42158 2.05786 0
M  V30 713 H 60.4513 5.49796 0.0197725 0
M  V30 714 H 61.6763 6.79028 0.09912 0
M  V30 715 H 59.6223 6.16094 2.25308 0
M  V30 716 H 59.5393 7.47556 1.12673 0
M  V30 717 H 60.8073 7.44316 2.31546 0
M  V30 718 N 65.0364 0.313813 1.54444 0
M  V30 719 C 66.3134 -0.345447 1.92525 0
M  V30 720 C 66.6934 -1.70667 1.24242 0
M  V30 721 O 66.0414 -2.25273 0.382654 0
M  V30 722 C 66.2514 -0.44737 3.46121 0
M  V30 723 C 67.5994 -0.712238 4.18584 0
M  V30 724 O 68.6234 -0.530678 3.52225 0
M  V30 725 O 67.4824 -1.06183 5.36085 0
M  V30 726 H 64.5764 -0.195407 0.803583 0
M  V30 727 H 67.1224 0.362813 1.65776 0
M  V30 728 H 65.8944 0.509043 3.87975 0
M  V30 729 H 65.5174 -1.20359 3.78945 0
M  V30 730 N 66.5145 -1.57545 0.0417849 0
M  V30 731 C 67.7425 -1.96624 -0.643928 0
M  V30 732 C 68.1575 -0.918897 -1.64929 0
M  V30 733 O 67.5145 0.0979323 -1.82237 0
M  V30 734 C 67.5655 -3.35781 -1.33914 0
M  V30 735 O 67.2865 -4.365 -0.374048 0
M  V30 736 C 68.7875 -3.89566 -2.1155 0
M  V30 737 H 66.0075 -0.647316 -0.176702 0
M  V30 738 H 68.5515 -2.04229 0.105304 0
M  V30 739 H 66.7065 -3.29357 -2.03968 0
M  V30 740 H 67.1205 -5.17248 -0.869179 0
M  V30 741 H 68.5945 -4.89242 -2.55628 0
M  V30 742 H 69.0715 -3.24488 -2.9598 0
M  V30 743 H 69.6775 -3.99298 -1.46427 0
M  V30 744 N 67.9926 0.231505 -1.5589 0
M  V30 745 C 69.2416 0.955346 -1.7764 0
M  V30 746 C 69.5546 1.85893 -0.608546 0
M  V30 747 O 70.7606 2.62067 -0.70943 0
M  V30 748 C 69.2166 1.74886 -3.14552 0
M  V30 749 C 68.8246 0.891915 -4.39032 0
M  V30 750 C 70.5686 2.46452 -3.45633 0
M  V30 751 C 68.4756 1.68221 -5.66971 0
M  V30 752 H 67.4056 0.360446 -0.662265 0
M  V30 753 H 70.0566 0.209516 -1.823 0
M  V30 754 H 68.4386 2.53723 -3.04041 0
M  V30 755 H 69.6126 0.144793 -4.60572 0
M  V30 756 H 67.9276 0.288863 -4.15397 0
M  V30 757 H 70.5246 3.06061 -4.38441 0
M  V30 758 H 70.8676 3.18841 -2.67668 0
M  V30 759 H 71.4006 1.74613 -3.57428 0
M  V30 760 H 68.1396 1.00178 -6.478 0
M  V30 761 H 67.6596 2.4042 -5.49507 0
M  V30 762 H 69.3386 2.24544 -6.06786 0
M  V30 763 N 69.4707 1.49531 0.497807 0
M  V30 764 C 70.7197 1.58426 1.24837 0
M  V30 765 C 71.0327 0.277643 1.93619 0
M  V30 766 O 72.2387 0.24517 2.70391 0
M  V30 767 C 70.6947 2.79538 2.26686 0
M  V30 768 C 70.3027 4.16971 1.63828 0
M  V30 769 C 72.0467 2.97764 3.0255 0
M  V30 770 C 69.9537 5.29301 2.63807 0
M  V30 771 H 68.8837 0.58989 0.469623 0
M  V30 772 H 71.5347 1.75923 0.521857 0
M  V30 773 H 69.9167 2.55542 3.02514 0
M  V30 774 H 71.0907 4.51116 0.939711 0
M  V30 775 H 69.4057 4.04129 1.00342 0
M  V30 776 H 72.0027 3.78856 3.77323 0
M  V30 777 H 72.3457 2.08448 3.60354 0
M  V30 778 H 72.8787 3.21815 2.33838 0
M  V30 779 H 69.6177 6.20687 2.10779 0
M  V30 780 H 69.1377 4.99606 3.31894 0
M  V30 781 H 70.8167 5.58768 3.2617 0
M  V30 782 N 70.9488 -0.749086 1.3866 0
M  V30 783 C 72.3648 -1.05276 1.19955 0
M  V30 784 C 72.5648 -2.01435 0.05134 0
M  V30 785 O 71.6208 -2.45232 -0.60147 0
M  V30 786 C 72.9338 -1.62853 2.52783 0
M  V30 787 C 74.4818 -1.75002 2.59506 0
M  V30 788 C 74.9568 -2.35991 3.92521 0
M  V30 789 N 76.4478 -2.43416 3.94085 0
M  V30 790 C 77.1828 -2.91511 4.9377 0
M  V30 791 N 76.6788 -3.39608 6.03853 0
M  V30 792 N 78.4718 -2.90592 4.81157 0
M  V30 793 H 70.6228 -0.111066 2.12109 0
M  V30 794 H 72.8858 -0.111901 0.941373 0
M  V30 795 H 72.5918 -0.99664 3.37283 0
M  V30 796 H 72.4658 -2.61854 2.715 0
M  V30 797 H 74.8528 -2.37317 1.75398 0
M  V30 798 H 74.9338 -0.74693 2.44652 0
M  V30 799 H 74.5778 -1.74308 4.77053 0
M  V30 800 H 74.5078 -3.3695 4.04688 0
M  V30 801 H 76.9988 -2.09405 3.14576 0
M  V30 802 H 77.3118 -3.74775 6.75843 0
M  V30 803 H 75.6568 -3.37653 6.07466 0
M  V30 804 H 78.8478 -2.52332 3.94267 0
M  V30 805 H 79.0208 -3.27762 5.58996 0
M  V30 806 N 72.4269 -1.23603 -0.977757 0
M  V30 807 C 73.6569 -1.09487 -1.75203 0
M  V30 808 C 74.0649 0.356321 -1.85814 0
M  V30 809 O 73.4079 1.25816 -1.33851 0
M  V30 810 C 73.4699 -1.64905 -3.19447 0
M  V30 811 C 73.1339 -3.13688 -3.32338 0
M  V30 812 C 74.1309 -4.10953 -3.18455 0
M  V30 813 C 71.8159 -3.53449 -3.56902 0
M  V30 814 C 73.8099 -5.45962 -3.28944 0
M  V30 815 C 71.4969 -4.88602 -3.6703 0
M  V30 816 C 72.4949 -5.84668 -3.53062 0
M  V30 817 O 72.1829 -7.17365 -3.62826 0
M  V30 818 H 71.9149 -0.38367 -0.556573 0
M  V30 819 H 74.4689 -1.6398 -1.23693 0
M  V30 820 H 72.6989 -1.04835 -3.72218 0
M  V30 821 H 74.3879 -1.46226 -3.78646 0
M  V30 822 H 75.1539 -3.81577 -2.99372 0
M  V30 823 H 71.0329 -2.79188 -3.66844 0
M  V30 824 H 74.5769 -6.20925 -3.17958 0
M  V30 825 H 70.4739 -5.17653 -3.85623 0
M  V30 826 H 71.2419 -7.2515 -3.79605 0
M  V30 827 N 73.905 1.17692 -1.04816 0
M  V30 828 C 75.13 1.92327 -0.776207 0
M  V30 829 C 75.555 1.76082 0.661581 0
M  V30 830 O 74.913 1.076 1.45917 0
M  V30 831 C 74.961 3.41539 -1.15687 0
M  V30 832 O 74.065 4.11402 -0.286775 0
M  V30 833 H 73.406 0.599735 -0.284981 0
M  V30 834 H 75.936 1.49201 -1.4 0
M  V30 835 H 75.946 3.92269 -1.12202 0
M  V30 836 H 74.621 3.52684 -2.20425 0
M  V30 837 H 73.198 3.70939 -0.381903 0
M  V30 838 N 75.3831 0.828654 1.34056 0
M  V30 839 C 76.3131 0.269443 2.3194 0
M  V30 840 C 77.2941 -0.617247 1.58506 0
M  V30 841 O 78.4791 -0.542931 1.86456 0
M  V30 842 C 75.6091 -0.564793 3.42677 0
M  V30 843 C 74.5631 0.225241 4.27407 0
M  V30 844 C 73.8891 -0.7321 5.29664 0
M  V30 845 C 75.1891 1.43663 5.02154 0
M  V30 846 H 76.8831 1.08728 2.7896 0
M  V30 847 H 74.4291 0.524283 1.34117 0
M  V30 848 H 76.3821 -0.966233 4.10173 0
M  V30 849 H 75.1061 -1.41574 2.9432 0
M  V30 850 H 73.7651 0.608117 3.61521 0
M  V30 851 H 73.4131 -1.57916 4.77568 0
M  V30 852 H 73.1131 -0.20767 5.87233 0
M  V30 853 H 74.6371 -1.13128 6.00029 0
M  V30 854 H 76.0511 1.1089 5.62473 0
M  V30 855 H 74.4481 1.89711 5.69324 0
M  V30 856 H 75.5181 2.21181 4.31517 0
M  V30 857 N 76.8612 -1.46375 0.584142 0
M  V30 858 C 77.7712 -2.34115 -0.150728 0
M  V30 859 C 78.7872 -1.49838 -0.884567 0
M  V30 860 O 79.9632 -1.82704 -0.847429 0
M  V30 861 C 77.0282 -3.2705 -1.15062 0
M  V30 862 C 76.0892 -4.27228 -0.421293 0
M  V30 863 C 75.3222 -5.15722 -1.37355 0
M  V30 864 O 75.5452 -5.07176 -2.61014 0
M  V30 865 O 74.4792 -5.95383 -0.883355 0
M  V30 866 H 78.3052 -2.98309 0.569708 0
M  V30 867 H 75.8902 -1.45373 0.344535 0
M  V30 868 H 77.7722 -3.84381 -1.72712 0
M  V30 869 H 76.4472 -2.65451 -1.8525 0
M  V30 870 H 75.3542 -3.7358 0.197085 0
M  V30 871 H 76.6872 -4.91616 0.239641 0
M  V30 872 N 78.3393 -0.321999 -1.54275 0
M  V30 873 C 79.5793 0.281657 -2.0245 0
M  V30 874 C 79.9433 1.49468 -1.20513 0
M  V30 875 O 81.1443 2.17109 -1.58484 0
M  V30 876 C 79.4153 0.609014 -3.52173 0
M  V30 877 S 80.9743 1.19255 -4.22284 0
M  V30 878 H 77.7923 0.0852825 -0.705867 0
M  V30 879 H 80.3943 -0.454758 -1.90137 0
M  V30 880 H 79.0983 -0.281982 -4.0943 0
M  V30 881 H 78.6293 1.37567 -3.68563 0
M  V30 882 H 80.6443 2.47944 -4.29812 0
M  V30 883 N 79.8174 1.5752 -0.0501392 0
M  V30 884 C 80.7804 2.1037 0.909786 0
M  V30 885 C 81.7804 1.02308 1.24056 0
M  V30 886 O 82.9704 1.28385 1.17741 0
M  V30 887 C 80.1024 2.58708 2.21998 0
M  V30 888 H 81.2954 2.96479 0.451665 0
M  V30 889 H 78.8484 1.55038 0.198248 0
M  V30 890 H 79.5834 1.75989 2.72394 0
M  V30 891 H 79.3684 3.37675 1.99295 0
M  V30 892 H 80.8584 2.99747 2.9076 0
M  V30 893 N 81.2955 -0.223234 1.56011 0
M  V30 894 C 82.5435 -0.946003 1.78592 0
M  V30 895 C 82.8645 -1.84936 0.618349 0
M  V30 896 O 82.1345 -1.92473 -0.364833 0
M  V30 897 H 80.7145 -0.352298 0.658707 0
M  V30 898 H 83.3765 -0.235494 1.93472 0
M  V30 899 H 82.4725 -1.55381 2.70672 0
M  V30 900 N 82.7736 -1.49793 -0.48987 0
M  V30 901 C 84.0206 -1.59841 -1.24327 0
M  V30 902 C 84.3486 -0.290135 -1.92324 0
M  V30 903 O 83.6036 0.722749 -1.81865 0
M  V30 904 C 83.9026 -2.71488 -2.32441 0
M  V30 905 C 83.5686 -4.12614 -1.81826 0
M  V30 906 C 82.2306 -4.51017 -1.67742 0
M  V30 907 C 84.5826 -5.00892 -1.4407 0
M  V30 908 C 81.9106 -5.75459 -1.14297 0
M  V30 909 C 84.2626 -6.25863 -0.920742 0
M  V30 910 C 82.9266 -6.63086 -0.766383 0
M  V30 911 H 82.1966 -0.584899 -0.454944 0
M  V30 912 H 84.8436 -1.83663 -0.542215 0
M  V30 913 H 83.1486 -2.4168 -3.0838 0
M  V30 914 H 84.8456 -2.76469 -2.90458 0
M  V30 915 H 81.4356 -3.82307 -1.93751 0
M  V30 916 H 85.6196 -4.7187 -1.53794 0
M  V30 917 H 80.8756 -6.02989 -1.01068 0
M  V30 918 H 85.0496 -6.9364 -0.619448 0
M  V30 919 H 82.6766 -7.59393 -0.350083 0
M  V30 920 N 84.2517 0.741722 -1.39055 0
M  V30 921 C 85.1817 1.869 -1.39966 0
M  V30 922 C 86.1627 1.6804 -0.26392 0
M  V30 923 O 87.3477 1.88458 -0.468755 0
M  V30 924 C 84.4777 3.24572 -1.23574 0
M  V30 925 C 83.4317 3.58056 -2.34477 0
M  V30 926 C 82.7577 4.94593 -2.0318 0
M  V30 927 C 84.0577 3.61716 -3.76774 0
M  V30 928 H 85.7517 1.86395 -2.34302 0
M  V30 929 H 83.2977 0.895361 -1.1278 0
M  V30 930 H 85.2507 4.031 -1.22834 0
M  V30 931 H 83.9747 3.25587 -0.257045 0
M  V30 932 H 82.6337 2.81854 -2.34423 0
M  V30 933 H 82.2817 4.92181 -1.03765 0
M  V30 934 H 81.9817 5.17964 -2.77465 0
M  V30 935 H 83.5057 5.75486 -2.04079 0
M  V30 936 H 84.9197 4.30335 -3.78794 0
M  V30 937 H 83.3167 3.96603 -4.50362 0
M  V30 938 H 84.3867 2.61672 -4.08235 0
M  V30 939 N 85.7298 1.2412 0.971189 0
M  V30 940 C 86.6768 1.0305 2.06517 0
M  V30 941 C 87.6468 -0.0550666 1.66009 0
M  V30 942 O 88.8318 0.0988688 1.90544 0
M  V30 943 C 85.9718 0.637653 3.39158 0
M  V30 944 C 85.0848 1.79633 3.92882 0
M  V30 945 C 84.2198 1.34939 5.13775 0
M  V30 946 C 83.2588 2.47823 5.59687 0
M  V30 947 N 82.3958 2.04022 6.71803 0
M  V30 948 H 87.2358 1.96685 2.23873 0
M  V30 949 H 84.7728 0.979694 1.09729 0
M  V30 950 H 86.7308 0.390931 4.15364 0
M  V30 951 H 85.3608 -0.261693 3.21737 0
M  V30 952 H 84.4128 2.15681 3.13346 0
M  V30 953 H 85.7248 2.64466 4.22918 0
M  V30 954 H 84.8788 1.06134 5.97345 0
M  V30 955 H 83.6178 0.471557 4.85415 0
M  V30 956 H 82.6228 2.77392 4.74693 0
M  V30 957 H 83.8478 3.36158 5.90063 0
M  V30 958 H 81.7938 1.18632 6.45184 0
M  V30 959 H 81.7108 2.82409 7.01271 0
M  V30 960 H 82.9788 1.78347 7.58823 0
M  V30 961 N 87.2079 -1.17134 1.05439 0
M  V30 962 C 88.4849 -1.83411 0.679699 0
M  V30 963 C 88.8649 -1.9368 -0.839726 0
M  V30 964 O 88.2129 -1.47325 -1.74664 0
M  V30 965 C 88.4229 -3.20918 1.37159 0
M  V30 966 C 89.7709 -3.96796 1.51123 0
M  V30 967 O 90.7949 -3.30406 1.3308 0
M  V30 968 O 89.6539 -5.15778 1.80651 0
M  V30 969 H 86.7479 -0.79154 0.239569 0
M  V30 970 H 89.2939 -1.24411 1.15413 0
M  V30 971 H 88.0659 -3.08428 2.40807 0
M  V30 972 H 87.6889 -3.87587 0.886674 0
M  V30 973 N 88.686 -0.835752 -1.33615 0
M  V30 974 C 89.633 -0.26473 -2.29277 0
M  V30 975 C 90.603 0.617712 -1.54187 0
M  V30 976 O 91.788 0.556641 -1.825 0
M  V30 977 C 88.928 0.556777 -3.40579 0
M  V30 978 C 88.041 -0.349339 -4.30585 0
M  V30 979 C 87.176 0.482969 -5.29 0
M  V30 980 C 86.215 -0.421732 -6.10645 0
M  V30 981 N 85.352 0.372262 -7.01112 0
M  V30 982 H 90.192 -1.08582 -2.77514 0
M  V30 983 H 87.729 -0.546927 -1.36554 0
M  V30 984 H 89.687 1.04852 -4.03809 0
M  V30 985 H 88.317 1.34286 -2.93542 0
M  V30 986 H 87.369 -0.959372 -3.68104 0
M  V30 987 H 88.681 -1.04445 -4.87742 0
M  V30 988 H 87.835 1.03866 -5.97743 0
M  V30 989 H 86.574 1.21153 -4.72412 0
M  V30 990 H 85.579 -0.989464 -5.40823 0
M  V30 991 H 86.804 -1.14861 -6.69316 0
M  V30 992 H 84.75 1.08426 -6.46977 0
M  V30 993 H 84.667 -0.264198 -7.55538 0
M  V30 994 H 85.935 0.910293 -7.74167 0
M  V30 995 N 90.1641 1.46063 -0.591896 0
M  V30 996 C 91.4121 2.01938 -0.0808391 0
M  V30 997 C 91.7331 1.46475 1.28725 0
M  V30 998 O 91.0031 0.652944 1.84698 0
M  V30 999 H 89.5831 0.746516 -0.0268938 0
M  V30 1000 H 92.2451 1.79055 -0.769752 0
M  V30 1001 H 91.3411 3.12094 -0.0187578 0
M  V30 1002 N 91.6422 0.330177 1.54103 0
M  V30 1003 C 92.8882 -0.270806 2.00984 0
M  V30 1004 C 93.2212 -1.51265 1.21789 0
M  V30 1005 O 92.4962 -1.92142 0.301927 0
M  V30 1006 C 92.7792 -0.598339 3.55094 0
M  V30 1007 C 92.6322 0.654674 4.4501 0
M  V30 1008 C 93.9512 -1.41334 4.16789 0
M  V30 1009 H 91.0702 -0.0969531 0.730595 0
M  V30 1010 H 93.7122 0.448066 1.84641 0
M  V30 1011 H 91.8622 -1.21078 3.69151 0
M  V30 1012 H 93.5342 1.29285 4.42813 0
M  V30 1013 H 91.7772 1.28224 4.14416 0
M  V30 1014 H 92.4482 0.380944 5.50684 0
M  V30 1015 H 94.9242 -0.895597 4.06347 0
M  V30 1016 H 93.8002 -1.61127 5.24718 0
M  V30 1017 H 94.0612 -2.41146 3.70541 0
M  V30 1018 N 93.1203 -1.57491 0.0584922 0
M  V30 1019 C 94.3973 -1.84346 -0.653918 0
M  V30 1020 C 94.7773 -0.948355 -1.88599 0
M  V30 1021 O 94.1253 -0.0112403 -2.28497 0
M  V30 1022 C 94.3353 -3.34239 -1.00425 0
M  V30 1023 C 95.6833 -4.01431 -1.38342 0
M  V30 1024 O 96.7073 -3.38907 -1.09637 0
M  V30 1025 O 95.5663 -5.11683 -1.91943 0
M  V30 1026 H 92.6603 -0.761112 -0.323478 0
M  V30 1027 H 95.2063 -1.6947 0.0884125 0
M  V30 1028 H 93.9783 -3.91089 -0.128625 0
M  V30 1029 H 93.6013 -3.54329 -1.80378 0
M  V30 1030 N 94.5984 0.214957 -1.56127 0
M  V30 1031 C 95.8474 0.936451 -1.78643 0
M  V30 1032 C 96.1604 1.85237 -0.628229 0
M  V30 1033 O 97.3664 2.613 -0.737186 0
M  V30 1034 C 95.8224 1.7154 -3.16389 0
M  V30 1035 C 95.4304 0.845299 -4.39953 0
M  V30 1036 C 97.1744 2.42772 -3.48227 0
M  V30 1037 C 95.0814 1.62198 -5.68723 0
M  V30 1038 H 94.0114 0.353401 -0.666051 0
M  V30 1039 H 96.6624 0.190169 -1.82512 0
M  V30 1040 H 95.0444 2.50484 -3.06715 0
M  V30 1041 H 96.2184 0.0959353 -4.607 0
M  V30 1042 H 94.5334 0.244789 -4.1568 0
M  V30 1043 H 97.1304 3.01394 -4.41663 0
M  V30 1044 H 97.4734 3.15984 -2.71035 0
M  V30 1045 H 98.0064 1.70813 -3.5926 0
M  V30 1046 H 94.7454 0.933011 -6.48826 0
M  V30 1047 H 94.2654 2.34579 -5.52026 0
M  V30 1048 H 95.9444 2.18095 -6.09133 0
M  V30 1049 N 96.0765 1.50051 0.48192 0
M  V30 1050 C 97.3255 1.59741 1.23149 0
M  V30 1051 C 97.6385 0.298163 1.93314 0
M  V30 1052 O 98.8445 0.273835 2.70116 0
M  V30 1053 C 97.3005 2.81926 2.23708 0
M  V30 1054 C 96.9085 4.18685 1.59396 0
M  V30 1055 C 98.6525 3.00956 2.99375 0
M  V30 1056 C 96.5595 5.3207 2.58178 0
M  V30 1057 H 95.4895 0.594838 0.46334 0
M  V30 1058 H 98.1405 1.76467 0.503169 0
M  V30 1059 H 96.5225 2.58736 2.99786 0
M  V30 1060 H 97.6965 4.52088 0.891811 0
M  V30 1061 H 96.0115 4.05171 0.960503 0
M  V30 1062 H 98.6085 3.82836 3.73283 0
M  V30 1063 H 98.9515 2.12258 3.58123 0
M  V30 1064 H 99.4845 3.24277 2.30411 0
M  V30 1065 H 96.2235 6.22888 2.04184 0
M  V30 1066 H 95.7435 5.03098 3.26577 0
M  V30 1067 H 97.4225 5.62196 3.20225 0
M  V30 1068 N 97.5546 -0.734337 1.39446 0
M  V30 1069 C 98.8006 -1.49613 1.36908 0
M  V30 1070 C 99.1336 -1.94169 -0.0347829 0
M  V30 1071 O 98.4086 -1.66833 -0.999847 0
M  V30 1072 C 98.6916 -2.73534 2.34203 0
M  V30 1073 C 98.5446 -2.34993 3.83534 0
M  V30 1074 C 99.8636 -3.75635 2.29317 0
M  V30 1075 H 96.9826 -0.542714 0.498629 0
M  V30 1076 H 99.6246 -0.839597 1.70443 0
M  V30 1077 H 97.7746 -3.29553 2.05736 0
M  V30 1078 H 99.4466 -1.84601 4.22753 0
M  V30 1079 H 97.6896 -1.67213 4.00278 0
M  V30 1080 H 98.3606 -3.23738 4.47099 0
M  V30 1081 H 100.837 -3.29203 2.54489 0
M  V30 1082 H 99.7126 -4.60008 2.99472 0
M  V30 1083 H 99.9736 -4.22603 1.29842 0
M  V30 1084 N 99.0327 -1.24633 -0.964593 0
M  V30 1085 C 100.279 -1.08949 -1.71049 0
M  V30 1086 C 100.612 0.370302 -1.90637 0
M  V30 1087 O 99.8867 1.27349 -1.47011 0
M  V30 1088 C 100.17 -1.83329 -3.0994 0
M  V30 1089 C 100.023 -3.37077 -2.97824 0
M  V30 1090 C 101.342 -1.60846 -4.09654 0
M  V30 1091 H 98.4607 -0.397178 -0.620821 0
M  V30 1092 H 101.103 -1.5334 -1.12191 0
M  V30 1093 H 99.2527 -1.45597 -3.60186 0
M  V30 1094 H 100.925 -3.84425 -2.5498 0
M  V30 1095 H 99.1677 -3.65298 -2.33965 0
M  V30 1096 H 99.8387 -3.84324 -3.96231 0
M  V30 1097 H 102.315 -1.93674 -3.68279 0
M  V30 1098 H 101.191 -2.1534 -5.04896 0
M  V30 1099 H 101.452 -0.547434 -4.38698 0
M  V30 1100 N 100.511 1.16574 -1.06058 0
M  V30 1101 C 101.474 2.19085 -0.673392 0
M  V30 1102 C 102.474 1.5835 0.279648 0
M  V30 1103 O 103.664 1.74088 0.0623488 0
M  V30 1104 C 100.796 3.40899 0.00954234 0
M  V30 1105 H 101.989 2.54853 -1.58081 0
M  V30 1106 H 99.5418 1.30808 -0.855516 0
M  V30 1107 H 100.277 3.10684 0.929826 0
M  V30 1108 H 100.062 3.86233 -0.67573 0
M  V30 1109 H 101.552 4.1675 0.266245 0
M  V30 1110 N 101.989 0.842826 1.3317 0
M  V30 1111 C 103.229 0.446574 1.99462 0
M  V30 1112 C 103.593 -0.976818 1.65295 0
M  V30 1113 O 104.794 -1.477 2.24584 0
M  V30 1114 C 103.065 0.665353 3.51152 0
M  V30 1115 S 104.624 0.364911 4.3728 0
M  V30 1116 H 101.442 0.167803 0.690915 0
M  V30 1117 H 104.044 1.09297 1.62094 0
M  V30 1118 H 102.748 1.7006 3.73507 0
M  V30 1119 H 102.279 0.00494568 3.934 0
M  V30 1120 H 104.294 -0.813761 4.89482 0
M  V30 1121 N 103.467 -1.45747 0.599634 0
M  V30 1122 C 104.415 -2.322 -0.136426 0
M  V30 1123 C 105.409 -1.45497 -0.867583 0
M  V30 1124 O 106.615 -1.62027 -0.78405 0
M  V30 1125 H 102.99 -0.749368 -0.0628588 0
M  V30 1126 H 104.961 -2.92072 0.611281 0
M  V30 1127 C 103.71 -3.28974 -1.12567 0
M  V30 1128 H 103.033 -3.9568 -0.572484 0
M  V30 1129 H 104.473 -3.92212 -1.61077 0
M  V30 1130 C 102.932 -2.55561 -2.19523 0
M  V30 1131 O 103.462 -2.33111 -3.27143 0
M  V30 1132 N 101.668 -2.15832 -1.94589 0
M  V30 1133 H 101.215 -2.3429 -1.07078 0
M  V30 1134 H 101.173 -1.67034 -2.66359 0
M  V30 1135 N 104.945 -0.338344 -1.53925 0
M  V30 1136 C 106.173 0.261298 -2.05243 0
M  V30 1137 C 106.588 1.44625 -1.21363 0
M  V30 1138 O 105.945 1.80811 -0.247736 0
M  V30 1139 C 105.996 0.681412 -3.5502 0
M  V30 1140 O 105.717 -0.456414 -4.35716 0
M  V30 1141 C 107.218 1.34232 -4.22489 0
M  V30 1142 H 104.438 0.0513685 -0.669031 0
M  V30 1143 H 106.982 -0.488822 -1.98572 0
M  V30 1144 H 105.137 1.38148 -3.61931 0
M  V30 1145 H 105.551 -0.122564 -5.24357 0
M  V30 1146 H 107.025 1.58708 -5.28693 0
M  V30 1147 H 107.502 2.29426 -3.74514 0
M  V30 1148 H 108.108 0.684424 -4.19757 0
M  V30 1149 N 106.423 1.57458 -0.0668435 0
M  V30 1150 C 107.386 2.11323 0.887422 0
M  V30 1151 C 108.386 1.03618 1.22964 0
M  V30 1152 O 109.576 1.29626 1.16373 0
M  V30 1153 C 106.708 2.61048 2.19242 0
M  V30 1154 H 107.901 2.96942 0.420194 0
M  V30 1155 H 105.454 1.55239 0.181793 0
M  V30 1156 H 106.189 1.78868 2.70512 0
M  V30 1157 H 105.974 3.39769 1.95702 0
M  V30 1158 H 107.464 3.02814 2.87565 0
M  V30 1159 N 107.901 -0.206675 1.56239 0
M  V30 1160 C 109.126 -0.949474 1.8439 0
M  V30 1161 C 109.551 -1.76549 0.649016 0
M  V30 1162 O 108.909 -1.76782 -0.402231 0
M  V30 1163 C 108.957 -1.83078 3.10668 0
M  V30 1164 O 108.061 -2.9281 2.90407 0
M  V30 1165 H 107.402 -0.268033 0.607499 0
M  V30 1166 H 109.932 -0.215488 2.03462 0
M  V30 1167 H 109.942 -2.2377 3.41161 0
M  V30 1168 H 108.617 -1.23112 3.97261 0
M  V30 1169 H 107.194 -2.55956 2.71184 0
M  V30 1170 N 109.379 -1.50304 -0.473955 0
M  V30 1171 C 110.342 -1.6841 -1.55469 0
M  V30 1172 C 111.342 -0.554905 -1.50922 0
M  V30 1173 O 112.532 -0.821882 -1.53593 0
M  V30 1174 C 109.664 -1.70667 -2.95102 0
M  V30 1175 H 110.857 -2.64828 -1.40733 0
M  V30 1176 H 108.41 -1.39742 -0.700132 0
M  V30 1177 H 109.145 -0.75932 -3.15285 0
M  V30 1178 H 108.93 -2.52698 -2.9981 0
M  V30 1179 H 110.42 -1.8664 -3.73571 0
M  V30 1180 N 110.857 0.726932 -1.39834 0
M  V30 1181 C 112.087 1.51393 -1.40583 0
M  V30 1182 C 112.495 1.892 -0.000740625 0
M  V30 1183 O 111.838 1.55189 0.982951 0
M  V30 1184 C 111.9 2.82588 -2.22226 0
M  V30 1185 C 111.564 2.67169 -3.70769 0
M  V30 1186 C 112.561 2.3518 -4.63666 0
M  V30 1187 C 110.246 2.83788 -4.14451 0
M  V30 1188 C 112.24 2.20002 -5.98229 0
M  V30 1189 C 109.927 2.68229 -5.49087 0
M  V30 1190 C 110.925 2.36382 -6.4079 0
M  V30 1191 O 110.613 2.2093 -7.72946 0
M  V30 1192 H 110.345 0.474168 -0.48181 0
M  V30 1193 H 112.899 0.905247 -1.84376 0
M  V30 1194 H 111.129 3.45746 -1.73195 0
M  V30 1195 H 112.818 3.44247 -2.15055 0
M  V30 1196 H 113.584 2.21984 -4.31217 0
M  V30 1197 H 109.463 3.07566 -3.43401 0
M  V30 1198 H 113.007 1.95067 -6.69772 0
M  V30 1199 H 108.904 2.81006 -5.81125 0
M  V30 1200 H 109.672 2.35937 -7.83757 0
M  V30 1201 N 112.336 1.25143 0.95797 0
M  V30 1202 C 113.299 1.05321 2.03569 0
M  V30 1203 C 114.299 0.007152 1.60798 0
M  V30 1204 O 115.489 0.24903 1.72411 0
M  V30 1205 C 112.621 0.598394 3.35607 0
M  V30 1206 H 113.814 2.00986 2.22586 0
M  V30 1207 H 111.367 1.07502 1.13459 0
M  V30 1208 H 112.102 -0.361014 3.22284 0
M  V30 1209 H 111.887 1.35351 3.67998 0
M  V30 1210 H 113.377 0.48104 4.1482 0
M  V30 1211 N 113.814 -1.1601 1.06675 0
M  V30 1212 C 114.744 -2.22688 0.702307 0
M  V30 1213 C 115.725 -1.67306 -0.307032 0
M  V30 1214 O 116.91 -1.93352 -0.181305 0
M  V30 1215 C 114.04 -3.47178 0.092038 0
M  V30 1216 C 112.994 -4.15477 1.02777 0
M  V30 1217 C 112.32 -5.33963 0.28061 0
M  V30 1218 C 113.62 -4.66019 2.35846 0
M  V30 1219 H 115.314 -2.53429 1.59419 0
M  V30 1220 H 112.86 -1.21813 0.767961 0
M  V30 1221 H 114.813 -4.21037 -0.174814 0
M  V30 1222 H 113.537 -3.15749 -0.834877 0
M  V30 1223 H 112.196 -3.43549 1.27944 0
M  V30 1224 H 111.844 -4.98788 -0.649545 0
M  V30 1225 H 111.544 -5.806 0.904258 0
M  V30 1226 H 113.068 -6.10596 0.021396 0
M  V30 1227 H 114.482 -5.3144 2.15045 0
M  V30 1228 H 112.879 -5.23293 2.93743 0
M  V30 1229 H 113.949 -3.82023 2.98641 0
M  V30 1230 N 115.292 -0.849877 -1.32721 0
M  V30 1231 C 116.202 -0.293791 -2.32753 0
M  V30 1232 C 117.218 0.585906 -1.63839 0
M  V30 1233 O 118.394 0.487413 -1.95413 0
M  V30 1234 C 115.459 0.512752 -3.42887 0
M  V30 1235 C 114.52 -0.39252 -4.27502 0
M  V30 1236 C 113.753 0.375625 -5.32377 0
M  V30 1237 O 113.976 1.60613 -5.4732 0
M  V30 1238 O 112.91 -0.256094 -6.01355 0
M  V30 1239 H 116.736 -1.12242 -2.82197 0
M  V30 1240 H 114.321 -0.612685 -1.36259 0
M  V30 1241 H 116.203 0.970704 -4.10067 0
M  V30 1242 H 114.878 1.31826 -2.95641 0
M  V30 1243 H 113.785 -0.898547 -3.63149 0
M  V30 1244 H 115.118 -1.16309 -4.7826 0
M  V30 1245 N 116.77 1.45427 -0.607355 0
M  V30 1246 C 118.186 1.57283 -0.270985 0
M  V30 1247 C 118.386 1.59875 1.22647 0
M  V30 1248 O 117.442 1.52893 2.00948 0
M  V30 1249 C 118.755 2.85566 -0.941952 0
M  V30 1250 C 120.303 2.9924 -0.917849 0
M  V30 1251 C 120.778 4.30293 -1.56882 0
M  V30 1252 N 122.269 4.37051 -1.5343 0
M  V30 1253 C 123.004 5.37123 -2.00715 0
M  V30 1254 N 122.5 6.43734 -2.56084 0
M  V30 1255 N 124.293 5.28479 -1.91484 0
M  V30 1256 H 116.444 1.41988 -1.57966 0
M  V30 1257 H 118.707 0.67885 -0.661715 0
M  V30 1258 H 118.413 2.8955 -1.99633 0
M  V30 1259 H 118.287 3.74322 -0.465096 0
M  V30 1260 H 120.674 2.94822 0.127984 0
M  V30 1261 H 120.755 2.11895 -1.43297 0
M  V30 1262 H 120.399 4.35469 -2.61398 0
M  V30 1263 H 120.329 5.16454 -1.02873 0
M  V30 1264 H 122.82 3.60615 -1.12982 0
M  V30 1265 H 123.133 7.16341 -2.89958 0
M  V30 1266 H 121.478 6.44485 -2.60122 0
M  V30 1267 H 124.669 4.44098 -1.47967 0
M  V30 1268 H 124.842 6.0632 -2.28648 0
M  V30 1269 N 118.248 0.346503 1.53744 0
M  V30 1270 C 119.178 -0.501193 2.28058 0
M  V30 1271 C 120.159 -1.10014 1.29734 0
M  V30 1272 O 121.344 -1.12097 1.58581 0
M  V30 1273 C 118.474 -1.65078 3.05559 0
M  V30 1274 C 117.428 -1.18003 4.11411 0
M  V30 1275 C 116.754 -2.41837 4.76884 0
M  V30 1276 C 118.054 -0.278394 5.21558 0
M  V30 1277 H 119.748 0.11875 2.99164 0
M  V30 1278 H 117.294 0.0585531 1.43881 0
M  V30 1279 H 119.247 -2.25028 3.56287 0
M  V30 1280 H 117.971 -2.29767 2.32109 0
M  V30 1281 H 116.63 -0.603331 3.61601 0
M  V30 1282 H 116.278 -3.0494 4.00026 0
M  V30 1283 H 115.978 -2.1102 5.48402 0
M  V30 1284 H 117.502 -3.02508 5.30397 0
M  V30 1285 H 118.916 -0.784823 5.67903 0
M  V30 1286 H 117.313 -0.0619707 6.00068 0
M  V30 1287 H 118.383 0.684677 4.80042 0
M  V30 1288 N 119.726 -1.57421 0.075193 0
M  V30 1289 C 120.673 -2.12915 -0.890843 0
M  V30 1290 C 121.643 -1.04252 -1.29309 0
M  V30 1291 O 122.828 -1.31933 -1.37834 0
M  V30 1292 C 119.968 -2.69795 -2.15186 0
M  V30 1293 C 119.081 -3.92624 -1.80194 0
M  V30 1294 C 118.216 -4.37736 -3.00933 0
M  V30 1295 C 117.255 -5.53205 -2.61974 0
M  V30 1296 N 116.392 -5.9326 -3.75483 0
M  V30 1297 H 121.232 -2.95156 -0.410735 0
M  V30 1298 H 118.769 -1.45854 -0.191086 0
M  V30 1299 H 120.727 -3.00883 -2.89008 0
M  V30 1300 H 119.357 -1.90313 -2.60731 0
M  V30 1301 H 118.409 -3.67977 -0.964218 0
M  V30 1302 H 119.721 -4.76482 -1.47534 0
M  V30 1303 H 118.875 -4.70503 -3.8303 0
M  V30 1304 H 117.614 -3.52739 -3.36789 0
M  V30 1305 H 116.619 -5.20086 -1.783 0
M  V30 1306 H 117.844 -6.39936 -2.27284 0
M  V30 1307 H 115.79 -5.11212 -4.11094 0
M  V30 1308 H 115.707 -6.71865 -3.46602 0
M  V30 1309 H 116.975 -6.30651 -4.58148 0
M  V30 1310 N 121.204 0.198386 -1.56346 0
M  V30 1311 C 122.151 1.24589 -1.94284 0
M  V30 1312 C 123.121 1.454 -0.802997 0
M  V30 1313 O 124.306 1.58588 -1.06087 0
M  V30 1314 C 121.446 2.58631 -2.28482 0
M  V30 1315 C 120.559 2.45426 -3.55514 0
M  V30 1316 C 119.694 3.7215 -3.79049 0
M  V30 1317 C 118.733 3.53763 -4.99518 0
M  V30 1318 N 117.87 4.72491 -5.19323 0
M  V30 1319 H 122.71 0.915356 -2.83593 0
M  V30 1320 H 120.247 0.440629 -1.40346 0
M  V30 1321 H 122.205 3.3672 -2.46324 0
M  V30 1322 H 120.835 2.89734 -1.42317 0
M  V30 1323 H 119.887 1.58652 -3.45737 0
M  V30 1324 H 121.199 2.27772 -4.43758 0
M  V30 1325 H 120.353 4.58679 -3.97113 0
M  V30 1326 H 119.092 3.92754 -2.89129 0
M  V30 1327 H 118.097 2.65619 -4.8138 0
M  V30 1328 H 119.322 3.34607 -5.90944 0
M  V30 1329 H 117.268 4.93365 -4.3235 0
M  V30 1330 H 117.185 4.5765 -6.01741 0
M  V30 1331 H 118.453 5.6038 -5.41843 0
M  V30 1332 N 122.682 1.50554 0.465978 0
M  V30 1333 C 123.592 1.72585 1.58907 0
M  V30 1334 C 124.608 0.60911 1.6299 0
M  V30 1335 O 125.784 0.88804 1.80765 0
M  V30 1336 C 122.849 1.81995 2.95091 0
M  V30 1337 C 121.91 3.05751 3.01355 0
M  V30 1338 C 121.143 3.14702 4.31043 0
M  V30 1339 O 121.366 2.30313 5.21835 0
M  V30 1340 O 120.3 4.07468 4.43005 0
M  V30 1341 H 124.126 2.67799 1.43239 0
M  V30 1342 H 121.711 1.34711 0.646013 0
M  V30 1343 H 123.593 1.90335 3.75966 0
M  V30 1344 H 122.268 0.899659 3.10947 0
M  V30 1345 H 121.175 3.02908 2.19539 0
M  V30 1346 H 122.508 3.97375 2.90437 0
M  V30 1347 N 124.16 -0.719506 1.40217 0
M  V30 1348 C 125.409 -1.47486 1.37589 0
M  V30 1349 C 125.722 -1.9559 -0.0201568 0
M  V30 1350 O 126.928 -2.70973 -0.169049 0
M  V30 1351 C 125.384 -2.66575 2.41796 0
M  V30 1352 C 124.992 -2.25358 3.87192 0
M  V30 1353 C 126.736 -3.4433 2.48269 0
M  V30 1354 C 124.643 -3.41262 4.83005 0
M  V30 1355 H 123.573 -0.553901 0.511576 0
M  V30 1356 H 126.224 -0.783427 1.65936 0
M  V30 1357 H 124.606 -3.3787 2.06543 0
M  V30 1358 H 125.78 -1.61509 4.31569 0
M  V30 1359 H 124.095 -1.60657 3.84159 0
M  V30 1360 H 126.692 -4.30569 3.17041 0
M  V30 1361 H 127.035 -3.87872 1.51198 0
M  V30 1362 H 127.568 -2.80076 2.82493 0
M  V30 1363 H 124.307 -3.02755 5.81394 0
M  V30 1364 H 123.827 -4.0404 4.43297 0
M  V30 1365 H 125.506 -4.07383 5.02641 0
M  V30 1366 N 125.638 -1.25649 -0.95132 0
M  V30 1367 C 126.586 -1.06118 -2.06982 0
M  V30 1368 C 127.58 0.00889169 -1.69398 0
M  V30 1369 O 128.786 -0.146988 -1.79399 0
M  V30 1370 H 125.161 -0.326248 -0.677544 0
M  V30 1371 H 127.132 -2.00932 -2.2061 0
M  V30 1372 C 125.881 -0.700145 -3.40578 0
M  V30 1373 H 125.204 -1.51537 -3.69968 0
M  V30 1374 H 126.644 -0.603211 -4.19687 0
M  V30 1375 C 125.103 0.59403 -3.31622 0
M  V30 1376 O 125.633 1.63522 -3.66911 0
M  V30 1377 N 123.839 0.58089 -2.84735 0
M  V30 1378 H 123.386 -0.266783 -2.56215 0
M  V30 1379 H 123.344 1.44695 -2.79125 0
M  V30 1380 N 127.117 1.15442 -1.07289 0
M  V30 1381 C 128.363 1.86489 -0.796846 0
M  V30 1382 C 128.696 1.82078 0.675371 0
M  V30 1383 O 127.971 1.24346 1.4956 0
M  V30 1384 C 128.254 3.35626 -1.30489 0
M  V30 1385 C 128.107 3.48673 -2.84161 0
M  V30 1386 C 129.426 4.30357 -0.920907 0
M  V30 1387 H 126.545 0.677144 -0.290939 0
M  V30 1388 H 129.187 1.35633 -1.33056 0
M  V30 1389 H 127.337 3.79068 -0.850883 0
M  V30 1390 H 129.009 3.14099 -3.37846 0
M  V30 1391 H 127.252 2.90253 -3.22391 0
M  V30 1392 H 127.923 4.53453 -3.14777 0
M  V30 1393 H 130.399 3.94871 -1.3121 0
M  V30 1394 H 129.275 5.33193 -1.30372 0
M  V30 1395 H 129.536 4.4176 0.173226 0
M  V30 1396 N 128.595 0.856903 1.32268 0
M  V30 1397 C 130.006 0.515711 1.79436 0
M  V30 1398 C 130.357 -0.966586 1.70738 0
M  V30 1399 O 129.482 -1.75409 1.26731 0
M  V30 1400 C 130.077 0.929335 3.25805 0
M  V30 1401 C 128.636 0.640006 3.70919 0
M  V30 1402 C 127.783 1.12784 2.53328 0
M  V30 1403 H 130.734 1.04389 1.19535 0
M  V30 1404 H 130.755 0.246633 3.797 0
M  V30 1405 H 130.267 2.00821 3.32103 0
M  V30 1406 H 128.368 -0.428051 3.70133 0
M  V30 1407 H 128.481 1.20788 4.63624 0
M  V30 1408 H 126.845 0.548033 2.48734 0
M  V30 1409 H 127.628 2.21387 2.62379 0
M  V30 1410 N 130.073 -1.45103 0.615059 0
M  V30 1411 C 131.319 -2.02483 0.113347 0
M  V30 1412 C 131.652 -1.48146 -1.25564 0
M  V30 1413 O 130.927 -0.659104 -1.82992 0
M  V30 1414 C 131.21 -3.60005 0.0825278 0
M  V30 1415 C 131.063 -4.2466 1.48271 0
M  V30 1416 C 132.382 -4.35972 -0.601401 0
M  V30 1417 H 129.501 -0.735764 0.0426632 0
M  V30 1418 H 132.143 -1.72868 0.788461 0
M  V30 1419 H 130.293 -3.85367 -0.492378 0
M  V30 1420 H 131.965 -4.10458 2.10527 0
M  V30 1421 H 130.208 -3.82772 2.04127 0
M  V30 1422 H 130.879 -5.336 1.41332 0
M  V30 1423 H 133.355 -4.15947 -0.112666 0
M  V30 1424 H 132.231 -5.45697 -0.592097 0
M  V30 1425 H 132.492 -4.09391 -1.66887 0
M  V30 1426 N 131.551 -0.354651 -1.53558 0
M  V30 1427 C 132.798 0.238443 -2.01091 0
M  V30 1428 C 133.126 1.49663 -1.24222 0
M  V30 1429 O 132.381 1.93049 -0.321003 0
M  V30 1430 C 132.68 0.587121 -3.52545 0
M  V30 1431 C 132.346 -0.575472 -4.47213 0
M  V30 1432 C 131.008 -0.894497 -4.72813 0
M  V30 1433 C 133.36 -1.35489 -5.03281 0
M  V30 1434 C 130.688 -1.99511 -5.51736 0
M  V30 1435 C 133.04 -2.44583 -5.83405 0
M  V30 1436 C 131.704 -2.77033 -6.07296 0
M  V30 1437 H 130.974 0.0872526 -0.735845 0
M  V30 1438 H 133.621 -0.484859 -1.8526 0
M  V30 1439 H 131.926 1.39129 -3.66265 0
M  V30 1440 H 133.623 1.05809 -3.86789 0
M  V30 1441 H 130.213 -0.316774 -4.27428 0
M  V30 1442 H 134.397 -1.12167 -4.83459 0
M  V30 1443 H 129.653 -2.25063 -5.68469 0
M  V30 1444 H 133.827 -3.05401 -6.25862 0
M  V30 1445 H 131.454 -3.6244 -6.68237 0
M  V30 1446 N 133.029 1.57378 -0.0835403 0
M  V30 1447 C 134.277 1.93547 0.581718 0
M  V30 1448 C 134.598 0.96524 1.69435 0
M  V30 1449 O 133.868 0.0153369 1.95894 0
M  V30 1450 H 132.448 0.714521 0.217874 0
M  V30 1451 H 135.11 1.94366 -0.144158 0
M  V30 1452 H 134.206 2.95665 0.999423 0
M  V30 1453 N 134.507 -0.190092 1.56449 0
M  V30 1454 C 135.753 -0.911052 1.81184 0
M  V30 1455 C 136.086 -1.82699 0.658396 0
M  V30 1456 O 135.361 -1.91491 -0.340775 0
M  V30 1457 C 135.644 -1.72297 3.16205 0
M  V30 1458 C 135.497 -0.831419 4.42049 0
M  V30 1459 C 136.816 -2.69454 3.47969 0
M  V30 1460 H 133.935 -0.32977 0.659106 0
M  V30 1461 H 136.577 -0.178169 1.89163 0
M  V30 1462 H 134.727 -2.34778 3.09534 0
M  V30 1463 H 136.399 -0.220929 4.60771 0
M  V30 1464 H 134.642 -0.138406 4.33579 0
M  V30 1465 H 135.313 -1.43461 5.33032 0
M  V30 1466 H 137.789 -2.17104 3.54972 0
M  V30 1467 H 136.665 -3.23342 4.43555 0
M  V30 1468 H 136.926 -3.48744 2.71717 0
M  V30 1469 N 135.985 -1.50799 -0.457987 0
M  V30 1470 C 137.234 -1.6168 -1.20593 0
M  V30 1471 C 137.547 -0.32888 -1.92815 0
M  V30 1472 O 138.753 -0.316773 -2.69646 0
M  V30 1473 C 137.209 -2.8545 -2.19195 0
M  V30 1474 C 136.817 -4.21168 -1.52715 0
M  V30 1475 C 138.561 -3.05681 -2.94549 0
M  V30 1476 C 136.468 -5.3611 -2.4968 0
M  V30 1477 H 135.398 -0.602134 -0.453818 0
M  V30 1478 H 138.049 -1.77245 -0.475031 0
M  V30 1479 H 136.431 -2.63472 -2.95632 0
M  V30 1480 H 137.605 -4.53449 -0.819775 0
M  V30 1481 H 135.92 -4.06648 -0.895922 0
M  V30 1482 H 138.517 -3.88727 -3.67145 0
M  V30 1483 H 138.86 -2.17929 -3.54701 0
M  V30 1484 H 139.393 -3.27901 -2.25223 0
M  V30 1485 H 136.132 -6.26057 -1.94249 0
M  V30 1486 H 135.652 -5.0823 -3.18532 0
M  V30 1487 H 137.331 -5.6722 -3.11241 0
M  V30 1488 N 137.463 0.71206 -1.40597 0
M  V30 1489 C 138.373 1.8562 -1.43466 0
M  V30 1490 C 139.389 1.70902 -0.326902 0
M  V30 1491 O 140.565 1.93105 -0.572043 0
M  V30 1492 C 137.63 3.21451 -1.29884 0
M  V30 1493 C 136.691 3.48398 -2.50833 0
M  V30 1494 C 135.924 4.77749 -2.3789 0
M  V30 1495 O 136.147 5.53089 -1.39459 0
M  V30 1496 O 135.081 5.05111 -3.27333 0
M  V30 1497 H 138.907 1.86155 -2.39958 0
M  V30 1498 H 136.492 0.86295 -1.21957 0
M  V30 1499 H 138.374 4.02579 -1.24531 0
M  V30 1500 H 137.049 3.21636 -0.364997 0
M  V30 1501 H 135.956 2.67265 -2.61763 0
M  V30 1502 H 137.289 3.53014 -3.4299 0
M  V30 1503 N 138.941 1.26152 0.944643 0
M  V30 1504 C 140.352 1.10454 1.50522 0
M  V30 1505 C 140.703 -0.31635 1.93633 0
M  V30 1506 O 139.828 -1.20746 1.79581 0
M  V30 1507 C 140.423 1.99891 2.73549 0
M  V30 1508 C 138.982 1.88348 3.25886 0
M  V30 1509 C 138.129 1.93447 1.9868 0
M  V30 1510 H 141.08 1.39292 0.760489 0
M  V30 1511 H 141.101 1.54477 3.47732 0
M  V30 1512 H 140.613 3.03297 2.42141 0
M  V30 1513 H 138.714 0.878636 3.62092 0
M  V30 1514 H 138.827 2.73696 3.93227 0
M  V30 1515 H 137.191 1.37456 2.14425 0
M  V30 1516 H 137.974 2.98476 1.69607 0
M  V30 1517 N 140.419 -1.14872 1.07899 0
M  V30 1518 C 141.667 -1.85422 0.803941 0
M  V30 1519 C 141.988 -1.83051 -0.67211 0
M  V30 1520 O 141.258 -1.27532 -1.48703 0
M  V30 1521 H 139.838 -0.686537 0.294408 0
M  V30 1522 H 142.5 -1.39226 1.3639 0
M  V30 1523 H 141.596 -2.90399 1.14346 0
M  V30 1524 N 141.898 -0.863906 -1.31812 0
M  V30 1525 C 143.144 -0.472535 -1.97218 0
M  V30 1526 C 143.477 0.971394 -1.68159 0
M  V30 1527 O 142.752 1.68309 -0.974798 0
M  V30 1528 C 143.035 -0.723054 -3.52766 0
M  V30 1529 C 142.888 -2.21608 -3.91421 0
M  V30 1530 C 144.207 -0.185522 -4.39709 0
M  V30 1531 H 141.326 -0.173158 -0.71637 0
M  V30 1532 H 143.968 -1.08403 -1.56041 0
M  V30 1533 H 142.118 -0.202577 -3.87971 0
M  V30 1534 H 143.79 -2.80334 -3.66347 0
M  V30 1535 H 142.033 -2.691 -3.40246 0
M  V30 1536 H 142.704 -2.34203 -4.99853 0
M  V30 1537 H 145.18 -0.630726 -4.11292 0
M  V30 1538 H 144.056 -0.390306 -5.47511 0
M  V30 1539 H 144.317 0.912229 -4.32586 0
M  V30 1540 N 143.376 1.44774 -0.622745 0
M  V30 1541 C 144.323 2.30635 0.0871679 0
M  V30 1542 C 145.293 1.42994 0.845097 0
M  V30 1543 O 146.478 1.71907 0.827812 0
M  V30 1544 C 143.618 3.28144 1.06844 0
M  V30 1545 C 142.731 4.30888 0.309809 0
M  V30 1546 C 141.866 5.15494 1.28215 0
M  V30 1547 C 140.905 6.09953 0.512198 0
M  V30 1548 N 140.042 6.87287 1.43458 0
M  V30 1549 H 144.882 2.90803 -0.650974 0
M  V30 1550 H 142.419 1.43286 -0.33281 0
M  V30 1551 H 144.377 3.83157 1.65066 0
M  V30 1552 H 143.007 2.69695 1.77382 0
M  V30 1553 H 142.059 3.78414 -0.388181 0
M  V30 1554 H 143.371 4.97955 -0.290254 0
M  V30 1555 H 142.525 5.74983 1.93596 0
M  V30 1556 H 141.264 4.48481 1.91614 0
M  V30 1557 H 140.269 5.49581 -0.155151 0
M  V30 1558 H 141.494 6.78999 -0.116958 0
M  V30 1559 H 139.44 6.2295 2.05594 0
M  V30 1560 H 139.357 7.50763 0.888335 0
M  V30 1561 H 140.625 7.51306 2.07749 0
M  V30 1562 N 144.854 0.36279 1.53368 0
M  V30 1563 C 145.764 -0.492994 2.29362 0
M  V30 1564 C 146.78 -1.09507 1.35219 0
M  V30 1565 O 147.956 -1.10662 1.68273 0
M  V30 1566 C 145.021 -1.61855 3.066 0
M  V30 1567 C 144.082 -1.04429 4.16405 0
M  V30 1568 C 143.315 -2.11621 4.89951 0
M  V30 1569 O 143.538 -3.32684 4.63333 0
M  V30 1570 O 142.472 -1.74835 5.75948 0
M  V30 1571 H 146.298 0.125331 3.03441 0
M  V30 1572 H 143.883 0.127253 1.48857 0
M  V30 1573 H 145.765 -2.27302 3.54841 0
M  V30 1574 H 144.44 -2.22233 2.3536 0
M  V30 1575 H 143.347 -0.353819 3.72423 0
M  V30 1576 H 144.68 -0.485113 4.89804 0
M  V30 1577 N 146.332 -1.57332 0.0918853 0
M  V30 1578 C 147.295 -2.12708 -0.85369 0
M  V30 1579 C 148.295 -1.05561 -1.213 0
M  V30 1580 O 149.485 -1.31461 -1.14296 0
M  V30 1581 C 146.617 -2.64503 -2.15061 0
M  V30 1582 H 147.81 -2.97573 -0.3729 0
M  V30 1583 H 145.363 -1.55509 -0.157072 0
M  V30 1584 H 146.098 -1.83149 -2.67632 0
M  V30 1585 H 145.883 -3.4284 -1.90272 0
M  V30 1586 H 147.373 -3.07351 -2.82711 0
M  V30 1587 N 147.81 0.181792 -1.56548 0
M  V30 1588 C 148.74 1.22765 -1.98623 0
M  V30 1589 C 149.721 1.46747 -0.860189 0
M  V30 1590 O 150.906 1.58259 -1.12551 0
M  V30 1591 C 148.036 2.56894 -2.33715 0
M  V30 1592 C 146.99 2.475 -3.49182 0
M  V30 1593 C 146.316 3.86023 -3.69986 0
M  V30 1594 C 147.616 1.98866 -4.82959 0
M  V30 1595 H 149.31 0.877942 -2.86239 0
M  V30 1596 H 146.856 0.42088 -1.37712 0
M  V30 1597 H 148.809 3.30253 -2.61746 0
M  V30 1598 H 147.533 2.93632 -1.42997 0
M  V30 1599 H 146.192 1.76596 -3.21262 0
M  V30 1600 H 145.84 4.20136 -2.76576 0
M  V30 1601 H 145.54 3.80609 -4.47672 0
M  V30 1602 H 147.064 4.60984 -4.00407 0
M  V30 1603 H 148.478 2.61992 -5.09934 0
M  V30 1604 H 146.875 2.04424 -5.64208 0
M  V30 1605 H 147.945 0.942465 -4.75653 0
M  V30 1606 N 149.288 1.51039 0.449983 0
M  V30 1607 C 150.235 1.71439 1.54523 0
M  V30 1608 C 151.205 0.555871 1.56522 0
M  V30 1609 O 152.39 0.788871 1.73728 0
M  V30 1610 C 149.53 1.83384 2.92343 0
M  V30 1611 C 148.643 3.10873 2.9997 0
M  V30 1612 C 147.778 3.13488 4.28834 0
M  V30 1613 C 146.817 4.35343 4.30282 0
M  V30 1614 N 145.954 4.35579 5.5065 0
M  V30 1615 H 150.794 2.64934 1.36433 0
M  V30 1616 H 148.331 1.31312 0.662982 0
M  V30 1617 H 150.289 1.88291 3.72293 0
M  V30 1618 H 148.919 0.933086 3.0902 0
M  V30 1619 H 147.971 3.15336 2.12761 0
M  V30 1620 H 149.283 4.00814 2.96901 0
M  V30 1621 H 148.437 3.17241 5.17149 0
M  V30 1622 H 147.176 2.21414 4.34543 0
M  V30 1623 H 146.181 4.3178 3.40362 0
M  V30 1624 H 147.406 5.28668 4.26248 0
M  V30 1625 H 145.352 3.46369 5.57104 0
M  V30 1626 H 145.269 5.19313 5.49409 0
M  V30 1627 H 146.537 4.43507 6.41032 0
M  V30 1628 N 150.766 -0.704594 1.40972 0
M  V30 1629 C 151.713 -1.81862 1.42109 0
M  V30 1630 C 152.683 -1.63781 0.276593 0
M  V30 1631 O 153.868 -1.84759 0.4763 0
M  V30 1632 C 151.008 -3.19669 1.30022 0
M  V30 1633 C 150.121 -3.49246 2.54267 0
M  V30 1634 C 149.256 -4.76618 2.3454 0
M  V30 1635 C 148.295 -4.99133 3.54306 0
M  V30 1636 N 147.432 -6.17726 3.33706 0
M  V30 1637 H 152.272 -1.80226 2.37324 0
M  V30 1638 H 149.809 -0.880238 1.17857 0
M  V30 1639 H 151.767 -3.99263 1.21018 0
M  V30 1640 H 150.397 -3.20506 0.384192 0
M  V30 1641 H 149.449 -2.64125 2.73756 0
M  V30 1642 H 150.761 -3.61788 3.43381 0
M  V30 1643 H 149.915 -5.64249 2.22952 0
M  V30 1644 H 148.654 -4.66305 1.42867 0
M  V30 1645 H 147.659 -4.09953 3.66359 0
M  V30 1646 H 148.884 -5.11311 4.4692 0
M  V30 1647 H 146.83 -6.08642 2.44725 0
M  V30 1648 H 146.747 -6.30995 4.16391 0
M  V30 1649 H 148.015 -7.08115 3.25873 0
M  V30 1650 N 152.244 -1.26651 -0.937939 0
M  V30 1651 C 153.469 -1.15279 -1.72411 0
M  V30 1652 C 153.894 0.287866 -1.85884 0
M  V30 1653 O 153.252 1.20855 -1.35143 0
M  V30 1654 C 153.3 -1.83028 -3.10698 0
M  V30 1655 O 152.404 -1.12128 -3.96864 0
M  V30 1656 H 151.745 -0.401504 -0.528858 0
M  V30 1657 H 154.275 -1.67531 -1.1745 0
M  V30 1658 H 154.285 -1.89981 -3.6107 0
M  V30 1659 H 152.96 -2.87833 -3.00208 0
M  V30 1660 H 151.537 -1.13173 -3.55312 0
M  V30 1661 N 153.722 1.14298 -1.08507 0
M  V30 1662 C 155.138 1.37347 -0.812901 0
M  V30 1663 C 155.338 1.93052 0.577325 0
M  V30 1664 O 154.394 2.14389 1.33393 0
M  V30 1665 C 155.707 2.33359 -1.89642 0
M  V30 1666 C 157.255 2.46996 -1.92255 0
M  V30 1667 C 157.73 3.46309 -2.99724 0
M  V30 1668 N 159.221 3.53853 -2.98902 0
M  V30 1669 C 159.956 4.3055 -3.787 0
M  V30 1670 N 159.452 5.10482 -4.6838 0
M  V30 1671 N 161.245 4.25757 -3.66998 0
M  V30 1672 H 153.396 0.764867 -1.9815 0
M  V30 1673 H 155.659 0.398966 -0.859959 0
M  V30 1674 H 155.365 1.99565 -2.89597 0
M  V30 1675 H 155.239 3.33274 -1.76659 0
M  V30 1676 H 157.626 2.80081 -0.929445 0
M  V30 1677 H 157.707 1.47039 -2.09316 0
M  V30 1678 H 157.351 3.13957 -3.99241 0
M  V30 1679 H 157.281 4.46049 -2.79907 0
M  V30 1680 H 159.772 2.96812 -2.33904 0
M  V30 1681 H 160.085 5.66284 -5.25873 0
M  V30 1682 H 158.43 5.09747 -4.72422 0
M  V30 1683 H 161.621 3.62383 -2.96304 0
M  V30 1684 H 161.794 4.85279 -4.29427 0
M  V30 1685 N 155.201 0.870884 1.31352 0
M  V30 1686 C 156.149 0.316445 2.30437 0
M  V30 1687 C 157.143 -0.568965 1.59559 0
M  V30 1688 O 158.349 -0.454964 1.74155 0
M  V30 1689 H 154.724 0.0836521 0.747333 0
M  V30 1690 H 156.695 1.16606 2.74673 0
M  V30 1691 C 155.444 -0.46635 3.44558 0
M  V30 1692 H 154.767 0.205687 3.99271 0
M  V30 1693 H 156.207 -0.819614 4.16003 0
M  V30 1694 C 154.666 -1.65797 2.9328 0
M  V30 1695 O 155.196 -2.75728 2.92125 0
M  V30 1696 N 153.402 -1.49041 2.4947 0
M  V30 1697 H 152.949 -0.59612 2.50608 0
M  V30 1698 H 152.907 -2.28911 2.15516 0
M  V30 1699 N 156.679 -1.44442 0.630414 0
M  V30 1700 C 157.626 -2.30678 -0.0749355 0
M  V30 1701 C 158.596 -1.4344 -0.837502 0
M  V30 1702 O 159.781 -1.72343 -0.818684 0
M  V30 1703 C 156.921 -3.28706 -1.05103 0
M  V30 1704 C 156.034 -4.31046 -0.286954 0
M  V30 1705 C 155.169 -5.16167 -1.2548 0
M  V30 1706 C 154.208 -6.10216 -0.479843 0
M  V30 1707 N 153.345 -6.88039 -1.39811 0
M  V30 1708 H 158.185 -2.90454 0.666386 0
M  V30 1709 H 155.722 -1.43107 0.340404 0
M  V30 1710 H 157.68 -3.84027 -1.63031 0
M  V30 1711 H 156.31 -2.70632 -1.75949 0
M  V30 1712 H 155.362 -3.78203 0.408243 0
M  V30 1713 H 156.674 -4.97794 0.316657 0
M  V30 1714 H 155.828 -5.76002 -1.90544 0
M  V30 1715 H 154.567 -4.49491 -1.89233 0
M  V30 1716 H 153.572 -5.49491 0.184295 0
M  V30 1717 H 154.797 -6.78928 0.152965 0
M  V30 1718 H 152.743 -6.24032 -2.02287 0
M  V30 1719 H 152.66 -7.51223 -0.848508 0
M  V30 1720 H 153.928 -7.52397 -2.03762 0
M  V30 1721 N 158.157 -0.370918 -1.53173 0
M  V30 1722 C 159.104 0.473035 -2.259 0
M  V30 1723 C 160.074 1.07311 -1.26781 0
M  V30 1724 O 161.259 1.1046 -1.55574 0
M  V30 1725 C 158.399 1.60405 -3.05556 0
M  V30 1726 C 157.512 1.02863 -4.19575 0
M  V30 1727 C 156.647 2.12918 -4.86661 0
M  V30 1728 C 155.686 1.52869 -5.92704 0
M  V30 1729 N 154.823 2.56779 -6.53459 0
M  V30 1730 H 159.663 -0.153649 -2.97604 0
M  V30 1731 H 157.2 -0.0875946 -1.46839 0
M  V30 1732 H 159.158 2.27034 -3.50016 0
M  V30 1733 H 157.788 2.20131 -2.36097 0
M  V30 1734 H 156.84 0.252465 -3.79561 0
M  V30 1735 H 158.152 0.549642 -4.95762 0
M  V30 1736 H 157.306 2.87356 -5.34333 0
M  V30 1737 H 156.045 2.6417 -4.09958 0
M  V30 1738 H 155.05 0.769479 -5.44389 0
M  V30 1739 H 156.275 1.02435 -6.7133 0
M  V30 1740 H 154.221 3.07235 -5.79606 0
M  V30 1741 H 154.138 2.13583 -7.25202 0
M  V30 1742 H 155.406 3.30903 -7.05779 0
M  V30 1743 N 159.635 1.57281 -0.100228 0
M  V30 1744 C 160.884 1.93713 0.561984 0
M  V30 1745 C 161.197 0.984492 1.69018 0
M  V30 1746 O 162.403 1.24273 2.41389 0
M  V30 1747 C 160.859 3.4421 1.05106 0
M  V30 1748 C 160.467 4.47975 -0.0476628 0
M  V30 1749 C 162.211 3.89595 1.68571 0
M  V30 1750 C 160.118 5.89631 0.457055 0
M  V30 1751 H 159.048 0.723082 0.2137 0
M  V30 1752 H 161.699 1.82644 -0.177057 0
M  V30 1753 H 160.081 3.50449 1.84395 0
M  V30 1754 H 161.255 4.53385 -0.823333 0
M  V30 1755 H 159.57 4.1223 -0.587816 0
M  V30 1756 H 162.167 4.92832 2.07414 0
M  V30 1757 H 162.51 3.28526 2.55688 0
M  V30 1758 H 163.043 3.86078 0.958562 0
M  V30 1759 H 159.782 6.54411 -0.377616 0
M  V30 1760 H 159.302 5.87681 1.19962 0
M  V30 1761 H 160.981 6.40363 0.92437 0
M  V30 1762 N 161.113 -0.173488 1.56642 0
M  V30 1763 C 162.361 -0.888706 1.81512 0
M  V30 1764 C 162.682 -1.82875 0.676872 0
M  V30 1765 O 161.952 -1.93536 -0.303414 0
M  V30 1766 H 160.532 -0.331164 0.669582 0
M  V30 1767 H 163.194 -0.173823 1.94123 0
M  V30 1768 H 162.29 -1.46691 2.75478 0
M  V30 1769 N 162.591 -1.51276 -0.441967 0
M  V30 1770 C 163.837 -1.63958 -1.19355 0
M  V30 1771 C 164.17 -0.352543 -1.90973 0
M  V30 1772 O 163.445 0.647627 -1.83401 0
M  V30 1773 C 163.728 -2.83979 -2.21422 0
M  V30 1774 C 163.581 -4.22646 -1.53918 0
M  V30 1775 C 164.9 -2.99521 -3.22451 0
M  V30 1776 H 162.019 -0.596709 -0.432559 0
M  V30 1777 H 164.661 -1.83748 -0.483398 0
M  V30 1778 H 162.811 -2.67237 -2.81987 0
M  V30 1779 H 164.483 -4.51045 -0.967256 0
M  V30 1780 H 162.726 -4.25558 -0.841615 0
M  V30 1781 H 163.397 -5.02609 -2.28229 0
M  V30 1782 H 165.873 -3.14944 -2.71937 0
M  V30 1783 H 164.749 -3.85072 -3.91166 0
M  V30 1784 H 165.01 -2.11391 -3.88287 0
M  V30 1785 N 164.069 0.697108 -1.41344 0
M  V30 1786 C 165.318 1.45279 -1.39918 0
M  V30 1787 C 165.631 1.95597 -0.0109624 0
M  V30 1788 O 166.837 2.71208 0.125919 0
M  V30 1789 C 165.293 2.62695 -2.46007 0
M  V30 1790 C 164.901 2.19169 -3.90729 0
M  V30 1791 C 166.645 3.40336 -2.53715 0
M  V30 1792 C 164.552 3.33535 -4.88373 0
M  V30 1793 H 163.482 0.545692 -0.520323 0
M  V30 1794 H 166.133 0.756929 -1.67161 0
M  V30 1795 H 164.515 3.34541 -2.11892 0
M  V30 1796 H 165.689 1.54623 -4.34083 0
M  V30 1797 H 164.004 1.54525 -3.86666 0
M  V30 1798 H 166.601 4.2547 -3.2385 0
M  V30 1799 H 166.944 3.85418 -1.5735 0
M  V30 1800 H 167.477 2.75546 -2.86913 0
M  V30 1801 H 164.216 2.93468 -5.86137 0
M  V30 1802 H 163.736 3.96936 -4.49668 0
M  V30 1803 H 165.415 3.99335 -5.09059 0
M  V30 1804 N 165.547 1.27147 0.931209 0
M  V30 1805 C 166.795 1.13055 1.6752 0
M  V30 1806 C 167.116 -0.324791 1.92276 0
M  V30 1807 O 166.386 -1.22775 1.52654 0
M  V30 1808 H 164.966 0.415391 0.620854 0
M  V30 1809 H 167.628 1.59623 1.11833 0
M  V30 1810 H 166.724 1.65694 2.64485 0
M  V30 1811 N 167.025 -1.13721 1.09112 0
M  V30 1812 C 168.253 -1.88773 0.846899 0
M  V30 1813 C 168.668 -1.7896 -0.601572 0
M  V30 1814 O 168.025 -1.15394 -1.41388 0
M  V30 1815 C 168.076 -3.3849 1.26913 0
M  V30 1816 O 167.797 -3.48043 2.66079 0
M  V30 1817 C 169.298 -4.30518 1.05682 0
M  V30 1818 H 166.518 -0.59772 0.304914 0
M  V30 1819 H 169.062 -1.43977 1.45227 0
M  V30 1820 H 167.217 -3.80881 0.707723 0
M  V30 1821 H 167.631 -4.4109 2.83795 0
M  V30 1822 H 169.105 -5.3391 1.40156 0
M  V30 1823 H 169.582 -4.392 -0.00563416 0
M  V30 1824 H 170.188 -3.93893 1.60402 0
M  V30 1825 N 168.503 -0.877838 -1.30888 0
M  V30 1826 C 169.914 -0.544193 -1.78593 0
M  V30 1827 C 170.265 0.939301 -1.72254 0
M  V30 1828 O 169.39 1.7337 -1.29505 0
M  V30 1829 C 169.985 -0.98105 -3.24285 0
M  V30 1830 C 168.544 -0.698935 -3.69854 0
M  V30 1831 C 167.691 -1.168 -2.51502 0
M  V30 1832 H 170.642 -1.06278 -1.17859 0
M  V30 1833 H 170.663 -0.307009 -3.79259 0
M  V30 1834 H 170.175 -2.06079 -3.28866 0
M  V30 1835 H 168.276 0.369112 -3.70767 0
M  V30 1836 H 168.389 -1.28148 -4.61644 0
M  V30 1837 H 166.753 -0.587535 -2.47831 0
M  V30 1838 H 167.536 -2.25533 -2.58824 0
M  V30 1839 N 169.982 1.44106 -0.638065 0
M  V30 1840 C 170.945 2.29138 0.0531013 0
M  V30 1841 C 171.945 1.41409 0.765506 0
M  V30 1842 O 173.135 1.63206 0.609046 0
M  V30 1843 C 170.267 3.23144 1.08584 0
M  V30 1844 H 171.46 2.91739 -0.694883 0
M  V30 1845 H 169.013 1.51134 -0.398538 0
M  V30 1846 H 169.748 2.65408 1.86357 0
M  V30 1847 H 169.533 3.87804 0.578852 0
M  V30 1848 H 171.023 3.87004 1.56899 0
M  V30 1849 N 171.46 0.379036 1.52974 0
M  V30 1850 C 172.688 -0.20679 2.05864 0
M  V30 1851 C 173.103 -1.41356 1.25155 0
M  V30 1852 O 172.46 -1.8009 0.295588 0
M  V30 1853 C 172.511 -0.587045 3.56702 0
M  V30 1854 O 172.232 0.571776 4.34353 0
M  V30 1855 C 173.733 -1.22983 4.25899 0
M  V30 1856 H 170.953 -0.0336123 0.670158 0
M  V30 1857 H 173.497 0.541298 1.97206 0
M  V30 1858 H 171.652 -1.28504 3.65466 0
M  V30 1859 H 172.066 0.261544 5.23847 0
M  V30 1860 H 173.54 -1.44635 5.32715 0
M  V30 1861 H 174.017 -2.19416 3.80465 0
M  V30 1862 H 174.623 -0.572892 4.21424 0
M  V30 1863 N 172.938 -1.57226 0.108567 0
M  V30 1864 C 174.184 -1.95121 -0.552761 0
M  V30 1865 C 174.517 -0.991345 -1.66991 0
M  V30 1866 O 173.792 -0.0267211 -1.94482 0
M  V30 1867 C 174.075 -3.43039 -1.09528 0
M  V30 1868 C 173.928 -4.49797 0.0177332 0
M  V30 1869 C 175.247 -3.92567 -1.98945 0
M  V30 1870 H 172.366 -0.709496 -0.199461 0
M  V30 1871 H 175.008 -1.89126 0.182011 0
M  V30 1872 H 173.158 -3.48279 -1.72146 0
M  V30 1873 H 174.83 -4.56661 0.652584 0
M  V30 1874 H 173.073 -4.284 0.682309 0
M  V30 1875 H 173.744 -5.50528 -0.402919 0
M  V30 1876 H 176.22 -3.89565 -1.46214 0
M  V30 1877 H 175.096 -4.96605 -2.33827 0
M  V30 1878 H 175.357 -3.32648 -2.91201 0
M  V30 1879 N 174.416 0.165178 -1.56732 0
M  V30 1880 C 175.363 1.2044 -1.96883 0
M  V30 1881 C 176.333 1.43664 -0.833657 0
M  V30 1882 O 177.518 1.56302 -1.09427 0
M  V30 1883 C 174.658 2.53727 -2.33916 0
M  V30 1884 C 173.771 2.3783 -3.6064 0
M  V30 1885 C 172.906 3.64026 -3.86857 0
M  V30 1886 C 171.945 3.43088 -5.06909 0
M  V30 1887 N 171.082 4.61369 -5.29229 0
M  V30 1888 H 175.922 0.854996 -2.85471 0
M  V30 1889 H 173.459 0.41076 -1.41249 0
M  V30 1890 H 175.417 3.31419 -2.53411 0
M  V30 1891 H 174.047 2.8665 -1.48431 0
M  V30 1892 H 173.099 1.51282 -3.49024 0
M  V30 1893 H 174.411 2.18308 -4.4849 0
M  V30 1894 H 173.565 4.50152 -4.06753 0
M  V30 1895 H 172.304 3.86533 -2.97394 0
M  V30 1896 H 171.309 2.55349 -4.86906 0
M  V30 1897 H 172.534 3.21997 -5.97909 0
M  V30 1898 H 170.48 4.84084 -4.42718 0
M  V30 1899 H 170.397 4.44783 -6.11313 0
M  V30 1900 H 171.665 5.48761 -5.53608 0
M  V30 1901 N 175.894 1.51508 0.433938 0
M  V30 1902 C 177.119 1.68443 1.21003 0
M  V30 1903 C 177.544 0.382636 1.84167 0
M  V30 1904 O 176.902 -0.65755 1.68956 0
M  V30 1905 C 176.95 2.80405 2.26727 0
M  V30 1906 O 176.054 2.44245 3.32292 0
M  V30 1907 H 175.395 0.561536 0.354363 0
M  V30 1908 H 177.925 1.9809 0.512024 0
M  V30 1909 H 177.935 3.0459 2.71457 0
M  V30 1910 H 176.61 3.74867 1.80132 0
M  V30 1911 H 175.187 2.30644 2.93015 0
M  V30 1912 N 177.372 -0.689602 1.41712 0
M  V30 1913 C 178.62 -1.4468 1.4111 0
M  V30 1914 C 178.941 -1.94986 0.0232196 0
M  V30 1915 O 178.211 -1.72097 -0.935913 0
M  V30 1916 H 176.791 -0.536847 0.519427 0
M  V30 1917 H 179.453 -0.815825 1.77004 0
M  V30 1918 H 178.549 -2.30706 2.10193 0
M  V30 1919 N 178.85 -1.27639 -0.924453 0
M  V30 1920 C 179.813 -1.10681 -2.00705 0
M  V30 1921 C 180.813 -0.0497823 -1.60723 0
M  V30 1922 O 182.003 -0.294654 -1.7169 0
M  V30 1923 C 179.135 -0.687164 -3.33902 0
M  V30 1924 H 180.328 -2.06817 -2.17179 0
M  V30 1925 H 177.881 -1.10473 -1.10569 0
M  V30 1926 H 178.616 0.275439 -3.23128 0
M  V30 1927 H 178.401 -1.45061 -3.6428 0
M  V30 1928 H 179.891 -0.590853 -4.13399 0
M  V30 1929 N 180.328 1.1314 -1.09713 0
M  V30 1930 C 181.558 1.88048 -0.855656 0
M  V30 1931 C 181.966 1.79537 0.596919 0
M  V30 1932 O 181.309 1.16196 1.42282 0
M  V30 1933 C 181.371 3.38314 -1.21589 0
M  V30 1934 C 181.035 3.70605 -2.67397 0
M  V30 1935 C 182.032 3.69596 -3.65643 0
M  V30 1936 C 179.717 4.0017 -3.03593 0
M  V30 1937 C 181.711 3.977 -4.9811 0
M  V30 1938 C 179.398 4.27935 -4.36251 0
M  V30 1939 C 180.396 4.26685 -5.33318 0
M  V30 1940 O 180.084 4.53767 -6.63589 0
M  V30 1941 H 179.816 0.60208 -0.307368 0
M  V30 1942 H 182.37 1.44128 -1.46343 0
M  V30 1943 H 180.6 3.82752 -0.551177 0
M  V30 1944 H 182.289 3.94552 -0.953083 0
M  V30 1945 H 183.055 3.46826 -3.39023 0
M  V30 1946 H 178.934 4.00289 -2.2867 0
M  V30 1947 H 182.478 3.9664 -5.73866 0
M  V30 1948 H 178.375 4.50178 -4.62613 0
M  V30 1949 H 179.143 4.71422 -6.69107 0
M  V30 1950 N 181.806 0.884767 1.30421 0
M  V30 1951 C 182.738 0.308655 2.27112 0
M  V30 1952 C 183.751 -0.536655 1.53701 0
M  V30 1953 O 184.94 -0.35624 1.74909 0
M  V30 1954 C 182.04 -0.579782 3.33904 0
M  V30 1955 C 181.213 0.236417 4.36761 0
M  V30 1956 C 180.272 -0.582482 5.22966 0
M  V30 1957 O 179.298 -0.00525502 5.692 0
M  V30 1958 N 180.5 -1.89163 5.48815 0
M  V30 1959 H 183.265 1.13964 2.77186 0
M  V30 1960 H 180.826 0.747731 1.43599 0
M  V30 1961 H 182.818 -1.13366 3.88497 0
M  V30 1962 H 181.388 -1.31144 2.83761 0
M  V30 1963 H 180.608 0.97174 3.82035 0
M  V30 1964 H 181.896 0.795924 5.02536 0
M  V30 1965 H 181.294 -2.38352 5.13035 0
M  V30 1966 H 179.851 -2.39296 6.06284 0
M  V30 1967 N 183.284 -1.43765 0.645699 0
M  V30 1968 C 184.7 -1.56509 0.312591 0
M  V30 1969 C 184.9 -1.6307 -1.18365 0
M  V30 1970 O 183.956 -1.58167 -1.96824 0
M  V30 1971 C 185.269 -2.82968 1.01733 0
M  V30 1972 C 186.817 -2.96701 0.996865 0
M  V30 1973 C 187.292 -4.25982 1.68236 0
M  V30 1974 N 188.783 -4.32829 1.64964 0
M  V30 1975 C 189.518 -5.31613 2.14885 0
M  V30 1976 N 189.014 -6.36718 2.73061 0
M  V30 1977 N 190.807 -5.23217 2.05428 0
M  V30 1978 H 182.958 -1.3775 1.61675 0
M  V30 1979 H 185.221 -0.661067 0.679481 0
M  V30 1980 H 184.927 -2.84156 2.0724 0
M  V30 1981 H 184.801 -3.72957 0.564177 0
M  V30 1982 H 187.188 -2.95058 -0.0497719 0
M  V30 1983 H 187.269 -2.08022 1.48865 0
M  V30 1984 H 186.913 -4.28386 2.72852 0
M  V30 1985 H 186.843 -5.13545 1.16529 0
M  V30 1986 H 189.334 -3.57493 1.22503 0
M  V30 1987 H 189.647 -7.08401 3.08848 0
M  V30 1988 H 187.992 -6.37362 2.77118 0
M  V30 1989 H 191.183 -4.40019 1.59689 0
M  V30 1990 H 191.356 -6.00045 2.44643 0
M  V30 1991 N 184.763 -0.387143 -1.52771 0
M  V30 1992 C 185.71 0.449048 -2.26389 0
M  V30 1993 C 186.68 1.05961 -1.27912 0
M  V30 1994 O 187.865 1.08804 -1.56737 0
M  V30 1995 C 185.005 1.57155 -3.0724 0
M  V30 1996 C 184.118 0.984066 -4.20643 0
M  V30 1997 C 183.253 2.07745 -4.88892 0
M  V30 1998 C 182.292 1.46574 -5.94292 0
M  V30 1999 N 181.429 2.49834 -6.56146 0
M  V30 2000 H 186.269 -0.185205 -2.97424 0
M  V30 2001 H 183.806 -0.103164 -1.46738 0
M  V30 2002 H 185.764 2.23309 -3.52405 0
M  V30 2003 H 184.394 2.17615 -2.38419 0
M  V30 2004 H 183.446 0.212193 -3.79808 0
M  V30 2005 H 184.758 0.497029 -4.96318 0
M  V30 2006 H 183.912 2.81673 -5.3735 0
M  V30 2007 H 182.651 2.59807 -4.12737 0
M  V30 2008 H 181.656 0.711696 -5.45174 0
M  V30 2009 H 182.881 0.953088 -6.72379 0
M  V30 2010 H 180.827 3.0107 -5.82832 0
M  V30 2011 H 180.744 2.05879 -7.27427 0
M  V30 2012 H 182.012 3.23399 -7.09249 0
M  V30 2013 N 186.241 1.57166 -0.116904 0
M  V30 2014 C 187.171 2.18222 0.830759 0
M  V30 2015 C 188.152 1.12167 1.27877 0
M  V30 2016 O 189.337 1.40394 1.34176 0
M  V30 2017 C 186.467 2.77996 2.08172 0
M  V30 2018 C 185.421 3.89614 1.77157 0
M  V30 2019 C 184.747 4.36187 3.09265 0
M  V30 2020 C 186.047 5.1181 1.04151 0
M  V30 2021 H 187.741 2.97664 0.321992 0
M  V30 2022 H 185.287 1.4318 0.153434 0
M  V30 2023 H 187.24 3.19366 2.74924 0
M  V30 2024 H 185.964 1.9584 2.6137 0
M  V30 2025 H 184.623 3.48816 1.12796 0
M  V30 2026 H 184.271 3.50893 3.60393 0
M  V30 2027 H 183.971 5.11455 2.89288 0
M  V30 2028 H 185.495 4.80207 3.77139 0
M  V30 2029 H 186.909 5.50214 1.61052 0
M  V30 2030 H 185.306 5.92648 0.942762 0
M  V30 2031 H 186.376 4.84892 0.0279022 0
M  V30 2032 N 187.719 -0.156864 1.56817 0
M  V30 2033 C 188.629 -1.2136 2.00771 0
M  V30 2034 C 189.645 -1.47598 0.921459 0
M  V30 2035 O 190.821 -1.59462 1.2302 0
M  V30 2036 C 187.886 -2.52943 2.37109 0
M  V30 2037 C 186.947 -2.34439 3.59634 0
M  V30 2038 C 186.18 -3.59748 3.94229 0
M  V30 2039 O 186.403 -4.65526 3.29609 0
M  V30 2040 O 185.337 -3.52998 4.8752 0
M  V30 2041 H 189.163 -0.870468 2.90958 0
M  V30 2042 H 186.748 -0.36484 1.44877 0
M  V30 2043 H 188.63 -3.30538 2.61386 0
M  V30 2044 H 187.305 -2.86806 1.5008 0
M  V30 2045 H 186.212 -1.54828 3.40557 0
M  V30 2046 H 187.545 -2.05496 4.4725 0
M  V30 2047 N 189.197 -1.51736 -0.425897 0
M  V30 2048 C 190.107 -1.76738 -1.54275 0
M  V30 2049 C 191.123 -0.65211 -1.61318 0
M  V30 2050 O 192.299 -0.935654 -1.78346 0
M  V30 2051 C 189.364 -1.89755 -2.90162 0
M  V30 2052 C 188.425 -3.13633 -2.93143 0
M  V30 2053 C 187.658 -3.2602 -4.22548 0
M  V30 2054 O 187.881 -2.44067 -5.15546 0
M  V30 2055 O 186.815 -4.19071 -4.32046 0
M  V30 2056 H 190.641 -2.71502 -1.36089 0
M  V30 2057 H 188.226 -1.36376 -0.610069 0
M  V30 2058 H 190.108 -2.00236 -3.70788 0
M  V30 2059 H 188.783 -0.981785 -3.08452 0
M  V30 2060 H 187.69 -3.08622 -2.11431 0
M  V30 2061 H 189.023 -4.04936 -2.798 0
M  V30 2062 N 190.675 0.682077 -1.42076 0
M  V30 2063 C 191.923 1.4393 -1.41876 0
M  V30 2064 C 192.244 1.94971 -0.0335599 0
M  V30 2065 O 191.514 1.72591 0.926773 0
M  V30 2066 H 190.094 0.534085 -0.522267 0
M  V30 2067 H 192.756 0.806427 -1.77434 0
M  V30 2068 H 191.852 2.29588 -2.11414 0
M  V30 2069 N 192.153 1.28127 0.917671 0
M  V30 2070 C 193.401 1.14825 1.66312 0
M  V30 2071 C 193.722 -0.304379 1.9261 0
M  V30 2072 O 192.992 -1.21149 1.53947 0
M  V30 2073 H 191.572 0.421953 0.616413 0
M  V30 2074 H 194.234 1.608 1.10134 0
M  V30 2075 H 193.33 1.68489 2.62712 0
M  V30 2076 N 193.631 -1.12557 1.10312 0
M  V30 2077 C 194.594 -2.16434 0.75424 0
M  V30 2078 C 195.594 -1.59278 -0.220685 0
M  V30 2079 O 196.784 -1.742 0.00230591 0
M  V30 2080 C 193.916 -3.40699 0.116987 0
M  V30 2081 H 195.109 -2.48811 1.67431 0
M  V30 2082 H 192.662 -1.27542 0.903475 0
M  V30 2083 H 193.397 -3.13921 -0.813877 0
M  V30 2084 H 193.182 -3.83459 0.818613 0
M  V30 2085 H 194.672 -4.17451 -0.111387 0
M  V30 2086 N 195.109 -0.891671 -1.2995 0
M  V30 2087 C 196.386 -0.433307 -1.9074 0
M  V30 2088 C 196.766 1.08646 -1.80995 0
M  V30 2089 O 196.114 1.92476 -1.23147 0
M  V30 2090 C 196.324 -0.938895 -3.36134 0
M  V30 2091 C 197.672 -0.977829 -4.13187 0
M  V30 2092 O 198.696 -0.886015 -3.45005 0
M  V30 2093 O 197.555 -1.11453 -5.35015 0
M  V30 2094 H 194.649 -0.133699 -0.816121 0
M  V30 2095 H 197.195 -0.981011 -1.38471 0
M  V30 2096 H 195.967 -1.98281 -3.37343 0
M  V30 2097 H 195.59 -0.37074 -3.95868 0
M  V30 2098 N 196.587 1.43421 -0.653314 0
M  V30 2099 C 197.833 2.02111 -0.166992 0
M  V30 2100 C 198.166 1.51423 1.21592 0
M  V30 2101 O 197.441 0.707389 1.8118 0
M  V30 2102 C 197.724 3.5966 -0.177948 0
M  V30 2103 C 197.577 4.20579 -1.59478 0
M  V30 2104 C 198.896 4.37413 0.4856 0
M  V30 2105 H 196.015 0.734374 -0.0621557 0
M  V30 2106 H 198.657 1.70717 -0.834016 0
M  V30 2107 H 196.807 3.86537 0.390032 0
M  V30 2108 H 198.479 4.04732 -2.21336 0
M  V30 2109 H 196.722 3.77226 -2.14204 0
M  V30 2110 H 197.393 5.29665 -1.5543 0
M  V30 2111 H 199.869 4.161 0.00234528 0
M  V30 2112 H 198.745 5.47075 0.447207 0
M  V30 2113 H 199.006 4.13672 1.55974 0
M  V30 2114 N 198.065 0.39524 1.52563 0
M  V30 2115 C 199.312 -0.185044 2.01653 0
M  V30 2116 C 199.64 -1.46317 1.28146 0
M  V30 2117 O 198.895 -1.9213 0.372074 0
M  V30 2118 C 199.194 -0.493444 3.53977 0
M  V30 2119 C 198.86 0.69384 4.4553 0
M  V30 2120 C 197.522 1.01954 4.70275 0
M  V30 2121 C 199.874 1.48785 4.99512 0
M  V30 2122 C 197.202 2.14069 5.46252 0
M  V30 2123 C 199.554 2.59965 5.76716 0
M  V30 2124 C 198.218 2.93037 5.99738 0
M  V30 2125 H 197.488 -0.0677123 0.7379 0
M  V30 2126 H 200.135 0.533807 1.8391 0
M  V30 2127 H 198.44 -1.29369 3.69825 0
M  V30 2128 H 200.137 -0.955163 3.89458 0
M  V30 2129 H 196.727 0.429987 4.26438 0
M  V30 2130 H 200.911 1.24946 4.80315 0
M  V30 2131 H 196.167 2.40056 5.62302 0
M  V30 2132 H 200.341 3.21887 6.17545 0
M  V30 2133 H 197.968 3.8003 6.58393 0
M  V30 2134 N 199.544 -1.57102 0.125237 0
M  V30 2135 C 200.507 -2.14471 -0.80838 0
M  V30 2136 C 201.507 -1.0811 -1.19033 0
M  V30 2137 O 202.697 -1.33856 -1.11482 0
M  V30 2138 C 199.829 -2.69005 -2.09402 0
M  V30 2139 H 201.022 -2.98297 -0.309696 0
M  V30 2140 H 198.575 -1.55807 -0.124051 0
M  V30 2141 H 199.31 -1.88785 -2.63687 0
M  V30 2142 H 199.095 -3.46799 -1.82957 0
M  V30 2143 H 200.585 -3.13278 -2.76128 0
M  V30 2144 N 201.022 0.148545 -1.56898 0
M  V30 2145 C 201.969 1.18345 -1.98149 0
M  V30 2146 C 202.939 1.42772 -0.848848 0
M  V30 2147 O 204.124 1.55132 -1.11079 0
M  V30 2148 C 201.264 2.51231 -2.36594 0
M  V30 2149 C 200.377 2.33991 -3.63142 0
M  V30 2150 C 199.512 3.59902 -3.90697 0
M  V30 2151 C 198.551 3.37692 -5.1052 0
M  V30 2152 N 197.688 4.5573 -5.34092 0
M  V30 2153 H 202.528 0.82467 -2.86362 0
M  V30 2154 H 200.065 0.395756 -1.41676 0
M  V30 2155 H 202.023 3.28713 -2.56912 0
M  V30 2156 H 200.653 2.85059 -1.51463 0
M  V30 2157 H 199.705 1.47572 -3.50609 0
M  V30 2158 H 201.017 2.13539 -4.5078 0
M  V30 2159 H 200.171 4.45813 -4.11505 0
M  V30 2160 H 198.91 3.83357 -3.01477 0
M  V30 2161 H 197.915 2.5017 -4.89587 0
M  V30 2162 H 199.14 3.15637 -6.0129 0
M  V30 2163 H 197.086 4.79361 -4.47827 0
M  V30 2164 H 197.003 4.38274 -6.15996 0
M  V30 2165 H 198.271 5.42858 -5.59397 0
M  V30 2166 N 202.5 1.5196 0.417844 0
M  V30 2167 C 203.463 1.74065 1.49111 0
M  V30 2168 C 204.463 0.610537 1.48758 0
M  V30 2169 O 205.653 0.87832 1.50437 0
M  V30 2170 C 202.785 1.81502 2.88565 0
M  V30 2171 H 203.978 2.69869 1.30807 0
M  V30 2172 H 201.531 1.42244 0.647785 0
M  V30 2173 H 202.266 0.875813 3.1225 0
M  V30 2174 H 202.051 2.63651 2.90225 0
M  V30 2175 H 203.541 2.00376 3.66387 0
M  V30 2176 N 203.978 -0.674533 1.42435 0
M  V30 2177 C 205.218 -1.4466 1.44405 0
M  V30 2178 C 205.582 -1.91911 0.0585784 0
M  V30 2179 O 206.783 -2.68759 -0.0469991 0
M  V30 2180 C 205.054 -2.61136 2.44013 0
M  V30 2181 S 206.613 -3.49981 2.64687 0
M  V30 2182 H 203.431 -0.494074 0.511284 0
M  V30 2183 H 206.033 -0.785162 1.7904 0
M  V30 2184 H 204.737 -2.24662 3.43446 0
M  V30 2185 H 204.268 -3.32153 2.10803 0
M  V30 2186 H 206.283 -4.57124 1.93007 0
M  V30 2187 N 205.456 -1.28612 -0.910864 0
M  V30 2188 C 206.867 -1.14406 -1.47541 0
M  V30 2189 C 207.218 0.264901 -1.94403 0
M  V30 2190 O 206.343 1.15942 -1.82719 0
M  V30 2191 C 206.938 -2.07073 -2.68153 0
M  V30 2192 C 205.497 -1.96923 -3.20778 0
M  V30 2193 C 204.644 -1.98646 -1.93481 0
M  V30 2194 H 207.595 -1.41259 -0.723291 0
M  V30 2195 H 207.616 -1.63642 -3.43514 0
M  V30 2196 H 207.128 -3.09611 -2.34015 0
M  V30 2197 H 205.229 -0.97433 -3.59635 0
M  V30 2198 H 205.342 -2.84026 -3.85832 0
M  V30 2199 H 203.706 -1.43093 -2.10705 0
M  V30 2200 H 204.489 -3.02868 -1.61634 0
M  V30 2201 N 206.934 1.1197 -1.10907 0
M  V30 2202 C 207.864 2.19928 -0.784473 0
M  V30 2203 C 208.845 1.6833 0.244726 0
M  V30 2204 O 210.03 1.93892 0.109418 0
M  V30 2205 C 207.16 3.46597 -0.220827 0
M  V30 2206 C 206.114 4.11376 -1.18127 0
M  V30 2207 C 205.44 5.32554 -0.478594 0
M  V30 2208 C 206.74 4.56945 -2.52979 0
M  V30 2209 H 208.434 2.47337 -1.68715 0
M  V30 2210 H 205.98 1.18879 -0.812642 0
M  V30 2211 H 207.933 4.21396 0.0184278 0
M  V30 2212 H 206.657 3.1863 0.717113 0
M  V30 2213 H 205.316 3.38564 -1.40606 0
M  V30 2214 H 204.964 5.00856 0.463976 0
M  V30 2215 H 204.664 5.76844 -1.11912 0
M  V30 2216 H 206.188 6.10096 -0.248 0
M  V30 2217 H 207.602 5.23093 -2.3462 0
M  V30 2218 H 205.999 5.1203 -3.12962 0
M  V30 2219 H 207.069 3.70676 -3.12614 0
M  V30 2220 N 208.412 0.89855 1.29475 0
M  V30 2221 C 209.659 0.523882 1.95606 0
M  V30 2222 C 209.987 -0.929608 1.70847 0
M  V30 2223 O 209.242 -1.67401 1.01367 0
M  V30 2224 C 209.541 0.761398 3.49195 0
M  V30 2225 C 209.207 2.19207 3.94029 0
M  V30 2226 C 207.869 2.58326 4.05982 0
M  V30 2227 C 210.221 3.12379 4.17216 0
M  V30 2228 C 207.549 3.898 4.38489 0
M  V30 2229 C 209.901 4.43401 4.51197 0
M  V30 2230 C 208.565 4.82394 4.61359 0
M  V30 2231 H 207.835 0.191702 0.715773 0
M  V30 2232 H 210.482 1.13699 1.54094 0
M  V30 2233 H 208.787 0.0653622 3.91745 0
M  V30 2234 H 210.484 0.450904 3.98457 0
M  V30 2235 H 207.074 1.87846 3.85242 0
M  V30 2236 H 211.258 2.83371 4.07449 0
M  V30 2237 H 206.514 4.19734 4.44559 0
M  V30 2238 H 210.688 5.15623 4.68087 0
M  V30 2239 H 208.315 5.84306 4.86303 0
M  V30 2240 N 209.89 -1.43072 0.660911 0
M  V30 2241 C 211.136 -2.0202 0.177708 0
M  V30 2242 C 211.469 -1.52066 -1.20787 0
M  V30 2243 O 210.744 -0.716987 -1.80802 0
M  V30 2244 C 211.027 -3.59561 0.197019 0
M  V30 2245 C 210.88 -4.19727 1.61706 0
M  V30 2246 C 212.199 -4.37664 -0.462396 0
M  V30 2247 H 209.318 -0.734034 0.0660494 0
M  V30 2248 H 211.96 -1.70272 0.843058 0
M  V30 2249 H 210.11 -3.86739 -0.369527 0
M  V30 2250 H 211.782 -4.03553 2.23479 0
M  V30 2251 H 210.025 -3.76084 2.16201 0
M  V30 2252 H 210.696 -5.28834 1.58237 0
M  V30 2253 H 213.172 -4.16095 0.0197215 0
M  V30 2254 H 212.048 -5.47305 -0.418188 0
M  V30 2255 H 212.309 -4.14493 -1.53778 0
M  V30 2256 N 211.368 -0.403325 -1.52352 0
M  V30 2257 C 212.779 0.0675782 -1.86578 0
M  V30 2258 C 213.13 1.44941 -1.32236 0
M  V30 2259 O 212.255 2.06112 -0.659307 0
M  V30 2260 C 212.85 0.129404 -3.38553 0
M  V30 2261 C 211.409 0.544629 -3.72439 0
M  V30 2262 C 210.556 -0.284551 -2.75836 0
M  V30 2263 H 213.507 -0.620631 -1.46061 0
M  V30 2264 H 213.528 0.94581 -3.68558 0
M  V30 2265 H 213.04 -0.87645 -3.78074 0
M  V30 2266 H 211.141 1.55734 -3.38493 0
M  V30 2267 H 211.254 0.293046 -4.78203 0
M  V30 2268 H 209.618 0.252258 -2.53448 0
M  V30 2269 H 210.401 -1.28865 -3.18196 0
M  V30 2270 N 212.846 1.57033 -0.133567 0
M  V30 2271 C 213.776 2.1909 0.807567 0
M  V30 2272 C 214.757 1.13517 1.26681 0
M  V30 2273 O 215.942 1.41809 1.32679 0
M  V30 2274 C 213.072 2.80188 2.05212 0
M  V30 2275 C 212.026 3.91471 1.73015 0
M  V30 2276 C 211.352 4.39443 3.04622 0
M  V30 2277 C 212.652 5.12886 0.987168 0
M  V30 2278 H 214.346 2.97988 0.290403 0
M  V30 2279 H 211.892 1.43335 0.138239 0
M  V30 2280 H 213.845 3.22264 2.71521 0
M  V30 2281 H 212.569 1.98601 2.59278 0
M  V30 2282 H 211.228 3.49993 1.0909 0
M  V30 2283 H 210.876 3.54695 3.56651 0
M  V30 2284 H 210.576 5.14495 2.83847 0
M  V30 2285 H 212.1 4.8418 3.72024 0
M  V30 2286 H 213.514 5.51891 1.55208 0
M  V30 2287 H 211.911 5.93615 0.87985 0
M  V30 2288 H 212.981 4.84894 -0.0235286 0
M  V30 2289 N 214.325 -0.140222 1.56975 0
M  V30 2290 C 215.288 -1.15689 1.97861 0
M  V30 2291 C 216.288 -1.3549 0.865974 0
M  V30 2292 O 217.478 -1.32367 1.13246 0
M  V30 2293 C 214.61 -2.51582 2.30042 0
M  V30 2294 H 215.803 -0.805971 2.88867 0
M  V30 2295 H 213.356 -0.383801 1.51515 0
M  V30 2296 H 214.091 -2.91632 1.41849 0
M  V30 2297 H 213.876 -2.38569 3.11171 0
M  V30 2298 H 215.366 -3.24792 2.62488 0
M  V30 2299 N 215.803 -1.52179 -0.40978 0
M  V30 2300 C 216.713 -1.78364 -1.52392 0
M  V30 2301 C 217.729 -0.669183 -1.60617 0
M  V30 2302 O 218.905 -0.954518 -1.77344 0
M  V30 2303 C 215.97 -1.92822 -2.88133 0
M  V30 2304 C 215.031 -3.16725 -2.898 0
M  V30 2305 C 214.264 -3.30483 -4.19067 0
M  V30 2306 O 214.487 -2.49522 -5.12928 0
M  V30 2307 O 213.421 -4.2363 -4.27576 0
M  V30 2308 H 217.247 -2.72931 -1.33201 0
M  V30 2309 H 214.832 -1.37016 -0.59557 0
M  V30 2310 H 216.714 -2.04157 -3.68643 0
M  V30 2311 H 215.389 -1.01444 -3.07393 0
M  V30 2312 H 214.296 -3.10848 -2.08146 0
M  V30 2313 H 215.629 -4.07881 -2.75489 0
M  V30 2314 N 217.281 0.66697 -1.42791 0
M  V30 2315 C 218.191 1.80962 -1.49299 0
M  V30 2316 C 219.207 1.69775 -0.381108 0
M  V30 2317 O 220.383 1.91188 -0.633188 0
M  V30 2318 C 217.448 3.17156 -1.40045 0
M  V30 2319 C 216.509 3.40242 -2.6179 0
M  V30 2320 C 215.742 4.69939 -2.52969 0
M  V30 2321 O 215.965 5.48372 -1.56985 0
M  V30 2322 O 214.899 4.94441 -3.43237 0
M  V30 2323 H 218.725 1.78427 -2.45759 0
M  V30 2324 H 216.31 0.823713 -1.24641 0
M  V30 2325 H 218.192 3.98413 -1.37276 0
M  V30 2326 H 216.867 3.20312 -0.467138 0
M  V30 2327 H 215.774 2.58802 -2.70134 0
M  V30 2328 H 217.107 3.41923 -3.54047 0
M  V30 2329 N 218.759 1.29093 0.90403 0
M  V30 2330 C 220.007 1.16583 1.65085 0
M  V30 2331 C 220.328 -0.283933 1.92922 0
M  V30 2332 O 219.598 -1.19509 1.55224 0
M  V30 2333 H 218.178 0.428467 0.611903 0
M  V30 2334 H 220.84 1.61959 1.08422 0
M  V30 2335 H 219.936 1.71266 2.6091 0
M  V30 2336 N 220.237 -1.11381 1.11499 0
M  V30 2337 C 221.167 -2.19509 0.796125 0
M  V30 2338 C 222.148 -1.68458 -0.235796 0
M  V30 2339 O 223.333 -1.93947 -0.0991344 0
M  V30 2340 C 220.463 -3.46475 0.239205 0
M  V30 2341 C 219.417 -4.10744 1.20307 0
M  V30 2342 C 218.743 -5.32293 0.50683 0
M  V30 2343 C 220.043 -4.55597 2.55399 0
M  V30 2344 H 221.737 -2.46439 1.70024 0
M  V30 2345 H 219.283 -1.18446 0.818935 0
M  V30 2346 H 221.236 -4.214 0.00392006 0
M  V30 2347 H 219.96 -3.19006 -0.700206 0
M  V30 2348 H 218.619 -3.37813 1.42399 0
M  V30 2349 H 218.267 -5.01095 -0.437408 0
M  V30 2350 H 217.967 -5.76243 1.1497 0
M  V30 2351 H 219.491 -6.09956 0.280351 0
M  V30 2352 H 220.905 -5.21841 2.37391 0
M  V30 2353 H 219.302 -5.10363 3.15673 0
M  V30 2354 H 220.372 -3.69013 3.14575 0
M  V30 2355 N 221.715 -0.905404 -1.28997 0
M  V30 2356 C 222.645 -0.404212 -2.29975 0
M  V30 2357 C 223.626 0.523784 -1.61835 0
M  V30 2358 O 224.811 0.433298 -1.89304 0
M  V30 2359 C 221.941 0.364042 -3.45387 0
M  V30 2360 C 220.895 -0.474048 -4.25367 0
M  V30 2361 C 220.221 0.422045 -5.33032 0
M  V30 2362 C 221.521 -1.72696 -4.92923 0
M  V30 2363 H 223.215 -1.24807 -2.72146 0
M  V30 2364 H 220.761 -0.601585 -1.30832 0
M  V30 2365 H 222.714 0.725447 -4.15109 0
M  V30 2366 H 221.438 1.24174 -3.02074 0
M  V30 2367 H 220.097 -0.81786 -3.57361 0
M  V30 2368 H 219.745 1.29804 -4.85963 0
M  V30 2369 H 219.445 -0.135057 -5.87445 0
M  V30 2370 H 220.969 0.779517 -6.05604 0
M  V30 2371 H 222.383 -1.43495 -5.55051 0
M  V30 2372 H 220.78 -2.22582 -5.57295 0
M  V30 2373 H 221.85 -2.45964 -4.17887 0
M  V30 2374 N 223.193 1.4272 -0.668489 0
M  V30 2375 C 224.103 2.34596 0.0139753 0
M  V30 2376 C 225.119 1.5474 0.795703 0
M  V30 2377 O 226.295 1.87334 0.739466 0
M  V30 2378 C 223.36 3.33202 0.957982 0
M  V30 2379 C 222.421 4.28957 0.17149 0
M  V30 2380 C 221.654 5.22853 1.07053 0
M  V30 2381 O 221.877 5.21531 2.31001 0
M  V30 2382 O 220.811 5.9952 0.534727 0
M  V30 2383 H 224.637 2.9448 -0.742661 0
M  V30 2384 H 222.222 1.43117 -0.428705 0
M  V30 2385 H 224.104 3.93796 1.50008 0
M  V30 2386 H 222.779 2.758 1.69458 0
M  V30 2387 H 221.686 3.71796 -0.414558 0
M  V30 2388 H 223.019 4.89383 -0.52586 0
M  V30 2389 N 224.671 0.411399 1.52136 0
M  V30 2390 C 225.919 -0.163322 2.01439 0
M  V30 2391 C 226.24 -1.45453 1.29879 0
M  V30 2392 O 225.51 -1.91225 0.4254 0
M  V30 2393 H 224.09 -0.0633447 0.744309 0
M  V30 2394 H 226.752 0.548161 1.87033 0
M  V30 2395 H 225.848 -0.357817 3.10042 0
M  V30 2396 N 226.149 -1.5696 0.141893 0
M  V30 2397 C 227.059 -2.20066 -0.812905 0
M  V30 2398 C 228.075 -1.18344 -1.27557 0
M  V30 2399 O 229.251 -1.50902 -1.33381 0
M  V30 2400 C 226.316 -2.80583 -2.03652 0
M  V30 2401 C 225.377 -3.97414 -1.62359 0
M  V30 2402 C 224.61 -4.55036 -2.78887 0
M  V30 2403 O 224.833 -4.11538 -3.94959 0
M  V30 2404 O 223.767 -5.45376 -2.54653 0
M  V30 2405 H 227.593 -3.02157 -0.305746 0
M  V30 2406 H 225.178 -1.49159 -0.0848799 0
M  V30 2407 H 227.06 -3.19067 -2.75272 0
M  V30 2408 H 225.735 -2.01508 -2.5333 0
M  V30 2409 H 224.642 -3.63656 -0.877775 0
M  V30 2410 H 225.975 -4.77994 -1.17401 0
M  V30 2411 N 227.627 0.131896 -1.57047 0
M  V30 2412 C 228.876 0.84044 -1.83356 0
M  V30 2413 C 229.189 1.81646 -0.725535 0
M  V30 2414 O 230.395 2.57025 -0.874659 0
M  V30 2415 C 228.851 1.54528 -3.25037 0
M  V30 2416 C 228.459 0.610902 -4.43815 0
M  V30 2417 C 230.203 2.23972 -3.60606 0
M  V30 2418 C 228.11 1.31823 -5.76521 0
M  V30 2419 H 227.04 0.317599 -0.683847 0
M  V30 2420 H 229.691 0.0931561 -1.83263 0
M  V30 2421 H 228.073 2.33873 -3.19561 0
M  V30 2422 H 229.247 -0.148407 -4.60561 0
M  V30 2423 H 227.562 0.0241016 -4.16393 0
M  V30 2424 H 230.159 2.77558 -4.57018 0
M  V30 2425 H 230.502 3.01173 -2.87403 0
M  V30 2426 H 231.035 1.51529 -3.6781 0
M  V30 2427 H 227.774 0.587771 -6.52859 0
M  V30 2428 H 227.294 2.04987 -5.63685 0
M  V30 2429 H 228.973 1.855 -6.19838 0
M  V30 2430 N 229.106 1.52395 0.401703 0
M  V30 2431 C 230.334 1.70676 1.16949 0
M  V30 2432 C 230.749 0.419503 1.8408 0
M  V30 2433 O 230.106 -0.605061 1.72178 0
M  V30 2434 C 230.157 2.84753 2.22706 0
M  V30 2435 O 229.878 4.08495 1.58314 0
M  V30 2436 C 231.379 3.14608 3.12309 0
M  V30 2437 H 228.599 0.571787 0.351142 0
M  V30 2438 H 231.143 1.98987 0.471652 0
M  V30 2439 H 229.298 2.58941 2.88147 0
M  V30 2440 H 229.712 4.72117 2.28485 0
M  V30 2441 H 231.186 3.97923 3.82572 0
M  V30 2442 H 231.663 2.28464 3.75101 0
M  V30 2443 H 232.269 3.42212 2.52529 0
M  V30 2444 N 230.584 -0.659388 1.43143 0
M  V30 2445 C 232 -0.974337 1.26407 0
M  V30 2446 C 232.2 -2.007 0.179341 0
M  V30 2447 O 231.256 -2.4856 -0.444295 0
M  V30 2448 C 232.569 -1.46447 2.62628 0
M  V30 2449 C 234.117 -1.58144 2.7011 0
M  V30 2450 C 234.592 -2.1055 4.06734 0
M  V30 2451 N 236.083 -2.17861 4.08767 0
M  V30 2452 C 236.818 -2.59519 5.1131 0
M  V30 2453 N 236.314 -3.00518 6.24228 0
M  V30 2454 N 238.107 -2.59404 4.98664 0
M  V30 2455 H 230.258 0.0240528 2.12386 0
M  V30 2456 H 232.521 -0.0518065 0.946583 0
M  V30 2457 H 232.227 -0.780123 3.42939 0
M  V30 2458 H 232.101 -2.44058 2.87603 0
M  V30 2459 H 234.488 -2.25682 1.90136 0
M  V30 2460 H 234.569 -0.589828 2.48907 0
M  V30 2461 H 234.213 -1.43616 4.87172 0
M  V30 2462 H 234.143 -3.10531 4.25298 0
M  V30 2463 H 236.634 -1.88975 3.27257 0
M  V30 2464 H 236.947 -3.31036 6.98309 0
M  V30 2465 H 235.292 -2.98337 6.2771 0
M  V30 2466 H 238.483 -2.26747 4.09516 0
M  V30 2467 H 238.656 -2.91548 5.78709 0
M  V30 2468 N 232.062 -1.29571 -0.897171 0
M  V30 2469 C 233.009 -1.14916 -2.00158 0
M  V30 2470 C 233.979 -0.0418149 -1.66047 0
M  V30 2471 O 235.164 -0.209793 -1.89643 0
M  V30 2472 C 232.304 -0.834307 -3.34863 0
M  V30 2473 C 231.417 -2.02234 -3.8174 0
M  V30 2474 C 230.552 -1.64664 -5.05034 0
M  V30 2475 C 229.591 -2.80033 -5.44286 0
M  V30 2476 N 228.728 -2.42843 -6.58765 0
M  V30 2477 H 233.568 -2.09403 -2.12025 0
M  V30 2478 H 231.105 -1.042 -1.0383 0
M  V30 2479 H 233.063 -0.632436 -4.12379 0
M  V30 2480 H 231.693 0.0736656 -3.22716 0
M  V30 2481 H 230.745 -2.33583 -3.00238 0
M  V30 2482 H 232.057 -2.88673 -4.06779 0
M  V30 2483 H 231.211 -1.4078 -5.9014 0
M  V30 2484 H 229.95 -0.753766 -4.8184 0
M  V30 2485 H 228.955 -3.04596 -4.57713 0
M  V30 2486 H 230.18 -3.69989 -5.6946 0
M  V30 2487 H 228.126 -1.56046 -6.3717 0
M  V30 2488 H 228.043 -3.22815 -6.83613 0
M  V30 2489 H 229.311 -2.22285 -7.47134 0
M  V30 2490 N 233.54 1.10788 -1.12088 0
M  V30 2491 C 234.786 1.82942 -0.875226 0
M  V30 2492 C 235.119 1.84779 0.597538 0
M  V30 2493 O 234.394 1.30578 1.44152 0
M  V30 2494 C 234.677 3.29789 -1.44606 0
M  V30 2495 C 234.53 3.36307 -2.98693 0
M  V30 2496 C 235.849 4.26064 -1.10261 0
M  V30 2497 H 232.968 0.664195 -0.319397 0
M  V30 2498 H 235.61 1.29867 -1.38689 0
M  V30 2499 H 233.76 3.75118 -1.01089 0
M  V30 2500 H 235.432 2.99487 -3.50864 0
M  V30 2501 H 233.675 2.76318 -3.34411 0
M  V30 2502 H 234.346 4.39694 -3.33726 0
M  V30 2503 H 236.822 3.88951 -1.4784 0
M  V30 2504 H 235.698 5.27183 -1.52869 0
M  V30 2505 H 235.959 4.42098 -0.0142953 0
M  V30 2506 N 235.018 0.912232 1.28515 0
M  V30 2507 C 236.264 0.545405 1.95328 0
M  V30 2508 C 236.597 -0.908313 1.71649 0
M  V30 2509 O 235.872 -1.64575 1.03659 0
M  V30 2510 C 236.155 0.853483 3.4984 0
M  V30 2511 C 236.008 2.35982 3.82926 0
M  V30 2512 C 237.327 0.348589 4.38717 0
M  V30 2513 H 234.446 0.199626 0.709449 0
M  V30 2514 H 237.088 1.1412 1.5191 0
M  V30 2515 H 235.238 0.34643 3.86952 0
M  V30 2516 H 236.91 2.93738 3.55691 0
M  V30 2517 H 235.153 2.81543 3.30024 0
M  V30 2518 H 235.824 2.52593 4.90816 0
M  V30 2519 H 238.3 0.78294 4.08668 0
M  V30 2520 H 237.176 0.593242 5.45685 0
M  V30 2521 H 237.437 -0.751049 4.35674 0
M  V30 2522 N 236.496 -1.42363 0.676048 0
M  V30 2523 C 237.406 -2.346 -0.00153389 0
M  V30 2524 C 238.422 -1.5516 -0.787485 0
M  V30 2525 O 239.598 -1.87723 -0.729521 0
M  V30 2526 C 236.663 -3.33705 -0.940298 0
M  V30 2527 C 235.724 -4.29042 -0.148739 0
M  V30 2528 C 234.957 -5.23413 -1.04279 0
M  V30 2529 O 235.18 -5.22749 -2.28232 0
M  V30 2530 O 234.114 -5.99795 -0.502925 0
M  V30 2531 H 237.94 -2.94082 0.758268 0
M  V30 2532 H 235.525 -1.42888 0.436289 0
M  V30 2533 H 237.407 -3.94586 -1.47917 0
M  V30 2534 H 236.082 -2.76695 -1.67993 0
M  V30 2535 H 234.989 -3.71571 0.43427 0
M  V30 2536 H 236.322 -4.89097 0.551805 0
M  V30 2537 N 237.974 -0.419461 -1.51915 0
M  V30 2538 C 238.924 0.418496 -2.24126 0
M  V30 2539 C 239.908 1.00495 -1.25656 0
M  V30 2540 O 241.1 0.926058 -1.50842 0
M  V30 2541 C 238.229 1.52899 -3.07371 0
M  V30 2542 C 237.315 0.952797 -4.13258 0
M  V30 2543 N 237.706 0.104175 -5.05693 0
M  V30 2544 C 236.004 1.22224 -4.28926 0
M  V30 2545 C 236.705 -0.21752 -5.81293 0
M  V30 2546 N 235.681 0.394293 -5.42168 0
M  V30 2547 H 239.483 -0.236048 -2.92951 0
M  V30 2548 H 236.997 -0.230481 -1.60756 0
M  V30 2549 H 238.994 2.14199 -3.57665 0
M  V30 2550 H 237.654 2.18605 -2.40088 0
M  V30 2551 H 238.665 -0.260924 -5.17242 0
M  V30 2552 H 235.342 1.87812 -3.72871 0
M  V30 2553 H 236.732 -0.906992 -6.6575 0
M  V30 2554 N 239.452 1.56882 -0.150215 0
M  V30 2555 C 240.682 2.00302 0.506213 0
M  V30 2556 C 241.09 1.02934 1.58749 0
M  V30 2557 O 240.433 0.0188384 1.8369 0
M  V30 2558 C 240.495 3.40156 1.16337 0
M  V30 2559 C 240.159 4.56439 0.226311 0
M  V30 2560 C 241.156 5.17012 -0.547265 0
M  V30 2561 C 238.841 5.02136 0.128279 0
M  V30 2562 C 240.835 6.21693 -1.40629 0
M  V30 2563 C 238.522 6.06672 -0.734345 0
M  V30 2564 C 239.52 6.6632 -1.50023 0
M  V30 2565 O 239.208 7.68831 -2.34848 0
M  V30 2566 H 238.94 0.662182 0.135984 0
M  V30 2567 H 241.494 2.03961 -0.242746 0
M  V30 2568 H 239.724 3.33346 1.96004 0
M  V30 2569 H 241.413 3.67663 1.71985 0
M  V30 2570 H 242.179 4.82603 -0.48158 0
M  V30 2571 H 238.058 4.55435 0.714157 0
M  V30 2572 H 241.602 6.68179 -2.00455 0
M  V30 2573 H 237.499 6.40507 -0.801309 0
M  V30 2574 H 238.267 7.86065 -2.28131 0
M  V30 2575 N 240.93 -0.123565 1.57115 0
M  V30 2576 C 241.86 -1.15309 2.03042 0
M  V30 2577 C 242.841 -1.43454 0.914061 0
M  V30 2578 O 244.026 -1.53973 1.18347 0
M  V30 2579 C 241.156 -2.48043 2.43089 0
M  V30 2580 C 240.11 -2.3437 3.58127 0
M  V30 2581 C 239.436 -3.72026 3.84059 0
M  V30 2582 C 240.736 -1.80804 4.90007 0
M  V30 2583 H 242.43 -0.771102 2.893 0
M  V30 2584 H 239.976 -0.369479 1.39179 0
M  V30 2585 H 241.929 -3.20311 2.73823 0
M  V30 2586 H 240.653 -2.88122 1.53796 0
M  V30 2587 H 239.312 -1.64551 3.27595 0
M  V30 2588 H 238.96 -4.09582 2.91979 0
M  V30 2589 H 238.66 -3.63732 4.6149 0
M  V30 2590 H 240.184 -4.45806 4.1724 0
M  V30 2591 H 241.598 -2.42886 5.19307 0
M  V30 2592 H 239.995 -1.83343 5.71407 0
M  V30 2593 H 241.065 -0.76528 4.78823 0
M  V30 2594 N 242.408 -1.52605 -0.393616 0
M  V30 2595 C 243.355 -1.77055 -1.48054 0
M  V30 2596 C 244.325 -0.61358 -1.54352 0
M  V30 2597 O 245.51 -0.852806 -1.70681 0
M  V30 2598 C 242.65 -1.94108 -2.85335 0
M  V30 2599 C 241.763 -3.21792 -2.88226 0
M  V30 2600 C 240.898 -3.29188 -4.16904 0
M  V30 2601 C 239.937 -4.51013 -4.13828 0
M  V30 2602 N 239.074 -4.55716 -5.34105 0
M  V30 2603 H 243.914 -2.69815 -1.26506 0
M  V30 2604 H 241.451 -1.33683 -0.61379 0
M  V30 2605 H 243.409 -2.01979 -3.65049 0
M  V30 2606 H 242.039 -1.04713 -3.05344 0
M  V30 2607 H 241.091 -3.23015 -2.00911 0
M  V30 2608 H 242.403 -4.11557 -2.8182 0
M  V30 2609 H 241.557 -3.36216 -5.05018 0
M  V30 2610 H 240.296 -2.37389 -4.26026 0
M  V30 2611 H 239.301 -4.44115 -3.24102 0
M  V30 2612 H 240.526 -5.44123 -4.06333 0
M  V30 2613 H 238.472 -3.66807 -5.43865 0
M  V30 2614 H 238.389 -5.39346 -5.29756 0
M  V30 2615 H 239.657 -4.66993 -6.2413 0
M  V30 2616 N 243.887 0.651787 -1.4349 0
M  V30 2617 C 244.797 1.79368 -1.5121 0
M  V30 2618 C 245.813 1.69361 -0.399093 0
M  V30 2619 O 246.989 1.90505 -0.653431 0
M  V30 2620 C 244.054 3.15653 -1.43401 0
M  V30 2621 C 243.115 3.37446 -2.65384 0
M  V30 2622 C 242.348 4.67229 -2.57939 0
M  V30 2623 O 242.571 5.46676 -1.62792 0
M  V30 2624 O 241.505 4.90773 -3.48462 0
M  V30 2625 H 245.331 1.7581 -2.47638 0
M  V30 2626 H 242.916 0.810447 -1.25507 0
M  V30 2627 H 244.798 3.96935 -1.41494 0
M  V30 2628 H 243.473 3.19798 -0.501085 0
M  V30 2629 H 242.38 2.55923 -2.72863 0
M  V30 2630 H 243.713 3.38148 -3.57654 0
M  V30 2631 N 245.365 1.30045 0.890287 0
M  V30 2632 C 246.612 1.18561 1.64163 0
M  V30 2633 C 246.94 -0.260852 1.92743 0
M  V30 2634 O 246.195 -1.20376 1.54299 0
M  V30 2635 C 246.494 1.95409 2.99249 0
M  V30 2636 C 246.16 3.45066 2.90242 0
M  V30 2637 C 244.822 3.85878 2.87492 0
M  V30 2638 C 247.174 4.4039 2.78758 0
M  V30 2639 C 244.502 5.20314 2.7109 0
M  V30 2640 C 246.854 5.74928 2.63894 0
M  V30 2641 C 245.518 6.14986 2.59516 0
M  V30 2642 H 244.788 0.433846 0.600715 0
M  V30 2643 H 247.435 1.61088 1.03552 0
M  V30 2644 H 245.74 1.45501 3.63781 0
M  V30 2645 H 247.437 1.8392 3.56334 0
M  V30 2646 H 244.027 3.12631 2.93189 0
M  V30 2647 H 248.211 4.09806 2.79952 0
M  V30 2648 H 243.467 5.50449 2.66112 0
M  V30 2649 H 247.641 6.48434 2.53981 0
M  V30 2650 H 245.268 7.19104 2.46565 0
M  V30 2651 N 246.843 -1.10192 1.12674 0
M  V30 2652 C 247.79 -2.16606 0.796906 0
M  V30 2653 C 248.76 -1.64394 -0.237476 0
M  V30 2654 O 249.945 -1.90474 -0.111484 0
M  V30 2655 C 247.085 -3.44116 0.26043 0
M  V30 2656 C 246.198 -4.10268 1.35293 0
M  V30 2657 C 245.333 -5.25507 0.775621 0
M  V30 2658 C 244.372 -5.83567 1.84706 0
M  V30 2659 N 243.509 -6.90179 1.28829 0
M  V30 2660 H 248.349 -2.44163 1.70846 0
M  V30 2661 H 245.886 -1.19846 0.85295 0
M  V30 2662 H 247.844 -4.17143 -0.0686814 0
M  V30 2663 H 246.474 -3.16901 -0.614274 0
M  V30 2664 H 245.526 -3.35184 1.79877 0
M  V30 2665 H 246.838 -4.4946 2.16303 0
M  V30 2666 H 245.992 -6.05398 0.397327 0
M  V30 2667 H 244.731 -4.87656 -0.0656581 0
M  V30 2668 H 243.736 -5.02344 2.23452 0
M  V30 2669 H 244.961 -6.23482 2.69161 0
M  V30 2670 H 242.907 -6.54322 0.468881 0
M  V30 2671 H 242.824 -7.28097 2.03497 0
M  V30 2672 H 244.092 -7.73844 0.937311 0
M  V30 2673 N 248.321 -0.919034 -1.28029 0
M  V30 2674 C 249.569 -0.553838 -1.94363 0
M  V30 2675 C 249.89 0.906357 -1.72656 0
M  V30 2676 O 249.16 1.64143 -1.0693 0
M  V30 2677 H 247.74 -0.201834 -0.719216 0
M  V30 2678 H 250.402 -1.16954 -1.55909 0
M  V30 2679 H 249.498 -0.752758 -3.02886 0
M  V30 2680 N 249.799 1.42003 -0.683588 0
M  V30 2681 C 250.746 2.30798 -0.0107309 0
M  V30 2682 C 251.716 1.4645 0.783688 0
M  V30 2683 O 252.901 1.75263 0.754156 0
M  V30 2684 C 250.041 3.3238 0.928306 0
M  V30 2685 C 249.154 4.31814 0.126776 0
M  V30 2686 C 248.289 5.20468 1.06236 0
M  V30 2687 C 247.328 6.11577 0.253035 0
M  V30 2688 N 246.465 6.92754 1.14179 0
M  V30 2689 H 251.305 2.8778 -0.773727 0
M  V30 2690 H 248.842 1.41745 -0.393283 0
M  V30 2691 H 250.8 3.89813 1.48666 0
M  V30 2692 H 249.43 2.76976 1.65783 0
M  V30 2693 H 248.482 3.76427 -0.54833 0
M  V30 2694 H 249.794 4.96276 -0.501192 0
M  V30 2695 H 248.948 5.82677 1.69035 0
M  V30 2696 H 247.687 4.56204 1.7242 0
M  V30 2697 H 246.692 5.48428 -0.388108 0
M  V30 2698 H 247.917 6.77892 -0.404839 0
M  V30 2699 H 245.863 6.3111 1.78987 0
M  V30 2700 H 245.78 7.53855 0.569111 0
M  V30 2701 H 247.048 7.59441 1.75697 0
M  V30 2702 N 251.277 0.427512 1.51691 0
M  V30 2703 C 252.526 -0.143679 2.01188 0
M  V30 2704 C 252.839 -1.44642 1.31674 0
M  V30 2705 O 254.045 -2.09997 1.72086 0
M  V30 2706 C 252.501 -0.306602 3.58592 0
M  V30 2707 C 252.109 0.985125 4.37035 0
M  V30 2708 C 253.853 -0.832091 4.16265 0
M  V30 2709 C 251.76 0.788382 5.86122 0
M  V30 2710 H 250.69 -0.0574701 0.751807 0
M  V30 2711 H 253.341 0.555772 1.74881 0
M  V30 2712 H 251.723 -1.06882 3.81303 0
M  V30 2713 H 252.897 1.75492 4.26074 0
M  V30 2714 H 251.212 1.4384 3.90767 0
M  V30 2715 H 253.809 -0.995617 5.25349 0
M  V30 2716 H 254.152 -1.81186 3.74803 0
M  V30 2717 H 254.685 -0.128444 3.97593 0
M  V30 2718 H 251.424 1.74025 6.31978 0
M  V30 2719 H 250.944 0.0582143 5.99772 0
M  V30 2720 H 252.623 0.437722 6.45518 0
M  V30 2721 N 252.755 -1.56801 0.158532 0
M  V30 2722 C 254.032 -1.88131 -0.535357 0
M  V30 2723 C 254.412 -1.06638 -1.82186 0
M  V30 2724 O 253.76 -0.156533 -2.27963 0
M  V30 2725 C 253.97 -3.39949 -0.789653 0
M  V30 2726 C 255.318 -4.09416 -1.12533 0
M  V30 2727 O 256.342 -3.45194 -0.878622 0
M  V30 2728 O 255.201 -5.22855 -1.59014 0
M  V30 2729 H 252.295 -0.780143 -0.27442 0
M  V30 2730 H 254.841 -1.68564 0.19601 0
M  V30 2731 H 253.613 -3.91115 0.120353 0
M  V30 2732 H 253.236 -3.65084 -1.57479 0
M  V30 2733 N 254.233 0.115231 -1.57178 0
M  V30 2734 C 255.461 0.836437 -1.89239 0
M  V30 2735 C 255.876 1.73256 -0.750175 0
M  V30 2736 O 255.233 1.80357 0.278832 0
M  V30 2737 C 255.284 1.66671 -3.20785 0
M  V30 2738 O 255.005 0.806652 -4.3061 0
M  V30 2739 C 256.506 2.49274 -3.66575 0
M  V30 2740 H 253.726 0.240253 -0.626514 0
M  V30 2741 H 256.27 0.0984932 -2.04263 0
M  V30 2742 H 254.425 2.35737 -3.0742 0
M  V30 2743 H 254.839 1.37969 -5.06028 0
M  V30 2744 H 256.313 3.03055 -4.6137 0
M  V30 2745 H 256.79 3.26807 -2.93417 0
M  V30 2746 H 257.396 1.85443 -3.82741 0
M  V30 2747 N 255.711 1.52812 0.385517 0
M  V30 2748 C 256.641 1.80808 1.47752 0
M  V30 2749 C 257.622 0.660318 1.5676 0
M  V30 2750 O 258.807 0.908246 1.71652 0
M  V30 2751 C 255.937 1.98008 2.85324 0
M  V30 2752 C 254.891 3.13709 2.91154 0
M  V30 2753 C 254.217 3.16169 4.31209 0
M  V30 2754 C 255.517 4.52709 2.60483 0
M  V30 2755 H 257.211 2.72253 1.24573 0
M  V30 2756 H 254.757 1.31003 0.597839 0
M  V30 2757 H 256.71 2.16176 3.61726 0
M  V30 2758 H 255.434 1.03255 3.09848 0
M  V30 2759 H 254.093 2.95329 2.17201 0
M  V30 2760 H 253.741 2.19092 4.52778 0
M  V30 2761 H 253.441 3.93894 4.36029 0
M  V30 2762 H 254.965 3.36496 5.09512 0
M  V30 2763 H 256.379 4.71173 3.26602 0
M  V30 2764 H 254.776 5.32528 2.76648 0
M  V30 2765 H 255.846 4.59186 1.55809 0
M  V30 2766 N 257.189 -0.644168 1.43834 0
M  V30 2767 C 258.438 -1.39985 1.45214 0
M  V30 2768 C 258.751 -1.95421 0.0835494 0
M  V30 2769 O 259.957 -2.71488 -0.0251748 0
M  V30 2770 C 258.413 -2.53384 2.55587 0
M  V30 2771 C 258.021 -2.04517 3.98594 0
M  V30 2772 C 259.765 -3.30685 2.66172 0
M  V30 2773 C 257.672 -3.1518 5.00416 0
M  V30 2774 H 256.602 -0.526005 0.540218 0
M  V30 2775 H 259.253 -0.694367 1.69855 0
M  V30 2776 H 257.635 -3.26446 2.24163 0
M  V30 2777 H 258.809 -1.38405 4.39523 0
M  V30 2778 H 257.124 -1.40068 3.92135 0
M  V30 2779 H 259.721 -4.13158 3.39418 0
M  V30 2780 H 260.064 -3.79312 1.71546 0
M  V30 2781 H 260.597 -2.64708 2.96942 0
M  V30 2782 H 257.336 -2.71511 5.96625 0
M  V30 2783 H 256.856 -3.79974 4.64091 0
M  V30 2784 H 258.535 -3.80166 5.23529 0
M  V30 2785 N 258.668 -1.30515 -0.883378 0
M  V30 2786 C 259.598 -1.19607 -2.00541 0
M  V30 2787 C 260.579 -0.086346 -1.69881 0
M  V30 2788 O 261.764 -0.268654 -1.92333 0
M  V30 2789 C 258.894 -0.888758 -3.35736 0
M  V30 2790 C 257.848 -1.95659 -3.8066 0
M  V30 2791 C 257.174 -1.50224 -5.13164 0
M  V30 2792 C 258.474 -3.36788 -3.99213 0
M  V30 2793 H 260.168 -2.13476 -2.09925 0
M  V30 2794 H 257.714 -1.02775 -1.00863 0
M  V30 2795 H 259.667 -0.799094 -4.13754 0
M  V30 2796 H 258.391 0.0856125 -3.26488 0
M  V30 2797 H 257.05 -2.03591 -3.04871 0
M  V30 2798 H 256.698 -0.516092 -5.00345 0
M  V30 2799 H 256.398 -2.2165 -5.44192 0
M  V30 2800 H 257.922 -1.42639 -5.93706 0
M  V30 2801 H 259.336 -3.31605 -4.67665 0
M  V30 2802 H 257.733 -4.06314 -4.41621 0
M  V30 2803 H 258.803 -3.78561 -3.03017 0
M  V30 2804 N 260.146 1.09593 -1.13257 0
M  V30 2805 C 261.394 1.81375 -0.891492 0
M  V30 2806 C 261.715 1.86049 0.584009 0
M  V30 2807 O 260.985 1.34481 1.42449 0
M  V30 2808 H 259.565 0.671708 -0.326828 0
M  V30 2809 H 262.227 1.3256 -1.42877 0
M  V30 2810 H 261.323 2.84612 -1.28071 0
M  V30 2811 N 261.624 0.925811 1.2754 0
M  V30 2812 C 262.864 0.572521 1.96218 0
M  V30 2813 C 263.228 -0.869719 1.71172 0
M  V30 2814 O 264.429 -1.33119 2.33523 0
M  V30 2815 C 262.7 0.887325 3.4621 0
M  V30 2816 S 264.259 0.642266 4.34074 0
M  V30 2817 H 261.077 0.211403 0.678845 0
M  V30 2818 H 263.679 1.19384 1.54815 0
M  V30 2819 H 262.383 1.93469 3.61936 0
M  V30 2820 H 261.914 0.255123 3.92572 0
M  V30 2821 H 263.929 -0.500822 4.93666 0
M  V30 2822 N 263.102 -1.41638 0.69111 0
M  V30 2823 C 264.33 -2.05628 0.22909 0
M  V30 2824 C 264.745 -1.51992 -1.11999 0
M  V30 2825 O 264.102 -0.666322 -1.69901 0
M  V30 2826 C 264.153 -3.61084 0.173283 0
M  V30 2827 O 263.874 -4.12735 1.46907 0
M  V30 2828 C 265.375 -4.42213 -0.310266 0
M  V30 2829 H 262.595 -0.662327 0.107534 0
M  V30 2830 H 265.139 -1.81489 0.942438 0
M  V30 2831 H 263.294 -3.84278 -0.490858 0
M  V30 2832 H 263.708 -5.06743 1.35322 0
M  V30 2833 H 265.182 -5.51194 -0.298196 0
M  V30 2834 H 265.659 -4.1799 -1.34838 0
M  V30 2835 H 266.265 -4.24074 0.322716 0
M  V30 2836 N 264.58 -0.43555 -1.51462 0
M  V30 2837 C 265.53 0.394701 -2.24558 0
M  V30 2838 C 266.514 0.99157 -1.26715 0
M  V30 2839 O 267.706 0.910007 -1.51815 0
M  V30 2840 C 264.835 1.4963 -3.08975 0
M  V30 2841 C 263.921 0.908912 -4.14246 0
M  V30 2842 N 264.312 0.0505335 -5.05775 0
M  V30 2843 C 262.61 1.17668 -4.30198 0
M  V30 2844 C 263.311 -0.279161 -5.8103 0
M  V30 2845 N 262.287 0.336767 -5.42556 0
M  V30 2846 H 266.089 -0.267106 -2.92684 0
M  V30 2847 H 263.603 -0.247518 -1.60503 0
M  V30 2848 H 265.6 2.10394 -3.59917 0
M  V30 2849 H 264.26 2.16046 -2.42393 0
M  V30 2850 H 265.271 -0.31577 -5.16936 0
M  V30 2851 H 261.948 1.83847 -3.74842 0
M  V30 2852 H 263.338 -0.977553 -6.64751 0
M  V30 2853 N 266.058 1.56714 -0.166846 0
M  V30 2854 C 267.288 2.00828 0.48494 0
M  V30 2855 C 267.696 1.04612 1.57648 0
M  V30 2856 O 267.039 0.0383201 1.8366 0
M  V30 2857 C 267.101 3.4137 1.12723 0
M  V30 2858 C 266.765 4.56654 0.177886 0
M  V30 2859 C 267.762 5.16402 -0.60207 0
M  V30 2860 C 265.447 5.02244 0.0750139 0
M  V30 2861 C 267.441 6.20167 -1.47215 0
M  V30 2862 C 265.128 6.05859 -0.798649 0
M  V30 2863 C 266.126 6.64691 -1.57082 0
M  V30 2864 O 265.814 7.66297 -2.42989 0
M  V30 2865 H 265.546 0.663587 0.128953 0
M  V30 2866 H 268.1 2.03692 -0.264365 0
M  V30 2867 H 266.33 3.35406 1.92457 0
M  V30 2868 H 268.019 3.69466 1.68076 0
M  V30 2869 H 268.785 4.82065 -0.53274 0
M  V30 2870 H 264.664 4.56167 0.665812 0
M  V30 2871 H 268.208 6.66016 -2.07531 0
M  V30 2872 H 264.105 6.39621 -0.869199 0
M  V30 2873 H 264.873 7.83601 -2.36455 0
M  V30 2874 N 267.536 -0.106894 1.57237 0
M  V30 2875 C 268.947 -0.662723 1.74542 0
M  V30 2876 C 269.298 -1.7971 0.787319 0
M  V30 2877 O 268.423 -2.16368 -0.0369636 0
M  V30 2878 C 269.018 -1.20896 3.16496 0
M  V30 2879 C 267.577 -1.71096 3.35266 0
M  V30 2880 C 266.724 -0.615642 2.7038 0
M  V30 2881 H 269.675 0.119106 1.58252 0
M  V30 2882 H 269.696 -2.07847 3.18716 0
M  V30 2883 H 269.208 -0.383122 3.86204 0
M  V30 2884 H 267.309 -2.56119 2.70618 0
M  V30 2885 H 267.422 -1.81208 4.43509 0
M  V30 2886 H 265.786 -1.05222 2.31949 0
M  V30 2887 H 266.569 0.199419 3.4272 0
M  V30 2888 N 269.014 -1.53014 -0.377408 0
M  V30 2889 C 269.944 -1.81589 -1.46791 0
M  V30 2890 C 270.925 -0.668622 -1.56408 0
M  V30 2891 O 272.11 -0.917337 -1.71168 0
M  V30 2892 C 269.24 -1.99519 -2.8427 0
M  V30 2893 C 268.194 -3.15249 -2.89486 0
M  V30 2894 C 267.52 -3.18451 -4.29527 0
M  V30 2895 C 268.82 -4.54084 -2.58079 0
M  V30 2896 H 270.514 -2.7291 -1.23127 0
M  V30 2897 H 268.06 -1.31319 -0.590883 0
M  V30 2898 H 270.013 -2.18092 -3.60575 0
M  V30 2899 H 268.737 -1.04897 -3.09296 0
M  V30 2900 H 267.396 -2.96477 -2.15631 0
M  V30 2901 H 267.044 -2.2149 -4.5161 0
M  V30 2902 H 266.744 -3.962 -4.33934 0
M  V30 2903 H 268.268 -3.39193 -5.07721 0
M  V30 2904 H 269.682 -4.72899 -3.24098 0
M  V30 2905 H 268.079 -5.33987 -2.7382 0
M  V30 2906 H 269.149 -4.60006 -1.53372 0
M  V30 2907 N 270.492 0.636531 -1.44174 0
M  V30 2908 C 271.422 1.76003 -1.53444 0
M  V30 2909 C 272.403 1.65619 -0.387841 0
M  V30 2910 O 273.588 1.84461 -0.607257 0
M  V30 2911 C 270.718 3.14511 -1.4731 0
M  V30 2912 C 269.672 3.39677 -2.60391 0
M  V30 2913 C 268.998 4.78159 -2.39308 0
M  V30 2914 C 270.298 3.32772 -4.02567 0
M  V30 2915 H 271.992 1.68501 -2.47483 0
M  V30 2916 H 269.538 0.809237 -1.19111 0
M  V30 2917 H 271.491 3.92878 -1.52397 0
M  V30 2918 H 270.215 3.22783 -0.49785 0
M  V30 2919 H 268.874 2.63688 -2.54684 0
M  V30 2920 H 268.522 4.83128 -1.39988 0
M  V30 2921 H 268.222 4.95956 -3.15122 0
M  V30 2922 H 269.746 5.58762 -2.46205 0
M  V30 2923 H 271.16 4.01051 -4.09672 0
M  V30 2924 H 269.557 3.62104 -4.7854 0
M  V30 2925 H 270.627 2.30669 -4.2652 0
M  V30 2926 N 271.97 1.30982 0.876444 0
M  V30 2927 C 272.917 1.18085 1.98304 0
M  V30 2928 C 273.887 0.0682263 1.6596 0
M  V30 2929 O 275.072 0.239937 1.89285 0
M  V30 2930 C 272.212 0.887475 3.33493 0
M  V30 2931 C 271.325 2.08281 3.78475 0
M  V30 2932 C 270.46 1.72678 5.0235 0
M  V30 2933 C 269.499 2.88657 5.39762 0
M  V30 2934 N 268.636 2.53292 6.54819 0
M  V30 2935 H 273.476 2.1275 2.08666 0
M  V30 2936 H 271.013 1.05839 1.02159 0
M  V30 2937 H 272.971 0.697961 4.1132 0
M  V30 2938 H 271.601 -0.022315 3.22792 0
M  V30 2939 H 270.653 2.3833 2.96484 0
M  V30 2940 H 271.965 2.95108 4.02135 0
M  V30 2941 H 271.119 1.50151 5.87826 0
M  V30 2942 H 269.858 0.830327 4.8058 0
M  V30 2943 H 268.863 3.1184 4.52809 0
M  V30 2944 H 270.088 3.79002 5.63502 0
M  V30 2945 H 268.034 1.66163 6.34607 0
M  V30 2946 H 267.951 3.3365 6.7839 0
M  V30 2947 H 269.219 2.34143 7.43503 0
M  V30 2948 N 273.449 -1.08991 1.13837 0
M  V30 2949 C 274.396 -2.15748 0.819835 0
M  V30 2950 C 275.366 -1.64636 -0.220026 0
M  V30 2951 O 276.551 -1.90582 -0.0912757 0
M  V30 2952 C 273.691 -3.4382 0.296913 0
M  V30 2953 C 272.804 -4.0881 1.39636 0
M  V30 2954 C 271.939 -5.24655 0.831314 0
M  V30 2955 C 270.978 -5.81575 1.90886 0
M  V30 2956 N 270.115 -6.88774 1.36142 0
M  V30 2957 H 274.955 -2.42338 1.73426 0
M  V30 2958 H 272.492 -1.18935 0.865613 0
M  V30 2959 H 274.45 -4.17193 -0.0244339 0
M  V30 2960 H 273.08 -3.17535 -0.580628 0
M  V30 2961 H 272.132 -3.33258 1.83422 0
M  V30 2962 H 273.444 -4.47141 2.21058 0
M  V30 2963 H 272.598 -6.04942 0.461515 0
M  V30 2964 H 271.337 -4.87698 -0.013932 0
M  V30 2965 H 270.342 -4.99946 2.28767 0
M  V30 2966 H 271.567 -6.20592 2.75758 0
M  V30 2967 H 269.513 -6.53788 0.538254 0
M  V30 2968 H 269.43 -7.25898 2.11208 0
M  V30 2969 H 270.698 -7.72806 1.01933 0
M  V30 2970 N 274.927 -0.932562 -1.27047 0
M  V30 2971 C 275.837 -0.441219 -2.30414 0
M  V30 2972 C 276.853 0.480525 -1.67233 0
M  V30 2973 O 278.029 0.362151 -1.98117 0
M  V30 2974 C 275.094 0.293651 -3.45454 0
M  V30 2975 C 274.155 -0.663601 -4.2414 0
M  V30 2976 C 273.388 0.0362932 -5.33688 0
M  V30 2977 O 273.611 1.2548 -5.56427 0
M  V30 2978 O 272.545 -0.638015 -5.98509 0
M  V30 2979 H 276.371 -1.29962 -2.74488 0
M  V30 2980 H 273.956 -0.6981 -1.32087 0
M  V30 2981 H 275.838 0.707951 -4.15411 0
M  V30 2982 H 274.513 1.12758 -3.03426 0
M  V30 2983 H 273.42 -1.12768 -3.56699 0
M  V30 2984 H 274.753 -1.46489 -4.69896 0
M  V30 2985 N 276.405 1.4127 -0.698611 0
M  V30 2986 C 277.654 2.00408 -0.227949 0
M  V30 2987 C 277.967 1.55981 1.18023 0
M  V30 2988 O 279.173 2.07699 1.74852 0
M  V30 2989 C 277.629 3.58129 -0.356636 0
M  V30 2990 C 277.237 4.11536 -1.77037 0
M  V30 2991 C 278.981 4.24466 0.0540969 0
M  V30 2992 C 276.888 5.61701 -1.85055 0
M  V30 2993 H 275.818 0.749586 -0.0814657 0
M  V30 2994 H 278.469 1.61713 -0.867249 0
M  V30 2995 H 276.851 3.94442 0.350965 0
M  V30 2996 H 278.025 3.86636 -2.50698 0
M  V30 2997 H 276.34 3.57736 -2.13105 0
M  V30 2998 H 278.937 5.34698 0.0146723 0
M  V30 2999 H 279.28 4.01687 1.09332 0
M  V30 3000 H 279.813 3.93198 -0.603337 0
M  V30 3001 H 276.552 5.89312 -2.8704 0
M  V30 3002 H 276.072 5.88519 -1.15783 0
M  V30 3003 H 277.751 6.26524 -1.61484 0
M  V30 3004 N 277.883 0.443576 1.51229 0
M  V30 3005 C 278.83 -0.364716 2.279 0
M  V30 3006 C 279.8 -1.0114 1.31757 0
M  V30 3007 O 280.985 -1.02912 1.60667 0
M  V30 3008 C 278.125 -1.45644 3.12861 0
M  V30 3009 C 277.238 -0.827269 4.24005 0
M  V30 3010 C 276.373 -1.89456 4.96266 0
M  V30 3011 C 275.412 -1.24416 5.99322 0
M  V30 3012 N 274.549 -2.25309 6.64966 0
M  V30 3013 H 279.389 0.295464 2.96532 0
M  V30 3014 H 276.926 0.157554 1.46254 0
M  V30 3015 H 278.884 -2.10076 3.6045 0
M  V30 3016 H 277.514 -2.08616 2.46331 0
M  V30 3017 H 276.566 -0.0710839 3.80334 0
M  V30 3018 H 277.878 -0.312481 4.9782 0
M  V30 3019 H 277.032 -2.61535 5.47434 0
M  V30 3020 H 275.771 -2.4431 4.22095 0
M  V30 3021 H 274.776 -0.508868 5.4744 0
M  V30 3022 H 276.001 -0.702882 6.75453 0
M  V30 3023 H 273.947 -2.79231 5.93604 0
M  V30 3024 H 273.864 -1.78739 7.34567 0
M  V30 3025 H 275.132 -2.96853 7.20763 0
M  V30 3026 N 279.361 -1.56624 0.175154 0
M  V30 3027 C 280.308 -2.18149 -0.753634 0
M  V30 3028 C 281.278 -1.12265 -1.22417 0
M  V30 3029 O 282.463 -1.40432 -1.29165 0
M  V30 3030 C 279.603 -2.82933 -1.97592 0
M  V30 3031 C 278.716 -4.03289 -1.5486 0
M  V30 3032 C 277.851 -4.55988 -2.72485 0
M  V30 3033 C 276.89 -5.68746 -2.26262 0
M  V30 3034 N 276.027 -6.15938 -3.36994 0
M  V30 3035 H 280.867 -2.9717 -0.222195 0
M  V30 3036 H 278.404 -1.46774 -0.0979422 0
M  V30 3037 H 280.362 -3.18653 -2.69288 0
M  V30 3038 H 278.992 -2.06509 -2.481 0
M  V30 3039 H 278.044 -3.73364 -0.728246 0
M  V30 3040 H 279.356 -4.849 -1.16933 0
M  V30 3041 H 278.51 -4.9391 -3.52332 0
M  V30 3042 H 277.249 -3.73443 -3.13674 0
M  V30 3043 H 276.254 -5.30372 -1.44863 0
M  V30 3044 H 277.479 -6.53095 -1.86127 0
M  V30 3045 H 275.425 -5.36321 -3.77751 0
M  V30 3046 H 275.342 -6.92548 -3.03172 0
M  V30 3047 H 276.61 -6.58511 -4.17114 0
M  V30 3048 N 280.839 0.0985539 -1.57292 0
M  V30 3049 C 282.086 0.802678 -1.85912 0
M  V30 3050 C 282.414 1.78901 -0.763186 0
M  V30 3051 O 281.669 1.94178 0.243559 0
M  V30 3052 C 281.968 1.56927 -3.21105 0
M  V30 3053 C 281.634 0.725376 -4.45027 0
M  V30 3054 C 280.296 0.492726 -4.78671 0
M  V30 3055 C 282.648 0.138493 -5.21016 0
M  V30 3056 C 279.976 -0.336727 -5.85733 0
M  V30 3057 C 282.328 -0.678264 -6.28953 0
M  V30 3058 C 280.992 -0.921039 -6.61115 0
M  V30 3059 H 280.262 0.293721 -0.680301 0
M  V30 3060 H 282.909 0.0642841 -1.91392 0
M  V30 3061 H 281.214 2.37914 -3.11294 0
M  V30 3062 H 282.911 2.11841 -3.40477 0
M  V30 3063 H 279.501 0.916815 -4.18679 0
M  V30 3064 H 283.685 0.305404 -4.95359 0
M  V30 3065 H 278.941 -0.533836 -6.09065 0
M  V30 3066 H 283.115 -1.1399 -6.87007 0
M  V30 3067 H 280.742 -1.56556 -7.43905 0
M  V30 3068 N 282.317 1.53212 0.369288 0
M  V30 3069 C 283.247 1.82365 1.45826 0
M  V30 3070 C 284.228 0.676907 1.56051 0
M  V30 3071 O 285.413 0.926401 1.70679 0
M  V30 3072 C 282.543 2.01023 2.83208 0
M  V30 3073 C 281.497 3.1678 2.8781 0
M  V30 3074 C 280.823 3.20724 4.27832 0
M  V30 3075 C 282.123 4.55447 2.55667 0
M  V30 3076 H 283.817 2.73559 1.21678 0
M  V30 3077 H 281.363 1.3163 0.583911 0
M  V30 3078 H 283.316 2.20001 3.59413 0
M  V30 3079 H 282.04 1.06536 3.08736 0
M  V30 3080 H 280.699 2.97616 2.14056 0
M  V30 3081 H 280.347 2.23882 4.50429 0
M  V30 3082 H 280.047 3.98496 4.31827 0
M  V30 3083 H 281.571 3.41881 5.05915 0
M  V30 3084 H 282.985 4.74611 3.21586 0
M  V30 3085 H 281.382 5.35432 2.70984 0
M  V30 3086 H 282.452 4.60812 1.5093 0
M  V30 3087 N 283.795 -0.628877 1.44509 0
M  V30 3088 C 285.043 -1.38565 1.4712 0
M  V30 3089 C 285.364 -1.94712 0.105899 0
M  V30 3090 O 284.634 -1.75912 -0.862079 0
M  V30 3091 H 283.214 -0.514333 0.541729 0
M  V30 3092 H 285.876 -0.740018 1.80305 0
M  V30 3093 H 284.972 -2.21583 2.19789 0
M  V30 3094 N 285.273 -1.31445 -0.869486 0
M  V30 3095 C 286.55 -1.11795 -1.60503 0
M  V30 3096 C 286.93 0.327168 -2.08549 0
M  V30 3097 O 286.278 1.32135 -1.8642 0
M  V30 3098 C 286.488 -2.13258 -2.76265 0
M  V30 3099 C 287.836 -2.45805 -3.46215 0
M  V30 3100 O 288.86 -2.11688 -2.86473 0
M  V30 3101 O 287.719 -3.04228 -4.5399 0
M  V30 3102 H 284.813 -0.430421 -0.706163 0
M  V30 3103 H 287.359 -1.42925 -0.914907 0
M  V30 3104 H 286.131 -3.10461 -2.3818 0
M  V30 3105 H 285.754 -1.83035 -3.52964 0
M  V30 3106 N 286.751 1.08385 -1.14413 0
M  V30 3107 C 287.997 1.81044 -0.913834 0
M  V30 3108 C 288.33 1.86004 0.558209 0
M  V30 3109 O 287.605 1.33606 1.4135 0
M  V30 3110 C 287.888 3.26648 -1.51569 0
M  V30 3111 C 287.741 3.29895 -3.0576 0
M  V30 3112 C 289.06 4.23629 -1.19273 0
M  V30 3113 H 286.179 0.65727 -0.333414 0
M  V30 3114 H 288.821 1.26896 -1.41412 0
M  V30 3115 H 286.971 3.72889 -1.09023 0
M  V30 3116 H 288.643 2.91977 -3.57137 0
M  V30 3117 H 286.886 2.69163 -3.40197 0
M  V30 3118 H 287.557 4.32516 -3.42977 0
M  V30 3119 H 290.033 3.85727 -1.56057 0
M  V30 3120 H 288.909 5.23822 -1.64017 0
M  V30 3121 H 289.17 4.41968 -0.108068 0
M  V30 3122 N 288.23 0.939286 1.26551 0
M  V30 3123 C 289.14 0.453432 2.30176 0
M  V30 3124 C 290.156 -0.471649 1.67486 0
M  V30 3125 O 291.332 -0.35164 1.98306 0
M  V30 3126 C 288.397 -0.275326 3.45605 0
M  V30 3127 C 287.458 0.686084 4.23782 0
M  V30 3128 C 286.691 -0.00798994 5.33699 0
M  V30 3129 O 286.914 -1.22528 5.57085 0
M  V30 3130 O 285.848 0.669746 5.98162 0
M  V30 3131 H 289.674 1.31416 2.73795 0
M  V30 3132 H 287.259 0.705095 1.31715 0
M  V30 3133 H 289.141 -0.685911 4.1578 0
M  V30 3134 H 287.816 -1.11147 3.0402 0
M  V30 3135 H 286.723 1.14658 3.56096 0
M  V30 3136 H 288.056 1.48979 4.69112 0
M  V30 3137 N 289.708 -1.40897 0.706093 0
M  V30 3138 C 290.954 -2.01352 0.241889 0
M  V30 3139 C 291.287 -1.55832 -1.15888 0
M  V30 3140 O 290.562 -0.774145 -1.7843 0
M  V30 3141 C 290.845 -3.58752 0.311311 0
M  V30 3142 C 290.698 -4.1437 1.74978 0
M  V30 3143 C 292.017 -4.38914 -0.322922 0
M  V30 3144 H 289.136 -0.731562 0.0893687 0
M  V30 3145 H 291.778 -1.67504 0.896802 0
M  V30 3146 H 289.928 -3.87718 -0.246302 0
M  V30 3147 H 291.6 -3.96239 2.36205 0
M  V30 3148 H 289.843 -3.69016 2.28057 0
M  V30 3149 H 290.514 -5.23532 1.74981 0
M  V30 3150 H 292.99 -4.15822 0.152089 0
M  V30 3151 H 291.866 -5.48358 -0.243855 0
M  V30 3152 H 292.127 -4.19176 -1.40513 0
M  V30 3153 N 291.186 -0.45159 -1.50991 0
M  V30 3154 C 292.432 0.110237 -2.025 0
M  V30 3155 C 292.765 1.41109 -1.33424 0
M  V30 3156 O 292.04 1.89135 -0.453659 0
M  V30 3157 C 292.323 0.314271 -3.58726 0
M  V30 3158 C 292.176 -1.00623 -4.38401 0
M  V30 3159 C 293.495 1.07767 -4.26702 0
M  V30 3160 H 290.614 0.0385897 -0.735989 0
M  V30 3161 H 293.256 -0.593374 -1.80497 0
M  V30 3162 H 291.406 0.913601 -3.77605 0
M  V30 3163 H 293.078 -1.64064 -4.31139 0
M  V30 3164 H 291.321 -1.6075 -4.02917 0
M  V30 3165 H 291.992 -0.817341 -5.45915 0
M  V30 3166 H 294.468 0.56986 -4.12179 0
M  V30 3167 H 293.344 1.18921 -5.35863 0
M  V30 3168 H 293.605 2.10939 -3.88532 0
M  V30 3169 N 292.664 1.56529 -0.183458 0
M  V30 3170 C 293.941 1.88959 0.50536 0
M  V30 3171 C 294.321 1.09523 1.80466 0
M  V30 3172 O 293.669 0.19278 2.27685 0
M  V30 3173 C 293.879 3.41162 0.73547 0
M  V30 3174 C 295.227 4.11155 1.06005 0
M  V30 3175 O 296.251 3.46548 0.823594 0
M  V30 3176 O 295.11 5.25318 1.50675 0
M  V30 3177 H 292.204 0.78441 0.261973 0
M  V30 3178 H 294.75 1.68231 -0.222802 0
M  V30 3179 H 293.522 3.90874 -0.182561 0
M  V30 3180 H 293.145 3.67543 1.51651 0
M  V30 3181 N 294.142 -0.090211 1.57342 0
M  V30 3182 C 295.367 -0.810082 1.90925 0
M  V30 3183 C 295.792 -1.71248 0.778187 0
M  V30 3184 O 295.15 -1.79278 -0.269991 0
M  V30 3185 C 295.198 -1.59529 3.23393 0
M  V30 3186 O 294.302 -2.70461 3.11327 0
M  V30 3187 H 293.643 -0.222231 0.625707 0
M  V30 3188 H 296.173 -0.0639716 2.045 0
M  V30 3189 H 296.183 -1.97847 3.5682 0
M  V30 3190 H 294.858 -0.933055 4.05299 0
M  V30 3191 H 293.435 -2.35135 2.89423 0
M  V30 3192 N 295.62 -1.53406 -0.361157 0
M  V30 3193 C 296.845 -1.74024 -1.12829 0
M  V30 3194 C 297.27 -0.470069 -1.82132 0
M  V30 3195 O 296.628 0.57619 -1.719 0
M  V30 3196 C 296.676 -2.90903 -2.13091 0
M  V30 3197 O 295.78 -2.59821 -3.20261 0
M  V30 3198 H 295.121 -0.577804 -0.327168 0
M  V30 3199 H 297.651 -2.00307 -0.41693 0
M  V30 3200 H 297.661 -3.17194 -2.56616 0
M  V30 3201 H 296.336 -3.83034 -1.62042 0
M  V30 3202 H 294.913 -2.44362 -2.81677 0
M  V30 3203 N 297.098 0.621204 -1.44841 0
M  V30 3204 C 298.008 1.7612 -1.5498 0
M  V30 3205 C 299.024 1.68477 -0.434927 0
M  V30 3206 O 300.2 1.89076 -0.693693 0
M  V30 3207 C 297.265 3.1254 -1.50065 0
M  V30 3208 C 296.326 3.31741 -2.72482 0
M  V30 3209 C 295.559 4.61653 -2.67792 0
M  V30 3210 O 295.782 5.431 -1.74352 0
M  V30 3211 O 294.716 4.83271 -3.58794 0
M  V30 3212 H 298.542 1.70518 -2.51311 0
M  V30 3213 H 296.127 0.783643 -1.27198 0
M  V30 3214 H 298.009 3.93844 -1.49882 0
M  V30 3215 H 296.684 3.18663 -0.568806 0
M  V30 3216 H 295.591 2.50077 -2.7823 0
M  V30 3217 H 296.924 3.30486 -3.64746 0
M  V30 3218 N 298.576 1.31904 0.862503 0
M  V30 3219 C 299.539 1.20131 1.95195 0
M  V30 3220 C 300.539 0.126409 1.60302 0
M  V30 3221 O 301.729 0.376234 1.70089 0
M  V30 3222 C 298.861 0.845691 3.30244 0
M  V30 3223 H 300.054 2.16943 2.07064 0
M  V30 3224 H 297.607 1.15622 1.05172 0
M  V30 3225 H 298.342 -0.120957 3.24074 0
M  V30 3226 H 298.127 1.62276 3.56944 0
M  V30 3227 H 299.617 0.787418 4.10109 0
M  V30 3228 N 300.054 -1.07777 1.14986 0
M  V30 3229 C 300.984 -2.16865 0.865557 0
M  V30 3230 C 301.965 -1.69123 -0.182083 0
M  V30 3231 O 303.15 -1.94164 -0.0373815 0
M  V30 3232 C 300.28 -3.45539 0.349313 0
M  V30 3233 C 299.234 -4.06708 1.33313 0
M  V30 3234 C 298.56 -5.30411 0.675918 0
M  V30 3235 C 299.86 -4.47241 2.69764 0
M  V30 3236 H 301.554 -2.40905 1.77778 0
M  V30 3237 H 299.1 -1.15781 0.856203 0
M  V30 3238 H 301.053 -4.21174 0.137983 0
M  V30 3239 H 299.777 -3.21072 -0.598362 0
M  V30 3240 H 298.436 -3.33112 1.53075 0
M  V30 3241 H 298.084 -5.02232 -0.277767 0
M  V30 3242 H 297.784 -5.72293 1.33244 0
M  V30 3243 H 299.308 -6.08755 0.474262 0
M  V30 3244 H 300.722 -5.14025 2.53873 0
M  V30 3245 H 299.119 -5.00062 3.3175 0
M  V30 3246 H 300.189 -3.58818 3.26156 0
M  V30 3247 N 301.532 -0.945985 -1.26051 0
M  V30 3248 C 302.757 -0.612525 -1.98149 0
M  V30 3249 C 303.182 0.806623 -1.69927 0
M  V30 3250 O 302.54 1.54411 -0.950108 0
M  V30 3251 C 302.588 -0.866981 -3.50023 0
M  V30 3252 O 301.692 0.0585333 -4.12358 0
M  V30 3253 H 301.033 -0.23379 -0.621481 0
M  V30 3254 H 303.563 -1.27023 -1.60395 0
M  V30 3255 H 303.573 -0.789792 -4.00283 0
M  V30 3256 H 302.248 -1.90135 -3.69894 0
M  V30 3257 H 300.825 -0.0701241 -3.72834 0
M  V30 3258 N 303.011 1.40521 -0.713556 0
M  V30 3259 C 303.941 2.33381 -0.0743864 0
M  V30 3260 C 304.922 1.52784 0.747735 0
M  V30 3261 O 306.107 1.81258 0.697071 0
M  V30 3262 C 303.237 3.36748 0.849598 0
M  V30 3263 C 302.191 4.27793 0.133247 0
M  V30 3264 C 301.517 5.21679 1.17281 0
M  V30 3265 C 302.817 5.12415 -1.01134 0
M  V30 3266 H 304.511 2.87081 -0.850007 0
M  V30 3267 H 302.057 1.38034 -0.410201 0
M  V30 3268 H 304.01 4.00648 1.30612 0
M  V30 3269 H 302.734 2.81439 1.65709 0
M  V30 3270 H 301.393 3.65342 -0.303426 0
M  V30 3271 H 301.041 4.62677 1.9733 0
M  V30 3272 H 300.741 5.83435 0.698397 0
M  V30 3273 H 302.265 5.88456 1.62947 0
M  V30 3274 H 303.679 5.69781 -0.634274 0
M  V30 3275 H 302.076 5.83203 -1.41399 0
M  V30 3276 H 303.146 4.48514 -1.84292 0
M  V30 3277 N 304.489 0.459591 1.5075 0
M  V30 3278 C 305.714 -0.0996819 2.0716 0
M  V30 3279 C 306.139 -1.33761 1.32249 0
M  V30 3280 O 305.497 -1.77551 0.366786 0
M  V30 3281 C 305.545 -0.378226 3.58611 0
M  V30 3282 O 304.649 -1.46081 3.85661 0
M  V30 3283 H 303.99 0.00791392 0.663953 0
M  V30 3284 H 306.52 0.647329 1.9409 0
M  V30 3285 H 306.53 -0.622135 4.03229 0
M  V30 3286 H 305.205 0.526439 4.12555 0
M  V30 3287 H 303.782 -1.20511 3.5289 0
M  V30 3288 N 305.967 -1.56429 0.191757 0
M  V30 3289 C 306.897 -2.21937 -0.725696 0
M  V30 3290 C 307.878 -1.1814 -1.2238 0
M  V30 3291 O 309.063 -1.46636 -1.27325 0
M  V30 3292 C 306.193 -2.87611 -1.94672 0
M  V30 3293 C 305.147 -3.97623 -1.58366 0
M  V30 3294 C 304.473 -4.50446 -2.88102 0
M  V30 3295 C 305.773 -5.16197 -0.796133 0
M  V30 3296 H 307.467 -2.98861 -0.179606 0
M  V30 3297 H 305.013 -1.43749 -0.0849464 0
M  V30 3298 H 306.966 -3.3212 -2.59373 0
M  V30 3299 H 305.69 -2.08087 -2.51728 0
M  V30 3300 H 304.349 -3.53801 -0.960247 0
M  V30 3301 H 303.997 -3.67688 -3.43241 0
M  V30 3302 H 303.697 -5.24675 -2.64556 0
M  V30 3303 H 305.221 -4.97654 -3.53798 0
M  V30 3304 H 306.635 -5.57271 -1.34618 0
M  V30 3305 H 305.032 -5.96471 -0.658928 0
M  V30 3306 H 306.102 -4.84473 0.203478 0
M  V30 3307 N 307.445 0.0818655 -1.57387 0
M  V30 3308 C 308.395 1.10501 -1.99433 0
M  V30 3309 C 309.379 1.35041 -0.874798 0
M  V30 3310 O 310.571 1.35511 -1.13868 0
M  V30 3311 C 307.7 2.42159 -2.43339 0
M  V30 3312 C 306.786 2.20937 -3.62005 0
M  V30 3313 N 307.177 1.69616 -4.76512 0
M  V30 3314 C 305.475 2.51451 -3.68359 0
M  V30 3315 C 306.176 1.62973 -5.58404 0
M  V30 3316 N 305.152 2.08664 -5.01956 0
M  V30 3317 H 308.954 0.701373 -2.85408 0
M  V30 3318 H 306.468 0.289096 -1.59806 0
M  V30 3319 H 308.465 3.16208 -2.71695 0
M  V30 3320 H 307.125 2.83249 -1.58746 0
M  V30 3321 H 308.136 1.38624 -4.99003 0
M  V30 3322 H 304.813 2.95975 -2.94457 0
M  V30 3323 H 306.203 1.24233 -6.60315 0
M  V30 3324 N 308.923 1.53595 0.353017 0
M  V30 3325 C 309.871 1.81605 1.45335 0
M  V30 3326 C 310.865 0.685923 1.54892 0
M  V30 3327 O 312.071 0.869095 1.57628 0
M  V30 3328 H 308.446 0.575204 0.484401 0
M  V30 3329 H 310.417 2.73679 1.18921 0
M  V30 3330 C 309.166 2.03406 2.81995 0
M  V30 3331 H 308.489 2.89814 2.75405 0
M  V30 3332 H 309.929 2.26975 3.58132 0
M  V30 3333 C 308.388 0.816794 3.26849 0
M  V30 3334 O 308.918 0.0115856 4.01698 0
M  V30 3335 N 307.124 0.636682 2.8354 0
M  V30 3336 H 306.671 1.2931 2.22793 0
M  V30 3337 H 306.629 -0.176336 3.13905 0
M  V30 3338 N 310.401 -0.613514 1.45168 0
M  V30 3339 C 311.648 -1.37268 1.48875 0
M  V30 3340 C 311.976 -1.94077 0.128161 0
M  V30 3341 O 311.231 -1.75178 -0.872416 0
M  V30 3342 C 311.53 -2.54347 2.51083 0
M  V30 3343 C 311.196 -2.1572 3.95949 0
M  V30 3344 C 309.858 -2.04899 4.35396 0
M  V30 3345 C 312.21 -1.85485 4.87078 0
M  V30 3346 C 309.538 -1.62057 5.63875 0
M  V30 3347 C 311.89 -1.4413 6.15962 0
M  V30 3348 C 310.554 -1.31863 6.54346 0
M  V30 3349 H 309.824 -0.502299 0.544773 0
M  V30 3350 H 312.471 -0.694021 1.78481 0
M  V30 3351 H 310.776 -3.27524 2.15024 0
M  V30 3352 H 312.473 -3.12577 2.51191 0
M  V30 3353 H 309.063 -2.25066 3.64751 0
M  V30 3354 H 313.247 -1.92745 4.57343 0
M  V30 3355 H 308.503 -1.51177 5.92415 0
M  V30 3356 H 312.677 -1.19778 6.86022 0
M  V30 3357 H 310.304 -0.984392 7.538 0
M  V30 3358 N 311.879 -1.3236 -0.855495 0
M  V30 3359 C 313.128 -1.22226 -1.60448 0
M  V30 3360 C 313.441 0.214733 -1.94418 0
M  V30 3361 O 314.647 0.437917 -2.67945 0
M  V30 3362 C 313.103 -2.14063 -2.89318 0
M  V30 3363 C 312.711 -3.62839 -2.62777 0
M  V30 3364 C 314.455 -2.12764 -3.67331 0
M  V30 3365 C 312.362 -4.4664 -3.87643 0
M  V30 3366 H 311.292 -0.453904 -0.602069 0
M  V30 3367 H 313.943 -1.57314 -0.944698 0
M  V30 3368 H 312.325 -1.71889 -3.5675 0
M  V30 3369 H 313.499 -4.1335 -2.03662 0
M  V30 3370 H 311.814 -3.66261 -1.98096 0
M  V30 3371 H 314.411 -2.72611 -4.59987 0
M  V30 3372 H 314.754 -1.11841 -4.00995 0
M  V30 3373 H 315.287 -2.53214 -3.06802 0
M  V30 3374 H 312.026 -5.48373 -3.5912 0
M  V30 3375 H 311.546 -4.0088 -4.46156 0
M  V30 3376 H 313.225 -4.59597 -4.55389 0
M  V30 3377 N 313.357 1.07166 -1.15556 0
M  V30 3378 C 314.304 2.14417 -0.854055 0
M  V30 3379 C 315.274 1.64965 0.193806 0
M  V30 3380 O 316.459 1.90703 0.0609443 0
M  V30 3381 C 313.599 3.43304 -0.351574 0
M  V30 3382 C 312.712 4.06537 -1.46123 0
M  V30 3383 C 311.847 5.23266 -0.914677 0
M  V30 3384 C 310.886 5.78464 -2.00114 0
M  V30 3385 N 310.023 6.86521 -1.47083 0
M  V30 3386 H 314.863 2.39548 -1.77259 0
M  V30 3387 H 312.4 1.17543 -0.884425 0
M  V30 3388 H 314.358 4.17179 -0.0419409 0
M  V30 3389 H 312.988 3.18419 0.530037 0
M  V30 3390 H 312.04 3.30297 -1.88701 0
M  V30 3391 H 313.352 4.43567 -2.28144 0
M  V30 3392 H 312.506 6.04131 -0.557698 0
M  V30 3393 H 311.245 4.87658 -0.0636583 0
M  V30 3394 H 310.25 4.96243 -2.36692 0
M  V30 3395 H 311.475 6.16126 -2.85597 0
M  V30 3396 H 309.421 6.52849 -0.642198 0
M  V30 3397 H 309.338 7.22446 -2.22729 0
M  V30 3398 H 310.606 7.71087 -1.14215 0
M  V30 3399 N 314.835 0.952656 1.25548 0
M  V30 3400 C 316.112 0.523818 1.88456 0
M  V30 3401 C 316.492 -0.998871 1.85973 0
M  V30 3402 O 315.84 -1.86381 1.3219 0
M  V30 3403 C 316.05 1.0982 3.31271 0
M  V30 3404 C 317.398 1.17385 4.08051 0
M  V30 3405 O 318.422 1.04961 3.40384 0
M  V30 3406 O 317.281 1.36852 5.29088 0
M  V30 3407 H 314.375 0.172485 0.808813 0
M  V30 3408 H 316.921 1.04596 1.33633 0
M  V30 3409 H 315.693 2.1415 3.27499 0
M  V30 3410 H 315.316 0.559191 3.93648 0
M  V30 3411 N 316.313 -1.40141 0.720998 0
M  V30 3412 C 317.59 -1.94677 0.189757 0
M  V30 3413 C 317.97 -1.65879 -1.30566 0
M  V30 3414 O 317.318 -0.979391 -2.06447 0
M  V30 3415 C 317.528 -3.45279 0.508304 0
M  V30 3416 C 318.876 -4.22209 0.449934 0
M  V30 3417 O 319.9 -3.53413 0.444677 0
M  V30 3418 O 318.759 -5.44788 0.432189 0
M  V30 3419 H 315.853 -0.826459 0.0299026 0
M  V30 3420 H 318.399 -1.49719 0.7989 0
M  V30 3421 H 317.171 -3.59619 1.54239 0
M  V30 3422 H 316.794 -3.97386 -0.130525 0
M  V30 3423 N 317.792 -0.46758 -1.50504 0
M  V30 3424 C 319.04 0.0884469 -2.01906 0
M  V30 3425 C 319.361 1.40532 -1.35188 0
M  V30 3426 O 318.631 1.89515 -0.496079 0
M  V30 3427 H 317.211 0.0356765 -0.746148 0
M  V30 3428 H 319.873 -0.6172 -1.84869 0
M  V30 3429 H 318.969 0.2425 -3.11156 0
M  V30 3430 N 319.27 1.56325 -0.20005 0
M  V30 3431 C 320.495 2.02548 0.44597 0
M  V30 3432 C 320.92 1.07922 1.5406 0
M  V30 3433 O 320.278 0.0635775 1.81188 0
M  V30 3434 C 320.326 3.47175 0.974761 0
M  V30 3435 O 319.43 3.55671 2.08739 0
M  V30 3436 H 318.771 0.655862 0.103638 0
M  V30 3437 H 321.301 2.02201 -0.312381 0
M  V30 3438 H 321.311 3.87067 1.2901 0
M  V30 3439 H 319.986 4.15538 0.17347 0
M  V30 3440 H 318.563 3.27657 1.78032 0
M  V30 3441 N 320.748 -0.0735177 1.57428 0
M  V30 3442 C 321.973 -0.789787 1.91774 0
M  V30 3443 C 322.398 -1.70413 0.796306 0
M  V30 3444 O 321.756 -1.79555 -0.250961 0
M  V30 3445 C 321.804 -1.5609 3.25067 0
M  V30 3446 O 320.908 -2.67144 3.14178 0
M  V30 3447 H 320.249 -0.215582 0.628029 0
M  V30 3448 H 322.779 -0.0422781 2.04556 0
M  V30 3449 H 322.789 -1.94052 3.58898 0
M  V30 3450 H 321.464 -0.890015 4.06265 0
M  V30 3451 H 320.041 -2.32052 2.91901 0
M  V30 3452 N 322.226 -1.5378 -0.344866 0
M  V30 3453 C 323.451 -1.75211 -1.10977 0
M  V30 3454 C 323.876 -0.48936 -1.81623 0
M  V30 3455 O 323.234 0.557925 -1.72502 0
M  V30 3456 C 323.282 -2.93147 -2.09993 0
M  V30 3457 O 322.386 -2.63203 -3.17487 0
M  V30 3458 H 321.727 -0.581241 -0.321021 0
M  V30 3459 H 324.257 -2.00738 -0.395661 0
M  V30 3460 H 324.267 -3.19898 -2.53237 0
M  V30 3461 H 322.942 -3.84731 -1.5797 0
M  V30 3462 H 321.519 -2.47336 -2.79069 0
M  V30 3463 N 323.704 0.605807 -1.45491 0
M  V30 3464 C 324.634 1.72709 -1.57143 0
M  V30 3465 C 325.615 1.6476 -0.422884 0
M  V30 3466 O 326.8 1.83132 -0.646247 0
M  V30 3467 C 323.93 3.11316 -1.53948 0
M  V30 3468 C 322.884 3.34077 -2.67537 0
M  V30 3469 C 322.21 4.72975 -2.49397 0
M  V30 3470 C 323.51 3.24158 -4.09535 0
M  V30 3471 H 325.204 1.63214 -2.51001 0
M  V30 3472 H 322.75 0.78379 -1.208 0
M  V30 3473 H 324.703 3.89557 -1.60696 0
M  V30 3474 H 323.427 3.21655 -0.566205 0
M  V30 3475 H 322.086 2.58227 -2.6022 0
M  V30 3476 H 321.734 4.8005 -1.50205 0
M  V30 3477 H 321.434 4.8916 -3.25571 0
M  V30 3478 H 322.958 5.53414 -2.58002 0
M  V30 3479 H 324.372 3.92271 -4.18086 0
M  V30 3480 H 322.769 3.51872 -4.86113 0
M  V30 3481 H 323.839 2.2157 -4.31317 0
M  V30 3482 N 325.182 1.32811 0.848464 0
M  V30 3483 C 326.092 1.24278 1.98978 0
M  V30 3484 C 327.108 0.155176 1.73307 0
M  V30 3485 O 328.284 0.376999 1.9784 0
M  V30 3486 C 325.349 0.972444 3.32783 0
M  V30 3487 C 324.41 2.14911 3.71634 0
M  V30 3488 C 323.643 1.89157 4.99054 0
M  V30 3489 O 323.866 0.837165 5.64223 0
M  V30 3490 O 322.8 2.75433 5.35183 0
M  V30 3491 H 326.626 2.20238 2.09115 0
M  V30 3492 H 324.211 1.12762 0.980052 0
M  V30 3493 H 326.093 0.838432 4.12975 0
M  V30 3494 H 324.768 0.043051 3.23671 0
M  V30 3495 H 323.675 2.33862 2.91992 0
M  V30 3496 H 325.008 3.06151 3.85399 0
M  V30 3497 N 326.66 -1.06551 1.16123 0
M  V30 3498 C 327.59 -2.15935 0.88851 0
M  V30 3499 C 328.571 -1.69306 -0.164135 0
M  V30 3500 O 329.756 -1.94193 -0.0167857 0
M  V30 3501 C 326.886 -3.45149 0.385942 0
M  V30 3502 C 325.84 -4.05271 1.3762 0
M  V30 3503 C 325.166 -5.29664 0.732137 0
M  V30 3504 C 326.466 -4.44355 2.74493 0
M  V30 3505 H 328.16 -2.39006 1.80323 0
M  V30 3506 H 325.706 -1.14866 0.868435 0
M  V30 3507 H 327.659 -4.21004 0.182647 0
M  V30 3508 H 326.383 -3.21689 -0.564274 0
M  V30 3509 H 325.042 -3.3147 1.56599 0
M  V30 3510 H 324.69 -5.02499 -0.224483 0
M  V30 3511 H 324.39 -5.70848 1.39307 0
M  V30 3512 H 325.914 -6.08218 0.538802 0
M  V30 3513 H 327.328 -5.11303 2.59311 0
M  V30 3514 H 325.725 -4.96515 3.37035 0
M  V30 3515 H 326.795 -3.55339 3.29943 0
M  V30 3516 N 328.138 -0.959301 -1.25041 0
M  V30 3517 C 329.385 -0.616611 -1.92884 0
M  V30 3518 C 329.713 0.847036 -1.75087 0
M  V30 3519 O 328.968 1.62374 -1.09239 0
M  V30 3520 C 329.267 -0.927136 -3.45165 0
M  V30 3521 C 328.933 -2.37757 -3.83122 0
M  V30 3522 C 327.595 -2.77402 -3.93194 0
M  V30 3523 C 329.947 -3.31929 -4.01836 0
M  V30 3524 C 327.275 -4.10277 -4.19392 0
M  V30 3525 C 329.627 -4.64423 -4.29528 0
M  V30 3526 C 328.291 -5.03857 -4.37818 0
M  V30 3527 H 327.561 -0.225634 -0.705812 0
M  V30 3528 H 330.208 -1.20921 -1.48493 0
M  V30 3529 H 328.513 -0.252195 -3.90987 0
M  V30 3530 H 330.21 -0.6405 -3.95852 0
M  V30 3531 H 326.8 -2.06013 -3.75841 0
M  V30 3532 H 330.984 -3.02488 -3.93465 0
M  V30 3533 H 326.24 -4.40467 -4.24027 0
M  V30 3534 H 330.414 -5.37369 -4.42953 0
M  V30 3535 H 328.041 -6.06843 -4.57871 0
M  V30 3536 N 329.616 1.39756 -0.72842 0
M  V30 3537 C 330.863 2.00645 -0.273487 0
M  V30 3538 C 331.191 1.57786 1.13727 0
M  V30 3539 O 330.446 0.794886 1.7883 0
M  V30 3540 C 330.745 3.56002 -0.315776 0
M  V30 3541 C 330.411 4.18489 -1.67863 0
M  V30 3542 C 329.073 4.3527 -2.05166 0
M  V30 3543 C 331.425 4.53219 -2.57375 0
M  V30 3544 C 328.753 4.84069 -3.31503 0
M  V30 3545 C 331.105 5.03423 -3.83077 0
M  V30 3546 C 329.769 5.18413 -4.20481 0
M  V30 3547 H 329.039 0.734211 -0.100076 0
M  V30 3548 H 331.686 1.6718 -0.933972 0
M  V30 3549 H 329.991 3.89452 0.428285 0
M  V30 3550 H 331.688 4.00963 0.0542575 0
M  V30 3551 H 328.278 4.05824 -1.37858 0
M  V30 3552 H 332.462 4.39878 -2.29827 0
M  V30 3553 H 327.718 4.93859 -3.60435 0
M  V30 3554 H 331.892 5.2927 -4.52599 0
M  V30 3555 H 329.519 5.55987 -5.18443 0
M  V30 3556 N 331.094 0.475555 1.50254 0
M  V30 3557 C 332.322 -0.0754493 2.06762 0
M  V30 3558 C 332.737 -1.33111 1.33891 0
M  V30 3559 O 332.094 -1.77846 0.40952 0
M  V30 3560 C 332.145 -0.359008 3.59713 0
M  V30 3561 O 331.866 0.846851 4.29837 0
M  V30 3562 C 333.367 -0.956484 4.32858 0
M  V30 3563 H 330.587 0.00907525 0.670939 0
M  V30 3564 H 333.131 0.665618 1.93364 0
M  V30 3565 H 331.286 -1.05001 3.72899 0
M  V30 3566 H 331.7 0.594162 5.21124 0
M  V30 3567 H 333.174 -1.10463 5.40834 0
M  V30 3568 H 333.651 -1.94775 3.93649 0
M  V30 3569 H 334.257 -0.303723 4.24214 0
M  V30 3570 N 332.573 -1.56217 0.208337 0
M  V30 3571 C 333.85 -1.89739 -0.475234 0
M  V30 3572 C 334.23 -1.1238 -1.78701 0
M  V30 3573 O 333.578 -0.228979 -2.2735 0
M  V30 3574 C 333.788 -3.42289 -0.681101 0
M  V30 3575 C 335.136 -4.12789 -0.994507 0
M  V30 3576 O 336.16 -3.47814 -0.768357 0
M  V30 3577 O 335.019 -5.27649 -1.42299 0
M  V30 3578 H 332.113 -0.788478 -0.249461 0
M  V30 3579 H 334.659 -1.67855 0.249538 0
M  V30 3580 H 333.431 -3.90534 0.244722 0
M  V30 3581 H 333.054 -3.69909 -1.45785 0
M  V30 3582 N 334.051 0.0651679 -1.57465 0
M  V30 3583 C 334.981 1.07693 -2.07182 0
M  V30 3584 C 335.962 1.39962 -0.966673 0
M  V30 3585 O 337.147 1.49475 -1.2398 0
M  V30 3586 C 334.277 2.3885 -2.52127 0
M  V30 3587 C 333.231 2.20917 -3.66579 0
M  V30 3588 C 332.557 3.57515 -3.97601 0
M  V30 3589 C 333.857 1.62493 -4.9638 0
M  V30 3590 H 335.551 0.663199 -2.91962 0
M  V30 3591 H 333.097 0.317569 -1.40455 0
M  V30 3592 H 335.05 3.09928 -2.85522 0
M  V30 3593 H 333.774 2.82215 -1.64384 0
M  V30 3594 H 332.433 1.52279 -3.33477 0
M  V30 3595 H 332.081 3.98463 -3.06979 0
M  V30 3596 H 331.781 3.46353 -4.74672 0
M  V30 3597 H 333.305 4.30013 -4.33499 0
M  V30 3598 H 334.719 2.23445 -5.27963 0
M  V30 3599 H 333.116 1.62009 -5.77818 0
M  V30 3600 H 334.186 0.587041 -4.81333 0
M  V30 3601 N 335.529 1.53961 0.336706 0
M  V30 3602 C 336.754 1.75797 1.10046 0
M  V30 3603 C 337.179 0.498985 1.81361 0
M  V30 3604 O 336.537 -0.548769 1.72795 0
M  V30 3605 C 336.585 2.94257 2.08436 0
M  V30 3606 O 335.689 2.64883 3.16087 0
M  V30 3607 H 335.03 0.582936 0.317934 0
M  V30 3608 H 337.56 2.00945 0.38501 0
M  V30 3609 H 337.57 3.21237 2.51537 0
M  V30 3610 H 336.245 3.85564 1.55927 0
M  V30 3611 H 334.822 2.48812 2.77753 0
M  V30 3612 N 337.007 -0.598083 1.45811 0
M  V30 3613 C 338.418 -1.18011 1.44673 0
M  V30 3614 C 338.769 -1.95378 0.179364 0
M  V30 3615 O 337.894 -2.04124 -0.718509 0
M  V30 3616 C 338.489 -2.14677 2.62105 0
M  V30 3617 C 337.048 -2.68236 2.64057 0
M  V30 3618 C 336.195 -1.43816 2.37091 0
M  V30 3619 H 339.146 -0.38686 1.53913 0
M  V30 3620 H 339.167 -2.97878 2.36746 0
M  V30 3621 H 338.679 -1.5834 3.5433 0
M  V30 3622 H 336.78 -3.28486 1.75864 0
M  V30 3623 H 336.893 -3.12021 3.63566 0
M  V30 3624 H 335.257 -1.731 1.86838 0
M  V30 3625 H 336.04 -0.893333 3.31473 0
M  V30 3626 N 338.485 -1.33259 -0.841409 0
M  V30 3627 C 339.433 -1.23279 -1.97244 0
M  V30 3628 C 340.427 -0.134706 -1.68864 0
M  V30 3629 O 341.633 -0.298501 -1.77508 0
M  V30 3630 H 338.008 -0.382497 -0.647457 0
M  V30 3631 H 339.979 -2.18906 -2.02787 0
M  V30 3632 C 338.728 -0.986268 -3.33419 0
M  V30 3633 H 338.051 -1.82347 -3.55794 0
M  V30 3634 H 339.491 -0.956728 -4.13065 0
M  V30 3635 C 337.95 0.310842 -3.35463 0
M  V30 3636 O 338.48 1.31838 -3.79449 0
M  V30 3637 N 336.686 0.337485 -2.88634 0
M  V30 3638 H 336.233 -0.482967 -2.53032 0
M  V30 3639 H 336.191 1.20518 -2.90384 0
M  V30 3640 N 339.963 1.05934 -1.16686 0
M  V30 3641 C 340.893 2.1546 -0.899949 0
M  V30 3642 C 341.874 1.69391 0.155154 0
M  V30 3643 O 343.059 1.94199 0.00648693 0
M  V30 3644 C 340.189 3.44939 -0.404241 0
M  V30 3645 C 339.143 4.04536 -1.39767 0
M  V30 3646 C 338.469 5.29268 -0.760216 0
M  V30 3647 C 339.769 4.42893 -2.76845 0
M  V30 3648 H 341.463 2.38046 -1.81588 0
M  V30 3649 H 339.009 1.14404 -0.874514 0
M  V30 3650 H 340.962 4.20901 -0.204971 0
M  V30 3651 H 339.686 3.21983 0.547206 0
M  V30 3652 H 338.345 3.30635 -1.58355 0
M  V30 3653 H 337.993 5.02611 0.197831 0
M  V30 3654 H 337.693 5.70101 -1.42332 0
M  V30 3655 H 339.217 6.07924 -0.57105 0
M  V30 3656 H 340.631 5.09921 -2.62019 0
M  V30 3657 H 339.028 4.94721 -3.39663 0
M  V30 3658 H 340.098 3.53584 -3.31823 0
M  V30 3659 N 341.441 0.965919 1.2453 0
M  V30 3660 C 342.373 0.452465 2.2469 0
M  V30 3661 C 343.386 -0.437821 1.56802 0
M  V30 3662 O 344.575 -0.244283 1.76821 0
M  V30 3663 C 341.675 -0.366258 3.36915 0
M  V30 3664 C 340.848 0.513701 4.34373 0
M  V30 3665 C 339.907 -0.248716 5.25612 0
M  V30 3666 O 338.933 0.356745 5.68081 0
M  V30 3667 N 340.135 -1.53877 5.59734 0
M  V30 3668 H 342.9 1.31361 2.69378 0
M  V30 3669 H 340.461 0.837541 1.38553 0
M  V30 3670 H 342.453 -0.884297 3.94921 0
M  V30 3671 H 341.023 -1.12832 2.91526 0
M  V30 3672 H 340.243 1.21273 3.75082 0
M  V30 3673 H 341.531 1.11391 4.96457 0
M  V30 3674 H 340.929 -2.05243 5.27154 0
M  V30 3675 H 339.486 -2.00254 6.20275 0
M  V30 3676 N 342.919 -1.39368 0.735821 0
M  V30 3677 C 344.166 -2.00497 0.284123 0
M  V30 3678 C 344.494 -1.58387 -1.12889 0
M  V30 3679 O 343.749 -0.804359 -1.78406 0
M  V30 3680 C 344.048 -3.5583 0.334651 0
M  V30 3681 C 343.714 -4.17593 1.7008 0
M  V30 3682 C 342.376 -4.34176 2.07472 0
M  V30 3683 C 344.728 -4.51848 2.59775 0
M  V30 3684 C 342.056 -4.82304 3.34065 0
M  V30 3685 C 344.408 -5.01384 3.85741 0
M  V30 3686 C 343.072 -5.16175 4.23225 0
M  V30 3687 H 342.342 -0.73367 0.103968 0
M  V30 3688 H 344.989 -1.66683 0.942825 0
M  V30 3689 H 343.294 -3.89674 -0.407625 0
M  V30 3690 H 344.991 -4.00986 -0.0329927 0
M  V30 3691 H 341.581 -4.05087 1.40008 0
M  V30 3692 H 345.765 -4.38653 2.32157 0
M  V30 3693 H 341.021 -4.91941 3.63049 0
M  V30 3694 H 345.195 -5.26863 4.55399 0
M  V30 3695 H 342.822 -5.5323 5.21384 0
M  V30 3696 N 344.397 -0.483516 -1.5 0
M  V30 3697 C 345.327 0.293829 -2.31644 0
M  V30 3698 C 346.308 0.978864 -1.39112 0
M  V30 3699 O 347.493 0.973644 -1.68029 0
M  V30 3700 C 344.623 1.36897 -3.19181 0
M  V30 3701 C 343.577 0.804833 -4.20365 0
M  V30 3702 C 342.903 1.9792 -4.96721 0
M  V30 3703 C 344.203 -0.192313 -5.21946 0
M  V30 3704 H 345.897 -0.387616 -2.9688 0
M  V30 3705 H 343.443 -0.187856 -1.42769 0
M  V30 3706 H 345.396 1.92037 -3.751 0
M  V30 3707 H 344.12 2.07936 -2.51853 0
M  V30 3708 H 342.779 0.275319 -3.65565 0
M  V30 3709 H 342.427 2.67686 -4.25856 0
M  V30 3710 H 342.127 1.60789 -5.65173 0
M  V30 3711 H 343.651 2.53526 -5.55479 0
M  V30 3712 H 345.065 0.270333 -5.72662 0
M  V30 3713 H 343.462 -0.478543 -5.98189 0
M  V30 3714 H 344.532 -1.11409 -4.71928 0
M  V30 3715 N 345.875 1.56104 -0.216619 0
M  V30 3716 C 347.124 1.97348 0.416744 0
M  V30 3717 C 347.437 1.10715 1.6125 0
M  V30 3718 O 348.643 1.41836 2.31506 0
M  V30 3719 C 347.099 3.51059 0.792835 0
M  V30 3720 C 346.707 4.46387 -0.379828 0
M  V30 3721 C 348.451 4.01026 1.39208 0
M  V30 3722 C 346.358 5.91397 0.0184223 0
M  V30 3723 H 345.288 0.736942 0.159475 0
M  V30 3724 H 347.939 1.80827 -0.31205 0
M  V30 3725 H 346.321 3.63162 1.57891 0
M  V30 3726 H 347.495 4.46029 -1.15737 0
M  V30 3727 H 345.81 4.06734 -0.891979 0
M  V30 3728 H 348.407 5.0686 1.70286 0
M  V30 3729 H 348.75 3.46587 2.30614 0
M  V30 3730 H 349.283 3.92125 0.669537 0
M  V30 3731 H 346.022 6.49807 -0.862002 0
M  V30 3732 H 345.542 5.94961 0.760384 0
M  V30 3733 H 347.221 6.45455 0.446818 0
M  V30 3734 N 347.353 -0.0568162 1.57498 0
M  V30 3735 C 348.3 -1.06591 2.04712 0
M  V30 3736 C 349.27 -1.3758 0.930644 0
M  V30 3737 O 350.455 -1.48392 1.19935 0
M  V30 3738 C 347.595 -2.3701 2.50839 0
M  V30 3739 C 346.708 -2.12421 3.76167 0
M  V30 3740 C 345.843 -3.36511 4.11015 0
M  V30 3741 C 344.882 -3.07353 5.2934 0
M  V30 3742 N 344.019 -4.23816 5.59754 0
M  V30 3743 H 348.859 -0.65631 2.90683 0
M  V30 3744 H 346.396 -0.312481 1.43743 0
M  V30 3745 H 348.354 -3.13175 2.7564 0
M  V30 3746 H 346.984 -2.75744 1.67825 0
M  V30 3747 H 346.036 -1.2688 3.58616 0
M  V30 3748 H 347.348 -1.86894 4.62463 0
M  V30 3749 H 346.502 -4.21062 4.36797 0
M  V30 3750 H 345.241 -3.65128 3.23315 0
M  V30 3751 H 344.246 -2.212 5.03339 0
M  V30 3752 H 345.471 -2.80043 6.1867 0
M  V30 3753 H 343.417 -4.52436 4.75014 0
M  V30 3754 H 343.334 -4.01614 6.40501 0
M  V30 3755 H 344.602 -5.0932 5.90096 0
M  V30 3756 N 348.832 -1.54138 -0.328536 0
M  V30 3757 C 349.762 -1.86167 -1.40939 0
M  V30 3758 C 350.743 -0.718044 -1.54202 0
M  V30 3759 O 351.928 -0.971328 -1.68163 0
M  V30 3760 C 349.058 -2.08461 -2.77779 0
M  V30 3761 C 348.012 -3.24299 -2.7931 0
M  V30 3762 C 347.338 -3.31955 -4.19178 0
M  V30 3763 C 348.638 -4.62065 -2.43502 0
M  V30 3764 H 350.332 -2.76689 -1.14383 0
M  V30 3765 H 347.878 -1.33132 -0.548806 0
M  V30 3766 H 349.831 -2.29453 -3.53454 0
M  V30 3767 H 348.555 -1.14684 -3.05802 0
M  V30 3768 H 347.214 -3.03187 -2.0609 0
M  V30 3769 H 346.862 -2.35745 -4.44335 0
M  V30 3770 H 346.562 -4.09805 -4.2111 0
M  V30 3771 H 348.086 -3.55175 -4.96672 0
M  V30 3772 H 349.5 -4.8297 -3.08889 0
M  V30 3773 H 347.897 -5.42429 -2.56693 0
M  V30 3774 H 348.967 -4.64652 -1.38659 0
M  V30 3775 N 350.31 0.590341 -1.46126 0
M  V30 3776 C 351.559 1.34499 -1.50309 0
M  V30 3777 C 351.872 1.94977 -0.156021 0
M  V30 3778 O 353.078 2.71395 -0.0756037 0
M  V30 3779 C 351.534 2.43723 -2.64815 0
M  V30 3780 C 351.142 1.89582 -4.0591 0
M  V30 3781 C 352.886 3.20579 -2.78262 0
M  V30 3782 C 350.793 2.9639 -5.11769 0
M  V30 3783 H 349.723 0.505593 -0.559368 0
M  V30 3784 H 352.374 0.630848 -1.72315 0
M  V30 3785 H 350.756 3.17902 -2.36124 0
M  V30 3786 H 351.93 1.21997 -4.44357 0
M  V30 3787 H 350.245 1.25418 -3.97063 0
M  V30 3788 H 352.842 4.00276 -3.54519 0
M  V30 3789 H 353.185 3.72684 -1.85505 0
M  V30 3790 H 353.718 2.53505 -3.06562 0
M  V30 3791 H 350.457 2.49181 -6.06291 0
M  V30 3792 H 349.977 3.62487 -4.77873 0
M  V30 3793 H 351.656 3.60474 -5.37278 0
M  V30 3794 N 351.788 1.33704 0.83433 0
M  V30 3795 C 352.718 1.26967 1.95963 0
M  V30 3796 C 353.699 0.149337 1.69443 0
M  V30 3797 O 354.884 0.339852 1.91203 0
M  V30 3798 C 352.014 1.01275 3.32206 0
M  V30 3799 C 350.968 2.09652 3.73136 0
M  V30 3800 C 350.294 1.69166 5.07235 0
M  V30 3801 C 351.594 3.51372 3.86439 0
M  V30 3802 H 353.288 2.2112 2.01857 0
M  V30 3803 H 350.834 1.06447 0.969793 0
M  V30 3804 H 352.787 0.952106 4.10503 0
M  V30 3805 H 351.511 0.0356203 3.26581 0
M  V30 3806 H 350.17 2.14766 2.97104 0
M  V30 3807 H 349.818 0.701437 4.98085 0
M  V30 3808 H 349.518 2.41694 5.35591 0
M  V30 3809 H 351.042 1.64576 5.88003 0
M  V30 3810 H 352.456 3.48734 4.55036 0
M  V30 3811 H 350.853 4.22425 4.26236 0
M  V30 3812 H 351.923 3.89546 2.88759 0
M  V30 3813 N 353.266 -1.05314 1.17247 0
M  V30 3814 C 354.514 -1.77941 0.958194 0
M  V30 3815 C 354.835 -1.88089 -0.514556 0
M  V30 3816 O 354.105 -1.39676 -1.37359 0
M  V30 3817 H 352.685 -0.659116 0.351533 0
M  V30 3818 H 355.347 -1.27166 1.47699 0
M  V30 3819 H 354.443 -2.79663 1.38546 0
M  V30 3820 N 354.744 -0.972509 -1.24016 0
M  V30 3821 C 356.16 -0.679827 -1.44397 0
M  V30 3822 C 356.36 0.756716 -1.86751 0
M  V30 3823 O 355.416 1.53007 -2.00861 0
M  V30 3824 C 356.729 -1.66803 -2.50195 0
M  V30 3825 C 358.277 -1.68119 -2.64017 0
M  V30 3826 C 358.752 -2.65748 -3.73017 0
M  V30 3827 N 360.243 -2.64219 -3.8045 0
M  V30 3828 C 360.978 -3.36433 -4.64328 0
M  V30 3829 N 360.474 -4.1818 -5.52356 0
M  V30 3830 N 362.267 -3.25235 -4.58453 0
M  V30 3831 H 354.418 -1.90059 -0.948228 0
M  V30 3832 H 356.681 -0.818527 -0.478245 0
M  V30 3833 H 356.387 -2.69498 -2.25973 0
M  V30 3834 H 356.261 -1.4446 -3.48441 0
M  V30 3835 H 358.648 -0.661319 -2.87594 0
M  V30 3836 H 358.729 -1.94525 -1.66113 0
M  V30 3837 H 358.373 -3.67872 -3.50189 0
M  V30 3838 H 358.303 -2.36619 -4.70446 0
M  V30 3839 H 360.794 -2.04887 -3.17537 0
M  V30 3840 H 361.107 -4.70157 -6.13329 0
M  V30 3841 H 359.452 -4.22273 -5.52006 0
M  V30 3842 H 362.643 -2.60829 -3.88698 0
M  V30 3843 H 362.816 -3.81776 -5.23594 0
M  V30 3844 N 356.222 1.38976 -0.743202 0
M  V30 3845 C 357.499 1.94351 -0.220705 0
M  V30 3846 C 357.879 1.67935 1.2791 0
M  V30 3847 O 357.227 1.01211 2.04862 0
M  V30 3848 C 357.437 3.44426 -0.563171 0
M  V30 3849 C 358.785 4.2144 -0.517046 0
M  V30 3850 O 359.809 3.52661 -0.500846 0
M  V30 3851 O 358.668 5.44032 -0.518806 0
M  V30 3852 H 355.762 0.825879 -0.043047 0
M  V30 3853 H 358.308 1.48429 -0.822618 0
M  V30 3854 H 357.08 3.5712 -1.59941 0
M  V30 3855 H 356.703 3.97543 0.0672883 0
M  V30 3856 N 357.7 0.491464 1.49741 0
M  V30 3857 C 358.93 -0.0534375 2.06531 0
M  V30 3858 C 359.338 -1.32233 1.35318 0
M  V30 3859 O 358.681 -1.78781 0.422243 0
M  V30 3860 C 358.743 -0.387034 3.57411 0
M  V30 3861 C 358.407 0.782764 4.50246 0
M  V30 3862 C 359.404 1.67059 4.92329 0
M  V30 3863 C 357.089 0.978866 4.9267 0
M  V30 3864 C 359.083 2.73874 5.75562 0
M  V30 3865 C 356.77 2.05022 5.75682 0
M  V30 3866 C 357.768 2.92851 6.17031 0
M  V30 3867 O 357.456 3.98138 6.98385 0
M  V30 3868 H 357.188 0.0129324 0.675876 0
M  V30 3869 H 359.742 0.685238 1.93633 0
M  V30 3870 H 357.972 -1.17918 3.68283 0
M  V30 3871 H 359.661 -0.869419 3.96479 0
M  V30 3872 H 360.427 1.53086 4.60206 0
M  V30 3873 H 356.306 0.304646 4.59992 0
M  V30 3874 H 359.85 3.42458 6.07757 0
M  V30 3875 H 355.747 2.18993 6.07217 0
M  V30 3876 H 356.515 3.95374 7.16674 0
M  V30 3877 N 359.178 -1.55987 0.224894 0
M  V30 3878 C 360.589 -1.84553 -0.282345 0
M  V30 3879 C 360.94 -1.14634 -1.59227 0
M  V30 3880 O 360.065 -0.417155 -2.12341 0
M  V30 3881 C 360.66 -3.348 -0.519062 0
M  V30 3882 C 359.219 -3.63671 -0.970604 0
M  V30 3883 C 358.366 -2.77277 -0.0355261 0
M  V30 3884 H 361.317 -1.52245 0.448006 0
M  V30 3885 H 361.338 -3.55187 -1.36463 0
M  V30 3886 H 360.85 -3.8566 0.43449 0
M  V30 3887 H 358.951 -3.1827 -1.9374 0
M  V30 3888 H 359.064 -4.71631 -0.842698 0
M  V30 3889 H 357.428 -2.48846 -0.542927 0
M  V30 3890 H 358.211 -3.30937 0.913003 0
M  V30 3891 N 360.656 0.0484629 -1.57525 0
M  V30 3892 C 361.902 0.744226 -1.88651 0
M  V30 3893 C 362.235 1.76029 -0.820212 0
M  V30 3894 O 361.51 1.93782 0.166985 0
M  V30 3895 C 361.793 1.43128 -3.30434 0
M  V30 3896 C 361.646 0.43005 -4.47739 0
M  V30 3897 C 362.965 2.37031 -3.70816 0
M  V30 3898 H 360.084 0.269089 -0.68612 0
M  V30 3899 H 362.726 0.00713532 -1.89999 0
M  V30 3900 H 360.876 2.05956 -3.29415 0
M  V30 3901 H 362.548 -0.194816 -4.60888 0
M  V30 3902 H 360.791 -0.252522 -4.33064 0
M  V30 3903 H 361.462 0.948874 -5.43783 0
M  V30 3904 H 363.938 1.84263 -3.73077 0
M  V30 3905 H 362.814 2.82094 -4.70865 0
M  V30 3906 H 363.075 3.22864 -3.02012 0
M  V30 3907 N 362.134 1.5431 0.320358 0
M  V30 3908 C 363.081 1.83918 1.39438 0
M  V30 3909 C 364.051 0.686525 1.51248 0
M  V30 3910 O 365.236 0.933269 1.66417 0
M  V30 3911 C 362.376 2.075 2.75749 0
M  V30 3912 C 361.489 3.35177 2.72544 0
M  V30 3913 C 360.624 3.48704 4.00723 0
M  V30 3914 C 359.663 4.70244 3.91838 0
M  V30 3915 N 358.8 4.80679 5.11754 0
M  V30 3916 H 363.64 2.75544 1.13489 0
M  V30 3917 H 361.177 1.36459 0.549309 0
M  V30 3918 H 363.135 2.19166 3.54996 0
M  V30 3919 H 361.765 1.19163 3 0
M  V30 3920 H 360.817 3.32233 1.85271 0
M  V30 3921 H 362.129 4.24534 2.61863 0
M  V30 3922 H 361.283 3.59928 4.88402 0
M  V30 3923 H 360.022 2.57445 4.14214 0
M  V30 3924 H 359.027 4.59072 3.02544 0
M  V30 3925 H 360.252 5.6289 3.7991 0
M  V30 3926 H 358.198 3.92337 5.25745 0
M  V30 3927 H 358.115 5.64007 5.0342 0
M  V30 3928 H 359.383 4.96239 6.01138 0
M  V30 3929 N 363.613 -0.582584 1.46437 0
M  V30 3930 C 364.543 -1.70187 1.59871 0
M  V30 3931 C 365.524 -1.64066 0.449042 0
M  V30 3932 O 366.709 -1.82081 0.6753 0
M  V30 3933 C 363.839 -3.08827 1.58881 0
M  V30 3934 C 362.793 -3.29779 2.72819 0
M  V30 3935 C 362.119 -4.68947 2.5689 0
M  V30 3936 C 363.419 -3.17601 4.1464 0
M  V30 3937 H 365.113 -1.592 2.53566 0
M  V30 3938 H 362.659 -0.764472 1.22032 0
M  V30 3939 H 364.612 -3.86951 1.66873 0
M  V30 3940 H 363.336 -3.20713 0.617306 0
M  V30 3941 H 361.995 -2.54054 2.64296 0
M  V30 3942 H 361.643 -4.77599 1.57823 0
M  V30 3943 H 361.343 -4.83919 3.33312 0
M  V30 3944 H 362.867 -5.4924 2.66773 0
M  V30 3945 H 364.281 -3.8557 4.24274 0
M  V30 3946 H 362.678 -3.44094 4.9165 0
M  V30 3947 H 363.748 -2.14681 4.34788 0
M  V30 3948 N 365.091 -1.34144 -0.827227 0
M  V30 3949 C 366.054 -1.25264 -1.91942 0
M  V30 3950 C 367.054 -0.168866 -1.59911 0
M  V30 3951 O 368.244 -0.421198 -1.69031 0
M  V30 3952 C 365.376 -0.932952 -3.27885 0
M  V30 3953 H 366.569 -2.22357 -2.0124 0
M  V30 3954 H 364.122 -1.1837 -1.0207 0
M  V30 3955 H 364.857 0.0349917 -3.24281 0
M  V30 3956 H 364.642 -1.71682 -3.52516 0
M  V30 3957 H 366.132 -0.895874 -4.07877 0
M  V30 3958 N 366.569 1.04691 -1.17803 0
M  V30 3959 C 367.479 2.16057 -0.914151 0
M  V30 3960 C 368.495 1.73589 0.119503 0
M  V30 3961 O 369.671 2.01308 -0.0609468 0
M  V30 3962 C 366.736 3.4394 -0.436603 0
M  V30 3963 C 365.797 4.00825 -1.53746 0
M  V30 3964 C 365.03 5.22604 -1.0826 0
M  V30 3965 O 365.253 5.70367 0.0612244 0
M  V30 3966 O 364.187 5.7186 -1.87775 0
M  V30 3967 H 368.013 2.41169 -1.84584 0
M  V30 3968 H 365.598 1.1453 -0.959334 0
M  V30 3969 H 367.48 4.21024 -0.178057 0
M  V30 3970 H 366.155 3.20316 0.466869 0
M  V30 3971 H 365.062 3.25158 -1.84995 0
M  V30 3972 H 366.395 4.28778 -2.41683 0
M  V30 3973 N 368.047 0.979072 1.23499 0
M  V30 3974 C 369.295 0.645941 1.91499 0
M  V30 3975 C 369.616 -0.822948 1.76784 0
M  V30 3976 O 368.886 -1.58854 1.14639 0
M  V30 3977 H 367.466 0.235919 0.708767 0
M  V30 3978 H 370.128 1.2426 1.50152 0
M  V30 3979 H 369.224 0.896411 2.9895 0
M  V30 3980 N 369.525 -1.3858 0.750561 0
M  V30 3981 C 370.771 -2.00481 0.305825 0
M  V30 3982 C 371.104 -1.5944 -1.10872 0
M  V30 3983 O 370.379 -0.83052 -1.75877 0
M  V30 3984 C 370.662 -3.5758 0.425287 0
M  V30 3985 C 370.515 -4.08594 1.88072 0
M  V30 3986 C 371.834 -4.39719 -0.183122 0
M  V30 3987 H 368.953 -0.728348 0.112598 0
M  V30 3988 H 371.595 -1.64566 0.949638 0
M  V30 3989 H 369.745 -3.88306 -0.122828 0
M  V30 3990 H 371.417 -3.88523 2.48691 0
M  V30 3991 H 369.66 -3.61574 2.39681 0
M  V30 3992 H 370.331 -5.177 1.91548 0
M  V30 3993 H 372.807 -4.15128 0.284303 0
M  V30 3994 H 371.683 -5.48856 -0.0692757 0
M  V30 3995 H 371.944 -4.23434 -1.27106 0
M  V30 3996 N 371.003 -0.499398 -1.49478 0
M  V30 3997 C 372.25 0.0456899 -2.02448 0
M  V30 3998 C 372.578 1.37142 -1.37921 0
M  V30 3999 O 371.833 1.89111 -0.503544 0
M  V30 4000 C 372.132 0.248424 -3.56536 0
M  V30 4001 C 371.798 -0.999107 -4.39692 0
M  V30 4002 C 370.46 -1.34108 -4.62135 0
M  V30 4003 C 372.812 -1.82842 -4.88076 0
M  V30 4004 C 370.14 -2.51191 -5.30208 0
M  V30 4005 C 372.492 -2.99076 -5.57437 0
M  V30 4006 C 371.156 -3.33655 -5.78127 0
M  V30 4007 H 370.426 0.0167191 -0.740811 0
M  V30 4008 H 373.073 -0.65923 -1.79795 0
M  V30 4009 H 371.378 1.03586 -3.77859 0
M  V30 4010 H 373.075 0.684605 -3.95113 0
M  V30 4011 H 369.665 -0.722729 -4.22463 0
M  V30 4012 H 373.849 -1.57737 -4.70566 0
M  V30 4013 H 369.105 -2.78221 -5.44429 0
M  V30 4014 H 373.279 -3.63664 -5.93904 0
M  V30 4015 H 370.906 -4.24483 -6.30649 0
M  V30 4016 N 372.481 1.55866 -0.233164 0
M  V30 4017 C 373.709 2.02998 0.399905 0
M  V30 4018 C 374.124 1.11274 1.52524 0
M  V30 4019 O 373.481 0.124528 1.82075 0
M  V30 4020 C 373.532 3.4958 0.920639 0
M  V30 4021 O 373.253 4.37808 -0.159834 0
M  V30 4022 C 374.754 4.12411 1.62578 0
M  V30 4023 H 371.974 0.664006 0.0966281 0
M  V30 4024 H 374.518 2.0143 -0.353013 0
M  V30 4025 H 372.673 3.51727 1.62379 0
M  V30 4026 H 373.087 5.23981 0.23337 0
M  V30 4027 H 374.561 5.16711 1.94201 0
M  V30 4028 H 375.038 3.5809 2.54299 0
M  V30 4029 H 375.644 4.14148 0.967553 0
M  V30 4030 N 373.959 -0.0401083 1.57549 0
M  V30 4031 C 374.909 -1.05175 2.02292 0
M  V30 4032 C 375.893 -1.32674 0.910294 0
M  V30 4033 O 377.085 -1.32444 1.17421 0
M  V30 4034 C 374.214 -2.35622 2.49674 0
M  V30 4035 C 373.3 -2.11261 3.67736 0
M  V30 4036 N 373.691 -1.56923 4.80842 0
M  V30 4037 C 371.989 -2.41596 3.74897 0
M  V30 4038 C 372.69 -1.48111 5.62528 0
M  V30 4039 N 371.666 -1.95282 5.07312 0
M  V30 4040 H 375.468 -0.625455 2.87168 0
M  V30 4041 H 372.982 -0.246624 1.60516 0
M  V30 4042 H 374.979 -3.08893 2.79983 0
M  V30 4043 H 373.639 -2.7894 1.662 0
M  V30 4044 H 374.65 -1.25345 5.02503 0
M  V30 4045 H 371.327 -2.88064 3.02201 0
M  V30 4046 H 372.717 -1.06683 6.63377 0
M  V30 4047 O 375.476 -1.60458 -0.183159 0
M  V30 4048 H 376.167 -1.75443 -0.820934 0
M  V30 END ATOM
M  V30 BEGIN BOND
M  V30 END BOND
M  V30 END CTAB
M  END
$$$$
