drugbank_target|A0A0M3KKX1 Dihydrofolate reductase (DB06847; DB07140; DB07142; DB07153; DB08234)
 OpenBabel12092121093D

  0  0  0     0  0            999 V3000
M  V30 BEGIN CTAB
M  V30 COUNTS 2536 2569 0 0 0
M  V30 BEGIN ATOM
M  V30 1 H -0.908 1.98254 -0.117106 0
M  V30 2 N 0 1.576 0 0
M  V30 3 C 1.228 1.94848 0.695833 0
M  V30 4 C 1.643 0.874846 1.67308 0
M  V30 5 O 1 -0.146215 1.81913 0
M  V30 6 C 1.051 3.32113 1.4277 0
M  V30 7 O 0.772 4.35355 0.489647 0
M  V30 8 C 2.273 3.8382 2.21804 0
M  V30 9 H -0.507 0.642403 0.193802 0
M  V30 10 H 2.037 2.04436 -0.0511197 0
M  V30 11 H 0.192 3.23833 2.12628 0
M  V30 12 H 0.606 5.14762 1.00601 0
M  V30 13 H 2.08 4.82293 2.6851 0
M  V30 14 H 2.557 3.16527 3.04479 0
M  V30 15 H 3.163 3.95276 1.56962 0
M  V30 16 N 1.4781 -0.272755 1.55222 0
M  V30 17 C 2.4081 -1.34136 1.91127 0
M  V30 18 C 3.3891 -1.51513 0.773168 0
M  V30 19 O 4.5741 -1.64552 1.03132 0
M  V30 20 C 1.7041 -2.70083 2.1834 0
M  V30 21 C 0.6581 -2.67437 3.34158 0
M  V30 22 C -0.0159 -4.06938 3.46851 0
M  V30 23 C 1.2841 -2.26686 4.70543 0
M  V30 24 H 2.9781 -1.04333 2.80633 0
M  V30 25 H 0.5241 -0.500454 1.35024 0
M  V30 26 H 2.4771 -3.44952 2.42046 0
M  V30 27 H 1.2011 -3.01469 1.25634 0
M  V30 28 H -0.1399 -1.95026 3.1042 0
M  V30 29 H -0.4919 -4.35547 2.51611 0
M  V30 30 H -0.7919 -4.06062 4.2472 0
M  V30 31 H 0.7321 -4.83545 3.72849 0
M  V30 32 H 2.1461 -2.91277 4.93792 0
M  V30 33 H 0.5431 -2.36971 5.5133 0
M  V30 34 H 1.6131 -1.21818 4.69349 0
M  V30 35 N 2.9562 -1.48159 -0.537278 0
M  V30 36 C 4.1812 -1.59707 -1.32319 0
M  V30 37 C 4.6062 -0.254859 -1.86365 0
M  V30 38 O 3.9642 0.772378 -1.64024 0
M  V30 39 C 4.0122 -2.6412 -2.45505 0
M  V30 40 O 3.1162 -2.20774 -3.48328 0
M  V30 41 H 2.4572 -0.535791 -0.392204 0
M  V30 42 H 4.9872 -1.94092 -0.647268 0
M  V30 43 H 4.9972 -2.85166 -2.91795 0
M  V30 44 H 3.6722 -3.61567 -2.05528 0
M  V30 45 H 2.2492 -2.09911 -3.08207 0
M  V30 46 N 4.4343 0.785586 -1.36625 0
M  V30 47 C 5.6833 1.53883 -1.30396 0
M  V30 48 C 5.9963 1.95271 0.113452 0
M  V30 49 O 7.2023 2.69858 0.298142 0
M  V30 50 C 5.6583 2.77808 -2.28802 0
M  V30 51 C 5.2663 2.43574 -3.75999 0
M  V30 52 C 7.0103 3.55783 -2.31558 0
M  V30 53 C 4.9173 3.63919 -4.66173 0
M  V30 54 H 3.8473 0.577678 -0.484566 0
M  V30 55 H 6.4983 0.861705 -1.62009 0
M  V30 56 H 4.8803 3.47339 -1.90188 0
M  V30 57 H 6.0543 1.81916 -4.23371 0
M  V30 58 H 4.3693 1.78803 -3.76056 0
M  V30 59 H 6.9663 4.45205 -2.96137 0
M  V30 60 H 7.3093 3.94644 -1.3252 0
M  V30 61 H 7.8423 2.93235 -2.68809 0
M  V30 62 H 4.5813 3.3015 -5.66287 0
M  V30 63 H 4.1013 4.2473 -4.23515 0
M  V30 64 H 5.7803 4.30901 -4.82632 0
M  V30 65 N 5.9124 1.20967 1.01018 0
M  V30 66 C 6.8424 0.988272 2.11555 0
M  V30 67 C 7.8234 -0.0849778 1.69888 0
M  V30 68 O 9.0084 0.0738202 1.9406 0
M  V30 69 C 6.1384 0.546528 3.42973 0
M  V30 70 C 5.0924 1.56375 3.9841 0
M  V30 71 C 4.4184 0.97842 5.25672 0
M  V30 72 C 5.7184 2.94922 4.31066 0
M  V30 73 H 7.4124 1.91276 2.30334 0
M  V30 74 H 4.9584 0.921073 1.1069 0
M  V30 75 H 6.9114 0.378839 4.19694 0
M  V30 76 H 5.6354 -0.413598 3.23971 0
M  V30 77 H 4.2944 1.71891 3.23804 0
M  V30 78 H 3.9424 0.0101688 5.02999 0
M  V30 79 H 3.6424 1.65784 5.63728 0
M  V30 80 H 5.1664 0.821939 6.05043 0
M  V30 81 H 6.5804 2.8288 4.9865 0
M  V30 82 H 4.9774 3.5983 4.80253 0
M  V30 83 H 6.0474 3.4616 3.39561 0
M  V30 84 N 7.3905 -1.2043 1.01659 0
M  V30 85 C 8.6365 -1.90079 0.706963 0
M  V30 86 C 8.9695 -1.78648 -0.761474 0
M  V30 87 O 8.2445 -1.17069 -1.55323 0
M  V30 88 C 8.5275 -3.41469 1.14327 0
M  V30 89 C 8.3805 -3.61833 2.67201 0
M  V30 90 C 9.6995 -4.34261 0.714529 0
M  V30 91 H 6.8185 -0.690254 0.2583 0
M  V30 92 H 9.4605 -1.41826 1.26433 0
M  V30 93 H 7.6105 -3.82696 0.669056 0
M  V30 94 H 9.2825 -3.2986 3.22475 0
M  V30 95 H 7.5255 -3.05304 3.08175 0
M  V30 96 H 8.1965 -4.67955 2.92783 0
M  V30 97 H 10.6725 -4.00682 1.12221 0
M  V30 98 H 9.5485 -5.38806 1.04784 0
M  V30 99 H 9.8095 -4.40431 -0.383799 0
M  V30 100 N 8.8686 -0.792821 -1.36206 0
M  V30 101 C 9.8316 -0.199459 -2.2833 0
M  V30 102 C 10.8316 0.605189 -1.48977 0
M  V30 103 O 12.0216 0.425685 -1.68919 0
M  V30 104 C 9.1536 0.723523 -3.33134 0
M  V30 105 H 10.3466 -1.01181 -2.82316 0
M  V30 106 H 7.8996 -0.562485 -1.45828 0
M  V30 107 H 8.6346 1.56008 -2.84309 0
M  V30 108 H 8.4196 0.148436 -3.91819 0
M  V30 109 H 9.9096 1.13344 -4.01924 0
M  V30 110 N 10.3467 1.47872 -0.545128 0
M  V30 111 C 11.2967 2.26842 0.229456 0
M  V30 112 C 12.2807 1.33626 0.896267 0
M  V30 113 O 13.4727 1.58063 0.79657 0
M  V30 114 C 10.6017 3.19089 1.26638 0
M  V30 115 C 9.6877 4.19783 0.603598 0
M  V30 116 N 10.0787 5.0479 -0.319405 0
M  V30 117 C 8.3767 4.3765 0.858989 0
M  V30 118 C 9.0777 5.77433 -0.703241 0
M  V30 119 N 8.0537 5.43566 -0.0608309 0
M  V30 120 H 11.8557 2.89947 -0.480391 0
M  V30 121 H 9.3697 1.58263 -0.364209 0
M  V30 122 H 11.3667 3.74337 1.83515 0
M  V30 123 H 10.0267 2.5754 1.97745 0
M  V30 124 H 11.0377 5.13244 -0.692889 0
M  V30 125 H 7.7147 3.87281 1.55948 0
M  V30 126 H 9.1047 6.55824 -1.46098 0
M  V30 127 N 11.8248 0.280983 1.55075 0
M  V30 128 C 13.1018 -0.386207 1.91749 0
M  V30 129 C 13.4818 -1.73264 1.20594 0
M  V30 130 O 12.8298 -2.26034 0.334784 0
M  V30 131 C 13.0398 -0.520687 3.45094 0
M  V30 132 C 14.3878 -0.800865 4.16979 0
M  V30 133 O 15.4118 -0.605271 3.5102 0
M  V30 134 O 14.2708 -1.1753 5.33712 0
M  V30 135 H 11.3648 -0.212408 0.799257 0
M  V30 136 H 13.9108 0.327568 1.66509 0
M  V30 137 H 12.6828 0.426633 3.88967 0
M  V30 138 H 12.3058 -1.2837 3.76307 0
M  V30 139 N 13.3029 -1.57598 0.00835791 0
M  V30 140 C 14.2329 -2.1198 -0.979113 0
M  V30 141 C 15.2139 -1.03091 -1.35301 0
M  V30 142 O 16.3989 -1.30818 -1.43528 0
M  V30 143 C 13.5289 -2.62995 -2.26828 0
M  V30 144 C 12.4829 -3.76485 -2.03576 0
M  V30 145 C 11.8089 -4.13846 -3.38579 0
M  V30 146 C 13.1089 -5.0342 -1.39161 0
M  V30 147 H 14.8029 -2.94738 -0.526281 0
M  V30 148 H 12.3489 -1.41783 -0.251704 0
M  V30 149 H 14.3019 -2.99669 -2.96271 0
M  V30 150 H 13.0259 -1.7737 -2.7424 0
M  V30 151 H 11.6849 -3.40217 -1.36557 0
M  V30 152 H 11.3329 -3.25232 -3.83709 0
M  V30 153 H 11.0329 -4.90312 -3.23834 0
M  V30 154 H 12.5569 -4.53086 -4.09323 0
M  V30 155 H 13.9709 -5.37812 -1.98573 0
M  V30 156 H 12.3679 -5.84746 -1.34878 0
M  V30 157 H 13.4379 -4.83548 -0.361868 0
M  V30 158 N 14.781 0.264519 -1.55364 0
M  V30 159 C 15.713 1.34965 -1.85248 0
M  V30 160 C 16.726 1.45136 -0.737525 0
M  V30 161 O 17.915 1.46801 -1.01547 0
M  V30 162 C 15.015 2.73008 -2.00797 0
M  V30 163 C 14.188 2.85324 -3.31525 0
M  V30 164 C 13.247 4.04097 -3.37034 0
M  V30 165 O 12.273 3.94455 -4.10358 0
M  V30 166 N 13.475 5.16458 -2.65049 0
M  V30 167 H 16.24 1.09672 -2.78913 0
M  V30 168 H 13.801 0.454635 -1.55386 0
M  V30 169 H 15.793 3.50772 -2.01844 0
M  V30 170 H 14.363 2.91087 -1.1396 0
M  V30 171 H 13.583 1.94377 -3.42945 0
M  V30 172 H 14.871 2.9049 -4.17724 0
M  V30 173 H 14.269 5.27181 -2.05175 0
M  V30 174 H 12.826 5.92422 -2.71809 0
M  V30 175 N 16.2591 1.48442 0.529413 0
M  V30 176 C 17.6751 1.34575 0.858004 0
M  V30 177 C 17.8751 0.3572 1.98309 0
M  V30 178 O 16.9311 -0.221379 2.51528 0
M  V30 179 C 18.2441 2.74617 1.22499 0
M  V30 180 C 19.7921 2.83109 1.33484 0
M  V30 181 C 20.2671 4.23854 1.73526 0
M  V30 182 N 21.7581 4.2653 1.80628 0
M  V30 183 C 22.4931 5.32372 2.12997 0
M  V30 184 N 21.9891 6.48491 2.43786 0
M  V30 185 N 23.7821 5.19766 2.14008 0
M  V30 186 H 15.9331 2.1133 -0.212925 0
M  V30 187 H 18.1961 0.947439 -0.0326199 0
M  V30 188 H 17.9021 3.4852 0.471905 0
M  V30 189 H 17.7761 3.08177 2.17501 0
M  V30 190 H 20.1631 2.09462 2.0787 0
M  V30 191 H 20.2441 2.53168 0.366027 0
M  V30 192 H 19.8881 4.98018 0.997013 0
M  V30 193 H 19.8181 4.5124 2.71459 0
M  V30 194 H 22.3091 3.42772 1.59108 0
M  V30 195 H 22.6221 7.24993 2.67592 0
M  V30 196 H 20.9671 6.51765 2.41304 0
M  V30 197 H 24.1581 4.28066 1.89412 0
M  V30 198 H 24.3311 6.02354 2.38902 0
M  V30 199 N 17.7372 -0.778329 1.37039 0
M  V30 200 C 18.9832 -1.53892 1.32079 0
M  V30 201 C 19.3162 -1.9396 -0.0965386 0
M  V30 202 O 18.5912 -1.63568 -1.05242 0
M  V30 203 C 18.8742 -2.80847 2.25382 0
M  V30 204 C 18.7272 -2.47076 3.75864 0
M  V30 205 C 20.0462 -3.82741 2.1725 0
M  V30 206 H 17.1652 -0.558303 0.48111 0
M  V30 207 H 19.8072 -0.893397 1.67685 0
M  V30 208 H 17.9572 -3.35931 1.95148 0
M  V30 209 H 19.6292 -1.97957 4.16666 0
M  V30 210 H 17.8722 -1.79863 3.94755 0
M  V30 211 H 18.5432 -3.37798 4.36574 0
M  V30 212 H 21.0192 -3.37133 2.43887 0
M  V30 213 H 19.8952 -4.69303 2.84686 0
M  V30 214 H 20.1562 -4.2652 1.16331 0
M  V30 215 N 19.2153 -1.21501 -1.00376 0
M  V30 216 C 20.4643 -1.02718 -1.73586 0
M  V30 217 C 20.7773 0.439589 -1.90596 0
M  V30 218 O 21.9833 0.746848 -2.61026 0
M  V30 219 C 20.4393 -1.78929 -3.1227 0
M  V30 220 C 20.0473 -3.29783 -3.03228 0
M  V30 221 C 21.7913 -1.68557 -3.89601 0
M  V30 222 C 19.6983 -3.98479 -4.36999 0
M  V30 223 H 18.6283 -0.380733 -0.650814 0
M  V30 224 H 21.2793 -1.45248 -1.1214 0
M  V30 225 H 19.6613 -1.29192 -3.74333 0
M  V30 226 H 20.8353 -3.86832 -2.50395 0
M  V30 227 H 19.1503 -3.40711 -2.39385 0
M  V30 228 H 21.7473 -2.17211 -4.88593 0
M  V30 229 H 22.0903 -0.644021 -4.11288 0
M  V30 230 H 22.6233 -2.15778 -3.34193 0
M  V30 231 H 19.3623 -5.02841 -4.20513 0
M  V30 232 H 18.8823 -3.46219 -4.89788 0
M  V30 233 H 20.5613 -4.03462 -5.05794 0
M  V30 234 N 20.6934 1.19889 -1.02296 0
M  V30 235 C 21.9414 1.89046 -0.714558 0
M  V30 236 C 22.2624 1.79636 0.758681 0
M  V30 237 O 21.5324 1.20292 1.54618 0
M  V30 238 H 20.1124 0.699802 -0.261317 0
M  V30 239 H 22.7744 1.45574 -1.29592 0
M  V30 240 H 21.8704 2.95524 -1.0036 0
M  V30 241 N 22.1715 0.800033 1.35784 0
M  V30 242 C 23.4185 0.377342 1.98953 0
M  V30 243 C 23.7465 -1.05378 1.6348 0
M  V30 244 O 23.0015 -1.74459 0.886707 0
M  V30 245 C 23.3005 0.500276 3.53881 0
M  V30 246 C 22.9665 1.89375 4.09204 0
M  V30 247 C 21.6285 2.27499 4.24025 0
M  V30 248 C 23.9805 2.8057 4.39238 0
M  V30 249 C 21.3085 3.562 4.66195 0
M  V30 250 C 23.6605 4.0871 4.82844 0
M  V30 251 C 22.3245 4.46843 4.95871 0
M  V30 252 H 21.5945 0.138079 0.728021 0
M  V30 253 H 24.2415 1.01955 1.62103 0
M  V30 254 H 22.5465 -0.225405 3.91151 0
M  V30 255 H 24.2435 0.154097 4.00704 0
M  V30 256 H 20.8335 1.58753 3.98115 0
M  V30 257 H 25.0175 2.52367 4.27346 0
M  V30 258 H 20.2735 3.85602 4.74469 0
M  V30 259 H 24.4475 4.79481 5.05046 0
M  V30 260 H 22.0745 5.46623 5.28306 0
M  V30 261 N 23.6496 -1.47581 0.552962 0
M  V30 262 C 24.5596 -2.33743 -0.200353 0
M  V30 263 C 25.5756 -1.47928 -0.916151 0
M  V30 264 O 26.7516 -1.80865 -0.885993 0
M  V30 265 C 23.8166 -3.24536 -1.21973 0
M  V30 266 C 22.8776 -4.26238 -0.511819 0
M  V30 267 C 22.1106 -5.12693 -1.48263 0
M  V30 268 O 22.3336 -5.01525 -2.71714 0
M  V30 269 O 21.2676 -5.93375 -1.00945 0
M  V30 270 H 25.0936 -2.9945 0.506304 0
M  V30 271 H 22.6786 -1.46071 0.313622 0
M  V30 272 H 24.5606 -3.80631 -1.80827 0
M  V30 273 H 23.2356 -2.61462 -1.90839 0
M  V30 274 H 22.1426 -3.73914 0.117799 0
M  V30 275 H 23.4756 -4.92014 0.135308 0
M  V30 276 N 25.1277 -0.289203 -1.54924 0
M  V30 277 C 26.0757 0.607966 -2.24514 0
M  V30 278 C 27.0697 1.14655 -1.24702 0
M  V30 279 O 28.2757 1.09856 -1.4259 0
M  V30 280 H 24.6507 0.21464 -0.720718 0
M  V30 281 H 26.6217 -0.00164182 -2.984 0
M  V30 282 C 25.3707 1.77406 -2.99036 0
M  V30 283 H 24.6937 1.36884 -3.75637 0
M  V30 284 H 26.1337 2.37814 -3.51028 0
M  V30 285 C 24.5927 2.67107 -2.05318 0
M  V30 286 O 25.1227 3.6787 -1.61353 0
M  V30 287 N 23.3287 2.34582 -1.71521 0
M  V30 288 H 22.8757 1.52688 -2.07471 0
M  V30 289 H 22.8337 2.94867 -1.0909 0
M  V30 290 N 26.6058 1.57591 -0.0167156 0
M  V30 291 C 27.5378 2.06343 0.997753 0
M  V30 292 C 28.5508 0.984469 1.29661 0
M  V30 293 O 29.7398 1.26093 1.26344 0
M  V30 294 C 26.8398 2.46255 2.32834 0
M  V30 295 C 26.0128 3.77083 2.21646 0
M  V30 296 C 25.0718 4.0368 3.37534 0
M  V30 297 O 24.0978 4.7411 3.14973 0
M  V30 298 N 25.2998 3.52881 4.60929 0
M  V30 299 H 28.0648 2.93997 0.581875 0
M  V30 300 H 25.6258 1.61002 0.170316 0
M  V30 301 H 27.6178 2.61149 3.09166 0
M  V30 302 H 26.1878 1.64032 2.66106 0
M  V30 303 H 25.4078 3.72106 1.30119 0
M  V30 304 H 26.6958 4.62822 2.11361 0
M  V30 305 H 26.0938 2.95878 4.82154 0
M  V30 306 H 24.6508 3.73076 5.34469 0
M  V30 307 N 28.0839 -0.256276 1.55502 0
M  V30 308 C 29.0139 -1.32102 1.92539 0
M  V30 309 C 29.9949 -1.50684 0.789194 0
M  V30 310 O 31.1799 -1.63449 1.04872 0
M  V30 311 C 28.3099 -2.67752 2.21192 0
M  V30 312 C 27.2639 -2.63878 3.36975 0
M  V30 313 C 26.5899 -4.03236 3.51147 0
M  V30 314 C 27.8899 -2.21682 4.72921 0
M  V30 315 H 29.5839 -1.01351 2.81724 0
M  V30 316 H 27.1299 -0.486105 1.35547 0
M  V30 317 H 29.0829 -3.42365 2.45691 0
M  V30 318 H 27.8069 -3.0012 1.28824 0
M  V30 319 H 26.4659 -1.91722 3.12471 0
M  V30 320 H 26.1139 -4.32854 2.56216 0
M  V30 321 H 25.8139 -4.01535 4.29003 0
M  V30 322 H 27.3379 -4.79563 3.77957 0
M  V30 323 H 28.7519 -2.86023 4.96854 0
M  V30 324 H 27.1489 -2.3111 5.53812 0
M  V30 325 H 28.2189 -1.16833 4.70615 0
M  V30 326 N 29.562 -1.4872 -0.521534 0
M  V30 327 C 30.973 -1.50607 -1.10337 0
M  V30 328 C 31.324 -0.280612 -1.94183 0
M  V30 329 O 30.449 0.611507 -2.0758 0
M  V30 330 C 31.044 -2.72903 -2.00772 0
M  V30 331 C 29.603 -2.77634 -2.54158 0
M  V30 332 C 28.75 -2.44241 -1.31307 0
M  V30 333 H 31.701 -1.55714 -0.306388 0
M  V30 334 H 31.722 -2.519 -2.85178 0
M  V30 335 H 31.234 -3.62077 -1.39721 0
M  V30 336 H 29.335 -1.92689 -3.18907 0
M  V30 337 H 29.448 -3.79283 -2.92714 0
M  V30 338 H 27.812 -1.95577 -1.63161 0
M  V30 339 H 28.595 -3.35666 -0.719943 0
M  V30 340 N 31.0401 0.771051 -1.3745 0
M  V30 341 C 32.2861 1.53109 -1.339 0
M  V30 342 C 32.6411 1.9225 0.0758401 0
M  V30 343 O 31.9341 1.61264 1.03463 0
M  V30 344 C 32.1281 2.80676 -2.2126 0
M  V30 345 C 31.9571 2.54003 -3.71096 0
M  V30 346 C 30.7271 2.48097 -4.402 0
M  V30 347 C 32.9251 2.21953 -4.63941 0
M  V30 348 N 30.9071 2.13515 -5.75573 0
M  V30 349 C 32.2781 1.97516 -5.87697 0
M  V30 350 C 34.3331 2.08114 -4.5232 0
M  V30 351 C 33.0361 1.60638 -7.01133 0
M  V30 352 C 35.0621 1.72636 -5.65642 0
M  V30 353 C 34.4241 1.4906 -6.88448 0
M  V30 354 H 30.5231 0.56055 -0.54526 0
M  V30 355 H 33.1071 0.899472 -1.72678 0
M  V30 356 H 31.2781 3.41674 -1.84698 0
M  V30 357 H 33.0101 3.46578 -2.08963 0
M  V30 358 H 29.7651 2.63974 -3.93211 0
M  V30 359 H 30.1891 1.98919 -6.47117 0
M  V30 360 H 34.8311 2.25024 -3.57944 0
M  V30 361 H 32.5491 1.42467 -7.95443 0
M  V30 362 H 36.1351 1.62586 -5.58621 0
M  V30 363 H 35.0151 1.22014 -7.7465 0
M  V30 364 N 32.5182 1.22032 0.997298 0
M  V30 365 C 33.4682 0.953838 2.07089 0
M  V30 366 C 34.4522 -0.0938669 1.60626 0
M  V30 367 O 35.6442 0.116078 1.76619 0
M  V30 368 C 32.7732 0.528726 3.39204 0
M  V30 369 C 31.8592 1.61092 3.92314 0
M  V30 370 N 32.2502 2.83768 4.18699 0
M  V30 371 C 30.5482 1.48158 4.20672 0
M  V30 372 C 31.2492 3.53715 4.61802 0
M  V30 373 N 30.2252 2.81174 4.65233 0
M  V30 374 H 34.0272 1.88577 2.25424 0
M  V30 375 H 31.5412 1.11719 1.17867 0
M  V30 376 H 33.5382 0.31915 4.15677 0
M  V30 377 H 32.1982 -0.39635 3.22272 0
M  V30 378 H 33.2092 3.20238 4.07023 0
M  V30 379 H 29.8862 0.622369 4.12835 0
M  V30 380 H 31.2762 4.58793 4.90875 0
M  V30 381 N 33.9963 -1.19345 1.0293 0
M  V30 382 C 34.9263 -2.2481 0.631105 0
M  V30 383 C 35.9073 -1.66245 -0.360104 0
M  V30 384 O 37.0923 -1.92677 -0.242726 0
M  V30 385 C 34.2223 -3.47295 -0.0184607 0
M  V30 386 C 33.1763 -4.18536 0.895073 0
M  V30 387 C 32.5023 -5.34586 0.110592 0
M  V30 388 C 33.8023 -4.73287 2.209 0
M  V30 389 H 35.4963 -2.58372 1.51275 0
M  V30 390 H 33.0423 -1.24194 0.728818 0
M  V30 391 H 34.9953 -4.20268 -0.308675 0
M  V30 392 H 33.7193 -3.12933 -0.934907 0
M  V30 393 H 32.3783 -3.47446 1.16949 0
M  V30 394 H 32.0263 -4.96469 -0.807902 0
M  V30 395 H 31.7263 -5.83183 0.719087 0
M  V30 396 H 33.2503 -6.10355 -0.172871 0
M  V30 397 H 34.6643 -5.38013 1.98028 0
M  V30 398 H 33.0613 -5.32373 2.76946 0
M  V30 399 H 34.1313 -3.91331 2.86336 0
M  V30 400 N 35.4744 -0.807222 -1.35358 0
M  V30 401 C 36.8854 -0.44876 -1.81226 0
M  V30 402 C 37.2364 1.02929 -1.67033 0
M  V30 403 O 36.3614 1.79991 -1.20133 0
M  V30 404 C 36.9564 -0.807774 -3.2903 0
M  V30 405 C 35.5154 -0.501901 -3.73039 0
M  V30 406 C 34.6624 -1.03304 -2.57339 0
M  V30 407 H 37.6134 -0.998808 -1.23327 0
M  V30 408 H 37.6344 -0.10554 -3.80354 0
M  V30 409 H 37.1464 -1.88357 -3.39328 0
M  V30 410 H 35.2474 0.565128 -3.68289 0
M  V30 411 H 35.3604 -1.03497 -4.67787 0
M  V30 412 H 33.7244 -0.455339 -2.50597 0
M  V30 413 H 34.5074 -2.11496 -2.70415 0
M  V30 414 N 36.9525 1.47285 -0.560781 0
M  V30 415 C 37.9005 2.31756 0.197942 0
M  V30 416 C 38.8945 1.43146 0.905854 0
M  V30 417 O 40.1005 1.59891 0.826733 0
M  V30 418 H 36.4755 0.747438 0.0827049 0
M  V30 419 H 38.4465 2.9359 -0.533629 0
M  V30 420 C 37.1955 3.25874 1.21249 0
M  V30 421 H 36.5185 3.94023 0.67719 0
M  V30 422 H 37.9585 3.87803 1.71419 0
M  V30 423 C 36.4175 2.49651 2.26221 0
M  V30 424 O 36.9475 2.24355 3.33208 0
M  V30 425 N 35.1535 2.10597 2.00243 0
M  V30 426 H 34.7005 2.31369 1.13252 0
M  V30 427 H 34.6585 1.59913 2.70694 0
M  V30 428 N 38.4306 0.297415 1.54768 0
M  V30 429 C 39.7076 -0.365847 1.92148 0
M  V30 430 C 40.0876 -1.71975 1.22424 0
M  V30 431 O 39.4356 -2.25666 0.358739 0
M  V30 432 C 39.6456 -0.484056 3.45627 0
M  V30 433 C 40.9936 -0.756594 4.17805 0
M  V30 434 O 42.0176 -0.568007 3.51642 0
M  V30 435 O 40.8766 -1.11863 5.34929 0
M  V30 436 H 37.9706 -0.203919 0.801465 0
M  V30 437 H 40.5166 0.34521 1.66152 0
M  V30 438 H 39.2886 0.467865 3.88493 0
M  V30 439 H 38.9116 -1.24372 3.77647 0
M  V30 440 N 39.9087 -1.5758 0.0250728 0
M  V30 441 C 40.8387 -2.13007 -0.956575 0
M  V30 442 C 41.8197 -1.0452 -1.342 0
M  V30 443 O 43.0047 -1.32332 -1.42133 0
M  V30 444 C 40.1347 -2.65386 -2.24026 0
M  V30 445 C 39.0887 -3.78623 -1.99571 0
M  V30 446 C 38.4147 -4.17414 -3.3417 0
M  V30 447 C 39.7147 -5.04867 -1.33814 0
M  V30 448 H 41.4087 -2.9528 -0.494991 0
M  V30 449 H 38.9547 -1.42042 -0.236651 0
M  V30 450 H 40.9077 -3.02794 -2.93076 0
M  V30 451 H 39.6317 -1.80268 -2.72343 0
M  V30 452 H 38.2907 -3.41646 -1.32941 0
M  V30 453 H 37.9387 -3.29284 -3.80238 0
M  V30 454 H 37.6387 -4.93719 -3.18615 0
M  V30 455 H 39.1627 -4.57402 -4.04495 0
M  V30 456 H 40.5767 -5.39888 -1.92857 0
M  V30 457 H 38.9737 -5.86144 -1.28669 0
M  V30 458 H 40.0437 -4.83904 -0.310561 0
M  V30 459 N 41.3868 0.248026 -1.55636 0
M  V30 460 C 42.3338 1.30707 -1.90222 0
M  V30 461 C 43.3038 1.47881 -0.756332 0
M  V30 462 O 44.4888 1.61883 -1.00988 0
M  V30 463 C 41.6288 2.65769 -2.20138 0
M  V30 464 C 40.7418 2.56612 -3.47526 0
M  V30 465 C 39.8768 3.8402 -3.67017 0
M  V30 466 C 38.9158 3.69476 -4.8801 0
M  V30 467 N 38.0528 4.88774 -5.04029 0
M  V30 468 H 42.8928 1.00512 -2.80538 0
M  V30 469 H 40.4298 0.485055 -1.38873 0
M  V30 470 H 42.3878 3.44386 -2.35487 0
M  V30 471 H 41.0178 2.94115 -1.33027 0
M  V30 472 H 40.0698 1.69571 -3.40514 0
M  V30 473 H 41.3818 2.41774 -4.36287 0
M  V30 474 H 40.5358 4.7108 -3.8232 0
M  V30 475 H 39.2748 4.01754 -2.76487 0
M  V30 476 H 38.2798 2.80799 -4.72686 0
M  V30 477 H 39.5048 3.53238 -5.8 0
M  V30 478 H 37.4508 5.0687 -4.16435 0
M  V30 479 H 37.3678 4.76562 -5.86877 0
M  V30 480 H 38.6358 5.77335 -5.23741 0
M  V30 481 N 42.8649 1.48995 0.513639 0
M  V30 482 C 43.8149 1.61127 1.61314 0
M  V30 483 C 44.7989 0.467521 1.53958 0
M  V30 484 O 45.9909 0.719826 1.61702 0
M  V30 485 C 43.1199 1.66937 2.99978 0
M  V30 486 C 42.2059 2.86847 3.12377 0
M  V30 487 N 42.5969 4.11078 2.94701 0
M  V30 488 C 40.8949 2.84521 3.43459 0
M  V30 489 C 41.5959 4.91615 3.10949 0
M  V30 490 N 40.5719 4.24739 3.3926 0
M  V30 491 H 44.3739 2.54909 1.46282 0
M  V30 492 H 41.8879 1.45593 0.719483 0
M  V30 493 H 43.8849 1.73725 3.78979 0
M  V30 494 H 42.5449 0.742831 3.16089 0
M  V30 495 H 43.5559 4.41258 2.71131 0
M  V30 496 H 40.2329 2.01192 3.65825 0
M  V30 497 H 41.6229 6.00264 3.01882 0
M  V30 498 N 44.343 -0.763751 1.37857 0
M  V30 499 C 45.589 -1.52483 1.33704 0
M  V30 500 C 45.922 -1.94051 -0.0759612 0
M  V30 501 O 45.197 -1.64675 -1.03501 0
M  V30 502 C 45.48 -2.78441 2.28348 0
M  V30 503 C 45.333 -2.43075 3.78463 0
M  V30 504 C 46.652 -3.80415 2.21298 0
M  V30 505 H 43.771 -0.553169 0.487005 0
M  V30 506 H 46.413 -0.875562 1.68624 0
M  V30 507 H 44.563 -3.33842 1.987 0
M  V30 508 H 46.235 -1.93527 4.18742 0
M  V30 509 H 44.478 -1.75666 3.96641 0
M  V30 510 H 45.149 -3.33149 4.40132 0
M  V30 511 H 47.625 -3.34527 2.47449 0
M  V30 512 H 46.501 -4.66257 2.89647 0
M  V30 513 H 46.762 -4.25262 1.20849 0
M  V30 514 N 45.8211 -1.22559 -0.990812 0
M  V30 515 C 46.7681 -0.997519 -2.0813 0
M  V30 516 C 47.7381 0.0814702 -1.659 0
M  V30 517 O 48.9231 -0.0685424 -1.90677 0
M  V30 518 C 46.0631 -0.583615 -3.40129 0
M  V30 519 C 45.1761 -1.7336 -3.9569 0
M  V30 520 C 44.3111 -1.26748 -5.15857 0
M  V30 521 C 43.3501 -2.38888 -5.63559 0
M  V30 522 N 42.4871 -1.93308 -6.74964 0
M  V30 523 H 47.3271 -1.93099 -2.26973 0
M  V30 524 H 44.8641 -0.962114 -1.11273 0
M  V30 525 H 46.8221 -0.324801 -4.15934 0
M  V30 526 H 45.4521 0.312845 -3.2128 0
M  V30 527 H 44.5041 -2.10669 -3.16738 0
M  V30 528 H 45.8161 -2.57704 -4.27071 0
M  V30 529 H 44.9701 -0.966173 -5.98957 0
M  V30 530 H 43.7091 -0.394272 -4.86104 0
M  V30 531 H 42.7141 -2.69805 -4.79046 0
M  V30 532 H 43.9391 -3.26728 -5.95336 0
M  V30 533 H 41.8851 -1.08352 -6.4699 0
M  V30 534 H 41.8021 -2.71217 -7.05675 0
M  V30 535 H 43.0701 -1.66252 -7.61564 0
M  V30 536 N 47.2992 1.18797 -1.03562 0
M  V30 537 C 48.2462 2.22253 -0.622259 0
M  V30 538 C 49.2162 1.61987 0.36736 0
M  V30 539 O 50.4012 1.88986 0.262492 0
M  V30 540 C 47.5412 3.45097 0.0138462 0
M  V30 541 C 46.6542 4.19722 -1.02263 0
M  V30 542 C 45.7892 5.30009 -0.355573 0
M  V30 543 C 44.8282 5.96399 -1.37749 0
M  V30 544 N 43.9652 6.98234 -0.735766 0
M  V30 545 H 48.8052 2.56968 -1.50903 0
M  V30 546 H 46.3422 1.26245 -0.755017 0
M  V30 547 H 48.3002 4.15279 0.399948 0
M  V30 548 H 46.9302 3.11018 0.864158 0
M  V30 549 H 45.9822 3.48418 -1.52673 0
M  V30 550 H 47.2942 4.65227 -1.79903 0
M  V30 551 H 46.4482 6.0664 0.0850095 0
M  V30 552 H 45.1872 4.85592 0.452967 0
M  V30 553 H 44.1922 5.18512 -1.82826 0
M  V30 554 H 45.4172 6.42899 -2.18764 0
M  V30 555 H 43.3632 6.55979 0.0525597 0
M  V30 556 H 43.2802 7.41965 -1.44995 0
M  V30 557 H 44.5482 7.78845 -0.31941 0
M  V30 558 N 48.7773 0.814389 1.34928 0
M  V30 559 C 49.7073 0.244827 2.32213 0
M  V30 560 C 50.6883 -0.634024 1.57842 0
M  V30 561 O 51.8733 -0.562676 1.8587 0
M  V30 562 C 49.0033 -0.601106 3.42058 0
M  V30 563 C 47.9573 0.179896 4.27622 0
M  V30 564 C 47.2833 -0.788237 5.28858 0
M  V30 565 C 48.5833 1.38329 5.03649 0
M  V30 566 H 50.2773 1.05763 2.80097 0
M  V30 567 H 47.8233 0.510029 1.34665 0
M  V30 568 H 49.7763 -1.00968 4.09125 0
M  V30 569 H 48.5003 -1.44688 2.92802 0
M  V30 570 H 47.1593 0.569739 3.62146 0
M  V30 571 H 46.8073 -1.62973 4.75866 0
M  V30 572 H 46.5073 -0.269942 5.8698 0
M  V30 573 H 48.0313 -1.19485 5.98795 0
M  V30 574 H 49.4453 1.04918 5.63618 0
M  V30 575 H 47.8423 1.83662 5.71304 0
M  V30 576 H 48.9123 2.16592 4.33839 0
M  V30 577 N 50.2554 -1.46986 0.568584 0
M  V30 578 C 51.4804 -2.07335 0.0520528 0
M  V30 579 C 51.9054 -1.41675 -1.23733 0
M  V30 580 O 51.2634 -0.495623 -1.74394 0
M  V30 581 C 51.3114 -3.60417 -0.11501 0
M  V30 582 O 50.4154 -3.95309 -1.17492 0
M  V30 583 H 49.7564 -0.661597 0.0564385 0
M  V30 584 H 52.2864 -1.88837 0.787507 0
M  V30 585 H 52.2964 -4.06698 -0.325644 0
M  V30 586 H 50.9714 -4.07601 0.826675 0
M  V30 587 H 49.5484 -3.60757 -0.943869 0
M  V30 588 N 51.7335 -0.305618 -1.54608 0
M  V30 589 C 52.9615 0.304775 -2.04643 0
M  V30 590 C 53.3765 1.47167 -1.18268 0
M  V30 591 O 52.7335 1.81296 -0.209328 0
M  V30 592 C 52.7845 0.756564 -3.53495 0
M  V30 593 O 52.5055 -0.36389 -4.36586 0
M  V30 594 C 54.0065 1.43163 -4.19546 0
M  V30 595 H 51.2265 0.0655481 -0.667791 0
M  V30 596 H 53.7705 -0.446592 -1.99564 0
M  V30 597 H 51.9255 1.45794 -3.58919 0
M  V30 598 H 52.3395 -0.0113121 -5.24499 0
M  V30 599 H 53.8135 1.69886 -5.25207 0
M  V30 600 H 54.2905 2.37318 -3.69563 0
M  V30 601 H 54.8965 0.773307 -4.18211 0
M  V30 602 N 53.2116 1.57565 -0.0334293 0
M  V30 603 C 54.4596 1.91598 0.642999 0
M  V30 604 C 54.7806 0.910847 1.7242 0
M  V30 605 O 54.0506 -0.0469931 1.95844 0
M  V30 606 H 52.6306 0.707228 0.240496 0
M  V30 607 H 55.2926 1.94726 -0.0822488 0
M  V30 608 H 54.3886 2.92336 1.09298 0
M  V30 609 N 54.6897 -0.239769 1.55765 0
M  V30 610 C 55.6397 -1.30002 1.87306 0
M  V30 611 C 56.6237 -1.43156 0.73452 0
M  V30 612 O 57.8157 -1.46277 0.99659 0
M  V30 613 C 54.9447 -2.65409 2.17745 0
M  V30 614 C 54.0307 -2.56231 3.37945 0
M  V30 615 N 54.4217 -2.16689 4.57033 0
M  V30 616 C 52.7197 -2.87229 3.41197 0
M  V30 617 C 53.4207 -2.18318 5.39177 0
M  V30 618 N 52.3967 -2.58098 4.78421 0
M  V30 619 H 56.1987 -0.984912 2.76906 0
M  V30 620 H 53.7127 -0.448381 1.56087 0
M  V30 621 H 55.7097 -3.41934 2.38509 0
M  V30 622 H 54.3697 -2.97781 1.29448 0
M  V30 623 H 55.3807 -1.88116 4.82528 0
M  V30 624 H 52.0577 -3.24094 2.63191 0
M  V30 625 H 53.4477 -1.90025 6.44469 0
M  V30 626 N 56.1678 -1.49265 -0.50573 0
M  V30 627 C 57.3958 -1.62215 -1.28429 0
M  V30 628 C 57.8108 -0.291697 -1.86533 0
M  V30 629 O 57.1678 0.722233 -1.67601 0
M  V30 630 C 57.2188 -2.68735 -2.41793 0
M  V30 631 O 56.9398 -3.96619 -1.86078 0
M  V30 632 C 58.4408 -2.92346 -3.3324 0
M  V30 633 H 55.6608 -0.546239 -0.389697 0
M  V30 634 H 58.2048 -1.95265 -0.607609 0
M  V30 635 H 56.3598 -2.38476 -3.053 0
M  V30 636 H 56.7738 -4.55256 -2.60465 0
M  V30 637 H 58.2478 -3.70623 -4.09075 0
M  V30 638 H 58.7248 -2.02081 -3.89948 0
M  V30 639 H 59.3308 -3.24003 -2.75503 0
M  V30 640 N 57.6459 0.756429 -1.3826 0
M  V30 641 C 58.5759 1.88374 -1.37976 0
M  V30 642 C 59.5569 1.68311 -0.246082 0
M  V30 643 O 60.7419 1.88944 -0.44874 0
M  V30 644 C 57.8719 3.25864 -1.20125 0
M  V30 645 C 56.8259 3.60523 -2.30666 0
M  V30 646 C 56.1519 4.9672 -1.97923 0
M  V30 647 C 57.4519 3.65692 -3.72916 0
M  V30 648 H 59.1459 1.88869 -2.32312 0
M  V30 649 H 56.6919 0.907272 -1.11824 0
M  V30 650 H 58.6449 4.0438 -1.18552 0
M  V30 651 H 57.3689 3.25841 -0.222498 0
M  V30 652 H 56.0279 2.84324 -2.3142 0
M  V30 653 H 55.6759 4.93253 -0.985393 0
M  V30 654 H 55.3759 5.20878 -2.71955 0
M  V30 655 H 56.8999 5.77618 -1.97964 0
M  V30 656 H 58.3139 4.34328 -3.74208 0
M  V30 657 H 56.7109 4.01358 -4.4613 0
M  V30 658 H 57.7809 2.65987 -4.05436 0
M  V30 659 N 59.124 1.23083 0.984299 0
M  V30 660 C 60.37 1.06214 1.72761 0
M  V30 661 C 60.703 -0.400584 1.90024 0
M  V30 662 O 59.978 -1.29672 1.44967 0
M  V30 663 C 60.261 1.78375 3.12817 0
M  V30 664 C 60.114 3.32296 3.03149 0
M  V30 665 C 61.433 1.54309 4.12161 0
M  V30 666 H 58.552 0.387251 0.627061 0
M  V30 667 H 61.194 1.51536 1.14616 0
M  V30 668 H 59.344 1.39848 3.62457 0
M  V30 669 H 61.016 3.8032 2.61064 0
M  V30 670 H 59.259 3.6153 2.39747 0
M  V30 671 H 59.93 3.77972 4.02295 0
M  V30 672 H 62.406 1.87791 3.71314 0
M  V30 673 H 61.282 2.07281 5.08258 0
M  V30 674 H 61.543 0.477572 4.39513 0
M  V30 675 N 60.6021 -1.18246 1.0419 0
M  V30 676 C 61.5351 -2.20746 0.578474 0
M  V30 677 C 62.5131 -1.57912 -0.387624 0
M  V30 678 O 63.6971 -1.86071 -0.301634 0
M  V30 679 C 60.8241 -3.38346 -0.154762 0
M  V30 680 C 59.8701 -4.19587 0.764782 0
M  V30 681 S 60.7031 -4.86014 2.24835 0
M  V30 682 C 61.8591 -6.07012 1.526 0
M  V30 683 H 62.0921 -2.59715 1.44691 0
M  V30 684 H 59.6251 -1.287 0.85297 0
M  V30 685 H 61.5831 -4.065 -0.571641 0
M  V30 686 H 60.2441 -2.97786 -0.999105 0
M  V30 687 H 59.4371 -5.03611 0.197976 0
M  V30 688 H 59.0391 -3.56818 1.12057 0
M  V30 689 H 61.3311 -6.72523 0.819733 0
M  V30 690 H 62.2741 -6.68202 2.34333 0
M  V30 691 H 62.6821 -5.55249 1.01779 0
M  V30 692 N 62.0802 -0.821533 -1.34494 0
M  V30 693 C 63.3282 -0.408139 -1.97936 0
M  V30 694 C 63.6492 1.03193 -1.65457 0
M  V30 695 O 62.9192 1.71622 -0.944595 0
M  V30 696 H 61.4992 -0.147928 -0.732206 0
M  V30 697 H 64.1612 -1.05067 -1.64155 0
M  V30 698 H 63.2572 -0.52601 -3.07635 0
M  V30 699 N 63.5583 1.46682 -0.576371 0
M  V30 700 C 64.9743 1.57822 -0.237562 0
M  V30 701 C 65.1743 1.57237 1.26011 0
M  V30 702 O 64.2303 1.48596 2.04146 0
M  V30 703 C 65.5433 2.87499 -0.881168 0
M  V30 704 C 67.0913 3.01119 -0.85417 0
M  V30 705 C 67.5663 4.33524 -1.4772 0
M  V30 706 N 69.0573 4.40207 -1.44125 0
M  V30 707 C 69.7923 5.4126 -1.89276 0
M  V30 708 N 69.2883 6.49021 -2.42371 0
M  V30 709 N 71.0813 5.32422 -1.80231 0
M  V30 710 H 63.2323 1.45306 -1.54919 0
M  V30 711 H 65.4953 0.692733 -0.647167 0
M  V30 712 H 65.2013 2.9372 -1.93447 0
M  V30 713 H 65.0753 3.75224 -0.385592 0
M  V30 714 H 67.4623 2.94485 0.190491 0
M  V30 715 H 67.5433 2.14887 -1.3877 0
M  V30 716 H 67.1873 4.40916 -2.52103 0
M  V30 717 H 67.1173 5.1852 -0.918947 0
M  V30 718 H 69.6083 3.62931 -1.05307 0
M  V30 719 H 69.9213 7.2233 -2.74698 0
M  V30 720 H 68.2663 6.49858 -2.46393 0
M  V30 721 H 71.4573 4.47137 -1.38514 0
M  V30 722 H 71.6303 6.11034 -2.15735 0
M  V30 723 N 65.0364 0.313813 1.54444 0
M  V30 724 C 65.9834 -0.55655 2.23989 0
M  V30 725 C 66.9534 -1.11943 1.22711 0
M  V30 726 O 68.1384 -1.16158 1.51367 0
M  V30 727 C 65.2784 -1.71635 2.99392 0
M  V30 728 C 64.3914 -1.18364 4.15468 0
M  V30 729 C 63.5264 -2.30834 4.78424 0
M  V30 730 C 62.5654 -1.74762 5.86622 0
M  V30 731 N 61.7024 -2.80855 6.43479 0
M  V30 732 H 66.5424 0.0430893 2.97969 0
M  V30 733 H 64.0794 0.0330359 1.47063 0
M  V30 734 H 66.0374 -2.39868 3.41349 0
M  V30 735 H 64.6674 -2.28742 2.27765 0
M  V30 736 H 63.7194 -0.393163 3.78363 0
M  V30 737 H 65.0314 -0.733262 4.93381 0
M  V30 738 H 64.1854 -3.0699 5.23299 0
M  V30 739 H 62.9244 -2.79204 3.99871 0
M  V30 740 H 61.9294 -0.970995 5.41158 0
M  V30 741 H 63.1544 -1.2728 6.67066 0
M  V30 742 H 61.1004 -3.28535 5.67804 0
M  V30 743 H 61.0174 -2.40351 7.16776 0
M  V30 744 H 62.2854 -3.5687 6.93011 0
M  V30 745 N 66.5145 -1.57545 0.0417849 0
M  V30 746 C 67.7425 -1.96624 -0.643928 0
M  V30 747 C 68.1575 -0.918897 -1.64929 0
M  V30 748 O 67.5145 0.0979323 -1.82237 0
M  V30 749 C 67.5655 -3.35781 -1.33914 0
M  V30 750 O 67.2865 -4.365 -0.374048 0
M  V30 751 C 68.7875 -3.89566 -2.1155 0
M  V30 752 H 66.0075 -0.647316 -0.176702 0
M  V30 753 H 68.5515 -2.04229 0.105304 0
M  V30 754 H 66.7065 -3.29357 -2.03968 0
M  V30 755 H 67.1205 -5.17248 -0.869179 0
M  V30 756 H 68.5945 -4.89242 -2.55628 0
M  V30 757 H 69.0715 -3.24488 -2.9598 0
M  V30 758 H 69.6775 -3.99298 -1.46427 0
M  V30 759 N 67.9926 0.231505 -1.5589 0
M  V30 760 C 69.2396 0.957352 -1.78441 0
M  V30 761 C 69.5676 1.84726 -0.60882 0
M  V30 762 O 68.8226 1.91416 0.40725 0
M  V30 763 C 69.1216 1.83577 -3.0665 0
M  V30 764 C 68.7876 1.09993 -4.37278 0
M  V30 765 C 67.4496 0.896629 -4.72773 0
M  V30 766 C 69.8016 0.579558 -5.17968 0
M  V30 767 C 67.1296 0.160896 -5.86479 0
M  V30 768 C 69.4816 -0.142783 -6.32439 0
M  V30 769 C 68.1456 -0.357427 -6.66542 0
M  V30 770 H 67.4156 0.35032 -0.65296 0
M  V30 771 H 70.0626 0.226259 -1.90159 0
M  V30 772 H 68.3676 2.63441 -2.90011 0
M  V30 773 H 70.0646 2.39934 -3.21298 0
M  V30 774 H 66.6546 1.26835 -4.09403 0
M  V30 775 H 70.8386 0.724125 -4.90989 0
M  V30 776 H 66.0946 -0.0157293 -6.11398 0
M  V30 777 H 70.2686 -0.553559 -6.94196 0
M  V30 778 H 67.8956 -0.929466 -7.54497 0
M  V30 779 N 69.4707 1.49531 0.497807 0
M  V30 780 C 70.3807 1.69176 1.62532 0
M  V30 781 C 71.3967 0.5744 1.64246 0
M  V30 782 O 72.5727 0.849497 1.82608 0
M  V30 783 C 69.6377 1.75695 2.98885 0
M  V30 784 C 68.6987 2.9929 3.07773 0
M  V30 785 C 67.9317 3.05488 4.37622 0
M  V30 786 O 68.1547 2.19192 5.26603 0
M  V30 787 O 67.0887 3.9798 4.51548 0
M  V30 788 H 70.9147 2.647 1.48887 0
M  V30 789 H 68.4997 1.3331 0.674441 0
M  V30 790 H 70.3817 1.82317 3.79919 0
M  V30 791 H 69.0567 0.8335 3.12785 0
M  V30 792 H 67.9637 2.98183 2.25915 0
M  V30 793 H 69.2967 3.91125 2.98801 0
M  V30 794 N 70.9488 -0.749086 1.3866 0
M  V30 795 C 72.1738 -1.54344 1.38538 0
M  V30 796 C 72.5988 -1.88088 -0.0216655 0
M  V30 797 O 71.9568 -1.50899 -1.00494 0
M  V30 798 C 72.0048 -2.8164 2.25192 0
M  V30 799 O 71.1088 -3.7698 1.67212 0
M  V30 800 H 70.4498 -0.466654 0.472367 0
M  V30 801 H 72.9798 -0.925355 1.82478 0
M  V30 802 H 72.9898 -3.30519 2.3921 0
M  V30 803 H 71.6648 -2.56411 3.27454 0
M  V30 804 H 70.2418 -3.35699 1.6236 0
M  V30 805 N 72.4269 -1.23603 -0.977757 0
M  V30 806 C 73.6759 -1.06377 -1.71368 0
M  V30 807 C 73.9889 0.399062 -1.91486 0
M  V30 808 O 75.1949 0.691312 -2.62551 0
M  V30 809 C 73.6509 -1.85512 -3.08404 0
M  V30 810 C 73.2589 -3.36141 -2.96164 0
M  V30 811 C 75.0029 -1.76783 -3.85938 0
M  V30 812 C 72.9099 -4.07659 -4.28449 0
M  V30 813 H 71.8399 -0.394452 -0.642591 0
M  V30 814 H 74.4909 -1.47594 -1.09034 0
M  V30 815 H 72.8729 -1.37103 -3.71509 0
M  V30 816 H 74.0469 -3.92056 -2.42133 0
M  V30 817 H 72.3619 -3.45712 -2.32104 0
M  V30 818 H 74.9589 -2.27526 -4.83876 0
M  V30 819 H 75.3019 -0.731116 -4.0983 0
M  V30 820 H 75.8349 -2.22818 -3.2954 0
M  V30 821 H 72.5739 -5.11648 -4.09752 0
M  V30 822 H 72.0939 -3.5653 -4.82334 0
M  V30 823 H 73.7729 -4.141 -4.97122 0
M  V30 824 N 73.905 1.17692 -1.04816 0
M  V30 825 C 75.153 1.87488 -0.754497 0
M  V30 826 C 75.474 1.81205 0.720407 0
M  V30 827 O 74.744 1.23544 1.52032 0
M  V30 828 H 73.324 0.694101 -0.276102 0
M  V30 829 H 75.986 1.42793 -1.32651 0
M  V30 830 H 75.082 2.93328 -1.06606 0
M  V30 831 N 75.3831 0.828654 1.34056 0
M  V30 832 C 76.3301 0.252567 2.29414 0
M  V30 833 C 77.3001 -0.62588 1.53857 0
M  V30 834 O 78.4851 -0.566312 1.82202 0
M  V30 835 C 75.6251 -0.574831 3.40279 0
M  V30 836 C 74.7381 0.326499 4.30764 0
M  V30 837 C 73.8731 -0.511016 5.28736 0
M  V30 838 C 72.9121 0.389342 6.1086 0
M  V30 839 N 72.0491 -0.409439 7.00905 0
M  V30 840 H 76.8891 1.07108 2.78086 0
M  V30 841 H 74.4261 0.539677 1.36843 0
M  V30 842 H 76.3841 -1.06992 4.03248 0
M  V30 843 H 75.0141 -1.35841 2.92826 0
M  V30 844 H 74.0661 0.939837 3.68607 0
M  V30 845 H 75.3781 1.01857 4.88289 0
M  V30 846 H 74.5321 -1.07035 5.97184 0
M  V30 847 H 73.2711 -1.23657 4.71763 0
M  V30 848 H 72.2761 0.960769 5.4134 0
M  V30 849 H 73.5011 1.1131 6.69916 0
M  V30 850 H 71.4471 -1.11856 6.46393 0
M  V30 851 H 71.3641 0.224126 7.55668 0
M  V30 852 H 72.6321 -0.951336 7.73673 0
M  V30 853 N 76.8612 -1.46375 0.584142 0
M  V30 854 C 78.2722 -1.86031 0.157959 0
M  V30 855 C 78.6232 -1.48753 -1.27933 0
M  V30 856 O 77.7482 -0.903098 -1.96655 0
M  V30 857 C 78.3432 -3.37642 0.279892 0
M  V30 858 C 76.9022 -3.76289 -0.09143 0
M  V30 859 C 76.0492 -2.7039 0.615178 0
M  V30 860 H 79.0002 -1.37509 0.792274 0
M  V30 861 H 79.0212 -3.77275 -0.494364 0
M  V30 862 H 78.5332 -3.64742 1.32607 0
M  V30 863 H 76.6342 -3.54806 -1.13769 0
M  V30 864 H 76.7472 -4.78246 0.285886 0
M  V30 865 H 75.1112 -2.5464 0.0552833 0
M  V30 866 H 75.8942 -3.0033 1.66303 0
M  V30 867 N 78.3393 -0.321999 -1.54275 0
M  V30 868 C 79.2693 0.537411 -2.27231 0
M  V30 869 C 80.2503 1.12064 -1.27968 0
M  V30 870 O 81.4353 1.14606 -1.56777 0
M  V30 871 C 78.5653 1.69919 -3.02894 0
M  V30 872 C 77.5193 1.24534 -4.09482 0
M  V30 873 C 76.8453 2.49394 -4.72977 0
M  V30 874 C 78.1453 0.361335 -5.21049 0
M  V30 875 H 79.8393 -0.0711406 -2.99315 0
M  V30 876 H 77.3853 -0.0356555 -1.43956 0
M  V30 877 H 79.3383 2.30668 -3.52662 0
M  V30 878 H 78.0623 2.33431 -2.28424 0
M  V30 879 H 76.7213 0.660782 -3.60596 0
M  V30 880 H 76.3693 3.11265 -3.95124 0
M  V30 881 H 76.0693 2.19718 -5.44975 0
M  V30 882 H 77.5933 3.10908 -5.25517 0
M  V30 883 H 79.0073 0.875072 -5.66582 0
M  V30 884 H 77.4043 0.157428 -5.99893 0
M  V30 885 H 78.4743 -0.60822 -4.8107 0
M  V30 886 N 79.8174 1.5752 -0.0501392 0
M  V30 887 C 81.2284 1.80271 0.485705 0
M  V30 888 C 81.5794 0.96228 1.70981 0
M  V30 889 O 80.7044 0.178578 2.15662 0
M  V30 890 C 81.2994 3.26957 0.887938 0
M  V30 891 C 79.8584 3.5063 1.36877 0
M  V30 892 C 79.0054 2.75165 0.343468 0
M  V30 893 H 81.9564 1.56281 -0.276028 0
M  V30 894 H 81.9774 3.37821 1.75093 0
M  V30 895 H 81.4894 3.881 -0.0031809 0
M  V30 896 H 79.5904 2.94766 2.27911 0
M  V30 897 H 79.7034 4.59343 1.36164 0
M  V30 898 H 78.0674 2.4127 0.816128 0
M  V30 899 H 78.8504 3.39034 -0.539548 0
M  V30 900 N 81.2955 -0.223234 1.56011 0
M  V30 901 C 82.2435 -1.29627 1.93131 0
M  V30 902 C 83.2375 -1.48608 0.813146 0
M  V30 903 O 84.4435 -1.49802 0.997966 0
M  V30 904 H 80.8185 -0.434563 0.613726 0
M  V30 905 H 82.7895 -0.955995 2.82672 0
M  V30 906 C 81.5385 -2.63983 2.26292 0
M  V30 907 H 80.8615 -2.50185 3.11846 0
M  V30 908 H 82.3015 -3.3788 2.56151 0
M  V30 909 C 80.7605 -3.18866 1.08747 0
M  V30 910 O 81.2905 -4.00192 0.347727 0
M  V30 911 N 79.4965 -2.77217 0.871743 0
M  V30 912 H 79.0435 -2.1119 1.47501 0
M  V30 913 H 79.0015 -3.1428 0.0869905 0
M  V30 914 N 82.7736 -1.49793 -0.48987 0
M  V30 915 C 84.1896 -1.36803 -0.822022 0
M  V30 916 C 84.3896 -0.409652 -1.97292 0
M  V30 917 O 83.4456 0.154614 -2.52026 0
M  V30 918 C 84.7586 -2.77768 -1.15175 0
M  V30 919 C 86.3066 -2.86549 -1.25931 0
M  V30 920 C 86.7816 -4.28306 -1.62228 0
M  V30 921 N 88.2726 -4.31169 -1.69256 0
M  V30 922 C 89.0076 -5.37832 -1.98807 0
M  V30 923 N 88.5036 -6.54726 -2.26507 0
M  V30 924 N 90.2966 -5.25258 -2.00152 0
M  V30 925 H 82.4476 -2.10691 0.268881 0
M  V30 926 H 84.7106 -0.946241 0.057728 0
M  V30 927 H 84.4166 -3.49648 -0.379335 0
M  V30 928 H 84.2906 -3.13836 -2.09253 0
M  V30 929 H 86.6776 -2.14899 -2.02243 0
M  V30 930 H 86.7586 -2.54049 -0.298776 0
M  V30 931 H 86.4026 -5.00486 -0.864622 0
M  V30 932 H 86.3326 -4.58279 -2.594 0
M  V30 933 H 88.8236 -3.4687 -1.49965 0
M  V30 934 H 89.1366 -7.31833 -2.48276 0
M  V30 935 H 87.4816 -6.57933 -2.23939 0
M  V30 936 H 90.6726 -4.32938 -1.77996 0
M  V30 937 H 90.8456 -6.08476 -2.22848 0
M  V30 938 N 84.2517 0.741722 -1.39055 0
M  V30 939 C 85.6677 1.04638 -1.20512 0
M  V30 940 C 85.8677 2.01405 -0.0620218 0
M  V30 941 O 84.9237 2.45547 0.588457 0
M  V30 942 C 86.2367 1.6151 -2.53643 0
M  V30 943 C 87.7847 1.73623 -2.6043 0
M  V30 944 C 88.2597 2.33906 -3.93767 0
M  V30 945 N 89.7507 2.41323 -3.9537 0
M  V30 946 C 90.4857 2.88888 -4.95309 0
M  V30 947 N 89.9817 3.36401 -6.05645 0
M  V30 948 N 91.7747 2.88037 -4.82692 0
M  V30 949 H 83.9257 0.0998155 -2.12165 0
M  V30 950 H 86.1887 0.106907 -0.941953 0
M  V30 951 H 85.8947 0.978739 -3.37807 0
M  V30 952 H 85.7687 2.60411 -2.72885 0
M  V30 953 H 88.1557 2.36384 -1.76655 0
M  V30 954 H 88.2367 0.733945 -2.45045 0
M  V30 955 H 87.8807 1.71776 -4.7797 0
M  V30 956 H 87.8107 3.34799 -4.06469 0
M  V30 957 H 90.3017 2.07734 -3.15682 0
M  V30 958 H 90.6147 3.71186 -6.77821 0
M  V30 959 H 88.9597 3.34427 -6.09248 0
M  V30 960 H 92.1507 2.50237 -3.95599 0
M  V30 961 H 92.3237 3.24792 -5.60726 0
M  V30 962 N 85.7298 1.2412 0.971189 0
M  V30 963 C 86.6778 1.02812 2.08644 0
M  V30 964 C 87.6718 -0.0358403 1.69362 0
M  V30 965 O 88.8778 0.118429 1.7961 0
M  V30 966 H 85.2528 0.315428 0.682649 0
M  V30 967 H 87.2238 1.97397 2.23779 0
M  V30 968 C 85.9728 0.645874 3.41649 0
M  V30 969 H 85.2958 1.45632 3.72332 0
M  V30 970 H 86.7358 0.536366 4.20594 0
M  V30 971 C 85.1948 -0.646713 3.30635 0
M  V30 972 O 85.7248 -1.69338 3.64263 0
M  V30 973 N 83.9308 -0.626115 2.83775 0
M  V30 974 H 83.4778 0.225988 2.56607 0
M  V30 975 H 83.4358 -1.49117 2.76788 0
M  V30 976 N 87.2079 -1.17134 1.05439 0
M  V30 977 C 88.4539 -1.87733 0.767077 0
M  V30 978 C 88.7869 -1.8098 -0.704253 0
M  V30 979 O 88.0619 -1.21951 -1.5152 0
M  V30 980 C 88.3449 -3.37659 1.25133 0
M  V30 981 C 88.1979 -3.53149 2.78578 0
M  V30 982 C 89.5169 -4.31768 0.852324 0
M  V30 983 H 86.6359 -0.681687 0.280129 0
M  V30 984 H 89.2779 -1.37732 1.30881 0
M  V30 985 H 87.4279 -3.80373 0.790469 0
M  V30 986 H 89.0999 -3.19434 3.32806 0
M  V30 987 H 87.3429 -2.95345 3.17732 0
M  V30 988 H 88.0139 -4.58403 3.07523 0
M  V30 989 H 90.4899 -3.96909 1.24911 0
M  V30 990 H 89.3659 -5.35199 1.21873 0
M  V30 991 H 89.6269 -4.41429 -0.243485 0
M  V30 992 N 88.686 -0.835752 -1.33615 0
M  V30 993 C 89.932 -0.430596 -1.98176 0
M  V30 994 C 90.265 1.00684 -1.66061 0
M  V30 995 O 89.54 1.70339 -0.938877 0
M  V30 996 C 89.823 -0.648065 -3.5422 0
M  V30 997 C 89.676 -2.13255 -3.96033 0
M  V30 998 C 90.995 -0.0922113 -4.40003 0
M  V30 999 H 88.114 -0.157924 -0.719881 0
M  V30 1000 H 90.756 -1.05069 -1.58305 0
M  V30 1001 H 88.906 -0.120237 -3.88314 0
M  V30 1002 H 90.578 -2.725 -3.72211 0
M  V30 1003 H 88.821 -2.61823 -3.45878 0
M  V30 1004 H 89.492 -2.23547 -5.04708 0
M  V30 1005 H 91.968 -0.543343 -4.12537 0
M  V30 1006 H 90.844 -0.274083 -5.48215 0
M  V30 1007 H 91.105 1.00378 -4.30554 0
M  V30 1008 N 90.1641 1.46063 -0.591896 0
M  V30 1009 C 91.0941 2.33172 0.123673 0
M  V30 1010 C 92.0751 1.45897 0.87453 0
M  V30 1011 O 93.2601 1.74698 0.848181 0
M  V30 1012 C 90.3901 3.28336 1.13194 0
M  V30 1013 C 89.3441 4.25124 0.495324 0
M  V30 1014 C 88.6701 5.09863 1.61071 0
M  V30 1015 C 89.9701 5.19143 -0.573425 0
M  V30 1016 H 91.6641 2.93252 -0.603646 0
M  V30 1017 H 89.2101 1.41014 -0.291741 0
M  V30 1018 H 91.1631 3.88137 1.64097 0
M  V30 1019 H 89.8871 2.66383 1.88965 0
M  V30 1020 H 88.5461 3.66599 0.00729452 0
M  V30 1021 H 88.1941 4.44288 2.35832 0
M  V30 1022 H 87.8941 5.75417 1.19035 0
M  V30 1023 H 89.4181 5.72529 2.12233 0
M  V30 1024 H 90.8321 5.73106 -0.1491 0
M  V30 1025 H 89.2291 5.93089 -0.914636 0
M  V30 1026 H 90.2991 4.62519 -1.45617 0
M  V30 1027 N 91.6422 0.330177 1.54103 0
M  V30 1028 C 92.8702 -0.272179 2.05102 0
M  V30 1029 C 93.2852 -1.45267 1.20595 0
M  V30 1030 O 92.6422 -1.8094 0.238144 0
M  V30 1031 C 92.6932 -0.70023 3.54653 0
M  V30 1032 O 92.4142 0.433301 4.35952 0
M  V30 1033 C 93.9152 -1.3647 4.21771 0
M  V30 1034 H 91.1352 -0.0549159 0.668749 0
M  V30 1035 H 93.6792 0.478285 1.98828 0
M  V30 1036 H 91.8342 -1.40066 3.61193 0
M  V30 1037 H 92.2482 0.0947539 5.24414 0
M  V30 1038 H 93.7222 -1.61509 5.27843 0
M  V30 1039 H 94.1992 -2.31409 3.73292 0
M  V30 1040 H 94.8052 -0.706675 4.19388 0
M  V30 1041 N 93.1203 -1.57491 0.0584922 0
M  V30 1042 C 94.3453 -1.97711 -0.62652 0
M  V30 1043 C 94.7703 -0.936132 -1.63151 0
M  V30 1044 O 94.1283 0.099811 -1.81025 0
M  V30 1045 C 94.1763 -3.36989 -1.28338 0
M  V30 1046 O 93.2803 -3.35433 -2.39913 0
M  V30 1047 H 92.6213 -0.643868 -0.162266 0
M  V30 1048 H 95.1513 -2.04193 0.129064 0
M  V30 1049 H 95.1613 -3.73879 -1.63335 0
M  V30 1050 H 93.8363 -4.12289 -0.546889 0
M  V30 1051 H 92.4133 -3.10298 -2.06809 0
M  V30 1052 N 94.5984 0.214957 -1.56127 0
M  V30 1053 C 95.8754 0.963093 -1.70247 0
M  V30 1054 C 96.2554 2.02166 -0.60764 0
M  V30 1055 O 95.6034 2.25244 0.384385 0
M  V30 1056 C 95.8134 1.56756 -3.11815 0
M  V30 1057 C 97.1614 2.0573 -3.7143 0
M  V30 1058 O 98.1854 1.66637 -3.14818 0
M  V30 1059 O 97.0444 2.77603 -4.70743 0
M  V30 1060 H 94.1384 0.450321 -0.693643 0
M  V30 1061 H 96.6844 0.206219 -1.68442 0
M  V30 1062 H 95.4564 0.803533 -3.82961 0
M  V30 1063 H 95.0794 2.3898 -3.17765 0
M  V30 1064 N 96.0765 1.50051 0.48192 0
M  V30 1065 C 97.3045 1.64237 1.25832 0
M  V30 1066 C 97.7195 0.321336 1.86045 0
M  V30 1067 O 97.0765 -0.695478 1.68729 0
M  V30 1068 C 97.1275 2.72548 2.37487 0
M  V30 1069 O 96.8485 3.99529 1.79745 0
M  V30 1070 C 98.3495 2.9761 3.28547 0
M  V30 1071 H 95.5695 0.55237 0.380957 0
M  V30 1072 H 98.1135 1.96207 0.576467 0
M  V30 1073 H 96.2685 2.43303 3.01467 0
M  V30 1074 H 96.6825 4.59342 2.5319 0
M  V30 1075 H 98.1565 3.77084 4.03127 0
M  V30 1076 H 98.6335 2.0826 3.86684 0
M  V30 1077 H 99.2395 3.28345 2.70314 0
M  V30 1078 N 97.5546 -0.734337 1.39446 0
M  V30 1079 C 98.7796 -1.52866 1.40167 0
M  V30 1080 C 99.2046 -1.881 -0.00171513 0
M  V30 1081 O 98.5626 -1.51957 -0.988879 0
M  V30 1082 C 98.6106 -2.79235 2.28167 0
M  V30 1083 O 97.7146 -3.75185 1.71201 0
M  V30 1084 H 97.0556 -0.461618 0.477289 0
M  V30 1085 H 99.5856 -0.905949 1.8345 0
M  V30 1086 H 99.5956 -3.27963 2.42702 0
M  V30 1087 H 98.2706 -2.52923 3.30156 0
M  V30 1088 H 96.8476 -3.33958 1.65912 0
M  V30 1089 N 99.0327 -1.24633 -0.964593 0
M  V30 1090 C 100.28 -1.08788 -1.70796 0
M  V30 1091 C 100.608 0.372783 -1.90894 0
M  V30 1092 O 99.8627 1.29167 -1.47018 0
M  V30 1093 C 100.162 -1.7763 -3.10133 0
M  V30 1094 C 99.8277 -3.27557 -3.09866 0
M  V30 1095 C 98.4897 -3.6846 -3.09501 0
M  V30 1096 C 100.842 -4.23389 -3.03959 0
M  V30 1097 C 98.1697 -5.03624 -3.00965 0
M  V30 1098 C 100.522 -5.58565 -2.96965 0
M  V30 1099 C 99.1857 -5.98809 -2.9493 0
M  V30 1100 H 98.4557 -0.398084 -0.624988 0
M  V30 1101 H 101.103 -1.54777 -1.12767 0
M  V30 1102 H 99.4077 -1.24044 -3.71645 0
M  V30 1103 H 101.105 -1.62832 -3.66451 0
M  V30 1104 H 97.6947 -2.95006 -3.10917 0
M  V30 1105 H 101.879 -3.92787 -3.03368 0
M  V30 1106 H 97.1347 -5.33998 -2.97752 0
M  V30 1107 H 101.309 -6.32523 -2.91354 0
M  V30 1108 H 98.9357 -7.03505 -2.88071 0
M  V30 1109 N 100.511 1.16574 -1.06058 0
M  V30 1110 C 101.459 2.22941 -0.663343 0
M  V30 1111 C 102.453 1.66358 0.319593 0
M  V30 1112 O 103.659 1.7905 0.184713 0
M  V30 1113 H 100.034 0.725907 -0.196376 0
M  V30 1114 H 102.005 2.53736 -1.57037 0
M  V30 1115 C 100.754 3.47642 -0.0632808 0
M  V30 1116 H 100.077 3.91493 -0.810733 0
M  V30 1117 H 101.517 4.2363 0.177177 0
M  V30 1118 C 99.9758 3.1509 1.19248 0
M  V30 1119 O 100.506 3.30673 2.28075 0
M  V30 1120 N 98.7118 2.6924 1.09353 0
M  V30 1121 H 98.2588 2.5676 0.207912 0
M  V30 1122 H 98.2168 2.47833 1.93458 0
M  V30 1123 N 101.989 0.842826 1.3317 0
M  V30 1124 C 103.235 0.441099 1.97945 0
M  V30 1125 C 103.568 -0.998024 1.66593 0
M  V30 1126 O 102.843 -1.69839 0.947898 0
M  V30 1127 C 103.126 0.666841 3.53872 0
M  V30 1128 C 102.979 2.15352 3.94897 0
M  V30 1129 C 104.298 0.115544 4.39948 0
M  V30 1130 H 101.417 0.161739 0.719034 0
M  V30 1131 H 104.059 1.05907 1.57746 0
M  V30 1132 H 102.209 0.140828 3.88245 0
M  V30 1133 H 103.881 2.7447 3.70761 0
M  V30 1134 H 102.124 2.63653 3.44484 0
M  V30 1135 H 102.795 2.26221 5.03516 0
M  V30 1136 H 105.271 0.565213 4.12243 0
M  V30 1137 H 104.147 0.303152 5.48062 0
M  V30 1138 H 104.408 -0.980935 4.3108 0
M  V30 1139 N 103.467 -1.45747 0.599634 0
M  V30 1140 C 104.377 -2.34262 -0.125888 0
M  V30 1141 C 105.393 -1.50768 -0.868625 0
M  V30 1142 O 106.569 -1.83592 -0.828003 0
M  V30 1143 C 103.634 -3.28252 -1.11587 0
M  V30 1144 C 102.695 -4.27651 -0.375956 0
M  V30 1145 C 101.928 -5.1715 -1.31877 0
M  V30 1146 O 102.151 -5.09916 -2.55621 0
M  V30 1147 O 101.085 -5.96286 -0.820157 0
M  V30 1148 H 104.911 -2.97688 0.601315 0
M  V30 1149 H 102.496 -1.44999 0.359934 0
M  V30 1150 H 104.378 -3.86191 -1.68626 0
M  V30 1151 H 103.053 -2.67401 -1.82424 0
M  V30 1152 H 101.96 -3.7335 0.236698 0
M  V30 1153 H 103.293 -4.91334 0.29177 0
M  V30 1154 N 104.945 -0.338344 -1.53925 0
M  V30 1155 C 106.193 0.259245 -2.0043 0
M  V30 1156 C 106.514 1.51484 -1.22791 0
M  V30 1157 O 105.784 1.93037 -0.33368 0
M  V30 1158 H 104.364 0.0987845 -0.740439 0
M  V30 1159 H 107.026 -0.458302 -1.89435 0
M  V30 1160 H 106.122 0.505334 -3.07982 0
M  V30 1161 N 106.423 1.57458 -0.0668435 0
M  V30 1162 C 107.669 1.93587 0.6043 0
M  V30 1163 C 108.002 0.946722 1.69561 0
M  V30 1164 O 107.277 -0.0248516 1.94484 0
M  V30 1165 C 107.56 3.40014 1.18585 0
M  V30 1166 C 107.413 4.49685 0.101529 0
M  V30 1167 C 108.732 3.87154 2.09284 0
M  V30 1168 H 105.851 0.703958 0.218202 0
M  V30 1169 H 108.493 1.89542 -0.131804 0
M  V30 1170 H 106.643 3.43592 1.81319 0
M  V30 1171 H 108.315 4.5823 -0.531279 0
M  V30 1172 H 106.558 4.30059 -0.568487 0
M  V30 1173 H 107.229 5.49266 0.54874 0
M  V30 1174 H 109.705 3.85551 1.56491 0
M  V30 1175 H 108.581 4.90231 2.46911 0
M  V30 1176 H 108.842 3.2481 2.99918 0
M  V30 1177 N 107.901 -0.206675 1.56239 0
M  V30 1178 C 109.178 -0.954051 1.70755 0
M  V30 1179 C 109.558 -2.01841 0.618353 0
M  V30 1180 O 108.906 -2.25444 -0.372434 0
M  V30 1181 C 109.116 -1.551 3.12642 0
M  V30 1182 C 110.464 -2.03757 3.72516 0
M  V30 1183 O 111.488 -1.64965 3.15698 0
M  V30 1184 O 110.347 -2.75103 4.72208 0
M  V30 1185 H 107.441 -0.446636 0.696021 0
M  V30 1186 H 109.987 -0.197283 1.68549 0
M  V30 1187 H 108.759 -0.783212 3.83382 0
M  V30 1188 H 108.382 -2.37291 3.19028 0
M  V30 1189 N 109.379 -1.50304 -0.473955 0
M  V30 1190 C 110.625 -1.61389 -1.22806 0
M  V30 1191 C 110.958 -0.311955 -1.91678 0
M  V30 1192 O 110.233 0.686384 -1.81986 0
M  V30 1193 C 110.516 -2.79219 -2.27396 0
M  V30 1194 C 110.369 -4.19286 -1.62848 0
M  V30 1195 C 111.688 -2.92614 -3.28732 0
M  V30 1196 H 108.807 -0.587399 -0.445119 0
M  V30 1197 H 111.449 -1.82681 -0.522265 0
M  V30 1198 H 109.599 -2.61195 -2.87592 0
M  V30 1199 H 111.271 -4.48892 -1.06271 0
M  V30 1200 H 109.514 -4.23677 -0.931693 0
M  V30 1201 H 110.185 -4.97655 -2.38838 0
M  V30 1202 H 112.661 -3.09105 -2.78556 0
M  V30 1203 H 111.537 -3.76688 -3.99246 0
M  V30 1204 H 111.798 -2.03107 -3.92683 0
M  V30 1205 N 110.857 0.726932 -1.39834 0
M  V30 1206 C 112.106 1.48214 -1.36805 0
M  V30 1207 C 112.419 1.95576 0.0305291 0
M  V30 1208 O 113.625 2.7088 0.183417 0
M  V30 1209 C 112.081 2.67854 -2.40379 0
M  V30 1210 C 111.689 2.27408 -3.85992 0
M  V30 1211 C 113.433 3.45641 -2.46439 0
M  V30 1212 C 111.34 3.43819 -4.81189 0
M  V30 1213 H 110.27 0.556606 -0.508631 0
M  V30 1214 H 112.921 0.792216 -1.65518 0
M  V30 1215 H 111.303 3.3896 -2.04749 0
M  V30 1216 H 112.477 1.63795 -4.30706 0
M  V30 1217 H 110.792 1.62692 -3.83302 0
M  V30 1218 H 113.389 4.32244 -3.14753 0
M  V30 1219 H 113.732 3.88669 -1.49139 0
M  V30 1220 H 114.265 2.8157 -2.81004 0
M  V30 1221 H 111.004 3.05834 -5.79781 0
M  V30 1222 H 110.524 4.06385 -4.41148 0
M  V30 1223 H 112.203 4.10043 -5.00474 0
M  V30 1224 N 112.336 1.25143 0.95797 0
M  V30 1225 C 113.286 1.01924 2.0395 0
M  V30 1226 C 114.27 -0.0427175 1.60843 0
M  V30 1227 O 115.462 0.17221 1.7616 0
M  V30 1228 C 112.591 0.636373 3.3735 0
M  V30 1229 C 111.677 1.73492 3.8699 0
M  V30 1230 N 112.068 2.96945 4.0946 0
M  V30 1231 C 110.366 1.61467 4.15746 0
M  V30 1232 C 111.067 3.68228 4.50315 0
M  V30 1233 N 110.043 2.95833 4.56053 0
M  V30 1234 H 113.845 1.95653 2.19311 0
M  V30 1235 H 111.359 1.15413 1.14253 0
M  V30 1236 H 113.356 0.451233 4.14451 0
M  V30 1237 H 112.016 -0.293621 3.2337 0
M  V30 1238 H 113.027 3.33025 3.96629 0
M  V30 1239 H 109.704 0.753394 4.10646 0
M  V30 1240 H 111.094 4.74178 4.76031 0
M  V30 1241 N 113.814 -1.1601 1.06675 0
M  V30 1242 C 115.039 -1.91068 0.806706 0
M  V30 1243 C 115.464 -1.77112 -0.633485 0
M  V30 1244 O 114.822 -1.09908 -1.44187 0
M  V30 1245 C 114.87 -3.39655 1.21106 0
M  V30 1246 O 113.974 -4.10893 0.352189 0
M  V30 1247 H 113.315 -0.595125 0.294486 0
M  V30 1248 H 115.845 -1.46955 1.42356 0
M  V30 1249 H 115.855 -3.90434 1.18428 0
M  V30 1250 H 114.53 -3.49132 2.26008 0
M  V30 1251 H 113.107 -3.70285 0.440868 0
M  V30 1252 N 115.292 -0.849877 -1.32721 0
M  V30 1253 C 116.541 -0.447175 -1.96681 0
M  V30 1254 C 116.854 1.00135 -1.68025 0
M  V30 1255 O 118.06 1.50926 -2.25685 0
M  V30 1256 C 116.516 -0.7487 -3.52026 0
M  V30 1257 C 116.124 -2.21264 -3.89546 0
M  V30 1258 C 117.868 -0.413487 -4.22481 0
M  V30 1259 C 115.775 -2.45763 -5.37917 0
M  V30 1260 H 114.705 -0.163486 -0.736063 0
M  V30 1261 H 117.356 -1.03999 -1.51183 0
M  V30 1262 H 115.738 -0.0853727 -3.95908 0
M  V30 1263 H 116.912 -2.91736 -3.56689 0
M  V30 1264 H 115.227 -2.5119 -3.32103 0
M  V30 1265 H 117.824 -0.574017 -5.3161 0
M  V30 1266 H 118.167 0.644492 -4.11281 0
M  V30 1267 H 118.7 -1.03251 -3.84167 0
M  V30 1268 H 115.439 -3.50168 -5.54132 0
M  V30 1269 H 114.959 -1.79864 -5.72197 0
M  V30 1270 H 116.638 -2.29471 -6.0494 0
M  V30 1271 N 116.77 1.45427 -0.607355 0
M  V30 1272 C 117.68 2.34325 0.113463 0
M  V30 1273 C 118.696 1.51226 0.860617 0
M  V30 1274 O 119.872 1.84029 0.818255 0
M  V30 1275 C 116.937 3.28839 1.09844 0
M  V30 1276 C 115.998 4.27844 0.353271 0
M  V30 1277 C 115.231 5.17842 1.29133 0
M  V30 1278 O 115.454 5.11264 2.52913 0
M  V30 1279 O 114.388 5.96713 0.788523 0
M  V30 1280 H 118.214 2.97364 -0.617094 0
M  V30 1281 H 115.799 1.44807 -0.367619 0
M  V30 1282 H 117.681 3.8708 1.66575 0
M  V30 1283 H 116.356 2.68365 1.81003 0
M  V30 1284 H 115.263 3.7322 -0.256494 0
M  V30 1285 H 116.596 4.91173 -0.317822 0
M  V30 1286 N 118.248 0.346503 1.53744 0
M  V30 1287 C 119.525 -0.304532 1.93215 0
M  V30 1288 C 119.905 -1.67993 1.27834 0
M  V30 1289 O 119.253 -2.24411 0.430352 0
M  V30 1290 C 119.463 -0.373852 3.46992 0
M  V30 1291 C 120.811 -0.62329 4.2 0
M  V30 1292 O 121.835 -0.455847 3.53271 0
M  V30 1293 O 120.694 -0.947879 5.38217 0
M  V30 1294 H 117.788 -0.178318 0.807547 0
M  V30 1295 H 120.334 0.397895 1.64969 0
M  V30 1296 H 119.106 0.591224 3.86808 0
M  V30 1297 H 118.729 -1.12294 3.81413 0
M  V30 1298 N 119.726 -1.57421 0.075193 0
M  V30 1299 C 120.975 -1.92794 -0.592731 0
M  V30 1300 C 121.288 -0.957478 -1.70563 0
M  V30 1301 O 122.494 -1.20417 -2.43335 0
M  V30 1302 C 120.95 -3.42495 -1.10569 0
M  V30 1303 C 120.558 -4.47994 -0.0236121 0
M  V30 1304 C 122.302 -3.86864 -1.74748 0
M  V30 1305 C 120.209 -5.88829 -0.550803 0
M  V30 1306 H 119.139 -0.719591 -0.225177 0
M  V30 1307 H 121.79 -1.82902 0.147978 0
M  V30 1308 H 120.172 -3.47471 -1.89947 0
M  V30 1309 H 121.346 -4.54637 0.751099 0
M  V30 1310 H 119.661 -4.13113 0.522159 0
M  V30 1311 H 122.258 -4.8947 -2.15229 0
M  V30 1312 H 122.601 -3.24417 -2.60882 0
M  V30 1313 H 123.134 -3.84504 -1.01986 0
M  V30 1314 H 119.873 -6.54929 0.273457 0
M  V30 1315 H 119.393 -5.85698 -1.29296 0
M  V30 1316 H 121.072 -6.38811 -1.02613 0
M  V30 1317 N 121.204 0.198386 -1.56346 0
M  V30 1318 C 122.434 0.934215 -1.84271 0
M  V30 1319 C 122.842 1.77496 -0.655125 0
M  V30 1320 O 122.185 1.7961 0.385488 0
M  V30 1321 C 122.247 1.88278 -3.06254 0
M  V30 1322 C 121.911 1.22431 -4.40295 0
M  V30 1323 C 122.908 0.602839 -5.16393 0
M  V30 1324 C 120.593 1.22915 -4.87029 0
M  V30 1325 C 122.587 -0.0050083 -6.374 0
M  V30 1326 C 120.274 0.617465 -6.07973 0
M  V30 1327 C 121.272 0.00146341 -6.83 0
M  V30 1328 O 120.96 -0.600642 -8.01653 0
M  V30 1329 H 120.692 0.278245 -0.616081 0
M  V30 1330 H 123.246 0.211626 -2.04307 0
M  V30 1331 H 121.476 2.64498 -2.82095 0
M  V30 1332 H 123.165 2.48612 -3.20853 0
M  V30 1333 H 123.931 0.591265 -4.81382 0
M  V30 1334 H 119.81 1.69801 -4.28589 0
M  V30 1335 H 123.354 -0.48643 -6.95902 0
M  V30 1336 H 119.251 0.62653 -6.42452 0
M  V30 1337 H 120.019 -0.497225 -8.16988 0
M  V30 1338 N 122.682 1.50554 0.465978 0
M  V30 1339 C 123.614 1.65949 1.58093 0
M  V30 1340 C 124.627 0.540827 1.53554 0
M  V30 1341 O 125.816 0.814187 1.5885 0
M  V30 1342 C 122.916 1.63261 2.96983 0
M  V30 1343 C 122.089 2.91245 3.26336 0
M  V30 1344 C 121.148 2.8113 4.44806 0
M  V30 1345 O 120.174 3.55086 4.44862 0
M  V30 1346 N 121.376 1.95032 5.46756 0
M  V30 1347 H 124.141 2.62122 1.45301 0
M  V30 1348 H 121.702 1.48082 0.65448 0
M  V30 1349 H 123.694 1.54101 3.74212 0
M  V30 1350 H 122.264 0.748032 3.03518 0
M  V30 1351 H 121.484 3.14493 2.37672 0
M  V30 1352 H 122.772 3.76022 3.42761 0
M  V30 1353 H 122.17 1.3427 5.49534 0
M  V30 1354 H 120.727 1.91772 6.2295 0
M  V30 1355 N 124.16 -0.719506 1.40217 0
M  V30 1356 C 125.09 -1.8465 1.42922 0
M  V30 1357 C 126.071 -1.67599 0.29062 0
M  V30 1358 O 127.256 -1.87688 0.498677 0
M  V30 1359 C 124.386 -3.22565 1.28722 0
M  V30 1360 C 123.34 -3.54281 2.40144 0
M  V30 1361 C 122.666 -4.91298 2.11023 0
M  V30 1362 C 123.966 -3.55676 3.82481 0
M  V30 1363 H 125.66 -1.82644 2.37237 0
M  V30 1364 H 123.206 -0.877305 1.1419 0
M  V30 1365 H 125.159 -4.01095 1.29232 0
M  V30 1366 H 123.883 -3.25137 0.308811 0
M  V30 1367 H 122.542 -2.78088 2.38877 0
M  V30 1368 H 122.19 -4.90468 1.11582 0
M  V30 1369 H 121.89 -5.13485 2.8567 0
M  V30 1370 H 123.414 -5.72166 2.13209 0
M  V30 1371 H 124.828 -4.24254 3.85592 0
M  V30 1372 H 123.225 -3.89388 4.56614 0
M  V30 1373 H 124.295 -2.55144 4.12346 0
M  V30 1374 N 125.638 -1.25649 -0.95132 0
M  V30 1375 C 127.049 -1.09654 -1.51106 0
M  V30 1376 C 127.4 0.326615 -1.93462 0
M  V30 1377 O 126.525 1.21697 -1.78938 0
M  V30 1378 C 127.12 -1.98437 -2.74605 0
M  V30 1379 C 125.679 -1.86618 -3.2688 0
M  V30 1380 C 124.826 -1.9239 -1.99703 0
M  V30 1381 H 127.777 -1.38887 -0.767865 0
M  V30 1382 H 127.798 -1.5263 -3.48546 0
M  V30 1383 H 127.31 -3.02009 -2.43746 0
M  V30 1384 H 125.411 -0.859421 -3.62553 0
M  V30 1385 H 125.524 -2.71607 -3.94673 0
M  V30 1386 H 123.888 -1.36317 -2.15151 0
M  V30 1387 H 124.671 -2.97573 -1.71188 0
M  V30 1388 N 127.117 1.15442 -1.07289 0
M  V30 1389 C 128.365 1.85845 -0.794096 0
M  V30 1390 C 128.686 1.82692 0.681809 0
M  V30 1391 O 127.956 1.26741 1.49377 0
M  V30 1392 H 126.536 0.688089 -0.290763 0
M  V30 1393 H 129.198 1.39947 -1.3565 0
M  V30 1394 H 128.294 2.91001 -1.12804 0
M  V30 1395 N 128.595 0.856903 1.32268 0
M  V30 1396 C 129.545 0.274899 2.26337 0
M  V30 1397 C 130.529 -0.580543 1.50062 0
M  V30 1398 O 131.721 -0.429559 1.71708 0
M  V30 1399 C 128.85 -0.533841 3.39124 0
M  V30 1400 C 127.936 0.334114 4.22782 0
M  V30 1401 N 128.327 1.42143 4.85416 0
M  V30 1402 C 126.625 0.124256 4.45827 0
M  V30 1403 C 127.326 1.95559 5.47843 0
M  V30 1404 N 126.302 1.25444 5.28928 0
M  V30 1405 H 130.104 1.10612 2.72291 0
M  V30 1406 H 127.618 0.703258 1.46383 0
M  V30 1407 H 129.615 -0.96722 4.05525 0
M  V30 1408 H 128.275 -1.36283 2.94715 0
M  V30 1409 H 129.286 1.80436 4.85451 0
M  V30 1410 H 125.963 -0.669837 4.12092 0
M  V30 1411 H 127.353 2.86714 6.07655 0
M  V30 1412 N 130.073 -1.45103 0.615059 0
M  V30 1413 C 131.319 -2.02483 0.113347 0
M  V30 1414 C 131.652 -1.48146 -1.25564 0
M  V30 1415 O 130.927 -0.659104 -1.82992 0
M  V30 1416 C 131.21 -3.60005 0.0825278 0
M  V30 1417 C 131.063 -4.2466 1.48271 0
M  V30 1418 C 132.382 -4.35972 -0.601401 0
M  V30 1419 H 129.501 -0.735764 0.0426632 0
M  V30 1420 H 132.143 -1.72868 0.788461 0
M  V30 1421 H 130.293 -3.85367 -0.492378 0
M  V30 1422 H 131.965 -4.10458 2.10527 0
M  V30 1423 H 130.208 -3.82772 2.04127 0
M  V30 1424 H 130.879 -5.336 1.41332 0
M  V30 1425 H 133.355 -4.15947 -0.112666 0
M  V30 1426 H 132.231 -5.45697 -0.592097 0
M  V30 1427 H 132.492 -4.09391 -1.66887 0
M  V30 1428 N 131.551 -0.354651 -1.53558 0
M  V30 1429 C 132.798 0.238443 -2.01091 0
M  V30 1430 C 133.126 1.49663 -1.24222 0
M  V30 1431 O 132.381 1.93049 -0.321003 0
M  V30 1432 C 132.68 0.587121 -3.52545 0
M  V30 1433 C 132.346 -0.575472 -4.47213 0
M  V30 1434 C 131.008 -0.894497 -4.72813 0
M  V30 1435 C 133.36 -1.35489 -5.03281 0
M  V30 1436 C 130.688 -1.99511 -5.51736 0
M  V30 1437 C 133.04 -2.44583 -5.83405 0
M  V30 1438 C 131.704 -2.77033 -6.07296 0
M  V30 1439 H 130.974 0.0872526 -0.735845 0
M  V30 1440 H 133.621 -0.484859 -1.8526 0
M  V30 1441 H 131.926 1.39129 -3.66265 0
M  V30 1442 H 133.623 1.05809 -3.86789 0
M  V30 1443 H 130.213 -0.316774 -4.27428 0
M  V30 1444 H 134.397 -1.12167 -4.83459 0
M  V30 1445 H 129.653 -2.25063 -5.68469 0
M  V30 1446 H 133.827 -3.05401 -6.25862 0
M  V30 1447 H 131.454 -3.6244 -6.68237 0
M  V30 1448 N 133.029 1.57378 -0.0835403 0
M  V30 1449 C 134.278 1.93106 0.582498 0
M  V30 1450 C 134.591 0.96651 1.70053 0
M  V30 1451 O 135.797 1.21705 2.42693 0
M  V30 1452 C 134.253 3.43076 1.08751 0
M  V30 1453 C 133.861 4.48 -0.000146404 0
M  V30 1454 C 135.605 3.87785 1.72694 0
M  V30 1455 C 133.512 5.89113 0.519568 0
M  V30 1456 H 132.442 0.720775 0.221358 0
M  V30 1457 H 135.093 1.82821 -0.157675 0
M  V30 1458 H 133.475 3.48474 1.88101 0
M  V30 1459 H 134.649 4.54233 -0.775199 0
M  V30 1460 H 132.964 4.1283 -0.54406 0
M  V30 1461 H 135.561 4.90604 2.1263 0
M  V30 1462 H 135.904 3.25796 2.59158 0
M  V30 1463 H 136.437 3.8504 0.999457 0
M  V30 1464 H 133.176 6.54775 -0.308186 0
M  V30 1465 H 132.696 5.86376 1.26188 0
M  V30 1466 H 134.375 6.39346 0.992237 0
M  V30 1467 N 134.507 -0.190092 1.56449 0
M  V30 1468 C 135.754 -0.909705 1.80916 0
M  V30 1469 C 136.082 -1.83047 0.657583 0
M  V30 1470 O 135.337 -1.92428 -0.356356 0
M  V30 1471 C 135.636 -1.75382 3.1141 0
M  V30 1472 C 135.302 -0.983606 4.40041 0
M  V30 1473 C 133.964 -0.770967 4.74984 0
M  V30 1474 C 136.316 -0.442024 5.19322 0
M  V30 1475 C 133.644 -0.0053448 5.867 0
M  V30 1476 C 135.996 0.310412 6.31838 0
M  V30 1477 C 134.66 0.534023 6.6536 0
M  V30 1478 H 133.93 -0.332885 0.662019 0
M  V30 1479 H 136.577 -0.175762 1.90692 0
M  V30 1480 H 134.882 -2.55659 2.96893 0
M  V30 1481 H 136.579 -2.31331 3.27547 0
M  V30 1482 H 133.169 -1.15936 4.12622 0
M  V30 1483 H 137.353 -0.593693 4.92736 0
M  V30 1484 H 132.609 0.177825 6.11141 0
M  V30 1485 H 136.783 0.737419 6.92485 0
M  V30 1486 H 134.41 1.12918 7.51767 0
M  V30 1487 N 135.985 -1.50799 -0.457987 0
M  V30 1488 C 137.233 -1.62121 -1.2067 0
M  V30 1489 C 137.554 -0.329793 -1.92191 0
M  V30 1490 O 136.824 0.653409 -1.84682 0
M  V30 1491 H 135.404 -0.597441 -0.448411 0
M  V30 1492 H 138.066 -1.87637 -0.527096 0
M  V30 1493 H 137.162 -2.43882 -1.94751 0
M  V30 1494 N 137.463 0.71206 -1.40597 0
M  V30 1495 C 138.711 1.46907 -1.38791 0
M  V30 1496 C 139.032 1.94998 0.00780391 0
M  V30 1497 O 138.302 1.70587 0.963174 0
M  V30 1498 H 136.882 0.545043 -0.51082 0
M  V30 1499 H 139.544 0.843882 -1.75683 0
M  V30 1500 H 138.64 2.34021 -2.06496 0
M  V30 1501 N 138.941 1.26152 0.944643 0
M  V30 1502 C 139.873 1.03199 2.04652 0
M  V30 1503 C 140.886 -0.00642356 1.62799 0
M  V30 1504 O 142.075 0.233263 1.76969 0
M  V30 1505 C 139.175 0.540111 3.34568 0
M  V30 1506 C 138.348 1.64697 4.05208 0
M  V30 1507 C 137.407 1.15374 5.13396 0
M  V30 1508 O 136.433 1.85013 5.38293 0
M  V30 1509 N 137.635 0.00031529 5.805 0
M  V30 1510 H 140.4 1.9808 2.2491 0
M  V30 1511 H 137.961 1.17491 1.11389 0
M  V30 1512 H 139.953 0.194401 4.04233 0
M  V30 1513 H 138.523 -0.315021 3.11009 0
M  V30 1514 H 137.743 2.16379 3.29506 0
M  V30 1515 H 139.031 2.3903 4.49157 0
M  V30 1516 H 138.429 -0.581336 5.62705 0
M  V30 1517 H 136.986 -0.286346 6.51171 0
M  V30 1518 N 140.419 -1.14872 1.07899 0
M  V30 1519 C 141.647 -1.89661 0.82683 0
M  V30 1520 C 142.062 -1.78312 -0.620519 0
M  V30 1521 O 141.419 -1.13888 -1.42604 0
M  V30 1522 C 141.47 -3.39817 1.23316 0
M  V30 1523 O 141.191 -3.50845 2.62372 0
M  V30 1524 C 142.692 -4.31615 1.0111 0
M  V30 1525 H 139.912 -0.60092 0.298557 0
M  V30 1526 H 142.456 -1.4551 1.43691 0
M  V30 1527 H 140.611 -3.8161 0.667286 0
M  V30 1528 H 141.025 -4.44076 2.79101 0
M  V30 1529 H 142.499 -5.35367 1.34486 0
M  V30 1530 H 142.976 -4.39169 -0.0522168 0
M  V30 1531 H 143.582 -3.95572 1.56215 0
M  V30 1532 N 141.898 -0.863906 -1.31812 0
M  V30 1533 C 142.828 -0.330843 -2.31144 0
M  V30 1534 C 143.809 0.575005 -1.60087 0
M  V30 1535 O 144.994 0.493304 -1.8783 0
M  V30 1536 C 142.124 0.47374 -3.44054 0
M  V30 1537 C 141.078 -0.338481 -4.26659 0
M  V30 1538 C 140.404 0.591412 -5.31419 0
M  V30 1539 C 141.704 -1.56926 -4.98168 0
M  V30 1540 H 143.398 -1.16086 -2.75979 0
M  V30 1541 H 140.944 -0.559657 -1.32679 0
M  V30 1542 H 142.897 0.857143 -4.12591 0
M  V30 1543 H 141.621 1.33721 -2.9797 0
M  V30 1544 H 140.28 -0.703754 -3.59782 0
M  V30 1545 H 139.928 1.45199 -4.81587 0
M  V30 1546 H 139.628 0.0519022 -5.87577 0
M  V30 1547 H 141.152 0.97179 -6.02817 0
M  V30 1548 H 142.566 -1.25764 -5.59336 0
M  V30 1549 H 140.963 -2.04739 -5.64094 0
M  V30 1550 H 142.033 -2.32544 -4.25501 0
M  V30 1551 N 143.376 1.44774 -0.622745 0
M  V30 1552 C 144.623 2.02121 -0.1239 0
M  V30 1553 C 144.951 1.48915 1.25118 0
M  V30 1554 O 144.206 0.660045 1.84233 0
M  V30 1555 C 144.505 3.57364 -0.0508323 0
M  V30 1556 C 144.171 4.29787 -1.36358 0
M  V30 1557 C 142.833 4.4929 -1.72314 0
M  V30 1558 C 145.185 4.71062 -2.23048 0
M  V30 1559 C 142.513 5.07325 -2.94682 0
M  V30 1560 C 144.865 5.30452 -3.44679 0
M  V30 1561 C 143.529 5.48175 -3.80868 0
M  V30 1562 H 142.799 0.739612 -0.0453381 0
M  V30 1563 H 145.446 1.73648 -0.807389 0
M  V30 1564 H 143.751 3.85202 0.715991 0
M  V30 1565 H 145.448 3.99456 0.351533 0
M  V30 1566 H 142.038 4.14932 -1.07375 0
M  V30 1567 H 146.222 4.55715 -1.96565 0
M  V30 1568 H 141.478 5.19235 -3.22809 0
M  V30 1569 H 145.652 5.61385 -4.12092 0
M  V30 1570 H 143.279 5.92912 -4.75773 0
M  V30 1571 N 144.854 0.36279 1.53368 0
M  V30 1572 C 145.764 -0.492994 2.29362 0
M  V30 1573 C 146.78 -1.09507 1.35219 0
M  V30 1574 O 147.956 -1.10662 1.68273 0
M  V30 1575 C 145.021 -1.61855 3.066 0
M  V30 1576 C 144.082 -1.04429 4.16405 0
M  V30 1577 C 143.315 -2.11621 4.89951 0
M  V30 1578 O 143.538 -3.32684 4.63333 0
M  V30 1579 O 142.472 -1.74835 5.75948 0
M  V30 1580 H 146.298 0.125331 3.03441 0
M  V30 1581 H 143.883 0.127253 1.48857 0
M  V30 1582 H 145.765 -2.27302 3.54841 0
M  V30 1583 H 144.44 -2.22233 2.3536 0
M  V30 1584 H 143.347 -0.353819 3.72423 0
M  V30 1585 H 144.68 -0.485113 4.89804 0
M  V30 1586 N 146.332 -1.57332 0.0918853 0
M  V30 1587 C 147.242 -2.17368 -0.882505 0
M  V30 1588 C 148.258 -1.14226 -1.31257 0
M  V30 1589 O 149.434 -1.46582 -1.38115 0
M  V30 1590 C 146.499 -2.73962 -2.12476 0
M  V30 1591 C 145.56 -3.92048 -1.7492 0
M  V30 1592 C 144.793 -4.45933 -2.93223 0
M  V30 1593 O 145.016 -3.98764 -4.07852 0
M  V30 1594 O 143.95 -5.36999 -2.71875 0
M  V30 1595 H 147.776 -3.01031 -0.40172 0
M  V30 1596 H 145.361 -1.48813 -0.132291 0
M  V30 1597 H 147.243 -3.10147 -2.85283 0
M  V30 1598 H 145.918 -1.93347 -2.59613 0
M  V30 1599 H 144.825 -3.6068 -0.993025 0
M  V30 1600 H 146.158 -4.74017 -1.32548 0
M  V30 1601 N 147.81 0.181792 -1.56548 0
M  V30 1602 C 148.743 1.25366 -1.90679 0
M  V30 1603 C 149.721 1.43299 -0.768376 0
M  V30 1604 O 150.905 1.58475 -1.02068 0
M  V30 1605 C 148.032 2.61826 -2.1486 0
M  V30 1606 C 147.078 2.60688 -3.37556 0
M  V30 1607 S 147.911 2.10804 -4.92262 0
M  V30 1608 C 149.067 3.49062 -5.19525 0
M  V30 1609 H 149.3 0.962277 -2.81296 0
M  V30 1610 H 146.833 0.385892 -1.495 0
M  V30 1611 H 148.791 3.40371 -2.29473 0
M  V30 1612 H 147.452 2.88169 -1.24969 0
M  V30 1613 H 146.645 3.61058 -3.51643 0
M  V30 1614 H 146.247 1.90232 -3.22006 0
M  V30 1615 H 148.539 4.45003 -5.10861 0
M  V30 1616 H 149.482 3.39859 -6.2121 0
M  V30 1617 H 149.89 3.4459 -4.47122 0
M  V30 1618 N 149.288 1.51039 0.449983 0
M  V30 1619 C 150.537 1.62317 1.19733 0
M  V30 1620 C 150.85 0.339101 1.92638 0
M  V30 1621 O 152.056 0.331069 2.69474 0
M  V30 1622 C 150.512 2.86608 2.17678 0
M  V30 1623 C 150.12 4.21972 1.50479 0
M  V30 1624 C 151.864 3.07239 2.92924 0
M  V30 1625 C 149.771 5.37426 2.46834 0
M  V30 1626 H 148.701 0.604532 0.450619 0
M  V30 1627 H 151.352 1.77494 0.465625 0
M  V30 1628 H 149.734 2.65037 2.94231 0
M  V30 1629 H 150.908 4.53878 0.795716 0
M  V30 1630 H 149.223 4.07117 0.874344 0
M  V30 1631 H 151.82 3.90668 3.65079 0
M  V30 1632 H 152.163 2.19807 3.5354 0
M  V30 1633 H 152.696 3.29091 2.23481 0
M  V30 1634 H 149.435 6.27079 1.90926 0
M  V30 1635 H 148.955 5.09912 3.15832 0
M  V30 1636 H 150.634 5.68862 3.08228 0
M  V30 1637 N 150.766 -0.704594 1.40972 0
M  V30 1638 C 152.043 -1.45847 1.30338 0
M  V30 1639 C 152.423 -2.10973 -0.0732344 0
M  V30 1640 O 151.771 -2.00997 -1.08685 0
M  V30 1641 C 151.981 -2.48525 2.45023 0
M  V30 1642 C 153.329 -3.1404 2.8577 0
M  V30 1643 O 154.353 -2.58848 2.44696 0
M  V30 1644 O 153.212 -4.13981 3.56766 0
M  V30 1645 H 150.306 -0.649092 0.512454 0
M  V30 1646 H 152.852 -0.735836 1.52917 0
M  V30 1647 H 151.624 -1.98994 3.36923 0
M  V30 1648 H 151.247 -3.2831 2.24272 0
M  V30 1649 N 152.244 -1.26651 -0.937939 0
M  V30 1650 C 153.191 -1.0849 -2.03712 0
M  V30 1651 C 154.161 0.011033 -1.66096 0
M  V30 1652 O 155.346 -0.149353 -1.90215 0
M  V30 1653 C 152.486 -0.72735 -3.37348 0
M  V30 1654 C 151.599 -1.89986 -3.87981 0
M  V30 1655 C 150.734 -1.48513 -5.10017 0
M  V30 1656 C 149.773 -2.62575 -5.5292 0
M  V30 1657 N 148.91 -2.21762 -6.66158 0
M  V30 1658 H 153.75 -2.02551 -2.18579 0
M  V30 1659 H 151.287 -1.00844 -1.07093 0
M  V30 1660 H 153.245 -0.50092 -4.14182 0
M  V30 1661 H 151.875 0.176298 -3.22318 0
M  V30 1662 H 150.927 -2.23913 -3.07518 0
M  V30 1663 H 152.239 -2.75586 -4.15757 0
M  V30 1664 H 151.393 -1.21934 -5.94321 0
M  V30 1665 H 150.132 -0.60009 -4.83994 0
M  V30 1666 H 149.137 -2.8988 -4.67172 0
M  V30 1667 H 150.362 -3.51685 -5.80943 0
M  V30 1668 H 148.308 -1.35696 -6.41812 0
M  V30 1669 H 148.225 -3.00903 -6.93537 0
M  V30 1670 H 149.493 -1.98403 -7.53828 0
M  V30 1671 N 153.722 1.14298 -1.08507 0
M  V30 1672 C 154.968 1.85633 -0.816581 0
M  V30 1673 C 155.301 1.82784 0.656021 0
M  V30 1674 O 154.576 1.25926 1.48233 0
M  V30 1675 C 154.859 3.34223 -1.34041 0
M  V30 1676 C 154.712 3.45639 -2.87843 0
M  V30 1677 C 156.031 4.29356 -0.9665 0
M  V30 1678 H 153.15 0.67402 -0.298104 0
M  V30 1679 H 155.792 1.34214 -1.34487 0
M  V30 1680 H 153.942 3.78144 -0.89104 0
M  V30 1681 H 155.614 3.10498 -3.41158 0
M  V30 1682 H 153.857 2.86817 -3.25451 0
M  V30 1683 H 154.528 4.50089 -3.19569 0
M  V30 1684 H 157.004 3.93457 -1.35391 0
M  V30 1685 H 155.88 5.3178 -1.3602 0
M  V30 1686 H 156.141 4.41919 0.126362 0
M  V30 1687 N 155.201 0.870884 1.31352 0
M  V30 1688 C 156.478 0.402907 1.91405 0
M  V30 1689 C 156.858 -1.11512 1.79244 0
M  V30 1690 O 156.206 -1.94411 1.2007 0
M  V30 1691 C 156.416 0.885301 3.37585 0
M  V30 1692 C 157.764 0.911971 4.14691 0
M  V30 1693 O 158.788 0.831016 3.46371 0
M  V30 1694 O 157.647 1.02927 5.3672 0
M  V30 1695 H 154.741 0.120698 0.818145 0
M  V30 1696 H 157.287 0.958857 1.40014 0
M  V30 1697 H 156.059 1.92889 3.40455 0
M  V30 1698 H 155.682 0.307714 3.96407 0
M  V30 1699 N 156.679 -1.44442 0.630414 0
M  V30 1700 C 157.956 -1.9549 0.0655657 0
M  V30 1701 C 158.336 -1.5724 -1.40851 0
M  V30 1702 O 157.684 -0.846116 -2.12257 0
M  V30 1703 C 157.894 -3.47812 0.287691 0
M  V30 1704 C 159.242 -4.24216 0.180513 0
M  V30 1705 O 160.266 -3.55526 0.219019 0
M  V30 1706 O 159.125 -5.46434 0.0848493 0
M  V30 1707 H 156.219 -0.826688 -0.0227177 0
M  V30 1708 H 158.765 -1.54496 0.702068 0
M  V30 1709 H 157.537 -3.687 1.31056 0
M  V30 1710 H 157.16 -3.95751 -0.382984 0
M  V30 1711 N 158.157 -0.370918 -1.53173 0
M  V30 1712 C 159.09 0.516727 -2.22273 0
M  V30 1713 C 160.068 1.07877 -1.21661 0
M  V30 1714 O 161.252 1.13389 -1.50583 0
M  V30 1715 C 158.379 1.71346 -2.92161 0
M  V30 1716 C 157.425 1.27838 -4.0689 0
M  V30 1717 S 158.258 0.275217 -5.34792 0
M  V30 1718 C 159.414 1.47816 -6.08195 0
M  V30 1719 H 159.647 -0.0701054 -2.97217 0
M  V30 1720 H 157.18 -0.155038 -1.5362 0
M  V30 1721 H 159.138 2.39988 -3.3304 0
M  V30 1722 H 157.799 2.27156 -2.16931 0
M  V30 1723 H 156.992 2.17141 -4.54825 0
M  V30 1724 H 156.594 0.671105 -3.6793 0
M  V30 1725 H 158.886 2.40831 -6.33251 0
M  V30 1726 H 159.829 1.04008 -7.0042 0
M  V30 1727 H 160.237 1.68663 -5.38714 0
M  V30 1728 N 159.635 1.57281 -0.100228 0
M  V30 1729 C 160.865 1.98591 0.569681 0
M  V30 1730 C 161.273 0.978315 1.61943 0
M  V30 1731 O 160.616 -0.0396108 1.83657 0
M  V30 1732 C 160.678 3.36282 1.271 0
M  V30 1733 C 160.342 4.55488 0.371409 0
M  V30 1734 C 161.339 5.18491 -0.382504 0
M  V30 1735 C 159.024 5.01474 0.287965 0
M  V30 1736 C 161.018 6.25852 -1.20779 0
M  V30 1737 C 158.705 6.08701 -0.540965 0
M  V30 1738 C 159.703 6.70755 -1.28749 0
M  V30 1739 O 159.391 7.75914 -2.10269 0
M  V30 1740 H 159.123 0.65752 0.156982 0
M  V30 1741 H 161.677 2.0463 -0.177734 0
M  V30 1742 H 159.907 3.26941 2.0651 0
M  V30 1743 H 161.596 3.62005 1.83595 0
M  V30 1744 H 162.362 4.83891 -0.3278 0
M  V30 1745 H 158.241 4.52932 0.858689 0
M  V30 1746 H 161.785 6.74218 -1.79096 0
M  V30 1747 H 157.682 6.42732 -0.597131 0
M  V30 1748 H 158.45 7.92925 -2.03007 0
M  V30 1749 N 161.113 -0.173488 1.56642 0
M  V30 1750 C 162.362 -0.888758 1.81063 0
M  V30 1751 C 162.675 -1.83506 0.67712 0
M  V30 1752 O 163.881 -2.59254 0.806206 0
M  V30 1753 C 162.337 -1.63091 3.20826 0
M  V30 1754 C 161.945 -0.728357 4.4204 0
M  V30 1755 C 163.689 -2.33454 3.54541 0
M  V30 1756 C 161.596 -1.47062 5.72823 0
M  V30 1757 H 160.526 -0.335618 0.675186 0
M  V30 1758 H 163.177 -0.141712 1.82952 0
M  V30 1759 H 161.559 -2.42263 3.13248 0
M  V30 1760 H 162.733 0.0262449 4.60793 0
M  V30 1761 H 161.048 -0.134492 4.16183 0
M  V30 1762 H 163.645 -2.89578 4.49498 0
M  V30 1763 H 163.988 -3.08687 2.79317 0
M  V30 1764 H 164.521 -1.61227 3.63663 0
M  V30 1765 H 161.26 -0.760658 6.51072 0
M  V30 1766 H 160.78 -2.1986 5.58052 0
M  V30 1767 H 162.459 -2.01868 6.14702 0
M  V30 1768 N 162.591 -1.51276 -0.441967 0
M  V30 1769 C 163.819 -1.67516 -1.21434 0
M  V30 1770 C 164.234 -0.37055 -1.85128 0
M  V30 1771 O 163.591 0.650498 -1.70513 0
M  V30 1772 C 163.642 -2.78748 -2.30177 0
M  V30 1773 O 163.363 -4.04154 -1.69089 0
M  V30 1774 C 164.864 -3.06217 -3.20541 0
M  V30 1775 H 162.084 -0.562276 -0.366178 0
M  V30 1776 H 164.628 -1.97666 -0.524244 0
M  V30 1777 H 162.783 -2.5121 -2.94911 0
M  V30 1778 H 163.197 -4.65894 -2.40922 0
M  V30 1779 H 164.671 -3.8764 -3.92987 0
M  V30 1780 H 165.148 -2.18439 -3.81026 0
M  V30 1781 H 165.754 -3.35397 -2.61513 0
M  V30 1782 N 164.069 0.697108 -1.41344 0
M  V30 1783 C 165.315 1.4593 -1.40827 0
M  V30 1784 C 165.648 1.94193 -0.0167098 0
M  V30 1785 O 164.923 1.69425 0.955263 0
M  V30 1786 C 165.206 2.67229 -2.41373 0
M  V30 1787 C 165.059 2.24741 -3.8963 0
M  V30 1788 C 166.378 3.69423 -2.39196 0
M  V30 1789 H 163.497 0.529303 -0.512842 0
M  V30 1790 H 166.139 0.794112 -1.72609 0
M  V30 1791 H 164.289 3.23982 -2.14401 0
M  V30 1792 H 165.961 1.73327 -4.27499 0
M  V30 1793 H 164.204 1.56542 -4.0457 0
M  V30 1794 H 164.875 3.1177 -4.55525 0
M  V30 1795 H 167.351 3.2234 -2.63128 0
M  V30 1796 H 166.227 4.51907 -3.11563 0
M  V30 1797 H 166.488 4.19012 -1.41001 0
M  V30 1798 N 165.547 1.27147 0.931209 0
M  V30 1799 C 166.796 1.12664 1.67302 0
M  V30 1800 C 167.109 -0.327718 1.92835 0
M  V30 1801 O 168.315 -0.593392 2.64936 0
M  V30 1802 C 166.771 1.9683 3.01307 0
M  V30 1803 C 166.379 3.46901 2.83485 0
M  V30 1804 C 168.123 1.90985 3.79111 0
M  V30 1805 C 166.03 4.23279 4.13024 0
M  V30 1806 H 164.96 0.41803 0.627509 0
M  V30 1807 H 167.611 1.51539 1.03481 0
M  V30 1808 H 165.993 1.50797 3.66164 0
M  V30 1809 H 167.167 4.00773 2.27415 0
M  V30 1810 H 165.482 3.54088 2.19113 0
M  V30 1811 H 168.079 2.45328 4.75098 0
M  V30 1812 H 168.422 0.882718 4.06834 0
M  V30 1813 H 168.955 2.34895 3.21044 0
M  V30 1814 H 165.694 5.26503 3.90481 0
M  V30 1815 H 165.214 3.74186 4.6877 0
M  V30 1816 H 166.893 4.32265 4.81411 0
M  V30 1817 N 167.025 -1.13721 1.09112 0
M  V30 1818 C 167.935 -2.22638 0.73957 0
M  V30 1819 C 168.951 -1.72091 -0.257068 0
M  V30 1820 O 170.127 -2.01155 -0.0992154 0
M  V30 1821 C 167.192 -3.46322 0.16191 0
M  V30 1822 C 166.253 -4.11775 1.21408 0
M  V30 1823 C 165.486 -5.29555 0.663891 0
M  V30 1824 O 165.709 -5.68077 -0.514274 0
M  V30 1825 O 164.643 -5.84973 1.41738 0
M  V30 1826 H 168.469 -2.55074 1.64836 0
M  V30 1827 H 166.054 -1.21791 0.865289 0
M  V30 1828 H 167.936 -4.21107 -0.157073 0
M  V30 1829 H 166.611 -3.15593 -0.719932 0
M  V30 1830 H 165.518 -3.3883 1.58571 0
M  V30 1831 H 166.851 -4.46627 2.06845 0
M  V30 1832 N 168.503 -0.877838 -1.30888 0
M  V30 1833 C 169.751 -0.491723 -1.96027 0
M  V30 1834 C 170.072 0.960827 -1.69685 0
M  V30 1835 O 169.342 1.67462 -1.01654 0
M  V30 1836 H 167.922 -0.17885 -0.725273 0
M  V30 1837 H 170.584 -1.11935 -1.59551 0
M  V30 1838 H 169.68 -0.656016 -3.05128 0
M  V30 1839 N 169.982 1.44106 -0.638065 0
M  V30 1840 C 170.929 2.30715 0.062701 0
M  V30 1841 C 171.899 1.43882 0.829883 0
M  V30 1842 O 173.084 1.72775 0.809532 0
M  V30 1843 C 170.224 3.29258 1.03358 0
M  V30 1844 C 169.337 4.31192 0.26409 0
M  V30 1845 C 168.472 5.16825 1.22741 0
M  V30 1846 C 167.511 6.10462 0.447475 0
M  V30 1847 N 166.648 6.8877 1.36161 0
M  V30 1848 H 171.488 2.90096 -0.681781 0
M  V30 1849 H 169.025 1.42925 -0.347988 0
M  V30 1850 H 170.983 3.84886 1.60992 0
M  V30 1851 H 169.613 2.71562 1.74511 0
M  V30 1852 H 168.665 3.77981 -0.428295 0
M  V30 1853 H 169.977 4.97619 -0.343052 0
M  V30 1854 H 169.131 5.77004 1.87487 0
M  V30 1855 H 167.87 4.50488 1.86847 0
M  V30 1856 H 166.875 5.49386 -0.213433 0
M  V30 1857 H 168.1 6.78837 -0.188968 0
M  V30 1858 H 166.046 6.25096 1.98975 0
M  V30 1859 H 165.963 7.51663 0.808656 0
M  V30 1860 H 167.231 7.53467 1.99769 0
M  V30 1861 N 171.46 0.379036 1.52974 0
M  V30 1862 C 172.707 -0.206421 2.01445 0
M  V30 1863 C 173.035 -1.47668 1.26587 0
M  V30 1864 O 172.29 -1.92514 0.351675 0
M  V30 1865 C 172.589 -0.53096 3.53434 0
M  V30 1866 C 172.255 0.646546 4.46241 0
M  V30 1867 C 170.917 0.969604 4.7133 0
M  V30 1868 C 173.269 1.43479 5.01062 0
M  V30 1869 C 170.597 2.08263 5.48492 0
M  V30 1870 C 172.949 2.53834 5.7944 0
M  V30 1871 C 171.613 2.86659 6.02812 0
M  V30 1872 H 170.883 -0.0755349 0.73714 0
M  V30 1873 H 173.53 0.514271 1.84465 0
M  V30 1874 H 171.835 -1.33285 3.68432 0
M  V30 1875 H 173.532 -0.996417 3.88423 0
M  V30 1876 H 170.122 0.384734 4.2687 0
M  V30 1877 H 174.306 1.19844 4.81613 0
M  V30 1878 H 169.562 2.34078 5.64816 0
M  V30 1879 H 173.736 3.15319 6.20924 0
M  V30 1880 H 171.363 3.73026 6.62387 0
M  V30 1881 N 172.938 -1.57226 0.108567 0
M  V30 1882 C 174.354 -1.5766 -0.248058 0
M  V30 1883 C 174.554 -1.12063 -1.67464 0
M  V30 1884 O 173.61 -0.803236 -2.39383 0
M  V30 1885 C 174.923 -3.0069 -0.0242287 0
M  V30 1886 C 176.471 -3.12868 -0.0909372 0
M  V30 1887 C 176.946 -4.57879 0.105067 0
M  V30 1888 N 178.437 -4.63172 0.0506846 0
M  V30 1889 C 179.172 -5.73126 0.177396 0
M  V30 1890 N 178.668 -6.91866 0.359696 0
M  V30 1891 N 180.461 -5.61977 0.117709 0
M  V30 1892 H 172.612 -1.85169 1.04049 0
M  V30 1893 H 174.875 -0.85529 0.40888 0
M  V30 1894 H 174.581 -3.38299 0.961604 0
M  V30 1895 H 174.455 -3.6945 -0.76068 0
M  V30 1896 H 176.842 -2.75124 -1.06729 0
M  V30 1897 H 176.923 -2.46672 0.677225 0
M  V30 1898 H 176.567 -4.96321 1.07834 0
M  V30 1899 H 176.497 -5.22153 -0.682954 0
M  V30 1900 H 178.988 -3.778 -0.0871266 0
M  V30 1901 H 179.301 -7.71503 0.447529 0
M  V30 1902 H 177.646 -6.93874 0.395536 0
M  V30 1903 H 180.837 -4.68094 -0.0236741 0
M  V30 1904 H 181.01 -6.47627 0.219905 0
M  V30 1905 N 174.416 0.165178 -1.56732 0
M  V30 1906 C 175.664 0.879068 -1.8198 0
M  V30 1907 C 175.985 1.82514 -0.686561 0
M  V30 1908 O 175.255 1.93694 0.293146 0
M  V30 1909 H 173.835 0.327608 -0.671329 0
M  V30 1910 H 176.497 0.163526 -1.94213 0
M  V30 1911 H 175.593 1.45228 -2.76252 0
M  V30 1912 N 175.894 1.51508 0.433938 0
M  V30 1913 C 177.171 1.54888 1.19453 0
M  V30 1914 C 177.551 0.315154 2.08734 0
M  V30 1915 O 176.899 -0.699558 2.17528 0
M  V30 1916 C 177.109 2.86467 1.99342 0
M  V30 1917 C 178.457 3.38545 2.56267 0
M  V30 1918 O 179.481 2.88041 2.0955 0
M  V30 1919 O 178.34 4.26675 3.41483 0
M  V30 1920 H 175.434 0.622863 0.544032 0
M  V30 1921 H 177.98 1.63823 0.442732 0
M  V30 1922 H 176.752 3.67718 1.33788 0
M  V30 1923 H 176.375 2.8071 2.8158 0
M  V30 1924 N 177.372 -0.689602 1.41712 0
M  V30 1925 C 178.6 -1.47827 1.44758 0
M  V30 1926 C 179.015 -1.88721 0.0545703 0
M  V30 1927 O 178.372 -1.57176 -0.927463 0
M  V30 1928 C 178.423 -2.73698 2.3616 0
M  V30 1929 O 178.144 -2.34524 3.7004 0
M  V30 1930 C 179.645 -3.67389 2.48072 0
M  V30 1931 H 176.865 -0.455357 0.49284 0
M  V30 1932 H 179.409 -0.848574 1.86063 0
M  V30 1933 H 177.564 -3.32891 1.98148 0
M  V30 1934 H 177.978 -3.15701 4.18847 0
M  V30 1935 H 179.452 -4.52475 3.16181 0
M  V30 1936 H 179.929 -4.12284 1.51388 0
M  V30 1937 H 180.535 -3.14097 2.86746 0
M  V30 1938 N 178.85 -1.27639 -0.924453 0
M  V30 1939 C 180.097 -1.14167 -1.67249 0
M  V30 1940 C 180.425 0.311863 -1.91984 0
M  V30 1941 O 179.68 1.24425 -1.51053 0
M  V30 1942 C 179.979 -1.87407 -3.04325 0
M  V30 1943 C 179.645 -3.37249 -2.99289 0
M  V30 1944 C 178.307 -3.7812 -2.97622 0
M  V30 1945 C 180.659 -4.32845 -2.90336 0
M  V30 1946 C 177.987 -5.12944 -2.8479 0
M  V30 1947 C 180.339 -5.6773 -2.79045 0
M  V30 1948 C 179.003 -6.07889 -2.7573 0
M  V30 1949 H 178.273 -0.417766 -0.612007 0
M  V30 1950 H 180.92 -1.58286 -1.07786 0
M  V30 1951 H 179.225 -1.35805 -3.67511 0
M  V30 1952 H 180.922 -1.74408 -3.61086 0
M  V30 1953 H 177.512 -3.04748 -3.01374 0
M  V30 1954 H 181.696 -4.02239 -2.90719 0
M  V30 1955 H 176.952 -5.432 -2.80612 0
M  V30 1956 H 181.126 -6.41472 -2.71083 0
M  V30 1957 H 178.753 -7.12314 -2.65544 0
M  V30 1958 N 180.328 1.1314 -1.09713 0
M  V30 1959 C 181.575 1.84484 -0.834987 0
M  V30 1960 C 181.903 1.83689 0.639418 0
M  V30 1961 O 181.158 1.2724 1.4869 0
M  V30 1962 C 181.457 3.32167 -1.3191 0
M  V30 1963 C 181.123 3.53139 -2.80363 0
M  V30 1964 C 179.785 3.58571 -3.20905 0
M  V30 1965 C 182.137 3.60866 -3.76065 0
M  V30 1966 C 179.465 3.69267 -4.55916 0
M  V30 1967 C 181.817 3.73089 -5.10869 0
M  V30 1968 C 180.481 3.76775 -5.50996 0
M  V30 1969 H 179.751 0.675073 -0.305544 0
M  V30 1970 H 182.398 1.33554 -1.37243 0
M  V30 1971 H 180.703 3.85469 -0.701517 0
M  V30 1972 H 182.4 3.85821 -1.09284 0
M  V30 1973 H 178.99 3.49569 -2.47991 0
M  V30 1974 H 183.174 3.55946 -3.45855 0
M  V30 1975 H 178.43 3.70388 -4.86438 0
M  V30 1976 H 182.604 3.78011 -5.84877 0
M  V30 1977 H 180.231 3.84815 -6.55608 0
M  V30 1978 N 181.806 0.884767 1.30421 0
M  V30 1979 C 183.217 0.553656 1.78302 0
M  V30 1980 C 183.568 -0.930153 1.7275 0
M  V30 1981 O 182.693 -1.72681 1.30423 0
M  V30 1982 C 183.288 0.998234 3.2376 0
M  V30 1983 C 181.847 0.71854 3.69478 0
M  V30 1984 C 180.994 1.18132 2.50879 0
M  V30 1985 H 183.945 1.06901 1.17294 0
M  V30 1986 H 183.966 0.327118 3.79091 0
M  V30 1987 H 183.478 2.0782 3.27769 0
M  V30 1988 H 181.579 -0.349444 3.70958 0
M  V30 1989 H 181.692 1.30595 4.60958 0
M  V30 1990 H 180.056 0.600669 2.47516 0
M  V30 1991 H 180.839 2.26902 2.57624 0
M  V30 1992 N 183.284 -1.43765 0.645699 0
M  V30 1993 C 184.695 -1.85193 0.236719 0
M  V30 1994 C 185.046 -1.54045 -1.21509 0
M  V30 1995 O 184.171 -0.985694 -1.92647 0
M  V30 1996 C 184.766 -3.36151 0.422845 0
M  V30 1997 C 183.325 -3.76338 0.0682492 0
M  V30 1998 C 182.472 -2.67538 0.729306 0
M  V30 1999 H 185.423 -1.34025 0.849883 0
M  V30 2000 H 185.444 -3.79032 -0.333904 0
M  V30 2001 H 184.956 -3.5879 1.47958 0
M  V30 2002 H 183.057 -3.59312 -0.986179 0
M  V30 2003 H 183.17 -4.76603 0.488469 0
M  V30 2004 H 181.534 -2.54176 0.163235 0
M  V30 2005 H 182.317 -2.93006 1.78892 0
M  V30 2006 N 184.763 -0.387143 -1.52771 0
M  V30 2007 C 185.993 0.195585 -2.05672 0
M  V30 2008 C 186.401 1.41241 -1.25887 0
M  V30 2009 O 185.744 1.81265 -0.298081 0
M  V30 2010 C 185.806 0.632327 -3.53895 0
M  V30 2011 C 185.47 -0.470739 -4.54569 0
M  V30 2012 C 186.467 -1.32746 -5.02667 0
M  V30 2013 C 184.152 -0.637151 -4.98243 0
M  V30 2014 C 186.146 -2.33574 -5.93061 0
M  V30 2015 C 183.833 -1.64877 -5.88438 0
M  V30 2016 C 184.831 -2.49649 -6.35739 0
M  V30 2017 O 184.519 -3.49082 -7.24153 0
M  V30 2018 H 184.251 0.033658 -0.675162 0
M  V30 2019 H 186.805 -0.550221 -1.97893 0
M  V30 2020 H 185.035 1.43008 -3.59285 0
M  V30 2021 H 186.724 1.14048 -3.89548 0
M  V30 2022 H 187.49 -1.21019 -4.69659 0
M  V30 2023 H 183.369 0.0129567 -4.60998 0
M  V30 2024 H 186.913 -2.99777 -6.29904 0
M  V30 2025 H 182.81 -1.76643 -6.2086 0
M  V30 2026 H 183.578 -3.45065 -7.42208 0
M  V30 2027 N 186.241 1.57166 -0.116904 0
M  V30 2028 C 187.469 1.99473 0.549383 0
M  V30 2029 C 187.884 0.996541 1.60357 0
M  V30 2030 O 187.241 -0.0108731 1.82497 0
M  V30 2031 C 187.292 3.41788 1.17741 0
M  V30 2032 O 187.013 4.37788 0.165362 0
M  V30 2033 C 188.514 3.99216 1.92722 0
M  V30 2034 H 185.734 0.655009 0.145616 0
M  V30 2035 H 188.278 2.03494 -0.202625 0
M  V30 2036 H 186.433 3.38713 1.88021 0
M  V30 2037 H 186.847 5.20806 0.621403 0
M  V30 2038 H 188.321 5.00882 2.31995 0
M  V30 2039 H 188.798 3.3824 2.80161 0
M  V30 2040 H 189.404 4.0583 1.27209 0
M  V30 2041 N 187.719 -0.156864 1.56817 0
M  V30 2042 C 188.966 -0.871125 1.82805 0
M  V30 2043 C 189.294 -1.81611 0.696262 0
M  V30 2044 O 188.549 -1.93141 -0.315459 0
M  V30 2045 C 188.848 -1.68737 3.1506 0
M  V30 2046 C 188.514 -0.890045 4.42028 0
M  V30 2047 C 187.176 -0.670042 4.76512 0
M  V30 2048 C 189.528 -0.331769 5.20143 0
M  V30 2049 C 186.856 0.119104 5.86579 0
M  V30 2050 C 189.208 0.444365 6.31037 0
M  V30 2051 C 187.872 0.675035 6.64078 0
M  V30 2052 H 187.142 -0.318767 0.668931 0
M  V30 2053 H 189.789 -0.135274 1.91022 0
M  V30 2054 H 188.094 -2.49304 3.0225 0
M  V30 2055 H 189.791 -2.24331 3.3238 0
M  V30 2056 H 186.381 -1.07157 4.14988 0
M  V30 2057 H 190.565 -0.489043 4.93885 0
M  V30 2058 H 185.821 0.307417 6.10627 0
M  V30 2059 H 189.995 0.884139 6.90765 0
M  V30 2060 H 187.622 1.28839 7.49203 0
M  V30 2061 N 189.197 -1.51736 -0.425897 0
M  V30 2062 C 190.107 -1.76738 -1.54275 0
M  V30 2063 C 191.123 -0.65211 -1.61318 0
M  V30 2064 O 192.299 -0.935654 -1.78346 0
M  V30 2065 C 189.364 -1.89755 -2.90162 0
M  V30 2066 C 188.425 -3.13633 -2.93143 0
M  V30 2067 C 187.658 -3.2602 -4.22548 0
M  V30 2068 O 187.881 -2.44067 -5.15546 0
M  V30 2069 O 186.815 -4.19071 -4.32046 0
M  V30 2070 H 190.641 -2.71502 -1.36089 0
M  V30 2071 H 188.226 -1.36376 -0.610069 0
M  V30 2072 H 190.108 -2.00236 -3.70788 0
M  V30 2073 H 188.783 -0.981785 -3.08452 0
M  V30 2074 H 187.69 -3.08622 -2.11431 0
M  V30 2075 H 189.023 -4.04936 -2.798 0
M  V30 2076 N 190.675 0.682077 -1.42076 0
M  V30 2077 C 191.952 1.43755 -1.32642 0
M  V30 2078 C 192.332 2.11063 0.0396611 0
M  V30 2079 O 191.68 2.02701 1.05474 0
M  V30 2080 C 191.89 2.44596 -2.48946 0
M  V30 2081 C 193.238 3.09454 -2.9073 0
M  V30 2082 O 194.262 2.54922 -2.48783 0
M  V30 2083 O 193.121 4.08253 -3.63307 0
M  V30 2084 H 190.215 0.640857 -0.522715 0
M  V30 2085 H 192.761 0.711415 -1.54068 0
M  V30 2086 H 191.533 1.93609 -3.40046 0
M  V30 2087 H 191.156 3.24701 -2.29467 0
M  V30 2088 N 192.153 1.28127 0.917671 0
M  V30 2089 C 193.399 1.16232 1.66918 0
M  V30 2090 C 193.754 -0.28701 1.90247 0
M  V30 2091 O 193.047 -1.20586 1.48895 0
M  V30 2092 C 193.241 1.89018 3.03327 0
M  V30 2093 C 193.07 3.4088 2.9331 0
M  V30 2094 C 191.84 4.10214 2.95047 0
M  V30 2095 C 194.038 4.36689 2.71675 0
M  V30 2096 N 192.02 5.48571 2.75577 0
M  V30 2097 C 193.391 5.62382 2.6101 0
M  V30 2098 C 195.446 4.26661 2.56641 0
M  V30 2099 C 194.149 6.79189 2.36843 0
M  V30 2100 C 196.175 5.432 2.33853 0
M  V30 2101 C 195.537 6.67855 2.23939 0
M  V30 2102 H 191.636 0.48024 0.617166 0
M  V30 2103 H 194.22 1.61727 1.08409 0
M  V30 2104 H 192.391 1.45963 3.59929 0
M  V30 2105 H 194.123 1.69541 3.67475 0
M  V30 2106 H 190.878 3.61762 3.05655 0
M  V30 2107 H 191.302 6.21287 2.68945 0
M  V30 2108 H 195.944 3.30998 2.63059 0
M  V30 2109 H 193.662 7.74926 2.29164 0
M  V30 2110 H 197.248 5.37328 2.23091 0
M  V30 2111 H 196.128 7.56511 2.06546 0
M  V30 2112 N 193.631 -1.12557 1.10312 0
M  V30 2113 C 194.541 -2.21841 0.763142 0
M  V30 2114 C 195.557 -1.72354 -0.238801 0
M  V30 2115 O 196.733 -2.01249 -0.0778746 0
M  V30 2116 C 193.798 -3.46131 0.198632 0
M  V30 2117 C 192.859 -4.10464 1.25769 0
M  V30 2118 C 192.092 -5.28821 0.72002 0
M  V30 2119 O 192.315 -5.6859 -0.453993 0
M  V30 2120 O 191.249 -5.83437 1.47935 0
M  V30 2121 H 195.075 -2.53312 1.67532 0
M  V30 2122 H 192.66 -1.20867 0.878157 0
M  V30 2123 H 194.542 -4.2125 -0.112401 0
M  V30 2124 H 193.217 -3.16338 -0.686419 0
M  V30 2125 H 192.124 -3.3713 1.62156 0
M  V30 2126 H 193.457 -4.44408 2.11571 0
M  V30 2127 N 195.109 -0.891671 -1.2995 0
M  V30 2128 C 196.355 -0.514261 -1.96171 0
M  V30 2129 C 196.688 0.935506 -1.70182 0
M  V30 2130 O 195.963 1.66204 -1.01028 0
M  V30 2131 C 196.246 -0.797719 -3.51153 0
M  V30 2132 C 196.099 -2.2986 -3.86632 0
M  V30 2133 C 197.418 -0.278749 -4.39216 0
M  V30 2134 H 194.537 -0.188314 -0.712535 0
M  V30 2135 H 197.179 -1.11689 -1.53706 0
M  V30 2136 H 195.329 -0.284826 -3.87455 0
M  V30 2137 H 197.001 -2.88042 -3.60319 0
M  V30 2138 H 195.244 -2.76257 -3.34462 0
M  V30 2139 H 195.915 -2.44753 -4.94773 0
M  V30 2140 H 198.391 -0.717825 -4.09862 0
M  V30 2141 H 197.267 -0.506353 -5.46559 0
M  V30 2142 H 197.528 0.820266 -4.34424 0
M  V30 2143 N 196.587 1.43421 -0.653314 0
M  V30 2144 C 197.55 2.29182 0.0287951 0
M  V30 2145 C 198.55 1.42213 0.750465 0
M  V30 2146 O 199.74 1.63843 0.591701 0
M  V30 2147 C 196.872 3.24278 1.05151 0
M  V30 2148 H 198.065 2.90985 -0.725786 0
M  V30 2149 H 195.618 1.50702 -0.414545 0
M  V30 2150 H 196.353 2.6737 1.83532 0
M  V30 2151 H 196.138 3.88396 0.537687 0
M  V30 2152 H 197.628 3.88647 1.52786 0
M  V30 2153 N 198.065 0.39524 1.52563 0
M  V30 2154 C 199.29 -0.187456 2.06551 0
M  V30 2155 C 199.715 -1.39249 1.26457 0
M  V30 2156 O 199.073 -1.78947 0.291151 0
M  V30 2157 C 199.121 -0.529985 3.56684 0
M  V30 2158 O 198.225 -1.62307 3.79118 0
M  V30 2159 H 197.566 -0.0202537 0.663691 0
M  V30 2160 H 200.096 0.564426 1.96661 0
M  V30 2161 H 200.106 -0.792598 4.00227 0
M  V30 2162 H 198.781 0.350987 4.14416 0
M  V30 2163 H 197.358 -1.3537 3.47461 0
M  V30 2164 N 199.544 -1.57102 0.125237 0
M  V30 2165 C 200.769 -2.0019 -0.542101 0
M  V30 2166 C 201.194 -1.00449 -1.59034 0
M  V30 2167 O 200.552 0.0229423 -1.81285 0
M  V30 2168 C 200.6 -3.42129 -1.13929 0
M  V30 2169 O 199.704 -3.45307 -2.2547 0
M  V30 2170 H 199.045 -0.650171 -0.134812 0
M  V30 2171 H 201.575 -2.03461 0.215553 0
M  V30 2172 H 201.585 -3.80471 -1.4733 0
M  V30 2173 H 200.26 -4.14237 -0.371531 0
M  V30 2174 H 198.837 -3.1879 -1.93462 0
M  V30 2175 N 201.022 0.148545 -1.56898 0
M  V30 2176 C 202.268 0.862694 -1.83536 0
M  V30 2177 C 202.601 1.80889 -0.706604 0
M  V30 2178 O 201.876 1.92328 0.289885 0
M  V30 2179 C 202.159 1.63853 -3.20662 0
M  V30 2180 C 202.012 0.713925 -4.44098 0
M  V30 2181 C 203.331 2.60133 -3.54991 0
M  V30 2182 H 200.45 0.312179 -0.667618 0
M  V30 2183 H 203.092 0.127953 -1.89569 0
M  V30 2184 H 201.242 2.26489 -3.1565 0
M  V30 2185 H 202.914 0.098686 -4.61194 0
M  V30 2186 H 201.157 0.0234019 -4.33794 0
M  V30 2187 H 201.828 1.29278 -5.36648 0
M  V30 2188 H 204.304 2.07616 -3.60603 0
M  V30 2189 H 203.18 3.11468 -4.51972 0
M  V30 2190 H 203.441 3.41417 -2.80868 0
M  V30 2191 N 202.5 1.5196 0.417844 0
M  V30 2192 C 203.41 1.77554 1.53336 0
M  V30 2193 C 204.426 0.660655 1.6097 0
M  V30 2194 O 205.602 0.945099 1.77848 0
M  V30 2195 C 202.667 1.91291 2.89152 0
M  V30 2196 C 201.728 3.15183 2.91475 0
M  V30 2197 C 200.961 3.28256 4.20813 0
M  V30 2198 O 201.184 2.46798 5.14244 0
M  V30 2199 O 200.118 4.21356 4.29817 0
M  V30 2200 H 203.944 2.7222 1.34647 0
M  V30 2201 H 201.529 1.36698 0.602828 0
M  V30 2202 H 203.411 2.02199 3.69721 0
M  V30 2203 H 202.086 0.998129 3.07927 0
M  V30 2204 H 200.993 3.09739 2.09791 0
M  V30 2205 H 202.326 4.06414 2.77648 0
M  V30 2206 N 203.978 -0.674533 1.42435 0
M  V30 2207 C 205.226 -1.43175 1.42637 0
M  V30 2208 C 205.547 -1.94951 0.0438992 0
M  V30 2209 O 204.817 -1.7308 -0.917607 0
M  V30 2210 H 203.397 -0.531307 0.525092 0
M  V30 2211 H 206.059 -0.797006 1.77859 0
M  V30 2212 H 205.155 -2.28463 2.12629 0
M  V30 2213 N 205.456 -1.28612 -0.910864 0
M  V30 2214 C 206.403 -1.12786 -2.01365 0
M  V30 2215 C 207.373 -0.024201 -1.66082 0
M  V30 2216 O 208.558 -0.189667 -1.89855 0
M  V30 2217 C 205.698 -0.798743 -3.35729 0
M  V30 2218 C 204.811 -1.98173 -3.83864 0
M  V30 2219 C 203.946 -1.59298 -5.06752 0
M  V30 2220 C 202.985 -2.74245 -5.47226 0
M  V30 2221 N 202.122 -2.35842 -6.61304 0
M  V30 2222 H 206.962 -2.07142 -2.14234 0
M  V30 2223 H 204.499 -1.03093 -1.0493 0
M  V30 2224 H 206.457 -0.588662 -4.13026 0
M  V30 2225 H 205.087 0.10789 -3.2262 0
M  V30 2226 H 204.139 -2.30386 -3.02699 0
M  V30 2227 H 205.451 -2.84343 -4.09818 0
M  V30 2228 H 204.605 -1.34513 -5.916 0
M  V30 2229 H 203.344 -0.702618 -4.82612 0
M  V30 2230 H 202.349 -2.99725 -4.60918 0
M  V30 2231 H 203.574 -3.63928 -5.73353 0
M  V30 2232 H 201.52 -1.49279 -6.38789 0
M  V30 2233 H 201.437 -3.15546 -6.86998 0
M  V30 2234 H 202.705 -2.14348 -7.4945 0
M  V30 2235 N 206.934 1.1197 -1.10907 0
M  V30 2236 C 207.864 2.19928 -0.784473 0
M  V30 2237 C 208.845 1.6833 0.244726 0
M  V30 2238 O 210.03 1.93892 0.109418 0
M  V30 2239 C 207.16 3.46597 -0.220827 0
M  V30 2240 C 206.114 4.11376 -1.18127 0
M  V30 2241 C 205.44 5.32554 -0.478594 0
M  V30 2242 C 206.74 4.56945 -2.52979 0
M  V30 2243 H 208.434 2.47337 -1.68715 0
M  V30 2244 H 205.98 1.18879 -0.812642 0
M  V30 2245 H 207.933 4.21396 0.0184278 0
M  V30 2246 H 206.657 3.1863 0.717113 0
M  V30 2247 H 205.316 3.38564 -1.40606 0
M  V30 2248 H 204.964 5.00856 0.463976 0
M  V30 2249 H 204.664 5.76844 -1.11912 0
M  V30 2250 H 206.188 6.10096 -0.248 0
M  V30 2251 H 207.602 5.23093 -2.3462 0
M  V30 2252 H 205.999 5.1203 -3.12962 0
M  V30 2253 H 207.069 3.70676 -3.12614 0
M  V30 2254 N 208.412 0.89855 1.29475 0
M  V30 2255 C 209.689 0.443416 1.90508 0
M  V30 2256 C 210.069 -1.07685 1.81569 0
M  V30 2257 O 209.417 -1.9182 1.24166 0
M  V30 2258 C 209.627 0.956708 3.35631 0
M  V30 2259 C 210.975 0.999728 4.12663 0
M  V30 2260 O 211.999 0.904299 3.4453 0
M  V30 2261 O 210.858 1.14289 5.34416 0
M  V30 2262 H 207.952 0.138025 0.815401 0
M  V30 2263 H 210.498 0.98834 1.37949 0
M  V30 2264 H 209.27 2.00067 3.36287 0
M  V30 2265 H 208.893 0.391728 3.95666 0
M  V30 2266 N 209.89 -1.43072 0.660911 0
M  V30 2267 C 210.8 -2.34585 -0.0264163 0
M  V30 2268 C 211.816 -1.54316 -0.803898 0
M  V30 2269 O 212.992 -1.86939 -0.749391 0
M  V30 2270 C 210.057 -3.32689 -0.975639 0
M  V30 2271 C 209.118 -4.2886 -0.194236 0
M  V30 2272 C 208.351 -5.22278 -1.09825 0
M  V30 2273 O 208.574 -5.20299 -2.33763 0
M  V30 2274 O 207.508 -5.99228 -0.566513 0
M  V30 2275 H 211.334 -2.94869 0.727034 0
M  V30 2276 H 208.919 -1.43342 0.42111 0
M  V30 2277 H 210.801 -3.92995 -1.52094 0
M  V30 2278 H 209.476 -2.74898 -1.70918 0
M  V30 2279 H 208.383 -3.72011 0.394835 0
M  V30 2280 H 209.716 -4.89655 0.499899 0
M  V30 2281 N 211.368 -0.403325 -1.52352 0
M  V30 2282 C 212.315 0.425011 -2.26853 0
M  V30 2283 C 213.285 1.04598 -1.29029 0
M  V30 2284 O 214.47 1.07135 -1.57882 0
M  V30 2285 C 211.61 1.53888 -3.08889 0
M  V30 2286 C 210.723 0.939396 -4.21663 0
M  V30 2287 C 209.858 2.02547 -4.91068 0
M  V30 2288 C 208.897 1.40263 -5.95813 0
M  V30 2289 N 208.034 2.4286 -6.58759 0
M  V30 2290 H 212.874 -0.21674 -2.97211 0
M  V30 2291 H 210.411 -0.118722 -1.4662 0
M  V30 2292 H 212.369 2.19558 -3.54753 0
M  V30 2293 H 210.999 2.15074 -2.40714 0
M  V30 2294 H 210.051 0.171898 -3.80011 0
M  V30 2295 H 211.363 0.44436 -4.96817 0
M  V30 2296 H 210.517 2.75958 -5.40308 0
M  V30 2297 H 209.256 2.55415 -4.15469 0
M  V30 2298 H 208.261 0.653833 -5.45898 0
M  V30 2299 H 209.486 0.881719 -6.73352 0
M  V30 2300 H 207.432 2.94871 -5.85992 0
M  V30 2301 H 207.349 1.98152 -7.2957 0
M  V30 2302 H 208.617 3.15858 -7.12639 0
M  V30 2303 N 212.846 1.57033 -0.133567 0
M  V30 2304 C 213.794 2.17348 0.828412 0
M  V30 2305 C 214.788 1.12671 1.26498 0
M  V30 2306 O 215.994 1.30947 1.23502 0
M  V30 2307 H 212.369 0.695775 0.285309 0
M  V30 2308 H 214.34 2.96935 0.295372 0
M  V30 2309 C 213.089 2.79893 2.06289 0
M  V30 2310 H 212.412 3.60147 1.73592 0
M  V30 2311 H 213.852 3.25615 2.71572 0
M  V30 2312 C 212.311 1.77713 2.86216 0
M  V30 2313 O 212.841 1.23937 3.82103 0
M  V30 2314 N 211.047 1.47321 2.50489 0
M  V30 2315 H 210.594 1.91243 1.7258 0
M  V30 2316 H 210.552 0.79199 3.04261 0
M  V30 2317 N 214.325 -0.140222 1.56975 0
M  V30 2318 C 215.553 -0.866437 1.87884 0
M  V30 2319 C 215.968 -1.74428 0.722517 0
M  V30 2320 O 215.325 -1.79891 -0.30749 0
M  V30 2321 C 215.376 -1.71753 3.18093 0
M  V30 2322 O 215.097 -0.875056 4.29272 0
M  V30 2323 C 216.598 -2.55074 3.62563 0
M  V30 2324 H 213.818 -0.25019 0.622612 0
M  V30 2325 H 216.362 -0.130977 2.0408 0
M  V30 2326 H 214.517 -2.40598 3.03631 0
M  V30 2327 H 214.931 -1.46002 5.03769 0
M  V30 2328 H 216.405 -3.10356 4.5649 0
M  V30 2329 H 216.882 -3.31434 2.88181 0
M  V30 2330 H 217.488 -1.91509 3.79743 0
M  V30 2331 N 215.803 -1.52179 -0.40978 0
M  V30 2332 C 217.052 -1.65434 -1.15388 0
M  V30 2333 C 217.365 -0.390056 -1.91671 0
M  V30 2334 O 218.571 -0.402399 -2.68501 0
M  V30 2335 C 217.027 -2.92279 -2.10003 0
M  V30 2336 C 216.635 -4.25813 -1.39239 0
M  V30 2337 C 218.379 -3.14897 -2.84675 0
M  V30 2338 C 216.286 -5.43782 -2.32498 0
M  V30 2339 H 215.216 -0.616267 -0.434432 0
M  V30 2340 H 217.867 -1.78666 -0.418401 0
M  V30 2341 H 216.249 -2.72744 -2.871 0
M  V30 2342 H 217.423 -4.55828 -0.675099 0
M  V30 2343 H 215.738 -4.09292 -0.766097 0
M  V30 2344 H 218.335 -4.0021 -3.54593 0
M  V30 2345 H 218.678 -2.29103 -3.47588 0
M  V30 2346 H 219.211 -3.34901 -2.14677 0
M  V30 2347 H 215.95 -6.3192 -1.74233 0
M  V30 2348 H 215.47 -5.18106 -3.02201 0
M  V30 2349 H 217.149 -5.76834 -2.93038 0
M  V30 2350 N 217.281 0.66697 -1.42791 0
M  V30 2351 C 218.692 1.2478 -1.38877 0
M  V30 2352 C 219.043 1.96012 -0.0859426 0
M  V30 2353 O 218.168 2.00463 0.815081 0
M  V30 2354 C 218.763 2.26938 -2.51564 0
M  V30 2355 C 217.322 2.80529 -2.50959 0
M  V30 2356 C 216.469 1.54965 -2.29959 0
M  V30 2357 H 219.42 0.459853 -1.51892 0
M  V30 2358 H 219.441 3.08834 -2.22265 0
M  V30 2359 H 218.953 1.75065 -3.46372 0
M  V30 2360 H 217.054 3.36502 -1.59991 0
M  V30 2361 H 217.167 3.29012 -3.48265 0
M  V30 2362 H 215.531 1.81817 -1.78366 0
M  V30 2363 H 216.314 1.05047 -3.26833 0
M  V30 2364 N 218.759 1.29093 0.90403 0
M  V30 2365 C 219.709 1.10482 1.99443 0
M  V30 2366 C 220.693 0.0255401 1.6088 0
M  V30 2367 O 221.885 0.24677 1.75271 0
M  V30 2368 C 219.014 0.778882 3.34348 0
M  V30 2369 C 218.1 1.89749 3.79284 0
M  V30 2370 N 218.491 3.14045 3.96497 0
M  V30 2371 C 216.789 1.78955 4.08523 0
M  V30 2372 C 217.49 3.86996 4.34292 0
M  V30 2373 N 216.466 3.14909 4.43095 0
M  V30 2374 H 220.268 2.04778 2.10815 0
M  V30 2375 H 217.782 1.20155 1.09255 0
M  V30 2376 H 219.779 0.62661 4.12164 0
M  V30 2377 H 218.439 -0.156205 3.24324 0
M  V30 2378 H 219.45 3.49548 3.82148 0
M  V30 2379 H 216.127 0.926886 4.07081 0
M  V30 2380 H 217.517 4.93941 4.55491 0
M  V30 2381 N 220.237 -1.11381 1.11499 0
M  V30 2382 C 221.465 -1.86934 0.88675 0
M  V30 2383 C 221.88 -1.80195 -0.563476 0
M  V30 2384 O 221.237 -1.18367 -1.38908 0
M  V30 2385 C 221.288 -3.35722 1.34064 0
M  V30 2386 O 221.009 -3.4232 2.73401 0
M  V30 2387 C 222.51 -4.2818 1.14791 0
M  V30 2388 H 219.73 -0.591117 0.317523 0
M  V30 2389 H 222.274 -1.40865 1.48248 0
M  V30 2390 H 220.429 -3.79294 0.788355 0
M  V30 2391 H 220.843 -4.34971 2.93087 0
M  V30 2392 H 222.317 -5.30817 1.5145 0
M  V30 2393 H 222.794 -4.39113 0.0875279 0
M  V30 2394 H 223.4 -3.90402 1.68721 0
M  V30 2395 N 221.715 -0.905404 -1.28997 0
M  V30 2396 C 222.962 -0.534248 -1.95325 0
M  V30 2397 C 223.29 0.920535 -1.71337 0
M  V30 2398 O 222.545 1.66861 -1.02254 0
M  V30 2399 C 222.844 -0.779906 -3.48787 0
M  V30 2400 C 222.51 -2.21293 -3.92861 0
M  V30 2401 C 221.172 -2.60475 -4.04606 0
M  V30 2402 C 223.524 -3.14587 -4.15553 0
M  V30 2403 C 220.852 -3.9212 -4.36416 0
M  V30 2404 C 223.204 -4.45787 -4.48839 0
M  V30 2405 C 221.868 -4.84834 -4.58794 0
M  V30 2406 H 221.138 -0.195495 -0.714747 0
M  V30 2407 H 223.785 -1.14514 -1.53488 0
M  V30 2408 H 222.09 -0.0861365 -3.91705 0
M  V30 2409 H 223.787 -0.472029 -3.98212 0
M  V30 2410 H 220.377 -1.89887 -3.84241 0
M  V30 2411 H 224.561 -2.85528 -4.0594 0
M  V30 2412 H 219.817 -4.22086 -4.42327 0
M  V30 2413 H 223.991 -5.18098 -4.65346 0
M  V30 2414 H 221.618 -5.86877 -4.83197 0
M  V30 2415 N 223.193 1.4272 -0.668489 0
M  V30 2416 C 224.123 2.335 -0.000100175 0
M  V30 2417 C 225.104 1.50328 0.795964 0
M  V30 2418 O 226.289 1.78949 0.754385 0
M  V30 2419 C 223.419 3.33874 0.956302 0
M  V30 2420 C 222.373 4.27152 0.269278 0
M  V30 2421 C 221.699 5.17684 1.33818 0
M  V30 2422 C 222.999 5.15373 -0.847805 0
M  V30 2423 H 224.693 2.89639 -0.758244 0
M  V30 2424 H 222.239 1.39269 -0.366079 0
M  V30 2425 H 224.192 3.9629 1.43292 0
M  V30 2426 H 222.916 2.76025 1.74579 0
M  V30 2427 H 221.575 3.66123 -0.187042 0
M  V30 2428 H 221.223 4.56165 2.1195 0
M  V30 2429 H 220.923 5.80918 0.883659 0
M  V30 2430 H 222.447 5.82974 1.81586 0
M  V30 2431 H 223.861 5.7151 -0.452681 0
M  V30 2432 H 222.258 5.87407 -1.22773 0
M  V30 2433 H 223.328 4.5415 -1.69929 0
M  V30 2434 N 224.671 0.411399 1.52136 0
M  V30 2435 C 225.621 -0.430376 2.23901 0
M  V30 2436 C 226.605 -1.0116 1.25121 0
M  V30 2437 O 227.797 -0.934044 1.50348 0
M  V30 2438 C 224.926 -1.54527 3.06556 0
M  V30 2439 C 224.012 -0.9747 4.12747 0
M  V30 2440 N 224.403 -0.130991 5.0563 0
M  V30 2441 C 222.701 -1.24497 4.28271 0
M  V30 2442 C 223.402 0.186689 5.814 0
M  V30 2443 N 222.378 -0.42304 5.41951 0
M  V30 2444 H 226.18 0.220509 2.93072 0
M  V30 2445 H 223.694 0.221952 1.60876 0
M  V30 2446 H 225.691 -2.16093 3.56524 0
M  V30 2447 H 224.351 -2.19875 2.38925 0
M  V30 2448 H 225.362 0.23349 5.17373 0
M  V30 2449 H 222.039 -1.89787 3.7187 0
M  V30 2450 H 223.429 0.871673 6.66222 0
M  V30 2451 N 226.149 -1.5696 0.141893 0
M  V30 2452 C 227.079 -2.19516 -0.795936 0
M  V30 2453 C 228.06 -1.14187 -1.26077 0
M  V30 2454 O 229.245 -1.42511 -1.31925 0
M  V30 2455 C 226.375 -2.81272 -2.03723 0
M  V30 2456 C 225.329 -3.92384 -1.70936 0
M  V30 2457 C 224.655 -4.41052 -3.02287 0
M  V30 2458 C 225.955 -5.13403 -0.959954 0
M  V30 2459 H 227.649 -2.98138 -0.274596 0
M  V30 2460 H 225.195 -1.43406 -0.130636 0
M  V30 2461 H 227.148 -3.237 -2.69808 0
M  V30 2462 H 225.872 -1.99973 -2.58221 0
M  V30 2463 H 224.531 -3.50566 -1.07232 0
M  V30 2464 H 224.179 -3.56582 -3.54765 0
M  V30 2465 H 223.879 -5.15993 -2.81114 0
M  V30 2466 H 225.403 -4.86146 -3.69451 0
M  V30 2467 H 226.817 -5.52706 -1.52279 0
M  V30 2468 H 225.214 -5.94073 -0.848357 0
M  V30 2469 H 226.284 -4.84875 0.0492434 0
M  V30 2470 N 227.627 0.131896 -1.57047 0
M  V30 2471 C 228.876 0.84044 -1.83356 0
M  V30 2472 C 229.189 1.81646 -0.725535 0
M  V30 2473 O 230.395 2.57025 -0.874659 0
M  V30 2474 C 228.851 1.54528 -3.25037 0
M  V30 2475 C 228.459 0.610902 -4.43815 0
M  V30 2476 C 230.203 2.23972 -3.60606 0
M  V30 2477 C 228.11 1.31823 -5.76521 0
M  V30 2478 H 227.04 0.317599 -0.683847 0
M  V30 2479 H 229.691 0.0931561 -1.83263 0
M  V30 2480 H 228.073 2.33873 -3.19561 0
M  V30 2481 H 229.247 -0.148407 -4.60561 0
M  V30 2482 H 227.562 0.0241016 -4.16393 0
M  V30 2483 H 230.159 2.77558 -4.57018 0
M  V30 2484 H 230.502 3.01173 -2.87403 0
M  V30 2485 H 231.035 1.51529 -3.6781 0
M  V30 2486 H 227.774 0.587771 -6.52859 0
M  V30 2487 H 227.294 2.04987 -5.63685 0
M  V30 2488 H 228.973 1.855 -6.19838 0
M  V30 2489 N 229.106 1.52395 0.401703 0
M  V30 2490 C 230.522 1.41363 0.740864 0
M  V30 2491 C 230.722 0.523982 1.94568 0
M  V30 2492 O 229.778 -0.00741204 2.52499 0
M  V30 2493 C 231.091 2.84011 0.987847 0
M  V30 2494 C 232.639 2.93404 1.09011 0
M  V30 2495 C 233.114 4.37036 1.3698 0
M  V30 2496 N 234.605 4.40304 1.43829 0
M  V30 2497 C 235.34 5.48508 1.67112 0
M  V30 2498 N 234.836 6.66819 1.87949 0
M  V30 2499 N 236.629 5.36034 1.69187 0
M  V30 2500 H 228.78 2.08765 -0.391262 0
M  V30 2501 H 231.043 0.941265 -0.112798 0
M  V30 2502 H 230.749 3.51265 0.174835 0
M  V30 2503 H 230.623 3.25502 1.906 0
M  V30 2504 H 233.01 2.26325 1.8937 0
M  V30 2505 H 233.091 2.55359 0.15015 0
M  V30 2506 H 232.735 5.04676 0.571353 0
M  V30 2507 H 232.665 4.72623 2.3224 0
M  V30 2508 H 235.156 3.55024 1.29486 0
M  V30 2509 H 235.469 7.45063 2.05185 0
M  V30 2510 H 233.814 6.6987 1.85199 0
M  V30 2511 H 237.005 4.42579 1.52451 0
M  V30 2512 H 237.178 6.20434 1.86993 0
M  V30 2513 N 230.584 -0.659388 1.43143 0
M  V30 2514 C 231.531 -1.77249 1.47822 0
M  V30 2515 C 232.501 -1.62818 0.328558 0
M  V30 2516 O 233.686 -1.83151 0.534838 0
M  V30 2517 C 230.826 -3.15371 1.40126 0
M  V30 2518 C 229.939 -3.4098 2.65249 0
M  V30 2519 C 229.074 -4.68915 2.49584 0
M  V30 2520 C 228.113 -4.87608 3.70006 0
M  V30 2521 N 227.25 -6.06796 3.53189 0
M  V30 2522 H 232.09 -1.72584 2.42938 0
M  V30 2523 H 229.627 -0.842297 1.20598 0
M  V30 2524 H 231.585 -3.9521 1.33659 0
M  V30 2525 H 230.215 -3.19121 0.485964 0
M  V30 2526 H 229.267 -2.55282 2.8202 0
M  V30 2527 H 230.579 -3.50681 3.54717 0
M  V30 2528 H 229.733 -5.56871 2.4079 0
M  V30 2529 H 228.472 -4.61524 1.5763 0
M  V30 2530 H 227.477 -3.9809 3.79215 0
M  V30 2531 H 228.702 -4.96834 4.62961 0
M  V30 2532 H 226.648 -6.00549 2.63965 0
M  V30 2533 H 226.565 -6.17428 4.36255 0
M  V30 2534 H 227.833 -6.9739 3.48236 0
M  V30 2535 O 232.101 -1.40162 -0.802292 0
M  V30 2536 H 232.792 -1.28727 -1.44738 0
M  V30 END ATOM
M  V30 BEGIN BOND
M  V30 END BOND
M  V30 END CTAB
M  END
$$$$
