drugbank_target|P30530 Tyrosine-protein kinase receptor UFO (DB12010; DB12141)
 OpenBabel12092121143D

  0  0  0     0  0            999 V3000
M  V30 BEGIN CTAB
M  V30 COUNTS 13679 13864 0 0 0
M  V30 BEGIN ATOM
M  V30 1 H -0.908 1.98254 -0.117106 0
M  V30 2 N 0 1.576 0 0
M  V30 3 C 0.933 2.03868 1.02534 0
M  V30 4 C 1.911 0.928543 1.3348 0
M  V30 5 O 3.095 1.19667 1.45644 0
M  V30 6 C 0.222 2.43627 2.35294 0
M  V30 7 C -0.732 3.65373 2.2001 0
M  V30 8 S 0.101 5.13292 1.52614 0
M  V30 9 C 1.257 5.56322 2.86805 0
M  V30 10 H 1.49 2.90518 0.631377 0
M  V30 11 H -0.977 1.52953 0.210867 0
M  V30 12 H 0.981 2.67203 3.11629 0
M  V30 13 H -0.358 1.57376 2.7183 0
M  V30 14 H -1.165 3.90944 3.18086 0
M  V30 15 H -1.563 3.418 1.51819 0
M  V30 16 H 0.729 5.58782 3.83104 0
M  V30 17 H 1.672 6.56266 2.65933 0
M  V30 18 H 2.08 4.83886 2.90714 0
M  V30 19 N 1.4781 -0.272755 1.55222 0
M  V30 20 C 2.4411 -1.32041 1.87344 0
M  V30 21 C 3.4411 -1.42342 0.74803 0
M  V30 22 O 4.6311 -1.41488 1.0162 0
M  V30 23 C 1.7631 -2.70173 2.07893 0
M  V30 24 H 2.9561 -1.04789 2.80997 0
M  V30 25 H 0.5091 -0.51083 1.47717 0
M  V30 26 H 1.2441 -3.02605 1.16622 0
M  V30 27 H 1.0291 -2.64082 2.89833 0
M  V30 28 H 2.5191 -3.45869 2.34017 0
M  V30 29 N 2.9562 -1.48159 -0.537278 0
M  V30 30 C 4.2022 -1.57015 -1.29297 0
M  V30 31 C 4.5572 -0.237791 -1.90925 0
M  V30 32 O 3.8502 0.758621 -1.75942 0
M  V30 33 C 4.0442 -2.63956 -2.40961 0
M  V30 34 C 3.8732 -4.07461 -1.90278 0
M  V30 35 C 2.6432 -4.74685 -1.73213 0
M  V30 36 C 4.8412 -4.93858 -1.43556 0
M  V30 37 N 2.8232 -6.02633 -1.17078 0
M  V30 38 C 4.1942 -6.11993 -0.993204 0
M  V30 39 C 6.2492 -4.80141 -1.31792 0
M  V30 40 C 4.9522 -7.17923 -0.444872 0
M  V30 41 C 6.9782 -5.86186 -0.783585 0
M  V30 42 C 6.3402 -7.03524 -0.351261 0
M  V30 43 H 2.4392 -0.629154 -0.464423 0
M  V30 44 H 5.0232 -1.85006 -0.606705 0
M  V30 45 H 3.1942 -2.378 -3.07093 0
M  V30 46 H 4.9262 -2.62539 -3.07986 0
M  V30 47 H 1.6812 -4.30902 -1.9652 0
M  V30 48 H 2.1052 -6.7085 -0.910421 0
M  V30 49 H 6.7472 -3.89772 -1.63823 0
M  V30 50 H 4.4652 -8.08022 -0.11222 0
M  V30 51 H 8.0512 -5.77624 -0.695835 0
M  V30 52 H 6.9312 -7.8418 0.055777 0
M  V30 53 N 4.4343 0.785586 -1.36625 0
M  V30 54 C 5.8503 1.08419 -1.17122 0
M  V30 55 C 6.0503 2.015 0.00208491 0
M  V30 56 O 5.1063 2.43551 0.666278 0
M  V30 57 C 6.4193 1.69498 -2.48377 0
M  V30 58 C 7.9673 1.81821 -2.54775 0
M  V30 59 C 8.4423 2.46315 -3.86126 0
M  V30 60 N 9.9333 2.53779 -3.87492 0
M  V30 61 C 10.6683 3.045 -4.85868 0
M  V30 62 N 10.1643 3.55499 -5.94637 0
M  V30 63 N 11.9573 3.03247 -4.73284 0
M  V30 64 H 4.1083 0.167264 -2.1174 0
M  V30 65 H 6.3713 0.13682 -0.938075 0
M  V30 66 H 6.0773 1.08571 -3.34522 0
M  V30 67 H 5.9513 2.6896 -2.64462 0
M  V30 68 H 8.3383 2.41884 -1.69045 0
M  V30 69 H 8.4193 0.811532 -2.42586 0
M  V30 70 H 8.0633 1.86895 -4.72263 0
M  V30 71 H 7.9933 3.47561 -3.95612 0
M  V30 72 H 10.4843 2.17672 -3.08913 0
M  V30 73 H 10.7973 3.92562 -6.65669 0
M  V30 74 H 9.1423 3.5364 -5.98301 0
M  V30 75 H 12.3333 2.62696 -3.87438 0
M  V30 76 H 12.5063 3.42467 -5.50109 0
M  V30 77 N 5.9124 1.20967 1.01018 0
M  V30 78 C 7.1524 1.03511 1.76252 0
M  V30 79 C 7.5164 -0.42458 1.87247 0
M  V30 80 O 8.7174 -0.719508 2.58991 0
M  V30 81 C 6.9884 1.70726 3.13986 0
M  V30 82 S 8.5474 1.68458 4.05176 0
M  V30 83 H 5.3654 0.371037 0.606508 0
M  V30 84 H 7.9674 1.53628 1.20908 0
M  V30 85 H 6.6714 2.76128 3.03614 0
M  V30 86 H 6.2024 1.20767 3.74405 0
M  V30 87 H 8.2174 0.721987 4.90919 0
M  V30 88 N 7.3905 -1.2043 1.01659 0
M  V30 89 C 8.8015 -1.71517 0.737482 0
M  V30 90 C 9.1525 -1.81547 -0.743973 0
M  V30 91 O 8.2775 -1.47803 -1.58061 0
M  V30 92 C 8.8725 -3.11515 1.33206 0
M  V30 93 C 7.4315 -3.59912 1.10183 0
M  V30 94 C 6.5785 -2.37116 1.43776 0
M  V30 95 H 9.5295 -1.05444 1.18606 0
M  V30 96 H 9.5505 -3.73575 0.722636 0
M  V30 97 H 9.0625 -3.04182 2.41028 0
M  V30 98 H 7.1635 -3.72577 0.0412756 0
M  V30 99 H 7.2765 -4.44731 1.78188 0
M  V30 100 H 5.6405 -2.39857 0.856778 0
M  V30 101 H 6.4235 -2.32424 2.52654 0
M  V30 102 N 8.8686 -0.792821 -1.36206 0
M  V30 103 C 10.2846 -0.474903 -1.52371 0
M  V30 104 C 10.4846 1.00622 -1.74578 0
M  V30 105 O 9.5406 1.79162 -1.77924 0
M  V30 106 C 10.8536 -1.3083 -2.70747 0
M  V30 107 C 12.4016 -1.30234 -2.84619 0
M  V30 108 C 12.8766 -2.11956 -4.06004 0
M  V30 109 N 14.3676 -2.09419 -4.13156 0
M  V30 110 C 15.1026 -2.69419 -5.06163 0
M  V30 111 N 14.5986 -3.3829 -6.04592 0
M  V30 112 N 16.3916 -2.59134 -4.98804 0
M  V30 113 H 8.5426 -1.75222 -1.20046 0
M  V30 114 H 10.8056 -0.745024 -0.586211 0
M  V30 115 H 10.5116 -2.35881 -2.6087 0
M  V30 116 H 10.3856 -0.95196 -3.6499 0
M  V30 117 H 12.7726 -0.259748 -2.93955 0
M  V30 118 H 12.8536 -1.69847 -1.91274 0
M  V30 119 H 12.4976 -3.16248 -3.97429 0
M  V30 120 H 12.4276 -1.69711 -4.98503 0
M  V30 121 H 14.9186 -1.59297 -3.42685 0
M  V30 122 H 15.2316 -3.81394 -6.7213 0
M  V30 123 H 13.5766 -3.42393 -6.04807 0
M  V30 124 H 16.7676 -2.04927 -4.20859 0
M  V30 125 H 16.9406 -3.06185 -5.711 0
M  V30 126 N 10.3467 1.47872 -0.545128 0
M  V30 127 C 11.2797 2.2675 0.256885 0
M  V30 128 C 12.2577 1.33293 0.931228 0
M  V30 129 O 13.4417 1.62657 0.95262 0
M  V30 130 C 10.5687 3.09976 1.36501 0
M  V30 131 C 9.6147 4.1892 0.800496 0
M  V30 132 S 10.4477 5.34397 -0.343505 0
M  V30 133 C 11.6037 6.21186 0.766733 0
M  V30 134 H 11.8367 2.94425 -0.412479 0
M  V30 135 H 9.3697 1.50806 -0.331204 0
M  V30 136 H 11.3277 3.585 1.9997 0
M  V30 137 H 9.9887 2.41686 2.00616 0
M  V30 138 H 9.1817 4.76836 1.63227 0
M  V30 139 H 8.7837 3.73215 0.242217 0
M  V30 140 H 11.0757 6.56804 1.66178 0
M  V30 141 H 12.0187 7.07742 0.225204 0
M  V30 142 H 12.4267 5.54574 1.05396 0
M  V30 143 N 11.8248 0.280983 1.55075 0
M  V30 144 C 13.0728 -0.333455 1.9933 0
M  V30 145 C 13.3938 -1.55937 1.17085 0
M  V30 146 O 12.6638 -1.94143 0.261805 0
M  V30 147 H 11.2438 -0.126197 0.736263 0
M  V30 148 H 13.9058 0.387678 1.91005 0
M  V30 149 H 13.0018 -0.619292 3.05894 0
M  V30 150 N 13.3029 -1.57598 0.00835791 0
M  V30 151 C 14.7189 -1.55764 -0.347822 0
M  V30 152 C 14.9189 -1.01186 -1.74252 0
M  V30 153 O 13.9749 -0.649371 -2.44007 0
M  V30 154 C 15.2879 -2.99927 -0.215407 0
M  V30 155 C 16.8359 -3.11656 -0.289725 0
M  V30 156 C 17.3109 -4.57621 -0.18634 0
M  V30 157 N 18.8019 -4.62557 -0.243978 0
M  V30 158 C 19.5369 -5.73094 -0.18745 0
M  V30 159 N 19.0329 -6.92753 -0.0810331 0
M  V30 160 N 20.8259 -5.61588 -0.239925 0
M  V30 161 H 12.9769 -1.91411 0.92062 0
M  V30 162 H 15.2399 -0.879562 0.353659 0
M  V30 163 H 14.9459 -3.43729 0.744512 0
M  V30 164 H 14.8199 -3.63865 -0.994097 0
M  V30 165 H 17.2069 -2.67779 -1.24009 0
M  V30 166 H 17.2879 -2.5048 0.51898 0
M  V30 167 H 16.9319 -5.02174 0.760519 0
M  V30 168 H 16.8619 -5.16752 -1.01364 0
M  V30 169 H 19.3529 -3.76481 -0.327217 0
M  V30 170 H 19.6659 -7.72787 -0.0440241 0
M  V30 171 H 18.0109 -6.94984 -0.0465419 0
M  V30 172 H 21.2019 -4.66996 -0.321317 0
M  V30 173 H 21.3749 -6.47714 -0.192407 0
M  V30 174 N 14.781 0.264519 -1.55364 0
M  V30 175 C 16.027 0.99646 -1.76631 0
M  V30 176 C 16.36 1.85632 -0.570478 0
M  V30 177 O 15.635 1.89647 0.43175 0
M  V30 178 C 15.918 1.87187 -3.07625 0
M  V30 179 C 15.771 1.04138 -4.37579 0
M  V30 180 C 17.09 2.85749 -3.34717 0
M  V30 181 H 14.209 0.360841 -0.642622 0
M  V30 182 H 16.851 0.268218 -1.88097 0
M  V30 183 H 15.001 2.49279 -2.9798 0
M  V30 184 H 16.673 0.440517 -4.59192 0
M  V30 185 H 14.916 0.345115 -4.32425 0
M  V30 186 H 15.587 1.68729 -5.2558 0
M  V30 187 H 18.063 2.33793 -3.4421 0
M  V30 188 H 16.939 3.44136 -4.27623 0
M  V30 189 H 17.2 3.61311 -2.54768 0
M  V30 190 N 16.2591 1.48442 0.529413 0
M  V30 191 C 17.6701 1.5002 1.11134 0
M  V30 192 C 18.0211 0.27031 1.94329 0
M  V30 193 O 17.1461 -0.622507 2.07253 0
M  V30 194 C 17.7411 2.71834 2.02217 0
M  V30 195 C 16.3001 2.76283 2.55627 0
M  V30 196 C 15.4471 2.43542 1.326 0
M  V30 197 H 18.3981 1.5555 0.314641 0
M  V30 198 H 18.4191 2.50384 2.8651 0
M  V30 199 H 17.9311 3.61331 1.41639 0
M  V30 200 H 16.0321 1.90995 3.19924 0
M  V30 201 H 16.1451 3.77725 2.94721 0
M  V30 202 H 14.5091 1.94709 1.64196 0
M  V30 203 H 15.2921 3.3528 0.737734 0
M  V30 204 N 17.7372 -0.778329 1.37039 0
M  V30 205 C 18.6672 -1.90546 1.34962 0
M  V30 206 C 19.6482 -1.68681 0.219274 0
M  V30 207 O 20.8332 -1.89634 0.418624 0
M  V30 208 C 17.9632 -3.27734 1.14925 0
M  V30 209 C 16.9172 -3.64147 2.24902 0
M  V30 210 C 16.2432 -4.99806 1.89996 0
M  V30 211 C 17.5432 -3.71579 3.67051 0
M  V30 212 H 19.2372 -1.92541 2.29277 0
M  V30 213 H 16.7832 -0.924948 1.10366 0
M  V30 214 H 18.7362 -4.06215 1.12104 0
M  V30 215 H 17.4602 -3.26154 0.170631 0
M  V30 216 H 16.1192 -2.8797 2.26868 0
M  V30 217 H 15.7672 -4.94759 0.906796 0
M  V30 218 H 15.4672 -5.25139 2.63634 0
M  V30 219 H 16.9912 -5.80694 1.88749 0
M  V30 220 H 18.4052 -4.40227 3.67251 0
M  V30 221 H 16.8022 -4.08405 4.39688 0
M  V30 222 H 17.8722 -2.72404 4.01154 0
M  V30 223 N 19.2153 -1.21501 -1.00376 0
M  V30 224 C 20.1783 -0.976927 -2.07337 0
M  V30 225 C 21.1783 0.0525322 -1.60714 0
M  V30 226 O 22.3683 -0.184869 -1.73216 0
M  V30 227 C 19.5003 -0.473423 -3.37597 0
M  V30 228 H 20.6933 -1.92587 -2.29892 0
M  V30 229 H 18.2463 -1.03217 -1.17371 0
M  V30 230 H 18.9813 0.480379 -3.20722 0
M  V30 231 H 18.7663 -1.216 -3.72768 0
M  V30 232 H 20.2563 -0.32675 -4.1632 0
M  V30 233 N 20.6934 1.19889 -1.02296 0
M  V30 234 C 21.9394 1.89973 -0.726759 0
M  V30 235 C 22.2944 1.7776 0.73614 0
M  V30 236 O 21.5874 1.15523 1.52856 0
M  V30 237 C 21.7814 3.39883 -1.10518 0
M  V30 238 C 21.6104 3.66684 -2.60332 0
M  V30 239 C 20.3804 3.85045 -3.27213 0
M  V30 240 C 22.5784 3.68727 -3.58532 0
M  V30 241 N 20.5604 3.99422 -4.66192 0
M  V30 242 C 21.9314 3.88604 -4.83101 0
M  V30 243 C 23.9864 3.51722 -3.52414 0
M  V30 244 C 22.6894 3.9324 -6.02292 0
M  V30 245 C 24.7154 3.57632 -4.71013 0
M  V30 246 C 24.0774 3.77988 -5.94394 0
M  V30 247 H 20.1764 0.714551 -0.317712 0
M  V30 248 H 22.7604 1.44123 -1.30907 0
M  V30 249 H 20.9314 3.8447 -0.551142 0
M  V30 250 H 22.6634 3.97464 -0.761853 0
M  V30 251 H 19.4184 3.83689 -2.77632 0
M  V30 252 H 19.8424 4.10473 -5.38368 0
M  V30 253 H 24.4844 3.34945 -2.58015 0
M  V30 254 H 22.2024 4.08811 -6.97065 0
M  V30 255 H 25.7884 3.45773 -4.67902 0
M  V30 256 H 24.6684 3.82428 -6.8463 0
M  V30 257 N 22.1715 0.800033 1.35784 0
M  V30 258 C 23.4115 0.382891 2.00782 0
M  V30 259 C 23.7755 -1.02891 1.62103 0
M  V30 260 O 24.9765 -1.54771 2.19771 0
M  V30 261 C 23.2475 0.553299 3.53091 0
M  V30 262 S 24.8065 0.225608 4.3822 0
M  V30 263 H 21.6245 0.145737 0.695904 0
M  V30 264 H 24.2265 1.04085 1.65489 0
M  V30 265 H 22.9305 1.58091 3.78729 0
M  V30 266 H 22.4615 -0.120214 3.93216 0
M  V30 267 H 24.4765 -0.969074 4.86645 0
M  V30 268 N 23.6496 -1.47581 0.552962 0
M  V30 269 C 24.5796 -2.32762 -0.185451 0
M  V30 270 C 25.5606 -1.43527 -0.912905 0
M  V30 271 O 26.7456 -1.72388 -0.894201 0
M  V30 272 C 23.8756 -3.25219 -1.21859 0
M  V30 273 C 22.8296 -4.23661 -0.607864 0
M  V30 274 C 22.1556 -5.05413 -1.74533 0
M  V30 275 C 23.4556 -5.20481 0.435582 0
M  V30 276 H 25.1496 -2.94749 0.525684 0
M  V30 277 H 22.6956 -1.41738 0.254251 0
M  V30 278 H 24.6486 -3.8365 -1.7433 0
M  V30 279 H 23.3726 -2.61279 -1.95961 0
M  V30 280 H 22.0316 -3.66451 -0.104489 0
M  V30 281 H 21.6796 -4.3788 -2.47529 0
M  V30 282 H 21.3796 -5.72059 -1.34249 0
M  V30 283 H 22.9036 -5.66701 -2.27338 0
M  V30 284 H 24.3176 -5.733 -0.00290157 0
M  V30 285 H 22.7146 -5.95305 0.757067 0
M  V30 286 H 23.7846 -4.66217 1.33303 0
M  V30 287 N 25.1277 -0.289203 -1.54924 0
M  V30 288 C 26.0907 0.579144 -2.21762 0
M  V30 289 C 27.0907 1.07047 -1.1999 0
M  V30 290 O 28.2807 0.968384 -1.44803 0
M  V30 291 C 25.4127 1.80055 -2.8947 0
M  V30 292 H 26.6057 -0.00464908 -2.999 0
M  V30 293 H 24.1587 -0.0399306 -1.56249 0
M  V30 294 H 24.8937 2.42449 -2.15381 0
M  V30 295 H 24.6787 1.45602 -3.64064 0
M  V30 296 H 26.1687 2.41773 -3.40493 0
M  V30 297 N 26.6058 1.57591 -0.0167156 0
M  V30 298 C 27.5358 2.12496 0.967858 0
M  V30 299 C 28.5168 1.03807 1.34752 0
M  V30 300 O 29.7018 1.31577 1.42833 0
M  V30 301 C 26.8318 2.64194 2.25431 0
M  V30 302 C 25.7858 3.77559 2.01576 0
M  V30 303 C 25.1118 4.15636 3.36379 0
M  V30 304 C 26.4118 5.04151 1.36489 0
M  V30 305 H 28.1058 2.95013 0.510643 0
M  V30 306 H 25.6518 1.41915 0.244181 0
M  V30 307 H 27.6048 3.01236 2.94678 0
M  V30 308 H 26.3288 1.78821 2.73296 0
M  V30 309 H 24.9878 3.40937 1.34751 0
M  V30 310 H 24.6358 3.27263 3.81979 0
M  V30 311 H 24.3358 4.92022 3.21229 0
M  V30 312 H 25.8598 4.5525 4.06915 0
M  V30 313 H 27.2738 5.38857 1.95718 0
M  V30 314 H 25.6708 5.85453 1.31776 0
M  V30 315 H 26.7408 4.83733 0.336219 0
M  V30 316 N 28.0839 -0.256276 1.55502 0
M  V30 317 C 29.3239 -0.993081 1.78654 0
M  V30 318 C 29.6879 -1.8288 0.584724 0
M  V30 319 O 30.8889 -2.59665 0.694822 0
M  V30 320 C 29.1599 -1.83856 3.06483 0
M  V30 321 S 30.7189 -2.63573 3.5082 0
M  V30 322 H 27.5369 -0.334199 0.62756 0
M  V30 323 H 30.1389 -0.26184 1.93739 0
M  V30 324 H 28.8429 -1.21414 3.92029 0
M  V30 325 H 28.3739 -2.61271 2.94111 0
M  V30 326 H 30.3889 -3.86312 3.11412 0
M  V30 327 N 29.562 -1.4872 -0.521534 0
M  V30 328 C 30.81 -1.56857 -1.27437 0
M  V30 329 C 31.131 -0.247982 -1.93417 0
M  V30 330 O 30.401 0.731151 -1.81744 0
M  V30 331 H 28.981 -0.577885 -0.473347 0
M  V30 332 H 31.643 -1.85233 -0.606205 0
M  V30 333 H 30.739 -2.35402 -2.0492 0
M  V30 334 N 31.0401 0.771051 -1.3745 0
M  V30 335 C 32.2861 1.53109 -1.339 0
M  V30 336 C 32.6411 1.9225 0.0758401 0
M  V30 337 O 31.9341 1.61264 1.03463 0
M  V30 338 C 32.1281 2.80676 -2.2126 0
M  V30 339 C 31.9571 2.54003 -3.71096 0
M  V30 340 C 30.7271 2.48097 -4.402 0
M  V30 341 C 32.9251 2.21953 -4.63941 0
M  V30 342 N 30.9071 2.13515 -5.75573 0
M  V30 343 C 32.2781 1.97516 -5.87697 0
M  V30 344 C 34.3331 2.08114 -4.5232 0
M  V30 345 C 33.0361 1.60638 -7.01133 0
M  V30 346 C 35.0621 1.72636 -5.65642 0
M  V30 347 C 34.4241 1.4906 -6.88448 0
M  V30 348 H 30.5231 0.56055 -0.54526 0
M  V30 349 H 33.1071 0.899472 -1.72678 0
M  V30 350 H 31.2781 3.41674 -1.84698 0
M  V30 351 H 33.0101 3.46578 -2.08963 0
M  V30 352 H 29.7651 2.63974 -3.93211 0
M  V30 353 H 30.1891 1.98919 -6.47117 0
M  V30 354 H 34.8311 2.25024 -3.57944 0
M  V30 355 H 32.5491 1.42467 -7.95443 0
M  V30 356 H 36.1351 1.62586 -5.58621 0
M  V30 357 H 35.0151 1.22014 -7.7465 0
M  V30 358 N 32.5182 1.22032 0.997298 0
M  V30 359 C 33.4812 0.987909 2.06816 0
M  V30 360 C 34.4812 -0.0440084 1.6074 0
M  V30 361 O 35.6712 0.194053 1.73116 0
M  V30 362 C 32.8032 0.49132 3.37341 0
M  V30 363 H 33.9962 1.93803 2.28868 0
M  V30 364 H 31.5492 1.03838 1.16822 0
M  V30 365 H 32.2842 -0.463364 3.20973 0
M  V30 366 H 32.0692 1.23575 3.72118 0
M  V30 367 H 33.5592 0.348824 4.16141 0
M  V30 368 N 33.9963 -1.19345 1.0293 0
M  V30 369 C 35.2363 -1.90738 0.734727 0
M  V30 370 C 35.6003 -1.7785 -0.723414 0
M  V30 371 O 36.8013 -2.43844 -1.13108 0
M  V30 372 C 35.0723 -3.37569 1.17396 0
M  V30 373 S 36.6313 -4.27176 1.00329 0
M  V30 374 H 33.4493 -0.658771 0.267474 0
M  V30 375 H 36.0513 -1.4428 1.31922 0
M  V30 376 H 34.7553 -3.44475 2.23081 0
M  V30 377 H 34.2863 -3.8906 0.582772 0
M  V30 378 H 36.3013 -4.96126 -0.0859152 0
M  V30 379 N 35.4744 -0.807222 -1.35358 0
M  V30 380 C 36.4074 -0.163572 -2.27613 0
M  V30 381 C 37.3854 0.670817 -1.48118 0
M  V30 382 O 38.5694 0.63796 -1.77376 0
M  V30 383 C 35.6964 0.773015 -3.29761 0
M  V30 384 C 34.7424 0.0181653 -4.26496 0
M  V30 385 S 35.5754 -1.31831 -5.19019 0
M  V30 386 C 36.7314 -0.38619 -6.24707 0
M  V30 387 H 36.9644 -0.945757 -2.81856 0
M  V30 388 H 34.4974 -0.602315 -1.42167 0
M  V30 389 H 36.4554 1.30788 -3.89108 0
M  V30 390 H 35.1164 1.52859 -2.74396 0
M  V30 391 H 34.3094 0.729534 -4.98692 0
M  V30 392 H 33.9114 -0.446761 -3.71322 0
M  V30 393 H 36.2034 0.428295 -6.76145 0
M  V30 394 H 37.1464 -1.07736 -6.99856 0
M  V30 395 H 37.5544 0.018398 -5.64497 0
M  V30 396 N 36.9525 1.47285 -0.560781 0
M  V30 397 C 37.9155 2.28535 0.174488 0
M  V30 398 C 38.9155 1.37153 0.839388 0
M  V30 399 O 40.1055 1.59748 0.694702 0
M  V30 400 C 37.2375 3.16934 1.25561 0
M  V30 401 H 38.4305 2.95012 -0.539262 0
M  V30 402 H 35.9835 1.53034 -0.317865 0
M  V30 403 H 36.7185 2.55157 2.00164 0
M  V30 404 H 36.5035 3.8419 0.783604 0
M  V30 405 H 37.9935 3.78143 1.77193 0
M  V30 406 N 38.4306 0.297415 1.54768 0
M  V30 407 C 39.8416 -0.195947 1.85669 0
M  V30 408 C 40.1926 -1.53707 1.21937 0
M  V30 409 O 39.3176 -2.10164 0.515754 0
M  V30 410 C 39.9126 -0.362318 3.36857 0
M  V30 411 C 38.4716 -0.799901 3.67802 0
M  V30 412 C 37.6186 0.0938578 2.77141 0
M  V30 413 H 40.5696 0.518538 1.4999 0
M  V30 414 H 40.5906 -1.19745 3.61167 0
M  V30 415 H 40.1026 0.613921 3.83214 0
M  V30 416 H 38.2036 -1.78682 3.26961 0
M  V30 417 H 38.3166 -0.621773 4.75048 0
M  V30 418 H 36.6806 -0.426254 2.51108 0
M  V30 419 H 37.4636 1.06639 3.26318 0
M  V30 420 N 39.9087 -1.5758 0.0250728 0
M  V30 421 C 41.3247 -1.56124 -0.331282 0
M  V30 422 C 41.5247 -1.03029 -1.73169 0
M  V30 423 O 40.5807 -0.675215 -2.43305 0
M  V30 424 C 41.8937 -3.00139 -0.183584 0
M  V30 425 C 43.4417 -3.11946 -0.256654 0
M  V30 426 C 43.9167 -4.57793 -0.137792 0
M  V30 427 N 45.4077 -4.6279 -0.194904 0
M  V30 428 C 46.1427 -5.7326 -0.126655 0
M  V30 429 N 45.6387 -6.928 -0.00755288 0
M  V30 430 N 47.4317 -5.61811 -0.180348 0
M  V30 431 H 39.5827 -1.90424 0.94087 0
M  V30 432 H 41.8457 -0.875761 0.362968 0
M  V30 433 H 41.5517 -3.4292 0.780927 0
M  V30 434 H 41.4257 -3.64899 -0.955448 0
M  V30 435 H 43.8127 -2.69079 -1.21162 0
M  V30 436 H 43.8937 -2.49915 0.545517 0
M  V30 437 H 43.5377 -5.01339 0.813739 0
M  V30 438 H 43.4677 -5.17798 -0.958775 0
M  V30 439 H 45.9587 -3.76807 -0.287267 0
M  V30 440 H 46.2717 -7.72791 0.0379428 0
M  V30 441 H 44.6167 -6.94995 0.0271731 0
M  V30 442 H 47.8077 -4.6731 -0.271767 0
M  V30 443 H 47.9807 -6.47882 -0.123697 0
M  V30 444 N 41.3868 0.248026 -1.55636 0
M  V30 445 C 42.6348 0.974295 -1.77065 0
M  V30 446 C 42.9558 1.85897 -0.588849 0
M  V30 447 O 42.2258 1.91868 0.395407 0
M  V30 448 H 40.8058 0.362733 -0.653019 0
M  V30 449 H 43.4678 0.266244 -1.93073 0
M  V30 450 H 42.5638 1.59667 -2.68166 0
M  V30 451 N 42.8649 1.48995 0.513639 0
M  V30 452 C 44.0929 1.61531 1.29288 0
M  V30 453 C 44.5079 0.281801 1.86685 0
M  V30 454 O 43.8649 -0.731111 1.67215 0
M  V30 455 C 43.9159 2.67449 2.43215 0
M  V30 456 O 43.6369 3.95626 1.88179 0
M  V30 457 C 45.1379 2.90575 3.34785 0
M  V30 458 H 42.3579 0.544165 0.392588 0
M  V30 459 H 44.9019 1.9494 0.617956 0
M  V30 460 H 43.0569 2.36853 3.0656 0
M  V30 461 H 43.4709 4.53868 2.62876 0
M  V30 462 H 44.9449 3.68449 4.11035 0
M  V30 463 H 45.4219 2.00011 3.91015 0
M  V30 464 H 46.0279 3.22538 2.77218 0
M  V30 465 N 44.343 -0.763751 1.37857 0
M  V30 466 C 45.275 -1.88664 1.30148 0
M  V30 467 C 46.288 -1.61365 0.215685 0
M  V30 468 O 47.477 -1.72134 0.472459 0
M  V30 469 C 44.577 -3.24075 0.991396 0
M  V30 470 C 43.75 -3.78958 2.18426 0
M  V30 471 C 42.809 -4.92862 1.8432 0
M  V30 472 O 41.835 -5.08027 2.56704 0
M  V30 473 N 43.037 -5.75071 0.792081 0
M  V30 474 H 45.802 -1.95791 2.26905 0
M  V30 475 H 43.363 -0.943226 1.31586 0
M  V30 476 H 45.355 -3.97804 0.743935 0
M  V30 477 H 43.925 -3.12399 0.112122 0
M  V30 478 H 43.145 -2.96913 2.59299 0
M  V30 479 H 44.433 -4.12357 2.98058 0
M  V30 480 H 43.831 -5.65375 0.191595 0
M  V30 481 H 42.388 -6.48991 0.60449 0
M  V30 482 N 45.8211 -1.22559 -0.990812 0
M  V30 483 C 46.7841 -0.998863 -2.0629 0
M  V30 484 C 47.7841 0.0354834 -1.60761 0
M  V30 485 O 48.9741 -0.203231 -1.7301 0
M  V30 486 C 46.1061 -0.509203 -3.37076 0
M  V30 487 H 47.2991 -1.95014 -2.27837 0
M  V30 488 H 44.8521 -1.04456 -1.16269 0
M  V30 489 H 45.5871 0.446335 -3.21214 0
M  V30 490 H 45.3721 -1.25547 -3.71457 0
M  V30 491 H 46.8621 -0.370888 -4.1595 0
M  V30 492 N 47.2992 1.18797 -1.03562 0
M  V30 493 C 48.2092 2.25913 -0.632505 0
M  V30 494 C 49.2252 1.70668 0.338882 0
M  V30 495 O 50.4012 2.00453 0.195076 0
M  V30 496 C 47.4662 3.467 0.00350942 0
M  V30 497 C 46.5272 4.17098 -1.01624 0
M  V30 498 C 45.7602 5.32119 -0.410478 0
M  V30 499 O 45.9832 5.64976 0.784725 0
M  V30 500 O 44.9172 5.9107 -1.13667 0
M  V30 501 H 48.7432 2.62648 -1.52478 0
M  V30 502 H 46.3282 1.25781 -0.806195 0
M  V30 503 H 48.2102 4.19878 0.35781 0
M  V30 504 H 46.8852 3.11798 0.869686 0
M  V30 505 H 45.7922 3.4601 -1.42224 0
M  V30 506 H 47.1252 4.55987 -1.85301 0
M  V30 507 N 48.7773 0.814389 1.34928 0
M  V30 508 C 49.6873 0.231978 2.3345 0
M  V30 509 C 50.7033 -0.629139 1.62228 0
M  V30 510 O 51.8793 -0.539052 1.94052 0
M  V30 511 C 48.9443 -0.603482 3.41407 0
M  V30 512 C 48.0053 0.279037 4.28392 0
M  V30 513 C 47.2383 -0.516643 5.31193 0
M  V30 514 O 47.4613 -1.75068 5.4287 0
M  V30 515 O 46.3953 0.0965652 6.01823 0
M  V30 516 H 50.2213 1.04721 2.85074 0
M  V30 517 H 47.8063 0.576343 1.37836 0
M  V30 518 H 49.6883 -1.07908 4.0735 0
M  V30 519 H 48.3633 -1.39618 2.92042 0
M  V30 520 H 47.2703 0.801948 3.65403 0
M  V30 521 H 48.6033 1.03588 4.81176 0
M  V30 522 N 50.2554 -1.46986 0.568584 0
M  V30 523 C 51.4804 -2.07335 0.0520528 0
M  V30 524 C 51.9054 -1.41675 -1.23733 0
M  V30 525 O 51.2634 -0.495623 -1.74394 0
M  V30 526 C 51.3114 -3.60417 -0.11501 0
M  V30 527 O 50.4154 -3.95309 -1.17492 0
M  V30 528 H 49.7564 -0.661597 0.0564385 0
M  V30 529 H 52.2864 -1.88837 0.787507 0
M  V30 530 H 52.2964 -4.06698 -0.325644 0
M  V30 531 H 50.9714 -4.07601 0.826675 0
M  V30 532 H 49.5484 -3.60757 -0.943869 0
M  V30 533 N 51.7335 -0.305618 -1.54608 0
M  V30 534 C 53.1445 0.186098 -1.8577 0
M  V30 535 C 53.4955 1.53058 -1.22751 0
M  V30 536 O 52.6205 2.09888 -0.526893 0
M  V30 537 C 53.2155 0.344449 -3.37044 0
M  V30 538 C 51.7745 0.780384 -3.68221 0
M  V30 539 C 50.9215 -0.108554 -2.77087 0
M  V30 540 H 53.8725 -0.526485 -1.49712 0
M  V30 541 H 53.8935 1.17828 -3.61796 0
M  V30 542 H 53.4055 -0.634235 -3.82883 0
M  V30 543 H 51.5065 1.76945 -3.27904 0
M  V30 544 H 51.6195 0.596572 -4.75371 0
M  V30 545 H 49.9835 0.412931 -2.5133 0
M  V30 546 H 50.7665 -1.08368 -3.25747 0
M  V30 547 N 53.2116 1.57565 -0.0334293 0
M  V30 548 C 54.4586 1.91978 0.644272 0
M  V30 549 C 54.7866 0.910231 1.71887 0
M  V30 550 O 54.0416 -0.0801961 1.95536 0
M  V30 551 C 54.3406 3.33112 1.29504 0
M  V30 552 C 54.0066 4.49537 0.350388 0
M  V30 553 C 52.6686 4.81115 0.0903974 0
M  V30 554 C 55.0206 5.20347 -0.298032 0
M  V30 555 C 52.3486 5.8086 -0.825746 0
M  V30 556 C 54.7006 6.2107 -1.20226 0
M  V30 557 C 53.3646 6.51088 -1.4711 0
M  V30 558 H 52.6346 0.702496 0.235756 0
M  V30 559 H 55.2816 1.91259 -0.0961176 0
M  V30 560 H 53.5866 3.30113 2.11028 0
M  V30 561 H 55.2836 3.57011 1.82603 0
M  V30 562 H 51.8736 4.24883 0.563205 0
M  V30 563 H 56.0576 4.96178 -0.110234 0
M  V30 564 H 51.3136 6.02461 -1.04169 0
M  V30 565 H 55.4876 6.75057 -1.71086 0
M  V30 566 H 53.1146 7.28193 -2.18264 0
M  V30 567 N 54.6897 -0.239769 1.55765 0
M  V30 568 C 55.9357 -0.968234 1.78194 0
M  V30 569 C 56.2687 -1.84701 0.599938 0
M  V30 570 O 55.5437 -1.9031 -0.401524 0
M  V30 571 C 55.8267 -1.8227 3.10564 0
M  V30 572 C 55.6797 -0.971633 4.3918 0
M  V30 573 C 56.9987 -2.80388 3.39221 0
M  V30 574 H 54.1177 -0.350572 0.648281 0
M  V30 575 H 56.7597 -0.238259 1.885 0
M  V30 576 H 54.9097 -2.44507 3.01908 0
M  V30 577 H 56.5817 -0.367408 4.59835 0
M  V30 578 H 54.8247 -0.276276 4.32919 0
M  V30 579 H 55.4957 -1.60346 5.28198 0
M  V30 580 H 57.9717 -2.28287 3.47885 0
M  V30 581 H 56.8477 -3.3729 4.33044 0
M  V30 582 H 57.1087 -3.57212 2.60484 0
M  V30 583 N 56.1678 -1.49265 -0.50573 0
M  V30 584 C 57.4158 -1.582 -1.25766 0
M  V30 585 C 57.7368 -0.268482 -1.93143 0
M  V30 586 O 57.0068 0.711833 -1.8251 0
M  V30 587 H 55.5868 -0.582873 -0.467191 0
M  V30 588 H 58.2488 -1.85865 -0.586525 0
M  V30 589 H 57.3448 -2.37563 -2.02412 0
M  V30 590 N 57.6459 0.756429 -1.3826 0
M  V30 591 C 58.5939 1.89149 -1.35372 0
M  V30 592 C 59.5879 1.67691 -0.24004 0
M  V30 593 O 60.7939 1.75294 -0.408919 0
M  V30 594 H 57.1689 0.622271 -0.422236 0
M  V30 595 H 59.1399 1.88701 -2.31159 0
M  V30 596 C 57.8889 3.26599 -1.19284 0
M  V30 597 H 57.2119 3.43695 -2.0424 0
M  V30 598 H 58.6519 4.06274 -1.21316 0
M  V30 599 C 57.1109 3.3675 0.100454 0
M  V30 600 O 57.6409 3.86951 1.07851 0
M  V30 601 N 55.8469 2.90179 0.15633 0
M  V30 602 H 55.3939 2.49517 -0.640253 0
M  V30 603 H 55.3519 2.97352 1.02123 0
M  V30 604 N 59.124 1.23083 0.984299 0
M  V30 605 C 60.535 1.05609 1.5396 0
M  V30 606 C 60.886 -0.377793 1.92528 0
M  V30 607 O 60.011 -1.26398 1.75649 0
M  V30 608 C 60.606 1.91087 2.7977 0
M  V30 609 C 59.165 1.77885 3.31713 0
M  V30 610 C 58.312 1.87028 2.04733 0
M  V30 611 H 61.263 1.36802 0.804419 0
M  V30 612 H 61.284 1.43336 3.5247 0
M  V30 613 H 60.796 2.9544 2.51668 0
M  V30 614 H 58.897 0.762995 3.64704 0
M  V30 615 H 59.01 2.61047 4.01735 0
M  V30 616 H 57.374 1.30565 2.18689 0
M  V30 617 H 58.157 2.92929 1.79017 0
M  V30 618 N 60.6021 -1.18246 1.0419 0
M  V30 619 C 61.8501 -1.87886 0.744543 0
M  V30 620 C 62.1711 -1.8082 -0.730006 0
M  V30 621 O 61.4411 -1.22736 -1.52685 0
M  V30 622 H 60.0211 -0.695556 0.272417 0
M  V30 623 H 62.6831 -1.43494 1.31892 0
M  V30 624 H 61.7791 -2.9389 1.05049 0
M  V30 625 N 62.0802 -0.821533 -1.34494 0
M  V30 626 C 63.0282 -0.230702 -2.31453 0
M  V30 627 C 64.0222 0.627793 -1.57338 0
M  V30 628 O 65.2282 0.519288 -1.72347 0
M  V30 629 H 61.6032 -0.0558577 -0.749923 0
M  V30 630 H 63.5742 -1.06332 -2.78812 0
M  V30 631 C 62.3232 0.59391 -3.4259 0
M  V30 632 H 61.6462 -0.0573588 -3.99759 0
M  V30 633 H 63.0862 0.973446 -4.12674 0
M  V30 634 C 61.5452 1.76568 -2.86924 0
M  V30 635 O 62.0752 2.8638 -2.81691 0
M  V30 636 N 60.2812 1.58198 -2.43766 0
M  V30 637 H 59.8282 0.68872 -2.48222 0
M  V30 638 H 59.7862 2.36752 -2.06871 0
M  V30 639 N 63.5583 1.46682 -0.576371 0
M  V30 640 C 64.8073 2.01619 -0.0572825 0
M  V30 641 C 65.1203 1.45417 1.30818 0
M  V30 642 O 66.3263 1.92133 1.91825 0
M  V30 643 C 64.7823 3.59863 -0.0518371 0
M  V30 644 C 64.3903 4.25059 -1.41523 0
M  V30 645 C 66.1343 4.2248 0.413639 0
M  V30 646 C 64.0413 5.75364 -1.36785 0
M  V30 647 H 62.9713 0.753794 -0.0176448 0
M  V30 648 H 65.6223 1.68481 -0.727076 0
M  V30 649 H 64.0043 3.90048 0.683994 0
M  V30 650 H 65.1783 4.06491 -2.17029 0
M  V30 651 H 63.4933 3.7451 -1.8202 0
M  V30 652 H 66.0903 5.3265 0.467779 0
M  V30 653 H 66.4333 3.90976 1.42982 0
M  V30 654 H 66.9663 3.96897 -0.267929 0
M  V30 655 H 63.7053 6.11518 -2.36063 0
M  V30 656 H 63.2253 5.96214 -0.654895 0
M  V30 657 H 64.9043 6.37955 -1.07805 0
M  V30 658 N 65.0364 0.313813 1.54444 0
M  V30 659 C 66.2644 -0.293918 2.04802 0
M  V30 660 C 66.6794 -1.46537 1.19047 0
M  V30 661 O 66.0364 -1.81182 0.218939 0
M  V30 662 C 66.0874 -0.737806 3.53891 0
M  V30 663 O 65.8084 0.387038 4.36387 0
M  V30 664 C 67.3094 -1.40936 4.203 0
M  V30 665 H 64.5294 -0.0620057 0.668129 0
M  V30 666 H 67.0734 0.457169 1.99324 0
M  V30 667 H 65.2284 -1.43889 3.59687 0
M  V30 668 H 65.6424 0.0391274 5.24485 0
M  V30 669 H 67.1164 -1.67099 5.26101 0
M  V30 670 H 67.5934 -2.35355 3.70816 0
M  V30 671 H 68.1994 -0.751117 4.18615 0
M  V30 672 N 66.5145 -1.57545 0.0417849 0
M  V30 673 C 67.7625 -1.91937 -0.632829 0
M  V30 674 C 68.0835 -0.919978 -1.71934 0
M  V30 675 O 67.3535 0.0366064 -1.95866 0
M  V30 676 H 65.9335 -0.708493 -0.236742 0
M  V30 677 H 68.5955 -1.9468 0.0925745 0
M  V30 678 H 67.6915 -2.92912 -1.07746 0
M  V30 679 N 67.9926 0.231505 -1.5589 0
M  V30 680 C 68.9556 1.27028 -1.90779 0
M  V30 681 C 69.9556 1.40308 -0.785507 0
M  V30 682 O 71.1456 1.38744 -1.05336 0
M  V30 683 C 68.2776 2.64566 -2.14983 0
M  V30 684 H 69.4706 0.973017 -2.83677 0
M  V30 685 H 67.0236 0.471486 -1.49019 0
M  V30 686 H 67.7586 2.99406 -1.24604 0
M  V30 687 H 67.5436 2.56305 -2.96732 0
M  V30 688 H 69.0336 3.39543 -2.43105 0
M  V30 689 N 69.4707 1.49531 0.497807 0
M  V30 690 C 70.8867 1.36365 0.829266 0
M  V30 691 C 71.0867 0.399184 1.97506 0
M  V30 692 O 70.1427 -0.167977 2.51941 0
M  V30 693 C 71.4557 2.77153 1.16647 0
M  V30 694 C 73.0037 2.85877 1.27449 0
M  V30 695 C 73.4787 4.2744 1.64497 0
M  V30 696 N 74.9697 4.30265 1.7154 0
M  V30 697 C 75.7047 5.3677 2.01656 0
M  V30 698 N 75.2007 6.53516 2.29976 0
M  V30 699 N 76.9937 5.24189 2.02934 0
M  V30 700 H 69.1447 2.10831 -0.257703 0
M  V30 701 H 71.4077 0.946534 -0.0527091 0
M  V30 702 H 71.1137 3.49442 0.397872 0
M  V30 703 H 70.9877 3.12722 2.10915 0
M  V30 704 H 73.3747 2.13824 2.0338 0
M  V30 705 H 73.4557 2.53887 0.312244 0
M  V30 706 H 73.0997 5.00021 0.891151 0
M  V30 707 H 73.0297 4.56896 2.61827 0
M  V30 708 H 75.5207 3.4607 1.51802 0
M  V30 709 H 75.8337 7.30506 2.52153 0
M  V30 710 H 74.1787 6.56737 2.27425 0
M  V30 711 H 77.3697 4.31988 1.80289 0
M  V30 712 H 77.5427 6.07286 2.26071 0
M  V30 713 N 70.9488 -0.749086 1.3866 0
M  V30 714 C 72.1968 -1.50535 1.34847 0
M  V30 715 C 72.5178 -1.94909 -0.0595016 0
M  V30 716 O 71.7878 -1.67973 -1.00806 0
M  V30 717 H 70.3678 -0.558395 0.49619 0
M  V30 718 H 73.0298 -0.890165 1.73384 0
M  V30 719 H 72.1258 -2.39413 2.00219 0
M  V30 720 N 72.4269 -1.23603 -0.977757 0
M  V30 721 C 73.3569 -1.04401 -2.0886 0
M  V30 722 C 74.3379 0.0399052 -1.70053 0
M  V30 723 O 75.5229 -0.125246 -1.93796 0
M  V30 724 C 72.6529 -0.637269 -3.41403 0
M  V30 725 C 71.6069 -1.66883 -3.94124 0
M  V30 726 C 70.9329 -1.11745 -5.22893 0
M  V30 727 C 72.2329 -3.06247 -4.23096 0
M  V30 728 H 73.9269 -1.97316 -2.25182 0
M  V30 729 H 71.4729 -0.950096 -1.08209 0
M  V30 730 H 73.4259 -0.48998 -4.18542 0
M  V30 731 H 72.1499 0.327557 -3.24953 0
M  V30 732 H 70.8089 -1.80416 -3.19133 0
M  V30 733 H 70.4569 -0.143527 -5.02795 0
M  V30 734 H 70.1569 -1.80672 -5.59134 0
M  V30 735 H 71.6809 -0.982067 -6.02651 0
M  V30 736 H 73.0949 -2.96001 -4.90975 0
M  V30 737 H 71.4919 -3.72436 -4.70544 0
M  V30 738 H 72.5619 -3.55041 -3.30263 0
M  V30 739 N 73.905 1.17692 -1.04816 0
M  V30 740 C 75.133 1.91786 -0.776254 0
M  V30 741 C 75.548 1.76604 0.667577 0
M  V30 742 O 74.905 1.10067 1.45573 0
M  V30 743 C 74.956 3.42967 -1.14263 0
M  V30 744 O 74.677 3.57678 -2.52978 0
M  V30 745 C 76.178 4.34144 -0.896311 0
M  V30 746 H 73.398 0.608624 -0.282519 0
M  V30 747 H 75.942 1.49268 -1.39783 0
M  V30 748 H 74.097 3.83245 -0.565874 0
M  V30 749 H 74.511 4.51319 -2.67229 0
M  V30 750 H 75.985 5.38744 -1.20244 0
M  V30 751 H 76.462 4.38876 0.168636 0
M  V30 752 H 77.068 3.99574 -1.45672 0
M  V30 753 N 75.3831 0.828654 1.34056 0
M  V30 754 C 76.6311 0.41863 1.97717 0
M  V30 755 C 76.9521 -1.02314 1.66002 0
M  V30 756 O 76.2221 -1.71119 0.953683 0
M  V30 757 H 74.8021 0.151809 0.731412 0
M  V30 758 H 77.4641 1.05936 1.63596 0
M  V30 759 H 76.5601 0.542318 3.07352 0
M  V30 760 N 76.8612 -1.46375 0.584142 0
M  V30 761 C 78.0892 -2.06761 0.0759296 0
M  V30 762 C 78.5042 -1.43266 -1.22965 0
M  V30 763 O 77.8612 -0.538458 -1.74376 0
M  V30 764 C 77.9122 -3.61375 -0.0950384 0
M  V30 765 O 77.6332 -4.22495 1.15887 0
M  V30 766 C 79.1342 -4.38693 -0.637434 0
M  V30 767 H 76.3542 -0.668479 0.0581075 0
M  V30 768 H 78.8982 -1.8798 0.805218 0
M  V30 769 H 77.0532 -3.79578 -0.774554 0
M  V30 770 H 77.4672 -5.15385 0.973598 0
M  V30 771 H 78.9412 -5.47464 -0.706237 0
M  V30 772 H 79.4182 -4.06836 -1.65472 0
M  V30 773 H 80.0242 -4.25299 0.00725967 0
M  V30 774 N 78.3393 -0.321999 -1.54275 0
M  V30 775 C 79.2693 0.537411 -2.27231 0
M  V30 776 C 80.2503 1.12064 -1.27968 0
M  V30 777 O 81.4353 1.14606 -1.56777 0
M  V30 778 C 78.5653 1.69919 -3.02894 0
M  V30 779 C 77.5193 1.24534 -4.09482 0
M  V30 780 C 76.8453 2.49394 -4.72977 0
M  V30 781 C 78.1453 0.361335 -5.21049 0
M  V30 782 H 79.8393 -0.0711406 -2.99315 0
M  V30 783 H 77.3853 -0.0356555 -1.43956 0
M  V30 784 H 79.3383 2.30668 -3.52662 0
M  V30 785 H 78.0623 2.33431 -2.28424 0
M  V30 786 H 76.7213 0.660782 -3.60596 0
M  V30 787 H 76.3693 3.11265 -3.95124 0
M  V30 788 H 76.0693 2.19718 -5.44975 0
M  V30 789 H 77.5933 3.10908 -5.25517 0
M  V30 790 H 79.0073 0.875072 -5.66582 0
M  V30 791 H 77.4043 0.157428 -5.99893 0
M  V30 792 H 78.4743 -0.60822 -4.8107 0
M  V30 793 N 79.8174 1.5752 -0.0501392 0
M  V30 794 C 81.2334 1.56631 0.306402 0
M  V30 795 C 81.4334 1.0577 1.71508 0
M  V30 796 O 80.4894 0.713837 2.422 0
M  V30 797 C 81.8024 3.00393 0.135811 0
M  V30 798 C 83.3504 3.12315 0.206993 0
M  V30 799 C 83.8254 4.57954 0.064944 0
M  V30 800 N 85.3164 4.63041 0.121254 0
M  V30 801 C 86.0514 5.73389 0.0354381 0
M  V30 802 N 85.5474 6.92724 -0.102666 0
M  V30 803 N 87.3404 5.62026 0.090946 0
M  V30 804 H 79.4914 1.88903 -0.971046 0
M  V30 805 H 81.7544 0.869876 -0.376855 0
M  V30 806 H 81.4604 3.41635 -0.835384 0
M  V30 807 H 81.3344 3.66373 0.897275 0
M  V30 808 H 83.7214 2.70973 1.16866 0
M  V30 809 H 83.8024 2.49016 -0.585208 0
M  V30 810 H 83.4464 4.99981 -0.893394 0
M  V30 811 H 83.3764 5.19258 0.876277 0
M  V30 812 H 85.8674 3.77216 0.227284 0
M  V30 813 H 86.1804 7.72633 -0.160882 0
M  V30 814 H 84.5254 6.94864 -0.137737 0
M  V30 815 H 87.7164 4.67684 0.197388 0
M  V30 816 H 87.8894 6.47997 0.0206089 0
M  V30 817 N 81.2955 -0.223234 1.56011 0
M  V30 818 C 82.5355 -0.954962 1.8072 0
M  V30 819 C 82.8995 -1.81598 0.623384 0
M  V30 820 O 84.1005 -2.58132 0.749745 0
M  V30 821 C 82.3715 -1.77313 3.10314 0
M  V30 822 S 83.9305 -2.56073 3.56332 0
M  V30 823 H 80.7485 -0.320812 0.634508 0
M  V30 824 H 83.3505 -0.220686 1.9425 0
M  V30 825 H 82.0545 -1.13071 3.94516 0
M  V30 826 H 81.5855 -2.54974 2.99586 0
M  V30 827 H 83.6005 -3.79619 3.19536 0
M  V30 828 N 82.7736 -1.49793 -0.48987 0
M  V30 829 C 83.7056 -1.63413 -1.60713 0
M  V30 830 C 84.7186 -0.516329 -1.54395 0
M  V30 831 O 85.9076 -0.788812 -1.60125 0
M  V30 832 C 83.0076 -1.58516 -2.99543 0
M  V30 833 C 82.1806 -2.86016 -3.30928 0
M  V30 834 C 81.2396 -2.74018 -4.49222 0
M  V30 835 O 80.2656 -3.47964 -4.50455 0
M  V30 836 N 81.4676 -1.86309 -5.4979 0
M  V30 837 H 84.2326 -2.59777 -1.49452 0
M  V30 838 H 81.7936 -1.47022 -0.677955 0
M  V30 839 H 83.7856 -1.48128 -3.76617 0
M  V30 840 H 82.3556 -0.69965 -3.0467 0
M  V30 841 H 81.5756 -3.10672 -2.42645 0
M  V30 842 H 82.8636 -3.70521 -3.487 0
M  V30 843 H 82.2616 -1.2551 -5.51601 0
M  V30 844 H 80.8186 -1.81837 -6.25922 0
M  V30 845 N 84.2517 0.741722 -1.39055 0
M  V30 846 C 85.1817 1.869 -1.39966 0
M  V30 847 C 86.1627 1.6804 -0.26392 0
M  V30 848 O 87.3477 1.88458 -0.468755 0
M  V30 849 C 84.4777 3.24572 -1.23574 0
M  V30 850 C 83.4317 3.58056 -2.34477 0
M  V30 851 C 82.7577 4.94593 -2.0318 0
M  V30 852 C 84.0577 3.61716 -3.76774 0
M  V30 853 H 85.7517 1.86395 -2.34302 0
M  V30 854 H 83.2977 0.895361 -1.1278 0
M  V30 855 H 85.2507 4.031 -1.22834 0
M  V30 856 H 83.9747 3.25587 -0.257045 0
M  V30 857 H 82.6337 2.81854 -2.34423 0
M  V30 858 H 82.2817 4.92181 -1.03765 0
M  V30 859 H 81.9817 5.17964 -2.77465 0
M  V30 860 H 83.5057 5.75486 -2.04079 0
M  V30 861 H 84.9197 4.30335 -3.78794 0
M  V30 862 H 83.3167 3.96603 -4.50362 0
M  V30 863 H 84.3867 2.61672 -4.08235 0
M  V30 864 N 85.7298 1.2412 0.971189 0
M  V30 865 C 86.6618 0.988349 2.06795 0
M  V30 866 C 87.6748 -0.0409541 1.62748 0
M  V30 867 O 88.8638 0.195673 1.77424 0
M  V30 868 C 85.9638 0.469023 3.35639 0
M  V30 869 C 85.1368 1.56065 4.08611 0
M  V30 870 C 84.1958 1.04458 5.15728 0
M  V30 871 O 83.2218 1.73553 5.42096 0
M  V30 872 N 84.4238 -0.122817 5.8037 0
M  V30 873 H 87.1888 1.93265 2.29061 0
M  V30 874 H 84.7498 1.15102 1.13856 0
M  V30 875 H 86.7418 0.108613 4.04554 0
M  V30 876 H 85.3118 -0.380919 3.1027 0
M  V30 877 H 84.5318 2.09341 3.34021 0
M  V30 878 H 85.8198 2.29449 4.54126 0
M  V30 879 H 85.2178 -0.700563 5.61345 0
M  V30 880 H 83.7748 -0.424404 6.50417 0
M  V30 881 N 87.2079 -1.17134 1.05439 0
M  V30 882 C 88.4539 -1.87733 0.767077 0
M  V30 883 C 88.7869 -1.8098 -0.704253 0
M  V30 884 O 88.0619 -1.21951 -1.5152 0
M  V30 885 C 88.3449 -3.37659 1.25133 0
M  V30 886 C 88.1979 -3.53149 2.78578 0
M  V30 887 C 89.5169 -4.31768 0.852324 0
M  V30 888 H 86.6359 -0.681687 0.280129 0
M  V30 889 H 89.2779 -1.37732 1.30881 0
M  V30 890 H 87.4279 -3.80373 0.790469 0
M  V30 891 H 89.0999 -3.19434 3.32806 0
M  V30 892 H 87.3429 -2.95345 3.17732 0
M  V30 893 H 88.0139 -4.58403 3.07523 0
M  V30 894 H 90.4899 -3.96909 1.24911 0
M  V30 895 H 89.3659 -5.35199 1.21873 0
M  V30 896 H 89.6269 -4.41429 -0.243485 0
M  V30 897 N 88.686 -0.835752 -1.33615 0
M  V30 898 C 89.618 -0.224151 -2.28101 0
M  V30 899 C 90.631 0.593331 -1.51603 0
M  V30 900 O 91.82 0.420911 -1.73466 0
M  V30 901 C 88.92 0.703309 -3.31522 0
M  V30 902 C 88.093 -0.0741528 -4.37337 0
M  V30 903 C 87.152 0.776176 -5.20444 0
M  V30 904 O 86.178 0.216506 -5.68788 0
M  V30 905 N 87.38 2.09401 -5.41416 0
M  V30 906 H 90.145 -1.03598 -2.81225 0
M  V30 907 H 87.706 -0.69392 -1.46275 0
M  V30 908 H 89.698 1.27707 -3.84022 0
M  V30 909 H 88.268 1.41585 -2.78698 0
M  V30 910 H 87.488 -0.82928 -3.85378 0
M  V30 911 H 88.776 -0.608863 -5.05144 0
M  V30 912 H 88.174 2.57229 -5.03835 0
M  V30 913 H 86.731 2.61633 -5.96985 0
M  V30 914 N 90.1641 1.46063 -0.591896 0
M  V30 915 C 91.4121 2.01938 -0.0808391 0
M  V30 916 C 91.7331 1.46475 1.28725 0
M  V30 917 O 91.0031 0.652944 1.84698 0
M  V30 918 H 89.5831 0.746516 -0.0268938 0
M  V30 919 H 92.2451 1.79055 -0.769752 0
M  V30 920 H 91.3411 3.12094 -0.0187578 0
M  V30 921 N 91.6422 0.330177 1.54103 0
M  V30 922 C 92.5522 -0.541534 2.28264 0
M  V30 923 C 93.5682 -1.12351 1.32866 0
M  V30 924 O 94.7442 -1.14206 1.65888 0
M  V30 925 C 91.8092 -1.68322 3.03098 0
M  V30 926 C 90.8702 -1.13238 4.14096 0
M  V30 927 C 90.1032 -2.21966 4.85352 0
M  V30 928 O 90.3262 -3.42437 4.56172 0
M  V30 929 O 89.2602 -1.87013 5.7211 0
M  V30 930 H 93.0862 0.060938 3.03639 0
M  V30 931 H 90.6712 0.09565 1.49093 0
M  V30 932 H 92.5532 -2.34777 3.49939 0
M  V30 933 H 91.2282 -2.27176 2.30593 0
M  V30 934 H 90.1352 -0.432736 3.71589 0
M  V30 935 H 91.4682 -0.588898 4.88664 0
M  V30 936 N 93.1203 -1.57491 0.0584922 0
M  V30 937 C 94.5313 -1.80526 -0.476138 0
M  V30 938 C 94.8823 -0.971334 -1.70469 0
M  V30 939 O 94.0073 -0.190012 -2.15564 0
M  V30 940 C 94.6023 -3.27424 -0.870587 0
M  V30 941 C 93.1613 -3.51351 -1.35015 0
M  V30 942 C 92.3083 -2.75343 -0.32887 0
M  V30 943 H 95.2593 -1.56133 0.284312 0
M  V30 944 H 95.2803 -3.38745 -1.73299 0
M  V30 945 H 94.7923 -3.88093 0.0237627 0
M  V30 946 H 92.8933 -2.95971 -2.26345 0
M  V30 947 H 93.0063 -4.60059 -1.33726 0
M  V30 948 H 91.3703 -2.417 -0.803321 0
M  V30 949 H 92.1533 -3.38743 0.557521 0
M  V30 950 N 94.5984 0.214957 -1.56127 0
M  V30 951 C 96.0094 0.781386 -1.69562 0
M  V30 952 C 96.3604 1.84707 -0.66165 0
M  V30 953 O 95.4854 2.156 0.185927 0
M  V30 954 C 96.0804 1.42411 -3.07416 0
M  V30 955 C 94.6394 1.93786 -3.22683 0
M  V30 956 C 93.7864 0.800438 -2.65496 0
M  V30 957 H 96.7374 -0.00980633 -1.58697 0
M  V30 958 H 96.7584 2.29309 -3.0364 0
M  V30 959 H 96.2704 0.64826 -3.82648 0
M  V30 960 H 94.3714 2.74152 -2.52332 0
M  V30 961 H 94.4844 2.1133 -4.29973 0
M  V30 962 H 92.8484 1.2095 -2.2415 0
M  V30 963 H 93.6314 0.0371471 -3.4328 0
M  V30 964 N 96.0765 1.50051 0.48192 0
M  V30 965 C 96.9865 1.7089 1.60728 0
M  V30 966 C 98.0025 0.591788 1.63627 0
M  V30 967 O 99.1785 0.868817 1.81696 0
M  V30 968 C 96.2435 1.78855 2.97005 0
M  V30 969 C 95.3045 3.02537 3.04581 0
M  V30 970 C 94.5375 3.10112 4.34357 0
M  V30 971 O 94.7605 2.24765 5.24249 0
M  V30 972 O 93.6945 4.02747 4.47301 0
M  V30 973 H 97.5205 2.66264 1.46072 0
M  V30 974 H 95.1055 1.34018 0.660264 0
M  V30 975 H 96.9875 1.86336 3.77964 0
M  V30 976 H 95.6625 0.866628 3.11883 0
M  V30 977 H 94.5695 3.00563 2.22739 0
M  V30 978 H 95.9025 3.94272 2.94636 0
M  V30 979 N 97.5546 -0.734337 1.39446 0
M  V30 980 C 98.8006 -1.49613 1.36908 0
M  V30 981 C 99.1336 -1.94169 -0.0347829 0
M  V30 982 O 98.4086 -1.66833 -0.999847 0
M  V30 983 C 98.6916 -2.73534 2.34203 0
M  V30 984 C 98.5446 -2.34993 3.83534 0
M  V30 985 C 99.8636 -3.75635 2.29317 0
M  V30 986 H 96.9826 -0.542714 0.498629 0
M  V30 987 H 99.6246 -0.839597 1.70443 0
M  V30 988 H 97.7746 -3.29553 2.05736 0
M  V30 989 H 99.4466 -1.84601 4.22753 0
M  V30 990 H 97.6896 -1.67213 4.00278 0
M  V30 991 H 98.3606 -3.23738 4.47099 0
M  V30 992 H 100.837 -3.29203 2.54489 0
M  V30 993 H 99.7126 -4.60008 2.99472 0
M  V30 994 H 99.9736 -4.22603 1.29842 0
M  V30 995 N 99.0327 -1.24633 -0.964593 0
M  V30 996 C 99.9827 -1.00841 -2.04487 0
M  V30 997 C 100.967 0.0512468 -1.60818 0
M  V30 998 O 102.159 -0.162865 -1.76249 0
M  V30 999 C 99.2877 -0.618474 -3.37683 0
M  V30 1000 C 98.3737 -1.71437 -3.87905 0
M  V30 1001 N 98.7647 -2.9477 -4.11029 0
M  V30 1002 C 97.0627 -1.5926 -4.16596 0
M  V30 1003 C 97.7637 -3.65834 -4.52261 0
M  V30 1004 N 96.7397 -2.9341 -4.57615 0
M  V30 1005 H 100.542 -1.94487 -2.20345 0
M  V30 1006 H 98.0557 -1.14805 -1.14863 0
M  V30 1007 H 100.053 -0.429247 -4.14684 0
M  V30 1008 H 98.7127 0.310766 -3.23209 0
M  V30 1009 H 99.7237 -3.30917 -3.9839 0
M  V30 1010 H 96.4007 -0.731606 -4.1104 0
M  V30 1011 H 97.7907 -4.71646 -4.78539 0
M  V30 1012 N 100.511 1.16574 -1.06058 0
M  V30 1013 C 101.757 1.87565 -0.78683 0
M  V30 1014 C 102.112 1.80012 0.679214 0
M  V30 1015 O 101.405 1.20327 1.49104 0
M  V30 1016 C 101.599 3.36195 -1.21275 0
M  V30 1017 C 101.428 3.58216 -2.71866 0
M  V30 1018 C 100.198 3.7444 -3.39298 0
M  V30 1019 C 102.396 3.57134 -3.70081 0
M  V30 1020 N 100.378 3.84389 -4.78663 0
M  V30 1021 C 101.749 3.73038 -4.9522 0
M  V30 1022 C 103.804 3.40332 -3.63426 0
M  V30 1023 C 102.507 3.73879 -6.14497 0
M  V30 1024 C 104.533 3.42466 -4.82153 0
M  V30 1025 C 103.895 3.58887 -6.06118 0
M  V30 1026 H 99.9938 0.704081 -0.340284 0
M  V30 1027 H 102.578 1.39885 -1.35426 0
M  V30 1028 H 100.749 3.82522 -0.673179 0
M  V30 1029 H 102.481 3.94839 -0.887917 0
M  V30 1030 H 99.2358 3.74662 -2.89699 0
M  V30 1031 H 99.6598 3.93138 -5.51155 0
M  V30 1032 H 104.302 3.26566 -2.68541 0
M  V30 1033 H 102.02 3.86427 -7.09718 0
M  V30 1034 H 105.606 3.30712 -4.78666 0
M  V30 1035 H 104.486 3.60454 -6.9645 0
M  V30 1036 N 101.989 0.842826 1.3317 0
M  V30 1037 C 102.919 0.294028 2.31641 0
M  V30 1038 C 103.9 -0.600401 1.59151 0
M  V30 1039 O 105.085 -0.523124 1.87022 0
M  V30 1040 C 102.215 -0.528416 3.43257 0
M  V30 1041 C 101.169 0.27056 4.27144 0
M  V30 1042 C 100.495 -0.675881 5.30411 0
M  V30 1043 C 101.795 1.48981 5.00602 0
M  V30 1044 H 103.489 1.11681 2.77791 0
M  V30 1045 H 101.035 0.538478 1.33553 0
M  V30 1046 H 102.988 -0.922674 4.11175 0
M  V30 1047 H 101.712 -1.38445 2.95805 0
M  V30 1048 H 100.371 0.646427 3.60856 0
M  V30 1049 H 100.019 -1.52842 4.79216 0
M  V30 1050 H 99.7189 -0.145374 5.8742 0
M  V30 1051 H 101.243 -1.06757 6.01195 0
M  V30 1052 H 102.657 1.16849 5.61266 0
M  V30 1053 H 101.054 1.95739 5.6728 0
M  V30 1054 H 102.124 2.25746 4.29147 0
M  V30 1055 N 103.467 -1.45747 0.599634 0
M  V30 1056 C 104.883 -1.57424 0.26264 0
M  V30 1057 C 105.083 -1.59222 -1.23493 0
M  V30 1058 O 104.139 -1.51825 -2.01756 0
M  V30 1059 C 105.452 -2.86061 0.926795 0
M  V30 1060 C 107 -2.99722 0.901967 0
M  V30 1061 C 107.475 -4.31119 1.54598 0
M  V30 1062 N 108.966 -4.37858 1.5111 0
M  V30 1063 C 109.701 -5.3818 1.97863 0
M  V30 1064 N 109.197 -6.45083 2.52666 0
M  V30 1065 N 110.99 -5.29487 1.88679 0
M  V30 1066 H 103.141 -1.42823 1.57211 0
M  V30 1067 H 105.404 -0.68235 0.658105 0
M  V30 1068 H 105.11 -2.90605 1.98095 0
M  V30 1069 H 104.984 -3.74563 0.445238 0
M  V30 1070 H 107.371 -2.9475 -0.143617 0
M  V30 1071 H 107.452 -2.12652 1.42171 0
M  V30 1072 H 107.096 -4.36849 2.59085 0
M  V30 1073 H 107.026 -5.16992 1.00132 0
M  V30 1074 H 109.517 -3.61209 1.11068 0
M  V30 1075 H 109.83 -7.17869 2.86155 0
M  V30 1076 H 108.175 -6.45856 2.56701 0
M  V30 1077 H 111.366 -4.44877 1.4561 0
M  V30 1078 H 111.539 -6.07524 2.25429 0
M  V30 1079 N 104.945 -0.338344 -1.53925 0
M  V30 1080 C 106.222 0.314774 -1.93051 0
M  V30 1081 C 106.602 1.68669 -1.26941 0
M  V30 1082 O 105.95 2.24636 -0.418445 0
M  V30 1083 C 106.16 0.392249 -3.46789 0
M  V30 1084 C 107.508 0.645554 -4.19664 0
M  V30 1085 O 108.532 0.474575 -3.53024 0
M  V30 1086 O 107.391 0.976408 -5.37707 0
M  V30 1087 H 104.485 0.182598 -0.80659 0
M  V30 1088 H 107.031 -0.389141 -1.65178 0
M  V30 1089 H 105.803 -0.570702 -3.87116 0
M  V30 1090 H 105.426 1.14316 -3.80812 0
M  V30 1091 N 106.423 1.57458 -0.0668435 0
M  V30 1092 C 107.671 1.92919 0.602214 0
M  V30 1093 C 107.992 0.947215 1.70449 0
M  V30 1094 O 107.262 -0.00544117 1.95899 0
M  V30 1095 H 105.842 0.71217 0.22544 0
M  V30 1096 H 108.504 1.94508 -0.123535 0
M  V30 1097 H 107.6 2.94589 1.03073 0
M  V30 1098 N 107.901 -0.206675 1.56239 0
M  V30 1099 C 108.833 -1.27997 1.9013 0
M  V30 1100 C 109.846 -1.42299 0.790883 0
M  V30 1101 O 111.035 -1.42931 1.06925 0
M  V30 1102 C 108.135 -2.65368 2.10792 0
M  V30 1103 C 107.308 -2.72824 3.41886 0
M  V30 1104 C 106.367 -3.9131 3.51799 0
M  V30 1105 O 105.393 -3.78953 4.24716 0
M  V30 1106 N 106.595 -5.06265 2.84035 0
M  V30 1107 H 109.36 -0.992444 2.82791 0
M  V30 1108 H 106.921 -0.396652 1.56966 0
M  V30 1109 H 108.913 -3.43039 2.14724 0
M  V30 1110 H 107.483 -2.86657 1.24685 0
M  V30 1111 H 106.703 -1.81515 3.49923 0
M  V30 1112 H 107.991 -2.74786 4.28217 0
M  V30 1113 H 107.389 -5.19203 2.246 0
M  V30 1114 H 105.946 -5.81925 2.93609 0
M  V30 1115 N 109.379 -1.50304 -0.473955 0
M  V30 1116 C 110.628 -1.60392 -1.22301 0
M  V30 1117 C 110.941 -0.308411 -1.93153 0
M  V30 1118 O 112.147 -0.288156 -2.69966 0
M  V30 1119 C 110.603 -2.83109 -2.2221 0
M  V30 1120 C 110.211 -4.19524 -1.57173 0
M  V30 1121 C 111.955 -3.0254 -2.97775 0
M  V30 1122 C 109.862 -5.33431 -2.55353 0
M  V30 1123 H 108.792 -0.597286 -0.460179 0
M  V30 1124 H 111.443 -1.76731 -0.493803 0
M  V30 1125 H 109.825 -2.60322 -2.9841 0
M  V30 1126 H 110.999 -4.52554 -0.867824 0
M  V30 1127 H 109.314 -4.05674 -0.939002 0
M  V30 1128 H 111.911 -3.84811 -3.71248 0
M  V30 1129 H 112.254 -2.14154 -3.56992 0
M  V30 1130 H 112.787 -3.25494 -2.28688 0
M  V30 1131 H 109.526 -6.23962 -2.00878 0
M  V30 1132 H 109.046 -5.04823 -3.23904 0
M  V30 1133 H 110.725 -5.63887 -3.17239 0
M  V30 1134 N 110.857 0.726932 -1.39834 0
M  V30 1135 C 111.787 1.85405 -1.41941 0
M  V30 1136 C 112.768 1.67751 -0.281728 0
M  V30 1137 O 113.953 1.8795 -0.488717 0
M  V30 1138 C 111.083 3.23243 -1.2701 0
M  V30 1139 C 110.037 3.55549 -2.38262 0
M  V30 1140 C 109.363 4.9241 -2.08415 0
M  V30 1141 C 110.663 3.577 -3.80589 0
M  V30 1142 H 112.357 1.83899 -2.36266 0
M  V30 1143 H 109.903 0.883349 -1.13723 0
M  V30 1144 H 111.856 4.01775 -1.27103 0
M  V30 1145 H 110.58 3.25296 -0.291564 0
M  V30 1146 H 109.239 2.79351 -2.37399 0
M  V30 1147 H 108.887 4.91052 -1.0898 0
M  V30 1148 H 108.587 5.14992 -2.82943 0
M  V30 1149 H 110.111 5.73289 -2.10171 0
M  V30 1150 H 111.525 4.26293 -3.83337 0
M  V30 1151 H 109.922 3.91804 -4.54543 0
M  V30 1152 H 110.992 2.57328 -4.10987 0
M  V30 1153 N 112.336 1.25143 0.95797 0
M  V30 1154 C 113.246 1.06968 2.08794 0
M  V30 1155 C 114.262 0.00773911 1.73998 0
M  V30 1156 O 115.438 0.207972 2.00323 0
M  V30 1157 C 112.503 0.68691 3.39827 0
M  V30 1158 C 111.564 1.82641 3.88511 0
M  V30 1159 C 110.797 1.46181 5.1329 0
M  V30 1160 O 111.02 0.355971 5.69288 0
M  V30 1161 O 109.954 2.29085 5.566 0
M  V30 1162 H 113.78 2.01723 2.27027 0
M  V30 1163 H 111.365 1.04051 1.07209 0
M  V30 1164 H 113.247 0.485417 4.18595 0
M  V30 1165 H 111.922 -0.231417 3.22872 0
M  V30 1166 H 110.829 2.08274 3.10762 0
M  V30 1167 H 112.162 2.72386 4.09959 0
M  V30 1168 N 113.814 -1.1601 1.06675 0
M  V30 1169 C 114.744 -2.22688 0.702307 0
M  V30 1170 C 115.725 -1.67306 -0.307032 0
M  V30 1171 O 116.91 -1.93352 -0.181305 0
M  V30 1172 C 114.04 -3.47178 0.092038 0
M  V30 1173 C 112.994 -4.15477 1.02777 0
M  V30 1174 C 112.32 -5.33963 0.28061 0
M  V30 1175 C 113.62 -4.66019 2.35846 0
M  V30 1176 H 115.314 -2.53429 1.59419 0
M  V30 1177 H 112.86 -1.21813 0.767961 0
M  V30 1178 H 114.813 -4.21037 -0.174814 0
M  V30 1179 H 113.537 -3.15749 -0.834877 0
M  V30 1180 H 112.196 -3.43549 1.27944 0
M  V30 1181 H 111.844 -4.98788 -0.649545 0
M  V30 1182 H 111.544 -5.806 0.904258 0
M  V30 1183 H 113.068 -6.10596 0.021396 0
M  V30 1184 H 114.482 -5.3144 2.15045 0
M  V30 1185 H 112.879 -5.23293 2.93743 0
M  V30 1186 H 113.949 -3.82023 2.98641 0
M  V30 1187 N 115.292 -0.849877 -1.32721 0
M  V30 1188 C 116.255 -0.296122 -2.27279 0
M  V30 1189 C 117.255 0.541458 -1.5141 0
M  V30 1190 O 118.445 0.353658 -1.70572 0
M  V30 1191 C 115.577 0.581579 -3.35902 0
M  V30 1192 H 116.77 -1.13064 -2.77771 0
M  V30 1193 H 114.323 -0.62383 -1.43311 0
M  V30 1194 H 115.058 1.43809 -2.9067 0
M  V30 1195 H 114.843 -0.0178814 -3.92096 0
M  V30 1196 H 116.333 0.961951 -4.0637 0
M  V30 1197 N 116.77 1.45427 -0.607355 0
M  V30 1198 C 118.047 1.9557 -0.0344566 0
M  V30 1199 C 118.427 1.54979 1.43334 0
M  V30 1200 O 117.775 0.812241 2.13576 0
M  V30 1201 C 117.985 3.48226 -0.232321 0
M  V30 1202 C 119.333 4.2445 -0.113001 0
M  V30 1203 O 120.357 3.55829 -0.162431 0
M  V30 1204 O 119.216 5.465 0.00209442 0
M  V30 1205 H 116.31 0.826222 0.0358667 0
M  V30 1206 H 118.856 1.55594 -0.6774 0
M  V30 1207 H 117.628 3.70739 -1.25174 0
M  V30 1208 H 117.251 3.95092 0.445896 0
M  V30 1209 N 118.248 0.346503 1.53744 0
M  V30 1210 C 119.473 -0.253074 2.0585 0
M  V30 1211 C 119.898 -1.43202 1.21962 0
M  V30 1212 O 119.256 -1.79783 0.234073 0
M  V30 1213 C 119.304 -0.643193 3.54817 0
M  V30 1214 O 118.408 -1.74286 3.73762 0
M  V30 1215 H 117.749 -0.0413583 0.662711 0
M  V30 1216 H 120.279 0.501574 1.98357 0
M  V30 1217 H 120.289 -0.919526 3.97503 0
M  V30 1218 H 118.964 0.218966 4.15323 0
M  V30 1219 H 117.541 -1.46356 3.42979 0
M  V30 1220 N 119.726 -1.57421 0.075193 0
M  V30 1221 C 120.954 -1.97946 -0.602076 0
M  V30 1222 C 121.369 -0.953674 -1.62943 0
M  V30 1223 O 120.726 0.0592551 -1.82404 0
M  V30 1224 C 120.777 -3.38546 -1.26762 0
M  V30 1225 O 120.498 -4.37195 -0.281376 0
M  V30 1226 C 121.999 -3.93966 -2.03239 0
M  V30 1227 H 119.219 -0.650918 -0.162931 0
M  V30 1228 H 121.763 -2.03959 0.148601 0
M  V30 1229 H 119.918 -3.33609 -1.96936 0
M  V30 1230 H 120.332 -5.18975 -0.759267 0
M  V30 1231 H 121.806 -4.94555 -2.45193 0
M  V30 1232 H 122.283 -3.30693 -2.8903 0
M  V30 1233 H 122.889 -4.02315 -1.37924 0
M  V30 1234 N 121.204 0.198386 -1.56346 0
M  V30 1235 C 122.136 1.26987 -1.90806 0
M  V30 1236 C 123.149 1.41877 -0.798419 0
M  V30 1237 O 124.338 1.42362 -1.07682 0
M  V30 1238 C 121.438 2.64246 -2.12196 0
M  V30 1239 C 120.611 2.71007 -3.43328 0
M  V30 1240 C 119.67 3.89439 -3.5387 0
M  V30 1241 O 118.696 3.76695 -4.26719 0
M  V30 1242 N 119.898 5.04752 -2.86715 0
M  V30 1243 H 122.663 0.977433 -2.83313 0
M  V30 1244 H 120.224 0.388322 -1.57174 0
M  V30 1245 H 122.216 3.41896 -2.1654 0
M  V30 1246 H 120.786 2.85992 -1.26204 0
M  V30 1247 H 120.006 1.79657 -3.50881 0
M  V30 1248 H 121.294 2.72512 -4.29668 0
M  V30 1249 H 120.692 5.18004 -2.2735 0
M  V30 1250 H 119.249 5.8036 -2.96691 0
M  V30 1251 N 122.682 1.50554 0.465978 0
M  V30 1252 C 123.91 1.65563 1.24083 0
M  V30 1253 C 124.325 0.341051 1.85694 0
M  V30 1254 O 123.682 -0.677543 1.69457 0
M  V30 1255 C 123.733 2.75051 2.34583 0
M  V30 1256 O 123.454 4.01413 1.75497 0
M  V30 1257 C 124.955 3.01078 3.25372 0
M  V30 1258 H 122.175 0.55638 0.375077 0
M  V30 1259 H 124.719 1.96807 0.555624 0
M  V30 1260 H 122.874 2.46486 2.9887 0
M  V30 1261 H 123.288 4.62002 2.48303 0
M  V30 1262 H 124.762 3.81339 3.99105 0
M  V30 1263 H 125.239 2.12349 3.84453 0
M  V30 1264 H 125.845 3.31194 2.66816 0
M  V30 1265 N 124.16 -0.719506 1.40217 0
M  V30 1266 C 125.092 -1.84428 1.36084 0
M  V30 1267 C 126.105 -1.60597 0.266913 0
M  V30 1268 O 127.294 -1.70544 0.526983 0
M  V30 1269 C 124.394 -3.20757 1.094 0
M  V30 1270 C 123.567 -3.71817 2.30372 0
M  V30 1271 C 122.626 -4.86748 1.99907 0
M  V30 1272 O 121.652 -4.99603 2.72737 0
M  V30 1273 N 122.854 -5.7226 0.974635 0
M  V30 1274 H 125.619 -1.88473 2.33019 0
M  V30 1275 H 123.18 -0.900885 1.3452 0
M  V30 1276 H 125.172 -3.95235 0.870116 0
M  V30 1277 H 123.742 -3.11884 0.211452 0
M  V30 1278 H 122.962 -2.88514 2.68614 0
M  V30 1279 H 124.25 -4.02666 3.11026 0
M  V30 1280 H 123.648 -5.6448 0.371368 0
M  V30 1281 H 122.205 -6.46739 0.810656 0
M  V30 1282 N 125.638 -1.25649 -0.95132 0
M  V30 1283 C 126.884 -1.10757 -1.69884 0
M  V30 1284 C 127.217 0.350061 -1.91019 0
M  V30 1285 O 126.492 1.25783 -1.48354 0
M  V30 1286 C 126.775 -1.86606 -3.07978 0
M  V30 1287 C 126.628 -3.40217 -2.94232 0
M  V30 1288 C 127.947 -1.65182 -4.07925 0
M  V30 1289 H 125.066 -0.40374 -0.616574 0
M  V30 1290 H 127.708 -1.54521 -1.10558 0
M  V30 1291 H 125.858 -1.49409 -3.58621 0
M  V30 1292 H 127.53 -3.87108 -2.50889 0
M  V30 1293 H 125.773 -3.67759 -2.30078 0
M  V30 1294 H 126.444 -3.88505 -3.92133 0
M  V30 1295 H 128.92 -1.9757 -3.66204 0
M  V30 1296 H 127.796 -2.20683 -5.02583 0
M  V30 1297 H 128.057 -0.593933 -4.38092 0
M  V30 1298 N 127.117 1.15442 -1.07289 0
M  V30 1299 C 128.528 1.67803 -0.818475 0
M  V30 1300 C 128.879 1.8489 0.656507 0
M  V30 1301 O 128.004 1.55176 1.50829 0
M  V30 1302 C 128.599 3.04805 -1.47917 0
M  V30 1303 C 127.158 3.54245 -1.27229 0
M  V30 1304 C 126.305 2.29986 -1.54925 0
M  V30 1305 H 129.256 0.996646 -1.23502 0
M  V30 1306 H 129.277 3.69702 -0.90005 0
M  V30 1307 H 128.789 2.92336 -2.55267 0
M  V30 1308 H 126.89 3.71956 -0.21899 0
M  V30 1309 H 127.003 4.35723 -1.99203 0
M  V30 1310 H 125.367 2.35496 -0.970242 0
M  V30 1311 H 126.15 2.20105 -2.63455 0
M  V30 1312 N 128.595 0.856903 1.32268 0
M  V30 1313 C 129.525 0.31858 2.31316 0
M  V30 1314 C 130.506 -0.583487 1.59779 0
M  V30 1315 O 131.691 -0.503259 1.87566 0
M  V30 1316 C 128.821 -0.491979 3.43798 0
M  V30 1317 C 127.775 0.315849 4.26833 0
M  V30 1318 C 127.101 -0.619586 5.31098 0
M  V30 1319 C 128.401 1.54282 4.98993 0
M  V30 1320 H 130.095 1.14621 2.76591 0
M  V30 1321 H 127.641 0.552613 1.32974 0
M  V30 1322 H 129.594 -0.879012 4.1213 0
M  V30 1323 H 128.318 -1.35299 2.97257 0
M  V30 1324 H 126.977 0.684664 3.6015 0
M  V30 1325 H 126.625 -1.47751 4.8081 0
M  V30 1326 H 126.325 -0.0830621 5.87541 0
M  V30 1327 H 127.849 -1.00375 6.02293 0
M  V30 1328 H 129.263 1.22796 5.59995 0
M  V30 1329 H 127.66 2.01745 5.65172 0
M  V30 1330 H 128.73 2.30285 4.26728 0
M  V30 1331 N 130.073 -1.45103 0.615059 0
M  V30 1332 C 131.321 -2.01784 0.112955 0
M  V30 1333 C 131.642 -1.48504 -1.26378 0
M  V30 1334 O 130.912 -0.682245 -1.83636 0
M  V30 1335 H 129.492 -0.745993 0.0387668 0
M  V30 1336 H 132.154 -1.77808 0.798141 0
M  V30 1337 H 131.25 -3.12025 0.0684069 0
M  V30 1338 N 131.551 -0.354651 -1.53558 0
M  V30 1339 C 132.461 0.50515 -2.29097 0
M  V30 1340 C 133.477 1.10223 -1.34636 0
M  V30 1341 O 134.653 1.11553 -1.67684 0
M  V30 1342 C 131.718 1.63479 -3.05738 0
M  V30 1343 C 130.779 1.06636 -4.15845 0
M  V30 1344 C 130.012 2.14217 -4.88822 0
M  V30 1345 O 130.235 3.35137 -4.61562 0
M  V30 1346 O 129.169 1.77887 -5.75013 0
M  V30 1347 H 132.995 -0.109237 -3.03503 0
M  V30 1348 H 130.58 -0.119357 -1.48922 0
M  V30 1349 H 132.462 2.2918 -3.5363 0
M  V30 1350 H 131.137 2.23478 -2.34178 0
M  V30 1351 H 130.044 0.373565 -3.7223 0
M  V30 1352 H 131.377 0.511081 -4.89539 0
M  V30 1353 N 133.029 1.57378 -0.0835403 0
M  V30 1354 C 134.306 1.85363 0.624507 0
M  V30 1355 C 134.686 0.978239 1.87066 0
M  V30 1356 O 134.034 0.0475908 2.2845 0
M  V30 1357 C 134.244 3.35795 0.950947 0
M  V30 1358 C 135.592 4.03581 1.31939 0
M  V30 1359 O 136.616 3.40609 1.04232 0
M  V30 1360 O 135.475 5.14672 1.83779 0
M  V30 1361 H 132.569 0.766162 0.311329 0
M  V30 1362 H 135.115 1.69307 -0.115362 0
M  V30 1363 H 133.887 3.91244 0.0663899 0
M  V30 1364 H 133.51 3.57154 1.74719 0
M  V30 1365 N 134.507 -0.190092 1.56449 0
M  V30 1366 C 135.417 -1.25591 1.98152 0
M  V30 1367 C 136.433 -1.49519 0.889944 0
M  V30 1368 O 137.609 -1.62036 1.19609 0
M  V30 1369 C 134.674 -2.57916 2.3169 0
M  V30 1370 C 133.735 -2.42015 3.5458 0
M  V30 1371 C 132.968 -3.6803 3.8651 0
M  V30 1372 O 133.191 -4.72413 3.1966 0
M  V30 1373 O 132.125 -3.6326 4.79923 0
M  V30 1374 H 135.951 -0.931988 2.89046 0
M  V30 1375 H 133.536 -0.395488 1.4407 0
M  V30 1376 H 135.418 -3.36008 2.54316 0
M  V30 1377 H 134.093 -2.89925 1.43963 0
M  V30 1378 H 133 -1.62017 3.37196 0
M  V30 1379 H 134.333 -2.14937 4.4279 0
M  V30 1380 N 135.985 -1.50799 -0.457987 0
M  V30 1381 C 136.917 -1.66786 -1.57211 0
M  V30 1382 C 137.93 -0.548962 -1.53265 0
M  V30 1383 O 139.119 -0.8226 -1.58416 0
M  V30 1384 C 136.219 -1.64834 -2.96113 0
M  V30 1385 C 135.392 -2.92971 -3.24787 0
M  V30 1386 C 134.451 -2.83485 -4.43309 0
M  V30 1387 O 133.477 -3.5744 -4.42973 0
M  V30 1388 N 134.679 -1.97929 -5.45714 0
M  V30 1389 H 137.444 -2.62889 -1.43909 0
M  V30 1390 H 135.005 -1.48427 -0.646617 0
M  V30 1391 H 136.997 -1.56084 -3.7339 0
M  V30 1392 H 135.567 -0.764118 -3.03117 0
M  V30 1393 H 134.787 -3.15749 -2.36 0
M  V30 1394 H 136.075 -3.77834 -3.40762 0
M  V30 1395 H 135.473 -1.37182 -5.48815 0
M  V30 1396 H 134.03 -1.95073 -6.21924 0
M  V30 1397 N 137.463 0.71206 -1.40597 0
M  V30 1398 C 138.74 1.46536 -1.29563 0
M  V30 1399 C 139.12 2.10931 0.0844217 0
M  V30 1400 O 138.468 2.00418 1.0975 0
M  V30 1401 C 138.678 2.49821 -2.43701 0
M  V30 1402 C 140.026 3.15551 -2.841 0
M  V30 1403 O 141.05 2.60142 -2.4332 0
M  V30 1404 O 139.909 4.15867 -3.54566 0
M  V30 1405 H 137.003 0.651801 -0.509004 0
M  V30 1406 H 139.549 0.743935 -1.52524 0
M  V30 1407 H 138.321 2.00778 -3.35863 0
M  V30 1408 H 137.944 3.29495 -2.22528 0
M  V30 1409 N 138.941 1.26152 0.944643 0
M  V30 1410 C 140.218 1.02247 1.66748 0
M  V30 1411 C 140.598 -0.448202 2.06287 0
M  V30 1412 O 139.946 -1.42779 1.78399 0
M  V30 1413 C 140.156 1.96788 2.88228 0
M  V30 1414 C 141.504 2.25201 3.59958 0
M  V30 1415 O 142.528 1.94626 2.98327 0
M  V30 1416 O 141.387 2.77242 4.70956 0
M  V30 1417 H 138.481 0.388517 0.730057 0
M  V30 1418 H 141.027 1.37348 0.99668 0
M  V30 1419 H 139.799 2.96047 2.55875 0
M  V30 1420 H 139.422 1.62145 3.63035 0
M  V30 1421 N 140.419 -1.14872 1.07899 0
M  V30 1422 C 141.665 -1.86289 0.81657 0
M  V30 1423 C 142.02 -1.8107 -0.65049 0
M  V30 1424 O 141.313 -1.22684 -1.47171 0
M  V30 1425 C 141.507 -3.34223 1.26609 0
M  V30 1426 C 141.336 -3.53846 2.77531 0
M  V30 1427 C 140.106 -3.68995 3.45212 0
M  V30 1428 C 142.304 -3.51201 3.75716 0
M  V30 1429 N 140.286 -3.76725 4.84718 0
M  V30 1430 C 141.657 -3.65112 5.01092 0
M  V30 1431 C 143.712 -3.34507 3.68794 0
M  V30 1432 C 142.415 -3.64056 6.20368 0
M  V30 1433 C 144.441 -3.34752 4.8754 0
M  V30 1434 C 143.803 -3.49199 6.11751 0
M  V30 1435 H 139.902 -0.698579 0.351443 0
M  V30 1436 H 142.486 -1.37713 1.37634 0
M  V30 1437 H 140.657 -3.81402 0.73395 0
M  V30 1438 H 142.389 -3.93377 0.95062 0
M  V30 1439 H 139.144 -3.70006 2.95622 0
M  V30 1440 H 139.568 -3.8432 5.5734 0
M  V30 1441 H 144.21 -3.22253 2.73702 0
M  V30 1442 H 141.928 -3.75087 7.15776 0
M  V30 1443 H 145.514 -3.23055 4.83866 0
M  V30 1444 H 144.394 -3.49328 7.02097 0
M  V30 1445 N 141.898 -0.863906 -1.31812 0
M  V30 1446 C 143.147 -0.46801 -1.96195 0
M  V30 1447 C 143.46 0.983474 -1.69077 0
M  V30 1448 O 144.666 1.48523 -2.27273 0
M  V30 1449 C 143.122 -0.785995 -3.51212 0
M  V30 1450 C 142.73 -2.25383 -3.87178 0
M  V30 1451 C 144.474 -0.458274 -4.22019 0
M  V30 1452 C 142.381 -2.51455 -5.3528 0
M  V30 1453 H 141.311 -0.171283 -0.734287 0
M  V30 1454 H 143.962 -1.05597 -1.50072 0
M  V30 1455 H 142.344 -0.127359 -3.95795 0
M  V30 1456 H 143.518 -2.95502 -3.53575 0
M  V30 1457 H 141.833 -2.54698 -3.2942 0
M  V30 1458 H 144.43 -0.630369 -5.30971 0
M  V30 1459 H 144.773 0.600834 -4.11941 0
M  V30 1460 H 145.306 -1.07319 -3.8305 0
M  V30 1461 H 142.045 -3.56025 -5.50387 0
M  V30 1462 H 141.565 -1.85923 -5.70257 0
M  V30 1463 H 143.244 -2.35874 -6.02472 0
M  V30 1464 N 143.376 1.44774 -0.622745 0
M  V30 1465 C 144.622 2.0242 -0.124083 0
M  V30 1466 C 144.955 1.4881 1.24777 0
M  V30 1467 O 144.23 0.668799 1.8264 0
M  V30 1468 C 144.513 3.59957 -0.101619 0
M  V30 1469 C 144.366 4.23867 -1.50521 0
M  V30 1470 C 145.685 4.36284 0.578272 0
M  V30 1471 H 142.804 0.735528 -0.0465645 0
M  V30 1472 H 145.446 1.72447 -0.797617 0
M  V30 1473 H 143.596 3.85623 0.471934 0
M  V30 1474 H 145.268 4.09336 -2.12701 0
M  V30 1475 H 143.511 3.81684 -2.06154 0
M  V30 1476 H 144.182 5.32843 -1.4416 0
M  V30 1477 H 146.658 4.16001 0.0906057 0
M  V30 1478 H 145.534 5.46004 0.563149 0
M  V30 1479 H 145.795 4.10271 1.64713 0
M  V30 1480 N 144.854 0.36279 1.53368 0
M  V30 1481 C 146.1 -0.228113 2.01513 0
M  V30 1482 C 146.433 -1.48648 1.2497 0
M  V30 1483 O 145.708 -1.91459 0.342616 0
M  V30 1484 C 145.991 -0.522884 3.56284 0
M  V30 1485 C 145.844 0.74892 4.43521 0
M  V30 1486 C 147.163 -1.32461 4.19693 0
M  V30 1487 H 144.282 -0.0814343 0.732487 0
M  V30 1488 H 146.924 0.48713 1.83649 0
M  V30 1489 H 145.074 -1.1322 3.71636 0
M  V30 1490 H 146.746 1.38648 4.39971 0
M  V30 1491 H 144.989 1.36986 4.11603 0
M  V30 1492 H 145.66 0.497667 5.49752 0
M  V30 1493 H 148.136 -0.809203 4.08156 0
M  V30 1494 H 147.012 -1.49961 5.28018 0
M  V30 1495 H 147.273 -2.33232 3.75573 0
M  V30 1496 N 146.332 -1.57332 0.0918853 0
M  V30 1497 C 147.557 -1.98995 -0.584442 0
M  V30 1498 C 147.982 -0.970528 -1.61128 0
M  V30 1499 O 147.34 0.0613904 -1.81196 0
M  V30 1500 C 147.388 -3.39636 -1.21161 0
M  V30 1501 O 146.492 -3.40447 -2.32744 0
M  V30 1502 H 145.833 -0.647165 -0.148572 0
M  V30 1503 H 148.363 -2.03873 0.172347 0
M  V30 1504 H 148.373 -3.7726 -1.55367 0
M  V30 1505 H 147.048 -4.13356 -0.459313 0
M  V30 1506 H 145.625 -3.14614 -2.0018 0
M  V30 1507 N 147.81 0.181792 -1.56548 0
M  V30 1508 C 148.742 1.24956 -1.92142 0
M  V30 1509 C 149.755 1.41022 -0.813422 0
M  V30 1510 O 150.944 1.41212 -1.09186 0
M  V30 1511 C 148.044 2.61981 -2.14987 0
M  V30 1512 C 147.217 2.6735 -3.46183 0
M  V30 1513 C 146.276 3.85664 -3.5798 0
M  V30 1514 O 145.302 3.72148 -4.30691 0
M  V30 1515 N 146.504 5.01683 -2.92053 0
M  V30 1516 H 149.269 0.947329 -2.84334 0
M  V30 1517 H 146.83 0.371629 -1.57577 0
M  V30 1518 H 148.822 3.3958 -2.20154 0
M  V30 1519 H 147.392 2.84637 -1.2923 0
M  V30 1520 H 146.612 1.75925 -3.52766 0
M  V30 1521 H 147.9 2.67939 -4.32534 0
M  V30 1522 H 147.298 5.15564 -2.32832 0
M  V30 1523 H 145.855 5.77181 -3.0283 0
M  V30 1524 N 149.288 1.51039 0.449983 0
M  V30 1525 C 150.218 1.74379 1.55288 0
M  V30 1526 C 151.199 0.593236 1.5942 0
M  V30 1527 O 152.384 0.834625 1.7535 0
M  V30 1528 C 149.514 1.85728 2.93466 0
M  V30 1529 C 148.468 3.01078 3.04197 0
M  V30 1530 C 147.794 2.97595 4.44231 0
M  V30 1531 C 149.094 4.41254 2.7945 0
M  V30 1532 H 150.788 2.66725 1.36008 0
M  V30 1533 H 148.334 1.2835 0.652864 0
M  V30 1534 H 150.287 2.0064 3.70569 0
M  V30 1535 H 149.011 0.900207 3.13949 0
M  V30 1536 H 147.67 2.85851 2.29531 0
M  V30 1537 H 147.318 1.99691 4.61663 0
M  V30 1538 H 147.018 3.75046 4.52343 0
M  V30 1539 H 148.542 3.14583 5.23326 0
M  V30 1540 H 149.956 4.56897 3.46292 0
M  V30 1541 H 148.353 5.20315 2.98985 0
M  V30 1542 H 149.423 4.52164 1.75144 0
M  V30 1543 N 150.766 -0.704594 1.40972 0
M  V30 1544 C 152.182 -1.01406 1.23244 0
M  V30 1545 C 152.382 -2.01169 0.115399 0
M  V30 1546 O 151.438 -2.47021 -0.523147 0
M  V30 1547 C 152.751 -1.54728 2.57836 0
M  V30 1548 C 154.299 -1.66658 2.64942 0
M  V30 1549 C 154.774 -2.23383 3.9983 0
M  V30 1550 N 156.265 -2.30756 4.01629 0
M  V30 1551 C 157 -2.75655 5.02794 0
M  V30 1552 N 156.496 -3.20225 6.14352 0
M  V30 1553 N 158.289 -2.75138 4.90159 0
M  V30 1554 H 150.44 -0.0435285 2.12355 0
M  V30 1555 H 152.703 -0.0818951 0.944456 0
M  V30 1556 H 152.409 -0.888832 3.40283 0
M  V30 1557 H 152.283 -2.53084 2.79693 0
M  V30 1558 H 154.67 -2.31617 1.8286 0
M  V30 1559 H 154.751 -0.668717 2.46904 0
M  V30 1560 H 154.395 -1.59043 4.82357 0
M  V30 1561 H 154.325 -3.23904 4.15203 0
M  V30 1562 H 156.816 -1.99291 3.21079 0
M  V30 1563 H 157.129 -3.53084 6.87424 0
M  V30 1564 H 155.474 -3.18156 6.17901 0
M  V30 1565 H 158.665 -2.39661 4.02095 0
M  V30 1566 H 158.838 -3.09812 5.6914 0
M  V30 1567 N 152.244 -1.26651 -0.937939 0
M  V30 1568 C 153.493 -1.11775 -1.67897 0
M  V30 1569 C 153.806 0.33794 -1.92659 0
M  V30 1570 O 155.012 0.607434 -2.64618 0
M  V30 1571 C 153.468 -1.9523 -3.02346 0
M  V30 1572 C 153.076 -3.45393 -2.8532 0
M  V30 1573 C 154.82 -1.88972 -3.80118 0
M  V30 1574 C 152.727 -4.21083 -4.15263 0
M  V30 1575 H 151.657 -0.414696 -0.629717 0
M  V30 1576 H 154.308 -1.50988 -1.04283 0
M  V30 1577 H 152.69 -1.48853 -3.66959 0
M  V30 1578 H 153.864 -3.99561 -2.29537 0
M  V30 1579 H 152.179 -3.52921 -2.20988 0
M  V30 1580 H 154.776 -2.42805 -4.76392 0
M  V30 1581 H 155.119 -0.86113 -4.07296 0
M  V30 1582 H 155.652 -2.33189 -3.22285 0
M  V30 1583 H 152.391 -5.24425 -3.93267 0
M  V30 1584 H 151.911 -3.71695 -4.70747 0
M  V30 1585 H 153.59 -4.29706 -4.83696 0
M  V30 1586 N 153.722 1.14298 -1.08507 0
M  V30 1587 C 154.95 1.89219 -0.836876 0
M  V30 1588 C 155.365 1.78638 0.611054 0
M  V30 1589 O 154.722 1.14643 1.41998 0
M  V30 1590 C 154.773 3.39158 -1.25116 0
M  V30 1591 O 154.494 3.49449 -2.64229 0
M  V30 1592 C 155.995 4.31073 -1.03398 0
M  V30 1593 H 153.215 0.599328 -0.301739 0
M  V30 1594 H 155.759 1.44746 -1.44461 0
M  V30 1595 H 153.914 3.81251 -0.687514 0
M  V30 1596 H 154.328 4.42589 -2.81452 0
M  V30 1597 H 155.802 5.34646 -1.37323 0
M  V30 1598 H 156.279 4.3919 0.0289259 0
M  V30 1599 H 156.885 3.94738 -1.58311 0
M  V30 1600 N 155.201 0.870884 1.31352 0
M  V30 1601 C 156.426 0.495957 2.01383 0
M  V30 1602 C 156.851 -0.904324 1.64935 0
M  V30 1603 O 156.209 -1.59687 0.858466 0
M  V30 1604 C 156.257 0.661433 3.54482 0
M  V30 1605 O 155.361 -0.298851 4.11316 0
M  V30 1606 H 154.702 0.197158 0.634054 0
M  V30 1607 H 157.232 1.17455 1.67527 0
M  V30 1608 H 157.242 0.555072 4.04207 0
M  V30 1609 H 155.917 1.68246 3.8035 0
M  V30 1610 H 154.494 -0.147368 3.72609 0
M  V30 1611 N 156.679 -1.44442 0.630414 0
M  V30 1612 C 157.609 -2.33418 -0.0618083 0
M  V30 1613 C 158.59 -1.48165 -0.835541 0
M  V30 1614 O 159.775 -1.76886 -0.801564 0
M  V30 1615 C 156.905 -3.31222 -1.04449 0
M  V30 1616 C 155.859 -4.26288 -0.382436 0
M  V30 1617 C 155.185 -5.13954 -1.47497 0
M  V30 1618 C 156.485 -5.1744 0.710865 0
M  V30 1619 H 158.179 -2.91548 0.681184 0
M  V30 1620 H 155.725 -1.40191 0.329026 0
M  V30 1621 H 157.678 -3.92351 -1.53748 0
M  V30 1622 H 156.402 -2.71299 -1.81836 0
M  V30 1623 H 155.061 -3.6649 0.0899054 0
M  V30 1624 H 154.709 -4.50385 -2.2397 0
M  V30 1625 H 154.409 -5.7837 -1.03737 0
M  V30 1626 H 155.933 -5.77955 -1.96979 0
M  V30 1627 H 157.347 -5.72509 0.300996 0
M  V30 1628 H 155.744 -5.90455 1.07156 0
M  V30 1629 H 156.814 -4.58496 1.57829 0
M  V30 1630 N 158.157 -0.370918 -1.53173 0
M  V30 1631 C 159.089 0.507823 -2.23503 0
M  V30 1632 C 160.102 1.04182 -1.251 0
M  V30 1633 O 161.291 0.947286 -1.5129 0
M  V30 1634 C 158.391 1.71447 -2.92334 0
M  V30 1635 C 157.564 1.31105 -4.17289 0
M  V30 1636 C 156.623 2.38035 -4.69282 0
M  V30 1637 O 155.649 2.00204 -5.32829 0
M  V30 1638 N 156.851 3.69697 -4.47554 0
M  V30 1639 H 159.616 -0.0946382 -2.99551 0
M  V30 1640 H 157.177 -0.196358 -1.60705 0
M  V30 1641 H 159.169 2.42469 -3.24023 0
M  V30 1642 H 157.739 2.22368 -2.19707 0
M  V30 1643 H 156.959 0.430462 -3.91843 0
M  V30 1644 H 158.247 1.0179 -4.98514 0
M  V30 1645 H 157.645 4.03205 -3.9679 0
M  V30 1646 H 156.202 4.36807 -4.8378 0
M  V30 1647 N 159.635 1.57281 -0.100228 0
M  V30 1648 C 160.565 2.17328 0.853857 0
M  V30 1649 C 161.546 1.10804 1.2906 0
M  V30 1650 O 162.731 1.38963 1.35657 0
M  V30 1651 C 159.861 2.75772 2.11109 0
M  V30 1652 C 158.815 3.87713 1.81279 0
M  V30 1653 C 158.141 4.32882 3.13874 0
M  V30 1654 C 159.441 5.10677 1.09574 0
M  V30 1655 H 161.135 2.97305 0.353545 0
M  V30 1656 H 158.681 1.43009 0.168612 0
M  V30 1657 H 160.634 3.16433 2.78296 0
M  V30 1658 H 159.358 1.93057 2.63432 0
M  V30 1659 H 158.017 3.476 1.16489 0
M  V30 1660 H 157.665 3.47051 3.64095 0
M  V30 1661 H 157.365 5.08358 2.94696 0
M  V30 1662 H 158.889 4.7618 3.82211 0
M  V30 1663 H 160.303 5.48474 1.66879 0
M  V30 1664 H 158.7 5.91615 1.00557 0
M  V30 1665 H 159.77 4.84835 0.0793299 0
M  V30 1666 N 161.113 -0.173488 1.56642 0
M  V30 1667 C 162.338 -0.910149 1.86363 0
M  V30 1668 C 162.763 -1.75132 0.686318 0
M  V30 1669 O 162.121 -1.77595 -0.364643 0
M  V30 1670 C 162.169 -1.76447 3.14482 0
M  V30 1671 O 161.273 -2.86584 2.96553 0
M  V30 1672 H 160.614 -0.255086 0.613047 0
M  V30 1673 H 163.144 -0.172283 2.03873 0
M  V30 1674 H 163.154 -2.16483 3.45831 0
M  V30 1675 H 161.829 -1.14658 3.99783 0
M  V30 1676 H 160.406 -2.50146 2.76553 0
M  V30 1677 N 162.591 -1.51276 -0.441967 0
M  V30 1678 C 163.868 -1.54252 -1.20273 0
M  V30 1679 C 164.248 -0.30408 -2.08898 0
M  V30 1680 O 163.596 0.711084 -2.17154 0
M  V30 1681 C 163.806 -2.85406 -2.00859 0
M  V30 1682 C 165.154 -3.37181 -2.58059 0
M  V30 1683 O 166.178 -2.86925 -2.11074 0
M  V30 1684 O 165.037 -4.24858 -3.43741 0
M  V30 1685 H 162.131 -0.619969 -0.547328 0
M  V30 1686 H 164.677 -1.63586 -0.451413 0
M  V30 1687 H 163.449 -3.67003 -1.35736 0
M  V30 1688 H 163.072 -2.79213 -2.83065 0
M  V30 1689 N 164.069 0.697108 -1.41344 0
M  V30 1690 C 165.297 1.48593 -1.43972 0
M  V30 1691 C 165.712 1.88747 -0.0445612 0
M  V30 1692 O 165.069 1.56682 0.935785 0
M  V30 1693 C 165.12 2.74946 -2.34706 0
M  V30 1694 O 164.841 2.36484 -3.68791 0
M  V30 1695 C 166.342 3.687 -2.46121 0
M  V30 1696 H 163.562 0.457964 -0.490418 0
M  V30 1697 H 166.106 0.858429 -1.8561 0
M  V30 1698 H 164.261 3.33937 -1.9638 0
M  V30 1699 H 164.675 3.17918 -4.17167 0
M  V30 1700 H 166.149 4.54145 -3.13777 0
M  V30 1701 H 166.626 4.13081 -1.49199 0
M  V30 1702 H 167.232 3.15613 -2.85076 0
M  V30 1703 N 165.547 1.27147 0.931209 0
M  V30 1704 C 166.795 1.13055 1.6752 0
M  V30 1705 C 167.116 -0.324791 1.92276 0
M  V30 1706 O 166.386 -1.22775 1.52654 0
M  V30 1707 H 164.966 0.415391 0.620854 0
M  V30 1708 H 167.628 1.59623 1.11833 0
M  V30 1709 H 166.724 1.65694 2.64485 0
M  V30 1710 N 167.025 -1.13721 1.09112 0
M  V30 1711 C 167.957 -2.1871 0.685467 0
M  V30 1712 C 168.97 -1.60527 -0.271068 0
M  V30 1713 O 170.159 -1.78407 -0.0576148 0
M  V30 1714 C 167.259 -3.38898 -0.0111255 0
M  V30 1715 C 166.432 -4.26597 0.966131 0
M  V30 1716 C 165.491 -5.25324 0.303539 0
M  V30 1717 O 164.517 -5.61213 0.950177 0
M  V30 1718 N 165.719 -5.72779 -0.943651 0
M  V30 1719 H 168.484 -2.54126 1.58871 0
M  V30 1720 H 166.045 -1.29012 0.978143 0
M  V30 1721 H 168.037 -4.02014 -0.465517 0
M  V30 1722 H 166.607 -3.01747 -0.816565 0
M  V30 1723 H 165.827 -3.60306 1.59917 0
M  V30 1724 H 167.115 -4.82048 1.6281 0
M  V30 1725 H 166.513 -5.45762 -1.48862 0
M  V30 1726 H 165.07 -6.37847 -1.34142 0
M  V30 1727 N 168.503 -0.877838 -1.30888 0
M  V30 1728 C 169.733 -0.506678 -2.00291 0
M  V30 1729 C 170.141 0.907449 -1.66018 0
M  V30 1730 O 169.484 1.60719 -0.88967 0
M  V30 1731 C 169.546 -0.59323 -3.54572 0
M  V30 1732 C 169.21 -1.97038 -4.12341 0
M  V30 1733 C 170.207 -2.93889 -4.28865 0
M  V30 1734 C 167.892 -2.27383 -4.47886 0
M  V30 1735 C 169.886 -4.19224 -4.80136 0
M  V30 1736 C 167.573 -3.52965 -4.98857 0
M  V30 1737 C 168.571 -4.48701 -5.14934 0
M  V30 1738 O 168.259 -5.72056 -5.64808 0
M  V30 1739 H 167.991 -0.1951 -0.647234 0
M  V30 1740 H 170.545 -1.18301 -1.6791 0
M  V30 1741 H 168.775 0.140057 -3.86446 0
M  V30 1742 H 170.464 -0.234372 -4.05223 0
M  V30 1743 H 171.23 -2.71756 -4.01714 0
M  V30 1744 H 167.109 -1.53639 -4.34645 0
M  V30 1745 H 170.653 -4.93956 -4.92599 0
M  V30 1746 H 166.55 -3.74939 -5.25443 0
M  V30 1747 H 167.318 -5.74337 -5.83163 0
M  V30 1748 N 169.982 1.44106 -0.638065 0
M  V30 1749 C 170.914 2.28976 0.101205 0
M  V30 1750 C 171.927 1.4167 0.802088 0
M  V30 1751 O 173.116 1.65755 0.662375 0
M  V30 1752 C 170.216 3.18217 1.16581 0
M  V30 1753 C 169.389 4.33978 0.546066 0
M  V30 1754 C 168.448 5.04202 1.50554 0
M  V30 1755 O 167.474 5.59986 1.01999 0
M  V30 1756 N 168.676 5.06296 2.8398 0
M  V30 1757 H 171.441 2.93064 -0.627186 0
M  V30 1758 H 169.002 1.54629 -0.479731 0
M  V30 1759 H 170.994 3.62061 1.80815 0
M  V30 1760 H 169.564 2.55833 1.79634 0
M  V30 1761 H 168.784 3.93239 -0.275046 0
M  V30 1762 H 170.072 5.08675 0.112793 0
M  V30 1763 H 169.47 4.62319 3.26002 0
M  V30 1764 H 168.027 5.53907 3.43556 0
M  V30 1765 N 171.46 0.379036 1.52974 0
M  V30 1766 C 172.7 -0.206325 2.03356 0
M  V30 1767 C 173.064 -1.44892 1.25977 0
M  V30 1768 O 174.265 -2.11078 1.66432 0
M  V30 1769 C 172.536 -0.477887 3.54191 0
M  V30 1770 S 174.095 -1.035 4.26419 0
M  V30 1771 H 170.913 -0.0590259 0.708546 0
M  V30 1772 H 173.515 0.525013 1.88319 0
M  V30 1773 H 172.219 0.433745 4.08101 0
M  V30 1774 H 171.75 -1.23793 3.73415 0
M  V30 1775 H 173.765 -2.31821 4.38718 0
M  V30 1776 N 172.938 -1.57226 0.108567 0
M  V30 1777 C 173.868 -2.17778 -0.84232 0
M  V30 1778 C 174.849 -1.11487 -1.2847 0
M  V30 1779 O 176.034 -1.39681 -1.34918 0
M  V30 1780 C 173.164 -2.76888 -2.09644 0
M  V30 1781 C 172.118 -3.88669 -1.79221 0
M  V30 1782 C 171.444 -4.34541 -3.11574 0
M  V30 1783 C 172.744 -5.11251 -1.06864 0
M  V30 1784 H 174.438 -2.97489 -0.337774 0
M  V30 1785 H 171.984 -1.43097 -0.161025 0
M  V30 1786 H 173.937 -3.17904 -2.76614 0
M  V30 1787 H 172.661 -1.94451 -2.62405 0
M  V30 1788 H 171.32 -3.48213 -1.14644 0
M  V30 1789 H 170.968 -3.48977 -3.62249 0
M  V30 1790 H 170.668 -5.09914 -2.91996 0
M  V30 1791 H 172.192 -4.782 -3.7968 0
M  V30 1792 H 173.606 -5.49352 -1.63968 0
M  V30 1793 H 172.003 -5.9214 -0.974178 0
M  V30 1794 H 173.073 -4.8487 -0.0536168 0
M  V30 1795 N 174.416 0.165178 -1.56732 0
M  V30 1796 C 175.662 0.882112 -1.82611 0
M  V30 1797 C 175.995 1.81628 -0.687378 0
M  V30 1798 O 175.27 1.92009 0.310267 0
M  V30 1799 C 175.553 1.67245 -3.18906 0
M  V30 1800 C 175.406 0.760987 -4.43316 0
M  V30 1801 C 176.725 2.63884 -3.52212 0
M  V30 1802 H 173.844 0.319242 -0.664269 0
M  V30 1803 H 176.486 0.148052 -1.89422 0
M  V30 1804 H 174.636 2.29824 -3.1323 0
M  V30 1805 H 176.308 0.147596 -4.61064 0
M  V30 1806 H 174.551 0.0694102 -4.33744 0
M  V30 1807 H 175.222 1.34962 -5.35247 0
M  V30 1808 H 177.698 2.11429 -3.58381 0
M  V30 1809 H 176.574 3.16245 -4.48643 0
M  V30 1810 H 176.835 3.44377 -2.77231 0
M  V30 1811 N 175.894 1.51508 0.433938 0
M  V30 1812 C 177.141 1.64345 1.18309 0
M  V30 1813 C 177.469 0.361315 1.91115 0
M  V30 1814 O 176.724 -0.654753 1.84422 0
M  V30 1815 C 177.023 2.79928 2.22205 0
M  V30 1816 C 176.689 4.19078 1.66387 0
M  V30 1817 C 175.351 4.56932 1.50887 0
M  V30 1818 C 177.703 5.05894 1.25381 0
M  V30 1819 C 175.031 5.79305 0.928608 0
M  V30 1820 C 177.383 6.2885 0.687823 0
M  V30 1821 C 176.047 6.65473 0.519755 0
M  V30 1822 H 175.317 0.601381 0.432923 0
M  V30 1823 H 177.964 1.85549 0.473676 0
M  V30 1824 H 176.269 2.52959 2.99197 0
M  V30 1825 H 177.966 2.87059 2.79997 0
M  V30 1826 H 174.556 3.89234 1.79428 0
M  V30 1827 H 178.74 4.77253 1.36175 0
M  V30 1828 H 173.996 6.06324 0.786186 0
M  V30 1829 H 178.17 6.95461 0.361581 0
M  V30 1830 H 175.797 7.6017 0.0679979 0
M  V30 1831 N 177.372 -0.689602 1.41712 0
M  V30 1832 C 178.302 -1.81577 1.46806 0
M  V30 1833 C 179.283 -1.66945 0.326105 0
M  V30 1834 O 180.468 -1.86588 0.538377 0
M  V30 1835 C 177.598 -3.19762 1.35535 0
M  V30 1836 C 176.552 -3.49107 2.47605 0
M  V30 1837 C 175.878 -4.86711 2.21397 0
M  V30 1838 C 177.178 -3.47483 3.89939 0
M  V30 1839 H 178.872 -1.7757 2.41058 0
M  V30 1840 H 176.418 -0.852887 1.16025 0
M  V30 1841 H 178.371 -3.98263 1.3771 0
M  V30 1842 H 177.095 -3.24409 0.377708 0
M  V30 1843 H 175.754 -2.72959 2.44722 0
M  V30 1844 H 175.402 -4.8799 1.21961 0
M  V30 1845 H 175.102 -5.0731 2.96497 0
M  V30 1846 H 176.626 -5.67515 2.25297 0
M  V30 1847 H 178.04 -4.1598 3.94505 0
M  V30 1848 H 176.437 -3.79615 4.64771 0
M  V30 1849 H 177.507 -2.46341 4.17665 0
M  V30 1850 N 178.85 -1.27639 -0.924453 0
M  V30 1851 C 180.098 -1.13941 -1.66918 0
M  V30 1852 C 180.419 0.314589 -1.92446 0
M  V30 1853 O 179.689 1.21964 -1.53303 0
M  V30 1854 H 178.269 -0.418678 -0.618642 0
M  V30 1855 H 180.931 -1.60213 -1.10985 0
M  V30 1856 H 180.027 -1.67094 -2.63602 0
M  V30 1857 N 180.328 1.1314 -1.09713 0
M  V30 1858 C 181.278 2.16709 -0.708593 0
M  V30 1859 C 182.262 1.58471 0.278523 0
M  V30 1860 O 183.454 1.76779 0.088427 0
M  V30 1861 C 180.583 3.43039 -0.133923 0
M  V30 1862 C 179.669 4.08277 -1.14763 0
M  V30 1863 N 180.06 4.48637 -2.33577 0
M  V30 1864 C 178.358 4.34954 -0.986446 0
M  V30 1865 C 179.059 4.9952 -2.98085 0
M  V30 1866 N 178.035 4.94561 -2.25632 0
M  V30 1867 H 181.837 2.45672 -1.61315 0
M  V30 1868 H 179.351 1.29967 -0.973775 0
M  V30 1869 H 181.348 4.16583 0.162465 0
M  V30 1870 H 180.008 3.15549 0.765447 0
M  V30 1871 H 181.019 4.41246 -2.7115 0
M  V30 1872 H 177.696 4.17258 -0.142008 0
M  V30 1873 H 179.086 5.40521 -3.99108 0
M  V30 1874 N 181.806 0.884767 1.30421 0
M  V30 1875 C 182.738 0.308655 2.27112 0
M  V30 1876 C 183.751 -0.536655 1.53701 0
M  V30 1877 O 184.94 -0.35624 1.74909 0
M  V30 1878 C 182.04 -0.579782 3.33904 0
M  V30 1879 C 181.213 0.236417 4.36761 0
M  V30 1880 C 180.272 -0.582482 5.22966 0
M  V30 1881 O 179.298 -0.00525502 5.692 0
M  V30 1882 N 180.5 -1.89163 5.48815 0
M  V30 1883 H 183.265 1.13964 2.77186 0
M  V30 1884 H 180.826 0.747731 1.43599 0
M  V30 1885 H 182.818 -1.13366 3.88497 0
M  V30 1886 H 181.388 -1.31144 2.83761 0
M  V30 1887 H 180.608 0.97174 3.82035 0
M  V30 1888 H 181.896 0.795924 5.02536 0
M  V30 1889 H 181.294 -2.38352 5.13035 0
M  V30 1890 H 179.851 -2.39296 6.06284 0
M  V30 1891 N 183.284 -1.43765 0.645699 0
M  V30 1892 C 184.512 -2.06253 0.163556 0
M  V30 1893 C 184.927 -1.48352 -1.16778 0
M  V30 1894 O 184.284 -0.611932 -1.71935 0
M  V30 1895 C 184.335 -3.61453 0.0583186 0
M  V30 1896 O 184.056 -4.172 1.33702 0
M  V30 1897 C 185.557 -4.41002 -0.450795 0
M  V30 1898 H 182.777 -0.665413 0.0864077 0
M  V30 1899 H 185.321 -1.84396 0.884222 0
M  V30 1900 H 183.476 -3.82522 -0.612865 0
M  V30 1901 H 183.89 -5.10791 1.19131 0
M  V30 1902 H 185.364 -5.49966 -0.473403 0
M  V30 1903 H 185.841 -4.13488 -1.48068 0
M  V30 1904 H 186.447 -4.24886 0.187637 0
M  V30 1905 N 184.763 -0.387143 -1.52771 0
M  V30 1906 C 186.01 0.195735 -2.01552 0
M  V30 1907 C 186.338 1.46995 -1.27369 0
M  V30 1908 O 185.593 1.92325 -0.361879 0
M  V30 1909 C 185.892 0.512209 -3.53711 0
M  V30 1910 C 185.558 -0.670202 -4.45891 0
M  V30 1911 C 184.22 -0.994586 -4.70809 0
M  V30 1912 C 186.572 -1.46134 -5.00294 0
M  V30 1913 C 183.9 -2.11169 -5.4738 0
M  V30 1914 C 186.252 -2.56903 -5.78086 0
M  V30 1915 C 184.916 -2.89852 -6.01284 0
M  V30 1916 H 184.186 0.0716246 -0.73753 0
M  V30 1917 H 186.833 -0.524046 -1.8419 0
M  V30 1918 H 185.138 1.31329 -3.69134 0
M  V30 1919 H 186.835 0.975804 -3.88946 0
M  V30 1920 H 183.425 -0.407366 -4.2666 0
M  V30 1921 H 187.609 -1.22397 -4.80971 0
M  V30 1922 H 182.865 -2.3707 -5.63567 0
M  V30 1923 H 187.039 -3.18608 -6.19243 0
M  V30 1924 H 184.666 -3.76533 -6.60399 0
M  V30 1925 N 186.241 1.57166 -0.116904 0
M  V30 1926 C 187.487 1.95412 0.542405 0
M  V30 1927 C 187.82 1.00019 1.66463 0
M  V30 1928 O 187.095 0.0370346 1.94465 0
M  V30 1929 C 187.378 3.43615 1.07708 0
M  V30 1930 C 187.231 4.49781 -0.0415868 0
M  V30 1931 C 188.55 3.93616 1.96861 0
M  V30 1932 H 185.669 0.710543 0.195696 0
M  V30 1933 H 188.311 1.89027 -0.192038 0
M  V30 1934 H 186.461 3.49187 1.70296 0
M  V30 1935 H 188.133 4.56308 -0.676793 0
M  V30 1936 H 186.376 4.28033 -0.705019 0
M  V30 1937 H 187.047 5.50733 0.373717 0
M  V30 1938 H 189.523 3.90335 1.44146 0
M  V30 1939 H 188.399 4.97838 2.3119 0
M  V30 1940 H 188.66 3.34188 2.89432 0
M  V30 1941 N 187.719 -0.156864 1.56817 0
M  V30 1942 C 188.944 -0.890331 1.87318 0
M  V30 1943 C 189.369 -1.74394 0.704855 0
M  V30 1944 O 188.727 -1.77972 -0.345786 0
M  V30 1945 C 188.775 -1.73102 3.16336 0
M  V30 1946 O 187.879 -2.83422 2.99576 0
M  V30 1947 H 187.22 -0.24857 0.615718 0
M  V30 1948 H 189.75 -0.150649 2.04045 0
M  V30 1949 H 189.76 -2.12803 3.48107 0
M  V30 1950 H 188.435 -1.10412 4.00976 0
M  V30 1951 H 187.012 -2.47199 2.7919 0
M  V30 1952 N 189.197 -1.51736 -0.425897 0
M  V30 1953 C 190.129 -1.70083 -1.53638 0
M  V30 1954 C 191.142 -0.581349 -1.52066 0
M  V30 1955 O 192.331 -0.856017 -1.56635 0
M  V30 1956 C 189.431 -1.71078 -2.9255 0
M  V30 1957 C 188.604 -2.99795 -3.185 0
M  V30 1958 C 187.663 -2.92825 -4.37196 0
M  V30 1959 O 186.689 -3.66756 -4.35291 0
M  V30 1960 N 187.891 -2.0946 -5.41393 0
M  V30 1961 H 190.656 -2.65882 -1.383 0
M  V30 1962 H 188.217 -1.49765 -0.614988 0
M  V30 1963 H 190.209 -1.63969 -3.69995 0
M  V30 1964 H 188.779 -0.828242 -3.01428 0
M  V30 1965 H 187.999 -3.20684 -2.2925 0
M  V30 1966 H 189.287 -3.84977 -3.32671 0
M  V30 1967 H 188.685 -1.48792 -5.45781 0
M  V30 1968 H 187.242 -2.08221 -6.17647 0
M  V30 1969 N 190.675 0.682077 -1.42076 0
M  V30 1970 C 192.086 1.26246 -1.37546 0
M  V30 1971 C 192.437 1.96092 -0.0651481 0
M  V30 1972 O 191.562 1.99587 0.836297 0
M  V30 1973 C 192.157 2.29594 -2.49143 0
M  V30 1974 C 190.716 2.83175 -2.47969 0
M  V30 1975 C 189.863 1.57395 -2.28303 0
M  V30 1976 H 192.814 0.475937 -1.51395 0
M  V30 1977 H 192.835 3.11175 -2.18976 0
M  V30 1978 H 192.347 1.78729 -3.44496 0
M  V30 1979 H 190.448 3.3818 -1.56413 0
M  V30 1980 H 190.561 3.32687 -3.44755 0
M  V30 1981 H 188.925 1.83699 -1.76428 0
M  V30 1982 H 189.708 1.08507 -3.25701 0
M  V30 1983 N 192.153 1.28127 0.917671 0
M  V30 1984 C 193.401 1.14825 1.66312 0
M  V30 1985 C 193.722 -0.304379 1.9261 0
M  V30 1986 O 192.992 -1.21149 1.53947 0
M  V30 1987 H 191.572 0.421953 0.616413 0
M  V30 1988 H 194.234 1.608 1.10134 0
M  V30 1989 H 193.33 1.68489 2.62712 0
M  V30 1990 N 193.631 -1.12557 1.10312 0
M  V30 1991 C 194.861 -1.87592 0.865617 0
M  V30 1992 C 195.269 -1.79851 -0.587389 0
M  V30 1993 O 194.612 -1.16949 -1.41664 0
M  V30 1994 C 194.674 -3.37665 1.23381 0
M  V30 1995 C 194.338 -3.69181 2.69359 0
M  V30 1996 C 195.335 -3.67652 3.67597 0
M  V30 1997 C 193.02 -3.98555 3.05711 0
M  V30 1998 C 195.014 -3.95053 5.00212 0
M  V30 1999 C 192.701 -4.25616 4.38514 0
M  V30 2000 C 193.699 -4.23851 5.35574 0
M  V30 2001 O 193.387 -4.50242 6.65986 0
M  V30 2002 H 193.119 -0.600442 0.310557 0
M  V30 2003 H 195.673 -1.4335 1.47105 0
M  V30 2004 H 193.903 -3.82454 0.571467 0
M  V30 2005 H 195.592 -3.94041 0.973994 0
M  V30 2006 H 196.358 -3.45024 3.40857 0
M  V30 2007 H 192.237 -3.99071 2.30789 0
M  V30 2008 H 195.781 -3.93591 5.75962 0
M  V30 2009 H 191.678 -4.47718 4.64994 0
M  V30 2010 H 192.446 -4.67867 6.71597 0
M  V30 2011 N 195.109 -0.891671 -1.2995 0
M  V30 2012 C 196.355 -0.514261 -1.96171 0
M  V30 2013 C 196.688 0.935506 -1.70182 0
M  V30 2014 O 195.963 1.66204 -1.01028 0
M  V30 2015 C 196.246 -0.797719 -3.51153 0
M  V30 2016 C 196.099 -2.2986 -3.86632 0
M  V30 2017 C 197.418 -0.278749 -4.39216 0
M  V30 2018 H 194.537 -0.188314 -0.712535 0
M  V30 2019 H 197.179 -1.11689 -1.53706 0
M  V30 2020 H 195.329 -0.284826 -3.87455 0
M  V30 2021 H 197.001 -2.88042 -3.60319 0
M  V30 2022 H 195.244 -2.76257 -3.34462 0
M  V30 2023 H 195.915 -2.44753 -4.94773 0
M  V30 2024 H 198.391 -0.717825 -4.09862 0
M  V30 2025 H 197.267 -0.506353 -5.46559 0
M  V30 2026 H 197.528 0.820266 -4.34424 0
M  V30 2027 N 196.587 1.43421 -0.653314 0
M  V30 2028 C 197.835 2.01414 -0.166415 0
M  V30 2029 C 198.156 1.51803 1.22397 0
M  V30 2030 O 197.426 0.730693 1.81763 0
M  V30 2031 H 196.006 0.744703 -0.0585319 0
M  V30 2032 H 198.668 1.75629 -0.845003 0
M  V30 2033 H 197.764 3.11734 -0.151111 0
M  V30 2034 N 198.065 0.39524 1.52563 0
M  V30 2035 C 198.995 -0.428384 2.29537 0
M  V30 2036 C 199.976 -1.05831 1.33169 0
M  V30 2037 O 201.161 -1.06995 1.62067 0
M  V30 2038 C 198.291 -1.55274 3.10656 0
M  V30 2039 C 197.245 -1.04855 4.14957 0
M  V30 2040 C 196.571 -2.26543 4.84337 0
M  V30 2041 C 197.871 -0.112324 5.22179 0
M  V30 2042 H 199.565 0.213867 2.98635 0
M  V30 2043 H 197.111 0.104298 1.43622 0
M  V30 2044 H 199.064 -2.1358 3.63265 0
M  V30 2045 H 197.788 -2.22266 2.39302 0
M  V30 2046 H 196.447 -0.487985 3.63338 0
M  V30 2047 H 196.095 -2.92059 4.09525 0
M  V30 2048 H 195.795 -1.93466 5.54837 0
M  V30 2049 H 197.319 -2.85481 5.39753 0
M  V30 2050 H 198.733 -0.603752 5.70112 0
M  V30 2051 H 197.13 0.128968 5.99961 0
M  V30 2052 H 198.2 0.837052 4.77621 0
M  V30 2053 N 199.544 -1.57102 0.125237 0
M  V30 2054 C 200.454 -2.19191 -0.8362 0
M  V30 2055 C 201.47 -1.16985 -1.28805 0
M  V30 2056 O 202.646 -1.49479 -1.34974 0
M  V30 2057 C 199.711 -2.78407 -2.06617 0
M  V30 2058 C 198.772 -3.9567 -1.66565 0
M  V30 2059 C 198.005 -4.52052 -2.83698 0
M  V30 2060 O 198.228 -4.07326 -3.99302 0
M  V30 2061 O 197.162 -5.42645 -2.60423 0
M  V30 2062 H 200.988 -3.01816 -0.337776 0
M  V30 2063 H 198.573 -1.4906 -0.100695 0
M  V30 2064 H 200.455 -3.16129 -2.7864 0
M  V30 2065 H 199.13 -1.9881 -2.55453 0
M  V30 2066 H 198.037 -3.62705 -0.916296 0
M  V30 2067 H 199.37 -4.76722 -1.22464 0
M  V30 2068 N 201.022 0.148545 -1.56898 0
M  V30 2069 C 202.27 0.859717 -1.82902 0
M  V30 2070 C 202.591 1.81775 -0.70588 0
M  V30 2071 O 201.861 1.93994 0.272586 0
M  V30 2072 H 200.441 0.320469 -0.674766 0
M  V30 2073 H 203.103 0.142918 -1.94375 0
M  V30 2074 H 202.199 1.4229 -2.77777 0
M  V30 2075 N 202.5 1.5196 0.417844 0
M  V30 2076 C 203.43 1.77634 1.51554 0
M  V30 2077 C 204.411 0.626918 1.58126 0
M  V30 2078 O 205.596 0.871632 1.7354 0
M  V30 2079 C 202.726 1.91911 2.8946 0
M  V30 2080 C 201.68 3.07463 2.97743 0
M  V30 2081 C 201.006 3.06951 4.37819 0
M  V30 2082 C 202.306 4.47082 2.70027 0
M  V30 2083 H 204 2.6955 1.3032 0
M  V30 2084 H 201.546 1.29706 0.625492 0
M  V30 2085 H 203.499 2.08455 3.6623 0
M  V30 2086 H 202.223 0.966598 3.11969 0
M  V30 2087 H 200.882 2.90656 2.23416 0
M  V30 2088 H 200.53 2.09438 4.57323 0
M  V30 2089 H 200.23 3.84556 4.44286 0
M  V30 2090 H 201.754 3.25613 5.16535 0
M  V30 2091 H 203.168 4.6414 3.36522 0
M  V30 2092 H 201.565 5.2654 2.87881 0
M  V30 2093 H 202.635 4.55777 1.65514 0
M  V30 2094 N 203.978 -0.674533 1.42435 0
M  V30 2095 C 205.389 -1.25514 1.38214 0
M  V30 2096 C 205.74 -1.96055 0.0755464 0
M  V30 2097 O 204.865 -2.00028 -0.8257 0
M  V30 2098 C 205.46 -2.28269 2.50357 0
M  V30 2099 C 204.019 -2.81856 2.49467 0
M  V30 2100 C 203.166 -1.56182 2.29134 0
M  V30 2101 H 206.117 -0.467902 1.51646 0
M  V30 2102 H 206.138 -3.10009 2.20624 0
M  V30 2103 H 205.65 -1.769 3.45439 0
M  V30 2104 H 203.751 -3.37346 1.58204 0
M  V30 2105 H 203.864 -3.30854 3.46515 0
M  V30 2106 H 202.228 -1.82761 1.774 0
M  V30 2107 H 203.011 -1.06778 3.26272 0
M  V30 2108 N 205.456 -1.28612 -0.910864 0
M  V30 2109 C 206.686 -1.1862 -1.69153 0
M  V30 2110 C 207.094 0.257324 -1.87442 0
M  V30 2111 O 206.437 1.18543 -1.40332 0
M  V30 2112 C 206.499 -1.81606 -3.10257 0
M  V30 2113 C 206.163 -3.30864 -3.15243 0
M  V30 2114 C 207.16 -4.27256 -2.96223 0
M  V30 2115 C 204.845 -3.71871 -3.37664 0
M  V30 2116 C 206.839 -5.62631 -2.99541 0
M  V30 2117 C 204.526 -5.07371 -3.40614 0
M  V30 2118 C 205.524 -6.02561 -3.21573 0
M  V30 2119 O 205.212 -7.35589 -3.2429 0
M  V30 2120 H 204.944 -0.412633 -0.535453 0
M  V30 2121 H 207.498 -1.70306 -1.14827 0
M  V30 2122 H 205.728 -1.24418 -3.66138 0
M  V30 2123 H 207.417 -1.66092 -3.70362 0
M  V30 2124 H 208.183 -3.9691 -2.78725 0
M  V30 2125 H 204.062 -2.98241 -3.5153 0
M  V30 2126 H 207.606 -6.36907 -2.84597 0
M  V30 2127 H 203.503 -5.37366 -3.57642 0
M  V30 2128 H 204.271 -7.44252 -3.40633 0
M  V30 2129 N 206.934 1.1197 -1.10907 0
M  V30 2130 C 208.181 1.83588 -0.854507 0
M  V30 2131 C 208.509 1.84357 0.6199 0
M  V30 2132 O 207.764 1.28809 1.47332 0
M  V30 2133 C 208.063 3.30749 -1.35425 0
M  V30 2134 C 207.729 3.50146 -2.84093 0
M  V30 2135 C 206.391 3.55148 -3.2469 0
M  V30 2136 C 208.743 3.56857 -3.79872 0
M  V30 2137 C 206.071 3.6441 -4.59806 0
M  V30 2138 C 208.423 3.6765 -5.14797 0
M  V30 2139 C 207.087 3.7091 -5.54961 0
M  V30 2140 H 206.357 0.671795 -0.312686 0
M  V30 2141 H 209.004 1.32091 -1.38652 0
M  V30 2142 H 207.309 3.84703 -0.742361 0
M  V30 2143 H 209.006 3.8464 -1.1337 0
M  V30 2144 H 205.596 3.46919 -2.51685 0
M  V30 2145 H 209.78 3.52258 -3.49611 0
M  V30 2146 H 205.036 3.65208 -4.9034 0
M  V30 2147 H 209.21 3.71786 -5.88853 0
M  V30 2148 H 206.837 3.7784 -6.59652 0
M  V30 2149 N 208.412 0.89855 1.29475 0
M  V30 2150 C 209.342 0.39201 2.30186 0
M  V30 2151 C 210.323 -0.532359 1.61555 0
M  V30 2152 O 211.508 -0.443331 1.89072 0
M  V30 2153 C 208.638 -0.382353 3.45189 0
M  V30 2154 C 207.592 0.451483 4.25612 0
M  V30 2155 C 206.918 -0.450307 5.328 0
M  V30 2156 C 208.218 1.70079 4.93832 0
M  V30 2157 H 209.912 1.23362 2.72804 0
M  V30 2158 H 207.458 0.594638 1.31149 0
M  V30 2159 H 209.411 -0.747451 4.14718 0
M  V30 2160 H 208.135 -1.25774 3.01411 0
M  V30 2161 H 206.794 0.798897 3.57789 0
M  V30 2162 H 206.442 -1.32379 4.85268 0
M  V30 2163 H 206.142 0.103902 5.87508 0
M  V30 2164 H 207.666 -0.811623 6.05182 0
M  V30 2165 H 209.08 1.40549 5.55805 0
M  V30 2166 H 207.477 2.19623 5.58467 0
M  V30 2167 H 208.547 2.43744 4.19186 0
M  V30 2168 N 209.89 -1.43072 0.660911 0
M  V30 2169 C 210.8 -2.34585 -0.0264163 0
M  V30 2170 C 211.816 -1.54316 -0.803898 0
M  V30 2171 O 212.992 -1.86939 -0.749391 0
M  V30 2172 C 210.057 -3.32689 -0.975639 0
M  V30 2173 C 209.118 -4.2886 -0.194236 0
M  V30 2174 C 208.351 -5.22278 -1.09825 0
M  V30 2175 O 208.574 -5.20299 -2.33763 0
M  V30 2176 O 207.508 -5.99228 -0.566513 0
M  V30 2177 H 211.334 -2.94869 0.727034 0
M  V30 2178 H 208.919 -1.43342 0.42111 0
M  V30 2179 H 210.801 -3.92995 -1.52094 0
M  V30 2180 H 209.476 -2.74898 -1.70918 0
M  V30 2181 H 208.383 -3.72011 0.394835 0
M  V30 2182 H 209.716 -4.89655 0.499899 0
M  V30 2183 N 211.368 -0.403325 -1.52352 0
M  V30 2184 C 212.278 0.432009 -2.30588 0
M  V30 2185 C 213.294 1.05884 -1.38075 0
M  V30 2186 O 214.47 1.06161 -1.71148 0
M  V30 2187 C 211.535 1.53669 -3.10784 0
M  V30 2188 C 210.596 0.933525 -4.19027 0
M  V30 2189 C 209.829 1.98557 -4.9539 0
M  V30 2190 O 210.052 3.20283 -4.71991 0
M  V30 2191 O 208.986 1.59504 -5.80381 0
M  V30 2192 H 212.812 -0.205739 -3.03002 0
M  V30 2193 H 210.397 -0.166675 -1.48467 0
M  V30 2194 H 212.279 2.17814 -3.60742 0
M  V30 2195 H 210.954 2.15915 -2.41169 0
M  V30 2196 H 209.861 0.254954 -3.7323 0
M  V30 2197 H 211.194 0.35508 -4.90918 0
M  V30 2198 N 212.846 1.57033 -0.133567 0
M  V30 2199 C 214.257 1.82593 0.389464 0
M  V30 2200 C 214.608 1.05156 1.6564 0
M  V30 2201 O 213.733 0.292644 2.14412 0
M  V30 2202 C 214.328 3.31204 0.713377 0
M  V30 2203 C 212.887 3.57393 1.18098 0
M  V30 2204 C 212.034 2.76598 0.197126 0
M  V30 2205 H 214.985 1.54598 -0.358481 0
M  V30 2206 H 215.006 3.46627 1.56939 0
M  V30 2207 H 214.518 3.87537 -0.2089 0
M  V30 2208 H 212.619 3.06433 2.11966 0
M  V30 2209 H 212.732 4.65915 1.11624 0
M  V30 2210 H 211.096 2.45257 0.687088 0
M  V30 2211 H 211.879 3.35697 -0.718504 0
M  V30 2212 N 214.325 -0.140222 1.56975 0
M  V30 2213 C 215.235 -1.19223 2.02047 0
M  V30 2214 C 216.251 -1.46612 0.937062 0
M  V30 2215 O 217.427 -1.58148 1.24704 0
M  V30 2216 C 214.492 -2.50414 2.39778 0
M  V30 2217 C 213.553 -2.30612 3.621 0
M  V30 2218 C 212.786 -3.55547 3.98023 0
M  V30 2219 O 213.009 -4.62004 3.34528 0
M  V30 2220 O 211.943 -3.47808 4.91237 0
M  V30 2221 H 215.769 -0.839559 2.91865 0
M  V30 2222 H 213.354 -0.349453 1.45256 0
M  V30 2223 H 215.236 -3.27747 2.64877 0
M  V30 2224 H 213.911 -2.85198 1.53114 0
M  V30 2225 H 212.818 -1.51207 3.4218 0
M  V30 2226 H 214.151 -2.00741 4.49404 0
M  V30 2227 N 215.803 -1.52179 -0.40978 0
M  V30 2228 C 217.08 -1.56769 -1.16974 0
M  V30 2229 C 217.46 -0.348322 -2.08206 0
M  V30 2230 O 216.808 0.664862 -2.18613 0
M  V30 2231 C 217.018 -2.89603 -1.9476 0
M  V30 2232 C 218.366 -3.42579 -2.50849 0
M  V30 2233 O 219.39 -2.91338 -2.04941 0
M  V30 2234 O 218.249 -4.32054 -3.34652 0
M  V30 2235 H 215.343 -0.631439 -0.534054 0
M  V30 2236 H 217.889 -1.64507 -0.416613 0
M  V30 2237 H 216.661 -3.698 -1.27921 0
M  V30 2238 H 216.284 -2.85155 -2.77079 0
M  V30 2239 N 217.281 0.66697 -1.42791 0
M  V30 2240 C 218.697 0.981027 -1.25889 0
M  V30 2241 C 218.897 2.00793 -0.168695 0
M  V30 2242 O 217.953 2.48321 0.45747 0
M  V30 2243 C 219.266 1.47838 -2.61848 0
M  V30 2244 C 220.814 1.59575 -2.69267 0
M  V30 2245 C 221.289 2.12704 -4.05612 0
M  V30 2246 N 222.78 2.20026 -4.07606 0
M  V30 2247 C 223.515 2.62227 -5.09926 0
M  V30 2248 N 223.011 3.03824 -6.22626 0
M  V30 2249 N 224.804 2.62045 -4.97281 0
M  V30 2250 H 216.955 -0.0127891 -2.12396 0
M  V30 2251 H 219.218 0.0568258 -0.946295 0
M  V30 2252 H 218.924 0.798299 -3.4252 0
M  V30 2253 H 218.798 2.45579 -2.86305 0
M  V30 2254 H 221.185 2.26687 -1.88936 0
M  V30 2255 H 221.266 0.60302 -2.48591 0
M  V30 2256 H 220.91 1.46198 -4.86404 0
M  V30 2257 H 220.84 3.12782 -4.23645 0
M  V30 2258 H 223.331 1.90708 -3.2625 0
M  V30 2259 H 223.644 3.34734 -6.96544 0
M  V30 2260 H 221.989 3.01662 -6.26119 0
M  V30 2261 H 225.18 2.28916 -4.08308 0
M  V30 2262 H 225.353 2.94613 -5.77154 0
M  V30 2263 N 218.759 1.29093 0.90403 0
M  V30 2264 C 219.987 1.19689 1.68766 0
M  V30 2265 C 220.402 -0.243113 1.87228 0
M  V30 2266 O 219.759 -1.16326 1.40621 0
M  V30 2267 C 219.81 1.90144 3.07453 0
M  V30 2268 O 219.531 3.2852 2.89838 0
M  V30 2269 C 221.032 1.87162 4.01852 0
M  V30 2270 H 218.252 0.415035 0.527244 0
M  V30 2271 H 220.796 1.7039 1.13082 0
M  V30 2272 H 218.951 1.43289 3.59926 0
M  V30 2273 H 219.365 3.63944 3.77684 0
M  V30 2274 H 220.839 2.41032 4.96596 0
M  V30 2275 H 221.316 0.84617 4.30972 0
M  V30 2276 H 221.922 2.33741 3.5531 0
M  V30 2277 N 220.237 -1.11381 1.11499 0
M  V30 2278 C 221.483 -1.83403 0.865512 0
M  V30 2279 C 221.816 -1.84459 -0.607329 0
M  V30 2280 O 221.091 -1.29811 -1.44842 0
M  V30 2281 C 221.374 -3.30552 1.42855 0
M  V30 2282 C 221.227 -3.37886 2.96906 0
M  V30 2283 C 222.546 -4.26643 1.08 0
M  V30 2284 H 219.665 -0.665879 0.31587 0
M  V30 2285 H 222.307 -1.30601 1.37998 0
M  V30 2286 H 220.457 -3.75648 0.990985 0
M  V30 2287 H 222.129 -3.01343 3.49271 0
M  V30 2288 H 220.372 -2.78088 3.32941 0
M  V30 2289 H 221.043 -4.41458 3.31389 0
M  V30 2290 H 223.519 -3.89729 1.45775 0
M  V30 2291 H 222.395 -5.27986 1.50072 0
M  V30 2292 H 222.656 -4.42099 -0.00915037 0
M  V30 2293 N 221.715 -0.905404 -1.28997 0
M  V30 2294 C 222.678 -0.392253 -2.25819 0
M  V30 2295 C 223.678 0.476753 -1.5357 0
M  V30 2296 O 224.868 0.280994 -1.71919 0
M  V30 2297 C 222 0.438588 -3.38067 0
M  V30 2298 H 223.193 -1.24743 -2.72725 0
M  V30 2299 H 220.746 -0.684051 -1.40536 0
M  V30 2300 H 221.481 1.31352 -2.96508 0
M  V30 2301 H 221.266 -0.184167 -3.91667 0
M  V30 2302 H 222.756 0.78873 -4.10084 0
M  V30 2303 N 223.193 1.4272 -0.668489 0
M  V30 2304 C 224.156 2.292 0.00448567 0
M  V30 2305 C 225.156 1.43001 0.735339 0
M  V30 2306 O 226.346 1.64461 0.57429 0
M  V30 2307 C 223.478 3.25375 1.01705 0
M  V30 2308 H 224.671 2.90199 -0.756608 0
M  V30 2309 H 222.224 1.50254 -0.430506 0
M  V30 2310 H 222.959 2.69301 1.80686 0
M  V30 2311 H 222.744 3.88944 0.496463 0
M  V30 2312 H 224.234 3.90245 1.48655 0
M  V30 2313 N 224.671 0.411399 1.52136 0
M  V30 2314 C 225.619 -0.427633 2.28635 0
M  V30 2315 C 226.613 -1.04383 1.33419 0
M  V30 2316 O 227.819 -0.981772 1.50868 0
M  V30 2317 H 224.194 -0.156689 0.735495 0
M  V30 2318 H 226.165 0.238761 2.97443 0
M  V30 2319 C 224.914 -1.53082 3.12188 0
M  V30 2320 H 224.237 -1.06601 3.85326 0
M  V30 2321 H 225.677 -2.09167 3.68816 0
M  V30 2322 C 224.136 -2.49946 2.25895 0
M  V30 2323 O 224.666 -3.53884 1.90076 0
M  V30 2324 N 222.872 -2.2021 1.8962 0
M  V30 2325 H 222.419 -1.35719 2.18948 0
M  V30 2326 H 222.377 -2.85266 1.32176 0
M  V30 2327 N 226.149 -1.5696 0.141893 0
M  V30 2328 C 227.377 -2.00322 -0.517579 0
M  V30 2329 C 227.792 -1.02193 -1.58752 0
M  V30 2330 O 227.149 -0.0181619 -1.82491 0
M  V30 2331 C 227.2 -3.43618 -1.12289 0
M  V30 2332 O 226.921 -4.37995 -0.0956929 0
M  V30 2333 C 228.422 -4.02231 -1.86347 0
M  V30 2334 H 225.642 -0.657243 -0.135177 0
M  V30 2335 H 228.186 -2.03146 0.234973 0
M  V30 2336 H 226.341 -3.41662 -1.82609 0
M  V30 2337 H 226.755 -5.21729 -0.538469 0
M  V30 2338 H 228.229 -5.04509 -2.23997 0
M  V30 2339 H 228.706 -3.42655 -2.74744 0
M  V30 2340 H 229.312 -4.07802 -1.20737 0
M  V30 2341 N 227.627 0.131896 -1.57047 0
M  V30 2342 C 229.038 0.690407 -1.73465 0
M  V30 2343 C 229.389 1.8094 -0.758629 0
M  V30 2344 O 228.514 2.16282 0.0713813 0
M  V30 2345 C 229.109 1.25916 -3.14532 0
M  V30 2346 C 227.668 1.76409 -3.32501 0
M  V30 2347 C 226.815 0.658579 -2.69366 0
M  V30 2348 H 229.766 -0.0939144 -1.58422 0
M  V30 2349 H 229.787 2.12892 -3.15369 0
M  V30 2350 H 229.299 0.444515 -3.85546 0
M  V30 2351 H 227.4 2.60391 -2.66509 0
M  V30 2352 H 227.513 1.88241 -4.4057 0
M  V30 2353 H 225.877 1.08899 -2.30246 0
M  V30 2354 H 226.66 -0.14487 -3.42994 0
M  V30 2355 N 229.106 1.52395 0.401703 0
M  V30 2356 C 230.353 1.66817 1.14796 0
M  V30 2357 C 230.681 0.401772 1.90305 0
M  V30 2358 O 229.936 -0.615487 1.85769 0
M  V30 2359 C 230.235 2.84578 2.16217 0
M  V30 2360 C 229.901 4.22513 1.5746 0
M  V30 2361 C 228.563 4.60029 1.41161 0
M  V30 2362 C 230.915 5.0844 1.14622 0
M  V30 2363 C 228.243 5.81144 0.80552 0
M  V30 2364 C 230.595 6.30167 0.55428 0
M  V30 2365 C 229.259 6.66426 0.378482 0
M  V30 2366 H 228.529 0.610428 0.420069 0
M  V30 2367 H 231.176 1.86512 0.434212 0
M  V30 2368 H 229.481 2.59248 2.93764 0
M  V30 2369 H 231.178 2.92933 2.73845 0
M  V30 2370 H 227.768 3.92953 1.71132 0
M  V30 2371 H 231.952 4.80034 1.26021 0
M  V30 2372 H 227.208 6.07855 0.657399 0
M  V30 2373 H 231.382 6.96071 0.213983 0
M  V30 2374 H 229.009 7.60143 -0.0932606 0
M  V30 2375 N 230.584 -0.659388 1.43143 0
M  V30 2376 C 231.532 -1.79374 1.4808 0
M  V30 2377 C 232.526 -1.65639 0.354988 0
M  V30 2378 O 233.732 -1.7206 0.528704 0
M  V30 2379 H 230.107 -0.591705 0.4641 0
M  V30 2380 H 232.078 -1.72329 2.43609 0
M  V30 2381 C 230.827 -3.17606 1.41499 0
M  V30 2382 H 230.15 -3.28809 2.27431 0
M  V30 2383 H 231.59 -3.96951 1.49015 0
M  V30 2384 C 230.049 -3.36642 0.131765 0
M  V30 2385 O 230.579 -3.93461 -0.809386 0
M  V30 2386 N 228.785 -2.90567 0.0439396 0
M  V30 2387 H 228.332 -2.44513 0.810619 0
M  V30 2388 H 228.29 -3.03681 -0.813969 0
M  V30 2389 N 232.062 -1.29571 -0.897171 0
M  V30 2390 C 232.992 -1.17473 -2.01798 0
M  V30 2391 C 233.973 -0.068323 -1.69963 0
M  V30 2392 O 235.158 -0.248239 -1.92607 0
M  V30 2393 C 232.288 -0.853099 -3.36659 0
M  V30 2394 C 231.242 -1.9161 -3.82713 0
M  V30 2395 C 230.568 -1.44773 -5.14728 0
M  V30 2396 C 231.868 -3.32535 -4.02763 0
M  V30 2397 H 233.562 -2.11237 -2.12177 0
M  V30 2398 H 231.108 -1.01699 -1.01948 0
M  V30 2399 H 233.061 -0.755165 -4.14578 0
M  V30 2400 H 231.785 0.120236 -3.26379 0
M  V30 2401 H 230.444 -2.00346 -3.07013 0
M  V30 2402 H 230.092 -0.462995 -5.00865 0
M  V30 2403 H 229.792 -2.15865 -5.46513 0
M  V30 2404 H 231.316 -1.36334 -5.95185 0
M  V30 2405 H 232.73 -3.26626 -4.71156 0
M  V30 2406 H 231.127 -4.01607 -4.45905 0
M  V30 2407 H 232.197 -3.75326 -3.07016 0
M  V30 2408 N 233.54 1.10788 -1.12088 0
M  V30 2409 C 234.765 1.87002 -0.896949 0
M  V30 2410 C 235.19 1.79933 0.548261 0
M  V30 2411 O 234.548 1.16662 1.38779 0
M  V30 2412 C 234.596 3.3349 -1.37174 0
M  V30 2413 O 233.7 4.08745 -0.547831 0
M  V30 2414 H 233.041 0.580397 -0.322545 0
M  V30 2415 H 235.571 1.39996 -1.49206 0
M  V30 2416 H 235.581 3.84339 -1.36922 0
M  V30 2417 H 234.256 3.37951 -2.42408 0
M  V30 2418 H 232.833 3.6776 -0.617034 0
M  V30 2419 N 235.018 0.912232 1.28515 0
M  V30 2420 C 236.258 0.551677 1.96814 0
M  V30 2421 C 236.622 -0.887825 1.7024 0
M  V30 2422 O 237.823 -1.35588 2.32098 0
M  V30 2423 C 236.094 0.850555 3.47132 0
M  V30 2424 S 237.653 0.59619 4.34731 0
M  V30 2425 H 234.471 0.204191 0.681049 0
M  V30 2426 H 237.073 1.17736 1.56072 0
M  V30 2427 H 235.777 1.8962 3.63968 0
M  V30 2428 H 235.308 0.213471 3.9282 0
M  V30 2429 H 237.323 -0.553154 4.93107 0
M  V30 2430 N 236.496 -1.42363 0.676048 0
M  V30 2431 C 237.428 -2.29164 -0.0404605 0
M  V30 2432 C 238.441 -1.43747 -0.764245 0
M  V30 2433 O 239.63 -1.67453 -0.618195 0
M  V30 2434 C 236.73 -3.21196 -1.08103 0
M  V30 2435 C 235.903 -4.35273 -0.430812 0
M  V30 2436 C 234.962 -5.08017 -1.37133 0
M  V30 2437 O 233.988 -5.62494 -0.87116 0
M  V30 2438 N 235.19 -5.13647 -2.70456 0
M  V30 2439 H 237.955 -2.91298 0.704667 0
M  V30 2440 H 235.516 -1.53303 0.520559 0
M  V30 2441 H 237.508 -3.66728 -1.71152 0
M  V30 2442 H 236.078 -2.60505 -1.72788 0
M  V30 2443 H 235.298 -3.92372 0.379209 0
M  V30 2444 H 236.586 -5.08795 0.0221132 0
M  V30 2445 H 235.984 -4.708 -3.1363 0
M  V30 2446 H 234.541 -5.62821 -3.28749 0
M  V30 2447 N 237.974 -0.419461 -1.51915 0
M  V30 2448 C 238.937 0.389116 -2.25873 0
M  V30 2449 C 239.937 0.964924 -1.28631 0
M  V30 2450 O 241.127 0.842179 -1.52489 0
M  V30 2451 C 238.259 1.54874 -3.03689 0
M  V30 2452 H 239.452 -0.258799 -2.98781 0
M  V30 2453 H 237.005 -0.172209 -1.55348 0
M  V30 2454 H 237.74 2.23323 -2.35154 0
M  V30 2455 H 237.525 1.14223 -3.75094 0
M  V30 2456 H 239.015 2.12046 -3.59759 0
M  V30 2457 N 239.452 1.56882 -0.150215 0
M  V30 2458 C 240.384 2.14057 0.819286 0
M  V30 2459 C 241.397 1.09082 1.20851 0
M  V30 2460 O 242.586 1.36347 1.15203 0
M  V30 2461 C 239.686 2.65102 2.11127 0
M  V30 2462 C 238.859 3.94511 1.88891 0
M  V30 2463 C 237.918 4.30834 3.02107 0
M  V30 2464 O 236.944 4.99099 2.73659 0
M  V30 2465 N 238.146 3.90676 4.29363 0
M  V30 2466 H 240.911 2.97871 0.330618 0
M  V30 2467 H 238.472 1.61866 0.0332538 0
M  V30 2468 H 240.464 2.86411 2.85921 0
M  V30 2469 H 239.034 1.85994 2.51247 0
M  V30 2470 H 238.254 3.81795 0.981152 0
M  V30 2471 H 239.542 4.7907 1.71376 0
M  V30 2472 H 238.94 3.35677 4.55343 0
M  V30 2473 H 237.497 4.1703 5.00928 0
M  V30 2474 N 240.93 -0.123565 1.57115 0
M  V30 2475 C 242.178 -0.83051 1.84247 0
M  V30 2476 C 242.499 -1.80629 0.73471 0
M  V30 2477 O 241.769 -1.94403 -0.241688 0
M  V30 2478 H 240.349 -0.309694 0.679778 0
M  V30 2479 H 243.011 -0.111976 1.94578 0
M  V30 2480 H 242.107 -1.37852 2.80006 0
M  V30 2481 N 242.408 -1.52605 -0.393616 0
M  V30 2482 C 243.819 -1.59417 -0.971761 0
M  V30 2483 C 244.17 -0.444173 -1.91106 0
M  V30 2484 O 243.295 0.433382 -2.12016 0
M  V30 2485 C 243.89 -2.88936 -1.76921 0
M  V30 2486 C 242.449 -2.98175 -2.29714 0
M  V30 2487 C 241.596 -2.54491 -1.10135 0
M  V30 2488 H 244.547 -1.57751 -0.173317 0
M  V30 2489 H 244.568 -2.75163 -2.62804 0
M  V30 2490 H 244.08 -3.72616 -1.08532 0
M  V30 2491 H 242.181 -2.19024 -3.01429 0
M  V30 2492 H 242.294 -4.02726 -2.59517 0
M  V30 2493 H 240.658 -2.08702 -1.45999 0
M  V30 2494 H 241.441 -3.4056 -0.432874 0
M  V30 2495 N 243.887 0.651787 -1.4349 0
M  V30 2496 C 245.298 1.233 -1.40193 0
M  V30 2497 C 245.649 1.9591 -0.106727 0
M  V30 2498 O 244.774 2.01316 0.793773 0
M  V30 2499 C 245.369 2.24257 -2.53957 0
M  V30 2500 C 243.928 2.77852 -2.5392 0
M  V30 2501 C 243.075 1.52517 -2.3159 0
M  V30 2502 H 246.026 0.443717 -1.52371 0
M  V30 2503 H 246.047 3.0646 -2.25528 0
M  V30 2504 H 245.559 1.71382 -3.4821 0
M  V30 2505 H 243.66 3.34786 -1.63551 0
M  V30 2506 H 243.773 3.25299 -3.51735 0
M  V30 2507 H 242.137 1.79915 -1.80285 0
M  V30 2508 H 242.92 1.01574 -3.27929 0
M  V30 2509 N 245.365 1.30045 0.890287 0
M  V30 2510 C 246.275 1.17885 2.02831 0
M  V30 2511 C 247.291 0.0999609 1.73713 0
M  V30 2512 O 248.467 0.313867 1.98939 0
M  V30 2513 C 245.532 0.866079 3.35708 0
M  V30 2514 C 244.593 2.02979 3.78283 0
M  V30 2515 C 243.826 1.73184 5.0482 0
M  V30 2516 O 244.049 0.657237 5.66601 0
M  V30 2517 O 242.983 2.58267 5.43674 0
M  V30 2518 H 246.809 2.13474 2.16015 0
M  V30 2519 H 244.394 1.09587 1.01543 0
M  V30 2520 H 246.276 0.706623 4.15433 0
M  V30 2521 H 244.951 -0.0599443 3.23644 0
M  V30 2522 H 243.858 2.24454 2.99285 0
M  V30 2523 H 245.191 2.93734 3.94944 0
M  V30 2524 N 246.843 -1.10192 1.12674 0
M  V30 2525 C 248.254 -1.63707 0.897604 0
M  V30 2526 C 248.605 -1.87812 -0.567546 0
M  V30 2527 O 247.73 -1.62196 -1.43253 0
M  V30 2528 C 248.325 -2.974 1.62292 0
M  V30 2529 C 246.884 -3.47772 1.43986 0
M  V30 2530 C 246.031 -2.22332 1.65722 0
M  V30 2531 H 248.982 -0.936587 1.28116 0
M  V30 2532 H 249.003 -3.64986 1.07541 0
M  V30 2533 H 248.515 -2.79824 2.68924 0
M  V30 2534 H 246.616 -3.70487 0.396206 0
M  V30 2535 H 246.729 -4.25723 2.19765 0
M  V30 2536 H 245.093 -2.30599 1.08149 0
M  V30 2537 H 245.876 -2.07285 2.73657 0
M  V30 2538 N 248.321 -0.919034 -1.28029 0
M  V30 2539 C 249.567 -0.555757 -1.95036 0
M  V30 2540 C 249.9 0.899198 -1.72128 0
M  V30 2541 O 249.175 1.64023 -1.04531 0
M  V30 2542 C 249.458 -0.872024 -3.49382 0
M  V30 2543 C 249.311 -2.3801 -3.81669 0
M  V30 2544 C 250.63 -0.37185 -4.38526 0
M  V30 2545 H 247.749 -0.203386 -0.708381 0
M  V30 2546 H 250.391 -1.14924 -1.51303 0
M  V30 2547 H 248.541 -0.366946 -3.86763 0
M  V30 2548 H 250.213 -2.9562 -3.54128 0
M  V30 2549 H 248.456 -2.83289 -3.28526 0
M  V30 2550 H 249.127 -2.55192 -4.8947 0
M  V30 2551 H 251.603 -0.804602 -4.08247 0
M  V30 2552 H 250.479 -0.622173 -5.45362 0
M  V30 2553 H 250.74 0.727934 -4.36066 0
M  V30 2554 N 249.799 1.42003 -0.683588 0
M  V30 2555 C 251.076 1.95112 -0.138075 0
M  V30 2556 C 251.456 1.62359 1.34918 0
M  V30 2557 O 250.804 0.924311 2.08971 0
M  V30 2558 C 251.014 3.46505 -0.416581 0
M  V30 2559 C 252.362 4.23254 -0.337834 0
M  V30 2560 O 253.386 3.54468 -0.35082 0
M  V30 2561 O 252.245 5.45743 -0.287596 0
M  V30 2562 H 249.339 0.826961 -0.00797996 0
M  V30 2563 H 251.885 1.51784 -0.758924 0
M  V30 2564 H 250.657 3.63582 -1.4465 0
M  V30 2565 H 250.28 3.969 0.235839 0
M  V30 2566 N 251.277 0.427512 1.51691 0
M  V30 2567 C 252.207 -0.3796 2.30394 0
M  V30 2568 C 253.188 -1.02982 1.35384 0
M  V30 2569 O 254.373 -1.03534 1.643 0
M  V30 2570 C 251.503 -1.48649 3.1388 0
M  V30 2571 C 250.457 -0.960294 4.17088 0
M  V30 2572 C 249.783 -2.16219 4.89033 0
M  V30 2573 C 251.083 -0.00153679 5.223 0
M  V30 2574 H 252.777 0.277164 2.98114 0
M  V30 2575 H 250.323 0.134739 1.43368 0
M  V30 2576 H 252.276 -2.05826 3.67714 0
M  V30 2577 H 251 -2.1714 2.43962 0
M  V30 2578 H 249.659 -0.410806 3.64291 0
M  V30 2579 H 249.307 -2.83307 4.15628 0
M  V30 2580 H 249.007 -1.81654 5.58816 0
M  V30 2581 H 250.531 -2.73968 5.45687 0
M  V30 2582 H 251.945 -0.482687 5.71264 0
M  V30 2583 H 250.342 0.256199 5.99553 0
M  V30 2584 H 251.412 0.938174 4.75738 0
M  V30 2585 N 252.755 -1.56801 0.158532 0
M  V30 2586 C 253.685 -2.20347 -0.772609 0
M  V30 2587 C 254.666 -1.15518 -1.24859 0
M  V30 2588 O 255.851 -1.43902 -1.30406 0
M  V30 2589 C 252.981 -2.83417 -2.00729 0
M  V30 2590 C 251.935 -3.94174 -1.66765 0
M  V30 2591 C 251.261 -4.44233 -2.97592 0
M  V30 2592 C 252.561 -5.14392 -0.905447 0
M  V30 2593 H 254.255 -2.98413 -0.242959 0
M  V30 2594 H 251.801 -1.43537 -0.115419 0
M  V30 2595 H 253.754 -3.26543 -2.6636 0
M  V30 2596 H 252.478 -2.02701 -2.56086 0
M  V30 2597 H 251.137 -3.51684 -1.03508 0
M  V30 2598 H 250.785 -3.60325 -3.50963 0
M  V30 2599 H 250.485 -5.18945 -2.75626 0
M  V30 2600 H 252.009 -4.90037 -3.64274 0
M  V30 2601 H 253.423 -5.5429 -1.46408 0
M  V30 2602 H 251.82 -5.9494 -0.7853 0
M  V30 2603 H 252.89 -4.84795 0.100668 0
M  V30 2604 N 254.233 0.115231 -1.57178 0
M  V30 2605 C 255.479 0.818565 -1.86202 0
M  V30 2606 C 255.834 1.77316 -0.746785 0
M  V30 2607 O 255.127 1.89923 0.25291 0
M  V30 2608 C 255.321 1.60324 -3.19423 0
M  V30 2609 C 255.15 0.726138 -4.43799 0
M  V30 2610 C 253.92 0.379535 -5.03873 0
M  V30 2611 C 256.118 0.0420774 -5.14283 0
M  V30 2612 N 254.1 -0.507841 -6.11796 0
M  V30 2613 C 255.471 -0.704152 -6.15988 0
M  V30 2614 C 257.526 -0.0339486 -4.97888 0
M  V30 2615 C 256.229 -1.51927 -7.03072 0
M  V30 2616 C 258.255 -0.835906 -5.85463 0
M  V30 2617 C 257.617 -1.57031 -6.86673 0
M  V30 2618 H 253.716 0.276343 -0.731545 0
M  V30 2619 H 256.3 0.0821032 -1.94527 0
M  V30 2620 H 254.471 2.31072 -3.12186 0
M  V30 2621 H 256.203 2.2522 -3.36241 0
M  V30 2622 H 252.958 0.722634 -4.68054 0
M  V30 2623 H 253.382 -0.94349 -6.70393 0
M  V30 2624 H 258.024 0.519496 -4.19596 0
M  V30 2625 H 255.742 -2.08386 -7.80769 0
M  V30 2626 H 259.328 -0.89714 -5.74841 0
M  V30 2627 H 258.208 -2.18088 -7.53264 0
M  V30 2628 N 255.711 1.52812 0.385517 0
M  V30 2629 C 256.641 1.80808 1.47752 0
M  V30 2630 C 257.622 0.660318 1.5676 0
M  V30 2631 O 258.807 0.908246 1.71652 0
M  V30 2632 C 255.937 1.98008 2.85324 0
M  V30 2633 C 254.891 3.13709 2.91154 0
M  V30 2634 C 254.217 3.16169 4.31209 0
M  V30 2635 C 255.517 4.52709 2.60483 0
M  V30 2636 H 257.211 2.72253 1.24573 0
M  V30 2637 H 254.757 1.31003 0.597839 0
M  V30 2638 H 256.71 2.16176 3.61726 0
M  V30 2639 H 255.434 1.03255 3.09848 0
M  V30 2640 H 254.093 2.95329 2.17201 0
M  V30 2641 H 253.741 2.19092 4.52778 0
M  V30 2642 H 253.441 3.93894 4.36029 0
M  V30 2643 H 254.965 3.36496 5.09512 0
M  V30 2644 H 256.379 4.71173 3.26602 0
M  V30 2645 H 254.776 5.32528 2.76648 0
M  V30 2646 H 255.846 4.59186 1.55809 0
M  V30 2647 N 257.189 -0.644168 1.43834 0
M  V30 2648 C 258.121 -1.76955 1.45669 0
M  V30 2649 C 259.134 -1.58956 0.351666 0
M  V30 2650 O 260.323 -1.6751 0.616644 0
M  V30 2651 C 257.423 -3.14507 1.26248 0
M  V30 2652 C 256.596 -3.59083 2.49757 0
M  V30 2653 C 255.655 -4.75467 2.25427 0
M  V30 2654 O 254.681 -4.84444 2.98836 0
M  V30 2655 N 255.883 -5.66289 1.27661 0
M  V30 2656 H 258.648 -1.75856 2.42682 0
M  V30 2657 H 256.209 -0.828312 1.39106 0
M  V30 2658 H 258.201 -3.90067 1.0784 0
M  V30 2659 H 256.771 -3.10325 0.376478 0
M  V30 2660 H 255.991 -2.7387 2.8353 0
M  V30 2661 H 257.279 -3.85613 3.31934 0
M  V30 2662 H 256.677 -5.61718 0.670064 0
M  V30 2663 H 255.234 -6.41533 1.15234 0
M  V30 2664 N 258.668 -1.30515 -0.883378 0
M  V30 2665 C 259.945 -1.10086 -1.6168 0
M  V30 2666 C 260.325 0.349269 -2.08191 0
M  V30 2667 O 259.673 1.34105 -1.85008 0
M  V30 2668 C 259.883 -2.10315 -2.78511 0
M  V30 2669 C 261.231 -2.42119 -3.48803 0
M  V30 2670 O 262.255 -2.08638 -2.88702 0
M  V30 2671 O 261.114 -2.99396 -4.57192 0
M  V30 2672 H 258.208 -0.422907 -0.710689 0
M  V30 2673 H 260.754 -1.41947 -0.930015 0
M  V30 2674 H 259.526 -3.07917 -2.41459 0
M  V30 2675 H 259.149 -1.79282 -3.54886 0
M  V30 2676 N 260.146 1.09593 -1.13257 0
M  V30 2677 C 261.109 2.14359 -0.811358 0
M  V30 2678 C 262.109 1.59808 0.178377 0
M  V30 2679 O 263.299 1.74132 -0.0484911 0
M  V30 2680 C 260.431 3.40269 -0.207276 0
M  V30 2681 H 261.624 2.44284 -1.73969 0
M  V30 2682 H 259.177 1.25102 -0.936973 0
M  V30 2683 H 259.912 3.15969 0.73036 0
M  V30 2684 H 259.697 3.81154 -0.919992 0
M  V30 2685 H 261.187 4.176 0.000667944 0
M  V30 2686 N 261.624 0.925811 1.2754 0
M  V30 2687 C 262.87 0.566092 1.94739 0
M  V30 2688 C 263.203 -0.890057 1.72603 0
M  V30 2689 O 262.478 -1.63467 1.05399 0
M  V30 2690 C 262.761 0.89054 3.48915 0
M  V30 2691 C 262.614 2.4003 3.80402 0
M  V30 2692 C 263.933 0.395101 4.38323 0
M  V30 2693 H 261.052 0.20714 0.707292 0
M  V30 2694 H 263.694 1.15725 1.50691 0
M  V30 2695 H 261.844 0.387452 3.86563 0
M  V30 2696 H 263.516 2.97494 3.52555 0
M  V30 2697 H 261.759 2.85028 3.2702 0
M  V30 2698 H 262.43 2.57785 4.8811 0
M  V30 2699 H 264.906 0.826241 4.07814 0
M  V30 2700 H 263.782 0.651086 5.45025 0
M  V30 2701 H 264.043 -0.704798 4.36446 0
M  V30 2702 N 263.102 -1.41638 0.69111 0
M  V30 2703 C 264.513 -1.84346 0.295517 0
M  V30 2704 C 264.864 -1.57833 -1.16547 0
M  V30 2705 O 263.989 -1.04648 -1.89414 0
M  V30 2706 C 264.584 -3.34636 0.529575 0
M  V30 2707 C 263.143 -3.7593 0.187944 0
M  V30 2708 C 262.29 -2.65082 0.814052 0
M  V30 2709 H 265.241 -1.31253 0.892092 0
M  V30 2710 H 265.262 -3.79903 -0.213148 0
M  V30 2711 H 264.774 -3.53901 1.59297 0
M  V30 2712 H 262.875 -3.62268 -0.871367 0
M  V30 2713 H 262.988 -4.74808 0.63985 0
M  V30 2714 H 261.352 -2.53528 0.244017 0
M  V30 2715 H 262.135 -2.87167 1.88123 0
M  V30 2716 N 264.58 -0.43555 -1.51462 0
M  V30 2717 C 265.51 0.367376 -2.30592 0
M  V30 2718 C 266.491 1.02263 -1.35928 0
M  V30 2719 O 267.676 1.02661 -1.64847 0
M  V30 2720 C 264.806 1.46983 -3.14664 0
M  V30 2721 C 263.76 0.938161 -4.17591 0
M  V30 2722 C 263.086 2.13622 -4.90173 0
M  V30 2723 C 264.386 -0.0261621 -5.22293 0
M  V30 2724 H 266.08 -0.292969 -2.97963 0
M  V30 2725 H 263.626 -0.14234 -1.43295 0
M  V30 2726 H 265.579 2.03873 -3.688 0
M  V30 2727 H 264.303 2.15843 -2.4511 0
M  V30 2728 H 262.962 0.391481 -3.64504 0
M  V30 2729 H 262.61 2.81098 -4.17124 0
M  V30 2730 H 262.31 1.78688 -5.59772 0
M  V30 2731 H 263.834 2.7107 -5.47132 0
M  V30 2732 H 265.248 0.452384 -5.71512 0
M  V30 2733 H 263.645 -0.287992 -5.99409 0
M  V30 2734 H 264.715 -0.963391 -4.75233 0
M  V30 2735 N 266.058 1.56714 -0.166846 0
M  V30 2736 C 267.021 2.16539 0.751232 0
M  V30 2737 C 268.021 1.11228 1.16125 0
M  V30 2738 O 269.211 1.36765 1.07894 0
M  V30 2739 C 266.343 2.74462 2.02196 0
M  V30 2740 H 267.536 2.99013 0.230499 0
M  V30 2741 H 265.089 1.56081 0.0826982 0
M  V30 2742 H 265.824 1.95709 2.58589 0
M  V30 2743 H 265.609 3.51527 1.73698 0
M  V30 2744 H 267.099 3.20489 2.67725 0
M  V30 2745 N 267.536 -0.106894 1.57237 0
M  V30 2746 C 268.764 -0.826389 1.8968 0
M  V30 2747 C 269.179 -1.72856 0.759353 0
M  V30 2748 O 268.536 -1.80503 -0.269263 0
M  V30 2749 C 268.587 -1.64967 3.21665 0
M  V30 2750 O 268.308 -0.783804 4.31031 0
M  V30 2751 C 269.809 -2.47326 3.67892 0
M  V30 2752 H 267.029 -0.236927 0.627779 0
M  V30 2753 H 269.573 -0.0876593 2.04312 0
M  V30 2754 H 267.728 -2.34103 3.08666 0
M  V30 2755 H 268.142 -1.35284 5.06753 0
M  V30 2756 H 269.616 -3.00604 4.6297 0
M  V30 2757 H 270.093 -3.25247 2.95146 0
M  V30 2758 H 270.699 -1.83411 3.83719 0
M  V30 2759 N 269.014 -1.53014 -0.377408 0
M  V30 2760 C 269.977 -1.77957 -1.44444 0
M  V30 2761 C 270.977 -0.649763 -1.47087 0
M  V30 2762 O 272.167 -0.917897 -1.48055 0
M  V30 2763 C 269.299 -1.89089 -2.83651 0
M  V30 2764 H 270.492 -2.73243 -1.23606 0
M  V30 2765 H 268.045 -1.43912 -0.609844 0
M  V30 2766 H 268.78 -0.958293 -3.09818 0
M  V30 2767 H 268.565 -2.71254 -2.83132 0
M  V30 2768 H 270.055 -2.1002 -3.60945 0
M  V30 2769 N 270.492 0.636531 -1.44174 0
M  V30 2770 C 271.903 1.21806 -1.41493 0
M  V30 2771 C 272.254 1.95785 -0.1275 0
M  V30 2772 O 271.379 2.02147 0.772376 0
M  V30 2773 C 271.974 2.21551 -2.56321 0
M  V30 2774 C 270.533 2.75143 -2.56853 0
M  V30 2775 C 269.68 1.50052 -2.33195 0
M  V30 2776 H 272.631 0.427531 -1.52833 0
M  V30 2777 H 272.652 3.0405 -2.28765 0
M  V30 2778 H 272.164 1.67679 -3.50008 0
M  V30 2779 H 270.265 3.33033 -1.67093 0
M  V30 2780 H 270.378 3.2155 -3.55165 0
M  V30 2781 H 268.742 1.77993 -1.82183 0
M  V30 2782 H 269.525 0.980903 -3.28988 0
M  V30 2783 N 271.97 1.30982 0.876444 0
M  V30 2784 C 273.218 1.20058 1.62575 0
M  V30 2785 C 273.539 -0.242947 1.93481 0
M  V30 2786 O 272.809 -1.1619 1.57724 0
M  V30 2787 H 271.389 0.44135 0.602677 0
M  V30 2788 H 274.051 1.64222 1.04962 0
M  V30 2789 H 273.147 1.76762 2.57219 0
M  V30 2790 N 273.449 -1.08991 1.13837 0
M  V30 2791 C 274.399 -2.1393 0.788535 0
M  V30 2792 C 275.383 -1.59396 -0.219516 0
M  V30 2793 O 276.575 -1.76985 -0.0227557 0
M  V30 2794 C 273.704 -3.42305 0.261147 0
M  V30 2795 C 272.79 -4.03736 1.29837 0
M  V30 2796 N 273.181 -4.39659 2.50067 0
M  V30 2797 C 271.479 -4.30993 1.1472 0
M  V30 2798 C 272.18 -4.88113 3.16419 0
M  V30 2799 N 271.156 -4.85846 2.43832 0
M  V30 2800 H 274.958 -2.39516 1.70322 0
M  V30 2801 H 272.472 -1.26263 1.02134 0
M  V30 2802 H 274.469 -4.16899 -0.0077405 0
M  V30 2803 H 273.129 -3.18172 -0.647805 0
M  V30 2804 H 274.14 -4.30878 2.8734 0
M  V30 2805 H 270.817 -4.16444 0.296773 0
M  V30 2806 H 272.207 -5.25336 4.18894 0
M  V30 2807 N 274.927 -0.932562 -1.27047 0
M  V30 2808 C 276.175 -0.574422 -1.93765 0
M  V30 2809 C 276.496 0.887993 -1.73608 0
M  V30 2810 O 275.766 1.62999 -1.08665 0
M  V30 2811 H 274.346 -0.209451 -0.717035 0
M  V30 2812 H 277.008 -1.18601 -1.5466 0
M  V30 2813 H 276.104 -0.784841 -3.02071 0
M  V30 2814 N 276.405 1.4127 -0.698611 0
M  V30 2815 C 277.816 1.84187 -0.305289 0
M  V30 2816 C 278.167 1.58449 1.15708 0
M  V30 2817 O 277.292 1.05651 1.88856 0
M  V30 2818 C 277.887 3.3435 -0.547314 0
M  V30 2819 C 276.446 3.75826 -0.207878 0
M  V30 2820 C 275.593 2.64647 -0.828099 0
M  V30 2821 H 278.544 1.30778 -0.89904 0
M  V30 2822 H 278.565 3.8001 0.192998 0
M  V30 2823 H 278.077 3.53051 -1.61172 0
M  V30 2824 H 276.178 3.62725 0.852143 0
M  V30 2825 H 276.291 4.74462 -0.665021 0
M  V30 2826 H 274.655 2.53395 -0.257458 0
M  V30 2827 H 275.438 2.86165 -1.89643 0
M  V30 2828 N 277.883 0.443576 1.51229 0
M  V30 2829 C 278.815 -0.400608 2.25672 0
M  V30 2830 C 279.828 -0.980945 1.29928 0
M  V30 2831 O 281.017 -0.874024 1.55638 0
M  V30 2832 C 278.117 -1.57304 3.00181 0
M  V30 2833 C 277.29 -1.11046 4.23069 0
M  V30 2834 C 276.349 -2.15374 4.80105 0
M  V30 2835 O 275.375 -1.74554 5.41774 0
M  V30 2836 N 276.577 -3.47922 4.64683 0
M  V30 2837 H 279.342 0.23745 2.98758 0
M  V30 2838 H 276.903 0.272809 1.59585 0
M  V30 2839 H 278.895 -2.26733 3.35223 0
M  V30 2840 H 277.465 -2.11632 2.30066 0
M  V30 2841 H 276.685 -0.243019 3.9345 0
M  V30 2842 H 277.973 -0.778888 5.02803 0
M  V30 2843 H 277.371 -3.83815 4.15575 0
M  V30 2844 H 275.928 -4.13228 5.0407 0
M  V30 2845 N 279.361 -1.56624 0.175154 0
M  V30 2846 C 280.777 -1.58571 -0.180966 0
M  V30 2847 C 280.977 -1.19065 -1.6256 0
M  V30 2848 O 280.033 -0.904044 -2.35761 0
M  V30 2849 C 281.346 -3.00522 0.103326 0
M  V30 2850 C 282.894 -3.12972 0.0418426 0
M  V30 2851 C 283.369 -4.57022 0.299175 0
M  V30 2852 N 284.86 -4.62541 0.247086 0
M  V30 2853 C 285.595 -5.71857 0.420318 0
M  V30 2854 N 285.091 -6.89717 0.652816 0
M  V30 2855 N 286.884 -5.60972 0.355957 0
M  V30 2856 H 279.035 -1.80589 1.11809 0
M  V30 2857 H 281.298 -0.837178 0.444788 0
M  V30 2858 H 281.004 -3.33916 1.10422 0
M  V30 2859 H 280.878 -3.72344 -0.603299 0
M  V30 2860 H 283.265 -2.79403 -0.949636 0
M  V30 2861 H 283.346 -2.43578 0.781238 0
M  V30 2862 H 282.99 -4.913 1.28788 0
M  V30 2863 H 282.92 -5.24579 -0.460876 0
M  V30 2864 H 285.411 -3.77829 0.0731895 0
M  V30 2865 H 285.724 -7.68911 0.774347 0
M  V30 2866 H 284.069 -6.91572 0.689476 0
M  V30 2867 H 287.26 -4.67773 0.174882 0
M  V30 2868 H 287.433 -6.46111 0.494388 0
M  V30 2869 N 280.839 0.0985539 -1.57292 0
M  V30 2870 C 282.064 0.820196 -1.90493 0
M  V30 2871 C 282.489 1.71658 -0.769094 0
M  V30 2872 O 281.847 1.79133 0.279495 0
M  V30 2873 C 281.895 1.61242 -3.22542 0
M  V30 2874 O 280.999 2.72108 -3.09888 0
M  V30 2875 H 280.34 0.225547 -0.62452 0
M  V30 2876 H 282.87 0.0748159 -2.04463 0
M  V30 2877 H 282.88 1.99737 -3.55766 0
M  V30 2878 H 281.555 0.954535 -4.04798 0
M  V30 2879 H 280.132 2.36667 -2.88172 0
M  V30 2880 N 282.317 1.53212 0.369288 0
M  V30 2881 C 283.247 1.82365 1.45826 0
M  V30 2882 C 284.228 0.676907 1.56051 0
M  V30 2883 O 285.413 0.926401 1.70679 0
M  V30 2884 C 282.543 2.01023 2.83208 0
M  V30 2885 C 281.497 3.1678 2.8781 0
M  V30 2886 C 280.823 3.20724 4.27832 0
M  V30 2887 C 282.123 4.55447 2.55667 0
M  V30 2888 H 283.817 2.73559 1.21678 0
M  V30 2889 H 281.363 1.3163 0.583911 0
M  V30 2890 H 283.316 2.20001 3.59413 0
M  V30 2891 H 282.04 1.06536 3.08736 0
M  V30 2892 H 280.699 2.97616 2.14056 0
M  V30 2893 H 280.347 2.23882 4.50429 0
M  V30 2894 H 280.047 3.98496 4.31827 0
M  V30 2895 H 281.571 3.41881 5.05915 0
M  V30 2896 H 282.985 4.74611 3.21586 0
M  V30 2897 H 281.382 5.35432 2.70984 0
M  V30 2898 H 282.452 4.60812 1.5093 0
M  V30 2899 N 283.795 -0.628877 1.44509 0
M  V30 2900 C 284.745 -1.7345 1.47983 0
M  V30 2901 C 285.729 -1.5715 0.345373 0
M  V30 2902 O 286.921 -1.66848 0.590829 0
M  V30 2903 C 284.05 -3.12143 1.42904 0
M  V30 2904 C 283.136 -3.33906 2.61472 0
M  V30 2905 N 283.527 -3.26024 3.86706 0
M  V30 2906 C 281.825 -3.64709 2.56716 0
M  V30 2907 C 282.526 -3.48536 4.65722 0
M  V30 2908 N 281.502 -3.71517 3.96832 0
M  V30 2909 H 285.304 -1.65818 2.42655 0
M  V30 2910 H 282.818 -0.831419 1.39503 0
M  V30 2911 H 284.815 -3.91433 1.43476 0
M  V30 2912 H 283.475 -3.2094 0.492717 0
M  V30 2913 H 284.486 -3.04893 4.18641 0
M  V30 2914 H 281.163 -3.80473 1.71891 0
M  V30 2915 H 282.553 -3.48016 5.74747 0
M  V30 2916 N 285.273 -1.31445 -0.869486 0
M  V30 2917 C 286.519 -1.21337 -1.62496 0
M  V30 2918 C 286.852 0.227872 -1.92858 0
M  V30 2919 O 286.127 1.16094 -1.56053 0
M  V30 2920 C 286.41 -2.05814 -2.95487 0
M  V30 2921 C 286.263 -3.5824 -2.72 0
M  V30 2922 C 287.582 -1.9079 -3.96594 0
M  V30 2923 H 284.701 -0.442135 -0.589649 0
M  V30 2924 H 287.343 -1.6124 -1.00507 0
M  V30 2925 H 285.493 -1.71913 -3.48394 0
M  V30 2926 H 287.165 -4.0228 -2.25762 0
M  V30 2927 H 285.408 -3.81647 -2.06224 0
M  V30 2928 H 286.079 -4.12657 -3.66631 0
M  V30 2929 H 288.555 -2.20459 -3.52898 0
M  V30 2930 H 287.431 -2.52199 -4.87531 0
M  V30 2931 H 287.692 -0.871341 -4.33428 0
M  V30 2932 N 286.751 1.08385 -1.14413 0
M  V30 2933 C 288.162 1.62258 -0.923535 0
M  V30 2934 C 288.513 1.88691 0.537595 0
M  V30 2935 O 287.638 1.64454 1.40655 0
M  V30 2936 C 288.233 2.94781 -1.67002 0
M  V30 2937 C 286.792 3.45437 -1.495 0
M  V30 2938 C 285.939 2.19668 -1.69238 0
M  V30 2939 H 288.89 0.916086 -1.2959 0
M  V30 2940 H 288.911 3.63229 -1.13334 0
M  V30 2941 H 288.423 2.7551 -2.73342 0
M  V30 2942 H 286.524 3.6981 -0.455097 0
M  V30 2943 H 286.637 4.22173 -2.2651 0
M  V30 2944 H 285.001 2.28849 -1.11804 0
M  V30 2945 H 285.784 2.02905 -2.7692 0
M  V30 2946 N 288.23 0.939286 1.26551 0
M  V30 2947 C 289.478 0.58469 1.93457 0
M  V30 2948 C 289.799 -0.878774 1.74076 0
M  V30 2949 O 289.069 -1.62421 1.09528 0
M  V30 2950 H 287.649 0.21325 0.715914 0
M  V30 2951 H 290.311 1.1942 1.54029 0
M  V30 2952 H 289.407 0.800849 3.0165 0
M  V30 2953 N 289.708 -1.40897 0.706093 0
M  V30 2954 C 290.638 -2.33418 0.0620085 0
M  V30 2955 C 291.619 -1.52385 -0.755827 0
M  V30 2956 O 292.804 -1.80886 -0.706674 0
M  V30 2957 C 289.934 -3.36293 -0.867445 0
M  V30 2958 C 288.888 -4.27716 -0.155932 0
M  V30 2959 C 288.214 -5.2105 -1.20046 0
M  V30 2960 C 289.514 -5.12944 0.984149 0
M  V30 2961 H 291.208 -2.87527 0.83477 0
M  V30 2962 H 288.754 -1.38249 0.402875 0
M  V30 2963 H 290.707 -3.99949 -1.32735 0
M  V30 2964 H 289.431 -2.80556 -1.67199 0
M  V30 2965 H 288.09 -3.65498 0.284047 0
M  V30 2966 H 287.738 -4.61624 -1.99781 0
M  V30 2967 H 287.438 -5.83056 -0.729328 0
M  V30 2968 H 288.962 -5.87584 -1.66066 0
M  V30 2969 H 290.376 -5.70109 0.604048 0
M  V30 2970 H 288.773 -5.83945 1.38304 0
M  V30 2971 H 289.843 -4.49485 1.81911 0
M  V30 2972 N 291.186 -0.45159 -1.50991 0
M  V30 2973 C 292.134 0.366864 -2.29689 0
M  V30 2974 C 293.128 1.00809 -1.36139 0
M  V30 2975 O 294.334 0.941427 -1.53418 0
M  V30 2976 H 290.709 0.137133 -0.739391 0
M  V30 2977 H 292.68 -0.317538 -2.96706 0
M  V30 2978 C 291.429 1.44751 -3.16137 0
M  V30 2979 H 290.752 0.963473 -3.88017 0
M  V30 2980 H 292.192 1.99315 -3.74232 0
M  V30 2981 C 290.651 2.43869 -2.32442 0
M  V30 2982 O 291.181 3.4872 -1.99392 0
M  V30 2983 N 289.387 2.15105 -1.95392 0
M  V30 2984 H 288.934 1.29866 -2.22469 0
M  V30 2985 H 288.892 2.81661 -1.39693 0
M  V30 2986 N 292.664 1.56529 -0.183458 0
M  V30 2987 C 293.611 2.18546 0.742055 0
M  V30 2988 C 294.581 1.12912 1.2182 0
M  V30 2989 O 295.766 1.41115 1.28418 0
M  V30 2990 C 292.906 2.83977 1.96089 0
M  V30 2991 C 292.019 4.04105 1.52719 0
M  V30 2992 C 291.154 4.57427 2.70063 0
M  V30 2993 C 290.193 5.69938 2.23243 0
M  V30 2994 N 289.33 6.17717 3.33722 0
M  V30 2995 H 294.17 2.97284 0.206432 0
M  V30 2996 H 291.707 1.46823 0.0901571 0
M  V30 2997 H 293.665 3.20077 2.67594 0
M  V30 2998 H 292.295 2.07822 2.47002 0
M  V30 2999 H 291.347 3.73745 0.708436 0
M  V30 3000 H 292.659 4.85513 1.1436 0
M  V30 3001 H 291.813 4.95772 3.49708 0
M  V30 3002 H 290.552 3.75101 3.11689 0
M  V30 3003 H 289.557 5.31133 1.42048 0
M  V30 3004 H 290.782 6.54073 1.82661 0
M  V30 3005 H 288.728 5.38317 3.74902 0
M  V30 3006 H 288.645 6.94146 2.99495 0
M  V30 3007 H 289.913 6.60713 4.13616 0
M  V30 3008 N 294.142 -0.090211 1.57342 0
M  V30 3009 C 295.37 -0.806224 1.90546 0
M  V30 3010 C 295.785 -1.72041 0.777644 0
M  V30 3011 O 295.142 -1.80778 -0.250103 0
M  V30 3012 C 295.193 -1.61546 3.23396 0
M  V30 3013 O 294.914 -0.738043 4.31839 0
M  V30 3014 C 296.415 -2.4341 3.70495 0
M  V30 3015 H 293.635 -0.230256 0.630257 0
M  V30 3016 H 296.179 -0.0659843 2.04394 0
M  V30 3017 H 294.334 -2.30816 3.11131 0
M  V30 3018 H 294.748 -1.29901 5.08159 0
M  V30 3019 H 296.222 -2.95676 4.66133 0
M  V30 3020 H 296.699 -3.22098 2.98579 0
M  V30 3021 H 297.305 -1.79331 3.85643 0
M  V30 3022 N 295.62 -1.53406 -0.361157 0
M  V30 3023 C 296.845 -1.74024 -1.12829 0
M  V30 3024 C 297.27 -0.470069 -1.82132 0
M  V30 3025 O 296.628 0.57619 -1.719 0
M  V30 3026 C 296.676 -2.90903 -2.13091 0
M  V30 3027 O 295.78 -2.59821 -3.20261 0
M  V30 3028 H 295.121 -0.577804 -0.327168 0
M  V30 3029 H 297.651 -2.00307 -0.41693 0
M  V30 3030 H 297.661 -3.17194 -2.56616 0
M  V30 3031 H 296.336 -3.83034 -1.62042 0
M  V30 3032 H 294.913 -2.44362 -2.81677 0
M  V30 3033 N 297.098 0.621204 -1.44841 0
M  V30 3034 C 298.323 1.41244 -1.51871 0
M  V30 3035 C 298.748 1.87519 -0.147764 0
M  V30 3036 O 298.106 1.59334 0.865 0
M  V30 3037 C 298.154 2.60221 -2.49634 0
M  V30 3038 O 297.258 3.60395 -2.00473 0
M  V30 3039 H 296.599 0.42223 -0.512463 0
M  V30 3040 H 299.129 0.757305 -1.90069 0
M  V30 3041 H 299.139 3.0764 -2.67996 0
M  V30 3042 H 297.814 2.25887 -3.4921 0
M  V30 3043 H 296.391 3.19717 -1.91925 0
M  V30 3044 N 298.576 1.31904 0.862503 0
M  V30 3045 C 299.823 1.22017 1.61611 0
M  V30 3046 C 300.151 -0.21991 1.93253 0
M  V30 3047 O 299.406 -1.17076 1.56817 0
M  V30 3048 C 299.705 2.01713 2.95037 0
M  V30 3049 C 299.371 3.51145 2.82857 0
M  V30 3050 C 298.033 3.91889 2.79243 0
M  V30 3051 C 300.385 4.46204 2.69353 0
M  V30 3052 C 297.713 5.25947 2.59993 0
M  V30 3053 C 300.065 5.80397 2.5164 0
M  V30 3054 C 298.729 6.20352 2.46413 0
M  V30 3055 H 297.999 0.44649 0.591378 0
M  V30 3056 H 300.646 1.63248 1.00111 0
M  V30 3057 H 298.951 1.53185 3.60613 0
M  V30 3058 H 300.648 1.91437 3.52353 0
M  V30 3059 H 297.238 3.1878 2.86491 0
M  V30 3060 H 301.422 4.15652 2.71196 0
M  V30 3061 H 296.678 5.5597 2.54376 0
M  V30 3062 H 300.852 6.53676 2.40169 0
M  V30 3063 H 298.479 7.24172 2.31256 0
M  V30 3064 N 300.054 -1.07777 1.14986 0
M  V30 3065 C 301.279 -1.84558 0.946213 0
M  V30 3066 C 301.704 -1.81323 -0.500362 0
M  V30 3067 O 301.062 -1.20301 -1.35637 0
M  V30 3068 C 301.11 -3.29736 1.45968 0
M  V30 3069 O 300.214 -4.07149 0.65601 0
M  V30 3070 H 299.555 -0.571641 0.33782 0
M  V30 3071 H 302.085 -1.35991 1.52865 0
M  V30 3072 H 302.095 -3.80574 1.47063 0
M  V30 3073 H 300.77 -3.31406 2.51283 0
M  V30 3074 H 299.347 -3.65994 0.714322 0
M  V30 3075 N 301.532 -0.945985 -1.26051 0
M  V30 3076 C 302.772 -0.603665 -1.95282 0
M  V30 3077 C 303.136 0.842377 -1.72534 0
M  V30 3078 O 304.337 1.29387 -2.35611 0
M  V30 3079 C 302.608 -0.942292 -3.44754 0
M  V30 3080 S 304.167 -0.711242 -4.32997 0
M  V30 3081 H 300.985 -0.222176 -0.675395 0
M  V30 3082 H 303.587 -1.21832 -1.52896 0
M  V30 3083 H 302.291 -1.99203 -3.58812 0
M  V30 3084 H 301.822 -0.317546 -3.92116 0
M  V30 3085 H 303.837 0.422221 -4.944 0
M  V30 3086 N 303.011 1.40521 -0.713556 0
M  V30 3087 C 303.921 2.34522 -0.0606667 0
M  V30 3088 C 304.937 1.57193 0.74607 0
M  V30 3089 O 306.113 1.89591 0.679493 0
M  V30 3090 C 303.178 3.36081 0.851491 0
M  V30 3091 C 302.239 4.29286 0.0349339 0
M  V30 3092 C 301.472 5.25994 0.903649 0
M  V30 3093 O 301.695 5.28616 2.14292 0
M  V30 3094 O 300.629 6.00918 0.343723 0
M  V30 3095 H 304.455 2.91968 -0.835972 0
M  V30 3096 H 302.04 1.41681 -0.47402 0
M  V30 3097 H 303.922 3.98369 1.37404 0
M  V30 3098 H 302.597 2.81052 1.60598 0
M  V30 3099 H 301.504 3.70289 -0.532633 0
M  V30 3100 H 302.837 4.87462 -0.681287 0
M  V30 3101 N 304.489 0.459591 1.5075 0
M  V30 3102 C 305.452 -0.329093 2.26825 0
M  V30 3103 C 306.452 -0.930481 1.31144 0
M  V30 3104 O 307.642 -0.801453 1.54669 0
M  V30 3105 C 304.774 -1.46768 3.07688 0
M  V30 3106 H 305.967 0.337924 2.9799 0
M  V30 3107 H 303.52 0.213336 1.54837 0
M  V30 3108 H 304.255 -2.17009 2.40993 0
M  V30 3109 H 304.04 -1.04238 3.77991 0
M  V30 3110 H 305.53 -2.02433 3.65254 0
M  V30 3111 N 305.967 -1.56429 0.191757 0
M  V30 3112 C 306.917 -2.15548 -0.743184 0
M  V30 3113 C 307.901 -1.09531 -1.17863 0
M  V30 3114 O 309.093 -1.35602 -1.13759 0
M  V30 3115 C 306.222 -2.81577 -1.96391 0
M  V30 3116 C 305.308 -3.9478 -1.54951 0
M  V30 3117 N 305.699 -4.98677 -0.845876 0
M  V30 3118 C 303.997 -4.06319 -1.83905 0
M  V30 3119 C 304.698 -5.78183 -0.638724 0
M  V30 3120 N 303.674 -5.30495 -1.18643 0
M  V30 3121 H 307.476 -2.9324 -0.196839 0
M  V30 3122 H 304.99 -1.62398 -0.0081603 0
M  V30 3123 H 306.987 -3.22321 -2.64415 0
M  V30 3124 H 305.647 -2.05371 -2.51501 0
M  V30 3125 H 306.658 -5.15464 -0.501704 0
M  V30 3126 H 303.335 -3.41238 -2.40548 0
M  V30 3127 H 304.725 -6.71851 -0.0807929 0
M  V30 3128 N 307.445 0.0818655 -1.57387 0
M  V30 3129 C 308.393 1.11712 -2.04018 0
M  V30 3130 C 309.387 1.40683 -0.94364 0
M  V30 3131 O 310.593 1.40209 -1.12878 0
M  V30 3132 H 306.968 0.377542 -0.650358 0
M  V30 3133 H 308.939 0.697614 -2.90131 0
M  V30 3134 C 307.688 2.42537 -2.49141 0
M  V30 3135 H 307.011 2.21092 -3.33104 0
M  V30 3136 H 308.451 3.13446 -2.85531 0
M  V30 3137 C 306.91 3.0778 -1.37014 0
M  V30 3138 O 307.44 3.95436 -0.706621 0
M  V30 3139 N 305.646 2.68242 -1.11779 0
M  V30 3140 H 305.193 1.97052 -1.65917 0
M  V30 3141 H 305.151 3.1222 -0.369594 0
M  V30 3142 N 308.923 1.53595 0.353017 0
M  V30 3143 C 309.886 1.80232 1.41594 0
M  V30 3144 C 310.886 0.673081 1.46035 0
M  V30 3145 O 312.076 0.941335 1.46576 0
M  V30 3146 C 309.208 1.93578 2.80607 0
M  V30 3147 H 310.401 2.75174 1.19244 0
M  V30 3148 H 307.954 1.44864 0.586872 0
M  V30 3149 H 308.689 1.00746 3.08254 0
M  V30 3150 H 308.474 2.75724 2.78781 0
M  V30 3151 H 309.964 2.15735 3.57558 0
M  V30 3152 N 310.401 -0.613514 1.45168 0
M  V30 3153 C 311.348 -1.72456 1.53387 0
M  V30 3154 C 312.318 -1.6169 0.380191 0
M  V30 3155 O 313.503 -1.81356 0.592836 0
M  V30 3156 C 310.643 -3.10753 1.50088 0
M  V30 3157 C 309.756 -3.32368 2.75963 0
M  V30 3158 C 308.891 -4.60737 2.64376 0
M  V30 3159 C 307.93 -4.7559 3.85332 0
M  V30 3160 N 307.067 -5.95253 3.72315 0
M  V30 3161 H 311.907 -1.64768 2.48305 0
M  V30 3162 H 309.444 -0.803503 1.23216 0
M  V30 3163 H 311.402 -3.90758 1.46164 0
M  V30 3164 H 310.032 -3.17413 0.587243 0
M  V30 3165 H 309.084 -2.4618 2.89999 0
M  V30 3166 H 310.396 -3.39218 3.65695 0
M  V30 3167 H 309.55 -5.48928 2.58385 0
M  V30 3168 H 308.289 -4.56275 1.72233 0
M  V30 3169 H 307.294 -3.85824 3.91688 0
M  V30 3170 H 308.519 -4.81854 4.78533 0
M  V30 3171 H 306.465 -5.91847 2.82937 0
M  V30 3172 H 306.382 -6.03236 4.55677 0
M  V30 3173 H 307.65 -6.85958 3.70246 0
M  V30 3174 N 311.879 -1.3236 -0.855495 0
M  V30 3175 C 313.127 -1.22629 -1.60644 0
M  V30 3176 C 313.448 0.212136 -1.93843 0
M  V30 3177 O 312.718 1.13666 -1.59552 0
M  V30 3178 H 311.298 -0.450882 -0.595579 0
M  V30 3179 H 313.96 -1.65871 -1.02337 0
M  V30 3180 H 313.056 -1.80832 -2.54374 0
M  V30 3181 N 313.357 1.07166 -1.15556 0
M  V30 3182 C 314.603 1.80065 -0.932984 0
M  V30 3183 C 314.936 1.86586 0.53845 0
M  V30 3184 O 314.211 1.35098 1.39924 0
M  V30 3185 C 314.494 3.25022 -1.55025 0
M  V30 3186 C 314.347 3.26634 -3.09242 0
M  V30 3187 C 315.666 4.22341 -1.2376 0
M  V30 3188 H 312.785 0.653697 -0.340366 0
M  V30 3189 H 315.427 1.25389 -1.4275 0
M  V30 3190 H 313.577 3.71712 -1.12972 0
M  V30 3191 H 315.249 2.88173 -3.60214 0
M  V30 3192 H 313.492 2.65539 -3.43033 0
M  V30 3193 H 314.163 4.28854 -3.47546 0
M  V30 3194 H 316.639 3.8405 -1.60139 0
M  V30 3195 H 315.515 5.22053 -1.69564 0
M  V30 3196 H 315.776 4.41828 -0.154938 0
M  V30 3197 N 314.835 0.952656 1.25548 0
M  V30 3198 C 316.063 0.623496 1.97282 0
M  V30 3199 C 316.478 -0.803987 1.70826 0
M  V30 3200 O 315.835 -1.53755 0.983147 0
M  V30 3201 C 315.886 0.870209 3.5087 0
M  V30 3202 O 315.607 2.24156 3.76412 0
M  V30 3203 C 317.108 0.553164 4.39835 0
M  V30 3204 H 314.328 0.233931 0.628902 0
M  V30 3205 H 316.872 1.27649 1.59768 0
M  V30 3206 H 315.027 0.263652 3.86502 0
M  V30 3207 H 315.441 2.31021 4.70882 0
M  V30 3208 H 316.915 0.776342 5.46513 0
M  V30 3209 H 317.392 -0.512215 4.36203 0
M  V30 3210 H 317.998 1.13896 4.09766 0
M  V30 3211 N 316.313 -1.40141 0.720998 0
M  V30 3212 C 317.541 -2.05096 0.272656 0
M  V30 3213 C 317.956 -1.54334 -1.0875 0
M  V30 3214 O 317.313 -0.702211 -1.6845 0
M  V30 3215 C 317.364 -3.60636 0.249835 0
M  V30 3216 O 317.085 -4.09526 1.55629 0
M  V30 3217 C 318.586 -4.42772 -0.216396 0
M  V30 3218 H 315.806 -0.659897 0.121558 0
M  V30 3219 H 318.35 -1.79449 0.980723 0
M  V30 3220 H 316.505 -3.85232 -0.409237 0
M  V30 3221 H 316.919 -5.03758 1.4604 0
M  V30 3222 H 318.393 -5.51702 -0.181212 0
M  V30 3223 H 318.87 -4.20756 -1.25941 0
M  V30 3224 H 319.476 -4.23294 0.412596 0
M  V30 3225 N 317.792 -0.46758 -1.50504 0
M  V30 3226 C 319.017 0.0886943 -2.0721 0
M  V30 3227 C 319.442 1.33057 -1.32956 0
M  V30 3228 O 318.8 1.77354 -0.376197 0
M  V30 3229 C 318.848 0.359202 -3.58806 0
M  V30 3230 O 317.952 1.44034 -3.8643 0
M  V30 3231 H 317.293 -0.0114349 -0.663902 0
M  V30 3232 H 319.823 -0.657613 -1.93744 0
M  V30 3233 H 319.833 0.600742 -4.03553 0
M  V30 3234 H 318.508 -0.548311 -4.1227 0
M  V30 3235 H 317.085 1.18638 -3.53524 0
M  V30 3236 N 319.27 1.56325 -0.20005 0
M  V30 3237 C 320.686 1.58839 0.155716 0
M  V30 3238 C 320.886 1.21636 1.60645 0
M  V30 3239 O 319.942 0.941437 2.34293 0
M  V30 3240 C 321.255 3.0032 -0.151124 0
M  V30 3241 C 322.803 3.12866 -0.0916284 0
M  V30 3242 C 323.278 4.56488 -0.371845 0
M  V30 3243 N 324.769 4.62089 -0.320641 0
M  V30 3244 C 325.504 5.71116 -0.511243 0
M  V30 3245 N 325 6.88592 -0.762461 0
M  V30 3246 N 326.793 5.60335 -0.445157 0
M  V30 3247 H 318.944 1.78788 -1.14668 0
M  V30 3248 H 321.207 0.829996 -0.458051 0
M  V30 3249 H 320.913 3.32117 -1.15721 0
M  V30 3250 H 320.787 3.73257 0.543986 0
M  V30 3251 H 323.174 2.80878 0.905065 0
M  V30 3252 H 323.255 2.42304 -0.81989 0
M  V30 3253 H 322.899 4.89189 -1.36588 0
M  V30 3254 H 322.829 5.25246 0.377362 0
M  V30 3255 H 325.32 3.77665 -0.13329 0
M  V30 3256 H 325.633 7.67581 -0.896576 0
M  V30 3257 H 323.978 6.90387 -0.799412 0
M  V30 3258 H 327.169 4.67436 -0.249278 0
M  V30 3259 H 327.342 6.45243 -0.597116 0
M  V30 3260 N 320.748 -0.0735177 1.57428 0
M  V30 3261 C 321.976 -0.785969 1.9139 0
M  V30 3262 C 322.391 -1.71207 0.795847 0
M  V30 3263 O 321.748 -1.81033 -0.230915 0
M  V30 3264 C 321.799 -1.58107 3.25091 0
M  V30 3265 O 321.52 -0.6922 4.32597 0
M  V30 3266 C 323.021 -2.39467 3.73055 0
M  V30 3267 H 320.241 -0.223558 0.632663 0
M  V30 3268 H 322.785 -0.044302 2.04452 0
M  V30 3269 H 320.94 -2.27503 3.13562 0
M  V30 3270 H 321.354 -1.24504 5.09508 0
M  V30 3271 H 322.828 -2.90716 4.69242 0
M  V30 3272 H 323.305 -3.18913 3.01979 0
M  V30 3273 H 323.911 -1.7523 3.87523 0
M  V30 3274 N 322.226 -1.5378 -0.344866 0
M  V30 3275 C 323.189 -1.80981 -1.40637 0
M  V30 3276 C 324.189 -0.680816 -1.45676 0
M  V30 3277 O 325.379 -0.949095 -1.46075 0
M  V30 3278 C 322.511 -1.95063 -2.79577 0
M  V30 3279 H 323.704 -2.75803 -1.17783 0
M  V30 3280 H 321.257 -1.45173 -0.579181 0
M  V30 3281 H 321.992 -1.02379 -3.07716 0
M  V30 3282 H 321.777 -2.77198 -2.77315 0
M  V30 3283 H 323.267 -2.17629 -3.56409 0
M  V30 3284 N 323.704 0.605807 -1.45491 0
M  V30 3285 C 324.932 1.39136 -1.5313 0
M  V30 3286 C 325.347 1.88082 -0.164507 0
M  V30 3287 O 324.704 1.62316 0.834247 0
M  V30 3288 C 324.755 2.59463 -2.51716 0
M  V30 3289 O 324.476 2.12551 -3.83084 0
M  V30 3290 C 325.977 3.52301 -2.6907 0
M  V30 3291 H 323.197 0.425849 -0.51855 0
M  V30 3292 H 325.741 0.73865 -1.90694 0
M  V30 3293 H 323.896 3.20772 -2.17219 0
M  V30 3294 H 324.31 2.90744 -4.36541 0
M  V30 3295 H 325.784 4.33271 -3.42024 0
M  V30 3296 H 326.261 4.02757 -1.75167 0
M  V30 3297 H 326.867 2.96845 -3.04571 0
M  V30 3298 N 325.182 1.32811 0.848464 0
M  V30 3299 C 326.431 1.23075 1.59798 0
M  V30 3300 C 326.744 -0.204419 1.94529 0
M  V30 3301 O 327.95 -0.423701 2.68173 0
M  V30 3302 C 326.406 2.15594 2.88179 0
M  V30 3303 C 326.014 3.64228 2.60849 0
M  V30 3304 C 327.758 2.14709 3.66197 0
M  V30 3305 C 325.665 4.48689 3.85269 0
M  V30 3306 H 324.595 0.457091 0.599653 0
M  V30 3307 H 327.246 1.57813 0.936342 0
M  V30 3308 H 325.628 1.73778 3.55833 0
M  V30 3309 H 326.802 4.14424 2.01467 0
M  V30 3310 H 325.117 3.67306 1.96151 0
M  V30 3311 H 327.714 2.75046 4.58534 0
M  V30 3312 H 328.057 1.13966 4.00397 0
M  V30 3313 H 328.59 2.54837 3.05455 0
M  V30 3314 H 325.329 5.5027 3.56207 0
M  V30 3315 H 324.849 4.03241 4.44024 0
M  V30 3316 H 326.528 4.62006 4.52946 0
M  V30 3317 N 326.66 -1.06551 1.16123 0
M  V30 3318 C 327.888 -1.83005 0.965237 0
M  V30 3319 C 328.303 -1.82423 -0.486542 0
M  V30 3320 O 327.66 -1.24152 -1.33763 0
M  V30 3321 C 327.711 -3.29733 1.48183 0
M  V30 3322 O 327.432 -3.30416 2.87674 0
M  V30 3323 C 328.933 -4.22926 1.32848 0
M  V30 3324 H 326.153 -0.577118 0.342309 0
M  V30 3325 H 328.697 -1.3445 1.54089 0
M  V30 3326 H 326.852 -3.75609 0.948517 0
M  V30 3327 H 327.266 -4.22149 3.11272 0
M  V30 3328 H 328.74 -5.23916 1.73827 0
M  V30 3329 H 329.217 -4.38346 0.273692 0
M  V30 3330 H 329.823 -3.82894 1.85127 0
M  V30 3331 N 328.138 -0.959301 -1.25041 0
M  V30 3332 C 329.384 -0.617525 -1.9317 0
M  V30 3333 C 329.717 0.843981 -1.74902 0
M  V30 3334 O 328.992 1.60615 -1.09696 0
M  V30 3335 C 329.275 -0.982736 -3.46431 0
M  V30 3336 C 329.128 -2.50032 -3.73904 0
M  V30 3337 C 330.447 -0.511176 -4.37121 0
M  V30 3338 H 327.566 -0.22582 -0.701552 0
M  V30 3339 H 330.208 -1.19679 -1.4757 0
M  V30 3340 H 328.358 -0.489806 -3.854 0
M  V30 3341 H 330.03 -3.06737 -3.44544 0
M  V30 3342 H 328.273 -2.93598 -3.19348 0
M  V30 3343 H 328.944 -2.70635 -4.81103 0
M  V30 3344 H 331.42 -0.934075 -4.0548 0
M  V30 3345 H 330.296 -0.795361 -5.43107 0
M  V30 3346 H 330.557 0.588834 -4.38161 0
M  V30 3347 N 329.616 1.39756 -0.72842 0
M  V30 3348 C 330.546 2.33289 -0.0991354 0
M  V30 3349 C 331.527 1.53568 0.731489 0
M  V30 3350 O 332.712 1.81987 0.677807 0
M  V30 3351 C 329.842 3.3763 0.813834 0
M  V30 3352 C 328.796 4.2791 0.0878663 0
M  V30 3353 C 328.122 5.22894 1.11741 0
M  V30 3354 C 329.422 5.11314 -1.06563 0
M  V30 3355 H 331.116 2.86163 -0.880408 0
M  V30 3356 H 328.662 1.37591 -0.424819 0
M  V30 3357 H 330.615 4.0201 1.26355 0
M  V30 3358 H 329.339 2.83181 1.62715 0
M  V30 3359 H 327.998 3.65 -0.342159 0
M  V30 3360 H 327.646 4.64744 1.92412 0
M  V30 3361 H 327.346 5.84143 0.636477 0
M  V30 3362 H 328.87 5.90151 1.56697 0
M  V30 3363 H 330.284 5.69076 -0.694671 0
M  V30 3364 H 328.681 5.81671 -1.47577 0
M  V30 3365 H 329.751 4.46534 -1.89038 0
M  V30 3366 N 331.094 0.475555 1.50254 0
M  V30 3367 C 332.505 0.0215174 1.86688 0
M  V30 3368 C 332.856 -1.38467 1.39001 0
M  V30 3369 O 331.981 -2.02732 0.756894 0
M  V30 3370 C 332.576 0.0322715 3.38785 0
M  V30 3371 C 331.135 -0.366314 3.74613 0
M  V30 3372 C 330.282 0.415832 2.74164 0
M  V30 3373 H 333.233 0.689612 1.42934 0
M  V30 3374 H 333.254 -0.76889 3.7265 0
M  V30 3375 H 332.766 1.05584 3.73462 0
M  V30 3376 H 330.867 -1.39406 3.45538 0
M  V30 3377 H 330.98 -0.064555 4.79057 0
M  V30 3378 H 329.344 -0.131048 2.54363 0
M  V30 3379 H 330.127 1.43899 3.11686 0
M  V30 3380 N 332.573 -1.56217 0.208337 0
M  V30 3381 C 333.505 -2.1695 -0.739276 0
M  V30 3382 C 334.518 -1.13492 -1.1672 0
M  V30 3383 O 335.707 -1.40529 -1.10063 0
M  V30 3384 C 332.807 -2.72755 -2.01142 0
M  V30 3385 C 331.98 -4.0125 -1.74118 0
M  V30 3386 C 331.039 -4.41749 -2.85909 0
M  V30 3387 O 330.065 -5.08912 -2.54946 0
M  V30 3388 N 331.267 -4.06342 -4.14568 0
M  V30 3389 H 334.032 -2.98893 -0.219837 0
M  V30 3390 H 331.593 -1.61878 0.0268445 0
M  V30 3391 H 333.585 -2.96826 -2.75094 0
M  V30 3392 H 332.155 -1.95191 -2.4417 0
M  V30 3393 H 331.375 -3.85173 -0.838775 0
M  V30 3394 H 332.663 -4.851 -1.53477 0
M  V30 3395 H 332.061 -3.52345 -4.42571 0
M  V30 3396 H 330.618 -4.35335 -4.85105 0
M  V30 3397 N 334.051 0.0651679 -1.57465 0
M  V30 3398 C 334.983 1.10359 -2.00882 0
M  V30 3399 C 335.996 1.346 -0.915788 0
M  V30 3400 O 337.185 1.32723 -1.1936 0
M  V30 3401 C 334.285 2.45312 -2.33828 0
M  V30 3402 C 333.458 2.40934 -3.65061 0
M  V30 3403 C 332.517 3.58047 -3.85602 0
M  V30 3404 O 331.543 3.39175 -4.57109 0
M  V30 3405 N 332.745 4.78637 -3.28462 0
M  V30 3406 H 335.51 0.733807 -2.90578 0
M  V30 3407 H 333.071 0.253719 -1.599 0
M  V30 3408 H 335.063 3.22314 -2.44737 0
M  V30 3409 H 333.633 2.74267 -1.49988 0
M  V30 3410 H 332.853 1.49273 -3.64844 0
M  V30 3411 H 334.141 2.35117 -4.51218 0
M  V30 3412 H 333.539 4.96872 -2.70433 0
M  V30 3413 H 332.096 5.53127 -3.44809 0
M  V30 3414 N 335.529 1.53961 0.336706 0
M  V30 3415 C 336.94 1.62914 0.911925 0
M  V30 3416 C 337.291 0.514795 1.89326 0
M  V30 3417 O 336.416 -0.354395 2.13478 0
M  V30 3418 C 337.011 2.95304 1.66076 0
M  V30 3419 C 335.57 3.06496 2.18489 0
M  V30 3420 C 334.717 2.58403 1.00613 0
M  V30 3421 H 337.668 1.58285 0.114649 0
M  V30 3422 H 337.689 2.84727 2.5241 0
M  V30 3423 H 337.201 3.76387 0.946276 0
M  V30 3424 H 335.302 2.3006 2.93092 0
M  V30 3425 H 335.415 4.1208 2.44391 0
M  V30 3426 H 333.779 2.13977 1.38152 0
M  V30 3427 H 334.562 3.41932 0.306179 0
M  V30 3428 N 337.007 -0.598083 1.45811 0
M  V30 3429 C 338.423 -0.919847 1.30426 0
M  V30 3430 C 338.623 -1.99759 0.264303 0
M  V30 3431 O 337.679 -2.50221 -0.338472 0
M  V30 3432 C 338.992 -1.35176 2.68603 0
M  V30 3433 C 340.54 -1.46546 2.76574 0
M  V30 3434 C 341.015 -1.9311 4.15298 0
M  V30 3435 N 342.506 -2.00328 4.1764 0
M  V30 3436 C 343.241 -2.37599 5.21856 0
M  V30 3437 N 342.737 -2.73771 6.36413 0
M  V30 3438 N 344.53 -2.38021 5.09218 0
M  V30 3439 H 336.681 0.114111 2.12093 0
M  V30 3440 H 338.944 -0.0116121 0.947929 0
M  V30 3441 H 338.65 -0.633969 3.45939 0
M  V30 3442 H 338.524 -2.3164 2.97696 0
M  V30 3443 H 340.911 -2.17415 1.99537 0
M  V30 3444 H 340.992 -0.483727 2.51185 0
M  V30 3445 H 340.636 -1.22824 4.92825 0
M  V30 3446 H 340.566 -2.92213 4.38086 0
M  V30 3447 H 343.057 -1.74925 3.34977 0
M  V30 3448 H 343.37 -3.0112 7.11721 0
M  V30 3449 H 341.715 -2.71445 6.39799 0
M  V30 3450 H 344.906 -2.09174 4.18765 0
M  V30 3451 H 345.079 -2.66741 5.90554 0
M  V30 3452 N 338.485 -1.33259 -0.841409 0
M  V30 3453 C 339.433 -1.23279 -1.97244 0
M  V30 3454 C 340.427 -0.134706 -1.68864 0
M  V30 3455 O 341.633 -0.298501 -1.77508 0
M  V30 3456 H 338.008 -0.382497 -0.647457 0
M  V30 3457 H 339.979 -2.18906 -2.02787 0
M  V30 3458 C 338.728 -0.986268 -3.33419 0
M  V30 3459 H 338.051 -1.82347 -3.55794 0
M  V30 3460 H 339.491 -0.956728 -4.13065 0
M  V30 3461 C 337.95 0.310842 -3.35463 0
M  V30 3462 O 338.48 1.31838 -3.79449 0
M  V30 3463 N 336.686 0.337485 -2.88634 0
M  V30 3464 H 336.233 -0.482967 -2.53032 0
M  V30 3465 H 336.191 1.20518 -2.90384 0
M  V30 3466 N 339.963 1.05934 -1.16686 0
M  V30 3467 C 340.893 2.1546 -0.899949 0
M  V30 3468 C 341.874 1.69391 0.155154 0
M  V30 3469 O 343.059 1.94199 0.00648693 0
M  V30 3470 C 340.189 3.44939 -0.404241 0
M  V30 3471 C 339.143 4.04536 -1.39767 0
M  V30 3472 C 338.469 5.29268 -0.760216 0
M  V30 3473 C 339.769 4.42893 -2.76845 0
M  V30 3474 H 341.463 2.38046 -1.81588 0
M  V30 3475 H 339.009 1.14404 -0.874514 0
M  V30 3476 H 340.962 4.20901 -0.204971 0
M  V30 3477 H 339.686 3.21983 0.547206 0
M  V30 3478 H 338.345 3.30635 -1.58355 0
M  V30 3479 H 337.993 5.02611 0.197831 0
M  V30 3480 H 337.693 5.70101 -1.42332 0
M  V30 3481 H 339.217 6.07924 -0.57105 0
M  V30 3482 H 340.631 5.09921 -2.62019 0
M  V30 3483 H 339.028 4.94721 -3.39663 0
M  V30 3484 H 340.098 3.53584 -3.31823 0
M  V30 3485 N 341.441 0.965919 1.2453 0
M  V30 3486 C 342.391 0.465731 2.23193 0
M  V30 3487 C 343.375 -0.451277 1.54442 0
M  V30 3488 O 344.567 -0.282489 1.74731 0
M  V30 3489 C 341.696 -0.244511 3.42428 0
M  V30 3490 C 340.782 0.691222 4.18429 0
M  V30 3491 N 341.173 1.82771 4.71623 0
M  V30 3492 C 339.471 0.501649 4.4317 0
M  V30 3493 C 340.172 2.41285 5.29298 0
M  V30 3494 N 339.148 1.69819 5.16394 0
M  V30 3495 H 342.95 1.33291 2.61937 0
M  V30 3496 H 340.464 0.824789 1.39896 0
M  V30 3497 H 342.461 -0.620056 4.12263 0
M  V30 3498 H 341.121 -1.10815 3.05205 0
M  V30 3499 H 342.132 2.20929 4.68413 0
M  V30 3500 H 338.809 -0.318177 4.16286 0
M  V30 3501 H 340.199 3.37181 5.8117 0
M  V30 3502 N 342.919 -1.39368 0.735821 0
M  V30 3503 C 343.849 -2.33234 0.111506 0
M  V30 3504 C 344.83 -1.53954 -0.723334 0
M  V30 3505 O 346.015 -1.82344 -0.668147 0
M  V30 3506 C 343.145 -3.38057 -0.795917 0
M  V30 3507 C 342.099 -4.2795 -0.065172 0
M  V30 3508 C 341.425 -5.23479 -1.08967 0
M  V30 3509 C 342.725 -5.10741 1.09273 0
M  V30 3510 H 344.419 -2.85692 0.895571 0
M  V30 3511 H 341.965 -1.37364 0.432109 0
M  V30 3512 H 343.918 -4.02675 -1.24221 0
M  V30 3513 H 342.642 -2.8404 -1.61211 0
M  V30 3514 H 341.301 -3.64813 0.361511 0
M  V30 3515 H 340.949 -4.65758 -1.89944 0
M  V30 3516 H 340.649 -5.84472 -0.605489 0
M  V30 3517 H 342.173 -5.90974 -1.53565 0
M  V30 3518 H 343.587 -5.68699 0.724841 0
M  V30 3519 H 341.984 -5.8088 1.50659 0
M  V30 3520 H 343.054 -4.45525 1.91404 0
M  V30 3521 N 344.397 -0.483516 -1.5 0
M  V30 3522 C 345.643 0.0672592 -2.02688 0
M  V30 3523 C 345.976 1.38247 -1.36387 0
M  V30 3524 O 345.251 1.88131 -0.493675 0
M  V30 3525 C 345.534 0.238109 -3.59312 0
M  V30 3526 C 345.387 -1.099 -4.36168 0
M  V30 3527 C 346.706 0.986916 -4.28892 0
M  V30 3528 H 343.825 0.0229696 -0.736642 0
M  V30 3529 H 346.467 -0.631527 -1.79197 0
M  V30 3530 H 344.617 0.8333 -3.79458 0
M  V30 3531 H 346.289 -1.73172 -4.27562 0
M  V30 3532 H 344.532 -1.69261 -3.99416 0
M  V30 3533 H 345.203 -0.932954 -5.44059 0
M  V30 3534 H 347.679 0.482302 -4.13295 0
M  V30 3535 H 346.555 1.07527 -5.38265 0
M  V30 3536 H 346.816 2.0265 -3.92919 0
M  V30 3537 N 345.875 1.56104 -0.216619 0
M  V30 3538 C 347.1 2.0301 0.424462 0
M  V30 3539 C 347.525 1.0955 1.52907 0
M  V30 3540 O 346.883 0.0827914 1.81111 0
M  V30 3541 C 346.931 3.4819 0.937883 0
M  V30 3542 O 346.035 3.57865 2.04955 0
M  V30 3543 H 345.376 0.656925 0.0966755 0
M  V30 3544 H 347.906 2.01859 -0.33381 0
M  V30 3545 H 347.916 3.88413 1.24897 0
M  V30 3546 H 346.591 4.15699 0.129387 0
M  V30 3547 H 345.168 3.29527 1.74546 0
M  V30 3548 N 347.353 -0.0568162 1.57498 0
M  V30 3549 C 348.769 -0.411933 1.54192 0
M  V30 3550 C 348.969 -1.78287 0.938942 0
M  V30 3551 O 348.025 -2.46483 0.547919 0
M  V30 3552 C 349.338 -0.339244 2.9878 0
M  V30 3553 C 350.886 -0.418348 3.10192 0
M  V30 3554 C 351.361 -0.375407 4.56459 0
M  V30 3555 N 352.852 -0.435038 4.61153 0
M  V30 3556 C 353.587 -0.424265 5.71828 0
M  V30 3557 N 353.083 -0.367418 6.91825 0
M  V30 3558 N 354.876 -0.471938 5.60115 0
M  V30 3559 H 347.027 0.840684 1.95055 0
M  V30 3560 H 349.29 0.316987 0.893433 0
M  V30 3561 H 348.996 0.601742 3.46514 0
M  V30 3562 H 348.87 -1.14371 3.59443 0
M  V30 3563 H 351.257 -1.34976 2.62422 0
M  V30 3564 H 351.338 0.414962 2.52412 0
M  V30 3565 H 350.982 0.552219 5.04889 0
M  V30 3566 H 350.912 -1.22645 5.12119 0
M  V30 3567 H 353.403 -0.482612 3.74806 0
M  V30 3568 H 353.716 -0.363535 7.71944 0
M  V30 3569 H 352.061 -0.333879 6.94198 0
M  V30 3570 H 355.252 -0.514145 4.65268 0
M  V30 3571 H 355.425 -0.460073 6.46365 0
M  V30 3572 N 348.832 -1.54138 -0.328536 0
M  V30 3573 C 349.764 -1.79509 -1.4251 0
M  V30 3574 C 350.777 -0.67688 -1.48061 0
M  V30 3575 O 351.966 -0.953898 -1.50874 0
M  V30 3576 C 349.066 -1.89337 -2.81078 0
M  V30 3577 C 348.239 -3.19443 -2.98789 0
M  V30 3578 C 347.298 -3.20036 -4.17688 0
M  V30 3579 O 346.324 -3.93697 -4.11086 0
M  V30 3580 N 347.526 -2.43467 -5.26976 0
M  V30 3581 H 350.291 -2.74139 -1.21111 0
M  V30 3582 H 347.852 -1.53373 -0.518499 0
M  V30 3583 H 349.844 -1.87167 -3.58818 0
M  V30 3584 H 348.414 -1.01826 -2.95551 0
M  V30 3585 H 347.634 -3.34614 -2.08391 0
M  V30 3586 H 348.922 -4.05354 -3.07515 0
M  V30 3587 H 348.32 -1.83201 -5.35214 0
M  V30 3588 H 346.877 -2.4708 -6.03154 0
M  V30 3589 N 350.31 0.590341 -1.46126 0
M  V30 3590 C 351.721 1.17243 -1.45296 0
M  V30 3591 C 352.072 1.95281 -0.189723 0
M  V30 3592 O 351.197 2.04502 0.707674 0
M  V30 3593 C 351.792 2.13284 -2.6324 0
M  V30 3594 C 350.351 2.66832 -2.65476 0
M  V30 3595 C 349.498 1.42557 -2.3785 0
M  V30 3596 H 352.449 0.378692 -1.54116 0
M  V30 3597 H 352.47 2.96619 -2.38323 0
M  V30 3598 H 351.982 1.56459 -3.55165 0
M  V30 3599 H 350.083 3.27548 -1.77603 0
M  V30 3600 H 350.196 3.10088 -3.65215 0
M  V30 3601 H 348.56 1.72107 -1.87753 0
M  V30 3602 H 349.343 0.875741 -3.31942 0
M  V30 3603 N 351.788 1.33704 0.83433 0
M  V30 3604 C 353.016 1.28467 1.62185 0
M  V30 3605 C 353.431 -0.143526 1.88254 0
M  V30 3606 O 352.788 -1.08709 1.4659 0
M  V30 3607 C 352.839 2.06174 2.96942 0
M  V30 3608 O 352.56 3.43422 2.72016 0
M  V30 3609 C 354.061 2.08201 3.91366 0
M  V30 3610 H 351.281 0.4424 0.504503 0
M  V30 3611 H 353.825 1.76145 1.03891 0
M  V30 3612 H 351.98 1.62167 3.51825 0
M  V30 3613 H 352.394 3.83453 3.57861 0
M  V30 3614 H 353.868 2.67017 4.83121 0
M  V30 3615 H 354.345 1.07343 4.2588 0
M  V30 3616 H 354.951 2.52246 3.42421 0
M  V30 3617 N 353.266 -1.05314 1.17247 0
M  V30 3618 C 354.176 -2.16538 0.90268 0
M  V30 3619 C 355.192 -1.73523 -0.128707 0
M  V30 3620 O 356.368 -2.01337 0.0502701 0
M  V30 3621 C 353.433 -3.44167 0.418356 0
M  V30 3622 C 352.494 -4.01635 1.51618 0
M  V30 3623 C 351.727 -5.23171 1.05487 0
M  V30 3624 O 351.95 -5.70327 -0.0914715 0
M  V30 3625 O 350.884 -5.72848 1.8474 0
M  V30 3626 H 354.71 -2.42145 1.83302 0
M  V30 3627 H 352.295 -1.15037 0.953246 0
M  V30 3628 H 354.177 -4.21112 0.155726 0
M  V30 3629 H 352.852 -3.20063 -0.48385 0
M  V30 3630 H 351.759 -3.26135 1.83268 0
M  V30 3631 H 353.092 -4.30053 2.39405 0
M  V30 3632 N 354.744 -0.972509 -1.24016 0
M  V30 3633 C 355.674 -0.525548 -2.27509 0
M  V30 3634 C 356.655 0.437262 -1.64384 0
M  V30 3635 O 357.84 0.332343 -1.91335 0
M  V30 3636 C 354.97 0.180448 -3.46831 0
M  V30 3637 C 353.924 -0.698859 -4.22256 0
M  V30 3638 C 353.25 0.138903 -5.3452 0
M  V30 3639 C 354.55 -1.98582 -4.83076 0
M  V30 3640 H 356.244 -1.39058 -2.65148 0
M  V30 3641 H 353.79 -0.67009 -1.27459 0
M  V30 3642 H 355.743 0.504387 -4.18371 0
M  V30 3643 H 354.467 1.07987 -3.08231 0
M  V30 3644 H 353.126 -1.00614 -3.52523 0
M  V30 3645 H 352.774 1.03862 -4.9216 0
M  V30 3646 H 352.474 -0.446259 -5.85903 0
M  V30 3647 H 353.998 0.457404 -6.08884 0
M  V30 3648 H 355.412 -1.72715 -5.46665 0
M  V30 3649 H 353.809 -2.5181 -5.44713 0
M  V30 3650 H 354.879 -2.67769 -4.04262 0
M  V30 3651 N 356.222 1.38976 -0.743202 0
M  V30 3652 C 357.132 2.3434 -0.110399 0
M  V30 3653 C 358.148 1.58741 0.712559 0
M  V30 3654 O 359.324 1.9099 0.639125 0
M  V30 3655 C 356.389 3.37812 0.780012 0
M  V30 3656 C 355.45 4.29263 -0.0561319 0
M  V30 3657 C 354.683 5.27793 0.791875 0
M  V30 3658 O 354.906 5.33043 2.03031 0
M  V30 3659 O 353.84 6.01512 0.216183 0
M  V30 3660 H 357.666 2.90129 -0.897714 0
M  V30 3661 H 355.251 1.40643 -0.503966 0
M  V30 3662 H 357.133 4.01194 1.28923 0
M  V30 3663 H 355.808 2.84395 1.546 0
M  V30 3664 H 354.715 3.69076 -0.611056 0
M  V30 3665 H 356.048 4.85907 -0.784531 0
M  V30 3666 N 357.7 0.491464 1.49741 0
M  V30 3667 C 358.946 -0.0565092 2.02721 0
M  V30 3668 C 359.279 -1.37522 1.37118 0
M  V30 3669 O 358.554 -1.87866 0.503645 0
M  V30 3670 C 358.837 -0.219051 3.59433 0
M  V30 3671 C 358.69 1.12211 4.35579 0
M  V30 3672 C 360.009 -0.964157 4.29409 0
M  V30 3673 H 357.128 -0.0190627 0.736753 0
M  V30 3674 H 359.77 0.641021 1.7886 0
M  V30 3675 H 357.92 -0.813165 3.79895 0
M  V30 3676 H 359.592 1.75437 4.26637 0
M  V30 3677 H 357.835 1.71377 3.98513 0
M  V30 3678 H 358.506 0.961794 5.43556 0
M  V30 3679 H 360.982 -0.460378 4.13545 0
M  V30 3680 H 359.858 -1.04671 5.38828 0
M  V30 3681 H 360.119 -2.00563 3.93988 0
M  V30 3682 N 359.178 -1.55987 0.224894 0
M  V30 3683 C 360.141 -2.19178 -0.670348 0
M  V30 3684 C 361.141 -1.15461 -1.11917 0
M  V30 3685 O 362.331 -1.40675 -1.02743 0
M  V30 3686 C 359.463 -2.81777 -1.9187 0
M  V30 3687 H 360.656 -2.99662 -0.119364 0
M  V30 3688 H 358.209 -1.5628 -0.0247128 0
M  V30 3689 H 358.944 -2.05172 -2.51147 0
M  V30 3690 H 358.729 -3.57732 -1.60531 0
M  V30 3691 H 360.219 -3.30205 -2.55645 0
M  V30 3692 N 360.656 0.0484629 -1.57525 0
M  V30 3693 C 361.902 0.738854 -1.89506 0
M  V30 3694 C 362.257 1.73989 -0.821319 0
M  V30 3695 O 361.55 1.90825 0.172129 0
M  V30 3696 C 361.744 1.46632 -3.25935 0
M  V30 3697 C 361.573 0.537254 -4.46479 0
M  V30 3698 C 360.343 0.165484 -5.05029 0
M  V30 3699 C 362.541 -0.176085 -5.13998 0
M  V30 3700 N 360.523 -0.766868 -6.09091 0
M  V30 3701 C 361.894 -0.96478 -6.12448 0
M  V30 3702 C 363.949 -0.24509 -4.97296 0
M  V30 3703 C 362.652 -1.8161 -6.95996 0
M  V30 3704 C 364.678 -1.08347 -5.81391 0
M  V30 3705 C 364.04 -1.86014 -6.79395 0
M  V30 3706 H 360.139 0.245067 -0.742608 0
M  V30 3707 H 362.723 -0.000476161 -1.947 0
M  V30 3708 H 360.894 2.17623 -3.21706 0
M  V30 3709 H 362.626 2.10757 -3.45491 0
M  V30 3710 H 359.381 0.523466 -4.70698 0
M  V30 3711 H 359.805 -1.22698 -6.65788 0
M  V30 3712 H 364.447 0.341063 -4.21422 0
M  V30 3713 H 362.165 -2.41313 -7.71229 0
M  V30 3714 H 365.751 -1.14014 -5.70519 0
M  V30 3715 H 364.631 -2.4984 -7.43337 0
M  V30 3716 N 362.134 1.5431 0.320358 0
M  V30 3717 C 363.362 1.76636 1.07738 0
M  V30 3718 C 363.777 0.51649 1.81598 0
M  V30 3719 O 363.134 -0.512942 1.75143 0
M  V30 3720 C 363.185 2.96158 2.07299 0
M  V30 3721 O 362.906 4.16313 1.36438 0
M  V30 3722 C 364.407 3.3072 2.95193 0
M  V30 3723 H 361.627 0.589597 0.320339 0
M  V30 3724 H 364.171 2.01207 0.36551 0
M  V30 3725 H 362.326 2.73851 2.74016 0
M  V30 3726 H 362.74 4.83565 2.03138 0
M  V30 3727 H 364.214 4.17643 3.60941 0
M  V30 3728 H 364.691 2.48026 3.62463 0
M  V30 3729 H 365.297 3.55117 2.34034 0
M  V30 3730 N 363.613 -0.582584 1.46437 0
M  V30 3731 C 365.024 -1.1647 1.45916 0
M  V30 3732 C 365.375 -1.95177 0.200077 0
M  V30 3733 O 364.5 -2.04874 -0.696819 0
M  V30 3734 C 365.095 -2.11885 2.64367 0
M  V30 3735 C 363.654 -2.65421 2.66887 0
M  V30 3736 C 362.801 -1.41294 2.38603 0
M  V30 3737 H 365.752 -0.370514 1.54314 0
M  V30 3738 H 365.773 -2.9535 2.39892 0
M  V30 3739 H 365.285 -1.54573 3.5599 0
M  V30 3740 H 363.386 -3.26602 1.79338 0
M  V30 3741 H 363.499 -3.08147 3.66854 0
M  V30 3742 H 361.863 -1.71109 1.88663 0
M  V30 3743 H 362.646 -0.858125 3.32402 0
M  V30 3744 N 365.091 -1.34144 -0.827227 0
M  V30 3745 C 366.339 -1.26009 -1.58007 0
M  V30 3746 C 366.66 0.170971 -1.94249 0
M  V30 3747 O 365.93 1.10256 -1.61927 0
M  V30 3748 H 364.51 -0.463414 -0.585881 0
M  V30 3749 H 367.172 -1.68005 -0.987951 0
M  V30 3750 H 366.268 -1.86187 -2.50481 0
M  V30 3751 N 366.569 1.04691 -1.17803 0
M  V30 3752 C 367.499 2.14494 -0.92275 0
M  V30 3753 C 368.48 1.69546 0.137179 0
M  V30 3754 O 369.665 1.94195 -0.0141108 0
M  V30 3755 C 366.795 3.44491 -0.440803 0
M  V30 3756 C 365.749 4.03031 -1.4405 0
M  V30 3757 C 365.075 5.28432 -0.81631 0
M  V30 3758 C 366.375 4.39932 -2.81527 0
M  V30 3759 H 368.069 2.36107 -1.84103 0
M  V30 3760 H 365.615 1.1347 -0.886599 0
M  V30 3761 H 367.568 4.2066 -0.249602 0
M  V30 3762 H 366.292 3.22546 0.513025 0
M  V30 3763 H 364.951 3.28937 -1.61853 0
M  V30 3764 H 364.599 5.02792 0.144511 0
M  V30 3765 H 364.299 5.68559 -1.48371 0
M  V30 3766 H 365.823 6.07284 -0.635496 0
M  V30 3767 H 367.237 5.07113 -2.67412 0
M  V30 3768 H 365.634 4.9109 -3.44892 0
M  V30 3769 H 366.704 3.50045 -3.35554 0
M  V30 3770 N 368.047 0.979072 1.23499 0
M  V30 3771 C 369.272 0.664845 1.96455 0
M  V30 3772 C 369.697 -0.761287 1.72006 0
M  V30 3773 O 369.055 -1.51837 0.990713 0
M  V30 3774 C 369.103 0.959479 3.47601 0
M  V30 3775 O 368.207 0.0508168 4.12369 0
M  V30 3776 H 367.548 0.250185 0.615064 0
M  V30 3777 H 370.078 1.31231 1.5697 0
M  V30 3778 H 370.088 0.895642 3.98048 0
M  V30 3779 H 368.763 1.99876 3.64723 0
M  V30 3780 H 367.34 0.16895 3.72517 0
M  V30 3781 N 369.525 -1.3858 0.750561 0
M  V30 3782 C 370.773 -1.99789 0.30477 0
M  V30 3783 C 371.094 -1.59874 -1.11649 0
M  V30 3784 O 370.364 -0.85417 -1.76297 0
M  V30 3785 H 368.944 -0.738902 0.109694 0
M  V30 3786 H 371.606 -1.69391 0.963983 0
M  V30 3787 H 370.702 -3.09952 0.365499 0
M  V30 3788 N 371.003 -0.499398 -1.49478 0
M  V30 3789 C 372.252 0.0475259 -2.01644 0
M  V30 3790 C 372.565 1.38195 -1.38425 0
M  V30 3791 O 373.771 2.01547 -1.8191 0
M  V30 3792 C 372.227 0.135164 -3.59646 0
M  V30 3793 C 371.835 -1.19252 -4.31837 0
M  V30 3794 C 373.579 0.632538 -4.19761 0
M  V30 3795 C 371.486 -1.06713 -5.81693 0
M  V30 3796 H 370.416 0.0215349 -0.753692 0
M  V30 3797 H 373.067 -0.638577 -1.7203 0
M  V30 3798 H 371.449 0.885681 -3.85969 0
M  V30 3799 H 372.623 -1.9562 -4.17216 0
M  V30 3800 H 370.938 -1.62321 -3.83459 0
M  V30 3801 H 373.535 0.743833 -5.29501 0
M  V30 3802 H 373.878 1.63098 -3.83021 0
M  V30 3803 H 374.411 -0.0613987 -3.97753 0
M  V30 3804 H 371.15 -2.03979 -6.22955 0
M  V30 3805 H 370.67 -0.344307 -5.98811 0
M  V30 3806 H 372.349 -0.745208 -6.42694 0
M  V30 3807 N 372.481 1.55866 -0.233164 0
M  V30 3808 C 373.711 2.02704 0.399325 0
M  V30 3809 C 374.119 1.11204 1.53069 0
M  V30 3810 O 373.462 0.116182 1.83332 0
M  V30 3811 C 373.524 3.45844 0.981429 0
M  V30 3812 C 373.188 4.56997 -0.0159561 0
M  V30 3813 C 374.185 5.13384 -0.820552 0
M  V30 3814 C 371.87 5.0211 -0.138072 0
M  V30 3815 C 373.864 6.13365 -1.73386 0
M  V30 3816 C 371.551 6.01926 -1.0549 0
M  V30 3817 C 372.549 6.57431 -1.85132 0
M  V30 3818 O 372.237 7.55302 -2.75272 0
M  V30 3819 H 371.969 0.668459 0.100692 0
M  V30 3820 H 374.523 2.02387 -0.35052 0
M  V30 3821 H 372.753 3.43267 1.78058 0
M  V30 3822 H 374.442 3.76262 1.52255 0
M  V30 3823 H 375.208 4.79372 -0.736721 0
M  V30 3824 H 371.087 4.5858 0.471737 0
M  V30 3825 H 374.631 6.56614 -2.35592 0
M  V30 3826 H 370.528 6.35359 -1.1397 0
M  V30 3827 H 371.296 7.72867 -2.69477 0
M  V30 3828 N 373.959 -0.0401083 1.57549 0
M  V30 3829 C 375.37 -0.588097 1.77196 0
M  V30 3830 C 375.721 -1.76209 0.862832 0
M  V30 3831 O 374.846 -2.16331 0.0548389 0
M  V30 3832 C 375.441 -1.07363 3.21339 0
M  V30 3833 C 374 -1.56723 3.42221 0
M  V30 3834 C 373.147 -0.50041 2.72747 0
M  V30 3835 H 376.098 0.186119 1.57605 0
M  V30 3836 H 376.119 -1.94143 3.27244 0
M  V30 3837 H 375.631 -0.218975 3.87482 0
M  V30 3838 H 373.732 -2.4441 2.81237 0
M  V30 3839 H 373.845 -1.62234 4.50796 0
M  V30 3840 H 372.209 -0.952894 2.36203 0
M  V30 3841 H 372.992 0.344599 3.41566 0
M  V30 3842 N 375.437 -1.54477 -0.31217 0
M  V30 3843 C 376.367 -1.87652 -1.38957 0
M  V30 3844 C 377.348 -0.734358 -1.53431 0
M  V30 3845 O 378.533 -0.98911 -1.67123 0
M  V30 3846 C 375.663 -2.11396 -2.75552 0
M  V30 3847 C 374.617 -3.27243 -2.75855 0
M  V30 3848 C 373.943 -3.36382 -4.15633 0
M  V30 3849 C 375.243 -4.64622 -2.38587 0
M  V30 3850 H 376.937 -2.77887 -1.11442 0
M  V30 3851 H 374.483 -1.33707 -0.534655 0
M  V30 3852 H 376.436 -2.33189 -3.51 0
M  V30 3853 H 375.16 -1.17921 -3.04569 0
M  V30 3854 H 373.819 -3.05356 -2.02863 0
M  V30 3855 H 373.467 -2.40445 -4.41809 0
M  V30 3856 H 373.167 -4.14249 -4.1674 0
M  V30 3857 H 374.691 -3.60422 -4.92877 0
M  V30 3858 H 376.105 -4.86219 -3.03749 0
M  V30 3859 H 374.502 -5.45121 -2.50925 0
M  V30 3860 H 375.572 -4.66097 -1.33723 0
M  V30 3861 N 376.915 0.57481 -1.46744 0
M  V30 3862 C 378.143 1.35856 -1.56047 0
M  V30 3863 C 378.558 1.87691 -0.204365 0
M  V30 3864 O 377.915 1.64049 0.79963 0
M  V30 3865 C 377.966 2.54066 -2.57163 0
M  V30 3866 O 377.687 2.04377 -3.87507 0
M  V30 3867 C 379.188 3.46514 -2.76483 0
M  V30 3868 H 376.408 0.414754 -0.527466 0
M  V30 3869 H 378.952 0.698035 -1.92218 0
M  V30 3870 H 377.107 3.16092 -2.23974 0
M  V30 3871 H 377.521 2.81419 -4.4261 0
M  V30 3872 H 378.995 4.25919 -3.51137 0
M  V30 3873 H 379.472 3.98951 -1.83671 0
M  V30 3874 H 380.078 2.90318 -3.10799 0
M  V30 3875 N 378.394 1.34581 0.820102 0
M  V30 3876 C 379.344 1.22943 1.92013 0
M  V30 3877 C 380.328 0.127802 1.60392 0
M  V30 3878 O 381.52 0.357737 1.73347 0
M  V30 3879 C 378.649 0.989938 3.28717 0
M  V30 3880 C 377.735 2.13486 3.66449 0
M  V30 3881 N 378.126 3.38625 3.75722 0
M  V30 3882 C 376.424 2.04573 3.96315 0
M  V30 3883 C 377.125 4.13832 4.08801 0
M  V30 3884 N 376.101 3.42451 4.22171 0
M  V30 3885 H 379.903 2.17771 1.97365 0
M  V30 3886 H 377.417 1.2686 1.01392 0
M  V30 3887 H 379.414 0.887462 4.07345 0
M  V30 3888 H 378.074 0.0503691 3.24661 0
M  V30 3889 H 379.085 3.73143 3.59144 0
M  V30 3890 H 375.762 1.1839 4.00362 0
M  V30 3891 H 377.152 5.21909 4.23156 0
M  V30 3892 N 379.872 -1.04064 1.18357 0
M  V30 3893 C 381.112 -1.78829 0.989921 0
M  V30 3894 C 381.476 -1.86106 -0.472095 0
M  V30 3895 O 382.677 -2.57076 -0.785187 0
M  V30 3896 C 380.948 -3.1823 1.6268 0
M  V30 3897 S 382.507 -4.09332 1.58091 0
M  V30 3898 H 379.325 -0.615754 0.355482 0
M  V30 3899 H 381.927 -1.24778 1.50501 0
M  V30 3900 H 380.631 -3.10543 2.68311 0
M  V30 3901 H 380.162 -3.77357 1.112 0
M  V30 3902 H 382.177 -4.92598 0.596817 0
M  V30 3903 N 381.35 -0.985608 -1.22978 0
M  V30 3904 C 382.578 -0.675582 -1.95559 0
M  V30 3905 C 382.993 0.758413 -1.72897 0
M  V30 3906 O 382.35 1.51094 -1.02357 0
M  V30 3907 C 382.401 -0.96293 -3.48439 0
M  V30 3908 O 382.122 -2.34057 -3.70336 0
M  V30 3909 C 383.623 -0.669585 -4.38214 0
M  V30 3910 H 380.843 -0.250523 -0.622478 0
M  V30 3911 H 383.387 -1.3184 -1.56328 0
M  V30 3912 H 381.542 -0.366033 -3.85667 0
M  V30 3913 H 381.956 -2.43424 -4.64591 0
M  V30 3914 H 383.43 -0.920967 -5.44263 0
M  V30 3915 H 383.907 0.396383 -4.37408 0
M  V30 3916 H 384.513 -1.2472 -4.06602 0
M  V30 3917 N 382.828 1.3818 -0.7579 0
M  V30 3918 C 383.758 2.33027 -0.148597 0
M  V30 3919 C 384.739 1.55085 0.69875 0
M  V30 3920 O 385.924 1.83384 0.639053 0
M  V30 3921 C 383.054 3.3928 0.742034 0
M  V30 3922 C 382.008 4.28 -0.00291946 0
M  V30 3923 C 381.334 5.25146 1.00625 0
M  V30 3924 C 382.634 5.08938 -1.17385 0
M  V30 3925 H 384.328 2.84231 -0.940909 0
M  V30 3926 H 381.874 1.36659 -0.453908 0
M  V30 3927 H 383.827 4.046 1.17799 0
M  V30 3928 H 382.551 2.86569 1.56671 0
M  V30 3929 H 381.21 3.64192 -0.419504 0
M  V30 3930 H 380.858 4.68721 1.8251 0
M  V30 3931 H 380.558 5.85361 0.512428 0
M  V30 3932 H 382.082 5.93342 1.44143 0
M  V30 3933 H 383.496 5.67474 -0.815224 0
M  V30 3934 H 381.893 5.7841 -1.59882 0
M  V30 3935 H 382.963 4.42424 -1.98468 0
M  V30 3936 N 384.306 0.507319 1.49211 0
M  V30 3937 C 385.238 -0.304532 2.27168 0
M  V30 3938 C 386.251 -0.924956 1.33972 0
M  V30 3939 O 387.44 -0.807227 1.59205 0
M  V30 3940 C 384.54 -1.44431 3.06583 0
M  V30 3941 C 383.713 -0.930026 4.27398 0
M  V30 3942 C 382.772 -1.94817 4.88807 0
M  V30 3943 O 381.798 -1.51418 5.4869 0
M  V30 3944 N 383 -3.279 4.79022 0
M  V30 3945 H 385.765 0.36395 2.97482 0
M  V30 3946 H 383.326 0.340249 1.58284 0
M  V30 3947 H 385.318 -2.12311 3.44537 0
M  V30 3948 H 383.888 -2.01684 2.38835 0
M  V30 3949 H 383.108 -0.0759244 3.94127 0
M  V30 3950 H 384.396 -0.564932 5.05654 0
M  V30 3951 H 383.794 -3.65843 4.3148 0
M  V30 3952 H 382.351 -3.91476 5.21142 0
M  V30 3953 N 385.784 -1.5574 0.241426 0
M  V30 3954 C 386.747 -2.19877 -0.647063 0
M  V30 3955 C 387.747 -1.16642 -1.10686 0
M  V30 3956 O 388.937 -1.41757 -1.01245 0
M  V30 3957 C 386.069 -2.83797 -1.88871 0
M  V30 3958 H 387.262 -2.99772 -0.087574 0
M  V30 3959 H 384.815 -1.56298 -0.00813574 0
M  V30 3960 H 385.55 -2.07824 -2.48957 0
M  V30 3961 H 385.335 -3.59414 -1.56728 0
M  V30 3962 H 386.825 -3.32898 -2.52129 0
M  V30 3963 N 387.262 0.0317525 -1.57568 0
M  V30 3964 C 388.508 0.724175 -1.8943 0
M  V30 3965 C 388.841 1.75149 -0.838836 0
M  V30 3966 O 388.116 1.93948 0.146422 0
M  V30 3967 C 388.399 1.39615 -3.31933 0
M  V30 3968 C 388.252 0.382537 -4.4817 0
M  V30 3969 C 389.571 2.33084 -3.73309 0
M  V30 3970 H 386.69 0.261797 -0.688935 0
M  V30 3971 H 389.332 -0.013017 -1.89996 0
M  V30 3972 H 387.482 2.02451 -3.31581 0
M  V30 3973 H 389.154 -0.243689 -4.60656 0
M  V30 3974 H 387.397 -0.29844 -4.32772 0
M  V30 3975 H 388.068 0.891145 -5.44759 0
M  V30 3976 H 390.544 1.80295 -3.7501 0
M  V30 3977 H 389.42 2.77084 -4.73831 0
M  V30 3978 H 389.681 3.19643 -3.05419 0
M  V30 3979 N 388.74 1.54641 0.303973 0
M  V30 3980 C 389.67 1.88386 1.3796 0
M  V30 3981 C 390.651 0.742485 1.5304 0
M  V30 3982 O 391.836 0.997959 1.66597 0
M  V30 3983 C 388.966 2.12854 2.74427 0
M  V30 3984 C 387.92 3.28702 2.74115 0
M  V30 3985 C 387.246 3.38582 4.13844 0
M  V30 3986 C 388.546 4.65881 2.3612 0
M  V30 3987 H 390.24 2.78474 1.09966 0
M  V30 3988 H 387.786 1.33988 0.527556 0
M  V30 3989 H 389.739 2.35047 3.49758 0
M  V30 3990 H 388.463 1.19535 3.03939 0
M  V30 3991 H 387.122 3.06428 2.0124 0
M  V30 3992 H 386.77 2.42784 4.40528 0
M  V30 3993 H 386.47 4.16453 4.14537 0
M  V30 3994 H 387.994 3.63031 4.90959 0
M  V30 3995 H 389.408 4.87823 3.01167 0
M  V30 3996 H 387.805 5.46444 2.48031 0
M  V30 3997 H 388.875 4.66799 1.3125 0
M  V30 3998 N 390.218 -0.567019 1.47046 0
M  V30 3999 C 391.443 -1.3551 1.57009 0
M  V30 4000 C 391.868 -1.86841 0.217259 0
M  V30 4001 O 391.226 -1.62435 -0.805268 0
M  V30 4002 C 391.274 -2.50777 2.5912 0
M  V30 4003 O 390.378 -3.52706 2.13711 0
M  V30 4004 H 389.719 -0.402919 0.52778 0
M  V30 4005 H 392.249 -0.686241 1.92748 0
M  V30 4006 H 392.259 -2.97481 2.79229 0
M  V30 4007 H 390.934 -2.12771 3.57353 0
M  V30 4008 H 389.511 -3.12374 2.03659 0
M  V30 4009 N 391.696 -1.35014 -0.812953 0
M  V30 4010 C 392.973 -1.18502 -1.55617 0
M  V30 4011 C 393.353 0.238421 -2.09749 0
M  V30 4012 O 392.701 1.2411 -1.91857 0
M  V30 4013 C 392.911 -2.24783 -2.66971 0
M  V30 4014 C 394.259 -2.60268 -3.35478 0
M  V30 4015 O 395.283 -2.23648 -2.77236 0
M  V30 4016 O 394.142 -3.2321 -4.40678 0
M  V30 4017 H 391.236 -0.459984 -0.687272 0
M  V30 4018 H 393.782 -1.46677 -0.853464 0
M  V30 4019 H 392.554 -3.20284 -2.24798 0
M  V30 4020 H 392.177 -1.97841 -3.44884 0
M  V30 4021 N 393.175 1.03435 -1.18907 0
M  V30 4022 C 394.452 1.73778 -0.89781 0
M  V30 4023 C 394.832 2.02458 0.597832 0
M  V30 4024 O 394.18 1.67482 1.55441 0
M  V30 4025 C 394.39 3.01845 -1.75187 0
M  V30 4026 C 395.738 3.7546 -1.9828 0
M  V30 4027 O 396.762 3.11759 -1.72293 0
M  V30 4028 O 395.621 4.89966 -2.42065 0
M  V30 4029 H 392.715 0.75651 -0.334098 0
M  V30 4030 H 395.261 1.09444 -1.29693 0
M  V30 4031 H 394.033 2.76836 -2.76545 0
M  V30 4032 H 393.656 3.73919 -1.35167 0
M  V30 4033 N 394.653 0.992116 1.22453 0
M  V30 4034 C 395.901 0.666215 1.90804 0
M  V30 4035 C 396.222 -0.804152 1.77647 0
M  V30 4036 O 395.492 -1.57629 1.16318 0
M  V30 4037 H 394.072 0.243423 0.706225 0
M  V30 4038 H 396.734 1.25845 1.48825 0
M  V30 4039 H 395.83 0.928069 2.97982 0
M  V30 4040 N 396.131 -1.37776 0.765217 0
M  V30 4041 C 397.064 -2.28008 0.0935025 0
M  V30 4042 C 398.042 -1.45985 -0.716047 0
M  V30 4043 O 399.226 -1.75331 -0.692203 0
M  V30 4044 C 396.353 -3.27228 -0.874052 0
M  V30 4045 C 395.399 -4.26239 -0.149307 0
M  V30 4046 S 396.232 -5.22827 1.15809 0
M  V30 4047 C 397.388 -6.256 0.193906 0
M  V30 4048 H 397.621 -2.84631 0.858637 0
M  V30 4049 H 395.154 -1.43952 0.558313 0
M  V30 4050 H 397.112 -3.84902 -1.42691 0
M  V30 4051 H 395.773 -2.69565 -1.61225 0
M  V30 4052 H 394.966 -4.96213 -0.88254 0
M  V30 4053 H 394.568 -3.7252 0.332366 0
M  V30 4054 H 396.86 -6.74508 -0.636011 0
M  V30 4055 H 397.803 -7.02838 0.861638 0
M  V30 4056 H 398.211 -5.64173 -0.191975 0
M  V30 4057 N 397.609 -0.515225 -1.4894 0
M  V30 4058 C 398.857 0.0241671 -2.02086 0
M  V30 4059 C 399.178 1.3616 -1.3959 0
M  V30 4060 O 398.448 1.87841 -0.556121 0
M  V30 4061 H 397.028 0.0119203 -0.746905 0
M  V30 4062 H 399.69 -0.675702 -1.82812 0
M  V30 4063 H 398.786 0.143385 -3.1177 0
M  V30 4064 N 399.087 1.5561 -0.249682 0
M  V30 4065 C 400.336 1.98187 0.37479 0
M  V30 4066 C 400.649 1.14111 1.58865 0
M  V30 4067 O 401.855 1.46714 2.28445 0
M  V30 4068 C 400.311 3.52661 0.718192 0
M  V30 4069 C 399.919 4.45481 -0.474428 0
M  V30 4070 C 401.663 4.03888 1.3067 0
M  V30 4071 C 399.57 5.91303 -0.107026 0
M  V30 4072 H 398.5 0.740159 0.143808 0
M  V30 4073 H 401.151 1.80125 -0.350336 0
M  V30 4074 H 399.533 3.66429 1.50152 0
M  V30 4075 H 400.707 4.43473 -1.25172 0
M  V30 4076 H 399.022 4.04751 -0.978052 0
M  V30 4077 H 401.619 5.10358 1.59496 0
M  V30 4078 H 401.962 3.51401 2.23211 0
M  V30 4079 H 402.495 3.93457 0.586211 0
M  V30 4080 H 399.234 6.47833 -0.999642 0
M  V30 4081 H 398.754 5.9644 0.634013 0
M  V30 4082 H 400.433 6.46258 0.309807 0
M  V30 4083 N 400.565 -0.0233959 1.57583 0
M  V30 4084 C 401.497 -1.04994 2.03737 0
M  V30 4085 C 402.51 -1.32125 0.951152 0
M  V30 4086 O 403.699 -1.29512 1.22837 0
M  V30 4087 C 400.799 -2.39026 2.40249 0
M  V30 4088 C 399.972 -2.31171 3.7132 0
M  V30 4089 C 399.031 -3.47698 3.94959 0
M  V30 4090 O 398.057 -3.26937 4.65941 0
M  V30 4091 N 399.259 -4.6976 3.41037 0
M  V30 4092 H 402.024 -0.656507 2.92421 0
M  V30 4093 H 399.585 -0.211235 1.60516 0
M  V30 4094 H 401.577 -3.15712 2.53196 0
M  V30 4095 H 400.147 -2.70194 1.57207 0
M  V30 4096 H 399.367 -1.39547 3.68674 0
M  V30 4097 H 400.655 -2.23071 4.57293 0
M  V30 4098 H 400.053 -4.89528 2.83512 0
M  V30 4099 H 398.61 -5.43791 3.59353 0
M  V30 4100 N 402.043 -1.548 -0.295768 0
M  V30 4101 C 403.006 -1.85363 -1.34808 0
M  V30 4102 C 404.006 -0.726817 -1.43436 0
M  V30 4103 O 405.196 -0.995088 -1.42981 0
M  V30 4104 C 402.328 -2.03859 -2.73229 0
M  V30 4105 H 403.521 -2.7941 -1.08949 0
M  V30 4106 H 401.074 -1.46942 -0.532702 0
M  V30 4107 H 401.809 -1.12117 -3.04303 0
M  V30 4108 H 401.594 -2.8588 -2.68356 0
M  V30 4109 H 403.084 -2.28857 -3.49305 0
M  V30 4110 N 403.521 0.559213 -1.47345 0
M  V30 4111 C 404.769 1.31388 -1.53563 0
M  V30 4112 C 405.09 1.93985 -0.198678 0
M  V30 4113 O 404.36 1.79825 0.777167 0
M  V30 4114 H 402.94 0.487901 -0.565652 0
M  V30 4115 H 405.602 0.65315 -1.8363 0
M  V30 4116 H 404.698 2.10844 -2.30111 0
M  V30 4117 N 404.999 1.35443 0.805782 0
M  V30 4118 C 405.909 1.30546 1.94923 0
M  V30 4119 C 406.925 0.210233 1.72725 0
M  V30 4120 O 408.101 0.43975 1.9654 0
M  V30 4121 C 405.166 1.07782 3.29521 0
M  V30 4122 C 404.227 2.26625 3.64609 0
M  V30 4123 C 403.46 2.04938 4.92784 0
M  V30 4124 O 403.683 1.01624 5.61274 0
M  V30 4125 O 402.617 2.9232 5.26149 0
M  V30 4126 H 406.443 2.26779 2.02002 0
M  V30 4127 H 404.028 1.15823 0.943682 0
M  V30 4128 H 405.91 0.969392 4.10098 0
M  V30 4129 H 404.585 0.146003 3.23371 0
M  V30 4130 H 403.492 2.43033 2.84404 0
M  V30 4131 H 404.825 3.18257 3.75464 0
M  V30 4132 N 406.477 -1.02803 1.19454 0
M  V30 4133 C 407.888 -1.57667 0.999899 0
M  V30 4134 C 408.239 -1.91041 -0.446956 0
M  V30 4135 O 407.364 -1.70978 -1.32648 0
M  V30 4136 C 407.959 -2.86477 1.80877 0
M  V30 4137 C 406.518 -3.37911 1.65811 0
M  V30 4138 C 405.665 -2.11343 1.79526 0
M  V30 4139 H 408.616 -0.853214 1.33813 0
M  V30 4140 H 408.637 -3.57408 1.30536 0
M  V30 4141 H 408.149 -2.62155 2.86175 0
M  V30 4142 H 406.25 -3.67218 0.63102 0
M  V30 4143 H 406.363 -4.10885 2.46395 0
M  V30 4144 H 404.727 -2.23254 1.22596 0
M  V30 4145 H 405.51 -1.89461 2.86285 0
M  V30 4146 N 407.956 -0.998596 -1.21925 0
M  V30 4147 C 409.233 -0.593401 -1.86382 0
M  V30 4148 C 409.613 0.92916 -1.89552 0
M  V30 4149 O 408.961 1.81347 -1.39017 0
M  V30 4150 C 409.171 -1.22039 -3.26967 0
M  V30 4151 C 410.519 -1.32449 -4.03413 0
M  V30 4152 O 411.543 -1.17522 -3.36254 0
M  V30 4153 O 410.402 -1.56395 -5.23644 0
M  V30 4154 H 407.496 -0.202385 -0.801854 0
M  V30 4155 H 410.042 -1.09484 -1.29659 0
M  V30 4156 H 408.814 -2.26158 -3.19325 0
M  V30 4157 H 408.437 -0.704906 -3.91301 0
M  V30 4158 N 409.434 1.37368 -0.772513 0
M  V30 4159 C 410.845 1.8231 -0.402493 0
M  V30 4160 C 411.196 1.6436 1.07146 0
M  V30 4161 O 410.321 1.15514 1.82991 0
M  V30 4162 C 410.916 3.30979 -0.723776 0
M  V30 4163 C 409.475 3.74195 -0.406802 0
M  V30 4164 C 408.622 2.59885 -0.967218 0
M  V30 4165 H 411.573 1.25829 -0.967099 0
M  V30 4166 H 411.594 3.80499 -0.00870832 0
M  V30 4167 H 411.106 3.44011 -1.7966 0
M  V30 4168 H 409.207 3.66732 0.658673 0
M  V30 4169 H 409.32 4.7027 -0.915588 0
M  V30 4170 H 407.684 2.51674 -0.391416 0
M  V30 4171 H 408.467 2.7571 -2.04546 0
M  V30 4172 N 410.912 0.523116 1.48665 0
M  V30 4173 C 412.323 0.0808997 1.86525 0
M  V30 4174 C 412.674 -1.33975 1.43336 0
M  V30 4175 O 411.799 -2.00221 0.821009 0
M  V30 4176 C 412.394 0.140037 3.3851 0
M  V30 4177 C 410.953 -0.246948 3.75589 0
M  V30 4178 C 410.1 0.502845 2.72703 0
M  V30 4179 H 413.051 0.734736 1.40667 0
M  V30 4180 H 413.072 -0.649945 3.74908 0
M  V30 4181 H 412.584 1.17412 3.69914 0
M  V30 4182 H 410.685 -1.28343 3.49798 0
M  V30 4183 H 410.798 0.0878859 4.79019 0
M  V30 4184 H 409.162 -0.0500581 2.54651 0
M  V30 4185 H 409.945 1.53743 3.0695 0
M  V30 4186 N 412.39 -1.55475 0.257931 0
M  V30 4187 C 413.3 -2.2549 -0.647425 0
M  V30 4188 C 414.316 -1.2748 -1.18427 0
M  V30 4189 O 415.492 -1.6038 -1.2182 0
M  V30 4190 C 412.557 -2.94916 -1.82278 0
M  V30 4191 C 411.618 -4.08363 -1.32432 0
M  V30 4192 C 410.851 -4.74469 -2.44366 0
M  V30 4193 O 411.074 -4.39701 -3.63344 0
M  V30 4194 O 410.008 -5.62763 -2.13497 0
M  V30 4195 H 413.834 -3.03593 -0.0807707 0
M  V30 4196 H 411.419 -1.49377 0.0259962 0
M  V30 4197 H 413.301 -3.38606 -2.50846 0
M  V30 4198 H 411.976 -2.19744 -2.37685 0
M  V30 4199 H 410.883 -3.69166 -0.605605 0
M  V30 4200 H 412.216 -4.85385 -0.816211 0
M  V30 4201 N 413.868 0.0150385 -1.57593 0
M  V30 4202 C 414.778 1.02791 -2.10882 0
M  V30 4203 C 415.794 1.38702 -1.0506 0
M  V30 4204 O 416.97 1.47739 -1.36877 0
M  V30 4205 C 414.035 2.30568 -2.58919 0
M  V30 4206 C 413.096 2.01108 -3.79281 0
M  V30 4207 C 412.329 3.22794 -4.25018 0
M  V30 4208 O 412.552 4.33959 -3.70183 0
M  V30 4209 O 411.486 3.07672 -5.17322 0
M  V30 4210 H 415.312 0.604973 -2.97613 0
M  V30 4211 H 412.897 0.23292 -1.47573 0
M  V30 4212 H 414.779 3.05662 -2.90084 0
M  V30 4213 H 413.454 2.72129 -1.75293 0
M  V30 4214 H 412.361 1.23537 -3.53114 0
M  V30 4215 H 413.694 1.64394 -4.63935 0
M  V30 4216 N 415.346 1.54954 0.287554 0
M  V30 4217 C 416.757 1.65732 0.859634 0
M  V30 4218 C 417.108 0.574767 1.87592 0
M  V30 4219 O 416.233 -0.286299 2.14498 0
M  V30 4220 C 416.828 3.00438 1.56597 0
M  V30 4221 C 415.387 3.13292 2.08627 0
M  V30 4222 C 414.534 2.61473 0.923416 0
M  V30 4223 H 417.485 1.5857 0.0642338 0
M  V30 4224 H 417.506 2.92613 2.43224 0
M  V30 4225 H 417.018 3.79207 0.826053 0
M  V30 4226 H 415.119 2.39268 2.85625 0
M  V30 4227 H 415.232 4.19647 2.31157 0
M  V30 4228 H 413.596 2.18264 1.31275 0
M  V30 4229 H 414.379 3.42733 0.197241 0
M  V30 4230 N 416.824 -0.551391 1.4764 0
M  V30 4231 C 417.754 -1.66757 1.63445 0
M  V30 4232 C 418.735 -1.63077 0.483742 0
M  V30 4233 O 419.92 -1.80607 0.71377 0
M  V30 4234 C 417.05 -3.05387 1.65396 0
M  V30 4235 C 416.004 -3.23918 2.79752 0
M  V30 4236 C 415.33 -4.63393 2.66779 0
M  V30 4237 C 416.63 -3.08735 4.21284 0
M  V30 4238 H 418.324 -1.53786 2.56886 0
M  V30 4239 H 415.87 -0.738415 1.23626 0
M  V30 4240 H 417.823 -3.83325 1.75043 0
M  V30 4241 H 416.547 -3.19332 0.685195 0
M  V30 4242 H 415.206 -2.48391 2.69625 0
M  V30 4243 H 414.854 -4.74144 1.67918 0
M  V30 4244 H 414.554 -4.7674 3.43501 0
M  V30 4245 H 416.078 -5.43458 2.78364 0
M  V30 4246 H 417.492 -3.76484 4.32357 0
M  V30 4247 H 415.889 -3.33588 4.98838 0
M  V30 4248 H 416.959 -2.0541 4.39243 0
M  V30 4249 N 418.302 -1.35869 -0.798587 0
M  V30 4250 C 419.53 -1.32722 -1.58722 0
M  V30 4251 C 419.945 0.0935631 -1.88568 0
M  V30 4252 O 419.302 1.04784 -1.49421 0
M  V30 4253 C 419.353 -2.13974 -2.91371 0
M  V30 4254 O 419.074 -3.50514 -2.62815 0
M  V30 4255 C 420.575 -2.18504 -3.85708 0
M  V30 4256 H 417.795 -0.45562 -0.492596 0
M  V30 4257 H 420.339 -1.78837 -0.991843 0
M  V30 4258 H 418.494 -1.71438 -3.47402 0
M  V30 4259 H 418.908 -3.92806 -3.47568 0
M  V30 4260 H 420.382 -2.79732 -4.75872 0
M  V30 4261 H 420.859 -1.18597 -4.22885 0
M  V30 4262 H 421.465 -2.61236 -3.35612 0
M  V30 4263 N 419.78 1.02168 -1.19998 0
M  V30 4264 C 421.005 1.79833 -1.03319 0
M  V30 4265 C 421.43 1.83504 0.413281 0
M  V30 4266 O 420.788 1.26635 1.29743 0
M  V30 4267 C 420.836 3.22396 -1.61533 0
M  V30 4268 O 419.94 4.03555 -0.849519 0
M  V30 4269 H 419.281 0.554872 -0.364709 0
M  V30 4270 H 421.811 1.28542 -1.59179 0
M  V30 4271 H 421.821 3.73124 -1.65054 0
M  V30 4272 H 420.496 3.19039 -2.66809 0
M  V30 4273 H 419.073 3.62169 -0.888129 0
M  V30 4274 N 421.258 1.00505 1.21394 0
M  V30 4275 C 422.19 0.52372 2.23136 0
M  V30 4276 C 423.203 -0.387714 1.58116 0
M  V30 4277 O 424.392 -0.187905 1.77508 0
M  V30 4278 C 421.492 -0.258885 3.3791 0
M  V30 4279 C 420.665 0.651634 4.32519 0
M  V30 4280 C 419.724 -0.0813705 5.26137 0
M  V30 4281 O 418.75 0.537295 5.66658 0
M  V30 4282 N 419.952 -1.35992 5.64346 0
M  V30 4283 H 422.717 1.39865 2.65062 0
M  V30 4284 H 420.278 0.881196 1.35818 0
M  V30 4285 H 422.27 -0.758208 3.97534 0
M  V30 4286 H 420.84 -1.035 2.94968 0
M  V30 4287 H 420.06 1.33145 3.71034 0
M  V30 4288 H 421.348 1.27129 4.92662 0
M  V30 4289 H 420.746 -1.88368 5.33417 0
M  V30 4290 H 419.303 -1.8042 6.26332 0
M  V30 4291 N 422.737 -1.36956 0.779787 0
M  V30 4292 C 423.7 -2.2851 0.177662 0
M  V30 4293 C 424.7 -1.48393 -0.619377 0
M  V30 4294 O 425.89 -1.68505 -0.441785 0
M  V30 4295 C 423.022 -3.32428 -0.755279 0
M  V30 4296 H 424.215 -2.83269 0.984823 0
M  V30 4297 H 421.768 -1.46358 0.548544 0
M  V30 4298 H 422.503 -2.82808 -1.58714 0
M  V30 4299 H 422.288 -3.91659 -0.185817 0
M  V30 4300 H 423.778 -4.00824 -1.17174 0
M  V30 4301 N 424.215 -0.530993 -1.48385 0
M  V30 4302 C 425.44 0.000729535 -2.074 0
M  V30 4303 C 425.865 1.27298 -1.3848 0
M  V30 4304 O 425.223 1.75599 -0.451081 0
M  V30 4305 C 425.271 0.206697 -3.60007 0
M  V30 4306 O 424.375 1.27514 -3.92191 0
M  V30 4307 H 423.716 -0.039583 -0.662819 0
M  V30 4308 H 426.246 -0.739194 -1.9078 0
M  V30 4309 H 426.256 0.42904 -4.05738 0
M  V30 4310 H 424.931 -0.722675 -4.09573 0
M  V30 4311 H 423.508 1.03537 -3.58238 0
M  V30 4312 N 425.693 1.55336 -0.266172 0
M  V30 4313 C 426.939 1.99692 0.353681 0
M  V30 4314 C 427.272 1.1543 1.56172 0
M  V30 4315 O 426.547 0.222218 1.93226 0
M  V30 4316 C 426.83 3.52316 0.74466 0
M  V30 4317 C 426.683 4.47337 -0.470101 0
M  V30 4318 C 428.002 4.10588 1.58447 0
M  V30 4319 H 425.121 0.725961 0.12708 0
M  V30 4320 H 427.763 1.86336 -0.371333 0
M  V30 4321 H 425.913 3.63829 1.36239 0
M  V30 4322 H 427.585 4.4778 -1.10864 0
M  V30 4323 H 425.828 4.19364 -1.10978 0
M  V30 4324 H 426.499 5.51788 -0.15291 0
M  V30 4325 H 428.975 4.02297 1.06286 0
M  V30 4326 H 427.851 5.17607 1.82686 0
M  V30 4327 H 428.112 3.60253 2.56262 0
M  V30 4328 N 427.171 -0.0066808 1.57599 0
M  V30 4329 C 428.582 -0.550379 1.78403 0
M  V30 4330 C 428.933 -1.74339 0.900014 0
M  V30 4331 O 428.058 -2.16166 0.100713 0
M  V30 4332 C 428.653 -1.00523 3.23544 0
M  V30 4333 C 427.212 -1.49428 3.45468 0
M  V30 4334 C 426.359 -0.442444 2.73748 0
M  V30 4335 H 429.31 0.219508 1.57175 0
M  V30 4336 H 429.331 -1.87157 3.31289 0
M  V30 4337 H 428.843 -0.136735 3.87859 0
M  V30 4338 H 426.944 -2.3839 2.86358 0
M  V30 4339 H 427.057 -1.52635 4.54136 0
M  V30 4340 H 425.421 -0.902578 2.38171 0
M  V30 4341 H 426.204 0.416973 3.40758 0
M  V30 4342 N 428.649 -1.55105 -0.279332 0
M  V30 4343 C 430.06 -1.66186 -0.850832 0
M  V30 4344 C 430.411 -0.584707 -1.87285 0
M  V30 4345 O 429.536 0.274919 -2.14647 0
M  V30 4346 C 430.131 -3.01264 -1.55001 0
M  V30 4347 C 428.69 -3.14394 -2.06963 0
M  V30 4348 C 427.837 -2.61959 -0.909536 0
M  V30 4349 H 430.788 -1.58602 -0.0558235 0
M  V30 4350 H 430.809 -2.93899 -2.41669 0
M  V30 4351 H 430.321 -3.7964 -0.805931 0
M  V30 4352 H 428.422 -2.4078 -2.84352 0
M  V30 4353 H 428.535 -4.20867 -2.28928 0
M  V30 4354 H 426.899 -2.18957 -1.30116 0
M  V30 4355 H 427.682 -3.42833 -0.179062 0
M  V30 4356 N 430.127 0.543554 -1.4793 0
M  V30 4357 C 431.077 1.64527 -1.57844 0
M  V30 4358 C 432.061 1.54869 -0.436408 0
M  V30 4359 O 433.253 1.63119 -0.687101 0
M  V30 4360 C 430.382 3.03281 -1.6086 0
M  V30 4361 C 429.468 3.18093 -2.80495 0
M  V30 4362 N 429.859 3.02923 -4.05057 0
M  V30 4363 C 428.157 3.49121 -2.77543 0
M  V30 4364 C 428.858 3.20791 -4.85251 0
M  V30 4365 N 427.834 3.47749 -4.17818 0
M  V30 4366 H 431.636 1.51388 -2.5191 0
M  V30 4367 H 429.15 0.748671 -1.44113 0
M  V30 4368 H 431.147 3.82403 -1.66054 0
M  V30 4369 H 429.807 3.17521 -0.678996 0
M  V30 4370 H 430.818 2.79966 -4.35705 0
M  V30 4371 H 427.495 3.69804 -1.93781 0
M  V30 4372 H 428.885 3.13915 -5.9406 0
M  V30 4373 N 431.605 1.3629 0.791371 0
M  V30 4374 C 432.537 1.26321 1.91248 0
M  V30 4375 C 433.55 0.18313 1.61767 0
M  V30 4376 O 434.739 0.437682 1.73051 0
M  V30 4377 C 431.839 0.925901 3.26007 0
M  V30 4378 C 431.012 2.10746 3.83281 0
M  V30 4379 C 430.071 1.74352 4.96475 0
M  V30 4380 O 429.097 2.46416 5.13096 0
M  V30 4381 N 430.299 0.676058 5.7655 0
M  V30 4382 H 433.064 2.22915 2.00323 0
M  V30 4383 H 430.625 1.29659 0.969546 0
M  V30 4384 H 432.617 0.663636 3.99222 0
M  V30 4385 H 431.187 0.0491581 3.12561 0
M  V30 4386 H 430.407 2.53264 3.02077 0
M  V30 4387 H 431.695 2.8969 4.18279 0
M  V30 4388 H 431.093 0.0776467 5.65647 0
M  V30 4389 H 429.65 0.473612 6.50077 0
M  V30 4390 N 433.083 -1.0153 1.20538 0
M  V30 4391 C 434.013 -2.11972 0.979295 0
M  V30 4392 C 434.994 -1.6985 -0.0921787 0
M  V30 4393 O 436.179 -1.94089 0.0655932 0
M  V30 4394 C 433.309 -3.43201 0.531984 0
M  V30 4395 C 432.263 -3.9907 1.54685 0
M  V30 4396 C 431.589 -5.26082 0.956127 0
M  V30 4397 C 432.889 -4.32313 2.93092 0
M  V30 4398 H 434.583 -2.31143 1.90298 0
M  V30 4399 H 432.129 -1.11079 0.916372 0
M  V30 4400 H 434.082 -4.1985 0.361044 0
M  V30 4401 H 432.806 -3.23792 -0.427327 0
M  V30 4402 H 431.465 -3.2453 1.70517 0
M  V30 4403 H 431.113 -5.02999 -0.0111538 0
M  V30 4404 H 430.813 -5.64426 1.63393 0
M  V30 4405 H 432.337 -6.05386 0.796284 0
M  V30 4406 H 433.751 -4.99845 2.80763 0
M  V30 4407 H 432.148 -4.81774 3.57791 0
M  V30 4408 H 433.218 -3.41025 3.44717 0
M  V30 4409 N 434.561 -1.01147 -1.20859 0
M  V30 4410 C 435.977 -0.725422 -1.42161 0
M  V30 4411 C 436.177 0.696919 -1.89064 0
M  V30 4412 O 435.233 1.46539 -2.05627 0
M  V30 4413 C 436.546 -1.74678 -2.44761 0
M  V30 4414 C 438.094 -1.76433 -2.58535 0
M  V30 4415 C 438.569 -2.77481 -3.64374 0
M  V30 4416 N 440.06 -2.76189 -3.71852 0
M  V30 4417 C 440.795 -3.51035 -4.53389 0
M  V30 4418 N 440.291 -4.35541 -5.38773 0
M  V30 4419 N 442.084 -3.39655 -4.47873 0
M  V30 4420 H 434.235 -1.92979 -0.887282 0
M  V30 4421 H 436.498 -0.833327 -0.451962 0
M  V30 4422 H 436.204 -2.76551 -2.17285 0
M  V30 4423 H 436.078 -1.55472 -3.43669 0
M  V30 4424 H 438.465 -0.75248 -2.85345 0
M  V30 4425 H 438.546 -1.99712 -1.5984 0
M  V30 4426 H 438.19 -3.78827 -3.38308 0
M  V30 4427 H 438.12 -2.51466 -4.6268 0
M  V30 4428 H 440.611 -2.14885 -3.10858 0
M  V30 4429 H 440.924 -4.89432 -5.98061 0
M  V30 4430 H 439.269 -4.39621 -5.38292 0
M  V30 4431 H 442.46 -2.73063 -3.80203 0
M  V30 4432 H 442.633 -3.9824 -5.11184 0
M  V30 4433 N 436.039 1.36541 -0.78704 0
M  V30 4434 C 436.969 2.32659 -0.197992 0
M  V30 4435 C 437.95 1.56533 0.665697 0
M  V30 4436 O 439.135 1.84698 0.60001 0
M  V30 4437 C 436.265 3.40778 0.669901 0
M  V30 4438 C 435.219 4.27897 -0.0937039 0
M  V30 4439 C 434.545 5.27163 0.894629 0
M  V30 4440 C 435.845 5.06334 -1.28154 0
M  V30 4441 H 437.539 2.82171 -1.00099 0
M  V30 4442 H 435.085 1.35665 -0.482793 0
M  V30 4443 H 437.038 4.07008 1.09191 0
M  V30 4444 H 435.762 2.89827 1.50558 0
M  V30 4445 H 434.421 3.6322 -0.49666 0
M  V30 4446 H 434.069 4.72486 1.72527 0
M  V30 4447 H 433.769 5.86317 0.388149 0
M  V30 4448 H 435.293 5.96266 1.31525 0
M  V30 4449 H 436.707 5.65617 -0.93541 0
M  V30 4450 H 435.104 5.74888 -1.72115 0
M  V30 4451 H 436.174 4.38114 -2.07807 0
M  V30 4452 N 437.518 0.538854 1.48102 0
M  V30 4453 C 438.766 0.00798599 2.02098 0
M  V30 4454 C 439.087 -1.33922 1.41739 0
M  V30 4455 O 438.357 -1.86932 0.585934 0
M  V30 4456 H 436.937 -3.62179e-05 0.747 0
M  V30 4457 H 439.599 0.7047 1.81714 0
M  V30 4458 H 438.695 -0.0937672 3.11959 0
M  V30 4459 N 438.996 -1.55193 0.274407 0
M  V30 4460 C 440.221 -2.04446 -0.348824 0
M  V30 4461 C 440.646 -1.15149 -1.48735 0
M  V30 4462 O 440.004 -0.149952 -1.80679 0
M  V30 4463 C 440.052 -3.51431 -0.808009 0
M  V30 4464 O 439.156 -3.65225 -1.91531 0
M  V30 4465 H 438.497 -0.66006 -0.0722276 0
M  V30 4466 H 441.027 -2.00481 0.408498 0
M  V30 4467 H 441.037 -3.92781 -1.10395 0
M  V30 4468 H 439.712 -4.15892 0.0249865 0
M  V30 4469 H 438.289 -3.35778 -1.62196 0
M  V30 4470 N 440.474 -0.00167713 -1.576 0
M  V30 4471 C 441.404 0.988091 -2.11563 0
M  V30 4472 C 442.385 1.35736 -1.02517 0
M  V30 4473 O 443.57 1.44082 -1.30208 0
M  V30 4474 C 440.7 2.27941 -2.62031 0
M  V30 4475 C 439.654 2.0517 -3.75619 0
M  V30 4476 C 438.98 3.4033 -4.12407 0
M  V30 4477 C 440.28 1.41294 -5.02825 0
M  V30 4478 H 441.974 0.538771 -2.94513 0
M  V30 4479 H 439.52 0.257712 -1.41675 0
M  V30 4480 H 441.473 2.97539 -2.9841 0
M  V30 4481 H 440.197 2.74989 -1.76205 0
M  V30 4482 H 438.856 1.37998 -3.39635 0
M  V30 4483 H 438.504 3.85085 -3.23603 0
M  V30 4484 H 438.204 3.25909 -4.88935 0
M  V30 4485 H 439.728 4.1124 -4.51347 0
M  V30 4486 H 441.142 2.00851 -5.36965 0
M  V30 4487 H 439.539 1.37356 -5.84169 0
M  V30 4488 H 440.609 0.382362 -4.8339 0
M  V30 4489 N 441.952 1.55251 0.271103 0
M  V30 4490 C 442.902 1.84649 1.33749 0
M  V30 4491 C 443.886 0.705529 1.44607 0
M  V30 4492 O 445.078 0.966916 1.48256 0
M  V30 4493 C 442.207 2.12354 2.69742 0
M  V30 4494 C 441.293 3.32714 2.62988 0
M  V30 4495 N 441.684 4.52575 2.25853 0
M  V30 4496 C 439.982 3.35341 2.94045 0
M  V30 4497 C 440.683 5.34669 2.29136 0
M  V30 4498 N 439.659 4.73123 2.67685 0
M  V30 4499 H 443.461 2.74865 1.0405 0
M  V30 4500 H 440.975 1.55152 0.479738 0
M  V30 4501 H 442.972 2.31572 3.4667 0
M  V30 4502 H 441.632 1.23422 3.00328 0
M  V30 4503 H 442.643 4.78639 1.978 0
M  V30 4504 H 439.32 2.56608 3.2933 0
M  V30 4505 H 440.71 6.40509 2.02971 0
M  V30 4506 N 443.43 -0.535701 1.48216 0
M  V30 4507 C 444.841 -1.11769 1.49548 0
M  V30 4508 C 445.192 -1.94442 0.26207 0
M  V30 4509 O 444.317 -2.06987 -0.631287 0
M  V30 4510 C 444.912 -2.03367 2.70975 0
M  V30 4511 C 443.471 -2.56795 2.75196 0
M  V30 4512 C 442.618 -1.33631 2.42977 0
M  V30 4513 H 445.569 -0.321232 1.55415 0
M  V30 4514 H 445.59 -2.87569 2.49167 0
M  V30 4515 H 445.102 -1.43169 3.60727 0
M  V30 4516 H 443.203 -3.20731 1.89638 0
M  V30 4517 H 443.316 -2.9632 3.76472 0
M  V30 4518 H 441.68 -1.6502 1.94012 0
M  V30 4519 H 442.463 -0.75194 3.34964 0
M  V30 4520 N 444.908 -1.36708 -0.784132 0
M  V30 4521 C 445.858 -1.2799 -1.88686 0
M  V30 4522 C 446.842 -0.170282 -1.59996 0
M  V30 4523 O 448.034 -0.403571 -1.72338 0
M  V30 4524 C 445.163 -1.07674 -3.25977 0
M  V30 4525 C 444.249 -2.23127 -3.60659 0
M  V30 4526 N 444.64 -3.48467 -3.66612 0
M  V30 4527 C 442.938 -2.15009 -3.90752 0
M  V30 4528 C 443.639 -4.24525 -3.97685 0
M  V30 4529 N 442.615 -3.53524 -4.12943 0
M  V30 4530 H 446.417 -2.22927 -1.91522 0
M  V30 4531 H 443.931 -1.29503 -0.979933 0
M  V30 4532 H 445.928 -0.995151 -4.04849 0
M  V30 4533 H 444.588 -0.13643 -3.24413 0
M  V30 4534 H 445.599 -3.82534 -3.49125 0
M  V30 4535 H 442.276 -1.28963 -3.97083 0
M  V30 4536 H 443.666 -5.32944 -4.0917 0
M  V30 4537 N 446.386 1.0089 -1.21074 0
M  V30 4538 C 447.614 1.78191 -1.05145 0
M  V30 4539 C 448.029 1.84537 0.398952 0
M  V30 4540 O 447.386 1.30393 1.27687 0
M  V30 4541 C 447.437 3.22288 -1.63746 0
M  V30 4542 O 447.158 3.16315 -3.03111 0
M  V30 4543 C 448.659 4.16106 -1.52875 0
M  V30 4544 H 445.879 0.560129 -0.369454 0
M  V30 4545 H 448.423 1.26945 -1.60328 0
M  V30 4546 H 446.578 3.70655 -1.12664 0
M  V30 4547 H 446.992 4.06817 -3.31059 0
M  V30 4548 H 448.466 5.15026 -1.98626 0
M  V30 4549 H 448.943 4.36541 -0.482521 0
M  V30 4550 H 449.549 3.73625 -2.03185 0
M  V30 4551 N 447.864 1.01787 1.20321 0
M  V30 4552 C 449.275 0.739307 1.71438 0
M  V30 4553 C 449.626 -0.742041 1.81627 0
M  V30 4554 O 448.751 -1.57903 1.47971 0
M  V30 4555 C 449.346 1.33538 3.11373 0
M  V30 4556 C 447.905 1.10566 3.59795 0
M  V30 4557 C 447.052 1.44028 2.36962 0
M  V30 4558 H 450.003 1.18718 1.05317 0
M  V30 4559 H 450.024 0.726611 3.73498 0
M  V30 4560 H 449.536 2.41352 3.03926 0
M  V30 4561 H 447.637 0.0452405 3.72573 0
M  V30 4562 H 447.75 1.78661 4.44542 0
M  V30 4563 H 446.114 0.85933 2.39766 0
M  V30 4564 H 446.897 2.52901 2.32155 0
M  V30 4565 N 449.342 -1.36122 0.79427 0
M  V30 4566 C 450.572 -2.03067 0.380437 0
M  V30 4567 C 450.98 -1.60018 -1.00949 0
M  V30 4568 O 450.323 -0.787425 -1.65968 0
M  V30 4569 C 450.385 -3.57587 0.37034 0
M  V30 4570 C 450.049 -4.23855 1.70867 0
M  V30 4571 C 451.046 -4.46404 2.66496 0
M  V30 4572 C 448.731 -4.61229 1.9893 0
M  V30 4573 C 450.725 -5.05412 3.88378 0
M  V30 4574 C 448.412 -5.19953 3.21079 0
M  V30 4575 C 449.41 -5.41985 4.15621 0
M  V30 4576 O 449.098 -5.99475 5.35616 0
M  V30 4577 H 448.83 -0.658168 0.154243 0
M  V30 4578 H 451.384 -1.7498 1.0757 0
M  V30 4579 H 449.614 -3.84814 -0.381444 0
M  V30 4580 H 451.303 -4.05895 -0.0194894 0
M  V30 4581 H 452.069 -4.17921 2.46103 0
M  V30 4582 H 447.948 -4.43402 1.26158 0
M  V30 4583 H 451.492 -5.22524 4.62185 0
M  V30 4584 H 447.389 -5.47862 3.41347 0
M  V30 4585 H 448.157 -6.17937 5.36745 0
M  V30 4586 N 450.82 -0.546701 -1.47814 0
M  V30 4587 C 451.77 0.227042 -2.26867 0
M  V30 4588 C 452.754 0.894844 -1.33721 0
M  V30 4589 O 453.946 0.794887 -1.58147 0
M  V30 4590 C 451.075 1.26299 -3.19223 0
M  V30 4591 C 450.161 0.59913 -4.19847 0
M  V30 4592 N 450.552 -0.324777 -5.04756 0
M  V30 4593 C 448.85 0.854331 -4.37741 0
M  V30 4594 C 449.551 -0.709386 -5.77358 0
M  V30 4595 N 448.527 -0.0666153 -5.43559 0
M  V30 4596 H 452.329 -0.483476 -2.89896 0
M  V30 4597 H 449.843 -0.365893 -1.58224 0
M  V30 4598 H 451.84 1.83116 -3.74532 0
M  V30 4599 H 450.5 1.97471 -2.57751 0
M  V30 4600 H 451.511 -0.698351 -5.1317 0
M  V30 4601 H 448.188 1.55536 -3.87447 0
M  V30 4602 H 449.578 -1.46796 -6.55668 0
M  V30 4603 N 452.299 1.55045 -0.282633 0
M  V30 4604 C 453.548 1.98938 0.332667 0
M  V30 4605 C 453.861 1.17455 1.56409 0
M  V30 4606 O 455.067 1.51527 2.25282 0
M  V30 4607 C 453.523 3.54105 0.643226 0
M  V30 4608 C 453.131 4.44374 -0.568814 0
M  V30 4609 C 454.875 4.06569 1.22074 0
M  V30 4610 C 452.782 5.90943 -0.232426 0
M  V30 4611 H 451.712 0.743043 0.128075 0
M  V30 4612 H 454.363 1.79341 -0.388464 0
M  V30 4613 H 452.745 3.69532 1.42346 0
M  V30 4614 H 453.919 4.40718 -1.34551 0
M  V30 4615 H 452.234 4.02585 -1.06369 0
M  V30 4616 H 454.831 5.13626 1.48635 0
M  V30 4617 H 455.174 3.56057 2.15707 0
M  V30 4618 H 455.707 3.94612 0.502621 0
M  V30 4619 H 452.446 6.45567 -1.13683 0
M  V30 4620 H 451.966 5.9765 0.507357 0
M  V30 4621 H 453.645 6.4677 0.172657 0
M  V30 4622 N 453.777 0.010035 1.57597 0
M  V30 4623 C 455.193 -0.346164 1.55801 0
M  V30 4624 C 455.393 -1.74144 1.01371 0
M  V30 4625 O 454.449 -2.43938 0.651968 0
M  V30 4626 C 455.762 -0.212216 2.9995 0
M  V30 4627 C 457.31 -0.286409 3.11687 0
M  V30 4628 C 457.785 -0.18147 4.5764 0
M  V30 4629 N 459.276 -0.239056 4.62583 0
M  V30 4630 C 460.011 -0.181351 5.73113 0
M  V30 4631 N 459.507 -0.073661 6.92761 0
M  V30 4632 N 461.3 -0.233949 5.61613 0
M  V30 4633 H 453.451 0.922657 1.91313 0
M  V30 4634 H 455.714 0.354595 0.879185 0
M  V30 4635 H 455.42 0.748169 3.4365 0
M  V30 4636 H 455.294 -0.990224 3.6397 0
M  V30 4637 H 457.681 -1.23724 2.67911 0
M  V30 4638 H 457.762 0.521645 2.50425 0
M  V30 4639 H 457.406 0.765863 5.02093 0
M  V30 4640 H 457.336 -1.00814 5.1686 0
M  V30 4641 H 459.827 -0.32321 3.76515 0
M  V30 4642 H 460.14 -0.0358003 7.72792 0
M  V30 4643 H 458.485 -0.0391461 6.94989 0
M  V30 4644 H 461.676 -0.316347 4.6703 0
M  V30 4645 H 461.849 -0.185514 6.47734 0
M  V30 4646 N 455.255 -1.55392 -0.262866 0
M  V30 4647 C 456.501 -1.76737 -0.99458 0
M  V30 4648 C 456.834 -0.572453 -1.85571 0
M  V30 4649 O 456.109 0.429732 -1.89693 0
M  V30 4650 C 456.392 -3.07824 -1.8686 0
M  V30 4651 C 456.245 -4.3769 -1.03672 0
M  V30 4652 C 457.564 -3.35021 -2.85393 0
M  V30 4653 H 454.683 -0.643005 -0.360157 0
M  V30 4654 H 457.325 -1.88126 -0.266216 0
M  V30 4655 H 455.475 -2.98245 -2.48962 0
M  V30 4656 H 457.147 -4.59238 -0.43563 0
M  V30 4657 H 455.39 -4.32461 -0.340513 0
M  V30 4658 H 456.061 -5.25759 -1.6817 0
M  V30 4659 H 458.537 -3.44458 -2.33426 0
M  V30 4660 H 457.413 -4.27989 -3.43681 0
M  V30 4661 H 457.674 -2.55153 -3.61039 0
M  V30 4662 N 456.733 0.527833 -1.48498 0
M  V30 4663 C 457.696 1.61439 -1.62696 0
M  V30 4664 C 458.696 1.52824 -0.500136 0
M  V30 4665 O 459.886 1.56456 -0.765976 0
M  V30 4666 C 457.018 3.01063 -1.59918 0
M  V30 4667 H 458.211 1.50189 -2.59583 0
M  V30 4668 H 455.764 0.750055 -1.37127 0
M  V30 4669 H 456.499 3.17818 -0.645163 0
M  V30 4670 H 456.284 3.08725 -2.41726 0
M  V30 4671 H 457.774 3.80057 -1.73051 0
M  V30 4672 N 458.211 1.37122 0.776871 0
M  V30 4673 C 459.451 1.33441 1.54831 0
M  V30 4674 C 459.815 -0.0818963 1.91825 0
M  V30 4675 O 461.016 -0.24338 2.67696 0
M  V30 4676 C 459.287 2.24267 2.78279 0
M  V30 4677 S 460.846 2.38389 3.68397 0
M  V30 4678 H 457.664 0.473791 0.530135 0
M  V30 4679 H 460.266 1.7282 0.913968 0
M  V30 4680 H 458.97 3.261 2.49173 0
M  V30 4681 H 458.501 1.85953 3.46677 0
M  V30 4682 H 460.516 1.59068 4.70013 0
M  V30 4683 N 459.689 -1.00246 1.21608 0
M  V30 4684 C 460.917 -1.77631 1.06089 0
M  V30 4685 C 461.332 -1.84746 -0.38916 0
M  V30 4686 O 460.689 -1.31068 -1.26994 0
M  V30 4687 C 460.74 -3.21415 1.65453 0
M  V30 4688 O 460.461 -3.14703 3.04785 0
M  V30 4689 C 461.962 -4.15289 1.55079 0
M  V30 4690 H 459.182 -0.558162 0.37242 0
M  V30 4691 H 461.726 -1.26093 1.60999 0
M  V30 4692 H 459.881 -3.70053 1.14629 0
M  V30 4693 H 460.295 -4.05056 3.33212 0
M  V30 4694 H 461.769 -5.13965 2.01355 0
M  V30 4695 H 462.246 -4.36279 0.505665 0
M  V30 4696 H 462.852 -3.72543 2.05163 0
M  V30 4697 N 461.167 -1.02423 -1.1978 0
M  V30 4698 C 462.392 -0.7373 -1.93852 0
M  V30 4699 C 462.817 0.696923 -1.74713 0
M  V30 4700 O 462.175 1.48056 -1.04638 0
M  V30 4701 C 462.223 -1.08783 -3.438 0
M  V30 4702 O 461.327 -0.20383 -4.11896 0
M  V30 4703 H 460.668 -0.27284 -0.605355 0
M  V30 4704 H 463.198 -1.36966 -1.51992 0
M  V30 4705 H 463.208 -1.04276 -3.9445 0
M  V30 4706 H 461.883 -2.13274 -3.57053 0
M  V30 4707 H 460.46 -0.307091 -3.71633 0
M  V30 4708 N 462.645 1.35699 -0.801477 0
M  V30 4709 C 463.87 2.03687 -0.390678 0
M  V30 4710 C 464.295 1.60015 0.988778 0
M  V30 4711 O 463.653 0.774357 1.63931 0
M  V30 4712 C 463.701 3.57439 -0.476404 0
M  V30 4713 O 462.805 4.09208 0.512106 0
M  V30 4714 H 462.146 0.64344 -0.163956 0
M  V30 4715 H 464.676 1.73403 -1.08594 0
M  V30 4716 H 464.686 4.06544 -0.344357 0
M  V30 4717 H 463.361 3.88576 -1.48262 0
M  V30 4718 H 461.938 3.7134 0.340721 0
M  V30 4719 N 464.123 0.554532 1.47522 0
M  V30 4720 C 465.055 -0.232106 2.28022 0
M  V30 4721 C 466.068 -0.881865 1.36847 0
M  V30 4722 O 467.257 -0.756168 1.61692 0
M  V30 4723 C 464.357 -1.34604 3.11022 0
M  V30 4724 C 463.53 -0.793582 4.30141 0
M  V30 4725 C 462.589 -1.79168 4.94758 0
M  V30 4726 O 461.615 -1.33886 5.5323 0
M  V30 4727 N 462.817 -3.12495 4.89211 0
M  V30 4728 H 465.582 0.458407 2.96173 0
M  V30 4729 H 463.143 0.390433 1.57122 0
M  V30 4730 H 465.135 -2.01243 3.51118 0
M  V30 4731 H 463.705 -1.93983 2.45131 0
M  V30 4732 H 462.925 0.0495025 3.94169 0
M  V30 4733 H 464.213 -0.403776 5.07195 0
M  V30 4734 H 463.611 -3.51931 4.42901 0
M  V30 4735 H 462.168 -3.74698 5.33333 0
M  V30 4736 N 465.601 -1.54893 0.290851 0
M  V30 4737 C 466.849 -1.99538 -0.320756 0
M  V30 4738 C 467.17 -1.18075 -1.55188 0
M  V30 4739 O 466.44 -0.274162 -1.93972 0
M  V30 4740 H 465.02 -0.737052 -0.121507 0
M  V30 4741 H 467.682 -1.90755 0.399832 0
M  V30 4742 H 466.778 -3.06282 -0.599802 0
M  V30 4743 N 467.08 -0.0183926 -1.57589 0
M  V30 4744 C 468.491 0.521927 -1.79256 0
M  V30 4745 C 468.842 1.72885 -0.927636 0
M  V30 4746 O 467.967 2.15978 -0.135091 0
M  V30 4747 C 468.562 0.953632 -3.25102 0
M  V30 4748 C 467.121 1.43913 -3.47801 0
M  V30 4749 C 466.268 0.398837 -2.74417 0
M  V30 4750 H 469.219 -0.244485 -1.56805 0
M  V30 4751 H 469.24 1.81863 -3.34224 0
M  V30 4752 H 468.752 0.0750123 -3.88028 0
M  V30 4753 H 466.853 2.33804 -2.90115 0
M  V30 4754 H 466.966 1.45391 -4.56507 0
M  V30 4755 H 465.33 0.864572 -2.39577 0
M  V30 4756 H 466.113 -0.471132 -3.40052 0
M  V30 4757 N 468.558 1.5553 0.254621 0
M  V30 4758 C 469.783 1.81383 1.00573 0
M  V30 4759 C 470.208 0.594419 1.78461 0
M  V30 4760 O 469.566 -0.456403 1.75461 0
M  V30 4761 C 469.614 3.04892 1.92545 0
M  V30 4762 O 468.718 2.81266 3.01601 0
M  V30 4763 H 468.059 0.598969 0.286587 0
M  V30 4764 H 470.589 2.02703 0.277952 0
M  V30 4765 H 470.599 3.34119 2.34155 0
M  V30 4766 H 469.274 3.93287 1.3527 0
M  V30 4767 H 467.851 2.63185 2.64174 0
M  V30 4768 N 470.036 -0.519951 1.48776 0
M  V30 4769 C 471.261 -1.30447 1.6124 0
M  V30 4770 C 471.686 -1.86055 0.276591 0
M  V30 4771 O 471.044 -1.64915 -0.753183 0
M  V30 4772 C 471.092 -2.42406 2.66967 0
M  V30 4773 O 470.196 -3.45728 2.24824 0
M  V30 4774 H 469.537 -0.385924 0.540332 0
M  V30 4775 H 472.067 -0.624572 1.94834 0
M  V30 4776 H 472.077 -2.88447 2.88552 0
M  V30 4777 H 470.752 -2.01294 3.63941 0
M  V30 4778 H 469.329 -3.05737 2.13494 0
M  V30 4779 N 471.514 -1.37532 -0.769588 0
M  V30 4780 C 472.76 -1.34063 -1.52966 0
M  V30 4781 C 473.115 0.0737942 -1.92258 0
M  V30 4782 O 472.408 1.03291 -1.61374 0
M  V30 4783 C 472.602 -2.21558 -2.8044 0
M  V30 4784 C 472.431 -3.71367 -2.53608 0
M  V30 4785 C 471.201 -4.40464 -2.47628 0
M  V30 4786 C 473.399 -4.64177 -2.21459 0
M  V30 4787 N 471.381 -5.758 -2.12902 0
M  V30 4788 C 472.752 -5.87907 -1.9689 0
M  V30 4789 C 474.807 -4.52541 -2.07633 0
M  V30 4790 C 473.51 -7.01304 -1.59892 0
M  V30 4791 C 475.536 -5.65825 -1.72034 0
M  V30 4792 C 474.898 -6.88606 -1.48327 0
M  V30 4793 H 470.997 -0.545856 -0.559969 0
M  V30 4794 H 473.581 -1.72773 -0.897634 0
M  V30 4795 H 471.752 -1.85061 -3.41478 0
M  V30 4796 H 473.484 -2.09332 -3.46356 0
M  V30 4797 H 470.239 -3.93491 -2.63556 0
M  V30 4798 H 470.663 -6.47328 -1.9823 0
M  V30 4799 H 475.305 -3.58183 -2.24643 0
M  V30 4800 H 473.023 -7.95594 -1.4162 0
M  V30 4801 H 476.609 -5.58793 -1.61991 0
M  V30 4802 H 475.489 -7.74779 -1.21189 0
M  V30 4803 N 472.992 0.995999 -1.22138 0
M  V30 4804 C 474.22 1.77066 -1.07029 0
M  V30 4805 C 474.635 1.8495 0.379357 0
M  V30 4806 O 473.992 1.3174 1.26297 0
M  V30 4807 C 474.043 3.20533 -1.67155 0
M  V30 4808 O 473.764 3.13082 -3.06449 0
M  V30 4809 C 475.265 4.14461 -1.5728 0
M  V30 4810 H 472.485 0.556179 -0.375374 0
M  V30 4811 H 475.029 1.25238 -1.61666 0
M  V30 4812 H 473.184 3.6944 -1.16589 0
M  V30 4813 H 473.598 4.03283 -3.35355 0
M  V30 4814 H 475.072 5.1289 -2.04078 0
M  V30 4815 H 475.549 4.36005 -0.528795 0
M  V30 4816 H 476.155 3.71449 -2.07136 0
M  V30 4817 N 474.47 1.03057 1.19235 0
M  V30 4818 C 475.42 0.583386 2.2041 0
M  V30 4819 C 476.404 -0.368776 1.56617 0
M  V30 4820 O 477.596 -0.189471 1.75983 0
M  V30 4821 C 474.725 -0.0626534 3.43243 0
M  V30 4822 C 473.811 0.91205 4.14177 0
M  V30 4823 N 474.202 2.07514 4.61272 0
M  V30 4824 C 472.5 0.735859 4.39888 0
M  V30 4825 C 473.201 2.69003 5.15764 0
M  V30 4826 N 472.177 1.96954 5.06666 0
M  V30 4827 H 475.979 1.46988 2.54503 0
M  V30 4828 H 473.493 0.897785 1.35328 0
M  V30 4829 H 475.49 -0.400653 4.1497 0
M  V30 4830 H 474.15 -0.944813 3.1065 0
M  V30 4831 H 475.161 2.45448 4.56043 0
M  V30 4832 H 471.838 -0.0970656 4.17387 0
M  V30 4833 H 473.228 3.67514 5.6248 0
M  V30 4834 N 475.948 -1.35272 0.808662 0
M  V30 4835 C 477.194 -1.99434 0.399717 0
M  V30 4836 C 477.549 -1.62992 -1.02232 0
M  V30 4837 O 476.842 -0.884091 -1.69983 0
M  V30 4838 C 477.036 -3.53556 0.522798 0
M  V30 4839 C 476.865 -4.04969 1.95525 0
M  V30 4840 C 475.635 -4.34228 2.58407 0
M  V30 4841 C 477.833 -4.23362 2.92009 0
M  V30 4842 N 475.815 -4.71585 3.93041 0
M  V30 4843 C 477.186 -4.63739 4.11517 0
M  V30 4844 C 479.241 -4.05576 2.88813 0
M  V30 4845 C 477.944 -4.88189 5.28265 0
M  V30 4846 C 479.97 -4.31184 4.04765 0
M  V30 4847 C 479.332 -4.71834 5.23022 0
M  V30 4848 H 475.431 -0.757534 0.19408 0
M  V30 4849 H 478.015 -1.63939 1.05034 0
M  V30 4850 H 476.186 -3.88277 -0.0978471 0
M  V30 4851 H 477.918 -4.04604 0.0882378 0
M  V30 4852 H 474.673 -4.24621 2.09747 0
M  V30 4853 H 475.097 -4.9452 4.62363 0
M  V30 4854 H 479.739 -3.73288 1.98535 0
M  V30 4855 H 477.457 -5.1935 6.19113 0
M  V30 4856 H 481.043 -4.18972 4.03675 0
M  V30 4857 H 479.923 -4.91263 6.11253 0
M  V30 4858 N 477.426 -0.562348 -1.47226 0
M  V30 4859 C 478.356 0.170627 -2.32876 0
M  V30 4860 C 479.337 0.903748 -1.44106 0
M  V30 4861 O 480.522 0.883206 -1.72954 0
M  V30 4862 C 477.652 1.19786 -3.25989 0
M  V30 4863 C 476.606 0.580875 -4.2404 0
M  V30 4864 C 475.932 1.71311 -5.06514 0
M  V30 4865 C 477.232 -0.468714 -5.20193 0
M  V30 4866 H 478.926 -0.544441 -2.94408 0
M  V30 4867 H 476.472 -0.263271 -1.41573 0
M  V30 4868 H 478.425 1.71884 -3.84752 0
M  V30 4869 H 477.149 1.94294 -2.62521 0
M  V30 4870 H 475.808 0.0811538 -3.6651 0
M  V30 4871 H 475.456 2.44736 -4.39447 0
M  V30 4872 H 475.156 1.30604 -5.72902 0
M  V30 4873 H 476.68 2.23725 -5.68137 0
M  V30 4874 H 478.094 -0.0336028 -5.7329 0
M  V30 4875 H 476.491 -0.794957 -5.94811 0
M  V30 4876 H 477.561 -1.36269 -4.65359 0
M  V30 4877 N 478.904 1.54736 -0.299062 0
M  V30 4878 C 480.315 1.8569 0.193971 0
M  V30 4879 C 480.666 1.22101 1.53577 0
M  V30 4880 O 479.791 0.51799 2.10109 0
M  V30 4881 C 480.386 3.36895 0.358733 0
M  V30 4882 C 478.945 3.67887 0.795986 0
M  V30 4883 C 478.092 2.77131 -0.096807 0
M  V30 4884 H 481.043 1.49934 -0.520134 0
M  V30 4885 H 481.064 3.61294 1.19361 0
M  V30 4886 H 480.576 3.83148 -0.617998 0
M  V30 4887 H 478.677 3.27151 1.78334 0
M  V30 4888 H 478.79 4.75114 0.616718 0
M  V30 4889 H 477.154 2.51153 0.423581 0
M  V30 4890 H 477.937 3.26204 -1.06986 0
M  V30 4891 N 480.382 0.0267497 1.57577 0
M  V30 4892 C 481.628 -0.653371 1.91987 0
M  V30 4893 C 481.961 -1.71915 0.903263 0
M  V30 4894 O 481.236 -1.94358 -0.0743387 0
M  V30 4895 C 481.519 -1.272 3.36886 0
M  V30 4896 C 481.372 -0.215938 4.49281 0
M  V30 4897 C 482.691 -2.19069 3.81703 0
M  V30 4898 H 479.81 -0.236047 0.698177 0
M  V30 4899 H 482.452 0.0835236 1.89816 0
M  V30 4900 H 480.602 -1.90005 3.38866 0
M  V30 4901 H 482.274 0.41449 4.59434 0
M  V30 4902 H 480.517 0.458855 4.31366 0
M  V30 4903 H 481.188 -0.688347 5.47691 0
M  V30 4904 H 483.664 -1.66253 3.81444 0
M  V30 4905 H 482.54 -2.59307 4.83788 0
M  V30 4906 H 482.801 -3.08087 3.17072 0
M  V30 4907 N 481.861 -1.55662 -0.24637 0
M  V30 4908 C 482.771 -1.93495 -1.32653 0
M  V30 4909 C 483.787 -0.835462 -1.5263 0
M  V30 4910 O 484.963 -1.1369 -1.66242 0
M  V30 4911 C 482.028 -2.22242 -2.66101 0
M  V30 4912 C 481.089 -3.45625 -2.54641 0
M  V30 4913 C 480.322 -3.72991 -3.81724 0
M  V30 4914 O 480.545 -3.02421 -4.8363 0
M  V30 4915 O 479.479 -4.66515 -3.80325 0
M  V30 4916 H 483.305 -2.85498 -1.03559 0
M  V30 4917 H 480.89 -1.42551 -0.44717 0
M  V30 4918 H 482.772 -2.42037 -3.44958 0
M  V30 4919 H 481.447 -1.33417 -2.94926 0
M  V30 4920 H 480.354 -3.31136 -1.74067 0
M  V30 4921 H 481.687 -4.34754 -2.3076 0
M  V30 4922 N 483.339 0.512053 -1.4905 0
M  V30 4923 C 484.567 1.29116 -1.61669 0
M  V30 4924 C 484.982 1.86655 -0.283787 0
M  V30 4925 O 484.339 1.67293 0.729331 0
M  V30 4926 C 484.39 2.4293 -2.67707 0
M  V30 4927 O 484.111 1.87758 -3.95826 0
M  V30 4928 C 485.612 3.34476 -2.90931 0
M  V30 4929 H 482.832 0.392009 -0.544583 0
M  V30 4930 H 485.376 0.615881 -1.95006 0
M  V30 4931 H 483.531 3.06308 -2.37179 0
M  V30 4932 H 483.945 2.62393 -4.54148 0
M  V30 4933 H 485.419 4.10642 -3.68886 0
M  V30 4934 H 485.896 3.90801 -2.00427 0
M  V30 4935 H 486.502 2.76874 -3.22832 0
M  V30 4936 N 484.817 1.37938 0.762283 0
M  V30 4937 C 486.228 1.30094 1.33912 0
M  V30 4938 C 486.579 -0.0472026 1.96143 0
M  V30 4939 O 485.704 -0.94917 1.94473 0
M  V30 4940 C 486.299 2.35592 2.43478 0
M  V30 4941 C 484.858 2.31353 2.96905 0
M  V30 4942 C 484.005 2.18919 1.70205 0
M  V30 4943 H 486.956 1.48423 0.561816 0
M  V30 4944 H 486.977 2.00806 3.23199 0
M  V30 4945 H 486.489 3.33701 1.98155 0
M  V30 4946 H 484.59 1.36799 3.46579 0
M  V30 4947 H 484.703 3.25147 3.51875 0
M  V30 4948 H 483.067 1.65624 1.93496 0
M  V30 4949 H 483.85 3.18956 1.26973 0
M  V30 4950 N 486.295 -0.989507 1.22664 0
M  V30 4951 C 487.205 -2.11449 1.01619 0
M  V30 4952 C 488.221 -1.73962 -0.036545 0
M  V30 4953 O 489.397 -2.00788 0.156924 0
M  V30 4954 C 486.462 -3.41465 0.600204 0
M  V30 4955 C 485.523 -3.93033 1.72695 0
M  V30 4956 C 484.756 -5.16844 1.33071 0
M  V30 4957 O 484.979 -5.7001 0.210975 0
M  V30 4958 O 483.913 -5.6225 2.14845 0
M  V30 4959 H 487.739 -2.32088 1.9588 0
M  V30 4960 H 485.324 -1.09823 1.01289 0
M  V30 4961 H 487.206 -4.19695 0.37873 0
M  V30 4962 H 485.881 -3.22178 -0.313511 0
M  V30 4963 H 484.788 -3.15961 2.00298 0
M  V30 4964 H 486.121 -4.16758 2.61865 0
M  V30 4965 N 487.773 -1.03688 -1.18687 0
M  V30 4966 C 489.021 -0.736572 -1.88199 0
M  V30 4967 C 489.342 0.737665 -1.80509 0
M  V30 4968 O 488.612 1.53204 -1.22088 0
M  V30 4969 H 487.192 -0.269466 -0.696704 0
M  V30 4970 H 489.854 -1.31282 -1.44052 0
M  V30 4971 H 488.95 -1.03802 -2.94332 0
M  V30 4972 N 489.251 1.34841 -0.815825 0
M  V30 4973 C 490.497 1.98793 -0.401129 0
M  V30 4974 C 490.83 1.64548 1.03139 0
M  V30 4975 O 490.105 0.913487 1.71714 0
M  V30 4976 C 490.388 3.55143 -0.595409 0
M  V30 4977 C 490.241 3.99155 -2.07352 0
M  V30 4978 C 491.56 4.40092 -0.0268823 0
M  V30 4979 H 488.679 0.722146 -0.14722 0
M  V30 4980 H 491.321 1.59847 -1.02707 0
M  V30 4981 H 489.471 3.8845 -0.0625779 0
M  V30 4982 H 491.143 3.76216 -2.66945 0
M  V30 4983 H 489.386 3.49726 -2.56659 0
M  V30 4984 H 490.057 5.07971 -2.1603 0
M  V30 4985 H 492.533 4.13298 -0.482042 0
M  V30 4986 H 491.409 5.48562 -0.19267 0
M  V30 4987 H 491.67 4.29016 1.06759 0
M  V30 4988 N 490.729 0.570148 1.46925 0
M  V30 4989 C 492.14 0.1402 1.86173 0
M  V30 4990 C 492.491 -1.29347 1.47526 0
M  V30 4991 O 491.616 -1.97508 0.884292 0
M  V30 4992 C 492.211 0.247661 3.37894 0
M  V30 4993 C 490.77 -0.127332 3.76185 0
M  V30 4994 C 489.917 0.589349 2.70965 0
M  V30 4995 H 492.868 0.779117 1.38259 0
M  V30 4996 H 492.889 -0.530341 3.76786 0
M  V30 4997 H 492.401 1.29121 3.65991 0
M  V30 4998 H 490.502 -1.17149 3.53704 0
M  V30 4999 H 490.615 0.240238 4.78497 0
M  V30 5000 H 488.979 0.0309824 2.54681 0
M  V30 5001 H 489.762 1.6343 3.01903 0
M  V30 5002 N 492.207 -1.54576 0.307264 0
M  V30 5003 C 493.137 -2.26708 -0.55907 0
M  V30 5004 C 494.118 -1.26893 -1.1328 0
M  V30 5005 O 495.303 -1.55677 -1.16097 0
M  V30 5006 C 492.433 -3.01259 -1.72801 0
M  V30 5007 C 491.387 -4.08275 -1.28435 0
M  V30 5008 C 490.713 -4.70575 -2.53895 0
M  V30 5009 C 492.013 -5.2068 -0.411038 0
M  V30 5010 H 493.707 -2.9937 0.042576 0
M  V30 5011 H 491.253 -1.43983 0.0219173 0
M  V30 5012 H 493.206 -3.50444 -2.34023 0
M  V30 5013 H 491.93 -2.26187 -2.356 0
M  V30 5014 H 490.589 -3.59949 -0.695161 0
M  V30 5015 H 490.237 -3.92136 -3.15021 0
M  V30 5016 H 489.937 -5.42854 -2.24908 0
M  V30 5017 H 491.461 -5.22527 -3.15908 0
M  V30 5018 H 492.875 -5.65721 -0.929097 0
M  V30 5019 H 491.272 -5.99716 -0.214664 0
M  V30 5020 H 492.342 -4.81629 0.562287 0
M  V30 5021 N 493.685 -0.035106 -1.57561 0
M  V30 5022 C 494.933 0.64096 -1.91667 0
M  V30 5023 C 495.254 1.72323 -0.912681 0
M  V30 5024 O 494.524 1.95849 0.0449089 0
M  V30 5025 H 493.104 0.239743 -0.707483 0
M  V30 5026 H 495.766 -0.084321 -1.94718 0
M  V30 5027 H 494.862 1.08987 -2.92452 0
M  V30 5028 N 495.163 1.55791 0.238111 0
M  V30 5029 C 496.574 1.68383 0.806472 0
M  V30 5030 C 496.925 0.634157 1.85669 0
M  V30 5031 O 496.05 -0.217913 2.153 0
M  V30 5032 C 496.645 3.05268 1.46959 0
M  V30 5033 C 495.204 3.1977 1.98555 0
M  V30 5034 C 494.351 2.64279 0.839763 0
M  V30 5035 H 497.302 1.58694 0.0137535 0
M  V30 5036 H 497.323 3.00203 2.33792 0
M  V30 5037 H 496.835 3.81643 0.704993 0
M  V30 5038 H 494.936 2.48234 2.77868 0
M  V30 5039 H 495.049 4.26788 2.17689 0
M  V30 5040 H 493.413 2.22329 1.24265 0
M  V30 5041 H 494.196 3.43187 0.0881032 0
M  V30 5042 N 496.642 -0.504142 1.49319 0
M  V30 5043 C 498.053 -1.08572 1.51885 0
M  V30 5044 C 498.404 -1.93842 0.303255 0
M  V30 5045 O 497.529 -2.0828 -0.58724 0
M  V30 5046 C 498.124 -1.97574 2.75227 0
M  V30 5047 C 496.683 -2.509 2.80581 0
M  V30 5048 C 495.83 -1.28447 2.45757 0
M  V30 5049 H 498.781 -0.288194 1.56061 0
M  V30 5050 H 498.802 -2.82219 2.55211 0
M  V30 5051 H 498.314 -1.35486 3.63683 0
M  V30 5052 H 496.415 -3.16636 1.96398 0
M  V30 5053 H 496.528 -2.88268 3.82673 0
M  V30 5054 H 494.892 -1.60868 1.97468 0
M  V30 5055 H 495.675 -0.68072 3.36483 0
M  V30 5056 N 498.12 -1.38341 -0.754957 0
M  V30 5057 C 499.03 -1.3769 -1.89944 0
M  V30 5058 C 500.046 -0.274194 -1.71826 0
M  V30 5059 O 501.222 -0.512391 -1.94773 0
M  V30 5060 C 498.287 -1.19938 -3.25293 0
M  V30 5061 C 497.348 -2.40001 -3.55946 0
M  V30 5062 C 496.581 -2.23087 -4.84838 0
M  V30 5063 O 496.804 -1.22386 -5.57116 0
M  V30 5064 O 495.738 -3.11646 -5.14937 0
M  V30 5065 H 499.564 -2.3412 -1.93446 0
M  V30 5066 H 497.149 -1.19246 -0.900044 0
M  V30 5067 H 499.031 -1.12093 -4.06218 0
M  V30 5068 H 497.706 -0.265919 -3.22606 0
M  V30 5069 H 496.613 -2.53421 -2.75188 0
M  V30 5070 H 497.946 -3.31973 -3.63394 0
M  V30 5071 N 499.598 0.982988 -1.23187 0
M  V30 5072 C 500.546 2.09616 -1.00817 0
M  V30 5073 C 501.54 1.6932 0.0519995 0
M  V30 5074 O 502.746 1.79715 -0.101284 0
M  V30 5075 H 499.121 0.685628 -0.308899 0
M  V30 5076 H 501.092 2.25652 -1.95253 0
M  V30 5077 C 499.841 3.42249 -0.613243 0
M  V30 5078 H 499.164 3.73705 -1.42073 0
M  V30 5079 H 500.604 4.21086 -0.496208 0
M  V30 5080 C 499.063 3.30002 0.678233 0
M  V30 5081 O 499.593 3.6263 1.72807 0
M  V30 5082 N 497.799 2.83164 0.653165 0
M  V30 5083 H 497.346 2.56811 -0.201492 0
M  V30 5084 H 497.304 2.75352 1.51752 0
M  V30 5085 N 501.076 1.04316 1.18135 0
M  V30 5086 C 502.325 0.74319 1.87509 0
M  V30 5087 C 502.638 -0.732136 1.81381 0
M  V30 5088 O 503.844 -1.14572 2.46141 0
M  V30 5089 C 502.3 1.27913 3.36402 0
M  V30 5090 C 501.908 2.78326 3.51053 0
M  V30 5091 C 503.652 1.0558 4.11161 0
M  V30 5092 C 501.559 3.25266 4.93919 0
M  V30 5093 H 500.489 0.274313 0.702331 0
M  V30 5094 H 503.14 1.25931 1.33467 0
M  V30 5095 H 501.522 0.690853 3.89927 0
M  V30 5096 H 502.696 3.42933 3.07788 0
M  V30 5097 H 501.011 2.991 2.89704 0
M  V30 5098 H 503.608 1.38161 5.16542 0
M  V30 5099 H 503.951 -0.00684729 4.16299 0
M  V30 5100 H 504.484 1.60882 3.63816 0
M  V30 5101 H 501.223 4.30922 4.9395 0
M  V30 5102 H 500.743 2.65396 5.3789 0
M  V30 5103 H 502.422 3.19433 5.62647 0
M  V30 5104 N 502.554 -1.34406 0.822964 0
M  V30 5105 C 503.779 -2.0304 0.423034 0
M  V30 5106 C 504.204 -1.61568 -0.963196 0
M  V30 5107 O 503.562 -0.800339 -1.62678 0
M  V30 5108 C 503.61 -3.56636 0.53321 0
M  V30 5109 O 502.714 -4.09971 -0.446939 0
M  V30 5110 H 502.055 -0.64075 0.174171 0
M  V30 5111 H 504.585 -1.71653 1.11339 0
M  V30 5112 H 504.595 -4.05945 0.408991 0
M  V30 5113 H 503.27 -3.86168 1.54425 0
M  V30 5114 H 501.847 -3.71835 -0.281601 0
M  V30 5115 N 504.032 -0.577932 -1.46621 0
M  V30 5116 C 504.995 0.147805 -2.28723 0
M  V30 5117 C 505.995 0.823325 -1.38123 0
M  V30 5118 O 507.185 0.676011 -1.60548 0
M  V30 5119 C 504.317 1.21853 -3.18378 0
M  V30 5120 H 505.51 -0.573654 -2.94362 0
M  V30 5121 H 503.063 -0.335703 -1.52652 0
M  V30 5122 H 503.798 1.97173 -2.57475 0
M  V30 5123 H 503.583 0.738714 -3.85078 0
M  V30 5124 H 505.073 1.72768 -3.80186 0
M  V30 5125 N 505.51 1.54411 -0.315457 0
M  V30 5126 C 506.738 2.04833 0.291738 0
M  V30 5127 C 507.153 1.19203 1.46411 0
M  V30 5128 O 506.51 0.220867 1.81159 0
M  V30 5129 C 506.561 3.53969 0.73404 0
M  V30 5130 O 506.282 4.36346 -0.391682 0
M  V30 5131 C 507.783 4.2045 1.40489 0
M  V30 5132 H 505.003 0.668195 0.0612947 0
M  V30 5133 H 507.547 1.99276 -0.45929 0
M  V30 5134 H 505.702 3.5984 1.43506 0
M  V30 5135 H 506.116 5.24481 -0.0447088 0
M  V30 5136 H 507.59 5.26278 1.66539 0
M  V30 5137 H 508.067 3.71067 2.3496 0
M  V30 5138 H 508.673 4.18694 0.746662 0
M  V30 5139 N 506.988 0.0434614 1.5754 0
M  V30 5140 C 508.404 -0.313039 1.565 0
M  V30 5141 C 508.604 -1.71954 1.05043 0
M  V30 5142 O 507.66 -2.425 0.703564 0
M  V30 5143 C 508.973 -0.148544 3.00333 0
M  V30 5144 C 510.521 -0.220231 3.12224 0
M  V30 5145 C 510.996 -0.0843565 4.57922 0
M  V30 5146 N 512.487 -0.140881 4.62986 0
M  V30 5147 C 513.222 -0.0597443 5.73369 0
M  V30 5148 N 512.718 0.0733004 6.92761 0
M  V30 5149 N 514.511 -0.11477 5.61983 0
M  V30 5150 H 506.662 0.96303 1.89313 0
M  V30 5151 H 508.925 0.373164 0.871466 0
M  V30 5152 H 508.631 0.820894 3.41986 0
M  V30 5153 H 508.505 -0.912798 3.65989 0
M  V30 5154 H 510.892 -1.18014 2.70475 0
M  V30 5155 H 510.973 0.574646 2.49262 0
M  V30 5156 H 510.617 0.872192 5.00355 0
M  V30 5157 H 510.547 -0.898281 5.18882 0
M  V30 5158 H 513.038 -0.243273 3.77116 0
M  V30 5159 H 513.351 0.128128 7.72694 0
M  V30 5160 H 511.696 0.10828 6.94916 0
M  V30 5161 H 514.887 -0.217212 4.67596 0
M  V30 5162 H 515.06 -0.0480779 6.47982 0
M  V30 5163 N 508.466 -1.55915 -0.229846 0
M  V30 5164 C 509.414 -1.9258 -1.30444 0
M  V30 5165 C 510.408 -0.806839 -1.48951 0
M  V30 5166 O 511.614 -0.991606 -1.50224 0
M  V30 5167 H 507.989 -0.611878 -0.437161 0
M  V30 5168 H 509.96 -2.82264 -0.96797 0
M  V30 5169 C 508.709 -2.25171 -2.6494 0
M  V30 5170 H 508.032 -3.10782 -2.51504 0
M  V30 5171 H 509.472 -2.54716 -3.38963 0
M  V30 5172 C 507.931 -1.07394 -3.19324 0
M  V30 5173 O 508.461 -0.330759 -4.00336 0
M  V30 5174 N 506.667 -0.859984 -2.77584 0
M  V30 5175 H 506.214 -1.46605 -2.11813 0
M  V30 5176 H 506.172 -0.0736671 -3.14314 0
M  V30 5177 N 509.944 0.496216 -1.49584 0
M  V30 5178 C 511.192 1.24756 -1.58998 0
M  V30 5179 C 511.513 1.92968 -0.280775 0
M  V30 5180 O 510.783 1.82959 0.700198 0
M  V30 5181 H 509.363 0.463471 -0.585836 0
M  V30 5182 H 512.025 0.574678 -1.86235 0
M  V30 5183 H 511.121 2.00895 -2.38847 0
M  V30 5184 N 511.423 1.38739 0.74761 0
M  V30 5185 C 512.648 1.38702 1.54197 0
M  V30 5186 C 513.073 -0.019664 1.8809 0
M  V30 5187 O 512.431 -1.00333 1.51006 0
M  V30 5188 C 512.479 2.25492 2.814 0
M  V30 5189 O 511.583 1.67613 3.76802 0
M  V30 5190 H 510.924 0.472863 0.466151 0
M  V30 5191 H 513.454 1.82577 0.923413 0
M  V30 5192 H 513.464 2.39561 3.30264 0
M  V30 5193 H 512.139 3.27727 2.56062 0
M  V30 5194 H 510.716 1.62718 3.35526 0
M  V30 5195 N 512.901 -0.976442 1.23707 0
M  V30 5196 C 513.833 -2.07212 0.979574 0
M  V30 5197 C 514.846 -1.6273 -0.0478528 0
M  V30 5198 O 516.035 -1.77506 0.18815 0
M  V30 5199 C 513.135 -3.35835 0.45479 0
M  V30 5200 C 512.308 -4.09268 1.54331 0
M  V30 5201 C 511.367 -5.16166 1.02271 0
M  V30 5202 O 510.393 -5.42827 1.71254 0
M  V30 5203 N 511.595 -5.80313 -0.147419 0
M  V30 5204 H 514.36 -2.29878 1.92292 0
M  V30 5205 H 511.921 -1.14343 1.14618 0
M  V30 5206 H 513.913 -4.04597 0.0914631 0
M  V30 5207 H 512.483 -3.10106 -0.394068 0
M  V30 5208 H 511.703 -3.34906 2.07923 0
M  V30 5209 H 512.991 -4.55095 2.27522 0
M  V30 5210 H 512.389 -5.61043 -0.724353 0
M  V30 5211 H 510.946 -6.50231 -0.451972 0
M  V30 5212 N 514.379 -1.04941 -1.1758 0
M  V30 5213 C 515.342 -0.652456 -2.19717 0
M  V30 5214 C 516.342 0.294745 -1.58076 0
M  V30 5215 O 517.532 0.0789579 -1.74021 0
M  V30 5216 C 514.664 0.0420712 -3.40874 0
M  V30 5217 H 515.857 -1.55642 -2.5635 0
M  V30 5218 H 513.41 -0.842995 -1.31618 0
M  V30 5219 H 514.145 0.95943 -3.09783 0
M  V30 5220 H 513.93 -0.638844 -3.86861 0
M  V30 5221 H 515.42 0.306 -4.16477 0
M  V30 5222 N 515.857 1.33968 -0.830081 0
M  V30 5223 C 517.104 1.98063 -0.421566 0
M  V30 5224 C 517.432 1.65787 1.0171 0
M  V30 5225 O 516.687 0.925348 1.72441 0
M  V30 5226 C 516.986 3.52679 -0.57898 0
M  V30 5227 C 516.652 4.04884 -1.98443 0
M  V30 5228 C 515.314 4.18852 -2.36888 0
M  V30 5229 C 517.666 4.32879 -2.90285 0
M  V30 5230 C 514.994 4.58145 -3.66497 0
M  V30 5231 C 517.346 4.7362 -4.19364 0
M  V30 5232 C 516.01 4.85794 -4.57778 0
M  V30 5233 H 515.28 0.724765 -0.154262 0
M  V30 5234 H 517.927 1.59792 -1.05541 0
M  V30 5235 H 516.232 3.91556 0.138219 0
M  V30 5236 H 517.929 4.00261 -0.243317 0
M  V30 5237 H 514.519 3.9448 -1.67581 0
M  V30 5238 H 518.703 4.21619 -2.61823 0
M  V30 5239 H 513.959 4.65762 -3.96075 0
M  V30 5240 H 518.133 4.9424 -4.90612 0
M  V30 5241 H 515.76 5.15998 -5.58256 0
M  V30 5242 N 517.335 0.585699 1.46312 0
M  V30 5243 C 518.581 0.0725284 2.0267 0
M  V30 5244 C 518.914 -1.28523 1.45586 0
M  V30 5245 O 518.189 -1.84283 0.622101 0
M  V30 5246 C 518.472 0.0099788 3.60099 0
M  V30 5247 C 518.325 1.39685 4.27561 0
M  V30 5248 C 519.644 -0.689117 4.34671 0
M  V30 5249 H 516.763 0.0278307 0.736474 0
M  V30 5250 H 519.405 0.753472 1.74421 0
M  V30 5251 H 517.555 -0.56992 3.84297 0
M  V30 5252 H 519.227 2.02215 4.14617 0
M  V30 5253 H 517.47 1.96374 3.86807 0
M  V30 5254 H 518.141 1.30553 5.36339 0
M  V30 5255 H 520.617 -0.196446 4.15636 0
M  V30 5256 H 519.493 -0.701921 5.44393 0
M  V30 5257 H 519.754 -1.75101 4.05946 0
M  V30 5258 N 518.813 -1.54241 0.323641 0
M  V30 5259 C 519.763 -2.21071 -0.557833 0
M  V30 5260 C 520.747 -1.19126 -1.08157 0
M  V30 5261 O 521.939 -1.44755 -1.01857 0
M  V30 5262 C 519.068 -2.97208 -1.71821 0
M  V30 5263 C 518.154 -4.06491 -1.20936 0
M  V30 5264 N 518.545 -5.04052 -0.420202 0
M  V30 5265 C 516.843 -4.20443 -1.48808 0
M  V30 5266 C 517.544 -5.81516 -0.146413 0
M  V30 5267 N 516.52 -5.38641 -0.732562 0
M  V30 5268 H 520.322 -2.93853 0.0523921 0
M  V30 5269 H 517.836 -1.61883 0.129502 0
M  V30 5270 H 519.833 -3.4357 -2.36146 0
M  V30 5271 H 518.493 -2.25947 -2.33191 0
M  V30 5272 H 519.504 -5.17862 -0.0630401 0
M  V30 5273 H 516.181 -3.60396 -2.10762 0
M  V30 5274 H 517.571 -6.70119 0.488895 0
M  V30 5275 N 520.291 -0.0518155 -1.57515 0
M  V30 5276 C 521.537 0.616839 -1.93821 0
M  V30 5277 C 521.892 1.68413 -0.930307 0
M  V30 5278 O 521.185 1.91534 0.0504231 0
M  V30 5279 C 521.379 1.25607 -3.34601 0
M  V30 5280 C 521.208 0.252222 -4.48992 0
M  V30 5281 C 519.978 -0.156031 -5.05059 0
M  V30 5282 C 522.176 -0.502613 -5.11838 0
M  V30 5283 N 520.158 -1.15267 -6.02981 0
M  V30 5284 C 521.529 -1.35232 -6.05072 0
M  V30 5285 C 523.584 -0.560855 -4.94731 0
M  V30 5286 C 522.287 -2.25505 -6.83037 0
M  V30 5287 C 524.313 -1.45102 -5.73323 0
M  V30 5288 C 523.675 -2.28845 -6.6619 0
M  V30 5289 H 519.774 0.197344 -0.75669 0
M  V30 5290 H 522.358 -0.124297 -1.94303 0
M  V30 5291 H 520.529 1.96723 -3.34895 0
M  V30 5292 H 522.261 1.88358 -3.58195 0
M  V30 5293 H 519.016 0.22306 -4.73074 0
M  V30 5294 H 519.44 -1.64791 -6.56638 0
M  V30 5295 H 524.082 0.0723639 -4.22738 0
M  V30 5296 H 521.8 -2.89872 -7.54321 0
M  V30 5297 H 525.386 -1.50066 -5.62113 0
M  V30 5298 H 524.266 -2.96608 -7.25943 0
M  V30 5299 N 521.769 1.56035 0.221574 0
M  V30 5300 C 522.701 1.889 1.29805 0
M  V30 5301 C 523.714 0.777269 1.43047 0
M  V30 5302 O 524.903 1.05557 1.43945 0
M  V30 5303 C 522.003 2.0825 2.67367 0
M  V30 5304 C 521.176 3.39267 2.76073 0
M  V30 5305 C 520.235 3.48049 3.94649 0
M  V30 5306 O 519.261 4.2108 3.82988 0
M  V30 5307 N 520.463 2.79191 5.08953 0
M  V30 5308 H 523.228 2.81831 1.01938 0
M  V30 5309 H 520.789 1.5658 0.411612 0
M  V30 5310 H 522.781 2.11441 3.45072 0
M  V30 5311 H 521.351 1.21944 2.87834 0
M  V30 5312 H 520.571 3.48175 1.84846 0
M  V30 5313 H 521.859 4.25575 2.7886 0
M  V30 5314 H 521.257 2.19635 5.21322 0
M  V30 5315 H 519.814 2.88043 5.84701 0
M  V30 5316 N 523.247 -0.488276 1.49845 0
M  V30 5317 C 524.157 -1.61451 1.70207 0
M  V30 5318 C 525.173 -1.63877 0.584846 0
M  V30 5319 O 526.349 -1.82063 0.861107 0
M  V30 5320 C 523.414 -2.9776 1.77594 0
M  V30 5321 C 522.475 -3.05861 3.01243 0
M  V30 5322 C 521.708 -4.35668 3.08268 0
M  V30 5323 O 521.931 -5.25197 2.22541 0
M  V30 5324 O 520.865 -4.49005 4.00847 0
M  V30 5325 H 524.691 -1.47199 2.65643 0
M  V30 5326 H 522.276 -0.665939 1.33737 0
M  V30 5327 H 524.158 -3.7875 1.84732 0
M  V30 5328 H 522.833 -3.12248 0.8534 0
M  V30 5329 H 521.74 -2.24012 2.99616 0
M  V30 5330 H 523.073 -2.96304 3.9302 0
M  V30 5331 N 524.725 -1.39134 -0.740242 0
M  V30 5332 C 526.136 -1.32208 -1.31825 0
M  V30 5333 C 526.487 0.0159919 -1.96193 0
M  V30 5334 O 525.612 0.918111 -1.95958 0
M  V30 5335 C 526.207 -2.39436 -2.39699 0
M  V30 5336 C 524.766 -2.36048 -2.93187 0
M  V30 5337 C 523.913 -2.21599 -1.66701 0
M  V30 5338 H 526.864 -1.49298 -0.538133 0
M  V30 5339 H 526.885 -2.05922 -3.19963 0
M  V30 5340 H 526.397 -3.36811 -1.92821 0
M  V30 5341 H 524.498 -1.42295 -3.44359 0
M  V30 5342 H 524.611 -3.30704 -3.46658 0
M  V30 5343 H 522.975 -1.68681 -1.90837 0
M  V30 5344 H 523.758 -3.20936 -1.21882 0
M  V30 5345 N 526.204 0.969867 -1.24223 0
M  V30 5346 C 527.62 1.23809 -1.00716 0
M  V30 5347 C 527.82 1.99469 0.285358 0
M  V30 5348 O 526.876 2.31764 1.00207 0
M  V30 5349 C 528.189 2.02734 -2.2208 0
M  V30 5350 C 529.737 2.15834 -2.26681 0
M  V30 5351 C 530.212 2.98154 -3.47661 0
M  V30 5352 N 531.703 3.05737 -3.47964 0
M  V30 5353 C 532.438 3.69785 -4.38231 0
M  V30 5354 N 531.934 4.35569 -5.3875 0
M  V30 5355 N 533.727 3.66775 -4.25949 0
M  V30 5356 H 525.878 0.463294 -2.07286 0
M  V30 5357 H 528.141 0.267348 -0.909521 0
M  V30 5358 H 527.847 1.54524 -3.15935 0
M  V30 5359 H 527.721 3.0347 -2.24021 0
M  V30 5360 H 530.108 2.63248 -1.33359 0
M  V30 5361 H 530.189 1.14453 -2.28767 0
M  V30 5362 H 529.833 2.51435 -4.41297 0
M  V30 5363 H 529.763 3.99729 -3.42818 0
M  V30 5364 H 532.254 2.58941 -2.75242 0
M  V30 5365 H 532.567 4.82251 -6.03866 0
M  V30 5366 H 530.912 4.34244 -5.42639 0
M  V30 5367 H 534.103 3.14558 -3.46657 0
M  V30 5368 H 534.276 4.16407 -4.96497 0
M  V30 5369 N 527.682 1.05563 1.17022 0
M  V30 5370 C 528.645 0.664098 2.19368 0
M  V30 5371 C 529.645 -0.286358 1.5823 0
M  V30 5372 O 530.835 -0.069728 1.7406 0
M  V30 5373 C 527.967 -0.0239932 3.40892 0
M  V30 5374 H 529.16 1.57 2.55521 0
M  V30 5375 H 526.713 0.849964 1.31169 0
M  V30 5376 H 527.448 -0.942988 3.10287 0
M  V30 5377 H 527.233 0.659351 3.86516 0
M  V30 5378 H 528.723 -0.283909 4.16634 0
M  V30 5379 N 529.16 -1.33526 0.837174 0
M  V30 5380 C 530.571 -1.80182 0.489017 0
M  V30 5381 C 530.922 -1.69285 -0.991826 0
M  V30 5382 O 530.047 -1.24113 -1.77271 0
M  V30 5383 C 530.642 -3.27149 0.880866 0
M  V30 5384 C 529.201 -3.71828 0.584872 0
M  V30 5385 C 528.348 -2.54974 1.09011 0
M  V30 5386 H 531.299 -1.21071 1.02603 0
M  V30 5387 H 531.32 -3.80024 0.190239 0
M  V30 5388 H 530.832 -3.35048 1.95869 0
M  V30 5389 H 528.933 -3.69457 -0.48295 0
M  V30 5390 H 529.046 -4.65366 1.13892 0
M  V30 5391 H 527.41 -2.4952 0.511047 0
M  V30 5392 H 528.193 -2.65637 2.17467 0
M  V30 5393 N 530.638 -0.59345 -1.46 0
M  V30 5394 C 531.568 0.121192 -2.33185 0
M  V30 5395 C 532.549 0.872977 -1.4599 0
M  V30 5396 O 533.734 0.846321 -1.74789 0
M  V30 5397 C 530.864 1.12844 -3.28456 0
M  V30 5398 C 529.818 0.4908 -4.25177 0
M  V30 5399 C 529.144 1.60529 -5.10034 0
M  V30 5400 C 530.444 -0.578949 -5.19081 0
M  V30 5401 H 532.138 -0.606767 -2.93187 0
M  V30 5402 H 529.684 -0.293242 -1.40983 0
M  V30 5403 H 531.637 1.63684 -3.88311 0
M  V30 5404 H 530.361 1.88681 -2.66584 0
M  V30 5405 H 529.02 0.00339328 -3.666 0
M  V30 5406 H 528.668 2.35359 -4.44539 0
M  V30 5407 H 528.368 1.18422 -5.75543 0
M  V30 5408 H 529.892 2.11623 -5.72755 0
M  V30 5409 H 531.306 -0.155199 -5.7309 0
M  V30 5410 H 529.703 -0.920947 -5.92991 0
M  V30 5411 H 530.773 -1.46109 -4.62364 0
M  V30 5412 N 532.116 1.54067 -0.331816 0
M  V30 5413 C 533.048 2.22139 0.564538 0
M  V30 5414 C 534.061 1.22408 1.07332 0
M  V30 5415 O 535.25 1.4883 0.985481 0
M  V30 5416 C 532.35 2.87876 1.78831 0
M  V30 5417 C 531.523 4.13817 1.41682 0
M  V30 5418 C 530.582 4.63072 2.49901 0
M  V30 5419 O 529.608 5.27562 2.13699 0
M  V30 5420 N 530.81 4.38001 3.80967 0
M  V30 5421 H 533.575 2.99694 -0.0183736 0
M  V30 5422 H 531.136 1.61153 -0.155396 0
M  V30 5423 H 533.128 3.17747 2.50637 0
M  V30 5424 H 531.698 2.13977 2.27887 0
M  V30 5425 H 530.918 3.9062 0.530044 0
M  V30 5426 H 532.206 4.95762 1.14443 0
M  V30 5427 H 531.604 3.864 4.13173 0
M  V30 5428 H 530.161 4.72507 4.48977 0
M  V30 5429 N 533.594 0.0601682 1.57485 0
M  V30 5430 C 534.842 -0.610386 1.92662 0
M  V30 5431 C 535.163 -1.70849 0.939981 0
M  V30 5432 O 534.433 -1.95895 -0.0137455 0
M  V30 5433 H 533.013 -0.228457 0.711208 0
M  V30 5434 H 535.675 0.115288 1.94559 0
M  V30 5435 H 534.771 -1.0432 2.94149 0
M  V30 5436 N 535.072 -1.5615 -0.213296 0
M  V30 5437 C 536.3 -1.83638 -0.953139 0
M  V30 5438 C 536.715 -0.640362 -1.77609 0
M  V30 5439 O 536.072 0.391071 -1.78261 0
M  V30 5440 C 536.123 -3.09735 -1.86405 0
M  V30 5441 O 535.844 -4.24723 -1.07435 0
M  V30 5442 C 537.345 -3.5027 -2.71709 0
M  V30 5443 H 534.565 -0.610263 -0.278962 0
M  V30 5444 H 537.109 -2.03247 -0.226035 0
M  V30 5445 H 535.264 -2.92077 -2.545 0
M  V30 5446 H 535.678 -4.9641 -1.69343 0
M  V30 5447 H 537.152 -4.41515 -3.31313 0
M  V30 5448 H 537.629 -2.72406 -3.44516 0
M  V30 5449 H 538.235 -3.70396 -2.09015 0
M  V30 5450 N 536.55 0.480323 -1.50102 0
M  V30 5451 C 537.48 1.58769 -1.71215 0
M  V30 5452 C 538.461 1.60583 -0.560997 0
M  V30 5453 O 539.646 1.76996 -0.799127 0
M  V30 5454 C 536.776 2.97148 -1.79778 0
M  V30 5455 C 535.73 3.10201 -2.94888 0
M  V30 5456 C 535.056 4.50137 -2.88584 0
M  V30 5457 C 536.356 2.88283 -4.35534 0
M  V30 5458 H 538.05 1.41354 -2.6393 0
M  V30 5459 H 535.596 0.678591 -1.27008 0
M  V30 5460 H 537.549 3.74536 -1.93133 0
M  V30 5461 H 536.273 3.15699 -0.836772 0
M  V30 5462 H 534.932 2.35244 -2.81169 0
M  V30 5463 H 534.58 4.65593 -1.90349 0
M  V30 5464 H 534.28 4.59808 -3.65856 0
M  V30 5465 H 535.804 5.29558 -3.03976 0
M  V30 5466 H 537.218 3.55427 -4.49827 0
M  V30 5467 H 535.615 3.09408 -5.14186 0
M  V30 5468 H 536.685 1.84219 -4.48544 0
M  V30 5469 N 538.028 1.39524 0.732853 0
M  V30 5470 C 538.958 1.41153 1.86005 0
M  V30 5471 C 539.939 0.274614 1.67869 0
M  V30 5472 O 541.124 0.480745 1.88155 0
M  V30 5473 C 538.254 1.25638 3.23778 0
M  V30 5474 C 537.208 2.36752 3.56556 0
M  V30 5475 C 536.534 2.06326 4.93289 0
M  V30 5476 C 537.834 3.79069 3.5931 0
M  V30 5477 H 539.528 2.35484 1.84899 0
M  V30 5478 H 537.074 1.13348 0.888162 0
M  V30 5479 H 539.027 1.25398 4.0231 0
M  V30 5480 H 537.751 0.277772 3.25417 0
M  V30 5481 H 536.41 2.36213 2.80355 0
M  V30 5482 H 536.058 1.06897 4.9151 0
M  V30 5483 H 535.758 2.80757 5.16187 0
M  V30 5484 H 537.282 2.07739 5.74175 0
M  V30 5485 H 538.696 3.81526 4.27914 0
M  V30 5486 H 537.093 4.52878 3.93728 0
M  V30 5487 H 538.163 4.09893 2.59068 0
M  V30 5488 N 539.506 -0.963266 1.24736 0
M  V30 5489 C 540.754 -1.70343 1.08755 0
M  V30 5490 C 541.075 -1.91387 -0.373619 0
M  V30 5491 O 540.345 -1.4948 -1.2662 0
M  V30 5492 H 538.925 -0.631224 0.399456 0
M  V30 5493 H 541.587 -1.15859 1.56725 0
M  V30 5494 H 540.683 -2.68616 1.58909 0
M  V30 5495 N 540.985 -1.06182 -1.16461 0
M  V30 5496 C 542.215 -0.797425 -1.9059 0
M  V30 5497 C 542.623 0.651845 -1.77616 0
M  V30 5498 O 541.966 1.45788 -1.11766 0
M  V30 5499 C 542.028 -1.11128 -3.41893 0
M  V30 5500 C 541.692 -2.55874 -3.78652 0
M  V30 5501 C 542.689 -3.54104 -3.80665 0
M  V30 5502 C 540.374 -2.91144 -4.09317 0
M  V30 5503 C 542.368 -4.85645 -4.12829 0
M  V30 5504 C 540.055 -4.22885 -4.41148 0
M  V30 5505 C 541.053 -5.19945 -4.42883 0
M  V30 5506 O 540.741 -6.49322 -4.73959 0
M  V30 5507 H 540.473 -0.288709 -0.611247 0
M  V30 5508 H 543.027 -1.41841 -1.4856 0
M  V30 5509 H 541.257 -0.433217 -3.84266 0
M  V30 5510 H 542.946 -0.831306 -3.97296 0
M  V30 5511 H 543.712 -3.28197 -3.57088 0
M  V30 5512 H 539.591 -2.16252 -4.07131 0
M  V30 5513 H 543.135 -5.61398 -4.14099 0
M  V30 5514 H 539.032 -4.48551 -4.6419 0
M  V30 5515 H 539.8 -6.54294 -4.91774 0
M  V30 5516 N 542.463 1.3308 -0.844243 0
M  V30 5517 C 543.879 1.50447 -0.532729 0
M  V30 5518 C 544.079 1.78292 0.938837 0
M  V30 5519 O 543.135 1.84635 1.72239 0
M  V30 5520 C 544.448 2.65555 -1.41072 0
M  V30 5521 C 545.996 2.7944 -1.41005 0
M  V30 5522 C 546.471 3.97616 -2.27301 0
M  V30 5523 N 547.962 4.0486 -2.2504 0
M  V30 5524 C 548.697 4.95508 -2.88547 0
M  V30 5525 N 548.193 5.91236 -3.61126 0
M  V30 5526 N 549.986 4.88548 -2.77989 0
M  V30 5527 H 542.137 1.13269 -1.79677 0
M  V30 5528 H 544.4 0.55734 -0.766861 0
M  V30 5529 H 544.106 2.51675 -2.45668 0
M  V30 5530 H 543.98 3.61089 -1.09061 0
M  V30 5531 H 546.367 2.92749 -0.371784 0
M  V30 5532 H 546.448 1.8465 -1.77026 0
M  V30 5533 H 546.092 3.85066 -3.3119 0
M  V30 5534 H 546.022 4.91661 -1.88619 0
M  V30 5535 H 548.513 3.36353 -1.72264 0
M  V30 5536 H 548.826 6.57079 -4.06776 0
M  V30 5537 H 547.171 5.91295 -3.65234 0
M  V30 5538 H 550.362 4.12729 -2.20846 0
M  V30 5539 H 550.535 5.58994 -3.27765 0
M  V30 5540 N 543.941 0.601185 1.45683 0
M  V30 5541 C 544.871 -0.108824 2.33246 0
M  V30 5542 C 545.852 -0.865223 1.46451 0
M  V30 5543 O 547.037 -0.83704 1.75235 0
M  V30 5544 C 544.167 -1.11101 3.2905 0
M  V30 5545 C 543.121 -0.468244 4.25431 0
M  V30 5546 C 542.447 -1.57822 5.10878 0
M  V30 5547 C 543.747 0.606469 5.18767 0
M  V30 5548 H 545.441 0.622306 2.92861 0
M  V30 5549 H 542.987 0.300714 1.40825 0
M  V30 5550 H 544.94 -1.61622 3.89174 0
M  V30 5551 H 543.664 -1.87265 2.67581 0
M  V30 5552 H 542.323 0.0160484 3.66596 0
M  V30 5553 H 541.971 -2.32998 4.45781 0
M  V30 5554 H 541.671 -1.15369 5.76163 0
M  V30 5555 H 543.195 -2.08583 5.73869 0
M  V30 5556 H 544.609 0.185589 5.73 0
M  V30 5557 H 543.006 0.952381 5.92494 0
M  V30 5558 H 544.076 1.48559 4.61582 0
M  V30 5559 N 545.419 -1.53889 0.339982 0
M  V30 5560 C 546.382 -2.23547 -0.50592 0
M  V30 5561 C 547.382 -1.23445 -1.03044 0
M  V30 5562 O 548.572 -1.47909 -0.920253 0
M  V30 5563 C 545.704 -2.95234 -1.7044 0
M  V30 5564 H 546.897 -2.99722 0.103247 0
M  V30 5565 H 544.45 -1.56033 0.0912804 0
M  V30 5566 H 545.185 -2.23236 -2.35236 0
M  V30 5567 H 544.97 -3.68654 -1.33553 0
M  V30 5568 H 546.46 -3.48258 -2.30447 0
M  V30 5569 N 546.897 -0.0685191 -1.57451 0
M  V30 5570 C 548.127 0.609577 -1.97402 0
M  V30 5571 C 548.535 1.63882 -0.945489 0
M  V30 5572 O 547.878 1.8354 0.0766052 0
M  V30 5573 C 547.94 1.3385 -3.33653 0
M  V30 5574 C 547.604 0.463103 -4.54648 0
M  V30 5575 C 548.601 -0.277964 -5.19156 0
M  V30 5576 C 546.286 0.388941 -5.00792 0
M  V30 5577 C 548.28 -1.08145 -6.28159 0
M  V30 5578 C 545.967 -0.418217 -6.09667 0
M  V30 5579 C 546.965 -1.15208 -6.73213 0
M  V30 5580 O 546.653 -1.94594 -7.79993 0
M  V30 5581 H 546.385 0.170197 -0.654224 0
M  V30 5582 H 548.939 -0.13647 -2.04946 0
M  V30 5583 H 547.169 2.13055 -3.22714 0
M  V30 5584 H 548.858 1.90851 -3.58233 0
M  V30 5585 H 549.624 -0.230241 -4.84453 0
M  V30 5586 H 545.503 0.949769 -4.5111 0
M  V30 5587 H 549.047 -1.65476 -6.7769 0
M  V30 5588 H 544.944 -0.467515 -6.43805 0
M  V30 5589 H 545.712 -1.8699 -7.96854 0
M  V30 5590 N 548.375 1.56261 0.205012 0
M  V30 5591 C 549.307 1.90266 1.27795 0
M  V30 5592 C 550.32 0.792397 1.42214 0
M  V30 5593 O 551.509 1.07077 1.42817 0
M  V30 5594 C 548.609 2.11074 2.65143 0
M  V30 5595 C 547.782 3.42176 2.7246 0
M  V30 5596 C 546.841 3.52216 3.90936 0
M  V30 5597 O 545.867 4.25119 3.78501 0
M  V30 5598 N 547.069 2.84573 5.05963 0
M  V30 5599 H 549.834 2.82896 0.989434 0
M  V30 5600 H 547.395 1.57008 0.394981 0
M  V30 5601 H 549.387 2.15089 3.4281 0
M  V30 5602 H 547.957 1.2499 2.86524 0
M  V30 5603 H 547.177 3.50116 1.81142 0
M  V30 5604 H 548.465 4.28509 2.74331 0
M  V30 5605 H 547.863 2.25152 5.18963 0
M  V30 5606 H 546.42 2.94228 5.81613 0
M  V30 5607 N 549.853 -0.472356 1.50355 0
M  V30 5608 C 551.101 -1.22211 1.60962 0
M  V30 5609 C 551.422 -1.92497 0.311439 0
M  V30 5610 O 550.692 -1.8405 -0.671002 0
M  V30 5611 H 549.272 -0.454092 0.593135 0
M  V30 5612 H 551.934 -0.544977 1.87126 0
M  V30 5613 H 551.03 -1.9707 2.42012 0
M  V30 5614 N 551.331 -1.39911 -0.725443 0
M  V30 5615 C 552.263 -1.35301 -1.85003 0
M  V30 5616 C 553.276 -0.260102 -1.60709 0
M  V30 5617 O 554.465 -0.519749 -1.70766 0
M  V30 5618 C 551.565 -1.08039 -3.21218 0
M  V30 5619 C 550.738 -2.28793 -3.7279 0
M  V30 5620 C 549.797 -1.97841 -4.87591 0
M  V30 5621 O 548.823 -2.70616 -5.00755 0
M  V30 5622 N 550.025 -0.950367 -5.72668 0
M  V30 5623 H 552.79 -2.32218 -1.89459 0
M  V30 5624 H 550.351 -1.34137 -0.90658 0
M  V30 5625 H 552.343 -0.853354 -3.95601 0
M  V30 5626 H 550.913 -0.198229 -3.11971 0
M  V30 5627 H 550.133 -2.67388 -2.8965 0
M  V30 5628 H 551.421 -3.09317 -4.03981 0
M  V30 5629 H 550.819 -0.347436 -5.64632 0
M  V30 5630 H 549.376 -0.783232 -6.47077 0
M  V30 5631 N 552.809 0.956637 -1.25245 0
M  V30 5632 C 554.086 1.67716 -1.00651 0
M  V30 5633 C 554.466 2.0585 0.467866 0
M  V30 5634 O 553.814 1.77029 1.44475 0
M  V30 5635 C 554.024 2.90093 -1.94028 0
M  V30 5636 C 555.372 3.6209 -2.21756 0
M  V30 5637 O 556.396 3.00171 -1.9177 0
M  V30 5638 O 555.255 4.7358 -2.72735 0
M  V30 5639 H 552.349 0.733731 -0.381533 0
M  V30 5640 H 554.895 1.00974 -1.3639 0
M  V30 5641 H 553.667 2.58689 -2.93591 0
M  V30 5642 H 553.29 3.64566 -1.58674 0
M  V30 5643 N 554.287 1.06798 1.15896 0
M  V30 5644 C 555.515 0.808694 1.90441 0
M  V30 5645 C 555.93 -0.637506 1.77711 0
M  V30 5646 O 555.287 -1.43684 1.12522 0
M  V30 5647 C 555.338 1.20068 3.40978 0
M  V30 5648 O 555.059 2.59013 3.53333 0
M  V30 5649 C 556.56 0.96987 4.3256 0
M  V30 5650 H 553.78 0.292809 0.603742 0
M  V30 5651 H 556.324 1.42296 1.46874 0
M  V30 5652 H 554.479 0.630842 3.82229 0
M  V30 5653 H 554.893 2.7485 4.46719 0
M  V30 5654 H 556.367 1.29371 5.36626 0
M  V30 5655 H 556.844 -0.0941209 4.39099 0
M  V30 5656 H 557.45 1.52433 3.97044 0
M  V30 5657 N 555.766 -1.3263 0.851289 0
M  V30 5658 C 557.177 -1.79653 0.5081 0
M  V30 5659 C 557.528 -1.70327 -0.973815 0
M  V30 5660 O 556.653 -1.25986 -1.75944 0
M  V30 5661 C 557.248 -3.26196 0.915515 0
M  V30 5662 C 555.807 -3.71187 0.624277 0
M  V30 5663 C 554.954 -2.53804 1.11709 0
M  V30 5664 H 557.905 -1.19976 1.03882 0
M  V30 5665 H 557.926 -3.79801 0.230535 0
M  V30 5666 H 557.438 -3.32952 1.99411 0
M  V30 5667 H 555.539 -3.69948 -0.443737 0
M  V30 5668 H 555.652 -4.64132 1.18821 0
M  V30 5669 H 554.016 -2.48964 0.537484 0
M  V30 5670 H 554.799 -2.63315 2.20272 0
M  V30 5671 N 557.244 -0.608902 -1.45362 0
M  V30 5672 C 558.154 0.110969 -2.34337 0
M  V30 5673 C 559.17 0.859007 -1.51318 0
M  V30 5674 O 560.346 0.816296 -1.84116 0
M  V30 5675 C 557.411 1.09494 -3.28956 0
M  V30 5676 C 556.472 0.348718 -4.27881 0
M  V30 5677 C 555.705 1.28582 -5.17979 0
M  V30 5678 O 555.928 2.52369 -5.11533 0
M  V30 5679 O 554.862 0.782172 -5.96796 0
M  V30 5680 H 558.688 -0.620258 -2.97299 0
M  V30 5681 H 556.273 -0.36916 -1.44767 0
M  V30 5682 H 558.155 1.66163 -3.87257 0
M  V30 5683 H 556.83 1.80717 -2.68557 0
M  V30 5684 H 555.737 -0.260465 -3.73192 0
M  V30 5685 H 557.07 -0.323049 -4.91139 0
M  V30 5686 N 558.722 1.53707 -0.348139 0
M  V30 5687 C 559.968 2.01286 0.247332 0
M  V30 5688 C 560.301 1.23546 1.49834 0
M  V30 5689 O 559.576 0.324331 1.91777 0
M  V30 5690 C 559.859 3.55768 0.556858 0
M  V30 5691 C 559.712 4.44216 -0.706564 0
M  V30 5692 C 561.031 4.1841 1.3646 0
M  V30 5693 H 558.15 0.731677 0.0884201 0
M  V30 5694 H 560.792 1.84106 -0.469584 0
M  V30 5695 H 558.942 3.70539 1.16761 0
M  V30 5696 H 560.614 4.41274 -1.34444 0
M  V30 5697 H 558.857 4.12892 -1.33052 0
M  V30 5698 H 559.528 5.50202 -0.445186 0
M  V30 5699 H 562.004 4.07365 0.848113 0
M  V30 5700 H 560.88 5.26563 1.54992 0
M  V30 5701 H 561.141 3.7333 2.36805 0
M  V30 5702 N 560.2 0.0768682 1.57412 0
M  V30 5703 C 561.13 -0.886026 2.16037 0
M  V30 5704 C 562.111 -1.30691 1.08876 0
M  V30 5705 O 563.296 -1.37705 1.36934 0
M  V30 5706 C 560.426 -2.1518 2.72608 0
M  V30 5707 C 559.38 -1.87015 3.8498 0
M  V30 5708 C 558.706 -3.20266 4.28175 0
M  V30 5709 C 560.006 -1.17143 5.08994 0
M  V30 5710 H 561.7 -0.397642 2.96748 0
M  V30 5711 H 559.246 -0.189823 1.42743 0
M  V30 5712 H 561.199 -2.82962 3.12266 0
M  V30 5713 H 559.923 -2.66269 1.89125 0
M  V30 5714 H 558.582 -1.21636 3.45833 0
M  V30 5715 H 558.23 -3.69207 3.41607 0
M  V30 5716 H 557.93 -3.0221 5.03927 0
M  V30 5717 H 559.454 -3.89237 4.70454 0
M  V30 5718 H 560.868 -1.75003 5.45937 0
M  V30 5719 H 559.265 -1.09328 5.90057 0
M  V30 5720 H 560.335 -0.151295 4.84664 0
M  V30 5721 N 561.678 -1.56367 -0.196722 0
M  V30 5722 C 562.611 -1.89475 -1.2718 0
M  V30 5723 C 563.589 -0.754667 -1.44026 0
M  V30 5724 O 564.773 -1.00551 -1.59442 0
M  V30 5725 C 561.9 -2.12352 -2.63864 0
M  V30 5726 C 560.946 -3.35053 -2.63897 0
M  V30 5727 S 561.779 -4.90228 -2.15492 0
M  V30 5728 C 562.935 -5.16171 -3.54004 0
M  V30 5729 H 563.168 -2.80365 -0.989075 0
M  V30 5730 H 560.701 -1.49125 -0.40014 0
M  V30 5731 H 562.659 -2.26214 -3.42545 0
M  V30 5732 H 561.32 -1.22214 -2.89349 0
M  V30 5733 H 560.513 -3.48182 -3.64397 0
M  V30 5734 H 560.115 -3.20176 -1.93296 0
M  V30 5735 H 562.407 -5.06591 -4.49857 0
M  V30 5736 H 563.35 -6.17938 -3.45771 0
M  V30 5737 H 563.758 -4.43814 -3.48841 0
M  V30 5738 N 563.156 0.464375 -1.50603 0
M  V30 5739 C 564.433 1.22549 -1.5245 0
M  V30 5740 C 564.813 2.09327 -0.273035 0
M  V30 5741 O 564.161 2.16074 0.743242 0
M  V30 5742 C 564.371 2.05074 -2.82393 0
M  V30 5743 C 565.719 2.63036 -3.33313 0
M  V30 5744 O 566.743 2.1531 -2.8376 0
M  V30 5745 O 565.602 3.5001 -4.19709 0
M  V30 5746 H 562.696 0.556471 -0.611775 0
M  V30 5747 H 565.242 0.475648 -1.62898 0
M  V30 5748 H 564.014 1.41169 -3.64948 0
M  V30 5749 H 563.637 2.87179 -2.7498 0
M  V30 5750 N 564.634 1.40294 0.718013 0
M  V30 5751 C 565.883 1.37746 1.4734 0
M  V30 5752 C 566.196 -0.0180754 1.95592 0
M  V30 5753 O 567.402 -0.166166 2.70991 0
M  V30 5754 C 565.858 2.4208 2.66318 0
M  V30 5755 C 565.466 3.87432 2.24945 0
M  V30 5756 C 567.21 2.48635 3.44065 0
M  V30 5757 C 565.117 4.83368 3.40748 0
M  V30 5758 H 564.047 0.512165 0.553356 0
M  V30 5759 H 566.698 1.66019 0.781661 0
M  V30 5760 H 565.08 2.06903 3.3765 0
M  V30 5761 H 566.254 4.3174 1.6105 0
M  V30 5762 H 564.569 3.8433 1.60249 0
M  V30 5763 H 567.166 3.17499 4.30231 0
M  V30 5764 H 567.509 1.51611 3.87711 0
M  V30 5765 H 568.042 2.82791 2.79775 0
M  V30 5766 H 564.781 5.81716 3.02136 0
M  V30 5767 H 564.301 4.43726 4.03568 0
M  V30 5768 H 565.98 5.03074 4.06848 0
M  V30 5769 N 566.112 -0.949982 1.2575 0
M  V30 5770 C 567.36 -1.6918 1.10555 0
M  V30 5771 C 567.681 -1.91773 -0.353298 0
M  V30 5772 O 566.951 -1.50814 -1.25027 0
M  V30 5773 H 565.531 -0.626952 0.406129 0
M  V30 5774 H 568.193 -1.1419 1.57945 0
M  V30 5775 H 567.289 -2.66915 1.61749 0
M  V30 5776 N 567.59 -1.07411 -1.15328 0
M  V30 5777 C 568.52 -0.716472 -2.22236 0
M  V30 5778 C 569.501 0.296373 -1.67498 0
M  V30 5779 O 570.686 0.168989 -1.93463 0
M  V30 5780 C 567.816 -0.114142 -3.47112 0
M  V30 5781 C 566.77 -1.05421 -4.14814 0
M  V30 5782 C 566.096 -0.314604 -5.33774 0
M  V30 5783 C 567.396 -2.38808 -4.64508 0
M  V30 5784 H 569.09 -1.61029 -2.52408 0
M  V30 5785 H 566.636 -0.775702 -1.21321 0
M  V30 5786 H 568.589 0.148001 -4.2114 0
M  V30 5787 H 567.313 0.814755 -3.16274 0
M  V30 5788 H 565.972 -1.30128 -3.42728 0
M  V30 5789 H 565.62 0.617772 -4.99192 0
M  V30 5790 H 565.32 -0.941209 -5.80013 0
M  V30 5791 H 566.844 -0.0602747 -6.1057 0
M  V30 5792 H 568.258 -2.18424 -5.3006 0
M  V30 5793 H 566.655 -2.97069 -5.21412 0
M  V30 5794 H 567.725 -3.01067 -3.80114 0
M  V30 5795 N 569.068 1.32177 -0.85831 0
M  V30 5796 C 570.484 1.49873 -0.548656 0
M  V30 5797 C 570.684 1.79278 0.919874 0
M  V30 5798 O 569.74 1.86451 1.70271 0
M  V30 5799 C 571.053 2.64043 -1.4388 0
M  V30 5800 C 572.601 2.77928 -1.43961 0
M  V30 5801 C 573.076 3.95182 -2.31506 0
M  V30 5802 N 574.567 4.0245 -2.29321 0
M  V30 5803 C 575.302 4.9242 -2.93786 0
M  V30 5804 N 574.798 5.87373 -3.67376 0
M  V30 5805 N 576.591 4.85572 -2.83155 0
M  V30 5806 H 568.742 1.11357 -1.80868 0
M  V30 5807 H 571.005 0.549175 -0.772729 0
M  V30 5808 H 570.711 2.49055 -2.48324 0
M  V30 5809 H 570.585 3.59912 -1.12885 0
M  V30 5810 H 572.972 2.92338 -0.402813 0
M  V30 5811 H 573.053 1.82762 -1.78974 0
M  V30 5812 H 572.697 3.81531 -3.35256 0
M  V30 5813 H 572.627 4.89633 -1.93823 0
M  V30 5814 H 575.118 3.34507 -1.75822 0
M  V30 5815 H 575.431 6.52728 -4.13722 0
M  V30 5816 H 573.776 5.87388 -3.71484 0
M  V30 5817 H 576.967 4.10363 -2.25211 0
M  V30 5818 H 577.14 5.55486 -3.33676 0
M  V30 5819 N 570.547 0.616602 1.45037 0
M  V30 5820 C 571.479 -0.135186 2.28801 0
M  V30 5821 C 572.492 -0.82303 1.40464 0
M  V30 5822 O 573.681 -0.686909 1.64754 0
M  V30 5823 C 570.781 -1.21292 3.16451 0
M  V30 5824 C 569.954 -0.61043 4.3312 0
M  V30 5825 C 569.013 -1.58022 5.01912 0
M  V30 5826 O 568.039 -1.10301 5.58411 0
M  V30 5827 N 569.241 -2.91464 5.02025 0
M  V30 5828 H 572.006 0.583612 2.93963 0
M  V30 5829 H 569.567 0.456723 1.55324 0
M  V30 5830 H 571.559 -1.86169 3.59337 0
M  V30 5831 H 570.129 -1.83412 2.53138 0
M  V30 5832 H 569.349 0.216638 3.93604 0
M  V30 5833 H 570.637 -0.188293 5.08451 0
M  V30 5834 H 570.035 -3.32829 4.57429 0
M  V30 5835 H 568.592 -3.51741 5.48745 0
M  V30 5836 N 572.025 -1.5352 0.356285 0
M  V30 5837 C 572.935 -2.29151 -0.502712 0
M  V30 5838 C 573.951 -1.34753 -1.1008 0
M  V30 5839 O 575.127 -1.67803 -1.11374 0
M  V30 5840 C 572.192 -3.05911 -1.63154 0
M  V30 5841 C 571.253 -4.15958 -1.06194 0
M  V30 5842 C 570.486 -4.8905 -2.13696 0
M  V30 5843 O 570.709 -4.61919 -3.34645 0
M  V30 5844 O 569.643 -5.75202 -1.77275 0
M  V30 5845 H 573.469 -3.03492 0.112466 0
M  V30 5846 H 571.054 -1.4891 0.120942 0
M  V30 5847 H 572.936 -3.53874 -2.28804 0
M  V30 5848 H 571.611 -2.34415 -2.23229 0
M  V30 5849 H 570.518 -3.7227 -0.369603 0
M  V30 5850 H 571.851 -4.89593 -0.505872 0
M  V30 5851 N 573.503 -0.0852151 -1.57369 0
M  V30 5852 C 574.749 0.581666 -1.94279 0
M  V30 5853 C 575.082 1.68444 -0.966446 0
M  V30 5854 O 574.357 1.945 0.00215277 0
M  V30 5855 C 574.64 1.14609 -3.41375 0
M  V30 5856 C 574.493 0.0490414 -4.49773 0
M  V30 5857 C 575.812 2.04751 -3.8957 0
M  V30 5858 H 572.931 0.209972 -0.706456 0
M  V30 5859 H 575.573 -0.153915 -1.89376 0
M  V30 5860 H 573.723 1.77297 -3.45685 0
M  V30 5861 H 575.395 -0.584721 -4.57579 0
M  V30 5862 H 573.638 -0.618638 -4.29366 0
M  V30 5863 H 574.309 0.484601 -5.49869 0
M  V30 5864 H 576.785 1.51981 -3.87351 0
M  V30 5865 H 575.661 2.41173 -4.93079 0
M  V30 5866 H 575.922 2.96107 -3.28288 0
M  V30 5867 N 574.981 1.5647 0.188427 0
M  V30 5868 C 576.209 1.85131 0.923803 0
M  V30 5869 C 576.624 0.668537 1.76567 0
M  V30 5870 O 575.981 -0.362662 1.7886 0
M  V30 5871 C 576.032 3.12661 1.81453 0
M  V30 5872 O 575.753 4.26378 1.00665 0
M  V30 5873 C 577.254 3.54548 2.66103 0
M  V30 5874 H 574.474 0.614624 0.269218 0
M  V30 5875 H 577.018 2.03581 0.193671 0
M  V30 5876 H 575.173 2.96088 2.49821 0
M  V30 5877 H 575.587 4.99041 1.61425 0
M  V30 5878 H 577.061 4.4673 3.24247 0
M  V30 5879 H 577.538 2.77853 3.40139 0
M  V30 5880 H 578.144 3.73674 2.03096 0
M  V30 5881 N 576.459 -0.456382 1.50847 0
M  V30 5882 C 577.389 -1.56025 1.73719 0
M  V30 5883 C 578.37 -1.5967 0.586473 0
M  V30 5884 O 579.555 -1.75702 0.827185 0
M  V30 5885 C 576.685 -2.94251 1.84483 0
M  V30 5886 C 575.639 -3.05471 2.99786 0
M  V30 5887 C 574.965 -4.45489 2.95709 0
M  V30 5888 C 576.265 -2.81318 4.40065 0
M  V30 5889 H 577.959 -1.37138 2.66146 0
M  V30 5890 H 575.505 -0.658299 1.28072 0
M  V30 5891 H 577.458 -3.71417 1.99067 0
M  V30 5892 H 576.182 -3.14328 0.886891 0
M  V30 5893 H 574.841 -2.30741 2.84876 0
M  V30 5894 H 574.489 -4.62505 1.97732 0
M  V30 5895 H 574.189 -4.53929 3.73125 0
M  V30 5896 H 575.713 -5.24655 3.12362 0
M  V30 5897 H 577.127 -3.48226 4.55425 0
M  V30 5898 H 575.524 -3.01188 5.19043 0
M  V30 5899 H 576.594 -1.7706 4.51418 0
M  V30 5900 N 577.937 -1.40673 -0.710563 0
M  V30 5901 C 578.847 -1.43663 -1.85467 0
M  V30 5902 C 579.863 -0.328721 -1.70867 0
M  V30 5903 O 581.039 -0.574098 -1.93044 0
M  V30 5904 C 578.104 -1.30226 -3.21313 0
M  V30 5905 C 577.165 -2.51204 -3.48131 0
M  V30 5906 C 576.398 -2.38398 -4.77495 0
M  V30 5907 O 576.621 -1.40048 -5.5294 0
M  V30 5908 O 575.555 -3.2787 -5.04762 0
M  V30 5909 H 579.381 -2.40156 -1.859 0
M  V30 5910 H 576.966 -1.22049 -0.861652 0
M  V30 5911 H 578.848 -1.2496 -4.02446 0
M  V30 5912 H 577.523 -0.368419 -3.21597 0
M  V30 5913 H 576.43 -2.62048 -2.66987 0
M  V30 5914 H 577.763 -3.43366 -3.52648 0
M  V30 5915 N 579.415 0.9433 -1.26252 0
M  V30 5916 C 580.345 2.05902 -1.10122 0
M  V30 5917 C 581.326 1.70099 -0.00700552 0
M  V30 5918 O 582.511 1.93377 -0.178641 0
M  V30 5919 C 579.641 3.39516 -0.731175 0
M  V30 5920 C 578.595 3.89372 -1.77688 0
M  V30 5921 C 577.921 5.19613 -1.26122 0
M  V30 5922 C 579.221 4.14489 -3.17799 0
M  V30 5923 H 580.915 2.19655 -2.03451 0
M  V30 5924 H 578.461 1.05548 -0.979576 0
M  V30 5925 H 580.414 4.17031 -0.605215 0
M  V30 5926 H 579.138 3.25733 0.23782 0
M  V30 5927 H 577.797 3.14036 -1.89148 0
M  V30 5928 H 577.445 5.02208 -0.282128 0
M  V30 5929 H 577.145 5.53939 -1.96023 0
M  V30 5930 H 578.669 5.99713 -1.14789 0
M  V30 5931 H 580.083 4.82625 -3.09428 0
M  V30 5932 H 578.48 4.60094 -3.85271 0
M  V30 5933 H 579.55 3.20347 -3.64014 0
M  V30 5934 N 580.893 1.08022 1.14757 0
M  V30 5935 C 581.825 0.664566 2.19354 0
M  V30 5936 C 582.838 -0.286374 1.60261 0
M  V30 5937 O 584.027 -0.0746362 1.78344 0
M  V30 5938 C 581.127 -0.0434634 3.38872 0
M  V30 5939 C 580.3 0.925381 4.27499 0
M  V30 5940 C 579.359 0.253398 5.2559 0
M  V30 5941 O 578.385 0.896581 5.62094 0
M  V30 5942 N 579.587 -0.998263 5.71852 0
M  V30 5943 H 582.352 1.56438 2.55631 0
M  V30 5944 H 579.913 0.965788 1.29939 0
M  V30 5945 H 581.905 -0.503857 4.01551 0
M  V30 5946 H 580.475 -0.845321 3.00954 0
M  V30 5947 H 579.695 1.56472 3.61815 0
M  V30 5948 H 580.983 1.58203 4.8358 0
M  V30 5949 H 580.381 -1.54063 5.44317 0
M  V30 5950 H 578.938 -1.40222 6.36538 0
M  V30 5951 N 582.371 -1.3172 0.865308 0
M  V30 5952 C 583.619 -1.96487 0.472995 0
M  V30 5953 C 583.94 -1.68761 -0.976975 0
M  V30 5954 O 583.21 -1.00051 -1.68424 0
M  V30 5955 H 581.79 -0.726947 0.171922 0
M  V30 5956 H 584.452 -1.60612 1.10407 0
M  V30 5957 H 583.548 -3.0574 0.62687 0
M  V30 5958 N 583.85 -0.624285 -1.44708 0
M  V30 5959 C 585.127 -0.0572781 -1.95516 0
M  V30 5960 C 585.507 1.41516 -1.56641 0
M  V30 5961 O 584.855 2.12614 -0.837111 0
M  V30 5962 C 585.065 -0.272944 -3.47931 0
M  V30 5963 C 586.413 -0.162529 -4.24289 0
M  V30 5964 O 587.437 -0.203946 -3.55616 0
M  V30 5965 O 586.296 -0.0616847 -5.46465 0
M  V30 5966 H 583.389 0.0262219 -0.826584 0
M  V30 5967 H 585.936 -0.695512 -1.54793 0
M  V30 5968 H 584.707 -1.29492 -3.69253 0
M  V30 5969 H 584.331 0.399756 -3.95585 0
M  V30 5970 N 585.328 1.53329 -0.364422 0
M  V30 5971 C 586.576 2.00842 0.225189 0
M  V30 5972 C 586.897 1.25345 1.49378 0
M  V30 5973 O 586.167 0.366396 1.92443 0
M  V30 5974 H 584.747 0.742009 0.0862027 0
M  V30 5975 H 587.409 1.8863 -0.490389 0
M  V30 5976 H 586.505 3.08795 0.452987 0
M  V30 5977 N 586.806 0.0935595 1.57322 0
M  V30 5978 C 588.031 -0.582324 1.99057 0
M  V30 5979 C 588.456 -1.61025 0.972242 0
M  V30 5980 O 587.814 -1.81202 -0.0594622 0
M  V30 5981 C 587.862 -1.20799 3.39765 0
M  V30 5982 O 586.966 -2.32382 3.40694 0
M  V30 5983 H 586.307 -0.147884 0.647323 0
M  V30 5984 H 588.837 0.174516 2.03854 0
M  V30 5985 H 588.847 -1.54966 3.77425 0
M  V30 5986 H 587.522 -0.454914 4.13405 0
M  V30 5987 H 586.099 -1.99845 3.14827 0
M  V30 5988 N 588.284 -1.56567 -0.180126 0
M  V30 5989 C 589.53 -1.81761 -0.899497 0
M  V30 5990 C 589.863 -0.670015 -1.82276 0
M  V30 5991 O 589.138 0.328575 -1.91705 0
M  V30 5992 C 589.421 -3.17296 -1.7028 0
M  V30 5993 C 589.274 -4.4257 -0.803255 0
M  V30 5994 C 590.593 -3.49678 -2.67233 0
M  V30 5995 H 587.712 -0.661192 -0.325567 0
M  V30 5996 H 590.354 -1.89272 -0.16612 0
M  V30 5997 H 588.504 -3.11023 -2.32802 0
M  V30 5998 H 590.176 -4.60902 -0.191585 0
M  V30 5999 H 588.419 -4.33658 -0.110796 0
M  V30 6000 H 589.09 -5.33935 -1.40064 0
M  V30 6001 H 591.566 -3.56347 -2.14839 0
M  V30 6002 H 590.442 -4.45605 -3.20511 0
M  V30 6003 H 590.703 -2.73932 -3.47007 0
M  V30 6004 N 589.762 0.448376 -1.51087 0
M  V30 6005 C 590.987 1.22605 -1.6728 0
M  V30 6006 C 591.412 1.84524 -0.365045 0
M  V30 6007 O 590.77 1.6832 0.673642 0
M  V30 6008 C 590.818 2.29393 -2.78229 0
M  V30 6009 O 589.922 3.34608 -2.41063 0
M  V30 6010 H 589.263 0.359705 -0.558129 0
M  V30 6011 H 591.793 0.530903 -1.97592 0
M  V30 6012 H 591.803 2.74352 -3.01986 0
M  V30 6013 H 590.478 1.83701 -3.73131 0
M  V30 6014 H 589.055 2.95202 -2.27838 0
M  V30 6015 N 591.24 1.41047 0.703093 0
M  V30 6016 C 592.188 1.42494 1.83843 0
M  V30 6017 C 593.182 0.303885 1.66652 0
M  V30 6018 O 594.388 0.475544 1.73605 0
M  V30 6019 H 590.763 0.445685 0.605697 0
M  V30 6020 H 592.734 2.38194 1.79739 0
M  V30 6021 C 591.483 1.31666 3.21807 0
M  V30 6022 H 590.806 2.17212 3.35647 0
M  V30 6023 H 592.246 1.36738 4.01346 0
M  V30 6024 C 590.705 0.0281828 3.36888 0
M  V30 6025 O 591.235 -0.929995 3.90786 0
M  V30 6026 N 589.441 -0.0454322 2.90564 0
M  V30 6027 H 588.988 0.735046 2.4689 0
M  V30 6028 H 588.946 -0.906968 3.01034 0
M  V30 6029 N 592.718 -0.936591 1.26751 0
M  V30 6030 C 593.648 -2.05315 1.11212 0
M  V30 6031 C 594.629 -1.70092 0.0160262 0
M  V30 6032 O 595.814 -1.93279 0.188894 0
M  V30 6033 C 592.944 -3.39123 0.749171 0
M  V30 6034 C 591.898 -3.88425 1.79751 0
M  V30 6035 C 591.224 -5.18936 1.28876 0
M  V30 6036 C 592.524 -4.12798 3.19992 0
M  V30 6037 H 594.218 -2.18573 2.04613 0
M  V30 6038 H 591.764 -1.05027 0.985159 0
M  V30 6039 H 593.717 -4.16704 0.627323 0
M  V30 6040 H 592.441 -3.25855 -0.220543 0
M  V30 6041 H 591.1 -3.13028 1.90811 0
M  V30 6042 H 590.748 -5.02051 0.308757 0
M  V30 6043 H 590.448 -5.52892 1.98958 0
M  V30 6044 H 591.972 -5.99096 1.17967 0
M  V30 6045 H 593.386 -4.80977 3.11983 0
M  V30 6046 H 591.783 -4.58044 3.87705 0
M  V30 6047 H 592.853 -3.18412 3.65707 0
M  V30 6048 N 594.196 -1.08629 -1.14182 0
M  V30 6049 C 595.424 -0.838889 -1.8913 0
M  V30 6050 C 595.839 0.609153 -1.78703 0
M  V30 6051 O 595.196 1.41876 -1.14794 0
M  V30 6052 C 595.247 -1.25477 -3.39025 0
M  V30 6053 O 594.968 -2.64601 -3.49167 0
M  V30 6054 C 596.469 -1.03856 -4.30963 0
M  V30 6055 H 593.689 -0.302377 -0.599007 0
M  V30 6056 H 596.233 -1.44615 -1.44592 0
M  V30 6057 H 594.388 -0.691571 -3.81177 0
M  V30 6058 H 594.802 -2.81922 -4.42289 0
M  V30 6059 H 596.276 -1.37892 -5.345 0
M  V30 6060 H 596.753 0.0242522 -4.39193 0
M  V30 6061 H 597.359 -1.58731 -3.94569 0
M  V30 6062 N 595.674 1.31259 -0.872281 0
M  V30 6063 C 596.92 1.96913 -0.485083 0
M  V30 6064 C 597.253 1.68774 0.960667 0
M  V30 6065 O 596.528 0.985495 1.67685 0
M  V30 6066 C 596.811 3.52299 -0.745502 0
M  V30 6067 C 596.664 3.90002 -2.24095 0
M  V30 6068 C 597.983 4.39582 -0.213516 0
M  V30 6069 H 595.102 0.715252 -0.177716 0
M  V30 6070 H 597.744 1.55347 -1.09395 0
M  V30 6071 H 595.894 3.87835 -0.227276 0
M  V30 6072 H 597.566 3.64555 -2.82661 0
M  V30 6073 H 595.809 3.38526 -2.71261 0
M  V30 6074 H 596.48 4.98352 -2.37381 0
M  V30 6075 H 598.956 4.10882 -0.656902 0
M  V30 6076 H 597.832 5.47251 -0.42516 0
M  V30 6077 H 598.093 4.33158 0.884666 0
M  V30 6078 N 597.152 0.631951 1.44375 0
M  V30 6079 C 598.392 0.14009 2.03919 0
M  V30 6080 C 598.756 -1.21534 1.48639 0
M  V30 6081 O 599.957 -1.79936 1.99691 0
M  V30 6082 C 598.228 0.127174 3.57174 0
M  V30 6083 S 599.787 -0.299946 4.37774 0
M  V30 6084 H 596.605 0.0614891 0.708336 0
M  V30 6085 H 599.207 0.835524 1.76746 0
M  V30 6086 H 597.911 1.11676 3.94913 0
M  V30 6087 H 597.442 -0.589482 3.88958 0
M  V30 6088 H 599.457 -1.54396 4.71568 0
M  V30 6089 N 598.631 -1.53133 0.372548 0
M  V30 6090 C 599.877 -2.01654 -0.215277 0
M  V30 6091 C 600.21 -1.25914 -1.47849 0
M  V30 6092 O 599.485 -0.3548 -1.91237 0
M  V30 6093 C 599.768 -3.56609 -0.500187 0
M  V30 6094 C 599.621 -4.43036 0.777145 0
M  V30 6095 C 600.94 -4.20528 -1.29786 0
M  V30 6096 H 598.059 -0.732991 -0.0767686 0
M  V30 6097 H 600.701 -1.83335 0.498814 0
M  V30 6098 H 598.851 -3.7235 -1.10852 0
M  V30 6099 H 600.523 -4.39079 1.41447 0
M  V30 6100 H 598.766 -4.10723 1.39604 0
M  V30 6101 H 599.437 -5.49424 0.532662 0
M  V30 6102 H 601.913 -4.08663 -0.783198 0
M  V30 6103 H 600.789 -5.28962 -1.46596 0
M  V30 6104 H 601.05 -3.77051 -2.30836 0
M  V30 6105 N 600.109 -0.101901 -1.5727 0
M  V30 6106 C 601.072 0.840129 -2.13247 0
M  V30 6107 C 602.072 1.20625 -1.06331 0
M  V30 6108 O 603.262 1.13456 -1.32186 0
M  V30 6109 C 600.394 2.13372 -2.65867 0
M  V30 6110 H 601.587 0.353945 -2.97804 0
M  V30 6111 H 599.14 0.147167 -1.55606 0
M  V30 6112 H 599.875 2.66461 -1.84849 0
M  V30 6113 H 599.66 1.88085 -3.44044 0
M  V30 6114 H 601.15 2.80748 -3.09145 0
M  V30 6115 N 601.587 1.56661 0.17182 0
M  V30 6116 C 602.55 1.9549 1.19651 0
M  V30 6117 C 603.55 0.838501 1.37207 0
M  V30 6118 O 604.74 1.10556 1.34622 0
M  V30 6119 C 601.872 2.24927 2.56166 0
M  V30 6120 H 603.065 2.87184 0.864007 0
M  V30 6121 H 600.618 1.50711 0.41425 0
M  V30 6122 H 601.353 1.35944 2.94431 0
M  V30 6123 H 601.138 3.06301 2.4479 0
M  V30 6124 H 602.628 2.55891 3.30014 0
M  V30 6125 N 603.065 -0.440357 1.51323 0
M  V30 6126 C 604.295 -1.21079 1.67402 0
M  V30 6127 C 604.703 -1.85555 0.369599 0
M  V30 6128 O 604.046 -1.71375 -0.661525 0
M  V30 6129 C 604.108 -2.33839 2.73056 0
M  V30 6130 C 603.772 -1.89755 4.15743 0
M  V30 6131 C 604.769 -1.40268 5.0062 0
M  V30 6132 C 602.454 -1.97539 4.61826 0
M  V30 6133 C 604.448 -0.991474 6.29642 0
M  V30 6134 C 602.135 -1.56029 5.90845 0
M  V30 6135 C 603.133 -1.06915 6.7458 0
M  V30 6136 O 602.821 -0.659933 8.01187 0
M  V30 6137 H 602.553 -0.371133 0.56501 0
M  V30 6138 H 605.107 -0.528409 1.98487 0
M  V30 6139 H 603.337 -3.05345 2.37279 0
M  V30 6140 H 605.026 -2.95713 2.78044 0
M  V30 6141 H 605.792 -1.33652 4.66221 0
M  V30 6142 H 601.671 -2.34713 3.96776 0
M  V30 6143 H 605.215 -0.607425 6.9495 0
M  V30 6144 H 601.112 -1.62315 6.24759 0
M  V30 6145 H 601.88 -0.786052 8.14717 0
M  V30 6146 N 604.543 -1.41418 -0.695603 0
M  V30 6147 C 605.771 -1.4413 -1.48439 0
M  V30 6148 C 606.186 -0.0465698 -1.88743 0
M  V30 6149 O 605.543 0.934117 -1.56782 0
M  V30 6150 C 605.594 -2.34998 -2.74696 0
M  V30 6151 O 605.315 -3.69043 -2.36091 0
M  V30 6152 C 606.816 -2.46513 -3.68438 0
M  V30 6153 H 604.036 -0.490905 -0.457442 0
M  V30 6154 H 606.58 -1.85702 -0.856454 0
M  V30 6155 H 604.735 -1.96735 -3.33728 0
M  V30 6156 H 605.149 -4.17505 -3.17474 0
M  V30 6157 H 606.623 -3.1426 -4.53811 0
M  V30 6158 H 607.1 -1.49638 -4.12922 0
M  V30 6159 H 607.706 -2.85412 -3.1531 0
M  V30 6160 N 606.021 0.929856 -1.27246 0
M  V30 6161 C 606.984 2.01172 -1.09829 0
M  V30 6162 C 607.984 1.60743 -0.0429687 0
M  V30 6163 O 609.174 1.71813 -0.287373 0
M  V30 6164 C 606.306 3.34191 -0.673003 0
M  V30 6165 H 607.499 2.18054 -2.05895 0
M  V30 6166 H 605.052 1.11036 -1.10003 0
M  V30 6167 H 605.787 3.23009 0.289134 0
M  V30 6168 H 605.572 3.64892 -1.43515 0
M  V30 6169 H 607.062 4.13646 -0.573323 0
M  V30 6170 N 607.499 1.09233 1.13605 0
M  V30 6171 C 608.462 0.733553 2.17144 0
M  V30 6172 C 609.462 -0.235873 1.59061 0
M  V30 6173 O 610.652 -0.0143167 1.74194 0
M  V30 6174 C 607.784 0.084471 3.40795 0
M  V30 6175 H 608.977 1.65049 2.50397 0
M  V30 6176 H 606.53 0.891264 1.28399 0
M  V30 6177 H 607.265 -0.843795 3.1313 0
M  V30 6178 H 607.05 0.781985 3.84223 0
M  V30 6179 H 608.54 -0.151216 4.17326 0
M  V30 6180 N 608.977 -1.30795 0.87923 0
M  V30 6181 C 610.225 -1.95974 0.493809 0
M  V30 6182 C 610.546 -1.69787 -0.959021 0
M  V30 6183 O 609.816 -1.01832 -1.67353 0
M  V30 6184 H 608.396 -0.725083 0.179622 0
M  V30 6185 H 611.058 -1.59432 1.12105 0
M  V30 6186 H 610.154 -3.05058 0.659263 0
M  V30 6187 N 610.455 -0.639598 -1.44038 0
M  V30 6188 C 611.732 -0.078012 -1.95444 0
M  V30 6189 C 612.112 1.39847 -1.58133 0
M  V30 6190 O 611.46 2.11714 -0.859614 0
M  V30 6191 C 611.67 -0.309832 -3.47622 0
M  V30 6192 C 613.018 -0.207521 -4.24093 0
M  V30 6193 O 614.042 -0.241653 -3.55379 0
M  V30 6194 O 612.901 -0.119641 -5.46369 0
M  V30 6195 H 609.995 0.0174534 -0.826816 0
M  V30 6196 H 612.541 -0.711891 -1.54046 0
M  V30 6197 H 611.313 -1.33401 -3.67858 0
M  V30 6198 H 610.936 0.357777 -3.95987 0
M  V30 6199 N 611.933 1.52934 -0.380664 0
M  V30 6200 C 613.181 2.01069 0.203874 0
M  V30 6201 C 613.502 1.26922 1.4804 0
M  V30 6202 O 612.772 0.386787 1.92044 0
M  V30 6203 H 611.352 0.742882 0.0783279 0
M  V30 6204 H 614.014 1.88099 -0.510368 0
M  V30 6205 H 613.11 3.09258 0.42021 0
M  V30 6206 N 613.412 0.11024 1.57214 0
M  V30 6207 C 614.823 -0.416527 1.81994 0
M  V30 6208 C 615.174 -1.67183 1.02686 0
M  V30 6209 O 614.299 -2.14823 0.260782 0
M  V30 6210 C 614.894 -0.762466 3.30109 0
M  V30 6211 C 613.453 -1.23391 3.556 0
M  V30 6212 C 612.6 -0.238166 2.76275 0
M  V30 6213 H 615.551 0.335491 1.55113 0
M  V30 6214 H 615.572 -1.62068 3.44259 0
M  V30 6215 H 615.084 0.151346 3.87805 0
M  V30 6216 H 613.185 -2.16492 3.03253 0
M  V30 6217 H 613.298 -1.18528 4.64207 0
M  V30 6218 H 611.662 -0.723421 2.4421 0
M  V30 6219 H 612.445 0.668591 3.36727 0
M  V30 6220 N 614.89 -1.56749 -0.16351 0
M  V30 6221 C 616.136 -1.83597 -0.875436 0
M  V30 6222 C 616.491 -0.691907 -1.79528 0
M  V30 6223 O 615.784 0.311193 -1.89056 0
M  V30 6224 C 615.978 -3.14342 -1.70071 0
M  V30 6225 C 615.807 -4.41356 -0.862265 0
M  V30 6226 C 614.577 -5.02467 -0.534299 0
M  V30 6227 C 616.775 -5.1391 -0.200203 0
M  V30 6228 N 614.757 -6.13068 0.31947 0
M  V30 6229 C 616.128 -6.17862 0.514398 0
M  V30 6230 C 618.183 -4.97757 -0.119171 0
M  V30 6231 C 616.886 -7.07412 1.30236 0
M  V30 6232 C 618.912 -5.87756 0.655477 0
M  V30 6233 C 618.274 -6.91178 1.35842 0
M  V30 6234 H 614.373 -0.722702 -0.298708 0
M  V30 6235 H 616.957 -1.94182 -0.141883 0
M  V30 6236 H 615.128 -3.04933 -2.40562 0
M  V30 6237 H 616.86 -3.29156 -2.35453 0
M  V30 6238 H 613.615 -4.65611 -0.866222 0
M  V30 6239 H 614.039 -6.72978 0.736893 0
M  V30 6240 H 618.681 -4.178 -0.648278 0
M  V30 6241 H 616.399 -7.86808 1.84278 0
M  V30 6242 H 619.985 -5.77328 0.719948 0
M  V30 6243 H 618.865 -7.59614 1.94822 0
M  V30 6244 N 616.368 0.432326 -1.51554 0
M  V30 6245 C 617.593 1.20824 -1.68571 0
M  V30 6246 C 618.018 1.84126 -0.384596 0
M  V30 6247 O 617.376 1.69025 0.655751 0
M  V30 6248 C 617.424 2.26429 -2.80646 0
M  V30 6249 O 616.528 3.32032 -2.44598 0
M  V30 6250 H 615.869 0.353765 -0.561913 0
M  V30 6251 H 618.399 0.509916 -1.98144 0
M  V30 6252 H 618.409 2.71133 -3.04878 0
M  V30 6253 H 617.084 1.79733 -3.75058 0
M  V30 6254 H 615.661 2.92769 -2.30956 0
M  V30 6255 N 617.846 1.41785 0.688094 0
M  V30 6256 C 618.776 1.47 1.8142 0
M  V30 6257 C 619.757 0.327881 1.6691 0
M  V30 6258 O 620.942 0.540362 1.86531 0
M  V30 6259 C 618.072 1.35876 3.19617 0
M  V30 6260 C 617.026 2.47976 3.48844 0
M  V30 6261 C 616.352 2.21915 4.86475 0
M  V30 6262 C 617.652 3.90309 3.47068 0
M  V30 6263 H 619.346 2.41247 1.77314 0
M  V30 6264 H 616.892 1.16116 0.851651 0
M  V30 6265 H 618.845 1.38134 3.98117 0
M  V30 6266 H 617.569 0.38116 3.24368 0
M  V30 6267 H 616.228 2.45013 2.72698 0
M  V30 6268 H 615.876 1.2248 4.8786 0
M  V30 6269 H 615.576 2.97037 5.06994 0
M  V30 6270 H 617.1 2.25901 5.67275 0
M  V30 6271 H 618.514 3.94947 4.1556 0
M  V30 6272 H 616.911 4.65175 3.7912 0
M  V30 6273 H 617.981 4.17927 2.45896 0
M  V30 6274 N 619.324 -0.923095 1.27737 0
M  V30 6275 C 620.735 -1.48626 1.12993 0
M  V30 6276 C 621.086 -1.94142 -0.283439 0
M  V30 6277 O 620.211 -1.81605 -1.17681 0
M  V30 6278 C 620.806 -2.70117 2.04505 0
M  V30 6279 C 619.365 -3.22642 1.93853 0
M  V30 6280 C 618.512 -1.95368 1.96791 0
M  V30 6281 H 621.463 -0.736737 1.40563 0
M  V30 6282 H 621.484 -3.4506 1.60356 0
M  V30 6283 H 620.996 -2.36959 3.07363 0
M  V30 6284 H 619.097 -3.60549 0.939968 0
M  V30 6285 H 619.21 -3.88525 2.80331 0
M  V30 6286 H 617.574 -2.12061 1.41076 0
M  V30 6287 H 618.357 -1.64517 3.01312 0
M  V30 6288 N 620.802 -1.09834 -1.13024 0
M  V30 6289 C 622.048 -0.83819 -1.84668 0
M  V30 6290 C 622.381 0.634645 -1.83537 0
M  V30 6291 O 621.656 1.46753 -1.27647 0
M  V30 6292 C 621.939 -1.37933 -3.32636 0
M  V30 6293 C 621.792 -2.91857 -3.42257 0
M  V30 6294 C 623.111 -1.01654 -4.28199 0
M  V30 6295 H 620.23 -0.30595 -0.670495 0
M  V30 6296 H 622.872 -1.36044 -1.32635 0
M  V30 6297 H 621.022 -0.935111 -3.77078 0
M  V30 6298 H 622.694 -3.44759 -3.06495 0
M  V30 6299 H 620.937 -3.28776 -2.83 0
M  V30 6300 H 621.608 -3.24799 -4.46329 0
M  V30 6301 H 624.084 -1.39973 -3.9185 0
M  V30 6302 H 622.96 -1.42217 -5.30156 0
M  V30 6303 H 623.221 0.0747794 -4.42037 0
M  V30 6304 N 622.28 1.30327 -0.886154 0
M  V30 6305 C 623.691 1.78243 -0.555554 0
M  V30 6306 C 624.042 1.72849 0.928314 0
M  V30 6307 O 623.167 1.30607 1.72542 0
M  V30 6308 C 623.762 3.23654 -1.00168 0
M  V30 6309 C 622.321 3.69401 -0.722471 0
M  V30 6310 C 621.468 2.50753 -1.18399 0
M  V30 6311 H 624.419 1.1718 -1.07026 0
M  V30 6312 H 624.44 3.79056 -0.331152 0
M  V30 6313 H 623.952 3.27548 -2.08169 0
M  V30 6314 H 622.053 3.70995 0.345496 0
M  V30 6315 H 622.166 4.60818 -1.31085 0
M  V30 6316 H 620.53 2.47452 -0.603303 0
M  V30 6317 H 621.313 2.57383 -2.27176 0
M  V30 6318 N 623.758 0.647228 1.43697 0
M  V30 6319 C 624.688 -0.0345631 2.33474 0
M  V30 6320 C 625.669 -0.818193 1.4913 0
M  V30 6321 O 626.854 -0.780867 1.77809 0
M  V30 6322 C 623.984 -1.00576 3.32418 0
M  V30 6323 C 622.938 -0.33266 4.26705 0
M  V30 6324 C 622.264 -1.41489 5.1564 0
M  V30 6325 C 623.564 0.771204 5.16575 0
M  V30 6326 H 625.258 0.715163 2.90733 0
M  V30 6327 H 622.804 0.345364 1.39797 0
M  V30 6328 H 624.757 -1.49159 3.94119 0
M  V30 6329 H 623.481 -1.78657 2.73403 0
M  V30 6330 H 622.14 0.13267 3.6636 0
M  V30 6331 H 621.788 -2.18698 4.52968 0
M  V30 6332 H 621.488 -0.969799 5.79542 0
M  V30 6333 H 623.012 -1.9022 5.80214 0
M  V30 6334 H 624.426 0.36779 5.72119 0
M  V30 6335 H 622.823 1.1404 5.89165 0
M  V30 6336 H 623.893 1.63169 4.56622 0
M  V30 6337 N 625.236 -1.5273 0.388769 0
M  V30 6338 C 626.146 -2.30165 -0.453993 0
M  V30 6339 C 627.162 -1.37058 -1.07197 0
M  V30 6340 O 628.338 -1.70127 -1.0779 0
M  V30 6341 C 625.403 -3.09303 -1.56628 0
M  V30 6342 C 624.464 -4.18117 -0.973467 0
M  V30 6343 C 623.697 -4.93472 -2.03275 0
M  V30 6344 O 623.92 -4.68913 -3.24772 0
M  V30 6345 O 622.854 -5.78833 -1.65034 0
M  V30 6346 H 626.68 -3.03185 0.176816 0
M  V30 6347 H 624.265 -1.4862 0.152501 0
M  V30 6348 H 626.147 -3.58648 -2.21246 0
M  V30 6349 H 624.822 -2.39098 -2.18206 0
M  V30 6350 H 623.729 -3.7297 -0.290556 0
M  V30 6351 H 625.062 -4.90556 -0.401908 0
M  V30 6352 N 626.714 -0.118576 -1.57153 0
M  V30 6353 C 627.677 0.817464 -2.14127 0
M  V30 6354 C 628.677 1.1949 -1.07604 0
M  V30 6355 O 629.867 1.12048 -1.33382 0
M  V30 6356 C 626.999 2.10541 -2.68115 0
M  V30 6357 H 628.192 0.322339 -2.98163 0
M  V30 6358 H 625.745 0.130655 -1.55753 0
M  V30 6359 H 626.48 2.64485 -1.87665 0
M  V30 6360 H 626.265 1.84425 -3.4602 0
M  V30 6361 H 627.755 2.77453 -3.12105 0
M  V30 6362 N 628.193 1.56834 0.155195 0
M  V30 6363 C 629.439 1.84058 0.865687 0
M  V30 6364 C 629.794 0.701418 1.79159 0
M  V30 6365 O 629.087 -0.301162 1.89218 0
M  V30 6366 C 629.281 3.15239 1.68402 0
M  V30 6367 C 629.11 4.41807 0.838847 0
M  V30 6368 C 627.88 5.02744 0.507645 0
M  V30 6369 C 630.078 5.14009 0.172946 0
M  V30 6370 N 628.06 6.1289 -0.351978 0
M  V30 6371 C 629.431 6.17581 -0.547158 0
M  V30 6372 C 631.486 4.97814 0.0927721 0
M  V30 6373 C 630.189 7.06711 -1.33985 0
M  V30 6374 C 632.215 5.874 -0.686638 0
M  V30 6375 C 631.577 6.90447 -1.39505 0
M  V30 6376 H 627.676 0.724276 0.294871 0
M  V30 6377 H 630.26 1.94255 0.131583 0
M  V30 6378 H 628.431 3.06205 2.38942 0
M  V30 6379 H 630.163 3.304 2.33705 0
M  V30 6380 H 626.918 4.66064 0.841517 0
M  V30 6381 H 627.342 6.72577 -0.772573 0
M  V30 6382 H 631.984 4.18138 0.626112 0
M  V30 6383 H 629.702 7.8582 -1.88448 0
M  V30 6384 H 633.288 5.76938 -0.750555 0
M  V30 6385 H 632.168 7.58571 -1.98847 0
M  V30 6386 N 629.671 -0.424282 1.51781 0
M  V30 6387 C 631.087 -0.761768 1.40247 0
M  V30 6388 C 631.287 -1.95324 0.495041 0
M  V30 6389 O 630.343 -2.5246 -0.0448949 0
M  V30 6390 C 631.656 -1.0299 2.82513 0
M  V30 6391 C 633.204 -1.13354 2.91753 0
M  V30 6392 C 633.679 -1.43453 4.34954 0
M  V30 6393 N 635.17 -1.5035 4.3812 0
M  V30 6394 C 635.905 -1.75236 5.45967 0
M  V30 6395 N 635.401 -1.97827 6.63955 0
M  V30 6396 N 637.194 -1.77126 5.33463 0
M  V30 6397 H 629.345 0.360228 2.09323 0
M  V30 6398 H 631.608 0.0988128 0.942836 0
M  V30 6399 H 631.314 -0.226961 3.50967 0
M  V30 6400 H 631.188 -1.95411 3.22637 0
M  V30 6401 H 633.575 -1.92709 2.23489 0
M  V30 6402 H 633.656 -0.188041 2.55108 0
M  V30 6403 H 633.3 -0.646209 5.03772 0
M  V30 6404 H 633.23 -2.3923 4.69123 0
M  V30 6405 H 635.721 -1.34742 3.53062 0
M  V30 6406 H 636.034 -2.16223 7.41935 0
M  V30 6407 H 634.379 -1.95123 6.67047 0
M  V30 6408 H 637.57 -1.59005 4.40267 0
M  V30 6409 H 637.743 -1.96182 6.17589 0
M  V30 6410 N 631.149 -1.42148 -0.680565 0
M  V30 6411 C 632.56 -1.3768 -1.26099 0
M  V30 6412 C 632.911 -0.0672348 -1.96085 0
M  V30 6413 O 632.036 0.834172 -1.99676 0
M  V30 6414 C 632.631 -2.49387 -2.29328 0
M  V30 6415 C 631.19 -2.4827 -2.82911 0
M  V30 6416 C 630.337 -2.2847 -1.57152 0
M  V30 6417 H 633.288 -1.51446 -0.474326 0
M  V30 6418 H 633.309 -2.19307 -3.10941 0
M  V30 6419 H 632.821 -3.44686 -1.78363 0
M  V30 6420 H 630.922 -1.56773 -3.38013 0
M  V30 6421 H 631.035 -3.45109 -3.3232 0
M  V30 6422 H 629.399 -1.76623 -1.83511 0
M  V30 6423 H 630.182 -3.25816 -1.0816 0
M  V30 6424 N 632.627 0.916307 -1.28225 0
M  V30 6425 C 633.875 1.6619 -1.15002 0
M  V30 6426 C 634.196 1.92642 0.302329 0
M  V30 6427 O 633.466 1.54076 1.20985 0
M  V30 6428 H 632.046 0.615964 -0.422608 0
M  V30 6429 H 634.708 1.09963 -1.60917 0
M  V30 6430 H 633.804 2.62533 -1.68769 0
M  V30 6431 N 634.105 1.10431 1.1244 0
M  V30 6432 C 635.037 0.710945 2.17895 0
M  V30 6433 C 636.05 -0.252315 1.60833 0
M  V30 6434 O 637.239 -0.03679 1.78462 0
M  V30 6435 C 634.339 0.0284262 3.38888 0
M  V30 6436 C 633.512 1.01585 4.2544 0
M  V30 6437 C 632.571 0.364826 5.24934 0
M  V30 6438 O 631.597 1.01561 5.60066 0
M  V30 6439 N 632.799 -0.87674 5.73841 0
M  V30 6440 H 635.564 1.61826 2.52255 0
M  V30 6441 H 633.125 0.993132 1.27861 0
M  V30 6442 H 635.117 -0.418568 4.0253 0
M  V30 6443 H 633.687 -0.781294 3.02679 0
M  V30 6444 H 632.907 1.64111 3.58415 0
M  V30 6445 H 634.195 1.68425 4.80115 0
M  V30 6446 H 633.593 -1.42483 5.47462 0
M  V30 6447 H 632.15 -1.26688 6.39369 0
M  V30 6448 N 635.583 -1.29855 0.893053 0
M  V30 6449 C 636.546 -2.26183 0.370687 0
M  V30 6450 C 637.546 -1.53108 -0.491385 0
M  V30 6451 O 638.736 -1.71643 -0.297386 0
M  V30 6452 C 635.868 -3.37633 -0.470827 0
M  V30 6453 H 637.061 -2.73903 1.22135 0
M  V30 6454 H 634.614 -1.41183 0.67061 0
M  V30 6455 H 635.349 -2.95241 -1.34175 0
M  V30 6456 H 635.134 -3.91825 0.146784 0
M  V30 6457 H 636.624 -4.09313 -0.827825 0
M  V30 6458 N 637.061 -0.65484 -1.43351 0
M  V30 6459 C 637.993 0.0744757 -2.29079 0
M  V30 6460 C 639.006 0.7855 -1.42596 0
M  V30 6461 O 640.195 0.642986 -1.66517 0
M  V30 6462 C 637.295 1.12859 -3.19556 0
M  V30 6463 C 636.468 0.495381 -4.34586 0
M  V30 6464 C 635.527 1.44659 -5.05925 0
M  V30 6465 O 634.553 0.954567 -5.61139 0
M  V30 6466 N 635.755 2.78051 -5.09576 0
M  V30 6467 H 638.52 -0.661346 -2.92312 0
M  V30 6468 H 636.081 -0.497744 -1.54059 0
M  V30 6469 H 638.073 1.76577 -3.64147 0
M  V30 6470 H 636.643 1.76636 -2.57912 0
M  V30 6471 H 635.863 -0.32092 -3.92892 0
M  V30 6472 H 637.151 0.0534203 -5.08772 0
M  V30 6473 H 636.549 3.20584 -4.66093 0
M  V30 6474 H 635.106 3.37068 -5.57878 0
M  V30 6475 N 638.539 1.52521 -0.396863 0
M  V30 6476 C 639.95 1.86547 0.0754868 0
M  V30 6477 C 640.301 1.31621 1.45501 0
M  V30 6478 O 639.426 0.650563 2.0639 0
M  V30 6479 C 640.021 3.38495 0.143754 0
M  V30 6480 C 638.58 3.72205 0.560413 0
M  V30 6481 C 637.727 2.75954 -0.272856 0
M  V30 6482 H 640.678 1.46323 -0.614434 0
M  V30 6483 H 640.699 3.68153 0.961425 0
M  V30 6484 H 640.211 3.78442 -0.860415 0
M  V30 6485 H 638.312 3.3783 1.57167 0
M  V30 6486 H 638.425 4.78074 0.313314 0
M  V30 6487 H 636.789 2.53339 0.263 0
M  V30 6488 H 637.572 3.1874 -1.27515 0
M  V30 6489 N 640.017 0.126909 1.57088 0
M  V30 6490 C 641.263 -0.529952 1.95753 0
M  V30 6491 C 641.596 -1.65823 1.01077 0
M  V30 6492 O 640.871 -1.94437 0.0494162 0
M  V30 6493 C 641.154 -1.05517 3.44294 0
M  V30 6494 C 641.007 0.0702253 4.49745 0
M  V30 6495 C 642.326 -1.9435 3.94862 0
M  V30 6496 H 639.445 -0.191168 0.711775 0
M  V30 6497 H 642.087 0.204071 1.88901 0
M  V30 6498 H 640.237 -1.68069 3.50264 0
M  V30 6499 H 641.909 0.705834 4.55868 0
M  V30 6500 H 640.152 0.732259 4.27575 0
M  V30 6501 H 640.823 -0.338642 5.5096 0
M  V30 6502 H 643.299 -1.41658 3.91244 0
M  V30 6503 H 642.175 -2.28015 4.993 0
M  V30 6504 H 642.436 -2.87299 3.36024 0
M  V30 6505 N 641.495 -1.56914 -0.146875 0
M  V30 6506 C 642.445 -1.94693 -1.18653 0
M  V30 6507 C 643.429 -0.81821 -1.38543 0
M  V30 6508 O 644.621 -1.08167 -1.40103 0
M  V30 6509 C 641.75 -2.33117 -2.52014 0
M  V30 6510 C 640.836 -3.5256 -2.35717 0
M  V30 6511 N 641.227 -4.69091 -1.89175 0
M  V30 6512 C 639.525 -3.57647 -2.66467 0
M  V30 6513 C 640.226 -5.51187 -1.85924 0
M  V30 6514 N 639.202 -4.92899 -2.29242 0
M  V30 6515 H 643.004 -2.82264 -0.81879 0
M  V30 6516 H 640.518 -1.58474 -0.354929 0
M  V30 6517 H 642.515 -2.58387 -3.27172 0
M  V30 6518 H 641.175 -1.46898 -2.89571 0
M  V30 6519 H 642.186 -4.92844 -1.59139 0
M  V30 6520 H 638.863 -2.81967 -3.07898 0
M  V30 6521 H 640.253 -6.54613 -1.51431 0
M  V30 6522 N 642.974 0.416227 -1.52004 0
M  V30 6523 C 643.906 1.52552 -1.71058 0
M  V30 6524 C 644.919 1.51693 -0.59102 0
M  V30 6525 O 646.108 1.56087 -0.865973 0
M  V30 6526 C 643.208 2.91455 -1.72937 0
M  V30 6527 C 642.381 3.16584 -3.01816 0
M  V30 6528 C 641.44 4.35322 -2.95603 0
M  V30 6529 O 640.466 4.32947 -3.6952 0
M  V30 6530 N 641.668 5.40049 -2.12903 0
M  V30 6531 H 644.433 1.36604 -2.66757 0
M  V30 6532 H 641.994 0.60544 -1.50153 0
M  V30 6533 H 643.986 3.68944 -1.66321 0
M  V30 6534 H 642.556 3.00895 -0.847418 0
M  V30 6535 H 641.776 2.27203 -3.22137 0
M  V30 6536 H 643.064 3.30213 -3.87088 0
M  V30 6537 H 642.462 5.44823 -1.52265 0
M  V30 6538 H 641.019 6.16308 -2.1215 0
M  V30 6539 N 644.452 1.42507 0.673017 0
M  V30 6540 C 645.382 1.48916 1.79851 0
M  V30 6541 C 646.363 0.345566 1.66553 0
M  V30 6542 O 647.548 0.560116 1.85947 0
M  V30 6543 C 644.678 1.39258 3.18158 0
M  V30 6544 C 643.632 2.51662 3.46194 0
M  V30 6545 C 642.958 2.27062 4.84094 0
M  V30 6546 C 644.258 3.93968 3.42909 0
M  V30 6547 H 645.952 2.43114 1.74745 0
M  V30 6548 H 643.498 1.17013 0.839288 0
M  V30 6549 H 645.451 1.42349 3.96629 0
M  V30 6550 H 644.175 0.415542 3.23946 0
M  V30 6551 H 642.834 2.47891 2.70084 0
M  V30 6552 H 642.482 1.27648 4.86534 0
M  V30 6553 H 642.182 3.02398 5.03815 0
M  V30 6554 H 643.706 2.31905 5.64847 0
M  V30 6555 H 645.12 3.99332 4.11347 0
M  V30 6556 H 643.517 4.6917 3.74165 0
M  V30 6557 H 644.587 4.20512 2.41449 0
M  V30 6558 N 645.93 -0.909495 1.28709 0
M  V30 6559 C 647.176 -1.66151 1.16283 0
M  V30 6560 C 647.509 -1.92067 -0.287069 0
M  V30 6561 O 646.784 -1.52409 -1.20837 0
M  V30 6562 C 647.067 -3.01676 1.9663 0
M  V30 6563 C 646.92 -2.82888 3.49707 0
M  V30 6564 C 648.239 -4.02274 1.78504 0
M  V30 6565 H 645.358 -0.602966 0.423793 0
M  V30 6566 H 648 -1.05418 1.58073 0
M  V30 6567 H 646.15 -3.53515 1.61119 0
M  V30 6568 H 647.822 -2.38026 3.95147 0
M  V30 6569 H 646.065 -2.17862 3.75125 0
M  V30 6570 H 646.736 -3.79147 4.01187 0
M  V30 6571 H 649.212 -3.59511 2.09503 0
M  V30 6572 H 648.088 -4.95056 2.37088 0
M  V30 6573 H 648.349 -4.35903 0.737647 0
M  V30 6574 N 647.408 -1.11026 -1.11852 0
M  V30 6575 C 648.355 -0.764662 -2.17765 0
M  V30 6576 C 649.325 0.261854 -1.64023 0
M  V30 6577 O 650.51 0.139748 -1.90288 0
M  V30 6578 C 647.65 -0.209317 -3.44465 0
M  V30 6579 C 646.763 -1.29187 -4.12231 0
M  V30 6580 C 645.898 -0.697523 -5.266 0
M  V30 6581 C 644.937 -1.76023 -5.86244 0
M  V30 6582 N 644.074 -1.18569 -6.92016 0
M  V30 6583 H 648.914 -1.67202 -2.46673 0
M  V30 6584 H 646.451 -0.835065 -1.21099 0
M  V30 6585 H 648.409 0.130599 -4.16996 0
M  V30 6586 H 647.039 0.661251 -3.15955 0
M  V30 6587 H 646.091 -1.74881 -3.37818 0
M  V30 6588 H 647.403 -2.09607 -4.52622 0
M  V30 6589 H 646.557 -0.307412 -6.05921 0
M  V30 6590 H 645.296 0.138044 -4.87505 0
M  V30 6591 H 644.301 -2.1597 -5.05606 0
M  V30 6592 H 645.526 -2.59875 -6.27409 0
M  V30 6593 H 643.472 -0.371695 -6.54946 0
M  V30 6594 H 643.389 -1.92666 -7.31038 0
M  V30 6595 H 644.657 -0.82233 -7.7515 0
M  V30 6596 N 648.886 1.2938 -0.899927 0
M  V30 6597 C 649.796 2.31462 -0.382437 0
M  V30 6598 C 650.812 1.65956 0.522929 0
M  V30 6599 O 651.988 1.97131 0.412454 0
M  V30 6600 C 649.053 3.44595 0.381472 0
M  V30 6601 C 648.114 4.25692 -0.555444 0
M  V30 6602 C 647.347 5.33422 0.172102 0
M  V30 6603 O 647.57 5.53053 1.396 0
M  V30 6604 O 646.504 5.99939 -0.485491 0
M  V30 6605 H 650.33 2.77706 -1.22934 0
M  V30 6606 H 647.915 1.33821 -0.664259 0
M  V30 6607 H 649.797 4.13474 0.813442 0
M  V30 6608 H 648.472 3.00458 1.20443 0
M  V30 6609 H 647.379 3.59453 -1.03653 0
M  V30 6610 H 648.712 4.73471 -1.34483 0
M  V30 6611 N 650.364 0.662433 1.43002 0
M  V30 6612 C 651.775 0.258315 1.84904 0
M  V30 6613 C 652.126 -1.19703 1.55453 0
M  V30 6614 O 651.251 -1.91484 1.00811 0
M  V30 6615 C 651.846 0.462047 3.35635 0
M  V30 6616 C 650.405 0.112165 3.76233 0
M  V30 6617 C 649.552 0.760479 2.66668 0
M  V30 6618 H 652.503 0.865467 1.33024 0
M  V30 6619 H 652.524 -0.289646 3.79396 0
M  V30 6620 H 652.036 1.52135 3.57039 0
M  V30 6621 H 650.137 -0.944179 3.60439 0
M  V30 6622 H 650.25 0.544058 4.76001 0
M  V30 6623 H 648.614 0.192887 2.53969 0
M  V30 6624 H 649.397 1.82299 2.90898 0
M  V30 6625 N 651.842 -1.52309 0.404946 0
M  V30 6626 C 653.067 -2.06666 -0.1743 0
M  V30 6627 C 653.492 -1.27341 -1.38441 0
M  V30 6628 O 652.85 -0.302539 -1.78758 0
M  V30 6629 C 652.898 -3.57014 -0.507262 0
M  V30 6630 O 652.002 -3.80144 -1.59889 0
M  V30 6631 H 651.343 -0.663807 -0.0160273 0
M  V30 6632 H 653.873 -1.96297 0.576937 0
M  V30 6633 H 653.883 -4.00724 -0.767098 0
M  V30 6634 H 652.558 -4.14184 0.377368 0
M  V30 6635 H 651.135 -3.48316 -1.33155 0
M  V30 6636 N 653.32 -0.135238 -1.57019 0
M  V30 6637 C 654.548 0.526066 -2.001 0
M  V30 6638 C 654.963 1.59184 -1.01519 0
M  V30 6639 O 654.32 1.82497 -0.0104258 0
M  V30 6640 C 654.371 1.13744 -3.43139 0
M  V30 6641 O 654.092 0.114259 -4.37951 0
M  V30 6642 C 655.593 1.8805 -4.01438 0
M  V30 6643 H 652.813 0.137962 -0.656664 0
M  V30 6644 H 655.357 -0.226359 -2.03243 0
M  V30 6645 H 653.512 1.84056 -3.40885 0
M  V30 6646 H 653.926 0.56058 -5.21496 0
M  V30 6647 H 655.4 2.26133 -5.03555 0
M  V30 6648 H 655.877 2.76194 -3.41487 0
M  V30 6649 H 656.483 1.22464 -4.07287 0
M  V30 6650 N 654.798 1.5699 0.138552 0
M  V30 6651 C 656.209 1.73171 0.697754 0
M  V30 6652 C 656.56 0.750952 1.8126 0
M  V30 6653 O 655.685 -0.080549 2.1625 0
M  V30 6654 C 656.28 3.13996 1.27248 0
M  V30 6655 C 654.839 3.3175 1.77816 0
M  V30 6656 C 653.986 2.69084 0.669991 0
M  V30 6657 H 656.937 1.5846 -0.0871979 0
M  V30 6658 H 656.958 3.14463 2.14227 0
M  V30 6659 H 656.47 3.85354 0.460855 0
M  V30 6660 H 654.571 2.65403 2.61519 0
M  V30 6661 H 654.684 4.39768 1.90107 0
M  V30 6662 H 653.048 2.29782 1.09874 0
M  V30 6663 H 653.831 3.43053 -0.130329 0
M  V30 6664 N 656.276 -0.40816 1.52223 0
M  V30 6665 C 657.239 -1.48 1.7501 0
M  V30 6666 C 658.239 -1.48367 0.619996 0
M  V30 6667 O 659.429 -1.49874 0.887881 0
M  V30 6668 C 656.561 -2.87403 1.83336 0
M  V30 6669 H 657.754 -1.29086 2.70697 0
M  V30 6670 H 655.307 -0.638715 1.42654 0
M  V30 6671 H 656.042 -3.11686 0.895677 0
M  V30 6672 H 655.827 -2.8854 2.65494 0
M  V30 6673 H 657.317 -3.65103 2.02705 0
M  V30 6674 N 657.755 -1.42862 -0.66545 0
M  V30 6675 C 659.002 -1.4383 -1.42546 0
M  V30 6676 C 659.33 -0.0581114 -1.94413 0
M  V30 6677 O 658.585 0.935002 -1.71919 0
M  V30 6678 C 658.884 -2.4175 -2.63233 0
M  V30 6679 C 658.55 -3.87915 -2.29854 0
M  V30 6680 C 657.212 -4.27726 -2.20463 0
M  V30 6681 C 659.564 -4.80074 -2.02924 0
M  V30 6682 C 656.892 -5.57666 -1.82279 0
M  V30 6683 C 659.244 -6.10366 -1.66242 0
M  V30 6684 C 657.908 -6.49167 -1.55367 0
M  V30 6685 H 657.178 -0.52631 -0.521612 0
M  V30 6686 H 659.825 -1.75863 -0.757914 0
M  V30 6687 H 658.13 -2.03077 -3.35063 0
M  V30 6688 H 659.827 -2.39759 -3.21429 0
M  V30 6689 H 656.417 -3.564 -2.3807 0
M  V30 6690 H 660.601 -4.50097 -2.09108 0
M  V30 6691 H 655.857 -5.8658 -1.72436 0
M  V30 6692 H 660.031 -6.81258 -1.44432 0
M  V30 6693 H 657.658 -7.49761 -1.2555 0
M  V30 6694 N 659.233 0.902656 -1.29189 0
M  V30 6695 C 660.458 1.69167 -1.19989 0
M  V30 6696 C 660.883 1.86607 0.236495 0
M  V30 6697 O 660.241 1.38425 1.17082 0
M  V30 6698 C 660.289 3.05532 -1.91527 0
M  V30 6699 O 659.393 3.93621 -1.2303 0
M  V30 6700 H 658.734 0.517584 -0.415936 0
M  V30 6701 H 661.264 1.12785 -1.70706 0
M  V30 6702 H 661.274 3.55693 -1.99866 0
M  V30 6703 H 659.949 2.92156 -2.96003 0
M  V30 6704 H 658.526 3.52055 -1.22928 0
M  V30 6705 N 660.711 1.11618 1.11262 0
M  V30 6706 C 661.957 0.877377 1.83504 0
M  V30 6707 C 662.312 -0.590606 1.83111 0
M  V30 6708 O 661.605 -1.43057 1.27456 0
M  V30 6709 C 661.799 1.37529 3.2988 0
M  V30 6710 C 661.628 2.89014 3.4453 0
M  V30 6711 C 660.398 3.57157 3.57445 0
M  V30 6712 C 662.596 3.8706 3.38658 0
M  V30 6713 N 660.578 4.96842 3.60585 0
M  V30 6714 C 661.949 5.12825 3.4844 0
M  V30 6715 C 664.004 3.79593 3.22201 0
M  V30 6716 C 662.707 6.32002 3.43462 0
M  V30 6717 C 664.733 4.98282 3.18542 0
M  V30 6718 C 664.095 6.22901 3.28897 0
M  V30 6719 H 660.194 0.37422 0.686646 0
M  V30 6720 H 662.778 1.42087 1.33114 0
M  V30 6721 H 660.949 0.85895 3.78783 0
M  V30 6722 H 662.681 1.07944 3.90039 0
M  V30 6723 H 659.436 3.07628 3.60086 0
M  V30 6724 H 659.86 5.69674 3.65788 0
M  V30 6725 H 664.502 2.84149 3.1308 0
M  V30 6726 H 662.22 7.27721 3.51352 0
M  V30 6727 H 665.806 4.94226 3.06972 0
M  V30 6728 H 664.686 7.13202 3.26056 0
M  V30 6729 N 662.189 -1.289 0.906776 0
M  V30 6730 C 663.6 -1.77336 0.58384 0
M  V30 6731 C 663.951 -1.74304 -0.900697 0
M  V30 6732 O 663.076 -1.33335 -1.70443 0
M  V30 6733 C 663.671 -3.22019 1.05304 0
M  V30 6734 C 662.23 -3.68205 0.781148 0
M  V30 6735 C 661.377 -2.48837 1.22373 0
M  V30 6736 H 664.328 -1.15462 1.08877 0
M  V30 6737 H 664.349 -3.78481 0.391414 0
M  V30 6738 H 663.861 -3.24194 2.13353 0
M  V30 6739 H 661.962 -3.71497 -0.28643 0
M  V30 6740 H 662.075 -4.58675 1.384 0
M  V30 6741 H 660.439 -2.46461 0.642594 0
M  V30 6742 H 661.222 -2.53736 2.31242 0
M  V30 6743 N 663.667 -0.670007 -1.42649 0
M  V30 6744 C 664.913 -0.19923 -2.02422 0
M  V30 6745 C 665.268 1.17947 -1.52007 0
M  V30 6746 O 664.561 1.77939 -0.710512 0
M  V30 6747 C 664.755 -0.168298 -3.57004 0
M  V30 6748 C 664.584 -1.54246 -4.22419 0
M  V30 6749 C 663.354 -2.13904 -4.57792 0
M  V30 6750 C 665.552 -2.4842 -4.50324 0
M  V30 6751 N 663.534 -3.44151 -5.08364 0
M  V30 6752 C 664.905 -3.63317 -5.02395 0
M  V30 6753 C 666.96 -2.47011 -4.32308 0
M  V30 6754 C 665.663 -4.77051 -5.38345 0
M  V30 6755 C 667.689 -3.59838 -4.6933 0
M  V30 6756 C 667.051 -4.73462 -5.21549 0
M  V30 6757 H 663.15 -0.117717 -0.773089 0
M  V30 6758 H 665.734 -0.881955 -1.73579 0
M  V30 6759 H 663.905 0.483824 -3.85375 0
M  V30 6760 H 665.637 0.314914 -4.03473 0
M  V30 6761 H 662.392 -1.66441 -4.4339 0
M  V30 6762 H 662.816 -4.10846 -5.38084 0
M  V30 6763 H 667.458 -1.60394 -3.91195 0
M  V30 6764 H 665.176 -5.64347 -5.78393 0
M  V30 6765 H 668.762 -3.59969 -4.57071 0
M  V30 6766 H 667.642 -5.59321 -5.49663 0
M  V30 6767 N 665.145 1.52092 -0.413018 0
M  V30 6768 C 666.391 2.02815 0.154104 0
M  V30 6769 C 666.746 1.293 1.42475 0
M  V30 6770 O 666.039 0.391835 1.87551 0
M  V30 6771 C 666.233 3.54529 0.4521 0
M  V30 6772 C 666.062 4.4274 -0.788116 0
M  V30 6773 C 664.832 4.87903 -1.31447 0
M  V30 6774 C 667.03 4.86522 -1.66735 0
M  V30 6775 N 665.012 5.60254 -2.50976 0
M  V30 6776 C 666.383 5.57692 -2.70886 0
M  V30 6777 C 668.438 4.68534 -1.68465 0
M  V30 6778 C 667.141 6.12783 -3.76682 0
M  V30 6779 C 669.167 5.24524 -2.73182 0
M  V30 6780 C 668.529 5.9562 -3.76054 0
M  V30 6781 H 664.628 0.781796 0.0178567 0
M  V30 6782 H 667.212 1.86223 -0.568237 0
M  V30 6783 H 665.383 3.71186 1.14348 0
M  V30 6784 H 667.115 3.91934 1.00844 0
M  V30 6785 H 663.87 4.65504 -0.871931 0
M  V30 6786 H 664.294 6.01069 -3.11521 0
M  V30 6787 H 668.936 4.13051 -0.902708 0
M  V30 6788 H 666.654 6.67335 -4.55729 0
M  V30 6789 H 670.24 5.12473 -2.75433 0
M  V30 6790 H 669.12 6.38169 -4.55752 0
M  V30 6791 N 666.623 0.143563 1.56945 0
M  V30 6792 C 667.853 -0.514699 2.00086 0
M  V30 6793 C 668.261 -1.59184 1.0226 0
M  V30 6794 O 667.604 -1.83697 0.0110514 0
M  V30 6795 C 667.666 -1.17778 3.39659 0
M  V30 6796 C 667.33 -0.245657 4.56339 0
M  V30 6797 C 668.327 0.525343 5.17239 0
M  V30 6798 C 666.012 -0.149564 5.02077 0
M  V30 6799 C 668.006 1.37992 6.22284 0
M  V30 6800 C 665.693 0.708621 6.06978 0
M  V30 6801 C 666.691 1.47197 6.6695 0
M  V30 6802 O 666.379 2.31586 7.6982 0
M  V30 6803 H 666.111 -0.138789 0.661599 0
M  V30 6804 H 668.665 0.234098 2.04062 0
M  V30 6805 H 666.895 -1.97415 3.32512 0
M  V30 6806 H 668.584 -1.73542 3.6693 0
M  V30 6807 H 669.35 0.461118 4.82803 0
M  V30 6808 H 665.229 -0.733457 4.55128 0
M  V30 6809 H 668.773 1.97621 6.69023 0
M  V30 6810 H 664.67 0.77415 6.40841 0
M  V30 6811 H 665.438 2.24796 7.87025 0
M  V30 6812 N 668.101 -1.57061 -0.130224 0
M  V30 6813 C 669.347 -1.8453 -0.841216 0
M  V30 6814 C 669.68 -0.727666 -1.80052 0
M  V30 6815 O 668.955 0.267419 -1.92653 0
M  V30 6816 C 669.238 -3.22553 -1.60099 0
M  V30 6817 C 669.091 -4.44901 -0.662048 0
M  V30 6818 C 670.41 -3.58003 -2.55973 0
M  V30 6819 H 667.529 -0.671215 -0.304366 0
M  V30 6820 H 670.171 -1.89705 -0.105821 0
M  V30 6821 H 668.321 -3.18272 -2.22789 0
M  V30 6822 H 669.993 -4.61278 -0.0448559 0
M  V30 6823 H 668.236 -4.33791 0.0272253 0
M  V30 6824 H 668.907 -5.3812 -1.23006 0
M  V30 6825 H 671.383 -3.63002 -2.03393 0
M  V30 6826 H 670.259 -4.55576 -3.06172 0
M  V30 6827 H 670.52 -2.84833 -3.38116 0
M  V30 6828 N 669.579 0.400081 -1.52437 0
M  V30 6829 C 670.509 1.4947 -1.7939 0
M  V30 6830 C 671.49 1.57383 -0.645329 0
M  V30 6831 O 672.675 1.72511 -0.891826 0
M  V30 6832 C 669.805 2.87201 -1.95276 0
M  V30 6833 C 668.759 2.94134 -3.10917 0
M  V30 6834 C 668.085 4.34207 -3.1204 0
M  V30 6835 C 669.385 2.64791 -4.50203 0
M  V30 6836 H 671.079 1.27165 -2.71052 0
M  V30 6837 H 668.625 0.610312 -1.30427 0
M  V30 6838 H 670.578 3.63772 -2.12715 0
M  V30 6839 H 669.302 3.10819 -1.00294 0
M  V30 6840 H 667.961 2.20009 -2.93243 0
M  V30 6841 H 667.609 4.54848 -2.14761 0
M  V30 6842 H 667.309 4.39768 -3.89715 0
M  V30 6843 H 668.833 5.127 -3.31619 0
M  V30 6844 H 670.247 3.31083 -4.68035 0
M  V30 6845 H 668.644 2.81717 -5.29864 0
M  V30 6846 H 669.714 1.60184 -4.57678 0
M  V30 6847 N 671.057 1.43213 0.657864 0
M  V30 6848 C 671.987 1.50815 1.78262 0
M  V30 6849 C 672.968 0.363211 1.66177 0
M  V30 6850 O 674.153 0.579806 1.85343 0
M  V30 6851 C 671.283 1.42625 3.16663 0
M  V30 6852 C 670.237 2.5532 3.43505 0
M  V30 6853 C 669.563 2.32184 4.81658 0
M  V30 6854 C 670.863 3.97583 3.38711 0
M  V30 6855 H 672.557 2.44954 1.72157 0
M  V30 6856 H 670.103 1.17896 0.82683 0
M  V30 6857 H 672.056 1.46548 3.95097 0
M  V30 6858 H 670.78 0.449877 3.23487 0
M  V30 6859 H 669.439 2.50742 2.6744 0
M  V30 6860 H 669.087 1.32801 4.85153 0
M  V30 6861 H 668.787 3.07724 5.00579 0
M  V30 6862 H 670.311 2.37883 5.62356 0
M  V30 6863 H 671.725 4.03673 4.07089 0
M  V30 6864 H 670.122 4.73112 3.69168 0
M  V30 6865 H 671.192 4.23049 2.36976 0
M  V30 6866 N 672.536 -0.895792 1.29666 0
M  V30 6867 C 673.784 -1.64339 1.17631 0
M  V30 6868 C 674.105 -1.93099 -0.271643 0
M  V30 6869 O 673.375 -1.55981 -1.18518 0
M  V30 6870 H 671.955 -0.609162 0.432354 0
M  V30 6871 H 674.617 -1.07389 1.62646 0
M  V30 6872 H 673.713 -2.59815 1.72924 0
M  V30 6873 N 674.014 -1.12206 -1.10668 0
M  V30 6874 C 674.977 -0.790867 -2.15123 0
M  V30 6875 C 675.977 0.193618 -1.5963 0
M  V30 6876 O 677.167 -0.0318728 -1.74171 0
M  V30 6877 C 674.299 -0.174797 -3.40452 0
M  V30 6878 H 675.492 -1.7163 -2.45933 0
M  V30 6879 H 673.045 -0.924993 -1.2599 0
M  V30 6880 H 673.78 0.760478 -3.15257 0
M  V30 6881 H 673.565 -0.88358 -3.82015 0
M  V30 6882 H 675.055 0.0405162 -4.1758 0
M  V30 6883 N 675.492 1.28418 -0.913599 0
M  V30 6884 C 676.738 1.9527 -0.547484 0
M  V30 6885 C 677.071 1.71745 0.906486 0
M  V30 6886 O 676.346 1.03834 1.64465 0
M  V30 6887 C 676.629 3.49748 -0.857205 0
M  V30 6888 C 676.482 3.82675 -2.3639 0
M  V30 6889 C 677.801 4.3868 -0.353258 0
M  V30 6890 H 674.92 0.709236 -0.200381 0
M  V30 6891 H 677.562 1.51789 -1.14281 0
M  V30 6892 H 675.712 3.86915 -0.350548 0
M  V30 6893 H 677.384 3.55378 -2.94116 0
M  V30 6894 H 675.627 3.29724 -2.81894 0
M  V30 6895 H 676.298 4.90547 -2.53115 0
M  V30 6896 H 678.774 4.08584 -0.787288 0
M  V30 6897 H 677.65 5.45621 -0.599049 0
M  V30 6898 H 677.911 4.35753 0.746413 0
M  V30 6899 N 676.97 0.677563 1.42291 0
M  V30 6900 C 678.216 0.201272 2.01799 0
M  V30 6901 C 678.549 -1.19004 1.53465 0
M  V30 6902 O 677.824 -1.79953 0.738039 0
M  V30 6903 C 678.107 0.238968 3.59306 0
M  V30 6904 C 677.96 1.66594 4.17812 0
M  V30 6905 C 679.279 -0.411287 4.38174 0
M  V30 6906 H 676.398 0.0746114 0.733214 0
M  V30 6907 H 679.04 0.862872 1.69276 0
M  V30 6908 H 677.19 -0.324368 3.87144 0
M  V30 6909 H 678.862 2.28173 4.00917 0
M  V30 6910 H 677.105 2.20576 3.73536 0
M  V30 6911 H 677.776 1.64398 5.26951 0
M  V30 6912 H 680.252 0.0682804 4.16044 0
M  V30 6913 H 679.128 -0.354286 5.47755 0
M  V30 6914 H 679.389 -1.4893 4.1626 0
M  V30 6915 N 678.448 -1.51871 0.421078 0
M  V30 6916 C 679.411 -2.25914 -0.386712 0
M  V30 6917 C 680.411 -1.28733 -0.963555 0
M  V30 6918 O 681.601 -1.52579 -0.840556 0
M  V30 6919 C 678.733 -3.03853 -1.54551 0
M  V30 6920 H 679.926 -2.98754 0.261978 0
M  V30 6921 H 677.479 -1.5533 0.173862 0
M  V30 6922 H 678.214 -2.35392 -2.23072 0
M  V30 6923 H 677.999 -3.75215 -1.13824 0
M  V30 6924 H 679.489 -3.59984 -2.11663 0
M  V30 6925 N 679.926 -0.151884 -1.56866 0
M  V30 6926 C 680.889 0.771861 -2.15812 0
M  V30 6927 C 681.889 1.17181 -1.10115 0
M  V30 6928 O 683.079 1.09194 -1.35729 0
M  V30 6929 C 680.211 2.04806 -2.7252 0
M  V30 6930 H 681.404 0.259021 -2.98779 0
M  V30 6931 H 678.957 0.097588 -1.55995 0
M  V30 6932 H 679.692 2.60445 -1.93233 0
M  V30 6933 H 679.477 1.77044 -3.49854 0
M  V30 6934 H 680.967 2.70771 -3.1792 0
M  V30 6935 N 681.404 1.57128 0.121893 0
M  V30 6936 C 682.367 1.99197 1.13372 0
M  V30 6937 C 683.367 0.881728 1.3447 0
M  V30 6938 O 684.557 1.14783 1.31036 0
M  V30 6939 C 681.689 2.32963 2.4888 0
M  V30 6940 H 682.882 2.89788 0.772204 0
M  V30 6941 H 680.435 1.51952 0.366093 0
M  V30 6942 H 681.17 1.45243 2.89957 0
M  V30 6943 H 680.955 3.13934 2.34921 0
M  V30 6944 H 682.445 2.66261 3.21706 0
M  V30 6945 N 682.882 -0.391992 1.52647 0
M  V30 6946 C 684.122 -1.1463 1.69232 0
M  V30 6947 C 684.486 -1.87312 0.421684 0
M  V30 6948 O 685.687 -2.64768 0.463852 0
M  V30 6949 C 683.958 -2.10088 2.89133 0
M  V30 6950 S 685.517 -2.93395 3.2629 0
M  V30 6951 H 682.335 -0.388076 0.59575 0
M  V30 6952 H 684.937 -0.431149 1.90687 0
M  V30 6953 H 683.641 -1.55408 3.79837 0
M  V30 6954 H 683.172 -2.86116 2.70003 0
M  V30 6955 H 685.187 -4.12193 2.76244 0
M  V30 6956 N 684.36 -1.4356 -0.65026 0
M  V30 6957 C 685.606 -1.45549 -1.41221 0
M  V30 6958 C 685.939 -0.0805472 -1.94033 0
M  V30 6959 O 685.214 0.899043 -1.72475 0
M  V30 6960 C 685.497 -2.50028 -2.59148 0
M  V30 6961 C 685.35 -3.96808 -2.1181 0
M  V30 6962 C 686.669 -2.51212 -3.61359 0
M  V30 6963 H 683.788 -0.529967 -0.512156 0
M  V30 6964 H 686.43 -1.75127 -0.736933 0
M  V30 6965 H 684.58 -2.24937 -3.16758 0
M  V30 6966 H 686.252 -4.32966 -1.59178 0
M  V30 6967 H 684.495 -4.09498 -1.43156 0
M  V30 6968 H 685.166 -4.6553 -2.96625 0
M  V30 6969 H 687.642 -2.73583 -3.13515 0
M  V30 6970 H 686.518 -3.26252 -4.41419 0
M  V30 6971 H 686.779 -1.54701 -4.1415 0
M  V30 6972 N 685.838 0.888903 -1.30139 0
M  V30 6973 C 686.768 2.01046 -1.18755 0
M  V30 6974 C 687.749 1.69916 -0.0791438 0
M  V30 6975 O 688.934 1.92445 -0.260498 0
M  V30 6976 C 686.064 3.36109 -0.874518 0
M  V30 6977 C 685.018 3.81486 -1.94043 0
M  V30 6978 C 684.344 5.13796 -1.48047 0
M  V30 6979 C 685.644 4.00637 -3.35093 0
M  V30 6980 H 687.338 2.10828 -2.12584 0
M  V30 6981 H 684.884 1.01298 -1.02346 0
M  V30 6982 H 686.837 4.14089 -0.781548 0
M  V30 6983 H 685.561 3.26449 0.0994519 0
M  V30 6984 H 684.22 3.05731 -2.02297 0
M  V30 6985 H 683.868 5.0056 -0.494878 0
M  V30 6986 H 683.568 5.45127 -2.19341 0
M  V30 6987 H 685.092 5.94305 -1.40121 0
M  V30 6988 H 686.506 4.69067 -3.2962 0
M  V30 6989 H 684.903 4.43339 -4.04438 0
M  V30 6990 H 685.973 3.0462 -3.77273 0
M  V30 6991 N 687.317 1.12792 1.10072 0
M  V30 6992 C 688.566 0.880232 1.81479 0
M  V30 6993 C 688.879 -0.595575 1.86312 0
M  V30 6994 O 690.085 -0.959979 2.53962 0
M  V30 6995 C 688.541 1.52514 3.25987 0
M  V30 6996 C 688.149 3.036 3.29441 0
M  V30 6997 C 689.893 1.35788 4.02196 0
M  V30 6998 C 687.8 3.61007 4.68431 0
M  V30 6999 H 686.73 0.325654 0.680048 0
M  V30 7000 H 689.381 1.35485 1.23758 0
M  V30 7001 H 687.763 0.978188 3.83728 0
M  V30 7002 H 688.937 3.64819 2.81502 0
M  V30 7003 H 687.252 3.19765 2.66719 0
M  V30 7004 H 689.849 1.76096 5.0487 0
M  V30 7005 H 690.192 0.301972 4.15203 0
M  V30 7006 H 690.725 1.87426 3.50879 0
M  V30 7007 H 687.464 4.66375 4.60625 0
M  V30 7008 H 686.984 3.04564 5.16721 0
M  V30 7009 H 688.663 3.60289 5.37402 0
M  V30 7010 N 688.795 -1.27931 0.920396 0
M  V30 7011 C 689.725 -2.29487 0.431024 0
M  V30 7012 C 690.706 -1.62435 -0.504861 0
M  V30 7013 O 691.891 -1.89797 -0.411176 0
M  V30 7014 C 689.021 -3.45788 -0.323709 0
M  V30 7015 C 687.975 -4.24784 0.523658 0
M  V30 7016 C 687.301 -5.33488 -0.359809 0
M  V30 7017 C 688.601 -4.90874 1.78437 0
M  V30 7018 H 690.295 -2.70671 1.27975 0
M  V30 7019 H 687.841 -1.30121 0.616813 0
M  V30 7020 H 689.794 -4.15927 -0.676952 0
M  V30 7021 H 688.518 -3.03502 -1.2064 0
M  V30 7022 H 687.177 -3.56382 0.85951 0
M  V30 7023 H 686.825 -4.87445 -1.24124 0
M  V30 7024 H 686.525 -5.87247 0.203605 0
M  V30 7025 H 688.049 -6.06472 -0.708787 0
M  V30 7026 H 689.463 -5.53339 1.49963 0
M  V30 7027 H 687.86 -5.54659 2.29071 0
M  V30 7028 H 688.93 -4.14988 2.50824 0
M  V30 7029 N 690.273 -0.685099 -1.4193 0
M  V30 7030 C 691.236 -0.0222632 -2.29189 0
M  V30 7031 C 692.236 0.7186 -1.4385 0
M  V30 7032 O 693.426 0.555058 -1.6512 0
M  V30 7033 C 690.558 0.979013 -3.2654 0
M  V30 7034 H 691.751 -0.790424 -2.89296 0
M  V30 7035 H 689.304 -0.448012 -1.49742 0
M  V30 7036 H 690.039 1.77531 -2.71392 0
M  V30 7037 H 689.824 0.451037 -3.89497 0
M  V30 7038 H 691.314 1.44091 -3.91954 0
M  V30 7039 N 691.751 1.51645 -0.429126 0
M  V30 7040 C 692.681 2.30434 0.377148 0
M  V30 7041 C 693.662 1.35493 1.02838 0
M  V30 7042 O 694.847 1.6441 1.03359 0
M  V30 7043 C 691.977 3.14038 1.48315 0
M  V30 7044 C 690.931 4.1719 0.955855 0
M  V30 7045 C 690.257 4.89263 2.15698 0
M  V30 7046 C 691.557 5.223 -0.00402136 0
M  V30 7047 H 693.251 2.98085 -0.280336 0
M  V30 7048 H 690.797 1.43354 -0.136265 0
M  V30 7049 H 692.75 3.67933 2.05435 0
M  V30 7050 H 691.474 2.44193 2.16881 0
M  V30 7051 H 690.133 3.64335 0.406929 0
M  V30 7052 H 689.781 4.15929 2.82864 0
M  V30 7053 H 689.481 5.59009 1.81059 0
M  V30 7054 H 691.005 5.45978 2.73387 0
M  V30 7055 H 692.419 5.71315 0.476607 0
M  V30 7056 H 690.816 5.99525 -0.26258 0
M  V30 7057 H 691.886 4.75638 -0.943236 0
M  V30 7058 N 693.229 0.160201 1.56784 0
M  V30 7059 C 694.476 -0.487588 1.96542 0
M  V30 7060 C 694.804 -1.63999 1.04569 0
M  V30 7061 O 694.059 -1.95546 0.0775211 0
M  V30 7062 C 694.358 -1.02259 3.42459 0
M  V30 7063 C 694.024 0.0127436 4.50898 0
M  V30 7064 C 692.686 0.297318 4.80281 0
M  V30 7065 C 695.038 0.716078 5.16257 0
M  V30 7066 C 692.366 1.29081 5.72324 0
M  V30 7067 C 694.718 1.69847 6.09372 0
M  V30 7068 C 693.382 1.99061 6.37127 0
M  V30 7069 H 692.652 -0.178421 0.719199 0
M  V30 7070 H 695.299 0.249818 1.89864 0
M  V30 7071 H 693.604 -1.8376 3.46034 0
M  V30 7072 H 695.301 -1.53261 3.70556 0
M  V30 7073 H 691.891 -0.219235 4.28039 0
M  V30 7074 H 696.075 0.509428 4.93679 0
M  V30 7075 H 691.331 1.52344 5.92116 0
M  V30 7076 H 695.505 2.2489 6.59088 0
M  V30 7077 H 693.132 2.76194 7.08252 0
M  V30 7078 N 694.707 -1.5719 -0.113559 0
M  V30 7079 C 695.637 -2.03772 -1.14013 0
M  V30 7080 C 696.618 -0.923176 -1.42869 0
M  V30 7081 O 697.803 -1.19325 -1.53216 0
M  V30 7082 C 694.933 -2.44663 -2.4649 0
M  V30 7083 C 693.887 -3.59612 -2.32085 0
M  V30 7084 C 693.213 -3.8642 -3.69573 0
M  V30 7085 C 694.513 -4.91149 -1.7768 0
M  V30 7086 H 696.207 -2.89785 -0.752665 0
M  V30 7087 H 693.753 -1.39412 -0.360609 0
M  V30 7088 H 695.706 -2.75857 -3.18561 0
M  V30 7089 H 694.43 -1.55628 -2.87137 0
M  V30 7090 H 693.089 -3.28636 -1.62461 0
M  V30 7091 H 692.737 -2.94581 -4.07715 0
M  V30 7092 H 692.437 -4.63797 -3.60786 0
M  V30 7093 H 693.961 -4.2007 -4.4314 0
M  V30 7094 H 695.375 -5.20843 -2.39574 0
M  V30 7095 H 693.772 -5.72562 -1.79701 0
M  V30 7096 H 694.842 -4.79301 -0.734776 0
M  V30 7097 N 696.185 0.383891 -1.52853 0
M  V30 7098 C 697.431 1.13009 -1.68395 0
M  V30 7099 C 697.764 1.89488 -0.425195 0
M  V30 7100 O 697.039 1.8574 0.577136 0
M  V30 7101 C 697.322 2.10419 -2.92226 0
M  V30 7102 C 697.175 1.3767 -4.28214 0
M  V30 7103 C 698.494 3.10781 -3.11614 0
M  V30 7104 H 695.613 0.409463 -0.612788 0
M  V30 7105 H 698.255 0.412895 -1.85459 0
M  V30 7106 H 696.405 2.71579 -2.77808 0
M  V30 7107 H 698.077 0.794352 -4.54409 0
M  V30 7108 H 696.32 0.678533 -4.2846 0
M  V30 7109 H 696.991 2.08874 -5.10956 0
M  V30 7110 H 699.467 2.59715 -3.25096 0
M  V30 7111 H 698.343 3.76179 -3.99725 0
M  V30 7112 H 698.604 3.79933 -2.2606 0
M  V30 7113 N 697.663 1.43903 0.642637 0
M  V30 7114 C 698.613 1.46321 1.74854 0
M  V30 7115 C 699.597 0.330361 1.57472 0
M  V30 7116 O 700.789 0.574881 1.67404 0
M  V30 7117 C 697.918 1.39919 3.13493 0
M  V30 7118 C 697.004 2.58274 3.36385 0
M  V30 7119 N 697.395 3.83578 3.29699 0
M  V30 7120 C 695.693 2.53224 3.67142 0
M  V30 7121 C 696.394 4.62375 3.52965 0
M  V30 7122 N 695.37 3.93269 3.75287 0
M  V30 7123 H 699.172 2.41062 1.68126 0
M  V30 7124 H 696.686 1.38704 0.844693 0
M  V30 7125 H 698.683 1.39735 3.92785 0
M  V30 7126 H 697.343 0.46207 3.21395 0
M  V30 7127 H 698.354 4.15713 3.08874 0
M  V30 7128 H 695.031 1.68252 3.82096 0
M  V30 7129 H 696.421 5.714 3.53485 0
M  V30 7130 N 699.141 -0.881989 1.30609 0
M  V30 7131 C 700.557 -1.16576 1.09005 0
M  V30 7132 C 700.757 -2.00961 -0.14727 0
M  V30 7133 O 699.813 -2.38117 -0.840036 0
M  V30 7134 C 701.126 -1.86954 2.35518 0
M  V30 7135 C 702.674 -1.99706 2.41011 0
M  V30 7136 C 703.149 -2.73497 3.67374 0
M  V30 7137 N 704.64 -2.8104 3.68199 0
M  V30 7138 C 705.375 -3.38718 4.62664 0
M  V30 7139 N 704.871 -3.97421 5.67475 0
M  V30 7140 N 706.664 -3.36561 4.50203 0
M  V30 7141 H 698.815 -0.319398 2.09985 0
M  V30 7142 H 701.078 -0.204058 0.925778 0
M  V30 7143 H 700.784 -1.32393 3.2583 0
M  V30 7144 H 700.658 -2.87317 2.44395 0
M  V30 7145 H 703.045 -2.53436 1.51176 0
M  V30 7146 H 703.126 -0.984218 2.36108 0
M  V30 7147 H 702.77 -2.20438 4.57569 0
M  V30 7148 H 702.7 -3.75163 3.6954 0
M  V30 7149 H 705.191 -2.39365 2.92426 0
M  V30 7150 H 705.504 -4.39507 6.35652 0
M  V30 7151 H 703.849 -3.95832 5.71264 0
M  V30 7152 H 707.04 -2.8993 3.67503 0
M  V30 7153 H 707.213 -3.81215 5.24003 0
M  V30 7154 N 700.619 -1.13374 -1.09472 0
M  V30 7155 C 702.035 -0.871846 -1.33682 0
M  V30 7156 C 702.235 0.492847 -1.9538 0
M  V30 7157 O 701.291 1.23946 -2.19985 0
M  V30 7158 C 702.604 -1.99608 -2.24893 0
M  V30 7159 C 704.152 -2.02812 -2.38404 0
M  V30 7160 C 704.627 -3.14497 -3.3295 0
M  V30 7161 N 706.118 -3.14004 -3.40523 0
M  V30 7162 C 706.853 -3.97061 -4.13679 0
M  V30 7163 N 706.349 -4.90131 -4.89636 0
M  V30 7164 N 708.142 -3.85162 -4.09398 0
M  V30 7165 H 700.293 -2.01288 -0.677995 0
M  V30 7166 H 702.556 -0.876492 -0.361201 0
M  V30 7167 H 702.262 -2.98 -1.86786 0
M  V30 7168 H 702.136 -1.90981 -3.25278 0
M  V30 7169 H 704.523 -1.05034 -2.75775 0
M  V30 7170 H 704.604 -2.15511 -1.37799 0
M  V30 7171 H 704.248 -4.12514 -2.96302 0
M  V30 7172 H 704.178 -2.99035 -4.33458 0
M  V30 7173 H 706.669 -2.46587 -2.86362 0
M  V30 7174 H 706.982 -5.49996 -5.42885 0
M  V30 7175 H 705.327 -4.94138 -4.88726 0
M  V30 7176 H 708.518 -3.11779 -3.49158 0
M  V30 7177 H 708.691 -4.5012 -4.6615 0
M  V30 7178 N 702.098 1.27442 -0.927168 0
M  V30 7179 C 703.045 2.26863 -0.424459 0
M  V30 7180 C 704.015 1.5813 0.508346 0
M  V30 7181 O 705.2 1.85946 0.42762 0
M  V30 7182 C 702.34 3.43639 0.31718 0
M  V30 7183 C 701.453 4.27087 -0.649675 0
M  V30 7184 C 700.588 5.31082 0.111753 0
M  V30 7185 C 699.627 6.062 -0.847843 0
M  V30 7186 N 698.764 7.01999 -0.119074 0
M  V30 7187 H 703.604 2.69239 -1.27728 0
M  V30 7188 H 701.141 1.32394 -0.641106 0
M  V30 7189 H 703.099 4.10155 0.763486 0
M  V30 7190 H 701.729 3.02217 1.13424 0
M  V30 7191 H 700.781 3.60491 -1.21451 0
M  V30 7192 H 702.093 4.79242 -1.38307 0
M  V30 7193 H 701.247 6.03544 0.618 0
M  V30 7194 H 699.986 4.7973 0.878114 0
M  V30 7195 H 698.991 5.32577 -1.36534 0
M  V30 7196 H 700.216 6.59642 -1.61398 0
M  V30 7197 H 698.162 6.52977 0.629051 0
M  V30 7198 H 698.079 7.5184 -0.792046 0
M  V30 7199 H 699.347 7.78638 0.366537 0
M  V30 7200 N 703.576 0.692616 1.41565 0
M  V30 7201 C 704.523 0.0254264 2.30786 0
M  V30 7202 C 705.493 -0.774347 1.46946 0
M  V30 7203 O 706.678 -0.742981 1.7574 0
M  V30 7204 C 703.818 -0.907123 3.32964 0
M  V30 7205 C 702.931 -0.0992784 4.31886 0
M  V30 7206 C 702.066 -1.0292 5.21134 0
M  V30 7207 C 701.105 -0.214088 6.11725 0
M  V30 7208 N 700.242 -1.09766 6.93467 0
M  V30 7209 H 705.082 0.792036 2.87282 0
M  V30 7210 H 702.619 0.4023 1.41492 0
M  V30 7211 H 704.577 -1.46181 3.90752 0
M  V30 7212 H 703.207 -1.64016 2.78026 0
M  V30 7213 H 702.259 0.572287 3.76071 0
M  V30 7214 H 703.571 0.532782 4.95946 0
M  V30 7215 H 702.725 -1.65321 5.83741 0
M  V30 7216 H 701.464 -1.69512 4.57293 0
M  V30 7217 H 700.469 0.42302 5.4817 0
M  V30 7218 H 701.694 0.447995 6.77621 0
M  V30 7219 H 699.64 -1.74965 6.32237 0
M  V30 7220 H 699.557 -0.521099 7.54202 0
M  V30 7221 H 700.825 -1.70858 7.60544 0
M  V30 7222 N 705.054 -1.51416 0.437162 0
M  V30 7223 C 705.964 -2.31493 -0.380537 0
M  V30 7224 C 706.98 -1.40399 -1.02782 0
M  V30 7225 O 708.156 -1.73471 -1.02323 0
M  V30 7226 C 705.221 -3.1413 -1.46709 0
M  V30 7227 C 704.282 -4.21003 -0.839953 0
M  V30 7228 C 703.515 -4.9969 -1.87473 0
M  V30 7229 O 703.738 -4.79008 -3.09689 0
M  V30 7230 O 702.672 -5.8379 -1.46536 0
M  V30 7231 H 706.498 -3.02469 0.273183 0
M  V30 7232 H 704.083 -1.48059 0.199706 0
M  V30 7233 H 705.965 -3.65505 -2.09724 0
M  V30 7234 H 704.64 -2.45919 -2.10489 0
M  V30 7235 H 703.547 -3.73706 -0.171752 0
M  V30 7236 H 704.88 -4.91587 -0.245638 0
M  V30 7237 N 706.532 -0.168513 -1.56696 0
M  V30 7238 C 707.76 0.483503 -2.01171 0
M  V30 7239 C 708.175 1.56994 -1.04872 0
M  V30 7240 O 707.532 1.82434 -0.0491337 0
M  V30 7241 C 707.583 1.0644 -3.45475 0
M  V30 7242 O 707.304 0.0213375 -4.38095 0
M  V30 7243 C 708.805 1.79493 -4.05336 0
M  V30 7244 H 706.025 0.124002 -0.659443 0
M  V30 7245 H 708.569 -0.269419 -2.02717 0
M  V30 7246 H 706.724 1.76784 -3.44712 0
M  V30 7247 H 707.138 0.449837 -5.22567 0
M  V30 7248 H 708.612 2.15401 -5.08238 0
M  V30 7249 H 709.089 2.68889 -3.47269 0
M  V30 7250 H 709.695 1.13798 -4.09793 0
M  V30 7251 N 708.01 1.57248 0.105221 0
M  V30 7252 C 709.426 1.52853 0.459153 0
M  V30 7253 C 709.626 0.883674 1.8109 0
M  V30 7254 O 708.682 0.471864 2.48052 0
M  V30 7255 C 709.995 2.97596 0.43096 0
M  V30 7256 C 711.543 3.08758 0.513536 0
M  V30 7257 C 712.018 4.55089 0.515593 0
M  V30 7258 N 713.509 4.59597 0.576639 0
M  V30 7259 C 714.244 5.70253 0.599904 0
M  V30 7260 N 713.74 6.90368 0.579985 0
M  V30 7261 N 715.533 5.58399 0.643953 0
M  V30 7262 H 707.684 1.97547 -0.780306 0
M  V30 7263 H 709.947 0.902758 -0.289363 0
M  V30 7264 H 709.653 3.48201 -0.494903 0
M  V30 7265 H 709.527 3.55756 1.2537 0
M  V30 7266 H 711.914 2.58148 1.42982 0
M  V30 7267 H 711.995 2.53568 -0.337148 0
M  V30 7268 H 711.639 5.06348 -0.396701 0
M  V30 7269 H 711.569 5.08105 1.38335 0
M  V30 7270 H 714.06 3.73144 0.597639 0
M  V30 7271 H 714.373 7.70462 0.600741 0
M  V30 7272 H 712.718 6.92843 0.547191 0
M  V30 7273 H 715.909 4.63467 0.656975 0
M  V30 7274 H 716.082 6.44644 0.658616 0
M  V30 7275 N 709.488 -0.375779 1.53054 0
M  V30 7276 C 710.718 -1.1387 1.72386 0
M  V30 7277 C 711.126 -1.8382 0.447966 0
M  V30 7278 O 710.469 -1.74027 -0.588244 0
M  V30 7279 C 710.531 -2.22047 2.82728 0
M  V30 7280 C 710.195 -1.71951 4.23417 0
M  V30 7281 C 711.192 -1.18909 5.06119 0
M  V30 7282 C 708.877 -1.77773 4.69789 0
M  V30 7283 C 710.871 -0.723529 6.3328 0
M  V30 7284 C 708.558 -1.30829 5.96931 0
M  V30 7285 C 709.556 -0.782077 6.78508 0
M  V30 7286 O 709.244 -0.319529 8.03265 0
M  V30 7287 H 708.976 -0.346835 0.580242 0
M  V30 7288 H 711.53 -0.443748 2.00549 0
M  V30 7289 H 709.76 -2.95006 2.50017 0
M  V30 7290 H 711.449 -2.83654 2.90336 0
M  V30 7291 H 712.215 -1.13758 4.7147 0
M  V30 7292 H 708.094 -2.17673 4.06373 0
M  V30 7293 H 711.638 -0.312126 6.96901 0
M  V30 7294 H 707.535 -1.3567 6.31081 0
M  V30 7295 H 708.303 -0.439796 8.17318 0
M  V30 7296 N 710.966 -1.44241 -0.634997 0
M  V30 7297 C 712.214 -1.46531 -1.39187 0
M  V30 7298 C 712.535 -0.0976441 -1.94755 0
M  V30 7299 O 711.805 0.869528 -1.75545 0
M  V30 7300 H 710.385 -0.539544 -0.516625 0
M  V30 7301 H 713.047 -1.79989 -0.747655 0
M  V30 7302 H 712.143 -2.18848 -2.22513 0
M  V30 7303 N 712.444 0.87505 -1.31075 0
M  V30 7304 C 713.354 2.01441 -1.20244 0
M  V30 7305 C 714.37 1.73584 -0.120227 0
M  V30 7306 O 715.546 1.98559 -0.337063 0
M  V30 7307 C 712.611 3.34675 -0.905199 0
M  V30 7308 C 711.672 3.75889 -2.0738 0
M  V30 7309 C 710.905 5.02764 -1.79064 0
M  V30 7310 O 711.128 5.65795 -0.723318 0
M  V30 7311 O 710.062 5.40623 -2.64594 0
M  V30 7312 H 713.888 2.13509 -2.1598 0
M  V30 7313 H 711.473 1.00257 -1.10765 0
M  V30 7314 H 713.355 4.1458 -0.755057 0
M  V30 7315 H 712.03 3.23692 0.0221695 0
M  V30 7316 H 710.937 2.96645 -2.27931 0
M  V30 7317 H 712.27 3.91489 -2.98324 0
M  V30 7318 N 713.922 1.13953 1.08869 0
M  V30 7319 C 715.168 0.906151 1.8143 0
M  V30 7320 C 715.501 -0.566089 1.85766 0
M  V30 7321 O 714.776 -1.41915 1.33006 0
M  V30 7322 C 715.059 1.50183 3.27287 0
M  V30 7323 C 714.912 3.04359 3.31189 0
M  V30 7324 C 716.231 1.17477 4.24131 0
M  V30 7325 H 713.35 0.330624 0.658678 0
M  V30 7326 H 715.992 1.40873 1.27495 0
M  V30 7327 H 714.142 1.07442 3.73348 0
M  V30 7328 H 715.814 3.55896 2.93488 0
M  V30 7329 H 714.057 3.39053 2.70602 0
M  V30 7330 H 714.728 3.41141 4.33966 0
M  V30 7331 H 717.204 1.5442 3.86385 0
M  V30 7332 H 716.08 1.61795 5.24513 0
M  V30 7333 H 716.341 0.0893312 4.4201 0
M  V30 7334 N 715.4 -1.26948 0.933913 0
M  V30 7335 C 716.647 -1.94087 0.577625 0
M  V30 7336 C 716.975 -1.73345 -0.88214 0
M  V30 7337 O 716.23 -1.05945 -1.64542 0
M  V30 7338 C 716.529 -3.46963 0.857406 0
M  V30 7339 C 716.195 -3.87834 2.2999 0
M  V30 7340 C 714.857 -3.98704 2.69423 0
M  V30 7341 C 717.209 -4.08442 3.23766 0
M  V30 7342 C 714.537 -4.27573 4.01744 0
M  V30 7343 C 716.889 -4.38798 4.55675 0
M  V30 7344 C 715.553 -4.47881 4.94934 0
M  V30 7345 H 714.823 -0.710215 0.211368 0
M  V30 7346 H 717.47 -1.50899 1.17905 0
M  V30 7347 H 715.775 -3.91416 0.173369 0
M  V30 7348 H 717.472 -3.97062 0.560615 0
M  V30 7349 H 714.062 -3.79916 1.98399 0
M  V30 7350 H 718.246 -3.99479 2.94499 0
M  V30 7351 H 713.502 -4.32815 4.31834 0
M  V30 7352 H 717.676 -4.5369 5.28335 0
M  V30 7353 H 715.303 -4.70005 5.97495 0
M  V30 7354 N 716.879 -0.700114 -1.41195 0
M  V30 7355 C 717.789 -0.0382854 -2.34569 0
M  V30 7356 C 718.805 0.761036 -1.56474 0
M  V30 7357 O 719.981 0.697553 -1.88934 0
M  V30 7358 C 717.046 0.883522 -3.35253 0
M  V30 7359 C 716.107 0.0758957 -4.29233 0
M  V30 7360 C 715.34 0.9538 -5.25108 0
M  V30 7361 O 715.563 2.19326 -5.26547 0
M  V30 7362 O 714.497 0.401049 -6.00562 0
M  V30 7363 H 718.323 -0.808073 -2.92752 0
M  V30 7364 H 715.908 -0.460479 -1.42127 0
M  V30 7365 H 717.79 1.41199 -3.9704 0
M  V30 7366 H 716.465 1.63272 -2.79506 0
M  V30 7367 H 715.372 -0.497274 -3.7078 0
M  V30 7368 H 716.705 -0.634741 -4.8809 0
M  V30 7369 N 718.357 1.51182 -0.445186 0
M  V30 7370 C 719.768 1.86693 0.0160999 0
M  V30 7371 C 720.119 1.36183 1.4124 0
M  V30 7372 O 719.244 0.715895 2.04215 0
M  V30 7373 C 719.839 3.38781 0.0359918 0
M  V30 7374 C 718.398 3.73799 0.441715 0
M  V30 7375 C 717.545 2.74947 -0.360511 0
M  V30 7376 H 720.496 1.44294 -0.660674 0
M  V30 7377 H 720.517 3.71026 0.843813 0
M  V30 7378 H 720.029 3.75513 -0.980378 0
M  V30 7379 H 718.13 3.42659 1.4634 0
M  V30 7380 H 718.243 4.78829 0.16106 0
M  V30 7381 H 716.607 2.54047 0.182269 0
M  V30 7382 H 717.39 3.14521 -1.3759 0
M  V30 7383 N 719.835 0.176821 1.56605 0
M  V30 7384 C 721.063 -0.472828 2.01425 0
M  V30 7385 C 721.478 -1.56436 1.05703 0
M  V30 7386 O 720.835 -1.82405 0.058808 0
M  V30 7387 C 720.886 -1.04607 3.46034 0
M  V30 7388 O 720.607 0.00189608 4.381 0
M  V30 7389 C 722.108 -1.7734 4.06282 0
M  V30 7390 H 719.328 -0.120503 0.660091 0
M  V30 7391 H 721.872 0.280166 2.02572 0
M  V30 7392 H 720.027 -1.74953 3.45645 0
M  V30 7393 H 720.441 -0.422118 5.22799 0
M  V30 7394 H 721.915 -2.12703 5.09374 0
M  V30 7395 H 722.392 -2.67043 3.4869 0
M  V30 7396 H 722.998 -1.11623 4.10391 0
M  V30 7397 N 721.313 -1.57302 -0.09688 0
M  V30 7398 C 722.559 -1.86273 -0.801885 0
M  V30 7399 C 722.892 -0.765694 -1.78468 0
M  V30 7400 O 722.167 0.226495 -1.93177 0
M  V30 7401 C 722.45 -3.25876 -1.53221 0
M  V30 7402 C 722.303 -4.46205 -0.567529 0
M  V30 7403 C 723.622 -3.63352 -2.48321 0
M  V30 7404 H 720.741 -0.67752 -0.29006 0
M  V30 7405 H 723.383 -1.89887 -0.0655577 0
M  V30 7406 H 721.533 -3.22926 -2.15988 0
M  V30 7407 H 723.205 -4.6127 0.0529982 0
M  V30 7408 H 721.448 -4.33636 0.119233 0
M  V30 7409 H 722.119 -5.40608 -1.11564 0
M  V30 7410 H 724.595 -3.67234 -1.95648 0
M  V30 7411 H 723.471 -4.61968 -2.9644 0
M  V30 7412 H 723.732 -2.91941 -3.31998 0
M  V30 7413 N 722.791 0.367657 -1.53252 0
M  V30 7414 C 723.701 1.47415 -1.82499 0
M  V30 7415 C 724.717 1.58711 -0.713222 0
M  V30 7416 O 725.893 1.74644 -1.00306 0
M  V30 7417 C 722.958 2.82706 -2.00694 0
M  V30 7418 C 722.019 2.80955 -3.24596 0
M  V30 7419 C 721.252 4.09793 -3.41914 0
M  V30 7420 O 721.475 5.05852 -2.63572 0
M  V30 7421 O 720.409 4.15731 -4.3526 0
M  V30 7422 H 724.235 1.25624 -2.765 0
M  V30 7423 H 721.82 0.557559 -1.38606 0
M  V30 7424 H 723.702 3.62873 -2.14246 0
M  V30 7425 H 722.377 3.04479 -1.09883 0
M  V30 7426 H 721.284 1.99494 -3.16469 0
M  V30 7427 H 722.617 2.64136 -4.15323 0
M  V30 7428 N 724.269 1.44576 0.627338 0
M  V30 7429 C 725.685 1.28546 0.945938 0
M  V30 7430 C 725.885 0.224003 2.00251 0
M  V30 7431 O 724.941 -0.388817 2.49488 0
M  V30 7432 C 726.254 2.65825 1.40561 0
M  V30 7433 C 727.802 2.73566 1.52088 0
M  V30 7434 C 728.277 4.11323 2.01438 0
M  V30 7435 N 729.768 4.13519 2.08702 0
M  V30 7436 C 730.503 5.16964 2.48065 0
M  V30 7437 N 729.999 6.30768 2.86538 0
M  V30 7438 N 731.792 5.04319 2.48232 0
M  V30 7439 H 723.943 2.1228 -0.0713567 0
M  V30 7440 H 726.206 0.947503 0.0307081 0
M  V30 7441 H 725.912 3.44591 0.703539 0
M  V30 7442 H 725.786 2.92969 2.37591 0
M  V30 7443 H 728.173 1.95116 2.21391 0
M  V30 7444 H 728.254 2.50159 0.534237 0
M  V30 7445 H 727.898 4.9025 1.32729 0
M  V30 7446 H 727.828 4.32109 3.0098 0
M  V30 7447 H 730.319 3.31385 1.81638 0
M  V30 7448 H 730.632 7.0551 3.15398 0
M  V30 7449 H 728.977 6.342 2.84281 0
M  V30 7450 H 732.168 4.14465 2.17569 0
M  V30 7451 H 732.341 5.85059 2.78585 0
M  V30 7452 N 725.747 -0.868086 1.31537 0
M  V30 7453 C 726.995 -1.61807 1.21091 0
M  V30 7454 C 727.316 -1.93631 -0.230623 0
M  V30 7455 O 726.586 -1.5846 -1.15183 0
M  V30 7456 H 725.166 -0.599854 0.445178 0
M  V30 7457 H 727.828 -1.03915 1.64887 0
M  V30 7458 H 726.924 -2.56088 1.78396 0
M  V30 7459 N 727.225 -1.14528 -1.08264 0
M  V30 7460 C 728.135 -0.84728 -2.18765 0
M  V30 7461 C 729.151 0.172826 -1.7314 0
M  V30 7462 O 730.327 0.000985336 -2.014 0
M  V30 7463 C 727.392 -0.330633 -3.4512 0
M  V30 7464 C 726.453 -1.41348 -4.05363 0
M  V30 7465 C 725.686 -0.921387 -5.25686 0
M  V30 7466 O 725.909 0.236587 -5.69909 0
M  V30 7467 O 724.843 -1.70101 -5.77364 0
M  V30 7468 H 728.669 -1.7708 -2.46731 0
M  V30 7469 H 726.254 -0.923661 -1.17426 0
M  V30 7470 H 728.136 -0.0485053 -4.21372 0
M  V30 7471 H 726.811 0.565147 -3.18728 0
M  V30 7472 H 725.718 -1.74908 -3.30693 0
M  V30 7473 H 727.051 -2.28383 -4.36007 0
M  V30 7474 N 728.703 1.26451 -0.940633 0
M  V30 7475 C 729.633 2.28773 -0.467479 0
M  V30 7476 C 730.614 1.63218 0.478955 0
M  V30 7477 O 731.799 1.90427 0.380929 0
M  V30 7478 C 728.929 3.46259 0.268656 0
M  V30 7479 C 727.883 4.23898 -0.591171 0
M  V30 7480 C 727.209 5.33993 0.274891 0
M  V30 7481 C 728.509 4.87974 -1.86223 0
M  V30 7482 H 730.203 2.68601 -1.32265 0
M  V30 7483 H 727.749 1.29123 -0.637436 0
M  V30 7484 H 729.702 4.16951 0.610696 0
M  V30 7485 H 728.426 3.05383 1.15796 0
M  V30 7486 H 727.085 3.54969 -0.916098 0
M  V30 7487 H 726.733 4.89358 1.16353 0
M  V30 7488 H 726.433 5.86849 -0.297006 0
M  V30 7489 H 727.957 6.07523 0.612213 0
M  V30 7490 H 729.371 5.50883 -1.58747 0
M  V30 7491 H 727.768 5.50945 -2.37866 0
M  V30 7492 H 728.838 4.10945 -2.57394 0
M  V30 7493 N 730.181 0.707592 1.40822 0
M  V30 7494 C 731.427 0.244031 2.01326 0
M  V30 7495 C 731.76 -1.15722 1.55955 0
M  V30 7496 O 731.035 -1.78347 0.776044 0
M  V30 7497 C 731.318 0.315128 3.58718 0
M  V30 7498 C 731.171 1.75419 4.14184 0
M  V30 7499 C 732.49 -0.318251 4.38948 0
M  V30 7500 H 729.609 0.0901471 0.731466 0
M  V30 7501 H 732.251 0.898584 1.67408 0
M  V30 7502 H 730.401 -0.242176 3.87744 0
M  V30 7503 H 732.073 2.36626 3.95987 0
M  V30 7504 H 730.316 2.28449 3.68773 0
M  V30 7505 H 730.987 1.75538 5.23345 0
M  V30 7506 H 733.463 0.156514 4.15806 0
M  V30 7507 H 732.339 -0.238019 5.48384 0
M  V30 7508 H 732.6 -1.40067 4.19325 0
M  V30 7509 N 731.66 -1.50943 0.453197 0
M  V30 7510 C 732.906 -2.02512 -0.108082 0
M  V30 7511 C 733.239 -1.33574 -1.40967 0
M  V30 7512 O 732.514 -0.455671 -1.89087 0
M  V30 7513 C 732.797 -3.58759 -0.310453 0
M  V30 7514 C 732.65 -4.38293 1.0109 0
M  V30 7515 C 733.969 -4.26816 -1.07313 0
M  V30 7516 H 731.088 -0.73603 -0.0378064 0
M  V30 7517 H 733.73 -1.80433 0.595295 0
M  V30 7518 H 731.88 -3.77702 -0.909582 0
M  V30 7519 H 733.552 -4.30964 1.64523 0
M  V30 7520 H 731.795 -4.02745 1.61179 0
M  V30 7521 H 732.466 -5.45828 0.82315 0
M  V30 7522 H 734.942 -4.1224 -0.565473 0
M  V30 7523 H 733.818 -5.35989 -1.1835 0
M  V30 7524 H 734.079 -3.88757 -2.10525 0
M  V30 7525 N 733.138 -0.185124 -1.56509 0
M  V30 7526 C 734.554 0.170865 -1.58683 0
M  V30 7527 C 734.754 1.61799 -1.20098 0
M  V30 7528 O 733.81 2.35181 -0.919038 0
M  V30 7529 C 735.123 -0.122459 -3.00451 0
M  V30 7530 C 736.671 -0.0617699 -3.12939 0
M  V30 7531 C 737.146 -0.328269 -4.56822 0
M  V30 7532 N 738.637 -0.276533 -4.62374 0
M  V30 7533 C 739.372 -0.456722 -5.71578 0
M  V30 7534 N 738.868 -0.69672 -6.89288 0
M  V30 7535 N 740.661 -0.391669 -5.60734 0
M  V30 7536 H 732.812 -1.12956 -1.79874 0
M  V30 7537 H 735.075 -0.45011 -0.834329 0
M  V30 7538 H 734.781 -1.12546 -3.33206 0
M  V30 7539 H 734.655 0.579578 -3.72721 0
M  V30 7540 H 737.042 0.931826 -2.80002 0
M  V30 7541 H 737.123 -0.796732 -2.43076 0
M  V30 7542 H 736.767 -1.31914 -4.9047 0
M  V30 7543 H 736.697 0.427465 -5.24862 0
M  V30 7544 H 739.188 -0.0972458 -3.77775 0
M  V30 7545 H 739.501 -0.823291 -7.68402 0
M  V30 7546 H 737.846 -0.733497 -6.91119 0
M  V30 7547 H 741.037 -0.204663 -4.67652 0
M  V30 7548 H 741.21 -0.535518 -6.45783 0
M  V30 7549 N 734.616 1.57351 0.0885366 0
M  V30 7550 C 735.846 1.90355 0.80303 0
M  V30 7551 C 736.254 0.777678 1.72478 0
M  V30 7552 O 735.597 -0.258908 1.81866 0
M  V30 7553 C 735.659 3.18674 1.66395 0
M  V30 7554 C 735.323 4.4778 0.913327 0
M  V30 7555 C 736.32 5.19345 0.240148 0
M  V30 7556 C 734.005 4.94434 0.885462 0
M  V30 7557 C 735.999 6.35803 -0.450854 0
M  V30 7558 C 733.686 6.10802 0.190679 0
M  V30 7559 C 734.684 6.81337 -0.476295 0
M  V30 7560 O 734.372 7.95488 -1.15992 0
M  V30 7561 H 734.104 0.634035 0.234469 0
M  V30 7562 H 736.658 2.05287 0.0681959 0
M  V30 7563 H 734.888 2.99906 2.44117 0
M  V30 7564 H 736.577 3.37458 2.2556 0
M  V30 7565 H 737.343 4.84339 0.253092 0
M  V30 7566 H 733.222 4.39417 1.39406 0
M  V30 7567 H 736.766 6.90795 -0.972019 0
M  V30 7568 H 732.663 6.45261 0.175603 0
M  V30 7569 H 733.431 8.11509 -1.06749 0
M  V30 7570 N 736.094 -0.359525 1.53444 0
M  V30 7571 C 737.51 -0.701599 1.43352 0
M  V30 7572 C 737.71 -1.93049 0.577439 0
M  V30 7573 O 736.766 -2.52423 0.0622224 0
M  V30 7574 C 738.079 -0.90915 2.86627 0
M  V30 7575 C 739.627 -1.00878 2.96298 0
M  V30 7576 C 740.102 -1.24876 4.40647 0
M  V30 7577 N 741.593 -1.31632 4.44103 0
M  V30 7578 C 742.328 -1.51922 5.52908 0
M  V30 7579 N 741.824 -1.69489 6.71748 0
M  V30 7580 N 743.617 -1.54341 5.40496 0
M  V30 7581 H 735.768 0.448685 2.07607 0
M  V30 7582 H 738.031 0.138713 0.937797 0
M  V30 7583 H 737.737 -0.0778997 3.51614 0
M  V30 7584 H 737.611 -1.81551 3.30634 0
M  V30 7585 H 739.998 -1.83057 2.31461 0
M  V30 7586 H 740.079 -0.0796721 2.55676 0
M  V30 7587 H 739.723 -0.431961 5.0606 0
M  V30 7588 H 739.653 -2.19118 4.78848 0
M  V30 7589 H 742.144 -1.19646 3.5846 0
M  V30 7590 H 742.457 -1.84561 7.50438 0
M  V30 7591 H 740.802 -1.66655 6.74723 0
M  V30 7592 H 743.993 -1.40188 4.46615 0
M  V30 7593 H 744.166 -1.69812 6.25354 0
M  V30 7594 N 737.572 -1.44907 -0.619662 0
M  V30 7595 C 738.818 -1.48512 -1.38102 0
M  V30 7596 C 739.151 -0.121686 -1.93818 0
M  V30 7597 O 738.426 0.862256 -1.74343 0
M  V30 7598 C 738.709 -2.55469 -2.53787 0
M  V30 7599 C 738.562 -4.01212 -2.03345 0
M  V30 7600 C 739.881 -2.58821 -3.55949 0
M  V30 7601 H 737 -0.540712 -0.500799 0
M  V30 7602 H 739.642 -1.7665 -0.69962 0
M  V30 7603 H 737.792 -2.31606 -3.11915 0
M  V30 7604 H 739.464 -4.36245 -1.49959 0
M  V30 7605 H 737.707 -4.12443 -1.34438 0
M  V30 7606 H 738.378 -4.71717 -2.86683 0
M  V30 7607 H 740.854 -2.80172 -3.07641 0
M  V30 7608 H 739.73 -3.35542 -4.34399 0
M  V30 7609 H 739.991 -1.63451 -4.10775 0
M  V30 7610 N 739.05 0.861098 -1.31996 0
M  V30 7611 C 740.466 1.14827 -1.10846 0
M  V30 7612 C 740.666 2.0117 0.11528 0
M  V30 7613 O 739.722 2.39423 0.802048 0
M  V30 7614 C 741.035 1.83183 -2.38462 0
M  V30 7615 C 742.583 1.95847 -2.44158 0
M  V30 7616 C 743.058 2.67617 -3.71679 0
M  V30 7617 N 744.549 2.75147 -3.72624 0
M  V30 7618 C 745.284 3.31314 -4.67994 0
M  V30 7619 N 744.78 3.88343 -5.73726 0
M  V30 7620 N 746.573 3.29356 -4.55501 0
M  V30 7621 H 738.724 0.285951 -2.10466 0
M  V30 7622 H 740.987 0.189303 -0.928907 0
M  V30 7623 H 740.693 1.27193 -3.27895 0
M  V30 7624 H 740.567 2.83393 -2.48935 0
M  V30 7625 H 742.954 2.50999 -1.55189 0
M  V30 7626 H 743.035 0.94653 -2.37644 0
M  V30 7627 H 742.679 2.13131 -4.61018 0
M  V30 7628 H 742.609 3.69237 -3.75462 0
M  V30 7629 H 745.1 2.34682 -2.96197 0
M  V30 7630 H 745.413 4.29338 -6.42564 0
M  V30 7631 H 743.758 3.86693 -5.77489 0
M  V30 7632 H 746.949 2.84047 -3.72069 0
M  V30 7633 H 747.122 3.7283 -5.30001 0
M  V30 7634 N 740.528 1.15101 1.07655 0
M  V30 7635 C 741.475 0.844958 2.14777 0
M  V30 7636 C 742.445 -0.200798 1.64882 0
M  V30 7637 O 743.63 -0.0690278 1.90675 0
M  V30 7638 C 740.77 0.337018 3.4345 0
M  V30 7639 C 739.883 1.44398 4.07153 0
M  V30 7640 C 739.018 0.892487 5.23649 0
M  V30 7641 C 738.057 1.9766 5.79307 0
M  V30 7642 N 737.194 1.44171 6.87138 0
M  V30 7643 H 742.034 1.76242 2.40297 0
M  V30 7644 H 739.571 0.879435 1.17917 0
M  V30 7645 H 741.529 0.024256 4.17193 0
M  V30 7646 H 740.159 -0.543531 3.18191 0
M  V30 7647 H 739.211 1.87299 3.31094 0
M  V30 7648 H 740.523 2.26262 4.4453 0
M  V30 7649 H 739.677 0.532083 6.04362 0
M  V30 7650 H 738.416 0.0429854 4.87681 0
M  V30 7651 H 737.421 2.34586 4.97242 0
M  V30 7652 H 738.646 2.82982 6.17331 0
M  V30 7653 H 736.592 0.614518 6.53115 0
M  V30 7654 H 736.509 2.19665 7.23383 0
M  V30 7655 H 737.777 1.10945 7.71564 0
M  V30 7656 N 742.006 -1.2595 0.947325 0
M  V30 7657 C 743.231 -1.98083 0.614633 0
M  V30 7658 C 743.656 -1.70013 -0.804815 0
M  V30 7659 O 743.014 -0.95175 -1.54309 0
M  V30 7660 C 743.062 -3.4993 0.870706 0
M  V30 7661 O 742.166 -4.12364 -0.0541451 0
M  V30 7662 H 741.507 -0.621232 0.234451 0
M  V30 7663 H 744.037 -1.60259 1.27193 0
M  V30 7664 H 744.047 -4.00198 0.794051 0
M  V30 7665 H 742.722 -3.69691 1.90529 0
M  V30 7666 H 741.299 -3.72826 0.0740917 0
M  V30 7667 N 743.484 -0.715051 -1.40445 0
M  V30 7668 C 744.714 -0.263576 -2.04912 0
M  V30 7669 C 745.122 1.09943 -1.53978 0
M  V30 7670 O 744.465 1.70203 -0.691133 0
M  V30 7671 C 744.527 -0.165048 -3.59121 0
M  V30 7672 C 744.191 -1.46325 -4.32941 0
M  V30 7673 C 745.188 -2.40506 -4.60926 0
M  V30 7674 C 742.873 -1.72203 -4.7186 0
M  V30 7675 C 744.867 -3.58812 -5.26814 0
M  V30 7676 C 742.554 -2.9079 -5.3748 0
M  V30 7677 C 743.552 -3.83917 -5.64887 0
M  V30 7678 O 743.24 -5.00424 -6.29151 0
M  V30 7679 H 742.972 -0.116317 -0.665918 0
M  V30 7680 H 745.526 -0.973774 -1.8085 0
M  V30 7681 H 743.756 0.601088 -3.82 0
M  V30 7682 H 745.445 0.251794 -4.05118 0
M  V30 7683 H 746.211 -2.21778 -4.31323 0
M  V30 7684 H 742.09 -1.00571 -4.49896 0
M  V30 7685 H 745.634 -4.31517 -5.48123 0
M  V30 7686 H 741.531 -3.09428 -5.66502 0
M  V30 7687 H 742.299 -5.00494 -6.47648 0
M  V30 7688 N 744.962 1.50701 -0.461195 0
M  V30 7689 C 746.187 2.07171 0.0974773 0
M  V30 7690 C 746.612 1.32391 1.3362 0
M  V30 7691 O 745.97 0.368676 1.77512 0
M  V30 7692 C 746.018 3.58651 0.374409 0
M  V30 7693 O 745.122 3.85816 1.4567 0
M  V30 7694 H 744.463 0.663944 -0.00862047 0
M  V30 7695 H 746.993 1.94021 -0.649394 0
M  V30 7696 H 747.003 4.03295 0.617843 0
M  V30 7697 H 745.678 4.12498 -0.530829 0
M  V30 7698 H 744.255 3.53018 1.20136 0
M  V30 7699 N 746.441 0.193421 1.56409 0
M  V30 7700 C 747.857 -0.162447 1.58771 0
M  V30 7701 C 748.057 -1.6116 1.20954 0
M  V30 7702 O 747.113 -2.3469 0.931497 0
M  V30 7703 C 748.426 0.138391 3.00381 0
M  V30 7704 C 749.974 0.0783649 3.12902 0
M  V30 7705 C 750.449 0.352491 4.56642 0
M  V30 7706 N 751.94 0.30105 4.62221 0
M  V30 7707 C 752.675 0.487028 5.71328 0
M  V30 7708 N 752.171 0.733265 6.88909 0
M  V30 7709 N 753.964 0.4214 5.60518 0
M  V30 7710 H 746.115 1.13909 1.79272 0
M  V30 7711 H 748.378 0.454528 0.83193 0
M  V30 7712 H 748.084 1.14312 3.32604 0
M  V30 7713 H 747.958 -0.559804 3.73023 0
M  V30 7714 H 750.345 -0.916963 2.80492 0
M  V30 7715 H 750.426 0.809611 2.4265 0
M  V30 7716 H 750.07 1.34513 4.89764 0
M  V30 7717 H 750 -0.399624 5.25081 0
M  V30 7718 H 752.491 0.117279 3.77718 0
M  V30 7719 H 752.804 0.86403 7.67955 0
M  V30 7720 H 751.149 0.770138 6.9072 0
M  V30 7721 H 754.34 0.229461 4.67537 0
M  V30 7722 H 754.513 0.569758 6.4549 0
M  V30 7723 N 747.919 -1.57396 -0.0801906 0
M  V30 7724 C 749.335 -1.53564 -0.434778 0
M  V30 7725 C 749.535 -0.912372 -1.79661 0
M  V30 7726 O 748.591 -0.511268 -2.4727 0
M  V30 7727 C 749.904 -2.98244 -0.383561 0
M  V30 7728 C 751.452 -3.09536 -0.46435 0
M  V30 7729 C 751.927 -4.55851 -0.443128 0
M  V30 7730 N 753.418 -4.60456 -0.503448 0
M  V30 7731 C 754.153 -5.71135 -0.509106 0
M  V30 7732 N 753.649 -6.91203 -0.47008 0
M  V30 7733 N 755.442 -5.59353 -0.555035 0
M  V30 7734 H 747.593 -1.96281 0.811635 0
M  V30 7735 H 749.856 -0.898041 0.303689 0
M  V30 7736 H 749.562 -3.47369 0.550236 0
M  V30 7737 H 749.436 -3.57705 -1.19694 0
M  V30 7738 H 751.823 -2.6039 -1.38857 0
M  V30 7739 H 751.904 -2.53 0.377445 0
M  V30 7740 H 751.548 -5.05653 0.477207 0
M  V30 7741 H 751.478 -5.10242 -1.30234 0
M  V30 7742 H 753.969 -3.74048 -0.538199 0
M  V30 7743 H 754.282 -7.7132 -0.478091 0
M  V30 7744 H 752.627 -6.93625 -0.436897 0
M  V30 7745 H 755.818 -4.64453 -0.583158 0
M  V30 7746 H 755.991 -6.4561 -0.555976 0
M  V30 7747 N 749.397 0.351382 -1.53633 0
M  V30 7748 C 750.625 1.11275 -1.74429 0
M  V30 7749 C 751.04 1.82602 -0.479798 0
M  V30 7750 O 750.397 1.74074 0.548125 0
M  V30 7751 C 750.448 2.13223 -2.91921 0
M  V30 7752 O 750.169 1.44798 -4.13479 0
M  V30 7753 C 751.67 3.01797 -3.24706 0
M  V30 7754 H 748.89 0.332153 -0.583023 0
M  V30 7755 H 751.434 0.405974 -2.0043 0
M  V30 7756 H 749.589 2.79477 -2.68274 0
M  V30 7757 H 750.003 2.12839 -4.79374 0
M  V30 7758 H 751.477 3.69282 -4.10286 0
M  V30 7759 H 751.954 3.67387 -2.40673 0
M  V30 7760 H 752.56 2.41141 -3.5033 0
M  V30 7761 N 750.875 1.45233 0.611969 0
M  V30 7762 C 752.103 1.52539 1.39784 0
M  V30 7763 C 752.518 0.156533 1.8815 0
M  V30 7764 O 751.875 -0.84112 1.61961 0
M  V30 7765 C 751.926 2.50614 2.60528 0
M  V30 7766 O 751.647 3.8218 2.14173 0
M  V30 7767 C 753.148 2.67574 3.53439 0
M  V30 7768 H 750.368 0.51674 0.428043 0
M  V30 7769 H 752.912 1.90379 0.746727 0
M  V30 7770 H 751.067 2.15858 3.2169 0
M  V30 7771 H 751.481 4.35305 2.92592 0
M  V30 7772 H 752.955 3.40184 4.34717 0
M  V30 7773 H 753.432 1.73458 4.03496 0
M  V30 7774 H 754.038 3.0331 2.98133 0
M  V30 7775 N 752.353 -0.854086 1.3245 0
M  V30 7776 C 753.263 -1.99503 1.23434 0
M  V30 7777 C 754.279 -1.73371 0.147828 0
M  V30 7778 O 755.455 -1.97998 0.368609 0
M  V30 7779 C 752.52 -3.33192 0.958328 0
M  V30 7780 C 751.581 -3.72542 2.13333 0
M  V30 7781 C 750.814 -4.99852 1.8704 0
M  V30 7782 O 751.037 -5.64573 0.813239 0
M  V30 7783 O 749.971 -5.36345 2.73161 0
M  V30 7784 H 753.797 -2.10046 2.1935 0
M  V30 7785 H 751.382 -0.984823 1.12346 0
M  V30 7786 H 753.264 -4.13327 0.820918 0
M  V30 7787 H 751.939 -3.23687 0.0293299 0
M  V30 7788 H 750.846 -2.92981 2.32622 0
M  V30 7789 H 752.179 -3.86694 3.04514 0
M  V30 7790 N 753.831 -1.1567 -1.07043 0
M  V30 7791 C 754.794 -0.858906 -2.12498 0
M  V30 7792 C 755.794 0.142735 -1.60165 0
M  V30 7793 O 756.984 -0.0872678 -1.73981 0
M  V30 7794 C 754.116 -0.283021 -3.39723 0
M  V30 7795 H 755.309 -1.79368 -2.40348 0
M  V30 7796 H 752.862 -0.964608 -1.22984 0
M  V30 7797 H 753.597 0.659796 -3.17517 0
M  V30 7798 H 753.382 -1.00467 -3.7901 0
M  V30 7799 H 754.872 -0.0923543 -4.17498 0
M  V30 7800 N 755.309 1.25446 -0.953992 0
M  V30 7801 C 756.537 1.97215 -0.625595 0
M  V30 7802 C 756.952 1.70911 0.802168 0
M  V30 7803 O 756.309 0.984782 1.5365 0
M  V30 7804 C 756.36 3.50777 -0.873943 0
M  V30 7805 O 756.081 3.76173 -2.24556 0
M  V30 7806 C 757.582 4.39776 -0.557845 0
M  V30 7807 H 754.802 0.628652 -0.2346 0
M  V30 7808 H 757.346 1.59632 -1.27819 0
M  V30 7809 H 755.501 3.86474 -0.267765 0
M  V30 7810 H 755.915 4.70636 -2.31522 0
M  V30 7811 H 757.389 5.46431 -0.782157 0
M  V30 7812 H 757.866 4.36257 0.507573 0
M  V30 7813 H 758.472 4.09644 -1.14332 0
M  V30 7814 N 756.787 0.722489 1.40064 0
M  V30 7815 C 757.717 0.0892452 2.33329 0
M  V30 7816 C 758.698 -0.737992 1.53257 0
M  V30 7817 O 759.883 -0.685516 1.81698 0
M  V30 7818 C 757.013 -0.828139 3.37282 0
M  V30 7819 C 755.967 -0.106005 4.27869 0
M  V30 7820 C 755.293 -1.13957 5.22415 0
M  V30 7821 C 756.593 1.04395 5.11761 0
M  V30 7822 H 758.287 0.868269 2.86534 0
M  V30 7823 H 755.833 0.418982 1.3777 0
M  V30 7824 H 757.786 -1.28058 4.01471 0
M  V30 7825 H 756.51 -1.63914 2.82489 0
M  V30 7826 H 755.169 0.326683 3.65142 0
M  V30 7827 H 754.817 -1.9438 4.63924 0
M  V30 7828 H 754.517 -0.661233 5.83868 0
M  V30 7829 H 756.041 -1.59197 5.89482 0
M  V30 7830 H 757.455 0.670541 5.69365 0
M  V30 7831 H 755.852 1.4511 5.82291 0
M  V30 7832 H 756.922 1.87144 4.47331 0
M  V30 7833 N 758.265 -1.50454 0.469181 0
M  V30 7834 C 759.213 -2.30101 -0.340033 0
M  V30 7835 C 760.207 -1.37306 -0.992135 0
M  V30 7836 O 761.413 -1.54506 -0.923458 0
M  V30 7837 H 757.788 -0.740941 -0.128495 0
M  V30 7838 H 759.759 -2.96315 0.352144 0
M  V30 7839 C 758.508 -3.17804 -1.41052 0
M  V30 7840 H 757.831 -3.89115 -0.918124 0
M  V30 7841 H 759.271 -3.76533 -1.94934 0
M  V30 7842 C 757.73 -2.35272 -2.4114 0
M  V30 7843 O 758.26 -2.03448 -3.4637 0
M  V30 7844 N 756.466 -1.97889 -2.1281 0
M  V30 7845 H 756.013 -2.2397 -1.27261 0
M  V30 7846 H 755.971 -1.42971 -2.80012 0
M  V30 7847 N 759.743 -0.201713 -1.56304 0
M  V30 7848 C 760.968 0.443815 -2.02596 0
M  V30 7849 C 761.393 1.53945 -1.08086 0
M  V30 7850 O 760.751 1.81182 -0.0655056 0
M  V30 7851 C 760.799 0.971066 -3.47279 0
M  V30 7852 O 759.903 2.0836 -3.55893 0
M  V30 7853 H 759.244 0.10294 -0.655972 0
M  V30 7854 H 761.774 -0.314533 -2.02168 0
M  V30 7855 H 761.784 1.28598 -3.87204 0
M  V30 7856 H 760.459 0.169048 -4.15556 0
M  V30 7857 H 759.036 1.77683 -3.27846 0
M  V30 7858 N 761.222 1.57436 0.0718424 0
M  V30 7859 C 762.152 2.06724 1.08571 0
M  V30 7860 C 763.133 0.960731 1.40371 0
M  V30 7861 O 764.318 1.23345 1.49999 0
M  V30 7862 C 761.448 2.51112 2.39916 0
M  V30 7863 C 760.402 3.65639 2.22469 0
M  V30 7864 C 759.728 3.96082 3.59198 0
M  V30 7865 C 761.028 4.95687 1.64596 0
M  V30 7866 H 762.722 2.91679 0.675569 0
M  V30 7867 H 760.268 1.40319 0.32352 0
M  V30 7868 H 762.221 2.84206 3.11135 0
M  V30 7869 H 760.945 1.63186 2.8291 0
M  V30 7870 H 759.604 3.32828 1.53691 0
M  V30 7871 H 759.252 3.05287 3.99761 0
M  V30 7872 H 758.952 4.73199 3.48362 0
M  V30 7873 H 760.476 4.31672 4.31847 0
M  V30 7874 H 761.89 5.27011 2.25681 0
M  V30 7875 H 760.287 5.77126 1.64457 0
M  V30 7876 H 761.357 4.8108 0.60744 0
M  V30 7877 N 762.7 -0.34323 1.53817 0
M  V30 7878 C 763.948 -1.0813 1.70741 0
M  V30 7879 C 764.269 -1.89165 0.473461 0
M  V30 7880 O 763.539 -1.89075 -0.512605 0
M  V30 7881 H 762.119 -0.40219 0.629486 0
M  V30 7882 H 764.781 -0.384426 1.91071 0
M  V30 7883 H 763.877 -1.7585 2.57843 0
M  V30 7884 N 764.178 -1.45556 -0.604258 0
M  V30 7885 C 765.427 -1.49019 -1.35928 0
M  V30 7886 C 765.74 -0.137409 -1.95117 0
M  V30 7887 O 766.946 -0.0497032 -2.71455 0
M  V30 7888 C 765.402 -2.62477 -2.46239 0
M  V30 7889 C 765.01 -4.04082 -1.93447 0
M  V30 7890 C 766.754 -2.7519 -3.23219 0
M  V30 7891 C 764.661 -5.08917 -3.0126 0
M  V30 7892 H 763.591 -0.554518 -0.510907 0
M  V30 7893 H 766.242 -1.71705 -0.647262 0
M  V30 7894 H 764.624 -2.3308 -3.2014 0
M  V30 7895 H 765.798 -4.43173 -1.26232 0
M  V30 7896 H 764.113 -3.95849 -1.29201 0
M  V30 7897 H 766.71 -3.50683 -4.0364 0
M  V30 7898 H 767.053 -1.81941 -3.74437 0
M  V30 7899 H 767.586 -3.04129 -2.56418 0
M  V30 7900 H 764.325 -6.03886 -2.54955 0
M  V30 7901 H 763.845 -4.74393 -3.67031 0
M  V30 7902 H 765.524 -5.33814 -3.65584 0
M  V30 7903 N 765.656 0.84705 -1.32902 0
M  V30 7904 C 766.881 1.63925 -1.27056 0
M  V30 7905 C 767.306 1.87443 0.157136 0
M  V30 7906 O 766.664 1.43266 1.11106 0
M  V30 7907 C 766.712 2.97134 -2.04313 0
M  V30 7908 O 765.816 3.88049 -1.39614 0
M  V30 7909 H 765.157 0.499477 -0.437514 0
M  V30 7910 H 767.687 1.05443 -1.75336 0
M  V30 7911 H 767.697 3.46896 -2.14772 0
M  V30 7912 H 766.372 2.79339 -3.08128 0
M  V30 7913 H 764.949 3.46525 -1.3775 0
M  V30 7914 N 767.134 1.16236 1.06428 0
M  V30 7915 C 768.044 0.881976 2.1739 0
M  V30 7916 C 769.06 -0.145259 1.73393 0
M  V30 7917 O 770.236 0.0310558 2.01376 0
M  V30 7918 C 767.301 0.385496 3.4455 0
M  V30 7919 C 766.362 1.47779 4.03063 0
M  V30 7920 C 765.595 1.0049 5.24154 0
M  V30 7921 O 765.818 -0.145889 5.70213 0
M  V30 7922 O 764.752 1.79265 5.74585 0
M  V30 7923 H 768.578 1.80983 2.43883 0
M  V30 7924 H 766.163 0.942226 1.15942 0
M  V30 7925 H 768.045 0.115536 4.21242 0
M  V30 7926 H 766.72 -0.514369 3.19587 0
M  V30 7927 H 765.627 1.80147 3.27869 0
M  V30 7928 H 766.96 2.35291 4.32318 0
M  V30 7929 N 768.612 -1.24939 0.960631 0
M  V30 7930 C 769.522 -2.29374 0.492435 0
M  V30 7931 C 770.538 -1.68262 -0.443154 0
M  V30 7932 O 771.714 -1.98875 -0.31793 0
M  V30 7933 C 768.779 -3.46023 -0.216626 0
M  V30 7934 C 767.84 -4.22557 0.757915 0
M  V30 7935 C 767.073 -5.33636 0.0825969 0
M  V30 7936 O 767.296 -5.59084 -1.13054 0
M  V30 7937 O 766.23 -5.96939 0.771177 0
M  V30 7938 H 770.056 -2.71525 1.36044 0
M  V30 7939 H 767.641 -1.30499 0.72735 0
M  V30 7940 H 769.523 -4.16885 -0.615241 0
M  V30 7941 H 768.198 -3.05862 -1.05971 0
M  V30 7942 H 767.105 -3.54099 1.20685 0
M  V30 7943 H 768.438 -4.66516 1.5692 0
M  V30 7944 N 770.09 -0.729906 -1.39679 0
M  V30 7945 C 771.02 -0.101618 -2.33279 0
M  V30 7946 C 772.001 0.729854 -1.53646 0
M  V30 7947 O 773.186 0.67587 -1.82059 0
M  V30 7948 C 770.316 0.81024 -3.37716 0
M  V30 7949 C 769.27 0.0833126 -4.27919 0
M  V30 7950 C 768.596 1.11185 -5.23012 0
M  V30 7951 C 769.896 -1.07107 -5.112 0
M  V30 7952 H 771.59 -0.883452 -2.86069 0
M  V30 7953 H 769.136 -0.426283 -1.37546 0
M  V30 7954 H 771.089 1.25927 -4.02145 0
M  V30 7955 H 769.813 1.62413 -2.83354 0
M  V30 7956 H 768.472 -0.346043 -3.64963 0
M  V30 7957 H 768.12 1.91917 -4.64948 0
M  V30 7958 H 767.82 0.63026 -5.8421 0
M  V30 7959 H 769.344 1.56068 -5.90318 0
M  V30 7960 H 770.758 -0.700726 -5.69002 0
M  V30 7961 H 769.155 -1.48196 -5.81514 0
M  V30 7962 H 770.225 -1.89513 -4.46332 0
M  V30 7963 N 771.568 1.50203 -0.477153 0
M  V30 7964 C 772.515 2.28656 0.31386 0
M  V30 7965 C 773.485 1.33977 0.981802 0
M  V30 7966 O 774.67 1.62919 0.993072 0
M  V30 7967 C 771.81 3.16027 1.38639 0
M  V30 7968 C 770.923 4.25743 0.732615 0
M  V30 7969 C 770.058 5.00363 1.78355 0
M  V30 7970 C 769.097 6.01945 1.11035 0
M  V30 7971 N 768.234 6.6982 2.10441 0
M  V30 7972 H 773.074 2.958 -0.361445 0
M  V30 7973 H 770.611 1.45867 -0.190093 0
M  V30 7974 H 772.569 3.6504 2.01994 0
M  V30 7975 H 771.199 2.50917 2.03077 0
M  V30 7976 H 770.251 3.80398 -0.0136546 0
M  V30 7977 H 771.563 4.98393 0.201513 0
M  V30 7978 H 770.717 5.53124 2.49276 0
M  V30 7979 H 769.456 4.27432 2.34847 0
M  V30 7980 H 768.461 5.48438 0.386797 0
M  V30 7981 H 769.686 6.76851 0.552248 0
M  V30 7982 H 767.632 5.99677 2.65939 0
M  V30 7983 H 767.549 7.38366 1.62332 0
M  V30 7984 H 768.817 7.27196 2.80724 0
M  V30 7985 N 773.046 0.209999 1.56195 0
M  V30 7986 C 773.956 -0.716459 2.23392 0
M  V30 7987 C 774.972 -1.22291 1.23778 0
M  V30 7988 O 776.148 -1.26694 1.56558 0
M  V30 7989 C 773.213 -1.91261 2.89172 0
M  V30 7990 C 772.274 -1.44927 4.04097 0
M  V30 7991 C 771.507 -2.5884 4.66731 0
M  V30 7992 O 771.73 -3.76693 4.2832 0
M  V30 7993 O 770.664 -2.30701 5.55932 0
M  V30 7994 H 774.49 -0.174089 3.03201 0
M  V30 7995 H 772.075 -0.0199505 1.49387 0
M  V30 7996 H 773.957 -2.6114 3.30733 0
M  V30 7997 H 772.632 -2.4433 2.12331 0
M  V30 7998 H 771.539 -0.718839 3.67129 0
M  V30 7999 H 772.872 -0.965084 4.82646 0
M  V30 8000 N 774.524 -1.57472 -0.0634922 0
M  V30 8001 C 775.471 -2.04258 -1.07457 0
M  V30 8002 C 776.441 -0.924804 -1.37973 0
M  V30 8003 O 777.626 -1.19305 -1.48899 0
M  V30 8004 C 774.766 -2.49832 -2.38071 0
M  V30 8005 C 773.879 -3.75263 -2.14014 0
M  V30 8006 C 773.014 -4.09585 -3.38251 0
M  V30 8007 C 772.053 -5.28032 -3.09594 0
M  V30 8008 N 771.19 -5.57953 -4.26185 0
M  V30 8009 H 776.03 -2.90402 -0.668626 0
M  V30 8010 H 773.567 -1.43609 -0.318572 0
M  V30 8011 H 775.525 -2.7431 -3.14341 0
M  V30 8012 H 774.155 -1.66654 -2.76453 0
M  V30 8013 H 773.207 -3.58075 -1.28399 0
M  V30 8014 H 774.519 -4.61667 -1.88852 0
M  V30 8015 H 773.673 -4.35008 -4.2291 0
M  V30 8016 H 772.412 -3.21765 -3.66495 0
M  V30 8017 H 771.417 -5.02397 -2.23332 0
M  V30 8018 H 772.642 -6.17477 -2.82663 0
M  V30 8019 H 770.588 -4.73092 -4.54445 0
M  V30 8020 H 770.505 -6.38793 -4.04326 0
M  V30 8021 H 771.773 -5.87931 -5.11817 0
M  V30 8022 N 776.003 0.335068 -1.53997 0
M  V30 8023 C 776.933 1.41727 -1.85568 0
M  V30 8024 C 777.914 1.54505 -0.7115 0
M  V30 8025 O 779.099 1.68573 -0.964191 0
M  V30 8026 C 776.229 2.7866 -2.07282 0
M  V30 8027 C 775.183 2.80682 -3.23112 0
M  V30 8028 C 774.509 4.20581 -3.30175 0
M  V30 8029 C 775.809 2.45458 -4.61029 0
M  V30 8030 H 777.503 1.15555 -2.76202 0
M  V30 8031 H 775.049 0.554445 -1.32898 0
M  V30 8032 H 777.002 3.54423 -2.27952 0
M  V30 8033 H 775.726 3.06286 -1.13387 0
M  V30 8034 H 774.385 2.07373 -3.02311 0
M  V30 8035 H 774.033 4.4533 -2.33859 0
M  V30 8036 H 773.733 4.22843 -4.08016 0
M  V30 8037 H 775.257 4.98174 -3.53066 0
M  V30 8038 H 776.671 3.10934 -4.81656 0
M  V30 8039 H 775.068 2.5899 -5.41336 0
M  V30 8040 H 776.138 1.40628 -4.6406 0
M  V30 8041 N 777.481 1.45874 0.596531 0
M  V30 8042 C 778.897 1.30524 0.918459 0
M  V30 8043 C 779.097 0.266429 1.99731 0
M  V30 8044 O 778.153 -0.335809 2.50257 0
M  V30 8045 C 779.466 2.68747 1.3489 0
M  V30 8046 C 781.014 2.7673 1.46251 0
M  V30 8047 C 781.489 4.15504 1.92667 0
M  V30 8048 N 782.98 4.17853 1.99883 0
M  V30 8049 C 783.715 5.22109 2.37044 0
M  V30 8050 N 783.211 6.36704 2.73094 0
M  V30 8051 N 785.004 5.09471 2.37479 0
M  V30 8052 H 777.155 2.12081 -0.116368 0
M  V30 8053 H 779.418 0.947941 0.0106033 0
M  V30 8054 H 779.124 3.46006 0.630288 0
M  V30 8055 H 778.998 2.97942 2.31323 0
M  V30 8056 H 781.385 1.99768 2.17202 0
M  V30 8057 H 781.466 2.51236 0.481054 0
M  V30 8058 H 781.11 4.92956 1.223 0
M  V30 8059 H 781.04 4.38396 2.91747 0
M  V30 8060 H 783.531 3.35163 1.74568 0
M  V30 8061 H 783.844 7.12041 3.00362 0
M  V30 8062 H 782.189 6.40087 2.70764 0
M  V30 8063 H 785.38 4.18987 2.08728 0
M  V30 8064 H 785.553 5.90837 2.66112 0
M  V30 8065 N 778.959 -0.83999 1.33349 0
M  V30 8066 C 780.236 -1.57973 1.15342 0
M  V30 8067 C 780.616 -2.09226 -0.280632 0
M  V30 8068 O 779.964 -1.89317 -1.2795 0
M  V30 8069 C 780.174 -2.71446 2.19359 0
M  V30 8070 C 781.522 -3.40654 2.53456 0
M  V30 8071 O 782.546 -2.81686 2.18017 0
M  V30 8072 O 781.405 -4.47101 3.14266 0
M  V30 8073 H 778.499 -0.6964 0.446044 0
M  V30 8074 H 781.045 -0.882843 1.44927 0
M  V30 8075 H 779.817 -2.31205 3.1569 0
M  V30 8076 H 779.44 -3.488 1.90852 0
M  V30 8077 N 780.437 -1.16799 -1.0581 0
M  V30 8078 C 781.683 -0.953935 -1.78963 0
M  V30 8079 C 782.016 0.516638 -1.87202 0
M  V30 8080 O 781.291 1.38338 -1.36721 0
M  V30 8081 C 781.574 -1.58808 -3.23191 0
M  V30 8082 C 781.427 -3.13032 -3.23003 0
M  V30 8083 C 782.746 -1.2868 -4.20867 0
M  V30 8084 H 779.865 -0.347972 -0.64968 0
M  V30 8085 H 782.507 -1.44204 -1.23715 0
M  V30 8086 H 780.657 -1.17303 -3.70368 0
M  V30 8087 H 782.329 -3.63553 -2.83949 0
M  V30 8088 H 780.572 -3.46108 -2.61518 0
M  V30 8089 H 781.243 -3.52527 -4.24769 0
M  V30 8090 H 783.719 -1.6461 -3.82155 0
M  V30 8091 H 782.595 -1.75645 -5.20038 0
M  V30 8092 H 782.856 -0.206491 -4.41618 0
M  V30 8093 N 781.915 1.24427 -0.967243 0
M  V30 8094 C 782.848 2.23885 -0.441683 0
M  V30 8095 C 783.826 1.55231 0.483963 0
M  V30 8096 O 785.01 1.83865 0.415445 0
M  V30 8097 C 782.137 3.36755 0.362458 0
M  V30 8098 C 781.183 4.23495 -0.505407 0
M  V30 8099 S 782.016 4.98916 -1.94534 0
M  V30 8100 C 783.172 6.15245 -1.14997 0
M  V30 8101 H 783.405 2.68118 -1.28453 0
M  V30 8102 H 780.938 1.337 -0.772243 0
M  V30 8103 H 782.896 4.02218 0.820445 0
M  V30 8104 H 781.557 2.91081 1.18027 0
M  V30 8105 H 780.75 5.03876 0.111979 0
M  V30 8106 H 780.352 3.63032 -0.899104 0
M  V30 8107 H 782.644 6.7629 -0.404769 0
M  V30 8108 H 783.587 6.81343 -1.92814 0
M  V30 8109 H 783.995 5.60455 -0.674543 0
M  V30 8110 N 783.393 0.737304 1.3929 0
M  V30 8111 C 784.639 0.286681 2.00763 0
M  V30 8112 C 784.972 -1.12388 1.58375 0
M  V30 8113 O 784.247 -1.76661 0.813699 0
M  V30 8114 C 784.53 0.391147 3.57969 0
M  V30 8115 C 784.383 1.84165 4.1037 0
M  V30 8116 C 785.702 -0.225072 4.39524 0
M  V30 8117 H 782.821 0.105642 0.729389 0
M  V30 8118 H 785.463 0.933892 1.65464 0
M  V30 8119 H 783.613 -0.159875 3.88171 0
M  V30 8120 H 785.285 2.44972 3.90879 0
M  V30 8121 H 783.528 2.3622 3.63844 0
M  V30 8122 H 784.199 1.866 5.19504 0
M  V30 8123 H 786.675 0.244677 4.1538 0
M  V30 8124 H 785.551 -0.121646 5.48765 0
M  V30 8125 H 785.812 -1.31141 4.22202 0
M  V30 8126 N 784.871 -1.49948 0.485112 0
M  V30 8127 C 786.148 -1.95186 -0.12726 0
M  V30 8128 C 786.528 -1.42605 -1.5565 0
M  V30 8129 O 785.876 -0.632986 -2.19558 0
M  V30 8130 C 786.086 -3.48955 -0.0562117 0
M  V30 8131 C 787.434 -4.23932 -0.238106 0
M  V30 8132 O 788.458 -3.55955 -0.132145 0
M  V30 8133 O 787.317 -5.44614 -0.453658 0
M  V30 8134 H 784.411 -0.820433 -0.104014 0
M  V30 8135 H 786.957 -1.60659 0.546517 0
M  V30 8136 H 785.729 -3.79814 0.941122 0
M  V30 8137 H 785.352 -3.90056 -0.770834 0
M  V30 8138 N 786.349 -0.21828 -1.56081 0
M  V30 8139 C 787.765 0.137168 -1.59009 0
M  V30 8140 C 787.965 1.59215 -1.23503 0
M  V30 8141 O 787.021 2.33178 -0.968716 0
M  V30 8142 C 788.334 -0.186162 -3.00123 0
M  V30 8143 C 789.882 -0.128135 -3.12738 0
M  V30 8144 C 790.357 -0.425094 -4.56023 0
M  V30 8145 N 791.848 -0.374547 -4.61683 0
M  V30 8146 C 792.583 -0.57786 -5.70481 0
M  V30 8147 N 792.079 -0.842771 -6.87655 0
M  V30 8148 N 793.872 -0.510521 -5.59777 0
M  V30 8149 H 786.023 -1.16746 -1.77437 0
M  V30 8150 H 788.286 -0.467706 -0.824594 0
M  V30 8151 H 787.992 -1.19589 -3.30744 0
M  V30 8152 H 787.866 0.500388 -3.73866 0
M  V30 8153 H 790.253 0.872224 -2.81915 0
M  V30 8154 H 790.334 -0.848112 -2.41331 0
M  V30 8155 H 789.978 -1.42288 -4.87562 0
M  V30 8156 H 789.908 0.316038 -5.25651 0
M  V30 8157 H 792.399 -0.177356 -3.77484 0
M  V30 8158 H 792.712 -0.986095 -7.66483 0
M  V30 8159 H 791.057 -0.879929 -6.89407 0
M  V30 8160 H 794.248 -0.303813 -4.67113 0
M  V30 8161 H 794.421 -0.672378 -6.44502 0
M  V30 8162 N 787.827 1.57504 0.0551401 0
M  V30 8163 C 788.777 2.0128 1.071 0
M  V30 8164 C 789.761 0.897592 1.33537 0
M  V30 8165 O 790.953 1.16151 1.33558 0
M  V30 8166 C 788.082 2.47414 2.37994 0
M  V30 8167 C 787.168 3.65703 2.14761 0
M  V30 8168 N 787.559 4.79323 1.61504 0
M  V30 8169 C 785.857 3.72574 2.45162 0
M  V30 8170 C 786.558 5.61089 1.53472 0
M  V30 8171 N 785.534 5.05426 2.00114 0
M  V30 8172 H 789.336 2.86558 0.652829 0
M  V30 8173 H 786.85 1.60274 0.26193 0
M  V30 8174 H 788.847 2.77023 3.11551 0
M  V30 8175 H 787.507 1.6353 2.80514 0
M  V30 8176 H 788.518 5.01284 1.30134 0
M  V30 8177 H 785.195 2.99439 2.90934 0
M  V30 8178 H 786.585 6.62328 1.13008 0
M  V30 8179 N 789.305 -0.326896 1.54172 0
M  V30 8180 C 790.252 -1.40216 1.83325 0
M  V30 8181 C 791.222 -1.51538 0.680107 0
M  V30 8182 O 792.407 -1.66811 0.926206 0
M  V30 8183 C 789.547 -2.76626 2.0633 0
M  V30 8184 C 788.66 -2.73963 3.34019 0
M  V30 8185 C 787.795 -4.02198 3.47002 0
M  V30 8186 C 786.834 -3.93828 4.68578 0
M  V30 8187 N 785.971 -5.13787 4.78506 0
M  V30 8188 H 790.811 -1.14656 2.7506 0
M  V30 8189 H 788.348 -0.555089 1.36225 0
M  V30 8190 H 790.306 -3.55922 2.17659 0
M  V30 8191 H 788.936 -3.00503 1.1789 0
M  V30 8192 H 787.988 -1.86677 3.31445 0
M  V30 8193 H 789.3 -2.6366 4.2342 0
M  V30 8194 H 788.454 -4.89923 3.57855 0
M  V30 8195 H 787.193 -4.15302 2.55687 0
M  V30 8196 H 786.198 -3.04487 4.57786 0
M  V30 8197 H 787.423 -3.82292 5.61275 0
M  V30 8198 H 785.369 -5.27403 3.90105 0
M  V30 8199 H 785.286 -5.05807 5.61868 0
M  V30 8200 H 786.554 -6.03236 4.93686 0
M  V30 8201 N 790.784 -1.46188 -0.588786 0
M  V30 8202 C 792.03 -1.51407 -1.34921 0
M  V30 8203 C 792.363 -0.162771 -1.93517 0
M  V30 8204 O 791.638 0.825082 -1.76132 0
M  V30 8205 C 791.921 -2.60795 -2.48311 0
M  V30 8206 C 791.774 -4.05435 -1.94789 0
M  V30 8207 C 793.093 -2.66313 -3.50379 0
M  V30 8208 H 790.212 -0.551213 -0.489217 0
M  V30 8209 H 792.854 -1.78095 -0.661993 0
M  V30 8210 H 791.004 -2.3817 -3.06932 0
M  V30 8211 H 792.676 -4.39328 -1.40672 0
M  V30 8212 H 790.919 -4.15202 -1.25659 0
M  V30 8213 H 791.59 -4.77691 -2.76613 0
M  V30 8214 H 794.066 -2.86634 -3.01629 0
M  V30 8215 H 792.942 -3.44681 -4.27184 0
M  V30 8216 H 793.203 -1.72127 -4.07216 0
M  V30 8217 N 792.262 0.832906 -1.33792 0
M  V30 8218 C 793.225 1.92471 -1.24449 0
M  V30 8219 C 794.225 1.59981 -0.162085 0
M  V30 8220 O 795.415 1.69208 -0.414029 0
M  V30 8221 C 792.547 3.28278 -0.919044 0
M  V30 8222 H 793.74 2.0218 -2.21502 0
M  V30 8223 H 791.293 1.0257 -1.17936 0
M  V30 8224 H 792.028 3.24263 0.048738 0
M  V30 8225 H 791.813 3.53241 -1.70187 0
M  V30 8226 H 793.303 4.08253 -0.878576 0
M  V30 8227 N 793.74 1.17359 1.05189 0
M  V30 8228 C 794.67 0.91365 2.14883 0
M  V30 8229 C 795.651 -0.144365 1.69486 0
M  V30 8230 O 796.836 0.00587861 1.94199 0
M  V30 8231 C 793.966 0.426196 3.44675 0
M  V30 8232 C 792.92 1.4234 4.03638 0
M  V30 8233 C 792.246 0.793902 5.28773 0
M  V30 8234 C 793.546 2.7966 4.41121 0
M  V30 8235 H 795.24 1.831 2.36885 0
M  V30 8236 H 792.786 0.881781 1.13845 0
M  V30 8237 H 794.739 0.231767 4.20762 0
M  V30 8238 H 793.463 -0.526693 3.22325 0
M  V30 8239 H 792.122 1.60457 3.2962 0
M  V30 8240 H 791.77 -0.165824 5.02727 0
M  V30 8241 H 791.47 1.45959 5.69183 0
M  V30 8242 H 792.994 0.609747 6.07548 0
M  V30 8243 H 794.408 2.6526 5.08242 0
M  V30 8244 H 792.805 3.42807 4.92548 0
M  V30 8245 H 793.875 3.34068 3.51464 0
M  V30 8246 N 795.218 -1.23913 0.973828 0
M  V30 8247 C 796.466 -1.91771 0.637817 0
M  V30 8248 C 796.787 -1.76434 -0.830435 0
M  V30 8249 O 796.057 -1.13965 -1.59339 0
M  V30 8250 H 794.637 -0.709761 0.232912 0
M  V30 8251 H 797.299 -1.50677 1.23622 0
M  V30 8252 H 796.395 -2.99327 0.883731 0
M  V30 8253 N 796.696 -0.74468 -1.38897 0
M  V30 8254 C 797.643 -0.111064 -2.30533 0
M  V30 8255 C 798.613 0.719276 -1.49719 0
M  V30 8256 O 799.798 0.677244 -1.78376 0
M  V30 8257 C 796.938 0.78292 -3.36102 0
M  V30 8258 C 796.051 -0.0610817 -4.31957 0
M  V30 8259 C 795.186 0.835075 -5.24595 0
M  V30 8260 C 794.225 -0.0130974 -6.12099 0
M  V30 8261 N 793.362 0.839525 -6.97063 0
M  V30 8262 H 798.202 -0.898113 -2.84144 0
M  V30 8263 H 795.739 -0.454537 -1.39901 0
M  V30 8264 H 797.697 1.31578 -3.95908 0
M  V30 8265 H 796.327 1.53585 -2.83922 0
M  V30 8266 H 795.379 -0.711469 -3.73687 0
M  V30 8267 H 796.691 -0.716482 -4.93627 0
M  V30 8268 H 795.845 1.43542 -5.89475 0
M  V30 8269 H 794.584 1.52423 -4.63269 0
M  V30 8270 H 793.589 -0.626179 -5.46223 0
M  V30 8271 H 794.814 -0.699181 -6.75491 0
M  V30 8272 H 792.76 1.5138 -6.38295 0
M  V30 8273 H 792.677 0.240823 -7.55616 0
M  V30 8274 H 793.945 1.42513 -7.66362 0
M  V30 8275 N 798.174 1.49689 -0.493057 0
M  V30 8276 C 799.402 2.06836 0.0513141 0
M  V30 8277 C 799.817 1.35436 1.31539 0
M  V30 8278 O 799.174 0.430248 1.77356 0
M  V30 8279 C 799.225 3.60107 0.317003 0
M  V30 8280 O 798.946 4.2882 -0.896957 0
M  V30 8281 C 800.447 4.33945 0.905902 0
M  V30 8282 H 797.667 0.670787 -0.0169048 0
M  V30 8283 H 800.211 1.92574 -0.688139 0
M  V30 8284 H 798.366 3.74099 1.00642 0
M  V30 8285 H 798.78 5.20395 -0.654939 0
M  V30 8286 H 800.254 5.42087 1.04144 0
M  V30 8287 H 800.731 3.95895 1.90168 0
M  V30 8288 H 801.337 4.2454 0.254195 0
M  V30 8289 N 799.652 0.226554 1.55963 0
M  V30 8290 C 800.582 -0.676079 2.23498 0
M  V30 8291 C 801.563 -1.19718 1.20837 0
M  V30 8292 O 802.748 -1.24027 1.49436 0
M  V30 8293 C 799.878 -1.88217 2.91876 0
M  V30 8294 C 798.832 -1.4947 4.01052 0
M  V30 8295 C 798.158 -2.77997 4.56751 0
M  V30 8296 C 799.458 -0.680951 5.17842 0
M  V30 8297 H 801.152 -0.112989 2.99187 0
M  V30 8298 H 798.698 -0.0529046 1.43903 0
M  V30 8299 H 800.651 -2.51911 3.37815 0
M  V30 8300 H 799.375 -2.47031 2.13643 0
M  V30 8301 H 798.034 -0.881199 3.55852 0
M  V30 8302 H 797.682 -3.34966 3.75243 0
M  V30 8303 H 797.382 -2.52803 5.30438 0
M  V30 8304 H 798.906 -3.42625 5.05411 0
M  V30 8305 H 800.32 -1.22171 5.60131 0
M  V30 8306 H 798.717 -0.525898 5.97791 0
M  V30 8307 H 799.787 0.311346 4.83899 0
M  V30 8308 N 801.13 -1.57531 -0.0467866 0
M  V30 8309 C 802.378 -1.88078 -0.739656 0
M  V30 8310 C 802.699 -0.821936 -1.76831 0
M  V30 8311 O 801.969 0.146582 -1.95351 0
M  V30 8312 H 800.549 -0.694075 -0.276169 0
M  V30 8313 H 803.211 -1.94893 -0.0169391 0
M  V30 8314 H 802.307 -2.86396 -1.24031 0
M  V30 8315 N 802.608 0.318715 -1.54344 0
M  V30 8316 C 803.518 1.41535 -1.87097 0
M  V30 8317 C 804.534 1.56361 -0.763353 0
M  V30 8318 O 805.71 1.71365 -1.05811 0
M  V30 8319 C 802.775 2.76178 -2.09587 0
M  V30 8320 C 801.836 2.70486 -3.3337 0
M  V30 8321 C 801.069 3.98708 -3.54778 0
M  V30 8322 O 801.292 4.9721 -2.79532 0
M  V30 8323 O 800.226 4.01674 -4.48266 0
M  V30 8324 H 804.052 1.16764 -2.80357 0
M  V30 8325 H 801.637 0.51318 -1.4031 0
M  V30 8326 H 803.519 3.55873 -2.25682 0
M  V30 8327 H 802.194 3.00829 -1.19514 0
M  V30 8328 H 801.101 1.89325 -3.22656 0
M  V30 8329 H 802.434 2.50789 -4.23516 0
M  V30 8330 N 804.086 1.46499 0.581025 0
M  V30 8331 C 805.334 1.51596 1.33653 0
M  V30 8332 C 805.655 0.169859 1.94259 0
M  V30 8333 O 804.925 -0.803776 1.78651 0
M  V30 8334 H 803.505 0.558346 0.496244 0
M  V30 8335 H 806.167 1.8264 0.680338 0
M  V30 8336 H 805.263 2.26956 2.14237 0
M  V30 8337 N 805.565 -0.825799 1.34232 0
M  V30 8338 C 806.475 -1.9684 1.27638 0
M  V30 8339 C 807.491 -1.73018 0.184569 0
M  V30 8340 O 808.667 -1.97172 0.410525 0
M  V30 8341 C 805.732 -3.31084 1.02879 0
M  V30 8342 C 804.793 -3.67933 2.21188 0
M  V30 8343 C 804.026 -4.95772 1.976 0
M  V30 8344 O 804.249 -5.62721 0.93281 0
M  V30 8345 O 803.183 -5.30431 2.84477 0
M  V30 8346 H 807.009 -2.05346 2.23756 0
M  V30 8347 H 804.594 -0.960772 1.1441 0
M  V30 8348 H 806.476 -4.11492 0.908406 0
M  V30 8349 H 805.151 -3.23552 0.0979821 0
M  V30 8350 H 804.058 -2.87981 2.38784 0
M  V30 8351 H 805.391 -3.80147 3.12648 0
M  V30 8352 N 807.043 -1.17915 -1.04565 0
M  V30 8353 C 808.29 -0.971424 -1.77678 0
M  V30 8354 C 808.618 0.499401 -1.87979 0
M  V30 8355 O 807.873 1.38695 -1.38066 0
M  V30 8356 C 808.172 -1.56528 -3.213 0
M  V30 8357 C 807.838 -3.06138 -3.31044 0
M  V30 8358 C 806.5 -3.46974 -3.33411 0
M  V30 8359 C 808.852 -4.02151 -3.31548 0
M  V30 8360 C 806.18 -4.82406 -3.33918 0
M  V30 8361 C 808.532 -5.37492 -3.33595 0
M  V30 8362 C 807.196 -5.77782 -3.34251 0
M  V30 8363 H 806.466 -0.355469 -0.650171 0
M  V30 8364 H 809.113 -1.46902 -1.22849 0
M  V30 8365 H 807.418 -0.98955 -3.79098 0
M  V30 8366 H 809.115 -1.38003 -3.76505 0
M  V30 8367 H 805.705 -2.73589 -3.29919 0
M  V30 8368 H 809.889 -3.71656 -3.28916 0
M  V30 8369 H 805.145 -5.12927 -3.3274 0
M  V30 8370 H 809.319 -6.1166 -3.32934 0
M  V30 8371 H 806.946 -6.82702 -3.34397 0
M  V30 8372 N 808.521 1.23394 -0.980386 0
M  V30 8373 C 809.769 1.91431 -0.647978 0
M  V30 8374 C 810.09 1.76871 0.821066 0
M  V30 8375 O 809.36 1.14808 1.58732 0
M  V30 8376 H 807.94 0.708516 -0.236673 0
M  V30 8377 H 810.602 1.50019 -1.2442 0
M  V30 8378 H 809.698 2.98854 -0.899592 0
M  V30 8379 N 809.999 0.752036 1.385 0
M  V30 8380 C 810.962 0.131587 2.28822 0
M  V30 8381 C 811.962 -0.649149 1.47115 0
M  V30 8382 O 813.152 -0.475645 1.67581 0
M  V30 8383 C 810.284 -0.822101 3.30839 0
M  V30 8384 H 811.477 0.927551 2.85196 0
M  V30 8385 H 809.03 0.518945 1.47434 0
M  V30 8386 H 809.765 -1.6438 2.79553 0
M  V30 8387 H 809.55 -0.264689 3.91206 0
M  V30 8388 H 811.04 -1.25226 3.98382 0
M  V30 8389 N 811.477 -1.49425 0.500989 0
M  V30 8390 C 812.723 -2.02753 -0.0436 0
M  V30 8391 C 813.056 -1.37991 -1.36646 0
M  V30 8392 O 812.331 -0.515597 -1.87542 0
M  V30 8393 C 812.614 -3.59565 -0.19616 0
M  V30 8394 C 812.467 -4.34855 1.14982 0
M  V30 8395 C 813.786 -4.30014 -0.936795 0
M  V30 8396 H 810.905 -0.73686 -0.0143711 0
M  V30 8397 H 813.547 -1.78448 0.652397 0
M  V30 8398 H 811.697 -3.80405 -0.788959 0
M  V30 8399 H 813.369 -4.25512 1.7815 0
M  V30 8400 H 811.612 -3.97414 1.73911 0
M  V30 8401 H 812.283 -5.42933 0.996385 0
M  V30 8402 H 814.759 -4.1383 -0.434036 0
M  V30 8403 H 813.635 -5.39483 -1.01238 0
M  V30 8404 H 813.896 -3.95257 -1.9805 0
M  V30 8405 N 812.955 -0.234822 -1.55841 0
M  V30 8406 C 813.888 0.710134 -2.16869 0
M  V30 8407 C 814.866 1.18155 -1.11706 0
M  V30 8408 O 816.05 1.26188 -1.40032 0
M  V30 8409 C 813.177 1.96368 -2.75966 0
M  V30 8410 C 812.223 1.63114 -3.94076 0
M  V30 8411 S 813.056 0.744307 -5.30302 0
M  V30 8412 C 814.212 2.00712 -5.92845 0
M  V30 8413 H 814.445 0.19146 -2.96683 0
M  V30 8414 H 811.978 -0.0193854 -1.54388 0
M  V30 8415 H 813.936 2.68338 -3.10653 0
M  V30 8416 H 812.597 2.45347 -1.96121 0
M  V30 8417 H 811.79 2.56285 -4.33975 0
M  V30 8418 H 811.392 0.991967 -3.60605 0
M  V30 8419 H 813.684 2.9557 -6.09627 0
M  V30 8420 H 814.627 1.65182 -6.88564 0
M  V30 8421 H 815.035 2.1537 -5.21801 0
M  V30 8422 N 814.433 1.57553 0.0384317 0
M  V30 8423 C 815.343 2.09333 1.0591 0
M  V30 8424 C 816.359 1.0299 1.40247 0
M  V30 8425 O 817.535 1.34669 1.49754 0
M  V30 8426 C 814.6 2.55468 2.34386 0
M  V30 8427 C 813.661 3.76254 2.06716 0
M  V30 8428 C 812.894 4.20179 3.29067 0
M  V30 8429 O 813.117 3.637 4.39407 0
M  V30 8430 O 812.051 5.12697 3.15317 0
M  V30 8431 H 815.877 2.96683 0.649087 0
M  V30 8432 H 813.462 1.47211 0.254802 0
M  V30 8433 H 815.344 2.85514 3.09935 0
M  V30 8434 H 814.019 1.71234 2.74701 0
M  V30 8435 H 812.926 3.51241 1.28766 0
M  V30 8436 H 814.259 4.61443 1.71263 0
M  V30 8437 N 815.911 -0.310526 1.54511 0
M  V30 8438 C 817.159 -1.04484 1.72996 0
M  V30 8439 C 817.48 -1.88118 0.513479 0
M  V30 8440 O 816.75 -1.90119 -0.472384 0
M  V30 8441 H 815.33 -0.388747 0.637875 0
M  V30 8442 H 817.992 -0.343811 1.91844 0
M  V30 8443 H 817.088 -1.70341 2.61515 0
M  V30 8444 N 817.389 -1.46805 -0.573248 0
M  V30 8445 C 818.321 -1.54127 -1.6964 0
M  V30 8446 C 819.334 -0.428778 -1.57052 0
M  V30 8447 O 820.523 -0.697612 -1.64303 0
M  V30 8448 C 817.623 -1.41438 -3.07975 0
M  V30 8449 C 816.796 -2.66974 -3.46474 0
M  V30 8450 C 815.855 -2.48349 -4.63906 0
M  V30 8451 O 814.881 -3.22109 -4.69292 0
M  V30 8452 N 816.083 -1.55129 -5.59388 0
M  V30 8453 H 818.848 -2.50971 -1.6381 0
M  V30 8454 H 816.409 -1.42981 -0.759479 0
M  V30 8455 H 818.401 -1.26737 -3.84343 0
M  V30 8456 H 816.971 -0.527388 -3.08119 0
M  V30 8457 H 816.191 -2.9655 -2.59715 0
M  V30 8458 H 817.479 -3.50347 -3.68964 0
M  V30 8459 H 816.877 -0.94324 -5.57781 0
M  V30 8460 H 815.434 -1.46387 -6.35149 0
M  V30 8461 N 818.867 0.818669 -1.34668 0
M  V30 8462 C 819.797 1.94468 -1.29245 0
M  V30 8463 C 820.778 1.69257 -0.169101 0
M  V30 8464 O 821.963 1.90794 -0.362143 0
M  V30 8465 C 819.093 3.31001 -1.05145 0
M  V30 8466 C 818.047 3.70663 -2.13992 0
M  V30 8467 C 817.373 5.05226 -1.75074 0
M  V30 8468 C 818.673 3.82312 -3.55858 0
M  V30 8469 H 820.367 1.99263 -2.2346 0
M  V30 8470 H 817.913 0.957304 -1.07572 0
M  V30 8471 H 819.866 4.09364 -0.999949 0
M  V30 8472 H 818.59 3.26517 -0.0737312 0
M  V30 8473 H 817.249 2.94578 -2.18219 0
M  V30 8474 H 816.897 4.97233 -0.759518 0
M  V30 8475 H 816.597 5.32734 -2.47928 0
M  V30 8476 H 818.121 5.86042 -1.71427 0
M  V30 8477 H 819.535 4.50935 -3.5402 0
M  V30 8478 H 817.932 4.21278 -4.2737 0
M  V30 8479 H 819.002 2.84193 -3.9289 0
M  V30 8480 N 820.346 1.18468 1.03938 0
M  V30 8481 C 821.294 0.909286 2.14091 0
M  V30 8482 C 822.288 -0.130928 1.68893 0
M  V30 8483 O 823.494 0.0173403 1.79992 0
M  V30 8484 H 819.869 0.27658 0.699291 0
M  V30 8485 H 821.84 1.84514 2.34515 0
M  V30 8486 C 820.589 0.452922 3.44737 0
M  V30 8487 H 819.912 1.24485 3.79926 0
M  V30 8488 H 821.352 0.299238 4.22943 0
M  V30 8489 C 819.811 -0.831435 3.26479 0
M  V30 8490 O 820.341 -1.89535 3.54174 0
M  V30 8491 N 818.547 -0.784545 2.79809 0
M  V30 8492 H 818.094 0.0814746 2.57471 0
M  V30 8493 H 818.052 -1.64431 2.67973 0
M  V30 8494 N 821.824 -1.22873 0.986916 0
M  V30 8495 C 822.756 -2.23889 0.490537 0
M  V30 8496 C 823.769 -1.57523 -0.411144 0
M  V30 8497 O 824.958 -1.7721 -0.214236 0
M  V30 8498 C 822.058 -3.37488 -0.30902 0
M  V30 8499 C 821.231 -4.33438 0.587354 0
M  V30 8500 C 820.29 -5.25958 -0.159467 0
M  V30 8501 O 819.316 -5.67394 0.453115 0
M  V30 8502 N 820.518 -5.62265 -1.44355 0
M  V30 8503 H 823.283 -2.67109 1.35914 0
M  V30 8504 H 820.844 -1.37111 0.860937 0
M  V30 8505 H 822.836 -3.96365 -0.817139 0
M  V30 8506 H 821.406 -2.934 -1.07868 0
M  V30 8507 H 820.626 -3.72969 1.27622 0
M  V30 8508 H 821.914 -4.94495 1.19801 0
M  V30 8509 H 821.312 -5.30562 -1.96266 0
M  V30 8510 H 819.869 -6.23585 -1.89698 0
M  V30 8511 N 823.302 -0.75937 -1.38099 0
M  V30 8512 C 824.579 -0.243371 -1.9408 0
M  V30 8513 C 824.959 1.25942 -1.69416 0
M  V30 8514 O 824.307 2.03667 -1.03595 0
M  V30 8515 C 824.517 -0.603328 -3.43745 0
M  V30 8516 C 825.865 -0.566195 -4.20808 0
M  V30 8517 O 826.889 -0.541969 -3.52053 0
M  V30 8518 O 825.748 -0.582261 -5.43389 0
M  V30 8519 H 822.842 -0.0526825 -0.82532 0
M  V30 8520 H 825.388 -0.839884 -1.47459 0
M  V30 8521 H 824.16 -1.64098 -3.55229 0
M  V30 8522 H 823.783 0.0208887 -3.97595 0
M  V30 8523 N 824.78 1.49157 -0.508906 0
M  V30 8524 C 826.057 1.95363 0.0961913 0
M  V30 8525 C 826.437 1.45064 1.53362 0
M  V30 8526 O 825.785 0.667835 2.18523 0
M  V30 8527 C 825.995 3.49 0.000688881 0
M  V30 8528 C 827.343 4.24257 0.170632 0
M  V30 8529 O 828.367 3.5612 0.0754994 0
M  V30 8530 O 827.226 5.45267 0.366957 0
M  V30 8531 H 824.32 0.821984 0.0909489 0
M  V30 8532 H 826.866 1.59769 -0.572007 0
M  V30 8533 H 825.638 3.78269 -1.00143 0
M  V30 8534 H 825.261 3.91233 0.708682 0
M  V30 8535 N 826.258 0.243083 1.55714 0
M  V30 8536 C 827.483 -0.389944 2.03701 0
M  V30 8537 C 827.908 -1.51025 1.12129 0
M  V30 8538 O 827.266 -1.80944 0.11352 0
M  V30 8539 C 827.314 -0.878649 3.49731 0
M  V30 8540 O 826.418 -1.98851 3.61292 0
M  V30 8541 H 825.759 -0.0855115 0.658471 0
M  V30 8542 H 828.289 0.368023 2.01263 0
M  V30 8543 H 828.299 -1.18287 3.90477 0
M  V30 8544 H 826.974 -0.0588107 4.15858 0
M  V30 8545 H 825.551 -1.68928 3.32442 0
M  V30 8546 N 827.736 -1.57571 -0.0300757 0
M  V30 8547 C 828.985 -1.88407 -0.720126 0
M  V30 8548 C 829.298 -0.841466 -1.76575 0
M  V30 8549 O 830.504 -1.03902 -2.50832 0
M  V30 8550 C 828.96 -3.34348 -1.33188 0
M  V30 8551 C 828.568 -4.46837 -0.32266 0
M  V30 8552 C 830.312 -3.74333 -2.00187 0
M  V30 8553 C 828.219 -5.83838 -0.942703 0
M  V30 8554 H 827.149 -0.702952 -0.272718 0
M  V30 8555 H 829.8 -1.83482 0.0255337 0
M  V30 8556 H 828.182 -3.34014 -2.12721 0
M  V30 8557 H 829.356 -4.58638 0.445887 0
M  V30 8558 H 827.671 -4.15678 0.245181 0
M  V30 8559 H 830.268 -4.74008 -2.47428 0
M  V30 8560 H 830.611 -3.06275 -2.81959 0
M  V30 8561 H 831.144 -3.76837 -1.2743 0
M  V30 8562 H 827.883 -6.55294 -0.164413 0
M  V30 8563 H 827.403 -5.75759 -1.68111 0
M  V30 8564 H 829.082 -6.30535 -1.45034 0
M  V30 8565 N 829.214 0.302327 -1.54673 0
M  V30 8566 C 830.144 1.37759 -1.88533 0
M  V30 8567 C 831.125 1.52961 -0.744113 0
M  V30 8568 O 832.31 1.6649 -0.999731 0
M  V30 8569 C 829.44 2.74201 -2.13146 0
M  V30 8570 C 828.394 2.73765 -3.28993 0
M  V30 8571 C 827.72 4.13483 -3.39022 0
M  V30 8572 C 829.02 2.35624 -4.66132 0
M  V30 8573 H 830.714 1.0967 -2.78591 0
M  V30 8574 H 828.26 0.52613 -1.34044 0
M  V30 8575 H 830.213 3.49508 -2.35419 0
M  V30 8576 H 828.937 3.03812 -1.19858 0
M  V30 8577 H 827.596 2.00914 -3.06642 0
M  V30 8578 H 827.244 4.40269 -2.43253 0
M  V30 8579 H 826.944 4.14093 -4.16894 0
M  V30 8580 H 828.468 4.90572 -3.63553 0
M  V30 8581 H 829.882 3.00647 -4.88143 0
M  V30 8582 H 828.279 2.47449 -5.46707 0
M  V30 8583 H 829.349 1.30753 -4.66939 0
M  V30 8584 N 830.692 1.47107 0.565454 0
M  V30 8585 C 831.639 1.58974 1.6732 0
M  V30 8586 C 832.609 0.433146 1.60353 0
M  V30 8587 O 833.794 0.652141 1.79309 0
M  V30 8588 C 830.934 1.60224 3.05651 0
M  V30 8589 C 830.047 2.86741 3.23116 0
M  V30 8590 C 829.182 2.79381 4.51796 0
M  V30 8591 C 828.221 4.0076 4.62664 0
M  V30 8592 N 827.358 3.91685 5.8269 0
M  V30 8593 H 832.198 2.53588 1.56515 0
M  V30 8594 H 829.735 1.25791 0.762558 0
M  V30 8595 H 831.693 1.58933 3.85741 0
M  V30 8596 H 830.323 0.691285 3.15311 0
M  V30 8597 H 829.375 2.97936 2.36513 0
M  V30 8598 H 830.687 3.7665 3.27011 0
M  V30 8599 H 829.841 2.76293 5.40136 0
M  V30 8600 H 828.58 1.87142 4.50366 0
M  V30 8601 H 827.585 4.04162 3.72738 0
M  V30 8602 H 828.81 4.94117 4.6586 0
M  V30 8603 H 826.756 3.02243 5.82224 0
M  V30 8604 H 826.673 4.75264 5.87929 0
M  V30 8605 H 827.941 3.92599 6.73414 0
M  V30 8606 N 832.17 -0.811516 1.35101 0
M  V30 8607 C 833.416 -1.57068 1.28287 0
M  V30 8608 C 833.749 -1.93667 -0.143808 0
M  V30 8609 O 833.024 -1.60953 -1.09199 0
M  V30 8610 C 833.307 -2.86259 2.18466 0
M  V30 8611 C 833.16 -2.56168 3.69727 0
M  V30 8612 C 834.479 -3.87924 2.07852 0
M  V30 8613 H 831.598 -0.569869 0.467353 0
M  V30 8614 H 834.24 -0.934023 1.65457 0
M  V30 8615 H 832.39 -3.4059 1.86898 0
M  V30 8616 H 834.062 -2.08059 4.11715 0
M  V30 8617 H 832.305 -1.89436 3.90252 0
M  V30 8618 H 832.976 -3.48344 4.28206 0
M  V30 8619 H 835.452 -3.4298 2.35593 0
M  V30 8620 H 834.328 -4.76106 2.73157 0
M  V30 8621 H 834.589 -4.2923 1.05896 0
M  V30 8622 N 833.648 -1.19017 -1.03309 0
M  V30 8623 C 834.611 -0.926076 -2.09658 0
M  V30 8624 C 835.611 0.0917077 -1.60538 0
M  V30 8625 O 836.801 -0.142574 -1.73616 0
M  V30 8626 C 833.933 -0.390958 -3.38651 0
M  V30 8627 H 835.126 -1.86923 -2.3452 0
M  V30 8628 H 832.679 -1.00325 -1.19853 0
M  V30 8629 H 833.414 0.558446 -3.19456 0
M  V30 8630 H 833.199 -1.12474 -3.75622 0
M  V30 8631 H 834.689 -0.225131 -4.16993 0
M  V30 8632 N 835.127 1.22348 -0.993418 0
M  V30 8633 C 836.373 1.91393 -0.67056 0
M  V30 8634 C 836.706 1.77163 0.795428 0
M  V30 8635 O 835.981 1.14084 1.57528 0
M  V30 8636 C 836.264 3.43589 -1.0779 0
M  V30 8637 C 836.117 3.66867 -2.60248 0
M  V30 8638 C 837.436 4.35545 -0.631527 0
M  V30 8639 H 834.555 0.695057 -0.24508 0
M  V30 8640 H 837.197 1.44213 -1.23703 0
M  V30 8641 H 835.347 3.83903 -0.595902 0
M  V30 8642 H 837.019 3.35954 -3.16121 0
M  V30 8643 H 835.262 3.1113 -3.02293 0
M  V30 8644 H 835.933 4.73457 -2.838 0
M  V30 8645 H 838.409 4.0275 -1.04554 0
M  V30 8646 H 837.285 5.40707 -0.944831 0
M  V30 8647 H 837.546 4.39618 0.467779 0
M  V30 8648 N 836.605 0.766683 1.37694 0
M  V30 8649 C 837.552 0.147725 2.30327 0
M  V30 8650 C 838.522 -0.695366 1.50844 0
M  V30 8651 O 839.707 -0.64878 1.79431 0
M  V30 8652 C 836.847 -0.72935 3.37305 0
M  V30 8653 C 835.96 0.129795 4.31805 0
M  V30 8654 C 835.095 -0.751511 5.25857 0
M  V30 8655 C 834.134 0.110475 6.12 0
M  V30 8656 N 833.271 -0.728522 6.9831 0
M  V30 8657 H 838.111 0.943204 2.82679 0
M  V30 8658 H 835.648 0.476736 1.3916 0
M  V30 8659 H 837.606 -1.25263 3.97951 0
M  V30 8660 H 836.236 -1.49048 2.86329 0
M  V30 8661 H 835.288 0.770829 3.72508 0
M  V30 8662 H 836.6 0.794923 4.92425 0
M  V30 8663 H 835.754 -1.34146 5.91684 0
M  V30 8664 H 834.493 -1.45034 4.65636 0
M  V30 8665 H 833.498 0.712999 5.45157 0
M  V30 8666 H 834.723 0.806557 6.74293 0
M  V30 8667 H 832.669 -1.41206 6.40622 0
M  V30 8668 H 832.586 -0.12058 7.55904 0
M  V30 8669 H 833.854 -1.30303 7.68532 0
M  V30 8670 N 838.083 -1.48885 0.516809 0
M  V30 8671 C 839.311 -2.06892 -0.0184017 0
M  V30 8672 C 839.726 -1.37511 -1.29368 0
M  V30 8673 O 839.083 -0.458409 -1.76649 0
M  V30 8674 C 839.134 -3.60566 -0.259673 0
M  V30 8675 O 838.855 -4.27338 0.965065 0
M  V30 8676 C 840.356 -4.35331 -0.836751 0
M  V30 8677 H 837.576 -0.670433 0.0275743 0
M  V30 8678 H 840.12 -1.91455 0.718689 0
M  V30 8679 H 838.275 -3.75653 -0.94678 0
M  V30 8680 H 838.689 -5.19287 0.737647 0
M  V30 8681 H 840.163 -5.43675 -0.955065 0
M  V30 8682 H 840.64 -3.9887 -1.83845 0
M  V30 8683 H 841.246 -4.2489 -0.186622 0
M  V30 8684 N 839.561 -0.251338 -1.55583 0
M  V30 8685 C 840.494 0.687092 -2.1761 0
M  V30 8686 C 841.472 1.16963 -1.12953 0
M  V30 8687 O 842.656 1.24696 -1.41362 0
M  V30 8688 C 839.783 1.93429 -2.78034 0
M  V30 8689 C 838.829 1.58925 -3.95784 0
M  V30 8690 S 839.662 0.688019 -5.31062 0
M  V30 8691 C 840.818 1.94413 -5.94941 0
M  V30 8692 H 841.051 0.159982 -2.96869 0
M  V30 8693 H 838.584 -0.0357593 -1.54359 0
M  V30 8694 H 840.542 2.65028 -3.13481 0
M  V30 8695 H 839.203 2.43253 -1.98713 0
M  V30 8696 H 838.396 2.51668 -4.36668 0
M  V30 8697 H 837.998 0.953664 -3.61637 0
M  V30 8698 H 840.29 2.89087 -6.12727 0
M  V30 8699 H 841.233 1.5787 -6.90277 0
M  V30 8700 H 841.641 2.09824 -5.24056 0
M  V30 8701 N 841.039 1.57585 0.0217189 0
M  V30 8702 C 841.986 2.07036 1.02004 0
M  V30 8703 C 842.956 0.96106 1.35473 0
M  V30 8704 O 844.141 1.23211 1.45684 0
M  V30 8705 C 841.281 2.56056 2.31364 0
M  V30 8706 C 840.394 3.80805 2.03989 0
M  V30 8707 C 839.529 4.18409 3.27272 0
M  V30 8708 C 838.568 5.36055 2.95486 0
M  V30 8709 N 837.705 5.69056 4.11242 0
M  V30 8710 H 842.545 2.92073 0.591396 0
M  V30 8711 H 840.082 1.44403 0.280384 0
M  V30 8712 H 842.04 2.82548 3.06957 0
M  V30 8713 H 840.67 1.73925 2.71937 0
M  V30 8714 H 839.722 3.61354 1.1886 0
M  V30 8715 H 841.034 4.66512 1.76546 0
M  V30 8716 H 840.188 4.46068 4.11228 0
M  V30 8717 H 838.927 3.31369 3.57835 0
M  V30 8718 H 837.932 5.08142 2.09933 0
M  V30 8719 H 839.157 6.24755 2.66193 0
M  V30 8720 H 837.103 4.84974 4.41742 0
M  V30 8721 H 837.02 6.49288 3.87247 0
M  V30 8722 H 838.288 6.01295 4.96049 0
M  V30 8723 N 842.517 -0.29412 1.54831 0
M  V30 8724 C 843.766 -1.02614 1.73647 0
M  V30 8725 C 844.079 -1.88193 0.533162 0
M  V30 8726 O 845.285 -2.64713 0.603275 0
M  V30 8727 C 843.741 -1.87417 3.07251 0
M  V30 8728 C 843.349 -1.06806 4.35082 0
M  V30 8729 C 845.093 -2.60176 3.35423 0
M  V30 8730 C 843 -1.90926 5.59733 0
M  V30 8731 H 841.93 -0.386834 0.647206 0
M  V30 8732 H 844.581 -0.282789 1.81308 0
M  V30 8733 H 842.963 -2.65765 2.93572 0
M  V30 8734 H 844.137 -0.330226 4.59615 0
M  V30 8735 H 842.452 -0.455979 4.13896 0
M  V30 8736 H 845.049 -3.23476 4.25755 0
M  V30 8737 H 845.392 -3.29365 2.54606 0
M  V30 8738 H 845.925 -1.88871 3.50103 0
M  V30 8739 H 842.664 -1.26194 6.43238 0
M  V30 8740 H 842.184 -2.62363 5.39375 0
M  V30 8741 H 843.863 -2.48807 5.97247 0
M  V30 8742 N 843.995 -1.47404 -0.557645 0
M  V30 8743 C 844.958 -1.59411 -1.64684 0
M  V30 8744 C 845.958 -0.469244 -1.53801 0
M  V30 8745 O 847.148 -0.734298 -1.57967 0
M  V30 8746 C 844.28 -1.5382 -3.04224 0
M  V30 8747 H 845.473 -2.56504 -1.55389 0
M  V30 8748 H 843.026 -1.35588 -0.777531 0
M  V30 8749 H 843.761 -0.581 -3.19053 0
M  V30 8750 H 843.546 -2.35456 -3.13533 0
M  V30 8751 H 845.036 -1.65358 -3.83466 0
M  V30 8752 N 845.473 0.80434 -1.35529 0
M  V30 8753 C 846.722 1.55665 -1.28263 0
M  V30 8754 C 847.035 1.95096 0.140352 0
M  V30 8755 O 848.241 2.69422 0.335303 0
M  V30 8756 C 846.697 2.80935 -2.24952 0
M  V30 8757 C 846.305 2.48733 -3.72607 0
M  V30 8758 C 848.049 3.5894 -2.26632 0
M  V30 8759 C 845.956 3.70308 -4.61114 0
M  V30 8760 H 844.886 0.584301 -0.476559 0
M  V30 8761 H 847.537 0.88395 -1.60806 0
M  V30 8762 H 845.919 3.49927 -1.85383 0
M  V30 8763 H 847.093 1.87733 -4.20824 0
M  V30 8764 H 845.408 1.83969 -3.73557 0
M  V30 8765 H 848.005 4.49244 -2.89973 0
M  V30 8766 H 848.348 3.96433 -1.27069 0
M  V30 8767 H 848.881 2.96912 -2.64742 0
M  V30 8768 H 845.62 3.37922 -5.61684 0
M  V30 8769 H 845.14 4.30526 -4.17621 0
M  V30 8770 H 846.819 4.37511 -4.76648 0
M  V30 8771 N 846.951 1.19563 1.02676 0
M  V30 8772 C 848.191 1.01072 1.77662 0
M  V30 8773 C 848.555 -0.450344 1.86644 0
M  V30 8774 O 849.756 -0.755132 2.57975 0
M  V30 8775 C 848.027 1.66383 3.16309 0
M  V30 8776 S 849.586 1.62858 4.07459 0
M  V30 8777 H 846.404 0.362644 0.611564 0
M  V30 8778 H 849.006 1.51947 1.23014 0
M  V30 8779 H 847.71 2.71917 3.07391 0
M  V30 8780 H 847.241 1.15596 3.76033 0
M  V30 8781 H 849.256 0.654265 4.91868 0
M  V30 8782 N 848.429 -1.21819 0.999893 0
M  V30 8783 C 849.657 -1.94758 0.698359 0
M  V30 8784 C 850.072 -1.73771 -0.738183 0
M  V30 8785 O 849.429 -1.04113 -1.49889 0
M  V30 8786 C 849.48 -3.47292 1.00353 0
M  V30 8787 O 849.201 -3.67579 2.38363 0
M  V30 8788 C 850.702 -4.37403 0.72068 0
M  V30 8789 H 847.922 -0.619512 0.257771 0
M  V30 8790 H 850.466 -1.54778 1.33656 0
M  V30 8791 H 848.621 -3.85213 0.411018 0
M  V30 8792 H 849.035 -4.61719 2.48829 0
M  V30 8793 H 850.509 -5.43151 0.984422 0
M  V30 8794 H 850.986 -4.3784 -0.345309 0
M  V30 8795 H 851.592 -4.05119 1.29456 0
M  V30 8796 N 849.908 -0.773975 -1.37286 0
M  V30 8797 C 851.324 -0.45386 -1.53011 0
M  V30 8798 C 851.524 1.03018 -1.73175 0
M  V30 8799 O 850.58 1.81597 -1.75438 0
M  V30 8800 C 851.893 -1.27087 -2.72524 0
M  V30 8801 C 853.441 -1.26299 -2.86387 0
M  V30 8802 C 853.916 -2.0634 -4.08886 0
M  V30 8803 N 855.407 -2.03706 -4.16003 0
M  V30 8804 C 856.142 -2.62418 -5.09828 0
M  V30 8805 N 855.638 -3.29926 -6.09197 0
M  V30 8806 N 857.431 -2.52236 -5.02328 0
M  V30 8807 H 849.582 -1.73551 -1.22449 0
M  V30 8808 H 851.845 -0.736874 -0.596423 0
M  V30 8809 H 851.551 -2.32263 -2.64096 0
M  V30 8810 H 851.425 -0.90157 -3.66267 0
M  V30 8811 H 853.812 -0.219213 -2.94285 0
M  V30 8812 H 853.893 -1.67195 -1.93596 0
M  V30 8813 H 853.537 -3.10741 -4.01749 0
M  V30 8814 H 853.467 -1.62825 -5.00795 0
M  V30 8815 H 855.958 -1.54559 -3.44848 0
M  V30 8816 H 856.271 -3.72095 -6.77322 0
M  V30 8817 H 854.616 -3.34026 -6.09469 0
M  V30 8818 H 857.807 -1.99108 -4.23643 0
M  V30 8819 H 857.98 -2.98286 -5.75265 0
M  V30 8820 N 851.386 1.48609 -0.524698 0
M  V30 8821 C 852.611 2.07398 0.00952139 0
M  V30 8822 C 853.036 1.37939 1.27884 0
M  V30 8823 O 852.394 0.443633 1.75788 0
M  V30 8824 C 852.442 3.59916 0.221956 0
M  V30 8825 O 851.546 3.91647 1.29175 0
M  V30 8826 H 850.887 0.662981 -0.0367729 0
M  V30 8827 H 853.417 1.91092 -0.7311 0
M  V30 8828 H 853.427 4.05552 0.446236 0
M  V30 8829 H 852.102 4.09876 -0.705306 0
M  V30 8830 H 850.679 3.57796 1.05055 0
M  V30 8831 N 852.864 0.259585 1.55447 0
M  V30 8832 C 853.774 -0.645026 2.25558 0
M  V30 8833 C 854.79 -1.18291 1.27606 0
M  V30 8834 O 855.966 -1.21649 1.6051 0
M  V30 8835 C 853.031 -1.81964 2.9511 0
M  V30 8836 C 852.092 -1.31997 4.08504 0
M  V30 8837 C 851.325 -2.43861 4.74729 0
M  V30 8838 O 851.548 -3.62876 4.40088 0
M  V30 8839 O 850.482 -2.12898 5.6299 0
M  V30 8840 H 854.308 -0.0775399 3.03601 0
M  V30 8841 H 851.893 0.0275859 1.49375 0
M  V30 8842 H 853.775 -2.50485 3.38873 0
M  V30 8843 H 852.45 -2.37451 2.19997 0
M  V30 8844 H 851.357 -0.601676 3.6923 0
M  V30 8845 H 852.69 -0.811045 4.85472 0
M  V30 8846 N 854.342 -1.57594 -0.0133615 0
M  V30 8847 C 855.272 -2.10611 -1.00823 0
M  V30 8848 C 856.253 -1.01217 -1.36708 0
M  V30 8849 O 857.438 -1.28827 -1.45318 0
M  V30 8850 C 854.568 -2.59844 -2.30431 0
M  V30 8851 C 853.522 -3.73644 -2.08745 0
M  V30 8852 C 852.848 -4.09141 -3.4425 0
M  V30 8853 C 854.148 -5.01454 -1.46086 0
M  V30 8854 H 855.842 -2.93985 -0.566849 0
M  V30 8855 H 853.388 -1.41423 -0.271219 0
M  V30 8856 H 855.341 -2.95557 -3.00373 0
M  V30 8857 H 854.065 -1.73573 -2.76658 0
M  V30 8858 H 852.724 -3.38303 -1.41232 0
M  V30 8859 H 852.372 -3.19914 -3.88155 0
M  V30 8860 H 852.072 -4.85802 -3.3056 0
M  V30 8861 H 853.596 -4.47402 -4.15528 0
M  V30 8862 H 855.01 -5.35024 -2.05966 0
M  V30 8863 H 853.407 -5.82832 -1.42924 0
M  V30 8864 H 854.477 -4.83003 -0.428471 0
M  V30 8865 N 855.82 0.285905 -1.54985 0
M  V30 8866 C 856.73 1.37534 -1.90057 0
M  V30 8867 C 857.746 1.54707 -0.796348 0
M  V30 8868 O 858.922 1.69082 -1.09423 0
M  V30 8869 C 855.987 2.7167 -2.15398 0
M  V30 8870 C 855.048 2.63354 -3.39033 0
M  V30 8871 C 854.281 3.91093 -3.63155 0
M  V30 8872 O 854.504 4.91169 -2.90015 0
M  V30 8873 O 853.438 3.92075 -4.56685 0
M  V30 8874 H 857.264 1.10791 -2.8277 0
M  V30 8875 H 854.849 0.483303 -1.41367 0
M  V30 8876 H 856.731 3.51006 -2.33179 0
M  V30 8877 H 855.406 2.98226 -1.25868 0
M  V30 8878 H 854.313 1.82438 -3.26599 0
M  V30 8879 H 855.646 2.41749 -4.2874 0
M  V30 8880 N 857.298 1.47698 0.54982 0
M  V30 8881 C 858.575 1.45185 1.31075 0
M  V30 8882 C 858.955 0.152768 2.10547 0
M  V30 8883 O 858.303 -0.865706 2.11466 0
M  V30 8884 C 858.513 2.70192 2.20902 0
M  V30 8885 C 859.861 3.1771 2.81683 0
M  V30 8886 O 860.885 2.70971 2.312 0
M  V30 8887 O 859.744 3.98986 3.7346 0
M  V30 8888 H 856.838 0.57892 0.590577 0
M  V30 8889 H 859.384 1.59908 0.568112 0
M  V30 8890 H 858.156 3.56269 1.61828 0
M  V30 8891 H 857.779 2.58091 3.02448 0
M  V30 8892 N 858.776 -0.797141 1.35954 0
M  V30 8893 C 860.023 -1.55468 1.29754 0
M  V30 8894 C 860.351 -1.94095 -0.125391 0
M  V30 8895 O 859.606 -1.62341 -1.09288 0
M  V30 8896 C 859.905 -2.84847 2.15863 0
M  V30 8897 C 859.571 -2.65394 3.64523 0
M  V30 8898 C 858.233 -2.59796 4.05042 0
M  V30 8899 C 860.585 -2.4727 4.58811 0
M  V30 8900 C 857.913 -2.3403 5.38002 0
M  V30 8901 C 860.265 -2.23032 5.91979 0
M  V30 8902 C 858.929 -2.15862 6.31633 0
M  V30 8903 H 858.199 -0.568897 0.474803 0
M  V30 8904 H 860.846 -0.920299 1.67937 0
M  V30 8905 H 859.151 -3.52712 1.70591 0
M  V30 8906 H 860.848 -3.42597 2.08395 0
M  V30 8907 H 857.438 -2.70602 3.32374 0
M  V30 8908 H 861.622 -2.506 4.28384 0
M  V30 8909 H 856.878 -2.26956 5.67715 0
M  V30 8910 H 861.052 -2.08001 6.64612 0
M  V30 8911 H 858.679 -1.9566 7.34589 0
M  V30 8912 N 860.254 -1.20106 -1.0204 0
M  V30 8913 C 861.184 -0.970301 -2.12385 0
M  V30 8914 C 862.165 0.099378 -1.69809 0
M  V30 8915 O 863.35 -0.057365 -1.94115 0
M  V30 8916 C 860.48 -0.517431 -3.43424 0
M  V30 8917 C 859.434 -1.52992 -3.99722 0
M  V30 8918 C 858.76 -0.933817 -5.26483 0
M  V30 8919 C 860.06 -2.91257 -4.33551 0
M  V30 8920 H 861.754 -1.89316 -2.31948 0
M  V30 8921 H 859.3 -0.911655 -1.11467 0
M  V30 8922 H 861.253 -0.343243 -4.2 0
M  V30 8923 H 859.977 0.441049 -3.23608 0
M  V30 8924 H 858.636 -1.6914 -3.2525 0
M  V30 8925 H 858.284 0.0324763 -5.0299 0
M  V30 8926 H 857.984 -1.60999 -5.65113 0
M  V30 8927 H 859.508 -0.770614 -6.05718 0
M  V30 8928 H 860.922 -2.78642 -5.0103 0
M  V30 8929 H 859.319 -3.55745 -4.83286 0
M  V30 8930 H 860.389 -3.43269 -3.42483 0
M  V30 8931 N 861.732 1.21287 -1.00634 0
M  V30 8932 C 862.957 1.94925 -0.708441 0
M  V30 8933 C 863.382 1.73659 0.722783 0
M  V30 8934 O 862.74 1.02429 1.49593 0
M  V30 8935 C 862.788 3.45377 -1.03667 0
M  V30 8936 O 861.892 4.12153 -0.142661 0
M  V30 8937 H 861.233 0.609338 -0.263824 0
M  V30 8938 H 863.763 1.54008 -1.34695 0
M  V30 8939 H 863.773 3.95954 -0.984086 0
M  V30 8940 H 862.448 3.6018 -2.0795 0
M  V30 8941 H 861.025 3.72048 -0.251888 0
M  V30 8942 N 863.21 0.781244 1.36873 0
M  V30 8943 C 864.12 0.174981 2.33947 0
M  V30 8944 C 865.136 -0.668512 1.60645 0
M  V30 8945 O 866.312 -0.586213 1.9268 0
M  V30 8946 C 863.377 -0.686557 3.39834 0
M  V30 8947 C 862.438 0.174489 4.28945 0
M  V30 8948 C 861.671 -0.646024 5.29776 0
M  V30 8949 O 861.894 -1.88254 5.38439 0
M  V30 8950 O 860.828 -0.0502214 6.01879 0
M  V30 8951 H 864.654 0.977382 2.87543 0
M  V30 8952 H 862.239 0.542559 1.392 0
M  V30 8953 H 864.121 -1.1781 4.04597 0
M  V30 8954 H 862.796 -1.46699 2.8855 0
M  V30 8955 H 861.703 0.712604 3.6725 0
M  V30 8956 H 863.036 0.918232 4.83559 0
M  V30 8957 N 864.689 -1.48329 0.532571 0
M  V30 8958 C 865.652 -2.2816 -0.218069 0
M  V30 8959 C 866.652 -1.35526 -0.865409 0
M  V30 8960 O 867.842 -1.58394 -0.725061 0
M  V30 8961 C 864.974 -3.1448 -1.31586 0
M  V30 8962 H 866.167 -2.95987 0.482865 0
M  V30 8963 H 863.72 -1.53612 0.288603 0
M  V30 8964 H 864.455 -2.5129 -2.04997 0
M  V30 8965 H 864.24 -3.82625 -0.856779 0
M  V30 8966 H 865.73 -3.74693 -1.84377 0
M  V30 8967 N 866.167 -0.267825 -1.55308 0
M  V30 8968 C 867.413 0.351556 -1.9973 0
M  V30 8969 C 867.746 1.56049 -1.15596 0
M  V30 8970 O 867.021 1.93203 -0.224274 0
M  V30 8971 C 867.304 0.74091 -3.52395 0
M  V30 8972 C 867.157 -0.474861 -4.47286 0
M  V30 8973 C 868.476 1.5801 -4.10756 0
M  V30 8974 H 865.595 0.126308 -0.726096 0
M  V30 8975 H 868.237 -0.373316 -1.86296 0
M  V30 8976 H 866.387 1.35851 -3.63973 0
M  V30 8977 H 868.059 -1.1134 -4.47662 0
M  V30 8978 H 866.302 -1.11425 -4.19246 0
M  V30 8979 H 866.973 -0.158782 -5.51772 0
M  V30 8980 H 869.449 1.05857 -4.0241 0
M  V30 8981 H 868.325 1.82135 -5.17801 0
M  V30 8982 H 868.586 2.55878 -3.60526 0
M  V30 8983 N 867.645 1.57599 0.00500368 0
M  V30 8984 C 868.885 1.92205 0.695456 0
M  V30 8985 C 869.249 0.868894 1.71214 0
M  V30 8986 O 870.45 1.10004 2.4526 0
M  V30 8987 C 868.721 3.31882 1.32625 0
M  V30 8988 S 870.28 3.88364 2.04252 0
M  V30 8989 H 867.098 0.672826 0.22984 0
M  V30 8990 H 869.7 1.95435 -0.0504824 0
M  V30 8991 H 868.404 4.06375 0.573396 0
M  V30 8992 H 867.935 3.32013 2.11023 0
M  V30 8993 H 869.95 3.69035 3.31704 0
M  V30 8994 N 869.123 -0.277682 1.55134 0
M  V30 8995 C 870.056 -1.3685 1.82612 0
M  V30 8996 C 871.034 -1.47752 0.678833 0
M  V30 8997 O 872.218 -1.6445 0.921329 0
M  V30 8998 C 869.345 -2.74539 1.98359 0
M  V30 8999 C 868.391 -2.80945 3.20893 0
M  V30 9000 S 869.224 -2.40666 4.78373 0
M  V30 9001 C 870.38 -3.80338 4.97085 0
M  V30 9002 H 870.613 -1.13338 2.74849 0
M  V30 9003 H 868.146 -0.477063 1.46845 0
M  V30 9004 H 870.104 -3.53834 2.08115 0
M  V30 9005 H 868.765 -2.95306 1.07019 0
M  V30 9006 H 867.958 -3.81992 3.28783 0
M  V30 9007 H 867.56 -2.09667 3.09703 0
M  V30 9008 H 869.852 -4.75565 4.8254 0
M  V30 9009 H 870.795 -3.77403 5.99143 0
M  V30 9010 H 871.203 -3.71424 4.25094 0
M  V30 9011 N 870.601 -1.47988 -0.541979 0
M  V30 9012 C 871.548 -1.61615 -1.6477 0
M  V30 9013 C 872.518 -0.458602 -1.59644 0
M  V30 9014 O 873.703 -0.680585 -1.78249 0
M  V30 9015 C 870.843 -1.65066 -3.03063 0
M  V30 9016 C 869.956 -2.91845 -3.18513 0
M  V30 9017 C 869.091 -2.86534 -4.47294 0
M  V30 9018 C 868.13 -4.0807 -4.5623 0
M  V30 9019 N 867.267 -4.00905 -5.76385 0
M  V30 9020 H 872.107 -2.56046 -1.52461 0
M  V30 9021 H 869.644 -1.26989 -0.742449 0
M  V30 9022 H 871.602 -1.65049 -3.83164 0
M  V30 9023 H 870.232 -0.74136 -3.14171 0
M  V30 9024 H 869.284 -3.01661 -2.31743 0
M  V30 9025 H 870.596 -3.81804 -3.20978 0
M  V30 9026 H 869.75 -2.84851 -5.35672 0
M  V30 9027 H 868.489 -1.94283 -4.47332 0
M  V30 9028 H 867.494 -4.10041 -3.66261 0
M  V30 9029 H 868.719 -5.01465 -4.5794 0
M  V30 9030 H 866.665 -3.11467 -5.77342 0
M  V30 9031 H 866.582 -4.84557 -5.80293 0
M  V30 9032 H 867.85 -4.03263 -6.67083 0
M  V30 9033 N 872.079 0.78992 -1.36375 0
M  V30 9034 C 872.989 1.93386 -1.32812 0
M  V30 9035 C 874.005 1.72468 -0.230377 0
M  V30 9036 O 875.181 1.96014 -0.462657 0
M  V30 9037 C 872.246 3.2824 -1.11621 0
M  V30 9038 C 871.307 3.61939 -2.30865 0
M  V30 9039 C 870.54 4.90359 -2.10675 0
M  V30 9040 O 870.763 5.6005 -1.08168 0
M  V30 9041 O 869.697 5.22702 -2.9844 0
M  V30 9042 H 873.523 1.99342 -2.29121 0
M  V30 9043 H 871.108 0.9301 -1.16917 0
M  V30 9044 H 872.99 4.08939 -1.01719 0
M  V30 9045 H 871.665 3.23178 -0.183732 0
M  V30 9046 H 870.572 2.81549 -2.46335 0
M  V30 9047 H 871.905 3.71725 -3.22617 0
M  V30 9048 N 873.557 1.20646 1.01402 0
M  V30 9049 C 874.804 1.01819 1.7504 0
M  V30 9050 C 875.132 -0.449386 1.89237 0
M  V30 9051 O 874.387 -1.34985 1.41695 0
M  V30 9052 C 874.686 1.64991 3.17037 0
M  V30 9053 C 874.352 3.14808 3.22811 0
M  V30 9054 C 873.014 3.55692 3.24094 0
M  V30 9055 C 875.366 4.108 3.2077 0
M  V30 9056 C 872.694 4.9109 3.2101 0
M  V30 9057 C 875.046 5.46147 3.19227 0
M  V30 9058 C 873.71 5.86441 3.18815 0
M  V30 9059 H 872.98 0.372582 0.640518 0
M  V30 9060 H 875.627 1.50108 1.18911 0
M  V30 9061 H 873.932 1.08971 3.76341 0
M  V30 9062 H 875.629 1.47937 3.72714 0
M  V30 9063 H 872.219 2.8224 3.2255 0
M  V30 9064 H 876.403 3.80246 3.18946 0
M  V30 9065 H 871.659 5.21569 3.19023 0
M  V30 9066 H 875.833 6.20272 3.166 0
M  V30 9067 H 873.46 6.91328 3.16179 0
M  V30 9068 N 875.035 -1.20752 1.01276 0
M  V30 9069 C 876.312 -1.85676 0.615112 0
M  V30 9070 C 876.692 -1.90623 -0.906976 0
M  V30 9071 O 876.04 -1.41124 -1.79712 0
M  V30 9072 C 876.25 -3.2552 1.25847 0
M  V30 9073 C 877.598 -4.0184 1.37148 0
M  V30 9074 O 878.622 -3.3486 1.21438 0
M  V30 9075 O 877.481 -5.21783 1.62495 0
M  V30 9076 H 874.575 -0.799437 0.211729 0
M  V30 9077 H 877.121 -1.28372 1.10989 0
M  V30 9078 H 875.893 -3.16664 2.29869 0
M  V30 9079 H 875.516 -3.90452 0.750524 0
M  V30 9080 N 876.513 -0.788492 -1.36457 0
M  V30 9081 C 877.463 -0.159377 -2.27442 0
M  V30 9082 C 878.447 0.656146 -1.46913 0
M  V30 9083 O 879.639 0.516372 -1.693 0
M  V30 9084 C 876.768 0.705703 -3.35968 0
M  V30 9085 C 875.854 -0.11856 -4.23934 0
M  V30 9086 N 876.245 -1.1726 -4.9202 0
M  V30 9087 C 874.543 0.102752 -4.45882 0
M  V30 9088 C 875.244 -1.6743 -5.57083 0
M  V30 9089 N 874.22 -0.983682 -5.34626 0
M  V30 9090 H 878.022 -0.96614 -2.77566 0
M  V30 9091 H 875.536 -0.627864 -1.49772 0
M  V30 9092 H 877.533 1.17231 -4.00078 0
M  V30 9093 H 876.193 1.51102 -2.87399 0
M  V30 9094 H 877.204 -1.55502 -4.94004 0
M  V30 9095 H 873.881 0.878651 -4.08149 0
M  V30 9096 H 875.271 -2.55423 -6.21457 0
M  V30 9097 N 877.991 1.48044 -0.54043 0
M  V30 9098 C 879.402 1.86418 -0.102662 0
M  V30 9099 C 879.753 1.4489 1.32293 0
M  V30 9100 O 878.878 0.844319 1.99249 0
M  V30 9101 C 879.473 3.38324 -0.179533 0
M  V30 9102 C 878.032 3.75852 0.203098 0
M  V30 9103 C 877.179 2.72097 -0.534637 0
M  V30 9104 H 880.13 1.398 -0.751103 0
M  V30 9105 H 880.151 3.75641 0.606147 0
M  V30 9106 H 879.663 3.68518 -1.21721 0
M  V30 9107 H 877.764 3.51272 1.24252 0
M  V30 9108 H 877.877 4.78884 -0.143784 0
M  V30 9109 H 876.241 2.54692 0.0203358 0
M  V30 9110 H 877.024 3.05135 -1.57314 0
M  V30 9111 N 879.47 0.276058 1.55163 0
M  V30 9112 C 880.418 -0.626978 2.2399 0
M  V30 9113 C 881.412 -1.15708 1.23725 0
M  V30 9114 O 882.618 -1.1106 1.41653 0
M  V30 9115 H 878.993 -0.220742 0.718872 0
M  V30 9116 H 880.964 -0.0236569 2.98391 0
M  V30 9117 C 879.713 -1.79935 2.97521 0
M  V30 9118 H 879.036 -1.40064 3.74463 0
M  V30 9119 H 880.476 -2.40781 3.48999 0
M  V30 9120 C 878.935 -2.68838 2.03046 0
M  V30 9121 O 879.465 -3.69224 1.58229 0
M  V30 9122 N 877.671 -2.36028 1.69527 0
M  V30 9123 H 877.218 -1.54442 2.06169 0
M  V30 9124 H 877.176 -2.95782 1.06586 0
M  V30 9125 N 880.948 -1.576 0.00335426 0
M  V30 9126 C 882.194 -1.90996 -0.681799 0
M  V30 9127 C 882.527 -0.877643 -1.73237 0
M  V30 9128 O 881.802 0.103183 -1.94226 0
M  V30 9129 C 882.085 -3.34961 -1.32187 0
M  V30 9130 C 881.938 -4.48911 -0.28261 0
M  V30 9131 C 883.257 -3.78408 -2.24711 0
M  V30 9132 H 880.376 -0.694596 -0.246386 0
M  V30 9133 H 883.018 -1.89919 0.055336 0
M  V30 9134 H 881.168 -3.36008 -1.95014 0
M  V30 9135 H 882.84 -4.59999 0.346241 0
M  V30 9136 H 881.083 -4.32 0.394768 0
M  V30 9137 H 881.754 -5.46609 -0.769576 0
M  V30 9138 H 884.23 -3.78934 -1.71897 0
M  V30 9139 H 883.106 -4.79885 -2.66461 0
M  V30 9140 H 883.367 -3.12464 -3.1276 0
M  V30 9141 N 882.426 0.269451 -1.5528 0
M  V30 9142 C 883.359 1.3588 -1.83336 0
M  V30 9143 C 884.337 1.4739 -0.68666 0
M  V30 9144 O 885.521 1.63959 -0.930037 0
M  V30 9145 C 882.648 2.73483 -1.99812 0
M  V30 9146 C 881.694 2.79239 -3.22378 0
M  V30 9147 S 882.527 2.38125 -4.79642 0
M  V30 9148 C 883.683 3.77697 -4.99095 0
M  V30 9149 H 883.916 1.11878 -2.75446 0
M  V30 9150 H 881.449 0.469268 -1.47096 0
M  V30 9151 H 883.407 3.52725 -2.09989 0
M  V30 9152 H 882.068 2.94735 -1.08583 0
M  V30 9153 H 881.261 3.80243 -3.30804 0
M  V30 9154 H 880.863 2.08022 -3.1081 0
M  V30 9155 H 883.155 4.72999 -4.85055 0
M  V30 9156 H 884.098 3.7422 -6.01136 0
M  V30 9157 H 884.506 3.69164 -4.27058 0
M  V30 9158 N 883.904 1.48273 0.534124 0
M  V30 9159 C 885.32 1.34302 0.862272 0
M  V30 9160 C 885.52 0.350902 1.98421 0
M  V30 9161 O 884.576 -0.229364 2.51456 0
M  V30 9162 C 885.889 2.74227 1.23371 0
M  V30 9163 C 887.437 2.82684 1.34383 0
M  V30 9164 C 887.912 4.23301 1.74871 0
M  V30 9165 N 889.403 4.25954 1.81981 0
M  V30 9166 C 890.138 5.31693 2.14686 0
M  V30 9167 N 889.634 6.47714 2.45844 0
M  V30 9168 N 891.427 5.19084 2.15657 0
M  V30 9169 H 883.578 2.11397 -0.206215 0
M  V30 9170 H 885.841 0.947537 -0.0296116 0
M  V30 9171 H 885.547 3.48368 0.482967 0
M  V30 9172 H 885.421 3.07485 2.18478 0
M  V30 9173 H 887.808 2.08801 2.08534 0
M  V30 9174 H 887.889 2.5305 0.374063 0
M  V30 9175 H 887.533 4.97699 1.01282 0
M  V30 9176 H 887.463 4.50376 2.7289 0
M  V30 9177 H 889.954 3.42266 1.60196 0
M  V30 9178 H 890.267 7.2414 2.69892 0
M  V30 9179 H 888.612 6.50995 2.43372 0
M  V30 9180 H 891.803 4.27463 1.9077 0
M  V30 9181 H 891.976 6.01592 2.40813 0
M  V30 9182 N 885.382 -0.782676 1.36792 0
M  V30 9183 C 886.312 -1.90973 1.34356 0
M  V30 9184 C 887.293 -1.6875 0.213917 0
M  V30 9185 O 888.478 -1.89766 0.412601 0
M  V30 9186 C 885.608 -3.28097 1.13884 0
M  V30 9187 C 884.562 -3.6486 2.23744 0
M  V30 9188 C 883.888 -5.00406 1.88408 0
M  V30 9189 C 885.188 -3.72742 3.6587 0
M  V30 9190 H 886.882 -1.93268 2.28665 0
M  V30 9191 H 884.428 -0.928447 1.10072 0
M  V30 9192 H 886.381 -4.06569 1.10813 0
M  V30 9193 H 885.105 -3.26206 0.160275 0
M  V30 9194 H 883.764 -2.88689 2.25952 0
M  V30 9195 H 883.412 -4.95044 0.891083 0
M  V30 9196 H 883.112 -5.25973 2.61966 0
M  V30 9197 H 884.636 -5.81291 1.86905 0
M  V30 9198 H 886.05 -4.4139 3.65852 0
M  V30 9199 H 884.447 -4.09798 4.38389 0
M  V30 9200 H 885.517 -2.73676 4.00287 0
M  V30 9201 N 886.86 -1.21182 -1.00761 0
M  V30 9202 C 888.109 -1.02166 -1.73911 0
M  V30 9203 C 888.422 0.445638 -1.90456 0
M  V30 9204 O 889.628 0.755132 -2.60787 0
M  V30 9205 C 888.084 -1.77936 -3.12837 0
M  V30 9206 C 887.692 -3.28819 -3.04273 0
M  V30 9207 C 889.436 -1.67319 -3.90134 0
M  V30 9208 C 887.343 -3.97089 -4.38262 0
M  V30 9209 H 886.273 -0.378665 -0.652019 0
M  V30 9210 H 888.924 -1.44891 -1.12601 0
M  V30 9211 H 887.306 -1.28003 -3.74742 0
M  V30 9212 H 888.48 -3.86035 -2.51622 0
M  V30 9213 H 886.795 -3.39949 -2.40465 0
M  V30 9214 H 889.392 -2.15659 -4.8928 0
M  V30 9215 H 889.735 -0.630959 -4.11491 0
M  V30 9216 H 890.268 -2.14716 -3.34876 0
M  V30 9217 H 887.007 -5.01503 -4.22107 0
M  V30 9218 H 886.527 -3.44662 -4.90885 0
M  V30 9219 H 888.206 -4.01854 -5.07072 0
M  V30 9220 N 888.338 1.20213 -1.01915 0
M  V30 9221 C 889.586 1.89272 -0.708552 0
M  V30 9222 C 889.907 1.79394 0.76438 0
M  V30 9223 O 889.177 1.198 1.54999 0
M  V30 9224 H 887.757 0.700628 -0.259094 0
M  V30 9225 H 890.419 1.45985 -1.29129 0
M  V30 9226 H 889.515 2.95841 -0.994215 0
M  V30 9227 N 889.816 0.795718 1.36037 0
M  V30 9228 C 891.062 0.371574 1.99367 0
M  V30 9229 C 891.395 -1.0557 1.62999 0
M  V30 9230 O 890.67 -1.73051 0.887895 0
M  V30 9231 C 890.953 0.542622 3.55988 0
M  V30 9232 C 890.806 2.01404 4.0219 0
M  V30 9233 C 892.125 -0.0384527 4.40083 0
M  V30 9234 H 889.244 0.136483 0.724252 0
M  V30 9235 H 891.886 1.00323 1.61355 0
M  V30 9236 H 890.036 0.0049053 3.885 0
M  V30 9237 H 891.708 2.6133 3.80137 0
M  V30 9238 H 889.951 2.51439 3.53498 0
M  V30 9239 H 890.622 2.08466 5.11122 0
M  V30 9240 H 893.098 0.420634 4.13968 0
M  V30 9241 H 891.974 0.111214 5.48787 0
M  V30 9242 H 892.235 -1.13116 4.27384 0
M  V30 9243 N 891.294 -1.47756 0.548274 0
M  V30 9244 C 892.534 -2.04387 0.0231354 0
M  V30 9245 C 892.898 -1.41438 -1.29843 0
M  V30 9246 O 894.099 -1.89064 -1.91072 0
M  V30 9247 C 892.37 -3.57316 -0.077482 0
M  V30 9248 S 893.929 -4.35339 -0.550038 0
M  V30 9249 H 890.747 -0.710694 0.0208428 0
M  V30 9250 H 893.349 -1.81239 0.732984 0
M  V30 9251 H 892.053 -4.00658 0.88888 0
M  V30 9252 H 891.584 -3.84947 -0.811157 0
M  V30 9253 H 893.599 -4.61957 -1.81135 0
M  V30 9254 N 892.772 -0.284283 -1.55015 0
M  V30 9255 C 894.019 0.329864 -1.99795 0
M  V30 9256 C 894.347 1.55171 -1.1727 0
M  V30 9257 O 893.602 1.94312 -0.232667 0
M  V30 9258 C 893.901 0.747219 -3.49502 0
M  V30 9259 C 893.567 -0.37101 -4.49371 0
M  V30 9260 C 892.229 -0.678034 -4.76399 0
M  V30 9261 C 894.581 -1.12406 -5.08935 0
M  V30 9262 C 891.909 -1.74152 -5.60257 0
M  V30 9263 C 894.261 -2.17734 -5.93948 0
M  V30 9264 C 892.925 -2.49061 -6.19294 0
M  V30 9265 H 892.195 0.120706 -0.731103 0
M  V30 9266 H 894.842 -0.399904 -1.87278 0
M  V30 9267 H 893.147 1.55681 -3.59542 0
M  V30 9268 H 894.844 1.2333 -3.81563 0
M  V30 9269 H 891.434 -0.1216 -4.28427 0
M  V30 9270 H 895.618 -0.900119 -4.88069 0
M  V30 9271 H 890.874 -1.98915 -5.78137 0
M  V30 9272 H 895.048 -2.76553 -6.39133 0
M  V30 9273 H 892.675 -3.31602 -6.84064 0
M  V30 9274 N 894.251 1.57596 -0.0117121 0
M  V30 9275 C 895.183 2.06025 1.0043 0
M  V30 9276 C 896.196 0.980348 1.29973 0
M  V30 9277 O 897.385 1.25691 1.26744 0
M  V30 9278 C 894.485 2.45514 2.33615 0
M  V30 9279 C 893.658 3.76378 2.22842 0
M  V30 9280 C 892.717 4.02606 3.38814 0
M  V30 9281 O 891.743 4.73108 3.16477 0
M  V30 9282 N 892.945 3.51416 4.62047 0
M  V30 9283 H 895.71 2.93811 0.591206 0
M  V30 9284 H 893.271 1.60947 0.175427 0
M  V30 9285 H 895.263 2.60166 3.09993 0
M  V30 9286 H 893.833 1.63186 2.66625 0
M  V30 9287 H 893.053 3.71691 1.313 0
M  V30 9288 H 894.341 4.62149 2.12829 0
M  V30 9289 H 893.739 2.94346 4.83091 0
M  V30 9290 H 892.296 3.71377 5.35651 0
M  V30 9291 N 895.729 -0.261212 1.5542 0
M  V30 9292 C 896.977 -0.989272 1.76232 0
M  V30 9293 C 897.298 -1.86389 0.573067 0
M  V30 9294 O 896.568 -1.91526 -0.41166 0
M  V30 9295 H 895.148 -0.368256 0.64992 0
M  V30 9296 H 897.81 -0.282603 1.9284 0
M  V30 9297 H 896.906 -1.61935 2.66802 0
M  V30 9298 N 897.207 -1.48554 -0.526253 0
M  V30 9299 C 898.432 -1.60686 -1.31129 0
M  V30 9300 C 898.857 -0.268701 -1.86171 0
M  V30 9301 O 898.215 0.760167 -1.64594 0
M  V30 9302 C 898.263 -2.65938 -2.43536 0
M  V30 9303 O 897.367 -2.23356 -3.46678 0
M  V30 9304 H 896.708 -0.538691 -0.388211 0
M  V30 9305 H 899.238 -1.94567 -0.632826 0
M  V30 9306 H 899.248 -2.87327 -2.89668 0
M  V30 9307 H 897.923 -3.63085 -2.02835 0
M  V30 9308 H 896.5 -2.12196 -3.06639 0
M  V30 9309 N 898.685 0.775411 -1.37205 0
M  V30 9310 C 899.595 1.91967 -1.34855 0
M  V30 9311 C 900.611 1.72214 -0.248656 0
M  V30 9312 O 901.787 1.95512 -0.483421 0
M  V30 9313 C 898.852 3.27038 -1.15096 0
M  V30 9314 C 897.913 3.5947 -2.34691 0
M  V30 9315 C 897.146 4.88097 -2.15865 0
M  V30 9316 O 897.369 5.58871 -1.14102 0
M  V30 9317 O 896.303 5.19507 -3.03967 0
M  V30 9318 H 900.129 1.969 -2.31223 0
M  V30 9319 H 897.714 0.917647 -1.17897 0
M  V30 9320 H 899.596 4.07837 -1.0605 0
M  V30 9321 H 898.271 3.22965 -0.217999 0
M  V30 9322 H 897.178 2.7892 -2.49308 0
M  V30 9323 H 898.511 3.68282 -3.26541 0
M  V30 9324 N 900.163 1.21714 1.00117 0
M  V30 9325 C 901.579 0.97532 1.26332 0
M  V30 9326 C 901.779 -0.336029 1.98678 0
M  V30 9327 O 900.835 -1.06073 2.29139 0
M  V30 9328 C 902.148 2.16848 2.0832 0
M  V30 9329 C 903.696 2.21115 2.21533 0
M  V30 9330 C 904.171 3.3996 3.06906 0
M  V30 9331 N 905.662 3.40071 3.14494 0
M  V30 9332 C 906.397 4.28678 3.80818 0
M  V30 9333 N 905.893 5.2749 4.49139 0
M  V30 9334 N 907.686 4.16476 3.77497 0
M  V30 9335 H 899.837 2.06039 0.515897 0
M  V30 9336 H 902.1 0.902423 0.290408 0
M  V30 9337 H 901.806 3.119 1.62515 0
M  V30 9338 H 901.68 2.16226 3.09073 0
M  V30 9339 H 904.067 1.26616 2.66557 0
M  V30 9340 H 904.148 2.2578 1.20238 0
M  V30 9341 H 903.792 4.34755 2.62585 0
M  V30 9342 H 903.722 3.32534 4.08324 0
M  V30 9343 H 906.213 2.68563 2.65861 0
M  V30 9344 H 906.526 5.91397 4.97463 0
M  V30 9345 H 904.871 5.31412 4.47914 0
M  V30 9346 H 908.062 3.38539 3.23278 0
M  V30 9347 H 908.235 4.85739 4.28908 0
M  V30 9348 N 901.641 -1.19671 1.02551 0
M  V30 9349 C 902.551 -2.26441 0.613329 0
M  V30 9350 C 903.567 -1.70375 -0.353339 0
M  V30 9351 O 904.743 -2.0028 -0.212064 0
M  V30 9352 C 901.808 -3.46684 -0.0329028 0
M  V30 9353 C 900.869 -4.17945 0.980837 0
M  V30 9354 C 900.102 -5.32448 0.36535 0
M  V30 9355 O 900.325 -5.64291 -0.832596 0
M  V30 9356 O 899.259 -5.92012 1.08652 0
M  V30 9357 H 903.085 -2.63932 1.50246 0
M  V30 9358 H 900.67 -1.2646 0.795502 0
M  V30 9359 H 902.552 -4.1956 -0.393395 0
M  V30 9360 H 901.227 -3.1105 -0.896089 0
M  V30 9361 H 900.134 -3.47204 1.39286 0
M  V30 9362 H 901.467 -4.57542 1.81428 0
M  V30 9363 N 903.119 -0.802921 -1.35613 0
M  V30 9364 C 904.344 -0.392846 -2.03645 0
M  V30 9365 C 904.769 0.987075 -1.6012 0
M  V30 9366 O 904.127 1.63849 -0.776101 0
M  V30 9367 C 904.175 -0.480208 -3.57388 0
M  V30 9368 O 903.279 0.507751 -4.09262 0
M  V30 9369 H 902.62 -0.16464 -0.643265 0
M  V30 9370 H 905.15 -1.08779 -1.73287 0
M  V30 9371 H 905.16 -0.348683 -4.06507 0
M  V30 9372 H 903.835 -1.48675 -3.88418 0
M  V30 9373 H 902.412 0.336769 -3.71376 0
M  V30 9374 N 904.597 1.47463 -0.556102 0
M  V30 9375 C 905.844 2.02475 -0.0316337 0
M  V30 9376 C 906.172 1.43057 1.31777 0
M  V30 9377 O 905.427 0.575376 1.87051 0
M  V30 9378 C 905.726 3.57224 0.112126 0
M  V30 9379 C 905.392 4.35557 -1.16624 0
M  V30 9380 C 904.054 4.56678 -1.51654 0
M  V30 9381 C 906.406 4.8074 -2.01342 0
M  V30 9382 C 903.734 5.20231 -2.7125 0
M  V30 9383 C 906.086 5.45613 -3.2014 0
M  V30 9384 C 904.75 5.64967 -3.55484 0
M  V30 9385 H 904.02 0.74091 -0.0115756 0
M  V30 9386 H 906.667 1.77148 -0.727392 0
M  V30 9387 H 904.972 3.81538 0.890842 0
M  V30 9388 H 906.669 3.97438 0.533261 0
M  V30 9389 H 903.259 4.19395 -0.883489 0
M  V30 9390 H 907.443 4.64201 -1.75587 0
M  V30 9391 H 902.699 5.3341 -2.98804 0
M  V30 9392 H 906.873 5.79587 -3.86073 0
M  V30 9393 H 904.5 6.13984 -4.4825 0
M  V30 9394 N 906.075 0.2925 1.54862 0
M  V30 9395 C 907.486 -0.201841 1.85606 0
M  V30 9396 C 907.837 -1.54093 1.21449 0
M  V30 9397 O 906.962 -2.10327 0.509079 0
M  V30 9398 C 907.557 -0.373011 3.3674 0
M  V30 9399 C 906.116 -0.811574 3.67547 0
M  V30 9400 C 905.263 0.0850583 2.7717 0
M  V30 9401 H 908.214 0.513774 1.50153 0
M  V30 9402 H 908.235 -1.20892 3.60785 0
M  V30 9403 H 907.747 0.601751 3.83407 0
M  V30 9404 H 905.848 -1.79719 3.26392 0
M  V30 9405 H 905.961 -0.636853 4.74848 0
M  V30 9406 H 904.325 -0.434224 2.50971 0
M  V30 9407 H 905.108 1.05602 3.26654 0
M  V30 9408 N 907.553 -1.57587 0.0200696 0
M  V30 9409 C 908.516 -2.08595 -0.949767 0
M  V30 9410 C 909.516 -0.999215 -1.25985 0
M  V30 9411 O 910.706 -1.26115 -1.2017 0
M  V30 9412 C 907.838 -2.54424 -2.26895 0
M  V30 9413 H 909.031 -2.95563 -0.508161 0
M  V30 9414 H 906.584 -1.54631 -0.227798 0
M  V30 9415 H 907.319 -1.70758 -2.75703 0
M  V30 9416 H 907.104 -3.3381 -2.05702 0
M  V30 9417 H 908.594 -2.94144 -2.96427 0
M  V30 9418 N 909.032 0.252966 -1.55557 0
M  V30 9419 C 910.443 0.822503 -1.67606 0
M  V30 9420 C 910.794 1.86265 -0.616411 0
M  V30 9421 O 909.919 2.15082 0.238447 0
M  V30 9422 C 910.514 1.49866 -3.03852 0
M  V30 9423 C 909.073 2.01597 -3.17861 0
M  V30 9424 C 908.22 0.864943 -2.63465 0
M  V30 9425 H 911.171 0.0288958 -1.58674 0
M  V30 9426 H 911.192 2.36646 -2.97958 0
M  V30 9427 H 910.704 0.741378 -3.80953 0
M  V30 9428 H 908.805 2.80224 -2.45571 0
M  V30 9429 H 908.918 2.21752 -4.24692 0
M  V30 9430 H 907.282 1.2638 -2.21134 0
M  V30 9431 H 908.065 0.120847 -3.43087 0
M  V30 9432 N 910.51 1.48831 0.518367 0
M  V30 9433 C 911.756 1.57672 1.27543 0
M  V30 9434 C 912.089 0.254915 1.9252 0
M  V30 9435 O 911.364 -0.740107 1.79868 0
M  V30 9436 C 911.647 2.72345 2.35585 0
M  V30 9437 C 911.5 4.14267 1.75224 0
M  V30 9438 C 912.819 2.82726 3.37274 0
M  V30 9439 H 909.938 0.573926 0.462361 0
M  V30 9440 H 912.58 1.8105 0.576267 0
M  V30 9441 H 910.73 2.52543 2.95219 0
M  V30 9442 H 912.402 4.45539 1.19551 0
M  V30 9443 H 910.645 4.20724 1.05706 0
M  V30 9444 H 911.316 4.90345 2.53507 0
M  V30 9445 H 913.792 3.00699 2.8761 0
M  V30 9446 H 912.668 3.6467 4.10252 0
M  V30 9447 H 912.929 1.9136 3.9854 0
M  V30 9448 N 911.988 -0.768124 1.37614 0
M  V30 9449 C 913.234 -1.52907 1.33219 0
M  V30 9450 C 913.567 -1.94026 -0.0821218 0
M  V30 9451 O 912.842 -1.64345 -1.04023 0
M  V30 9452 C 913.125 -2.79164 2.27463 0
M  V30 9453 C 912.978 -2.44276 3.7769 0
M  V30 9454 C 914.297 -3.81115 2.20089 0
M  V30 9455 H 911.416 -0.554712 0.485246 0
M  V30 9456 H 914.058 -0.880911 1.68345 0
M  V30 9457 H 912.208 -3.34472 1.97639 0
M  V30 9458 H 913.88 -1.94855 4.18126 0
M  V30 9459 H 912.123 -1.76925 3.96081 0
M  V30 9460 H 912.794 -3.34544 4.39072 0
M  V30 9461 H 915.27 -3.35311 2.46386 0
M  V30 9462 H 914.146 -4.67174 2.88166 0
M  V30 9463 H 914.407 -4.25644 1.19498 0
M  V30 9464 N 913.466 -1.22244 -0.994698 0
M  V30 9465 C 914.715 -1.04005 -1.72817 0
M  V30 9466 C 915.028 0.425413 -1.90918 0
M  V30 9467 O 916.234 0.727429 -2.61574 0
M  V30 9468 C 914.69 -1.81244 -3.10932 0
M  V30 9469 C 914.298 -3.32028 -3.00768 0
M  V30 9470 C 916.042 -1.71448 -3.88337 0
M  V30 9471 C 913.949 -4.01716 -4.34026 0
M  V30 9472 H 912.879 -0.385559 -0.647966 0
M  V30 9473 H 915.53 -1.46077 -1.11058 0
M  V30 9474 H 913.912 -1.3197 -3.73363 0
M  V30 9475 H 915.086 -3.88682 -2.47513 0
M  V30 9476 H 913.401 -3.4248 -2.36846 0
M  V30 9477 H 915.998 -2.20836 -4.86965 0
M  V30 9478 H 916.341 -0.674568 -4.10798 0
M  V30 9479 H 916.874 -2.18256 -3.3258 0
M  V30 9480 H 913.613 -5.05952 -4.16765 0
M  V30 9481 H 913.133 -3.49849 -4.87202 0
M  V30 9482 H 914.812 -4.0721 -5.02782 0
M  V30 9483 N 914.944 1.19125 -1.03184 0
M  V30 9484 C 915.874 2.24675 -0.635889 0
M  V30 9485 C 916.855 1.66321 0.356565 0
M  V30 9486 O 918.04 1.92728 0.238625 0
M  V30 9487 C 915.17 3.47298 0.011069 0
M  V30 9488 C 914.124 4.18345 -0.903979 0
M  V30 9489 C 913.45 5.34561 -0.12197 0
M  V30 9490 C 914.75 4.72816 -2.21907 0
M  V30 9491 H 916.444 2.5805 -1.51825 0
M  V30 9492 H 913.99 1.24039 -0.73146 0
M  V30 9493 H 915.943 4.20333 0.299729 0
M  V30 9494 H 914.667 3.13131 0.928245 0
M  V30 9495 H 913.326 3.47196 -1.17688 0
M  V30 9496 H 912.974 4.9664 0.797334 0
M  V30 9497 H 912.674 5.83029 -0.731498 0
M  V30 9498 H 914.198 6.10391 0.159881 0
M  V30 9499 H 915.612 5.3759 -1.99173 0
M  V30 9500 H 914.009 5.31782 -2.78078 0
M  V30 9501 H 915.079 3.9072 -2.87168 0
M  V30 9502 N 916.422 0.810101 1.35185 0
M  V30 9503 C 917.833 0.452616 1.81131 0
M  V30 9504 C 918.184 -1.02573 1.67252 0
M  V30 9505 O 917.309 -1.79735 1.20516 0
M  V30 9506 C 917.904 0.814775 3.28857 0
M  V30 9507 C 916.463 0.509839 3.72931 0
M  V30 9508 C 915.61 1.03852 2.57119 0
M  V30 9509 H 918.561 1.00143 1.23114 0
M  V30 9510 H 918.582 0.113635 3.8033 0
M  V30 9511 H 918.094 1.89078 3.38926 0
M  V30 9512 H 916.195 -0.557289 3.68409 0
M  V30 9513 H 916.308 1.04493 4.67566 0
M  V30 9514 H 914.672 0.460671 2.50499 0
M  V30 9515 H 915.455 2.12071 2.69964 0
M  V30 9516 N 917.9 -1.47166 0.563914 0
M  V30 9517 C 919.147 -2.02456 0.042371 0
M  V30 9518 C 919.475 -1.43753 -1.31016 0
M  V30 9519 O 918.73 -0.585287 -1.86743 0
M  V30 9520 C 919.029 -3.57279 -0.0931797 0
M  V30 9521 C 918.695 -4.34932 1.18933 0
M  V30 9522 C 917.357 -4.55867 1.54073 0
M  V30 9523 C 919.709 -4.79665 2.03889 0
M  V30 9524 C 917.037 -5.18785 2.74005 0
M  V30 9525 C 919.389 -5.43907 3.23029 0
M  V30 9526 C 918.053 -5.63074 3.58475 0
M  V30 9527 H 917.323 -0.740838 0.0155047 0
M  V30 9528 H 919.97 -1.76759 0.736776 0
M  V30 9529 H 918.275 -3.82005 -0.870596 0
M  V30 9530 H 919.972 -3.97716 -0.512176 0
M  V30 9531 H 916.562 -4.18921 0.905718 0
M  V30 9532 H 920.746 -4.63264 1.78046 0
M  V30 9533 H 916.002 -5.31818 3.01628 0
M  V30 9534 H 920.176 -5.77531 3.89141 0
M  V30 9535 H 917.803 -6.11598 4.515 0
M  V30 9536 N 919.378 -0.300708 -1.54705 0
M  V30 9537 C 920.311 0.617513 -2.19686 0
M  V30 9538 C 921.289 1.1331 -1.16617 0
M  V30 9539 O 922.473 1.20135 -1.45258 0
M  V30 9540 C 919.6 1.84486 -2.84047 0
M  V30 9541 C 918.646 1.46253 -4.0064 0
M  V30 9542 S 919.479 0.518718 -5.32982 0
M  V30 9543 C 920.635 1.75387 -6.00825 0
M  V30 9544 H 920.868 0.0654548 -2.97228 0
M  V30 9545 H 918.401 -0.0848492 -1.54167 0
M  V30 9546 H 920.359 2.54921 -3.21754 0
M  V30 9547 H 919.02 2.36808 -2.06351 0
M  V30 9548 H 918.213 2.37648 -4.44454 0
M  V30 9549 H 917.815 0.838129 -3.64488 0
M  V30 9550 H 920.107 2.69448 -6.21614 0
M  V30 9551 H 921.05 1.35829 -6.9495 0
M  V30 9552 H 921.458 1.93045 -5.30466 0
M  V30 9553 N 920.856 1.57574 -0.0284266 0
M  V30 9554 C 921.803 2.10176 0.953658 0
M  V30 9555 C 922.773 1.00367 1.32347 0
M  V30 9556 O 923.958 1.27783 1.4169 0
M  V30 9557 C 921.098 2.63287 2.231 0
M  V30 9558 C 920.211 3.87102 1.91771 0
M  V30 9559 C 919.346 4.28609 3.13795 0
M  V30 9560 C 918.385 5.45184 2.78282 0
M  V30 9561 N 917.522 5.81851 3.92929 0
M  V30 9562 H 922.362 2.93806 0.498176 0
M  V30 9563 H 919.899 1.45222 0.234302 0
M  V30 9564 H 921.857 2.9217 2.97813 0
M  V30 9565 H 920.487 1.82489 2.66266 0
M  V30 9566 H 919.539 3.64952 1.07303 0
M  V30 9567 H 920.851 4.71892 1.61615 0
M  V30 9568 H 920.005 4.58925 3.96829 0
M  V30 9569 H 918.744 3.42585 3.47112 0
M  V30 9570 H 917.749 5.14563 1.93661 0
M  V30 9571 H 918.974 6.32907 2.46182 0
M  V30 9572 H 916.92 4.98782 4.2609 0
M  V30 9573 H 916.837 6.6128 3.66395 0
M  V30 9574 H 918.105 6.16772 4.76669 0
M  V30 9575 N 922.334 -0.244713 1.55689 0
M  V30 9576 C 923.284 -1.30596 1.86892 0
M  V30 9577 C 924.268 -1.43388 0.729972 0
M  V30 9578 O 925.46 -1.46593 0.99194 0
M  V30 9579 C 922.589 -2.66099 2.16902 0
M  V30 9580 C 921.675 -2.57302 3.37129 0
M  V30 9581 N 922.066 -2.18139 4.56343 0
M  V30 9582 C 920.364 -2.88311 3.40283 0
M  V30 9583 C 921.065 -2.20028 5.38482 0
M  V30 9584 N 920.041 -2.59616 4.77599 0
M  V30 9585 H 923.843 -0.993699 2.76591 0
M  V30 9586 H 921.357 -0.453334 1.55944 0
M  V30 9587 H 923.354 -3.4269 2.37422 0
M  V30 9588 H 922.014 -2.9819 1.28502 0
M  V30 9589 H 923.025 -1.89647 4.81928 0
M  V30 9590 H 919.702 -3.24928 2.62161 0
M  V30 9591 H 921.092 -1.9207 6.43862 0
M  V30 9592 N 923.813 -1.49104 -0.510467 0
M  V30 9593 C 925.061 -1.578 -1.26268 0
M  V30 9594 C 925.382 -0.262349 -1.93227 0
M  V30 9595 O 924.652 0.717624 -1.82283 0
M  V30 9596 H 923.232 -0.581387 -0.46904 0
M  V30 9597 H 925.894 -1.85678 -0.592423 0
M  V30 9598 H 924.99 -2.36919 -2.03165 0
M  V30 9599 N 925.291 0.760815 -1.38019 0
M  V30 9600 C 926.568 1.5098 -1.24356 0
M  V30 9601 C 926.948 2.10507 0.158169 0
M  V30 9602 O 926.296 1.96455 1.16695 0
M  V30 9603 C 926.506 2.58195 -2.34811 0
M  V30 9604 C 927.854 3.25297 -2.72886 0
M  V30 9605 O 928.878 2.68496 -2.34069 0
M  V30 9606 O 927.737 4.28018 -3.39799 0
M  V30 9607 H 924.831 0.66921 -0.485888 0
M  V30 9608 H 927.377 0.796844 -1.49828 0
M  V30 9609 H 926.149 2.12406 -3.28633 0
M  V30 9610 H 925.772 3.37079 -2.10864 0
M  V30 9611 N 926.769 1.22769 0.988202 0
M  V30 9612 C 927.699 1.02627 2.09738 0
M  V30 9613 C 928.68 -0.0543211 1.70013 0
M  V30 9614 O 929.865 0.108811 1.93895 0
M  V30 9615 C 926.995 0.608302 3.41931 0
M  V30 9616 C 925.949 1.63536 3.95525 0
M  V30 9617 C 925.275 1.07308 5.23822 0
M  V30 9618 C 926.575 3.02649 4.25677 0
M  V30 9619 H 928.269 1.954 2.26847 0
M  V30 9620 H 925.815 0.940888 1.09011 0
M  V30 9621 H 927.768 0.454478 4.18942 0
M  V30 9622 H 926.492 -0.355095 3.24664 0
M  V30 9623 H 925.151 1.77704 3.20651 0
M  V30 9624 H 924.799 0.100894 5.02899 0
M  V30 9625 H 924.499 1.75925 5.60646 0
M  V30 9626 H 926.023 0.930938 6.03462 0
M  V30 9627 H 927.437 2.91828 4.93467 0
M  V30 9628 H 925.834 3.68434 4.73684 0
M  V30 9629 H 926.904 3.52228 3.33262 0
M  V30 9630 N 928.247 -1.18576 1.03814 0
M  V30 9631 C 929.197 -2.20034 0.597409 0
M  V30 9632 C 930.181 -1.56849 -0.358796 0
M  V30 9633 O 931.373 -1.761 -0.178262 0
M  V30 9634 C 928.502 -3.43276 -0.0407965 0
M  V30 9635 C 927.588 -4.13588 0.938404 0
M  V30 9636 N 927.979 -4.59941 2.10447 0
M  V30 9637 C 926.277 -4.3941 0.763853 0
M  V30 9638 C 926.978 -5.1404 2.72282 0
M  V30 9639 N 925.954 -5.05401 2.00176 0
M  V30 9640 H 929.756 -2.53562 1.48606 0
M  V30 9641 H 927.27 -1.34753 0.906384 0
M  V30 9642 H 929.267 -4.15217 -0.374222 0
M  V30 9643 H 927.927 -3.11245 -0.925014 0
M  V30 9644 H 928.938 -4.54471 2.48347 0
M  V30 9645 H 925.615 -4.1744 -0.0704869 0
M  V30 9646 H 927.005 -5.60128 3.71088 0
M  V30 9647 N 929.725 -0.817259 -1.34754 0
M  V30 9648 C 930.95 -0.414423 -2.03217 0
M  V30 9649 C 931.375 0.970037 -1.61158 0
M  V30 9650 O 930.733 1.63016 -0.793436 0
M  V30 9651 C 930.781 -0.518087 -3.56859 0
M  V30 9652 O 929.885 0.464314 -4.09778 0
M  V30 9653 H 929.226 -0.171454 -0.641482 0
M  V30 9654 H 931.756 -1.10611 -1.72123 0
M  V30 9655 H 931.766 -0.391779 -4.06115 0
M  V30 9656 H 930.441 -1.52786 -3.86819 0
M  V30 9657 H 929.018 0.297361 -3.71712 0
M  V30 9658 N 931.203 1.46865 -0.571711 0
M  V30 9659 C 932.45 2.0243 -0.0531071 0
M  V30 9660 C 932.778 1.44446 1.30252 0
M  V30 9661 O 932.033 0.595182 1.8643 0
M  V30 9662 C 932.332 3.57323 0.0742311 0
M  V30 9663 C 931.998 4.34295 -1.21237 0
M  V30 9664 C 930.66 4.55044 -1.56489 0
M  V30 9665 C 933.012 4.78577 -2.0643 0
M  V30 9666 C 930.34 5.17325 -2.76752 0
M  V30 9667 C 932.692 5.42186 -3.25909 0
M  V30 9668 C 931.356 5.61165 -3.61456 0
M  V30 9669 H 930.626 0.740745 -0.0194333 0
M  V30 9670 H 933.273 1.76366 -0.74614 0
M  V30 9671 H 931.578 3.82461 0.850325 0
M  V30 9672 H 933.275 3.97982 0.491077 0
M  V30 9673 H 929.865 4.18435 -0.927922 0
M  V30 9674 H 934.049 4.62313 -1.80501 0
M  V30 9675 H 929.305 5.30211 -3.04444 0
M  V30 9676 H 933.479 5.75459 -3.92198 0
M  V30 9677 H 931.106 6.09195 -4.54737 0
M  V30 9678 N 932.681 0.308908 1.54543 0
M  V30 9679 C 933.611 -0.556657 2.26768 0
M  V30 9680 C 934.592 -1.13145 1.27013 0
M  V30 9681 O 935.777 -1.15931 1.558 0
M  V30 9682 C 932.907 -1.72481 3.01443 0
M  V30 9683 C 931.861 -1.28001 4.08411 0
M  V30 9684 C 931.187 -2.53395 4.70845 0
M  V30 9685 C 932.487 -0.405497 5.20724 0
M  V30 9686 H 934.181 0.0457618 2.99365 0
M  V30 9687 H 931.727 0.0234495 1.43981 0
M  V30 9688 H 933.68 -2.3365 3.50693 0
M  V30 9689 H 932.404 -2.35359 2.26437 0
M  V30 9690 H 931.063 -0.69133 3.60022 0
M  V30 9691 H 930.711 -3.14604 3.92471 0
M  V30 9692 H 930.411 -2.2433 5.43093 0
M  V30 9693 H 931.935 -3.15352 5.22863 0
M  V30 9694 H 933.349 -0.923076 5.6582 0
M  V30 9695 H 931.746 -0.208282 5.99738 0
M  V30 9696 H 932.816 0.567412 4.81569 0
M  V30 9697 N 934.159 -1.57557 0.0367827 0
M  V30 9698 C 935.089 -2.13712 -0.940719 0
M  V30 9699 C 936.07 -1.05515 -1.33419 0
M  V30 9700 O 937.255 -1.33385 -1.41146 0
M  V30 9701 C 934.385 -2.67043 -2.22048 0
M  V30 9702 C 933.339 -3.80096 -1.96752 0
M  V30 9703 C 932.665 -4.19886 -3.31059 0
M  V30 9704 C 933.965 -5.05848 -1.30058 0
M  V30 9705 H 935.659 -2.9564 -0.473033 0
M  V30 9706 H 933.205 -1.42214 -0.226089 0
M  V30 9707 H 935.158 -3.04964 -2.90818 0
M  V30 9708 H 933.882 -1.82287 -2.70996 0
M  V30 9709 H 932.541 -3.42625 -1.30398 0
M  V30 9710 H 932.189 -3.32101 -3.77781 0
M  V30 9711 H 931.889 -4.96073 -3.14937 0
M  V30 9712 H 933.413 -4.60395 -4.01084 0
M  V30 9713 H 934.827 -5.41306 -1.8884 0
M  V30 9714 H 933.224 -5.87084 -1.24309 0
M  V30 9715 H 934.294 -4.84122 -0.274591 0
M  V30 9716 N 935.637 0.236453 -1.55816 0
M  V30 9717 C 936.867 0.978873 -1.81939 0
M  V30 9718 C 937.275 1.79041 -0.611647 0
M  V30 9719 O 936.618 1.78616 0.429172 0
M  V30 9720 C 936.68 1.9569 -3.01572 0
M  V30 9721 C 936.344 1.33131 -4.37178 0
M  V30 9722 C 937.341 0.728585 -5.1477 0
M  V30 9723 C 935.026 1.34755 -4.83887 0
M  V30 9724 C 937.02 0.150427 -6.37222 0
M  V30 9725 C 934.707 0.765539 -6.06286 0
M  V30 9726 C 935.705 0.168017 -6.82793 0
M  V30 9727 O 935.393 -0.404976 -8.02879 0
M  V30 9728 H 935.125 0.293186 -0.609113 0
M  V30 9729 H 937.679 0.261384 -2.0373 0
M  V30 9730 H 935.909 2.71298 -2.75562 0
M  V30 9731 H 937.598 2.56362 -3.14695 0
M  V30 9732 H 938.364 0.708477 -4.79797 0
M  V30 9733 H 934.243 1.80202 -4.24321 0
M  V30 9734 H 937.787 -0.316586 -6.96881 0
M  V30 9735 H 933.684 0.78301 -6.40733 0
M  V30 9736 H 934.452 -0.29785 -8.17958 0
M  V30 9737 N 937.115 1.49373 0.502552 0
M  V30 9738 C 938.34 1.62752 1.28556 0
M  V30 9739 C 938.765 0.298285 1.8572 0
M  V30 9740 O 938.123 -0.733885 1.65782 0
M  V30 9741 C 938.171 2.69778 2.39274 0
M  V30 9742 O 937.275 2.28843 3.43081 0
M  V30 9743 H 936.616 0.544799 0.379592 0
M  V30 9744 H 939.146 1.9555 0.601792 0
M  V30 9745 H 939.156 2.91899 2.8506 0
M  V30 9746 H 937.831 3.66266 1.97033 0
M  V30 9747 H 936.408 2.17047 3.03224 0
M  V30 9748 N 938.594 -0.753485 1.38421 0
M  V30 9749 C 940.01 -1.05656 1.1962 0
M  V30 9750 C 940.21 -2.0145 0.0449443 0
M  V30 9751 O 939.266 -2.45039 -0.609253 0
M  V30 9752 C 940.579 -1.63655 2.52265 0
M  V30 9753 C 942.127 -1.75825 2.58949 0
M  V30 9754 C 942.602 -2.37236 3.91769 0
M  V30 9755 N 944.093 -2.44666 3.9331 0
M  V30 9756 C 944.828 -2.93077 4.92842 0
M  V30 9757 N 944.324 -3.41523 6.02772 0
M  V30 9758 N 946.117 -2.92118 4.80232 0
M  V30 9759 H 938.268 -0.117799 2.12073 0
M  V30 9760 H 940.531 -0.114889 0.941012 0
M  V30 9761 H 940.237 -1.00734 3.36965 0
M  V30 9762 H 940.111 -2.62715 2.70667 0
M  V30 9763 H 942.498 -2.37873 1.74644 0
M  V30 9764 H 942.579 -0.754693 2.44414 0
M  V30 9765 H 942.223 -1.75822 4.76497 0
M  V30 9766 H 942.153 -3.38233 4.03616 0
M  V30 9767 H 944.644 -2.10403 3.1391 0
M  V30 9768 H 944.957 -3.76919 6.74649 0
M  V30 9769 H 943.302 -3.3958 6.06391 0
M  V30 9770 H 946.493 -2.53582 3.93464 0
M  V30 9771 H 946.666 -3.29535 5.57952 0
M  V30 9772 N 940.072 -1.23292 -0.981677 0
M  V30 9773 C 941.002 -1.03738 -2.09191 0
M  V30 9774 C 941.983 0.0453041 -1.7004 0
M  V30 9775 O 943.168 -0.119092 -1.93834 0
M  V30 9776 C 940.298 -0.626426 -3.41604 0
M  V30 9777 C 939.252 -1.65631 -3.94652 0
M  V30 9778 C 938.578 -1.10084 -5.23245 0
M  V30 9779 C 939.878 -3.04903 -4.24066 0
M  V30 9780 H 941.572 -1.966 -2.25807 0
M  V30 9781 H 939.118 -0.946656 -1.0851 0
M  V30 9782 H 941.071 -0.476689 -4.18695 0
M  V30 9783 H 939.795 0.337873 -3.24848 0
M  V30 9784 H 938.454 -1.79402 -3.19704 0
M  V30 9785 H 938.102 -0.127562 -5.02838 0
M  V30 9786 H 937.802 -1.78896 -5.59705 0
M  V30 9787 H 939.326 -0.962928 -6.02959 0
M  V30 9788 H 940.74 -2.94441 -4.91912 0
M  V30 9789 H 939.137 -3.70941 -4.71724 0
M  V30 9790 H 940.207 -3.53991 -3.31389 0
M  V30 9791 N 941.55 1.18024 -1.04442 0
M  V30 9792 C 942.798 1.87727 -0.74854 0
M  V30 9793 C 943.119 1.80975 0.726156 0
M  V30 9794 O 942.389 1.23061 1.52423 0
M  V30 9795 H 940.969 0.694974 -0.273897 0
M  V30 9796 H 943.631 1.43213 -1.32197 0
M  V30 9797 H 942.727 2.93665 -1.05674 0
M  V30 9798 N 943.028 0.824394 1.34319 0
M  V30 9799 C 944.305 0.335692 1.92698 0
M  V30 9800 C 944.685 -1.17715 1.75232 0
M  V30 9801 O 944.033 -1.98493 1.13194 0
M  V30 9802 C 944.243 0.766647 3.40475 0
M  V30 9803 C 945.591 0.766323 4.17627 0
M  V30 9804 O 946.615 0.709321 3.49066 0
M  V30 9805 O 945.474 0.840856 5.39992 0
M  V30 9806 H 942.568 0.0919996 0.821867 0
M  V30 9807 H 945.114 0.909282 1.43283 0
M  V30 9808 H 943.886 1.80859 3.46995 0
M  V30 9809 H 943.509 0.168833 3.97241 0
M  V30 9810 N 944.506 -1.46559 0.579492 0
M  V30 9811 C 945.438 -2.28383 -0.19337 0
M  V30 9812 C 946.451 -1.38324 -0.858511 0
M  V30 9813 O 947.64 -1.62952 -0.728615 0
M  V30 9814 C 944.74 -3.13262 -1.29306 0
M  V30 9815 C 943.913 -4.31426 -0.720459 0
M  V30 9816 C 942.972 -4.97728 -1.70744 0
M  V30 9817 O 941.998 -5.55423 -1.24476 0
M  V30 9818 N 943.2 -4.94445 -3.04146 0
M  V30 9819 H 945.965 -2.95353 0.508611 0
M  V30 9820 H 943.526 -1.56436 0.417046 0
M  V30 9821 H 945.518 -3.54483 -1.95254 0
M  V30 9822 H 944.088 -2.48388 -1.89795 0
M  V30 9823 H 943.308 -3.94028 0.116398 0
M  V30 9824 H 944.596 -5.07808 -0.31763 0
M  V30 9825 H 943.994 -4.4881 -3.44363 0
M  V30 9826 H 942.551 -5.39616 -3.65592 0
M  V30 9827 N 945.984 -0.3171 -1.54377 0
M  V30 9828 C 947.395 0.172287 -1.85903 0
M  V30 9829 C 947.746 1.52141 -1.23885 0
M  V30 9830 O 946.871 2.0949 -0.542476 0
M  V30 9831 C 947.466 0.319392 -3.37291 0
M  V30 9832 C 946.025 0.752998 -3.68791 0
M  V30 9833 C 945.172 -0.129143 -2.76999 0
M  V30 9834 H 948.123 -0.537597 -1.49317 0
M  V30 9835 H 948.144 1.15137 -3.62662 0
M  V30 9836 H 947.656 -0.662671 -3.82401 0
M  V30 9837 H 945.757 1.74504 -3.2921 0
M  V30 9838 H 945.87 0.561228 -4.75801 0
M  V30 9839 H 944.234 0.394242 -2.5163 0
M  V30 9840 H 945.017 -1.10785 -3.24933 0
M  V30 9841 N 947.462 1.57535 -0.0451378 0
M  V30 9842 C 948.708 1.92736 0.630921 0
M  V30 9843 C 949.041 0.923265 1.70849 0
M  V30 9844 O 948.316 -0.0516512 1.94431 0
M  V30 9845 C 948.599 3.38348 1.23259 0
M  V30 9846 C 948.452 4.49503 0.16349 0
M  V30 9847 C 949.771 3.84233 2.14599 0
M  V30 9848 H 946.89 0.700884 0.227883 0
M  V30 9849 H 949.532 1.89706 -0.10567 0
M  V30 9850 H 947.682 3.41061 1.86037 0
M  V30 9851 H 949.354 4.58919 -0.46808 0
M  V30 9852 H 947.597 4.30802 -0.509166 0
M  V30 9853 H 948.268 5.48457 0.624382 0
M  V30 9854 H 950.744 3.83358 1.6179 0
M  V30 9855 H 949.62 4.86781 2.53644 0
M  V30 9856 H 949.881 3.20646 3.04366 0
M  V30 9857 N 948.94 -0.228186 1.55939 0
M  V30 9858 C 950.17 -0.969211 1.82455 0
M  V30 9859 C 950.578 -1.78714 0.621133 0
M  V30 9860 O 949.921 -1.78841 -0.419694 0
M  V30 9861 C 949.983 -1.94088 3.02605 0
M  V30 9862 C 949.647 -1.30811 4.37878 0
M  V30 9863 C 950.644 -0.701275 5.15149 0
M  V30 9864 C 948.329 -1.32187 4.84595 0
M  V30 9865 C 950.323 -0.116631 6.37293 0
M  V30 9866 C 948.01 -0.733375 6.06683 0
M  V30 9867 C 949.008 -0.131804 6.82873 0
M  V30 9868 O 948.696 0.447549 8.02653 0
M  V30 9869 H 948.428 -0.289951 0.610659 0
M  V30 9870 H 950.982 -0.250576 2.03866 0
M  V30 9871 H 949.212 -2.69833 2.76996 0
M  V30 9872 H 950.901 -2.5469 3.1605 0
M  V30 9873 H 951.667 -0.683022 4.80166 0
M  V30 9874 H 947.546 -1.77949 4.25271 0
M  V30 9875 H 951.09 0.353539 6.96704 0
M  V30 9876 H 946.987 -0.749019 6.4114 0
M  V30 9877 H 947.755 0.341224 8.17788 0
M  V30 9878 N 950.418 -1.49637 -0.494624 0
M  V30 9879 C 951.348 -1.69692 -1.60396 0
M  V30 9880 C 952.329 -0.545648 -1.61111 0
M  V30 9881 O 953.514 -0.782202 -1.77751 0
M  V30 9882 C 950.644 -1.76934 -2.9885 0
M  V30 9883 C 949.598 -2.91915 -3.13001 0
M  V30 9884 C 948.924 -2.84276 -4.5287 0
M  V30 9885 C 950.224 -4.32764 -2.92426 0
M  V30 9886 H 951.918 -2.6257 -1.43866 0
M  V30 9887 H 949.464 -1.26355 -0.690679 0
M  V30 9888 H 951.417 -1.8955 -3.76362 0
M  V30 9889 H 950.141 -0.806609 -3.16483 0
M  V30 9890 H 948.8 -2.78911 -2.37916 0
M  V30 9891 H 948.448 -1.85897 -4.67388 0
M  V30 9892 H 948.148 -3.61452 -4.63278 0
M  V30 9893 H 949.672 -2.98909 -5.32434 0
M  V30 9894 H 951.086 -4.46415 -3.59703 0
M  V30 9895 H 949.483 -5.1121 -3.143 0
M  V30 9896 H 950.553 -4.46765 -1.88491 0
M  V30 9897 N 951.896 0.746133 -1.38819 0
M  V30 9898 C 953.307 1.32384 -1.31648 0
M  V30 9899 C 953.658 1.96185 0.0243086 0
M  V30 9900 O 952.783 1.95567 0.92641 0
M  V30 9901 C 953.378 2.40712 -2.38418 0
M  V30 9902 C 951.937 2.94185 -2.34803 0
M  V30 9903 C 951.084 1.67639 -2.20891 0
M  V30 9904 H 954.035 0.544457 -1.49068 0
M  V30 9905 H 954.056 3.20833 -2.04564 0
M  V30 9906 H 953.568 1.94247 -3.3599 0
M  V30 9907 H 951.669 3.44959 -1.40834 0
M  V30 9908 H 951.782 3.48057 -3.29231 0
M  V30 9909 H 950.146 1.9155 -1.67871 0
M  V30 9910 H 950.929 1.23242 -3.20416 0
M  V30 9911 N 953.375 1.23811 0.975125 0
M  V30 9912 C 954.603 1.10019 1.75224 0
M  V30 9913 C 955.018 -0.34791 1.85567 0
M  V30 9914 O 954.375 -1.24043 1.33864 0
M  V30 9915 C 954.426 1.72572 3.1765 0
M  V30 9916 O 954.147 3.11719 3.07836 0
M  V30 9917 C 955.648 1.64292 4.11732 0
M  V30 9918 H 952.868 0.38476 0.549728 0
M  V30 9919 H 955.412 1.63768 1.22476 0
M  V30 9920 H 953.567 1.22843 3.67408 0
M  V30 9921 H 953.981 3.42152 3.97533 0
M  V30 9922 H 955.455 2.12754 5.09352 0
M  V30 9923 H 955.932 0.602722 4.35045 0
M  V30 9924 H 956.538 2.13411 3.6788 0
M  V30 9925 N 954.853 -1.17469 1.05066 0
M  V30 9926 C 955.785 -2.20974 0.608526 0
M  V30 9927 C 956.798 -1.59481 -0.327066 0
M  V30 9928 O 957.987 -1.78096 -0.12 0
M  V30 9929 C 955.087 -3.38652 -0.12969 0
M  V30 9930 C 954.26 -4.29716 0.816285 0
M  V30 9931 C 953.319 -5.26064 0.119556 0
M  V30 9932 O 952.345 -5.64194 0.753241 0
M  V30 9933 N 953.547 -5.69126 -1.14347 0
M  V30 9934 H 956.312 -2.59529 1.49882 0
M  V30 9935 H 953.873 -1.32355 0.932406 0
M  V30 9936 H 955.865 -4.00139 -0.605886 0
M  V30 9937 H 954.435 -2.98705 -0.921638 0
M  V30 9938 H 953.655 -3.6568 1.47213 0
M  V30 9939 H 954.943 -4.87449 1.45845 0
M  V30 9940 H 954.341 -5.4022 -1.67866 0
M  V30 9941 H 952.898 -6.32764 -1.56376 0
M  V30 9942 N 956.331 -0.831506 -1.3388 0
M  V30 9943 C 957.264 -0.2046 -2.27281 0
M  V30 9944 C 958.242 0.643992 -1.49303 0
M  V30 9945 O 959.426 0.605863 -1.78498 0
M  V30 9946 C 956.553 0.713409 -3.31101 0
M  V30 9947 C 955.599 -0.0587654 -4.2646 0
M  V30 9948 S 956.432 -1.41172 -5.16557 0
M  V30 9949 C 957.588 -0.498807 -6.23909 0
M  V30 9950 H 957.821 -0.996442 -2.80104 0
M  V30 9951 H 955.354 -0.62786 -1.41058 0
M  V30 9952 H 957.312 1.23748 -3.91403 0
M  V30 9953 H 955.973 1.47885 -2.77108 0
M  V30 9954 H 955.166 0.639466 -4.99927 0
M  V30 9955 H 954.768 -0.513665 -3.70456 0
M  V30 9956 H 957.06 0.306268 -6.76807 0
M  V30 9957 H 958.003 -1.20342 -6.97799 0
M  V30 9958 H 958.411 -0.0834242 -5.64438 0
M  V30 9959 N 957.809 1.4625 -0.587256 0
M  V30 9960 C 958.739 2.33132 0.131076 0
M  V30 9961 C 959.72 1.45619 0.879158 0
M  V30 9962 O 960.905 1.74428 0.853723 0
M  V30 9963 C 958.035 3.27975 1.14236 0
M  V30 9964 C 956.989 4.24965 0.508819 0
M  V30 9965 C 956.315 5.09349 1.62689 0
M  V30 9966 C 957.615 5.19322 -0.55694 0
M  V30 9967 H 959.309 2.93442 -0.594333 0
M  V30 9968 H 956.855 1.41106 -0.287263 0
M  V30 9969 H 958.808 3.87614 1.65328 0
M  V30 9970 H 957.532 2.65781 1.8981 0
M  V30 9971 H 956.191 3.66595 0.0189337 0
M  V30 9972 H 955.839 4.43537 2.37242 0
M  V30 9973 H 955.539 5.75036 1.20861 0
M  V30 9974 H 957.063 5.71852 2.14049 0
M  V30 9975 H 958.477 5.73151 -0.130903 0
M  V30 9976 H 956.874 5.93376 -0.895801 0
M  V30 9977 H 957.944 4.62979 -1.44148 0
M  V30 9978 N 959.287 0.325282 1.54207 0
M  V30 9979 C 960.533 -0.277185 2.00897 0
M  V30 9980 C 960.866 -1.51651 1.21308 0
M  V30 9981 O 960.141 -1.92237 0.295825 0
M  V30 9982 C 960.424 -0.60961 3.54902 0
M  V30 9983 C 960.277 0.640542 4.45216 0
M  V30 9984 C 961.596 -1.42656 4.16338 0
M  V30 9985 H 958.715 -0.0992722 0.730284 0
M  V30 9986 H 961.357 0.442201 1.84783 0
M  V30 9987 H 959.507 -1.22249 3.68765 0
M  V30 9988 H 961.179 1.27878 4.43221 0
M  V30 9989 H 959.422 1.26908 4.14821 0
M  V30 9990 H 960.093 0.363459 5.50802 0
M  V30 9991 H 962.569 -0.908494 4.06061 0
M  V30 9992 H 961.445 -1.62792 5.24204 0
M  V30 9993 H 961.706 -2.42321 3.69774 0
M  V30 9994 N 960.765 -1.57509 0.0534917 0
M  V30 9995 C 961.712 -2.11667 -0.920101 0
M  V30 9996 C 962.682 -1.0246 -1.30733 0
M  V30 9997 O 963.867 -1.30021 -1.39639 0
M  V30 9998 C 961.007 -2.66803 -2.18883 0
M  V30 9999 C 960.12 -3.90104 -1.85588 0
M  V30 10000 C 959.255 -4.33547 -3.06937 0
M  V30 10001 C 958.294 -5.49542 -2.69573 0
M  V30 10002 N 957.431 -5.88029 -3.83623 0
M  V30 10003 H 962.271 -2.94562 -0.451371 0
M  V30 10004 H 959.808 -1.45576 -0.211168 0
M  V30 10005 H 961.766 -2.96871 -2.93127 0
M  V30 10006 H 960.396 -1.86702 -2.63329 0
M  V30 10007 H 959.448 -3.66613 -1.01484 0
M  V30 10008 H 960.76 -4.74404 -1.54087 0
M  V30 10009 H 959.914 -4.6518 -3.89477 0
M  V30 10010 H 958.653 -3.48064 -3.41618 0
M  V30 10011 H 957.658 -5.17579 -1.8545 0
M  V30 10012 H 958.883 -6.36743 -2.36082 0
M  V30 10013 H 956.829 -5.05498 -4.181 0
M  V30 10014 H 956.746 -6.67025 -3.55828 0
M  V30 10015 H 958.014 -6.24277 -4.66796 0
M  V30 10016 N 962.243 0.219913 -1.56058 0
M  V30 10017 C 963.49 0.944064 -1.79147 0
M  V30 10018 C 963.818 1.84268 -0.622531 0
M  V30 10019 O 963.073 1.91713 0.393013 0
M  V30 10020 C 963.372 1.81293 -3.08006 0
M  V30 10021 C 963.038 1.0674 -4.38084 0
M  V30 10022 C 961.7 0.86147 -4.73426 0
M  V30 10023 C 964.052 0.541049 -5.18384 0
M  V30 10024 C 961.38 0.117307 -5.86583 0
M  V30 10025 C 963.732 -0.189779 -6.32315 0
M  V30 10026 C 962.396 -0.406951 -6.66258 0
M  V30 10027 H 961.666 0.345458 -0.655546 0
M  V30 10028 H 964.313 0.212121 -1.90322 0
M  V30 10029 H 962.618 2.61278 -2.9196 0
M  V30 10030 H 964.315 2.3754 -3.23072 0
M  V30 10031 H 960.905 1.23789 -4.10334 0
M  V30 10032 H 965.089 0.687617 -4.91514 0
M  V30 10033 H 960.345 -0.0611651 -6.11369 0
M  V30 10034 H 964.519 -0.605134 -6.93766 0
M  V30 10035 H 962.146 -0.985511 -7.53785 0
M  V30 10036 N 963.721 1.49897 0.486681 0
M  V30 10037 C 964.654 1.6224 1.60479 0
M  V30 10038 C 965.632 0.470964 1.5563 0
M  V30 10039 O 966.816 0.688418 1.75479 0
M  V30 10040 C 963.943 1.59059 2.99028 0
M  V30 10041 C 962.989 2.79575 3.22087 0
M  V30 10042 S 963.822 4.41077 3.03664 0
M  V30 10043 C 964.978 4.40564 4.44583 0
M  V30 10044 H 965.211 2.56822 1.49766 0
M  V30 10045 H 962.744 1.38966 0.672893 0
M  V30 10046 H 964.702 1.5791 3.78913 0
M  V30 10047 H 963.363 0.657405 3.07143 0
M  V30 10048 H 962.556 2.73609 4.23266 0
M  V30 10049 H 962.158 2.78211 2.49949 0
M  V30 10050 H 964.45 4.13166 5.36936 0
M  V30 10051 H 965.393 5.42068 4.55596 0
M  V30 10052 H 965.801 3.70461 4.25933 0
M  V30 10053 N 965.199 -0.738761 1.39212 0
M  V30 10054 C 966.162 -1.83441 1.37412 0
M  V30 10055 C 967.162 -1.58484 0.271908 0
M  V30 10056 O 968.352 -1.65954 0.529609 0
M  V30 10057 C 965.484 -3.21167 1.143 0
M  V30 10058 H 966.677 -1.86441 2.34904 0
M  V30 10059 H 964.23 -0.942023 1.24722 0
M  V30 10060 H 964.965 -3.23829 0.174756 0
M  V30 10061 H 964.75 -3.40678 1.94116 0
M  V30 10062 H 966.24 -4.01231 1.15773 0
M  V30 10063 N 966.677 -1.24326 -0.968545 0
M  V30 10064 C 967.954 -0.990459 -1.68669 0
M  V30 10065 C 968.334 0.487487 -2.05394 0
M  V30 10066 O 967.682 1.46158 -1.75642 0
M  V30 10067 C 967.892 -1.91251 -2.91931 0
M  V30 10068 C 969.24 -2.18291 -3.6419 0
M  V30 10069 O 970.264 -1.88897 -3.01987 0
M  V30 10070 O 969.123 -2.68204 -4.76161 0
M  V30 10071 H 966.217 -0.374515 -0.737338 0
M  V30 10072 H 968.763 -1.35421 -1.02271 0
M  V30 10073 H 967.535 -2.9111 -2.61478 0
M  V30 10074 H 967.158 -1.55188 -3.66064 0
M  V30 10075 N 968.156 1.1691 -1.05688 0
M  V30 10076 C 969.405 1.86629 -0.765022 0
M  V30 10077 C 969.718 1.82223 0.710918 0
M  V30 10078 O 970.924 2.47462 1.11691 0
M  V30 10079 C 969.38 3.34886 -1.3183 0
M  V30 10080 C 968.988 3.47781 -2.82404 0
M  V30 10081 C 970.732 4.099 -1.10372 0
M  V30 10082 C 968.639 4.9009 -3.31008 0
M  V30 10083 H 967.569 0.699082 -0.282491 0
M  V30 10084 H 970.22 1.31989 -1.27481 0
M  V30 10085 H 968.602 3.89094 -0.736312 0
M  V30 10086 H 969.776 3.03765 -3.46502 0
M  V30 10087 H 968.091 2.86193 -3.02461 0
M  V30 10088 H 970.688 5.14894 -1.4418 0
M  V30 10089 H 971.031 4.16279 -0.0417372 0
M  V30 10090 H 971.564 3.61913 -1.65117 0
M  V30 10091 H 968.303 4.88887 -4.36657 0
M  V30 10092 H 967.823 5.34756 -2.71655 0
M  V30 10093 H 969.502 5.58881 -3.25977 0
M  V30 10094 N 969.634 0.838594 1.33437 0
M  V30 10095 C 970.597 0.276843 2.27522 0
M  V30 10096 C 971.597 -0.554275 1.50945 0
M  V30 10097 O 972.787 -0.368107 1.70266 0
M  V30 10098 C 969.919 -0.610036 3.35397 0
M  V30 10099 H 971.112 1.10705 2.78719 0
M  V30 10100 H 968.665 0.611657 1.43835 0
M  V30 10101 H 969.4 -1.46269 2.89441 0
M  V30 10102 H 969.185 -0.0153615 3.92097 0
M  V30 10103 H 970.675 -0.996368 4.05539 0
M  V30 10104 N 971.112 -1.45937 0.595003 0
M  V30 10105 C 972.337 -2.07207 0.0894416 0
M  V30 10106 C 972.762 -1.43884 -1.21157 0
M  V30 10107 O 972.12 -0.526998 -1.73472 0
M  V30 10108 C 972.168 -3.60565 -0.0499828 0
M  V30 10109 O 971.272 -3.97364 -1.10342 0
M  V30 10110 H 970.613 -0.660471 0.0683627 0
M  V30 10111 H 973.143 -1.87386 0.82144 0
M  V30 10112 H 973.153 -4.0722 -0.252234 0
M  V30 10113 H 971.828 -4.06044 0.90006 0
M  V30 10114 H 970.405 -3.62401 -0.878645 0
M  V30 10115 N 972.59 -0.333456 -1.54032 0
M  V30 10116 C 973.838 0.265608 -2.00347 0
M  V30 10117 C 974.159 1.51873 -1.2231 0
M  V30 10118 O 973.429 1.93142 -0.327549 0
M  V30 10119 H 972.009 0.101135 -0.740122 0
M  V30 10120 H 974.671 -0.452285 -1.8958 0
M  V30 10121 H 973.767 0.51511 -3.0782 0
M  V30 10122 N 974.068 1.57479 -0.061844 0
M  V30 10123 C 975.001 2.07734 0.94455 0
M  V30 10124 C 975.979 0.980207 1.29733 0
M  V30 10125 O 977.163 1.2529 1.40836 0
M  V30 10126 C 974.29 2.52673 2.25553 0
M  V30 10127 C 973.336 3.73725 2.05503 0
M  V30 10128 S 974.169 5.18886 1.32354 0
M  V30 10129 C 975.325 5.67148 2.64753 0
M  V30 10130 H 975.558 2.92772 0.516888 0
M  V30 10131 H 973.091 1.53663 0.150684 0
M  V30 10132 H 975.049 2.79226 3.00904 0
M  V30 10133 H 973.71 1.67921 2.65445 0
M  V30 10134 H 972.903 4.03125 3.025 0
M  V30 10135 H 972.505 3.47494 1.3829 0
M  V30 10136 H 974.797 5.73385 3.60882 0
M  V30 10137 H 975.74 6.66196 2.39976 0
M  V30 10138 H 976.148 4.94921 2.71502 0
M  V30 10139 N 975.546 -0.211634 1.56173 0
M  V30 10140 C 976.456 -1.2831 1.96402 0
M  V30 10141 C 977.472 -1.50731 0.869254 0
M  V30 10142 O 978.648 -1.63669 1.17365 0
M  V30 10143 C 975.713 -2.61084 2.28114 0
M  V30 10144 C 974.774 -2.46879 3.51211 0
M  V30 10145 C 974.007 -3.73321 3.81401 0
M  V30 10146 O 974.23 -4.76773 3.13119 0
M  V30 10147 O 973.164 -3.69839 4.74871 0
M  V30 10148 H 976.99 -0.971733 2.87734 0
M  V30 10149 H 974.575 -0.415305 1.43512 0
M  V30 10150 H 976.457 -3.39481 2.49661 0
M  V30 10151 H 975.132 -2.91881 1.39954 0
M  V30 10152 H 974.039 -1.66648 3.34932 0
M  V30 10153 H 975.372 -2.21018 4.39786 0
M  V30 10154 N 977.024 -1.50153 -0.478725 0
M  V30 10155 C 978.254 -1.64266 -1.253 0
M  V30 10156 C 978.662 -0.322256 -1.86435 0
M  V30 10157 O 978.005 0.704925 -1.69636 0
M  V30 10158 C 978.067 -2.67017 -2.40712 0
M  V30 10159 C 977.731 -4.10779 -2.00274 0
M  V30 10160 C 978.728 -4.96889 -1.52963 0
M  V30 10161 C 976.413 -4.5665 -2.09228 0
M  V30 10162 C 978.407 -6.26914 -1.15139 0
M  V30 10163 C 976.094 -5.86683 -1.71015 0
M  V30 10164 C 977.092 -6.71641 -1.24048 0
M  V30 10165 O 976.78 -7.99248 -0.863617 0
M  V30 10166 H 976.512 -0.555382 -0.385392 0
M  V30 10167 H 979.066 -1.97078 -0.578751 0
M  V30 10168 H 977.296 -2.29432 -3.11284 0
M  V30 10169 H 978.985 -2.70428 -3.02694 0
M  V30 10170 H 979.751 -4.62669 -1.45474 0
M  V30 10171 H 975.63 -3.90674 -2.44735 0
M  V30 10172 H 979.174 -6.93179 -0.784089 0
M  V30 10173 H 975.071 -6.20426 -1.78162 0
M  V30 10174 H 975.839 -8.12452 -0.993139 0
M  V30 10175 N 978.502 0.731368 -1.39602 0
M  V30 10176 C 979.432 1.85855 -1.41351 0
M  V30 10177 C 980.413 1.67839 -0.2764 0
M  V30 10178 O 981.598 1.88104 -0.482747 0
M  V30 10179 C 978.728 3.23644 -1.25983 0
M  V30 10180 C 977.682 3.56304 -2.37132 0
M  V30 10181 C 977.008 4.93069 -2.0685 0
M  V30 10182 C 978.308 3.58906 -3.79452 0
M  V30 10183 H 980.002 1.84648 -2.3568 0
M  V30 10184 H 977.548 0.886955 -1.13442 0
M  V30 10185 H 979.501 4.02176 -1.25826 0
M  V30 10186 H 978.225 3.25387 -0.281234 0
M  V30 10187 H 976.884 2.80104 -2.36511 0
M  V30 10188 H 976.532 4.91396 -1.0742 0
M  V30 10189 H 976.232 5.15888 -2.81306 0
M  V30 10190 H 977.756 5.73953 -2.0835 0
M  V30 10191 H 979.17 4.27508 -3.81982 0
M  V30 10192 H 977.567 3.93246 -4.53297 0
M  V30 10193 H 978.637 2.58631 -4.10168 0
M  V30 10194 N 979.98 1.24838 0.961938 0
M  V30 10195 C 981.205 1.11967 1.7458 0
M  V30 10196 C 981.63 -0.323287 1.85301 0
M  V30 10197 O 980.988 -1.23412 1.32812 0
M  V30 10198 C 981.036 1.77066 3.14134 0
M  V30 10199 O 980.14 1.04534 3.98932 0
M  V30 10200 H 979.481 0.391338 0.536424 0
M  V30 10201 H 982.011 1.65259 1.20626 0
M  V30 10202 H 982.021 1.83056 3.64629 0
M  V30 10203 H 980.696 2.82052 3.05646 0
M  V30 10204 H 979.273 1.06372 3.57407 0
M  V30 10205 N 981.458 -1.16348 1.06306 0
M  V30 10206 C 982.686 -1.90782 0.800614 0
M  V30 10207 C 983.101 -1.77439 -0.645033 0
M  V30 10208 O 982.458 -1.11912 -1.4416 0
M  V30 10209 C 982.509 -3.41484 1.18621 0
M  V30 10210 O 982.23 -3.54428 2.57512 0
M  V30 10211 C 983.731 -4.32968 0.951525 0
M  V30 10212 H 980.951 -0.604977 0.290247 0
M  V30 10213 H 983.495 -1.47476 1.41672 0
M  V30 10214 H 981.65 -3.82493 0.614633 0
M  V30 10215 H 982.064 -4.4788 2.72954 0
M  V30 10216 H 983.538 -5.37169 1.27095 0
M  V30 10217 H 984.015 -4.39055 -0.112734 0
M  V30 10218 H 984.621 -3.97687 1.50749 0
M  V30 10219 N 982.937 -0.845659 -1.3299 0
M  V30 10220 C 983.884 -0.281761 -2.29074 0
M  V30 10221 C 984.854 0.606237 -1.54641 0
M  V30 10222 O 986.039 0.543063 -1.82908 0
M  V30 10223 C 983.179 0.531451 -3.40983 0
M  V30 10224 C 982.292 -0.381328 -4.30314 0
M  V30 10225 C 981.427 0.443643 -5.29344 0
M  V30 10226 C 980.466 -0.467101 -6.10315 0
M  V30 10227 N 979.603 0.320148 -7.0137 0
M  V30 10228 H 984.443 -1.10641 -2.76699 0
M  V30 10229 H 981.98 -0.55706 -1.36144 0
M  V30 10230 H 983.938 1.01848 -4.04577 0
M  V30 10231 H 982.568 1.32101 -2.94532 0
M  V30 10232 H 981.62 -0.986701 -3.6738 0
M  V30 10233 H 982.932 -1.08067 -4.86953 0
M  V30 10234 H 982.086 0.994212 -5.98498 0
M  V30 10235 H 980.825 1.17639 -4.73299 0
M  V30 10236 H 979.83 -1.02963 -5.40073 0
M  V30 10237 H 981.055 -1.19832 -6.68444 0
M  V30 10238 H 979.001 1.03615 -6.47765 0
M  V30 10239 H 978.918 -0.320338 -7.55321 0
M  V30 10240 H 980.186 0.852735 -7.74822 0
M  V30 10241 N 984.415 1.45619 -0.602734 0
M  V30 10242 C 985.831 1.57368 -0.26599 0
M  V30 10243 C 986.031 1.59485 1.23154 0
M  V30 10244 O 985.087 1.52254 2.01432 0
M  V30 10245 C 986.4 2.85863 -0.932881 0
M  V30 10246 C 987.948 2.9953 -0.908344 0
M  V30 10247 C 988.423 4.30789 -1.55515 0
M  V30 10248 N 989.914 4.37536 -1.52042 0
M  V30 10249 C 990.649 5.37758 -1.99008 0
M  V30 10250 N 990.145 6.44544 -2.54038 0
M  V30 10251 N 991.938 5.29085 -1.89805 0
M  V30 10252 H 984.089 1.42489 -1.57514 0
M  V30 10253 H 986.352 0.680948 -0.659556 0
M  V30 10254 H 986.058 2.90183 -1.98713 0
M  V30 10255 H 985.932 3.74467 -0.453209 0
M  V30 10256 H 988.319 2.9478 0.137344 0
M  V30 10257 H 988.4 2.12349 -1.42623 0
M  V30 10258 H 988.044 4.36297 -2.60014 0
M  V30 10259 H 987.974 5.16778 -1.01232 0
M  V30 10260 H 990.465 3.60972 -1.11837 0
M  V30 10261 H 990.778 7.17258 -2.87682 0
M  V30 10262 H 989.123 6.45308 -2.58075 0
M  V30 10263 H 992.314 4.44566 -1.46556 0
M  V30 10264 H 992.487 6.07043 -2.26722 0
M  V30 10265 N 985.893 0.34162 1.53853 0
M  V30 10266 C 987.14 -0.255484 2.00882 0
M  V30 10267 C 987.468 -1.50711 1.22949 0
M  V30 10268 O 986.723 -1.93315 0.304625 0
M  V30 10269 C 987.022 -0.616989 3.52034 0
M  V30 10270 C 986.688 0.537536 4.47684 0
M  V30 10271 C 985.35 0.854379 4.73554 0
M  V30 10272 C 987.702 1.31217 5.04412 0
M  V30 10273 C 985.03 1.94826 5.53407 0
M  V30 10274 C 987.382 2.39628 5.85458 0
M  V30 10275 C 986.046 2.71874 6.09623 0
M  V30 10276 H 985.316 -0.0934881 0.735079 0
M  V30 10277 H 987.963 0.469135 1.85665 0
M  V30 10278 H 986.268 -1.42229 3.65073 0
M  V30 10279 H 987.965 -1.09084 3.85878 0
M  V30 10280 H 984.555 0.280524 4.27681 0
M  V30 10281 H 988.739 1.08064 4.84392 0
M  V30 10282 H 983.995 2.20235 5.70356 0
M  V30 10283 H 988.169 3.00084 6.28429 0
M  V30 10284 H 985.796 3.56762 6.71286 0
M  V30 10285 N 987.371 -1.57444 0.0701946 0
M  V30 10286 C 988.62 -1.92605 -0.598849 0
M  V30 10287 C 988.933 -0.952058 -1.70866 0
M  V30 10288 O 990.139 -1.19643 -2.43716 0
M  V30 10289 C 988.595 -3.42142 -1.11655 0
M  V30 10290 C 988.203 -4.47984 -0.0378355 0
M  V30 10291 C 989.947 -3.86307 -1.75975 0
M  V30 10292 C 987.854 -5.88652 -0.569495 0
M  V30 10293 H 986.784 -0.718873 -0.22746 0
M  V30 10294 H 989.435 -1.82948 0.14217 0
M  V30 10295 H 987.817 -3.46866 -1.91049 0
M  V30 10296 H 988.991 -4.54874 0.736661 0
M  V30 10297 H 987.306 -4.13277 0.50904 0
M  V30 10298 H 989.903 -4.88784 -2.16782 0
M  V30 10299 H 990.246 -3.23587 -2.61911 0
M  V30 10300 H 990.779 -3.84179 -1.03206 0
M  V30 10301 H 987.518 -6.55013 0.252662 0
M  V30 10302 H 987.038 -5.85285 -1.31155 0
M  V30 10303 H 988.717 -6.38482 -1.04641 0
M  V30 10304 N 988.849 0.203349 -1.56283 0
M  V30 10305 C 989.799 1.25595 -1.90289 0
M  V30 10306 C 990.783 1.41403 -0.767732 0
M  V30 10307 O 991.975 1.43912 -1.03046 0
M  V30 10308 C 989.104 2.60255 -2.23881 0
M  V30 10309 C 988.19 2.48274 -3.43833 0
M  V30 10310 N 988.581 2.05963 -4.61966 0
M  V30 10311 C 986.879 2.79188 -3.47808 0
M  V30 10312 C 987.58 2.05674 -5.44126 0
M  V30 10313 N 986.556 2.46862 -4.84314 0
M  V30 10314 H 990.358 0.920016 -2.79129 0
M  V30 10315 H 987.872 0.411829 -1.57091 0
M  V30 10316 H 989.869 3.36274 -2.46425 0
M  V30 10317 H 988.529 2.94678 -1.36363 0
M  V30 10318 H 989.54 1.76803 -4.86787 0
M  V30 10319 H 986.217 3.17863 -2.70684 0
M  V30 10320 H 987.607 1.74932 -6.48728 0
M  V30 10321 N 990.327 1.50405 0.470755 0
M  V30 10322 C 991.743 1.37838 0.804534 0
M  V30 10323 C 991.943 0.434743 1.96754 0
M  V30 10324 O 990.999 -0.122507 2.52203 0
M  V30 10325 C 992.312 2.79212 1.11629 0
M  V30 10326 C 993.86 2.88129 1.22272 0
M  V30 10327 C 994.335 4.30337 1.5676 0
M  V30 10328 N 995.826 4.3329 1.63751 0
M  V30 10329 C 996.561 5.4032 1.91942 0
M  V30 10330 N 996.057 6.57558 2.18151 0
M  V30 10331 N 997.85 5.27764 1.93446 0
M  V30 10332 H 990.001 2.10332 -0.295689 0
M  V30 10333 H 992.264 0.945429 -0.0697733 0
M  V30 10334 H 991.97 3.50103 0.334778 0
M  V30 10335 H 991.844 3.16475 2.0524 0
M  V30 10336 H 994.231 2.17457 1.9949 0
M  V30 10337 H 994.312 2.54409 0.2664 0
M  V30 10338 H 993.956 5.01547 0.800817 0
M  V30 10339 H 993.886 4.61545 2.53543 0
M  V30 10340 H 996.377 3.48752 1.45535 0
M  V30 10341 H 996.69 7.34935 2.38936 0
M  V30 10342 H 995.035 6.60732 2.15542 0
M  V30 10343 H 998.226 4.35169 1.72468 0
M  V30 10344 H 998.399 6.11264 2.15081 0
M  V30 10345 N 991.805 -0.723954 1.39988 0
M  V30 10346 C 993.082 -1.4763 1.28316 0
M  V30 10347 C 993.462 -2.10852 -0.102302 0
M  V30 10348 O 992.81 -1.9948 -1.11445 0
M  V30 10349 C 993.02 -2.51878 2.41574 0
M  V30 10350 C 994.368 -3.17948 2.81415 0
M  V30 10351 O 995.392 -2.62195 2.41106 0
M  V30 10352 O 994.251 -4.18858 3.51027 0
M  V30 10353 H 991.345 -0.656092 0.50346 0
M  V30 10354 H 993.891 -0.75684 1.51888 0
M  V30 10355 H 992.663 -2.03618 3.34149 0
M  V30 10356 H 992.286 -3.3137 2.19727 0
M  V30 10357 N 993.283 -1.25346 -0.955304 0
M  V30 10358 C 994.213 -1.08152 -2.06943 0
M  V30 10359 C 995.194 0.00922598 -1.70097 0
M  V30 10360 O 996.379 -0.160181 -1.93538 0
M  V30 10361 C 993.509 -0.698745 -3.40198 0
M  V30 10362 C 992.463 -1.73965 -3.9105 0
M  V30 10363 C 991.789 -1.21158 -5.20792 0
M  V30 10364 C 993.089 -3.13829 -4.17503 0
M  V30 10365 H 994.783 -2.01345 -2.21586 0
M  V30 10366 H 992.329 -0.969459 -1.06478 0
M  V30 10367 H 994.282 -0.565394 -4.1759 0
M  V30 10368 H 993.006 0.268892 -3.25491 0
M  V30 10369 H 991.665 -1.86143 -3.15827 0
M  V30 10370 H 991.313 -0.234193 -5.02455 0
M  V30 10371 H 991.013 -1.90728 -5.55785 0
M  V30 10372 H 992.537 -1.09061 -6.00781 0
M  V30 10373 H 993.951 -3.04809 -4.85556 0
M  V30 10374 H 992.348 -3.80863 -4.63749 0
M  V30 10375 H 993.418 -3.6094 -3.23806 0
M  V30 10376 N 994.761 1.15782 -1.06922 0
M  V30 10377 C 995.724 2.18578 -0.689654 0
M  V30 10378 C 996.724 1.58553 0.267872 0
M  V30 10379 O 997.914 1.7413 0.0494097 0
M  V30 10380 C 995.046 3.40896 -0.0157919 0
M  V30 10381 H 996.239 2.53672 -1.59971 0
M  V30 10382 H 993.792 1.30168 -0.865214 0
M  V30 10383 H 994.527 3.11367 0.906712 0
M  V30 10384 H 994.312 3.85721 -0.704415 0
M  V30 10385 H 995.802 4.16937 0.235266 0
M  V30 10386 N 996.239 0.8527 1.3254 0
M  V30 10387 C 997.202 0.300959 2.27215 0
M  V30 10388 C 998.202 -0.538235 1.51525 0
M  V30 10389 O 999.392 -0.350027 1.70647 0
M  V30 10390 C 996.524 -0.574428 3.36025 0
M  V30 10391 H 997.717 1.13655 2.77529 0
M  V30 10392 H 995.27 0.626878 1.43178 0
M  V30 10393 H 996.005 -1.43191 2.90976 0
M  V30 10394 H 995.79 0.0262265 3.92091 0
M  V30 10395 H 997.28 -0.9533 4.06573 0
M  V30 10396 N 997.718 -1.45297 0.610449 0
M  V30 10397 C 999.134 -1.57225 0.274332 0
M  V30 10398 C 999.334 -1.60136 -1.22306 0
M  V30 10399 O 998.39 -1.5332 -2.00622 0
M  V30 10400 C 999.703 -2.85365 0.948028 0
M  V30 10401 C 1001.25 -2.99044 0.924216 0
M  V30 10402 C 1001.73 -4.29958 1.57798 0
M  V30 10403 N 1003.22 -4.36723 1.5436 0
M  V30 10404 C 1003.95 -5.36695 2.01857 0
M  V30 10405 N 1003.45 -6.43187 2.57453 0
M  V30 10406 N 1005.24 -5.28071 1.92608 0
M  V30 10407 H 997.392 -1.41651 1.58268 0
M  V30 10408 H 999.655 -0.67744 0.663158 0
M  V30 10409 H 999.361 -2.89125 2.00249 0
M  V30 10410 H 999.235 -3.74222 0.473062 0
M  V30 10411 H 1001.62 -2.94849 -0.121709 0
M  V30 10412 H 1001.7 -2.1159 1.43748 0
M  V30 10413 H 1001.35 -4.34912 2.62325 0
M  V30 10414 H 1001.28 -5.16234 1.03972 0
M  V30 10415 H 1003.77 -3.60374 1.13749 0
M  V30 10416 H 1004.08 -7.15722 2.91482 0
M  V30 10417 H 1002.43 -6.4393 2.61493 0
M  V30 10418 H 1005.62 -4.43783 1.48912 0
M  V30 10419 H 1005.79 -6.05832 2.29938 0
M  V30 10420 N 999.196 -0.349774 -1.5367 0
M  V30 10421 C 1000.14 0.519396 -2.26727 0
M  V30 10422 C 1001.14 1.09673 -1.29105 0
M  V30 10423 O 1002.34 1.04176 -1.46791 0
M  V30 10424 H 998.719 0.186192 -0.728585 0
M  V30 10425 H 1000.69 -0.118736 -2.98164 0
M  V30 10426 C 999.439 1.65535 -3.05767 0
M  V30 10427 H 998.762 1.22038 -3.80719 0
M  V30 10428 H 1000.2 2.23856 -3.6009 0
M  V30 10429 C 998.661 2.58844 -2.15642 0
M  V30 10430 O 999.191 3.61254 -1.75665 0
M  V30 10431 N 997.397 2.27671 -1.80595 0
M  V30 10432 H 996.944 1.44429 -2.13302 0
M  V30 10433 H 996.902 2.90359 -1.20577 0
M  V30 10434 N 1000.67 1.57404 -0.0785433 0
M  V30 10435 C 1001.91 1.95621 0.592595 0
M  V30 10436 C 1002.28 0.958429 1.66367 0
M  V30 10437 O 1003.48 1.2285 2.39084 0
M  V30 10438 C 1001.75 3.38445 1.14846 0
M  V30 10439 S 1003.31 3.98645 1.83378 0
M  V30 10440 H 1000.13 0.684063 0.193851 0
M  V30 10441 H 1002.73 1.94892 -0.154007 0
M  V30 10442 H 1001.43 4.08843 0.357179 0
M  V30 10443 H 1000.96 3.42733 1.93127 0
M  V30 10444 H 1002.98 3.86099 3.11676 0
M  V30 10445 N 1002.15 -0.195058 1.56388 0
M  V30 10446 C 1003.08 -1.26978 1.8961 0
M  V30 10447 C 1004.06 -1.43946 0.756199 0
M  V30 10448 O 1005.25 -1.59335 1.0072 0
M  V30 10449 C 1002.37 -2.63638 2.12632 0
M  V30 10450 C 1001.42 -2.6354 3.35334 0
M  V30 10451 S 1002.25 -2.1497 4.90457 0
M  V30 10452 C 1003.41 -3.53454 5.16547 0
M  V30 10453 H 1003.64 -0.986091 2.8047 0
M  V30 10454 H 1001.17 -0.398552 1.49167 0
M  V30 10455 H 1003.13 -3.42304 2.26579 0
M  V30 10456 H 1001.79 -2.89218 1.22522 0
M  V30 10457 H 1000.99 -3.64027 3.48569 0
M  V30 10458 H 1000.59 -1.92956 3.20381 0
M  V30 10459 H 1002.88 -4.49318 5.0707 0
M  V30 10460 H 1003.82 -3.45113 6.18306 0
M  V30 10461 H 1004.23 -3.48368 4.44185 0
M  V30 10462 N 1003.63 -1.50653 -0.462772 0
M  V30 10463 C 1004.56 -1.73056 -1.5676 0
M  V30 10464 C 1005.54 -0.579699 -1.59917 0
M  V30 10465 O 1006.73 -0.819729 -1.76051 0
M  V30 10466 C 1003.86 -1.83234 -2.9503 0
M  V30 10467 C 1002.81 -2.98488 -3.06739 0
M  V30 10468 C 1002.14 -2.93818 -4.46738 0
M  V30 10469 C 1003.44 -4.38869 -2.83181 0
M  V30 10470 H 1005.13 -2.65562 -1.38265 0
M  V30 10471 H 1002.68 -1.27792 -0.663722 0
M  V30 10472 H 1004.63 -1.97491 -3.72257 0
M  V30 10473 H 1003.35 -0.873558 -3.14701 0
M  V30 10474 H 1002.01 -2.83895 -2.31946 0
M  V30 10475 H 1001.66 -1.95769 -4.63339 0
M  V30 10476 H 1001.36 -3.71197 -4.55507 0
M  V30 10477 H 1002.88 -3.10135 -5.25974 0
M  V30 10478 H 1004.3 -4.53945 -3.50153 0
M  V30 10479 H 1002.69 -5.17762 -3.03386 0
M  V30 10480 H 1003.76 -4.50663 -1.78972 0
M  V30 10481 N 1005.11 0.71652 -1.4037 0
M  V30 10482 C 1006.06 1.85194 -1.40734 0
M  V30 10483 C 1007.05 1.66934 -0.287969 0
M  V30 10484 O 1008.26 1.74051 -0.458957 0
M  V30 10485 H 1004.63 0.609922 -0.439885 0
M  V30 10486 H 1006.6 1.82003 -2.36468 0
M  V30 10487 C 1005.35 3.23048 -1.28589 0
M  V30 10488 H 1004.67 3.37704 -2.13999 0
M  V30 10489 H 1006.11 4.02633 -1.32902 0
M  V30 10490 C 1004.57 3.369 0.00396512 0
M  V30 10491 O 1005.1 3.89881 0.967243 0
M  V30 10492 N 1003.31 2.90508 0.0731565 0
M  V30 10493 H 1002.86 2.4758 -0.711454 0
M  V30 10494 H 1002.81 3.00155 0.935652 0
M  V30 10495 N 1006.59 1.25851 0.948643 0
M  V30 10496 C 1007.5 1.08516 2.07994 0
M  V30 10497 C 1008.51 0.0206696 1.73988 0
M  V30 10498 O 1009.69 0.222854 2.00163 0
M  V30 10499 C 1006.75 0.712145 3.39307 0
M  V30 10500 C 1005.81 1.85523 3.87143 0
M  V30 10501 C 1005.05 1.49992 5.1219 0
M  V30 10502 O 1005.27 0.398268 5.69008 0
M  V30 10503 O 1004.2 2.33215 5.54882 0
M  V30 10504 H 1008.03 2.03405 2.25522 0
M  V30 10505 H 1005.62 1.04844 1.06433 0
M  V30 10506 H 1007.5 0.516512 4.18223 0
M  V30 10507 H 1006.17 -0.207416 3.23035 0
M  V30 10508 H 1005.08 2.10578 3.09205 0
M  V30 10509 H 1006.41 2.75425 4.07924 0
M  V30 10510 N 1008.06 -1.15214 1.07534 0
M  V30 10511 C 1009.01 -2.22078 0.69168 0
M  V30 10512 C 1010.01 -1.66751 -0.298382 0
M  V30 10513 O 1011.21 -1.7927 -0.161897 0
M  V30 10514 H 1007.59 -0.723347 0.205604 0
M  V30 10515 H 1009.56 -2.51716 1.60256 0
M  V30 10516 C 1008.31 -3.47534 0.107546 0
M  V30 10517 H 1007.63 -3.90429 0.860522 0
M  V30 10518 H 1009.07 -4.23821 -0.123215 0
M  V30 10519 C 1007.53 -3.16583 -1.15226 0
M  V30 10520 O 1008.06 -3.33551 -2.23845 0
M  V30 10521 N 1006.27 -2.70611 -1.05915 0
M  V30 10522 H 1005.81 -2.57004 -0.175198 0
M  V30 10523 H 1005.77 -2.50277 -1.90287 0
M  V30 10524 N 1009.54 -0.859717 -1.32086 0
M  V30 10525 C 1010.48 -0.252764 -2.26796 0
M  V30 10526 C 1011.45 0.612178 -1.50636 0
M  V30 10527 O 1012.64 0.567865 -1.79743 0
M  V30 10528 C 1009.76 0.643017 -3.3254 0
M  V30 10529 C 1008.81 -0.149211 -4.26239 0
M  V30 10530 S 1009.64 -1.52097 -5.13446 0
M  V30 10531 C 1010.8 -0.631035 -6.22711 0
M  V30 10532 H 1011.03 -1.05563 -2.77928 0
M  V30 10533 H 1008.57 -0.657639 -1.39694 0
M  V30 10534 H 1010.52 1.15418 -3.9394 0
M  V30 10535 H 1009.18 1.41974 -2.80183 0
M  V30 10536 H 1008.38 0.53328 -5.01171 0
M  V30 10537 H 1007.98 -0.592128 -3.69283 0
M  V30 10538 H 1010.27 0.162638 -6.77305 0
M  V30 10539 H 1011.21 -1.35116 -6.95089 0
M  V30 10540 H 1011.62 -0.203131 -5.64134 0
M  V30 10541 N 1011.02 1.44971 -0.618145 0
M  V30 10542 C 1012.25 2.07039 -0.122395 0
M  V30 10543 C 1012.67 1.45793 1.18853 0
M  V30 10544 O 1012.03 0.55453 1.72611 0
M  V30 10545 C 1012.08 3.60599 -0.0073864 0
M  V30 10546 O 1011.18 3.99069 1.04007 0
M  V30 10547 H 1010.52 0.6593 -0.0788615 0
M  V30 10548 H 1013.05 1.86055 -0.851147 0
M  V30 10549 H 1013.06 4.07569 0.187417 0
M  V30 10550 H 1011.74 4.04561 -0.964544 0
M  V30 10551 H 1010.31 3.63753 0.820879 0
M  V30 10552 N 1012.5 0.357919 1.53482 0
M  V30 10553 C 1013.74 -0.23451 2.0144 0
M  V30 10554 C 1014.08 -1.49044 1.24497 0
M  V30 10555 O 1013.35 -1.91566 0.336535 0
M  V30 10556 C 1013.64 -0.534193 3.56116 0
M  V30 10557 C 1013.49 0.734834 4.43757 0
M  V30 10558 C 1014.81 -1.33793 4.1927 0
M  V30 10559 H 1011.93 -0.0837595 0.732225 0
M  V30 10560 H 1014.57 0.481297 1.83803 0
M  V30 10561 H 1012.72 -1.144 3.71275 0
M  V30 10562 H 1014.39 1.37251 4.40409 0
M  V30 10563 H 1012.63 1.35678 4.12036 0
M  V30 10564 H 1013.3 0.48021 5.49907 0
M  V30 10565 H 1015.78 -0.822158 4.07897 0
M  V30 10566 H 1014.66 -1.51636 5.27539 0
M  V30 10567 H 1014.92 -2.34423 3.74831 0
M  V30 10568 N 1013.98 -1.5736 0.0868897 0
M  V30 10569 C 1015.22 -1.95933 -0.582212 0
M  V30 10570 C 1015.58 -0.967238 -1.65857 0
M  V30 10571 O 1016.78 -1.24116 -2.3843 0
M  V30 10572 C 1015.05 -3.39049 -1.1305 0
M  V30 10573 S 1016.61 -3.99612 -1.81262 0
M  V30 10574 H 1013.43 -0.685082 -0.190221 0
M  V30 10575 H 1016.03 -1.94808 0.164341 0
M  V30 10576 H 1014.74 -4.09026 -0.335492 0
M  V30 10577 H 1014.27 -3.43752 -1.91307 0
M  V30 10578 H 1016.28 -3.87747 -3.09624 0
M  V30 10579 N 1015.45 0.186762 -1.56489 0
M  V30 10580 C 1016.7 0.907194 -1.81378 0
M  V30 10581 C 1017.03 1.82558 -0.662283 0
M  V30 10582 O 1016.31 1.91564 0.336699 0
M  V30 10583 C 1016.59 1.71624 -3.16571 0
M  V30 10584 C 1016.44 0.822009 -4.42225 0
M  V30 10585 C 1017.76 2.68713 -3.48542 0
M  V30 10586 H 1014.88 0.328366 -0.659806 0
M  V30 10587 H 1017.52 0.174142 -1.892 0
M  V30 10588 H 1015.67 2.34119 -3.10033 0
M  V30 10589 H 1017.35 0.211122 -4.60817 0
M  V30 10590 H 1015.59 0.129178 -4.33608 0
M  V30 10591 H 1016.26 1.42326 -5.33336 0
M  V30 10592 H 1018.74 2.16348 -3.55433 0
M  V30 10593 H 1017.61 3.22397 -4.44242 0
M  V30 10594 H 1017.87 3.48165 -2.72459 0
M  V30 10595 N 1016.93 1.50896 0.454776 0
M  V30 10596 C 1017.9 1.70377 1.53312 0
M  V30 10597 C 1018.9 0.57408 1.50203 0
M  V30 10598 O 1020.09 0.841374 1.52534 0
M  V30 10599 C 1017.22 1.74411 2.92905 0
M  V30 10600 H 1018.41 2.66599 1.37349 0
M  V30 10601 H 1015.96 1.40622 0.68228 0
M  V30 10602 H 1016.7 0.799408 3.14293 0
M  V30 10603 H 1016.48 2.56496 2.96568 0
M  V30 10604 H 1017.97 1.91382 3.71164 0
M  V30 10605 N 1018.41 -0.709066 1.40748 0
M  V30 10606 C 1019.69 -1.4626 1.29874 0
M  V30 10607 C 1020.07 -2.10949 -0.0799322 0
M  V30 10608 O 1019.42 -2.00651 -1.09323 0
M  V30 10609 C 1019.63 -2.49302 2.44232 0
M  V30 10610 C 1020.97 -3.14945 2.84771 0
M  V30 10611 O 1022 -2.59623 2.43873 0
M  V30 10612 O 1020.86 -4.15111 3.5545 0
M  V30 10613 H 1017.95 -0.650716 0.51039 0
M  V30 10614 H 1020.5 -0.740687 1.52682 0
M  V30 10615 H 1019.27 -2.00063 3.36289 0
M  V30 10616 H 1018.89 -3.29021 2.23229 0
M  V30 10617 N 1019.89 -1.26353 -0.941956 0
M  V30 10618 C 1021.14 -1.11851 -1.68806 0
M  V30 10619 C 1021.46 0.33829 -1.91535 0
M  V30 10620 O 1020.72 1.26495 -1.49324 0
M  V30 10621 C 1021.02 -1.83195 -3.06879 0
M  V30 10622 C 1020.68 -3.33093 -3.03908 0
M  V30 10623 C 1019.35 -3.73982 -3.02805 0
M  V30 10624 C 1021.7 -4.28803 -2.96273 0
M  V30 10625 C 1019.03 -5.08971 -2.91832 0
M  V30 10626 C 1021.38 -5.6383 -2.86842 0
M  V30 10627 C 1020.04 -6.04032 -2.84081 0
M  V30 10628 H 1019.31 -0.409293 -0.617706 0
M  V30 10629 H 1021.96 -1.56785 -1.09957 0
M  V30 10630 H 1020.26 -1.30728 -3.69347 0
M  V30 10631 H 1021.96 -1.69416 -3.63455 0
M  V30 10632 H 1018.55 -3.00566 -3.05546 0
M  V30 10633 H 1022.74 -3.98195 -2.96234 0
M  V30 10634 H 1017.99 -5.39282 -2.88072 0
M  V30 10635 H 1022.17 -6.37676 -2.79898 0
M  V30 10636 H 1019.79 -7.08586 -2.75335 0
M  V30 10637 N 1021.37 1.14642 -1.08144 0
M  V30 10638 C 1022.62 1.8525 -0.807885 0
M  V30 10639 C 1022.94 1.83194 0.668213 0
M  V30 10640 O 1022.21 1.27848 1.48431 0
M  V30 10641 H 1020.79 0.685909 -0.295868 0
M  V30 10642 H 1023.45 1.38935 -1.36686 0
M  V30 10643 H 1022.54 2.90155 -1.14964 0
M  V30 10644 N 1022.85 0.866709 1.31628 0
M  V30 10645 C 1023.78 0.335762 2.31073 0
M  V30 10646 C 1024.76 -0.571597 1.60209 0
M  V30 10647 O 1025.94 -0.489306 1.87935 0
M  V30 10648 C 1023.07 -0.466416 3.44154 0
M  V30 10649 C 1022.03 0.347561 4.26586 0
M  V30 10650 C 1021.35 -0.5801 5.31544 0
M  V30 10651 C 1022.65 1.57986 4.97833 0
M  V30 10652 H 1024.35 1.16673 2.75731 0
M  V30 10653 H 1021.89 0.56248 1.3256 0
M  V30 10654 H 1023.84 -0.84836 4.12772 0
M  V30 10655 H 1022.57 -1.33086 2.98254 0
M  V30 10656 H 1021.23 0.71141 3.59631 0
M  V30 10657 H 1020.88 -1.44174 4.81895 0
M  V30 10658 H 1020.58 -0.0393965 5.87587 0
M  V30 10659 H 1022.1 -0.958958 6.03023 0
M  V30 10660 H 1023.51 1.26954 5.59067 0
M  V30 10661 H 1021.91 2.05939 5.63657 0
M  V30 10662 H 1022.98 2.3345 4.25005 0
M  V30 10663 N 1024.32 -1.44642 0.625825 0
M  V30 10664 C 1025.55 -2.06971 0.133373 0
M  V30 10665 C 1025.97 -1.46421 -1.18078 0
M  V30 10666 O 1025.33 -0.563676 -1.72315 0
M  V30 10667 C 1025.38 -3.6059 0.0265097 0
M  V30 10668 O 1024.48 -3.99615 -1.01889 0
M  V30 10669 H 1023.82 -0.658873 0.0823568 0
M  V30 10670 H 1026.35 -1.85601 0.861002 0
M  V30 10671 H 1026.36 -4.07663 -0.1658 0
M  V30 10672 H 1025.04 -4.04043 0.985986 0
M  V30 10673 H 1023.62 -3.64183 -0.801577 0
M  V30 10674 N 1025.8 -0.366053 -1.5329 0
M  V30 10675 C 1026.75 0.480205 -2.25749 0
M  V30 10676 C 1027.72 1.07713 -1.2644 0
M  V30 10677 O 1028.9 1.10953 -1.55222 0
M  V30 10678 C 1026.04 1.61374 -3.05045 0
M  V30 10679 C 1025.16 1.04194 -4.19246 0
M  V30 10680 C 1024.29 2.14462 -4.85983 0
M  V30 10681 C 1023.33 1.5475 -5.92215 0
M  V30 10682 N 1022.47 2.58852 -6.52641 0
M  V30 10683 H 1027.31 -0.144199 -2.97651 0
M  V30 10684 H 1024.84 -0.0829321 -1.46866 0
M  V30 10685 H 1026.8 2.28144 -3.49294 0
M  V30 10686 H 1025.43 2.2088 -2.35397 0
M  V30 10687 H 1024.48 0.264514 -3.79479 0
M  V30 10688 H 1025.8 0.565379 -4.95585 0
M  V30 10689 H 1024.95 2.89051 -5.33418 0
M  V30 10690 H 1023.69 2.6547 -4.09117 0
M  V30 10691 H 1022.69 0.786759 -5.44142 0
M  V30 10692 H 1023.92 1.04566 -6.71001 0
M  V30 10693 H 1021.87 3.09073 -5.78627 0
M  V30 10694 H 1021.78 2.15884 -7.24521 0
M  V30 10695 H 1023.05 3.33142 -7.04724 0
M  V30 10696 N 1027.28 1.57312 -0.0952337 0
M  V30 10697 C 1028.23 2.14032 0.863657 0
M  V30 10698 C 1029.2 1.0589 1.27971 0
M  V30 10699 O 1030.38 1.33678 1.36143 0
M  V30 10700 C 1027.52 2.72513 2.11733 0
M  V30 10701 C 1026.63 3.94887 1.7518 0
M  V30 10702 C 1025.77 4.41533 2.95334 0
M  V30 10703 C 1024.81 5.56496 2.54908 0
M  V30 10704 N 1023.95 5.97993 3.67897 0
M  V30 10705 H 1028.79 2.95655 0.373115 0
M  V30 10706 H 1026.32 1.46085 0.172497 0
M  V30 10707 H 1028.28 3.04539 2.85153 0
M  V30 10708 H 1026.91 1.93618 2.58287 0
M  V30 10709 H 1025.96 3.69175 0.917279 0
M  V30 10710 H 1027.27 4.78322 1.41455 0
M  V30 10711 H 1026.43 4.75343 3.77007 0
M  V30 10712 H 1025.17 3.56999 3.3227 0
M  V30 10713 H 1024.17 5.22314 1.71662 0
M  V30 10714 H 1025.4 6.42779 2.19117 0
M  V30 10715 H 1023.34 5.16405 4.04551 0
M  V30 10716 H 1023.26 6.76225 3.38018 0
M  V30 10717 H 1024.53 6.36434 4.5008 0
M  V30 10718 N 1028.76 -0.17846 1.56586 0
M  V30 10719 C 1030.01 -0.894502 1.8078 0
M  V30 10720 C 1030.32 -1.8372 0.67129 0
M  V30 10721 O 1031.53 -2.59509 0.797971 0
M  V30 10722 C 1029.98 -1.64109 3.20306 0
M  V30 10723 C 1029.59 -0.742387 4.41806 0
M  V30 10724 C 1031.33 -2.34578 3.53798 0
M  V30 10725 C 1029.24 -1.4888 5.72354 0
M  V30 10726 H 1028.17 -0.33776 0.674117 0
M  V30 10727 H 1030.82 -0.14752 1.82906 0
M  V30 10728 H 1029.2 -2.43257 3.12477 0
M  V30 10729 H 1030.38 0.011615 4.60799 0
M  V30 10730 H 1028.69 -0.147705 4.16138 0
M  V30 10731 H 1031.29 -2.91004 4.48577 0
M  V30 10732 H 1031.63 -3.09572 2.78336 0
M  V30 10733 H 1032.17 -1.62381 3.63149 0
M  V30 10734 H 1028.9 -0.781325 6.50827 0
M  V30 10735 H 1028.42 -2.21631 5.57351 0
M  V30 10736 H 1030.1 -2.03819 6.14058 0
M  V30 10737 N 1030.24 -1.51135 -0.446768 0
M  V30 10738 C 1031.47 -1.66887 -1.21788 0
M  V30 10739 C 1031.87 -0.361729 -1.8571 0
M  V30 10740 O 1031.22 0.668784 -1.71093 0
M  V30 10741 C 1031.28 -2.72062 -2.34994 0
M  V30 10742 C 1030.94 -4.14935 -1.91516 0
M  V30 10743 C 1031.94 -5.00021 -1.42389 0
M  V30 10744 C 1029.62 -4.60985 -1.99495 0
M  V30 10745 C 1031.62 -6.29216 -1.01816 0
M  V30 10746 C 1029.31 -5.90179 -1.58532 0
M  V30 10747 C 1030.3 -6.74121 -1.09774 0
M  V30 10748 O 1029.99 -8.009 -0.69389 0
M  V30 10749 H 1029.72 -0.563431 -0.373525 0
M  V30 10750 H 1032.28 -1.98261 -0.536818 0
M  V30 10751 H 1030.51 -2.35983 -3.06348 0
M  V30 10752 H 1032.2 -2.76788 -2.96889 0
M  V30 10753 H 1032.96 -4.6565 -1.35627 0
M  V30 10754 H 1028.84 -3.95777 -2.36393 0
M  V30 10755 H 1032.39 -6.94687 -0.636879 0
M  V30 10756 H 1028.28 -6.24066 -1.64962 0
M  V30 10757 H 1029.05 -8.14376 -0.820582 0
M  V30 10758 N 1031.71 0.701592 -1.41122 0
M  V30 10759 C 1032.66 1.83691 -1.4269 0
M  V30 10760 C 1033.66 1.6662 -0.305658 0
M  V30 10761 O 1034.86 1.73554 -0.477392 0
M  V30 10762 H 1031.24 0.605222 -0.44633 0
M  V30 10763 H 1033.21 1.79485 -2.38386 0
M  V30 10764 C 1031.96 3.21666 -1.32008 0
M  V30 10765 H 1031.28 3.35416 -2.17569 0
M  V30 10766 H 1032.72 4.012 -1.37165 0
M  V30 10767 C 1031.18 3.36885 -0.0317678 0
M  V30 10768 O 1031.71 3.90885 0.925836 0
M  V30 10769 N 1029.91 2.90569 0.0423401 0
M  V30 10770 H 1029.46 2.46812 -0.737673 0
M  V30 10771 H 1029.42 3.0113 0.903764 0
M  V30 10772 N 1033.19 1.2685 0.935242 0
M  V30 10773 C 1034.44 1.12522 1.67878 0
M  V30 10774 C 1034.76 -0.330894 1.92172 0
M  V30 10775 O 1034.03 -1.23259 1.52263 0
M  V30 10776 H 1032.61 0.413418 0.622169 0
M  V30 10777 H 1035.27 1.59267 1.12339 0
M  V30 10778 H 1034.37 1.64853 2.65009 0
M  V30 10779 N 1034.67 -1.14067 1.0875 0
M  V30 10780 C 1035.95 -1.81389 0.73195 0
M  V30 10781 C 1036.33 -1.96005 -0.78391 0
M  V30 10782 O 1035.68 -1.52267 -1.70373 0
M  V30 10783 C 1035.89 -3.16858 1.46294 0
M  V30 10784 C 1037.23 -3.92305 1.62426 0
M  V30 10785 O 1038.26 -3.26459 1.42488 0
M  V30 10786 O 1037.12 -5.10393 1.9535 0
M  V30 10787 H 1034.21 -0.784354 0.262141 0
M  V30 10788 H 1036.76 -1.21054 1.18929 0
M  V30 10789 H 1035.53 -3.01404 2.49542 0
M  V30 10790 H 1035.15 -3.84889 0.997318 0
M  V30 10791 N 1036.15 -0.873678 -1.31166 0
M  V30 10792 C 1037.38 -0.500317 -2.0045 0
M  V30 10793 C 1037.79 0.912716 -1.65729 0
M  V30 10794 O 1037.13 1.61001 -0.884563 0
M  V30 10795 C 1037.19 -0.58197 -3.54758 0
M  V30 10796 C 1036.86 -1.95728 -4.12964 0
M  V30 10797 C 1037.85 -2.92526 -4.29796 0
M  V30 10798 C 1035.54 -2.2596 -4.48606 0
M  V30 10799 C 1037.53 -4.17697 -4.81464 0
M  V30 10800 C 1035.22 -3.5138 -4.99976 0
M  V30 10801 C 1036.22 -4.47064 -5.16356 0
M  V30 10802 O 1035.9 -5.70259 -5.66621 0
M  V30 10803 H 1035.64 -0.193044 -0.64785 0
M  V30 10804 H 1038.19 -1.17768 -1.68285 0
M  V30 10805 H 1036.42 0.152326 -3.864 0
M  V30 10806 H 1038.11 -0.221506 -4.05295 0
M  V30 10807 H 1038.88 -2.70479 -4.02574 0
M  V30 10808 H 1034.75 -1.52258 -4.3513 0
M  V30 10809 H 1038.3 -4.92389 -4.94165 0
M  V30 10810 H 1034.2 -3.73269 -5.26631 0
M  V30 10811 H 1034.96 -5.72483 -5.84983 0
M  V30 10812 N 1037.63 1.44308 -0.633487 0
M  V30 10813 C 1038.86 2.06085 -0.145852 0
M  V30 10814 C 1039.26 1.47432 1.18577 0
M  V30 10815 O 1038.61 0.592575 1.7388 0
M  V30 10816 C 1038.67 3.59477 0.0407848 0
M  V30 10817 C 1038.33 4.40607 -1.21304 0
M  V30 10818 C 1039.33 4.73937 -2.13728 0
M  V30 10819 C 1037.02 4.80943 -1.44911 0
M  V30 10820 C 1039.01 5.46489 -3.28068 0
M  V30 10821 C 1036.7 5.53243 -2.59548 0
M  V30 10822 C 1037.69 5.85936 -3.50953 0
M  V30 10823 O 1037.38 6.56764 -4.6359 0
M  V30 10824 H 1037.11 0.671484 -0.0780085 0
M  V30 10825 H 1039.67 1.86128 -0.868658 0
M  V30 10826 H 1037.9 3.77933 0.818761 0
M  V30 10827 H 1039.59 4.03013 0.483273 0
M  V30 10828 H 1040.35 4.43311 -1.96725 0
M  V30 10829 H 1036.23 4.54915 -0.746537 0
M  V30 10830 H 1039.78 5.71924 -3.99435 0
M  V30 10831 H 1035.67 5.83285 -2.76493 0
M  V30 10832 H 1036.44 6.75234 -4.62602 0
M  V30 10833 N 1039.1 0.374177 1.53094 0
M  V30 10834 C 1040.52 0.0234783 1.59583 0
M  V30 10835 C 1040.72 -1.45984 1.38892 0
M  V30 10836 O 1039.78 -2.22251 1.19836 0
M  V30 10837 C 1041.09 0.487117 2.96728 0
M  V30 10838 C 1042.64 0.442073 3.09862 0
M  V30 10839 C 1043.11 0.881659 4.49434 0
M  V30 10840 N 1044.6 0.837062 4.55574 0
M  V30 10841 C 1045.34 1.14878 5.61774 0
M  V30 10842 N 1044.83 1.53022 6.75689 0
M  V30 10843 N 1046.63 1.07102 5.51802 0
M  V30 10844 H 1038.78 1.34003 1.64794 0
M  V30 10845 H 1041.04 0.548281 0.773364 0
M  V30 10846 H 1040.75 1.52252 3.17037 0
M  V30 10847 H 1040.62 -0.121772 3.77003 0
M  V30 10848 H 1043.01 -0.584216 2.89259 0
M  V30 10849 H 1043.09 1.08657 2.31576 0
M  V30 10850 H 1042.73 1.90611 4.70776 0
M  V30 10851 H 1042.66 0.214326 5.26164 0
M  V30 10852 H 1045.15 0.556173 3.73785 0
M  V30 10853 H 1045.47 1.75211 7.52676 0
M  V30 10854 H 1043.81 1.56895 6.77059 0
M  V30 10855 H 1047 0.772149 4.61688 0
M  V30 10856 H 1047.18 1.31728 6.3447 0
M  V30 10857 N 1040.58 -1.57259 0.103575 0
M  V30 10858 C 1041.51 -2.1153 -0.882472 0
M  V30 10859 C 1042.53 -1.05446 -1.24036 0
M  V30 10860 O 1043.72 -1.32867 -1.192 0
M  V30 10861 C 1040.82 -2.58717 -2.18903 0
M  V30 10862 C 1039.99 -3.8873 -2.00519 0
M  V30 10863 C 1039.05 -4.21675 -3.14764 0
M  V30 10864 O 1038.07 -4.90755 -2.88355 0
M  V30 10865 N 1039.28 -3.77757 -4.40772 0
M  V30 10866 H 1042.04 -2.96758 -0.418901 0
M  V30 10867 H 1039.6 -1.61696 -0.0812921 0
M  V30 10868 H 1041.59 -2.77797 -2.94297 0
M  V30 10869 H 1040.16 -1.78454 -2.56657 0
M  V30 10870 H 1039.38 -3.78714 -1.09406 0
M  V30 10871 H 1040.67 -4.73771 -1.85522 0
M  V30 10872 H 1040.07 -3.22011 -4.65108 0
M  V30 10873 H 1038.63 -4.01975 -5.13088 0
M  V30 10874 N 1042.06 0.170153 -1.56679 0
M  V30 10875 C 1043.31 0.884841 -1.817 0
M  V30 10876 C 1043.63 1.82731 -0.680763 0
M  V30 10877 O 1042.9 1.936 0.299294 0
M  V30 10878 H 1041.48 0.329738 -0.670285 0
M  V30 10879 H 1044.14 0.169691 -1.9416 0
M  V30 10880 H 1043.24 1.46104 -2.7579 0
M  V30 10881 N 1043.54 1.5137 0.438746 0
M  V30 10882 C 1044.95 1.39514 0.775116 0
M  V30 10883 C 1045.15 0.47638 1.95788 0
M  V30 10884 O 1044.21 -0.0689832 2.52406 0
M  V30 10885 C 1045.52 2.81517 1.05681 0
M  V30 10886 C 1047.07 2.90658 1.16133 0
M  V30 10887 C 1047.55 4.33566 1.47597 0
M  V30 10888 N 1049.04 4.36665 1.54524 0
M  V30 10889 C 1049.77 5.4427 1.80438 0
M  V30 10890 N 1049.27 6.62037 2.04154 0
M  V30 10891 N 1051.06 5.31749 1.82208 0
M  V30 10892 H 1043.21 2.09657 -0.340237 0
M  V30 10893 H 1045.48 0.943736 -0.0898115 0
M  V30 10894 H 1045.18 3.50734 0.260441 0
M  V30 10895 H 1045.06 3.20757 1.98481 0
M  V30 10896 H 1047.44 2.2164 1.94833 0
M  V30 10897 H 1047.52 2.54917 0.212376 0
M  V30 10898 H 1047.17 5.03133 0.694251 0
M  V30 10899 H 1047.1 4.66819 2.43696 0
M  V30 10900 H 1049.59 3.51761 1.38105 0
M  V30 10901 H 1049.9 7.39838 2.23293 0
M  V30 10902 H 1048.25 6.65155 2.01479 0
M  V30 10903 H 1051.44 4.3873 1.63198 0
M  V30 10904 H 1051.61 6.15689 2.02067 0
M  V30 10905 N 1045.02 -0.694098 1.41492 0
M  V30 10906 C 1046.27 -1.4498 1.40227 0
M  V30 10907 C 1046.58 -1.95594 0.0151253 0
M  V30 10908 O 1047.78 -2.71234 -0.120146 0
M  V30 10909 C 1046.24 -2.62171 2.46565 0
M  V30 10910 C 1045.85 -2.18337 3.91194 0
M  V30 10911 C 1047.59 -3.39796 2.54439 0
M  V30 10912 C 1045.5 -3.32495 4.89082 0
M  V30 10913 H 1044.43 -0.544584 0.521483 0
M  V30 10914 H 1047.08 -0.75337 1.67322 0
M  V30 10915 H 1045.46 -3.34089 2.12604 0
M  V30 10916 H 1046.64 -1.53698 4.34412 0
M  V30 10917 H 1044.95 -1.53702 3.86994 0
M  V30 10918 H 1047.55 -4.2478 3.24755 0
M  V30 10919 H 1047.89 -3.85082 1.5817 0
M  V30 10920 H 1048.42 -2.74935 2.87499 0
M  V30 10921 H 1045.16 -2.92219 5.86761 0
M  V30 10922 H 1044.68 -3.95978 4.50512 0
M  V30 10923 H 1046.36 -3.98251 5.09907 0
M  V30 10924 N 1046.49 -1.27344 -0.928501 0
M  V30 10925 C 1047.46 -1.10043 -2.01055 0
M  V30 10926 C 1048.46 -0.0446793 -1.60738 0
M  V30 10927 O 1049.65 -0.289202 -1.71783 0
M  V30 10928 C 1046.78 -0.676559 -3.34119 0
M  V30 10929 H 1047.97 -2.06126 -2.17835 0
M  V30 10930 H 1045.53 -1.10121 -1.10919 0
M  V30 10931 H 1046.26 0.285697 -3.23039 0
M  V30 10932 H 1046.05 -1.43903 -3.64739 0
M  V30 10933 H 1047.54 -0.577725 -4.13584 0
M  V30 10934 N 1047.97 1.13488 -1.09353 0
M  V30 10935 C 1048.92 2.18876 -0.732251 0
M  V30 10936 C 1049.89 1.63616 0.286175 0
M  V30 10937 O 1051.07 1.90059 0.167981 0
M  V30 10938 C 1048.21 3.44737 -0.158157 0
M  V30 10939 C 1047.33 4.14104 -1.23053 0
M  V30 10940 C 1046.46 5.27578 -0.619272 0
M  V30 10941 C 1045.5 5.88793 -1.67301 0
M  V30 10942 N 1044.64 6.937 -1.08283 0
M  V30 10943 H 1049.48 2.49128 -1.63522 0
M  V30 10944 H 1047.02 1.22326 -0.816995 0
M  V30 10945 H 1048.97 4.16756 0.192488 0
M  V30 10946 H 1047.6 3.14938 0.708082 0
M  V30 10947 H 1046.66 3.40376 -1.69847 0
M  V30 10948 H 1047.97 4.55683 -2.02865 0
M  V30 10949 H 1047.12 6.0631 -0.217428 0
M  V30 10950 H 1045.86 4.87246 0.210399 0
M  V30 10951 H 1044.87 5.08756 -2.0844 0
M  V30 10952 H 1046.09 6.31197 -2.50533 0
M  V30 10953 H 1044.04 6.55426 -0.274426 0
M  V30 10954 H 1043.95 7.33817 -1.81792 0
M  V30 10955 H 1045.22 7.76286 -0.707167 0
M  V30 10956 N 1049.45 0.880621 1.30701 0
M  V30 10957 C 1050.38 0.288813 2.26365 0
M  V30 10958 C 1051.36 -0.588135 1.51591 0
M  V30 10959 O 1052.55 -0.539197 1.80624 0
M  V30 10960 C 1049.67 -0.590032 3.33521 0
M  V30 10961 C 1048.72 0.217003 4.25948 0
M  V30 10962 S 1049.55 1.60246 5.10961 0
M  V30 10963 C 1050.71 0.730023 6.21628 0
M  V30 10964 H 1050.94 1.09971 2.76213 0
M  V30 10965 H 1048.47 0.67978 1.3863 0
M  V30 10966 H 1050.43 -1.09136 3.95727 0
M  V30 10967 H 1049.09 -1.37498 2.82406 0
M  V30 10968 H 1048.29 -0.453481 5.01956 0
M  V30 10969 H 1047.89 0.650803 3.68294 0
M  V30 10970 H 1050.18 -0.0548644 6.77478 0
M  V30 10971 H 1051.12 1.46157 6.92852 0
M  V30 10972 H 1051.53 0.292854 5.6374 0
M  V30 10973 N 1050.93 -1.4397 0.641131 0
M  V30 10974 C 1052.34 -1.85267 0.230838 0
M  V30 10975 C 1052.69 -1.53659 -1.21998 0
M  V30 10976 O 1051.82 -0.979572 -1.92959 0
M  V30 10977 C 1052.41 -3.36284 0.412171 0
M  V30 10978 C 1050.97 -3.76358 0.0563004 0
M  V30 10979 C 1050.12 -2.67768 0.720809 0
M  V30 10980 H 1053.07 -1.34294 0.845624 0
M  V30 10981 H 1053.09 -3.78924 -0.345936 0
M  V30 10982 H 1052.6 -3.59258 1.46818 0
M  V30 10983 H 1050.7 -3.58997 -0.997582 0
M  V30 10984 H 1050.82 -4.76756 0.473335 0
M  V30 10985 H 1049.18 -2.54227 0.155164 0
M  V30 10986 H 1049.96 -2.93573 1.77961 0
M  V30 10987 N 1052.41 -0.382291 -1.52893 0
M  V30 10988 C 1053.65 0.202433 -2.01787 0
M  V30 10989 C 1053.99 1.47044 -1.26853 0
M  V30 10990 O 1053.26 1.91007 -0.366969 0
M  V30 10991 C 1053.54 0.477471 -3.5692 0
M  V30 10992 C 1053.4 -0.805339 -4.42532 0
M  V30 10993 C 1054.72 1.27106 -4.21346 0
M  V30 10994 H 1051.84 0.0720998 -0.733465 0
M  V30 10995 H 1054.48 -0.510478 -1.83014 0
M  V30 10996 H 1052.63 1.08478 -3.73048 0
M  V30 10997 H 1054.3 -1.4424 -4.3817 0
M  V30 10998 H 1052.54 -1.42216 -4.09826 0
M  V30 10999 H 1053.21 -0.567635 -5.49074 0
M  V30 11000 H 1055.69 0.757161 -4.09153 0
M  V30 11001 H 1054.57 1.43225 -5.29885 0
M  V30 11002 H 1054.83 2.28431 -3.78513 0
M  V30 11003 N 1053.89 1.57202 -0.111913 0
M  V30 11004 C 1054.83 2.14936 0.840908 0
M  V30 11005 C 1055.8 1.07242 1.2684 0
M  V30 11006 O 1056.99 1.35114 1.34718 0
M  V30 11007 C 1054.13 2.74743 2.0883 0
M  V30 11008 C 1053.24 3.96723 1.70982 0
M  V30 11009 C 1052.38 4.4464 2.90634 0
M  V30 11010 C 1051.41 5.59169 2.48992 0
M  V30 11011 N 1050.55 6.01862 3.61534 0
M  V30 11012 H 1055.39 2.96034 0.341735 0
M  V30 11013 H 1052.93 1.4626 0.156993 0
M  V30 11014 H 1054.89 3.07546 2.81907 0
M  V30 11015 H 1053.52 1.96346 2.56218 0
M  V30 11016 H 1052.57 3.70127 0.878072 0
M  V30 11017 H 1053.88 4.79795 1.36373 0
M  V30 11018 H 1053.03 4.79315 3.71944 0
M  V30 11019 H 1051.77 3.60503 3.28464 0
M  V30 11020 H 1050.78 5.24106 1.66113 0
M  V30 11021 H 1052 6.45067 2.12287 0
M  V30 11022 H 1049.95 5.20667 3.99051 0
M  V30 11023 H 1049.87 6.79772 3.30827 0
M  V30 11024 H 1051.13 6.41172 4.43305 0
M  V30 11025 N 1055.36 -0.161842 1.56767 0
M  V30 11026 C 1056.61 -0.873481 1.8369 0
M  V30 11027 C 1056.96 -1.79455 0.693817 0
M  V30 11028 O 1056.26 -1.89089 -0.309181 0
M  V30 11029 C 1056.45 -1.69736 3.14522 0
M  V30 11030 C 1056.28 -0.857568 4.41447 0
M  V30 11031 C 1055.05 -0.528952 5.02524 0
M  V30 11032 C 1057.25 -0.194734 5.13931 0
M  V30 11033 N 1055.23 0.325994 6.13034 0
M  V30 11034 C 1056.6 0.520973 6.17807 0
M  V30 11035 C 1058.66 -0.113874 4.9777 0
M  V30 11036 C 1057.36 1.30988 7.07273 0
M  V30 11037 C 1059.39 0.661731 5.87686 0
M  V30 11038 C 1058.75 1.36577 6.91033 0
M  V30 11039 H 1054.85 -0.297939 0.723019 0
M  V30 11040 H 1057.43 -0.139816 1.94197 0
M  V30 11041 H 1055.6 -2.40238 3.05189 0
M  V30 11042 H 1057.33 -2.35103 3.29407 0
M  V30 11043 H 1054.09 -0.861267 4.65703 0
M  V30 11044 H 1054.51 0.744055 6.72899 0
M  V30 11045 H 1059.15 -0.643832 4.17869 0
M  V30 11046 H 1056.87 1.85115 7.86612 0
M  V30 11047 H 1060.46 0.726092 5.77251 0
M  V30 11048 H 1059.34 1.9563 7.59407 0
M  V30 11049 N 1056.84 -1.516 -0.430713 0
M  V30 11050 C 1058.09 -1.63829 -1.17657 0
M  V30 11051 C 1058.4 -0.363605 -1.92191 0
M  V30 11052 O 1059.61 -0.365358 -2.6903 0
M  V30 11053 C 1058.07 -2.89357 -2.14011 0
M  V30 11054 C 1057.67 -4.23854 -1.45094 0
M  V30 11055 C 1059.42 -3.10944 -2.88988 0
M  V30 11056 C 1057.32 -5.40526 -2.3997 0
M  V30 11057 H 1056.25 -0.610221 -0.442884 0
M  V30 11058 H 1058.91 -1.78073 -0.442984 0
M  V30 11059 H 1057.29 -2.68762 -2.90832 0
M  V30 11060 H 1058.46 -4.54854 -0.737853 0
M  V30 11061 H 1056.78 -4.08197 -0.822429 0
M  V30 11062 H 1059.37 -3.95286 -3.60074 0
M  V30 11063 H 1059.72 -2.24291 -3.50712 0
M  V30 11064 H 1060.25 -3.3191 -2.19272 0
M  V30 11065 H 1056.99 -6.29459 -1.82925 0
M  V30 11066 H 1056.51 -5.13893 -3.09313 0
M  V30 11067 H 1058.19 -5.72741 -3.00959 0
M  V30 11068 N 1058.32 0.686584 -1.41858 0
M  V30 11069 C 1059.28 1.78214 -1.44126 0
M  V30 11070 C 1060.28 1.57366 -0.330541 0
M  V30 11071 O 1061.47 1.63874 -0.590837 0
M  V30 11072 C 1058.6 3.16704 -1.26142 0
M  V30 11073 H 1059.8 1.77594 -2.41661 0
M  V30 11074 H 1057.35 0.895085 -1.28132 0
M  V30 11075 H 1058.09 3.22957 -0.294823 0
M  V30 11076 H 1057.87 3.33238 -2.06627 0
M  V30 11077 H 1059.36 3.96658 -1.30584 0
M  V30 11078 N 1059.8 1.27835 0.921735 0
M  V30 11079 C 1061.05 1.13904 1.6646 0
M  V30 11080 C 1061.36 -0.313379 1.93073 0
M  V30 11081 O 1062.57 -0.573687 2.6537 0
M  V30 11082 C 1061.02 1.99064 2.99836 0
M  V30 11083 C 1060.63 3.48998 2.80899 0
M  V30 11084 C 1062.37 1.93797 3.77681 0
M  V30 11085 C 1060.28 4.26337 4.09867 0
M  V30 11086 H 1059.21 0.422681 0.624385 0
M  V30 11087 H 1061.86 1.52303 1.02352 0
M  V30 11088 H 1060.24 1.53514 3.65034 0
M  V30 11089 H 1061.42 4.02452 2.24431 0
M  V30 11090 H 1059.73 3.55707 2.16476 0
M  V30 11091 H 1062.33 2.48852 4.73262 0
M  V30 11092 H 1062.67 0.912928 4.06167 0
M  V30 11093 H 1063.21 2.37275 3.19289 0
M  V30 11094 H 1059.94 5.2939 3.86557 0
M  V30 11095 H 1059.46 3.77659 4.65976 0
M  V30 11096 H 1061.14 4.3583 4.78185 0
M  V30 11097 N 1061.28 -1.12907 1.09954 0
M  V30 11098 C 1062.19 -2.22082 0.756095 0
M  V30 11099 C 1063.2 -1.72277 -0.244272 0
M  V30 11100 O 1064.38 -2.01224 -0.0842637 0
M  V30 11101 C 1061.44 -3.46192 0.187642 0
M  V30 11102 C 1060.5 -4.10861 1.24465 0
M  V30 11103 C 1059.74 -5.29047 0.703227 0
M  V30 11104 O 1059.96 -5.68443 -0.472043 0
M  V30 11105 O 1058.89 -5.83904 1.46082 0
M  V30 11106 H 1062.72 -2.53842 1.66727 0
M  V30 11107 H 1060.3 -1.21145 0.874316 0
M  V30 11108 H 1062.19 -4.21212 -0.125774 0
M  V30 11109 H 1060.86 -3.16119 -0.696459 0
M  V30 11110 H 1059.77 -3.37643 1.61085 0
M  V30 11111 H 1061.1 -4.45078 2.10159 0
M  V30 11112 N 1062.75 -0.88754 -1.30232 0
M  V30 11113 C 1063.98 -0.521562 -2.00735 0
M  V30 11114 C 1064.4 0.883247 -1.66073 0
M  V30 11115 O 1063.76 1.58581 -0.878731 0
M  V30 11116 C 1063.81 -0.706521 -3.53611 0
M  V30 11117 O 1062.91 0.246447 -4.11663 0
M  V30 11118 H 1062.25 -0.205216 -0.631492 0
M  V30 11119 H 1064.78 -1.19579 -1.66018 0
M  V30 11120 H 1064.79 -0.606501 -4.03467 0
M  V30 11121 H 1063.47 -1.73076 -3.78177 0
M  V30 11122 H 1062.05 0.0999062 -3.72766 0
M  V30 11123 N 1064.23 1.43628 -0.648757 0
M  V30 11124 C 1065.16 2.33478 0.0320785 0
M  V30 11125 C 1066.14 1.49217 0.816605 0
M  V30 11126 O 1067.33 1.77892 0.778974 0
M  V30 11127 C 1064.46 3.32525 1.00222 0
M  V30 11128 C 1063.41 4.2674 0.328119 0
M  V30 11129 C 1062.74 5.15791 1.4094 0
M  V30 11130 C 1064.04 5.16493 -0.776701 0
M  V30 11131 H 1065.73 2.90657 -0.718257 0
M  V30 11132 H 1063.28 1.3976 -0.346852 0
M  V30 11133 H 1065.23 3.94277 1.4874 0
M  V30 11134 H 1063.96 2.73593 1.78366 0
M  V30 11135 H 1062.61 3.66346 -0.136569 0
M  V30 11136 H 1062.26 4.53201 2.18216 0
M  V30 11137 H 1061.96 5.79645 0.963631 0
M  V30 11138 H 1063.49 5.80416 1.89603 0
M  V30 11139 H 1064.9 5.7208 -0.373878 0
M  V30 11140 H 1063.3 5.89043 -1.14667 0
M  V30 11141 H 1064.37 4.56448 -1.63654 0
M  V30 11142 N 1065.71 0.390394 1.52688 0
M  V30 11143 C 1066.67 -0.432149 2.25089 0
M  V30 11144 C 1067.67 -0.989296 1.26766 0
M  V30 11145 O 1068.86 -0.871126 1.50854 0
M  V30 11146 C 1066 -1.60642 3.00678 0
M  V30 11147 H 1067.19 0.201734 2.99221 0
M  V30 11148 H 1064.74 0.142531 1.55649 0
M  V30 11149 H 1065.48 -2.2777 2.3085 0
M  V30 11150 H 1065.26 -1.21361 3.72846 0
M  V30 11151 H 1066.75 -2.18873 3.55647 0
M  V30 11152 N 1067.19 -1.57141 0.120249 0
M  V30 11153 C 1068.47 -1.8677 -0.581075 0
M  V30 11154 C 1068.85 -1.02163 -1.84732 0
M  V30 11155 O 1068.19 -0.100897 -2.28277 0
M  V30 11156 C 1068.4 -3.37923 -0.872316 0
M  V30 11157 C 1069.75 -4.0655 -1.22483 0
M  V30 11158 O 1070.78 -3.42948 -0.962539 0
M  V30 11159 O 1069.63 -5.18821 -1.71717 0
M  V30 11160 H 1066.73 -0.773219 -0.293362 0
M  V30 11161 H 1069.27 -1.68992 0.154846 0
M  V30 11162 H 1068.05 -3.91292 0.0249416 0
M  V30 11163 H 1067.67 -3.61135 -1.66335 0
M  V30 11164 N 1068.67 0.153526 -1.5685 0
M  V30 11165 C 1070.08 0.505939 -1.51368 0
M  V30 11166 C 1070.28 1.83721 -0.82757 0
M  V30 11167 O 1069.34 2.49385 -0.395364 0
M  V30 11168 C 1070.65 0.522269 -2.9613 0
M  V30 11169 C 1072.2 0.608238 -3.07033 0
M  V30 11170 C 1072.67 0.655292 -4.53288 0
M  V30 11171 N 1074.17 0.717695 -4.57606 0
M  V30 11172 C 1074.9 0.774977 -5.68139 0
M  V30 11173 N 1074.4 0.792003 -6.88258 0
M  V30 11174 N 1076.19 0.81536 -5.56155 0
M  V30 11175 H 1068.34 -0.71919 -1.99853 0
M  V30 11176 H 1070.6 -0.261466 -0.91123 0
M  V30 11177 H 1070.31 -0.387595 -3.49558 0
M  V30 11178 H 1070.18 1.3625 -3.51733 0
M  V30 11179 H 1072.57 1.50852 -2.53629 0
M  V30 11180 H 1072.65 -0.259014 -2.54485 0
M  V30 11181 H 1072.3 -0.240809 -5.07329 0
M  V30 11182 H 1072.23 1.53894 -5.03611 0
M  V30 11183 H 1074.72 0.7121 -3.7113 0
M  V30 11184 H 1075.03 0.837378 -7.6825 0
M  V30 11185 H 1073.37 0.759986 -6.90832 0
M  V30 11186 H 1076.57 0.799183 -4.61227 0
M  V30 11187 H 1076.74 0.856537 -6.42314 0
M  V30 11188 N 1070.14 1.51827 0.422667 0
M  V30 11189 C 1071.39 1.65464 1.17258 0
M  V30 11190 C 1071.72 0.376834 1.90509 0
M  V30 11191 O 1071 -0.624219 1.84211 0
M  V30 11192 C 1071.28 2.86776 2.17788 0
M  V30 11193 C 1071.13 4.24571 1.48523 0
M  V30 11194 C 1072.45 3.03603 3.18611 0
M  V30 11195 H 1069.57 0.602169 0.424925 0
M  V30 11196 H 1072.21 1.84349 0.45996 0
M  V30 11197 H 1070.36 2.70806 2.78561 0
M  V30 11198 H 1072.04 4.5224 0.909739 0
M  V30 11199 H 1070.28 4.26595 0.787354 0
M  V30 11200 H 1070.95 5.05475 2.2181 0
M  V30 11201 H 1073.43 3.18381 2.67904 0
M  V30 11202 H 1072.3 3.90022 3.8623 0
M  V30 11203 H 1072.56 2.16318 3.85563 0
M  V30 11204 N 1071.62 -0.679052 1.4222 0
M  V30 11205 C 1072.85 -1.46534 1.45641 0
M  V30 11206 C 1073.26 -1.89088 0.0649574 0
M  V30 11207 O 1072.6 -1.58436 -0.929712 0
M  V30 11208 C 1072.67 -2.74882 2.3169 0
M  V30 11209 C 1072.33 -2.5443 3.79624 0
M  V30 11210 C 1073.33 -2.19307 4.71382 0
M  V30 11211 C 1071.01 -2.69557 4.23845 0
M  V30 11212 C 1073.01 -1.99571 6.05351 0
M  V30 11213 C 1070.69 -2.49437 5.57875 0
M  V30 11214 C 1071.69 -2.14497 6.48444 0
M  V30 11215 O 1071.38 -1.94567 7.79999 0
M  V30 11216 H 1071.11 -0.457542 0.497626 0
M  V30 11217 H 1073.66 -0.842145 1.87342 0
M  V30 11218 H 1071.89 -3.39669 1.8483 0
M  V30 11219 H 1073.58 -3.3675 2.26615 0
M  V30 11220 H 1074.35 -2.0722 4.38503 0
M  V30 11221 H 1070.23 -2.95733 3.53642 0
M  V30 11222 H 1073.77 -1.72222 6.76007 0
M  V30 11223 H 1069.67 -2.61119 5.90328 0
M  V30 11224 H 1070.44 -2.092 7.91314 0
M  V30 11225 N 1073.1 -1.28322 -0.914942 0
M  V30 11226 C 1074.33 -1.18254 -1.69775 0
M  V30 11227 C 1074.74 0.258978 -1.87015 0
M  V30 11228 O 1074.1 1.17514 -1.3963 0
M  V30 11229 C 1074.15 -1.8753 -3.09054 0
M  V30 11230 O 1073.87 -3.26051 -2.92613 0
M  V30 11231 C 1075.37 -1.83749 -4.03424 0
M  V30 11232 H 1072.59 -0.41055 -0.530744 0
M  V30 11233 H 1075.14 -1.69425 -1.14523 0
M  V30 11234 H 1073.29 -1.40233 -3.61128 0
M  V30 11235 H 1073.71 -3.60729 -3.80756 0
M  V30 11236 H 1075.18 -2.36813 -4.98622 0
M  V30 11237 H 1075.66 -0.809601 -4.31674 0
M  V30 11238 H 1076.26 -2.3072 -3.57279 0
M  V30 11239 N 1074.58 1.12322 -1.10551 0
M  V30 11240 C 1075.8 1.8822 -0.871093 0
M  V30 11241 C 1076.23 1.7916 0.573005 0
M  V30 11242 O 1075.59 1.14738 1.40374 0
M  V30 11243 C 1075.63 3.35349 -1.32565 0
M  V30 11244 O 1074.74 4.09461 -0.49145 0
M  V30 11245 H 1074.08 0.584787 -0.314516 0
M  V30 11246 H 1076.61 1.42039 -1.47262 0
M  V30 11247 H 1076.62 3.86189 -1.31612 0
M  V30 11248 H 1075.29 3.4126 -2.37728 0
M  V30 11249 H 1073.87 3.68575 -0.566294 0
M  V30 11250 N 1076.06 0.894434 1.2976 0
M  V30 11251 C 1077 0.366586 2.2787 0
M  V30 11252 C 1077.97 -0.548425 1.56785 0
M  V30 11253 O 1079.16 -0.474804 1.84798 0
M  V30 11254 C 1076.3 -0.404531 3.42721 0
M  V30 11255 C 1075.41 0.540774 4.28602 0
M  V30 11256 C 1074.55 -0.246875 5.30626 0
M  V30 11257 C 1073.59 0.693294 6.08161 0
M  V30 11258 N 1072.72 -0.059619 7.02075 0
M  V30 11259 H 1077.56 1.20834 2.72402 0
M  V30 11260 H 1075.1 0.607205 1.33983 0
M  V30 11261 H 1077.06 -0.86762 4.08079 0
M  V30 11262 H 1075.69 -1.21078 2.99232 0
M  V30 11263 H 1074.74 1.12237 3.63465 0
M  V30 11264 H 1076.05 1.26065 4.82606 0
M  V30 11265 H 1075.21 -0.771398 6.01776 0
M  V30 11266 H 1073.94 -0.999918 4.77339 0
M  V30 11267 H 1072.95 1.22936 5.35879 0
M  V30 11268 H 1074.17 1.44558 6.63536 0
M  V30 11269 H 1072.12 -0.795026 6.51165 0
M  V30 11270 H 1072.04 0.60045 7.53612 0
M  V30 11271 H 1073.31 -0.564577 7.77453 0
M  V30 11272 N 1077.53 -1.43282 0.656365 0
M  V30 11273 C 1078.76 -2.06641 0.177245 0
M  V30 11274 C 1079.18 -1.48893 -1.14946 0
M  V30 11275 O 1078.54 -0.600099 -1.7108 0
M  V30 11276 C 1078.59 -3.60453 0.10299 0
M  V30 11277 O 1077.69 -4.01687 -0.933895 0
M  V30 11278 H 1077.04 -0.656978 0.096314 0
M  V30 11279 H 1079.57 -1.83733 0.900178 0
M  V30 11280 H 1079.58 -4.07923 -0.079291 0
M  V30 11281 H 1078.25 -4.01861 1.07147 0
M  V30 11282 H 1076.83 -3.65801 -0.724148 0
M  V30 11283 N 1079.01 -0.398486 -1.52479 0
M  V30 11284 C 1080.29 0.238776 -1.94137 0
M  V30 11285 C 1080.67 1.63558 -1.33462 0
M  V30 11286 O 1080.02 2.22821 -0.506272 0
M  V30 11287 C 1080.23 0.255863 -3.48061 0
M  V30 11288 C 1081.58 0.480376 -4.21874 0
M  V30 11289 O 1082.6 0.335679 -3.54615 0
M  V30 11290 O 1081.46 0.764654 -5.41124 0
M  V30 11291 H 1078.55 0.150806 -0.813134 0
M  V30 11292 H 1081.1 -0.453659 -1.63524 0
M  V30 11293 H 1079.87 -0.722171 -3.84578 0
M  V30 11294 H 1079.49 0.99284 -3.85004 0
M  V30 11295 N 1080.49 1.57075 -0.12858 0
M  V30 11296 C 1081.74 1.9581 0.527868 0
M  V30 11297 C 1082.07 1.01253 1.65715 0
M  V30 11298 O 1081.35 0.0514853 1.94432 0
M  V30 11299 C 1081.63 3.44406 1.05151 0
M  V30 11300 C 1081.48 4.49737 -0.0750113 0
M  V30 11301 C 1082.8 3.95069 1.9393 0
M  V30 11302 H 1079.92 0.711978 0.19041 0
M  V30 11303 H 1082.56 1.88879 -0.206081 0
M  V30 11304 H 1080.71 3.50443 1.67697 0
M  V30 11305 H 1082.38 4.55793 -0.710685 0
M  V30 11306 H 1080.63 4.27497 -0.736809 0
M  V30 11307 H 1081.3 5.50996 0.332779 0
M  V30 11308 H 1083.77 3.91395 1.41241 0
M  V30 11309 H 1082.65 4.99542 2.27484 0
M  V30 11310 H 1082.91 3.36329 2.86941 0
M  V30 11311 N 1081.97 -0.145205 1.5693 0
M  V30 11312 C 1083.22 -0.85395 1.84606 0
M  V30 11313 C 1083.57 -1.78709 0.712811 0
M  V30 11314 O 1082.86 -1.89406 -0.289108 0
M  V30 11315 C 1083.06 -1.66391 3.16305 0
M  V30 11316 C 1082.89 -0.810698 4.42332 0
M  V30 11317 C 1081.66 -0.475623 5.03057 0
M  V30 11318 C 1083.85 -0.140213 5.14109 0
M  V30 11319 N 1081.84 0.390996 6.12654 0
M  V30 11320 C 1083.21 0.586471 6.1722 0
M  V30 11321 C 1085.26 -0.0610725 4.97863 0
M  V30 11322 C 1083.97 1.38483 7.05844 0
M  V30 11323 C 1085.99 0.724026 5.86951 0
M  V30 11324 C 1085.35 1.43899 6.89545 0
M  V30 11325 H 1081.45 -0.290253 0.726138 0
M  V30 11326 H 1084.04 -0.119211 1.94335 0
M  V30 11327 H 1082.21 -2.36987 3.0772 0
M  V30 11328 H 1083.94 -2.31596 3.31882 0
M  V30 11329 H 1080.69 -0.811824 4.6659 0
M  V30 11330 H 1081.12 0.815383 6.72072 0
M  V30 11331 H 1085.76 -0.599475 4.18529 0
M  V30 11332 H 1083.48 1.93448 7.84604 0
M  V30 11333 H 1087.06 0.787276 5.76449 0
M  V30 11334 H 1085.94 2.03674 7.57289 0
M  V30 11335 N 1083.45 -1.52049 -0.414609 0
M  V30 11336 C 1084.67 -1.6997 -1.18848 0
M  V30 11337 C 1085.1 -0.406058 -1.83665 0
M  V30 11338 O 1084.46 0.635981 -1.69779 0
M  V30 11339 C 1084.5 -2.8327 -2.23138 0
M  V30 11340 O 1083.61 -2.48457 -3.29155 0
M  V30 11341 H 1082.95 -0.566003 -0.347183 0
M  V30 11342 H 1085.48 -1.98726 -0.486757 0
M  V30 11343 H 1085.49 -3.08022 -2.67557 0
M  V30 11344 H 1084.16 -3.7713 -1.75344 0
M  V30 11345 H 1082.74 -2.34357 -2.90054 0
M  V30 11346 N 1084.93 0.6715 -1.42579 0
M  V30 11347 C 1086.17 1.43154 -1.43224 0
M  V30 11348 C 1086.5 1.94436 -0.0498695 0
M  V30 11349 O 1085.76 1.71521 0.942282 0
M  V30 11350 C 1086.05 2.64256 -2.40632 0
M  V30 11351 C 1085.72 2.31497 -3.86937 0
M  V30 11352 C 1084.38 2.22274 -4.26788 0
M  V30 11353 C 1086.73 2.04957 -4.7921 0
M  V30 11354 C 1084.06 1.84642 -5.56888 0
M  V30 11355 C 1086.41 1.68828 -6.09656 0
M  V30 11356 C 1085.08 1.58118 -6.48502 0
M  V30 11357 H 1084.35 0.523838 -0.524094 0
M  V30 11358 H 1087 0.765363 -1.7554 0
M  V30 11359 H 1085.3 3.35921 -2.01654 0
M  V30 11360 H 1087 3.22443 -2.38394 0
M  V30 11361 H 1083.59 2.39578 -3.55387 0
M  V30 11362 H 1087.77 2.11014 -4.49207 0
M  V30 11363 H 1083.03 1.74921 -5.85843 0
M  V30 11364 H 1087.2 1.47319 -6.8064 0
M  V30 11365 H 1084.83 1.28728 -7.49222 0
M  V30 11366 N 1086.4 1.28806 0.908124 0
M  V30 11367 C 1087.65 1.16058 1.65454 0
M  V30 11368 C 1087.97 -0.290057 1.92831 0
M  V30 11369 O 1087.24 -1.20001 1.54843 0
M  V30 11370 H 1085.82 0.426522 0.61326 0
M  V30 11371 H 1088.48 1.61614 1.08936 0
M  V30 11372 H 1087.58 1.70437 2.61453 0
M  V30 11373 N 1087.88 -1.11734 1.11145 0
M  V30 11374 C 1089.13 -1.83677 0.859684 0
M  V30 11375 C 1089.46 -1.84265 -0.613182 0
M  V30 11376 O 1088.74 -1.29351 -1.45254 0
M  V30 11377 C 1089.02 -3.31003 1.41805 0
M  V30 11378 C 1088.87 -3.38827 2.95831 0
M  V30 11379 C 1090.19 -4.26984 1.06645 0
M  V30 11380 H 1087.31 -0.666879 0.313754 0
M  V30 11381 H 1089.95 -1.31038 1.37583 0
M  V30 11382 H 1088.1 -3.75961 0.979054 0
M  V30 11383 H 1089.77 -3.02451 3.48312 0
M  V30 11384 H 1088.02 -2.79143 3.32056 0
M  V30 11385 H 1088.69 -4.42508 3.29986 0
M  V30 11386 H 1091.16 -3.9019 1.44537 0
M  V30 11387 H 1090.04 -5.2846 1.48394 0
M  V30 11388 H 1090.3 -4.42094 -0.0231866 0
M  V30 11389 N 1089.36 -0.901303 -1.29284 0
M  V30 11390 C 1090.59 -0.543511 -1.99634 0
M  V30 11391 C 1091 0.872154 -1.67448 0
M  V30 11392 O 1090.36 1.57591 -0.920406 0
M  V30 11393 C 1090.41 -0.728148 -3.54091 0
M  V30 11394 O 1090.13 -2.08809 -3.85137 0
M  V30 11395 C 1091.63 -0.375519 -4.41707 0
M  V30 11396 H 1088.85 -0.208405 -0.637815 0
M  V30 11397 H 1091.4 -1.21109 -1.64781 0
M  V30 11398 H 1089.55 -0.107728 -3.8725 0
M  V30 11399 H 1089.97 -2.11863 -4.79807 0
M  V30 11400 H 1091.44 -0.555538 -5.49197 0
M  V30 11401 H 1091.92 0.687532 -4.33785 0
M  V30 11402 H 1092.52 -0.972949 -4.14021 0
M  V30 11403 N 1090.84 1.42931 -0.663954 0
M  V30 11404 C 1091.77 2.28089 0.0710318 0
M  V30 11405 C 1092.75 1.40446 0.819375 0
M  V30 11406 O 1093.93 1.69887 0.816738 0
M  V30 11407 C 1091.06 3.20079 1.10756 0
M  V30 11408 C 1090.11 4.24055 0.456045 0
M  V30 11409 S 1090.94 5.29813 -0.778356 0
M  V30 11410 C 1092.09 6.25371 0.257373 0
M  V30 11411 H 1092.33 2.90078 -0.651315 0
M  V30 11412 H 1089.86 1.47601 -0.453137 0
M  V30 11413 H 1091.82 3.7362 1.70055 0
M  V30 11414 H 1090.48 2.57248 1.80229 0
M  V30 11415 H 1089.67 4.88564 1.23779 0
M  V30 11416 H 1089.27 3.73947 -0.0630832 0
M  V30 11417 H 1091.57 6.68172 1.12037 0
M  V30 11418 H 1092.51 7.0722 -0.352969 0
M  V30 11419 H 1092.92 5.61324 0.597991 0
M  V30 11420 N 1092.32 0.406567 1.52266 0
M  V30 11421 C 1093.56 -0.1627 2.02748 0
M  V30 11422 C 1093.92 -1.43022 1.28695 0
M  V30 11423 O 1093.21 -1.87715 0.383881 0
M  V30 11424 C 1093.4 -0.467124 3.54334 0
M  V30 11425 C 1093.23 0.76934 4.4307 0
M  V30 11426 C 1092 1.29377 4.88456 0
M  V30 11427 C 1094.2 1.64671 4.87225 0
M  V30 11428 N 1092.18 2.48599 5.61313 0
M  V30 11429 C 1093.55 2.68519 5.58836 0
M  V30 11430 C 1095.61 1.66477 4.69244 0
M  V30 11431 C 1094.31 3.74081 6.14374 0
M  V30 11432 C 1096.34 2.70956 5.25677 0
M  V30 11433 C 1095.7 3.73525 5.97209 0
M  V30 11434 H 1091.8 -0.0211706 0.781713 0
M  V30 11435 H 1094.38 0.560338 1.86463 0
M  V30 11436 H 1092.55 -1.15921 3.70698 0
M  V30 11437 H 1094.29 -1.02505 3.91503 0
M  V30 11438 H 1091.04 0.85219 4.6587 0
M  V30 11439 H 1091.46 3.0897 6.02384 0
M  V30 11440 H 1096.11 0.88519 4.1343 0
M  V30 11441 H 1093.82 4.52896 6.69261 0
M  V30 11442 H 1097.41 2.73258 5.13635 0
M  V30 11443 H 1096.29 4.53043 6.40095 0
M  V30 11444 N 1093.79 -1.57004 0.136909 0
M  V30 11445 C 1094.7 -2.19807 -0.819887 0
M  V30 11446 C 1095.72 -1.17939 -1.27932 0
M  V30 11447 O 1096.9 -1.50478 -1.3386 0
M  V30 11448 C 1093.96 -2.79935 -2.04542 0
M  V30 11449 C 1093.02 -3.96897 -1.6362 0
M  V30 11450 C 1092.26 -4.54148 -2.80331 0
M  V30 11451 O 1092.48 -4.10282 -3.96264 0
M  V30 11452 O 1091.41 -5.44565 -2.56384 0
M  V30 11453 H 1095.24 -3.02058 -0.315337 0
M  V30 11454 H 1092.82 -1.49131 -0.0896151 0
M  V30 11455 H 1094.71 -3.18191 -2.76283 0
M  V30 11456 H 1093.38 -2.00703 -2.53969 0
M  V30 11457 H 1092.29 -3.63376 -0.889316 0
M  V30 11458 H 1093.62 -4.77618 -1.18918 0
M  V30 11459 N 1095.27 0.136881 -1.57004 0
M  V30 11460 C 1096.52 0.846257 -1.83088 0
M  V30 11461 C 1096.83 1.81876 -0.719765 0
M  V30 11462 O 1098.04 2.57302 -0.866494 0
M  V30 11463 C 1096.5 1.55559 -3.24545 0
M  V30 11464 C 1096.1 0.624989 -4.43619 0
M  V30 11465 C 1097.85 2.25115 -3.59893 0
M  V30 11466 C 1095.76 1.33653 -5.761 0
M  V30 11467 H 1094.69 0.319768 -0.682836 0
M  V30 11468 H 1097.34 0.0989741 -1.83233 0
M  V30 11469 H 1095.72 2.34887 -3.18817 0
M  V30 11470 H 1096.89 -0.133783 -4.60606 0
M  V30 11471 H 1095.21 0.0373216 -4.16383 0
M  V30 11472 H 1097.8 2.79008 -4.56134 0
M  V30 11473 H 1098.15 3.02084 -2.86446 0
M  V30 11474 H 1098.68 1.52696 -3.67327 0
M  V30 11475 H 1095.42 0.608495 -6.5267 0
M  V30 11476 H 1094.94 2.06776 -5.63031 0
M  V30 11477 H 1096.62 1.87467 -6.19246 0
M  V30 11478 N 1096.75 1.52266 0.40654 0
M  V30 11479 C 1097.71 1.75168 1.47814 0
M  V30 11480 C 1098.71 0.621575 1.48301 0
M  V30 11481 O 1099.9 0.889476 1.4978 0
M  V30 11482 C 1097.04 1.83642 2.87208 0
M  V30 11483 H 1098.23 2.70834 1.28798 0
M  V30 11484 H 1095.78 1.42722 0.637196 0
M  V30 11485 H 1096.52 0.898994 3.1159 0
M  V30 11486 H 1096.3 2.65801 2.88257 0
M  V30 11487 H 1097.79 2.03093 3.64888 0
M  V30 11488 N 1098.23 -0.663929 1.42933 0
M  V30 11489 C 1099.46 -1.45192 1.474 0
M  V30 11490 C 1099.87 -1.88592 0.0886014 0
M  V30 11491 O 1099.23 -1.58824 -0.898962 0
M  V30 11492 C 1099.28 -2.69394 2.41059 0
M  V30 11493 O 1099 -2.27812 3.7421 0
M  V30 11494 C 1100.5 -3.62855 2.54659 0
M  V30 11495 H 1097.72 -0.446394 0.500973 0
M  V30 11496 H 1100.27 -0.814875 1.87563 0
M  V30 11497 H 1098.42 -3.29262 2.0412 0
M  V30 11498 H 1098.83 -3.08095 4.24474 0
M  V30 11499 H 1100.31 -4.46698 3.24291 0
M  V30 11500 H 1100.79 -4.09487 1.58799 0
M  V30 11501 H 1101.39 -3.08874 2.92364 0
M  V30 11502 N 1099.71 -1.29285 -0.901281 0
M  V30 11503 C 1101.12 -1.07263 -1.18182 0
M  V30 11504 C 1101.32 0.177087 -2.0072 0
M  V30 11505 O 1100.38 0.875292 -2.36844 0
M  V30 11506 C 1101.69 -2.32717 -1.9043 0
M  V30 11507 C 1103.24 -2.3802 -2.03262 0
M  V30 11508 C 1103.71 -3.63273 -2.7892 0
M  V30 11509 N 1105.21 -3.63986 -2.86475 0
M  V30 11510 C 1105.94 -4.57585 -3.45549 0
M  V30 11511 N 1105.44 -5.61513 -4.05801 0
M  V30 11512 N 1107.23 -4.45157 -3.43208 0
M  V30 11513 H 1099.38 -2.09487 -0.350536 0
M  V30 11514 H 1101.64 -0.922647 -0.217778 0
M  V30 11515 H 1101.35 -3.23828 -1.37216 0
M  V30 11516 H 1101.22 -2.40102 -2.90913 0
M  V30 11517 H 1103.61 -1.47398 -2.55652 0
M  V30 11518 H 1103.69 -2.3462 -1.01916 0
M  V30 11519 H 1103.34 -4.54246 -2.27206 0
M  V30 11520 H 1103.27 -3.6393 -3.80608 0
M  V30 11521 H 1105.76 -2.8884 -2.43679 0
M  V30 11522 H 1106.07 -6.29058 -4.48894 0
M  V30 11523 H 1104.41 -5.65325 -4.04268 0
M  V30 11524 H 1107.61 -3.63158 -2.95354 0
M  V30 11525 H 1107.78 -5.18286 -3.88952 0
M  V30 11526 N 1101.18 1.11143 -1.11736 0
M  V30 11527 C 1102.43 1.82586 -0.866412 0
M  V30 11528 C 1102.75 1.85227 0.609593 0
M  V30 11529 O 1102.02 1.32505 1.44288 0
M  V30 11530 H 1100.6 0.676149 -0.31754 0
M  V30 11531 H 1103.27 1.34516 -1.41037 0
M  V30 11532 H 1102.36 2.8635 -1.24136 0
M  V30 11533 N 1102.66 0.908147 1.28804 0
M  V30 11534 C 1103.59 0.34957 2.26519 0
M  V30 11535 C 1104.61 -0.508845 1.54643 0
M  V30 11536 O 1105.8 -0.324633 1.75523 0
M  V30 11537 C 1102.9 -0.519461 3.34895 0
M  V30 11538 C 1102.07 0.315157 4.36263 0
M  V30 11539 C 1101.13 -0.488059 5.23932 0
M  V30 11540 O 1100.15 0.0974133 5.69117 0
M  V30 11541 N 1101.36 -1.79233 5.52137 0
M  V30 11542 H 1104.12 1.18945 2.75086 0
M  V30 11543 H 1101.68 0.77351 1.42227 0
M  V30 11544 H 1103.67 -1.0634 3.90479 0
M  V30 11545 H 1102.24 -1.26004 2.8608 0
M  V30 11546 H 1101.46 1.04049 3.8022 0
M  V30 11547 H 1102.75 0.886438 5.01019 0
M  V30 11548 H 1102.15 -2.2906 5.1725 0
M  V30 11549 H 1100.71 -2.28322 6.10502 0
M  V30 11550 N 1104.14 -1.42577 0.671525 0
M  V30 11551 C 1105.37 -2.05924 0.200731 0
M  V30 11552 C 1105.78 -1.50434 -1.14083 0
M  V30 11553 O 1105.14 -0.642845 -1.70803 0
M  V30 11554 C 1105.19 -3.61289 0.123505 0
M  V30 11555 O 1104.91 -4.1472 1.41205 0
M  V30 11556 C 1106.41 -4.41743 -0.371178 0
M  V30 11557 H 1103.63 -0.663746 0.0983958 0
M  V30 11558 H 1106.18 -1.82771 0.917338 0
M  V30 11559 H 1104.33 -3.83565 -0.543769 0
M  V30 11560 H 1104.75 -5.0856 1.28325 0
M  V30 11561 H 1106.22 -5.50731 -0.374128 0
M  V30 11562 H 1106.7 -4.16092 -1.40585 0
M  V30 11563 H 1107.3 -4.24478 0.264244 0
M  V30 11564 N 1105.62 -0.414636 -1.52048 0
M  V30 11565 C 1107.03 0.0537107 -1.86623 0
M  V30 11566 C 1107.38 1.43955 -1.3331 0
M  V30 11567 O 1106.51 2.05616 -0.674606 0
M  V30 11568 C 1107.1 0.104241 -3.3864 0
M  V30 11569 C 1105.66 0.516936 -3.72833 0
M  V30 11570 C 1104.81 -0.305042 -2.75617 0
M  V30 11571 H 1107.76 -0.631469 -1.45596 0
M  V30 11572 H 1107.78 0.918395 -3.6925 0
M  V30 11573 H 1107.29 -0.904523 -3.77412 0
M  V30 11574 H 1105.39 1.53214 -3.39641 0
M  V30 11575 H 1105.5 0.2575 -4.78408 0
M  V30 11576 H 1103.87 0.233416 -2.53628 0
M  V30 11577 H 1104.65 -1.31226 -3.1723 0
M  V30 11578 N 1107.1 1.56929 -0.145233 0
M  V30 11579 C 1108.33 2.00141 0.51257 0
M  V30 11580 C 1108.73 1.0243 1.59075 0
M  V30 11581 O 1108.08 0.0130063 1.83695 0
M  V30 11582 C 1108.14 3.39785 1.17417 0
M  V30 11583 C 1107.8 4.56365 0.240801 0
M  V30 11584 C 1108.8 5.17183 -0.530847 0
M  V30 11585 C 1106.49 5.02093 0.144221 0
M  V30 11586 C 1108.48 6.22136 -1.38654 0
M  V30 11587 C 1106.17 6.06902 -0.71508 0
M  V30 11588 C 1107.16 6.66793 -1.47907 0
M  V30 11589 O 1106.85 7.69573 -2.32405 0
M  V30 11590 H 1106.58 0.661747 0.138085 0
M  V30 11591 H 1109.14 2.04037 -0.236269 0
M  V30 11592 H 1107.37 3.32722 1.97061 0
M  V30 11593 H 1109.06 3.67115 1.73152 0
M  V30 11594 H 1109.82 4.82754 -0.466256 0
M  V30 11595 H 1105.7 4.55206 0.728613 0
M  V30 11596 H 1109.25 6.68812 -1.98333 0
M  V30 11597 H 1105.14 6.40758 -0.78097 0
M  V30 11598 H 1105.91 7.86786 -2.25634 0
M  V30 11599 N 1108.58 -0.128553 1.57075 0
M  V30 11600 C 1109.99 -0.686713 1.73612 0
M  V30 11601 C 1110.34 -1.80778 0.762478 0
M  V30 11602 O 1109.46 -2.16297 -0.0667779 0
M  V30 11603 C 1110.06 -1.25246 3.148 0
M  V30 11604 C 1108.62 -1.757 3.32876 0
M  V30 11605 C 1107.76 -0.652844 2.69506 0
M  V30 11606 H 1110.71 0.0972859 1.58402 0
M  V30 11607 H 1110.74 -2.1222 3.15821 0
M  V30 11608 H 1110.25 -0.436308 3.8564 0
M  V30 11609 H 1108.35 -2.59824 2.67063 0
M  V30 11610 H 1108.46 -1.87302 4.4097 0
M  V30 11611 H 1106.83 -1.08408 2.30477 0
M  V30 11612 H 1107.61 0.15217 3.42963 0
M  V30 11613 N 1110.05 -1.5248 -0.398459 0
M  V30 11614 C 1111.3 -1.66731 -1.14215 0
M  V30 11615 C 1111.62 -0.404957 -1.90749 0
M  V30 11616 O 1110.89 0.580434 -1.87104 0
M  V30 11617 H 1109.47 -0.614577 -0.424622 0
M  V30 11618 H 1112.13 -1.89561 -0.453059 0
M  V30 11619 H 1111.23 -2.51336 -1.85031 0
M  V30 11620 N 1111.53 0.65634 -1.43283 0
M  V30 11621 C 1112.78 1.41837 -1.44949 0
M  V30 11622 C 1113.11 1.94065 -0.0723212 0
M  V30 11623 O 1112.39 1.72092 0.906346 0
M  V30 11624 C 1112.67 2.60206 -2.48927 0
M  V30 11625 C 1112.52 2.1349 -3.95907 0
M  V30 11626 C 1113.84 3.62421 -2.49678 0
M  V30 11627 H 1110.96 0.514398 -0.527792 0
M  V30 11628 H 1113.6 0.74435 -1.74813 0
M  V30 11629 H 1111.75 3.17708 -2.23592 0
M  V30 11630 H 1113.42 1.61012 -4.32288 0
M  V30 11631 H 1111.67 1.4489 -4.08888 0
M  V30 11632 H 1112.34 2.98596 -4.64268 0
M  V30 11633 H 1114.81 3.14671 -2.72252 0
M  V30 11634 H 1113.69 4.42798 -3.24378 0
M  V30 11635 H 1113.95 4.14802 -1.52944 0
M  V30 11636 N 1113.01 1.29761 0.894412 0
M  V30 11637 C 1113.92 1.1724 2.03204 0
M  V30 11638 C 1114.94 0.0944452 1.73743 0
M  V30 11639 O 1116.11 0.307549 1.99038 0
M  V30 11640 C 1113.18 0.855416 3.35981 0
M  V30 11641 C 1112.24 2.01777 3.78926 0
M  V30 11642 C 1111.47 1.71581 5.05367 0
M  V30 11643 O 1111.69 0.639245 5.66807 0
M  V30 11644 O 1110.63 2.56539 5.44492 0
M  V30 11645 H 1114.45 2.12787 2.16692 0
M  V30 11646 H 1112.04 1.09264 1.0189 0
M  V30 11647 H 1113.92 0.693429 4.15656 0
M  V30 11648 H 1112.6 -0.0702195 3.23624 0
M  V30 11649 H 1111.5 2.23502 2.99996 0
M  V30 11650 H 1112.84 2.92479 3.95875 0
M  V30 11651 N 1114.49 -1.10549 1.12324 0
M  V30 11652 C 1115.44 -2.18944 0.785248 0
M  V30 11653 C 1116.43 -1.67867 -0.227389 0
M  V30 11654 O 1117.64 -1.79796 -0.0857162 0
M  V30 11655 H 1114.01 -0.713976 0.236098 0
M  V30 11656 H 1115.98 -2.44692 1.70788 0
M  V30 11657 C 1114.73 -3.46765 0.25485 0
M  V30 11658 H 1114.05 -3.86428 1.02534 0
M  V30 11659 H 1115.49 -4.23962 0.0566526 0
M  V30 11660 C 1113.95 -3.21185 -1.01695 0
M  V30 11661 O 1114.48 -3.42745 -2.09497 0
M  V30 11662 N 1112.69 -2.7486 -0.943423 0
M  V30 11663 H 1112.24 -2.57515 -0.0660366 0
M  V30 11664 H 1112.19 -2.58122 -1.795 0
M  V30 11665 N 1115.97 -0.914965 -1.28321 0
M  V30 11666 C 1117.19 -0.564023 -1.99583 0
M  V30 11667 C 1117.62 0.847821 -1.6791 0
M  V30 11668 O 1116.97 1.56682 -0.912171 0
M  V30 11669 C 1117.02 -0.781368 -3.52033 0
M  V30 11670 O 1116.13 0.159072 -4.12093 0
M  V30 11671 H 1115.47 -0.218565 -0.626997 0
M  V30 11672 H 1118 -1.23074 -1.63444 0
M  V30 11673 H 1118.01 -0.691946 -4.0209 0
M  V30 11674 H 1116.68 -1.81059 -3.7442 0
M  V30 11675 H 1115.26 0.0208145 -3.72894 0
M  V30 11676 N 1117.44 1.42219 -0.679077 0
M  V30 11677 C 1118.35 2.346 -0.00345919 0
M  V30 11678 C 1119.37 1.55327 0.784181 0
M  V30 11679 O 1120.55 1.87878 0.725524 0
M  V30 11680 C 1117.61 3.33905 0.933194 0
M  V30 11681 C 1116.67 4.29073 0.139607 0
M  V30 11682 C 1115.9 5.23634 1.03165 0
M  V30 11683 O 1116.13 5.23234 2.27119 0
M  V30 11684 O 1115.06 5.99901 0.490159 0
M  V30 11685 H 1118.89 2.9392 -0.764525 0
M  V30 11686 H 1116.47 1.42794 -0.439329 0
M  V30 11687 H 1118.35 3.949 1.47077 0
M  V30 11688 H 1117.03 2.77052 1.67404 0
M  V30 11689 H 1115.94 3.71478 -0.442177 0
M  V30 11690 H 1117.27 4.88979 -0.562214 0
M  V30 11691 N 1118.92 0.422693 1.51826 0
M  V30 11692 C 1120.17 -0.150066 2.01141 0
M  V30 11693 C 1120.48 -1.45059 1.31214 0
M  V30 11694 O 1121.69 -2.10542 1.71419 0
M  V30 11695 C 1120.15 -0.317985 3.58492 0
M  V30 11696 C 1119.75 0.971244 4.37345 0
M  V30 11697 C 1121.5 -0.845303 4.15999 0
M  V30 11698 C 1119.4 0.769769 5.86369 0
M  V30 11699 H 1118.33 -0.0598567 0.75162 0
M  V30 11700 H 1120.99 0.550217 1.75057 0
M  V30 11701 H 1119.37 -1.08092 3.80962 0
M  V30 11702 H 1120.54 1.74138 4.26629 0
M  V30 11703 H 1118.86 1.42599 3.91222 0
M  V30 11704 H 1121.45 -1.01229 5.2503 0
M  V30 11705 H 1121.8 -1.82375 3.74226 0
M  V30 11706 H 1122.33 -0.141067 3.9755 0
M  V30 11707 H 1119.07 1.72017 6.32527 0
M  V30 11708 H 1118.59 0.0391717 5.99787 0
M  V30 11709 H 1120.27 0.417225 6.45653 0
M  V30 11710 N 1120.4 -1.5685 0.153553 0
M  V30 11711 C 1121.63 -2.0041 -0.501949 0
M  V30 11712 C 1122.04 -1.03272 -1.58529 0
M  V30 11713 O 1121.38 -0.0227479 -1.83686 0
M  V30 11714 C 1121.44 -3.40402 -1.15613 0
M  V30 11715 C 1121.11 -4.56486 -0.216596 0
M  V30 11716 C 1122.1 -5.16894 0.558267 0
M  V30 11717 C 1119.79 -5.02162 -0.117592 0
M  V30 11718 C 1121.78 -6.21392 1.41951 0
M  V30 11719 C 1119.47 -6.06514 0.747255 0
M  V30 11720 C 1120.47 -6.65999 1.51441 0
M  V30 11721 O 1120.16 -7.6833 2.36483 0
M  V30 11722 H 1119.89 -0.66247 -0.134574 0
M  V30 11723 H 1122.44 -2.03908 0.247086 0
M  V30 11724 H 1120.67 -3.33762 -1.95294 0
M  V30 11725 H 1122.36 -3.68028 -1.71202 0
M  V30 11726 H 1123.13 -4.825 0.491851 0
M  V30 11727 H 1119.01 -4.55586 -0.704462 0
M  V30 11728 H 1122.55 -6.67751 2.01877 0
M  V30 11729 H 1118.45 -6.40335 0.81494 0
M  V30 11730 H 1119.21 -7.85578 2.29803 0
M  V30 11731 N 1121.88 0.120221 -1.57141 0
M  V30 11732 C 1123.15 0.858458 -1.75755 0
M  V30 11733 C 1123.53 1.98124 -0.728693 0
M  V30 11734 O 1122.88 2.27155 0.247573 0
M  V30 11735 C 1123.09 1.37627 -3.20718 0
M  V30 11736 C 1124.44 1.82909 -3.83183 0
M  V30 11737 O 1125.46 1.47309 -3.24312 0
M  V30 11738 O 1124.32 2.4865 -4.86657 0
M  V30 11739 H 1121.42 0.407583 -0.719587 0
M  V30 11740 H 1123.96 0.104057 -1.69381 0
M  V30 11741 H 1122.74 0.570651 -3.87117 0
M  V30 11742 H 1122.36 2.19341 -3.31625 0
M  V30 11743 N 1123.36 1.52689 0.390367 0
M  V30 11744 C 1124.59 1.71292 1.1551 0
M  V30 11745 C 1124.99 0.430405 1.84239 0
M  V30 11746 O 1124.34 -0.604823 1.73458 0
M  V30 11747 C 1124.4 2.80597 2.24735 0
M  V30 11748 C 1124.06 4.21757 1.75984 0
M  V30 11749 C 1125.06 5.04961 1.23733 0
M  V30 11750 C 1122.75 4.68071 1.82248 0
M  V30 11751 C 1124.74 6.32561 0.783926 0
M  V30 11752 C 1122.43 5.95656 1.36519 0
M  V30 11753 C 1123.42 6.7773 0.846786 0
M  V30 11754 O 1123.11 8.02923 0.396164 0
M  V30 11755 H 1122.84 0.576906 0.352356 0
M  V30 11756 H 1125.4 2.00117 0.462865 0
M  V30 11757 H 1123.63 2.4719 2.97378 0
M  V30 11758 H 1125.32 2.87616 2.86412 0
M  V30 11759 H 1126.08 4.70363 1.18251 0
M  V30 11760 H 1121.96 4.04278 2.21541 0
M  V30 11761 H 1125.51 6.96572 0.378612 0
M  V30 11762 H 1121.4 6.29758 1.41686 0
M  V30 11763 H 1122.17 8.16861 0.517766 0
M  V30 11764 N 1124.83 -0.648732 1.43629 0
M  V30 11765 C 1125.76 -1.77298 1.51947 0
M  V30 11766 C 1126.75 -1.65942 0.373785 0
M  V30 11767 O 1127.93 -1.8497 0.591596 0
M  V30 11768 C 1125.06 -3.15749 1.44638 0
M  V30 11769 C 1124.01 -3.41872 2.57502 0
M  V30 11770 C 1123.34 -4.8017 2.35246 0
M  V30 11771 C 1124.64 -3.36173 3.99731 0
M  V30 11772 H 1126.33 -1.70594 2.46045 0
M  V30 11773 H 1123.88 -0.819306 1.1842 0
M  V30 11774 H 1125.83 -3.94156 1.4906 0
M  V30 11775 H 1124.56 -3.23194 0.470466 0
M  V30 11776 H 1123.22 -2.65838 2.5244 0
M  V30 11777 H 1122.86 -4.84297 1.35887 0
M  V30 11778 H 1122.56 -4.9861 3.10906 0
M  V30 11779 H 1124.09 -5.6083 2.41459 0
M  V30 11780 H 1125.5 -4.0451 4.06257 0
M  V30 11781 H 1123.9 -3.66148 4.75453 0
M  V30 11782 H 1124.97 -2.34277 4.24549 0
M  V30 11783 N 1126.31 -1.30234 -0.887518 0
M  V30 11784 C 1127.73 -1.0851 -1.17037 0
M  V30 11785 C 1127.93 0.155788 -2.00897 0
M  V30 11786 O 1126.98 0.850123 -2.37759 0
M  V30 11787 C 1128.3 -2.34723 -1.87951 0
M  V30 11788 C 1129.85 -2.40163 -2.00726 0
M  V30 11789 C 1130.32 -3.66211 -2.75051 0
M  V30 11790 N 1131.81 -3.67004 -2.82599 0
M  V30 11791 C 1132.55 -4.61224 -3.40676 0
M  V30 11792 N 1132.04 -5.65786 -3.99823 0
M  V30 11793 N 1133.84 -4.48772 -3.38467 0
M  V30 11794 H 1125.99 -2.09847 -0.328297 0
M  V30 11795 H 1128.25 -0.924904 -0.20798 0
M  V30 11796 H 1127.96 -3.25265 -1.33773 0
M  V30 11797 H 1127.83 -2.43175 -2.8835 0
M  V30 11798 H 1130.22 -1.50101 -2.54074 0
M  V30 11799 H 1130.3 -2.35688 -0.994218 0
M  V30 11800 H 1129.94 -4.56631 -2.22376 0
M  V30 11801 H 1129.87 -3.67947 -3.76726 0
M  V30 11802 H 1132.36 -2.91409 -2.40602 0
M  V30 11803 H 1132.68 -6.33783 -4.42197 0
M  V30 11804 H 1131.02 -5.69581 -3.9825 0
M  V30 11805 H 1134.21 -3.6627 -2.91485 0
M  V30 11806 H 1134.38 -5.22382 -3.83433 0
M  V30 11807 N 1127.79 1.09952 -1.12909 0
M  V30 11808 C 1128.72 2.16257 -0.759305 0
M  V30 11809 C 1129.74 1.61355 0.216427 0
M  V30 11810 O 1130.92 1.785 -0.00297224 0
M  V30 11811 C 1128.02 3.38741 -0.103908 0
M  V30 11812 C 1127.2 4.23072 -1.11037 0
M  V30 11813 C 1126.26 5.23991 -0.481667 0
M  V30 11814 O 1125.28 5.57665 -1.14011 0
M  V30 11815 N 1126.48 5.75652 0.748698 0
M  V30 11816 H 1129.25 2.48588 -1.67405 0
M  V30 11817 H 1126.81 1.25617 -1.02137 0
M  V30 11818 H 1128.8 4.03362 0.328799 0
M  V30 11819 H 1127.37 3.04344 0.713677 0
M  V30 11820 H 1126.59 3.5467 -1.72054 0
M  V30 11821 H 1127.88 4.76244 -1.79078 0
M  V30 11822 H 1127.28 5.505 1.30253 0
M  V30 11823 H 1125.84 6.42033 1.12415 0
M  V30 11824 N 1129.27 0.921757 1.27833 0
M  V30 11825 C 1130.52 0.557974 1.94245 0
M  V30 11826 C 1130.84 -0.90268 1.72849 0
M  V30 11827 O 1130.11 -1.63915 1.07279 0
M  V30 11828 H 1128.69 0.203364 0.718785 0
M  V30 11829 H 1131.35 1.17286 1.5566 0
M  V30 11830 H 1130.45 0.759202 3.02725 0
M  V30 11831 N 1130.75 -1.41857 0.686609 0
M  V30 11832 C 1131.69 -2.326 0.0041351 0
M  V30 11833 C 1132.69 -1.50474 -0.778077 0
M  V30 11834 O 1133.89 -1.66468 -0.684709 0
M  V30 11835 H 1130.27 -0.751797 -0.0174615 0
M  V30 11836 H 1132.24 -2.87844 0.786656 0
M  V30 11837 C 1130.99 -3.35175 -0.924819 0
M  V30 11838 H 1130.31 -3.98416 -0.332339 0
M  V30 11839 H 1131.75 -4.01229 -1.37082 0
M  V30 11840 C 1130.21 -2.68359 -2.03679 0
M  V30 11841 O 1130.74 -2.52453 -3.12459 0
M  V30 11842 N 1128.95 -2.27196 -1.81192 0
M  V30 11843 H 1128.49 -2.40333 -0.92725 0
M  V30 11844 H 1128.45 -1.82824 -2.55778 0
M  V30 11845 N 1132.22 -0.430739 -1.51599 0
M  V30 11846 C 1133.64 -0.0826902 -1.59386 0
M  V30 11847 C 1133.84 1.40729 -1.44214 0
M  V30 11848 O 1132.9 2.1765 -1.28002 0
M  V30 11849 C 1134.21 -0.59691 -2.94716 0
M  V30 11850 C 1135.76 -0.556772 -3.08008 0
M  V30 11851 C 1136.23 -1.04786 -4.45852 0
M  V30 11852 N 1137.72 -1.00557 -4.52153 0
M  V30 11853 C 1138.46 -1.35649 -5.57124 0
M  V30 11854 N 1137.95 -1.77994 -6.69545 0
M  V30 11855 N 1139.75 -1.27508 -5.47447 0
M  V30 11856 H 1131.9 -1.40027 -1.59707 0
M  V30 11857 H 1134.16 -0.576606 -0.752482 0
M  V30 11858 H 1133.87 -1.63914 -3.11167 0
M  V30 11859 H 1133.74 -0.0182342 -3.77196 0
M  V30 11860 H 1136.13 0.476457 -2.91228 0
M  V30 11861 H 1136.21 -1.17177 -2.27383 0
M  V30 11862 H 1135.85 -2.07952 -4.63377 0
M  V30 11863 H 1135.78 -0.409461 -5.25006 0
M  V30 11864 H 1138.27 -0.694518 -3.71463 0
M  V30 11865 H 1138.59 -2.03026 -7.45654 0
M  V30 11866 H 1136.93 -1.81916 -6.70769 0
M  V30 11867 H 1140.12 -0.942969 -4.58504 0
M  V30 11868 H 1140.3 -1.55185 -6.29143 0
M  V30 11869 N 1133.7 1.56767 -0.161869 0
M  V30 11870 C 1134.63 2.20511 0.767918 0
M  V30 11871 C 1135.61 1.15783 1.24612 0
M  V30 11872 O 1136.8 1.44179 1.301 0
M  V30 11873 C 1133.93 2.83844 2.00125 0
M  V30 11874 C 1132.88 3.94528 1.65926 0
M  V30 11875 C 1132.21 4.44866 2.96646 0
M  V30 11876 C 1133.51 5.14583 0.894497 0
M  V30 11877 H 1135.2 2.98464 0.236607 0
M  V30 11878 H 1132.75 1.43561 0.112363 0
M  V30 11879 H 1134.7 3.27109 2.65664 0
M  V30 11880 H 1133.43 2.03246 2.55654 0
M  V30 11881 H 1132.08 3.51904 1.02759 0
M  V30 11882 H 1131.73 3.61071 3.50196 0
M  V30 11883 H 1131.43 5.19531 2.74521 0
M  V30 11884 H 1132.96 4.90812 3.6323 0
M  V30 11885 H 1134.37 5.54601 1.45228 0
M  V30 11886 H 1132.77 5.95105 0.772636 0
M  V30 11887 H 1133.84 4.84773 -0.110986 0
M  V30 11888 N 1135.18 -0.111886 1.57202 0
M  V30 11889 C 1136.13 -1.13688 2.00858 0
M  V30 11890 C 1137.1 -1.40752 0.881939 0
M  V30 11891 O 1138.28 -1.52498 1.14669 0
M  V30 11892 C 1135.42 -2.45641 2.42393 0
M  V30 11893 C 1134.54 -2.25452 3.68504 0
M  V30 11894 C 1133.67 -3.50686 3.9899 0
M  V30 11895 C 1132.71 -3.25685 5.18262 0
M  V30 11896 N 1131.85 -4.4314 5.44583 0
M  V30 11897 H 1136.69 -0.757611 2.88209 0
M  V30 11898 H 1134.22 -0.362582 1.42561 0
M  V30 11899 H 1136.18 -3.22627 2.64514 0
M  V30 11900 H 1134.81 -2.81447 1.58074 0
M  V30 11901 H 1133.86 -1.39349 3.53958 0
M  V30 11902 H 1135.18 -2.0296 4.55641 0
M  V30 11903 H 1134.33 -4.36087 4.21797 0
M  V30 11904 H 1133.07 -3.76216 3.10343 0
M  V30 11905 H 1132.07 -2.38675 4.95292 0
M  V30 11906 H 1133.3 -3.01518 6.08493 0
M  V30 11907 H 1131.24 -4.68778 4.58893 0
M  V30 11908 H 1131.16 -4.23778 6.26058 0
M  V30 11909 H 1132.43 -5.29654 5.71915 0
M  V30 11910 N 1136.66 -1.52894 -0.382264 0
M  V30 11911 C 1137.59 -1.74413 -1.48703 0
M  V30 11912 C 1138.6 -0.624663 -1.50339 0
M  V30 11913 O 1139.79 -0.900527 -1.54119 0
M  V30 11914 C 1136.89 -1.79387 -2.8753 0
M  V30 11915 C 1136.07 -3.08794 -3.09783 0
M  V30 11916 C 1135.12 -3.05226 -4.2863 0
M  V30 11917 O 1134.15 -3.79073 -4.24609 0
M  V30 11918 N 1135.35 -2.2488 -5.35172 0
M  V30 11919 H 1138.12 -2.69734 -1.30628 0
M  V30 11920 H 1135.68 -1.51465 -0.571842 0
M  V30 11921 H 1137.67 -1.74498 -3.65147 0
M  V30 11922 H 1136.24 -0.914233 -2.98932 0
M  V30 11923 H 1135.46 -3.27118 -2.19971 0
M  V30 11924 H 1136.75 -3.94347 -3.21509 0
M  V30 11925 H 1136.15 -1.64363 -5.41296 0
M  V30 11926 H 1134.7 -2.25825 -6.1143 0
M  V30 11927 N 1138.14 0.641106 -1.43971 0
M  V30 11928 C 1139.55 1.22254 -1.41106 0
M  V30 11929 C 1139.9 1.95825 -0.121284 0
M  V30 11930 O 1139.02 2.01901 0.77879 0
M  V30 11931 C 1139.62 2.22364 -2.55617 0
M  V30 11932 C 1138.18 2.75957 -2.55978 0
M  V30 11933 C 1137.33 1.50792 -2.32717 0
M  V30 11934 H 1140.28 0.432381 -1.52696 0
M  V30 11935 H 1140.3 3.04775 -2.27799 0
M  V30 11936 H 1139.81 1.68789 -3.49474 0
M  V30 11937 H 1137.91 3.33562 -1.66034 0
M  V30 11938 H 1138.02 3.22676 -3.54142 0
M  V30 11939 H 1136.39 1.7857 -1.81617 0
M  V30 11940 H 1137.17 0.991343 -3.28675 0
M  V30 11941 N 1139.62 1.30703 0.880598 0
M  V30 11942 C 1140.58 1.17429 1.96832 0
M  V30 11943 C 1141.58 0.104305 1.60461 0
M  V30 11944 O 1142.77 0.352758 1.70591 0
M  V30 11945 C 1139.9 0.800099 3.31378 0
M  V30 11946 H 1141.09 2.14069 2.10034 0
M  V30 11947 H 1138.65 1.14162 1.06755 0
M  V30 11948 H 1139.38 -0.165606 3.23877 0
M  V30 11949 H 1139.17 1.57341 3.59146 0
M  V30 11950 H 1140.66 0.730826 4.11155 0
M  V30 11951 N 1141.09 -1.09351 1.1349 0
M  V30 11952 C 1142.37 -1.78121 0.808225 0
M  V30 11953 C 1142.75 -1.99154 -0.700072 0
M  V30 11954 O 1142.1 -1.59356 -1.63762 0
M  V30 11955 C 1142.31 -3.10368 1.59601 0
M  V30 11956 C 1143.66 -3.85063 1.78919 0
M  V30 11957 O 1144.68 -3.20122 1.56206 0
M  V30 11958 O 1143.54 -5.01648 2.16821 0
M  V30 11959 H 1140.63 -0.77253 0.295173 0
M  V30 11960 H 1143.18 -1.15901 1.23956 0
M  V30 11961 H 1141.95 -2.90549 2.62101 0
M  V30 11962 H 1141.57 -3.80312 1.15967 0
M  V30 11963 N 1142.57 -0.928524 -1.27343 0
M  V30 11964 C 1143.81 -0.576696 -1.96096 0
M  V30 11965 C 1144.18 0.866074 -1.71357 0
M  V30 11966 O 1145.38 1.32621 -2.33805 0
M  V30 11967 C 1143.65 -0.894692 -3.4602 0
M  V30 11968 S 1145.21 -0.651503 -4.33936 0
M  V30 11969 H 1142.02 -0.212847 -0.678393 0
M  V30 11970 H 1144.63 -1.19714 -1.5456 0
M  V30 11971 H 1143.33 -1.94239 -3.61524 0
M  V30 11972 H 1142.86 -0.263478 -3.92517 0
M  V30 11973 H 1144.88 0.490314 -4.93772 0
M  V30 11974 N 1144.05 1.41491 -0.694123 0
M  V30 11975 C 1144.98 2.33462 -0.0422169 0
M  V30 11976 C 1145.96 1.51739 0.76872 0
M  V30 11977 O 1147.15 1.8028 0.721985 0
M  V30 11978 C 1144.28 3.35545 0.895925 0
M  V30 11979 C 1143.23 4.27568 0.192188 0
M  V30 11980 C 1142.56 5.20014 1.24459 0
M  V30 11981 C 1143.86 5.1376 -0.940626 0
M  V30 11982 H 1145.55 2.88225 -0.810363 0
M  V30 11983 H 1143.1 1.38586 -0.39114 0
M  V30 11984 H 1145.05 3.9881 1.36121 0
M  V30 11985 H 1143.77 2.79129 1.69572 0
M  V30 11986 H 1142.43 3.65726 -0.25305 0
M  V30 11987 H 1142.08 4.59913 2.03687 0
M  V30 11988 H 1141.78 5.82417 0.778734 0
M  V30 11989 H 1143.3 5.86155 1.71041 0
M  V30 11990 H 1144.72 5.70601 -0.555692 0
M  V30 11991 H 1143.11 5.85097 -1.33349 0
M  V30 11992 H 1144.18 4.51011 -1.78093 0
M  V30 11993 N 1145.53 0.438773 1.51369 0
M  V30 11994 C 1146.8 -0.18722 1.94702 0
M  V30 11995 C 1147.18 -1.59962 1.37752 0
M  V30 11996 O 1146.53 -2.214 0.565171 0
M  V30 11997 C 1146.74 -0.163491 3.48617 0
M  V30 11998 C 1148.09 -0.368355 4.22999 0
M  V30 11999 O 1149.11 -0.241541 3.5538 0
M  V30 12000 O 1147.97 -0.620916 5.42961 0
M  V30 12001 H 1145.07 -0.129194 0.816846 0
M  V30 12002 H 1147.61 0.496855 1.62263 0
M  V30 12003 H 1146.39 0.823882 3.82528 0
M  V30 12004 H 1146.01 -0.890414 3.87501 0
M  V30 12005 N 1147.01 -1.56678 0.170181 0
M  V30 12006 C 1148.25 -1.9646 -0.474125 0
M  V30 12007 C 1148.57 -1.05719 -1.63855 0
M  V30 12008 O 1147.84 -0.123316 -1.95511 0
M  V30 12009 H 1146.42 -0.725446 -0.178149 0
M  V30 12010 H 1149.09 -1.93276 0.251099 0
M  V30 12011 H 1148.18 -3.00726 -0.834894 0
M  V30 12012 N 1148.48 0.103547 -1.57259 0
M  V30 12013 C 1149.41 1.12714 -2.04494 0
M  V30 12014 C 1150.39 1.42278 -0.932255 0
M  V30 12015 O 1151.58 1.52453 -1.20298 0
M  V30 12016 C 1148.71 2.44927 -2.46228 0
M  V30 12017 C 1147.66 2.2979 -3.61082 0
M  V30 12018 C 1146.99 3.67105 -3.88765 0
M  V30 12019 C 1148.29 1.7455 -4.9227 0
M  V30 12020 H 1149.98 0.734198 -2.90258 0
M  V30 12021 H 1147.53 0.351725 -1.39638 0
M  V30 12022 H 1149.48 3.16798 -2.77879 0
M  V30 12023 H 1148.21 2.8614 -1.57453 0
M  V30 12024 H 1146.87 1.60366 -3.29664 0
M  V30 12025 H 1146.51 4.05831 -2.97171 0
M  V30 12026 H 1146.21 3.57825 -4.66084 0
M  V30 12027 H 1147.74 4.40456 -4.22884 0
M  V30 12028 H 1149.15 2.36253 -5.22358 0
M  V30 12029 H 1147.55 1.76051 -5.73695 0
M  V30 12030 H 1148.62 0.704242 -4.79759 0
M  V30 12031 N 1149.96 1.53094 0.37415 0
M  V30 12032 C 1151.19 1.72508 1.13687 0
M  V30 12033 C 1151.6 0.449922 1.83773 0
M  V30 12034 O 1150.94 -0.586391 1.74089 0
M  V30 12035 C 1151 2.82965 2.21746 0
M  V30 12036 C 1150.67 4.23599 1.71501 0
M  V30 12037 C 1151.67 5.06245 1.1837 0
M  V30 12038 C 1149.35 4.69978 1.77273 0
M  V30 12039 C 1151.34 6.33357 0.71679 0
M  V30 12040 C 1149.03 5.9707 1.30194 0
M  V30 12041 C 1150.03 6.7859 0.774856 0
M  V30 12042 O 1149.72 8.03298 0.310981 0
M  V30 12043 H 1149.45 0.580611 0.346218 0
M  V30 12044 H 1152 2.00596 0.441614 0
M  V30 12045 H 1150.23 2.5033 2.9474 0
M  V30 12046 H 1151.92 2.90638 2.83345 0
M  V30 12047 H 1152.69 4.71591 1.13256 0
M  V30 12048 H 1148.57 4.06605 2.17241 0
M  V30 12049 H 1152.11 6.96934 0.30471 0
M  V30 12050 H 1148.01 6.31225 1.34999 0
M  V30 12051 H 1148.78 8.17364 0.431098 0
M  V30 12052 N 1151.44 -0.633461 1.44309 0
M  V30 12053 C 1152.4 -1.72743 1.50641 0
M  V30 12054 C 1153.4 -1.56031 0.388718 0
M  V30 12055 O 1154.59 -1.61568 0.651251 0
M  V30 12056 C 1151.72 -3.11804 1.37809 0
M  V30 12057 H 1152.92 -1.68503 2.48086 0
M  V30 12058 H 1150.47 -0.846912 1.31366 0
M  V30 12059 H 1151.21 -3.2164 0.414483 0
M  V30 12060 H 1150.99 -3.2534 2.18852 0
M  V30 12061 H 1152.48 -3.91538 1.45216 0
M  V30 12062 N 1152.92 -1.31168 -0.873655 0
M  V30 12063 C 1153.85 -1.21094 -1.99646 0
M  V30 12064 C 1154.83 -0.0989684 -1.69812 0
M  V30 12065 O 1156.01 -0.282939 -1.92128 0
M  V30 12066 C 1153.14 -0.913684 -3.35066 0
M  V30 12067 C 1152.1 -1.98482 -3.79195 0
M  V30 12068 C 1151.42 -1.54033 -5.12033 0
M  V30 12069 C 1152.72 -3.39745 -3.96699 0
M  V30 12070 H 1154.42 -2.1503 -2.08333 0
M  V30 12071 H 1151.96 -1.03521 -1.00097 0
M  V30 12072 H 1153.92 -0.829821 -4.13149 0
M  V30 12073 H 1152.64 0.0613471 -3.26542 0
M  V30 12074 H 1151.3 -2.05851 -3.03349 0
M  V30 12075 H 1150.95 -0.553261 -4.99948 0
M  V30 12076 H 1150.65 -2.25688 -5.4253 0
M  V30 12077 H 1152.17 -1.47047 -5.92629 0
M  V30 12078 H 1153.59 -3.35071 -4.65188 0
M  V30 12079 H 1151.98 -4.09585 -4.38589 0
M  V30 12080 H 1153.05 -3.80802 -3.00196 0
M  V30 12081 N 1154.4 1.08748 -1.14068 0
M  V30 12082 C 1155.33 2.14886 -0.768052 0
M  V30 12083 C 1156.31 1.60682 0.248979 0
M  V30 12084 O 1157.49 1.87988 0.138852 0
M  V30 12085 C 1154.62 3.38412 -0.139747 0
M  V30 12086 C 1153.66 4.11357 -1.12639 0
M  V30 12087 S 1154.5 4.64645 -2.66206 0
M  V30 12088 C 1155.65 5.91461 -2.04755 0
M  V30 12089 H 1155.89 2.46163 -1.66706 0
M  V30 12090 H 1153.42 1.20804 -0.961549 0
M  V30 12091 H 1155.38 4.09929 0.21635 0
M  V30 12092 H 1154.04 3.0534 0.736638 0
M  V30 12093 H 1153.23 4.99987 -0.634719 0
M  V30 12094 H 1152.83 3.45735 -1.4263 0
M  V30 12095 H 1155.13 6.62859 -1.40086 0
M  V30 12096 H 1156.07 6.45319 -2.91494 0
M  V30 12097 H 1156.48 5.44308 -1.49629 0
M  V30 12098 N 1155.87 0.935264 1.26849 0
M  V30 12099 C 1157.1 0.595704 1.98661 0
M  V30 12100 C 1157.52 -0.821001 1.69237 0
M  V30 12101 O 1156.88 -1.55211 0.936982 0
M  V30 12102 C 1156.93 0.837275 3.50745 0
M  V30 12103 O 1156.03 -0.0934914 4.12294 0
M  V30 12104 H 1155.38 0.228512 0.623441 0
M  V30 12105 H 1157.91 1.25658 1.61466 0
M  V30 12106 H 1157.92 0.755827 4.00938 0
M  V30 12107 H 1156.59 1.86993 3.71492 0
M  V30 12108 H 1155.17 0.0385124 3.7288 0
M  V30 12109 N 1157.35 -1.41121 0.701616 0
M  V30 12110 C 1158.77 -1.55162 0.373766 0
M  V30 12111 C 1158.97 -1.6759 -1.11875 0
M  V30 12112 O 1158.02 -1.65768 -1.90465 0
M  V30 12113 C 1159.34 -2.78758 1.12759 0
M  V30 12114 C 1160.89 -2.92561 1.11253 0
M  V30 12115 C 1161.36 -4.19052 1.84822 0
M  V30 12116 N 1162.85 -4.26023 1.81821 0
M  V30 12117 C 1163.59 -5.22771 2.3558 0
M  V30 12118 N 1163.08 -6.25512 2.97836 0
M  V30 12119 N 1164.88 -5.14752 2.25802 0
M  V30 12120 H 1157.03 -1.31299 1.66956 0
M  V30 12121 H 1159.29 -0.633894 0.704898 0
M  V30 12122 H 1159 -2.75804 2.18231 0
M  V30 12123 H 1158.87 -3.70456 0.710095 0
M  V30 12124 H 1161.26 -2.95026 0.0660506 0
M  V30 12125 H 1161.34 -2.0202 1.56913 0
M  V30 12126 H 1160.98 -4.17349 2.89452 0
M  V30 12127 H 1160.91 -5.08577 1.36592 0
M  V30 12128 H 1163.4 -3.52411 1.36438 0
M  V30 12129 H 1163.72 -6.95736 3.36409 0
M  V30 12130 H 1162.06 -6.25997 3.01916 0
M  V30 12131 H 1165.25 -4.33414 1.76833 0
M  V30 12132 H 1165.42 -5.89983 2.68001 0
M  V30 12133 N 1158.83 -0.446794 -1.51134 0
M  V30 12134 C 1160.07 0.115546 -2.04073 0
M  V30 12135 C 1160.43 1.39137 -1.32306 0
M  V30 12136 O 1161.64 2.03455 -1.75668 0
M  V30 12137 C 1159.91 0.319657 -3.55968 0
M  V30 12138 S 1161.47 0.844045 -4.30606 0
M  V30 12139 H 1158.28 0.0274089 -0.710471 0
M  V30 12140 H 1160.89 -0.608368 -1.85793 0
M  V30 12141 H 1159.59 -0.615082 -4.05765 0
M  V30 12142 H 1159.12 1.07038 -3.78558 0
M  V30 12143 H 1161.14 2.12051 -4.48608 0
M  V30 12144 N 1160.31 1.56586 -0.178487 0
M  V30 12145 C 1161.55 1.98159 0.45876 0
M  V30 12146 C 1161.91 1.0629 1.60375 0
M  V30 12147 O 1161.2 0.103975 1.91318 0
M  V30 12148 C 1161.4 3.43629 0.982552 0
M  V30 12149 C 1161.23 4.49565 -0.110152 0
M  V30 12150 C 1160 5.02162 -0.562228 0
M  V30 12151 C 1162.19 5.06129 -0.913143 0
M  V30 12152 N 1160.18 5.91741 -1.63449 0
M  V30 12153 C 1161.55 5.92217 -1.83517 0
M  V30 12154 C 1163.6 4.88608 -0.957421 0
M  V30 12155 C 1162.3 6.6266 -2.79775 0
M  V30 12156 C 1164.33 5.59777 -1.90798 0
M  V30 12157 C 1163.69 6.45599 -2.81747 0
M  V30 12158 H 1159.79 0.770124 0.13577 0
M  V30 12159 H 1162.38 1.92671 -0.280358 0
M  V30 12160 H 1160.55 3.49649 1.69117 0
M  V30 12161 H 1162.28 3.72199 1.58902 0
M  V30 12162 H 1159.03 4.73334 -0.158612 0
M  V30 12163 H 1159.46 6.41235 -2.17132 0
M  V30 12164 H 1164.1 4.21948 -0.268285 0
M  V30 12165 H 1161.82 7.28529 -3.49673 0
M  V30 12166 H 1165.4 5.48204 -1.94844 0
M  V30 12167 H 1164.28 6.99701 -3.54102 0
M  V30 12168 N 1161.79 -0.095206 1.57312 0
M  V30 12169 C 1162.7 -1.13388 2.05379 0
M  V30 12170 C 1163.71 -1.43868 0.978668 0
M  V30 12171 O 1164.89 -1.54512 1.29182 0
M  V30 12172 C 1161.95 -2.43444 2.46852 0
M  V30 12173 C 1161.01 -2.20146 3.68557 0
M  V30 12174 C 1160.25 -3.44001 4.08043 0
M  V30 12175 O 1160.47 -4.52233 3.47623 0
M  V30 12176 O 1159.4 -3.33596 5.00997 0
M  V30 12177 H 1163.23 -0.755622 2.9415 0
M  V30 12178 H 1160.82 -0.307707 1.46197 0
M  V30 12179 H 1162.7 -3.20027 2.74155 0
M  V30 12180 H 1161.37 -2.80696 1.61219 0
M  V30 12181 H 1160.28 -1.41345 3.46371 0
M  V30 12182 H 1161.61 -1.87787 4.54969 0
M  V30 12183 N 1163.26 -1.53291 -0.366026 0
M  V30 12184 C 1164.19 -1.82675 -1.45437 0
M  V30 12185 C 1165.18 -0.680227 -1.55907 0
M  V30 12186 O 1166.36 -0.930032 -1.70482 0
M  V30 12187 C 1163.49 -2.01626 -2.8278 0
M  V30 12188 C 1162.44 -3.17391 -2.87135 0
M  V30 12189 C 1161.77 -3.21634 -4.27148 0
M  V30 12190 C 1163.07 -4.5599 -2.54697 0
M  V30 12191 H 1164.76 -2.73818 -1.21096 0
M  V30 12192 H 1162.31 -1.31754 -0.581108 0
M  V30 12193 H 1164.26 -2.20765 -3.58944 0
M  V30 12194 H 1162.99 -1.07193 -3.08508 0
M  V30 12195 H 1161.65 -2.98071 -2.13422 0
M  V30 12196 H 1161.29 -2.2484 -4.49951 0
M  V30 12197 H 1160.99 -3.99414 -4.30978 0
M  V30 12198 H 1162.52 -3.42957 -5.05186 0
M  V30 12199 H 1163.93 -4.75294 -3.20575 0
M  V30 12200 H 1162.33 -5.36008 -2.69844 0
M  V30 12201 H 1163.4 -4.61133 -1.49949 0
M  V30 12202 N 1164.74 0.6258 -1.44643 0
M  V30 12203 C 1165.69 1.75869 -1.52226 0
M  V30 12204 C 1166.68 1.64765 -0.39355 0
M  V30 12205 O 1167.89 1.70779 -0.568718 0
M  V30 12206 H 1164.27 0.580712 -0.477784 0
M  V30 12207 H 1166.24 1.66596 -2.47565 0
M  V30 12208 C 1164.99 3.14217 -1.48873 0
M  V30 12209 H 1164.31 3.23411 -2.35043 0
M  V30 12210 H 1165.75 3.93365 -1.58239 0
M  V30 12211 C 1164.21 3.36243 -0.210299 0
M  V30 12212 O 1164.74 3.95243 0.717335 0
M  V30 12213 N 1162.94 2.90385 -0.111744 0
M  V30 12214 H 1162.49 2.42555 -0.867466 0
M  V30 12215 H 1162.45 3.05498 0.742871 0
M  V30 12216 N 1166.22 1.31629 0.866686 0
M  V30 12217 C 1167.63 1.19347 1.43573 0
M  V30 12218 C 1167.98 -0.198765 1.95191 0
M  V30 12219 O 1167.11 -1.09674 1.86549 0
M  V30 12220 C 1167.7 2.16055 2.6097 0
M  V30 12221 C 1166.26 2.07697 3.13909 0
M  V30 12222 C 1165.41 2.05099 1.86627 0
M  V30 12223 H 1168.36 1.43633 0.674929 0
M  V30 12224 H 1168.38 1.75207 3.37761 0
M  V30 12225 H 1167.89 3.17375 2.23371 0
M  V30 12226 H 1165.99 1.09583 3.56121 0
M  V30 12227 H 1166.11 2.96958 3.75969 0
M  V30 12228 H 1164.47 1.50162 2.05727 0
M  V30 12229 H 1165.25 3.0818 1.51261 0
M  V30 12230 N 1167.7 -1.08142 1.14644 0
M  V30 12231 C 1168.63 -2.15022 0.793614 0
M  V30 12232 C 1169.64 -1.61679 -0.190729 0
M  V30 12233 O 1170.83 -1.78472 0.0313696 0
M  V30 12234 C 1167.93 -3.38532 0.157785 0
M  V30 12235 C 1167.11 -4.21252 1.17753 0
M  V30 12236 C 1166.17 -5.23158 0.564968 0
M  V30 12237 O 1165.19 -5.5578 1.22869 0
M  V30 12238 N 1166.39 -5.7677 -0.657022 0
M  V30 12239 H 1169.16 -2.45893 1.71338 0
M  V30 12240 H 1166.72 -1.23976 1.04122 0
M  V30 12241 H 1168.71 -4.03834 -0.264586 0
M  V30 12242 H 1167.28 -3.05441 -0.665168 0
M  V30 12243 H 1166.5 -3.51888 1.77675 0
M  V30 12244 H 1167.79 -4.73335 1.86632 0
M  V30 12245 H 1167.19 -5.52503 -1.21478 0
M  V30 12246 H 1165.74 -6.4374 -1.02186 0
M  V30 12247 N 1169.18 -0.941978 -1.26351 0
M  V30 12248 C 1170.45 -0.507822 -1.88893 0
M  V30 12249 C 1170.83 1.0146 -1.85119 0
M  V30 12250 O 1170.18 1.87495 -1.30606 0
M  V30 12251 C 1170.39 -1.07007 -3.3219 0
M  V30 12252 C 1171.74 -1.13922 -4.09032 0
M  V30 12253 O 1172.76 -1.02072 -3.41262 0
M  V30 12254 O 1171.62 -1.32362 -5.30229 0
M  V30 12255 H 1168.72 -0.165621 -0.810246 0
M  V30 12256 H 1171.26 -1.03459 -1.34515 0
M  V30 12257 H 1170.04 -2.11366 -3.29302 0
M  V30 12258 H 1169.66 -0.525797 -3.94108 0
M  V30 12259 N 1170.66 1.40747 -0.709091 0
M  V30 12260 C 1172.07 1.54961 -0.381989 0
M  V30 12261 C 1172.27 1.68181 1.10985 0
M  V30 12262 O 1171.33 1.66776 1.89584 0
M  V30 12263 C 1172.64 2.78156 -1.14236 0
M  V30 12264 C 1174.19 2.91967 -1.12803 0
M  V30 12265 C 1174.66 4.18066 -1.87042 0
M  V30 12266 N 1176.15 4.25052 -1.84078 0
M  V30 12267 C 1176.89 5.21514 -2.38349 0
M  V30 12268 N 1176.39 6.23924 -3.01149 0
M  V30 12269 N 1178.18 5.13548 -2.28528 0
M  V30 12270 H 1170.33 1.30412 -1.6765 0
M  V30 12271 H 1172.59 0.630147 -0.70825 0
M  V30 12272 H 1172.3 2.74643 -2.19691 0
M  V30 12273 H 1172.17 3.70074 -0.729731 0
M  V30 12274 H 1174.56 2.94987 -0.0816956 0
M  V30 12275 H 1174.64 2.01185 -1.57982 0
M  V30 12276 H 1174.28 4.15808 -2.91662 0
M  V30 12277 H 1174.21 5.07845 -1.39287 0
M  V30 12278 H 1176.71 3.51682 -1.38305 0
M  V30 12279 H 1177.02 6.93942 -3.40094 0
M  V30 12280 H 1175.36 6.24387 -3.05231 0
M  V30 12281 H 1178.55 4.3247 -1.79129 0
M  V30 12282 H 1178.73 5.88553 -2.71126 0
M  V30 12283 N 1172.13 0.454803 1.50895 0
M  V30 12284 C 1173.54 -0.00421212 1.867 0
M  V30 12285 C 1173.9 -1.4037 1.3708 0
M  V30 12286 O 1173.02 -2.03755 0.728884 0
M  V30 12287 C 1173.62 -0.0144196 3.38797 0
M  V30 12288 C 1172.17 -0.417905 3.74073 0
M  V30 12289 C 1171.32 0.37801 2.74711 0
M  V30 12290 H 1174.27 0.669849 1.4387 0
M  V30 12291 H 1174.29 -0.820172 3.71555 0
M  V30 12292 H 1173.81 1.00427 3.74881 0
M  V30 12293 H 1171.91 -1.44155 3.43584 0
M  V30 12294 H 1172.02 -0.130568 4.78922 0
M  V30 12295 H 1170.38 -0.166089 2.54158 0
M  V30 12296 H 1171.17 1.3959 3.13639 0
M  V30 12297 N 1173.61 -1.56489 0.186789 0
M  V30 12298 C 1174.84 -2.02163 -0.463126 0
M  V30 12299 C 1175.26 -1.06612 -1.54969 0
M  V30 12300 O 1174.62 -0.0482139 -1.81236 0
M  V30 12301 C 1174.67 -3.46337 -1.00416 0
M  V30 12302 O 1173.77 -3.53889 -2.11747 0
M  V30 12303 H 1173.11 -0.65496 -0.109194 0
M  V30 12304 H 1175.64 -2.02459 0.295227 0
M  V30 12305 H 1175.65 -3.85959 -1.32287 0
M  V30 12306 H 1174.33 -4.15376 -0.208693 0
M  V30 12307 H 1172.9 -3.26136 -1.80803 0
M  V30 12308 N 1175.09 0.086862 -1.5736 0
M  V30 12309 C 1176.34 0.78884 -1.86504 0
M  V30 12310 C 1176.66 1.78329 -0.77646 0
M  V30 12311 O 1175.92 1.94354 0.229122 0
M  V30 12312 C 1176.22 1.54537 -3.22263 0
M  V30 12313 C 1175.88 0.692284 -4.45554 0
M  V30 12314 C 1174.55 0.45714 -4.79024 0
M  V30 12315 C 1176.9 0.0997695 -5.21105 0
M  V30 12316 C 1174.23 -0.380247 -5.85466 0
M  V30 12317 C 1176.58 -0.724986 -6.28432 0
M  V30 12318 C 1175.24 -0.970144 -6.60412 0
M  V30 12319 H 1174.51 0.288657 -0.682465 0
M  V30 12320 H 1177.16 0.050059 -1.91435 0
M  V30 12321 H 1175.46 2.35594 -3.13053 0
M  V30 12322 H 1177.16 2.09305 -3.42042 0
M  V30 12323 H 1173.75 0.885675 -4.19349 0
M  V30 12324 H 1177.94 0.268583 -4.95573 0
M  V30 12325 H 1173.19 -0.579084 -6.08651 0
M  V30 12326 H 1177.37 -1.19093 -6.86141 0
M  V30 12327 H 1174.99 -1.6208 -7.42721 0
M  V30 12328 N 1176.57 1.53483 0.357892 0
M  V30 12329 C 1177.8 1.73956 1.12013 0
M  V30 12330 C 1178.21 0.472053 1.82803 0
M  V30 12331 O 1177.57 -0.555499 1.7384 0
M  V30 12332 C 1177.62 2.91015 2.14459 0
M  V30 12333 O 1177.34 4.12862 1.4655 0
M  V30 12334 C 1178.84 3.23423 3.0317 0
M  V30 12335 H 1176.06 0.58161 0.334621 0
M  V30 12336 H 1178.6 2.00256 0.414467 0
M  V30 12337 H 1176.76 2.67087 2.80612 0
M  V30 12338 H 1177.17 4.78468 2.14869 0
M  V30 12339 H 1178.65 4.08717 3.71018 0
M  V30 12340 H 1179.12 2.39114 3.68404 0
M  V30 12341 H 1179.73 3.49305 2.42624 0
M  V30 12342 N 1178.05 -0.61812 1.44973 0
M  V30 12343 C 1178.96 -1.7579 1.55355 0
M  V30 12344 C 1179.97 -1.68384 0.438512 0
M  V30 12345 O 1181.15 -1.88928 0.697715 0
M  V30 12346 C 1178.21 -3.1222 1.50729 0
M  V30 12347 C 1177.27 -3.3116 2.73188 0
M  V30 12348 C 1176.51 -4.61082 2.68774 0
M  V30 12349 O 1176.73 -5.42728 1.75507 0
M  V30 12350 O 1175.66 -4.82506 3.59821 0
M  V30 12351 H 1179.49 -1.69983 2.51674 0
M  V30 12352 H 1177.07 -0.780934 1.27365 0
M  V30 12353 H 1178.96 -3.93524 1.5072 0
M  V30 12354 H 1177.63 -3.18541 0.575587 0
M  V30 12355 H 1176.54 -2.49485 2.78762 0
M  V30 12356 H 1177.87 -3.29709 3.65449 0
M  V30 12357 N 1179.52 -1.32087 -0.859693 0
M  V30 12358 C 1180.45 -1.23204 -1.98351 0
M  V30 12359 C 1181.43 -0.116974 -1.69697 0
M  V30 12360 O 1182.62 -0.303301 -1.91817 0
M  V30 12361 C 1179.75 -0.949171 -3.34078 0
M  V30 12362 C 1178.7 -2.02493 -3.77069 0
M  V30 12363 C 1178.03 -1.59455 -5.1037 0
M  V30 12364 C 1179.33 -3.43934 -3.93074 0
M  V30 12365 H 1181.02 -2.17227 -2.0604 0
M  V30 12366 H 1178.57 -1.04577 -0.989931 0
M  V30 12367 H 1180.52 -0.873594 -4.12245 0
M  V30 12368 H 1179.25 0.0267095 -3.26589 0
M  V30 12369 H 1177.91 -2.09057 -3.01149 0
M  V30 12370 H 1177.55 -0.606256 -4.99333 0
M  V30 12371 H 1177.25 -2.31429 -5.40106 0
M  V30 12372 H 1178.78 -1.53325 -5.91036 0
M  V30 12373 H 1180.19 -3.39986 -4.61608 0
M  V30 12374 H 1178.59 -4.14214 -4.3422 0
M  V30 12375 H 1179.66 -3.83965 -2.9614 0
M  V30 12376 N 1181 1.07532 -1.15215 0
M  V30 12377 C 1182.42 1.32183 -0.894411 0
M  V30 12378 C 1182.62 1.96188 0.459614 0
M  V30 12379 O 1181.67 2.22057 1.20195 0
M  V30 12380 C 1182.99 2.21473 -2.03397 0
M  V30 12381 C 1184.53 2.34927 -2.06829 0
M  V30 12382 C 1185.01 3.27564 -3.20103 0
M  V30 12383 N 1186.5 3.35144 -3.19738 0
M  V30 12384 C 1187.24 4.0688 -4.04025 0
M  V30 12385 N 1186.73 4.81246 -4.98371 0
M  V30 12386 N 1188.52 4.02802 -3.92055 0
M  V30 12387 H 1180.68 0.643732 -2.0241 0
M  V30 12388 H 1182.94 0.346272 -0.882496 0
M  V30 12389 H 1182.64 1.81701 -3.01127 0
M  V30 12390 H 1182.52 3.2199 -1.96475 0
M  V30 12391 H 1184.91 2.73953 -1.09699 0
M  V30 12392 H 1184.99 1.34121 -2.17819 0
M  V30 12393 H 1184.63 2.89258 -4.17483 0
M  V30 12394 H 1184.56 4.2832 -3.06349 0
M  V30 12395 H 1187.05 2.82135 -2.51412 0
M  V30 12396 H 1187.36 5.33472 -5.59131 0
M  V30 12397 H 1185.71 4.80268 -5.02362 0
M  V30 12398 H 1188.9 3.43816 -3.17661 0
M  V30 12399 H 1189.07 4.58443 -4.57967 0
M  V30 12400 N 1182.48 0.948665 1.2585 0
M  V30 12401 C 1183.39 0.470525 2.29833 0
M  V30 12402 C 1184.41 -0.45919 1.67832 0
M  V30 12403 O 1185.58 -0.336893 1.98562 0
M  V30 12404 C 1182.65 -0.249635 3.458 0
M  V30 12405 C 1181.71 0.717559 4.23261 0
M  V30 12406 C 1180.94 0.0316724 5.33691 0
M  V30 12407 O 1181.16 -1.18384 5.5798 0
M  V30 12408 O 1180.1 0.71418 5.97648 0
M  V30 12409 H 1183.92 1.33447 2.72811 0
M  V30 12410 H 1181.51 0.714864 1.31187 0
M  V30 12411 H 1183.39 -0.654993 4.16279 0
M  V30 12412 H 1182.07 -1.08885 3.04837 0
M  V30 12413 H 1180.97 1.17301 3.55234 0
M  V30 12414 H 1182.31 1.52461 4.67992 0
M  V30 12415 N 1183.96 -1.40369 0.716545 0
M  V30 12416 C 1185.24 -1.94737 0.183576 0
M  V30 12417 C 1185.62 -1.65464 -1.31092 0
M  V30 12418 O 1184.96 -0.972832 -2.06756 0
M  V30 12419 C 1185.17 -3.45438 0.497339 0
M  V30 12420 C 1186.52 -4.2235 0.436526 0
M  V30 12421 O 1187.55 -3.53553 0.433454 0
M  V30 12422 O 1186.4 -5.44923 0.41489 0
M  V30 12423 H 1183.5 -0.82655 0.0272785 0
M  V30 12424 H 1186.04 -1.49972 0.794143 0
M  V30 12425 H 1184.82 -3.60107 1.53097 0
M  V30 12426 H 1184.44 -3.97342 -0.143141 0
M  V30 12427 N 1185.44 -0.462799 -1.50652 0
M  V30 12428 C 1186.37 0.325724 -2.31217 0
M  V30 12429 C 1187.35 0.997942 -1.3775 0
M  V30 12430 O 1188.53 0.996707 -1.66671 0
M  V30 12431 C 1185.66 1.41283 -3.17264 0
M  V30 12432 C 1184.62 0.862687 -4.19216 0
M  V30 12433 C 1183.94 2.04746 -4.93946 0
M  V30 12434 C 1185.24 -0.120365 -5.22161 0
M  V30 12435 H 1186.94 -0.346666 -2.97386 0
M  V30 12436 H 1184.48 -0.168163 -1.43015 0
M  V30 12437 H 1186.44 1.97188 -3.72418 0
M  V30 12438 H 1185.16 2.11387 -2.48964 0
M  V30 12439 H 1183.82 0.325671 -3.65151 0
M  V30 12440 H 1183.47 2.73529 -4.22127 0
M  V30 12441 H 1183.17 1.68562 -5.62904 0
M  V30 12442 H 1184.69 2.61157 -5.51932 0
M  V30 12443 H 1186.1 0.349226 -5.72235 0
M  V30 12444 H 1184.5 -0.396061 -5.98792 0
M  V30 12445 H 1185.57 -1.04895 -4.73418 0
M  V30 12446 N 1186.91 1.56388 -0.195085 0
M  V30 12447 C 1187.82 2.22698 0.737743 0
M  V30 12448 C 1188.84 1.22605 1.23466 0
M  V30 12449 O 1190.02 1.55342 1.28183 0
M  V30 12450 C 1187.08 2.87333 1.94011 0
M  V30 12451 C 1186.14 4.02696 1.48776 0
M  V30 12452 C 1185.38 4.64239 2.63282 0
M  V30 12453 O 1185.6 4.24706 3.80763 0
M  V30 12454 O 1184.53 5.53705 2.35996 0
M  V30 12455 H 1188.36 3.03021 0.203013 0
M  V30 12456 H 1185.94 1.49361 0.0342044 0
M  V30 12457 H 1187.83 3.28226 2.64284 0
M  V30 12458 H 1186.5 2.0999 2.46345 0
M  V30 12459 H 1185.41 3.66426 0.753839 0
M  V30 12460 H 1186.74 4.81703 1.01109 0
M  V30 12461 N 1188.39 -0.0785156 1.57404 0
M  V30 12462 C 1189.34 -1.11278 2.04255 0
M  V30 12463 C 1190.33 -1.40482 0.946633 0
M  V30 12464 O 1191.54 -1.39968 1.13177 0
M  V30 12465 H 1187.92 -0.376157 0.65116 0
M  V30 12466 H 1189.89 -0.691437 2.90279 0
M  V30 12467 C 1188.64 -2.42006 2.49656 0
M  V30 12468 H 1187.96 -2.20383 3.33574 0
M  V30 12469 H 1189.4 -3.12837 2.86197 0
M  V30 12470 C 1187.86 -3.07488 1.37669 0
M  V30 12471 O 1188.39 -3.95285 0.715036 0
M  V30 12472 N 1186.59 -2.68004 1.1235 0
M  V30 12473 H 1186.14 -1.96698 1.66336 0
M  V30 12474 H 1186.1 -3.12141 0.376238 0
M  V30 12475 N 1189.87 -1.5367 -0.349747 0
M  V30 12476 C 1191.1 -1.74547 -1.11089 0
M  V30 12477 C 1191.51 -0.481741 -1.82551 0
M  V30 12478 O 1190.87 0.546272 -1.74132 0
M  V30 12479 C 1190.92 -2.92148 -2.12913 0
M  V30 12480 O 1190.64 -4.13633 -1.44358 0
M  V30 12481 C 1192.14 -3.25027 -3.01451 0
M  V30 12482 H 1189.36 -0.583376 -0.331532 0
M  V30 12483 H 1191.91 -2.00473 -0.403841 0
M  V30 12484 H 1190.06 -2.68572 -2.79192 0
M  V30 12485 H 1190.48 -4.79601 -2.12329 0
M  V30 12486 H 1191.95 -4.10679 -3.68845 0
M  V30 12487 H 1192.43 -2.41064 -3.67131 0
M  V30 12488 H 1193.03 -3.50586 -2.40768 0
M  V30 12489 N 1191.35 0.610423 -1.45298 0
M  V30 12490 C 1192.28 1.73207 -1.56594 0
M  V30 12491 C 1193.26 1.64893 -0.417651 0
M  V30 12492 O 1194.44 1.83336 -0.64043 0
M  V30 12493 C 1191.57 3.11803 -1.52959 0
M  V30 12494 C 1190.53 3.34925 -2.66475 0
M  V30 12495 C 1189.85 4.73764 -2.47894 0
M  V30 12496 C 1191.15 3.25456 -4.08504 0
M  V30 12497 H 1192.85 1.6401 -2.50482 0
M  V30 12498 H 1190.39 0.787621 -1.20551 0
M  V30 12499 H 1192.35 3.90065 -1.59458 0
M  V30 12500 H 1191.07 3.21833 -0.55599 0
M  V30 12501 H 1189.73 2.59051 -2.59399 0
M  V30 12502 H 1189.38 4.80524 -1.4868 0
M  V30 12503 H 1189.08 4.90191 -3.24016 0
M  V30 12504 H 1190.6 5.54231 -2.56243 0
M  V30 12505 H 1192.02 3.93597 -4.16839 0
M  V30 12506 H 1190.41 3.53414 -4.84994 0
M  V30 12507 H 1191.48 2.22939 -4.30612 0
M  V30 12508 N 1192.83 1.32541 0.852676 0
M  V30 12509 C 1193.77 1.21643 1.96142 0
M  V30 12510 C 1194.74 0.0981496 1.6581 0
M  V30 12511 O 1195.93 0.27404 1.88822 0
M  V30 12512 C 1193.07 0.947483 3.31838 0
M  V30 12513 C 1192.18 2.15074 3.74656 0
M  V30 12514 C 1191.32 1.81711 4.99154 0
M  V30 12515 C 1190.36 2.98346 5.34468 0
M  V30 12516 N 1189.49 2.65062 6.50143 0
M  V30 12517 H 1194.33 2.16479 2.04795 0
M  V30 12518 H 1191.87 1.07664 1.00234 0
M  V30 12519 H 1193.83 0.772038 4.09994 0
M  V30 12520 H 1192.46 0.0359112 3.2278 0
M  V30 12521 H 1191.51 2.43639 2.92137 0
M  V30 12522 H 1192.82 3.02314 3.96747 0
M  V30 12523 H 1191.98 1.60729 5.85022 0
M  V30 12524 H 1190.71 0.916875 4.79004 0
M  V30 12525 H 1189.72 3.19956 4.47111 0
M  V30 12526 H 1190.94 3.89104 5.56574 0
M  V30 12527 H 1188.89 1.77582 6.31507 0
M  V30 12528 H 1188.81 3.45832 6.72262 0
M  V30 12529 H 1190.08 2.47516 7.39159 0
M  V30 12530 N 1194.3 -1.0692 1.15784 0
M  V30 12531 C 1195.27 -2.12407 0.861167 0
M  V30 12532 C 1196.27 -1.6018 -0.141031 0
M  V30 12533 O 1197.46 -1.73972 0.0891192 0
M  V30 12534 C 1194.59 -3.39693 0.286636 0
M  V30 12535 H 1195.78 -2.40157 1.79623 0
M  V30 12536 H 1193.34 -1.22881 0.965916 0
M  V30 12537 H 1194.07 -3.17587 -0.656417 0
M  V30 12538 H 1193.86 -3.78903 1.0087 0
M  V30 12539 H 1195.35 -4.17488 0.0967971 0
M  V30 12540 N 1195.78 -0.955326 -1.25345 0
M  V30 12541 C 1196.71 -0.494145 -2.28211 0
M  V30 12542 C 1197.69 0.459875 -1.63766 0
M  V30 12543 O 1198.88 0.358679 -1.90859 0
M  V30 12544 C 1196.01 0.228228 -3.46549 0
M  V30 12545 C 1194.96 -0.640601 -4.23179 0
M  V30 12546 C 1194.29 0.212553 -5.34277 0
M  V30 12547 C 1195.59 -1.91906 -4.85767 0
M  V30 12548 H 1197.28 -1.35391 -2.67039 0
M  V30 12549 H 1194.83 -0.652462 -1.2837 0
M  V30 12550 H 1196.78 0.561995 -4.17636 0
M  V30 12551 H 1195.51 1.12224 -3.06714 0
M  V30 12552 H 1194.16 -0.957462 -3.53876 0
M  V30 12553 H 1193.81 1.10634 -4.90682 0
M  V30 12554 H 1193.51 -0.365473 -5.86462 0
M  V30 12555 H 1195.04 0.541271 -6.08196 0
M  V30 12556 H 1196.45 -1.65165 -5.48993 0
M  V30 12557 H 1194.85 -2.44279 -5.48131 0
M  V30 12558 H 1195.92 -2.62173 -4.07914 0
M  V30 12559 N 1197.26 1.39987 -0.723979 0
M  V30 12560 C 1198.67 1.83606 -0.338461 0
M  V30 12561 C 1199.02 1.6051 1.12831 0
M  V30 12562 O 1198.15 1.09041 1.8692 0
M  V30 12563 C 1198.74 3.33308 -0.607533 0
M  V30 12564 C 1197.3 3.75389 -0.275632 0
M  V30 12565 C 1196.45 2.6311 -0.875699 0
M  V30 12566 H 1199.4 1.29135 -0.922483 0
M  V30 12567 H 1199.42 3.80297 0.124424 0
M  V30 12568 H 1198.93 3.50087 -1.67514 0
M  V30 12569 H 1197.03 3.64203 0.786579 0
M  V30 12570 H 1197.15 4.73185 -0.750492 0
M  V30 12571 H 1195.51 2.5289 -0.303122 0
M  V30 12572 H 1196.29 2.82698 -1.94774 0
M  V30 12573 N 1198.74 0.470782 1.50404 0
M  V30 12574 C 1200.15 0.0155901 1.86693 0
M  V30 12575 C 1200.5 -1.38908 1.38561 0
M  V30 12576 O 1199.63 -2.02971 0.750454 0
M  V30 12577 C 1200.22 0.0215152 3.38793 0
M  V30 12578 C 1198.78 -0.378206 3.74495 0
M  V30 12579 C 1197.93 0.407126 2.74295 0
M  V30 12580 H 1200.88 0.68507 1.43152 0
M  V30 12581 H 1200.9 -0.780717 3.72404 0
M  V30 12582 H 1200.41 1.04397 3.73795 0
M  V30 12583 H 1198.51 -1.40503 3.45094 0
M  V30 12584 H 1198.63 -0.0797643 4.79034 0
M  V30 12585 H 1196.99 -0.139123 2.5432 0
M  V30 12586 H 1197.77 1.42909 3.12141 0
M  V30 12587 N 1200.22 -1.56282 0.203376 0
M  V30 12588 C 1201.18 -2.18233 -0.700489 0
M  V30 12589 C 1202.18 -1.13908 -1.13497 0
M  V30 12590 O 1203.37 -1.39246 -1.04672 0
M  V30 12591 C 1200.5 -2.79107 -1.95735 0
M  V30 12592 H 1201.7 -2.99469 -0.160649 0
M  V30 12593 H 1199.25 -1.56232 -0.0462475 0
M  V30 12594 H 1199.98 -2.01691 -2.53951 0
M  V30 12595 H 1199.77 -3.55486 -1.65446 0
M  V30 12596 H 1201.26 -3.2665 -2.60172 0
M  V30 12597 N 1201.7 0.070167 -1.57444 0
M  V30 12598 C 1202.63 1.10996 -2.0053 0
M  V30 12599 C 1203.64 1.3489 -0.91151 0
M  V30 12600 O 1204.83 1.33102 -1.18938 0
M  V30 12601 C 1201.93 2.46053 -2.33048 0
M  V30 12602 C 1201.1 2.42092 -3.64294 0
M  V30 12603 C 1200.16 3.5927 -3.84463 0
M  V30 12604 O 1199.19 3.40625 -4.5603 0
M  V30 12605 N 1200.39 4.79677 -3.26941 0
M  V30 12606 H 1203.15 0.743029 -2.90343 0
M  V30 12607 H 1200.72 0.258794 -1.59818 0
M  V30 12608 H 1202.71 3.23089 -2.43712 0
M  V30 12609 H 1201.28 2.74742 -1.49116 0
M  V30 12610 H 1200.5 1.5043 -3.64368 0
M  V30 12611 H 1201.79 2.36548 -4.50469 0
M  V30 12612 H 1201.18 4.97729 -2.68855 0
M  V30 12613 H 1199.74 5.54219 -3.43051 0
M  V30 12614 N 1203.17 1.53854 0.341593 0
M  V30 12615 C 1204.08 1.84975 1.44297 0
M  V30 12616 C 1205.1 0.740057 1.57477 0
M  V30 12617 O 1206.28 1.03256 1.72917 0
M  V30 12618 C 1203.34 2.05464 2.79259 0
M  V30 12619 C 1202.4 3.29318 2.75405 0
M  V30 12620 C 1201.63 3.4882 4.03931 0
M  V30 12621 O 1201.86 2.7212 5.01305 0
M  V30 12622 O 1200.79 4.42253 4.08284 0
M  V30 12623 H 1204.62 2.78592 1.20913 0
M  V30 12624 H 1202.2 1.39532 0.533953 0
M  V30 12625 H 1204.08 2.20374 3.59184 0
M  V30 12626 H 1202.76 1.15035 3.0257 0
M  V30 12627 H 1201.67 3.1981 1.94094 0
M  V30 12628 H 1203 4.19746 2.57049 0
M  V30 12629 N 1204.65 -0.602709 1.4562 0
M  V30 12630 C 1206.06 -1.1847 1.44297 0
M  V30 12631 C 1206.41 -1.95434 0.17316 0
M  V30 12632 O 1205.54 -2.03894 -0.724986 0
M  V30 12633 C 1206.13 -2.15508 2.61422 0
M  V30 12634 C 1204.69 -2.69073 2.63204 0
M  V30 12635 C 1203.84 -1.44568 2.36633 0
M  V30 12636 H 1206.79 -0.391745 1.53789 0
M  V30 12637 H 1206.81 -2.98628 2.35799 0
M  V30 12638 H 1206.32 -1.59464 3.53826 0
M  V30 12639 H 1204.42 -3.29042 1.7482 0
M  V30 12640 H 1204.54 -3.13173 3.62573 0
M  V30 12641 H 1202.9 -1.73692 1.86287 0
M  V30 12642 H 1203.68 -0.903852 3.31188 0
M  V30 12643 N 1206.13 -1.32992 -0.845635 0
M  V30 12644 C 1207.41 -1.14671 -1.58461 0
M  V30 12645 C 1207.79 0.289498 -2.09106 0
M  V30 12646 O 1207.13 1.28751 -1.88773 0
M  V30 12647 C 1207.34 -2.18206 -2.72373 0
M  V30 12648 C 1208.69 -2.5201 -3.41726 0
M  V30 12649 O 1209.72 -2.16821 -2.82608 0
M  V30 12650 O 1208.58 -3.12368 -4.48429 0
M  V30 12651 H 1205.67 -0.443088 -0.698285 0
M  V30 12652 H 1208.22 -1.44552 -0.888978 0
M  V30 12653 H 1206.99 -3.14707 -2.32541 0
M  V30 12654 H 1206.61 -1.89372 -3.49605 0
M  V30 12655 N 1207.61 1.06304 -1.1635 0
M  V30 12656 C 1208.52 2.17296 -0.884289 0
M  V30 12657 C 1209.53 1.73408 0.143414 0
M  V30 12658 O 1210.71 2.01373 -0.0331987 0
M  V30 12659 C 1207.77 3.44509 -0.389163 0
M  V30 12660 C 1206.84 4.02906 -1.48208 0
M  V30 12661 C 1206.07 5.24047 -1.01048 0
M  V30 12662 O 1206.29 5.70229 0.139821 0
M  V30 12663 O 1205.23 5.74394 -1.79876 0
M  V30 12664 H 1209.05 2.4369 -1.81243 0
M  V30 12665 H 1206.64 1.15841 -0.943459 0
M  V30 12666 H 1208.52 4.21229 -0.120018 0
M  V30 12667 H 1207.19 3.19642 0.510968 0
M  V30 12668 H 1206.1 3.27677 -1.80496 0
M  V30 12669 H 1207.43 4.32068 -2.35751 0
M  V30 12670 N 1209.09 0.96196 1.24836 0
M  V30 12671 C 1210.33 0.616342 1.92052 0
M  V30 12672 C 1210.65 -0.851601 1.76088 0
M  V30 12673 O 1211.85 -1.3075 2.37943 0
M  V30 12674 C 1210.31 1.05168 3.44191 0
M  V30 12675 C 1209.92 2.54268 3.68852 0
M  V30 12676 C 1211.66 0.778938 4.17292 0
M  V30 12677 C 1209.57 2.91564 5.14533 0
M  V30 12678 H 1208.5 0.22681 0.719078 0
M  V30 12679 H 1211.15 1.1674 1.41577 0
M  V30 12680 H 1209.53 0.428979 3.9367 0
M  V30 12681 H 1210.71 3.21619 3.29997 0
M  V30 12682 H 1209.02 2.79091 3.09026 0
M  V30 12683 H 1211.62 1.03366 5.24614 0
M  V30 12684 H 1211.96 -0.284772 4.15325 0
M  V30 12685 H 1212.49 1.36233 3.73745 0
M  V30 12686 H 1209.23 3.96982 5.21618 0
M  V30 12687 H 1208.75 2.28892 5.54408 0
M  V30 12688 H 1210.43 2.81155 5.82718 0
M  V30 12689 N 1210.56 -1.39601 0.731392 0
M  V30 12690 C 1211.49 -2.33268 0.1041 0
M  V30 12691 C 1212.47 -1.53724 -0.728219 0
M  V30 12692 O 1213.66 -1.82131 -0.673933 0
M  V30 12693 C 1210.79 -3.37802 -0.806646 0
M  V30 12694 C 1209.74 -4.27928 -0.0787588 0
M  V30 12695 C 1209.07 -5.23131 -1.10628 0
M  V30 12696 C 1210.37 -5.11086 1.07651 0
M  V30 12697 H 1212.06 -2.85975 0.886496 0
M  V30 12698 H 1209.61 -1.375 0.427746 0
M  V30 12699 H 1211.56 -4.02278 -1.25499 0
M  V30 12700 H 1210.29 -2.83527 -1.62112 0
M  V30 12701 H 1208.95 -3.64926 0.349926 0
M  V30 12702 H 1208.59 -4.65152 -1.91422 0
M  V30 12703 H 1208.29 -5.84277 -0.624043 0
M  V30 12704 H 1209.82 -5.90483 -1.5544 0
M  V30 12705 H 1211.23 -5.68927 0.706781 0
M  V30 12706 H 1209.63 -5.81356 1.48814 0
M  V30 12707 H 1210.7 -4.46131 1.89988 0
M  V30 12708 N 1212.04 -0.478751 -1.50152 0
M  V30 12709 C 1213.27 0.0709455 -2.06478 0
M  V30 12710 C 1213.68 1.33376 -1.34192 0
M  V30 12711 O 1213.02 1.79133 -0.40707 0
M  V30 12712 C 1213.09 0.417322 -3.5707 0
M  V30 12713 C 1212.75 -0.744563 -4.50894 0
M  V30 12714 C 1213.75 -1.62879 -4.93727 0
M  V30 12715 C 1211.43 -0.937062 -4.93482 0
M  V30 12716 C 1213.43 -2.68985 -5.77863 0
M  V30 12717 C 1211.11 -2.00134 -5.77399 0
M  V30 12718 C 1212.11 -2.87609 -6.19492 0
M  V30 12719 O 1211.8 -3.92203 -7.01735 0
M  V30 12720 H 1211.53 -0.00720177 -0.675962 0
M  V30 12721 H 1214.08 -0.668797 -1.94207 0
M  V30 12722 H 1212.31 1.21036 -3.6727 0
M  V30 12723 H 1214 0.903002 -3.95728 0
M  V30 12724 H 1214.77 -1.49179 -4.61488 0
M  V30 12725 H 1210.65 -0.265636 -4.60234 0
M  V30 12726 H 1214.19 -3.37293 -6.10639 0
M  V30 12727 H 1210.09 -2.13837 -6.09052 0
M  V30 12728 H 1210.86 -3.89284 -7.2 0
M  V30 12729 N 1213.52 1.56172 -0.211661 0
M  V30 12730 C 1214.77 1.98332 0.423332 0
M  V30 12731 C 1215.1 1.09895 1.60115 0
M  V30 12732 O 1214.37 0.154477 1.93886 0
M  V30 12733 C 1214.66 3.49495 0.86747 0
M  V30 12734 C 1214.51 4.48708 -0.313302 0
M  V30 12735 C 1215.83 4.04793 1.72716 0
M  V30 12736 H 1212.95 0.72107 0.152402 0
M  V30 12737 H 1215.59 1.87521 -0.305912 0
M  V30 12738 H 1213.74 3.58839 1.48885 0
M  V30 12739 H 1215.41 4.51385 -0.951291 0
M  V30 12740 H 1213.66 4.2299 -0.96238 0
M  V30 12741 H 1214.33 5.51985 0.0402402 0
M  V30 12742 H 1216.8 3.98332 1.20296 0
M  V30 12743 H 1215.68 5.10898 2.00684 0
M  V30 12744 H 1215.94 3.51067 2.68709 0
M  V30 12745 N 1215 -0.0618163 1.57479 0
M  V30 12746 C 1215.95 -1.09105 2.05424 0
M  V30 12747 C 1216.94 -1.3947 0.961479 0
M  V30 12748 O 1218.15 -1.3876 1.14655 0
M  V30 12749 H 1214.52 -0.36923 0.655113 0
M  V30 12750 H 1216.49 -0.66061 2.90996 0
M  V30 12751 C 1215.24 -2.39345 2.52209 0
M  V30 12752 H 1214.56 -2.16832 3.35893 0
M  V30 12753 H 1216 -3.09784 2.89499 0
M  V30 12754 C 1214.46 -3.06011 1.40922 0
M  V30 12755 O 1214.99 -3.94504 0.756921 0
M  V30 12756 N 1213.2 -2.66797 1.15186 0
M  V30 12757 H 1212.75 -1.94923 1.68412 0
M  V30 12758 H 1212.7 -3.11724 0.409324 0
M  V30 12759 N 1216.48 -1.54033 -0.333429 0
M  V30 12760 C 1217.41 -1.7756 -1.43345 0
M  V30 12761 C 1218.39 -0.625126 -1.50103 0
M  V30 12762 O 1219.57 -0.861444 -1.67665 0
M  V30 12763 C 1216.7 -1.88332 -2.81511 0
M  V30 12764 C 1215.74 -3.10556 -2.92331 0
M  V30 12765 S 1216.58 -4.69385 -2.57755 0
M  V30 12766 C 1217.73 -4.8305 -3.98011 0
M  V30 12767 H 1217.97 -2.70584 -1.23172 0
M  V30 12768 H 1215.5 -1.4503 -0.529691 0
M  V30 12769 H 1217.46 -1.95224 -3.61106 0
M  V30 12770 H 1216.12 -0.963031 -2.98972 0
M  V30 12771 H 1215.31 -3.14798 -3.93596 0
M  V30 12772 H 1214.91 -3.01943 -2.20696 0
M  V30 12773 H 1217.21 -4.65081 -4.92652 0
M  V30 12774 H 1218.15 -5.85148 -3.98757 0
M  V30 12775 H 1218.56 -4.11427 -3.86507 0
M  V30 12776 N 1217.95 0.594978 -1.45938 0
M  V30 12777 C 1219.23 1.35477 -1.41086 0
M  V30 12778 C 1219.61 2.10917 -0.0879512 0
M  V30 12779 O 1218.96 2.08704 0.930323 0
M  V30 12780 C 1219.17 2.29106 -2.63271 0
M  V30 12781 C 1220.52 2.9132 -3.08898 0
M  V30 12782 O 1221.54 2.39423 -2.63733 0
M  V30 12783 O 1220.4 3.85553 -3.87313 0
M  V30 12784 H 1217.49 0.6081 -0.560485 0
M  V30 12785 H 1220.04 0.617016 -1.58085 0
M  V30 12786 H 1218.81 1.72707 -3.51124 0
M  V30 12787 H 1218.44 3.10241 -2.48669 0
M  V30 12788 N 1219.43 1.33438 0.838571 0
M  V30 12789 C 1220.34 1.25753 1.98049 0
M  V30 12790 C 1221.36 0.168051 1.73187 0
M  V30 12791 O 1222.53 0.391691 1.97554 0
M  V30 12792 C 1219.6 0.997148 3.32051 0
M  V30 12793 C 1218.66 2.17667 3.70027 0
M  V30 12794 C 1217.89 1.92861 4.97635 0
M  V30 12795 O 1218.12 0.879072 5.63585 0
M  V30 12796 O 1217.05 2.79402 5.33121 0
M  V30 12797 H 1220.88 2.21786 2.07472 0
M  V30 12798 H 1218.46 1.13488 0.971645 0
M  V30 12799 H 1220.34 0.869099 4.1234 0
M  V30 12800 H 1219.02 0.0671036 3.2363 0
M  V30 12801 H 1217.93 2.36025 2.90246 0
M  V30 12802 H 1219.26 3.09006 3.83114 0
M  V30 12803 N 1220.91 -1.05686 1.16912 0
M  V30 12804 C 1222.16 -1.78244 0.95254 0
M  V30 12805 C 1222.48 -1.87924 -0.520525 0
M  V30 12806 O 1221.75 -1.39239 -1.37802 0
M  V30 12807 H 1220.33 -0.660228 0.349439 0
M  V30 12808 H 1222.99 -1.27634 1.47294 0
M  V30 12809 H 1222.09 -2.80102 1.37657 0
M  V30 12810 N 1222.39 -0.968567 -1.24324 0
M  V30 12811 C 1223.64 -0.629682 -1.9204 0
M  V30 12812 C 1223.96 0.837906 -1.7608 0
M  V30 12813 O 1223.23 1.5982 -1.13289 0
M  V30 12814 H 1221.81 -0.229901 -0.710742 0
M  V30 12815 H 1224.47 -1.22982 -1.512 0
M  V30 12816 H 1223.57 -0.871034 -2.99699 0
M  V30 12817 N 1223.87 1.39211 -0.738786 0
M  V30 12818 C 1225.11 2.0004 -0.28782 0
M  V30 12819 C 1225.44 1.58921 1.13 0
M  V30 12820 O 1224.71 0.839193 1.77015 0
M  V30 12821 H 1223.29 0.739805 -0.103425 0
M  V30 12822 H 1225.95 1.70202 -0.949587 0
M  V30 12823 H 1225.04 3.10251 -0.339208 0
M  V30 12824 N 1225.34 0.486708 1.49896 0
M  V30 12825 C 1226.57 -0.0599944 2.06513 0
M  V30 12826 C 1226.98 -1.32662 1.34898 0
M  V30 12827 O 1226.33 -1.78915 0.416565 0
M  V30 12828 C 1226.39 -0.39838 3.57286 0
M  V30 12829 C 1226.05 0.768465 4.50493 0
M  V30 12830 C 1227.05 1.65495 4.92856 0
M  V30 12831 C 1224.73 0.96322 4.92978 0
M  V30 12832 C 1226.73 2.72046 5.76429 0
M  V30 12833 C 1224.41 2.03193 5.7633 0
M  V30 12834 C 1225.41 2.9089 6.17958 0
M  V30 12835 O 1225.1 3.95919 6.99645 0
M  V30 12836 H 1224.83 0.0107865 0.675914 0
M  V30 12837 H 1227.39 0.679087 1.93849 0
M  V30 12838 H 1225.62 -1.19086 3.67907 0
M  V30 12839 H 1227.31 -0.882003 3.96201 0
M  V30 12840 H 1228.07 1.51624 4.6069 0
M  V30 12841 H 1223.95 0.29004 4.60087 0
M  V30 12842 H 1227.49 3.40526 6.08841 0
M  V30 12843 H 1223.39 2.17064 6.07909 0
M  V30 12844 H 1224.16 3.93097 7.17925 0
M  V30 12845 N 1226.82 -1.56058 0.219941 0
M  V30 12846 C 1228.23 -1.84462 -0.288203 0
M  V30 12847 C 1228.59 -1.14128 -1.59591 0
M  V30 12848 O 1227.71 -0.410411 -2.12473 0
M  V30 12849 C 1228.31 -3.34634 -0.529689 0
M  V30 12850 C 1226.86 -3.63361 -0.982145 0
M  V30 12851 C 1226.01 -2.77265 -0.0443292 0
M  V30 12852 H 1228.96 -1.52387 0.44317 0
M  V30 12853 H 1228.98 -3.54752 -1.3759 0
M  V30 12854 H 1228.5 -3.85796 0.422243 0
M  V30 12855 H 1226.6 -3.17653 -1.94749 0
M  V30 12856 H 1226.71 -4.71361 -0.857668 0
M  V30 12857 H 1225.07 -2.48672 -0.550825 0
M  V30 12858 H 1225.86 -3.31225 0.902491 0
M  V30 12859 N 1228.3 0.053464 -1.57509 0
M  V30 12860 C 1229.21 1.07902 -2.08313 0
M  V30 12861 C 1230.23 1.41223 -1.01647 0
M  V30 12862 O 1231.4 1.51032 -1.33233 0
M  V30 12863 C 1228.47 2.36813 -2.5322 0
M  V30 12864 C 1227.53 2.10297 -3.74264 0
M  V30 12865 C 1226.76 3.33062 -4.1702 0
M  V30 12866 O 1226.99 4.42857 -3.59491 0
M  V30 12867 O 1225.92 3.20195 -5.09665 0
M  V30 12868 H 1229.75 0.677368 -2.9605 0
M  V30 12869 H 1227.33 0.268838 -1.46961 0
M  V30 12870 H 1229.21 3.12645 -2.82544 0
M  V30 12871 H 1227.89 2.76323 -1.68605 0
M  V30 12872 H 1226.79 1.32111 -3.49996 0
M  V30 12873 H 1228.13 1.75658 -4.59788 0
M  V30 12874 N 1229.78 1.54207 0.325255 0
M  V30 12875 C 1231.19 1.63587 0.899793 0
M  V30 12876 C 1231.54 0.528851 1.88938 0
M  V30 12877 O 1230.67 -0.33852 2.13736 0
M  V30 12878 C 1231.26 2.9653 1.63877 0
M  V30 12879 C 1229.82 3.08111 2.16205 0
M  V30 12880 C 1228.97 2.59144 0.986903 0
M  V30 12881 H 1231.92 1.58366 0.102883 0
M  V30 12882 H 1231.94 2.86595 2.50287 0
M  V30 12883 H 1231.45 3.7708 0.918279 0
M  V30 12884 H 1229.55 2.32232 2.91375 0
M  V30 12885 H 1229.67 4.13885 2.41322 0
M  V30 12886 H 1228.03 2.14997 1.36558 0
M  V30 12887 H 1228.81 3.4215 0.28076 0
M  V30 12888 N 1231.26 -0.58723 1.46251 0
M  V30 12889 C 1232.67 -1.16933 1.45546 0
M  V30 12890 C 1233.02 -1.9524 0.193879 0
M  V30 12891 O 1232.14 -2.04652 -0.70332 0
M  V30 12892 C 1232.74 -2.12723 2.63693 0
M  V30 12893 C 1231.3 -2.66267 2.66043 0
M  V30 12894 C 1230.45 -1.42051 2.38153 0
M  V30 12895 H 1233.4 -0.375411 1.54196 0
M  V30 12896 H 1233.42 -2.96111 2.38953 0
M  V30 12897 H 1232.93 -1.55703 3.55497 0
M  V30 12898 H 1231.03 -3.2717 1.783 0
M  V30 12899 H 1231.14 -3.0931 3.65874 0
M  V30 12900 H 1229.51 -1.71707 1.88119 0
M  V30 12901 H 1230.29 -0.868675 3.32128 0
M  V30 12902 N 1232.74 -1.33881 -0.831482 0
M  V30 12903 C 1233.98 -1.25507 -1.58406 0
M  V30 12904 C 1234.3 0.177137 -1.94194 0
M  V30 12905 O 1233.57 1.10769 -1.61576 0
M  V30 12906 H 1232.15 -0.461551 -0.587349 0
M  V30 12907 H 1234.82 -1.6769 -0.99328 0
M  V30 12908 H 1233.91 -1.85391 -2.51071 0
M  V30 12909 N 1234.21 1.05064 -1.1747 0
M  V30 12910 C 1235.18 2.1101 -0.89485 0
M  V30 12911 C 1236.18 1.60384 0.11553 0
M  V30 12912 O 1237.37 1.73808 -0.116785 0
M  V30 12913 C 1234.5 3.39194 -0.340642 0
M  V30 12914 H 1235.69 2.37269 -1.83421 0
M  V30 12915 H 1233.24 1.21329 -0.985343 0
M  V30 12916 H 1233.98 3.18591 0.605808 0
M  V30 12917 H 1233.76 3.77251 -1.06885 0
M  V30 12918 H 1235.25 4.17281 -0.163204 0
M  V30 12919 N 1235.69 0.975146 1.23809 0
M  V30 12920 C 1236.65 0.516157 2.23312 0
M  V30 12921 C 1237.65 -0.39136 1.55965 0
M  V30 12922 O 1238.84 -0.185783 1.73206 0
M  V30 12923 C 1235.98 -0.251534 3.39971 0
M  V30 12924 H 1237.17 1.3959 2.65433 0
M  V30 12925 H 1234.72 0.760493 1.36551 0
M  V30 12926 H 1235.46 -1.14805 3.03299 0
M  V30 12927 H 1235.24 0.399825 3.90056 0
M  V30 12928 H 1236.73 -0.561438 4.13809 0
M  V30 12929 N 1237.17 -1.38817 0.746158 0
M  V30 12930 C 1238.42 -1.99885 0.298425 0
M  V30 12931 C 1238.74 -1.59518 -1.12156 0
M  V30 12932 O 1238.01 -0.848568 -1.76568 0
M  V30 12933 H 1236.59 -0.739247 0.107347 0
M  V30 12934 H 1239.25 -1.69696 0.9586 0
M  V30 12935 H 1238.35 -3.10067 0.355656 0
M  V30 12936 N 1238.65 -0.49465 -1.49636 0
M  V30 12937 C 1239.9 0.0520143 -2.02033 0
M  V30 12938 C 1240.22 1.38071 -1.37701 0
M  V30 12939 O 1239.49 1.88589 -0.530181 0
M  V30 12940 H 1238.07 0.0222123 -0.74667 0
M  V30 12941 H 1240.73 -0.650445 -1.83726 0
M  V30 12942 H 1239.82 0.186337 -3.11543 0
M  V30 12943 N 1240.13 1.55939 -0.228214 0
M  V30 12944 C 1241.09 2.1932 0.665681 0
M  V30 12945 C 1242.09 1.15699 1.11671 0
M  V30 12946 O 1243.28 1.40893 1.02444 0
M  V30 12947 C 1240.41 2.82185 1.9127 0
M  V30 12948 H 1241.6 2.99687 0.112986 0
M  V30 12949 H 1239.16 1.56285 0.0213865 0
M  V30 12950 H 1239.89 2.05706 2.5071 0
M  V30 12951 H 1239.68 3.58073 1.5977 0
M  V30 12952 H 1241.17 3.30748 2.54942 0
M  V30 12953 N 1241.6 -0.0451101 1.57535 0
M  V30 12954 C 1242.88 -0.773625 1.79651 0
M  V30 12955 C 1243.26 -1.94422 0.822391 0
M  V30 12956 O 1242.61 -2.28077 -0.138913 0
M  V30 12957 C 1242.82 -1.22168 3.26919 0
M  V30 12958 C 1244.17 -1.64419 3.91474 0
M  V30 12959 O 1245.19 -1.31668 3.30971 0
M  V30 12960 O 1244.05 -2.25148 4.97967 0
M  V30 12961 H 1241.14 -0.372786 0.738214 0
M  V30 12962 H 1243.69 -0.0231245 1.69684 0
M  V30 12963 H 1242.46 -0.385302 3.89398 0
M  V30 12964 H 1242.09 -2.03269 3.41713 0
M  V30 12965 N 1243.08 -1.54377 -0.317073 0
M  V30 12966 C 1244.49 -1.64062 -0.891105 0
M  V30 12967 C 1244.84 -0.538863 -1.88655 0
M  V30 12968 O 1243.97 0.32718 -2.13912 0
M  V30 12969 C 1244.56 -2.97395 -1.62302 0
M  V30 12970 C 1243.12 -3.09253 -2.14568 0
M  V30 12971 C 1242.27 -2.59664 -0.973146 0
M  V30 12972 H 1245.22 -1.58418 -0.0944829 0
M  V30 12973 H 1245.24 -2.87918 -2.48764 0
M  V30 12974 H 1244.75 -3.77562 -0.898268 0
M  V30 12975 H 1242.86 -2.33774 -2.90139 0
M  V30 12976 H 1242.97 -4.15159 -2.39123 0
M  V30 12977 H 1241.33 -2.15719 -1.35416 0
M  V30 12978 H 1242.12 -3.42294 -0.262611 0
M  V30 12979 N 1244.56 0.579466 -1.4656 0
M  V30 12980 C 1245.97 1.1616 -1.46164 0
M  V30 12981 C 1246.32 1.95134 -0.20423 0
M  V30 12982 O 1245.45 2.05022 0.692457 0
M  V30 12983 C 1246.04 2.11322 -2.64818 0
M  V30 12984 C 1244.6 2.64852 -2.67452 0
M  V30 12985 C 1243.75 1.40786 -2.38903 0
M  V30 12986 H 1246.7 0.367229 -1.54393 0
M  V30 12987 H 1246.72 2.94839 -2.4052 0
M  V30 12988 H 1246.23 1.53815 -3.56318 0
M  V30 12989 H 1244.33 3.26219 -1.80032 0
M  V30 12990 H 1244.45 3.07366 -3.67509 0
M  V30 12991 H 1242.81 1.70707 -1.89027 0
M  V30 12992 H 1243.59 0.851049 -3.32584 0
M  V30 12993 N 1246.04 1.3432 0.824371 0
M  V30 12994 C 1247.27 1.29669 1.61226 0
M  V30 12995 C 1247.68 -0.129532 1.88355 0
M  V30 12996 O 1247.04 -1.07616 1.47394 0
M  V30 12997 C 1247.09 2.08375 2.95402 0
M  V30 12998 O 1246.81 3.45434 2.69456 0
M  V30 12999 C 1248.31 2.11103 3.89808 0
M  V30 13000 H 1245.53 0.446137 0.501201 0
M  V30 13001 H 1248.08 1.76912 1.02579 0
M  V30 13002 H 1246.23 1.64777 3.5061 0
M  V30 13003 H 1246.64 3.86101 3.55001 0
M  V30 13004 H 1248.12 2.706 4.81124 0
M  V30 13005 H 1248.6 1.10505 4.25071 0
M  V30 13006 H 1249.2 2.54784 3.40537 0
M  V30 13007 N 1247.52 -1.0444 1.18026 0
M  V30 13008 C 1248.45 -2.12388 0.86162 0
M  V30 13009 C 1249.46 -1.62204 -0.139196 0
M  V30 13010 O 1250.65 -1.78282 0.0881334 0
M  V30 13011 C 1247.75 -3.37859 0.265407 0
M  V30 13012 C 1246.92 -4.17292 1.31096 0
M  V30 13013 C 1245.98 -5.21096 0.731121 0
M  V30 13014 O 1245.01 -5.5159 1.40488 0
M  V30 13015 N 1246.21 -5.78568 -0.473194 0
M  V30 13016 H 1248.98 -2.40317 1.79074 0
M  V30 13017 H 1246.54 -1.20601 1.08014 0
M  V30 13018 H 1248.53 -4.04472 -0.135976 0
M  V30 13019 H 1247.1 -3.07403 -0.567658 0
M  V30 13020 H 1246.32 -3.46057 1.8878 0
M  V30 13021 H 1247.61 -4.67158 2.01596 0
M  V30 13022 H 1247 -5.56088 -1.03839 0
M  V30 13023 H 1245.56 -6.46665 -0.816545 0
M  V30 13024 N 1248.99 -0.981699 -1.2329 0
M  V30 13025 C 1250.41 -0.688087 -1.73558 0
M  V30 13026 C 1250.76 0.795633 -1.79344 0
M  V30 13027 O 1249.88 1.62227 -1.43218 0
M  V30 13028 C 1250.48 -1.24235 -3.152 0
M  V30 13029 C 1249.04 -0.998356 -3.62918 0
M  V30 13030 C 1248.18 -1.3693 -2.41134 0
M  V30 13031 H 1251.13 -1.15539 -1.08795 0
M  V30 13032 H 1251.15 -0.61541 -3.7549 0
M  V30 13033 H 1250.67 -2.32223 -3.10957 0
M  V30 13034 H 1248.77 0.0653847 -3.72543 0
M  V30 13035 H 1248.88 -1.65385 -4.49649 0
M  V30 13036 H 1247.24 -0.787773 -2.42211 0
M  V30 13037 H 1248.03 -2.45898 -2.39561 0
M  V30 13038 N 1250.47 1.3842 -0.753509 0
M  V30 13039 C 1251.75 1.94181 -0.235142 0
M  V30 13040 C 1252.13 1.68881 1.26659 0
M  V30 13041 O 1251.48 1.02731 2.04104 0
M  V30 13042 C 1251.69 3.43998 -0.588751 0
M  V30 13043 C 1253.04 4.21044 -0.548352 0
M  V30 13044 O 1254.06 3.52279 -0.52704 0
M  V30 13045 O 1252.92 5.43631 -0.559221 0
M  V30 13046 H 1250.01 0.825536 -0.0491834 0
M  V30 13047 H 1252.56 1.47813 -0.833626 0
M  V30 13048 H 1251.33 3.55921 -1.6259 0
M  V30 13049 H 1250.95 3.97582 0.0377429 0
M  V30 13050 N 1251.95 0.502579 1.49372 0
M  V30 13051 C 1253.36 0.055187 1.86618 0
M  V30 13052 C 1253.71 -1.35938 1.41476 0
M  V30 13053 O 1252.84 -2.01333 0.793338 0
M  V30 13054 C 1253.43 0.0933734 3.38671 0
M  V30 13055 C 1251.99 -0.298685 3.75213 0
M  V30 13056 C 1251.14 0.465216 2.7337 0
M  V30 13057 H 1254.09 0.715281 1.41667 0
M  V30 13058 H 1254.11 -0.701549 3.73977 0
M  V30 13059 H 1253.62 1.12303 3.71497 0
M  V30 13060 H 1251.72 -1.33151 3.47996 0
M  V30 13061 H 1251.84 0.0218637 4.79095 0
M  V30 13062 H 1250.2 -0.0851469 2.54558 0
M  V30 13063 H 1250.98 1.49498 3.09039 0
M  V30 13064 N 1253.43 -1.55816 0.23648 0
M  V30 13065 C 1254.38 -2.20938 -0.66745 0
M  V30 13066 C 1255.35 -1.16982 -1.17917 0
M  V30 13067 O 1256.53 -1.45392 -1.23555 0
M  V30 13068 C 1253.67 -2.90469 -1.86337 0
M  V30 13069 C 1252.78 -4.09056 -1.38915 0
M  V30 13070 C 1251.92 -4.6633 -2.54382 0
M  V30 13071 C 1250.96 -5.77187 -2.0377 0
M  V30 13072 N 1250.09 -6.28688 -3.12564 0
M  V30 13073 H 1254.93 -2.97814 -0.105411 0
M  V30 13074 H 1252.47 -1.47045 -0.0402712 0
M  V30 13075 H 1254.43 -3.28975 -2.56576 0
M  V30 13076 H 1253.06 -2.16086 -2.39806 0
M  V30 13077 H 1252.11 -3.75934 -0.581173 0
M  V30 13078 H 1253.42 -4.89115 -0.978152 0
M  V30 13079 H 1252.58 -5.07355 -3.32679 0
M  V30 13080 H 1251.32 -3.85464 -2.98778 0
M  V30 13081 H 1250.32 -5.35648 -1.23939 0
M  V30 13082 H 1251.55 -6.59896 -1.60355 0
M  V30 13083 H 1249.49 -5.50731 -3.56414 0
M  V30 13084 H 1249.41 -7.03911 -2.75762 0
M  V30 13085 H 1250.68 -6.74371 -3.90952 0
M  V30 13086 N 1254.91 0.036755 -1.57557 0
M  V30 13087 C 1256.18 0.764087 -1.80059 0
M  V30 13088 C 1256.56 1.93983 -0.83269 0
M  V30 13089 O 1255.91 2.28148 0.126815 0
M  V30 13090 C 1256.12 1.20433 -3.27562 0
M  V30 13091 C 1257.47 1.6234 -3.9234 0
M  V30 13092 O 1258.49 1.29911 -3.31665 0
M  V30 13093 O 1257.35 2.22504 -4.99154 0
M  V30 13094 H 1254.45 0.368866 -0.74018 0
M  V30 13095 H 1256.99 0.0141254 -1.69694 0
M  V30 13096 H 1255.76 0.364646 -3.89597 0
M  V30 13097 H 1255.39 2.01454 -3.42786 0
M  V30 13098 N 1256.39 1.54543 0.308881 0
M  V30 13099 C 1257.61 1.77753 1.06857 0
M  V30 13100 C 1258.04 0.531616 1.80431 0
M  V30 13101 O 1257.39 -0.517513 1.73757 0
M  V30 13102 C 1257.44 2.97968 2.03094 0
M  V30 13103 O 1256.55 2.70541 3.11257 0
M  V30 13104 H 1255.89 0.588576 0.307368 0
M  V30 13105 H 1258.42 2.01607 0.348703 0
M  V30 13106 H 1258.43 3.25722 2.45702 0
M  V30 13107 H 1257.1 3.88314 1.48948 0
M  V30 13108 H 1255.68 2.53781 2.7322 0
M  V30 13109 N 1257.86 -0.571685 1.46866 0
M  V30 13110 C 1259.1 -1.34041 1.54313 0
M  V30 13111 C 1259.47 -1.9101 0.194708 0
M  V30 13112 O 1260.67 -2.68414 0.143968 0
M  V30 13113 C 1258.94 -2.4315 2.61941 0
M  V30 13114 S 1260.5 -3.30301 2.88871 0
M  V30 13115 H 1257.32 -0.45652 0.545078 0
M  V30 13116 H 1259.92 -0.656041 1.84164 0
M  V30 13117 H 1258.62 -1.99707 3.58532 0
M  V30 13118 H 1258.15 -3.16345 2.33858 0
M  V30 13119 H 1260.17 -4.42265 2.24981 0
M  V30 13120 N 1259.34 -1.34755 -0.817236 0
M  V30 13121 C 1260.57 -1.30676 -1.61054 0
M  V30 13122 C 1260.99 0.115343 -1.87746 0
M  V30 13123 O 1260.35 1.07887 -1.45705 0
M  V30 13124 C 1260.4 -2.10881 -2.92509 0
M  V30 13125 O 1259.5 -1.48223 -3.84842 0
M  V30 13126 H 1258.84 -0.448531 -0.489608 0
M  V30 13127 H 1261.37 -1.77642 -1.01512 0
M  V30 13128 H 1261.38 -2.22446 -3.42026 0
M  V30 13129 H 1260.06 -3.14274 -2.72406 0
M  V30 13130 H 1258.63 -1.45434 -3.4337 0
M  V30 13131 N 1260.82 1.03812 -1.18578 0
M  V30 13132 C 1262.06 1.78618 -0.993725 0
M  V30 13133 C 1262.42 1.86206 0.468133 0
M  V30 13134 O 1263.62 2.57243 0.779714 0
M  V30 13135 C 1261.9 3.17883 -1.63357 0
M  V30 13136 S 1263.45 4.08994 -1.58962 0
M  V30 13137 H 1260.27 0.614997 -0.356792 0
M  V30 13138 H 1262.87 1.24458 -1.50766 0
M  V30 13139 H 1261.58 3.09972 -2.68972 0
M  V30 13140 H 1261.11 3.77119 -1.12003 0
M  V30 13141 H 1263.12 4.9247 -0.6073 0
M  V30 13142 N 1262.3 0.988223 1.22768 0
M  V30 13143 C 1263.23 0.554478 2.26821 0
M  V30 13144 C 1264.21 -0.416293 1.64927 0
M  V30 13145 O 1265.39 -0.30795 1.91743 0
M  V30 13146 C 1262.52 -0.136266 3.47033 0
M  V30 13147 C 1261.48 0.752575 4.21332 0
M  V30 13148 C 1260.8 -0.0708236 5.34653 0
M  V30 13149 C 1262.1 2.04717 4.80508 0
M  V30 13150 H 1263.8 1.42423 2.63355 0
M  V30 13151 H 1261.34 0.686267 1.26595 0
M  V30 13152 H 1263.3 -0.451068 4.18979 0
M  V30 13153 H 1262.02 -1.04053 3.09581 0
M  V30 13154 H 1260.68 1.05095 3.51213 0
M  V30 13155 H 1260.33 -0.975859 4.93443 0
M  V30 13156 H 1260.03 0.520835 5.85287 0
M  V30 13157 H 1261.55 -0.379828 6.09417 0
M  V30 13158 H 1262.97 1.79663 5.44421 0
M  V30 13159 H 1261.36 2.58726 5.41462 0
M  V30 13160 H 1262.43 2.72896 4.00819 0
M  V30 13161 N 1263.78 -1.38018 0.760839 0
M  V30 13162 C 1265 -2.04231 0.331285 0
M  V30 13163 C 1265.42 -1.57385 -1.04285 0
M  V30 13164 O 1264.78 -0.750168 -1.66369 0
M  V30 13165 C 1264.83 -3.59772 0.353021 0
M  V30 13166 O 1264.55 -4.049 1.67294 0
M  V30 13167 C 1266.05 -4.4321 -0.0894942 0
M  V30 13168 H 1263.27 -0.656145 0.140408 0
M  V30 13169 H 1265.81 -1.76567 1.03172 0
M  V30 13170 H 1263.97 -3.86246 -0.298735 0
M  V30 13171 H 1264.38 -4.99369 1.60408 0
M  V30 13172 H 1265.86 -5.51995 -0.0231262 0
M  V30 13173 H 1266.33 -4.2419 -1.13839 0
M  V30 13174 H 1266.94 -4.21939 0.533661 0
M  V30 13175 N 1265.25 -0.510493 -1.49103 0
M  V30 13176 C 1266.22 0.251915 -2.27811 0
M  V30 13177 C 1267.22 0.885432 -1.34226 0
M  V30 13178 O 1268.41 0.748494 -1.573 0
M  V30 13179 C 1265.54 1.3624 -3.12492 0
M  V30 13180 H 1266.73 -0.438872 -2.96671 0
M  V30 13181 H 1264.28 -0.265767 -1.54024 0
M  V30 13182 H 1265.02 2.08705 -2.48219 0
M  V30 13183 H 1264.8 0.913485 -3.81311 0
M  V30 13184 H 1266.29 1.89919 -3.71915 0
M  V30 13185 N 1266.73 1.55688 -0.24474 0
M  V30 13186 C 1267.69 2.20014 0.642382 0
M  V30 13187 C 1268.69 1.16877 1.10437 0
M  V30 13188 O 1269.88 1.41972 1.00943 0
M  V30 13189 C 1267.02 2.84198 1.88267 0
M  V30 13190 H 1268.21 2.9979 0.0811937 0
M  V30 13191 H 1265.76 1.56299 0.00480917 0
M  V30 13192 H 1266.5 2.08354 2.48514 0
M  V30 13193 H 1266.28 3.59747 1.55963 0
M  V30 13194 H 1267.77 3.33434 2.5142 0
M  V30 13195 N 1268.21 -0.0283989 1.57574 0
M  V30 13196 C 1269.12 -1.04575 2.10003 0
M  V30 13197 C 1270.14 -1.39588 1.03881 0
M  V30 13198 O 1271.31 -1.48894 1.35619 0
M  V30 13199 C 1268.38 -2.32755 2.56955 0
M  V30 13200 C 1267.44 -2.04317 3.77562 0
M  V30 13201 C 1266.67 -3.26385 4.22266 0
M  V30 13202 O 1266.89 -4.37082 3.66491 0
M  V30 13203 O 1265.83 -3.12046 5.14695 0
M  V30 13204 H 1269.65 -0.630183 2.9709 0
M  V30 13205 H 1267.24 -0.245423 1.4737 0
M  V30 13206 H 1269.12 -3.08111 2.87482 0
M  V30 13207 H 1267.8 -2.73605 1.72979 0
M  V30 13208 H 1266.7 -1.26527 3.52054 0
M  V30 13209 H 1268.04 -1.68321 4.62524 0
M  V30 13210 N 1269.69 -1.54705 -0.300681 0
M  V30 13211 C 1270.93 -1.74259 -1.03738 0
M  V30 13212 C 1271.27 -0.52703 -1.86912 0
M  V30 13213 O 1270.54 0.475862 -1.88589 0
M  V30 13214 C 1270.82 -3.03175 -1.94311 0
M  V30 13215 C 1270.68 -4.35031 -1.14315 0
M  V30 13216 C 1272 -3.27962 -2.93478 0
M  V30 13217 H 1269.12 -0.634031 -0.37573 0
M  V30 13218 H 1271.76 -1.87421 -0.312012 0
M  V30 13219 H 1269.91 -2.92086 -2.5616 0
M  V30 13220 H 1271.58 -4.5804 -0.547489 0
M  V30 13221 H 1269.82 -4.31503 -0.44587 0
M  V30 13222 H 1270.49 -5.21502 -1.80941 0
M  V30 13223 H 1272.97 -3.38663 -2.41757 0
M  V30 13224 H 1271.85 -4.19481 -3.54016 0
M  V30 13225 H 1272.11 -2.46273 -3.67154 0
M  V30 13226 N 1271.17 0.563888 -1.47167 0
M  V30 13227 C 1272.12 1.66687 -1.55562 0
M  V30 13228 C 1273.1 1.55455 -0.415024 0
M  V30 13229 O 1274.29 1.64051 -0.664557 0
M  V30 13230 C 1271.42 3.05469 -1.56665 0
M  V30 13231 C 1270.51 3.21928 -2.76085 0
M  V30 13232 N 1270.9 3.08477 -4.00844 0
M  V30 13233 C 1269.2 3.52913 -2.72706 0
M  V30 13234 C 1269.9 3.27447 -4.80784 0
M  V30 13235 N 1268.87 3.53474 -4.12986 0
M  V30 13236 H 1272.68 1.54846 -2.498 0
M  V30 13237 H 1270.19 0.76846 -1.43068 0
M  V30 13238 H 1272.19 3.84655 -1.60768 0
M  V30 13239 H 1270.85 3.18427 -0.635174 0
M  V30 13240 H 1271.86 2.85944 -4.31806 0
M  V30 13241 H 1268.53 3.7244 -1.88666 0
M  V30 13242 H 1269.92 3.22072 -5.89677 0
M  V30 13243 N 1272.64 1.35187 0.810078 0
M  V30 13244 C 1274.06 1.25329 1.38381 0
M  V30 13245 C 1274.41 -0.115799 1.95858 0
M  V30 13246 O 1273.53 -1.01663 1.91033 0
M  V30 13247 C 1274.13 2.2693 2.51572 0
M  V30 13248 C 1272.69 2.20824 3.04818 0
M  V30 13249 C 1271.83 2.1283 1.7776 0
M  V30 13250 H 1274.78 1.46366 0.613402 0
M  V30 13251 H 1274.8 1.89375 3.30026 0
M  V30 13252 H 1274.32 3.26563 2.09709 0
M  V30 13253 H 1272.42 1.24589 3.51153 0
M  V30 13254 H 1272.53 3.12637 3.63036 0
M  V30 13255 H 1270.89 1.58752 1.99173 0
M  V30 13256 H 1271.68 3.14318 1.38054 0
M  V30 13257 N 1274.12 -1.03182 1.19127 0
M  V30 13258 C 1275.09 -2.09559 0.928307 0
M  V30 13259 C 1276.09 -1.60548 -0.0899992 0
M  V30 13260 O 1277.28 -1.736 0.144422 0
M  V30 13261 C 1274.41 -3.38609 0.394561 0
M  V30 13262 H 1275.6 -2.34321 1.87173 0
M  V30 13263 H 1273.15 -1.19746 1.00452 0
M  V30 13264 H 1273.89 -3.19515 -0.555046 0
M  V30 13265 H 1273.67 -3.75502 1.12873 0
M  V30 13266 H 1275.16 -4.16969 0.229569 0
M  V30 13267 N 1275.6 -0.99472 -1.22242 0
M  V30 13268 C 1276.85 -0.670275 -1.90661 0
M  V30 13269 C 1277.17 0.800369 -1.77818 0
M  V30 13270 O 1276.44 1.57381 -1.16653 0
M  V30 13271 H 1275.02 -0.244925 -0.705706 0
M  V30 13272 H 1277.68 -1.26162 -1.48557 0
M  V30 13273 H 1276.78 -0.934408 -2.97784 0
M  V30 13274 N 1277.08 1.37613 -0.768148 0
M  V30 13275 C 1278.49 1.53202 -0.44737 0
M  V30 13276 C 1278.69 1.72736 1.03752 0
M  V30 13277 O 1277.75 1.74667 1.8234 0
M  V30 13278 C 1279.06 2.7306 -1.25931 0
M  V30 13279 C 1280.61 2.8692 -1.25084 0
M  V30 13280 C 1281.09 4.09757 -2.04605 0
M  V30 13281 N 1282.58 4.16862 -2.0194 0
M  V30 13282 C 1283.31 5.10936 -2.60254 0
M  V30 13283 N 1282.81 6.1059 -3.27341 0
M  V30 13284 N 1284.6 5.03393 -2.50104 0
M  V30 13285 H 1276.75 1.23184 -1.7303 0
M  V30 13286 H 1279.02 0.599541 -0.73434 0
M  V30 13287 H 1278.72 2.65078 -2.31141 0
M  V30 13288 H 1278.6 3.66646 -0.886036 0
M  V30 13289 H 1280.98 2.94375 -0.206736 0
M  V30 13290 H 1281.06 1.94303 -1.66373 0
M  V30 13291 H 1280.71 4.03063 -3.09035 0
M  V30 13292 H 1280.64 5.01481 -1.60701 0
M  V30 13293 H 1283.13 3.455 -1.53096 0
M  V30 13294 H 1283.44 6.78893 -3.6922 0
M  V30 13295 H 1281.79 6.10879 -3.31439 0
M  V30 13296 H 1284.98 4.24483 -1.9731 0
M  V30 13297 H 1285.15 5.76524 -2.95844 0
M  V30 13298 N 1278.56 0.518393 1.4883 0
M  V30 13299 C 1279.79 -0.0161765 2.06594 0
M  V30 13300 C 1280.19 -1.29771 1.37681 0
M  V30 13301 O 1279.54 -1.77991 0.454421 0
M  V30 13302 C 1279.6 -0.322505 3.5805 0
M  V30 13303 C 1279.26 0.863848 4.48761 0
M  V30 13304 C 1280.26 1.75912 4.89235 0
M  V30 13305 C 1277.95 1.06757 4.90824 0
M  V30 13306 C 1279.94 2.84211 5.70528 0
M  V30 13307 C 1277.63 2.15372 5.7189 0
M  V30 13308 C 1278.62 3.03932 6.11649 0
M  V30 13309 O 1278.31 4.1067 6.9109 0
M  V30 13310 H 1278.04 0.0251212 0.675533 0
M  V30 13311 H 1280.6 0.720052 1.92365 0
M  V30 13312 H 1278.83 -1.11256 3.7035 0
M  V30 13313 H 1280.52 -0.797764 3.97983 0
M  V30 13314 H 1281.28 1.61362 4.5737 0
M  V30 13315 H 1277.16 0.387566 4.59368 0
M  V30 13316 H 1280.71 3.53364 6.01481 0
M  V30 13317 H 1276.6 2.2991 6.03168 0
M  V30 13318 H 1277.37 4.08237 7.09426 0
M  V30 13319 N 1280.03 -1.55556 0.252993 0
M  V30 13320 C 1281.28 -1.99385 -0.370599 0
M  V30 13321 C 1281.61 -1.14101 -1.57145 0
M  V30 13322 O 1280.89 -0.205828 -1.93408 0
M  V30 13323 C 1281.17 -3.51672 -0.774503 0
M  V30 13324 C 1281.02 -4.47719 0.432159 0
M  V30 13325 C 1282.34 -4.0923 -1.61923 0
M  V30 13326 H 1279.46 -0.724858 -0.133231 0
M  V30 13327 H 1282.1 -1.86644 0.355522 0
M  V30 13328 H 1280.25 -3.62661 -1.39318 0
M  V30 13329 H 1281.93 -4.48704 1.07063 0
M  V30 13330 H 1280.17 -4.2029 1.07419 0
M  V30 13331 H 1280.84 -5.51898 0.106123 0
M  V30 13332 H 1283.32 -4.01381 -1.09693 0
M  V30 13333 H 1282.19 -5.16039 -1.87068 0
M  V30 13334 H 1282.45 -3.58067 -2.59307 0
M  V30 13335 N 1281.51 0.0200419 -1.57587 0
M  V30 13336 C 1282.44 1.01715 -2.10181 0
M  V30 13337 C 1283.42 1.37136 -1.00636 0
M  V30 13338 O 1284.61 1.45862 -1.2821 0
M  V30 13339 C 1281.74 2.31531 -2.58865 0
M  V30 13340 C 1280.69 2.10327 -3.72755 0
M  V30 13341 C 1280.02 3.45981 -4.07678 0
M  V30 13342 C 1281.32 1.4821 -5.0083 0
M  V30 13343 H 1283.01 0.579307 -2.93742 0
M  V30 13344 H 1280.56 0.277211 -1.41307 0
M  V30 13345 H 1282.51 3.01623 -2.94281 0
M  V30 13346 H 1281.24 2.77392 -1.72399 0
M  V30 13347 H 1279.89 1.42665 -3.37701 0
M  V30 13348 H 1279.54 3.89508 -3.18265 0
M  V30 13349 H 1279.24 3.32616 -4.84397 0
M  V30 13350 H 1280.77 4.17421 -4.45637 0
M  V30 13351 H 1282.18 2.08232 -5.34146 0
M  V30 13352 H 1280.58 1.45393 -5.82221 0
M  V30 13353 H 1281.65 0.448942 -4.82817 0
M  V30 13354 N 1282.99 1.54862 0.292472 0
M  V30 13355 C 1284.23 1.76289 1.03448 0
M  V30 13356 C 1284.59 0.541914 1.84194 0
M  V30 13357 O 1285.8 0.634075 2.61214 0
M  V30 13358 C 1284.07 3.02112 1.90953 0
M  V30 13359 S 1285.63 3.44577 2.71683 0
M  V30 13360 H 1282.44 0.619596 0.348744 0
M  V30 13361 H 1285.05 1.93075 0.306952 0
M  V30 13362 H 1283.75 3.89091 1.30523 0
M  V30 13363 H 1283.28 2.87937 2.68059 0
M  V30 13364 H 1285.3 3.02318 3.93469 0
M  V30 13365 N 1284.47 -0.556076 1.47464 0
M  V30 13366 C 1285.88 -1.1382 1.47993 0
M  V30 13367 C 1286.23 -1.94785 0.235249 0
M  V30 13368 O 1285.36 -2.06098 -0.659752 0
M  V30 13369 C 1285.95 -2.07082 2.68146 0
M  V30 13370 C 1284.51 -2.60564 2.71631 0
M  V30 13371 C 1283.66 -1.36967 2.41113 0
M  V30 13372 H 1286.61 -0.34262 1.54957 0
M  V30 13373 H 1286.63 -2.90975 2.45181 0
M  V30 13374 H 1286.14 -1.48127 3.5872 0
M  V30 13375 H 1284.24 -3.23314 1.852 0
M  V30 13376 H 1284.35 -3.0148 3.72353 0
M  V30 13377 H 1282.72 -1.67678 1.91719 0
M  V30 13378 H 1283.5 -0.79803 3.33896 0
M  V30 13379 N 1285.95 -1.35615 -0.802897 0
M  V30 13380 C 1287.17 -1.32377 -1.59659 0
M  V30 13381 C 1287.6 0.0954235 -1.87858 0
M  V30 13382 O 1286.96 1.06336 -1.46842 0
M  V30 13383 C 1287 -2.13972 -2.90256 0
M  V30 13384 O 1286.11 -1.52296 -3.83249 0
M  V30 13385 H 1285.45 -0.453699 -0.484823 0
M  V30 13386 H 1287.98 -1.78708 -0.996217 0
M  V30 13387 H 1287.99 -2.26061 -3.39647 0
M  V30 13388 H 1286.66 -3.17145 -2.69057 0
M  V30 13389 H 1285.24 -1.49068 -3.41809 0
M  V30 13390 N 1287.43 1.02549 -1.19673 0
M  V30 13391 C 1288.65 1.79623 -1.0268 0
M  V30 13392 C 1289.07 1.83969 0.424345 0
M  V30 13393 O 1288.43 1.28621 1.29472 0
M  V30 13394 C 1288.48 3.24514 -1.59289 0
M  V30 13395 O 1288.2 3.20462 -2.98723 0
M  V30 13396 C 1289.7 4.18173 -1.47126 0
M  V30 13397 H 1286.92 0.565167 -0.3617 0
M  V30 13398 H 1289.46 1.29143 -1.58564 0
M  V30 13399 H 1287.62 3.72173 -1.07546 0
M  V30 13400 H 1288.03 4.11341 -3.25421 0
M  V30 13401 H 1289.51 5.17714 -1.9151 0
M  V30 13402 H 1289.98 4.37165 -0.422315 0
M  V30 13403 H 1290.59 3.7639 -1.98017 0
M  V30 13404 N 1288.9 1.00119 1.21713 0
M  V30 13405 C 1290.13 0.700431 1.94683 0
M  V30 13406 C 1290.55 -0.736333 1.73849 0
M  V30 13407 O 1289.9 -1.49778 1.04272 0
M  V30 13408 C 1289.95 1.00722 3.47185 0
M  V30 13409 O 1289.68 2.38754 3.67326 0
M  V30 13410 C 1291.18 0.725335 4.37326 0
M  V30 13411 H 1288.4 0.25843 0.619238 0
M  V30 13412 H 1290.94 1.3382 1.54636 0
M  V30 13413 H 1289.1 0.415117 3.85169 0
M  V30 13414 H 1289.51 2.49321 4.61454 0
M  V30 13415 H 1290.98 0.990202 5.43046 0
M  V30 13416 H 1291.46 -0.340649 4.37877 0
M  V30 13417 H 1292.07 1.29888 4.04981 0
M  V30 13418 N 1290.38 -1.37203 0.775435 0
M  V30 13419 C 1291.79 -1.82224 0.406372 0
M  V30 13420 C 1292.14 -1.64587 -1.06796 0
M  V30 13421 O 1291.27 -1.15903 -1.82744 0
M  V30 13422 C 1291.86 -3.30824 0.730819 0
M  V30 13423 C 1290.42 -3.74108 0.414766 0
M  V30 13424 C 1289.57 -2.59679 0.972747 0
M  V30 13425 H 1292.52 -1.25623 0.969775 0
M  V30 13426 H 1292.54 -3.80496 0.0168066 0
M  V30 13427 H 1292.05 -3.43628 1.80392 0
M  V30 13428 H 1290.15 -3.66871 -0.650866 0
M  V30 13429 H 1290.27 -4.70074 0.925595 0
M  V30 13430 H 1288.63 -2.51591 0.396772 0
M  V30 13431 H 1289.41 -2.75274 2.05132 0
M  V30 13432 N 1291.86 -0.526279 -1.48553 0
M  V30 13433 C 1293.08 0.00731432 -2.07399 0
M  V30 13434 C 1293.51 1.27737 -1.38075 0
M  V30 13435 O 1292.87 1.75741 -0.445503 0
M  V30 13436 C 1292.92 0.218126 -3.5994 0
M  V30 13437 O 1292.02 1.28759 -3.91784 0
M  V30 13438 H 1291.36 -0.0374784 -0.662941 0
M  V30 13439 H 1293.89 -0.733133 -1.91014 0
M  V30 13440 H 1293.9 0.44192 -4.056 0
M  V30 13441 H 1292.58 -0.709668 -4.09801 0
M  V30 13442 H 1291.15 1.04674 -3.57907 0
M  V30 13443 N 1293.34 1.5542 -0.261239 0
M  V30 13444 C 1294.75 1.85161 0.239195 0
M  V30 13445 C 1295.1 1.18319 1.56509 0
M  V30 13446 O 1294.22 0.4666 2.1131 0
M  V30 13447 C 1294.82 3.3592 0.440781 0
M  V30 13448 C 1293.38 3.65837 0.885461 0
M  V30 13449 C 1292.53 2.77285 -0.0291982 0
M  V30 13450 H 1295.48 1.51158 -0.483417 0
M  V30 13451 H 1295.5 3.58276 1.28136 0
M  V30 13452 H 1295.01 3.84541 -0.524382 0
M  V30 13453 H 1293.11 3.22705 1.86259 0
M  V30 13454 H 1293.22 4.73469 0.732394 0
M  V30 13455 H 1291.59 2.50045 0.484701 0
M  V30 13456 H 1292.37 3.28716 -0.989992 0
M  V30 13457 N 1294.82 -0.0116844 1.57596 0
M  V30 13458 C 1295.78 -0.991601 2.0664 0
M  V30 13459 C 1296.78 -1.27973 0.973629 0
M  V30 13460 O 1297.97 -1.22686 1.23668 0
M  V30 13461 C 1295.1 -2.31975 2.49801 0
M  V30 13462 H 1296.29 -0.567607 2.9448 0
M  V30 13463 H 1293.85 -0.258906 1.54141 0
M  V30 13464 H 1294.58 -2.79087 1.65169 0
M  V30 13465 H 1294.37 -2.12386 3.29598 0
M  V30 13466 H 1295.86 -3.02294 2.88112 0
M  V30 13467 N 1296.29 -1.55015 -0.284256 0
M  V30 13468 C 1297.23 -1.83517 -1.3731 0
M  V30 13469 C 1298.24 -0.719009 -1.46062 0
M  V30 13470 O 1299.43 -0.996719 -1.4808 0
M  V30 13471 C 1296.53 -1.97309 -2.7554 0
M  V30 13472 C 1295.7 -3.2787 -2.89517 0
M  V30 13473 C 1294.76 -3.31868 -4.08351 0
M  V30 13474 O 1293.79 -4.05309 -3.99642 0
M  V30 13475 N 1294.99 -2.5846 -5.19787 0
M  V30 13476 H 1297.75 -2.77495 -1.1321 0
M  V30 13477 H 1295.31 -1.54795 -0.474359 0
M  V30 13478 H 1297.31 -1.97367 -3.53311 0
M  V30 13479 H 1295.88 -1.10249 -2.92513 0
M  V30 13480 H 1295.1 -3.40445 -1.98722 0
M  V30 13481 H 1296.38 -4.13996 -2.95779 0
M  V30 13482 H 1295.78 -1.98455 -5.29747 0
M  V30 13483 H 1294.34 -2.64253 -5.9583 0
M  V30 13484 N 1297.77 0.548248 -1.47757 0
M  V30 13485 C 1299.18 1.13033 -1.48595 0
M  V30 13486 C 1299.53 1.94657 -0.245575 0
M  V30 13487 O 1298.66 2.06445 0.648813 0
M  V30 13488 C 1299.25 2.05657 -2.69241 0
M  V30 13489 C 1297.81 2.59119 -2.73009 0
M  V30 13490 C 1296.96 1.35686 -2.41836 0
M  V30 13491 H 1299.91 0.334397 -1.55137 0
M  V30 13492 H 1299.93 2.89671 -2.4672 0
M  V30 13493 H 1299.44 1.46222 -3.595 0
M  V30 13494 H 1297.54 3.22327 -1.86912 0
M  V30 13495 H 1297.66 2.99501 -3.73946 0
M  V30 13496 H 1296.02 1.66659 -1.92606 0
M  V30 13497 H 1296.8 0.780311 -3.34314 0
M  V30 13498 N 1299.25 1.36039 0.795694 0
M  V30 13499 C 1300.21 1.29709 1.88966 0
M  V30 13500 C 1301.21 0.206142 1.59473 0
M  V30 13501 O 1302.4 0.460534 1.68002 0
M  V30 13502 C 1299.53 1.00922 3.25619 0
M  V30 13503 H 1300.73 2.26993 1.95995 0
M  V30 13504 H 1298.28 1.2072 0.992791 0
M  V30 13505 H 1299.02 0.0407027 3.24274 0
M  V30 13506 H 1298.8 1.79863 3.48413 0
M  V30 13507 H 1300.29 0.990826 4.05675 0
M  V30 13508 N 1300.73 -1.01913 1.20215 0
M  V30 13509 C 1302.01 -1.7262 0.919867 0
M  V30 13510 C 1302.39 -2.03203 -0.572001 0
M  V30 13511 O 1301.73 -1.69448 -1.53296 0
M  V30 13512 C 1301.94 -2.9959 1.79016 0
M  V30 13513 C 1303.29 -3.72905 2.03045 0
M  V30 13514 O 1304.32 -3.0954 1.76249 0
M  V30 13515 O 1303.17 -4.86844 2.48285 0
M  V30 13516 H 1300.27 -0.752194 0.343705 0
M  V30 13517 H 1302.81 -1.07783 1.31076 0
M  V30 13518 H 1301.59 -2.73292 2.80048 0
M  V30 13519 H 1301.21 -3.72168 1.39918 0
M  V30 13520 N 1302.21 -1.00763 -1.2118 0
M  V30 13521 C 1303.62 -0.720905 -1.42391 0
M  V30 13522 C 1303.82 0.702918 -1.88842 0
M  V30 13523 O 1302.88 1.47191 -2.05161 0
M  V30 13524 C 1304.19 -1.739 -2.45315 0
M  V30 13525 C 1305.74 -1.75611 -2.59094 0
M  V30 13526 C 1306.21 -2.76323 -3.65253 0
M  V30 13527 N 1307.71 -2.75007 -3.72727 0
M  V30 13528 C 1308.44 -3.49594 -4.54502 0
M  V30 13529 N 1307.94 -4.33828 -5.40153 0
M  V30 13530 N 1309.73 -3.38232 -4.4895 0
M  V30 13531 H 1301.88 -1.92697 -0.893404 0
M  V30 13532 H 1304.14 -0.831888 -0.454606 0
M  V30 13533 H 1303.85 -2.75859 -2.18162 0
M  V30 13534 H 1303.72 -1.5438 -3.44161 0
M  V30 13535 H 1306.11 -0.743416 -2.85582 0
M  V30 13536 H 1306.19 -1.99203 -1.60474 0
M  V30 13537 H 1305.84 -3.77751 -3.39509 0
M  V30 13538 H 1305.77 -2.49996 -4.63476 0
M  V30 13539 H 1308.26 -2.13897 -3.11539 0
M  V30 13540 H 1308.57 -4.8753 -5.99612 0
M  V30 13541 H 1306.91 -4.3791 -5.39685 0
M  V30 13542 H 1310.11 -2.71855 -3.81068 0
M  V30 13543 H 1310.28 -3.96615 -5.12445 0
M  V30 13544 N 1303.68 1.3679 -0.7827 0
M  V30 13545 C 1304.93 1.99023 -0.351316 0
M  V30 13546 C 1305.25 1.62436 1.07887 0
M  V30 13547 O 1304.52 0.895084 1.74256 0
M  V30 13548 H 1303.1 0.736141 -0.126909 0
M  V30 13549 H 1305.77 1.67095 -1.00325 0
M  V30 13550 H 1304.86 3.09015 -0.43774 0
M  V30 13551 N 1305.16 0.53415 1.48272 0
M  V30 13552 C 1306.39 0.00368464 2.074 0
M  V30 13553 C 1306.81 -1.27003 1.38751 0
M  V30 13554 O 1306.17 -1.75502 0.454817 0
M  V30 13555 C 1306.22 -0.199034 3.6005 0
M  V30 13556 O 1305.32 -1.26679 3.92462 0
M  V30 13557 H 1304.66 0.0409936 0.662733 0
M  V30 13558 H 1307.19 0.743253 1.90622 0
M  V30 13559 H 1307.2 -0.420404 4.05828 0
M  V30 13560 H 1305.88 0.731391 4.09418 0
M  V30 13561 H 1304.46 -1.02775 3.58457 0
M  V30 13562 N 1306.64 -1.55279 0.269478 0
M  V30 13563 C 1308.05 -1.85286 -0.229372 0
M  V30 13564 C 1308.4 -1.19148 -1.55879 0
M  V30 13565 O 1307.53 -0.4778 -2.11059 0
M  V30 13566 C 1308.12 -3.3615 -0.42296 0
M  V30 13567 C 1306.68 -3.66301 -0.866047 0
M  V30 13568 C 1305.83 -2.77265 0.0439028 0
M  V30 13569 H 1308.78 -1.509 0.491427 0
M  V30 13570 H 1308.8 -3.5895 -1.26234 0
M  V30 13571 H 1308.31 -3.84258 0.544768 0
M  V30 13572 H 1306.41 -3.23688 -1.84545 0
M  V30 13573 H 1306.53 -4.73851 -0.707274 0
M  V30 13574 H 1304.89 -2.50299 -0.471433 0
M  V30 13575 H 1305.67 -3.28186 1.00741 0
M  V30 13576 N 1308.12 0.00332656 -1.576 0
M  V30 13577 C 1309.08 0.980628 -2.07163 0
M  V30 13578 C 1310.08 1.27455 -0.980402 0
M  V30 13579 O 1311.27 1.22029 -1.24317 0
M  V30 13580 C 1308.4 2.30647 -2.51028 0
M  V30 13581 H 1309.6 0.551982 -2.94776 0
M  V30 13582 H 1307.15 0.250728 -1.54276 0
M  V30 13583 H 1307.88 2.78207 -1.66647 0
M  V30 13584 H 1307.67 2.10635 -3.30719 0
M  V30 13585 H 1309.16 3.00761 -2.89711 0
M  V30 13586 N 1309.6 1.55164 0.276031 0
M  V30 13587 C 1310.56 1.87065 1.32436 0
M  V30 13588 C 1311.56 0.745024 1.42499 0
M  V30 13589 O 1312.75 1.01321 1.41702 0
M  V30 13590 C 1309.88 2.07322 2.70611 0
M  V30 13591 H 1311.07 2.80775 1.05382 0
M  V30 13592 H 1308.63 1.47609 0.513947 0
M  V30 13593 H 1309.36 1.15983 3.0285 0
M  V30 13594 H 1309.15 2.89275 2.64693 0
M  V30 13595 H 1310.64 2.33287 3.46362 0
M  V30 13596 N 1311.07 -0.540404 1.48045 0
M  V30 13597 C 1312.49 -1.12243 1.49192 0
M  V30 13598 C 1312.84 -1.94524 0.255895 0
M  V30 13599 O 1311.96 -2.06786 -0.637855 0
M  V30 13600 C 1312.56 -2.04227 2.70327 0
M  V30 13601 C 1311.12 -2.57668 2.7438 0
M  V30 13602 C 1310.26 -1.34402 2.42552 0
M  V30 13603 H 1313.21 -0.326165 1.55312 0
M  V30 13604 H 1313.23 -2.88359 2.48253 0
M  V30 13605 H 1312.75 -1.44314 3.60271 0
M  V30 13606 H 1310.85 -3.21331 1.88618 0
M  V30 13607 H 1310.96 -2.97514 3.7553 0
M  V30 13608 H 1309.32 -1.65635 1.93487 0
M  V30 13609 H 1310.11 -0.762571 3.34723 0
M  V30 13610 N 1312.55 -1.36459 -0.788468 0
M  V30 13611 C 1313.8 -1.30483 -1.54333 0
M  V30 13612 C 1314.12 0.115266 -1.94659 0
M  V30 13613 O 1313.39 1.05573 -1.65019 0
M  V30 13614 H 1311.97 -0.480004 -0.572368 0
M  V30 13615 H 1314.63 -1.70765 -0.939428 0
M  V30 13616 H 1313.73 -1.93284 -2.45046 0
M  V30 13617 N 1314.03 1.01274 -1.20754 0
M  V30 13618 C 1314.96 2.10029 -0.917628 0
M  V30 13619 C 1315.98 1.62516 0.0961411 0
M  V30 13620 O 1317.16 1.77986 -0.135371 0
M  V30 13621 C 1314.26 3.37037 -0.354891 0
M  V30 13622 C 1313.44 4.1367 -1.42113 0
M  V30 13623 C 1312.5 5.18974 -0.869023 0
M  V30 13624 O 1311.52 5.47671 -1.55063 0
M  V30 13625 N 1312.72 5.79619 0.319631 0
M  V30 13626 H 1315.49 2.35485 -1.85383 0
M  V30 13627 H 1313.05 1.17695 -1.11173 0
M  V30 13628 H 1315.04 4.0469 0.0286895 0
M  V30 13629 H 1313.61 3.088 0.485956 0
M  V30 13630 H 1312.83 3.40931 -1.97889 0
M  V30 13631 H 1314.12 4.61649 -2.13911 0
M  V30 13632 H 1313.52 5.58646 0.89059 0
M  V30 13633 H 1312.08 6.48603 0.644807 0
M  V30 13634 N 1315.51 1.01404 1.20644 0
M  V30 13635 C 1316.42 0.591693 2.27016 0
M  V30 13636 C 1317.44 -0.36958 1.7003 0
M  V30 13637 O 1318.61 -0.231165 2.00069 0
M  V30 13638 C 1315.68 -0.0659827 3.46637 0
M  V30 13639 C 1314.74 0.940911 4.18862 0
M  V30 13640 C 1313.97 0.314526 5.32772 0
M  V30 13641 O 1314.19 -0.886404 5.63471 0
M  V30 13642 O 1313.13 1.02998 5.93022 0
M  V30 13643 H 1316.95 1.4772 2.65353 0
M  V30 13644 H 1314.54 0.783399 1.27213 0
M  V30 13645 H 1316.42 -0.433412 4.19165 0
M  V30 13646 H 1315.1 -0.925729 3.10181 0
M  V30 13647 H 1314 1.35966 3.48517 0
M  V30 13648 H 1315.34 1.77054 4.59252 0
M  V30 13649 N 1316.99 -1.36373 0.789944 0
M  V30 13650 C 1318.26 -1.9349 0.286543 0
M  V30 13651 C 1318.64 -1.7218 -1.22136 0
M  V30 13652 O 1317.99 -1.08106 -2.01309 0
M  V30 13653 C 1318.2 -3.42316 0.679749 0
M  V30 13654 C 1319.55 -4.19442 0.659791 0
M  V30 13655 O 1320.57 -3.50758 0.620256 0
M  V30 13656 O 1319.43 -5.41957 0.703159 0
M  V30 13657 H 1316.53 -0.823942 0.0710537 0
M  V30 13658 H 1319.07 -1.45551 0.872523 0
M  V30 13659 H 1317.85 -3.51485 1.7197 0
M  V30 13660 H 1317.47 -3.97542 0.0676823 0
M  V30 13661 N 1318.47 -0.542005 -1.47987 0
M  V30 13662 C 1319.71 -0.0122873 -2.02096 0
M  V30 13663 C 1320.03 1.3362 -1.42024 0
M  V30 13664 O 1319.3 1.86807 -0.589911 0
M  V30 13665 H 1317.88 -0.00155365 -0.746998 0
M  V30 13666 H 1320.55 -0.708566 -1.81564 0
M  V30 13667 H 1319.64 0.0871275 -3.11978 0
M  V30 13668 N 1319.94 1.55134 -0.277709 0
M  V30 13669 C 1320.91 2.21327 0.595569 0
M  V30 13670 C 1321.91 1.19193 1.07933 0
M  V30 13671 O 1323.1 1.44081 0.979093 0
M  V30 13672 C 1320.23 2.88127 1.82196 0
M  V30 13673 H 1321.42 2.99895 0.0175855 0
M  V30 13674 H 1318.97 1.56274 -0.0283453 0
M  V30 13675 H 1319.71 2.13578 2.44039 0
M  V30 13676 H 1319.49 3.62974 1.48297 0
M  V30 13677 H 1320.98 3.38691 2.44291 0
M  V30 13678 O 1321.46 0.143437 1.60862 0
M  V30 13679 H 1322.15 -0.451144 1.88373 0
M  V30 END ATOM
M  V30 BEGIN BOND
M  V30 END BOND
M  V30 END CTAB
M  END
$$$$
