drugbank_target|Q5SKH6 Uncharacterized protein (DB01752)
 OpenBabel12092120223D

  0  0  0     0  0            999 V3000
M  V30 BEGIN CTAB
M  V30 COUNTS 3785 3825 0 0 0
M  V30 BEGIN ATOM
M  V30 1 H -0.908 1.98254 -0.117106 0
M  V30 2 N 0 1.576 0 0
M  V30 3 C 0.933 2.03868 1.02534 0
M  V30 4 C 1.911 0.928543 1.3348 0
M  V30 5 O 3.095 1.19667 1.45644 0
M  V30 6 C 0.222 2.43627 2.35294 0
M  V30 7 C -0.732 3.65373 2.2001 0
M  V30 8 S 0.101 5.13292 1.52614 0
M  V30 9 C 1.257 5.56322 2.86805 0
M  V30 10 H 1.49 2.90518 0.631377 0
M  V30 11 H -0.977 1.52953 0.210867 0
M  V30 12 H 0.981 2.67203 3.11629 0
M  V30 13 H -0.358 1.57376 2.7183 0
M  V30 14 H -1.165 3.90944 3.18086 0
M  V30 15 H -1.563 3.418 1.51819 0
M  V30 16 H 0.729 5.58782 3.83104 0
M  V30 17 H 1.672 6.56266 2.65933 0
M  V30 18 H 2.08 4.83886 2.90714 0
M  V30 19 N 1.4781 -0.272755 1.55222 0
M  V30 20 C 2.7261 -1.00234 1.75492 0
M  V30 21 C 3.0471 -1.8681 0.5592 0
M  V30 22 O 2.3171 -1.91215 -0.425882 0
M  V30 23 H 0.8971 -0.373076 0.647166 0
M  V30 24 H 3.5591 -0.296926 1.92625 0
M  V30 25 H 2.6551 -1.63913 2.65592 0
M  V30 26 N 2.9562 -1.48159 -0.537278 0
M  V30 27 C 4.3722 -1.34118 -0.865129 0
M  V30 28 C 4.5722 -0.346678 -1.98495 0
M  V30 29 O 3.6282 0.234715 -2.51407 0
M  V30 30 C 4.9412 -2.73963 -1.23954 0
M  V30 31 C 6.4892 -2.82397 -1.34984 0
M  V30 32 C 6.9642 -4.22928 -1.75772 0
M  V30 33 N 8.4552 -4.25566 -1.82887 0
M  V30 34 C 9.1902 -5.31235 -2.15817 0
M  V30 35 N 8.6862 -6.47189 -2.47222 0
M  V30 36 N 10.4792 -5.18624 -2.16761 0
M  V30 37 H 2.6302 -2.1144 0.201715 0
M  V30 38 H 4.8932 -0.947598 0.0275949 0
M  V30 39 H 4.5992 -3.48264 -0.490381 0
M  V30 40 H 4.4732 -3.0702 -2.19132 0
M  V30 41 H 6.8602 -2.08356 -2.08978 0
M  V30 42 H 6.9412 -2.5297 -0.379448 0
M  V30 43 H 6.5852 -4.97482 -1.02341 0
M  V30 44 H 6.5152 -4.49794 -2.73848 0
M  V30 45 H 9.0062 -3.41924 -1.60924 0
M  V30 46 H 9.3192 -7.23564 -2.71433 0
M  V30 47 H 7.6642 -6.50476 -2.44757 0
M  V30 48 H 10.8552 -4.27056 -1.91679 0
M  V30 49 H 11.0282 -6.01078 -2.42093 0
M  V30 50 N 4.4343 0.785586 -1.36625 0
M  V30 51 C 5.6803 1.54591 -1.31261 0
M  V30 52 C 6.0133 1.93906 0.106823 0
M  V30 53 O 5.2883 1.63007 1.06108 0
M  V30 54 C 5.5713 2.82038 -2.23889 0
M  V30 55 C 5.4243 2.49066 -3.74548 0
M  V30 56 C 6.7433 3.83887 -2.15217 0
M  V30 57 H 3.8623 0.560846 -0.478143 0
M  V30 58 H 6.5043 0.902278 -1.67209 0
M  V30 59 H 4.6543 3.36961 -1.93363 0
M  V30 60 H 6.3263 2.00164 -4.15611 0
M  V30 61 H 4.5693 1.81954 -3.93796 0
M  V30 62 H 5.2403 3.40109 -4.34776 0
M  V30 63 H 7.7163 3.38421 -2.42096 0
M  V30 64 H 6.5923 4.70806 -2.82193 0
M  V30 65 H 6.8533 4.27131 -1.14068 0
M  V30 66 N 5.9124 1.20967 1.01018 0
M  V30 67 C 7.1424 1.04803 1.78044 0
M  V30 68 C 7.5504 -0.405462 1.84804 0
M  V30 69 O 6.8934 -1.2932 1.30468 0
M  V30 70 C 6.9554 1.56377 3.23707 0
M  V30 71 C 6.6194 3.04767 3.40538 0
M  V30 72 C 7.6164 4.02366 3.29239 0
M  V30 73 C 5.3014 3.43862 3.66147 0
M  V30 74 C 7.2954 5.37049 3.43304 0
M  V30 75 C 4.9824 4.78699 3.79855 0
M  V30 76 C 5.9804 5.75101 3.68439 0
M  V30 77 O 5.6684 7.07493 3.81719 0
M  V30 78 H 5.4004 0.368778 0.56655 0
M  V30 79 H 7.9544 1.60642 1.27997 0
M  V30 80 H 6.1844 0.949297 3.74867 0
M  V30 81 H 7.8734 1.36136 3.8239 0
M  V30 82 H 8.6394 3.73506 3.09384 0
M  V30 83 H 4.5184 2.69364 3.74118 0
M  V30 84 H 8.0624 6.12277 3.34309 0
M  V30 85 H 3.9594 5.07247 3.99213 0
M  V30 86 H 4.7274 7.1483 3.98697 0
M  V30 87 N 7.3905 -1.2043 1.01659 0
M  V30 88 C 8.3205 -2.25466 0.607226 0
M  V30 89 C 9.3015 -1.65853 -0.377716 0
M  V30 90 O 10.4865 -1.92409 -0.263149 0
M  V30 91 C 7.6165 -3.47256 -0.0552949 0
M  V30 92 C 6.5705 -4.19462 0.850632 0
M  V30 93 C 5.8965 -5.34673 0.0538859 0
M  V30 94 C 7.1965 -4.75603 2.15868 0
M  V30 95 H 8.8905 -2.59962 1.48526 0
M  V30 96 H 6.4365 -1.2496 0.715605 0
M  V30 97 H 8.3895 -4.19917 -0.353233 0
M  V30 98 H 7.1135 -3.11924 -0.968045 0
M  V30 99 H 5.7725 -3.48667 1.13257 0
M  V30 100 H 5.4205 -4.95585 -0.860514 0
M  V30 101 H 5.1205 -5.83913 0.657192 0
M  V30 102 H 6.6445 -6.10138 -0.237598 0
M  V30 103 H 8.0585 -5.40083 1.92311 0
M  V30 104 H 6.4555 -5.3528 2.71284 0
M  V30 105 H 7.5255 -3.94346 2.82169 0
M  V30 106 N 8.8686 -0.792821 -1.36206 0
M  V30 107 C 10.1146 -0.36733 -1.99446 0
M  V30 108 C 10.4476 1.05917 -1.62774 0
M  V30 109 O 9.7226 1.7324 -0.88421 0
M  V30 110 C 10.0056 -0.535044 -3.56103 0
M  V30 111 C 9.8586 -2.00548 -4.02617 0
M  V30 112 C 11.1776 0.0478191 -4.40074 0
M  V30 113 H 8.2966 -0.134941 -0.724541 0
M  V30 114 H 10.9386 -0.999794 -1.61568 0
M  V30 115 H 9.0886 0.00336329 -3.885 0
M  V30 116 H 10.7606 -2.60521 -3.80692 0
M  V30 117 H 9.0036 -2.50686 -3.54032 0
M  V30 118 H 9.6746 -2.07377 -5.11565 0
M  V30 119 H 12.1506 -0.411822 -4.14057 0
M  V30 120 H 11.0266 -0.0995336 -5.4881 0
M  V30 121 H 11.2876 1.14025 -4.27142 0
M  V30 122 N 10.3467 1.47872 -0.545128 0
M  V30 123 C 11.5947 2.02093 -0.016553 0
M  V30 124 C 11.9157 1.42305 1.3332 0
M  V30 125 O 11.1857 0.593853 1.86682 0
M  V30 126 H 9.7657 0.746993 -0.00313038 0
M  V30 127 H 12.4277 1.81414 -0.712397 0
M  V30 128 H 11.5237 3.11996 0.0805422 0
M  V30 129 N 11.8248 0.280983 1.55075 0
M  V30 130 C 12.7878 -0.590896 2.21452 0
M  V30 131 C 13.7878 -1.07682 1.19421 0
M  V30 132 O 14.9778 -0.97605 1.44288 0
M  V30 133 C 12.1098 -1.81587 2.88511 0
M  V30 134 H 13.3028 -0.0112554 2.99898 0
M  V30 135 H 10.8558 0.0316438 1.56268 0
M  V30 136 H 11.5908 -2.43587 2.14093 0
M  V30 137 H 11.3758 -1.4753 3.63287 0
M  V30 138 H 12.8658 -2.43575 3.39206 0
M  V30 139 N 13.3029 -1.57598 0.00835791 0
M  V30 140 C 14.5509 -1.90551 -0.6734 0
M  V30 141 C 14.8719 -0.883301 -1.73847 0
M  V30 142 O 14.1419 0.0781442 -1.95744 0
M  V30 143 H 12.7219 -0.703312 -0.251717 0
M  V30 144 H 15.3839 -1.94833 0.0512592 0
M  V30 145 H 14.4799 -2.9056 -1.13935 0
M  V30 146 N 14.781 0.264519 -1.55364 0
M  V30 147 C 16.192 0.834936 -1.6699 0
M  V30 148 C 16.543 1.86718 -0.602552 0
M  V30 149 O 15.668 2.14899 0.254425 0
M  V30 150 C 16.263 1.5212 -3.02729 0
M  V30 151 C 14.822 2.03954 -3.16354 0
M  V30 152 C 13.969 0.884498 -2.62815 0
M  V30 153 H 16.92 0.0406869 -1.58648 0
M  V30 154 H 16.941 2.38853 -2.96191 0
M  V30 155 H 16.453 0.769668 -3.80392 0
M  V30 156 H 14.554 2.82041 -2.43482 0
M  V30 157 H 14.667 2.24902 -4.23032 0
M  V30 158 H 13.031 1.2802 -2.20188 0
M  V30 159 H 13.814 0.14634 -3.42988 0
M  V30 160 N 16.2591 1.48442 0.529413 0
M  V30 161 C 17.5071 1.56179 1.28267 0
M  V30 162 C 17.8281 0.237721 1.93546 0
M  V30 163 O 17.0981 -0.740779 1.81354 0
M  V30 164 H 15.6781 0.575367 0.476405 0
M  V30 165 H 18.3401 1.84909 0.61602 0
M  V30 166 H 17.4361 2.34312 2.06165 0
M  V30 167 N 17.7372 -0.778329 1.37039 0
M  V30 168 C 19.0142 -1.52551 1.22424 0
M  V30 169 C 19.3942 -2.10288 -0.184964 0
M  V30 170 O 18.7422 -1.94953 -1.19187 0
M  V30 171 C 18.9522 -2.61164 2.31504 0
M  V30 172 C 20.3002 -3.28746 2.68721 0
M  V30 173 O 21.3242 -2.71455 2.30631 0
M  V30 174 O 20.1832 -4.3231 3.3432 0
M  V30 175 H 17.2772 -0.675343 0.477326 0
M  V30 176 H 19.8232 -0.815859 1.48801 0
M  V30 177 H 18.5952 -2.16574 3.25901 0
M  V30 178 H 18.2182 -3.39737 2.06554 0
M  V30 179 N 19.2153 -1.21501 -1.00376 0
M  V30 180 C 20.6263 -1.03146 -1.55621 0
M  V30 181 C 20.9773 0.408375 -1.91903 0
M  V30 182 O 20.1023 1.29177 -1.73616 0
M  V30 183 C 20.6973 -1.86612 -2.82775 0
M  V30 184 C 19.2563 -1.72586 -3.34501 0
M  V30 185 C 18.4033 -1.83747 -2.07683 0
M  V30 186 H 21.3543 -1.35505 -0.826081 0
M  V30 187 H 21.3753 -1.3771 -3.54706 0
M  V30 188 H 20.8873 -2.91399 -2.56336 0
M  V30 189 H 18.9883 -0.704877 -3.65872 0
M  V30 190 H 19.1013 -2.54623 -4.05837 0
M  V30 191 H 17.4653 -1.27069 -2.20739 0
M  V30 192 H 18.2483 -2.90044 -1.83655 0
M  V30 193 N 20.6934 1.19889 -1.02296 0
M  V30 194 C 21.6034 2.26571 -0.608508 0
M  V30 195 C 22.6194 1.70299 0.356964 0
M  V30 196 O 23.7954 2.00235 0.216326 0
M  V30 197 C 20.8604 3.46677 0.0402814 0
M  V30 198 C 19.9214 4.18153 -0.97194 0
M  V30 199 C 19.1544 5.32525 -0.354016 0
M  V30 200 O 19.3774 5.64112 0.844604 0
M  V30 201 O 18.3114 5.92242 -1.07391 0
M  V30 202 H 22.1374 2.64251 -1.49684 0
M  V30 203 H 19.7224 1.26629 -0.792809 0
M  V30 204 H 21.6044 4.19475 0.402324 0
M  V30 205 H 20.2794 3.10858 0.902707 0
M  V30 206 H 19.1864 3.47499 -1.38546 0
M  V30 207 H 20.5194 4.57927 -1.80454 0
M  V30 208 N 22.1715 0.800033 1.35784 0
M  V30 209 C 23.1015 0.220184 2.3246 0
M  V30 210 C 24.0825 -0.65073 1.57161 0
M  V30 211 O 25.2675 -0.582359 1.85263 0
M  V30 212 C 22.3975 -0.637353 3.41402 0
M  V30 213 C 21.3515 0.134531 4.27789 0
M  V30 214 C 20.6775 -0.844285 5.27992 0
M  V30 215 C 21.9775 1.32979 5.05088 0
M  V30 216 H 23.6715 1.02787 2.81203 0
M  V30 217 H 21.2175 0.495717 1.35199 0
M  V30 218 H 23.1705 -1.05302 4.08031 0
M  V30 219 H 21.8945 -1.47785 2.91251 0
M  V30 220 H 20.5535 0.531296 3.6273 0
M  V30 221 H 20.2015 -1.68011 4.74111 0
M  V30 222 H 19.9015 -0.332184 5.8666 0
M  V30 223 H 21.4255 -1.2583 5.97494 0
M  V30 224 H 22.8395 0.98934 5.64699 0
M  V30 225 H 21.2365 1.77593 5.7322 0
M  V30 226 H 22.3065 2.11978 4.36111 0
M  V30 227 N 23.6496 -1.47581 0.552962 0
M  V30 228 C 24.5796 -2.32762 -0.185451 0
M  V30 229 C 25.5606 -1.43527 -0.912905 0
M  V30 230 O 26.7456 -1.72388 -0.894201 0
M  V30 231 C 23.8756 -3.25219 -1.21859 0
M  V30 232 C 22.8296 -4.23661 -0.607864 0
M  V30 233 C 22.1556 -5.05413 -1.74533 0
M  V30 234 C 23.4556 -5.20481 0.435582 0
M  V30 235 H 25.1496 -2.94749 0.525684 0
M  V30 236 H 22.6956 -1.41738 0.254251 0
M  V30 237 H 24.6486 -3.8365 -1.7433 0
M  V30 238 H 23.3726 -2.61279 -1.95961 0
M  V30 239 H 22.0316 -3.66451 -0.104489 0
M  V30 240 H 21.6796 -4.3788 -2.47529 0
M  V30 241 H 21.3796 -5.72059 -1.34249 0
M  V30 242 H 22.9036 -5.66701 -2.27338 0
M  V30 243 H 24.3176 -5.733 -0.00290157 0
M  V30 244 H 22.7146 -5.95305 0.757067 0
M  V30 245 H 23.7846 -4.66217 1.33303 0
M  V30 246 N 25.1277 -0.289203 -1.54924 0
M  V30 247 C 26.3557 0.326463 -2.04308 0
M  V30 248 C 26.7707 1.48413 -1.16701 0
M  V30 249 O 26.1277 1.81507 -0.190087 0
M  V30 250 C 26.1787 0.794014 -3.52672 0
M  V30 251 O 25.8997 -0.317564 -4.36948 0
M  V30 252 C 27.4007 1.47605 -4.18004 0
M  V30 253 H 24.6207 0.0726272 -0.667058 0
M  V30 254 H 27.1647 -0.425401 -2.00026 0
M  V30 255 H 25.3197 1.49593 -3.57352 0
M  V30 256 H 25.7337 0.0443186 -5.24481 0
M  V30 257 H 27.2077 1.75447 -5.23376 0
M  V30 258 H 27.6847 2.41224 -3.67025 0
M  V30 259 H 28.2907 0.81762 -4.17367 0
M  V30 260 N 26.6058 1.57591 -0.0167156 0
M  V30 261 C 27.5358 2.12496 0.967858 0
M  V30 262 C 28.5168 1.03807 1.34752 0
M  V30 263 O 29.7018 1.31577 1.42833 0
M  V30 264 C 26.8318 2.64194 2.25431 0
M  V30 265 C 25.7858 3.77559 2.01576 0
M  V30 266 C 25.1118 4.15636 3.36379 0
M  V30 267 C 26.4118 5.04151 1.36489 0
M  V30 268 H 28.1058 2.95013 0.510643 0
M  V30 269 H 25.6518 1.41915 0.244181 0
M  V30 270 H 27.6048 3.01236 2.94678 0
M  V30 271 H 26.3288 1.78821 2.73296 0
M  V30 272 H 24.9878 3.40937 1.34751 0
M  V30 273 H 24.6358 3.27263 3.81979 0
M  V30 274 H 24.3358 4.92022 3.21229 0
M  V30 275 H 25.8598 4.5525 4.06915 0
M  V30 276 H 27.2738 5.38857 1.95718 0
M  V30 277 H 25.6708 5.85453 1.31776 0
M  V30 278 H 26.7408 4.83733 0.336219 0
M  V30 279 N 28.0839 -0.256276 1.55502 0
M  V30 280 C 29.0309 -1.31714 1.89526 0
M  V30 281 C 30.0009 -1.4828 0.748479 0
M  V30 282 O 31.1859 -1.62416 1.00128 0
M  V30 283 C 28.3259 -2.66933 2.18725 0
M  V30 284 C 27.4389 -2.58452 3.4616 0
M  V30 285 C 26.5739 -3.85961 3.64976 0
M  V30 286 C 25.6129 -3.72059 4.86044 0
M  V30 287 N 24.7499 -4.9144 5.01429 0
M  V30 288 H 29.5899 -1.01998 2.80001 0
M  V30 289 H 27.1269 -0.492413 1.38613 0
M  V30 290 H 29.0849 -3.4563 2.33657 0
M  V30 291 H 27.7149 -2.94816 1.31466 0
M  V30 292 H 26.7669 -1.71374 3.3961 0
M  V30 293 H 28.0789 -2.44085 4.34999 0
M  V30 294 H 27.2329 -4.73101 3.79816 0
M  V30 295 H 25.9719 -4.03215 2.74353 0
M  V30 296 H 24.9769 -2.83302 4.7119 0
M  V30 297 H 26.2019 -3.56309 5.78118 0
M  V30 298 H 24.1479 -5.09072 4.13741 0
M  V30 299 H 24.0649 -4.79668 5.84341 0
M  V30 300 H 25.3329 -5.80104 5.20672 0
M  V30 301 N 29.562 -1.4872 -0.521534 0
M  V30 302 C 30.525 -1.63379 -1.60748 0
M  V30 303 C 31.525 -0.50661 -1.52611 0
M  V30 304 O 32.715 -0.772601 -1.5613 0
M  V30 305 C 29.847 -1.61192 -3.00383 0
M  V30 306 H 31.04 -2.60217 -1.49087 0
M  V30 307 H 28.593 -1.37444 -0.744235 0
M  V30 308 H 29.328 -0.65863 -3.17541 0
M  V30 309 H 29.113 -2.43032 -3.07698 0
M  V30 310 H 30.603 -1.7466 -3.7932 0
M  V30 311 N 31.0401 0.771051 -1.3745 0
M  V30 312 C 32.2701 1.55789 -1.35696 0
M  V30 313 C 32.6781 1.89107 0.0594523 0
M  V30 314 O 32.0211 1.51984 1.03183 0
M  V30 315 C 32.0831 2.89515 -2.13123 0
M  V30 316 C 31.7471 2.78829 -3.62082 0
M  V30 317 C 32.7441 2.49812 -4.5595 0
M  V30 318 C 30.4291 2.9683 -4.05213 0
M  V30 319 C 32.4231 2.38923 -5.90927 0
M  V30 320 C 30.1101 2.85562 -5.40276 0
M  V30 321 C 31.1081 2.56649 -6.32946 0
M  V30 322 O 30.7961 2.45408 -7.65526 0
M  V30 323 H 30.5281 0.489257 -0.466481 0
M  V30 324 H 33.0821 0.963446 -1.81403 0
M  V30 325 H 31.3121 3.51081 -1.62107 0
M  V30 326 H 33.0011 3.50915 -2.03994 0
M  V30 327 H 33.7671 2.3559 -4.23937 0
M  V30 328 H 29.6461 3.18335 -3.33442 0
M  V30 329 H 33.1901 2.16277 -6.63227 0
M  V30 330 H 29.0871 2.99351 -5.71891 0
M  V30 331 H 29.8551 2.60753 -7.75855 0
M  V30 332 N 32.5182 1.22032 0.997298 0
M  V30 333 C 33.9342 0.979326 1.26021 0
M  V30 334 C 34.1342 -0.32972 1.98784 0
M  V30 335 O 33.1902 -1.05345 2.29475 0
M  V30 336 C 34.5032 2.17509 2.07631 0
M  V30 337 C 36.0512 2.21817 2.2083 0
M  V30 338 C 36.5262 3.40933 3.05825 0
M  V30 339 N 38.0172 3.41067 3.13412 0
M  V30 340 C 38.7522 4.29885 3.79455 0
M  V30 341 N 38.2482 5.28914 4.47462 0
M  V30 342 N 40.0412 4.17673 3.76173 0
M  V30 343 H 32.1922 2.06202 0.509352 0
M  V30 344 H 34.4552 0.90334 0.287541 0
M  V30 345 H 34.1612 3.12415 1.61524 0
M  V30 346 H 34.0352 2.17206 3.08385 0
M  V30 347 H 36.4222 1.27462 2.66153 0
M  V30 348 H 36.5032 2.2616 1.1952 0
M  V30 349 H 36.1472 4.35586 2.61203 0
M  V30 350 H 36.0772 3.33829 4.07266 0
M  V30 351 H 38.5682 2.69406 2.65007 0
M  V30 352 H 38.8812 5.92973 4.95583 0
M  V30 353 H 37.2262 5.32831 4.46224 0
M  V30 354 H 40.4172 3.39564 3.22202 0
M  V30 355 H 40.5902 4.87098 4.27363 0
M  V30 356 N 33.9963 -1.19345 1.0293 0
M  V30 357 C 34.9263 -2.2481 0.631105 0
M  V30 358 C 35.9073 -1.66245 -0.360104 0
M  V30 359 O 37.0923 -1.92677 -0.242726 0
M  V30 360 C 34.2223 -3.47295 -0.0184607 0
M  V30 361 C 33.1763 -4.18536 0.895073 0
M  V30 362 C 32.5023 -5.34586 0.110592 0
M  V30 363 C 33.8023 -4.73287 2.209 0
M  V30 364 H 35.4963 -2.58372 1.51275 0
M  V30 365 H 33.0423 -1.24194 0.728818 0
M  V30 366 H 34.9953 -4.20268 -0.308675 0
M  V30 367 H 33.7193 -3.12933 -0.934907 0
M  V30 368 H 32.3783 -3.47446 1.16949 0
M  V30 369 H 32.0263 -4.96469 -0.807902 0
M  V30 370 H 31.7263 -5.83183 0.719087 0
M  V30 371 H 33.2503 -6.10355 -0.172871 0
M  V30 372 H 34.6643 -5.38013 1.98028 0
M  V30 373 H 33.0613 -5.32373 2.76946 0
M  V30 374 H 34.1313 -3.91331 2.86336 0
M  V30 375 N 35.4744 -0.807222 -1.35358 0
M  V30 376 C 36.4044 -0.232509 -2.3234 0
M  V30 377 C 37.3854 0.642386 -1.57504 0
M  V30 378 O 38.5704 0.572526 -1.85569 0
M  V30 379 C 35.7004 0.619238 -3.41735 0
M  V30 380 C 34.6544 -0.157215 -4.27711 0
M  V30 381 C 33.9804 0.816273 -5.28433 0
M  V30 382 C 35.2804 -1.35656 -5.04376 0
M  V30 383 H 36.9744 -1.04276 -2.80654 0
M  V30 384 H 34.5204 -0.50288 -1.34934 0
M  V30 385 H 36.4734 1.03137 -4.08584 0
M  V30 386 H 35.1974 1.46239 -2.92031 0
M  V30 387 H 33.8564 -0.550525 -3.62443 0
M  V30 388 H 33.5044 1.65494 -4.74996 0
M  V30 389 H 33.2044 0.301067 -5.86828 0
M  V30 390 H 34.7284 1.22659 -5.98153 0
M  V30 391 H 36.1424 -1.01927 -5.64166 0
M  V30 392 H 34.5394 -1.8063 -5.7227 0
M  V30 393 H 35.6094 -2.14288 -4.34981 0
M  V30 394 N 36.9525 1.47285 -0.560781 0
M  V30 395 C 37.8995 2.30058 0.18491 0
M  V30 396 C 38.8695 1.39281 0.904986 0
M  V30 397 O 40.0545 1.68241 0.899979 0
M  V30 398 C 37.1945 3.23317 1.20666 0
M  V30 399 C 36.3075 4.29186 0.492285 0
M  V30 400 C 35.4425 5.09592 1.49964 0
M  V30 401 C 34.4815 6.07232 0.770439 0
M  V30 402 N 33.6185 6.80584 1.72479 0
M  V30 403 H 38.4585 2.93302 -0.527048 0
M  V30 404 H 35.9955 1.44568 -0.271738 0
M  V30 405 H 37.9535 3.75811 1.81168 0
M  V30 406 H 36.5835 2.61929 1.88661 0
M  V30 407 H 35.6355 3.7972 -0.227333 0
M  V30 408 H 36.9475 4.98738 -0.0787929 0
M  V30 409 H 36.1015 5.66254 2.17809 0
M  V30 410 H 34.8405 4.3995 2.10464 0
M  V30 411 H 33.8455 5.49745 0.0780846 0
M  V30 412 H 35.0705 6.78884 0.171134 0
M  V30 413 H 33.0165 6.1367 2.3183 0
M  V30 414 H 32.9335 7.46319 1.20596 0
M  V30 415 H 34.2015 7.41818 2.39428 0
M  V30 416 N 38.4306 0.297415 1.54768 0
M  V30 417 C 39.3406 -0.58983 2.27064 0
M  V30 418 C 40.3566 -1.15144 1.30453 0
M  V30 419 O 41.5326 -1.17699 1.63428 0
M  V30 420 C 38.5976 -1.74714 2.9946 0
M  V30 421 C 37.6586 -1.21997 4.11601 0
M  V30 422 C 36.8916 -2.32212 4.80535 0
M  V30 423 O 37.1146 -3.52036 4.48806 0
M  V30 424 O 36.0486 -1.99106 5.68014 0
M  V30 425 H 39.8746 -0.00348199 3.037 0
M  V30 426 H 37.4596 0.0640035 1.49263 0
M  V30 427 H 39.3416 -2.42147 3.44881 0
M  V30 428 H 38.0166 -2.32016 2.25722 0
M  V30 429 H 36.9236 -0.511458 3.70587 0
M  V30 430 H 38.2566 -0.692419 4.87305 0
M  V30 431 N 39.9087 -1.5758 0.0250728 0
M  V30 432 C 40.8717 -2.08896 -0.943139 0
M  V30 433 C 41.8717 -1.00321 -1.25668 0
M  V30 434 O 43.0617 -1.26495 -1.19769 0
M  V30 435 C 40.1937 -2.55143 -2.26086 0
M  V30 436 H 41.3867 -2.95723 -0.498775 0
M  V30 437 H 38.9397 -1.54703 -0.222888 0
M  V30 438 H 39.6747 -1.71633 -2.75159 0
M  V30 439 H 39.4597 -3.34461 -2.04641 0
M  V30 440 H 40.9497 -2.95083 -2.95492 0
M  V30 441 N 41.3868 0.248026 -1.55636 0
M  V30 442 C 42.7978 0.817177 -1.67866 0
M  V30 443 C 43.1488 1.86069 -0.622322 0
M  V30 444 O 42.2738 2.15157 0.231618 0
M  V30 445 C 42.8688 1.489 -3.04326 0
M  V30 446 C 41.4278 2.00587 -3.185 0
M  V30 447 C 40.5748 0.856573 -2.63739 0
M  V30 448 H 43.5258 0.0238579 -1.58682 0
M  V30 449 H 43.5468 2.35698 -2.98708 0
M  V30 450 H 43.0588 0.729279 -3.81186 0
M  V30 451 H 41.1598 2.79443 -2.4646 0
M  V30 452 H 41.2728 2.20402 -4.25393 0
M  V30 453 H 39.6368 1.25678 -2.21534 0
M  V30 454 H 40.4198 0.109953 -3.43124 0
M  V30 455 N 42.8649 1.48995 0.513639 0
M  V30 456 C 44.1109 1.58076 1.27042 0
M  V30 457 C 44.4439 0.261026 1.92438 0
M  V30 458 O 43.7189 -0.734393 1.80103 0
M  V30 459 C 44.0019 2.73091 2.34719 0
M  V30 460 C 43.8549 4.14821 1.73907 0
M  V30 461 C 45.1739 2.83796 3.36375 0
M  V30 462 H 42.2929 0.575391 0.460536 0
M  V30 463 H 44.9349 1.81232 0.570516 0
M  V30 464 H 43.0849 2.53479 2.94416 0
M  V30 465 H 44.7569 4.45917 1.18135 0
M  V30 466 H 42.9999 4.21058 1.0437 0
M  V30 467 H 43.6709 4.91147 2.51949 0
M  V30 468 H 46.1469 3.01611 2.86653 0
M  V30 469 H 45.0229 3.65971 4.09093 0
M  V30 470 H 45.2839 1.92624 3.9793 0
M  V30 471 N 44.343 -0.763751 1.37857 0
M  V30 472 C 45.589 -1.52483 1.33704 0
M  V30 473 C 45.922 -1.94051 -0.0759612 0
M  V30 474 O 45.197 -1.64675 -1.03501 0
M  V30 475 C 45.48 -2.78441 2.28348 0
M  V30 476 C 45.333 -2.43075 3.78463 0
M  V30 477 C 46.652 -3.80415 2.21298 0
M  V30 478 H 43.771 -0.553169 0.487005 0
M  V30 479 H 46.413 -0.875562 1.68624 0
M  V30 480 H 44.563 -3.33842 1.987 0
M  V30 481 H 46.235 -1.93527 4.18742 0
M  V30 482 H 44.478 -1.75666 3.96641 0
M  V30 483 H 45.149 -3.33149 4.40132 0
M  V30 484 H 47.625 -3.34527 2.47449 0
M  V30 485 H 46.501 -4.66257 2.89647 0
M  V30 486 H 46.762 -4.25262 1.20849 0
M  V30 487 N 45.8211 -1.22559 -0.990812 0
M  V30 488 C 46.7511 -1.0218 -2.09956 0
M  V30 489 C 47.7321 0.0579394 -1.70001 0
M  V30 490 O 48.9171 -0.104684 -1.93918 0
M  V30 491 C 46.0471 -0.601023 -3.4206 0
M  V30 492 C 45.0011 -1.62694 -3.95872 0
M  V30 493 C 44.3271 -1.06193 -5.24049 0
M  V30 494 C 45.6271 -3.01743 -4.2632 0
M  V30 495 H 47.3211 -1.94916 -2.27262 0
M  V30 496 H 44.8671 -0.938566 -1.09211 0
M  V30 497 H 46.8201 -0.445561 -4.19038 0
M  V30 498 H 45.5441 0.362005 -3.24588 0
M  V30 499 H 44.2031 -1.77021 -3.21028 0
M  V30 500 H 43.8511 -0.0901903 -5.02919 0
M  V30 501 H 43.5511 -1.74732 -5.61019 0
M  V30 502 H 45.0751 -0.918092 -6.03658 0
M  V30 503 H 46.4891 -2.90777 -4.94087 0
M  V30 504 H 44.8861 -3.67425 -4.74467 0
M  V30 505 H 45.9561 -3.51518 -3.34011 0
M  V30 506 N 47.2992 1.18797 -1.03562 0
M  V30 507 C 48.5292 1.92319 -0.754773 0
M  V30 508 C 48.9372 1.7612 0.691248 0
M  V30 509 O 48.2802 1.08491 1.48241 0
M  V30 510 C 48.3422 3.44284 -1.03484 0
M  V30 511 C 48.0062 3.84258 -2.47376 0
M  V30 512 C 49.0032 3.88459 -3.45537 0
M  V30 513 C 46.6882 4.15701 -2.81954 0
M  V30 514 C 48.6822 4.23545 -4.76328 0
M  V30 515 C 46.3692 4.50458 -4.12954 0
M  V30 516 C 47.3672 4.54356 -5.09951 0
M  V30 517 O 47.0552 4.88305 -6.38603 0
M  V30 518 H 46.7872 0.617527 -0.275021 0
M  V30 519 H 49.3412 1.51683 -1.38497 0
M  V30 520 H 47.5712 3.85135 -0.347513 0
M  V30 521 H 49.2602 3.99049 -0.7426 0
M  V30 522 H 50.0262 3.6431 -3.20162 0
M  V30 523 H 45.9052 4.11847 -2.0713 0
M  V30 524 H 49.4492 4.26502 -5.52035 0
M  V30 525 H 45.3462 4.74067 -4.38099 0
M  V30 526 H 46.1142 5.06227 -6.43177 0
M  V30 527 N 48.7773 0.814389 1.34928 0
M  V30 528 C 50.0543 0.321363 1.92942 0
M  V30 529 C 50.4343 -1.19014 1.74353 0
M  V30 530 O 49.7823 -1.99328 1.11716 0
M  V30 531 C 49.9923 0.741323 3.41036 0
M  V30 532 C 51.3403 0.735266 4.18185 0
M  V30 533 O 52.3643 0.68336 3.49584 0
M  V30 534 O 51.2233 0.800703 5.40602 0
M  V30 535 H 48.3173 0.0858893 0.822528 0
M  V30 536 H 50.8633 0.898609 1.43955 0
M  V30 537 H 49.6353 1.78276 3.4833 0
M  V30 538 H 49.2583 0.139307 3.97356 0
M  V30 539 N 50.2554 -1.46986 0.568584 0
M  V30 540 C 51.6714 -1.57946 0.229189 0
M  V30 541 C 51.8714 -1.56567 -1.26843 0
M  V30 542 O 50.9274 -1.47511 -2.04931 0
M  V30 543 C 52.2404 -2.87963 0.865909 0
M  V30 544 C 53.7884 -3.01568 0.838188 0
M  V30 545 C 54.2634 -4.34301 1.45419 0
M  V30 546 N 55.7544 -4.40965 1.41788 0
M  V30 547 C 56.4894 -5.42256 1.86403 0
M  V30 548 N 55.9854 -6.50297 2.38926 0
M  V30 549 N 57.7784 -5.3337 1.77405 0
M  V30 550 H 49.9294 -1.46126 1.54146 0
M  V30 551 H 52.1924 -0.696156 0.643484 0
M  V30 552 H 51.8984 -2.94742 1.91886 0
M  V30 553 H 51.7724 -3.75423 0.365687 0
M  V30 554 H 54.1594 -2.94379 -0.206106 0
M  V30 555 H 54.2404 -2.1562 1.37629 0
M  V30 556 H 53.8844 -4.42247 2.49761 0
M  V30 557 H 53.8144 -5.19 0.891435 0
M  V30 558 H 56.3054 -3.63484 1.03381 0
M  V30 559 H 56.6184 -7.23777 2.70863 0
M  V30 560 H 54.9634 -6.51155 2.42944 0
M  V30 561 H 58.1544 -4.47865 1.3614 0
M  V30 562 H 58.3274 -6.12169 2.12492 0
M  V30 563 N 51.7335 -0.305618 -1.54608 0
M  V30 564 C 52.6635 0.561482 -2.26649 0
M  V30 565 C 53.6445 1.13415 -1.26772 0
M  V30 566 O 54.8295 1.16262 -1.55553 0
M  V30 567 C 51.9595 1.73122 -3.01075 0
M  V30 568 C 50.9135 1.2887 -4.08138 0
M  V30 569 C 50.2395 2.54396 -4.70305 0
M  V30 570 C 51.5395 0.416578 -5.20636 0
M  V30 571 H 53.2335 -0.0393902 -2.99374 0
M  V30 572 H 50.7795 -0.020385 -1.43986 0
M  V30 573 H 52.7325 2.34396 -3.50195 0
M  V30 574 H 51.4565 2.3584 -2.25936 0
M  V30 575 H 50.1155 0.698991 -3.59875 0
M  V30 576 H 49.7635 3.15439 -3.918 0
M  V30 577 H 49.4635 2.25486 -5.42614 0
M  V30 578 H 50.9875 3.16464 -5.2219 0
M  V30 579 H 52.4015 0.935116 -5.65622 0
M  V30 580 H 50.7985 0.221046 -5.99693 0
M  V30 581 H 51.8685 -0.557162 -4.81688 0
M  V30 582 N 53.2116 1.57565 -0.0334293 0
M  V30 583 C 54.4576 1.92262 0.645226 0
M  V30 584 C 54.7906 0.910543 1.71531 0
M  V30 585 O 54.0656 -0.066099 1.94388 0
M  V30 586 C 54.3486 3.37422 1.2577 0
M  V30 587 C 54.2016 4.49369 0.196891 0
M  V30 588 C 55.5206 3.82628 2.17449 0
M  V30 589 H 52.6396 0.699171 0.233085 0
M  V30 590 H 55.2816 1.89779 -0.0915694 0
M  V30 591 H 53.4316 3.39669 1.88566 0
M  V30 592 H 55.1036 4.59254 -0.433962 0
M  V30 593 H 53.3466 4.31168 -0.477137 0
M  V30 594 H 54.0176 5.47978 0.665124 0
M  V30 595 H 56.4936 3.82145 1.64634 0
M  V30 596 H 55.3696 4.84883 2.57254 0
M  V30 597 H 55.6306 3.18376 3.0674 0
M  V30 598 N 54.6897 -0.239769 1.55765 0
M  V30 599 C 55.9667 -0.990056 1.68693 0
M  V30 600 C 56.3467 -2.03107 0.5754 0
M  V30 601 O 55.6947 -2.24604 -0.42017 0
M  V30 602 C 55.9047 -1.61696 3.09282 0
M  V30 603 C 57.2527 -2.11613 3.6811 0
M  V30 604 O 58.2767 -1.71624 3.12127 0
M  V30 605 O 57.1357 -2.85057 4.66267 0
M  V30 606 H 54.2297 -0.461299 0.686391 0
M  V30 607 H 56.7757 -0.232991 1.68093 0
M  V30 608 H 55.5477 -0.864357 3.81634 0
M  V30 609 H 55.1707 -2.44005 3.13923 0
M  V30 610 N 56.1678 -1.49265 -0.50573 0
M  V30 611 C 57.0778 -1.68312 -1.63427 0
M  V30 612 C 58.0938 -0.565682 -1.64548 0
M  V30 613 O 59.2698 -0.839801 -1.83055 0
M  V30 614 C 56.3348 -1.74107 -2.99813 0
M  V30 615 C 55.3958 -2.97653 -3.09356 0
M  V30 616 C 54.6288 -3.03163 -4.39236 0
M  V30 617 O 54.8518 -2.16396 -5.27758 0
M  V30 618 O 53.7858 -3.9558 -4.53652 0
M  V30 619 H 57.6118 -2.63907 -1.50289 0
M  V30 620 H 55.1968 -1.32951 -0.681502 0
M  V30 621 H 57.0788 -1.803 -3.80881 0
M  V30 622 H 55.7538 -0.816901 -3.13223 0
M  V30 623 H 54.6608 -2.96981 -2.27493 0
M  V30 624 H 55.9938 -3.89535 -3.00871 0
M  V30 625 N 57.6459 0.756429 -1.3826 0
M  V30 626 C 59.0619 1.0591 -1.19395 0
M  V30 627 C 59.2619 2.01459 -0.0406567 0
M  V30 628 O 58.3179 2.44909 0.614467 0
M  V30 629 C 59.6309 1.64191 -2.51916 0
M  V30 630 C 61.1789 1.76376 -2.58574 0
M  V30 631 C 61.6539 2.38069 -3.91264 0
M  V30 632 N 63.1449 2.45503 -3.92788 0
M  V30 633 C 63.8799 2.94126 -4.92217 0
M  V30 634 N 63.3759 3.42805 -6.02043 0
M  V30 635 N 65.1689 2.9314 -4.7961 0
M  V30 636 H 57.3199 0.122313 -2.12048 0
M  V30 637 H 59.5829 0.116892 -0.940766 0
M  V30 638 H 59.2889 1.01451 -3.3675 0
M  V30 639 H 59.1629 2.6329 -2.70108 0
M  V30 640 H 61.5499 2.38244 -1.74137 0
M  V30 641 H 61.6309 0.759894 -2.44252 0
M  V30 642 H 61.2749 1.76835 -4.76121 0
M  V30 643 H 61.2049 3.39091 -4.02895 0
M  V30 644 H 63.6959 2.1107 -3.13461 0
M  V30 645 H 64.0089 3.78354 -6.73846 0
M  V30 646 H 62.3539 3.4087 -6.05667 0
M  V30 647 H 65.5449 2.54419 -3.92923 0
M  V30 648 H 65.7179 3.30721 -5.5725 0
M  V30 649 N 59.124 1.23083 0.984299 0
M  V30 650 C 60.37 1.06214 1.72761 0
M  V30 651 C 60.703 -0.400584 1.90024 0
M  V30 652 O 59.978 -1.29672 1.44967 0
M  V30 653 C 60.261 1.78375 3.12817 0
M  V30 654 C 60.114 3.32296 3.03149 0
M  V30 655 C 61.433 1.54309 4.12161 0
M  V30 656 H 58.552 0.387251 0.627061 0
M  V30 657 H 61.194 1.51536 1.14616 0
M  V30 658 H 59.344 1.39848 3.62457 0
M  V30 659 H 61.016 3.8032 2.61064 0
M  V30 660 H 59.259 3.6153 2.39747 0
M  V30 661 H 59.93 3.77972 4.02295 0
M  V30 662 H 62.406 1.87791 3.71314 0
M  V30 663 H 61.282 2.07281 5.08258 0
M  V30 664 H 61.543 0.477572 4.39513 0
M  V30 665 N 60.6021 -1.18246 1.0419 0
M  V30 666 C 61.5321 -2.24127 0.654914 0
M  V30 667 C 62.5131 -1.66617 -0.342451 0
M  V30 668 O 63.6981 -1.92924 -0.222277 0
M  V30 669 C 60.8281 -3.47295 0.0183757 0
M  V30 670 C 59.7821 -4.17563 0.939414 0
M  V30 671 C 59.1081 -5.34438 0.167286 0
M  V30 672 C 60.4081 -4.70917 2.25908 0
M  V30 673 H 62.1021 -2.56753 1.54007 0
M  V30 674 H 59.6481 -1.23414 0.74195 0
M  V30 675 H 61.6011 -4.20572 -0.264082 0
M  V30 676 H 60.3251 -3.13907 -0.901664 0
M  V30 677 H 58.9841 -3.46186 1.20628 0
M  V30 678 H 58.6321 -4.97298 -0.7552 0
M  V30 679 H 58.3321 -5.82388 0.780901 0
M  V30 680 H 59.8561 -6.10504 -0.108125 0
M  V30 681 H 61.2701 -5.35882 2.03724 0
M  V30 682 H 59.6671 -5.29406 2.82577 0
M  V30 683 H 60.7371 -3.88272 2.9047 0
M  V30 684 N 62.0802 -0.821533 -1.34494 0
M  V30 685 C 63.0432 -0.247847 -2.27856 0
M  V30 686 C 64.0432 0.573453 -1.50227 0
M  V30 687 O 65.2332 0.389759 -1.69784 0
M  V30 688 C 62.3652 0.652698 -3.34593 0
M  V30 689 H 63.5582 -1.07146 -2.80107 0
M  V30 690 H 61.1112 -0.593291 -1.44602 0
M  V30 691 H 61.8462 1.49943 -2.87555 0
M  V30 692 H 61.6312 0.065292 -3.92046 0
M  V30 693 H 63.1212 1.04793 -4.04238 0
M  V30 694 N 63.5583 1.46682 -0.576371 0
M  V30 695 C 64.4883 2.33028 0.148397 0
M  V30 696 C 65.4693 1.44961 0.889956 0
M  V30 697 O 66.6543 1.73789 0.866662 0
M  V30 698 C 63.7843 3.27117 1.1667 0
M  V30 699 C 62.7383 4.24575 0.540386 0
M  V30 700 C 62.0643 5.08126 1.6647 0
M  V30 701 C 63.3643 5.19722 -0.518331 0
M  V30 702 H 65.0583 2.93875 -0.572509 0
M  V30 703 H 62.6043 1.41315 -0.276768 0
M  V30 704 H 64.5573 3.86374 1.68204 0
M  V30 705 H 63.2813 2.64364 1.9178 0
M  V30 706 H 61.9403 3.66571 0.0461769 0
M  V30 707 H 61.5883 4.41762 2.40531 0
M  V30 708 H 61.2883 5.74122 1.25131 0
M  V30 709 H 62.8123 5.70246 2.18293 0
M  V30 710 H 64.2263 5.73232 -0.0883058 0
M  V30 711 H 62.6233 5.94026 -0.851679 0
M  V30 712 H 63.6933 4.64037 -1.40703 0
M  V30 713 N 65.0364 0.313813 1.54444 0
M  V30 714 C 65.9994 -0.54379 2.22656 0
M  V30 715 C 66.9994 -1.05124 1.21678 0
M  V30 716 O 68.1894 -0.945225 1.46325 0
M  V30 717 C 65.3214 -1.75427 2.92298 0
M  V30 718 H 66.5144 0.0523599 2.99854 0
M  V30 719 H 64.0674 0.0647834 1.56166 0
M  V30 720 H 64.8024 -2.38991 2.19211 0
M  V30 721 H 64.5874 -1.39791 3.66334 0
M  V30 722 H 66.0774 -2.36325 3.44297 0
M  V30 723 N 66.5145 -1.57545 0.0417849 0
M  V30 724 C 67.9255 -1.80011 -0.495259 0
M  V30 725 C 68.2765 -0.953199 -1.71489 0
M  V30 726 O 67.4015 -0.167138 -2.15754 0
M  V30 727 C 67.9965 -3.26482 -0.905265 0
M  V30 728 C 66.5555 -3.499 -1.38734 0
M  V30 729 C 65.7025 -2.74979 -0.358056 0
M  V30 730 H 68.6535 -1.56425 0.267736 0
M  V30 731 H 68.6745 -3.36887 -1.76882 0
M  V30 732 H 68.1865 -3.88096 -0.017401 0
M  V30 733 H 66.2875 -2.93553 -2.29471 0
M  V30 734 H 66.4005 -4.58615 -1.38598 0
M  V30 735 H 64.7645 -2.40834 -0.828912 0
M  V30 736 H 65.5475 -3.39315 0.521561 0
M  V30 737 N 67.9926 0.231505 -1.5589 0
M  V30 738 C 69.2406 0.955461 -1.78088 0
M  V30 739 C 69.5616 1.85262 -0.608533 0
M  V30 740 O 68.8316 1.92277 0.375035 0
M  V30 741 H 67.4116 0.355787 -0.656829 0
M  V30 742 H 70.0736 0.245751 -1.93344 0
M  V30 743 H 69.1696 1.56814 -2.69844 0
M  V30 744 N 69.4707 1.49531 0.497807 0
M  V30 745 C 70.3807 1.69176 1.62532 0
M  V30 746 C 71.3967 0.5744 1.64246 0
M  V30 747 O 72.5727 0.849497 1.82608 0
M  V30 748 C 69.6377 1.75695 2.98885 0
M  V30 749 C 68.6987 2.9929 3.07773 0
M  V30 750 C 67.9317 3.05488 4.37622 0
M  V30 751 O 68.1547 2.19192 5.26603 0
M  V30 752 O 67.0887 3.9798 4.51548 0
M  V30 753 H 70.9147 2.647 1.48887 0
M  V30 754 H 68.4997 1.3331 0.674441 0
M  V30 755 H 70.3817 1.82317 3.79919 0
M  V30 756 H 69.0567 0.8335 3.12785 0
M  V30 757 H 67.9637 2.98183 2.25915 0
M  V30 758 H 69.2967 3.91125 2.98801 0
M  V30 759 N 70.9488 -0.749086 1.3866 0
M  V30 760 C 71.8958 -1.86291 1.36251 0
M  V30 761 C 72.8658 -1.64578 0.224347 0
M  V30 762 O 74.0508 -1.86181 0.417279 0
M  V30 763 C 71.1908 -3.23644 1.19786 0
M  V30 764 C 70.3038 -3.57158 2.43027 0
M  V30 765 C 69.4388 -4.83838 2.19258 0
M  V30 766 C 68.4778 -5.10152 3.38247 0
M  V30 767 N 67.6148 -6.28029 3.13884 0
M  V30 768 H 72.4548 -1.87685 2.3147 0
M  V30 769 H 69.9918 -0.917287 1.14997 0
M  V30 770 H 71.9498 -4.0291 1.08254 0
M  V30 771 H 70.5798 -3.21566 0.282031 0
M  V30 772 H 69.6318 -2.72701 2.65214 0
M  V30 773 H 70.9438 -3.7253 3.31697 0
M  V30 774 H 70.0978 -5.71057 2.04888 0
M  V30 775 H 68.8368 -4.70614 1.2796 0
M  V30 776 H 67.8418 -4.21401 3.53131 0
M  V30 777 H 69.0668 -5.25271 4.30427 0
M  V30 778 H 67.0128 -6.1612 2.25238 0
M  V30 779 H 66.9298 -6.43922 3.96106 0
M  V30 780 H 68.1978 -7.18124 3.03179 0
M  V30 781 N 72.4269 -1.23603 -0.977757 0
M  V30 782 C 73.6729 -1.07129 -1.72195 0
M  V30 783 C 74.0059 0.390501 -1.90233 0
M  V30 784 O 73.2809 1.28902 -1.45653 0
M  V30 785 C 73.5639 -1.80031 -3.11867 0
M  V30 786 C 73.4169 -3.33899 -3.01383 0
M  V30 787 C 74.7359 -1.56492 -4.11337 0
M  V30 788 H 71.8549 -0.390571 -0.624999 0
M  V30 789 H 74.4969 -1.52142 -1.13811 0
M  V30 790 H 72.6469 -1.41768 -3.6171 0
M  V30 791 H 74.3189 -3.81699 -2.59043 0
M  V30 792 H 72.5619 -3.62796 -2.37827 0
M  V30 793 H 73.2329 -3.801 -4.00285 0
M  V30 794 H 75.7089 -1.89757 -3.70313 0
M  V30 795 H 74.5849 -2.09973 -5.07151 0
M  V30 796 H 74.8459 -0.500874 -4.39254 0
M  V30 797 N 73.905 1.17692 -1.04816 0
M  V30 798 C 75.135 1.91508 -0.775128 0
M  V30 799 C 75.543 1.76844 0.67253 0
M  V30 800 O 74.886 1.10057 1.47082 0
M  V30 801 C 74.948 3.43167 -1.0713 0
M  V30 802 C 74.612 3.81612 -2.51438 0
M  V30 803 C 75.609 3.84772 -3.49638 0
M  V30 804 C 73.294 4.12687 -2.86348 0
M  V30 805 C 75.288 4.18469 -4.80794 0
M  V30 806 C 72.975 4.46053 -4.17708 0
M  V30 807 C 73.973 4.48921 -5.14741 0
M  V30 808 O 73.661 4.81504 -6.43746 0
M  V30 809 H 73.393 0.614575 -0.281555 0
M  V30 810 H 75.947 1.50206 -1.40098 0
M  V30 811 H 74.177 3.84745 -0.388342 0
M  V30 812 H 75.866 3.98239 -0.784883 0
M  V30 813 H 76.632 3.60893 -3.24008 0
M  V30 814 H 72.511 4.09627 -2.11486 0
M  V30 815 H 76.055 4.20623 -5.56527 0
M  V30 816 H 71.952 4.69393 -4.43103 0
M  V30 817 H 72.72 4.99377 -6.4851 0
M  V30 818 N 75.3831 0.828654 1.34056 0
M  V30 819 C 76.6291 0.42008 1.98402 0
M  V30 820 C 76.9621 -1.01564 1.65525 0
M  V30 821 O 76.2371 -1.70834 0.929831 0
M  V30 822 C 76.5201 0.62927 3.54559 0
M  V30 823 C 76.3731 2.11152 3.97159 0
M  V30 824 C 77.6921 0.0688756 4.40046 0
M  V30 825 H 74.8111 0.154104 0.720709 0
M  V30 826 H 77.4531 1.04228 1.5886 0
M  V30 827 H 75.6031 0.0996418 3.88372 0
M  V30 828 H 77.2751 2.70522 3.73651 0
M  V30 829 H 75.5181 2.59985 3.47261 0
M  V30 830 H 76.1891 2.20868 5.05887 0
M  V30 831 H 78.6651 0.521458 4.1282 0
M  V30 832 H 77.5411 0.245006 5.48353 0
M  V30 833 H 77.8021 -1.0266 4.30015 0
M  V30 834 N 76.8612 -1.46375 0.584142 0
M  V30 835 C 78.1092 -2.01978 0.0701287 0
M  V30 836 C 78.4302 -1.4579 -1.295 0
M  V30 837 O 77.7002 -0.64314 -1.85042 0
M  V30 838 H 76.2802 -0.746648 0.0229345 0
M  V30 839 H 78.9422 -1.79461 0.760245 0
M  V30 840 H 78.0382 -3.121 0.0022064 0
M  V30 841 N 78.3393 -0.321999 -1.54275 0
M  V30 842 C 79.2863 0.544664 -2.24281 0
M  V30 843 C 80.2563 1.1129 -1.23303 0
M  V30 844 O 81.4413 1.15354 -1.51981 0
M  V30 845 C 78.5813 1.70045 -3.00298 0
M  V30 846 C 77.6943 1.16159 -4.1609 0
M  V30 847 C 76.8293 2.28293 -4.79641 0
M  V30 848 C 75.8683 1.71648 -5.8754 0
M  V30 849 N 75.0053 2.77438 -6.44959 0
M  V30 850 H 79.8453 -0.0588907 -2.97942 0
M  V30 851 H 77.3823 -0.0408345 -1.47043 0
M  V30 852 H 79.3403 2.38054 -3.42616 0
M  V30 853 H 77.9703 2.27531 -2.28975 0
M  V30 854 H 77.0223 0.373092 -3.78566 0
M  V30 855 H 78.3343 0.707087 -4.93763 0
M  V30 856 H 77.4883 3.0421 -5.2492 0
M  V30 857 H 76.2273 2.77079 -4.01346 0
M  V30 858 H 75.2323 0.942282 -5.41665 0
M  V30 859 H 76.4573 1.23741 -6.67731 0
M  V30 860 H 74.4033 3.25519 -5.69538 0
M  V30 861 H 74.3203 2.36547 -7.1804 0
M  V30 862 H 75.5883 3.53189 -6.94894 0
M  V30 863 N 79.8174 1.5752 -0.0501392 0
M  V30 864 C 80.7274 2.14952 0.939827 0
M  V30 865 C 81.7434 1.10706 1.34239 0
M  V30 866 O 82.9194 1.42869 1.41952 0
M  V30 867 C 79.9844 2.68232 2.19665 0
M  V30 868 C 79.0454 3.87272 1.85253 0
M  V30 869 C 78.2784 4.38002 3.04943 0
M  V30 870 O 78.5014 3.87811 4.18281 0
M  V30 871 O 77.4354 5.29602 2.86017 0
M  V30 872 H 81.2614 2.9986 0.481392 0
M  V30 873 H 78.8464 1.4841 0.171699 0
M  V30 874 H 80.7284 3.02475 2.93406 0
M  V30 875 H 79.4034 1.86395 2.64648 0
M  V30 876 H 78.3104 3.5792 1.0883 0
M  V30 877 H 79.6434 4.70336 1.4507 0
M  V30 878 N 81.2955 -0.223234 1.56011 0
M  V30 879 C 82.2055 -1.29766 1.95443 0
M  V30 880 C 83.2215 -1.51373 0.858028 0
M  V30 881 O 84.3975 -1.64536 1.16146 0
M  V30 882 C 81.4625 -2.62772 2.26167 0
M  V30 883 C 80.5235 -2.49482 3.49367 0
M  V30 884 C 79.7565 -3.76145 3.78616 0
M  V30 885 O 79.9795 -4.79087 3.09568 0
M  V30 886 O 78.9135 -3.73358 4.72109 0
M  V30 887 H 82.7395 -0.99309 2.87004 0
M  V30 888 H 80.3245 -0.425958 1.43199 0
M  V30 889 H 82.2065 -3.41327 2.47131 0
M  V30 890 H 80.8815 -2.92913 1.37781 0
M  V30 891 H 79.7885 -1.69133 3.33684 0
M  V30 892 H 81.1215 -2.2428 4.38131 0
M  V30 893 N 82.7736 -1.49793 -0.48987 0
M  V30 894 C 84.0216 -1.59525 -1.24081 0
M  V30 895 C 84.3426 -0.288953 -1.92847 0
M  V30 896 O 83.6126 0.692436 -1.83254 0
M  V30 897 H 82.1926 -0.587796 -0.460983 0
M  V30 898 H 84.8546 -1.86477 -0.566778 0
M  V30 899 H 83.9506 -2.39696 -1.99881 0
M  V30 900 N 84.2517 0.741722 -1.39055 0
M  V30 901 C 85.1617 1.88621 -1.39496 0
M  V30 902 C 86.1777 1.71557 -0.290578 0
M  V30 903 O 87.3537 1.94275 -0.530954 0
M  V30 904 C 84.4187 3.24134 -1.23037 0
M  V30 905 C 83.4797 3.5364 -2.43387 0
M  V30 906 C 82.7127 4.82687 -2.27703 0
M  V30 907 O 82.9357 5.55922 -1.27696 0
M  V30 908 O 81.8697 5.1194 -3.16545 0
M  V30 909 H 85.6957 1.91203 -2.35956 0
M  V30 910 H 83.2807 0.888625 -1.20099 0
M  V30 911 H 85.1627 4.0513 -1.15964 0
M  V30 912 H 83.8377 3.22337 -0.296691 0
M  V30 913 H 82.7447 2.72758 -2.56035 0
M  V30 914 H 84.0777 3.60209 -3.35425 0
M  V30 915 N 85.7298 1.2412 0.971189 0
M  V30 916 C 86.9548 1.10667 1.75407 0
M  V30 917 C 87.3798 -0.337048 1.85056 0
M  V30 918 O 86.7378 -1.24396 1.31892 0
M  V30 919 C 86.7858 1.74726 3.15441 0
M  V30 920 O 85.8898 1.01566 3.99697 0
M  V30 921 H 85.2308 0.387341 0.539317 0
M  V30 922 H 87.7608 1.64358 1.2185 0
M  V30 923 H 87.7708 1.80341 3.6598 0
M  V30 924 H 86.4458 2.79773 3.07734 0
M  V30 925 H 85.0228 1.03713 3.58187 0
M  V30 926 N 87.2079 -1.17134 1.05439 0
M  V30 927 C 88.1179 -2.24878 0.668365 0
M  V30 928 C 89.1339 -1.71186 -0.311687 0
M  V30 929 O 90.3099 -2.00738 -0.163161 0
M  V30 930 C 87.3749 -3.46662 0.051648 0
M  V30 931 C 86.4359 -4.15429 1.08246 0
M  V30 932 C 85.6689 -5.31399 0.495082 0
M  V30 933 O 85.8919 -5.66153 -0.694743 0
M  V30 934 O 84.8259 -5.89187 1.23056 0
M  V30 935 H 88.6519 -2.60189 1.56637 0
M  V30 936 H 86.2369 -1.24482 0.826104 0
M  V30 937 H 88.1189 -4.20394 -0.290966 0
M  V30 938 H 86.7939 -3.13142 -0.819971 0
M  V30 939 H 85.7009 -3.43704 1.47711 0
M  V30 940 H 87.0339 -4.52982 1.92532 0
M  V30 941 N 88.686 -0.835752 -1.33615 0
M  V30 942 C 89.633 -0.26473 -2.29277 0
M  V30 943 C 90.603 0.617712 -1.54187 0
M  V30 944 O 91.788 0.556641 -1.825 0
M  V30 945 C 88.928 0.556777 -3.40579 0
M  V30 946 C 88.041 -0.349339 -4.30585 0
M  V30 947 C 87.176 0.482969 -5.29 0
M  V30 948 C 86.215 -0.421732 -6.10645 0
M  V30 949 N 85.352 0.372262 -7.01112 0
M  V30 950 H 90.192 -1.08582 -2.77514 0
M  V30 951 H 87.729 -0.546927 -1.36554 0
M  V30 952 H 89.687 1.04852 -4.03809 0
M  V30 953 H 88.317 1.34286 -2.93542 0
M  V30 954 H 87.369 -0.959372 -3.68104 0
M  V30 955 H 88.681 -1.04445 -4.87742 0
M  V30 956 H 87.835 1.03866 -5.97743 0
M  V30 957 H 86.574 1.21153 -4.72412 0
M  V30 958 H 85.579 -0.989464 -5.40823 0
M  V30 959 H 86.804 -1.14861 -6.69316 0
M  V30 960 H 84.75 1.08426 -6.46977 0
M  V30 961 H 84.667 -0.264198 -7.55538 0
M  V30 962 H 85.935 0.910293 -7.74167 0
M  V30 963 N 90.1641 1.46063 -0.591896 0
M  V30 964 C 91.0961 2.28539 0.174001 0
M  V30 965 C 92.1091 1.39047 0.846753 0
M  V30 966 O 93.2981 1.63564 0.714774 0
M  V30 967 C 90.3981 3.14347 1.26645 0
M  V30 968 C 89.5711 4.32021 0.683856 0
M  V30 969 C 88.6301 4.99157 1.66518 0
M  V30 970 O 87.6561 5.56458 1.19763 0
M  V30 971 N 88.8581 4.97005 2.99943 0
M  V30 972 H 91.6231 2.94911 -0.533633 0
M  V30 973 H 89.1841 1.56077 -0.430294 0
M  V30 974 H 91.1761 3.56125 1.92242 0
M  V30 975 H 89.7461 2.49988 1.87682 0
M  V30 976 H 88.9661 3.93915 -0.1498 0
M  V30 977 H 90.2541 5.08059 0.274567 0
M  V30 978 H 89.6521 4.51714 3.40545 0
M  V30 979 H 88.2091 5.42696 3.61004 0
M  V30 980 N 91.6422 0.330177 1.54103 0
M  V30 981 C 92.5522 -0.541534 2.28264 0
M  V30 982 C 93.5682 -1.12351 1.32866 0
M  V30 983 O 94.7442 -1.14206 1.65888 0
M  V30 984 C 91.8092 -1.68322 3.03098 0
M  V30 985 C 90.8702 -1.13238 4.14096 0
M  V30 986 C 90.1032 -2.21966 4.85352 0
M  V30 987 O 90.3262 -3.42437 4.56172 0
M  V30 988 O 89.2602 -1.87013 5.7211 0
M  V30 989 H 93.0862 0.060938 3.03639 0
M  V30 990 H 90.6712 0.09565 1.49093 0
M  V30 991 H 92.5532 -2.34777 3.49939 0
M  V30 992 H 91.2282 -2.27176 2.30593 0
M  V30 993 H 90.1352 -0.432736 3.71589 0
M  V30 994 H 91.4682 -0.588898 4.88664 0
M  V30 995 N 93.1203 -1.57491 0.0584922 0
M  V30 996 C 94.0303 -2.15448 -0.928414 0
M  V30 997 C 95.0463 -1.11416 -1.3365 0
M  V30 998 O 96.2223 -1.4362 -1.41193 0
M  V30 999 C 93.2873 -2.69393 -2.18239 0
M  V30 1000 C 92.3483 -3.88249 -1.83196 0
M  V30 1001 C 91.5813 -4.39613 -3.02616 0
M  V30 1002 O 91.8043 -3.90023 -4.16219 0
M  V30 1003 O 90.7383 -5.31111 -2.83204 0
M  V30 1004 H 94.5643 -3.00112 -0.465483 0
M  V30 1005 H 92.1493 -1.48499 -0.163826 0
M  V30 1006 H 94.0313 -3.04026 -2.91798 0
M  V30 1007 H 92.7063 -1.87796 -2.63656 0
M  V30 1008 H 91.6133 -3.58492 -1.06931 0
M  V30 1009 H 92.9463 -4.71098 -1.42573 0
M  V30 1010 N 94.5984 0.214957 -1.56127 0
M  V30 1011 C 95.8474 0.936451 -1.78643 0
M  V30 1012 C 96.1604 1.85237 -0.628229 0
M  V30 1013 O 97.3664 2.613 -0.737186 0
M  V30 1014 C 95.8224 1.7154 -3.16389 0
M  V30 1015 C 95.4304 0.845299 -4.39953 0
M  V30 1016 C 97.1744 2.42772 -3.48227 0
M  V30 1017 C 95.0814 1.62198 -5.68723 0
M  V30 1018 H 94.0114 0.353401 -0.666051 0
M  V30 1019 H 96.6624 0.190169 -1.82512 0
M  V30 1020 H 95.0444 2.50484 -3.06715 0
M  V30 1021 H 96.2184 0.0959353 -4.607 0
M  V30 1022 H 94.5334 0.244789 -4.1568 0
M  V30 1023 H 97.1304 3.01394 -4.41663 0
M  V30 1024 H 97.4734 3.15984 -2.71035 0
M  V30 1025 H 98.0064 1.70813 -3.5926 0
M  V30 1026 H 94.7454 0.933011 -6.48826 0
M  V30 1027 H 94.2654 2.34579 -5.52026 0
M  V30 1028 H 95.9444 2.18095 -6.09133 0
M  V30 1029 N 96.0765 1.50051 0.48192 0
M  V30 1030 C 97.0265 1.64512 1.5786 0
M  V30 1031 C 98.0105 0.500073 1.52932 0
M  V30 1032 O 99.2025 0.753964 1.60139 0
M  V30 1033 C 96.3315 1.73263 2.9637 0
M  V30 1034 C 95.4175 2.93409 3.06222 0
M  V30 1035 N 95.8085 4.17236 2.85915 0
M  V30 1036 C 94.1065 2.91742 3.37346 0
M  V30 1037 C 94.8075 4.981 3.00451 0
M  V30 1038 N 93.7835 4.3184 3.30174 0
M  V30 1039 H 97.5855 2.57955 1.40842 0
M  V30 1040 H 95.0995 1.47086 0.688439 0
M  V30 1041 H 97.0965 1.81724 3.75209 0
M  V30 1042 H 95.7565 0.809711 3.14442 0
M  V30 1043 H 96.7675 4.46909 2.6171 0
M  V30 1044 H 93.4445 2.08907 3.61475 0
M  V30 1045 H 94.8345 6.06532 2.89082 0
M  V30 1046 N 97.5546 -0.734337 1.39446 0
M  V30 1047 C 98.9706 -1.03997 1.21065 0
M  V30 1048 C 99.1706 -2.01369 0.0727019 0
M  V30 1049 O 98.2266 -2.45856 -0.575426 0
M  V30 1050 C 99.5396 -1.60163 2.54496 0
M  V30 1051 C 101.088 -1.7224 2.61347 0
M  V30 1052 C 101.563 -2.31814 3.95002 0
M  V30 1053 N 103.054 -2.39223 3.96644 0
M  V30 1054 C 103.789 -2.86258 4.96834 0
M  V30 1055 N 103.285 -3.33184 6.07421 0
M  V30 1056 N 105.078 -2.85473 4.84213 0
M  V30 1057 H 97.2286 -0.0885624 2.12215 0
M  V30 1058 H 99.4916 -0.10191 0.942506 0
M  V30 1059 H 99.1976 -0.960811 3.38321 0
M  V30 1060 H 99.0716 -2.5896 2.74262 0
M  V30 1061 H 101.459 -2.35443 1.77906 0
M  V30 1062 H 101.54 -0.720939 2.4543 0
M  V30 1063 H 101.184 -1.69238 4.78875 0
M  V30 1064 H 101.114 -3.32638 4.08239 0
M  V30 1065 H 103.605 -2.06057 3.16779 0
M  V30 1066 H 103.918 -3.67586 6.7978 0
M  V30 1067 H 102.263 -3.31191 6.11013 0
M  V30 1068 H 105.454 -2.48136 3.96921 0
M  V30 1069 H 105.627 -3.21814 5.62441 0
M  V30 1070 N 99.0327 -1.24633 -0.964593 0
M  V30 1071 C 99.9627 -1.06611 -2.07741 0
M  V30 1072 C 100.944 0.0218666 -1.70086 0
M  V30 1073 O 102.129 -0.145793 -1.93652 0
M  V30 1074 C 99.2587 -0.673444 -3.40708 0
M  V30 1075 C 98.2127 -1.71054 -3.92332 0
M  V30 1076 C 97.5387 -1.17285 -5.21678 0
M  V30 1077 C 98.8387 -3.10718 -4.19824 0
M  V30 1078 H 100.533 -1.99693 -2.23076 0
M  V30 1079 H 98.0787 -0.96152 -1.07195 0
M  V30 1080 H 100.032 -0.534345 -4.17998 0
M  V30 1081 H 98.7557 0.293073 -3.25282 0
M  V30 1082 H 97.4147 -1.83791 -3.17201 0
M  V30 1083 H 97.0627 -0.196847 -5.02615 0
M  V30 1084 H 96.7627 -1.86592 -5.57187 0
M  V30 1085 H 98.2867 -1.04593 -6.01575 0
M  V30 1086 H 99.7007 -3.01192 -4.87808 0
M  V30 1087 H 98.0977 -3.77406 -4.66567 0
M  V30 1088 H 99.1677 -3.58524 -3.26479 0
M  V30 1089 N 100.511 1.16574 -1.06058 0
M  V30 1090 C 101.441 2.23057 -0.690488 0
M  V30 1091 C 102.422 1.67141 0.315901 0
M  V30 1092 O 103.607 1.93253 0.191556 0
M  V30 1093 C 100.737 3.47222 -0.073625 0
M  V30 1094 C 99.6908 4.16016 -1.00573 0
M  V30 1095 C 99.0168 5.34104 -0.252289 0
M  V30 1096 C 100.317 4.67264 -2.33371 0
M  V30 1097 H 102.011 2.54271 -1.58072 0
M  V30 1098 H 99.5568 1.22218 -0.76149 0
M  V30 1099 H 101.51 4.20939 0.19714 0
M  V30 1100 H 100.234 3.15302 0.85161 0
M  V30 1101 H 98.8928 3.44223 -1.2612 0
M  V30 1102 H 98.5408 4.98437 0.675988 0
M  V30 1103 H 98.2408 5.81072 -0.873455 0
M  V30 1104 H 99.7648 6.10599 0.0109857 0
M  V30 1105 H 101.179 5.32573 -2.12223 0
M  V30 1106 H 99.5758 5.24843 -2.90963 0
M  V30 1107 H 100.646 3.83602 -2.96611 0
M  V30 1108 N 101.989 0.842826 1.3317 0
M  V30 1109 C 102.919 0.294028 2.31641 0
M  V30 1110 C 103.9 -0.600401 1.59151 0
M  V30 1111 O 105.085 -0.523124 1.87022 0
M  V30 1112 C 102.215 -0.528416 3.43257 0
M  V30 1113 C 101.169 0.27056 4.27144 0
M  V30 1114 C 100.495 -0.675881 5.30411 0
M  V30 1115 C 101.795 1.48981 5.00602 0
M  V30 1116 H 103.489 1.11681 2.77791 0
M  V30 1117 H 101.035 0.538478 1.33553 0
M  V30 1118 H 102.988 -0.922674 4.11175 0
M  V30 1119 H 101.712 -1.38445 2.95805 0
M  V30 1120 H 100.371 0.646427 3.60856 0
M  V30 1121 H 100.019 -1.52842 4.79216 0
M  V30 1122 H 99.7189 -0.145374 5.8742 0
M  V30 1123 H 101.243 -1.06757 6.01195 0
M  V30 1124 H 102.657 1.16849 5.61266 0
M  V30 1125 H 101.054 1.95739 5.6728 0
M  V30 1126 H 102.124 2.25746 4.29147 0
M  V30 1127 N 103.467 -1.45747 0.599634 0
M  V30 1128 C 104.883 -1.57424 0.26264 0
M  V30 1129 C 105.083 -1.59222 -1.23493 0
M  V30 1130 O 104.139 -1.51825 -2.01756 0
M  V30 1131 C 105.452 -2.86061 0.926795 0
M  V30 1132 C 107 -2.99722 0.901967 0
M  V30 1133 C 107.475 -4.31119 1.54598 0
M  V30 1134 N 108.966 -4.37858 1.5111 0
M  V30 1135 C 109.701 -5.3818 1.97863 0
M  V30 1136 N 109.197 -6.45083 2.52666 0
M  V30 1137 N 110.99 -5.29487 1.88679 0
M  V30 1138 H 103.141 -1.42823 1.57211 0
M  V30 1139 H 105.404 -0.68235 0.658105 0
M  V30 1140 H 105.11 -2.90605 1.98095 0
M  V30 1141 H 104.984 -3.74563 0.445238 0
M  V30 1142 H 107.371 -2.9475 -0.143617 0
M  V30 1143 H 107.452 -2.12652 1.42171 0
M  V30 1144 H 107.096 -4.36849 2.59085 0
M  V30 1145 H 107.026 -5.16992 1.00132 0
M  V30 1146 H 109.517 -3.61209 1.11068 0
M  V30 1147 H 109.83 -7.17869 2.86155 0
M  V30 1148 H 108.175 -6.45856 2.56701 0
M  V30 1149 H 111.366 -4.44877 1.4561 0
M  V30 1150 H 111.539 -6.07524 2.25429 0
M  V30 1151 N 104.945 -0.338344 -1.53925 0
M  V30 1152 C 105.895 0.536712 -2.21593 0
M  V30 1153 C 106.879 1.07015 -1.20153 0
M  V30 1154 O 108.071 1.00471 -1.45721 0
M  V30 1155 C 105.2 1.68977 -2.98834 0
M  V30 1156 C 104.286 1.17052 -4.07627 0
M  V30 1157 N 104.677 0.372085 -5.0443 0
M  V30 1158 C 102.975 1.44789 -4.21844 0
M  V30 1159 C 103.676 0.0909171 -5.81629 0
M  V30 1160 N 102.652 0.681131 -5.39316 0
M  V30 1161 H 106.454 -0.0804298 -2.9379 0
M  V30 1162 H 103.968 -0.144943 -1.61752 0
M  V30 1163 H 105.965 2.32857 -3.45808 0
M  V30 1164 H 104.625 2.31024 -2.28162 0
M  V30 1165 H 105.636 0.0136217 -5.17898 0
M  V30 1166 H 102.313 2.07313 -3.62391 0
M  V30 1167 H 103.703 -0.552817 -6.69622 0
M  V30 1168 N 106.423 1.57458 -0.0668435 0
M  V30 1169 C 107.386 2.11323 0.887422 0
M  V30 1170 C 108.386 1.03618 1.22964 0
M  V30 1171 O 109.576 1.29626 1.16373 0
M  V30 1172 C 106.708 2.61048 2.19242 0
M  V30 1173 H 107.901 2.96942 0.420194 0
M  V30 1174 H 105.454 1.55239 0.181793 0
M  V30 1175 H 106.189 1.78868 2.70512 0
M  V30 1176 H 105.974 3.39769 1.95702 0
M  V30 1177 H 107.464 3.02814 2.87565 0
M  V30 1178 N 107.901 -0.206675 1.56239 0
M  V30 1179 C 109.317 -0.557025 1.49564 0
M  V30 1180 C 109.517 -1.86424 0.764735 0
M  V30 1181 O 108.573 -2.50584 0.310491 0
M  V30 1182 C 109.886 -0.622478 2.94186 0
M  V30 1183 C 111.434 -0.712099 3.04792 0
M  V30 1184 C 111.909 -0.808767 4.50803 0
M  V30 1185 N 113.4 -0.8726 4.54907 0
M  V30 1186 C 114.135 -0.967365 5.65181 0
M  V30 1187 N 113.631 -1.02515 6.85173 0
M  V30 1188 N 115.424 -1.00366 5.53067 0
M  V30 1189 H 107.575 0.650943 2.02179 0
M  V30 1190 H 109.838 0.230387 0.919579 0
M  V30 1191 H 109.544 0.268727 3.50672 0
M  V30 1192 H 109.418 -1.4811 3.46905 0
M  V30 1193 H 111.805 -1.59374 2.48363 0
M  V30 1194 H 111.886 0.172489 2.55218 0
M  V30 1195 H 111.53 0.0684754 5.07854 0
M  V30 1196 H 111.46 -1.70899 4.98098 0
M  V30 1197 H 113.951 -0.837657 3.68499 0
M  V30 1198 H 114.264 -1.09765 7.64965 0
M  V30 1199 H 112.609 -0.994026 6.87855 0
M  V30 1200 H 115.8 -0.95527 4.58249 0
M  V30 1201 H 115.973 -1.07405 6.39037 0
M  V30 1202 N 109.379 -1.50304 -0.473955 0
M  V30 1203 C 110.342 -1.6841 -1.55469 0
M  V30 1204 C 111.342 -0.554905 -1.50922 0
M  V30 1205 O 112.532 -0.821882 -1.53593 0
M  V30 1206 C 109.664 -1.70667 -2.95102 0
M  V30 1207 H 110.857 -2.64828 -1.40733 0
M  V30 1208 H 108.41 -1.39742 -0.700132 0
M  V30 1209 H 109.145 -0.75932 -3.15285 0
M  V30 1210 H 108.93 -2.52698 -2.9981 0
M  V30 1211 H 110.42 -1.8664 -3.73571 0
M  V30 1212 N 110.857 0.726932 -1.39834 0
M  V30 1213 C 111.807 1.83232 -1.35683 0
M  V30 1214 C 112.791 1.59155 -0.236295 0
M  V30 1215 O 113.983 1.70522 -0.474488 0
M  V30 1216 C 111.112 3.21246 -1.21062 0
M  V30 1217 C 110.198 3.51125 -2.37849 0
M  V30 1218 N 110.589 3.51889 -3.63329 0
M  V30 1219 C 108.887 3.81527 -2.30982 0
M  V30 1220 C 109.588 3.79791 -4.40606 0
M  V30 1221 N 108.564 3.97971 -3.70297 0
M  V30 1222 H 112.366 1.8214 -2.30656 0
M  V30 1223 H 109.88 0.925545 -1.33444 0
M  V30 1224 H 111.877 4.00387 -1.16171 0
M  V30 1225 H 110.537 3.23572 -0.270458 0
M  V30 1226 H 111.548 3.33008 -3.96643 0
M  V30 1227 H 108.225 3.91411 -1.45272 0
M  V30 1228 H 109.615 3.86783 -5.49408 0
M  V30 1229 N 112.336 1.25143 0.95797 0
M  V30 1230 C 113.747 1.08851 1.51685 0
M  V30 1231 C 114.098 -0.33687 1.93286 0
M  V30 1232 O 113.223 -1.22644 1.7829 0
M  V30 1233 C 113.818 1.96978 2.75654 0
M  V30 1234 C 112.377 1.84881 3.27866 0
M  V30 1235 C 111.524 1.91329 2.0072 0
M  V30 1236 H 114.475 1.38478 0.77522 0
M  V30 1237 H 114.496 1.5078 3.4935 0
M  V30 1238 H 114.008 3.00712 2.45345 0
M  V30 1239 H 112.109 0.840182 3.63004 0
M  V30 1240 H 112.222 2.6951 3.96107 0
M  V30 1241 H 110.586 1.35174 2.15871 0
M  V30 1242 H 111.369 2.96661 1.72764 0
M  V30 1243 N 113.814 -1.1601 1.06675 0
M  V30 1244 C 115.061 -1.86633 0.785781 0
M  V30 1245 C 115.389 -1.81929 -0.687896 0
M  V30 1246 O 114.644 -1.23253 -1.52011 0
M  V30 1247 C 114.943 -3.35547 1.23057 0
M  V30 1248 C 114.609 -3.60448 2.70902 0
M  V30 1249 C 113.271 -3.66954 3.11285 0
M  V30 1250 C 115.623 -3.7071 3.66365 0
M  V30 1251 C 112.951 -3.81225 4.45965 0
M  V30 1252 C 115.303 -3.86503 5.00797 0
M  V30 1253 C 113.967 -3.91252 5.40813 0
M  V30 1254 H 113.237 -0.682937 0.287538 0
M  V30 1255 H 115.884 -1.37146 1.33654 0
M  V30 1256 H 114.189 -3.87193 0.59907 0
M  V30 1257 H 115.886 -3.88583 0.990163 0
M  V30 1258 H 112.476 -3.56021 2.38636 0
M  V30 1259 H 116.66 -3.64991 3.36296 0
M  V30 1260 H 111.916 -3.83155 4.76447 0
M  V30 1261 H 116.09 -3.93385 5.74649 0
M  V30 1262 H 113.717 -4.02062 6.45174 0
M  V30 1263 N 115.292 -0.849877 -1.32721 0
M  V30 1264 C 116.538 -0.451591 -1.97708 0
M  V30 1265 C 116.871 0.989175 -1.6712 0
M  V30 1266 O 116.146 1.69334 -0.956891 0
M  V30 1267 C 116.429 -0.685598 -3.53513 0
M  V30 1268 C 116.282 -2.17444 -3.93749 0
M  V30 1269 C 117.601 -0.138874 -4.39881 0
M  V30 1270 H 114.72 -0.16555 -0.718166 0
M  V30 1271 H 117.362 -1.06742 -1.57182 0
M  V30 1272 H 115.512 -0.161416 -3.88165 0
M  V30 1273 H 117.184 -2.76433 -3.693 0
M  V30 1274 H 115.427 -2.65476 -3.43081 0
M  V30 1275 H 116.098 -2.28888 -5.02309 0
M  V30 1276 H 118.574 -0.587068 -4.11938 0
M  V30 1277 H 117.45 -0.332213 -5.47894 0
M  V30 1278 H 117.711 0.95806 -4.31594 0
M  V30 1279 N 116.77 1.45427 -0.607355 0
M  V30 1280 C 118.016 2.0254 -0.102607 0
M  V30 1281 C 118.349 1.47478 1.26348 0
M  V30 1282 O 117.624 0.64939 1.83339 0
M  V30 1283 C 117.907 3.60044 -0.0634347 0
M  V30 1284 C 117.76 4.2544 -1.46017 0
M  V30 1285 C 119.079 4.35646 0.624514 0
M  V30 1286 H 116.198 0.73598 -0.0387607 0
M  V30 1287 H 118.84 1.73284 -0.779282 0
M  V30 1288 H 116.99 3.85101 0.512808 0
M  V30 1289 H 118.662 4.11569 -2.08347 0
M  V30 1290 H 116.905 3.83849 -2.02094 0
M  V30 1291 H 117.576 5.34342 -1.385 0
M  V30 1292 H 120.052 4.15882 0.134723 0
M  V30 1293 H 118.928 5.45376 0.621028 0
M  V30 1294 H 119.189 4.08501 1.69055 0
M  V30 1295 N 118.248 0.346503 1.53744 0
M  V30 1296 C 119.664 -0.00530975 1.59599 0
M  V30 1297 C 119.864 -1.48465 1.36236 0
M  V30 1298 O 118.92 -2.24376 1.15808 0
M  V30 1299 C 120.233 0.433516 2.97559 0
M  V30 1300 C 121.781 0.386111 3.10609 0
M  V30 1301 C 122.256 0.800451 4.50951 0
M  V30 1302 N 123.747 0.754753 4.5701 0
M  V30 1303 C 124.482 1.04727 5.63755 0
M  V30 1304 N 123.978 1.4081 6.7834 0
M  V30 1305 N 125.771 0.971316 5.53644 0
M  V30 1306 H 117.922 1.31009 1.67184 0
M  V30 1307 H 120.185 0.534242 0.783128 0
M  V30 1308 H 119.891 1.46509 3.19731 0
M  V30 1309 H 119.765 -0.189753 3.76722 0
M  V30 1310 H 122.152 -0.636295 2.88158 0
M  V30 1311 H 122.233 1.04462 2.33498 0
M  V30 1312 H 121.877 1.82088 4.74137 0
M  V30 1313 H 121.807 0.119386 5.26465 0
M  V30 1314 H 124.298 0.488662 3.74727 0
M  V30 1315 H 124.611 1.61607 7.55714 0
M  V30 1316 H 122.956 1.44657 6.79779 0
M  V30 1317 H 126.147 0.688748 4.63005 0
M  V30 1318 H 126.32 1.20263 6.36742 0
M  V30 1319 N 119.726 -1.57421 0.075193 0
M  V30 1320 C 120.656 -2.15942 -0.888324 0
M  V30 1321 C 121.637 -1.08737 -1.30806 0
M  V30 1322 O 122.822 -1.36787 -1.37851 0
M  V30 1323 C 119.952 -2.72379 -2.1547 0
M  V30 1324 C 118.906 -3.8478 -1.87425 0
M  V30 1325 C 118.232 -4.27834 -3.20721 0
M  V30 1326 C 119.532 -5.08869 -1.17684 0
M  V30 1327 H 121.226 -2.96705 -0.400799 0
M  V30 1328 H 118.772 -1.42723 -0.191342 0
M  V30 1329 H 120.725 -3.11965 -2.83295 0
M  V30 1330 H 119.449 -1.88841 -2.6647 0
M  V30 1331 H 118.108 -3.45703 -1.22004 0
M  V30 1332 H 117.756 -3.41214 -3.6957 0
M  V30 1333 H 117.456 -5.03605 -3.02746 0
M  V30 1334 H 118.98 -4.70039 -3.89738 0
M  V30 1335 H 120.394 -5.4575 -1.75584 0
M  V30 1336 H 118.791 -5.8994 -1.09956 0
M  V30 1337 H 119.861 -4.84648 -0.156453 0
M  V30 1338 N 121.204 0.198386 -1.56346 0
M  V30 1339 C 122.151 1.24589 -1.94284 0
M  V30 1340 C 123.121 1.454 -0.802997 0
M  V30 1341 O 124.306 1.58588 -1.06087 0
M  V30 1342 C 121.446 2.58631 -2.28482 0
M  V30 1343 C 120.559 2.45426 -3.55514 0
M  V30 1344 C 119.694 3.7215 -3.79049 0
M  V30 1345 C 118.733 3.53763 -4.99518 0
M  V30 1346 N 117.87 4.72491 -5.19323 0
M  V30 1347 H 122.71 0.915356 -2.83593 0
M  V30 1348 H 120.247 0.440629 -1.40346 0
M  V30 1349 H 122.205 3.3672 -2.46324 0
M  V30 1350 H 120.835 2.89734 -1.42317 0
M  V30 1351 H 119.887 1.58652 -3.45737 0
M  V30 1352 H 121.199 2.27772 -4.43758 0
M  V30 1353 H 120.353 4.58679 -3.97113 0
M  V30 1354 H 119.092 3.92754 -2.89129 0
M  V30 1355 H 118.097 2.65619 -4.8138 0
M  V30 1356 H 119.322 3.34607 -5.90944 0
M  V30 1357 H 117.268 4.93365 -4.3235 0
M  V30 1358 H 117.185 4.5765 -6.01741 0
M  V30 1359 H 118.453 5.6038 -5.41843 0
M  V30 1360 N 122.682 1.50554 0.465978 0
M  V30 1361 C 123.93 1.61479 1.21528 0
M  V30 1362 C 124.251 0.319596 1.92363 0
M  V30 1363 O 123.521 -0.663194 1.84333 0
M  V30 1364 H 122.101 0.595055 0.451573 0
M  V30 1365 H 124.763 1.87355 0.53704 0
M  V30 1366 H 123.859 2.42846 1.96042 0
M  V30 1367 N 124.16 -0.719506 1.40217 0
M  V30 1368 C 125.408 -1.47641 1.3801 0
M  V30 1369 C 125.729 -1.94992 -0.018145 0
M  V30 1370 O 124.999 -1.70073 -0.972207 0
M  V30 1371 H 123.579 -0.547744 0.507923 0
M  V30 1372 H 126.241 -0.853187 1.75233 0
M  V30 1373 H 125.337 -2.35112 2.05253 0
M  V30 1374 N 125.638 -1.25649 -0.95132 0
M  V30 1375 C 126.915 -1.01361 -1.67288 0
M  V30 1376 C 127.295 0.459135 -2.06046 0
M  V30 1377 O 126.643 1.43723 -1.7764 0
M  V30 1378 C 126.853 -1.95256 -2.89268 0
M  V30 1379 C 128.201 -2.23289 -3.61147 0
M  V30 1380 O 129.225 -1.93041 -2.99355 0
M  V30 1381 O 128.084 -2.74741 -4.72419 0
M  V30 1382 H 125.178 -0.38464 -0.732107 0
M  V30 1383 H 127.724 -1.36817 -1.00395 0
M  V30 1384 H 126.496 -2.94685 -2.57442 0
M  V30 1385 H 126.119 -1.60218 -3.6389 0
M  V30 1386 N 127.117 1.15442 -1.07289 0
M  V30 1387 C 128.528 1.67803 -0.818475 0
M  V30 1388 C 128.879 1.8489 0.656507 0
M  V30 1389 O 128.004 1.55176 1.50829 0
M  V30 1390 C 128.599 3.04805 -1.47917 0
M  V30 1391 C 127.158 3.54245 -1.27229 0
M  V30 1392 C 126.305 2.29986 -1.54925 0
M  V30 1393 H 129.256 0.996646 -1.23502 0
M  V30 1394 H 129.277 3.69702 -0.90005 0
M  V30 1395 H 128.789 2.92336 -2.55267 0
M  V30 1396 H 126.89 3.71956 -0.21899 0
M  V30 1397 H 127.003 4.35723 -1.99203 0
M  V30 1398 H 125.367 2.35496 -0.970242 0
M  V30 1399 H 126.15 2.20105 -2.63455 0
M  V30 1400 N 128.595 0.856903 1.32268 0
M  V30 1401 C 129.528 0.247937 2.26849 0
M  V30 1402 C 130.506 -0.615382 1.50505 0
M  V30 1403 O 131.69 -0.571689 1.79622 0
M  V30 1404 C 128.817 -0.650093 3.32403 0
M  V30 1405 C 127.863 0.140138 4.2627 0
M  V30 1406 S 128.696 1.51004 5.13769 0
M  V30 1407 C 129.852 0.61778 6.22844 0
M  V30 1408 H 130.085 1.04971 2.78152 0
M  V30 1409 H 127.618 0.654665 1.39834 0
M  V30 1410 H 129.576 -1.16256 3.93694 0
M  V30 1411 H 128.237 -1.4257 2.7988 0
M  V30 1412 H 127.43 -0.543945 5.01056 0
M  V30 1413 H 127.032 0.584267 3.69408 0
M  V30 1414 H 129.324 -0.177053 6.77269 0
M  V30 1415 H 130.267 1.33636 6.95375 0
M  V30 1416 H 130.675 0.191124 5.64176 0
M  V30 1417 N 130.073 -1.45103 0.615059 0
M  V30 1418 C 131.319 -2.02483 0.113347 0
M  V30 1419 C 131.652 -1.48146 -1.25564 0
M  V30 1420 O 130.927 -0.659104 -1.82992 0
M  V30 1421 C 131.21 -3.60005 0.0825278 0
M  V30 1422 C 131.063 -4.2466 1.48271 0
M  V30 1423 C 132.382 -4.35972 -0.601401 0
M  V30 1424 H 129.501 -0.735764 0.0426632 0
M  V30 1425 H 132.143 -1.72868 0.788461 0
M  V30 1426 H 130.293 -3.85367 -0.492378 0
M  V30 1427 H 131.965 -4.10458 2.10527 0
M  V30 1428 H 130.208 -3.82772 2.04127 0
M  V30 1429 H 130.879 -5.336 1.41332 0
M  V30 1430 H 133.355 -4.15947 -0.112666 0
M  V30 1431 H 132.231 -5.45697 -0.592097 0
M  V30 1432 H 132.492 -4.09391 -1.66887 0
M  V30 1433 N 131.551 -0.354651 -1.53558 0
M  V30 1434 C 132.798 0.238443 -2.01091 0
M  V30 1435 C 133.126 1.49663 -1.24222 0
M  V30 1436 O 132.381 1.93049 -0.321003 0
M  V30 1437 C 132.68 0.587121 -3.52545 0
M  V30 1438 C 132.346 -0.575472 -4.47213 0
M  V30 1439 C 131.008 -0.894497 -4.72813 0
M  V30 1440 C 133.36 -1.35489 -5.03281 0
M  V30 1441 C 130.688 -1.99511 -5.51736 0
M  V30 1442 C 133.04 -2.44583 -5.83405 0
M  V30 1443 C 131.704 -2.77033 -6.07296 0
M  V30 1444 H 130.974 0.0872526 -0.735845 0
M  V30 1445 H 133.621 -0.484859 -1.8526 0
M  V30 1446 H 131.926 1.39129 -3.66265 0
M  V30 1447 H 133.623 1.05809 -3.86789 0
M  V30 1448 H 130.213 -0.316774 -4.27428 0
M  V30 1449 H 134.397 -1.12167 -4.83459 0
M  V30 1450 H 129.653 -2.25063 -5.68469 0
M  V30 1451 H 133.827 -3.05401 -6.25862 0
M  V30 1452 H 131.454 -3.6244 -6.68237 0
M  V30 1453 N 133.029 1.57378 -0.0835403 0
M  V30 1454 C 134.277 1.93547 0.581718 0
M  V30 1455 C 134.598 0.96524 1.69435 0
M  V30 1456 O 133.868 0.0153369 1.95894 0
M  V30 1457 H 132.448 0.714521 0.217874 0
M  V30 1458 H 135.11 1.94366 -0.144158 0
M  V30 1459 H 134.206 2.95665 0.999423 0
M  V30 1460 N 134.507 -0.190092 1.56449 0
M  V30 1461 C 135.923 -0.54113 1.50146 0
M  V30 1462 C 136.123 -1.85603 0.784465 0
M  V30 1463 O 135.179 -2.5024 0.337051 0
M  V30 1464 C 136.492 -0.591241 2.9483 0
M  V30 1465 C 138.04 -0.679732 3.0553 0
M  V30 1466 C 138.515 -0.760908 4.51635 0
M  V30 1467 N 140.006 -0.824302 4.55806 0
M  V30 1468 C 140.741 -0.907365 5.66175 0
M  V30 1469 N 140.237 -0.952422 6.86222 0
M  V30 1470 N 142.03 -0.94494 5.541 0
M  V30 1471 H 134.181 0.67235 2.01478 0
M  V30 1472 H 136.444 0.240127 0.917084 0
M  V30 1473 H 136.15 0.305905 3.50367 0
M  V30 1474 H 136.024 -1.44422 3.48457 0
M  V30 1475 H 138.411 -1.56731 2.50039 0
M  V30 1476 H 138.492 0.199549 2.5502 0
M  V30 1477 H 138.136 0.122336 5.07753 0
M  V30 1478 H 138.066 -1.65606 4.99882 0
M  V30 1479 H 140.557 -0.798526 3.69367 0
M  V30 1480 H 140.87 -1.01645 7.66086 0
M  V30 1481 H 139.215 -0.921014 6.8887 0
M  V30 1482 H 142.406 -0.906612 4.59236 0
M  V30 1483 H 142.579 -1.00622 6.4014 0
M  V30 1484 N 135.985 -1.50799 -0.457987 0
M  V30 1485 C 137.233 -1.62121 -1.2067 0
M  V30 1486 C 137.554 -0.329793 -1.92191 0
M  V30 1487 O 136.824 0.653409 -1.84682 0
M  V30 1488 H 135.404 -0.597441 -0.448411 0
M  V30 1489 H 138.066 -1.87637 -0.527096 0
M  V30 1490 H 137.162 -2.43882 -1.94751 0
M  V30 1491 N 137.463 0.71206 -1.40597 0
M  V30 1492 C 138.711 1.46907 -1.38791 0
M  V30 1493 C 139.032 1.94998 0.00780391 0
M  V30 1494 O 138.302 1.70587 0.963174 0
M  V30 1495 H 136.882 0.545043 -0.51082 0
M  V30 1496 H 139.544 0.843882 -1.75683 0
M  V30 1497 H 138.64 2.34021 -2.06496 0
M  V30 1498 N 138.941 1.26152 0.944643 0
M  V30 1499 C 139.851 1.09176 2.07648 0
M  V30 1500 C 140.867 0.0261935 1.7398 0
M  V30 1501 O 142.043 0.229208 2.00091 0
M  V30 1502 C 139.108 0.722915 3.39079 0
M  V30 1503 C 138.169 1.86752 3.86552 0
M  V30 1504 C 137.402 1.51617 5.11711 0
M  V30 1505 O 137.625 0.416331 5.68879 0
M  V30 1506 O 136.559 2.34975 5.54139 0
M  V30 1507 H 140.385 2.0412 2.24875 0
M  V30 1508 H 137.97 1.05182 1.061 0
M  V30 1509 H 139.852 0.529787 4.18056 0
M  V30 1510 H 138.527 -0.197159 3.23099 0
M  V30 1511 H 137.434 2.11558 3.08535 0
M  V30 1512 H 138.767 2.76719 4.07047 0
M  V30 1513 N 140.419 -1.14872 1.07899 0
M  V30 1514 C 141.329 -2.2341 0.715915 0
M  V30 1515 C 142.345 -1.71808 -0.275306 0
M  V30 1516 O 143.521 -2.01039 -0.120545 0
M  V30 1517 C 140.586 -3.46474 0.125168 0
M  V30 1518 C 139.647 -4.13039 1.17034 0
M  V30 1519 C 138.88 -5.30229 0.607688 0
M  V30 1520 O 139.103 -5.675 -0.574497 0
M  V30 1521 O 138.037 -5.86444 1.35526 0
M  V30 1522 H 141.863 -2.56808 1.62121 0
M  V30 1523 H 139.448 -1.22702 0.852322 0
M  V30 1524 H 141.33 -4.20917 -0.201729 0
M  V30 1525 H 140.005 -3.14811 -0.753364 0
M  V30 1526 H 138.912 -3.40493 1.54968 0
M  V30 1527 H 140.245 -4.48796 2.02097 0
M  V30 1528 N 141.898 -0.863906 -1.31812 0
M  V30 1529 C 143.144 -0.472535 -1.97218 0
M  V30 1530 C 143.477 0.971394 -1.68159 0
M  V30 1531 O 142.752 1.68309 -0.974798 0
M  V30 1532 C 143.035 -0.723054 -3.52766 0
M  V30 1533 C 142.888 -2.21608 -3.91421 0
M  V30 1534 C 144.207 -0.185522 -4.39709 0
M  V30 1535 H 141.326 -0.173158 -0.71637 0
M  V30 1536 H 143.968 -1.08403 -1.56041 0
M  V30 1537 H 142.118 -0.202577 -3.87971 0
M  V30 1538 H 143.79 -2.80334 -3.66347 0
M  V30 1539 H 142.033 -2.691 -3.40246 0
M  V30 1540 H 142.704 -2.34203 -4.99853 0
M  V30 1541 H 145.18 -0.630726 -4.11292 0
M  V30 1542 H 144.056 -0.390306 -5.47511 0
M  V30 1543 H 144.317 0.912229 -4.32586 0
M  V30 1544 N 143.376 1.44774 -0.622745 0
M  V30 1545 C 144.306 2.33382 0.0741861 0
M  V30 1546 C 145.287 1.47719 0.843387 0
M  V30 1547 O 146.472 1.76458 0.810934 0
M  V30 1548 C 143.602 3.30663 1.06204 0
M  V30 1549 C 142.556 4.26079 0.405037 0
M  V30 1550 C 141.882 5.13165 1.5022 0
M  V30 1551 C 143.182 5.1781 -0.683414 0
M  V30 1552 H 144.876 2.91905 -0.665713 0
M  V30 1553 H 142.422 1.40363 -0.321587 0
M  V30 1554 H 144.375 3.9153 1.55827 0
M  V30 1555 H 143.099 2.70331 1.83272 0
M  V30 1556 H 141.758 3.66532 -0.0704683 0
M  V30 1557 H 141.406 4.49191 2.26355 0
M  V30 1558 H 141.106 5.77812 1.06803 0
M  V30 1559 H 142.63 5.76902 2.00041 0
M  V30 1560 H 144.044 5.72661 -0.270631 0
M  V30 1561 H 142.441 5.91015 -1.04023 0
M  V30 1562 H 143.511 4.59326 -1.55395 0
M  V30 1563 N 144.854 0.36279 1.53368 0
M  V30 1564 C 146.101 -0.227776 2.01215 0
M  V30 1565 C 146.429 -1.49003 1.25014 0
M  V30 1566 O 145.684 -1.92876 0.331236 0
M  V30 1567 C 145.983 -0.568417 3.52851 0
M  V30 1568 C 145.649 0.59918 4.46901 0
M  V30 1569 C 144.311 0.919559 4.72332 0
M  V30 1570 C 146.663 1.38156 5.02556 0
M  V30 1571 C 143.991 2.02434 5.5067 0
M  V30 1572 C 146.343 2.47674 5.821 0
M  V30 1573 C 145.007 2.8025 6.05819 0
M  V30 1574 H 144.277 -0.083349 0.736297 0
M  V30 1575 H 146.924 0.494677 1.85001 0
M  V30 1576 H 145.229 -1.37185 3.66998 0
M  V30 1577 H 146.926 -1.03756 3.87344 0
M  V30 1578 H 143.516 0.339437 4.27254 0
M  V30 1579 H 147.7 1.14729 4.82857 0
M  V30 1580 H 142.956 2.28075 5.67267 0
M  V30 1581 H 147.13 3.08716 6.24234 0
M  V30 1582 H 144.757 3.65979 6.66306 0
M  V30 1583 N 146.332 -1.57332 0.0918853 0
M  V30 1584 C 147.262 -2.16872 -0.865371 0
M  V30 1585 C 148.243 -1.10118 -1.29646 0
M  V30 1586 O 149.428 -1.38242 -1.36392 0
M  V30 1587 C 146.558 -2.74649 -2.12569 0
M  V30 1588 C 145.512 -3.86747 -1.83333 0
M  V30 1589 C 144.838 -4.31212 -3.16166 0
M  V30 1590 C 146.138 -5.10089 -1.1228 0
M  V30 1591 H 147.832 -2.97114 -0.369307 0
M  V30 1592 H 145.378 -1.42918 -0.176194 0
M  V30 1593 H 147.331 -3.14952 -2.7997 0
M  V30 1594 H 146.055 -1.91657 -2.64452 0
M  V30 1595 H 144.714 -3.46978 -1.18331 0
M  V30 1596 H 144.362 -3.45115 -3.6593 0
M  V30 1597 H 144.062 -5.06788 -2.97388 0
M  V30 1598 H 145.586 -4.74146 -3.84731 0
M  V30 1599 H 147 -5.47582 -1.69785 0
M  V30 1600 H 145.397 -5.91073 -1.03693 0
M  V30 1601 H 146.467 -4.84786 -0.105041 0
M  V30 1602 N 147.81 0.181792 -1.56548 0
M  V30 1603 C 148.74 1.22765 -1.98623 0
M  V30 1604 C 149.721 1.46747 -0.860189 0
M  V30 1605 O 150.906 1.58259 -1.12551 0
M  V30 1606 C 148.036 2.56894 -2.33715 0
M  V30 1607 C 146.99 2.475 -3.49182 0
M  V30 1608 C 146.316 3.86023 -3.69986 0
M  V30 1609 C 147.616 1.98866 -4.82959 0
M  V30 1610 H 149.31 0.877942 -2.86239 0
M  V30 1611 H 146.856 0.42088 -1.37712 0
M  V30 1612 H 148.809 3.30253 -2.61746 0
M  V30 1613 H 147.533 2.93632 -1.42997 0
M  V30 1614 H 146.192 1.76596 -3.21262 0
M  V30 1615 H 145.84 4.20136 -2.76576 0
M  V30 1616 H 145.54 3.80609 -4.47672 0
M  V30 1617 H 147.064 4.60984 -4.00407 0
M  V30 1618 H 148.478 2.61992 -5.09934 0
M  V30 1619 H 146.875 2.04424 -5.64208 0
M  V30 1620 H 147.945 0.942465 -4.75653 0
M  V30 1621 N 149.288 1.51039 0.449983 0
M  V30 1622 C 150.704 1.38934 0.785462 0
M  V30 1623 C 150.904 0.461817 1.96136 0
M  V30 1624 O 149.96 -0.0877389 2.52348 0
M  V30 1625 C 151.273 2.80724 1.0777 0
M  V30 1626 C 152.821 2.89787 1.1829 0
M  V30 1627 C 153.296 4.32457 1.50815 0
M  V30 1628 N 154.787 4.35505 1.57764 0
M  V30 1629 C 155.522 5.42914 1.84477 0
M  V30 1630 N 155.018 6.60502 2.09068 0
M  V30 1631 N 156.811 5.3038 1.86155 0
M  V30 1632 H 148.962 2.09904 -0.324647 0
M  V30 1633 H 151.225 0.944378 -0.0827957 0
M  V30 1634 H 150.931 3.50531 0.286498 0
M  V30 1635 H 150.805 3.19273 2.00859 0
M  V30 1636 H 153.192 2.20186 1.96474 0
M  V30 1637 H 153.273 2.54752 0.231314 0
M  V30 1638 H 152.917 5.02603 0.731622 0
M  V30 1639 H 152.847 4.64995 2.47158 0
M  V30 1640 H 155.338 3.50724 1.40715 0
M  V30 1641 H 155.651 7.38158 2.28785 0
M  V30 1642 H 153.996 6.63639 2.06416 0
M  V30 1643 H 157.187 4.37505 1.66454 0
M  V30 1644 H 157.36 6.1417 2.06637 0
M  V30 1645 N 150.766 -0.704594 1.40972 0
M  V30 1646 C 151.716 -1.81051 1.38581 0
M  V30 1647 C 152.7 -1.58759 0.261585 0
M  V30 1648 O 153.892 -1.69745 0.501556 0
M  V30 1649 C 151.021 -3.19279 1.26157 0
M  V30 1650 C 150.107 -3.47296 2.43405 0
M  V30 1651 N 150.498 -3.46064 3.68881 0
M  V30 1652 C 148.796 -3.77804 2.37023 0
M  V30 1653 C 149.497 -3.72733 4.46592 0
M  V30 1654 N 148.473 -3.9203 3.76581 0
M  V30 1655 H 152.275 -1.78448 2.33525 0
M  V30 1656 H 149.789 -0.904198 1.349 0
M  V30 1657 H 151.786 -3.98488 1.22526 0
M  V30 1658 H 150.446 -3.231 0.321902 0
M  V30 1659 H 151.457 -3.26656 4.01891 0
M  V30 1660 H 148.134 -3.8905 1.51481 0
M  V30 1661 H 149.524 -3.77993 5.55492 0
M  V30 1662 N 152.244 -1.26651 -0.937939 0
M  V30 1663 C 153.492 -1.12165 -1.68118 0
M  V30 1664 C 153.813 0.334983 -1.92101 0
M  V30 1665 O 153.083 1.23583 -1.52 0
M  V30 1666 H 151.663 -0.412093 -0.623048 0
M  V30 1667 H 154.325 -1.59027 -1.12678 0
M  V30 1668 H 153.421 -1.64289 -2.6536 0
M  V30 1669 N 153.722 1.14298 -1.08507 0
M  V30 1670 C 154.968 1.85633 -0.816581 0
M  V30 1671 C 155.301 1.82784 0.656021 0
M  V30 1672 O 154.576 1.25926 1.48233 0
M  V30 1673 C 154.859 3.34223 -1.34041 0
M  V30 1674 C 154.712 3.45639 -2.87843 0
M  V30 1675 C 156.031 4.29356 -0.9665 0
M  V30 1676 H 153.15 0.67402 -0.298104 0
M  V30 1677 H 155.792 1.34214 -1.34487 0
M  V30 1678 H 153.942 3.78144 -0.89104 0
M  V30 1679 H 155.614 3.10498 -3.41158 0
M  V30 1680 H 153.857 2.86817 -3.25451 0
M  V30 1681 H 154.528 4.50089 -3.19569 0
M  V30 1682 H 157.004 3.93457 -1.35391 0
M  V30 1683 H 155.88 5.3178 -1.3602 0
M  V30 1684 H 156.141 4.41919 0.126362 0
M  V30 1685 N 155.201 0.870884 1.31352 0
M  V30 1686 C 156.612 0.534714 1.78879 0
M  V30 1687 C 156.963 -0.948423 1.71754 0
M  V30 1688 O 156.088 -1.74055 1.28584 0
M  V30 1689 C 156.683 0.963839 3.24801 0
M  V30 1690 C 155.242 0.679311 3.70219 0
M  V30 1691 C 154.389 1.15465 2.52117 0
M  V30 1692 H 157.34 1.05651 1.18421 0
M  V30 1693 H 157.361 0.286892 3.79417 0
M  V30 1694 H 156.873 2.04332 3.29955 0
M  V30 1695 H 154.974 -0.388769 3.70566 0
M  V30 1696 H 155.087 1.25698 4.62317 0
M  V30 1697 H 153.451 0.574383 2.48139 0
M  V30 1698 H 154.234 2.24157 2.60016 0
M  V30 1699 N 156.679 -1.44442 0.630414 0
M  V30 1700 C 157.925 -2.02351 0.134816 0
M  V30 1701 C 158.258 -1.4947 -1.23986 0
M  V30 1702 O 157.533 -0.678475 -1.82283 0
M  V30 1703 C 157.816 -3.59898 0.120707 0
M  V30 1704 C 157.669 -4.23063 1.52767 0
M  V30 1705 C 158.988 -4.36585 -0.555127 0
M  V30 1706 H 156.107 -0.73527 0.0504646 0
M  V30 1707 H 158.749 -1.72022 0.806751 0
M  V30 1708 H 156.899 -3.85868 -0.451477 0
M  V30 1709 H 158.571 -4.08202 2.14869 0
M  V30 1710 H 156.814 -3.80586 2.08175 0
M  V30 1711 H 157.485 -5.32071 1.46984 0
M  V30 1712 H 159.961 -4.16044 -0.0685429 0
M  V30 1713 H 158.837 -5.46294 -0.534185 0
M  V30 1714 H 159.098 -4.11138 -1.62535 0
M  V30 1715 N 158.157 -0.370918 -1.53173 0
M  V30 1716 C 159.067 0.480823 -2.2962 0
M  V30 1717 C 160.083 1.08789 -1.35798 0
M  V30 1718 O 161.259 1.09768 -1.68858 0
M  V30 1719 C 158.324 1.60227 -3.07454 0
M  V30 1720 C 157.385 1.0222 -4.16953 0
M  V30 1721 C 156.618 2.0902 -4.91066 0
M  V30 1722 O 156.841 3.30222 -4.65091 0
M  V30 1723 O 155.775 1.71778 -5.76867 0
M  V30 1724 H 159.601 -0.141421 -3.03371 0
M  V30 1725 H 157.186 -0.135146 -1.48787 0
M  V30 1726 H 159.068 2.25417 -3.56041 0
M  V30 1727 H 157.743 2.20982 -2.36535 0
M  V30 1728 H 156.65 0.334064 -3.72605 0
M  V30 1729 H 157.983 0.459131 -4.90054 0
M  V30 1730 N 159.635 1.57281 -0.100228 0
M  V30 1731 C 160.881 1.94826 0.563101 0
M  V30 1732 C 161.214 0.982475 1.67514 0
M  V30 1733 O 160.489 0.0164069 1.94493 0
M  V30 1734 C 160.772 3.42453 1.11346 0
M  V30 1735 C 160.625 4.498 0.00612081 0
M  V30 1736 C 161.944 3.91506 2.01024 0
M  V30 1737 H 159.063 0.708428 0.203221 0
M  V30 1738 H 161.705 1.8922 -0.171979 0
M  V30 1739 H 159.855 3.47361 1.7399 0
M  V30 1740 H 161.527 4.57 -0.628357 0
M  V30 1741 H 159.77 4.28756 -0.659581 0
M  V30 1742 H 160.441 5.50306 0.432109 0
M  V30 1743 H 162.917 3.88784 1.48278 0
M  V30 1744 H 161.793 4.95358 2.36457 0
M  V30 1745 H 162.054 3.31099 2.92961 0
M  V30 1746 N 161.113 -0.173488 1.56642 0
M  V30 1747 C 162.359 -0.891784 1.8214 0
M  V30 1748 C 162.692 -1.8199 0.677736 0
M  V30 1749 O 161.967 -1.91842 -0.320446 0
M  V30 1750 C 162.25 -1.68933 3.18015 0
M  V30 1751 C 162.103 -0.784487 4.42906 0
M  V30 1752 C 163.422 -2.65748 3.50808 0
M  V30 1753 H 160.541 -0.322761 0.662567 0
M  V30 1754 H 163.183 -0.158095 1.89341 0
M  V30 1755 H 161.333 -2.31482 3.12007 0
M  V30 1756 H 163.005 -0.172046 4.60979 0
M  V30 1757 H 161.248 -0.0924117 4.33702 0
M  V30 1758 H 161.919 -1.37799 5.34524 0
M  V30 1759 H 164.395 -2.13327 3.57255 0
M  V30 1760 H 163.271 -3.18619 4.4696 0
M  V30 1761 H 163.532 -3.45842 2.75401 0
M  V30 1762 N 162.591 -1.51276 -0.441967 0
M  V30 1763 C 164.002 -1.56244 -1.02199 0
M  V30 1764 C 164.353 -0.383149 -1.92422 0
M  V30 1765 O 163.478 0.500613 -2.1053 0
M  V30 1766 C 164.073 -2.83162 -1.86024 0
M  V30 1767 C 162.632 -2.90716 -2.39084 0
M  V30 1768 C 161.779 -2.50858 -1.18175 0
M  V30 1769 H 164.73 -1.5712 -0.223416 0
M  V30 1770 H 164.751 -2.66663 -2.71425 0
M  V30 1771 H 164.263 -3.68974 -1.20331 0
M  V30 1772 H 162.364 -2.09323 -3.08244 0
M  V30 1773 H 162.477 -3.94266 -2.72198 0
M  V30 1774 H 160.841 -2.03951 -1.52565 0
M  V30 1775 H 161.624 -3.3901 -0.541001 0
M  V30 1776 N 164.069 0.697108 -1.41344 0
M  V30 1777 C 165.317 1.45426 -1.40341 0
M  V30 1778 C 165.638 1.94996 -0.0128787 0
M  V30 1779 O 164.908 1.71599 0.945027 0
M  V30 1780 H 163.488 0.539594 -0.516573 0
M  V30 1781 H 166.15 0.825201 -1.76569 0
M  V30 1782 H 165.246 2.31817 -2.08967 0
M  V30 1783 N 165.547 1.27147 0.931209 0
M  V30 1784 C 166.793 1.13446 1.68101 0
M  V30 1785 C 167.126 -0.319628 1.91552 0
M  V30 1786 O 166.401 -1.23407 1.50336 0
M  V30 1787 C 166.684 1.91482 3.0497 0
M  V30 1788 C 166.537 3.44855 2.88782 0
M  V30 1789 C 167.856 1.71651 4.05246 0
M  V30 1790 H 164.975 0.413498 0.610072 0
M  V30 1791 H 167.617 1.56261 1.08086 0
M  V30 1792 H 165.767 1.55095 3.56199 0
M  V30 1793 H 167.439 3.9105 2.44698 0
M  V30 1794 H 165.682 3.71373 2.24198 0
M  V30 1795 H 166.353 3.94694 3.85902 0
M  V30 1796 H 168.829 2.0337 3.63015 0
M  V30 1797 H 167.705 2.28651 4.99009 0
M  V30 1798 H 167.966 0.663555 4.37092 0
M  V30 1799 N 167.025 -1.13721 1.09112 0
M  V30 1800 C 168.253 -1.88773 0.846899 0
M  V30 1801 C 168.668 -1.7896 -0.601572 0
M  V30 1802 O 168.025 -1.15394 -1.41388 0
M  V30 1803 C 168.076 -3.3849 1.26913 0
M  V30 1804 O 167.797 -3.48043 2.66079 0
M  V30 1805 C 169.298 -4.30518 1.05682 0
M  V30 1806 H 166.518 -0.59772 0.304914 0
M  V30 1807 H 169.062 -1.43977 1.45227 0
M  V30 1808 H 167.217 -3.80881 0.707723 0
M  V30 1809 H 167.631 -4.4109 2.83795 0
M  V30 1810 H 169.105 -5.3391 1.40156 0
M  V30 1811 H 169.582 -4.392 -0.00563416 0
M  V30 1812 H 170.188 -3.93893 1.60402 0
M  V30 1813 N 168.503 -0.877838 -1.30888 0
M  V30 1814 C 169.728 -0.506629 -2.01117 0
M  V30 1815 C 170.153 0.895564 -1.65412 0
M  V30 1816 O 169.511 1.5923 -0.866922 0
M  V30 1817 C 169.559 -0.680223 -3.54126 0
M  V30 1818 O 168.663 0.277033 -4.11468 0
M  V30 1819 H 168.004 -0.200518 -0.633 0
M  V30 1820 H 170.534 -1.18342 -1.66902 0
M  V30 1821 H 170.544 -0.5765 -4.03907 0
M  V30 1822 H 169.219 -1.70261 -3.79452 0
M  V30 1823 H 167.796 0.127606 -3.72682 0
M  V30 1824 N 169.982 1.44106 -0.638065 0
M  V30 1825 C 170.912 2.33448 0.0494287 0
M  V30 1826 C 171.893 1.48606 0.827672 0
M  V30 1827 O 173.078 1.77308 0.792173 0
M  V30 1828 C 170.208 3.31771 1.02691 0
M  V30 1829 C 169.162 4.26485 0.359823 0
M  V30 1830 C 168.488 5.14729 1.44769 0
M  V30 1831 C 169.788 5.17056 -0.738296 0
M  V30 1832 H 171.482 2.91183 -0.696636 0
M  V30 1833 H 169.028 1.40014 -0.336456 0
M  V30 1834 H 170.981 3.93161 1.51666 0
M  V30 1835 H 169.705 2.7226 1.80395 0
M  V30 1836 H 168.364 3.66437 -0.10934 0
M  V30 1837 H 168.012 4.51566 2.21578 0
M  V30 1838 H 167.712 5.78913 1.00668 0
M  V30 1839 H 169.236 5.78991 1.93911 0
M  V30 1840 H 170.65 5.72342 -0.331354 0
M  V30 1841 H 169.047 5.89879 -1.10286 0
M  V30 1842 H 170.117 4.57652 -1.60258 0
M  V30 1843 N 171.46 0.379036 1.52974 0
M  V30 1844 C 172.39 -0.452706 2.29069 0
M  V30 1845 C 173.371 -1.07237 1.32039 0
M  V30 1846 O 174.556 -1.08708 1.60923 0
M  V30 1847 C 171.686 -1.5856 3.08992 0
M  V30 1848 C 170.64 -1.0925 4.13822 0
M  V30 1849 C 169.966 -2.31668 4.81907 0
M  V30 1850 C 171.266 -0.167702 5.22031 0
M  V30 1851 H 172.96 0.182181 2.98845 0
M  V30 1852 H 170.506 0.0890592 1.43724 0
M  V30 1853 H 172.459 -2.1742 3.6098 0
M  V30 1854 H 171.183 -2.24792 2.36931 0
M  V30 1855 H 169.842 -0.526494 3.628 0
M  V30 1856 H 169.49 -2.96386 4.06404 0
M  V30 1857 H 169.19 -1.9934 5.52754 0
M  V30 1858 H 170.714 -2.91189 5.36695 0
M  V30 1859 H 172.128 -0.664186 5.6944 0
M  V30 1860 H 170.525 0.0653265 6.00064 0
M  V30 1861 H 171.595 0.786347 4.78482 0
M  V30 1862 N 172.938 -1.57226 0.108567 0
M  V30 1863 C 173.901 -2.13602 -0.831082 0
M  V30 1864 C 174.901 -1.06841 -1.20173 0
M  V30 1865 O 176.091 -1.32666 -1.12895 0
M  V30 1866 C 173.223 -2.66769 -2.12243 0
M  V30 1867 H 174.416 -2.97951 -0.341317 0
M  V30 1868 H 171.969 -1.55667 -0.14057 0
M  V30 1869 H 172.704 -1.85977 -2.65675 0
M  V30 1870 H 172.489 -3.44839 -1.86625 0
M  V30 1871 H 173.979 -3.10332 -2.79435 0
M  V30 1872 N 174.416 0.165178 -1.56732 0
M  V30 1873 C 175.641 0.900253 -1.86843 0
M  V30 1874 C 176.066 1.74766 -0.695596 0
M  V30 1875 O 175.424 1.77786 0.35522 0
M  V30 1876 C 175.472 1.74777 -3.15413 0
M  V30 1877 O 174.576 2.85007 -2.98068 0
M  V30 1878 H 173.917 0.251832 -0.614391 0
M  V30 1879 H 176.447 0.161468 -2.03962 0
M  V30 1880 H 176.457 2.14646 -3.46974 0
M  V30 1881 H 175.132 1.12537 -4.00385 0
M  V30 1882 H 173.709 2.48676 -2.77875 0
M  V30 1883 N 175.894 1.51508 0.433938 0
M  V30 1884 C 177.142 1.6402 1.18075 0
M  V30 1885 C 177.463 0.360328 1.91642 0
M  V30 1886 O 176.733 -0.623945 1.85698 0
M  V30 1887 H 175.313 0.6045 0.43885 0
M  V30 1888 H 177.975 1.88452 0.497178 0
M  V30 1889 H 177.071 2.46949 1.90847 0
M  V30 1890 N 177.372 -0.689602 1.41712 0
M  V30 1891 C 178.302 -1.81577 1.46806 0
M  V30 1892 C 179.283 -1.66945 0.326105 0
M  V30 1893 O 180.468 -1.86588 0.538377 0
M  V30 1894 C 177.598 -3.19762 1.35535 0
M  V30 1895 C 176.552 -3.49107 2.47605 0
M  V30 1896 C 175.878 -4.86711 2.21397 0
M  V30 1897 C 177.178 -3.47483 3.89939 0
M  V30 1898 H 178.872 -1.7757 2.41058 0
M  V30 1899 H 176.418 -0.852887 1.16025 0
M  V30 1900 H 178.371 -3.98263 1.3771 0
M  V30 1901 H 177.095 -3.24409 0.377708 0
M  V30 1902 H 175.754 -2.72959 2.44722 0
M  V30 1903 H 175.402 -4.8799 1.21961 0
M  V30 1904 H 175.102 -5.0731 2.96497 0
M  V30 1905 H 176.626 -5.67515 2.25297 0
M  V30 1906 H 178.04 -4.1598 3.94505 0
M  V30 1907 H 176.437 -3.79615 4.64771 0
M  V30 1908 H 177.507 -2.46341 4.17665 0
M  V30 1909 N 178.85 -1.27639 -0.924453 0
M  V30 1910 C 180.261 -1.12834 -1.48746 0
M  V30 1911 C 180.612 0.285505 -1.94112 0
M  V30 1912 O 179.737 1.17874 -1.81479 0
M  V30 1913 C 180.332 -2.04217 -2.70334 0
M  V30 1914 C 178.891 -1.93509 -3.22848 0
M  V30 1915 C 178.038 -1.96583 -1.95577 0
M  V30 1916 H 180.989 -1.40484 -0.738233 0
M  V30 1917 H 181.01 -1.59989 -3.4523 0
M  V30 1918 H 180.522 -3.07111 -2.37285 0
M  V30 1919 H 178.623 -0.936131 -3.60649 0
M  V30 1920 H 178.736 -2.79917 -3.88823 0
M  V30 1921 H 177.1 -1.4085 -2.12211 0
M  V30 1922 H 177.883 -3.01137 -1.64837 0
M  V30 1923 N 180.328 1.1314 -1.09713 0
M  V30 1924 C 181.258 2.20748 -0.761102 0
M  V30 1925 C 182.239 1.68061 0.262566 0
M  V30 1926 O 183.424 1.93765 0.129977 0
M  V30 1927 C 180.554 3.46812 -0.184054 0
M  V30 1928 C 179.508 4.12606 -1.13757 0
M  V30 1929 C 178.834 5.33031 -0.422083 0
M  V30 1930 C 180.134 4.59603 -2.48118 0
M  V30 1931 H 181.828 2.49113 -1.66082 0
M  V30 1932 H 179.374 1.19734 -0.799987 0
M  V30 1933 H 181.327 4.21353 0.0631215 0
M  V30 1934 H 180.051 3.17851 0.750868 0
M  V30 1935 H 178.71 3.40036 -1.37007 0
M  V30 1936 H 178.358 5.00335 0.517072 0
M  V30 1937 H 178.058 5.77999 -1.05788 0
M  V30 1938 H 179.582 6.10325 -0.183277 0
M  V30 1939 H 180.996 5.25552 -2.29059 0
M  V30 1940 H 179.393 5.15321 -3.07514 0
M  V30 1941 H 180.463 3.73971 -3.08665 0
M  V30 1942 N 181.806 0.884767 1.30421 0
M  V30 1943 C 183.034 0.518044 2.0031 0
M  V30 1944 C 183.449 -0.893408 1.66324 0
M  V30 1945 O 182.806 -1.5875 0.900262 0
M  V30 1946 C 182.857 0.682997 3.54989 0
M  V30 1947 O 182.578 2.03888 3.87764 0
M  V30 1948 C 184.079 0.31924 4.42149 0
M  V30 1949 H 181.299 0.200265 0.640418 0
M  V30 1950 H 183.843 1.19001 1.6631 0
M  V30 1951 H 181.998 0.0584052 3.87356 0
M  V30 1952 H 182.412 2.05735 4.82466 0
M  V30 1953 H 183.886 0.485555 5.4986 0
M  V30 1954 H 184.363 -0.742717 4.32875 0
M  V30 1955 H 184.969 0.920147 4.15227 0
M  V30 1956 N 183.284 -1.43765 0.645699 0
M  V30 1957 C 184.234 -2.27884 -0.0726442 0
M  V30 1958 C 185.218 -1.39483 -0.802086 0
M  V30 1959 O 186.41 -1.63174 -0.685791 0
M  V30 1960 C 183.539 -3.27055 -1.04356 0
M  V30 1961 C 182.625 -4.22944 -0.312985 0
M  V30 1962 N 183.016 -5.01391 0.666386 0
M  V30 1963 C 181.314 -4.42528 -0.55546 0
M  V30 1964 C 182.015 -5.71217 1.09935 0
M  V30 1965 N 180.991 -5.41856 0.435137 0
M  V30 1966 H 184.793 -2.85949 0.678988 0
M  V30 1967 H 182.307 -1.55378 0.472368 0
M  V30 1968 H 184.304 -3.86089 -1.57292 0
M  V30 1969 H 182.964 -2.70551 -1.79534 0
M  V30 1970 H 183.975 -5.07252 1.04481 0
M  V30 1971 H 180.652 -3.97104 -1.28899 0
M  V30 1972 H 182.042 -6.44202 1.90929 0
M  V30 1973 N 184.763 -0.387143 -1.52771 0
M  V30 1974 C 186.179 -0.037007 -1.59557 0
M  V30 1975 C 186.379 1.44801 -1.40124 0
M  V30 1976 O 185.435 2.21227 -1.21716 0
M  V30 1977 C 186.748 -0.512256 -2.96305 0
M  V30 1978 C 188.296 -0.468328 -3.09476 0
M  V30 1979 C 188.771 -0.919731 -4.4867 0
M  V30 1980 N 190.262 -0.875656 -4.54848 0
M  V30 1981 C 190.997 -1.19637 -5.6078 0
M  V30 1982 N 190.493 -1.58745 -6.74368 0
M  V30 1983 N 192.286 -1.11776 -5.50874 0
M  V30 1984 H 184.437 -1.35395 -1.63652 0
M  V30 1985 H 186.7 -0.554818 -0.768688 0
M  V30 1986 H 186.406 -1.54935 -3.15734 0
M  V30 1987 H 186.28 0.089805 -3.77093 0
M  V30 1988 H 188.667 0.559671 -2.89744 0
M  V30 1989 H 188.748 -1.10616 -2.30646 0
M  V30 1990 H 188.392 -1.94595 -4.69143 0
M  V30 1991 H 188.322 -0.258927 -5.25963 0
M  V30 1992 H 190.813 -0.587843 -3.733 0
M  V30 1993 H 191.126 -1.81586 -7.51163 0
M  V30 1994 H 189.471 -1.6263 -6.75705 0
M  V30 1995 H 192.662 -0.811264 -4.61016 0
M  V30 1996 H 192.835 -1.37103 -6.3333 0
M  V30 1997 N 186.241 1.57166 -0.116904 0
M  V30 1998 C 187.489 1.94737 0.540533 0
M  V30 1999 C 187.81 1.00096 1.67349 0
M  V30 2000 O 187.08 0.0568854 1.95817 0
M  V30 2001 H 185.66 0.718981 0.202669 0
M  V30 2002 H 188.322 1.94017 -0.185353 0
M  V30 2003 H 187.418 2.97719 0.936483 0
M  V30 2004 N 187.719 -0.156864 1.56817 0
M  V30 2005 C 188.649 -1.19589 2.00551 0
M  V30 2006 C 189.63 -1.4536 0.883426 0
M  V30 2007 O 190.815 -1.56449 1.15054 0
M  V30 2008 C 187.945 -2.53143 2.37773 0
M  V30 2009 C 186.899 -2.41913 3.53075 0
M  V30 2010 C 186.225 -3.80088 3.76081 0
M  V30 2011 C 187.525 -1.91157 4.86062 0
M  V30 2012 H 189.219 -0.832293 2.87599 0
M  V30 2013 H 186.765 -0.398918 1.38364 0
M  V30 2014 H 188.718 -3.26047 2.66967 0
M  V30 2015 H 187.442 -2.91319 1.4765 0
M  V30 2016 H 186.101 -1.71462 3.24031 0
M  V30 2017 H 185.749 -4.15683 2.83225 0
M  V30 2018 H 185.449 -3.73439 4.53671 0
M  V30 2019 H 186.973 -4.54556 4.0769 0
M  V30 2020 H 188.387 -2.53846 5.14038 0
M  V30 2021 H 186.784 -1.95422 5.67389 0
M  V30 2022 H 187.854 -0.866673 4.77092 0
M  V30 2023 N 189.197 -1.51736 -0.425897 0
M  V30 2024 C 190.16 -1.73271 -1.50032 0
M  V30 2025 C 191.16 -0.602639 -1.4908 0
M  V30 2026 O 192.35 -0.87033 -1.509 0
M  V30 2027 C 189.482 -1.79969 -2.89523 0
M  V30 2028 H 190.675 -2.69172 -1.32237 0
M  V30 2029 H 188.228 -1.41899 -0.65532 0
M  V30 2030 H 188.963 -0.859241 -3.1271 0
M  V30 2031 H 188.748 -2.62109 -2.91619 0
M  V30 2032 H 190.238 -1.9843 -3.67444 0
M  V30 2033 N 190.675 0.682077 -1.42076 0
M  V30 2034 C 191.625 1.78823 -1.41444 0
M  V30 2035 C 192.609 1.58323 -0.28681 0
M  V30 2036 O 193.801 1.68926 -0.528498 0
M  V30 2037 C 190.93 3.17232 -1.3122 0
M  V30 2038 C 190.016 3.4338 -2.489 0
M  V30 2039 N 190.407 3.40152 -3.7434 0
M  V30 2040 C 188.705 3.73986 -2.43003 0
M  V30 2041 C 189.406 3.65581 -4.52466 0
M  V30 2042 N 188.382 3.85989 -3.8277 0
M  V30 2043 H 192.184 1.7471 -2.36334 0
M  V30 2044 H 189.698 0.882622 -1.36321 0
M  V30 2045 H 191.695 3.96489 -1.2885 0
M  V30 2046 H 190.355 3.22547 -0.373263 0
M  V30 2047 H 191.366 3.20221 -4.07037 0
M  V30 2048 H 188.043 3.86591 -1.57651 0
M  V30 2049 H 189.433 3.69108 -5.61435 0
M  V30 2050 N 192.153 1.28127 0.917671 0
M  V30 2051 C 193.401 1.14825 1.66312 0
M  V30 2052 C 193.722 -0.304379 1.9261 0
M  V30 2053 O 192.992 -1.21149 1.53947 0
M  V30 2054 H 191.572 0.421953 0.616413 0
M  V30 2055 H 194.234 1.608 1.10134 0
M  V30 2056 H 193.33 1.68489 2.62712 0
M  V30 2057 N 193.631 -1.12557 1.10312 0
M  V30 2058 C 194.878 -1.84038 0.844759 0
M  V30 2059 C 195.206 -1.84026 -0.629668 0
M  V30 2060 O 194.461 -1.28026 -1.48013 0
M  V30 2061 C 194.76 -3.31462 1.33669 0
M  V30 2062 C 194.426 -3.51647 2.82232 0
M  V30 2063 C 193.088 -3.56864 3.22802 0
M  V30 2064 C 195.44 -3.58867 3.77974 0
M  V30 2065 C 192.768 -3.66844 4.57867 0
M  V30 2066 C 195.12 -3.70375 5.1284 0
M  V30 2067 C 193.784 -3.73848 5.52986 0
M  V30 2068 H 193.054 -0.673444 0.309119 0
M  V30 2069 H 195.701 -1.32824 1.37949 0
M  V30 2070 H 194.006 -3.85091 0.721949 0
M  V30 2071 H 195.703 -3.85236 1.11329 0
M  V30 2072 H 192.293 -3.48249 2.49842 0
M  V30 2073 H 196.477 -3.54107 3.47738 0
M  V30 2074 H 191.733 -3.67804 4.88396 0
M  V30 2075 H 195.907 -3.74904 5.86873 0
M  V30 2076 H 193.534 -3.81333 6.57639 0
M  V30 2077 N 195.109 -0.891671 -1.2995 0
M  V30 2078 C 196.072 -0.36828 -2.26222 0
M  V30 2079 C 197.072 0.493014 -1.53056 0
M  V30 2080 O 198.262 0.299213 -1.71611 0
M  V30 2081 C 195.394 0.47442 -3.37583 0
M  V30 2082 H 196.587 -1.21844 -2.74033 0
M  V30 2083 H 194.14 -0.669107 -1.41254 0
M  V30 2084 H 194.875 1.34489 -2.95099 0
M  V30 2085 H 194.66 -0.142615 -3.91841 0
M  V30 2086 H 196.15 0.83218 -4.09224 0
M  V30 2087 N 196.587 1.43421 -0.653314 0
M  V30 2088 C 197.55 2.29182 0.0287951 0
M  V30 2089 C 198.55 1.42213 0.750465 0
M  V30 2090 O 199.74 1.63843 0.591701 0
M  V30 2091 C 196.872 3.24278 1.05151 0
M  V30 2092 H 198.065 2.90985 -0.725786 0
M  V30 2093 H 195.618 1.50702 -0.414545 0
M  V30 2094 H 196.353 2.6737 1.83532 0
M  V30 2095 H 196.138 3.88396 0.537687 0
M  V30 2096 H 197.628 3.88647 1.52786 0
M  V30 2097 N 198.065 0.39524 1.52563 0
M  V30 2098 C 199.311 -0.185318 2.01952 0
M  V30 2099 C 199.644 -1.45964 1.28095 0
M  V30 2100 O 198.919 -1.90689 0.38315 0
M  V30 2101 C 199.202 -0.447193 3.57312 0
M  V30 2102 C 199.055 0.842828 4.41833 0
M  V30 2103 C 200.374 -1.23529 4.22408 0
M  V30 2104 H 197.493 -0.0658788 0.73405 0
M  V30 2105 H 200.135 0.525975 1.82575 0
M  V30 2106 H 198.285 -1.05312 3.73954 0
M  V30 2107 H 199.957 1.4795 4.36931 0
M  V30 2108 H 198.2 1.45686 4.08605 0
M  V30 2109 H 198.871 0.614165 5.48573 0
M  V30 2110 H 201.347 -0.722445 4.0978 0
M  V30 2111 H 200.223 -1.38727 5.3108 0
M  V30 2112 H 200.484 -2.25213 3.80436 0
M  V30 2113 N 199.544 -1.57102 0.125237 0
M  V30 2114 C 200.769 -2.0019 -0.542101 0
M  V30 2115 C 201.194 -1.00449 -1.59034 0
M  V30 2116 O 200.552 0.0229423 -1.81285 0
M  V30 2117 C 200.6 -3.42129 -1.13929 0
M  V30 2118 O 199.704 -3.45307 -2.2547 0
M  V30 2119 H 199.045 -0.650171 -0.134812 0
M  V30 2120 H 201.575 -2.03461 0.215553 0
M  V30 2121 H 201.585 -3.80471 -1.4733 0
M  V30 2122 H 200.26 -4.14237 -0.371531 0
M  V30 2123 H 198.837 -3.1879 -1.93462 0
M  V30 2124 N 201.022 0.148545 -1.56898 0
M  V30 2125 C 202.27 0.859717 -1.82902 0
M  V30 2126 C 202.591 1.81775 -0.70588 0
M  V30 2127 O 201.861 1.93994 0.272586 0
M  V30 2128 H 200.441 0.320469 -0.674766 0
M  V30 2129 H 203.103 0.142918 -1.94375 0
M  V30 2130 H 202.199 1.4229 -2.77777 0
M  V30 2131 N 202.5 1.5196 0.417844 0
M  V30 2132 C 203.746 1.65836 1.16732 0
M  V30 2133 C 204.079 0.382881 1.90388 0
M  V30 2134 O 203.354 -0.618368 1.84408 0
M  V30 2135 C 203.637 2.87466 2.16876 0
M  V30 2136 C 203.49 4.25041 1.47174 0
M  V30 2137 C 204.809 3.04613 3.17646 0
M  V30 2138 H 201.928 0.603515 0.423011 0
M  V30 2139 H 204.57 1.84494 0.454105 0
M  V30 2140 H 202.72 2.71689 2.777 0
M  V30 2141 H 204.392 4.52527 0.895376 0
M  V30 2142 H 202.635 4.26843 0.773806 0
M  V30 2143 H 203.306 5.06176 2.20204 0
M  V30 2144 H 205.782 3.1923 2.66892 0
M  V30 2145 H 204.658 3.91247 3.8499 0
M  V30 2146 H 204.919 2.17541 3.84874 0
M  V30 2147 N 203.978 -0.674533 1.42435 0
M  V30 2148 C 204.908 -1.80009 1.48724 0
M  V30 2149 C 205.889 -1.6659 0.343793 0
M  V30 2150 O 207.074 -1.86007 0.558137 0
M  V30 2151 C 204.204 -3.18306 1.38919 0
M  V30 2152 C 203.158 -3.46461 2.51294 0
M  V30 2153 C 202.484 -4.84335 2.26547 0
M  V30 2154 C 203.784 -3.43328 3.93603 0
M  V30 2155 H 205.478 -1.75004 2.42928 0
M  V30 2156 H 203.024 -0.840533 1.16923 0
M  V30 2157 H 204.977 -3.9678 1.41927 0
M  V30 2158 H 203.701 -3.2399 0.412094 0
M  V30 2159 H 202.36 -2.70348 2.47604 0
M  V30 2160 H 202.008 -4.86669 1.2713 0
M  V30 2161 H 201.708 -5.04136 3.01861 0
M  V30 2162 H 203.232 -5.65094 2.31304 0
M  V30 2163 H 204.646 -4.11772 3.98894 0
M  V30 2164 H 203.043 -3.74664 4.68771 0
M  V30 2165 H 204.113 -2.41897 4.20255 0
M  V30 2166 N 205.456 -1.28612 -0.910864 0
M  V30 2167 C 206.366 -1.14643 -2.0468 0
M  V30 2168 C 207.382 -0.0723121 -1.7385 0
M  V30 2169 O 208.558 -0.282178 -1.99413 0
M  V30 2170 C 205.623 -0.812561 -3.37044 0
M  V30 2171 C 204.684 -1.96935 -3.81465 0
M  V30 2172 C 203.917 -1.65131 -5.07511 0
M  V30 2173 O 204.14 -0.567013 -5.67575 0
M  V30 2174 O 203.074 -2.49585 -5.47714 0
M  V30 2175 H 206.9 -2.1001 -2.19384 0
M  V30 2176 H 204.485 -1.07958 -1.03274 0
M  V30 2177 H 206.367 -0.640441 -4.16505 0
M  V30 2178 H 205.042 0.111426 -3.23508 0
M  V30 2179 H 203.949 -2.19664 -3.02818 0
M  V30 2180 H 205.282 -2.87414 -3.99567 0
M  V30 2181 N 206.934 1.1197 -1.10907 0
M  V30 2182 C 208.182 1.83225 -0.852819 0
M  V30 2183 C 208.503 1.84769 0.623341 0
M  V30 2184 O 207.773 1.3143 1.45269 0
M  V30 2185 H 206.353 0.67849 -0.312507 0
M  V30 2186 H 209.015 1.3556 -1.40033 0
M  V30 2187 H 208.111 2.87265 -1.22005 0
M  V30 2188 N 208.412 0.89855 1.29475 0
M  V30 2189 C 209.66 0.522847 1.9522 0
M  V30 2190 C 209.981 -0.93371 1.71192 0
M  V30 2191 O 209.251 -1.65823 1.04305 0
M  V30 2192 H 207.831 0.190366 0.722336 0
M  V30 2193 H 210.493 1.14459 1.5775 0
M  V30 2194 H 209.589 0.704476 3.04045 0
M  V30 2195 N 209.89 -1.43072 0.660911 0
M  V30 2196 C 211.138 -2.01323 0.177094 0
M  V30 2197 C 211.459 -1.5245 -1.2159 0
M  V30 2198 O 210.729 -0.740322 -1.81373 0
M  V30 2199 H 209.309 -0.744382 0.0624804 0
M  V30 2200 H 211.971 -1.75179 0.854305 0
M  V30 2201 H 211.067 -3.11649 0.167641 0
M  V30 2202 N 211.368 -0.403325 -1.52352 0
M  V30 2203 C 212.598 0.17376 -2.05868 0
M  V30 2204 C 213.006 1.39898 -1.27378 0
M  V30 2205 O 212.349 1.80939 -0.31729 0
M  V30 2206 C 212.411 0.594756 -3.54546 0
M  V30 2207 C 212.075 -0.518926 -4.54044 0
M  V30 2208 C 213.072 -1.3807 -5.01231 0
M  V30 2209 C 210.757 -0.689961 -4.97539 0
M  V30 2210 C 212.751 -2.39852 -5.90551 0
M  V30 2211 C 210.438 -1.71109 -5.86656 0
M  V30 2212 C 211.436 -2.56378 -6.33056 0
M  V30 2213 O 211.124 -3.56743 -7.20409 0
M  V30 2214 H 210.856 0.0264951 -0.675481 0
M  V30 2215 H 213.41 -0.571179 -1.97299 0
M  V30 2216 H 211.64 1.39189 -3.60782 0
M  V30 2217 H 213.329 1.0991 -3.90736 0
M  V30 2218 H 214.095 -1.25994 -4.68349 0
M  V30 2219 H 209.974 -0.035939 -4.60986 0
M  V30 2220 H 213.518 -3.06441 -6.26689 0
M  V30 2221 H 209.415 -1.83218 -6.18952 0
M  V30 2222 H 210.183 -3.52918 -7.38506 0
M  V30 2223 N 212.846 1.57033 -0.133567 0
M  V30 2224 C 214.257 1.82593 0.389464 0
M  V30 2225 C 214.608 1.05156 1.6564 0
M  V30 2226 O 213.733 0.292644 2.14412 0
M  V30 2227 C 214.328 3.31204 0.713377 0
M  V30 2228 C 212.887 3.57393 1.18098 0
M  V30 2229 C 212.034 2.76598 0.197126 0
M  V30 2230 H 214.985 1.54598 -0.358481 0
M  V30 2231 H 215.006 3.46627 1.56939 0
M  V30 2232 H 214.518 3.87537 -0.2089 0
M  V30 2233 H 212.619 3.06433 2.11966 0
M  V30 2234 H 212.732 4.65915 1.11624 0
M  V30 2235 H 211.096 2.45257 0.687088 0
M  V30 2236 H 211.879 3.35697 -0.718504 0
M  V30 2237 N 214.325 -0.140222 1.56975 0
M  V30 2238 C 215.602 -0.880769 1.74648 0
M  V30 2239 C 215.982 -1.99036 0.703404 0
M  V30 2240 O 215.33 -2.26821 -0.27648 0
M  V30 2241 C 215.54 -1.417 3.18939 0
M  V30 2242 C 216.888 -1.87774 3.80823 0
M  V30 2243 O 217.912 -1.51427 3.2241 0
M  V30 2244 O 216.771 -2.54827 4.83452 0
M  V30 2245 H 213.865 -0.416713 0.714338 0
M  V30 2246 H 216.411 -0.125618 1.69234 0
M  V30 2247 H 215.183 -0.619902 3.86359 0
M  V30 2248 H 214.806 -2.23546 3.28805 0
M  V30 2249 N 215.803 -1.52179 -0.40978 0
M  V30 2250 C 216.733 -1.78435 -1.5061 0
M  V30 2251 C 217.714 -0.635295 -1.57791 0
M  V30 2252 O 218.899 -0.880823 -1.73076 0
M  V30 2253 C 216.029 -1.93444 -2.88439 0
M  V30 2254 C 214.983 -3.09038 -2.96108 0
M  V30 2255 C 214.309 -3.09268 -4.36185 0
M  V30 2256 C 215.609 -4.48508 -2.67652 0
M  V30 2257 H 217.303 -2.70237 -1.28889 0
M  V30 2258 H 214.849 -1.30036 -0.618605 0
M  V30 2259 H 216.802 -2.10394 -3.65119 0
M  V30 2260 H 215.526 -0.983129 -3.11452 0
M  V30 2261 H 214.185 -2.91837 -2.21872 0
M  V30 2262 H 213.833 -2.11861 -4.56206 0
M  V30 2263 H 213.533 -3.86907 -4.42241 0
M  V30 2264 H 215.057 -3.28348 -5.14801 0
M  V30 2265 H 216.471 -4.65918 -3.34056 0
M  V30 2266 H 214.868 -5.28059 -2.85085 0
M  V30 2267 H 215.938 -4.56649 -1.63095 0
M  V30 2268 N 217.281 0.66697 -1.42791 0
M  V30 2269 C 218.697 0.981027 -1.25889 0
M  V30 2270 C 218.897 2.00793 -0.168695 0
M  V30 2271 O 217.953 2.48321 0.45747 0
M  V30 2272 C 219.266 1.47838 -2.61848 0
M  V30 2273 C 220.814 1.59575 -2.69267 0
M  V30 2274 C 221.289 2.12704 -4.05612 0
M  V30 2275 N 222.78 2.20026 -4.07606 0
M  V30 2276 C 223.515 2.62227 -5.09926 0
M  V30 2277 N 223.011 3.03824 -6.22626 0
M  V30 2278 N 224.804 2.62045 -4.97281 0
M  V30 2279 H 216.955 -0.0127891 -2.12396 0
M  V30 2280 H 219.218 0.0568258 -0.946295 0
M  V30 2281 H 218.924 0.798299 -3.4252 0
M  V30 2282 H 218.798 2.45579 -2.86305 0
M  V30 2283 H 221.185 2.26687 -1.88936 0
M  V30 2284 H 221.266 0.60302 -2.48591 0
M  V30 2285 H 220.91 1.46198 -4.86404 0
M  V30 2286 H 220.84 3.12782 -4.23645 0
M  V30 2287 H 223.331 1.90708 -3.2625 0
M  V30 2288 H 223.644 3.34734 -6.96544 0
M  V30 2289 H 221.989 3.01662 -6.26119 0
M  V30 2290 H 225.18 2.28916 -4.08308 0
M  V30 2291 H 225.353 2.94613 -5.77154 0
M  V30 2292 N 218.759 1.29093 0.90403 0
M  V30 2293 C 220.17 1.15186 1.46932 0
M  V30 2294 C 220.521 -0.254587 1.94541 0
M  V30 2295 O 219.646 -1.14972 1.83332 0
M  V30 2296 C 220.241 2.08492 2.67051 0
M  V30 2297 C 218.8 1.98621 3.19729 0
M  V30 2298 C 217.947 1.9967 1.92425 0
M  V30 2299 H 220.898 1.41641 0.715789 0
M  V30 2300 H 220.919 1.65461 3.42641 0
M  V30 2301 H 220.431 3.10847 2.3237 0
M  V30 2302 H 218.532 0.993389 3.59114 0
M  V30 2303 H 218.645 2.86068 3.8432 0
M  V30 2304 H 217.009 1.44208 2.09943 0
M  V30 2305 H 217.792 3.03721 1.60026 0
M  V30 2306 N 220.237 -1.11381 1.11499 0
M  V30 2307 C 221.484 -1.83132 0.864231 0
M  V30 2308 C 221.812 -1.84683 -0.610114 0
M  V30 2309 O 221.067 -1.29589 -1.46646 0
M  V30 2310 C 221.366 -3.30026 1.37177 0
M  V30 2311 C 221.032 -3.48634 2.85946 0
M  V30 2312 C 219.694 -3.53421 3.26569 0
M  V30 2313 C 222.046 -3.54837 3.81759 0
M  V30 2314 C 219.374 -3.61967 4.61733 0
M  V30 2315 C 221.726 -3.64915 5.1674 0
M  V30 2316 C 220.39 -3.67962 5.5692 0
M  V30 2317 H 219.66 -0.670127 0.316245 0
M  V30 2318 H 222.307 -1.31354 1.3935 0
M  V30 2319 H 220.612 -3.84304 0.762753 0
M  V30 2320 H 222.309 -3.84034 1.15408 0
M  V30 2321 H 218.899 -3.45579 2.53521 0
M  V30 2322 H 223.083 -3.50399 3.51474 0
M  V30 2323 H 218.339 -3.62603 4.92269 0
M  V30 2324 H 222.513 -3.68658 5.90816 0
M  V30 2325 H 220.14 -3.74336 6.61647 0
M  V30 2326 N 221.715 -0.905404 -1.28997 0
M  V30 2327 C 222.678 -0.392253 -2.25819 0
M  V30 2328 C 223.678 0.476753 -1.5357 0
M  V30 2329 O 224.868 0.280994 -1.71919 0
M  V30 2330 C 222 0.438588 -3.38067 0
M  V30 2331 H 223.193 -1.24743 -2.72725 0
M  V30 2332 H 220.746 -0.684051 -1.40536 0
M  V30 2333 H 221.481 1.31352 -2.96508 0
M  V30 2334 H 221.266 -0.184167 -3.91667 0
M  V30 2335 H 222.756 0.78873 -4.10084 0
M  V30 2336 N 223.193 1.4272 -0.668489 0
M  V30 2337 C 224.609 1.55992 -0.33745 0
M  V30 2338 C 224.809 1.64933 1.15756 0
M  V30 2339 O 223.865 1.61278 1.94282 0
M  V30 2340 C 225.178 2.81314 -1.06222 0
M  V30 2341 C 226.726 2.95078 -1.04394 0
M  V30 2342 C 227.201 4.23252 -1.74991 0
M  V30 2343 N 228.692 4.3015 -1.71829 0
M  V30 2344 C 229.427 5.28127 -2.23315 0
M  V30 2345 N 228.923 6.32293 -2.83156 0
M  V30 2346 N 230.716 5.19882 -2.13726 0
M  V30 2347 H 222.867 1.3516 -1.63846 0
M  V30 2348 H 225.13 0.650174 -0.689912 0
M  V30 2349 H 224.836 2.80823 -2.11734 0
M  V30 2350 H 224.71 3.72012 -0.62344 0
M  V30 2351 H 227.097 2.951 0.0028244 0
M  V30 2352 H 227.178 2.05627 -1.52155 0
M  V30 2353 H 226.822 4.2399 -2.79633 0
M  V30 2354 H 226.752 5.11626 -1.24685 0
M  V30 2355 H 229.243 3.55499 -1.28175 0
M  V30 2356 H 229.556 7.03398 -3.20079 0
M  V30 2357 H 227.901 6.32873 -2.87223 0
M  V30 2358 H 231.092 4.37423 -1.66669 0
M  V30 2359 H 231.265 5.96077 -2.54158 0
M  V30 2360 N 224.671 0.411399 1.52136 0
M  V30 2361 C 225.917 -0.163888 2.02137 0
M  V30 2362 C 226.25 -1.44597 1.29636 0
M  V30 2363 O 225.525 -1.90272 0.403353 0
M  V30 2364 C 225.808 -0.40927 3.57767 0
M  V30 2365 C 225.661 0.889643 4.40914 0
M  V30 2366 C 226.98 -1.19042 4.23694 0
M  V30 2367 H 224.099 -0.0580896 0.734707 0
M  V30 2368 H 226.741 0.54531 1.82007 0
M  V30 2369 H 224.891 -1.0134 3.7505 0
M  V30 2370 H 226.563 1.52575 4.35337 0
M  V30 2371 H 224.806 1.50011 4.07037 0
M  V30 2372 H 225.477 0.672314 5.4789 0
M  V30 2373 H 227.953 -0.678942 4.10524 0
M  V30 2374 H 226.829 -1.33086 5.32522 0
M  V30 2375 H 227.09 -2.21166 3.82803 0
M  V30 2376 N 226.149 -1.5696 0.141893 0
M  V30 2377 C 227.56 -1.82797 -0.379776 0
M  V30 2378 C 227.911 -1.06033 -1.6508 0
M  V30 2379 O 227.036 -0.304011 -2.14254 0
M  V30 2380 C 227.631 -3.31578 -0.695802 0
M  V30 2381 C 226.19 -3.58014 -1.16201 0
M  V30 2382 C 225.337 -2.76699 -0.182455 0
M  V30 2383 H 228.288 -1.54406 0.366675 0
M  V30 2384 H 228.309 -3.47454 -1.55099 0
M  V30 2385 H 227.821 -3.87421 0.229449 0
M  V30 2386 H 225.922 -3.07553 -2.10338 0
M  V30 2387 H 226.035 -4.66501 -1.09151 0
M  V30 2388 H 224.399 -2.45618 -0.674072 0
M  V30 2389 H 225.182 -3.35311 0.736297 0
M  V30 2390 N 227.627 0.131896 -1.57047 0
M  V30 2391 C 228.855 0.856461 -1.88341 0
M  V30 2392 C 229.27 1.74042 -0.731757 0
M  V30 2393 O 228.627 1.80051 0.297945 0
M  V30 2394 C 228.678 1.70064 -3.18999 0
M  V30 2395 O 228.399 0.852278 -4.2973 0
M  V30 2396 C 229.9 2.53148 -3.63911 0
M  V30 2397 H 227.12 0.246885 -0.62393 0
M  V30 2398 H 229.664 0.120152 -2.04147 0
M  V30 2399 H 227.819 2.38984 -3.04902 0
M  V30 2400 H 228.233 1.43329 -5.04537 0
M  V30 2401 H 229.707 3.07931 -4.58129 0
M  V30 2402 H 230.184 3.29901 -2.89935 0
M  V30 2403 H 230.79 1.89492 -3.80753 0
M  V30 2404 N 229.106 1.52395 0.401703 0
M  V30 2405 C 230.036 1.79231 1.49661 0
M  V30 2406 C 231.017 0.643654 1.57452 0
M  V30 2407 O 232.202 0.889989 1.72606 0
M  V30 2408 C 229.332 1.94971 2.87409 0
M  V30 2409 C 228.286 3.10604 2.94465 0
M  V30 2410 C 227.612 3.11577 4.34538 0
M  V30 2411 C 228.912 4.49921 2.6527 0
M  V30 2412 H 230.606 2.70917 1.27454 0
M  V30 2413 H 228.152 1.30362 0.6117 0
M  V30 2414 H 230.105 2.12328 3.63999 0
M  V30 2415 H 228.829 0.999632 3.10926 0
M  V30 2416 H 227.488 2.93009 2.20321 0
M  V30 2417 H 227.136 2.14277 4.55076 0
M  V30 2418 H 226.836 3.89247 4.40183 0
M  V30 2419 H 228.36 3.31073 5.13053 0
M  V30 2420 H 229.774 4.67683 3.31581 0
M  V30 2421 H 228.171 5.29564 2.82281 0
M  V30 2422 H 229.241 4.57507 1.60671 0
M  V30 2423 N 230.584 -0.659388 1.43143 0
M  V30 2424 C 231.83 -1.42145 1.44647 0
M  V30 2425 C 232.163 -1.9408 0.0681907 0
M  V30 2426 O 231.438 -1.71899 -0.910007 0
M  V30 2427 C 231.721 -2.60735 2.48373 0
M  V30 2428 C 231.574 -2.14332 3.95451 0
M  V30 2429 C 232.893 -3.62951 2.48906 0
M  V30 2430 H 230.012 -0.51552 0.526696 0
M  V30 2431 H 232.654 -0.748069 1.74654 0
M  V30 2432 H 230.804 -3.18184 2.22916 0
M  V30 2433 H 232.476 -1.61932 4.31944 0
M  V30 2434 H 230.719 -1.4576 4.08578 0
M  V30 2435 H 231.39 -2.99583 4.63631 0
M  V30 2436 H 233.866 -3.1525 2.71582 0
M  V30 2437 H 232.742 -4.43487 3.23435 0
M  V30 2438 H 233.003 -4.15126 1.52061 0
M  V30 2439 N 232.062 -1.29571 -0.897171 0
M  V30 2440 C 233.308 -1.17863 -1.65034 0
M  V30 2441 C 233.641 0.268729 -1.92332 0
M  V30 2442 O 232.916 1.19378 -1.53555 0
M  V30 2443 C 233.199 -1.995 -2.99786 0
M  V30 2444 C 233.052 -3.5239 -2.79538 0
M  V30 2445 C 234.371 -1.82335 -4.00552 0
M  V30 2446 H 231.49 -0.429528 -0.598895 0
M  V30 2447 H 234.132 -1.59072 -1.03905 0
M  V30 2448 H 232.282 -1.64485 -3.51962 0
M  V30 2449 H 233.954 -3.97401 -2.34244 0
M  V30 2450 H 232.197 -3.77187 -2.14273 0
M  V30 2451 H 232.868 -4.04787 -3.75302 0
M  V30 2452 H 235.344 -2.12924 -3.57495 0
M  V30 2453 H 234.22 -2.41801 -4.92771 0
M  V30 2454 H 234.481 -0.779209 -4.35179 0
M  V30 2455 N 233.54 1.10788 -1.12088 0
M  V30 2456 C 234.47 2.19083 -0.807755 0
M  V30 2457 C 235.451 1.6858 0.226859 0
M  V30 2458 O 236.636 1.93997 0.0888475 0
M  V30 2459 C 233.766 3.46344 -0.257576 0
M  V30 2460 C 232.72 4.101 -1.22483 0
M  V30 2461 C 232.046 5.32016 -0.535052 0
M  V30 2462 C 233.346 4.54236 -2.57811 0
M  V30 2463 H 235.04 2.45534 -1.71328 0
M  V30 2464 H 232.586 1.1801 -0.825205 0
M  V30 2465 H 234.539 4.21392 -0.0262679 0
M  V30 2466 H 233.263 3.19373 0.683278 0
M  V30 2467 H 231.922 3.37054 -1.44189 0
M  V30 2468 H 231.57 5.01319 0.410827 0
M  V30 2469 H 231.27 5.75625 -1.18024 0
M  V30 2470 H 232.794 6.09799 -0.312695 0
M  V30 2471 H 234.208 5.20575 -2.40155 0
M  V30 2472 H 232.605 5.08682 -3.18375 0
M  V30 2473 H 233.675 3.6734 -3.16528 0
M  V30 2474 N 235.018 0.912232 1.28515 0
M  V30 2475 C 235.951 0.343928 2.25593 0
M  V30 2476 C 236.929 -0.550994 1.5298 0
M  V30 2477 O 238.113 -0.494991 1.81885 0
M  V30 2478 C 235.24 -0.508525 3.34861 0
M  V30 2479 C 234.286 0.320808 4.25292 0
M  V30 2480 S 235.119 1.72658 5.06902 0
M  V30 2481 C 236.275 0.881394 6.19663 0
M  V30 2482 H 236.508 1.16674 2.73449 0
M  V30 2483 H 234.041 0.713384 1.36931 0
M  V30 2484 H 235.999 -0.994539 3.9827 0
M  V30 2485 H 234.66 -1.30571 2.85675 0
M  V30 2486 H 233.853 -0.330941 5.02912 0
M  V30 2487 H 233.455 0.74042 3.66598 0
M  V30 2488 H 235.747 0.110359 6.7741 0
M  V30 2489 H 236.69 1.63009 6.89082 0
M  V30 2490 H 237.098 0.430239 5.62858 0
M  V30 2491 N 236.496 -1.42363 0.676048 0
M  V30 2492 C 237.744 -2.01123 0.198437 0
M  V30 2493 C 238.065 -1.53731 -1.19966 0
M  V30 2494 O 237.335 -0.759518 -1.80577 0
M  V30 2495 H 235.915 -0.743678 0.0703721 0
M  V30 2496 H 238.577 -1.74263 0.872837 0
M  V30 2497 H 237.673 -3.11454 0.200686 0
M  V30 2498 N 237.974 -0.419461 -1.51915 0
M  V30 2499 C 239.22 0.153166 -2.02221 0
M  V30 2500 C 239.553 1.43907 -1.30401 0
M  V30 2501 O 238.828 1.90055 -0.413438 0
M  V30 2502 C 239.111 0.390291 -3.57979 0
M  V30 2503 C 238.964 -0.913014 -4.40436 0
M  V30 2504 C 240.283 1.16794 -4.2432 0
M  V30 2505 H 237.402 0.0541924 -0.735005 0
M  V30 2506 H 240.044 -0.554955 -1.81715 0
M  V30 2507 H 238.194 0.993491 -3.75582 0
M  V30 2508 H 239.866 -1.54882 -4.34522 0
M  V30 2509 H 238.109 -1.52168 -4.06236 0
M  V30 2510 H 238.78 -0.701361 -5.47526 0
M  V30 2511 H 241.256 0.657161 -4.10878 0
M  V30 2512 H 240.132 1.3026 -5.3322 0
M  V30 2513 H 240.393 2.19132 -3.83971 0
M  V30 2514 N 239.452 1.56882 -0.150215 0
M  V30 2515 C 240.7 1.9584 0.499105 0
M  V30 2516 C 241.021 1.03623 1.65188 0
M  V30 2517 O 240.291 0.0984084 1.95653 0
M  V30 2518 H 238.871 0.723119 0.187373 0
M  V30 2519 H 241.533 1.9358 -0.226466 0
M  V30 2520 H 240.629 2.99638 0.873122 0
M  V30 2521 N 240.93 -0.123565 1.57115 0
M  V30 2522 C 242.346 -0.476961 1.52306 0
M  V30 2523 C 242.546 -1.82109 0.86248 0
M  V30 2524 O 241.602 -2.48586 0.442884 0
M  V30 2525 C 242.915 -0.465661 2.97073 0
M  V30 2526 C 244.463 -0.549534 3.08138 0
M  V30 2527 C 244.938 -0.568669 4.54456 0
M  V30 2528 N 246.429 -0.630237 4.58892 0
M  V30 2529 C 247.164 -0.666415 5.69514 0
M  V30 2530 N 246.66 -0.660514 6.89644 0
M  V30 2531 N 248.453 -0.709077 5.5761 0
M  V30 2532 H 240.604 0.757198 1.98445 0
M  V30 2533 H 242.867 0.278808 0.906074 0
M  V30 2534 H 242.573 0.454232 3.48754 0
M  V30 2535 H 242.447 -1.29513 3.54269 0
M  V30 2536 H 244.834 -1.45985 2.56461 0
M  V30 2537 H 244.915 0.307532 2.53945 0
M  V30 2538 H 244.559 0.337581 5.06777 0
M  V30 2539 H 244.489 -1.44256 5.06456 0
M  V30 2540 H 246.98 -0.641146 3.72421 0
M  V30 2541 H 247.293 -0.690616 7.69708 0
M  V30 2542 H 245.638 -0.628012 6.92157 0
M  V30 2543 H 248.829 -0.711019 4.62668 0
M  V30 2544 H 249.002 -0.733804 6.43832 0
M  V30 2545 N 242.408 -1.52605 -0.393616 0
M  V30 2546 C 243.824 -1.41753 -0.733357 0
M  V30 2547 C 244.024 -0.534293 -1.94287 0
M  V30 2548 O 243.08 -0.0059787 -2.52499 0
M  V30 2549 C 244.393 -2.84531 -0.972772 0
M  V30 2550 C 245.941 -2.93978 -1.07453 0
M  V30 2551 C 246.416 -4.37756 -1.3466 0
M  V30 2552 N 247.907 -4.4106 -1.41492 0
M  V30 2553 C 248.642 -5.49387 -1.642 0
M  V30 2554 N 248.138 -6.67806 -1.8441 0
M  V30 2555 N 249.931 -5.36923 -1.66342 0
M  V30 2556 H 242.082 -2.08555 0.402328 0
M  V30 2557 H 244.345 -0.940654 0.117789 0
M  V30 2558 H 244.051 -3.51353 -0.156204 0
M  V30 2559 H 243.925 -3.26508 -1.88871 0
M  V30 2560 H 246.312 -2.27326 -1.88167 0
M  V30 2561 H 246.393 -2.55435 -0.136605 0
M  V30 2562 H 246.037 -5.04972 -0.544581 0
M  V30 2563 H 245.967 -4.73848 -2.2973 0
M  V30 2564 H 248.458 -3.55705 -1.27601 0
M  V30 2565 H 248.771 -7.46141 -2.01231 0
M  V30 2566 H 247.116 -6.70843 -1.81644 0
M  V30 2567 H 250.307 -4.43381 -1.50102 0
M  V30 2568 H 250.48 -6.21416 -1.837 0
M  V30 2569 N 243.887 0.651787 -1.4349 0
M  V30 2570 C 245.133 1.41376 -1.45398 0
M  V30 2571 C 245.466 1.94041 -0.0784823 0
M  V30 2572 O 244.741 1.72379 0.900878 0
M  V30 2573 C 245.024 2.59414 -2.49752 0
M  V30 2574 C 244.877 2.12232 -3.96582 0
M  V30 2575 C 246.196 3.61626 -2.50827 0
M  V30 2576 H 243.315 0.512719 -0.529422 0
M  V30 2577 H 245.957 0.738796 -1.75048 0
M  V30 2578 H 244.107 3.16997 -2.246 0
M  V30 2579 H 245.779 1.59639 -4.32797 0
M  V30 2580 H 244.022 1.43592 -4.09346 0
M  V30 2581 H 244.693 2.9712 -4.65214 0
M  V30 2582 H 247.169 3.13805 -2.7325 0
M  V30 2583 H 246.045 4.41766 -3.25783 0
M  V30 2584 H 246.306 4.14314 -1.5426 0
M  V30 2585 N 245.365 1.30045 0.890287 0
M  V30 2586 C 246.611 1.19747 1.64415 0
M  V30 2587 C 246.966 -0.246591 1.90813 0
M  V30 2588 O 246.259 -1.174 1.51419 0
M  V30 2589 C 246.453 1.95409 2.99249 0
M  V30 2590 C 246.282 3.47025 2.86013 0
M  V30 2591 C 245.052 4.1638 2.86279 0
M  V30 2592 C 247.25 4.42353 2.62351 0
M  V30 2593 N 245.232 5.54293 2.63879 0
M  V30 2594 C 246.603 5.67792 2.49022 0
M  V30 2595 C 248.658 4.32009 2.47533 0
M  V30 2596 C 247.361 6.8406 2.22383 0
M  V30 2597 C 249.387 5.48038 2.22279 0
M  V30 2598 C 248.749 6.72455 2.09722 0
M  V30 2599 H 244.848 0.493223 0.60684 0
M  V30 2600 H 247.432 1.6399 1.04954 0
M  V30 2601 H 245.603 1.53565 3.56752 0
M  V30 2602 H 247.335 1.77298 3.63796 0
M  V30 2603 H 244.09 3.68164 2.97913 0
M  V30 2604 H 244.514 6.26852 2.55706 0
M  V30 2605 H 249.156 3.36503 2.55979 0
M  V30 2606 H 246.874 7.79612 2.12675 0
M  V30 2607 H 250.46 5.41939 2.11643 0
M  V30 2608 H 249.34 7.60722 1.90453 0
M  V30 2609 N 246.843 -1.10192 1.12674 0
M  V30 2610 C 248.092 -1.81573 0.8783 0
M  V30 2611 C 248.405 -1.86249 -0.597557 0
M  V30 2612 O 249.611 -2.5386 -0.962681 0
M  V30 2613 C 248.067 -3.26149 1.52167 0
M  V30 2614 C 247.675 -3.29763 3.03249 0
M  V30 2615 C 249.419 -4.0234 1.3536 0
M  V30 2616 C 247.326 -4.68815 3.60508 0
M  V30 2617 H 246.256 -0.680394 0.324931 0
M  V30 2618 H 248.907 -1.23902 1.35353 0
M  V30 2619 H 247.289 -3.83832 0.974104 0
M  V30 2620 H 248.463 -2.8189 3.6452 0
M  V30 2621 H 246.778 -2.67059 3.19481 0
M  V30 2622 H 249.375 -5.05058 1.75559 0
M  V30 2623 H 249.718 -4.15235 0.297554 0
M  V30 2624 H 250.251 -3.51079 1.87052 0
M  V30 2625 H 246.99 -4.61121 4.65884 0
M  V30 2626 H 246.51 -5.17045 3.04014 0
M  V30 2627 H 248.189 -5.37785 3.59717 0
M  V30 2628 N 248.321 -0.919034 -1.28029 0
M  V30 2629 C 249.284 -0.416182 -2.2539 0
M  V30 2630 C 250.284 0.460438 -1.54067 0
M  V30 2631 O 251.474 0.262744 -1.72207 0
M  V30 2632 C 248.606 0.402707 -3.38513 0
M  V30 2633 H 249.799 -1.27629 -2.71387 0
M  V30 2634 H 247.352 -0.698919 -1.39803 0
M  V30 2635 H 248.087 1.282 -2.97885 0
M  V30 2636 H 247.872 -0.225698 -3.9145 0
M  V30 2637 H 249.362 0.745191 -4.10897 0
M  V30 2638 N 249.799 1.42003 -0.683588 0
M  V30 2639 C 250.746 2.30798 -0.0107309 0
M  V30 2640 C 251.716 1.4645 0.783688 0
M  V30 2641 O 252.901 1.75263 0.754156 0
M  V30 2642 C 250.041 3.3238 0.928306 0
M  V30 2643 C 249.154 4.31814 0.126776 0
M  V30 2644 C 248.289 5.20468 1.06236 0
M  V30 2645 C 247.328 6.11577 0.253035 0
M  V30 2646 N 246.465 6.92754 1.14179 0
M  V30 2647 H 251.305 2.8778 -0.773727 0
M  V30 2648 H 248.842 1.41745 -0.393283 0
M  V30 2649 H 250.8 3.89813 1.48666 0
M  V30 2650 H 249.43 2.76976 1.65783 0
M  V30 2651 H 248.482 3.76427 -0.54833 0
M  V30 2652 H 249.794 4.96276 -0.501192 0
M  V30 2653 H 248.948 5.82677 1.69035 0
M  V30 2654 H 247.687 4.56204 1.7242 0
M  V30 2655 H 246.692 5.48428 -0.388108 0
M  V30 2656 H 247.917 6.77892 -0.404839 0
M  V30 2657 H 245.863 6.3111 1.78987 0
M  V30 2658 H 245.78 7.53855 0.569111 0
M  V30 2659 H 247.048 7.59441 1.75697 0
M  V30 2660 N 251.277 0.427512 1.51691 0
M  V30 2661 C 252.187 -0.39527 2.31246 0
M  V30 2662 C 253.203 -1.03674 1.39742 0
M  V30 2663 O 254.379 -1.03425 1.72816 0
M  V30 2664 C 251.444 -1.48706 3.13189 0
M  V30 2665 C 250.505 -0.866743 4.20459 0
M  V30 2666 C 249.738 -1.90651 4.98486 0
M  V30 2667 O 249.961 -3.12733 4.77026 0
M  V30 2668 O 248.895 -1.5025 5.82845 0
M  V30 2669 H 252.721 0.253918 3.02637 0
M  V30 2670 H 250.306 0.190274 1.48183 0
M  V30 2671 H 252.188 -2.12047 3.64162 0
M  V30 2672 H 250.863 -2.12051 2.44573 0
M  V30 2673 H 249.77 -0.195544 3.73589 0
M  V30 2674 H 251.103 -0.276934 4.9142 0
M  V30 2675 N 252.755 -1.56801 0.158532 0
M  V30 2676 C 253.685 -2.20347 -0.772609 0
M  V30 2677 C 254.666 -1.15518 -1.24859 0
M  V30 2678 O 255.851 -1.43902 -1.30406 0
M  V30 2679 C 252.981 -2.83417 -2.00729 0
M  V30 2680 C 251.935 -3.94174 -1.66765 0
M  V30 2681 C 251.261 -4.44233 -2.97592 0
M  V30 2682 C 252.561 -5.14392 -0.905447 0
M  V30 2683 H 254.255 -2.98413 -0.242959 0
M  V30 2684 H 251.801 -1.43537 -0.115419 0
M  V30 2685 H 253.754 -3.26543 -2.6636 0
M  V30 2686 H 252.478 -2.02701 -2.56086 0
M  V30 2687 H 251.137 -3.51684 -1.03508 0
M  V30 2688 H 250.785 -3.60325 -3.50963 0
M  V30 2689 H 250.485 -5.18945 -2.75626 0
M  V30 2690 H 252.009 -4.90037 -3.64274 0
M  V30 2691 H 253.423 -5.5429 -1.46408 0
M  V30 2692 H 251.82 -5.9494 -0.7853 0
M  V30 2693 H 252.89 -4.84795 0.100668 0
M  V30 2694 N 254.233 0.115231 -1.57178 0
M  V30 2695 C 255.163 1.1423 -2.03651 0
M  V30 2696 C 256.144 1.42967 -0.921655 0
M  V30 2697 O 257.329 1.53343 -1.19162 0
M  V30 2698 C 254.459 2.4675 -2.44401 0
M  V30 2699 C 253.413 2.32467 -3.59365 0
M  V30 2700 C 252.739 3.69984 -3.86026 0
M  V30 2701 C 254.039 1.78203 -4.90959 0
M  V30 2702 H 255.733 0.755749 -2.89705 0
M  V30 2703 H 253.279 0.362093 -1.39373 0
M  V30 2704 H 255.232 3.18854 -2.75517 0
M  V30 2705 H 253.956 2.87302 -1.55322 0
M  V30 2706 H 252.615 1.62811 -3.28463 0
M  V30 2707 H 252.263 4.08028 -2.94147 0
M  V30 2708 H 251.963 3.61279 -4.63412 0
M  V30 2709 H 253.487 4.43587 -4.19599 0
M  V30 2710 H 254.901 2.40128 -5.20587 0
M  V30 2711 H 253.298 1.8031 -5.72371 0
M  V30 2712 H 254.368 0.739876 -4.79222 0
M  V30 2713 N 255.711 1.52812 0.385517 0
M  V30 2714 C 257.127 1.4214 0.725829 0
M  V30 2715 C 257.327 0.544589 1.94001 0
M  V30 2716 O 256.383 0.0193693 2.52493 0
M  V30 2717 C 257.696 2.85042 0.957668 0
M  V30 2718 C 259.244 2.94543 1.05892 0
M  V30 2719 C 259.719 4.38464 1.32337 0
M  V30 2720 N 261.21 4.41804 1.39151 0
M  V30 2721 C 261.945 5.5025 1.61285 0
M  V30 2722 N 261.441 6.68775 1.80866 0
M  V30 2723 N 263.234 5.37798 1.63492 0
M  V30 2724 H 255.385 2.08338 -0.413383 0
M  V30 2725 H 257.648 0.940016 -0.122775 0
M  V30 2726 H 257.354 3.51431 0.137568 0
M  V30 2727 H 257.228 3.27505 1.87137 0
M  V30 2728 H 259.615 2.28321 1.86959 0
M  V30 2729 H 259.696 2.55504 0.123057 0
M  V30 2730 H 259.34 5.05254 0.517793 0
M  V30 2731 H 259.27 4.75059 2.27214 0
M  V30 2732 H 261.761 3.56377 1.25713 0
M  V30 2733 H 262.074 7.47197 1.97271 0
M  V30 2734 H 260.419 6.71797 1.78083 0
M  V30 2735 H 263.61 4.44171 1.47749 0
M  V30 2736 H 263.783 6.22382 1.80402 0
M  V30 2737 N 257.189 -0.644168 1.43834 0
M  V30 2738 C 258.119 -1.76814 1.52509 0
M  V30 2739 C 259.1 -1.65823 0.379052 0
M  V30 2740 O 260.285 -1.84781 0.597466 0
M  V30 2741 C 257.415 -3.15288 1.4564 0
M  V30 2742 C 256.369 -3.41053 2.58586 0
M  V30 2743 C 255.695 -4.79421 2.36769 0
M  V30 2744 C 256.995 -3.34902 4.00797 0
M  V30 2745 H 258.689 -1.69812 2.46586 0
M  V30 2746 H 256.235 -0.815542 1.1868 0
M  V30 2747 H 258.188 -3.93681 1.50311 0
M  V30 2748 H 256.912 -3.23043 0.480725 0
M  V30 2749 H 255.571 -2.65035 2.53282 0
M  V30 2750 H 255.219 -4.83863 1.37424 0
M  V30 2751 H 254.919 -4.9762 3.12487 0
M  V30 2752 H 256.443 -5.6006 2.43238 0
M  V30 2753 H 257.857 -4.03218 4.07539 0
M  V30 2754 H 256.254 -3.64637 4.76613 0
M  V30 2755 H 257.324 -2.32928 4.25291 0
M  V30 2756 N 258.668 -1.30515 -0.883378 0
M  V30 2757 C 259.916 -1.19194 -1.63209 0
M  V30 2758 C 260.237 0.253205 -1.93349 0
M  V30 2759 O 259.507 1.17025 -1.57105 0
M  V30 2760 H 258.087 -0.438148 -0.605009 0
M  V30 2761 H 260.749 -1.63663 -1.05832 0
M  V30 2762 H 259.845 -1.75396 -2.58153 0
M  V30 2763 N 260.146 1.09593 -1.13257 0
M  V30 2764 C 261.562 1.33775 -0.870423 0
M  V30 2765 C 261.762 1.95327 0.494926 0
M  V30 2766 O 260.818 2.19853 1.2418 0
M  V30 2767 C 262.131 2.25106 -1.99369 0
M  V30 2768 C 263.679 2.3862 -2.02558 0
M  V30 2769 C 264.154 3.33285 -3.14142 0
M  V30 2770 N 265.645 3.40857 -3.13641 0
M  V30 2771 C 266.38 4.14101 -3.96621 0
M  V30 2772 N 265.876 4.90157 -4.8961 0
M  V30 2773 N 267.669 4.09808 -3.84726 0
M  V30 2774 H 259.82 0.680136 -2.01216 0
M  V30 2775 H 262.083 0.362133 -0.876107 0
M  V30 2776 H 261.789 1.87103 -2.97801 0
M  V30 2777 H 261.663 3.25481 -1.90635 0
M  V30 2778 H 264.05 2.75887 -1.0474 0
M  V30 2779 H 264.131 1.38028 -2.15364 0
M  V30 2780 H 263.775 2.96741 -4.12198 0
M  V30 2781 H 263.705 4.33776 -2.98574 0
M  V30 2782 H 266.196 2.86624 -2.46282 0
M  V30 2783 H 266.509 5.4347 -5.49418 0
M  V30 2784 H 264.854 4.89251 -4.93617 0
M  V30 2785 H 268.045 3.4949 -3.11408 0
M  V30 2786 H 268.218 4.66629 -4.49623 0
M  V30 2787 N 261.624 0.925811 1.2754 0
M  V30 2788 C 262.901 0.483726 1.89524 0
M  V30 2789 C 263.281 -1.03809 1.83812 0
M  V30 2790 O 262.629 -1.89143 1.28207 0
M  V30 2791 C 262.839 1.02769 3.33526 0
M  V30 2792 C 264.187 1.08703 4.10449 0
M  V30 2793 O 265.211 0.977175 3.42534 0
M  V30 2794 O 264.07 1.25599 5.31871 0
M  V30 2795 H 261.164 0.15529 0.812289 0
M  V30 2796 H 263.71 1.01738 1.35822 0
M  V30 2797 H 262.482 2.07155 3.31967 0
M  V30 2798 H 262.105 0.475567 3.94746 0
M  V30 2799 N 263.102 -1.41638 0.69111 0
M  V30 2800 C 264.513 -1.84346 0.295517 0
M  V30 2801 C 264.864 -1.57833 -1.16547 0
M  V30 2802 O 263.989 -1.04648 -1.89414 0
M  V30 2803 C 264.584 -3.34636 0.529575 0
M  V30 2804 C 263.143 -3.7593 0.187944 0
M  V30 2805 C 262.29 -2.65082 0.814052 0
M  V30 2806 H 265.241 -1.31253 0.892092 0
M  V30 2807 H 265.262 -3.79903 -0.213148 0
M  V30 2808 H 264.774 -3.53901 1.59297 0
M  V30 2809 H 262.875 -3.62268 -0.871367 0
M  V30 2810 H 262.988 -4.74808 0.63985 0
M  V30 2811 H 261.352 -2.53528 0.244017 0
M  V30 2812 H 262.135 -2.87167 1.88123 0
M  V30 2813 N 264.58 -0.43555 -1.51462 0
M  V30 2814 C 265.996 -0.0877501 -1.59359 0
M  V30 2815 C 266.196 1.4027 -1.4466 0
M  V30 2816 O 265.252 2.17243 -1.28693 0
M  V30 2817 C 266.565 -0.606264 -2.94525 0
M  V30 2818 C 268.113 -0.566548 -3.0783 0
M  V30 2819 C 268.588 -1.06201 -4.45517 0
M  V30 2820 N 270.079 -1.01992 -4.51832 0
M  V30 2821 C 270.814 -1.37417 -5.5669 0
M  V30 2822 N 270.31 -1.80119 -6.68976 0
M  V30 2823 N 272.103 -1.29245 -5.47039 0
M  V30 2824 H 264.254 -1.40533 -1.59261 0
M  V30 2825 H 266.517 -0.578992 -0.750648 0
M  V30 2826 H 266.223 -1.64901 -3.10645 0
M  V30 2827 H 266.097 -0.0302097 -3.77188 0
M  V30 2828 H 268.484 0.467208 -2.91378 0
M  V30 2829 H 268.565 -1.17898 -2.2701 0
M  V30 2830 H 268.209 -2.09422 -4.62715 0
M  V30 2831 H 268.139 -0.426127 -5.24873 0
M  V30 2832 H 270.63 -0.706308 -3.71241 0
M  V30 2833 H 270.943 -2.05392 -7.45006 0
M  V30 2834 H 269.288 -1.84044 -6.70189 0
M  V30 2835 H 272.479 -0.957522 -4.58202 0
M  V30 2836 H 272.652 -1.57182 -6.28648 0
M  V30 2837 N 266.058 1.56714 -0.166846 0
M  V30 2838 C 266.968 2.21331 0.777791 0
M  V30 2839 C 267.984 1.20358 1.25658 0
M  V30 2840 O 269.16 1.53005 1.30964 0
M  V30 2841 C 266.225 2.83787 1.99163 0
M  V30 2842 C 265.286 3.99947 1.56016 0
M  V30 2843 C 264.519 4.59415 2.71613 0
M  V30 2844 O 264.742 4.17769 3.88362 0
M  V30 2845 O 263.676 5.49359 2.45945 0
M  V30 2846 H 267.502 3.02605 0.257636 0
M  V30 2847 H 265.087 1.49275 0.0611393 0
M  V30 2848 H 266.969 3.23405 2.70161 0
M  V30 2849 H 265.644 2.05513 2.50092 0
M  V30 2850 H 264.551 3.65007 0.819809 0
M  V30 2851 H 265.884 4.79801 1.09782 0
M  V30 2852 N 267.536 -0.106894 1.57237 0
M  V30 2853 C 268.947 -0.662723 1.74542 0
M  V30 2854 C 269.298 -1.7971 0.787319 0
M  V30 2855 O 268.423 -2.16368 -0.0369636 0
M  V30 2856 C 269.018 -1.20896 3.16496 0
M  V30 2857 C 267.577 -1.71096 3.35266 0
M  V30 2858 C 266.724 -0.615642 2.7038 0
M  V30 2859 H 269.675 0.119106 1.58252 0
M  V30 2860 H 269.696 -2.07847 3.18716 0
M  V30 2861 H 269.208 -0.383122 3.86204 0
M  V30 2862 H 267.309 -2.56119 2.70618 0
M  V30 2863 H 267.422 -1.81208 4.43509 0
M  V30 2864 H 265.786 -1.05222 2.31949 0
M  V30 2865 H 266.569 0.199419 3.4272 0
M  V30 2866 N 269.014 -1.53014 -0.377408 0
M  V30 2867 C 270.242 -1.72515 -1.14219 0
M  V30 2868 C 270.657 -0.448735 -1.8339 0
M  V30 2869 O 270.014 0.577592 -1.73119 0
M  V30 2870 C 270.065 -2.8826 -2.18148 0
M  V30 2871 O 269.786 -4.10962 -1.51795 0
M  V30 2872 C 271.287 -3.19536 -3.07264 0
M  V30 2873 H 268.507 -0.577301 -0.342001 0
M  V30 2874 H 271.051 -1.99712 -0.439935 0
M  V30 2875 H 269.206 -2.63492 -2.83991 0
M  V30 2876 H 269.62 -4.75693 -2.20945 0
M  V30 2877 H 271.094 -4.03959 -3.76193 0
M  V30 2878 H 271.571 -2.34403 -3.71419 0
M  V30 2879 H 272.177 -3.46186 -2.47053 0
M  V30 2880 N 270.492 0.636531 -1.44174 0
M  V30 2881 C 271.422 1.76003 -1.53444 0
M  V30 2882 C 272.403 1.65619 -0.387841 0
M  V30 2883 O 273.588 1.84461 -0.607257 0
M  V30 2884 C 270.718 3.14511 -1.4731 0
M  V30 2885 C 269.672 3.39677 -2.60391 0
M  V30 2886 C 268.998 4.78159 -2.39308 0
M  V30 2887 C 270.298 3.32772 -4.02567 0
M  V30 2888 H 271.992 1.68501 -2.47483 0
M  V30 2889 H 269.538 0.809237 -1.19111 0
M  V30 2890 H 271.491 3.92878 -1.52397 0
M  V30 2891 H 270.215 3.22783 -0.49785 0
M  V30 2892 H 268.874 2.63688 -2.54684 0
M  V30 2893 H 268.522 4.83128 -1.39988 0
M  V30 2894 H 268.222 4.95956 -3.15122 0
M  V30 2895 H 269.746 5.58762 -2.46205 0
M  V30 2896 H 271.16 4.01051 -4.09672 0
M  V30 2897 H 269.557 3.62104 -4.7854 0
M  V30 2898 H 270.627 2.30669 -4.2652 0
M  V30 2899 N 271.97 1.30982 0.876444 0
M  V30 2900 C 273.217 1.20296 1.62896 0
M  V30 2901 C 273.545 -0.240395 1.93009 0
M  V30 2902 O 272.8 -1.18733 1.55567 0
M  V30 2903 C 273.099 1.98572 2.9716 0
M  V30 2904 C 272.765 3.48125 2.86566 0
M  V30 2905 C 271.427 3.88905 2.83383 0
M  V30 2906 C 273.779 4.43322 2.74071 0
M  V30 2907 C 271.107 5.2316 2.65556 0
M  V30 2908 C 273.459 5.77695 2.57781 0
M  V30 2909 C 272.123 6.17704 2.52979 0
M  V30 2910 H 271.393 0.440193 0.59608 0
M  V30 2911 H 274.04 1.62177 1.01837 0
M  V30 2912 H 272.345 1.49352 3.62217 0
M  V30 2913 H 274.042 1.8769 3.54364 0
M  V30 2914 H 270.632 3.15723 2.89856 0
M  V30 2915 H 274.816 4.12752 2.75589 0
M  V30 2916 H 270.072 5.53241 2.60259 0
M  V30 2917 H 274.246 6.51091 2.47089 0
M  V30 2918 H 271.873 7.21678 2.38924 0
M  V30 2919 N 273.449 -1.08991 1.13837 0
M  V30 2920 C 274.695 -1.81526 0.90422 0
M  V30 2921 C 275.028 -1.85706 -0.568066 0
M  V30 2922 O 274.303 -1.32855 -1.42056 0
M  V30 2923 C 274.586 -3.27447 1.49835 0
M  V30 2924 C 274.439 -3.31512 3.04006 0
M  V30 2925 C 275.758 -4.24256 1.17025 0
M  V30 2926 H 272.877 -0.659029 0.329923 0
M  V30 2927 H 275.519 -1.27644 1.40737 0
M  V30 2928 H 273.669 -3.73462 1.07044 0
M  V30 2929 H 275.341 -2.93867 3.55584 0
M  V30 2930 H 273.584 -2.70963 3.38765 0
M  V30 2931 H 274.255 -4.34329 3.40679 0
M  V30 2932 H 276.731 -3.86549 1.54009 0
M  V30 2933 H 275.607 -5.24684 1.61237 0
M  V30 2934 H 275.868 -4.42019 0.0846274 0
M  V30 2935 N 274.927 -0.932562 -1.27047 0
M  V30 2936 C 275.837 -0.441219 -2.30414 0
M  V30 2937 C 276.853 0.480525 -1.67233 0
M  V30 2938 O 278.029 0.362151 -1.98117 0
M  V30 2939 C 275.094 0.293651 -3.45454 0
M  V30 2940 C 274.155 -0.663601 -4.2414 0
M  V30 2941 C 273.388 0.0362932 -5.33688 0
M  V30 2942 O 273.611 1.2548 -5.56427 0
M  V30 2943 O 272.545 -0.638015 -5.98509 0
M  V30 2944 H 276.371 -1.29962 -2.74488 0
M  V30 2945 H 273.956 -0.6981 -1.32087 0
M  V30 2946 H 275.838 0.707951 -4.15411 0
M  V30 2947 H 274.513 1.12758 -3.03426 0
M  V30 2948 H 273.42 -1.12768 -3.56699 0
M  V30 2949 H 274.753 -1.46489 -4.69896 0
M  V30 2950 N 276.405 1.4127 -0.698611 0
M  V30 2951 C 277.821 1.55241 -0.370462 0
M  V30 2952 C 278.021 1.67351 1.12231 0
M  V30 2953 O 277.077 1.65363 1.90818 0
M  V30 2954 C 278.39 2.78997 -1.12165 0
M  V30 2955 C 279.938 2.92797 -1.1063 0
M  V30 2956 C 280.413 4.19445 -1.8393 0
M  V30 2957 N 281.904 4.26409 -1.80914 0
M  V30 2958 C 282.639 5.23271 -2.34467 0
M  V30 2959 N 282.135 6.26145 -2.96504 0
M  V30 2960 N 283.928 5.15232 -2.24706 0
M  V30 2961 H 276.079 1.31654 -1.66676 0
M  V30 2962 H 278.342 0.635393 -0.703548 0
M  V30 2963 H 278.048 2.76268 -2.17644 0
M  V30 2964 H 277.922 3.70606 -0.702209 0
M  V30 2965 H 280.309 2.95039 -0.0597713 0
M  V30 2966 H 280.39 2.02353 -1.56483 0
M  V30 2967 H 280.034 4.17964 -2.88563 0
M  V30 2968 H 279.964 5.08866 -1.35509 0
M  V30 2969 H 282.455 3.527 -1.35687 0
M  V30 2970 H 282.768 6.96451 -3.34927 0
M  V30 2971 H 281.113 6.26638 -3.00583 0
M  V30 2972 H 284.304 4.33789 -1.7591 0
M  V30 2973 H 284.477 5.90552 -2.66745 0
M  V30 2974 N 277.883 0.443576 1.51229 0
M  V30 2975 C 278.846 -0.353132 2.26463 0
M  V30 2976 C 279.846 -0.944338 1.3015 0
M  V30 2977 O 281.036 -0.817813 1.5381 0
M  V30 2978 C 278.168 -1.50023 3.06114 0
M  V30 2979 H 279.361 0.3063 2.98332 0
M  V30 2980 H 276.914 0.196902 1.55055 0
M  V30 2981 H 277.649 -2.19553 2.38677 0
M  V30 2982 H 277.434 -1.08241 3.76864 0
M  V30 2983 H 278.924 -2.06296 3.63087 0
M  V30 2984 N 279.361 -1.56624 0.175154 0
M  V30 2985 C 280.586 -2.01813 -0.478137 0
M  V30 2986 C 281.011 -1.05457 -1.55757 0
M  V30 2987 O 280.369 -0.0347439 -1.81267 0
M  V30 2988 C 280.417 -3.45581 -1.02987 0
M  V30 2989 O 279.521 -3.52305 -2.14371 0
M  V30 2990 H 278.862 -0.65413 -0.114059 0
M  V30 2991 H 281.392 -2.02673 0.280173 0
M  V30 2992 H 281.402 -3.84965 -1.35151 0
M  V30 2993 H 280.077 -4.1521 -0.239556 0
M  V30 2994 H 278.654 -3.24783 -1.83222 0
M  V30 2995 N 280.839 0.0985539 -1.57292 0
M  V30 2996 C 282.067 0.816318 -1.90115 0
M  V30 2997 C 282.482 1.72451 -0.768509 0
M  V30 2998 O 281.839 1.80643 0.259687 0
M  V30 2999 C 281.89 1.63259 -3.22535 0
M  V30 3000 O 281.611 0.760934 -4.31441 0
M  V30 3001 C 283.112 2.45372 -3.69199 0
M  V30 3002 H 280.332 0.233595 -0.629027 0
M  V30 3003 H 282.876 0.0768229 -2.04356 0
M  V30 3004 H 281.031 2.32463 -3.09903 0
M  V30 3005 H 281.445 1.32595 -5.07463 0
M  V30 3006 H 282.919 2.98144 -4.64558 0
M  V30 3007 H 283.396 3.23677 -2.96867 0
M  V30 3008 H 284.002 1.81373 -3.84687 0
M  V30 3009 N 282.317 1.53212 0.369288 0
M  V30 3010 C 283.728 1.60943 0.946276 0
M  V30 3011 C 284.079 0.47452 1.90375 0
M  V30 3012 O 283.204 -0.399597 2.12679 0
M  V30 3013 C 283.799 2.91715 1.72302 0
M  V30 3014 C 282.358 3.01792 2.24941 0
M  V30 3015 C 281.505 2.56211 1.06072 0
M  V30 3016 H 284.456 1.58007 0.148198 0
M  V30 3017 H 284.477 2.79309 2.58393 0
M  V30 3018 H 283.989 3.74295 1.0259 0
M  V30 3019 H 282.09 2.23791 2.97906 0
M  V30 3020 H 282.203 4.06803 2.53077 0
M  V30 3021 H 280.567 2.10998 1.4266 0
M  V30 3022 H 281.35 3.41206 0.378639 0
M  V30 3023 N 283.795 -0.628877 1.44509 0
M  V30 3024 C 284.742 -1.74074 1.51549 0
M  V30 3025 C 285.712 -1.62084 0.363021 0
M  V30 3026 O 286.897 -1.81975 0.573567 0
M  V30 3027 C 284.037 -3.12328 1.46784 0
M  V30 3028 C 283.15 -3.35277 2.72422 0
M  V30 3029 C 282.285 -4.63515 2.59475 0
M  V30 3030 C 281.324 -4.7965 3.80266 0
M  V30 3031 N 280.461 -5.99168 3.65981 0
M  V30 3032 H 285.301 -1.67392 2.46544 0
M  V30 3033 H 282.838 -0.816527 1.22357 0
M  V30 3034 H 284.796 -3.92286 1.42012 0
M  V30 3035 H 283.426 -3.18018 0.553544 0
M  V30 3036 H 282.478 -2.49242 2.87372 0
M  V30 3037 H 283.79 -3.43078 3.62076 0
M  V30 3038 H 282.944 -5.51638 2.52548 0
M  V30 3039 H 281.683 -4.58076 1.67384 0
M  V30 3040 H 280.688 -3.89957 3.87574 0
M  V30 3041 H 281.913 -4.86902 4.73395 0
M  V30 3042 H 279.859 -5.94814 2.76644 0
M  V30 3043 H 279.776 -6.08035 4.49254 0
M  V30 3044 H 281.044 -6.89846 3.6295 0
M  V30 3045 N 285.273 -1.31445 -0.869486 0
M  V30 3046 C 286.183 -1.21097 -2.0093 0
M  V30 3047 C 287.199 -0.127584 -1.73532 0
M  V30 3048 O 288.375 -0.345477 -1.98415 0
M  V30 3049 C 285.44 -0.919378 -3.34288 0
M  V30 3050 C 284.501 -2.08971 -3.75006 0
M  V30 3051 C 283.734 -1.81194 -5.02001 0
M  V30 3052 O 283.957 -0.747296 -5.65484 0
M  V30 3053 O 282.891 -2.66883 -5.39497 0
M  V30 3054 H 286.717 -2.16883 -2.12592 0
M  V30 3055 H 284.302 -1.11189 -0.997868 0
M  V30 3056 H 286.184 -0.772625 -4.14257 0
M  V30 3057 H 284.859 0.00844772 -3.23699 0
M  V30 3058 H 283.766 -2.29187 -2.95676 0
M  V30 3059 H 285.099 -2.9998 -3.90221 0
M  V30 3060 N 286.751 1.08385 -1.14413 0
M  V30 3061 C 288.167 1.32844 -0.884563 0
M  V30 3062 C 288.367 1.95841 0.474181 0
M  V30 3063 O 287.423 2.21158 1.21842 0
M  V30 3064 C 288.736 2.22978 -2.01745 0
M  V30 3065 C 290.284 2.36458 -2.05077 0
M  V30 3066 C 290.759 3.29934 -3.1766 0
M  V30 3067 N 292.25 3.37511 -3.17239 0
M  V30 3068 C 292.985 4.09871 -4.0099 0
M  V30 3069 N 292.481 4.84936 -4.94781 0
M  V30 3070 N 294.274 4.05704 -3.89051 0
M  V30 3071 H 286.425 0.658756 -2.01926 0
M  V30 3072 H 288.688 0.352821 -0.879899 0
M  V30 3073 H 288.394 1.83934 -2.99769 0
M  V30 3074 H 288.268 3.23441 -1.94077 0
M  V30 3075 H 290.655 2.7476 -1.0766 0
M  V30 3076 H 290.736 1.35736 -2.16816 0
M  V30 3077 H 290.38 2.92352 -4.15322 0
M  V30 3078 H 290.31 4.30584 -3.03158 0
M  V30 3079 H 292.801 2.83996 -2.49308 0
M  V30 3080 H 293.114 5.37612 -5.55151 0
M  V30 3081 H 291.459 4.83988 -4.98779 0
M  V30 3082 H 294.65 3.46167 -3.15097 0
M  V30 3083 H 294.823 4.61834 -4.54547 0
M  V30 3084 N 288.23 0.939286 1.26551 0
M  V30 3085 C 289.646 0.641304 1.46149 0
M  V30 3086 C 289.846 -0.805964 1.84679 0
M  V30 3087 O 288.902 -1.58278 1.96734 0
M  V30 3088 C 290.215 1.6011 2.54529 0
M  V30 3089 C 291.763 1.6106 2.68382 0
M  V30 3090 C 292.238 2.55765 3.79932 0
M  V30 3091 N 293.729 2.5404 3.87322 0
M  V30 3092 C 294.464 3.24004 4.73085 0
M  V30 3093 N 293.96 4.03388 5.63249 0
M  V30 3094 N 295.753 3.12965 4.66914 0
M  V30 3095 H 287.904 1.87478 0.998285 0
M  V30 3096 H 290.167 0.805559 0.499779 0
M  V30 3097 H 289.873 2.63412 2.33039 0
M  V30 3098 H 289.747 1.35171 3.52149 0
M  V30 3099 H 292.134 0.584835 2.89247 0
M  V30 3100 H 292.215 1.90053 1.71212 0
M  V30 3101 H 291.859 3.58458 3.5982 0
M  V30 3102 H 291.789 2.24063 4.76554 0
M  V30 3103 H 294.28 1.96396 3.22858 0
M  V30 3104 H 294.593 4.5373 6.25579 0
M  V30 3105 H 292.938 4.07489 5.63008 0
M  V30 3106 H 296.129 2.50432 3.95476 0
M  V30 3107 H 296.302 3.67759 5.33533 0
M  V30 3108 N 289.708 -1.40897 0.706093 0
M  V30 3109 C 290.954 -2.01352 0.241889 0
M  V30 3110 C 291.287 -1.55832 -1.15888 0
M  V30 3111 O 290.562 -0.774145 -1.7843 0
M  V30 3112 C 290.845 -3.58752 0.311311 0
M  V30 3113 C 290.698 -4.1437 1.74978 0
M  V30 3114 C 292.017 -4.38914 -0.322922 0
M  V30 3115 H 289.136 -0.731562 0.0893687 0
M  V30 3116 H 291.778 -1.67504 0.896802 0
M  V30 3117 H 289.928 -3.87718 -0.246302 0
M  V30 3118 H 291.6 -3.96239 2.36205 0
M  V30 3119 H 289.843 -3.69016 2.28057 0
M  V30 3120 H 290.514 -5.23532 1.74981 0
M  V30 3121 H 292.99 -4.15822 0.152089 0
M  V30 3122 H 291.866 -5.48358 -0.243855 0
M  V30 3123 H 292.127 -4.19176 -1.40513 0
M  V30 3124 N 291.186 -0.45159 -1.50991 0
M  V30 3125 C 292.136 0.370861 -2.24964 0
M  V30 3126 C 293.12 0.978074 -1.2776 0
M  V30 3127 O 294.312 0.893854 -1.52772 0
M  V30 3128 C 291.441 1.46344 -3.10545 0
M  V30 3129 C 290.527 0.864924 -4.15187 0
M  V30 3130 N 290.918 -0.00311354 -5.058 0
M  V30 3131 C 289.216 1.13099 -4.31422 0
M  V30 3132 C 289.917 -0.340772 -5.80701 0
M  V30 3133 N 288.893 0.279203 -5.42883 0
M  V30 3134 H 292.695 -0.298134 -2.92384 0
M  V30 3135 H 290.209 -0.264528 -1.60231 0
M  V30 3136 H 292.206 2.06565 -3.62128 0
M  V30 3137 H 290.866 2.13463 -2.4467 0
M  V30 3138 H 291.877 -0.37058 -5.16572 0
M  V30 3139 H 288.554 1.79861 -3.76771 0
M  V30 3140 H 289.944 -1.048 -6.63677 0
M  V30 3141 N 292.664 1.56529 -0.183458 0
M  V30 3142 C 293.627 2.17324 0.728223 0
M  V30 3143 C 294.627 1.12453 1.14939 0
M  V30 3144 O 295.817 1.37902 1.06437 0
M  V30 3145 C 292.949 2.76591 1.99274 0
M  V30 3146 H 294.142 2.99241 0.198772 0
M  V30 3147 H 291.695 1.5616 0.0661391 0
M  V30 3148 H 292.43 1.98441 2.56499 0
M  V30 3149 H 292.215 3.5335 1.69959 0
M  V30 3150 H 293.705 3.23311 2.6431 0
M  V30 3151 N 294.142 -0.090211 1.57342 0
M  V30 3152 C 295.558 -0.444547 1.53284 0
M  V30 3153 C 295.758 -1.80238 0.900914 0
M  V30 3154 O 294.814 -2.4759 0.495513 0
M  V30 3155 C 296.127 -0.402543 2.97993 0
M  V30 3156 C 297.675 -0.48405 3.09234 0
M  V30 3157 C 298.15 -0.472144 4.5556 0
M  V30 3158 N 299.641 -0.532757 4.60126 0
M  V30 3159 C 300.376 -0.545462 5.708 0
M  V30 3160 N 299.872 -0.514082 6.9089 0
M  V30 3161 N 301.665 -0.59064 5.58988 0
M  V30 3162 H 293.816 0.799121 1.96794 0
M  V30 3163 H 296.079 0.297965 0.899956 0
M  V30 3164 H 295.785 0.528106 3.47712 0
M  V30 3165 H 295.659 -1.21969 3.56936 0
M  V30 3166 H 298.046 -1.40512 2.595 0
M  V30 3167 H 298.127 0.361328 2.53235 0
M  V30 3168 H 297.771 0.445 5.05947 0
M  V30 3169 H 297.701 -1.3348 5.09402 0
M  V30 3170 H 300.192 -0.562006 3.73698 0
M  V30 3171 H 300.505 -0.527195 7.71 0
M  V30 3172 H 298.85 -0.481054 6.93333 0
M  V30 3173 H 302.041 -0.61272 4.64073 0
M  V30 3174 H 302.214 -0.597073 6.45243 0
M  V30 3175 N 295.62 -1.53406 -0.361157 0
M  V30 3176 C 296.55 -1.83136 -1.44857 0
M  V30 3177 C 297.531 -0.685174 -1.5569 0
M  V30 3178 O 298.716 -0.93544 -1.70186 0
M  V30 3179 C 295.846 -2.02522 -2.82138 0
M  V30 3180 C 294.8 -3.18302 -2.86126 0
M  V30 3181 C 294.126 -3.22989 -4.26125 0
M  V30 3182 C 295.426 -4.56796 -2.53248 0
M  V30 3183 H 297.12 -2.74201 -1.20226 0
M  V30 3184 H 294.666 -1.31938 -0.576922 0
M  V30 3185 H 296.619 -2.21904 -3.58241 0
M  V30 3186 H 295.343 -1.08172 -3.08166 0
M  V30 3187 H 294.002 -2.98747 -2.12475 0
M  V30 3188 H 293.65 -2.26267 -4.49235 0
M  V30 3189 H 293.35 -4.00781 -4.29708 0
M  V30 3190 H 294.874 -3.44559 -5.04094 0
M  V30 3191 H 296.288 -4.7631 -3.19064 0
M  V30 3192 H 294.685 -5.36862 -2.68141 0
M  V30 3193 H 295.755 -4.61606 -1.48484 0
M  V30 3194 N 297.098 0.621204 -1.44841 0
M  V30 3195 C 298.008 1.7612 -1.5498 0
M  V30 3196 C 299.024 1.68477 -0.434927 0
M  V30 3197 O 300.2 1.89076 -0.693693 0
M  V30 3198 C 297.265 3.1254 -1.50065 0
M  V30 3199 C 296.326 3.31741 -2.72482 0
M  V30 3200 C 295.559 4.61653 -2.67792 0
M  V30 3201 O 295.782 5.431 -1.74352 0
M  V30 3202 O 294.716 4.83271 -3.58794 0
M  V30 3203 H 298.542 1.70518 -2.51311 0
M  V30 3204 H 296.127 0.783643 -1.27198 0
M  V30 3205 H 298.009 3.93844 -1.49882 0
M  V30 3206 H 296.684 3.18663 -0.568806 0
M  V30 3207 H 295.591 2.50077 -2.7823 0
M  V30 3208 H 296.924 3.30486 -3.64746 0
M  V30 3209 N 298.576 1.31904 0.862503 0
M  V30 3210 C 299.486 1.22161 2.00285 0
M  V30 3211 C 300.502 0.136785 1.73462 0
M  V30 3212 O 301.678 0.355994 1.98229 0
M  V30 3213 C 298.743 0.937093 3.33796 0
M  V30 3214 C 297.804 2.10957 3.73893 0
M  V30 3215 C 297.037 1.83853 5.01033 0
M  V30 3216 O 297.26 0.777274 5.65079 0
M  V30 3217 O 296.194 2.69741 5.38074 0
M  V30 3218 H 300.02 2.18008 2.11439 0
M  V30 3219 H 297.605 1.11716 0.991957 0
M  V30 3220 H 299.487 0.794583 4.13841 0
M  V30 3221 H 298.162 0.00871894 3.23699 0
M  V30 3222 H 297.069 2.30752 2.94456 0
M  V30 3223 H 298.402 3.02046 3.88625 0
M  V30 3224 N 300.054 -1.07777 1.14986 0
M  V30 3225 C 301.3 -1.80557 0.923422 0
M  V30 3226 C 301.633 -1.86298 -0.548337 0
M  V30 3227 O 300.908 -1.34354 -1.40639 0
M  V30 3228 C 301.191 -3.25839 1.53299 0
M  V30 3229 C 301.044 -3.28269 3.07505 0
M  V30 3230 C 302.363 -4.22991 1.21518 0
M  V30 3231 H 299.482 -0.655493 0.336894 0
M  V30 3232 H 302.124 -1.26144 1.42083 0
M  V30 3233 H 300.274 -3.72306 1.10999 0
M  V30 3234 H 301.946 -2.90079 3.58681 0
M  V30 3235 H 300.189 -2.67355 3.4162 0
M  V30 3236 H 300.86 -4.30691 3.45266 0
M  V30 3237 H 303.336 -3.84894 1.581 0
M  V30 3238 H 302.212 -5.22945 1.66793 0
M  V30 3239 H 302.473 -4.41904 0.131505 0
M  V30 3240 N 301.532 -0.945985 -1.26051 0
M  V30 3241 C 302.495 -0.463897 -2.24456 0
M  V30 3242 C 303.495 0.427655 -1.55009 0
M  V30 3243 O 304.685 0.226157 -1.72726 0
M  V30 3244 C 301.817 0.330812 -3.39291 0
M  V30 3245 H 303.01 -1.33357 -2.68619 0
M  V30 3246 H 300.563 -0.728416 -1.38289 0
M  V30 3247 H 301.298 1.21852 -3.00537 0
M  V30 3248 H 301.083 -0.308679 -3.90883 0
M  V30 3249 H 302.573 0.657865 -4.12386 0
M  V30 3250 N 303.011 1.40521 -0.713556 0
M  V30 3251 C 303.921 2.34522 -0.0606667 0
M  V30 3252 C 304.937 1.57193 0.74607 0
M  V30 3253 O 306.113 1.89591 0.679493 0
M  V30 3254 C 303.178 3.36081 0.851491 0
M  V30 3255 C 302.239 4.29286 0.0349339 0
M  V30 3256 C 301.472 5.25994 0.903649 0
M  V30 3257 O 301.695 5.28616 2.14292 0
M  V30 3258 O 300.629 6.00918 0.343723 0
M  V30 3259 H 304.455 2.91968 -0.835972 0
M  V30 3260 H 302.04 1.41681 -0.47402 0
M  V30 3261 H 303.922 3.98369 1.37404 0
M  V30 3262 H 302.597 2.81052 1.60598 0
M  V30 3263 H 301.504 3.70289 -0.532633 0
M  V30 3264 H 302.837 4.87462 -0.681287 0
M  V30 3265 N 304.489 0.459591 1.5075 0
M  V30 3266 C 305.737 -0.0991532 2.01857 0
M  V30 3267 C 306.058 -1.41247 1.34441 0
M  V30 3268 O 305.328 -1.89775 0.486022 0
M  V30 3269 H 303.908 -0.039633 0.745948 0
M  V30 3270 H 306.57 0.607387 1.85194 0
M  V30 3271 H 305.666 -0.258998 3.11023 0
M  V30 3272 N 305.967 -1.56429 0.191757 0
M  V30 3273 C 306.914 -2.18936 -0.730454 0
M  V30 3274 C 307.884 -1.13557 -1.21219 0
M  V30 3275 O 309.069 -1.41794 -1.27668 0
M  V30 3276 C 306.209 -2.85013 -1.9458 0
M  V30 3277 C 305.322 -4.04909 -1.50574 0
M  V30 3278 C 304.457 -4.58853 -2.67634 0
M  V30 3279 C 303.496 -5.71114 -2.20217 0
M  V30 3280 N 302.633 -6.19478 -3.30442 0
M  V30 3281 H 307.473 -2.97389 -0.190664 0
M  V30 3282 H 305.01 -1.46869 -0.0823694 0
M  V30 3283 H 306.968 -3.21492 -2.65893 0
M  V30 3284 H 305.598 -2.09129 -2.45896 0
M  V30 3285 H 304.65 -3.74115 -0.688605 0
M  V30 3286 H 305.962 -4.86113 -1.11784 0
M  V30 3287 H 305.116 -4.97619 -3.47074 0
M  V30 3288 H 303.855 -3.76749 -3.09696 0
M  V30 3289 H 302.86 -5.31879 -1.3923 0
M  V30 3290 H 304.085 -6.55033 -1.79189 0
M  V30 3291 H 302.031 -5.40297 -3.72041 0
M  V30 3292 H 301.948 -6.95725 -2.9581 0
M  V30 3293 H 303.216 -6.62898 -4.10106 0
M  V30 3294 N 307.445 0.0818655 -1.57387 0
M  V30 3295 C 308.691 0.784074 -1.8703 0
M  V30 3296 C 309.024 1.77729 -0.782689 0
M  V30 3297 O 308.299 1.93384 0.208051 0
M  V30 3298 C 308.582 1.50105 -3.27323 0
M  V30 3299 C 308.435 0.524925 -4.46727 0
M  V30 3300 C 309.754 2.44843 -3.65705 0
M  V30 3301 H 306.873 0.283582 -0.680257 0
M  V30 3302 H 309.515 0.0474352 -1.89941 0
M  V30 3303 H 307.665 2.12897 -3.24972 0
M  V30 3304 H 309.337 -0.0970111 -4.61198 0
M  V30 3305 H 307.58 -0.160606 -4.33503 0
M  V30 3306 H 308.251 1.064 -5.41648 0
M  V30 3307 H 310.727 1.92135 -3.69085 0
M  V30 3308 H 309.603 2.92018 -4.64776 0
M  V30 3309 H 309.864 3.29197 -2.95096 0
M  V30 3310 N 308.923 1.53595 0.353017 0
M  V30 3311 C 309.833 1.83897 1.45667 0
M  V30 3312 C 310.849 0.728334 1.58023 0
M  V30 3313 O 312.025 1.01968 1.73679 0
M  V30 3314 C 309.09 2.03383 2.80778 0
M  V30 3315 C 308.151 3.27262 2.77845 0
M  V30 3316 C 307.384 3.45809 4.06512 0
M  V30 3317 O 307.607 2.68387 5.03314 0
M  V30 3318 O 306.541 4.39207 4.11559 0
M  V30 3319 H 310.367 2.77686 1.2298 0
M  V30 3320 H 307.952 1.39132 0.544308 0
M  V30 3321 H 309.834 2.17698 3.60812 0
M  V30 3322 H 308.509 1.12783 3.03417 0
M  V30 3323 H 307.416 3.18359 1.96465 0
M  V30 3324 H 308.749 4.17824 2.60161 0
M  V30 3325 N 310.401 -0.613514 1.45168 0
M  V30 3326 C 311.647 -1.37471 1.49096 0
M  V30 3327 C 311.98 -1.93765 0.129901 0
M  V30 3328 O 311.255 -1.74707 -0.854858 0
M  V30 3329 C 311.538 -2.52701 2.56542 0
M  V30 3330 C 311.391 -2.01643 4.0207 0
M  V30 3331 C 312.71 -3.54849 2.60327 0
M  V30 3332 H 309.829 -0.498502 0.54283 0
M  V30 3333 H 312.471 -0.692125 1.76945 0
M  V30 3334 H 310.621 -3.10931 2.32926 0
M  V30 3335 H 312.293 -1.48108 4.36877 0
M  V30 3336 H 310.536 -1.32688 4.13009 0
M  V30 3337 H 311.207 -2.84681 4.72928 0
M  V30 3338 H 313.683 -3.0645 2.81474 0
M  V30 3339 H 312.559 -4.32973 3.37381 0
M  V30 3340 H 312.82 -4.10079 1.6519 0
M  V30 3341 N 311.879 -1.3236 -0.855495 0
M  V30 3342 C 313.295 -1.11332 -1.14356 0
M  V30 3343 C 313.495 0.106751 -2.01217 0
M  V30 3344 O 312.551 0.791891 -2.39761 0
M  V30 3345 C 313.864 -2.39237 -1.82171 0
M  V30 3346 C 315.412 -2.44986 -1.9481 0
M  V30 3347 C 315.887 -3.7281 -2.66039 0
M  V30 3348 N 317.378 -3.73787 -2.73565 0
M  V30 3349 C 318.113 -4.69394 -3.29327 0
M  V30 3350 N 317.609 -5.75367 -3.85907 0
M  V30 3351 N 319.402 -4.56893 -3.27423 0
M  V30 3352 H 311.553 -2.10586 -0.277027 0
M  V30 3353 H 313.816 -0.929701 -0.185364 0
M  V30 3354 H 313.522 -3.28431 -1.25802 0
M  V30 3355 H 313.396 -2.50134 -2.82335 0
M  V30 3356 H 315.783 -1.56252 -2.50338 0
M  V30 3357 H 315.864 -2.38043 -0.936448 0
M  V30 3358 H 315.508 -4.61918 -2.11174 0
M  V30 3359 H 315.438 -3.77024 -3.67642 0
M  V30 3360 H 317.929 -2.97189 -2.33424 0
M  V30 3361 H 318.242 -6.44378 -4.26611 0
M  V30 3362 H 316.587 -5.79123 -3.84242 0
M  V30 3363 H 319.778 -3.73269 -2.82467 0
M  V30 3364 H 319.951 -5.31577 -3.7058 0
M  V30 3365 N 313.357 1.07166 -1.15556 0
M  V30 3366 C 314.768 1.6127 -0.940693 0
M  V30 3367 C 315.119 1.89251 0.517551 0
M  V30 3368 O 314.244 1.65937 1.38903 0
M  V30 3369 C 314.839 2.92993 -1.7012 0
M  V30 3370 C 313.398 3.43832 -1.53156 0
M  V30 3371 C 312.545 2.1786 -1.71558 0
M  V30 3372 H 315.496 0.90229 -1.30554 0
M  V30 3373 H 315.517 3.62007 -1.17181 0
M  V30 3374 H 315.029 2.72596 -2.76248 0
M  V30 3375 H 313.13 3.69307 -0.494294 0
M  V30 3376 H 313.243 4.19747 -2.30975 0
M  V30 3377 H 311.607 2.2765 -1.14225 0
M  V30 3378 H 312.39 1.99956 -2.79056 0
M  V30 3379 N 314.835 0.952656 1.25548 0
M  V30 3380 C 316.246 0.647392 1.75116 0
M  V30 3381 C 316.597 -0.837274 1.77438 0
M  V30 3382 O 315.722 -1.65525 1.39393 0
M  V30 3383 C 316.317 1.16845 3.18014 0
M  V30 3384 C 314.876 0.913382 3.6515 0
M  V30 3385 C 314.023 1.31265 2.44264 0
M  V30 3386 H 316.974 1.12968 1.11462 0
M  V30 3387 H 316.995 0.527606 3.76824 0
M  V30 3388 H 316.507 2.24902 3.16292 0
M  V30 3389 H 314.608 -0.152316 3.72289 0
M  V30 3390 H 314.721 1.54845 4.53387 0
M  V30 3391 H 313.085 0.731028 2.43984 0
M  V30 3392 H 313.868 2.40239 2.45234 0
M  V30 3393 N 316.313 -1.40141 0.720998 0
M  V30 3394 C 317.276 -2.29058 0.0805834 0
M  V30 3395 C 318.276 -1.45632 -0.681758 0
M  V30 3396 O 319.466 -1.6648 -0.512856 0
M  V30 3397 C 316.598 -3.28925 -0.895593 0
M  V30 3398 H 317.791 -2.87191 0.863793 0
M  V30 3399 H 315.344 -1.48553 0.485975 0
M  V30 3400 H 316.079 -2.75822 -1.70566 0
M  V30 3401 H 315.864 -3.90519 -0.351766 0
M  V30 3402 H 317.354 -3.95494 -1.34069 0
M  V30 3403 N 317.792 -0.46758 -1.50504 0
M  V30 3404 C 318.722 0.318381 -2.31319 0
M  V30 3405 C 319.703 0.993564 -1.38066 0
M  V30 3406 O 320.888 0.991411 -1.66987 0
M  V30 3407 C 318.018 1.40275 -3.17711 0
M  V30 3408 C 316.972 0.849373 -4.19487 0
M  V30 3409 C 316.298 2.03177 -4.94594 0
M  V30 3410 C 317.598 -0.136942 -5.2212 0
M  V30 3411 H 319.292 -0.356106 -2.97275 0
M  V30 3412 H 316.838 -0.172703 -1.42961 0
M  V30 3413 H 318.791 1.96004 -3.73042 0
M  V30 3414 H 317.515 2.10596 -2.49634 0
M  V30 3415 H 316.174 0.314076 -3.65252 0
M  V30 3416 H 315.822 2.72187 -4.22993 0
M  V30 3417 H 315.522 1.66774 -5.63436 0
M  V30 3418 H 317.046 2.59403 -5.52759 0
M  V30 3419 H 318.46 0.331056 -5.72343 0
M  V30 3420 H 316.857 -0.41507 -5.98663 0
M  V30 3421 H 317.927 -1.06398 -4.73083 0
M  V30 3422 N 319.27 1.56325 -0.20005 0
M  V30 3423 C 320.516 1.98772 0.431408 0
M  V30 3424 C 320.871 1.0849 1.58895 0
M  V30 3425 O 320.164 0.130331 1.91156 0
M  V30 3426 C 320.358 3.4495 0.935103 0
M  V30 3427 C 320.187 4.49371 -0.172096 0
M  V30 3428 C 318.957 5.0134 -0.631377 0
M  V30 3429 C 321.155 5.04822 -0.982806 0
M  V30 3430 N 319.137 5.89433 -1.71588 0
M  V30 3431 C 320.508 5.89632 -1.91661 0
M  V30 3432 C 322.563 4.87242 -1.02467 0
M  V30 3433 C 321.266 6.58741 -2.88881 0
M  V30 3434 C 323.292 5.57094 -1.98494 0
M  V30 3435 C 322.654 6.41655 -2.90617 0
M  V30 3436 H 318.753 0.771922 0.125144 0
M  V30 3437 H 321.337 1.92266 -0.306883 0
M  V30 3438 H 319.508 3.51946 1.64282 0
M  V30 3439 H 321.24 3.74354 1.53758 0
M  V30 3440 H 317.995 4.73071 -0.223827 0
M  V30 3441 H 318.419 6.38182 -2.25948 0
M  V30 3442 H 323.061 4.21538 -0.326408 0
M  V30 3443 H 320.779 7.23641 -3.5968 0
M  V30 3444 H 324.365 5.45466 -2.0238 0
M  V30 3445 H 323.245 6.94755 -3.63711 0
M  V30 3446 N 320.748 -0.0735177 1.57428 0
M  V30 3447 C 321.997 -0.771809 1.86349 0
M  V30 3448 C 322.31 -1.78828 0.792452 0
M  V30 3449 O 323.516 -2.53602 0.96945 0
M  V30 3450 C 321.972 -1.42358 3.30548 0
M  V30 3451 C 321.58 -0.445761 4.45777 0
M  V30 3452 C 323.324 -2.10434 3.6867 0
M  V30 3453 C 321.231 -1.10335 5.81016 0
M  V30 3454 H 320.161 -0.291999 0.695164 0
M  V30 3455 H 322.812 -0.0250749 1.83483 0
M  V30 3456 H 321.194 -2.21852 3.28021 0
M  V30 3457 H 322.368 0.319239 4.59693 0
M  V30 3458 H 320.683 0.130457 4.16196 0
M  V30 3459 H 323.28 -2.60405 4.67004 0
M  V30 3460 H 323.623 -2.90298 2.98383 0
M  V30 3461 H 324.156 -1.37773 3.7318 0
M  V30 3462 H 320.895 -0.345061 6.54591 0
M  V30 3463 H 320.415 -1.83925 5.70904 0
M  V30 3464 H 322.094 -1.62367 6.26295 0
M  V30 3465 N 322.226 -1.5378 -0.344866 0
M  V30 3466 C 323.156 -1.84662 -1.42906 0
M  V30 3467 C 324.137 -0.701648 -1.54955 0
M  V30 3468 O 325.322 -0.953438 -1.69184 0
M  V30 3469 C 322.452 -2.05503 -2.79974 0
M  V30 3470 C 321.406 -3.21318 -2.82734 0
M  V30 3471 C 320.732 -3.2749 -4.22675 0
M  V30 3472 C 322.032 -4.59456 -2.48389 0
M  V30 3473 H 323.726 -2.75461 -1.17311 0
M  V30 3474 H 321.272 -1.32542 -0.562896 0
M  V30 3475 H 323.225 -2.25691 -3.55867 0
M  V30 3476 H 321.949 -1.11434 -3.07002 0
M  V30 3477 H 320.608 -3.00984 -2.09294 0
M  V30 3478 H 320.256 -2.31019 -4.4681 0
M  V30 3479 H 319.956 -4.05316 -4.25433 0
M  V30 3480 H 321.48 -3.49887 -5.00412 0
M  V30 3481 H 322.894 -4.79667 -3.13995 0
M  V30 3482 H 321.291 -5.39675 -2.62432 0
M  V30 3483 H 322.361 -4.63155 -1.4358 0
M  V30 3484 N 323.704 0.605807 -1.45491 0
M  V30 3485 C 324.952 1.36207 -1.49305 0
M  V30 3486 C 325.273 1.94519 -0.136863 0
M  V30 3487 O 324.543 1.77261 0.833983 0
M  V30 3488 H 323.123 0.50565 -0.549843 0
M  V30 3489 H 325.785 0.711239 -1.81459 0
M  V30 3490 H 324.881 2.18058 -2.23287 0
M  V30 3491 N 325.182 1.32811 0.848464 0
M  V30 3492 C 326.092 1.24278 1.98978 0
M  V30 3493 C 327.108 0.155176 1.73307 0
M  V30 3494 O 328.284 0.376999 1.9784 0
M  V30 3495 C 325.349 0.972444 3.32783 0
M  V30 3496 C 324.41 2.14911 3.71634 0
M  V30 3497 C 323.643 1.89157 4.99054 0
M  V30 3498 O 323.866 0.837165 5.64223 0
M  V30 3499 O 322.8 2.75433 5.35183 0
M  V30 3500 H 326.626 2.20238 2.09115 0
M  V30 3501 H 324.211 1.12762 0.980052 0
M  V30 3502 H 326.093 0.838432 4.12975 0
M  V30 3503 H 324.768 0.043051 3.23671 0
M  V30 3504 H 323.675 2.33862 2.91992 0
M  V30 3505 H 325.008 3.06151 3.85399 0
M  V30 3506 N 326.66 -1.06551 1.16123 0
M  V30 3507 C 327.906 -1.79567 0.94252 0
M  V30 3508 C 328.239 -1.86869 -0.528547 0
M  V30 3509 O 327.514 -1.35838 -1.39206 0
M  V30 3510 C 327.797 -3.24195 1.56747 0
M  V30 3511 C 327.65 -3.24989 3.10969 0
M  V30 3512 C 328.969 -4.21678 1.25998 0
M  V30 3513 H 326.088 -0.651883 0.343828 0
M  V30 3514 H 328.73 -1.2463 1.43413 0
M  V30 3515 H 326.88 -3.71107 1.14942 0
M  V30 3516 H 328.552 -2.86258 3.61737 0
M  V30 3517 H 326.795 -2.63716 3.44436 0
M  V30 3518 H 327.466 -4.27005 3.49815 0
M  V30 3519 H 329.942 -3.83196 1.62174 0
M  V30 3520 H 328.818 -5.21146 1.7233 0
M  V30 3521 H 329.079 -4.4174 0.178367 0
M  V30 3522 N 328.138 -0.959301 -1.25041 0
M  V30 3523 C 329.384 -0.617525 -1.9317 0
M  V30 3524 C 329.717 0.843981 -1.74902 0
M  V30 3525 O 328.992 1.60615 -1.09696 0
M  V30 3526 C 329.275 -0.982736 -3.46431 0
M  V30 3527 C 329.128 -2.50032 -3.73904 0
M  V30 3528 C 330.447 -0.511176 -4.37121 0
M  V30 3529 H 327.566 -0.22582 -0.701552 0
M  V30 3530 H 330.208 -1.19679 -1.4757 0
M  V30 3531 H 328.358 -0.489806 -3.854 0
M  V30 3532 H 330.03 -3.06737 -3.44544 0
M  V30 3533 H 328.273 -2.93598 -3.19348 0
M  V30 3534 H 328.944 -2.70635 -4.81103 0
M  V30 3535 H 331.42 -0.934075 -4.0548 0
M  V30 3536 H 330.296 -0.795361 -5.43107 0
M  V30 3537 H 330.557 0.588834 -4.38161 0
M  V30 3538 N 329.616 1.39756 -0.72842 0
M  V30 3539 C 331.032 1.5442 -0.403308 0
M  V30 3540 C 331.232 1.69694 1.08656 0
M  V30 3541 O 330.288 1.69373 1.87267 0
M  V30 3542 C 331.601 2.76555 -1.18058 0
M  V30 3543 C 333.149 2.90384 -1.16815 0
M  V30 3544 C 333.624 4.15449 -1.92785 0
M  V30 3545 N 335.115 4.22475 -1.89918 0
M  V30 3546 C 335.85 5.1818 -2.45514 0
M  V30 3547 N 335.346 6.19714 -3.09719 0
M  V30 3548 N 337.139 5.1035 -2.35584 0
M  V30 3549 H 329.29 1.28089 -1.69431 0
M  V30 3550 H 331.553 0.620327 -0.716867 0
M  V30 3551 H 331.259 2.7159 -2.23455 0
M  V30 3552 H 331.133 3.69033 -0.780662 0
M  V30 3553 H 333.52 2.94846 -0.12234 0
M  V30 3554 H 333.601 1.98988 -1.6074 0
M  V30 3555 H 333.245 4.11749 -2.97364 0
M  V30 3556 H 333.175 5.05877 -1.46272 0
M  V30 3557 H 335.666 3.49743 -1.43138 0
M  V30 3558 H 335.979 6.8919 -3.49625 0
M  V30 3559 H 334.324 6.20121 -3.13807 0
M  V30 3560 H 337.515 4.2996 -1.85072 0
M  V30 3561 H 337.688 5.84761 -2.79211 0
M  V30 3562 N 331.094 0.475555 1.50254 0
M  V30 3563 C 332.34 -0.0780073 2.0265 0
M  V30 3564 C 332.673 -1.38968 1.35652 0
M  V30 3565 O 331.948 -1.8839 0.483691 0
M  V30 3566 C 332.231 -0.257161 3.59181 0
M  V30 3567 C 332.084 1.07585 4.36744 0
M  V30 3568 C 333.403 -1.00965 4.28362 0
M  V30 3569 H 330.522 -0.0268758 0.73651 0
M  V30 3570 H 333.164 0.622015 1.7953 0
M  V30 3571 H 331.314 -0.853412 3.79011 0
M  V30 3572 H 332.986 1.70902 4.28474 0
M  V30 3573 H 331.229 1.6714 4.00308 0
M  V30 3574 H 331.9 0.904088 5.44546 0
M  V30 3575 H 334.376 -0.504214 4.13034 0
M  V30 3576 H 333.252 -1.10381 5.37687 0
M  V30 3577 H 333.513 -2.04731 3.91839 0
M  V30 3578 N 332.573 -1.56217 0.208337 0
M  V30 3579 C 333.82 -1.97949 -0.42692 0
M  V30 3580 C 334.148 -1.09562 -1.60706 0
M  V30 3581 O 333.403 -0.137616 -1.95216 0
M  V30 3582 C 333.702 -3.45441 -0.916797 0
M  V30 3583 C 333.368 -4.50646 0.151391 0
M  V30 3584 C 332.03 -4.79139 0.444867 0
M  V30 3585 C 334.382 -5.13811 0.874492 0
M  V30 3586 C 331.71 -5.68084 1.46619 0
M  V30 3587 C 334.062 -6.03861 1.88506 0
M  V30 3588 C 332.726 -6.30704 2.18559 0
M  V30 3589 H 331.996 -0.724345 -0.156221 0
M  V30 3590 H 334.643 -1.89006 0.308084 0
M  V30 3591 H 332.948 -3.51521 -1.73032 0
M  V30 3592 H 334.645 -3.75094 -1.41794 0
M  V30 3593 H 331.235 -4.28511 -0.0875068 0
M  V30 3594 H 335.419 -4.91879 0.660996 0
M  V30 3595 H 330.675 -5.87151 1.7048 0
M  V30 3596 H 334.849 -6.51861 2.45051 0
M  V30 3597 H 332.476 -6.99424 2.97843 0
M  V30 3598 N 334.051 0.0651679 -1.57465 0
M  V30 3599 C 335.014 1.06117 -2.03155 0
M  V30 3600 C 336.014 1.31204 -0.929632 0
M  V30 3601 O 337.204 1.26813 -1.19432 0
M  V30 3602 C 334.336 2.4032 -2.41783 0
M  V30 3603 H 335.529 0.667231 -2.92383 0
M  V30 3604 H 333.082 0.311075 -1.53173 0
M  V30 3605 H 333.817 2.84532 -1.55601 0
M  V30 3606 H 333.602 2.23451 -3.22199 0
M  V30 3607 H 335.092 3.11898 -2.77685 0
M  V30 3608 N 335.529 1.53961 0.336706 0
M  V30 3609 C 336.439 1.85432 1.43708 0
M  V30 3610 C 337.455 0.745053 1.57242 0
M  V30 3611 O 338.631 1.03804 1.72588 0
M  V30 3612 C 335.696 2.06349 2.78605 0
M  V30 3613 C 334.757 3.30191 2.74358 0
M  V30 3614 C 333.99 3.50101 4.02822 0
M  V30 3615 O 334.213 2.7371 5.00439 0
M  V30 3616 O 333.147 4.43547 4.06878 0
M  V30 3617 H 336.973 2.78975 1.20028 0
M  V30 3618 H 334.558 1.39701 0.52952 0
M  V30 3619 H 336.44 2.21513 3.58483 0
M  V30 3620 H 335.115 1.15995 3.02203 0
M  V30 3621 H 334.022 3.20425 1.93078 0
M  V30 3622 H 335.355 4.2056 2.55715 0
M  V30 3623 N 337.007 -0.598083 1.45811 0
M  V30 3624 C 337.954 -1.7082 1.55207 0
M  V30 3625 C 338.924 -1.61278 0.39732 0
M  V30 3626 O 340.109 -1.80717 0.612038 0
M  V30 3627 C 337.249 -3.09144 1.53376 0
M  V30 3628 C 336.362 -3.29423 2.79472 0
M  V30 3629 C 335.497 -4.57907 2.69248 0
M  V30 3630 C 334.536 -4.71476 3.90354 0
M  V30 3631 N 333.673 -5.9127 3.78608 0
M  V30 3632 H 338.513 -1.62125 2.50039 0
M  V30 3633 H 336.05 -0.790389 1.24062 0
M  V30 3634 H 338.008 -3.89186 1.50301 0
M  V30 3635 H 336.638 -3.16773 0.620876 0
M  V30 3636 H 335.69 -2.43091 2.92594 0
M  V30 3637 H 337.002 -3.3532 3.69272 0
M  V30 3638 H 336.156 -5.46157 2.64192 0
M  V30 3639 H 334.895 -4.54423 1.77063 0
M  V30 3640 H 333.9 -3.81648 3.95759 0
M  V30 3641 H 335.125 -4.76751 4.83617 0
M  V30 3642 H 333.071 -5.88813 2.89199 0
M  V30 3643 H 332.988 -5.98369 4.6205 0
M  V30 3644 H 334.256 -6.81992 3.77501 0
M  V30 3645 N 338.485 -1.33259 -0.841409 0
M  V30 3646 C 339.395 -1.25332 -1.98316 0
M  V30 3647 C 340.411 -0.164364 -1.73222 0
M  V30 3648 O 341.587 -0.387486 -1.97637 0
M  V30 3649 C 338.652 -0.990078 -3.32262 0
M  V30 3650 C 337.713 -2.16879 -3.70489 0
M  V30 3651 C 336.946 -1.91801 -4.98044 0
M  V30 3652 O 337.169 -0.867075 -5.63771 0
M  V30 3653 O 336.103 -2.78267 -5.33714 0
M  V30 3654 H 339.929 -2.21344 -2.07944 0
M  V30 3655 H 337.514 -1.1328 -0.974058 0
M  V30 3656 H 339.396 -0.860321 -4.12524 0
M  V30 3657 H 338.071 -0.0602155 -3.23644 0
M  V30 3658 H 336.978 -2.35407 -2.90748 0
M  V30 3659 H 338.311 -3.0819 -3.8377 0
M  V30 3660 N 339.963 1.05934 -1.16686 0
M  V30 3661 C 340.926 2.11669 -0.879144 0
M  V30 3662 C 341.926 1.60294 0.127445 0
M  V30 3663 O 343.116 1.7389 -0.103865 0
M  V30 3664 C 340.248 3.39438 -0.315425 0
M  V30 3665 H 341.441 2.38626 -1.81653 0
M  V30 3666 H 338.994 1.22058 -0.976299 0
M  V30 3667 H 339.729 3.18132 0.629468 0
M  V30 3668 H 339.514 3.78034 -1.04079 0
M  V30 3669 H 341.004 4.17391 -0.132189 0
M  V30 3670 N 341.441 0.965919 1.2453 0
M  V30 3671 C 342.852 0.665929 1.7442 0
M  V30 3672 C 343.203 -0.818407 1.78316 0
M  V30 3673 O 342.328 -1.64037 1.41141 0
M  V30 3674 C 342.923 1.20211 3.16757 0
M  V30 3675 C 341.482 0.952059 3.6416 0
M  V30 3676 C 340.629 1.33848 2.42858 0
M  V30 3677 H 343.58 1.14144 1.10258 0
M  V30 3678 H 343.601 0.567544 3.76244 0
M  V30 3679 H 343.113 2.28244 3.13889 0
M  V30 3680 H 341.214 -0.112821 3.72429 0
M  V30 3681 H 341.327 1.59645 4.51719 0
M  V30 3682 H 339.691 0.756864 2.43195 0
M  V30 3683 H 340.474 2.42827 2.42673 0
M  V30 3684 N 342.919 -1.39368 0.735821 0
M  V30 3685 C 344.165 -2.00794 0.284544 0
M  V30 3686 C 344.498 -1.58255 -1.12557 0
M  V30 3687 O 343.773 -0.811819 -1.76748 0
M  V30 3688 C 344.056 -3.58011 0.387337 0
M  V30 3689 C 343.909 -4.10566 1.83728 0
M  V30 3690 C 345.228 -4.395 -0.22975 0
M  V30 3691 H 342.347 -0.729501 0.104866 0
M  V30 3692 H 344.989 -1.65564 0.93213 0
M  V30 3693 H 343.139 -3.88154 -0.164006 0
M  V30 3694 H 344.811 -3.91139 2.44556 0
M  V30 3695 H 343.054 -3.64095 2.35833 0
M  V30 3696 H 343.725 -5.19702 1.86047 0
M  V30 3697 H 346.201 -4.15406 0.240257 0
M  V30 3698 H 345.077 -5.48752 -0.127485 0
M  V30 3699 H 345.338 -4.22062 -1.3159 0
M  V30 3700 N 344.397 -0.483516 -1.5 0
M  V30 3701 C 345.674 0.129337 -1.95172 0
M  V30 3702 C 346.054 1.55802 -1.4244 0
M  V30 3703 O 345.402 2.19625 -0.630649 0
M  V30 3704 C 345.612 0.0599251 -3.48949 0
M  V30 3705 C 346.96 0.242617 -4.23906 0
M  V30 3706 O 347.984 0.135933 -3.55941 0
M  V30 3707 O 346.843 0.459454 -5.44565 0
M  V30 3708 H 343.937 0.104887 -0.820322 0
M  V30 3709 H 346.483 -0.544807 -1.60717 0
M  V30 3710 H 345.255 -0.937079 -3.79914 0
M  V30 3711 H 344.878 0.774984 -3.89974 0
M  V30 3712 N 345.875 1.56104 -0.216619 0
M  V30 3713 C 346.838 2.18819 0.681962 0
M  V30 3714 C 347.838 1.14866 1.12528 0
M  V30 3715 O 349.028 1.40128 1.03488 0
M  V30 3716 C 346.16 2.80756 1.93362 0
M  V30 3717 H 347.353 2.99595 0.135254 0
M  V30 3718 H 344.906 1.56265 0.0330003 0
M  V30 3719 H 345.641 2.03837 2.52232 0
M  V30 3720 H 345.426 3.56876 1.62426 0
M  V30 3721 H 346.916 3.28844 2.57393 0
M  V30 3722 N 347.353 -0.0568162 1.57498 0
M  V30 3723 C 348.283 -1.06593 2.0775 0
M  V30 3724 C 349.264 -1.39448 0.974082 0
M  V30 3725 O 350.449 -1.48815 1.24771 0
M  V30 3726 C 347.579 -2.37509 2.5339 0
M  V30 3727 C 346.533 -2.1897 3.67745 0
M  V30 3728 C 345.859 -3.55402 3.99492 0
M  V30 3729 C 347.159 -1.59859 4.97235 0
M  V30 3730 H 348.853 -0.647706 2.9231 0
M  V30 3731 H 346.399 -0.310116 1.40621 0
M  V30 3732 H 348.352 -3.08409 2.87162 0
M  V30 3733 H 347.076 -2.8134 1.65878 0
M  V30 3734 H 345.735 -1.50508 3.3428 0
M  V30 3735 H 345.383 -3.9683 3.09088 0
M  V30 3736 H 345.083 -3.43831 4.76502 0
M  V30 3737 H 346.607 -4.27708 4.35773 0
M  V30 3738 H 348.021 -2.20642 5.29141 0
M  V30 3739 H 346.418 -1.58942 5.78669 0
M  V30 3740 H 347.488 -0.561506 4.81638 0
M  V30 3741 N 348.832 -1.54138 -0.328536 0
M  V30 3742 C 349.795 -1.82462 -1.38709 0
M  V30 3743 C 350.795 -0.696229 -1.44946 0
M  V30 3744 O 351.985 -0.964535 -1.4506 0
M  V30 3745 C 349.117 -1.98018 -2.77492 0
M  V30 3746 H 350.31 -2.77037 -1.14851 0
M  V30 3747 H 347.863 -1.45779 -0.563751 0
M  V30 3748 H 348.598 -1.05637 -3.06613 0
M  V30 3749 H 348.383 -2.80124 -2.74359 0
M  V30 3750 H 349.873 -2.21396 -3.54081 0
M  V30 3751 N 350.31 0.590341 -1.46126 0
M  V30 3752 C 351.24 1.71032 -1.58966 0
M  V30 3753 C 352.221 1.64302 -0.440335 0
M  V30 3754 O 353.406 1.82436 -0.665634 0
M  V30 3755 C 350.536 3.09665 -1.57241 0
M  V30 3756 C 349.49 3.31221 -2.71066 0
M  V30 3757 C 348.816 4.70303 -2.54399 0
M  V30 3758 C 350.116 3.19796 -4.1295 0
M  V30 3759 H 351.81 1.60543 -2.52718 0
M  V30 3760 H 349.356 0.770933 -1.21625 0
M  V30 3761 H 351.309 3.87831 -1.64819 0
M  V30 3762 H 350.033 3.21036 -0.600289 0
M  V30 3763 H 348.692 2.55452 -2.62944 0
M  V30 3764 H 348.34 4.78429 -1.55288 0
M  V30 3765 H 348.04 4.85679 -3.30741 0
M  V30 3766 H 349.564 5.50647 -2.63857 0
M  V30 3767 H 350.978 3.87815 -4.22223 0
M  V30 3768 H 349.375 3.46696 -4.89818 0
M  V30 3769 H 350.445 2.16983 -4.33643 0
M  V30 3770 N 351.788 1.33704 0.83433 0
M  V30 3771 C 353.036 1.25169 1.58673 0
M  V30 3772 C 353.357 -0.18127 1.94156 0
M  V30 3773 O 352.627 -1.11113 1.6134 0
M  V30 3774 H 351.207 0.4603 0.58833 0
M  V30 3775 H 353.869 1.67478 0.996847 0
M  V30 3776 H 352.965 1.84856 2.51465 0
M  V30 3777 N 353.266 -1.05314 1.17247 0
M  V30 3778 C 354.514 -1.77941 0.958194 0
M  V30 3779 C 354.835 -1.88089 -0.514556 0
M  V30 3780 O 354.105 -1.39676 -1.37359 0
M  V30 3781 H 352.685 -0.659116 0.351533 0
M  V30 3782 H 355.347 -1.27166 1.47699 0
M  V30 3783 H 354.443 -2.79663 1.38546 0
M  V30 3784 O 354.783 -1.10174 -1.18084 0
M  V30 3785 H 355.474 -0.801769 -1.76327 0
M  V30 END ATOM
M  V30 BEGIN BOND
M  V30 END BOND
M  V30 END CTAB
M  END
$$$$
