drugbank_target|P81006 L-hydantoinase (DB03801)
 OpenBabel12092119593D

  0  0  0     0  0            999 V3000
M  V30 BEGIN CTAB
M  V30 COUNTS 6948 7008 0 0 0
M  V30 BEGIN ATOM
M  V30 1 H -0.908 1.98254 -0.117106 0
M  V30 2 N 0 1.576 0 0
M  V30 3 C 0.933 2.03868 1.02534 0
M  V30 4 C 1.911 0.928543 1.3348 0
M  V30 5 O 3.095 1.19667 1.45644 0
M  V30 6 C 0.222 2.43627 2.35294 0
M  V30 7 C -0.732 3.65373 2.2001 0
M  V30 8 S 0.101 5.13292 1.52614 0
M  V30 9 C 1.257 5.56322 2.86805 0
M  V30 10 H 1.49 2.90518 0.631377 0
M  V30 11 H -0.977 1.52953 0.210867 0
M  V30 12 H 0.981 2.67203 3.11629 0
M  V30 13 H -0.358 1.57376 2.7183 0
M  V30 14 H -1.165 3.90944 3.18086 0
M  V30 15 H -1.563 3.418 1.51819 0
M  V30 16 H 0.729 5.58782 3.83104 0
M  V30 17 H 1.672 6.56266 2.65933 0
M  V30 18 H 2.08 4.83886 2.90714 0
M  V30 19 N 1.4781 -0.272755 1.55222 0
M  V30 20 C 2.7251 -1.00433 1.7584 0
M  V30 21 C 3.0531 -1.86275 0.559629 0
M  V30 22 O 2.3081 -1.90269 -0.457857 0
M  V30 23 C 2.6071 -1.91642 3.01675 0
M  V30 24 C 2.2731 -1.21548 4.34208 0
M  V30 25 C 0.9351 -1.02166 4.70229 0
M  V30 26 C 3.2871 -0.716684 5.16249 0
M  V30 27 C 0.6151 -0.316334 5.85847 0
M  V30 28 C 2.9671 -0.0249476 6.32595 0
M  V30 29 C 1.6311 0.180579 6.67256 0
M  V30 30 H 0.9011 -0.367509 0.643443 0
M  V30 31 H 3.5481 -0.276596 1.89492 0
M  V30 32 H 1.8531 -2.71037 2.82924 0
M  V30 33 H 3.5501 -2.48369 3.14824 0
M  V30 34 H 0.1401 -1.37645 4.05896 0
M  V30 35 H 4.3241 -0.854047 4.88896 0
M  V30 36 H -0.4199 -0.146378 6.11225 0
M  V30 37 H 3.7541 0.369311 6.9542 0
M  V30 38 H 1.3811 0.729098 7.56696 0
M  V30 39 N 2.9562 -1.48159 -0.537278 0
M  V30 40 C 4.2332 -1.46291 -1.29839 0
M  V30 41 C 4.6132 -0.170613 -2.10409 0
M  V30 42 O 3.9612 0.847746 -2.12192 0
M  V30 43 C 4.1712 -2.72055 -2.18603 0
M  V30 44 C 5.5192 -3.20087 -2.7898 0
M  V30 45 O 6.5432 -2.72921 -2.28894 0
M  V30 46 O 5.4022 -4.02138 -3.70064 0
M  V30 47 H 2.4962 -0.583906 -0.585647 0
M  V30 48 H 5.0422 -1.60384 -0.554534 0
M  V30 49 H 3.8142 -3.57628 -1.58801 0
M  V30 50 H 3.4372 -2.60646 -3.00249 0
M  V30 51 N 4.4343 0.785586 -1.36625 0
M  V30 52 C 5.6803 1.54591 -1.31261 0
M  V30 53 C 6.0133 1.93906 0.106823 0
M  V30 54 O 5.2883 1.63007 1.06108 0
M  V30 55 C 5.5713 2.82038 -2.23889 0
M  V30 56 C 5.4243 2.49066 -3.74548 0
M  V30 57 C 6.7433 3.83887 -2.15217 0
M  V30 58 H 3.8623 0.560846 -0.478143 0
M  V30 59 H 6.5043 0.902278 -1.67209 0
M  V30 60 H 4.6543 3.36961 -1.93363 0
M  V30 61 H 6.3263 2.00164 -4.15611 0
M  V30 62 H 4.5693 1.81954 -3.93796 0
M  V30 63 H 5.2403 3.40109 -4.34776 0
M  V30 64 H 7.7163 3.38421 -2.42096 0
M  V30 65 H 6.5923 4.70806 -2.82193 0
M  V30 66 H 6.8533 4.27131 -1.14068 0
M  V30 67 N 5.9124 1.20967 1.01018 0
M  V30 68 C 7.1614 1.01796 1.74128 0
M  V30 69 C 7.4744 -0.449691 1.90361 0
M  V30 70 O 8.6804 -0.76068 2.60626 0
M  V30 71 C 7.1364 1.7727 3.13215 0
M  V30 72 C 6.7444 3.28171 3.04972 0
M  V30 73 C 8.4884 1.66489 3.90489 0
M  V30 74 C 6.3954 3.96156 4.39107 0
M  V30 75 H 5.3254 0.377276 0.652824 0
M  V30 76 H 7.9764 1.44651 1.12909 0
M  V30 77 H 6.3584 1.27205 3.75013 0
M  V30 78 H 7.5324 3.85499 2.52443 0
M  V30 79 H 5.8474 3.39437 2.41188 0
M  V30 80 H 8.4444 2.14617 4.89738 0
M  V30 81 H 8.7874 0.6222 4.11624 0
M  V30 82 H 9.3204 2.14003 3.35332 0
M  V30 83 H 6.0594 5.00604 4.23174 0
M  V30 84 H 5.5794 3.43617 4.91617 0
M  V30 85 H 7.2584 4.00774 5.07926 0
M  V30 86 N 7.3905 -1.2043 1.01659 0
M  V30 87 C 8.6365 -1.90079 0.706963 0
M  V30 88 C 8.9695 -1.78648 -0.761474 0
M  V30 89 O 8.2445 -1.17069 -1.55323 0
M  V30 90 C 8.5275 -3.41469 1.14327 0
M  V30 91 C 8.3805 -3.61833 2.67201 0
M  V30 92 C 9.6995 -4.34261 0.714529 0
M  V30 93 H 6.8185 -0.690254 0.2583 0
M  V30 94 H 9.4605 -1.41826 1.26433 0
M  V30 95 H 7.6105 -3.82696 0.669056 0
M  V30 96 H 9.2825 -3.2986 3.22475 0
M  V30 97 H 7.5255 -3.05304 3.08175 0
M  V30 98 H 8.1965 -4.67955 2.92783 0
M  V30 99 H 10.6725 -4.00682 1.12221 0
M  V30 100 H 9.5485 -5.38806 1.04784 0
M  V30 101 H 9.8095 -4.40431 -0.383799 0
M  V30 102 N 8.8686 -0.792821 -1.36206 0
M  V30 103 C 9.8156 -0.191653 -2.30003 0
M  V30 104 C 10.7856 0.666453 -1.52143 0
M  V30 105 O 11.9706 0.61442 -1.80636 0
M  V30 106 C 9.1106 0.664848 -3.38635 0
M  V30 107 C 8.2236 -0.212175 -4.31479 0
M  V30 108 C 7.3586 0.651022 -5.27196 0
M  V30 109 C 6.3976 -0.227247 -6.11678 0
M  V30 110 N 5.5346 0.595127 -6.99573 0
M  V30 111 H 10.3746 -0.996978 -2.80828 0
M  V30 112 H 7.9116 -0.503206 -1.38225 0
M  V30 113 H 9.8696 1.17645 -4.00269 0
M  V30 114 H 8.4996 1.43557 -2.89122 0
M  V30 115 H 7.5516 -0.841777 -3.70969 0
M  V30 116 H 8.8636 -0.888751 -4.90818 0
M  V30 117 H 8.0176 1.2283 -5.94136 0
M  V30 118 H 6.7566 1.36121 -4.68319 0
M  V30 119 H 5.7616 -0.816904 -5.43697 0
M  V30 120 H 6.9866 -0.93509 -6.72631 0
M  V30 121 H 4.9326 1.28955 -6.432 0
M  V30 122 H 4.8496 -0.0236952 -7.55996 0
M  V30 123 H 6.1176 1.15613 -7.70879 0
M  V30 124 N 10.3467 1.47872 -0.545128 0
M  V30 125 C 11.2947 2.31533 0.222512 0
M  V30 126 C 12.2887 1.42177 0.920985 0
M  V30 127 O 13.4947 1.59005 0.843645 0
M  V30 128 H 9.8697 0.746519 0.0906278 0
M  V30 129 H 11.8407 2.94139 -0.50246 0
M  V30 130 C 10.5897 3.2457 1.24699 0
M  V30 131 H 9.9127 3.93283 0.718944 0
M  V30 132 H 11.3527 3.85963 1.75523 0
M  V30 133 C 9.8117 2.47237 2.28856 0
M  V30 134 O 10.3417 2.20808 3.35569 0
M  V30 135 N 8.5477 2.08461 2.02466 0
M  V30 136 H 8.0947 2.30155 1.157 0
M  V30 137 H 8.0527 1.57033 2.72375 0
M  V30 138 N 11.8248 0.280983 1.55075 0
M  V30 139 C 13.0648 -0.335234 2.01632 0
M  V30 140 C 13.4288 -1.5261 1.16508 0
M  V30 141 O 14.6298 -2.21235 1.52672 0
M  V30 142 C 12.9008 -0.702172 3.50434 0
M  V30 143 S 14.4598 -1.30409 4.18974 0
M  V30 144 H 11.2778 -0.103967 0.703358 0
M  V30 145 H 13.8798 0.404187 1.91276 0
M  V30 146 H 12.5838 0.17333 4.10034 0
M  V30 147 H 12.1148 -1.4729 3.64786 0
M  V30 148 H 14.1298 -2.59253 4.23087 0
M  V30 149 N 13.3029 -1.57598 0.00835791 0
M  V30 150 C 14.7189 -1.55764 -0.347822 0
M  V30 151 C 14.9189 -1.01186 -1.74252 0
M  V30 152 O 13.9749 -0.649371 -2.44007 0
M  V30 153 C 15.2879 -2.99927 -0.215407 0
M  V30 154 C 16.8359 -3.11656 -0.289725 0
M  V30 155 C 17.3109 -4.57621 -0.18634 0
M  V30 156 N 18.8019 -4.62557 -0.243978 0
M  V30 157 C 19.5369 -5.73094 -0.18745 0
M  V30 158 N 19.0329 -6.92753 -0.0810331 0
M  V30 159 N 20.8259 -5.61588 -0.239925 0
M  V30 160 H 12.9769 -1.91411 0.92062 0
M  V30 161 H 15.2399 -0.879562 0.353659 0
M  V30 162 H 14.9459 -3.43729 0.744512 0
M  V30 163 H 14.8199 -3.63865 -0.994097 0
M  V30 164 H 17.2069 -2.67779 -1.24009 0
M  V30 165 H 17.2879 -2.5048 0.51898 0
M  V30 166 H 16.9319 -5.02174 0.760519 0
M  V30 167 H 16.8619 -5.16752 -1.01364 0
M  V30 168 H 19.3529 -3.76481 -0.327217 0
M  V30 169 H 19.6659 -7.72787 -0.0440241 0
M  V30 170 H 18.0109 -6.94984 -0.0465419 0
M  V30 171 H 21.2019 -4.66996 -0.321317 0
M  V30 172 H 21.3749 -6.47714 -0.192407 0
M  V30 173 N 14.781 0.264519 -1.55364 0
M  V30 174 C 15.711 1.33121 -1.91836 0
M  V30 175 C 16.692 1.51101 -0.781192 0
M  V30 176 O 17.877 1.64003 -1.04003 0
M  V30 177 C 15.007 2.68921 -2.19769 0
M  V30 178 C 13.961 2.65661 -3.35571 0
M  V30 179 C 13.287 4.05093 -3.49004 0
M  V30 180 C 14.587 2.24187 -4.71739 0
M  V30 181 H 16.281 1.02844 -2.81182 0
M  V30 182 H 13.827 0.493286 -1.35287 0
M  V30 183 H 15.78 3.43663 -2.43872 0
M  V30 184 H 14.504 3.00799 -1.27231 0
M  V30 185 H 13.163 1.93377 -3.1145 0
M  V30 186 H 12.811 4.34206 -2.53917 0
M  V30 187 H 12.511 4.03804 -4.26868 0
M  V30 188 H 14.035 4.81561 -3.75408 0
M  V30 189 H 15.449 2.88654 -4.9533 0
M  V30 190 H 13.846 2.34044 -5.52579 0
M  V30 191 H 14.916 1.19327 -4.69988 0
M  V30 192 N 16.2591 1.48442 0.529413 0
M  V30 193 C 17.5051 1.5672 1.28711 0
M  V30 194 C 17.8381 0.2406 1.92704 0
M  V30 195 O 17.1131 -0.753454 1.79313 0
M  V30 196 C 17.3961 2.70587 2.37603 0
M  V30 197 C 17.2491 4.12953 1.78297 0
M  V30 198 C 18.5681 2.80212 3.39366 0
M  V30 199 H 15.6871 0.570474 0.466613 0
M  V30 200 H 18.3291 1.80617 0.589706 0
M  V30 201 H 16.4791 2.50342 2.97088 0
M  V30 202 H 18.1511 4.44639 1.22858 0
M  V30 203 H 16.3941 4.19927 1.0883 0
M  V30 204 H 17.0651 4.88448 2.57144 0
M  V30 205 H 19.5411 2.98553 2.89836 0
M  V30 206 H 18.4171 3.61611 4.12951 0
M  V30 207 H 18.6781 1.88393 3.99951 0
M  V30 208 N 17.7372 -0.778329 1.37039 0
M  V30 209 C 18.9622 -1.57248 1.35233 0
M  V30 210 C 19.3872 -1.87999 -0.0615568 0
M  V30 211 O 18.7452 -1.48734 -1.03672 0
M  V30 212 C 18.7932 -2.86353 2.19167 0
M  V30 213 O 17.8972 -3.80442 1.59178 0
M  V30 214 H 17.2382 -0.476569 0.462362 0
M  V30 215 H 19.7682 -0.963853 1.80474 0
M  V30 216 H 19.7782 -3.35519 2.32145 0
M  V30 217 H 18.4532 -2.63299 3.21942 0
M  V30 218 H 17.0302 -3.39067 1.55203 0
M  V30 219 N 19.2153 -1.21501 -1.00376 0
M  V30 220 C 20.4403 -1.05977 -1.78279 0
M  V30 221 C 20.8653 0.385994 -1.84097 0
M  V30 222 O 20.2233 1.27849 -1.28547 0
M  V30 223 C 20.2713 -1.66302 -3.19963 0
M  V30 224 O 19.3753 -0.909333 -4.0225 0
M  V30 225 H 18.7163 -0.372906 -0.549397 0
M  V30 226 H 21.2463 -1.6107 -1.26165 0
M  V30 227 H 21.2563 -1.70574 -3.70632 0
M  V30 228 H 19.9313 -2.71515 -3.15043 0
M  V30 229 H 18.5083 -0.941795 -3.60811 0
M  V30 230 N 20.6934 1.19889 -1.02296 0
M  V30 231 C 21.9704 1.85148 -0.630832 0
M  V30 232 C 22.3504 1.91385 0.890782 0
M  V30 233 O 21.6984 1.42642 1.78509 0
M  V30 234 C 21.9084 3.24442 -1.28602 0
M  V30 235 C 23.2564 4.00663 -1.4055 0
M  V30 236 O 24.2804 3.33818 -1.24273 0
M  V30 237 O 23.1394 5.20387 -1.66913 0
M  V30 238 H 20.2334 0.797613 -0.218499 0
M  V30 239 H 22.7794 1.27427 -1.12074 0
M  V30 240 H 21.5514 3.14704 -2.32545 0
M  V30 241 H 21.1744 3.89802 -0.7836 0
M  V30 242 N 22.1715 0.800033 1.35784 0
M  V30 243 C 23.4195 0.376597 1.9856 0
M  V30 244 C 23.7405 -1.05812 1.63795 0
M  V30 245 O 23.0105 -1.73103 0.917171 0
M  V30 246 H 21.5905 0.136261 0.734467 0
M  V30 247 H 24.2525 1.02442 1.65806 0
M  V30 248 H 23.3485 0.477002 3.08433 0
M  V30 249 N 23.6496 -1.47581 0.552962 0
M  V30 250 C 24.8986 -2.01684 0.0251995 0
M  V30 251 C 25.2116 -1.43317 -1.33115 0
M  V30 252 O 26.4176 -1.89057 -1.94858 0
M  V30 253 C 24.8736 -3.599 -0.00542052 0
M  V30 254 C 24.4816 -4.27257 1.34742 0
M  V30 255 C 26.2256 -4.21768 -0.4808 0
M  V30 256 C 24.1326 -5.77467 1.27614 0
M  V30 257 H 23.0626 -0.753979 0.00565033 0
M  V30 258 H 25.7136 -1.69616 0.70018 0
M  V30 259 H 24.0956 -3.88911 -0.745961 0
M  V30 260 H 25.2696 -4.09893 2.10534 0
M  V30 261 H 23.5846 -3.77358 1.76039 0
M  V30 262 H 26.1816 -5.31838 -0.55246 0
M  V30 263 H 26.5246 -3.88651 -1.49184 0
M  V30 264 H 27.0576 -3.97273 0.204752 0
M  V30 265 H 23.7966 -6.15196 2.26304 0
M  V30 266 H 23.3166 -5.9718 0.55996 0
M  V30 267 H 24.9956 -6.3959 0.976421 0
M  V30 268 N 25.1277 -0.289203 -1.54924 0
M  V30 269 C 26.3557 0.326463 -2.04308 0
M  V30 270 C 26.7707 1.48413 -1.16701 0
M  V30 271 O 26.1277 1.81507 -0.190087 0
M  V30 272 C 26.1787 0.794014 -3.52672 0
M  V30 273 O 25.8997 -0.317564 -4.36948 0
M  V30 274 C 27.4007 1.47605 -4.18004 0
M  V30 275 H 24.6207 0.0726272 -0.667058 0
M  V30 276 H 27.1647 -0.425401 -2.00026 0
M  V30 277 H 25.3197 1.49593 -3.57352 0
M  V30 278 H 25.7337 0.0443186 -5.24481 0
M  V30 279 H 27.2077 1.75447 -5.23376 0
M  V30 280 H 27.6847 2.41224 -3.67025 0
M  V30 281 H 28.2907 0.81762 -4.17367 0
M  V30 282 N 26.6058 1.57591 -0.0167156 0
M  V30 283 C 27.5158 2.1291 0.98521 0
M  V30 284 C 28.5318 1.07834 1.36557 0
M  V30 285 O 29.7078 1.39826 1.44951 0
M  V30 286 C 26.7728 2.63512 2.25305 0
M  V30 287 C 25.8338 3.83256 1.93426 0
M  V30 288 C 25.0668 4.31435 3.14165 0
M  V30 289 O 25.2898 3.78851 4.26413 0
M  V30 290 O 24.2238 5.23416 2.97186 0
M  V30 291 H 28.0498 2.98772 0.544888 0
M  V30 292 H 25.6348 1.48012 0.203141 0
M  V30 293 H 27.5168 2.96183 2.99756 0
M  V30 294 H 26.1918 1.8074 2.68542 0
M  V30 295 H 25.0988 3.55531 1.16398 0
M  V30 296 H 26.4318 4.67153 1.55013 0
M  V30 297 N 28.0839 -0.256276 1.55502 0
M  V30 298 C 29.0469 -1.30047 1.88734 0
M  V30 299 C 30.0469 -1.4154 0.763086 0
M  V30 300 O 31.2369 -1.40403 1.03115 0
M  V30 301 C 28.3689 -2.67953 2.10747 0
M  V30 302 H 29.5619 -1.01802 2.82093 0
M  V30 303 H 27.1149 -0.495134 1.4825 0
M  V30 304 H 27.8499 -3.01351 1.19825 0
M  V30 305 H 27.6349 -2.60993 2.92617 0
M  V30 306 H 29.1249 -3.43368 2.37673 0
M  V30 307 N 29.562 -1.4872 -0.521534 0
M  V30 308 C 30.839 -1.4766 -1.2828 0
M  V30 309 C 31.219 -0.19292 -2.10217 0
M  V30 310 O 30.567 0.825193 -2.13079 0
M  V30 311 C 30.777 -2.74358 -2.15705 0
M  V30 312 C 32.125 -3.23028 -2.75569 0
M  V30 313 O 33.149 -2.75333 -2.25987 0
M  V30 314 O 32.008 -4.0604 -3.65778 0
M  V30 315 H 29.102 -0.590085 -0.579421 0
M  V30 316 H 31.648 -1.60963 -0.537492 0
M  V30 317 H 30.42 -3.59292 -1.54999 0
M  V30 318 H 30.043 -2.63816 -2.97467 0
M  V30 319 N 31.0401 0.771051 -1.3745 0
M  V30 320 C 32.2891 1.52491 -1.3202 0
M  V30 321 C 32.6021 1.9538 0.0927347 0
M  V30 322 O 33.8081 2.70159 0.269503 0
M  V30 323 C 32.2641 2.75366 -2.31736 0
M  V30 324 C 31.8721 2.39573 -3.78562 0
M  V30 325 C 33.6161 3.53307 -2.35318 0
M  V30 326 C 31.5231 3.58954 -4.70007 0
M  V30 327 H 30.4531 0.572506 -0.490666 0
M  V30 328 H 33.1041 0.844474 -1.62914 0
M  V30 329 H 31.4861 3.45303 -1.93861 0
M  V30 330 H 32.6601 1.77415 -4.25277 0
M  V30 331 H 30.9751 1.74805 -3.77932 0
M  V30 332 H 33.5721 4.42039 -3.00842 0
M  V30 333 H 33.9151 3.93217 -1.36698 0
M  V30 334 H 34.4481 2.90367 -2.71904 0
M  V30 335 H 31.1871 3.24125 -5.69757 0
M  V30 336 H 30.7071 4.20214 -4.27996 0
M  V30 337 H 32.3861 4.25758 -4.87175 0
M  V30 338 N 32.5182 1.22032 0.997298 0
M  V30 339 C 33.4482 1.01065 2.10495 0
M  V30 340 C 34.4292 -0.0669542 1.69968 0
M  V30 341 O 35.6142 0.0943987 1.9397 0
M  V30 342 C 32.7442 0.582874 3.42374 0
M  V30 343 C 31.6982 1.60592 3.96729 0
M  V30 344 C 31.0242 1.03412 5.24605 0
M  V30 345 C 32.3242 2.99478 4.27914 0
M  V30 346 H 34.0182 1.93708 2.28292 0
M  V30 347 H 31.5642 0.932761 1.09707 0
M  V30 348 H 33.5172 0.423332 4.19268 0
M  V30 349 H 32.2412 -0.379213 3.24391 0
M  V30 350 H 30.9002 1.75316 3.21963 0
M  V30 351 H 30.5482 0.063518 5.0296 0
M  V30 352 H 30.2482 1.71754 5.61938 0
M  V30 353 H 31.7722 0.886066 6.04137 0
M  V30 354 H 33.1862 2.88153 4.95622 0
M  V30 355 H 31.5832 3.64903 4.76409 0
M  V30 356 H 32.6532 3.49742 3.3587 0
M  V30 357 N 33.9963 -1.19345 1.0293 0
M  V30 358 C 35.2423 -1.89318 0.727083 0
M  V30 359 C 35.5753 -1.79446 -0.742483 0
M  V30 360 O 34.8503 -1.1871 -1.54072 0
M  V30 361 C 35.1333 -3.40238 1.17942 0
M  V30 362 C 34.9863 -3.58979 2.71024 0
M  V30 363 C 36.3053 -4.33479 0.760548 0
M  V30 364 H 33.4243 -0.687475 0.265606 0
M  V30 365 H 36.0663 -1.40477 1.2793 0
M  V30 366 H 34.2163 -3.81964 0.709608 0
M  V30 367 H 35.8883 -3.26421 3.25955 0
M  V30 368 H 34.1313 -3.02018 3.11396 0
M  V30 369 H 34.8023 -4.64823 2.9773 0
M  V30 370 H 37.2783 -3.99469 1.16464 0
M  V30 371 H 36.1543 -5.37664 1.10493 0
M  V30 372 H 36.4153 -4.40813 -0.337063 0
M  V30 373 N 35.4744 -0.807222 -1.35358 0
M  V30 374 C 36.4214 -0.216037 -2.29787 0
M  V30 375 C 37.3914 0.650278 -1.52842 0
M  V30 376 O 38.5764 0.595227 -1.81278 0
M  V30 377 C 35.7164 0.628893 -3.39321 0
M  V30 378 C 34.8294 -0.257927 -4.31229 0
M  V30 379 C 33.9644 0.595069 -5.27856 0
M  V30 380 C 33.0034 -0.292111 -6.11403 0
M  V30 381 N 32.1404 0.520895 -7.00165 0
M  V30 382 H 36.9804 -1.02671 -2.79755 0
M  V30 383 H 34.5174 -0.517839 -1.37684 0
M  V30 384 H 36.4754 1.13393 -4.01494 0
M  V30 385 H 35.1054 1.40482 -2.90628 0
M  V30 386 H 34.1574 -0.881076 -3.70056 0
M  V30 387 H 35.4694 -0.940759 -4.89848 0
M  V30 388 H 34.6234 1.16522 -5.95405 0
M  V30 389 H 33.3624 1.31146 -4.69736 0
M  V30 390 H 32.3674 -0.874525 -5.428 0
M  V30 391 H 33.5924 -1.00638 -6.71602 0
M  V30 392 H 31.5384 1.22125 -6.44532 0
M  V30 393 H 31.4554 -0.103877 -7.55929 0
M  V30 394 H 32.7234 1.0743 -7.72062 0
M  V30 395 N 36.9525 1.47285 -0.560781 0
M  V30 396 C 38.2295 1.9558 0.0277798 0
M  V30 397 C 38.6095 1.5034 1.48192 0
M  V30 398 O 37.9575 0.743882 2.16052 0
M  V30 399 C 38.1675 3.48789 -0.121418 0
M  V30 400 C 39.5155 4.24594 0.0220912 0
M  V30 401 O 40.5395 3.56166 -0.0491439 0
M  V30 402 O 39.3985 5.46217 0.175958 0
M  V30 403 H 36.4925 0.824663 0.0621342 0
M  V30 404 H 39.0385 1.5767 -0.627556 0
M  V30 405 H 37.8105 3.74533 -1.13316 0
M  V30 406 H 37.4335 3.93473 0.571366 0
M  V30 407 N 38.4306 0.297415 1.54768 0
M  V30 408 C 39.6786 -0.312295 1.99673 0
M  V30 409 C 39.9996 -1.54686 1.18732 0
M  V30 410 O 39.2696 -1.93854 0.282382 0
M  V30 411 H 37.8496 -0.118381 0.73756 0
M  V30 412 H 40.5116 0.407915 1.90583 0
M  V30 413 H 39.6076 -0.586813 3.06534 0
M  V30 414 N 39.9087 -1.5758 0.0250728 0
M  V30 415 C 40.8557 -2.09973 -0.958129 0
M  V30 416 C 41.8257 -1.00085 -1.3256 0
M  V30 417 O 43.0107 -1.27481 -1.41962 0
M  V30 418 C 40.1507 -2.62812 -2.2366 0
M  V30 419 C 39.2637 -3.86693 -1.92594 0
M  V30 420 C 38.3987 -4.27941 -3.14707 0
M  V30 421 C 37.4377 -5.44591 -2.79442 0
M  V30 422 N 36.5747 -5.81014 -3.94167 0
M  V30 423 H 41.4147 -2.937 -0.504428 0
M  V30 424 H 38.9517 -1.45172 -0.237392 0
M  V30 425 H 40.9097 -2.91536 -2.98434 0
M  V30 426 H 39.5397 -1.81922 -2.66654 0
M  V30 427 H 38.5917 -3.64723 -1.0808 0
M  V30 428 H 39.9037 -4.71547 -1.62619 0
M  V30 429 H 39.0577 -4.58079 -3.97804 0
M  V30 430 H 37.7967 -3.41845 -3.4784 0
M  V30 431 H 36.8017 -5.1415 -1.94755 0
M  V30 432 H 38.0267 -6.32382 -2.47528 0
M  V30 433 H 35.9727 -4.97874 -4.2715 0
M  V30 434 H 35.8897 -6.60498 -3.67801 0
M  V30 435 H 37.1577 -6.15756 -4.7798 0
M  V30 436 N 41.3868 0.248026 -1.55636 0
M  V30 437 C 42.6328 0.97767 -1.77678 0
M  V30 438 C 42.9658 1.85016 -0.590135 0
M  V30 439 O 42.2408 1.90095 0.411611 0
M  V30 440 C 42.5238 1.83914 -3.09593 0
M  V30 441 C 42.3768 0.99491 -4.38659 0
M  V30 442 C 43.6958 2.82183 -3.37729 0
M  V30 443 H 40.8148 0.354005 -0.646413 0
M  V30 444 H 43.4568 0.248253 -1.88371 0
M  V30 445 H 41.6068 2.46104 -3.00608 0
M  V30 446 H 43.2788 0.391789 -4.59633 0
M  V30 447 H 41.5218 0.299231 -4.32767 0
M  V30 448 H 42.1928 1.63145 -5.2734 0
M  V30 449 H 44.6688 2.30129 -3.4667 0
M  V30 450 H 43.5448 3.39582 -4.31249 0
M  V30 451 H 43.8058 3.58588 -2.58586 0
M  V30 452 N 42.8649 1.48995 0.513639 0
M  V30 453 C 43.8279 1.64229 1.59879 0
M  V30 454 C 44.8279 0.514696 1.5234 0
M  V30 455 O 46.0179 0.78087 1.55718 0
M  V30 456 C 43.1499 1.62783 2.99524 0
M  V30 457 H 44.3429 2.61004 1.47705 0
M  V30 458 H 41.8959 1.37837 0.736936 0
M  V30 459 H 42.6309 0.675461 3.17188 0
M  V30 460 H 42.4159 2.4466 3.06404 0
M  V30 461 H 43.9059 1.76669 3.78388 0
M  V30 462 N 44.343 -0.763751 1.37857 0
M  V30 463 C 45.306 -1.85889 1.34081 0
M  V30 464 C 46.306 -1.58949 0.243277 0
M  V30 465 O 47.496 -1.66882 0.499589 0
M  V30 466 C 44.628 -3.23176 1.08489 0
M  V30 467 H 45.821 -1.90648 2.31502 0
M  V30 468 H 43.374 -0.964367 1.23003 0
M  V30 469 H 44.109 -3.24091 0.116318 0
M  V30 470 H 43.894 -3.44124 1.8794 0
M  V30 471 H 45.384 -4.03254 1.08517 0
M  V30 472 N 45.8211 -1.22559 -0.990812 0
M  V30 473 C 47.0701 -1.04553 -1.72486 0
M  V30 474 C 47.3831 0.419349 -1.91052 0
M  V30 475 O 48.5891 0.719121 -2.61803 0
M  V30 476 C 47.0451 -1.82231 -3.10355 0
M  V30 477 C 46.6531 -3.32981 -2.99713 0
M  V30 478 C 48.3971 -1.7268 -3.87791 0
M  V30 479 C 46.3041 -4.03091 -4.32748 0
M  V30 480 H 45.2341 -0.387614 -0.646739 0
M  V30 481 H 47.8851 -1.46429 -1.10593 0
M  V30 482 H 46.2671 -1.33155 -3.72942 0
M  V30 483 H 47.4411 -3.89466 -2.46278 0
M  V30 484 H 45.7561 -3.43231 -2.35758 0
M  V30 485 H 48.3531 -2.22381 -4.86262 0
M  V30 486 H 48.6961 -0.687607 -4.10582 0
M  V30 487 H 49.2291 -2.1931 -3.31885 0
M  V30 488 H 45.9681 -5.07273 -4.15156 0
M  V30 489 H 45.4881 -3.51394 -4.86089 0
M  V30 490 H 47.1671 -4.08804 -5.01486 0
M  V30 491 N 47.2992 1.18797 -1.03562 0
M  V30 492 C 48.5242 1.9314 -0.755764 0
M  V30 493 C 48.9492 1.7537 0.68022 0
M  V30 494 O 48.3072 1.06046 1.47051 0
M  V30 495 C 48.3552 3.42747 -1.12058 0
M  V30 496 O 47.4592 4.11683 -0.243124 0
M  V30 497 H 46.8002 0.602724 -0.278604 0
M  V30 498 H 49.3302 1.50678 -1.3841 0
M  V30 499 H 49.3402 3.93437 -1.08035 0
M  V30 500 H 48.0152 3.55002 -2.16672 0
M  V30 501 H 46.5922 3.71323 -0.342539 0
M  V30 502 N 48.7773 0.814389 1.34928 0
M  V30 503 C 49.7403 0.235759 2.27984 0
M  V30 504 C 50.7403 -0.581412 1.49921 0
M  V30 505 O 51.9303 -0.398758 1.69575 0
M  V30 506 C 49.0623 -0.670433 3.34242 0
M  V30 507 H 50.2553 1.05659 2.80671 0
M  V30 508 H 47.8083 0.585614 1.44915 0
M  V30 509 H 48.5433 -1.51466 2.86755 0
M  V30 510 H 48.3283 -0.0860822 3.92005 0
M  V30 511 H 49.8183 -1.06935 4.03676 0
M  V30 512 N 50.2554 -1.46986 0.568584 0
M  V30 513 C 51.5324 -1.95592 -0.0174074 0
M  V30 514 C 51.9124 -1.51124 -1.47393 0
M  V30 515 O 51.2604 -0.755329 -2.15655 0
M  V30 516 C 51.4704 -3.48719 0.139913 0
M  V30 517 C 52.8184 -4.246 0.000426376 0
M  V30 518 O 53.8424 -3.56135 0.0680316 0
M  V30 519 O 52.7014 -5.46302 -0.146988 0
M  V30 520 H 49.7954 -0.82498 -0.0577599 0
M  V30 521 H 52.3414 -1.57335 0.635909 0
M  V30 522 H 51.1134 -3.73927 1.15301 0
M  V30 523 H 50.7364 -3.93771 -0.550491 0
M  V30 524 N 51.7335 -0.305618 -1.54608 0
M  V30 525 C 52.9615 0.304775 -2.04643 0
M  V30 526 C 53.3765 1.47167 -1.18268 0
M  V30 527 O 52.7335 1.81296 -0.209328 0
M  V30 528 C 52.7845 0.756564 -3.53495 0
M  V30 529 O 52.5055 -0.36389 -4.36586 0
M  V30 530 C 54.0065 1.43163 -4.19546 0
M  V30 531 H 51.2265 0.0655481 -0.667791 0
M  V30 532 H 53.7705 -0.446592 -1.99564 0
M  V30 533 H 51.9255 1.45794 -3.58919 0
M  V30 534 H 52.3395 -0.0113121 -5.24499 0
M  V30 535 H 53.8135 1.69886 -5.25207 0
M  V30 536 H 54.2905 2.37318 -3.69563 0
M  V30 537 H 54.8965 0.773307 -4.18211 0
M  V30 538 N 53.2116 1.57565 -0.0334293 0
M  V30 539 C 54.4366 1.96689 0.657895 0
M  V30 540 C 54.8616 0.910057 1.64619 0
M  V30 541 O 54.2196 -0.128598 1.80843 0
M  V30 542 C 54.2676 3.34905 1.33683 0
M  V30 543 O 53.3716 3.31574 2.45219 0
M  V30 544 H 52.7126 0.641205 0.172489 0
M  V30 545 H 55.2426 2.04372 -0.0965621 0
M  V30 546 H 55.2526 3.71234 1.69262 0
M  V30 547 H 53.9276 4.11366 0.612411 0
M  V30 548 H 52.5046 3.06968 2.11719 0
M  V30 549 N 54.6897 -0.239769 1.55765 0
M  V30 550 C 55.9667 -0.990056 1.68693 0
M  V30 551 C 56.3467 -2.03107 0.5754 0
M  V30 552 O 55.6947 -2.24604 -0.42017 0
M  V30 553 C 55.9047 -1.61696 3.09282 0
M  V30 554 C 57.2527 -2.11613 3.6811 0
M  V30 555 O 58.2767 -1.71624 3.12127 0
M  V30 556 O 57.1357 -2.85057 4.66267 0
M  V30 557 H 54.2297 -0.461299 0.686391 0
M  V30 558 H 56.7757 -0.232991 1.68093 0
M  V30 559 H 55.5477 -0.864357 3.81634 0
M  V30 560 H 55.1707 -2.44005 3.13923 0
M  V30 561 N 56.1678 -1.49265 -0.50573 0
M  V30 562 C 57.4138 -1.58748 -1.26202 0
M  V30 563 C 57.7468 -0.271227 -1.92297 0
M  V30 564 O 57.0218 0.724831 -1.80489 0
M  V30 565 C 57.3048 -2.74332 -2.33268 0
M  V30 566 C 57.1578 -4.15737 -1.71705 0
M  V30 567 C 58.4768 -2.85576 -3.34865 0
M  V30 568 H 55.5958 -0.577826 -0.457478 0
M  V30 569 H 58.2378 -1.81532 -0.560897 0
M  V30 570 H 56.3878 -2.55036 -2.93068 0
M  V30 571 H 58.0598 -4.46537 -1.15769 0
M  V30 572 H 56.3028 -4.21605 -1.02135 0
M  V30 573 H 56.9738 -4.92477 -2.49341 0
M  V30 574 H 59.4498 -3.03127 -2.8505 0
M  V30 575 H 58.3258 -3.68135 -4.07146 0
M  V30 576 H 58.5868 -1.94732 -3.96903 0
M  V30 577 N 57.6459 0.756429 -1.3826 0
M  V30 578 C 58.5559 1.9009 -1.37488 0
M  V30 579 C 59.5719 1.71855 -0.272366 0
M  V30 580 O 60.7479 1.94827 -0.510318 0
M  V30 581 C 57.8129 3.25421 -1.19592 0
M  V30 582 C 56.8739 3.56202 -2.39622 0
M  V30 583 C 56.1069 4.85075 -2.2257 0
M  V30 584 O 56.3299 5.57246 -1.21793 0
M  V30 585 O 55.2639 5.15269 -3.11098 0
M  V30 586 H 59.0899 1.93695 -2.33914 0
M  V30 587 H 56.6749 0.901313 -1.1915 0
M  V30 588 H 58.5569 4.06337 -1.11661 0
M  V30 589 H 57.2319 3.22634 -0.262486 0
M  V30 590 H 56.1389 2.75458 -2.53128 0
M  V30 591 H 57.4719 3.63747 -3.31586 0
M  V30 592 N 59.124 1.23083 0.984299 0
M  V30 593 C 60.087 1.00979 2.05757 0
M  V30 594 C 61.087 -0.0269573 1.60777 0
M  V30 595 O 62.277 0.212403 1.729 0
M  V30 596 C 59.409 0.527072 3.36801 0
M  V30 597 H 60.602 1.9622 2.26799 0
M  V30 598 H 58.155 1.05072 1.15714 0
M  V30 599 H 58.89 -0.429294 3.21446 0
M  V30 600 H 58.675 1.27515 3.70786 0
M  V30 601 H 60.165 0.392942 4.15747 0
M  V30 602 N 60.6021 -1.18246 1.0419 0
M  V30 603 C 61.8271 -1.92736 0.765996 0
M  V30 604 C 62.2521 -1.75728 -0.67091 0
M  V30 605 O 61.6101 -1.06825 -1.46486 0
M  V30 606 C 61.6581 -3.42148 1.13875 0
M  V30 607 O 60.7621 -4.11548 0.264954 0
M  V30 608 H 60.1031 -0.601238 0.281797 0
M  V30 609 H 62.6331 -1.49942 1.39207 0
M  V30 610 H 62.6431 -3.92858 1.1012 0
M  V30 611 H 61.3181 -3.53848 2.18551 0
M  V30 612 H 59.8951 -3.71137 0.362226 0
M  V30 613 N 62.0802 -0.821533 -1.34494 0
M  V30 614 C 63.4962 -0.507117 -1.51329 0
M  V30 615 C 63.6962 0.968964 -1.76673 0
M  V30 616 O 62.7522 1.75348 -1.81685 0
M  V30 617 C 64.0652 -1.36544 -2.67911 0
M  V30 618 C 65.6132 -1.36242 -2.81793 0
M  V30 619 C 66.0882 -2.2052 -4.01416 0
M  V30 620 N 67.5792 -2.18136 -4.08621 0
M  V30 621 C 68.3142 -2.80095 -5.00334 0
M  V30 622 N 67.8102 -3.51039 -5.9728 0
M  V30 623 N 69.6032 -2.69656 -4.93196 0
M  V30 624 H 61.7542 -1.77729 -1.16302 0
M  V30 625 H 64.0172 -0.757291 -0.570276 0
M  V30 626 H 63.7232 -2.41361 -2.55808 0
M  V30 627 H 63.5972 -1.02917 -3.62888 0
M  V30 628 H 65.9842 -0.322041 -2.93338 0
M  V30 629 H 66.0652 -1.73866 -1.87628 0
M  V30 630 H 65.7092 -3.24607 -3.90631 0
M  V30 631 H 65.6392 -1.80247 -4.94791 0
M  V30 632 H 68.1302 -1.6653 -3.39229 0
M  V30 633 H 68.4432 -3.95565 -6.63889 0
M  V30 634 H 66.7882 -3.55145 -5.97409 0
M  V30 635 H 69.9792 -2.13808 -4.16418 0
M  V30 636 H 70.1522 -3.1823 -5.64476 0
M  V30 637 N 63.5583 1.46682 -0.576371 0
M  V30 638 C 64.7863 2.06798 -0.0649635 0
M  V30 639 C 65.2013 1.42612 1.23723 0
M  V30 640 O 64.5583 0.529203 1.74659 0
M  V30 641 C 64.6093 3.6132 0.114202 0
M  V30 642 O 64.3303 4.23104 -1.13644 0
M  V30 643 C 65.8313 4.38349 0.66069 0
M  V30 644 H 63.0513 0.668778 -0.0545616 0
M  V30 645 H 65.5953 1.88404 -0.795237 0
M  V30 646 H 63.7503 3.79162 0.794673 0
M  V30 647 H 64.1643 5.15894 -0.946253 0
M  V30 648 H 65.6383 5.47081 0.73526 0
M  V30 649 H 66.1153 4.05953 1.67627 0
M  V30 650 H 66.7213 4.25297 0.0152951 0
M  V30 651 N 65.0364 0.313813 1.54444 0
M  V30 652 C 66.2854 -0.292519 1.99568 0
M  V30 653 C 66.5984 -1.54011 1.20582 0
M  V30 654 O 67.8044 -2.22183 1.56035 0
M  V30 655 C 66.2604 -0.571752 3.55329 0
M  V30 656 C 65.8684 0.658229 4.43138 0
M  V30 657 C 67.6124 -1.13857 4.08946 0
M  V30 658 C 65.5194 0.351439 5.90355 0
M  V30 659 H 64.4494 -0.113079 0.745472 0
M  V30 660 H 67.1004 0.424518 1.78522 0
M  V30 661 H 65.4824 -1.34872 3.72325 0
M  V30 662 H 66.6564 1.43403 4.37918 0
M  V30 663 H 64.9714 1.14458 4.0036 0
M  V30 664 H 67.5684 -1.38257 5.16516 0
M  V30 665 H 67.9114 -2.08489 3.6033 0
M  V30 666 H 68.4444 -0.423015 3.95544 0
M  V30 667 H 65.1834 1.26667 6.43145 0
M  V30 668 H 64.7034 -0.386842 5.98551 0
M  V30 669 H 66.3824 -0.0423134 6.46986 0
M  V30 670 N 66.5145 -1.57545 0.0417849 0
M  V30 671 C 67.7915 -1.83642 -0.673433 0
M  V30 672 C 68.1715 -0.928298 -1.89594 0
M  V30 673 O 67.5195 0.0129955 -2.28496 0
M  V30 674 C 67.7295 -3.33155 -1.03964 0
M  V30 675 C 69.0775 -3.99941 -1.42592 0
M  V30 676 O 70.1015 -3.37725 -1.13226 0
M  V30 677 O 68.9605 -5.09619 -1.9736 0
M  V30 678 H 66.0545 -0.757638 -0.331533 0
M  V30 679 H 68.6005 -1.69554 0.070433 0
M  V30 680 H 67.3725 -3.9093 -0.170098 0
M  V30 681 H 66.9955 -3.52396 -1.84126 0
M  V30 682 N 67.9926 0.231505 -1.5589 0
M  V30 683 C 68.9556 1.27028 -1.90779 0
M  V30 684 C 69.9556 1.40308 -0.785507 0
M  V30 685 O 71.1456 1.38744 -1.05336 0
M  V30 686 C 68.2776 2.64566 -2.14983 0
M  V30 687 H 69.4706 0.973017 -2.83677 0
M  V30 688 H 67.0236 0.471486 -1.49019 0
M  V30 689 H 67.7586 2.99406 -1.24604 0
M  V30 690 H 67.5436 2.56305 -2.96732 0
M  V30 691 H 69.0336 3.39543 -2.43105 0
M  V30 692 N 69.4707 1.49531 0.497807 0
M  V30 693 C 70.7187 1.58865 1.24926 0
M  V30 694 C 71.0397 0.278721 1.92998 0
M  V30 695 O 70.3097 -0.702144 1.82885 0
M  V30 696 H 68.8897 0.585343 0.464094 0
M  V30 697 H 71.5517 1.86174 0.57666 0
M  V30 698 H 70.6477 2.38633 2.01149 0
M  V30 699 N 70.9488 -0.749086 1.3866 0
M  V30 700 C 72.1968 -1.50535 1.34847 0
M  V30 701 C 72.5178 -1.94909 -0.0595016 0
M  V30 702 O 71.7878 -1.67973 -1.00806 0
M  V30 703 H 70.3678 -0.558395 0.49619 0
M  V30 704 H 73.0298 -0.890165 1.73384 0
M  V30 705 H 72.1258 -2.39413 2.00219 0
M  V30 706 N 72.4269 -1.23603 -0.977757 0
M  V30 707 C 73.3739 -1.01954 -2.07061 0
M  V30 708 C 74.3439 0.0638697 -1.65977 0
M  V30 709 O 75.5289 -0.0887624 -1.90593 0
M  V30 710 C 72.6689 -0.619658 -3.39491 0
M  V30 711 C 71.7819 -1.77547 -3.93829 0
M  V30 712 C 70.9169 -1.32212 -5.14484 0
M  V30 713 C 69.9559 -2.44852 -5.60994 0
M  V30 714 N 69.0929 -2.00456 -6.72876 0
M  V30 715 H 73.9329 -1.95495 -2.24913 0
M  V30 716 H 71.4699 -0.973861 -1.10247 0
M  V30 717 H 73.4279 -0.368898 -4.15566 0
M  V30 718 H 72.0579 0.278752 -3.21594 0
M  V30 719 H 71.1099 -2.14016 -3.14486 0
M  V30 720 H 72.4219 -2.62219 -4.24314 0
M  V30 721 H 71.5759 -1.02965 -5.97899 0
M  V30 722 H 70.3149 -0.445808 -4.85658 0
M  V30 723 H 69.3199 -2.74871 -4.76157 0
M  V30 724 H 70.5449 -3.33024 -5.91837 0
M  V30 725 H 68.4909 -1.15208 -6.45804 0
M  V30 726 H 68.4079 -2.78687 -7.02759 0
M  V30 727 H 69.6759 -1.7432 -7.59758 0
M  V30 728 N 73.905 1.17692 -1.04816 0
M  V30 729 C 75.152 1.87859 -0.75599 0
M  V30 730 C 75.48 1.80812 0.716752 0
M  V30 731 O 74.735 1.20819 1.53952 0
M  V30 732 C 75.034 3.37462 -1.17703 0
M  V30 733 C 74.7 3.64713 -2.65133 0
M  V30 734 C 73.362 3.71859 -3.05408 0
M  V30 735 C 75.714 3.76492 -3.60421 0
M  V30 736 C 73.042 3.88271 -4.39843 0
M  V30 737 C 75.394 3.94421 -4.94585 0
M  V30 738 C 74.058 3.99806 -5.3452 0
M  V30 739 H 73.328 0.687425 -0.276636 0
M  V30 740 H 75.975 1.39255 -1.31455 0
M  V30 741 H 74.28 3.88097 -0.537395 0
M  V30 742 H 75.977 3.90109 -0.928218 0
M  V30 743 H 72.567 3.59772 -2.32942 0
M  V30 744 H 76.751 3.70295 -3.30447 0
M  V30 745 H 72.007 3.90687 -4.70291 0
M  V30 746 H 76.181 4.02477 -5.68318 0
M  V30 747 H 73.808 4.12276 -6.38696 0
M  V30 748 N 75.3831 0.828654 1.34056 0
M  V30 749 C 76.6291 0.42008 1.98402 0
M  V30 750 C 76.9621 -1.01564 1.65525 0
M  V30 751 O 76.2371 -1.70834 0.929831 0
M  V30 752 C 76.5201 0.62927 3.54559 0
M  V30 753 C 76.3731 2.11152 3.97159 0
M  V30 754 C 77.6921 0.0688756 4.40046 0
M  V30 755 H 74.8111 0.154104 0.720709 0
M  V30 756 H 77.4531 1.04228 1.5886 0
M  V30 757 H 75.6031 0.0996418 3.88372 0
M  V30 758 H 77.2751 2.70522 3.73651 0
M  V30 759 H 75.5181 2.59985 3.47261 0
M  V30 760 H 76.1891 2.20868 5.05887 0
M  V30 761 H 78.6651 0.521458 4.1282 0
M  V30 762 H 77.5411 0.245006 5.48353 0
M  V30 763 H 77.8021 -1.0266 4.30015 0
M  V30 764 N 76.8612 -1.46375 0.584142 0
M  V30 765 C 77.7942 -2.27351 -0.196676 0
M  V30 766 C 78.7722 -1.35715 -0.895561 0
M  V30 767 O 79.9562 -1.65126 -0.90916 0
M  V30 768 C 77.0832 -3.13486 -1.28235 0
M  V30 769 C 76.1292 -4.20896 -0.689145 0
M  V30 770 S 76.9622 -5.33299 0.48507 0
M  V30 771 C 78.1182 -6.23 -0.601767 0
M  V30 772 H 78.3512 -2.93228 0.490395 0
M  V30 773 H 75.8842 -1.49875 0.371071 0
M  V30 774 H 77.8422 -3.63676 -1.90395 0
M  V30 775 H 76.5032 -2.4692 -1.94138 0
M  V30 776 H 75.6962 -4.80997 -1.50527 0
M  V30 777 H 75.2982 -3.73726 -0.143181 0
M  V30 778 H 77.5902 -6.60979 -1.48705 0
M  V30 779 H 78.5332 -7.0809 -0.0374799 0
M  V30 780 H 78.9412 -5.57173 -0.906557 0
M  V30 781 N 78.3393 -0.321999 -1.54275 0
M  V30 782 C 79.7503 0.166384 -1.85957 0
M  V30 783 C 80.1013 1.51747 -1.24367 0
M  V30 784 O 79.2263 2.09317 -0.549124 0
M  V30 785 C 79.8213 0.308681 -3.37391 0
M  V30 786 C 78.3803 0.741286 -3.69028 0
M  V30 787 C 77.5273 -0.137937 -2.76957 0
M  V30 788 H 80.4783 -0.542335 -1.49146 0
M  V30 789 H 80.4993 1.13984 -3.63026 0
M  V30 790 H 80.0113 -0.674809 -3.82188 0
M  V30 791 H 78.1123 1.73458 -3.29762 0
M  V30 792 H 78.2253 0.546118 -4.75977 0
M  V30 793 H 76.5893 0.386251 -2.51754 0
M  V30 794 H 77.3723 -1.11816 -3.2458 0
M  V30 795 N 79.8174 1.5752 -0.0501392 0
M  V30 796 C 81.0654 1.9227 0.622642 0
M  V30 797 C 81.3864 0.929083 1.71444 0
M  V30 798 O 80.6564 -0.0262186 1.95882 0
M  V30 799 H 79.2364 0.709739 0.232981 0
M  V30 800 H 81.8984 1.94628 -0.102898 0
M  V30 801 H 80.9944 2.93479 1.06191 0
M  V30 802 N 81.2955 -0.223234 1.56011 0
M  V30 803 C 82.5415 -0.949279 1.79211 0
M  V30 804 C 82.8745 -1.84054 0.619494 0
M  V30 805 O 82.1495 -1.90726 -0.381317 0
M  V30 806 C 82.4325 -1.78965 3.12479 0
M  V30 807 C 82.2855 -0.924997 4.40186 0
M  V30 808 C 83.6045 -2.76774 3.42175 0
M  V30 809 H 80.7235 -0.343676 0.651963 0
M  V30 810 H 83.3655 -0.218253 1.88742 0
M  V30 811 H 81.5155 -2.41291 3.04485 0
M  V30 812 H 83.1875 -0.318615 4.60198 0
M  V30 813 H 81.4305 -0.230344 4.33188 0
M  V30 814 H 82.1015 -1.54735 5.29869 0
M  V30 815 H 84.5775 -2.24584 3.50287 0
M  V30 816 H 83.4535 -3.32678 4.36597 0
M  V30 817 H 83.7145 -3.54429 2.64258 0
M  V30 818 N 82.7736 -1.49793 -0.48987 0
M  V30 819 C 84.0196 -1.60078 -1.24511 0
M  V30 820 C 84.3526 -0.291608 -1.91998 0
M  V30 821 O 83.6276 0.705647 -1.81248 0
M  V30 822 C 83.9106 -2.76791 -2.30345 0
M  V30 823 C 83.7636 -4.17535 -1.67286 0
M  V30 824 C 85.0826 -2.89111 -3.31817 0
M  V30 825 H 82.2016 -0.582645 -0.451324 0
M  V30 826 H 84.8436 -1.82117 -0.541612 0
M  V30 827 H 82.9936 -2.5813 -2.90346 0
M  V30 828 H 84.6656 -4.4774 -1.11026 0
M  V30 829 H 82.9086 -4.22665 -0.976577 0
M  V30 830 H 83.5796 -4.95094 -2.44103 0
M  V30 831 H 86.0556 -3.06133 -2.81819 0
M  V30 832 H 84.9316 -3.72433 -4.03219 0
M  V30 833 H 85.1926 -1.9893 -3.94815 0
M  V30 834 N 84.2517 0.741722 -1.39055 0
M  V30 835 C 85.5287 1.49252 -1.26425 0
M  V30 836 C 85.9087 2.10705 0.129144 0
M  V30 837 O 85.2567 1.98045 1.13976 0
M  V30 838 C 85.4667 2.54934 -2.38347 0
M  V30 839 C 86.8147 3.21506 -2.77343 0
M  V30 840 O 87.8387 2.65245 -2.37747 0
M  V30 841 O 86.6977 4.23294 -3.45665 0
M  V30 842 H 83.7917 0.662451 -0.495064 0
M  V30 843 H 86.3377 0.776121 -1.50912 0
M  V30 844 H 85.1097 2.07857 -3.31529 0
M  V30 845 H 84.7327 3.34141 -2.15489 0
M  V30 846 N 85.7298 1.2412 0.971189 0
M  V30 847 C 86.6398 1.04747 2.09917 0
M  V30 848 C 87.6558 -0.0107162 1.73997 0
M  V30 849 O 88.8318 0.186714 2.00533 0
M  V30 850 C 85.8968 0.650828 3.40537 0
M  V30 851 C 84.9578 1.7851 3.90426 0
M  V30 852 C 84.1908 1.40729 5.14812 0
M  V30 853 O 84.4138 0.29557 5.69634 0
M  V30 854 O 83.3478 2.23168 5.58999 0
M  V30 855 H 87.1738 1.99304 2.29154 0
M  V30 856 H 84.7588 1.02908 1.08307 0
M  V30 857 H 86.6408 0.440992 4.19086 0
M  V30 858 H 85.3158 -0.265649 3.22608 0
M  V30 859 H 84.2228 2.04966 3.12953 0
M  V30 860 H 85.5558 2.68023 4.12825 0
M  V30 861 N 87.2079 -1.17134 1.05439 0
M  V30 862 C 88.1579 -2.1919 0.627675 0
M  V30 863 C 89.1419 -1.57328 -0.337147 0
M  V30 864 O 90.3339 -1.76329 -0.153976 0
M  V30 865 C 87.4629 -3.43299 0.00651435 0
M  V30 866 C 86.5489 -4.12255 0.995312 0
M  V30 867 N 86.9399 -4.56997 2.16765 0
M  V30 868 C 85.2379 -4.38316 0.824336 0
M  V30 869 C 85.9389 -5.10239 2.7934 0
M  V30 870 N 84.9149 -5.02595 2.07122 0
M  V30 871 H 88.7169 -2.5149 1.52086 0
M  V30 872 H 86.2309 -1.33491 0.924868 0
M  V30 873 H 88.2279 -4.15693 -0.316965 0
M  V30 874 H 86.8879 -3.1249 -0.882033 0
M  V30 875 H 87.8989 -4.51006 2.54587 0
M  V30 876 H 84.5759 -4.17498 -0.0129526 0
M  V30 877 H 85.9659 -5.54961 3.78772 0
M  V30 878 N 88.686 -0.835752 -1.33615 0
M  V30 879 C 89.932 -0.430596 -1.98176 0
M  V30 880 C 90.265 1.00684 -1.66061 0
M  V30 881 O 89.54 1.70339 -0.938877 0
M  V30 882 C 89.823 -0.648065 -3.5422 0
M  V30 883 C 89.676 -2.13255 -3.96033 0
M  V30 884 C 90.995 -0.0922113 -4.40003 0
M  V30 885 H 88.114 -0.157924 -0.719881 0
M  V30 886 H 90.756 -1.05069 -1.58305 0
M  V30 887 H 88.906 -0.120237 -3.88314 0
M  V30 888 H 90.578 -2.725 -3.72211 0
M  V30 889 H 88.821 -2.61823 -3.45878 0
M  V30 890 H 89.492 -2.23547 -5.04708 0
M  V30 891 H 91.968 -0.543343 -4.12537 0
M  V30 892 H 90.844 -0.274083 -5.48215 0
M  V30 893 H 91.105 1.00378 -4.30554 0
M  V30 894 N 90.1641 1.46063 -0.591896 0
M  V30 895 C 91.1141 2.27458 0.157172 0
M  V30 896 C 92.0981 1.3641 0.853301 0
M  V30 897 O 93.2901 1.60517 0.74588 0
M  V30 898 C 90.4191 3.22956 1.16423 0
M  V30 899 C 89.5051 4.2149 0.469742 0
M  V30 900 N 89.8961 5.03519 -0.479839 0
M  V30 901 C 88.1941 4.40161 0.719319 0
M  V30 902 C 88.8951 5.74904 -0.886591 0
M  V30 903 N 87.8711 5.43097 -0.233731 0
M  V30 904 H 91.6731 2.88272 -0.572392 0
M  V30 905 H 89.1871 1.57024 -0.414375 0
M  V30 906 H 91.1841 3.79986 1.71513 0
M  V30 907 H 89.8441 2.63701 1.89451 0
M  V30 908 H 90.8551 5.1078 -0.855823 0
M  V30 909 H 87.5321 3.92046 1.43548 0
M  V30 910 H 88.9221 6.50844 -1.66888 0
M  V30 911 N 91.6422 0.330177 1.54103 0
M  V30 912 C 92.8912 -0.271336 1.99867 0
M  V30 913 C 93.2042 -1.52723 1.22209 0
M  V30 914 O 94.4102 -2.20515 1.58383 0
M  V30 915 C 92.8662 -0.534032 3.55916 0
M  V30 916 C 92.4742 0.705193 4.42415 0
M  V30 917 C 94.2182 -1.09514 4.1013 0
M  V30 918 C 92.1252 0.414035 5.89949 0
M  V30 919 H 91.0552 -0.105166 0.74663 0
M  V30 920 H 93.7062 0.443429 1.78062 0
M  V30 921 H 92.0882 -1.30915 3.73734 0
M  V30 922 H 93.2622 1.4804 4.36372 0
M  V30 923 H 91.5772 1.18698 3.99124 0
M  V30 924 H 94.1742 -1.3277 5.17954 0
M  V30 925 H 94.5172 -2.04656 3.62521 0
M  V30 926 H 95.0502 -0.381038 3.95971 0
M  V30 927 H 91.7892 1.33481 6.41766 0
M  V30 928 H 91.3092 -0.323336 5.98928 0
M  V30 929 H 92.9882 0.0263105 6.46995 0
M  V30 930 N 93.1203 -1.57491 0.0584922 0
M  V30 931 C 94.3693 -1.92155 -0.613146 0
M  V30 932 C 94.6823 -0.939334 -1.71569 0
M  V30 933 O 95.8883 -1.17829 -2.44599 0
M  V30 934 C 94.3443 -3.41303 -1.14195 0
M  V30 935 C 93.9523 -4.47944 -0.0711265 0
M  V30 936 C 95.6963 -3.84988 -1.78841 0
M  V30 937 C 93.6033 -5.88212 -0.613225 0
M  V30 938 H 92.5333 -0.717162 -0.232796 0
M  V30 939 H 95.1843 -1.83049 0.12857 0
M  V30 940 H 93.5663 -3.45437 -1.93621 0
M  V30 941 H 94.7403 -4.55408 0.702836 0
M  V30 942 H 93.0553 -4.13644 0.478313 0
M  V30 943 H 95.6523 -4.87159 -2.20408 0
M  V30 944 H 95.9953 -3.21632 -2.64308 0
M  V30 945 H 96.5283 -3.83401 -1.06059 0
M  V30 946 H 93.2673 -6.55183 0.203978 0
M  V30 947 H 92.7873 -5.84294 -1.35501 0
M  V30 948 H 94.4663 -6.37687 -1.09383 0
M  V30 949 N 94.5984 0.214957 -1.56127 0
M  V30 950 C 95.8754 0.963093 -1.70247 0
M  V30 951 C 96.2554 2.02166 -0.60764 0
M  V30 952 O 95.6034 2.25244 0.384385 0
M  V30 953 C 95.8134 1.56756 -3.11815 0
M  V30 954 C 97.1614 2.0573 -3.7143 0
M  V30 955 O 98.1854 1.66637 -3.14818 0
M  V30 956 O 97.0444 2.77603 -4.70743 0
M  V30 957 H 94.1384 0.450321 -0.693643 0
M  V30 958 H 96.6844 0.206219 -1.68442 0
M  V30 959 H 95.4564 0.803533 -3.82961 0
M  V30 960 H 95.0794 2.3898 -3.17765 0
M  V30 961 N 96.0765 1.50051 0.48192 0
M  V30 962 C 97.0095 1.62749 1.59963 0
M  V30 963 C 97.9875 0.475903 1.5548 0
M  V30 964 O 99.1715 0.693986 1.7526 0
M  V30 965 C 96.2985 1.60008 2.98522 0
M  V30 966 C 95.3445 2.80596 3.21198 0
M  V30 967 S 96.1775 4.42038 3.02262 0
M  V30 968 C 97.3335 4.41973 4.43182 0
M  V30 969 H 97.5665 2.57296 1.4895 0
M  V30 970 H 95.0995 1.39179 0.668477 0
M  V30 971 H 97.0575 1.59112 3.78409 0
M  V30 972 H 95.7185 0.667153 3.06933 0
M  V30 973 H 94.9115 2.74952 4.22395 0
M  V30 974 H 94.5135 2.79003 2.49065 0
M  V30 975 H 96.8055 4.14868 5.35622 0
M  V30 976 H 97.7485 5.43512 4.53873 0
M  V30 977 H 98.1565 3.71812 4.24755 0
M  V30 978 N 97.5546 -0.734337 1.39446 0
M  V30 979 C 98.8316 -1.48579 1.27215 0
M  V30 980 C 99.2116 -2.1077 -0.117968 0
M  V30 981 O 98.5596 -1.98646 -1.12924 0
M  V30 982 C 98.7696 -2.53667 2.39696 0
M  V30 983 C 100.118 -3.20031 2.79044 0
M  V30 984 O 101.142 -2.6398 2.39151 0
M  V30 985 O 100.001 -4.21455 3.47905 0
M  V30 986 H 97.0946 -0.659816 0.49857 0
M  V30 987 H 99.6406 -0.768106 1.51322 0
M  V30 988 H 98.4126 -2.06096 3.32626 0
M  V30 989 H 98.0356 -3.32994 2.17258 0
M  V30 990 N 99.0327 -1.24633 -0.964593 0
M  V30 991 C 99.9627 -1.06611 -2.07741 0
M  V30 992 C 100.944 0.0218666 -1.70086 0
M  V30 993 O 102.129 -0.145793 -1.93652 0
M  V30 994 C 99.2587 -0.673444 -3.40708 0
M  V30 995 C 98.2127 -1.71054 -3.92332 0
M  V30 996 C 97.5387 -1.17285 -5.21678 0
M  V30 997 C 98.8387 -3.10718 -4.19824 0
M  V30 998 H 100.533 -1.99693 -2.23076 0
M  V30 999 H 98.0787 -0.96152 -1.07195 0
M  V30 1000 H 100.032 -0.534345 -4.17998 0
M  V30 1001 H 98.7557 0.293073 -3.25282 0
M  V30 1002 H 97.4147 -1.83791 -3.17201 0
M  V30 1003 H 97.0627 -0.196847 -5.02615 0
M  V30 1004 H 96.7627 -1.86592 -5.57187 0
M  V30 1005 H 98.2867 -1.04593 -6.01575 0
M  V30 1006 H 99.7007 -3.01192 -4.87808 0
M  V30 1007 H 98.0977 -3.77406 -4.66567 0
M  V30 1008 H 99.1677 -3.58524 -3.26479 0
M  V30 1009 N 100.511 1.16574 -1.06058 0
M  V30 1010 C 101.458 2.20883 -0.669263 0
M  V30 1011 C 102.428 1.62729 0.332918 0
M  V30 1012 O 103.613 1.895 0.222346 0
M  V30 1013 C 100.753 3.45049 -0.0593572 0
M  V30 1014 C 99.8658 4.17458 -1.11143 0
M  V30 1015 C 99.0008 5.29135 -0.467916 0
M  V30 1016 C 98.0398 5.93343 -1.50369 0
M  V30 1017 N 97.1768 6.96516 -0.883706 0
M  V30 1018 H 102.017 2.53709 -1.5632 0
M  V30 1019 H 99.5538 1.24616 -0.781625 0
M  V30 1020 H 101.512 4.16033 0.311771 0
M  V30 1021 H 100.142 3.12781 0.797992 0
M  V30 1022 H 99.1938 3.45101 -1.60029 0
M  V30 1023 H 100.506 4.61307 -1.89731 0
M  V30 1024 H 99.6598 6.06684 -0.0436871 0
M  V30 1025 H 98.3988 4.86443 0.349864 0
M  V30 1026 H 97.4038 5.14517 -1.93784 0
M  V30 1027 H 98.6288 6.38114 -2.32352 0
M  V30 1028 H 96.5748 6.55943 -0.086595 0
M  V30 1029 H 96.4918 7.38723 -1.607 0
M  V30 1030 H 97.7598 7.77993 -0.484543 0
M  V30 1031 N 101.989 0.842826 1.3317 0
M  V30 1032 C 102.937 0.267495 2.31057 0
M  V30 1033 C 103.931 -0.602682 1.58316 0
M  V30 1034 O 105.137 -0.491803 1.73151 0
M  V30 1035 H 101.512 0.0677813 0.748939 0
M  V30 1036 H 103.483 1.10754 2.77085 0
M  V30 1037 C 102.232 -0.539331 3.43492 0
M  V30 1038 H 101.555 0.12095 3.99617 0
M  V30 1039 H 102.995 -0.90767 4.14171 0
M  V30 1040 C 101.454 -1.71981 2.89697 0
M  V30 1041 O 101.984 -2.81862 2.86211 0
M  V30 1042 N 100.19 -1.54299 2.46252 0
M  V30 1043 H 99.7369 -0.649143 2.49287 0
M  V30 1044 H 99.6949 -2.33431 2.10612 0
M  V30 1045 N 103.467 -1.45747 0.599634 0
M  V30 1046 C 104.883 -1.57424 0.26264 0
M  V30 1047 C 105.083 -1.59222 -1.23493 0
M  V30 1048 O 104.139 -1.51825 -2.01756 0
M  V30 1049 C 105.452 -2.86061 0.926795 0
M  V30 1050 C 107 -2.99722 0.901967 0
M  V30 1051 C 107.475 -4.31119 1.54598 0
M  V30 1052 N 108.966 -4.37858 1.5111 0
M  V30 1053 C 109.701 -5.3818 1.97863 0
M  V30 1054 N 109.197 -6.45083 2.52666 0
M  V30 1055 N 110.99 -5.29487 1.88679 0
M  V30 1056 H 103.141 -1.42823 1.57211 0
M  V30 1057 H 105.404 -0.68235 0.658105 0
M  V30 1058 H 105.11 -2.90605 1.98095 0
M  V30 1059 H 104.984 -3.74563 0.445238 0
M  V30 1060 H 107.371 -2.9475 -0.143617 0
M  V30 1061 H 107.452 -2.12652 1.42171 0
M  V30 1062 H 107.096 -4.36849 2.59085 0
M  V30 1063 H 107.026 -5.16992 1.00132 0
M  V30 1064 H 109.517 -3.61209 1.11068 0
M  V30 1065 H 109.83 -7.17869 2.86155 0
M  V30 1066 H 108.175 -6.45856 2.56701 0
M  V30 1067 H 111.366 -4.44877 1.4561 0
M  V30 1068 H 111.539 -6.07524 2.25429 0
M  V30 1069 N 104.945 -0.338344 -1.53925 0
M  V30 1070 C 106.175 0.260919 -2.04946 0
M  V30 1071 C 106.583 1.45174 -1.2133 0
M  V30 1072 O 105.926 1.82122 -0.240262 0
M  V30 1073 C 105.988 0.744596 -3.51704 0
M  V30 1074 C 105.652 -0.325883 -4.55837 0
M  V30 1075 C 106.649 -1.16687 -5.06636 0
M  V30 1076 C 104.334 -0.478317 -5.00017 0
M  V30 1077 C 106.328 -2.14588 -6.00192 0
M  V30 1078 C 104.015 -1.46073 -5.93385 0
M  V30 1079 C 105.013 -2.29297 -6.4336 0
M  V30 1080 O 104.701 -3.25867 -7.34892 0
M  V30 1081 H 104.433 0.0551207 -0.673749 0
M  V30 1082 H 106.987 -0.486984 -1.99544 0
M  V30 1083 H 105.217 1.54366 -3.54553 0
M  V30 1084 H 106.906 1.26383 -3.85723 0
M  V30 1085 H 107.672 -1.06016 -4.73271 0
M  V30 1086 H 103.551 0.159613 -4.60724 0
M  V30 1087 H 107.095 -2.79585 -6.39123 0
M  V30 1088 H 102.992 -1.56802 -6.26166 0
M  V30 1089 H 103.76 -3.21278 -7.5281 0
M  V30 1090 N 106.423 1.57458 -0.0668435 0
M  V30 1091 C 107.671 1.92919 0.602214 0
M  V30 1092 C 107.992 0.947215 1.70449 0
M  V30 1093 O 107.262 -0.00544117 1.95899 0
M  V30 1094 H 105.842 0.71217 0.22544 0
M  V30 1095 H 108.504 1.94508 -0.123535 0
M  V30 1096 H 107.6 2.94589 1.03073 0
M  V30 1097 N 107.901 -0.206675 1.56239 0
M  V30 1098 C 109.317 -0.557025 1.49564 0
M  V30 1099 C 109.517 -1.86424 0.764735 0
M  V30 1100 O 108.573 -2.50584 0.310491 0
M  V30 1101 C 109.886 -0.622478 2.94186 0
M  V30 1102 C 111.434 -0.712099 3.04792 0
M  V30 1103 C 111.909 -0.808767 4.50803 0
M  V30 1104 N 113.4 -0.8726 4.54907 0
M  V30 1105 C 114.135 -0.967365 5.65181 0
M  V30 1106 N 113.631 -1.02515 6.85173 0
M  V30 1107 N 115.424 -1.00366 5.53067 0
M  V30 1108 H 107.575 0.650943 2.02179 0
M  V30 1109 H 109.838 0.230387 0.919579 0
M  V30 1110 H 109.544 0.268727 3.50672 0
M  V30 1111 H 109.418 -1.4811 3.46905 0
M  V30 1112 H 111.805 -1.59374 2.48363 0
M  V30 1113 H 111.886 0.172489 2.55218 0
M  V30 1114 H 111.53 0.0684754 5.07854 0
M  V30 1115 H 111.46 -1.70899 4.98098 0
M  V30 1116 H 113.951 -0.837657 3.68499 0
M  V30 1117 H 114.264 -1.09765 7.64965 0
M  V30 1118 H 112.609 -0.994026 6.87855 0
M  V30 1119 H 115.8 -0.95527 4.58249 0
M  V30 1120 H 115.973 -1.07405 6.39037 0
M  V30 1121 N 109.379 -1.50304 -0.473955 0
M  V30 1122 C 110.626 -1.6115 -1.22625 0
M  V30 1123 C 110.954 -0.310517 -1.92005 0
M  V30 1124 O 110.209 0.703419 -1.82621 0
M  V30 1125 C 110.508 -2.73938 -2.29549 0
M  V30 1126 C 110.174 -4.14519 -1.7744 0
M  V30 1127 C 108.836 -4.5277 -1.62949 0
M  V30 1128 C 111.188 -5.02392 -1.3875 0
M  V30 1129 C 108.516 -5.76639 -1.08187 0
M  V30 1130 C 110.868 -6.26805 -0.854309 0
M  V30 1131 C 109.532 -6.63861 -0.696011 0
M  V30 1132 H 108.802 -0.589691 -0.448715 0
M  V30 1133 H 111.449 -1.84228 -0.522705 0
M  V30 1134 H 109.754 -2.44937 -3.05799 0
M  V30 1135 H 111.451 -2.79534 -2.87509 0
M  V30 1136 H 108.041 -3.8434 -1.89685 0
M  V30 1137 H 112.225 -4.73474 -1.4878 0
M  V30 1138 H 107.481 -6.04027 -0.946666 0
M  V30 1139 H 111.655 -6.94258 -0.545843 0
M  V30 1140 H 109.282 -7.59722 -0.26952 0
M  V30 1141 N 110.857 0.726932 -1.39834 0
M  V30 1142 C 111.767 1.87131 -1.41489 0
M  V30 1143 C 112.783 1.71239 -0.308757 0
M  V30 1144 O 113.959 1.93701 -0.551529 0
M  V30 1145 C 111.024 3.22811 -1.26468 0
M  V30 1146 C 110.085 3.51039 -2.47124 0
M  V30 1147 C 109.318 4.80245 -2.3281 0
M  V30 1148 O 109.541 5.54537 -1.33585 0
M  V30 1149 O 108.475 5.08554 -3.21957 0
M  V30 1150 H 112.301 1.8869 -2.3797 0
M  V30 1151 H 109.886 0.875837 -1.21035 0
M  V30 1152 H 111.768 4.03877 -1.20255 0
M  V30 1153 H 110.443 3.22005 -0.330862 0
M  V30 1154 H 109.35 2.70027 -2.58914 0
M  V30 1155 H 110.683 3.56632 -3.39227 0
M  V30 1156 N 112.336 1.25143 0.95797 0
M  V30 1157 C 113.266 1.07711 2.07173 0
M  V30 1158 C 114.247 -0.0128462 1.70095 0
M  V30 1159 O 115.432 0.156061 1.93572 0
M  V30 1160 C 112.562 0.691503 3.40346 0
M  V30 1161 C 111.516 1.73132 3.9142 0
M  V30 1162 C 110.842 1.20049 5.21049 0
M  V30 1163 C 112.142 3.1294 4.1817 0
M  V30 1164 H 113.836 2.00873 2.22014 0
M  V30 1165 H 111.382 0.967191 1.06684 0
M  V30 1166 H 113.335 0.556505 4.17709 0
M  V30 1167 H 112.059 -0.275819 3.25433 0
M  V30 1168 H 110.718 1.8547 3.16222 0
M  V30 1169 H 110.366 0.223499 5.02503 0
M  V30 1170 H 110.066 1.89545 5.56189 0
M  V30 1171 H 111.59 1.07782 6.01012 0
M  V30 1172 H 113.004 3.03775 4.86203 0
M  V30 1173 H 111.401 3.79875 4.64559 0
M  V30 1174 H 112.471 3.6025 3.24573 0
M  V30 1175 N 113.814 -1.1601 1.06675 0
M  V30 1176 C 115.091 -1.82679 0.699114 0
M  V30 1177 C 115.471 -1.94559 -0.819137 0
M  V30 1178 O 114.819 -1.49169 -1.73092 0
M  V30 1179 C 115.029 -3.19445 1.40555 0
M  V30 1180 C 116.377 -3.95171 1.55323 0
M  V30 1181 O 117.401 -3.28976 1.36577 0
M  V30 1182 O 116.26 -5.13833 1.86112 0
M  V30 1183 H 113.354 -0.788954 0.247951 0
M  V30 1184 H 115.9 -1.23179 1.16726 0
M  V30 1185 H 114.672 -3.05856 2.44065 0
M  V30 1186 H 114.295 -3.86625 0.927733 0
M  V30 1187 N 115.292 -0.849877 -1.32721 0
M  V30 1188 C 116.517 -0.463856 -2.02146 0
M  V30 1189 C 116.942 0.930449 -1.63476 0
M  V30 1190 O 116.3 1.61033 -0.832952 0
M  V30 1191 C 116.348 -0.604955 -3.55489 0
M  V30 1192 O 115.452 0.36425 -4.10788 0
M  V30 1193 H 114.793 -0.187046 -0.637111 0
M  V30 1194 H 117.323 -1.14775 -1.69375 0
M  V30 1195 H 117.333 -0.490696 -4.05038 0
M  V30 1196 H 116.008 -1.62174 -3.82978 0
M  V30 1197 H 114.585 0.206628 -3.72327 0
M  V30 1198 N 116.77 1.45427 -0.607355 0
M  V30 1199 C 117.68 2.34325 0.113463 0
M  V30 1200 C 118.696 1.51226 0.860617 0
M  V30 1201 O 119.872 1.84029 0.818255 0
M  V30 1202 C 116.937 3.28839 1.09844 0
M  V30 1203 C 115.998 4.27844 0.353271 0
M  V30 1204 C 115.231 5.17842 1.29133 0
M  V30 1205 O 115.454 5.11264 2.52913 0
M  V30 1206 O 114.388 5.96713 0.788523 0
M  V30 1207 H 118.214 2.97364 -0.617094 0
M  V30 1208 H 115.799 1.44807 -0.367619 0
M  V30 1209 H 117.681 3.8708 1.66575 0
M  V30 1210 H 116.356 2.68365 1.81003 0
M  V30 1211 H 115.263 3.7322 -0.256494 0
M  V30 1212 H 116.596 4.91173 -0.317822 0
M  V30 1213 N 118.248 0.346503 1.53744 0
M  V30 1214 C 119.473 -0.253074 2.0585 0
M  V30 1215 C 119.898 -1.43202 1.21962 0
M  V30 1216 O 119.256 -1.79783 0.234073 0
M  V30 1217 C 119.304 -0.643193 3.54817 0
M  V30 1218 O 118.408 -1.74286 3.73762 0
M  V30 1219 H 117.749 -0.0413583 0.662711 0
M  V30 1220 H 120.279 0.501574 1.98357 0
M  V30 1221 H 120.289 -0.919526 3.97503 0
M  V30 1222 H 118.964 0.218966 4.15323 0
M  V30 1223 H 117.541 -1.46356 3.42979 0
M  V30 1224 N 119.726 -1.57421 0.075193 0
M  V30 1225 C 120.689 -2.11791 -0.876203 0
M  V30 1226 C 121.689 -1.04268 -1.22412 0
M  V30 1227 O 122.879 -1.30242 -1.15684 0
M  V30 1228 C 120.011 -2.62207 -2.17854 0
M  V30 1229 H 121.204 -2.9716 -0.40444 0
M  V30 1230 H 118.757 -1.55333 -0.173557 0
M  V30 1231 H 119.492 -1.803 -2.6956 0
M  V30 1232 H 119.277 -3.40802 -1.93897 0
M  V30 1233 H 120.767 -3.04335 -2.85955 0
M  V30 1234 N 121.204 0.198386 -1.56346 0
M  V30 1235 C 122.167 1.22952 -1.93431 0
M  V30 1236 C 123.167 1.38611 -0.815092 0
M  V30 1237 O 124.357 1.36479 -1.08255 0
M  V30 1238 C 121.489 2.59946 -2.20546 0
M  V30 1239 H 122.682 0.912626 -2.85677 0
M  V30 1240 H 120.235 0.43977 -1.49986 0
M  V30 1241 H 120.97 2.96696 -1.30927 0
M  V30 1242 H 120.755 2.49953 -3.02102 0
M  V30 1243 H 122.245 3.3431 -2.50253 0
M  V30 1244 N 122.682 1.50554 0.465978 0
M  V30 1245 C 123.928 1.62038 1.21949 0
M  V30 1246 C 124.261 0.322116 1.9151 0
M  V30 1247 O 123.536 -0.676723 1.82348 0
M  V30 1248 C 123.819 2.80421 2.25912 0
M  V30 1249 C 123.672 4.20144 1.60622 0
M  V30 1250 C 124.991 2.94354 3.27176 0
M  V30 1251 H 122.11 0.589752 0.441998 0
M  V30 1252 H 124.752 1.82956 0.51257 0
M  V30 1253 H 122.902 2.62717 2.86203 0
M  V30 1254 H 124.574 4.49449 1.03889 0
M  V30 1255 H 122.817 4.24165 0.909211 0
M  V30 1256 H 123.488 4.98914 2.36196 0
M  V30 1257 H 125.964 3.10578 2.76913 0
M  V30 1258 H 124.84 3.788 3.97242 0
M  V30 1259 H 125.101 2.05186 3.916 0
M  V30 1260 N 124.16 -0.719506 1.40217 0
M  V30 1261 C 125.408 -1.47641 1.3801 0
M  V30 1262 C 125.729 -1.94992 -0.018145 0
M  V30 1263 O 124.999 -1.70073 -0.972207 0
M  V30 1264 H 123.579 -0.547744 0.507923 0
M  V30 1265 H 126.241 -0.853187 1.75233 0
M  V30 1266 H 125.337 -2.35112 2.05253 0
M  V30 1267 N 125.638 -1.25649 -0.95132 0
M  V30 1268 C 126.886 -1.10375 -1.69298 0
M  V30 1269 C 127.207 0.355339 -1.91735 0
M  V30 1270 O 126.477 1.25188 -1.50681 0
M  V30 1271 H 125.057 -0.405461 -0.627384 0
M  V30 1272 H 127.719 -1.57823 -1.14358 0
M  V30 1273 H 126.815 -1.61465 -2.67087 0
M  V30 1274 N 127.117 1.15442 -1.07289 0
M  V30 1275 C 128.366 1.85557 -0.790669 0
M  V30 1276 C 128.679 1.83186 0.685739 0
M  V30 1277 O 129.885 2.48977 1.0827 0
M  V30 1278 C 128.341 3.33038 -1.36433 0
M  V30 1279 C 127.949 3.43856 -2.8717 0
M  V30 1280 C 129.693 4.0834 -1.1601 0
M  V30 1281 C 127.6 4.85482 -3.3773 0
M  V30 1282 H 126.53 0.695122 -0.292098 0
M  V30 1283 H 129.181 1.30219 -1.29287 0
M  V30 1284 H 127.563 3.88043 -0.789864 0
M  V30 1285 H 128.737 2.98961 -3.50655 0
M  V30 1286 H 127.052 2.81998 -3.06376 0
M  V30 1287 H 129.649 5.12859 -1.51262 0
M  V30 1288 H 129.992 4.16182 -0.0991007 0
M  V30 1289 H 130.525 3.59603 -1.70089 0
M  V30 1290 H 127.264 4.82823 -4.43353 0
M  V30 1291 H 126.784 5.30961 -2.78999 0
M  V30 1292 H 128.463 5.54335 -3.33648 0
M  V30 1293 N 128.595 0.856903 1.32268 0
M  V30 1294 C 129.823 0.475439 2.01363 0
M  V30 1295 C 130.238 -0.928486 1.64392 0
M  V30 1296 O 129.595 -1.60624 0.866387 0
M  V30 1297 C 129.646 0.607545 3.56358 0
M  V30 1298 O 129.367 1.95617 3.92002 0
M  V30 1299 C 130.868 0.225382 4.42727 0
M  V30 1300 H 128.088 0.186636 0.644521 0
M  V30 1301 H 130.632 1.15446 1.68797 0
M  V30 1302 H 128.787 -0.0237719 3.87393 0
M  V30 1303 H 129.201 1.95455 4.86721 0
M  V30 1304 H 130.675 0.368813 5.50767 0
M  V30 1305 H 131.152 -0.834369 4.31202 0
M  V30 1306 H 131.758 0.831864 4.17085 0
M  V30 1307 N 130.073 -1.45103 0.615059 0
M  V30 1308 C 131.301 -2.06553 0.11977 0
M  V30 1309 C 131.716 -1.45842 -1.19898 0
M  V30 1310 O 131.073 -0.575325 -1.73194 0
M  V30 1311 C 131.124 -3.61495 -0.018364 0
M  V30 1312 O 130.845 -4.19942 1.24822 0
M  V30 1313 C 132.346 -4.39947 -0.544237 0
M  V30 1314 H 129.566 -0.667096 0.0722739 0
M  V30 1315 H 132.11 -1.8623 0.84491 0
M  V30 1316 H 130.265 -3.81135 -0.693865 0
M  V30 1317 H 130.679 -5.13204 1.0827 0
M  V30 1318 H 132.153 -5.48838 -0.589953 0
M  V30 1319 H 132.63 -4.10255 -1.56805 0
M  V30 1320 H 133.236 -4.25188 0.0974703 0
M  V30 1321 N 131.551 -0.354651 -1.53558 0
M  V30 1322 C 132.8 0.239504 -2.00273 0
M  V30 1323 C 133.113 1.50759 -1.24623 0
M  V30 1324 O 134.319 2.17968 -1.61871 0
M  V30 1325 C 132.775 0.477341 -3.5672 0
M  V30 1326 C 132.383 -0.775488 -4.41237 0
M  V30 1327 C 134.127 1.02975 -4.11821 0
M  V30 1328 C 132.034 -0.507838 -5.89216 0
M  V30 1329 H 130.964 0.0932743 -0.748208 0
M  V30 1330 H 133.615 -0.471701 -1.77334 0
M  V30 1331 H 131.997 1.24953 -3.7577 0
M  V30 1332 H 133.171 -1.54963 -4.33962 0
M  V30 1333 H 131.486 -1.25033 -3.97185 0
M  V30 1334 H 134.083 1.24513 -5.2 0
M  V30 1335 H 134.426 1.98862 -3.65731 0
M  V30 1336 H 134.959 0.317994 -3.96527 0
M  V30 1337 H 131.698 -1.43674 -6.39561 0
M  V30 1338 H 131.218 0.228011 -5.99366 0
M  V30 1339 H 132.897 -0.129238 -6.46871 0
M  V30 1340 N 133.029 1.57378 -0.0835403 0
M  V30 1341 C 134.278 1.93106 0.582498 0
M  V30 1342 C 134.591 0.96651 1.70053 0
M  V30 1343 O 135.797 1.21705 2.42693 0
M  V30 1344 C 134.253 3.43076 1.08751 0
M  V30 1345 C 133.861 4.48 -0.000146404 0
M  V30 1346 C 135.605 3.87785 1.72694 0
M  V30 1347 C 133.512 5.89113 0.519568 0
M  V30 1348 H 132.442 0.720775 0.221358 0
M  V30 1349 H 135.093 1.82821 -0.157675 0
M  V30 1350 H 133.475 3.48474 1.88101 0
M  V30 1351 H 134.649 4.54233 -0.775199 0
M  V30 1352 H 132.964 4.1283 -0.54406 0
M  V30 1353 H 135.561 4.90604 2.1263 0
M  V30 1354 H 135.904 3.25796 2.59158 0
M  V30 1355 H 136.437 3.8504 0.999457 0
M  V30 1356 H 133.176 6.54775 -0.308186 0
M  V30 1357 H 132.696 5.86376 1.26188 0
M  V30 1358 H 134.375 6.39346 0.992237 0
M  V30 1359 N 134.507 -0.190092 1.56449 0
M  V30 1360 C 135.417 -1.25591 1.98152 0
M  V30 1361 C 136.433 -1.49519 0.889944 0
M  V30 1362 O 137.609 -1.62036 1.19609 0
M  V30 1363 C 134.674 -2.57916 2.3169 0
M  V30 1364 C 133.735 -2.42015 3.5458 0
M  V30 1365 C 132.968 -3.6803 3.8651 0
M  V30 1366 O 133.191 -4.72413 3.1966 0
M  V30 1367 O 132.125 -3.6326 4.79923 0
M  V30 1368 H 135.951 -0.931988 2.89046 0
M  V30 1369 H 133.536 -0.395488 1.4407 0
M  V30 1370 H 135.418 -3.36008 2.54316 0
M  V30 1371 H 134.093 -2.89925 1.43963 0
M  V30 1372 H 133 -1.62017 3.37196 0
M  V30 1373 H 134.333 -2.14937 4.4279 0
M  V30 1374 N 135.985 -1.50799 -0.457987 0
M  V30 1375 C 136.918 -1.65273 -1.57353 0
M  V30 1376 C 137.896 -0.500578 -1.54703 0
M  V30 1377 O 139.08 -0.721781 -1.74134 0
M  V30 1378 C 136.207 -1.64737 -2.95938 0
M  V30 1379 C 135.253 -2.8567 -3.16693 0
M  V30 1380 S 136.086 -4.46791 -2.95191 0
M  V30 1381 C 137.242 -4.48968 -4.36095 0
M  V30 1382 H 137.475 -2.59633 -1.44838 0
M  V30 1383 H 135.008 -1.40225 -0.64625 0
M  V30 1384 H 136.966 -1.65112 -3.7583 0
M  V30 1385 H 135.627 -0.715899 -3.05833 0
M  V30 1386 H 134.82 -2.81637 -4.17967 0
M  V30 1387 H 134.422 -2.8293 -2.44594 0
M  V30 1388 H 136.714 -4.23337 -5.28954 0
M  V30 1389 H 137.657 -5.50664 -4.45168 0
M  V30 1390 H 138.065 -3.78522 -4.18786 0
M  V30 1391 N 137.463 0.71206 -1.40597 0
M  V30 1392 C 138.874 1.29135 -1.34837 0
M  V30 1393 C 139.225 1.96186 -0.0235395 0
M  V30 1394 O 138.35 1.97768 0.878444 0
M  V30 1395 C 138.945 2.34827 -2.44217 0
M  V30 1396 C 137.504 2.88371 -2.41907 0
M  V30 1397 C 136.651 1.62202 -2.24913 0
M  V30 1398 H 139.602 0.507944 -1.50352 0
M  V30 1399 H 139.623 3.15749 -2.12327 0
M  V30 1400 H 139.135 1.85996 -3.40627 0
M  V30 1401 H 137.236 3.41422 -1.49204 0
M  V30 1402 H 137.349 3.39925 -3.37621 0
M  V30 1403 H 135.713 1.874 -1.72492 0
M  V30 1404 H 136.496 1.15391 -3.23326 0
M  V30 1405 N 138.941 1.26152 0.944643 0
M  V30 1406 C 140.19 1.10883 1.68487 0
M  V30 1407 C 140.503 -0.348153 1.92477 0
M  V30 1408 O 141.709 -0.621459 2.64292 0
M  V30 1409 C 140.165 1.93624 3.03377 0
M  V30 1410 C 139.773 3.43875 2.87148 0
M  V30 1411 C 141.517 1.86954 3.81115 0
M  V30 1412 C 139.424 4.18875 4.1749 0
M  V30 1413 H 138.354 0.41135 0.631907 0
M  V30 1414 H 141.005 1.50433 1.05082 0
M  V30 1415 H 139.387 1.46904 3.67743 0
M  V30 1416 H 140.561 3.98338 2.31653 0
M  V30 1417 H 138.876 3.51744 2.22856 0
M  V30 1418 H 141.473 2.40275 4.77673 0
M  V30 1419 H 141.816 0.839518 4.07747 0
M  V30 1420 H 142.349 2.31477 3.23517 0
M  V30 1421 H 139.088 5.22332 3.96043 0
M  V30 1422 H 138.608 3.69193 4.72712 0
M  V30 1423 H 140.287 4.27134 4.85968 0
M  V30 1424 N 140.419 -1.14872 1.07899 0
M  V30 1425 C 141.647 -1.89661 0.82683 0
M  V30 1426 C 142.062 -1.78312 -0.620519 0
M  V30 1427 O 141.419 -1.13888 -1.42604 0
M  V30 1428 C 141.47 -3.39817 1.23316 0
M  V30 1429 O 141.191 -3.50845 2.62372 0
M  V30 1430 C 142.692 -4.31615 1.0111 0
M  V30 1431 H 139.912 -0.60092 0.298557 0
M  V30 1432 H 142.456 -1.4551 1.43691 0
M  V30 1433 H 140.611 -3.8161 0.667286 0
M  V30 1434 H 141.025 -4.44076 2.79101 0
M  V30 1435 H 142.499 -5.35367 1.34486 0
M  V30 1436 H 142.976 -4.39169 -0.0522168 0
M  V30 1437 H 143.582 -3.95572 1.56215 0
M  V30 1438 N 141.898 -0.863906 -1.31812 0
M  V30 1439 C 143.145 -0.471836 -1.96926 0
M  V30 1440 C 143.473 0.974578 -1.68322 0
M  V30 1441 O 142.728 1.7003 -0.968933 0
M  V30 1442 C 143.027 -0.668547 -3.51091 0
M  V30 1443 C 142.693 -2.08683 -3.99703 0
M  V30 1444 C 141.355 -2.47471 -4.12688 0
M  V30 1445 C 143.707 -3.01207 -4.25351 0
M  V30 1446 C 141.035 -3.78037 -4.4867 0
M  V30 1447 C 143.387 -4.31282 -4.62794 0
M  V30 1448 C 142.051 -4.69992 -4.73987 0
M  V30 1449 H 141.321 -0.172657 -0.720604 0
M  V30 1450 H 143.968 -1.09573 -1.57054 0
M  V30 1451 H 142.273 0.0385252 -3.91781 0
M  V30 1452 H 143.97 -0.345102 -3.99512 0
M  V30 1453 H 140.56 -1.77566 -3.90087 0
M  V30 1454 H 144.744 -2.72469 -4.14819 0
M  V30 1455 H 140 -4.078 -4.55532 0
M  V30 1456 H 144.174 -5.03031 -4.81594 0
M  V30 1457 H 141.801 -5.71207 -5.01624 0
M  V30 1458 N 143.376 1.44774 -0.622745 0
M  V30 1459 C 144.787 1.85546 -0.207226 0
M  V30 1460 C 145.138 1.52093 1.23944 0
M  V30 1461 O 144.263 0.95492 1.94191 0
M  V30 1462 C 144.858 3.36781 -0.369313 0
M  V30 1463 C 143.417 3.76399 -0.00836847 0
M  V30 1464 C 142.564 2.68664 -0.686651 0
M  V30 1465 H 145.515 1.3536 -0.828454 0
M  V30 1466 H 145.536 3.78453 0.394162 0
M  V30 1467 H 145.048 3.61098 -1.42231 0
M  V30 1468 H 143.149 3.57698 1.04322 0
M  V30 1469 H 143.262 4.7732 -0.412584 0
M  V30 1470 H 141.626 2.54404 -0.122777 0
M  V30 1471 H 142.409 2.95815 -1.74208 0
M  V30 1472 N 144.854 0.36279 1.53368 0
M  V30 1473 C 146.265 -0.117022 1.86333 0
M  V30 1474 C 146.616 -1.48397 1.28347 0
M  V30 1475 O 145.741 -2.07787 0.604428 0
M  V30 1476 C 146.336 -0.21912 3.38091 0
M  V30 1477 C 144.895 -0.643184 3.70864 0
M  V30 1478 C 144.042 0.211318 2.76494 0
M  V30 1479 H 146.993 0.581687 1.47655 0
M  V30 1480 H 147.014 -1.04319 3.6592 0
M  V30 1481 H 146.526 0.775902 3.80265 0
M  V30 1482 H 144.627 -1.64654 3.34245 0
M  V30 1483 H 144.74 -0.41973 4.77258 0
M  V30 1484 H 143.104 -0.319367 2.5269 0
M  V30 1485 H 143.887 1.20383 3.21501 0
M  V30 1486 N 146.332 -1.57332 0.0918853 0
M  V30 1487 C 147.56 -1.98574 -0.581048 0
M  V30 1488 C 147.975 -0.970903 -1.61923 0
M  V30 1489 O 147.332 0.0399054 -1.82456 0
M  V30 1490 C 147.383 -3.39872 -1.23164 0
M  V30 1491 O 147.104 -4.37469 -0.234989 0
M  V30 1492 C 148.605 -3.96099 -1.99049 0
M  V30 1493 H 145.825 -0.65261 -0.156018 0
M  V30 1494 H 148.369 -2.0379 0.170225 0
M  V30 1495 H 146.524 -3.35679 -1.93386 0
M  V30 1496 H 146.938 -5.19751 -0.70418 0
M  V30 1497 H 148.412 -4.97127 -2.39934 0
M  V30 1498 H 148.889 -3.3374 -2.85507 0
M  V30 1499 H 149.495 -4.03755 -1.3365 0
M  V30 1500 N 147.81 0.181792 -1.56548 0
M  V30 1501 C 149.038 0.915947 -1.85521 0
M  V30 1502 C 149.453 1.76282 -0.676016 0
M  V30 1503 O 148.81 1.79012 0.355077 0
M  V30 1504 C 148.861 1.80126 -3.13427 0
M  V30 1505 O 148.582 0.988562 -4.26801 0
M  V30 1506 C 150.083 2.64597 -3.55673 0
M  V30 1507 H 147.303 0.26661 -0.61576 0
M  V30 1508 H 149.847 0.185039 -2.03661 0
M  V30 1509 H 148.002 2.48563 -2.97145 0
M  V30 1510 H 148.416 1.59308 -4.99721 0
M  V30 1511 H 149.89 3.2235 -4.48101 0
M  V30 1512 H 150.367 3.38958 -2.79292 0
M  V30 1513 H 150.973 2.0151 -3.74532 0
M  V30 1514 N 149.288 1.51039 0.449983 0
M  V30 1515 C 150.516 1.66869 1.2232 0
M  V30 1516 C 150.931 0.360727 1.85322 0
M  V30 1517 O 150.288 -0.659531 1.70166 0
M  V30 1518 C 150.339 2.77524 2.31652 0
M  V30 1519 O 150.06 4.03252 1.7123 0
M  V30 1520 C 151.561 3.04512 3.2216 0
M  V30 1521 H 148.781 0.560326 0.369155 0
M  V30 1522 H 151.325 1.97385 0.534719 0
M  V30 1523 H 149.48 2.49642 2.96239 0
M  V30 1524 H 149.894 4.64609 2.43389 0
M  V30 1525 H 151.368 3.85551 3.95038 0
M  V30 1526 H 151.845 2.16415 3.8218 0
M  V30 1527 H 152.451 3.34005 2.63288 0
M  V30 1528 N 150.766 -0.704594 1.40972 0
M  V30 1529 C 151.696 -1.83124 1.44872 0
M  V30 1530 C 152.677 -1.67281 0.30838 0
M  V30 1531 O 153.862 -1.87149 0.518556 0
M  V30 1532 C 150.992 -3.21181 1.32136 0
M  V30 1533 C 149.946 -3.51714 2.43888 0
M  V30 1534 C 149.272 -4.89032 2.16222 0
M  V30 1535 C 150.572 -3.516 3.86232 0
M  V30 1536 H 152.266 -1.80117 2.39161 0
M  V30 1537 H 149.812 -0.865145 1.15114 0
M  V30 1538 H 151.765 -3.99702 1.33479 0
M  V30 1539 H 150.489 -3.24791 0.343279 0
M  V30 1540 H 149.148 -2.75539 2.41813 0
M  V30 1541 H 148.796 -4.89256 1.16778 0
M  V30 1542 H 148.496 -5.10426 2.911 0
M  V30 1543 H 150.02 -5.69873 2.19265 0
M  V30 1544 H 151.434 -4.2014 3.9007 0
M  V30 1545 H 149.831 -3.84523 4.60719 0
M  V30 1546 H 150.901 -2.50757 4.15029 0
M  V30 1547 N 152.244 -1.26651 -0.937939 0
M  V30 1548 C 153.521 -1.0313 -1.66204 0
M  V30 1549 C 153.901 0.437256 -2.06522 0
M  V30 1550 O 153.249 1.41831 -1.79154 0
M  V30 1551 C 153.459 -1.98314 -2.87181 0
M  V30 1552 C 154.807 -2.27107 -3.58758 0
M  V30 1553 O 155.831 -1.96205 -2.97291 0
M  V30 1554 O 154.69 -2.79736 -4.69479 0
M  V30 1555 H 151.784 -0.392384 -0.727986 0
M  V30 1556 H 154.33 -1.37874 -0.989382 0
M  V30 1557 H 153.102 -2.97399 -2.54302 0
M  V30 1558 H 152.725 -1.64068 -3.6217 0
M  V30 1559 N 153.722 1.14298 -1.08507 0
M  V30 1560 C 154.685 2.17607 -0.719711 0
M  V30 1561 C 155.685 1.58907 0.245997 0
M  V30 1562 O 156.875 1.74181 0.0254081 0
M  V30 1563 C 154.007 3.40842 -0.0627695 0
M  V30 1564 H 155.2 2.51443 -1.63452 0
M  V30 1565 H 152.753 1.28963 -0.88307 0
M  V30 1566 H 153.488 3.12587 0.863716 0
M  V30 1567 H 153.273 3.84713 -0.757504 0
M  V30 1568 H 154.763 4.17221 0.177786 0
M  V30 1569 N 155.201 0.870884 1.31352 0
M  V30 1570 C 156.448 0.482273 1.96673 0
M  V30 1571 C 156.776 -0.965638 1.68836 0
M  V30 1572 O 156.031 -1.69514 0.977937 0
M  V30 1573 C 156.33 0.687157 3.50732 0
M  V30 1574 C 155.996 2.108 3.9859 0
M  V30 1575 C 154.658 2.49656 4.1137 0
M  V30 1576 C 157.01 3.03459 4.23748 0
M  V30 1577 C 154.338 3.80412 4.46659 0
M  V30 1578 C 156.69 4.3373 4.60501 0
M  V30 1579 C 155.354 4.725 4.71487 0
M  V30 1580 H 154.624 0.176476 0.719679 0
M  V30 1581 H 157.271 1.10405 1.56471 0
M  V30 1582 H 155.576 -0.0177476 3.91796 0
M  V30 1583 H 157.273 0.366284 3.99324 0
M  V30 1584 H 153.863 1.79633 3.8914 0
M  V30 1585 H 158.047 2.74665 4.13368 0
M  V30 1586 H 153.303 4.1021 4.53362 0
M  V30 1587 H 157.477 5.05578 4.78919 0
M  V30 1588 H 155.104 5.73859 4.98588 0
M  V30 1589 N 156.679 -1.44442 0.630414 0
M  V30 1590 C 157.609 -2.33418 -0.0618083 0
M  V30 1591 C 158.59 -1.48165 -0.835541 0
M  V30 1592 O 159.775 -1.76886 -0.801564 0
M  V30 1593 C 156.905 -3.31222 -1.04449 0
M  V30 1594 C 155.859 -4.26288 -0.382436 0
M  V30 1595 C 155.185 -5.13954 -1.47497 0
M  V30 1596 C 156.485 -5.1744 0.710865 0
M  V30 1597 H 158.179 -2.91548 0.681184 0
M  V30 1598 H 155.725 -1.40191 0.329026 0
M  V30 1599 H 157.678 -3.92351 -1.53748 0
M  V30 1600 H 156.402 -2.71299 -1.81836 0
M  V30 1601 H 155.061 -3.6649 0.0899054 0
M  V30 1602 H 154.709 -4.50385 -2.2397 0
M  V30 1603 H 154.409 -5.7837 -1.03737 0
M  V30 1604 H 155.933 -5.77955 -1.96979 0
M  V30 1605 H 157.347 -5.72509 0.300996 0
M  V30 1606 H 155.744 -5.90455 1.07156 0
M  V30 1607 H 156.814 -4.58496 1.57829 0
M  V30 1608 N 158.157 -0.370918 -1.53173 0
M  V30 1609 C 159.067 0.480823 -2.2962 0
M  V30 1610 C 160.083 1.08789 -1.35798 0
M  V30 1611 O 161.259 1.09768 -1.68858 0
M  V30 1612 C 158.324 1.60227 -3.07454 0
M  V30 1613 C 157.385 1.0222 -4.16953 0
M  V30 1614 C 156.618 2.0902 -4.91066 0
M  V30 1615 O 156.841 3.30222 -4.65091 0
M  V30 1616 O 155.775 1.71778 -5.76867 0
M  V30 1617 H 159.601 -0.141421 -3.03371 0
M  V30 1618 H 157.186 -0.135146 -1.48787 0
M  V30 1619 H 159.068 2.25417 -3.56041 0
M  V30 1620 H 157.743 2.20982 -2.36535 0
M  V30 1621 H 156.65 0.334064 -3.72605 0
M  V30 1622 H 157.983 0.459131 -4.90054 0
M  V30 1623 N 159.635 1.57281 -0.100228 0
M  V30 1624 C 160.582 2.14305 0.856858 0
M  V30 1625 C 161.552 1.06296 1.27634 0
M  V30 1626 O 162.737 1.34109 1.35718 0
M  V30 1627 C 159.877 2.73184 2.10866 0
M  V30 1628 C 158.99 3.95442 1.73925 0
M  V30 1629 C 158.125 4.42468 2.93931 0
M  V30 1630 C 157.164 5.57303 2.5314 0
M  V30 1631 N 156.301 5.99158 3.65997 0
M  V30 1632 H 161.141 2.95772 0.363726 0
M  V30 1633 H 158.678 1.46139 0.167858 0
M  V30 1634 H 160.636 3.05442 2.84185 0
M  V30 1635 H 159.266 1.94437 2.57671 0
M  V30 1636 H 158.318 3.69464 0.905554 0
M  V30 1637 H 159.63 4.78769 1.39935 0
M  V30 1638 H 158.784 4.76537 3.75496 0
M  V30 1639 H 157.523 3.58052 3.31134 0
M  V30 1640 H 156.528 5.22857 1.70003 0
M  V30 1641 H 157.753 6.43471 2.17075 0
M  V30 1642 H 155.699 5.17687 4.02909 0
M  V30 1643 H 155.616 6.77295 3.35869 0
M  V30 1644 H 156.884 6.3786 4.48057 0
M  V30 1645 N 161.113 -0.173488 1.56642 0
M  V30 1646 C 162.06 -1.21482 1.96242 0
M  V30 1647 C 163.03 -1.44104 0.826027 0
M  V30 1648 O 164.215 -1.5688 1.08597 0
M  V30 1649 C 161.355 -2.54964 2.32567 0
M  V30 1650 C 160.468 -2.39739 3.59373 0
M  V30 1651 C 159.603 -3.66072 3.84921 0
M  V30 1652 C 158.642 -3.45771 5.05083 0
M  V30 1653 N 157.779 -4.64169 5.26775 0
M  V30 1654 H 162.619 -0.870123 2.85014 0
M  V30 1655 H 160.156 -0.418245 1.41029 0
M  V30 1656 H 162.114 -3.32758 2.5165 0
M  V30 1657 H 160.744 -2.87433 1.46908 0
M  V30 1658 H 159.796 -1.53131 3.48217 0
M  V30 1659 H 161.108 -2.20683 4.47326 0
M  V30 1660 H 160.262 -4.52303 4.0436 0
M  V30 1661 H 159.001 -3.88105 2.9534 0
M  V30 1662 H 158.006 -2.57927 4.85545 0
M  V30 1663 H 159.231 -3.25163 5.96193 0
M  V30 1664 H 157.177 -4.86425 4.40144 0
M  V30 1665 H 157.094 -4.48019 6.08946 0
M  V30 1666 H 158.362 -5.51689 5.5069 0
M  V30 1667 N 162.591 -1.51276 -0.441967 0
M  V30 1668 C 163.538 -1.72256 -1.53612 0
M  V30 1669 C 164.508 -0.564164 -1.56225 0
M  V30 1670 O 165.693 -0.798074 -1.73307 0
M  V30 1671 C 162.833 -1.84932 -2.91366 0
M  V30 1672 C 161.946 -3.12459 -2.98317 0
M  V30 1673 C 161.081 -3.15758 -4.27166 0
M  V30 1674 C 160.12 -4.37619 -4.27967 0
M  V30 1675 N 159.257 -4.38493 -5.48333 0
M  V30 1676 H 164.097 -2.65654 -1.35026 0
M  V30 1677 H 161.634 -1.31662 -0.656009 0
M  V30 1678 H 163.592 -1.90263 -3.7129 0
M  V30 1679 H 162.222 -0.949461 -3.08521 0
M  V30 1680 H 161.274 -3.1646 -2.11086 0
M  V30 1681 H 162.586 -4.02382 -2.94771 0
M  V30 1682 H 161.74 -3.19979 -5.15459 0
M  V30 1683 H 160.479 -2.23715 -4.33362 0
M  V30 1684 H 159.484 -4.33579 -3.38067 0
M  V30 1685 H 160.709 -5.30921 -4.23438 0
M  V30 1686 H 158.655 -3.49318 -5.55259 0
M  V30 1687 H 158.572 -5.22219 -5.46647 0
M  V30 1688 H 159.84 -4.469 -6.38671 0
M  V30 1689 N 164.069 0.697108 -1.41344 0
M  V30 1690 C 165.001 1.8224 -1.39001 0
M  V30 1691 C 166.014 1.60152 -0.292428 0
M  V30 1692 O 167.203 1.69684 -0.554048 0
M  V30 1693 C 164.303 3.18976 -1.14489 0
M  V30 1694 C 163.476 3.68105 -2.36258 0
M  V30 1695 C 162.535 4.83506 -2.07625 0
M  V30 1696 O 161.561 4.95201 -2.8065 0
M  V30 1697 N 162.763 5.70637 -1.06555 0
M  V30 1698 H 165.528 1.84742 -2.35988 0
M  V30 1699 H 163.089 0.87937 -1.35936 0
M  V30 1700 H 165.081 3.93801 -0.932885 0
M  V30 1701 H 163.651 3.11508 -0.261043 0
M  V30 1702 H 162.871 2.84204 -2.7317 0
M  V30 1703 H 164.159 3.97667 -3.17393 0
M  V30 1704 H 163.557 5.63817 -0.461125 0
M  V30 1705 H 162.114 6.45368 -0.913444 0
M  V30 1706 N 165.547 1.27147 0.931209 0
M  V30 1707 C 166.51 1.09615 2.01289 0
M  V30 1708 C 167.51 0.0412581 1.60747 0
M  V30 1709 O 168.7 0.285545 1.71844 0
M  V30 1710 C 165.832 0.669447 3.34262 0
M  V30 1711 H 167.025 2.05662 2.18273 0
M  V30 1712 H 164.578 1.09885 1.11153 0
M  V30 1713 H 165.313 -0.292572 3.22978 0
M  V30 1714 H 165.098 1.43127 3.65044 0
M  V30 1715 H 166.588 0.568921 4.13706 0
M  V30 1716 N 167.025 -1.13721 1.09112 0
M  V30 1717 C 168.273 -1.84559 0.823562 0
M  V30 1718 C 168.594 -1.83754 -0.652658 0
M  V30 1719 O 167.864 -1.29102 -1.47342 0
M  V30 1720 H 166.444 -0.683376 0.301673 0
M  V30 1721 H 169.106 -1.37771 1.37859 0
M  V30 1722 H 168.202 -2.8917 1.17419 0
M  V30 1723 N 168.503 -0.877838 -1.30888 0
M  V30 1724 C 169.435 -0.296607 -2.27273 0
M  V30 1725 C 170.448 0.544799 -1.53414 0
M  V30 1726 O 171.637 0.365511 -1.74718 0
M  V30 1727 C 168.737 0.597481 -3.33592 0
M  V30 1728 C 167.91 -0.213251 -4.3688 0
M  V30 1729 C 166.969 0.610208 -5.2265 0
M  V30 1730 O 165.995 0.035441 -5.69189 0
M  V30 1731 N 167.197 1.92071 -5.47804 0
M  V30 1732 H 169.962 -1.12492 -2.77787 0
M  V30 1733 H 167.523 -0.740105 -1.43993 0
M  V30 1734 H 169.515 1.15425 -3.87891 0
M  V30 1735 H 168.085 1.32647 -2.83061 0
M  V30 1736 H 167.305 -0.951466 -3.82545 0
M  V30 1737 H 168.593 -0.769262 -5.02951 0
M  V30 1738 H 167.991 2.4107 -5.11763 0
M  V30 1739 H 166.548 2.42508 -6.05007 0
M  V30 1740 N 169.982 1.44106 -0.638065 0
M  V30 1741 C 171.398 1.56672 -0.304286 0
M  V30 1742 C 171.598 1.6244 1.19228 0
M  V30 1743 O 170.654 1.57121 1.9766 0
M  V30 1744 C 171.967 2.83503 -1.00231 0
M  V30 1745 C 173.515 2.97226 -0.981116 0
M  V30 1746 C 173.99 4.26868 -1.65974 0
M  V30 1747 N 175.481 4.33698 -1.62666 0
M  V30 1748 C 176.216 5.32745 -2.12063 0
M  V30 1749 N 175.712 6.38157 -2.6968 0
M  V30 1750 N 177.505 5.24299 -2.02651 0
M  V30 1751 H 169.656 1.38605 -1.60942 0
M  V30 1752 H 171.919 0.664661 -0.675965 0
M  V30 1753 H 171.625 2.85251 -2.0573 0
M  V30 1754 H 171.499 3.73251 -0.54439 0
M  V30 1755 H 173.886 2.95027 0.0654188 0
M  V30 1756 H 173.967 2.08808 -1.47759 0
M  V30 1757 H 173.611 4.29826 -2.70576 0
M  V30 1758 H 173.541 5.14156 -1.13804 0
M  V30 1759 H 176.032 3.58138 -1.20606 0
M  V30 1760 H 176.345 7.10029 -3.05087 0
M  V30 1761 H 174.69 6.38823 -2.73734 0
M  V30 1762 H 177.881 4.4086 -1.57353 0
M  V30 1763 H 178.054 6.01334 -2.41457 0
M  V30 1764 N 171.46 0.379036 1.52974 0
M  V30 1765 C 172.39 -0.452706 2.29069 0
M  V30 1766 C 173.371 -1.07237 1.32039 0
M  V30 1767 O 174.556 -1.08708 1.60923 0
M  V30 1768 C 171.686 -1.5856 3.08992 0
M  V30 1769 C 170.64 -1.0925 4.13822 0
M  V30 1770 C 169.966 -2.31668 4.81907 0
M  V30 1771 C 171.266 -0.167702 5.22031 0
M  V30 1772 H 172.96 0.182181 2.98845 0
M  V30 1773 H 170.506 0.0890592 1.43724 0
M  V30 1774 H 172.459 -2.1742 3.6098 0
M  V30 1775 H 171.183 -2.24792 2.36931 0
M  V30 1776 H 169.842 -0.526494 3.628 0
M  V30 1777 H 169.49 -2.96386 4.06404 0
M  V30 1778 H 169.19 -1.9934 5.52754 0
M  V30 1779 H 170.714 -2.91189 5.36695 0
M  V30 1780 H 172.128 -0.664186 5.6944 0
M  V30 1781 H 170.525 0.0653265 6.00064 0
M  V30 1782 H 171.595 0.786347 4.78482 0
M  V30 1783 N 172.938 -1.57226 0.108567 0
M  V30 1784 C 173.885 -2.14756 -0.845481 0
M  V30 1785 C 174.855 -1.06971 -1.27068 0
M  V30 1786 O 176.04 -1.34827 -1.35005 0
M  V30 1787 C 173.18 -2.74298 -2.09415 0
M  V30 1788 C 172.293 -3.96358 -1.71826 0
M  V30 1789 C 171.428 -4.44021 -2.9158 0
M  V30 1790 C 170.467 -5.58637 -2.50181 0
M  V30 1791 N 169.604 -6.01091 -3.62814 0
M  V30 1792 H 174.444 -2.95961 -0.348035 0
M  V30 1793 H 171.981 -1.46226 -0.160106 0
M  V30 1794 H 173.939 -3.06945 -2.82561 0
M  V30 1795 H 172.569 -1.95801 -2.56636 0
M  V30 1796 H 171.621 -3.69939 -0.885947 0
M  V30 1797 H 172.933 -4.79504 -1.37394 0
M  V30 1798 H 172.087 -4.78522 -3.72963 0
M  V30 1799 H 170.826 -3.59803 -3.29231 0
M  V30 1800 H 169.831 -5.23751 -1.67228 0
M  V30 1801 H 171.056 -6.44613 -2.13659 0
M  V30 1802 H 169.002 -5.19817 -4.00158 0
M  V30 1803 H 168.919 -6.79066 -3.32273 0
M  V30 1804 H 170.187 -6.40227 -4.44668 0
M  V30 1805 N 174.416 0.165178 -1.56732 0
M  V30 1806 C 175.662 0.882112 -1.82611 0
M  V30 1807 C 175.995 1.81628 -0.687378 0
M  V30 1808 O 175.27 1.92009 0.310267 0
M  V30 1809 C 175.553 1.67245 -3.18906 0
M  V30 1810 C 175.406 0.760987 -4.43316 0
M  V30 1811 C 176.725 2.63884 -3.52212 0
M  V30 1812 H 173.844 0.319242 -0.664269 0
M  V30 1813 H 176.486 0.148052 -1.89422 0
M  V30 1814 H 174.636 2.29824 -3.1323 0
M  V30 1815 H 176.308 0.147596 -4.61064 0
M  V30 1816 H 174.551 0.0694102 -4.33744 0
M  V30 1817 H 175.222 1.34962 -5.35247 0
M  V30 1818 H 177.698 2.11429 -3.58381 0
M  V30 1819 H 176.574 3.16245 -4.48643 0
M  V30 1820 H 176.835 3.44377 -2.77231 0
M  V30 1821 N 175.894 1.51508 0.433938 0
M  V30 1822 C 177.171 1.54888 1.19453 0
M  V30 1823 C 177.551 0.315154 2.08734 0
M  V30 1824 O 176.899 -0.699558 2.17528 0
M  V30 1825 C 177.109 2.86467 1.99342 0
M  V30 1826 C 178.457 3.38545 2.56267 0
M  V30 1827 O 179.481 2.88041 2.0955 0
M  V30 1828 O 178.34 4.26675 3.41483 0
M  V30 1829 H 175.434 0.622863 0.544032 0
M  V30 1830 H 177.98 1.63823 0.442732 0
M  V30 1831 H 176.752 3.67718 1.33788 0
M  V30 1832 H 176.375 2.8071 2.8158 0
M  V30 1833 N 177.372 -0.689602 1.41712 0
M  V30 1834 C 178.619 -1.44966 1.4139 0
M  V30 1835 C 178.947 -1.94484 0.025105 0
M  V30 1836 O 178.202 -1.70307 -0.964048 0
M  V30 1837 C 178.501 -2.67298 2.37247 0
M  V30 1838 C 178.167 -2.36405 3.83958 0
M  V30 1839 C 176.829 -2.27691 4.23923 0
M  V30 1840 C 179.181 -2.11043 4.76561 0
M  V30 1841 C 176.509 -1.91719 5.54492 0
M  V30 1842 C 178.861 -1.76578 6.07456 0
M  V30 1843 C 177.525 -1.66363 6.46436 0
M  V30 1844 H 176.795 -0.53047 0.517381 0
M  V30 1845 H 179.442 -0.787655 1.74552 0
M  V30 1846 H 177.747 -3.38461 1.9736 0
M  V30 1847 H 179.444 -3.25452 2.34269 0
M  V30 1848 H 176.034 -2.44085 3.52308 0
M  V30 1849 H 180.218 -2.16717 4.46483 0
M  V30 1850 H 175.474 -1.82367 5.83568 0
M  V30 1851 H 179.648 -1.55974 6.78708 0
M  V30 1852 H 177.275 -1.38258 7.47522 0
M  V30 1853 N 178.85 -1.27639 -0.924453 0
M  V30 1854 C 179.813 -1.10681 -2.00705 0
M  V30 1855 C 180.813 -0.0497823 -1.60723 0
M  V30 1856 O 182.003 -0.294654 -1.7169 0
M  V30 1857 C 179.135 -0.687164 -3.33902 0
M  V30 1858 H 180.328 -2.06817 -2.17179 0
M  V30 1859 H 177.881 -1.10473 -1.10569 0
M  V30 1860 H 178.616 0.275439 -3.23128 0
M  V30 1861 H 178.401 -1.45061 -3.6428 0
M  V30 1862 H 179.891 -0.590853 -4.13399 0
M  V30 1863 N 180.328 1.1314 -1.09713 0
M  V30 1864 C 181.258 2.20748 -0.761102 0
M  V30 1865 C 182.239 1.68061 0.262566 0
M  V30 1866 O 183.424 1.93765 0.129977 0
M  V30 1867 C 180.554 3.46812 -0.184054 0
M  V30 1868 C 179.508 4.12606 -1.13757 0
M  V30 1869 C 178.834 5.33031 -0.422083 0
M  V30 1870 C 180.134 4.59603 -2.48118 0
M  V30 1871 H 181.828 2.49113 -1.66082 0
M  V30 1872 H 179.374 1.19734 -0.799987 0
M  V30 1873 H 181.327 4.21353 0.0631215 0
M  V30 1874 H 180.051 3.17851 0.750868 0
M  V30 1875 H 178.71 3.40036 -1.37007 0
M  V30 1876 H 178.358 5.00335 0.517072 0
M  V30 1877 H 178.058 5.77999 -1.05788 0
M  V30 1878 H 179.582 6.10325 -0.183277 0
M  V30 1879 H 180.996 5.25552 -2.29059 0
M  V30 1880 H 179.393 5.15321 -3.07514 0
M  V30 1881 H 180.463 3.73971 -3.08665 0
M  V30 1882 N 181.806 0.884767 1.30421 0
M  V30 1883 C 183.036 0.517293 2.00019 0
M  V30 1884 C 183.444 -0.898632 1.66497 0
M  V30 1885 O 182.787 -1.60245 0.898181 0
M  V30 1886 C 182.849 0.612025 3.54252 0
M  V30 1887 C 182.513 1.99222 4.1129 0
M  V30 1888 C 183.51 2.9616 4.273 0
M  V30 1889 C 181.195 2.29755 4.46674 0
M  V30 1890 C 183.189 4.21764 4.77906 0
M  V30 1891 C 180.876 3.55606 4.96979 0
M  V30 1892 C 181.874 4.51425 5.12547 0
M  V30 1893 O 181.562 5.75043 5.61766 0
M  V30 1894 H 181.294 0.198529 0.64619 0
M  V30 1895 H 183.848 1.1919 1.67281 0
M  V30 1896 H 182.078 -0.119561 3.86515 0
M  V30 1897 H 183.767 0.255859 4.05093 0
M  V30 1898 H 184.533 2.73882 4.00267 0
M  V30 1899 H 180.412 1.55942 4.33824 0
M  V30 1900 H 183.956 4.96561 4.89972 0
M  V30 1901 H 179.853 3.7772 5.23448 0
M  V30 1902 H 180.621 5.77422 5.80109 0
M  V30 1903 N 183.284 -1.43765 0.645699 0
M  V30 1904 C 184.532 -2.01499 0.155731 0
M  V30 1905 C 184.853 -1.51151 -1.232 0
M  V30 1906 O 184.123 -0.721044 -1.82148 0
M  V30 1907 H 182.703 -0.745003 0.0545817 0
M  V30 1908 H 185.365 -1.76075 0.835677 0
M  V30 1909 H 184.461 -3.1181 0.134577 0
M  V30 1910 N 184.763 -0.387143 -1.52771 0
M  V30 1911 C 186.011 0.195349 -2.01154 0
M  V30 1912 C 186.332 1.475 -1.27549 0
M  V30 1913 O 185.602 1.91878 -0.394924 0
M  V30 1914 H 184.182 0.075178 -0.743207 0
M  V30 1915 H 186.844 -0.518337 -1.87881 0
M  V30 1916 H 185.94 0.407096 -3.09434 0
M  V30 1917 N 186.241 1.57166 -0.116904 0
M  V30 1918 C 187.489 1.94737 0.540533 0
M  V30 1919 C 187.81 1.00096 1.67349 0
M  V30 1920 O 187.08 0.0568854 1.95817 0
M  V30 1921 H 185.66 0.718981 0.202669 0
M  V30 1922 H 188.322 1.94017 -0.185353 0
M  V30 1923 H 187.418 2.97719 0.936483 0
M  V30 1924 N 187.719 -0.156864 1.56817 0
M  V30 1925 C 188.965 -0.872416 1.83076 0
M  V30 1926 C 189.298 -1.81261 0.697001 0
M  V30 1927 O 188.573 -1.92171 -0.30008 0
M  V30 1928 C 188.856 -1.65551 3.19789 0
M  V30 1929 C 188.709 -0.737467 4.43713 0
M  V30 1930 C 190.028 -2.62012 3.53606 0
M  V30 1931 H 187.147 -0.315715 0.665953 0
M  V30 1932 H 189.789 -0.138004 1.89498 0
M  V30 1933 H 187.939 -2.28159 3.14445 0
M  V30 1934 H 189.611 -0.123143 4.61136 0
M  V30 1935 H 187.854 -0.0464067 4.33775 0
M  V30 1936 H 188.525 -1.32122 5.35955 0
M  V30 1937 H 191.001 -2.09525 3.59497 0
M  V30 1938 H 189.877 -3.13861 4.50314 0
M  V30 1939 H 190.138 -3.42902 2.79053 0
M  V30 1940 N 189.197 -1.51736 -0.425897 0
M  V30 1941 C 190.608 -1.5732 -1.00536 0
M  V30 1942 C 190.959 -0.403537 -1.92005 0
M  V30 1943 O 190.084 0.478256 -2.11049 0
M  V30 1944 C 190.679 -2.85119 -1.8301 0
M  V30 1945 C 189.238 -2.93236 -2.35987 0
M  V30 1946 C 188.385 -2.52098 -1.15508 0
M  V30 1947 H 191.336 -1.57348 -0.206739 0
M  V30 1948 H 191.357 -2.69526 -2.68581 0
M  V30 1949 H 190.869 -3.7023 -1.16411 0
M  V30 1950 H 188.97 -2.12581 -3.06007 0
M  V30 1951 H 189.083 -3.9713 -2.68001 0
M  V30 1952 H 187.447 -2.05558 -1.50393 0
M  V30 1953 H 188.23 -3.39565 -0.505014 0
M  V30 1954 N 190.675 0.682077 -1.42076 0
M  V30 1955 C 191.923 1.4393 -1.41876 0
M  V30 1956 C 192.244 1.94971 -0.0335599 0
M  V30 1957 O 191.514 1.72591 0.926773 0
M  V30 1958 H 190.094 0.534085 -0.522267 0
M  V30 1959 H 192.756 0.806427 -1.77434 0
M  V30 1960 H 191.852 2.29588 -2.11414 0
M  V30 1961 N 192.153 1.28127 0.917671 0
M  V30 1962 C 193.101 1.11569 2.04096 0
M  V30 1963 C 194.095 0.0360242 1.69362 0
M  V30 1964 O 195.301 0.194501 1.78946 0
M  V30 1965 H 191.676 0.344097 0.668656 0
M  V30 1966 H 193.647 2.06711 2.15205 0
M  V30 1967 C 192.396 0.790197 3.38602 0
M  V30 1968 H 191.719 1.61293 3.6582 0
M  V30 1969 H 193.159 0.714271 4.1794 0
M  V30 1970 C 191.618 -0.505897 3.3308 0
M  V30 1971 O 192.148 -1.53736 3.71117 0
M  V30 1972 N 190.354 -0.505193 2.86175 0
M  V30 1973 H 189.901 0.334621 2.55417 0
M  V30 1974 H 189.859 -1.37243 2.82863 0
M  V30 1975 N 193.631 -1.12557 1.10312 0
M  V30 1976 C 194.561 -2.20341 0.772798 0
M  V30 1977 C 195.542 -1.68198 -0.25365 0
M  V30 1978 O 196.727 -1.93831 -0.119699 0
M  V30 1979 C 193.857 -3.46709 0.202443 0
M  V30 1980 C 192.811 -4.11996 1.15943 0
M  V30 1981 C 192.137 -5.328 0.450345 0
M  V30 1982 C 193.437 -4.5828 2.50552 0
M  V30 1983 H 195.131 -2.48229 1.674 0
M  V30 1984 H 192.677 -1.19308 0.806326 0
M  V30 1985 H 194.63 -4.2138 -0.0407752 0
M  V30 1986 H 193.354 -3.18245 -0.734001 0
M  V30 1987 H 192.013 -3.39305 1.38808 0
M  V30 1988 H 191.661 -5.00602 -0.490531 0
M  V30 1989 H 191.361 -5.7743 1.08851 0
M  V30 1990 H 192.885 -6.10219 0.215642 0
M  V30 1991 H 194.299 -5.2433 2.31843 0
M  V30 1992 H 192.696 -5.13683 3.10242 0
M  V30 1993 H 193.766 -3.72329 3.10643 0
M  V30 1994 N 195.109 -0.891671 -1.2995 0
M  V30 1995 C 196.52 -0.563104 -1.78006 0
M  V30 1996 C 196.871 0.920978 -1.73241 0
M  V30 1997 O 195.996 1.71987 -1.31337 0
M  V30 1998 C 196.591 -1.01539 -3.23226 0
M  V30 1999 C 195.15 -0.738124 -3.69092 0
M  V30 2000 C 194.297 -1.19461 -2.50249 0
M  V30 2001 H 197.248 -1.07522 -1.16725 0
M  V30 2002 H 197.269 -0.347217 -3.78912 0
M  V30 2003 H 196.781 -2.09555 -3.26662 0
M  V30 2004 H 194.882 0.329766 -3.71138 0
M  V30 2005 H 194.995 -1.33037 -4.60259 0
M  V30 2006 H 193.359 -0.613787 -2.47194 0
M  V30 2007 H 194.142 -2.28265 -2.56417 0
M  V30 2008 N 196.587 1.43421 -0.653314 0
M  V30 2009 C 197.497 2.34568 0.0388565 0
M  V30 2010 C 198.513 1.53888 0.81207 0
M  V30 2011 O 199.689 1.86539 0.759294 0
M  V30 2012 C 196.754 3.32167 0.993269 0
M  V30 2013 C 195.815 4.28751 0.216977 0
M  V30 2014 C 195.048 5.21688 1.12593 0
M  V30 2015 O 195.271 5.19052 2.36519 0
M  V30 2016 O 194.205 5.98919 0.598284 0
M  V30 2017 H 198.031 2.95251 -0.711386 0
M  V30 2018 H 195.616 1.43564 -0.413502 0
M  V30 2019 H 197.498 3.92183 1.54176 0
M  V30 2020 H 196.173 2.73987 1.72374 0
M  V30 2021 H 195.08 3.72215 -0.375101 0
M  V30 2022 H 196.413 4.89913 -0.473924 0
M  V30 2023 N 198.065 0.39524 1.52563 0
M  V30 2024 C 199.314 -0.186321 2.00838 0
M  V30 2025 C 199.627 -1.47402 1.28577 0
M  V30 2026 O 200.833 -2.13599 1.67593 0
M  V30 2027 C 199.289 -0.382595 3.57861 0
M  V30 2028 C 198.897 0.892202 4.39026 0
M  V30 2029 C 200.641 -0.9202 4.14406 0
M  V30 2030 C 198.548 0.66388 5.87662 0
M  V30 2031 H 197.478 -0.0734041 0.750418 0
M  V30 2032 H 200.129 0.518552 1.76021 0
M  V30 2033 H 198.511 -1.14946 3.7895 0
M  V30 2034 H 199.685 1.66414 4.29701 0
M  V30 2035 H 198 1.35519 3.9373 0
M  V30 2036 H 200.597 -1.10683 5.23119 0
M  V30 2037 H 200.94 -1.89096 3.70875 0
M  V30 2038 H 201.473 -0.212751 3.97231 0
M  V30 2039 H 198.212 1.6058 6.35527 0
M  V30 2040 H 197.732 -0.0690193 5.9976 0
M  V30 2041 H 199.411 0.300699 6.46301 0
M  V30 2042 N 199.544 -1.57102 0.125237 0
M  V30 2043 C 200.96 -1.57915 -0.231322 0
M  V30 2044 C 201.16 -1.13833 -1.66266 0
M  V30 2045 O 200.216 -0.828581 -2.38518 0
M  V30 2046 C 201.529 -3.00699 0.00766489 0
M  V30 2047 C 203.077 -3.12947 -0.0577483 0
M  V30 2048 C 203.552 -4.57742 0.153626 0
M  V30 2049 N 205.043 -4.63092 0.0998073 0
M  V30 2050 C 205.778 -5.72905 0.238174 0
M  V30 2051 N 205.274 -6.91445 0.433057 0
M  V30 2052 N 207.067 -5.6182 0.177308 0
M  V30 2053 H 199.218 -1.84055 1.06007 0
M  V30 2054 H 201.481 -0.850905 0.417929 0
M  V30 2055 H 201.187 -3.3726 0.997431 0
M  V30 2056 H 201.061 -3.70236 -0.721452 0
M  V30 2057 H 203.448 -2.7624 -1.03804 0
M  V30 2058 H 203.529 -2.4594 0.70335 0
M  V30 2059 H 203.173 -4.95149 1.13092 0
M  V30 2060 H 203.103 -5.22848 -0.627534 0
M  V30 2061 H 205.594 -3.77871 -0.047051 0
M  V30 2062 H 205.907 -7.70985 0.529332 0
M  V30 2063 H 204.252 -6.93415 0.469109 0
M  V30 2064 H 207.443 -4.68093 0.0259748 0
M  V30 2065 H 207.616 -6.47357 0.288582 0
M  V30 2066 N 201.022 0.148545 -1.56898 0
M  V30 2067 C 201.969 1.18345 -1.98149 0
M  V30 2068 C 202.939 1.42772 -0.848848 0
M  V30 2069 O 204.124 1.55132 -1.11079 0
M  V30 2070 C 201.264 2.51231 -2.36594 0
M  V30 2071 C 200.377 2.33991 -3.63142 0
M  V30 2072 C 199.512 3.59902 -3.90697 0
M  V30 2073 C 198.551 3.37692 -5.1052 0
M  V30 2074 N 197.688 4.5573 -5.34092 0
M  V30 2075 H 202.528 0.82467 -2.86362 0
M  V30 2076 H 200.065 0.395756 -1.41676 0
M  V30 2077 H 202.023 3.28713 -2.56912 0
M  V30 2078 H 200.653 2.85059 -1.51463 0
M  V30 2079 H 199.705 1.47572 -3.50609 0
M  V30 2080 H 201.017 2.13539 -4.5078 0
M  V30 2081 H 200.171 4.45813 -4.11505 0
M  V30 2082 H 198.91 3.83357 -3.01477 0
M  V30 2083 H 197.915 2.5017 -4.89587 0
M  V30 2084 H 199.14 3.15637 -6.0129 0
M  V30 2085 H 197.086 4.79361 -4.47827 0
M  V30 2086 H 197.003 4.38274 -6.15996 0
M  V30 2087 H 198.271 5.42858 -5.59397 0
M  V30 2088 N 202.5 1.5196 0.417844 0
M  V30 2089 C 203.433 1.69387 1.52916 0
M  V30 2090 C 204.411 0.541419 1.53321 0
M  V30 2091 O 205.595 0.767695 1.72159 0
M  V30 2092 C 202.722 1.72525 2.91467 0
M  V30 2093 C 201.768 2.93967 3.09008 0
M  V30 2094 S 202.601 4.54461 2.83242 0
M  V30 2095 C 203.757 4.60372 4.24038 0
M  V30 2096 H 203.99 2.63382 1.37903 0
M  V30 2097 H 201.523 1.41889 0.608845 0
M  V30 2098 H 203.481 1.75018 3.7132 0
M  V30 2099 H 202.142 0.796733 3.03827 0
M  V30 2100 H 201.335 2.92619 4.10353 0
M  V30 2101 H 200.937 2.89316 2.37007 0
M  V30 2102 H 203.229 4.37213 5.17544 0
M  V30 2103 H 204.172 5.62273 4.30412 0
M  V30 2104 H 204.58 3.89492 4.08602 0
M  V30 2105 N 203.978 -0.674533 1.42435 0
M  V30 2106 C 204.928 -1.7807 1.4239 0
M  V30 2107 C 205.912 -1.58169 0.295202 0
M  V30 2108 O 207.104 -1.68643 0.537449 0
M  V30 2109 C 204.233 -3.16532 1.32901 0
M  V30 2110 C 203.319 -3.42055 2.50717 0
M  V30 2111 N 203.71 -3.38162 3.76139 0
M  V30 2112 C 202.008 -3.72692 2.44983 0
M  V30 2113 C 202.709 -3.63177 4.54398 0
M  V30 2114 N 201.685 -3.83954 3.84812 0
M  V30 2115 H 205.487 -1.73454 2.37257 0
M  V30 2116 H 203.001 -0.875381 1.36788 0
M  V30 2117 H 204.998 -3.958 1.30951 0
M  V30 2118 H 203.658 -3.22345 0.390363 0
M  V30 2119 H 204.669 -3.18057 4.0873 0
M  V30 2120 H 201.346 -3.85749 1.59699 0
M  V30 2121 H 202.736 -3.66125 5.63384 0
M  V30 2122 N 205.456 -1.28612 -0.910864 0
M  V30 2123 C 206.733 -1.06632 -1.63979 0
M  V30 2124 C 207.113 0.393351 -2.07403 0
M  V30 2125 O 206.461 1.37999 -1.82122 0
M  V30 2126 C 206.671 -2.0436 -2.8291 0
M  V30 2127 C 208.019 -2.34666 -3.5386 0
M  V30 2128 O 209.043 -2.02467 -2.93062 0
M  V30 2129 O 207.902 -2.89631 -4.63439 0
M  V30 2130 H 204.996 -0.407737 -0.7195 0
M  V30 2131 H 207.542 -1.39942 -0.959914 0
M  V30 2132 H 206.314 -3.02727 -2.47936 0
M  V30 2133 H 205.937 -1.71714 -3.58609 0
M  V30 2134 N 206.934 1.1197 -1.10907 0
M  V30 2135 C 207.897 2.16031 -0.765707 0
M  V30 2136 C 208.897 1.59393 0.212235 0
M  V30 2137 O 210.087 1.74196 -0.0115441 0
M  V30 2138 C 207.219 3.40632 -0.135053 0
M  V30 2139 H 208.412 2.47919 -1.68748 0
M  V30 2140 H 205.965 1.27061 -0.910226 0
M  V30 2141 H 206.7 3.14348 0.797218 0
M  V30 2142 H 206.485 3.8302 -0.838937 0
M  V30 2143 H 207.975 4.17505 0.0892469 0
M  V30 2144 N 208.412 0.89855 1.29475 0
M  V30 2145 C 209.66 0.522847 1.9522 0
M  V30 2146 C 209.981 -0.93371 1.71192 0
M  V30 2147 O 209.251 -1.65823 1.04305 0
M  V30 2148 H 207.831 0.190366 0.722336 0
M  V30 2149 H 210.493 1.14459 1.5775 0
M  V30 2150 H 209.589 0.704476 3.04045 0
M  V30 2151 N 209.89 -1.43072 0.660911 0
M  V30 2152 C 210.853 -2.29194 -0.0166406 0
M  V30 2153 C 211.853 -1.42609 -0.742912 0
M  V30 2154 O 213.043 -1.64155 -0.583004 0
M  V30 2155 C 210.175 -3.24831 -1.0343 0
M  V30 2156 H 211.368 -2.90596 0.741208 0
M  V30 2157 H 208.921 -1.5048 0.422532 0
M  V30 2158 H 209.656 -2.68339 -1.82111 0
M  V30 2159 H 209.441 -3.88676 -0.517082 0
M  V30 2160 H 210.931 -3.89451 -1.50723 0
M  V30 2161 N 211.368 -0.403325 -1.52352 0
M  V30 2162 C 212.614 0.174605 -2.02047 0
M  V30 2163 C 212.947 1.45282 -1.28867 0
M  V30 2164 O 212.222 1.90483 -0.393257 0
M  V30 2165 C 212.505 0.428238 -3.57545 0
M  V30 2166 C 212.358 -0.866248 -4.4138 0
M  V30 2167 C 213.677 1.21287 -4.23057 0
M  V30 2168 H 210.796 0.0619851 -0.734389 0
M  V30 2169 H 213.438 -0.53565 -1.82293 0
M  V30 2170 H 211.588 1.03327 -3.74507 0
M  V30 2171 H 213.26 -1.50265 -4.3614 0
M  V30 2172 H 211.503 -1.47851 -4.07827 0
M  V30 2173 H 212.174 -0.643249 -5.48239 0
M  V30 2174 H 214.65 0.700703 -4.10158 0
M  V30 2175 H 213.526 1.35909 -5.31808 0
M  V30 2176 H 213.787 2.23193 -3.81625 0
M  V30 2177 N 212.846 1.57033 -0.133567 0
M  V30 2178 C 214.094 1.953 0.519848 0
M  V30 2179 C 214.415 1.01866 1.66278 0
M  V30 2180 O 213.685 0.0776513 1.95746 0
M  V30 2181 H 212.265 0.721091 0.195032 0
M  V30 2182 H 214.927 1.93809 -0.205921 0
M  V30 2183 H 214.023 2.98695 0.904854 0
M  V30 2184 N 214.325 -0.140222 1.56975 0
M  V30 2185 C 215.572 -0.851687 1.83719 0
M  V30 2186 C 215.9 -1.80862 0.715485 0
M  V30 2187 O 215.155 -1.93464 -0.294956 0
M  V30 2188 C 215.454 -1.65386 3.16832 0
M  V30 2189 C 215.12 -0.843112 4.42947 0
M  V30 2190 C 213.782 -0.619464 4.77196 0
M  V30 2191 C 216.134 -0.276582 5.20466 0
M  V30 2192 C 213.462 0.181312 5.8642 0
M  V30 2193 C 215.814 0.51127 6.30531 0
M  V30 2194 C 214.478 0.745432 6.63325 0
M  V30 2195 H 213.748 -0.311654 0.672274 0
M  V30 2196 H 216.395 -0.115006 1.91154 0
M  V30 2197 H 214.7 -2.46084 3.04877 0
M  V30 2198 H 216.397 -2.20793 3.34741 0
M  V30 2199 H 212.987 -1.0275 4.16101 0
M  V30 2200 H 217.171 -0.436632 4.94376 0
M  V30 2201 H 212.427 0.372165 6.10266 0
M  V30 2202 H 216.601 0.957354 6.89788 0
M  V30 2203 H 214.228 1.36778 7.47794 0
M  V30 2204 N 215.803 -1.52179 -0.40978 0
M  V30 2205 C 216.75 -1.75475 -1.49924 0
M  V30 2206 C 217.72 -0.597175 -1.54994 0
M  V30 2207 O 218.905 -0.834655 -1.71575 0
M  V30 2208 C 216.045 -1.9107 -2.87378 0
M  V30 2209 C 215.158 -3.18717 -2.91622 0
M  V30 2210 C 214.293 -3.24747 -4.20372 0
M  V30 2211 C 213.332 -4.46598 -4.18588 0
M  V30 2212 N 212.469 -4.50025 -5.38908 0
M  V30 2213 H 217.309 -2.68458 -1.29361 0
M  V30 2214 H 214.846 -1.33024 -0.627934 0
M  V30 2215 H 216.804 -1.98096 -3.6717 0
M  V30 2216 H 215.434 -1.01469 -3.06437 0
M  V30 2217 H 214.486 -3.20866 -2.04326 0
M  V30 2218 H 215.798 -4.08544 -2.86169 0
M  V30 2219 H 214.952 -3.30841 -5.08556 0
M  V30 2220 H 213.691 -2.32857 -4.28519 0
M  V30 2221 H 212.696 -4.40652 -3.28794 0
M  V30 2222 H 213.921 -5.39783 -4.12081 0
M  V30 2223 H 211.867 -3.61017 -5.47725 0
M  V30 2224 H 211.784 -5.33697 -5.35447 0
M  V30 2225 H 213.052 -4.60347 -6.29048 0
M  V30 2226 N 217.281 0.66697 -1.42791 0
M  V30 2227 C 218.506 1.46004 -1.47301 0
M  V30 2228 C 218.931 1.87894 -0.0880317 0
M  V30 2229 O 218.289 1.56502 0.915253 0
M  V30 2230 C 218.337 2.68031 -2.41229 0
M  V30 2231 O 217.441 3.6659 -1.88906 0
M  V30 2232 H 216.782 0.43832 -0.49877 0
M  V30 2233 H 219.312 0.817391 -1.87563 0
M  V30 2234 H 219.322 3.1601 -2.58073 0
M  V30 2235 H 217.997 2.36883 -3.41847 0
M  V30 2236 H 216.574 3.25661 -1.81656 0
M  V30 2237 N 218.759 1.29093 0.90403 0
M  V30 2238 C 219.692 1.08176 2.00931 0
M  V30 2239 C 220.67 -0.005083 1.62599 0
M  V30 2240 O 221.854 0.144765 1.87943 0
M  V30 2241 C 218.981 0.645897 3.32484 0
M  V30 2242 C 218.027 1.73081 3.89801 0
M  V30 2243 S 218.86 3.32905 4.19446 0
M  V30 2244 C 220.016 2.91176 5.54046 0
M  V30 2245 H 220.249 2.01752 2.18365 0
M  V30 2246 H 217.782 1.13191 1.0501 0
M  V30 2247 H 219.74 0.401131 4.08535 0
M  V30 2248 H 218.401 -0.270188 3.12936 0
M  V30 2249 H 217.594 1.37768 4.84805 0
M  V30 2250 H 217.196 1.92888 3.20422 0
M  V30 2251 H 219.488 2.37952 6.34338 0
M  V30 2252 H 220.431 3.85014 5.94281 0
M  V30 2253 H 220.839 2.296 5.15698 0
M  V30 2254 N 220.237 -1.11381 1.11499 0
M  V30 2255 C 221.17 -2.16621 0.71769 0
M  V30 2256 C 222.148 -1.60058 -0.286413 0
M  V30 2257 O 223.332 -1.87613 -0.182689 0
M  V30 2258 C 220.459 -3.38646 0.0607265 0
M  V30 2259 C 219.505 -4.13874 1.03008 0
M  V30 2260 S 220.338 -4.70731 2.55289 0
M  V30 2261 C 221.494 -5.96079 1.90895 0
M  V30 2262 H 221.727 -2.49987 1.60915 0
M  V30 2263 H 219.26 -1.23015 0.933092 0
M  V30 2264 H 221.218 -4.09313 -0.311965 0
M  V30 2265 H 219.879 -3.03537 -0.807702 0
M  V30 2266 H 219.072 -5.01333 0.517853 0
M  V30 2267 H 218.674 -3.4897 1.34522 0
M  V30 2268 H 220.966 -6.65948 1.24577 0
M  V30 2269 H 221.909 -6.51946 2.76354 0
M  V30 2270 H 222.317 -5.47652 1.36885 0
M  V30 2271 N 221.715 -0.905404 -1.28997 0
M  V30 2272 C 222.678 -0.392253 -2.25819 0
M  V30 2273 C 223.678 0.476753 -1.5357 0
M  V30 2274 O 224.868 0.280994 -1.71919 0
M  V30 2275 C 222 0.438588 -3.38067 0
M  V30 2276 H 223.193 -1.24743 -2.72725 0
M  V30 2277 H 220.746 -0.684051 -1.40536 0
M  V30 2278 H 221.481 1.31352 -2.96508 0
M  V30 2279 H 221.266 -0.184167 -3.91667 0
M  V30 2280 H 222.756 0.78873 -4.10084 0
M  V30 2281 N 223.193 1.4272 -0.668489 0
M  V30 2282 C 224.156 2.292 0.00448567 0
M  V30 2283 C 225.156 1.43001 0.735339 0
M  V30 2284 O 226.346 1.64461 0.57429 0
M  V30 2285 C 223.478 3.25375 1.01705 0
M  V30 2286 H 224.671 2.90199 -0.756608 0
M  V30 2287 H 222.224 1.50254 -0.430506 0
M  V30 2288 H 222.959 2.69301 1.80686 0
M  V30 2289 H 222.744 3.88944 0.496463 0
M  V30 2290 H 224.234 3.90245 1.48655 0
M  V30 2291 N 224.671 0.411399 1.52136 0
M  V30 2292 C 225.896 -0.165538 2.06738 0
M  V30 2293 C 226.321 -1.379 1.27926 0
M  V30 2294 O 225.679 -1.78628 0.310114 0
M  V30 2295 C 225.727 -0.492124 3.57226 0
M  V30 2296 O 224.831 -1.58276 3.80818 0
M  V30 2297 H 224.172 -0.0132132 0.663869 0
M  V30 2298 H 226.702 0.585253 1.96051 0
M  V30 2299 H 226.712 -0.750104 4.01045 0
M  V30 2300 H 225.387 0.394922 4.14021 0
M  V30 2301 H 223.964 -1.31677 3.48877 0
M  V30 2302 N 226.149 -1.5696 0.141893 0
M  V30 2303 C 227.395 -1.9625 -0.511248 0
M  V30 2304 C 227.728 -1.02654 -1.64851 0
M  V30 2305 O 227.003 -0.0679676 -1.94381 0
M  V30 2306 C 227.286 -3.45285 -1.02227 0
M  V30 2307 C 227.139 -4.49658 0.113138 0
M  V30 2308 C 228.458 -3.96698 -1.90574 0
M  V30 2309 H 225.577 -0.713567 -0.184367 0
M  V30 2310 H 228.219 -1.88698 0.222087 0
M  V30 2311 H 226.369 -3.51852 -1.64719 0
M  V30 2312 H 228.041 -4.55174 0.749302 0
M  V30 2313 H 226.284 -4.26857 0.773026 0
M  V30 2314 H 226.955 -5.51258 -0.286053 0
M  V30 2315 H 229.431 -3.92578 -1.37918 0
M  V30 2316 H 228.307 -5.01453 -2.2324 0
M  V30 2317 H 228.568 -3.3875 -2.84079 0
M  V30 2318 N 227.627 0.131896 -1.57047 0
M  V30 2319 C 229.038 0.690407 -1.73465 0
M  V30 2320 C 229.389 1.8094 -0.758629 0
M  V30 2321 O 228.514 2.16282 0.0713813 0
M  V30 2322 C 229.109 1.25916 -3.14532 0
M  V30 2323 C 227.668 1.76409 -3.32501 0
M  V30 2324 C 226.815 0.658579 -2.69366 0
M  V30 2325 H 229.766 -0.0939144 -1.58422 0
M  V30 2326 H 229.787 2.12892 -3.15369 0
M  V30 2327 H 229.299 0.444515 -3.85546 0
M  V30 2328 H 227.4 2.60391 -2.66509 0
M  V30 2329 H 227.513 1.88241 -4.4057 0
M  V30 2330 H 225.877 1.08899 -2.30246 0
M  V30 2331 H 226.66 -0.14487 -3.42994 0
M  V30 2332 N 229.106 1.52395 0.401703 0
M  V30 2333 C 230.354 1.66488 1.14569 0
M  V30 2334 C 230.675 0.400897 1.90835 0
M  V30 2335 O 229.945 -0.584415 1.8698 0
M  V30 2336 H 228.525 0.613672 0.425929 0
M  V30 2337 H 231.187 1.89464 0.457093 0
M  V30 2338 H 230.283 2.50942 1.85566 0
M  V30 2339 N 230.584 -0.659388 1.43143 0
M  V30 2340 C 231.517 -1.78425 1.42267 0
M  V30 2341 C 232.495 -1.60085 0.284894 0
M  V30 2342 O 233.679 -1.82351 0.477527 0
M  V30 2343 C 230.806 -3.15642 1.22833 0
M  V30 2344 C 229.852 -3.52698 2.39806 0
M  V30 2345 S 230.685 -3.53372 4.02353 0
M  V30 2346 C 231.841 -4.93256 3.85291 0
M  V30 2347 H 232.074 -1.78897 2.37452 0
M  V30 2348 H 229.607 -0.831469 1.301 0
M  V30 2349 H 231.565 -3.94838 1.12308 0
M  V30 2350 H 230.226 -3.12739 0.29207 0
M  V30 2351 H 229.419 -4.52475 2.21996 0
M  V30 2352 H 229.021 -2.80899 2.46925 0
M  V30 2353 H 231.313 -5.81751 3.47235 0
M  V30 2354 H 232.256 -5.16115 4.84799 0
M  V30 2355 H 232.664 -4.665 3.17865 0
M  V30 2356 N 232.062 -1.29571 -0.897171 0
M  V30 2357 C 233.309 -1.17689 -1.6479 0
M  V30 2358 C 233.637 0.27107 -1.92602 0
M  V30 2359 O 232.892 1.21193 -1.53658 0
M  V30 2360 C 233.191 -1.9382 -3.00281 0
M  V30 2361 C 232.857 -3.43522 -2.92068 0
M  V30 2362 C 231.519 -3.84348 -2.89535 0
M  V30 2363 C 233.871 -4.38906 -2.81089 0
M  V30 2364 C 231.199 -5.18869 -2.73846 0
M  V30 2365 C 233.551 -5.73521 -2.66939 0
M  V30 2366 C 232.215 -6.13601 -2.62774 0
M  V30 2367 H 231.485 -0.430654 -0.603008 0
M  V30 2368 H 234.132 -1.60536 -1.04404 0
M  V30 2369 H 232.437 -1.4357 -3.64547 0
M  V30 2370 H 234.134 -1.82028 -3.57305 0
M  V30 2371 H 230.724 -3.11072 -2.94842 0
M  V30 2372 H 234.908 -4.08315 -2.82121 0
M  V30 2373 H 230.164 -5.4903 -2.69027 0
M  V30 2374 H 234.338 -6.47078 -2.57416 0
M  V30 2375 H 231.965 -7.17786 -2.50375 0
M  V30 2376 N 233.54 1.10788 -1.12088 0
M  V30 2377 C 234.817 1.79136 -0.785476 0
M  V30 2378 C 235.197 1.98246 0.725377 0
M  V30 2379 O 234.545 1.57258 1.65778 0
M  V30 2380 C 234.755 3.12375 -1.55636 0
M  V30 2381 C 236.103 3.8731 -1.74001 0
M  V30 2382 O 237.127 3.22085 -1.52117 0
M  V30 2383 O 235.986 5.04369 -2.10415 0
M  V30 2384 H 233.08 0.776226 -0.285311 0
M  V30 2385 H 235.626 1.1747 -1.2247 0
M  V30 2386 H 234.398 2.93863 -2.5838 0
M  V30 2387 H 234.021 3.81758 -1.11114 0
M  V30 2388 N 235.018 0.912232 1.28515 0
M  V30 2389 C 235.981 0.404223 2.25607 0
M  V30 2390 C 236.981 -0.468602 1.53821 0
M  V30 2391 O 238.171 -0.271873 1.72065 0
M  V30 2392 C 235.303 -0.420653 3.38295 0
M  V30 2393 H 236.496 1.26188 2.7206 0
M  V30 2394 H 234.049 0.691495 1.40171 0
M  V30 2395 H 234.784 -1.29777 2.97201 0
M  V30 2396 H 234.569 0.204935 3.91564 0
M  V30 2397 H 236.059 -0.766971 4.10496 0
M  V30 2398 N 236.496 -1.42363 0.676048 0
M  V30 2399 C 237.742 -2.0182 0.199125 0
M  V30 2400 C 238.075 -1.53339 -1.19168 0
M  V30 2401 O 237.35 -0.736124 -1.80032 0
M  V30 2402 C 237.633 -3.59331 0.235144 0
M  V30 2403 C 237.486 -4.17989 1.66149 0
M  V30 2404 C 238.805 -4.3813 -0.41595 0
M  V30 2405 H 235.924 -0.733293 0.0738311 0
M  V30 2406 H 238.566 -1.69368 0.86107 0
M  V30 2407 H 236.716 -3.87109 -0.328487 0
M  V30 2408 H 238.388 -4.0116 2.27747 0
M  V30 2409 H 236.631 -3.7377 2.20178 0
M  V30 2410 H 237.302 -5.27126 1.63837 0
M  V30 2411 H 239.778 -4.16051 0.0638529 0
M  V30 2412 H 238.654 -5.47717 -0.360115 0
M  V30 2413 H 238.915 -4.16101 -1.49373 0
M  V30 2414 N 237.974 -0.419461 -1.51915 0
M  V30 2415 C 239.199 0.154572 -2.06823 0
M  V30 2416 C 239.624 1.3722 -1.28656 0
M  V30 2417 O 238.982 1.78461 -0.319583 0
M  V30 2418 C 239.03 0.473172 -3.57482 0
M  V30 2419 O 238.134 1.56255 -3.81652 0
M  V30 2420 H 237.475 0.0096924 -0.663929 0
M  V30 2421 H 240.005 -0.595642 -1.95738 0
M  V30 2422 H 240.015 0.728825 -4.01438 0
M  V30 2423 H 238.69 -0.416873 -4.13805 0
M  V30 2424 H 237.267 1.29825 -3.49571 0
M  V30 2425 N 239.452 1.56882 -0.150215 0
M  V30 2426 C 240.729 1.87844 0.545327 0
M  V30 2427 C 241.109 1.0567 1.82749 0
M  V30 2428 O 240.457 0.144442 2.28043 0
M  V30 2429 C 240.667 3.39526 0.80767 0
M  V30 2430 C 242.015 4.08814 1.14703 0
M  V30 2431 O 243.039 3.44723 0.896917 0
M  V30 2432 O 241.898 5.22004 1.61784 0
M  V30 2433 H 238.992 0.778677 0.278553 0
M  V30 2434 H 241.538 1.68666 -0.187068 0
M  V30 2435 H 240.31 3.91173 -0.0996096 0
M  V30 2436 H 239.933 3.64243 1.59413 0
M  V30 2437 N 240.93 -0.123565 1.57115 0
M  V30 2438 C 242.178 -0.83051 1.84247 0
M  V30 2439 C 242.499 -1.80629 0.73471 0
M  V30 2440 O 241.769 -1.94403 -0.241688 0
M  V30 2441 H 240.349 -0.309694 0.679778 0
M  V30 2442 H 243.011 -0.111976 1.94578 0
M  V30 2443 H 242.107 -1.37852 2.80006 0
M  V30 2444 N 242.408 -1.52605 -0.393616 0
M  V30 2445 C 243.318 -1.79971 -1.50492 0
M  V30 2446 C 244.334 -0.686181 -1.59899 0
M  V30 2447 O 245.51 -0.973274 -1.76322 0
M  V30 2448 C 242.575 -1.95867 -2.86072 0
M  V30 2449 C 241.636 -3.19781 -2.86424 0
M  V30 2450 C 240.869 -3.34909 -4.15538 0
M  V30 2451 O 241.092 -2.54948 -5.10253 0
M  V30 2452 O 240.026 -4.28141 -4.23059 0
M  V30 2453 H 243.852 -2.74328 -1.30299 0
M  V30 2454 H 241.437 -1.3764 -0.581005 0
M  V30 2455 H 243.319 -2.08056 -3.66457 0
M  V30 2456 H 241.994 -1.04699 -3.063 0
M  V30 2457 H 240.901 -3.13038 -2.04837 0
M  V30 2458 H 242.234 -4.1078 -2.71147 0
M  V30 2459 N 243.887 0.651787 -1.4349 0
M  V30 2460 C 244.817 1.77621 -1.51569 0
M  V30 2461 C 245.798 1.66022 -0.370253 0
M  V30 2462 O 246.983 1.85095 -0.587658 0
M  V30 2463 C 244.113 3.16056 -1.43966 0
M  V30 2464 C 243.067 3.4242 -2.56774 0
M  V30 2465 C 242.393 4.8067 -2.34223 0
M  V30 2466 C 243.693 3.37023 -3.99015 0
M  V30 2467 H 245.387 1.71117 -2.45681 0
M  V30 2468 H 242.933 0.821825 -1.18246 0
M  V30 2469 H 244.886 3.94472 -1.48221 0
M  V30 2470 H 243.61 3.23293 -0.463586 0
M  V30 2471 H 242.269 2.66375 -2.51873 0
M  V30 2472 H 241.917 4.84585 -1.34856 0
M  V30 2473 H 241.617 4.9927 -3.09844 0
M  V30 2474 H 243.141 5.61342 -2.40265 0
M  V30 2475 H 244.555 4.05374 -4.05395 0
M  V30 2476 H 242.952 3.67159 -4.74673 0
M  V30 2477 H 244.022 2.3518 -4.2405 0
M  V30 2478 N 245.365 1.30045 0.890287 0
M  V30 2479 C 246.612 1.18561 1.64163 0
M  V30 2480 C 246.94 -0.260852 1.92743 0
M  V30 2481 O 246.195 -1.20376 1.54299 0
M  V30 2482 C 246.494 1.95409 2.99249 0
M  V30 2483 C 246.16 3.45066 2.90242 0
M  V30 2484 C 244.822 3.85878 2.87492 0
M  V30 2485 C 247.174 4.4039 2.78758 0
M  V30 2486 C 244.502 5.20314 2.7109 0
M  V30 2487 C 246.854 5.74928 2.63894 0
M  V30 2488 C 245.518 6.14986 2.59516 0
M  V30 2489 H 244.788 0.433846 0.600715 0
M  V30 2490 H 247.435 1.61088 1.03552 0
M  V30 2491 H 245.74 1.45501 3.63781 0
M  V30 2492 H 247.437 1.8392 3.56334 0
M  V30 2493 H 244.027 3.12631 2.93189 0
M  V30 2494 H 248.211 4.09806 2.79952 0
M  V30 2495 H 243.467 5.50449 2.66112 0
M  V30 2496 H 247.641 6.48434 2.53981 0
M  V30 2497 H 245.268 7.19104 2.46565 0
M  V30 2498 N 246.843 -1.10192 1.12674 0
M  V30 2499 C 247.753 -2.20172 0.810026 0
M  V30 2500 C 248.769 -1.72821 -0.202188 0
M  V30 2501 O 249.945 -2.01369 -0.0351691 0
M  V30 2502 C 247.01 -3.45631 0.272007 0
M  V30 2503 C 246.071 -4.07704 1.34447 0
M  V30 2504 C 245.304 -5.27175 0.832029 0
M  V30 2505 O 245.527 -5.69425 -0.333284 0
M  V30 2506 O 244.461 -5.80168 1.60277 0
M  V30 2507 H 248.287 -2.49701 1.72867 0
M  V30 2508 H 245.872 -1.18977 0.903597 0
M  V30 2509 H 247.754 -4.21394 -0.0230219 0
M  V30 2510 H 246.429 -3.17723 -0.619164 0
M  V30 2511 H 245.336 -3.33614 1.6927 0
M  V30 2512 H 246.669 -4.3982 2.2095 0
M  V30 2513 N 248.321 -0.919034 -1.28029 0
M  V30 2514 C 249.57 -0.550802 -1.94034 0
M  V30 2515 C 249.883 0.910877 -1.73096 0
M  V30 2516 O 251.089 1.3875 -2.33368 0
M  V30 2517 C 249.545 -0.934249 -3.47563 0
M  V30 2518 C 249.153 -2.41602 -3.7727 0
M  V30 2519 C 250.897 -0.636854 -4.19696 0
M  V30 2520 C 248.804 -2.73932 -5.24133 0
M  V30 2521 H 247.734 -0.202273 -0.726362 0
M  V30 2522 H 250.385 -1.11867 -1.45458 0
M  V30 2523 H 248.767 -0.295115 -3.94899 0
M  V30 2524 H 249.941 -3.10233 -3.40723 0
M  V30 2525 H 248.256 -2.68441 -3.18321 0
M  V30 2526 H 250.853 -0.855005 -5.2782 0
M  V30 2527 H 251.196 0.425575 -4.14119 0
M  V30 2528 H 251.729 -1.23469 -3.78154 0
M  V30 2529 H 248.468 -3.79049 -5.34792 0
M  V30 2530 H 247.988 -2.09942 -5.61858 0
M  V30 2531 H 249.667 -2.61215 -5.91925 0
M  V30 2532 N 249.799 1.42003 -0.683588 0
M  V30 2533 C 251.046 2.01413 -0.209514 0
M  V30 2534 C 251.374 1.54088 1.1869 0
M  V30 2535 O 250.629 0.737591 1.81268 0
M  V30 2536 C 250.928 3.56827 -0.202357 0
M  V30 2537 C 250.594 4.23617 -1.54464 0
M  V30 2538 C 249.256 4.41577 -1.91215 0
M  V30 2539 C 251.608 4.61178 -2.42826 0
M  V30 2540 C 248.936 4.9437 -3.15935 0
M  V30 2541 C 251.288 5.15355 -3.66867 0
M  V30 2542 C 249.952 5.31528 -4.03776 0
M  V30 2543 H 249.222 0.737023 -0.0766668 0
M  V30 2544 H 251.869 1.70067 -0.880312 0
M  V30 2545 H 250.174 3.87892 0.551969 0
M  V30 2546 H 251.871 4.00588 0.181793 0
M  V30 2547 H 248.461 4.10004 -1.24877 0
M  V30 2548 H 252.645 4.46968 -2.15717 0
M  V30 2549 H 247.901 5.05076 -3.44541 0
M  V30 2550 H 252.075 5.43402 -4.35531 0
M  V30 2551 H 249.702 5.72199 -5.00492 0
M  V30 2552 N 251.277 0.427512 1.51691 0
M  V30 2553 C 252.209 -0.424521 2.25234 0
M  V30 2554 C 253.222 -0.994671 1.2888 0
M  V30 2555 O 254.411 -0.890483 1.54702 0
M  V30 2556 C 251.511 -1.60479 2.98496 0
M  V30 2557 C 250.684 -1.15527 4.21868 0
M  V30 2558 C 249.743 -2.20454 4.77793 0
M  V30 2559 O 248.769 -1.8029 5.39893 0
M  V30 2560 N 249.971 -3.52831 4.60967 0
M  V30 2561 H 252.736 0.205749 2.98993 0
M  V30 2562 H 250.297 0.255867 1.59865 0
M  V30 2563 H 252.289 -2.30276 3.32799 0
M  V30 2564 H 250.859 -2.14061 2.27809 0
M  V30 2565 H 250.079 -0.284736 3.9317 0
M  V30 2566 H 251.367 -0.832173 5.01949 0
M  V30 2567 H 250.765 -3.88201 4.11481 0
M  V30 2568 H 249.322 -4.18551 4.99658 0
M  V30 2569 N 252.755 -1.56801 0.158532 0
M  V30 2570 C 253.665 -2.20916 -0.789518 0
M  V30 2571 C 254.681 -1.1969 -1.26294 0
M  V30 2572 O 255.857 -1.52308 -1.31773 0
M  V30 2573 C 252.922 -2.82727 -2.00665 0
M  V30 2574 C 251.983 -3.99114 -1.58134 0
M  V30 2575 C 251.216 -4.57968 -2.74045 0
M  V30 2576 O 251.439 -4.15704 -3.90572 0
M  V30 2577 O 250.373 -5.48047 -2.48855 0
M  V30 2578 H 254.199 -3.02464 -0.273681 0
M  V30 2579 H 251.784 -1.4924 -0.0690548 0
M  V30 2580 H 253.666 -3.21968 -2.71872 0
M  V30 2581 H 252.341 -2.04184 -2.51179 0
M  V30 2582 H 251.248 -3.64567 -0.839155 0
M  V30 2583 H 252.581 -4.79212 -1.12325 0
M  V30 2584 N 254.233 0.115231 -1.57178 0
M  V30 2585 C 255.482 0.820945 -1.84237 0
M  V30 2586 C 255.795 1.80866 -0.744761 0
M  V30 2587 O 257.001 2.56083 -0.901871 0
M  V30 2588 C 255.457 1.51072 -3.26658 0
M  V30 2589 C 255.065 0.563795 -4.44438 0
M  V30 2590 C 256.809 2.20134 -3.62962 0
M  V30 2591 C 254.716 1.25701 -5.77887 0
M  V30 2592 H 253.646 0.310328 -0.687177 0
M  V30 2593 H 256.297 0.0737134 -1.83352 0
M  V30 2594 H 254.679 2.30471 -3.22024 0
M  V30 2595 H 255.853 -0.197247 -4.60378 0
M  V30 2596 H 254.168 -0.0200638 -4.16395 0
M  V30 2597 H 256.765 2.72696 -4.59936 0
M  V30 2598 H 257.108 2.98107 -2.90582 0
M  V30 2599 H 257.641 1.47619 -3.69396 0
M  V30 2600 H 254.38 0.518493 -6.53446 0
M  V30 2601 H 253.9 1.98997 -5.65827 0
M  V30 2602 H 255.579 1.78915 -6.2177 0
M  V30 2603 N 255.711 1.52812 0.385517 0
M  V30 2604 C 256.674 1.77188 1.45386 0
M  V30 2605 C 257.674 0.641953 1.4743 0
M  V30 2606 O 258.864 0.910033 1.4854 0
M  V30 2607 C 255.996 1.87582 2.8465 0
M  V30 2608 H 257.189 2.72583 1.25054 0
M  V30 2609 H 254.742 1.43586 0.617467 0
M  V30 2610 H 255.477 0.941849 3.10322 0
M  V30 2611 H 255.262 2.69748 2.84567 0
M  V30 2612 H 256.752 2.08102 3.62054 0
M  V30 2613 N 257.189 -0.644168 1.43834 0
M  V30 2614 C 258.152 -1.73857 1.49353 0
M  V30 2615 C 259.152 -1.56315 0.377112 0
M  V30 2616 O 260.342 -1.62048 0.639226 0
M  V30 2617 C 257.474 -3.12819 1.35488 0
M  V30 2618 H 258.667 -1.70342 2.46827 0
M  V30 2619 H 256.22 -0.856652 1.30733 0
M  V30 2620 H 256.955 -3.2194 0.390569 0
M  V30 2621 H 256.74 -3.26958 2.16428 0
M  V30 2622 H 258.23 -3.92606 1.42302 0
M  V30 2623 N 258.668 -1.30515 -0.883378 0
M  V30 2624 C 259.908 -1.20716 -1.64946 0
M  V30 2625 C 260.272 0.234072 -1.90568 0
M  V30 2626 O 261.473 0.455335 -2.64915 0
M  V30 2627 C 259.744 -2.01444 -2.9522 0
M  V30 2628 S 261.303 -2.0836 -3.86175 0
M  V30 2629 H 258.121 -0.430165 -0.566109 0
M  V30 2630 H 260.723 -1.65011 -1.04841 0
M  V30 2631 H 259.427 -3.05268 -2.74298 0
M  V30 2632 H 258.958 -1.57817 -3.60357 0
M  V30 2633 H 260.973 -1.21215 -4.81167 0
M  V30 2634 N 260.146 1.09593 -1.13257 0
M  V30 2635 C 261.394 1.81375 -0.891492 0
M  V30 2636 C 261.715 1.86049 0.584009 0
M  V30 2637 O 260.985 1.34481 1.42449 0
M  V30 2638 H 259.565 0.671708 -0.326828 0
M  V30 2639 H 262.227 1.3256 -1.42877 0
M  V30 2640 H 261.323 2.84612 -1.28071 0
M  V30 2641 N 261.624 0.925811 1.2754 0
M  V30 2642 C 262.849 0.580924 1.99098 0
M  V30 2643 C 263.274 -0.833555 1.68622 0
M  V30 2644 O 262.632 -1.55903 0.925422 0
M  V30 2645 C 262.68 0.811186 3.51358 0
M  V30 2646 O 261.784 -0.124129 4.12213 0
M  V30 2647 H 261.125 0.223873 0.625122 0
M  V30 2648 H 263.655 1.24455 1.62395 0
M  V30 2649 H 263.665 0.72601 4.01489 0
M  V30 2650 H 262.34 1.84227 3.72872 0
M  V30 2651 H 260.917 0.0108006 3.72898 0
M  V30 2652 N 263.102 -1.41638 0.69111 0
M  V30 2653 C 264.348 -2.01598 0.220519 0
M  V30 2654 C 264.681 -1.54594 -1.17535 0
M  V30 2655 O 263.956 -0.755177 -1.79241 0
M  V30 2656 C 264.239 -3.59062 0.273243 0
M  V30 2657 C 264.092 -4.16203 1.70573 0
M  V30 2658 C 265.411 -4.38546 -0.369457 0
M  V30 2659 H 262.53 -0.732468 0.0816045 0
M  V30 2660 H 265.172 -1.68445 0.878986 0
M  V30 2661 H 263.322 -3.87435 -0.287411 0
M  V30 2662 H 264.994 -3.98722 2.31989 0
M  V30 2663 H 263.237 -3.71414 2.2413 0
M  V30 2664 H 263.908 -5.25358 1.69419 0
M  V30 2665 H 266.384 -4.1596 0.107977 0
M  V30 2666 H 265.26 -5.48069 -0.302002 0
M  V30 2667 H 265.521 -4.17662 -1.44951 0
M  V30 2668 N 264.58 -0.43555 -1.51462 0
M  V30 2669 C 265.829 0.133007 -2.01261 0
M  V30 2670 C 266.142 1.43942 -1.32439 0
M  V30 2671 O 267.348 2.09081 -1.73198 0
M  V30 2672 C 265.804 0.287581 -3.58749 0
M  V30 2673 C 265.412 -1.00829 -4.36506 0
M  V30 2674 C 267.156 0.810004 -4.167 0
M  V30 2675 C 265.063 -0.819454 -5.85695 0
M  V30 2676 H 263.993 0.0534822 -0.752101 0
M  V30 2677 H 266.644 -0.565038 -1.74584 0
M  V30 2678 H 265.026 1.04859 -3.81865 0
M  V30 2679 H 266.2 -1.77749 -4.25138 0
M  V30 2680 H 264.515 -1.45911 -3.89999 0
M  V30 2681 H 267.112 0.967743 -5.2587 0
M  V30 2682 H 267.455 1.79196 -3.75758 0
M  V30 2683 H 267.988 0.107357 -3.97655 0
M  V30 2684 H 264.727 -1.77374 -6.31046 0
M  V30 2685 H 264.247 -0.0900208 -5.99732 0
M  V30 2686 H 265.926 -0.471949 -6.45276 0
M  V30 2687 N 266.058 1.56714 -0.166846 0
M  V30 2688 C 267.304 1.97039 0.479962 0
M  V30 2689 C 267.637 1.05264 1.63197 0
M  V30 2690 O 266.912 0.0988833 1.94248 0
M  V30 2691 C 267.195 3.46867 0.967212 0
M  V30 2692 C 267.048 4.49421 -0.18466 0
M  V30 2693 C 268.367 3.9968 1.84238 0
M  V30 2694 H 265.486 0.71641 0.172992 0
M  V30 2695 H 268.128 1.8832 -0.252079 0
M  V30 2696 H 266.278 3.54428 1.59101 0
M  V30 2697 H 267.95 4.53924 -0.821621 0
M  V30 2698 H 266.193 4.25573 -0.840837 0
M  V30 2699 H 266.864 5.51644 0.198317 0
M  V30 2700 H 269.34 3.94723 1.31655 0
M  V30 2701 H 268.216 5.04941 2.15234 0
M  V30 2702 H 268.477 3.43226 2.78654 0
M  V30 2703 N 267.536 -0.106894 1.57237 0
M  V30 2704 C 268.782 -0.81373 1.85759 0
M  V30 2705 C 269.115 -1.78952 0.754315 0
M  V30 2706 O 268.39 -1.93029 -0.23879 0
M  V30 2707 C 268.673 -1.55293 3.24894 0
M  V30 2708 C 268.526 -0.595929 4.45835 0
M  V30 2709 C 269.845 -2.5063 3.61763 0
M  V30 2710 H 266.964 -0.294369 0.67566 0
M  V30 2711 H 269.606 -0.0776472 1.89841 0
M  V30 2712 H 267.756 -2.1804 3.21544 0
M  V30 2713 H 269.428 0.0236262 4.61294 0
M  V30 2714 H 267.671 0.0916191 4.33703 0
M  V30 2715 H 268.342 -1.15004 5.39887 0
M  V30 2716 H 270.818 -1.97982 3.65981 0
M  V30 2717 H 269.694 -2.99376 4.60071 0
M  V30 2718 H 269.955 -3.3385 2.89821 0
M  V30 2719 N 269.014 -1.53014 -0.377408 0
M  V30 2720 C 269.964 -1.74996 -1.46152 0
M  V30 2721 C 270.948 -0.604236 -1.49123 0
M  V30 2722 O 272.14 -0.862489 -1.54564 0
M  V30 2723 C 269.269 -1.93267 -2.8373 0
M  V30 2724 C 268.355 -3.13807 -2.85283 0
M  V30 2725 N 268.746 -4.35941 -2.56493 0
M  V30 2726 C 267.044 -3.14288 -3.16448 0
M  V30 2727 C 267.745 -5.17615 -2.65424 0
M  V30 2728 N 266.721 -4.53559 -2.99641 0
M  V30 2729 H 270.523 -2.67044 -1.22738 0
M  V30 2730 H 268.037 -1.51479 -0.585479 0
M  V30 2731 H 270.034 -2.0714 -3.61799 0
M  V30 2732 H 268.694 -1.0244 -3.08117 0
M  V30 2733 H 269.705 -4.63876 -2.30302 0
M  V30 2734 H 266.382 -2.33312 -3.46225 0
M  V30 2735 H 267.772 -6.25006 -2.46612 0
M  V30 2736 N 270.492 0.636531 -1.44174 0
M  V30 2737 C 271.455 1.73063 -1.50273 0
M  V30 2738 C 272.455 1.56113 -0.385397 0
M  V30 2739 O 273.645 1.61707 -0.64781 0
M  V30 2740 C 270.777 3.12096 -1.37145 0
M  V30 2741 H 271.97 1.69031 -2.47727 0
M  V30 2742 H 269.523 0.849706 -1.31186 0
M  V30 2743 H 270.258 3.21728 -0.407636 0
M  V30 2744 H 270.043 3.25805 -2.18159 0
M  V30 2745 H 271.533 3.91846 -1.44382 0
M  V30 2746 N 271.97 1.30982 0.876444 0
M  V30 2747 C 272.88 1.2003 2.01569 0
M  V30 2748 C 273.896 0.11838 1.73597 0
M  V30 2749 O 275.072 0.33495 1.98595 0
M  V30 2750 C 272.137 0.901637 3.34771 0
M  V30 2751 C 271.198 2.06979 3.76109 0
M  V30 2752 C 270.431 1.78529 5.02954 0
M  V30 2753 O 270.654 0.717296 5.65872 0
M  V30 2754 O 269.588 2.64019 5.40905 0
M  V30 2755 H 273.414 2.15753 2.13739 0
M  V30 2756 H 270.999 1.10658 1.00375 0
M  V30 2757 H 272.881 0.750645 4.1466 0
M  V30 2758 H 271.556 -0.0256141 3.2369 0
M  V30 2759 H 270.463 2.27616 2.96887 0
M  V30 2760 H 271.796 2.97907 3.91807 0
M  V30 2761 N 273.449 -1.08991 1.13837 0
M  V30 2762 C 274.397 -2.17841 0.815347 0
M  V30 2763 C 275.391 -1.68164 -0.204233 0
M  V30 2764 O 276.597 -1.79897 -0.0609304 0
M  V30 2765 H 272.972 -0.710654 0.245915 0
M  V30 2766 H 274.943 -2.42315 1.74143 0
M  V30 2767 C 273.692 -3.46381 0.302614 0
M  V30 2768 H 273.015 -3.84979 1.0785 0
M  V30 2769 H 274.455 -4.23844 0.115074 0
M  V30 2770 C 272.914 -3.22556 -0.972591 0
M  V30 2771 O 273.444 -3.45599 -2.04754 0
M  V30 2772 N 271.65 -2.76134 -0.905455 0
M  V30 2773 H 271.197 -2.57582 -0.0305421 0
M  V30 2774 H 271.155 -2.60571 -1.75926 0
M  V30 2775 N 274.927 -0.932562 -1.27047 0
M  V30 2776 C 275.837 -0.441219 -2.30414 0
M  V30 2777 C 276.853 0.480525 -1.67233 0
M  V30 2778 O 278.029 0.362151 -1.98117 0
M  V30 2779 C 275.094 0.293651 -3.45454 0
M  V30 2780 C 274.155 -0.663601 -4.2414 0
M  V30 2781 C 273.388 0.0362932 -5.33688 0
M  V30 2782 O 273.611 1.2548 -5.56427 0
M  V30 2783 O 272.545 -0.638015 -5.98509 0
M  V30 2784 H 276.371 -1.29962 -2.74488 0
M  V30 2785 H 273.956 -0.6981 -1.32087 0
M  V30 2786 H 275.838 0.707951 -4.15411 0
M  V30 2787 H 274.513 1.12758 -3.03426 0
M  V30 2788 H 273.42 -1.12768 -3.56699 0
M  V30 2789 H 274.753 -1.46489 -4.69896 0
M  V30 2790 N 276.405 1.4127 -0.698611 0
M  V30 2791 C 277.633 2.05503 -0.239992 0
M  V30 2792 C 278.048 1.52584 1.11191 0
M  V30 2793 O 277.405 0.675323 1.69545 0
M  V30 2794 C 277.456 3.60987 -0.192429 0
M  V30 2795 O 277.177 4.1195 -1.49094 0
M  V30 2796 C 278.678 4.42371 0.28681 0
M  V30 2797 H 275.898 0.661748 -0.111045 0
M  V30 2798 H 278.442 1.80987 -0.95205 0
M  V30 2799 H 276.597 3.84533 0.470472 0
M  V30 2800 H 277.011 5.06018 -1.38007 0
M  V30 2801 H 278.485 5.51344 0.26896 0
M  V30 2802 H 278.962 4.18699 1.32619 0
M  V30 2803 H 279.568 4.23897 -0.345201 0
M  V30 2804 N 277.883 0.443576 1.51229 0
M  V30 2805 C 279.132 -0.122332 2.01329 0
M  V30 2806 C 279.445 -1.43237 1.33201 0
M  V30 2807 O 280.651 -2.0816 1.74304 0
M  V30 2808 C 279.107 -0.268551 3.58897 0
M  V30 2809 C 278.715 1.03142 4.35965 0
M  V30 2810 C 280.459 -0.787894 4.17124 0
M  V30 2811 C 278.366 0.850504 5.85252 0
M  V30 2812 H 277.296 -0.0494929 0.752374 0
M  V30 2813 H 279.947 0.574289 1.74282 0
M  V30 2814 H 278.329 -1.02832 3.82415 0
M  V30 2815 H 279.503 1.80001 4.24189 0
M  V30 2816 H 277.818 1.47977 3.89219 0
M  V30 2817 H 280.415 -0.939841 5.26375 0
M  V30 2818 H 280.758 -1.77201 3.76703 0
M  V30 2819 H 281.291 -0.0862669 3.97706 0
M  V30 2820 H 278.03 1.80718 6.30096 0
M  V30 2821 H 277.55 0.121825 5.99676 0
M  V30 2822 H 279.229 0.506163 6.45017 0
M  V30 2823 N 279.361 -1.56624 0.175154 0
M  V30 2824 C 280.61 -1.96173 -0.468921 0
M  V30 2825 C 280.923 -1.06401 -1.64128 0
M  V30 2826 O 282.129 -1.35648 -2.35185 0
M  V30 2827 C 280.585 -3.48833 -0.885633 0
M  V30 2828 C 280.193 -4.47237 0.261343 0
M  V30 2829 C 281.937 -3.97194 -1.49791 0
M  V30 2830 C 279.844 -5.9114 -0.175214 0
M  V30 2831 H 278.774 -0.732455 -0.178958 0
M  V30 2832 H 281.425 -1.81591 0.263997 0
M  V30 2833 H 279.807 -3.58848 -1.67464 0
M  V30 2834 H 280.981 -4.4894 1.03871 0
M  V30 2835 H 279.296 -4.08956 0.783827 0
M  V30 2836 H 281.893 -5.02167 -1.83665 0
M  V30 2837 H 282.236 -3.40351 -2.39722 0
M  V30 2838 H 282.769 -3.90212 -0.773267 0
M  V30 2839 H 279.508 -6.51865 0.689414 0
M  V30 2840 H 279.028 -5.92735 -0.91786 0
M  V30 2841 H 280.707 -6.44044 -0.617792 0
M  V30 2842 N 280.839 0.0985539 -1.57292 0
M  V30 2843 C 281.771 1.14595 -1.98496 0
M  V30 2844 C 282.784 1.36512 -0.887031 0
M  V30 2845 O 283.973 1.35225 -1.16518 0
M  V30 2846 C 281.073 2.50216 -2.28572 0
M  V30 2847 C 280.246 2.48624 -3.59868 0
M  V30 2848 C 279.305 3.66146 -3.7792 0
M  V30 2849 O 278.331 3.48795 -4.49812 0
M  V30 2850 N 279.533 4.85496 -3.18235 0
M  V30 2851 H 282.298 0.795277 -2.88956 0
M  V30 2852 H 279.859 0.287579 -1.59325 0
M  V30 2853 H 281.851 3.27432 -2.37845 0
M  V30 2854 H 280.421 2.77387 -1.44136 0
M  V30 2855 H 279.641 1.56978 -3.61596 0
M  V30 2856 H 280.929 2.44635 -4.46129 0
M  V30 2857 H 280.327 5.02497 -2.59833 0
M  V30 2858 H 278.884 5.60317 -3.32999 0
M  V30 2859 N 282.317 1.53212 0.369288 0
M  V30 2860 C 283.28 1.7872 1.43498 0
M  V30 2861 C 284.28 0.657554 1.46741 0
M  V30 2862 O 285.47 0.925736 1.47566 0
M  V30 2863 C 282.602 1.90591 2.82645 0
M  V30 2864 H 283.795 2.73894 1.22156 0
M  V30 2865 H 281.348 1.44233 0.602203 0
M  V30 2866 H 282.083 0.974709 3.09306 0
M  V30 2867 H 281.868 2.72751 2.8169 0
M  V30 2868 H 283.358 2.11931 3.59826 0
M  V30 2869 N 283.795 -0.628877 1.44509 0
M  V30 2870 C 284.725 -1.75187 1.54376 0
M  V30 2871 C 285.706 -1.65411 0.396618 0
M  V30 2872 O 286.891 -1.84137 0.617031 0
M  V30 2873 C 284.021 -3.13725 1.48976 0
M  V30 2874 C 282.975 -3.38291 2.62189 0
M  V30 2875 C 282.301 -4.76883 2.41841 0
M  V30 2876 C 283.601 -3.30632 4.04326 0
M  V30 2877 H 285.295 -1.67187 2.48373 0
M  V30 2878 H 282.841 -0.802909 1.19538 0
M  V30 2879 H 284.794 -3.92064 1.54478 0
M  V30 2880 H 283.518 -3.22515 0.514961 0
M  V30 2881 H 282.177 -2.62334 2.56079 0
M  V30 2882 H 281.825 -4.82378 1.42548 0
M  V30 2883 H 281.525 -4.94278 3.17747 0
M  V30 2884 H 283.049 -5.57449 2.49165 0
M  V30 2885 H 284.463 -3.98873 4.11793 0
M  V30 2886 H 282.86 -3.59561 4.80454 0
M  V30 2887 H 283.93 -2.28404 4.27738 0
M  V30 2888 N 285.273 -1.31445 -0.869486 0
M  V30 2889 C 286.205 -1.14955 -1.98287 0
M  V30 2890 C 287.218 -0.0885037 -1.62559 0
M  V30 2891 O 288.407 -0.336044 -1.75308 0
M  V30 2892 C 285.507 -0.734255 -3.3085 0
M  V30 2893 C 284.68 -1.88042 -3.94917 0
M  V30 2894 C 283.739 -1.4511 -5.05796 0
M  V30 2895 O 282.765 -2.16082 -5.2659 0
M  V30 2896 N 283.967 -0.338763 -5.79511 0
M  V30 2897 H 286.732 -2.10856 -2.12979 0
M  V30 2898 H 284.293 -1.23786 -1.04349 0
M  V30 2899 H 286.285 -0.42975 -4.02412 0
M  V30 2900 H 284.855 0.133158 -3.12316 0
M  V30 2901 H 284.075 -2.35222 -3.1633 0
M  V30 2902 H 285.363 -2.6481 -4.34457 0
M  V30 2903 H 284.761 0.252274 -5.65137 0
M  V30 2904 H 283.318 -0.0937925 -6.51733 0
M  V30 2905 N 286.751 1.08385 -1.14413 0
M  V30 2906 C 287.698 2.15311 -0.831265 0
M  V30 2907 C 288.668 1.64751 0.211292 0
M  V30 2908 O 289.853 1.90627 0.0811674 0
M  V30 2909 C 286.993 3.43658 -0.315143 0
M  V30 2910 C 286.106 4.08064 -1.41802 0
M  V30 2911 C 285.241 5.24207 -0.859126 0
M  V30 2912 C 284.28 5.80554 -1.93967 0
M  V30 2913 N 283.417 6.88042 -1.39793 0
M  V30 2914 H 288.257 2.41415 -1.74708 0
M  V30 2915 H 285.794 1.18474 -0.871909 0
M  V30 2916 H 287.752 4.172 0.00230884 0
M  V30 2917 H 286.382 3.17839 0.56378 0
M  V30 2918 H 285.434 3.3228 -1.85187 0
M  V30 2919 H 286.746 4.45962 -2.23427 0
M  V30 2920 H 285.9 6.04689 -0.49359 0
M  V30 2921 H 284.639 4.87699 -0.011932 0
M  V30 2922 H 283.644 4.98725 -2.31415 0
M  V30 2923 H 284.869 6.19121 -2.79046 0
M  V30 2924 H 282.815 6.53493 -0.572919 0
M  V30 2925 H 282.732 7.24767 -2.15054 0
M  V30 2926 H 284 7.72255 -1.0603 0
M  V30 2927 N 288.23 0.939286 1.26551 0
M  V30 2928 C 289.162 0.404704 2.25599 0
M  V30 2929 C 290.175 -0.470983 1.55838 0
M  V30 2930 O 291.364 -0.281734 1.76263 0
M  V30 2931 C 288.464 -0.43764 3.36062 0
M  V30 2932 C 287.637 0.421449 4.35365 0
M  V30 2933 C 286.696 -0.36015 5.24966 0
M  V30 2934 O 285.722 0.236167 5.6871 0
M  V30 2935 N 286.924 -1.65715 5.56344 0
M  V30 2936 H 289.689 1.25618 2.72103 0
M  V30 2937 H 287.25 0.807963 1.40298 0
M  V30 2938 H 289.242 -0.967866 3.92956 0
M  V30 2939 H 287.812 -1.18991 2.89067 0
M  V30 2940 H 287.032 1.1329 3.7757 0
M  V30 2941 H 288.32 1.00835 4.98708 0
M  V30 2942 H 287.718 -2.16378 5.22682 0
M  V30 2943 H 286.275 -2.13366 6.15888 0
M  V30 2944 N 289.708 -1.40897 0.706093 0
M  V30 2945 C 290.957 -2.00284 0.238574 0
M  V30 2946 C 291.27 -1.56604 -1.17194 0
M  V30 2947 O 292.476 -2.08624 -1.73748 0
M  V30 2948 C 290.932 -3.57934 0.375623 0
M  V30 2949 C 290.54 -4.10591 1.79217 0
M  V30 2950 C 292.284 -4.24488 -0.0315857 0
M  V30 2951 C 290.191 -5.60712 1.88032 0
M  V30 2952 H 289.121 -0.749144 0.0854398 0
M  V30 2953 H 291.772 -1.61251 0.875813 0
M  V30 2954 H 290.154 -3.94622 -0.330042 0
M  V30 2955 H 291.328 -3.85301 2.52745 0
M  V30 2956 H 289.643 -3.56601 2.15 0
M  V30 2957 H 292.24 -5.34698 0.0136842 0
M  V30 2958 H 292.583 -4.02261 -1.072 0
M  V30 2959 H 293.116 -3.92873 0.624181 0
M  V30 2960 H 289.855 -5.87781 2.90161 0
M  V30 2961 H 289.375 -5.87896 1.18903 0
M  V30 2962 H 291.054 -6.25658 1.64805 0
M  V30 2963 N 291.186 -0.45159 -1.50991 0
M  V30 2964 C 292.133 0.352625 -2.2809 0
M  V30 2965 C 293.103 1.0044 -1.32291 0
M  V30 2966 O 294.288 1.02058 -1.6121 0
M  V30 2967 C 291.428 1.43983 -3.13629 0
M  V30 2968 C 290.541 0.804772 -4.24438 0
M  V30 2969 C 289.676 1.86822 -4.97263 0
M  V30 2970 C 288.715 1.21236 -5.99973 0
M  V30 2971 N 287.852 2.2178 -6.66152 0
M  V30 2972 H 292.692 -0.311186 -2.96371 0
M  V30 2973 H 290.229 -0.165308 -1.46168 0
M  V30 2974 H 292.187 2.08161 -3.61559 0
M  V30 2975 H 290.817 2.07307 -2.47434 0
M  V30 2976 H 289.869 0.0509129 -3.80366 0
M  V30 2977 H 291.181 0.286076 -4.97979 0
M  V30 2978 H 290.335 2.58628 -5.48813 0
M  V30 2979 H 289.074 2.42068 -4.23385 0
M  V30 2980 H 288.079 0.479828 -5.47702 0
M  V30 2981 H 289.304 0.667051 -6.75816 0
M  V30 2982 H 287.25 2.76079 -5.95077 0
M  V30 2983 H 287.167 1.74841 -7.35504 0
M  V30 2984 H 288.435 2.93026 -7.22327 0
M  V30 2985 N 292.664 1.56529 -0.183458 0
M  V30 2986 C 293.627 2.17324 0.728223 0
M  V30 2987 C 294.627 1.12453 1.14939 0
M  V30 2988 O 295.817 1.37902 1.06437 0
M  V30 2989 C 292.949 2.76591 1.99274 0
M  V30 2990 H 294.142 2.99241 0.198772 0
M  V30 2991 H 291.695 1.5616 0.0661391 0
M  V30 2992 H 292.43 1.98441 2.56499 0
M  V30 2993 H 292.215 3.5335 1.69959 0
M  V30 2994 H 293.705 3.23311 2.6431 0
M  V30 2995 N 294.142 -0.090211 1.57342 0
M  V30 2996 C 295.105 -1.09335 2.01441 0
M  V30 2997 C 296.105 -1.32666 0.908641 0
M  V30 2998 O 297.295 -1.28697 1.174 0
M  V30 2999 C 294.427 -2.44136 2.3793 0
M  V30 3000 H 295.62 -0.713662 2.91285 0
M  V30 3001 H 293.173 -0.335404 1.52659 0
M  V30 3002 H 293.908 -2.86972 1.51055 0
M  V30 3003 H 293.693 -2.28548 3.18603 0
M  V30 3004 H 295.183 -3.16277 2.72688 0
M  V30 3005 N 295.62 -1.53406 -0.361157 0
M  V30 3006 C 296.868 -1.69467 -1.10115 0
M  V30 3007 C 297.189 -0.451352 -1.89705 0
M  V30 3008 O 296.459 0.534636 -1.88463 0
M  V30 3009 H 295.039 -0.624749 -0.409508 0
M  V30 3010 H 297.701 -1.90609 -0.406699 0
M  V30 3011 H 296.797 -2.55774 -1.78847 0
M  V30 3012 N 297.098 0.621204 -1.44841 0
M  V30 3013 C 298.346 1.37783 -1.47852 0
M  V30 3014 C 298.667 1.94653 -0.116224 0
M  V30 3015 O 297.937 1.76367 0.852737 0
M  V30 3016 H 296.517 0.511453 -0.544449 0
M  V30 3017 H 299.179 0.730446 -1.80694 0
M  V30 3018 H 298.275 2.20414 -2.20961 0
M  V30 3019 N 298.576 1.31904 0.862503 0
M  V30 3020 C 299.523 1.20182 1.9704 0
M  V30 3021 C 300.493 0.0858247 1.65878 0
M  V30 3022 O 301.678 0.26 1.8902 0
M  V30 3023 C 298.818 0.922797 3.32533 0
M  V30 3024 C 297.931 2.12284 3.76244 0
M  V30 3025 C 297.066 1.77996 5.00491 0
M  V30 3026 C 296.105 2.94366 5.36671 0
M  V30 3027 N 295.242 2.60223 6.52095 0
M  V30 3028 H 300.082 2.14951 2.06398 0
M  V30 3029 H 297.619 1.06917 1.01031 0
M  V30 3030 H 299.577 0.741548 4.10557 0
M  V30 3031 H 298.207 0.0119227 3.22798 0
M  V30 3032 H 297.259 2.41461 2.9394 0
M  V30 3033 H 298.571 2.99357 3.98982 0
M  V30 3034 H 297.725 1.56377 5.862 0
M  V30 3035 H 296.464 0.881252 4.79672 0
M  V30 3036 H 295.469 3.16625 4.49476 0
M  V30 3037 H 296.694 3.84957 5.59451 0
M  V30 3038 H 294.64 1.72884 6.32809 0
M  V30 3039 H 294.557 3.40827 6.74814 0
M  V30 3040 H 295.825 2.42016 7.40978 0
M  V30 3041 N 300.054 -1.07777 1.14986 0
M  V30 3042 C 301.331 -1.7699 0.832695 0
M  V30 3043 C 301.711 -2.001 -0.672561 0
M  V30 3044 O 301.059 -1.61598 -1.6155 0
M  V30 3045 C 301.269 -3.08139 1.63863 0
M  V30 3046 C 302.617 -3.8256 1.84208 0
M  V30 3047 O 303.641 -3.17939 1.60603 0
M  V30 3048 O 302.5 -4.98612 2.23714 0
M  V30 3049 H 299.594 -0.768389 0.305791 0
M  V30 3050 H 302.14 -1.14182 1.25541 0
M  V30 3051 H 300.912 -2.86909 2.6608 0
M  V30 3052 H 300.535 -3.78678 1.21197 0
M  V30 3053 N 301.532 -0.945985 -1.26051 0
M  V30 3054 C 302.465 -0.403619 -2.24602 0
M  V30 3055 C 303.443 0.510241 -1.54387 0
M  V30 3056 O 304.627 0.446593 -1.83133 0
M  V30 3057 C 301.754 0.419564 -3.36091 0
M  V30 3058 C 300.8 -0.433454 -4.24292 0
M  V30 3059 S 301.633 -1.86037 -5.02146 0
M  V30 3060 C 302.789 -1.04538 -6.17108 0
M  V30 3061 H 303.022 -1.23883 -2.7026 0
M  V30 3062 H 300.555 -0.749438 -1.34992 0
M  V30 3063 H 302.513 0.888595 -4.00767 0
M  V30 3064 H 301.174 1.22951 -2.89036 0
M  V30 3065 H 300.367 0.197486 -5.03613 0
M  V30 3066 H 299.969 -0.837357 -3.64506 0
M  V30 3067 H 302.261 -0.289923 -6.76879 0
M  V30 3068 H 303.204 -1.81222 -6.84518 0
M  V30 3069 H 303.612 -0.579319 -5.61519 0
M  V30 3070 N 303.011 1.40521 -0.713556 0
M  V30 3071 C 303.974 2.29098 -0.0684347 0
M  V30 3072 C 304.974 1.45268 0.689472 0
M  V30 3073 O 306.164 1.66205 0.521677 0
M  V30 3074 C 303.296 3.28446 0.913024 0
M  V30 3075 H 304.489 2.87645 -0.84855 0
M  V30 3076 H 302.042 1.48809 -0.47809 0
M  V30 3077 H 302.777 2.74913 1.72027 0
M  V30 3078 H 302.562 3.90327 0.372472 0
M  V30 3079 H 304.052 3.94777 1.36165 0
M  V30 3080 N 304.489 0.459591 1.5075 0
M  V30 3081 C 305.452 -0.329093 2.26825 0
M  V30 3082 C 306.452 -0.930481 1.31144 0
M  V30 3083 O 307.642 -0.801453 1.54669 0
M  V30 3084 C 304.774 -1.46768 3.07688 0
M  V30 3085 H 305.967 0.337924 2.9799 0
M  V30 3086 H 303.52 0.213336 1.54837 0
M  V30 3087 H 304.255 -2.17009 2.40993 0
M  V30 3088 H 304.04 -1.04238 3.77991 0
M  V30 3089 H 305.53 -2.02433 3.65254 0
M  V30 3090 N 305.967 -1.56429 0.191757 0
M  V30 3091 C 307.197 -2.01574 -0.452928 0
M  V30 3092 C 307.605 -1.07107 -1.55964 0
M  V30 3093 O 306.948 -0.067534 -1.83576 0
M  V30 3094 C 307.01 -3.43121 -1.07278 0
M  V30 3095 C 306.674 -4.56879 -0.105214 0
M  V30 3096 C 307.671 -5.15379 0.684149 0
M  V30 3097 C 305.356 -5.023 0.00489824 0
M  V30 3098 C 307.35 -6.17746 1.57062 0
M  V30 3099 C 305.037 -6.04511 0.894935 0
M  V30 3100 C 306.035 -6.62108 1.67637 0
M  V30 3101 O 305.723 -7.62335 2.55149 0
M  V30 3102 H 305.455 -0.665554 -0.118379 0
M  V30 3103 H 308.009 -2.03245 0.296737 0
M  V30 3104 H 306.239 -3.38425 -1.87097 0
M  V30 3105 H 307.928 -3.72093 -1.62177 0
M  V30 3106 H 308.694 -4.81157 0.609365 0
M  V30 3107 H 304.573 -4.57168 -0.593156 0
M  V30 3108 H 308.117 -6.6263 2.181 0
M  V30 3109 H 304.014 -6.38157 0.970847 0
M  V30 3110 H 304.782 -7.79741 2.48892 0
M  V30 3111 N 307.445 0.0818655 -1.57387 0
M  V30 3112 C 308.355 1.11642 -2.06333 0
M  V30 3113 C 309.371 1.43033 -0.99083 0
M  V30 3114 O 310.547 1.53411 -1.30488 0
M  V30 3115 C 307.612 2.41342 -2.48907 0
M  V30 3116 C 306.673 2.17014 -3.7041 0
M  V30 3117 C 305.906 3.4053 -4.10944 0
M  V30 3118 O 306.129 4.4927 -3.51444 0
M  V30 3119 O 305.063 3.29336 -5.03807 0
M  V30 3120 H 308.889 0.730657 -2.9478 0
M  V30 3121 H 306.474 0.295301 -1.46452 0
M  V30 3122 H 308.356 3.17691 -2.76858 0
M  V30 3123 H 307.031 2.79319 -1.63593 0
M  V30 3124 H 305.938 1.38403 -3.47556 0
M  V30 3125 H 307.271 1.83923 -4.56545 0
M  V30 3126 N 308.923 1.53595 0.353017 0
M  V30 3127 C 309.886 1.80232 1.41594 0
M  V30 3128 C 310.886 0.673081 1.46035 0
M  V30 3129 O 312.076 0.941335 1.46576 0
M  V30 3130 C 309.208 1.93578 2.80607 0
M  V30 3131 H 310.401 2.75174 1.19244 0
M  V30 3132 H 307.954 1.44864 0.586872 0
M  V30 3133 H 308.689 1.00746 3.08254 0
M  V30 3134 H 308.474 2.75724 2.78781 0
M  V30 3135 H 309.964 2.15735 3.57558 0
M  V30 3136 N 310.401 -0.613514 1.45168 0
M  V30 3137 C 311.626 -1.40437 1.52618 0
M  V30 3138 C 312.051 -1.87438 0.157707 0
M  V30 3139 O 311.409 -1.59791 -0.856537 0
M  V30 3140 C 311.457 -2.58894 2.51011 0
M  V30 3141 O 310.561 -3.59326 2.02382 0
M  V30 3142 H 309.902 -0.419506 0.514695 0
M  V30 3143 H 312.432 -0.747215 1.90467 0
M  V30 3144 H 312.442 -3.06214 2.69624 0
M  V30 3145 H 311.117 -2.24032 3.50403 0
M  V30 3146 H 309.694 -3.18695 1.93618 0
M  V30 3147 N 311.879 -1.3236 -0.855495 0
M  V30 3148 C 312.811 -1.17052 -1.97057 0
M  V30 3149 C 313.824 -0.10574 -1.62456 0
M  V30 3150 O 315.013 -0.354619 -1.74942 0
M  V30 3151 C 312.113 -0.769305 -3.30053 0
M  V30 3152 C 311.286 -1.9222 -3.929 0
M  V30 3153 C 310.345 -1.50466 -5.04228 0
M  V30 3154 O 309.371 -2.21655 -5.24269 0
M  V30 3155 N 310.573 -0.400209 -5.79119 0
M  V30 3156 H 313.338 -2.13103 -2.1073 0
M  V30 3157 H 310.899 -1.24885 -1.0303 0
M  V30 3158 H 312.891 -0.472407 -4.01933 0
M  V30 3159 H 311.461 0.100025 -3.1244 0
M  V30 3160 H 310.681 -2.38563 -3.13817 0
M  V30 3161 H 311.969 -2.69403 -4.31624 0
M  V30 3162 H 311.367 0.192319 -5.65373 0
M  V30 3163 H 309.924 -0.162912 -6.51596 0
M  V30 3164 N 313.357 1.07166 -1.15556 0
M  V30 3165 C 314.768 1.6127 -0.940693 0
M  V30 3166 C 315.119 1.89251 0.517551 0
M  V30 3167 O 314.244 1.65937 1.38903 0
M  V30 3168 C 314.839 2.92993 -1.7012 0
M  V30 3169 C 313.398 3.43832 -1.53156 0
M  V30 3170 C 312.545 2.1786 -1.71558 0
M  V30 3171 H 315.496 0.90229 -1.30554 0
M  V30 3172 H 315.517 3.62007 -1.17181 0
M  V30 3173 H 315.029 2.72596 -2.76248 0
M  V30 3174 H 313.13 3.69307 -0.494294 0
M  V30 3175 H 313.243 4.19747 -2.30975 0
M  V30 3176 H 311.607 2.2765 -1.14225 0
M  V30 3177 H 312.39 1.99956 -2.79056 0
M  V30 3178 N 314.835 0.952656 1.25548 0
M  V30 3179 C 316.081 0.607272 1.93494 0
M  V30 3180 C 316.414 -0.853245 1.74452 0
M  V30 3181 O 315.689 -1.61194 1.08843 0
M  V30 3182 C 315.972 0.96435 3.46947 0
M  V30 3183 C 315.825 2.48045 3.75225 0
M  V30 3184 C 317.144 0.487987 4.37386 0
M  V30 3185 H 314.263 0.222096 0.702739 0
M  V30 3186 H 316.905 1.18895 1.48203 0
M  V30 3187 H 315.055 0.469361 3.85654 0
M  V30 3188 H 316.727 3.04905 3.46166 0
M  V30 3189 H 314.97 2.919 3.209 0
M  V30 3190 H 315.641 2.6808 4.82532 0
M  V30 3191 H 318.117 0.912558 4.0597 0
M  V30 3192 H 316.993 0.766547 5.43521 0
M  V30 3193 H 317.254 -0.612063 4.37843 0
M  V30 3194 N 316.313 -1.40141 0.720998 0
M  V30 3195 C 317.56 -2.00787 0.262842 0
M  V30 3196 C 317.888 -1.5718 -1.14563 0
M  V30 3197 O 317.143 -0.785391 -1.79249 0
M  V30 3198 C 317.442 -3.56165 0.296892 0
M  V30 3199 C 317.108 -4.19373 1.65641 0
M  V30 3200 C 315.77 -4.36352 2.02855 0
M  V30 3201 C 318.122 -4.54578 2.54968 0
M  V30 3202 C 315.45 -4.8582 3.28931 0
M  V30 3203 C 317.802 -5.05447 3.80402 0
M  V30 3204 C 316.466 -5.20635 4.17726 0
M  V30 3205 H 315.736 -0.734731 0.0961807 0
M  V30 3206 H 318.383 -1.67673 0.925093 0
M  V30 3207 H 316.688 -3.8922 -0.448932 0
M  V30 3208 H 318.385 -4.00929 -0.0755208 0
M  V30 3209 H 314.975 -4.06549 1.35704 0
M  V30 3210 H 319.159 -4.41091 2.27491 0
M  V30 3211 H 314.415 -4.95764 3.57811 0
M  V30 3212 H 318.589 -5.31663 4.49786 0
M  V30 3213 H 316.216 -5.58728 5.15487 0
M  V30 3214 N 317.792 -0.46758 -1.50504 0
M  V30 3215 C 318.724 0.364655 -2.26281 0
M  V30 3216 C 319.737 0.960151 -1.31472 0
M  V30 3217 O 320.926 0.849153 -1.57008 0
M  V30 3218 C 318.026 1.52509 -3.02645 0
M  V30 3219 C 317.199 1.04302 -4.24782 0
M  V30 3220 C 316.258 2.07709 -4.8347 0
M  V30 3221 O 315.284 1.65913 -5.44483 0
M  V30 3222 N 316.486 3.40485 -4.70159 0
M  V30 3223 H 319.251 -0.28495 -2.98342 0
M  V30 3224 H 316.812 -0.298163 -1.59131 0
M  V30 3225 H 318.804 2.21371 -3.38787 0
M  V30 3226 H 317.374 2.07945 -2.33404 0
M  V30 3227 H 316.594 0.180393 -3.93787 0
M  V30 3228 H 317.882 0.698798 -5.03978 0
M  V30 3229 H 317.28 3.77155 -4.21629 0
M  V30 3230 H 315.837 4.05156 -5.1058 0
M  V30 3231 N 319.27 1.56325 -0.20005 0
M  V30 3232 C 320.18 2.22931 0.730668 0
M  V30 3233 C 321.196 1.22997 1.23076 0
M  V30 3234 O 322.372 1.55748 1.27689 0
M  V30 3235 C 319.437 2.87948 1.93098 0
M  V30 3236 C 318.498 4.03166 1.47497 0
M  V30 3237 C 317.731 4.65073 2.61807 0
M  V30 3238 O 317.954 4.25913 3.79413 0
M  V30 3239 O 316.888 5.54452 2.34237 0
M  V30 3240 H 320.714 3.03084 0.193391 0
M  V30 3241 H 318.299 1.49371 0.0294621 0
M  V30 3242 H 320.181 3.29063 2.6324 0
M  V30 3243 H 318.856 2.10771 2.45677 0
M  V30 3244 H 317.763 3.66664 0.742201 0
M  V30 3245 H 319.096 4.82022 0.995796 0
M  V30 3246 N 320.748 -0.0735177 1.57428 0
M  V30 3247 C 321.696 -1.10628 2.04607 0
M  V30 3248 C 322.69 -1.40181 0.951088 0
M  V30 3249 O 323.896 -1.39608 1.1362 0
M  V30 3250 H 320.271 -0.374088 0.652351 0
M  V30 3251 H 322.242 -0.682218 2.90497 0
M  V30 3252 C 320.991 -2.41212 2.50423 0
M  V30 3253 H 320.314 -2.19322 3.34272 0
M  V30 3254 H 321.754 -3.11927 2.87189 0
M  V30 3255 C 320.213 -3.0705 1.38644 0
M  V30 3256 O 320.743 -3.95056 0.727582 0
M  V30 3257 N 318.949 -2.67645 1.132 0
M  V30 3258 H 318.496 -1.96169 1.66959 0
M  V30 3259 H 318.454 -3.1202 0.386147 0
M  V30 3260 N 322.226 -1.5378 -0.344866 0
M  V30 3261 C 323.136 -1.84667 -1.4469 0
M  V30 3262 C 324.152 -0.736704 -1.57635 0
M  V30 3263 O 325.328 -1.02888 -1.73136 0
M  V30 3264 C 322.393 -2.04869 -2.79696 0
M  V30 3265 C 321.454 -3.28731 -2.76106 0
M  V30 3266 C 320.687 -3.4796 -4.04673 0
M  V30 3267 O 320.91 -2.71052 -5.01883 0
M  V30 3268 O 319.844 -4.41383 -4.09224 0
M  V30 3269 H 323.67 -2.78334 -1.21506 0
M  V30 3270 H 321.255 -1.39418 -0.536921 0
M  V30 3271 H 323.137 -2.19609 -3.59652 0
M  V30 3272 H 321.812 -1.14391 -3.02814 0
M  V30 3273 H 320.719 -3.19396 -1.94774 0
M  V30 3274 H 322.052 -4.19198 -2.57941 0
M  V30 3275 N 323.704 0.605807 -1.45491 0
M  V30 3276 C 324.667 1.69836 -1.5391 0
M  V30 3277 C 325.667 1.55261 -0.418424 0
M  V30 3278 O 326.857 1.60296 -0.681965 0
M  V30 3279 C 323.989 3.09117 -1.43734 0
M  V30 3280 H 325.182 1.63738 -2.51257 0
M  V30 3281 H 322.735 0.821689 -1.32959 0
M  V30 3282 H 323.47 3.20791 -0.475788 0
M  V30 3283 H 323.255 3.21104 -2.25021 0
M  V30 3284 H 324.745 3.88696 -1.52661 0
M  V30 3285 N 325.182 1.32811 0.848464 0
M  V30 3286 C 326.431 1.23075 1.59798 0
M  V30 3287 C 326.744 -0.204419 1.94529 0
M  V30 3288 O 327.95 -0.423701 2.68173 0
M  V30 3289 C 326.406 2.15594 2.88179 0
M  V30 3290 C 326.014 3.64228 2.60849 0
M  V30 3291 C 327.758 2.14709 3.66197 0
M  V30 3292 C 325.665 4.48689 3.85269 0
M  V30 3293 H 324.595 0.457091 0.599653 0
M  V30 3294 H 327.246 1.57813 0.936342 0
M  V30 3295 H 325.628 1.73778 3.55833 0
M  V30 3296 H 326.802 4.14424 2.01467 0
M  V30 3297 H 325.117 3.67306 1.96151 0
M  V30 3298 H 327.714 2.75046 4.58534 0
M  V30 3299 H 328.057 1.13966 4.00397 0
M  V30 3300 H 328.59 2.54837 3.05455 0
M  V30 3301 H 325.329 5.5027 3.56207 0
M  V30 3302 H 324.849 4.03241 4.44024 0
M  V30 3303 H 326.528 4.62006 4.52946 0
M  V30 3304 N 326.66 -1.06551 1.16123 0
M  V30 3305 C 327.592 -2.13908 0.823171 0
M  V30 3306 C 328.605 -1.61926 -0.16843 0
M  V30 3307 O 329.794 -1.78412 0.055962 0
M  V30 3308 C 326.894 -3.38283 0.204424 0
M  V30 3309 C 326.067 -4.19589 1.23548 0
M  V30 3310 C 325.126 -5.2233 0.637011 0
M  V30 3311 O 324.152 -5.54034 1.30516 0
M  V30 3312 N 325.354 -5.77621 -0.577474 0
M  V30 3313 H 328.119 -2.43508 1.74711 0
M  V30 3314 H 325.68 -1.2253 1.05821 0
M  V30 3315 H 327.672 -4.0416 -0.208909 0
M  V30 3316 H 326.242 -3.06329 -0.623012 0
M  V30 3317 H 325.462 -3.49406 1.82507 0
M  V30 3318 H 326.75 -4.70718 1.93137 0
M  V30 3319 H 326.148 -5.54125 -1.13853 0
M  V30 3320 H 324.705 -6.45087 -0.933053 0
M  V30 3321 N 328.138 -0.959301 -1.25041 0
M  V30 3322 C 329.554 -0.664474 -1.4511 0
M  V30 3323 C 329.754 0.776481 -1.85938 0
M  V30 3324 O 328.81 1.55128 -1.99227 0
M  V30 3325 C 330.123 -1.64139 -2.5195 0
M  V30 3326 C 331.671 -1.65309 -2.65786 0
M  V30 3327 C 332.146 -2.61777 -3.75815 0
M  V30 3328 N 333.637 -2.60169 -3.83231 0
M  V30 3329 C 334.372 -3.31489 -4.6787 0
M  V30 3330 N 333.868 -4.12298 -5.56761 0
M  V30 3331 N 335.661 -3.20354 -4.61876 0
M  V30 3332 H 327.812 -1.89043 -0.968332 0
M  V30 3333 H 330.075 -0.813408 -0.4869 0
M  V30 3334 H 329.781 -2.67086 -2.28819 0
M  V30 3335 H 329.655 -1.40756 -3.49954 0
M  V30 3336 H 332.042 -0.630778 -2.8828 0
M  V30 3337 H 332.123 -1.92753 -1.68167 0
M  V30 3338 H 331.767 -3.64137 -3.54071 0
M  V30 3339 H 331.697 -2.31616 -4.72929 0
M  V30 3340 H 334.188 -2.01507 -3.19692 0
M  V30 3341 H 334.501 -4.63625 -6.18281 0
M  V30 3342 H 332.846 -4.16395 -5.56454 0
M  V30 3343 H 336.037 -2.56692 -3.91442 0
M  V30 3344 H 336.21 -3.76201 -5.27614 0
M  V30 3345 N 329.616 1.39756 -0.72842 0
M  V30 3346 C 330.579 2.29012 -0.0927297 0
M  V30 3347 C 331.579 1.45992 0.674025 0
M  V30 3348 O 332.769 1.66749 0.50402 0
M  V30 3349 C 329.901 3.29396 0.878137 0
M  V30 3350 H 331.094 2.86729 -0.879011 0
M  V30 3351 H 328.647 1.48293 -0.493847 0
M  V30 3352 H 329.382 2.76722 1.69101 0
M  V30 3353 H 329.167 3.907 0.331051 0
M  V30 3354 H 330.657 3.96199 1.3197 0
M  V30 3355 N 331.094 0.475555 1.50254 0
M  V30 3356 C 332.024 -0.30611 2.31485 0
M  V30 3357 C 333.005 -0.986228 1.38591 0
M  V30 3358 O 334.19 -0.982541 1.67511 0
M  V30 3359 C 331.32 -1.38588 3.1845 0
M  V30 3360 C 330.274 -0.827115 4.19932 0
M  V30 3361 C 329.6 -2.00551 4.95665 0
M  V30 3362 C 330.9 0.16463 5.2204 0
M  V30 3363 H 332.594 0.371866 2.97082 0
M  V30 3364 H 330.14 0.180282 1.42867 0
M  V30 3365 H 332.093 -1.94023 3.74076 0
M  V30 3366 H 330.817 -2.09269 2.50747 0
M  V30 3367 H 329.476 -0.294702 3.65414 0
M  V30 3368 H 329.124 -2.6994 4.2443 0
M  V30 3369 H 328.824 -1.63784 5.64313 0
M  V30 3370 H 330.348 -2.56468 5.54127 0
M  V30 3371 H 331.762 -0.300699 5.72511 0
M  V30 3372 H 330.159 0.446813 5.98434 0
M  V30 3373 H 331.229 1.08905 4.72512 0
M  V30 3374 N 332.573 -1.56217 0.208337 0
M  V30 3375 C 333.503 -2.22694 -0.702116 0
M  V30 3376 C 334.484 -1.19432 -1.2112 0
M  V30 3377 O 335.669 -1.47978 -1.25762 0
M  V30 3378 C 332.799 -2.8966 -1.9161 0
M  V30 3379 C 331.753 -3.9928 -1.5414 0
M  V30 3380 C 331.079 -4.53476 -2.83308 0
M  V30 3381 C 332.379 -5.17012 -0.741339 0
M  V30 3382 H 334.073 -2.99034 -0.147898 0
M  V30 3383 H 331.619 -1.43831 -0.0696951 0
M  V30 3384 H 333.572 -3.34852 -2.55836 0
M  V30 3385 H 332.296 -2.10746 -2.49507 0
M  V30 3386 H 330.955 -3.54799 -0.922668 0
M  V30 3387 H 330.603 -3.71308 -3.39322 0
M  V30 3388 H 330.303 -5.27451 -2.58976 0
M  V30 3389 H 331.827 -5.01378 -3.485 0
M  V30 3390 H 333.241 -5.58667 -1.28699 0
M  V30 3391 H 331.638 -5.97137 -0.595627 0
M  V30 3392 H 332.708 -4.8423 0.254851 0
M  V30 3393 N 334.051 0.0651679 -1.57465 0
M  V30 3394 C 334.981 1.07693 -2.07182 0
M  V30 3395 C 335.962 1.39962 -0.966673 0
M  V30 3396 O 337.147 1.49475 -1.2398 0
M  V30 3397 C 334.277 2.3885 -2.52127 0
M  V30 3398 C 333.231 2.20917 -3.66579 0
M  V30 3399 C 332.557 3.57515 -3.97601 0
M  V30 3400 C 333.857 1.62493 -4.9638 0
M  V30 3401 H 335.551 0.663199 -2.91962 0
M  V30 3402 H 333.097 0.317569 -1.40455 0
M  V30 3403 H 335.05 3.09928 -2.85522 0
M  V30 3404 H 333.774 2.82215 -1.64384 0
M  V30 3405 H 332.433 1.52279 -3.33477 0
M  V30 3406 H 332.081 3.98463 -3.06979 0
M  V30 3407 H 331.781 3.46353 -4.74672 0
M  V30 3408 H 333.305 4.30013 -4.33499 0
M  V30 3409 H 334.719 2.23445 -5.27963 0
M  V30 3410 H 333.116 1.62009 -5.77818 0
M  V30 3411 H 334.186 0.587041 -4.81333 0
M  V30 3412 N 335.529 1.53961 0.336706 0
M  V30 3413 C 336.461 1.78751 1.4346 0
M  V30 3414 C 337.474 0.669019 1.48418 0
M  V30 3415 O 338.663 0.945884 1.51378 0
M  V30 3416 C 335.763 1.87844 2.82078 0
M  V30 3417 C 334.936 3.17854 3.00479 0
M  V30 3418 C 333.995 3.17816 4.19379 0
M  V30 3419 O 333.021 3.91511 4.13168 0
M  V30 3420 N 334.223 2.40669 5.2826 0
M  V30 3421 H 336.988 2.73493 1.22563 0
M  V30 3422 H 334.549 1.53096 0.526625 0
M  V30 3423 H 336.541 1.85261 3.59806 0
M  V30 3424 H 335.111 1.00257 2.96086 0
M  V30 3425 H 334.331 3.33504 2.10163 0
M  V30 3426 H 335.619 4.03718 3.0966 0
M  V30 3427 H 335.017 1.8036 5.36178 0
M  V30 3428 H 333.574 2.43877 6.04456 0
M  V30 3429 N 337.007 -0.598083 1.45811 0
M  V30 3430 C 337.954 -1.7082 1.55207 0
M  V30 3431 C 338.924 -1.61278 0.39732 0
M  V30 3432 O 340.109 -1.80717 0.612038 0
M  V30 3433 C 337.249 -3.09144 1.53376 0
M  V30 3434 C 336.362 -3.29423 2.79472 0
M  V30 3435 C 335.497 -4.57907 2.69248 0
M  V30 3436 C 334.536 -4.71476 3.90354 0
M  V30 3437 N 333.673 -5.9127 3.78608 0
M  V30 3438 H 338.513 -1.62125 2.50039 0
M  V30 3439 H 336.05 -0.790389 1.24062 0
M  V30 3440 H 338.008 -3.89186 1.50301 0
M  V30 3441 H 336.638 -3.16773 0.620876 0
M  V30 3442 H 335.69 -2.43091 2.92594 0
M  V30 3443 H 337.002 -3.3532 3.69272 0
M  V30 3444 H 336.156 -5.46157 2.64192 0
M  V30 3445 H 334.895 -4.54423 1.77063 0
M  V30 3446 H 333.9 -3.81648 3.95759 0
M  V30 3447 H 335.125 -4.76751 4.83617 0
M  V30 3448 H 333.071 -5.88813 2.89199 0
M  V30 3449 H 332.988 -5.98369 4.6205 0
M  V30 3450 H 334.256 -6.81992 3.77501 0
M  V30 3451 N 338.485 -1.33259 -0.841409 0
M  V30 3452 C 339.395 -1.25332 -1.98316 0
M  V30 3453 C 340.411 -0.164364 -1.73222 0
M  V30 3454 O 341.587 -0.387486 -1.97637 0
M  V30 3455 C 338.652 -0.990078 -3.32262 0
M  V30 3456 C 337.713 -2.16879 -3.70489 0
M  V30 3457 C 336.946 -1.91801 -4.98044 0
M  V30 3458 O 337.169 -0.867075 -5.63771 0
M  V30 3459 O 336.103 -2.78267 -5.33714 0
M  V30 3460 H 339.929 -2.21344 -2.07944 0
M  V30 3461 H 337.514 -1.1328 -0.974058 0
M  V30 3462 H 339.396 -0.860321 -4.12524 0
M  V30 3463 H 338.071 -0.0602155 -3.23644 0
M  V30 3464 H 336.978 -2.35407 -2.90748 0
M  V30 3465 H 338.311 -3.0819 -3.8377 0
M  V30 3466 N 339.963 1.05934 -1.16686 0
M  V30 3467 C 340.926 2.11669 -0.879144 0
M  V30 3468 C 341.926 1.60294 0.127445 0
M  V30 3469 O 343.116 1.7389 -0.103865 0
M  V30 3470 C 340.248 3.39438 -0.315425 0
M  V30 3471 H 341.441 2.38626 -1.81653 0
M  V30 3472 H 338.994 1.22058 -0.976299 0
M  V30 3473 H 339.729 3.18132 0.629468 0
M  V30 3474 H 339.514 3.78034 -1.04079 0
M  V30 3475 H 341.004 4.17391 -0.132189 0
M  V30 3476 N 341.441 0.965919 1.2453 0
M  V30 3477 C 342.689 0.625593 1.92174 0
M  V30 3478 C 343.01 -0.841652 1.75901 0
M  V30 3479 O 342.28 -1.60061 1.12948 0
M  V30 3480 H 340.86 0.228388 0.71123 0
M  V30 3481 H 343.522 1.2266 1.51461 0
M  V30 3482 H 342.618 0.864653 2.99884 0
M  V30 3483 N 342.919 -1.39368 0.735821 0
M  V30 3484 C 344.159 -2.02349 0.288813 0
M  V30 3485 C 344.523 -1.57127 -1.10341 0
M  V30 3486 O 345.724 -2.12312 -1.64854 0
M  V30 3487 C 343.995 -3.55288 0.387986 0
M  V30 3488 S 345.554 -4.38795 0.0209408 0
M  V30 3489 H 342.372 -0.701944 0.113115 0
M  V30 3490 H 344.974 -1.70164 0.962518 0
M  V30 3491 H 343.678 -3.85691 1.40252 0
M  V30 3492 H 343.209 -3.92227 -0.303512 0
M  V30 3493 H 345.224 -4.81595 -1.19503 0
M  V30 3494 N 344.397 -0.483516 -1.5 0
M  V30 3495 C 345.813 -0.138404 -1.58999 0
M  V30 3496 C 346.013 1.35597 -1.4905 0
M  V30 3497 O 345.069 2.13039 -1.35539 0
M  V30 3498 C 346.382 -0.699658 -2.92447 0
M  V30 3499 C 347.93 -0.664195 -3.05872 0
M  V30 3500 C 348.405 -1.20321 -4.41913 0
M  V30 3501 N 349.896 -1.16315 -4.48358 0
M  V30 3502 C 350.631 -1.55058 -5.52037 0
M  V30 3503 N 350.127 -2.01311 -6.62907 0
M  V30 3504 N 351.92 -1.46584 -5.42651 0
M  V30 3505 H 344.071 -1.45529 -1.5471 0
M  V30 3506 H 346.334 -0.60258 -0.731848 0
M  V30 3507 H 346.04 -1.747 -3.05242 0
M  V30 3508 H 345.914 -0.150194 -3.76901 0
M  V30 3509 H 348.301 0.374272 -2.92717 0
M  V30 3510 H 348.382 -1.25061 -2.23144 0
M  V30 3511 H 348.026 -2.24037 -4.55818 0
M  V30 3512 H 347.956 -0.592896 -5.23252 0
M  V30 3513 H 350.447 -0.824058 -3.68806 0
M  V30 3514 H 350.76 -2.2899 -7.38095 0
M  V30 3515 H 349.105 -2.05273 -6.63994 0
M  V30 3516 H 352.296 -1.10281 -4.54924 0
M  V30 3517 H 352.469 -1.77103 -6.23329 0
M  V30 3518 N 345.875 1.56104 -0.216619 0
M  V30 3519 C 346.805 2.23063 0.690296 0
M  V30 3520 C 347.786 1.20072 1.20485 0
M  V30 3521 O 348.971 1.48643 1.24976 0
M  V30 3522 C 346.101 2.90672 1.90072 0
M  V30 3523 C 345.055 4.00092 1.5202 0
M  V30 3524 C 344.381 4.54972 2.80899 0
M  V30 3525 C 345.681 5.17398 0.71391 0
M  V30 3526 H 347.375 2.99109 0.132038 0
M  V30 3527 H 344.921 1.43866 0.0620664 0
M  V30 3528 H 346.874 3.36204 2.54057 0
M  V30 3529 H 345.598 2.12066 2.48386 0
M  V30 3530 H 344.257 3.55283 0.903839 0
M  V30 3531 H 343.905 3.73102 3.37348 0
M  V30 3532 H 343.605 5.28817 2.56176 0
M  V30 3533 H 345.129 5.0322 3.45836 0
M  V30 3534 H 346.543 5.59342 1.25735 0
M  V30 3535 H 344.94 5.97444 0.563951 0
M  V30 3536 H 346.01 4.84088 -0.280527 0
M  V30 3537 N 347.353 -0.0568162 1.57498 0
M  V30 3538 C 348.602 -0.752001 1.87157 0
M  V30 3539 C 348.915 -1.77978 0.811375 0
M  V30 3540 O 350.121 -2.52559 0.996293 0
M  V30 3541 C 348.577 -1.38844 3.3204 0
M  V30 3542 C 348.185 -0.398456 4.46225 0
M  V30 3543 C 349.929 -2.06512 3.70882 0
M  V30 3544 C 347.836 -1.04166 5.82154 0
M  V30 3545 H 346.766 -0.28461 0.698222 0
M  V30 3546 H 349.417 -0.00561272 1.83499 0
M  V30 3547 H 347.799 -2.1836 3.30356 0
M  V30 3548 H 348.973 0.367977 4.59328 0
M  V30 3549 H 347.288 0.174592 4.16034 0
M  V30 3550 H 349.885 -2.55437 4.6974 0
M  V30 3551 H 350.228 -2.87117 3.01445 0
M  V30 3552 H 350.761 -1.33808 3.7462 0
M  V30 3553 H 347.5 -0.275614 6.5492 0
M  V30 3554 H 347.02 -1.7786 5.72823 0
M  V30 3555 H 348.699 -1.55715 6.27982 0
M  V30 3556 N 348.832 -1.54138 -0.328536 0
M  V30 3557 C 350.078 -1.7236 -1.06865 0
M  V30 3558 C 350.411 -0.493231 -1.87832 0
M  V30 3559 O 349.686 0.5098 -1.877 0
M  V30 3560 C 349.969 -2.99621 -1.99747 0
M  V30 3561 C 349.822 -4.32899 -1.22143 0
M  V30 3562 C 351.141 -3.22615 -2.99345 0
M  V30 3563 H 348.26 -0.627151 -0.387105 0
M  V30 3564 H 350.902 -1.86827 -0.345767 0
M  V30 3565 H 349.052 -2.87418 -2.61387 0
M  V30 3566 H 350.724 -4.56978 -0.630017 0
M  V30 3567 H 348.967 -4.30628 -0.523628 0
M  V30 3568 H 349.638 -5.18154 -1.90318 0
M  V30 3569 H 352.114 -3.34248 -2.47826 0
M  V30 3570 H 350.99 -4.13027 -3.61524 0
M  V30 3571 H 351.251 -2.3961 -3.71536 0
M  V30 3572 N 350.31 0.590341 -1.46126 0
M  V30 3573 C 351.24 1.71032 -1.58966 0
M  V30 3574 C 352.221 1.64302 -0.440335 0
M  V30 3575 O 353.406 1.82436 -0.665634 0
M  V30 3576 C 350.536 3.09665 -1.57241 0
M  V30 3577 C 349.49 3.31221 -2.71066 0
M  V30 3578 C 348.816 4.70303 -2.54399 0
M  V30 3579 C 350.116 3.19796 -4.1295 0
M  V30 3580 H 351.81 1.60543 -2.52718 0
M  V30 3581 H 349.356 0.770933 -1.21625 0
M  V30 3582 H 351.309 3.87831 -1.64819 0
M  V30 3583 H 350.033 3.21036 -0.600289 0
M  V30 3584 H 348.692 2.55452 -2.62944 0
M  V30 3585 H 348.34 4.78429 -1.55288 0
M  V30 3586 H 348.04 4.85679 -3.30741 0
M  V30 3587 H 349.564 5.50647 -2.63857 0
M  V30 3588 H 350.978 3.87815 -4.22223 0
M  V30 3589 H 349.375 3.46696 -4.89818 0
M  V30 3590 H 350.445 2.16983 -4.33643 0
M  V30 3591 N 351.788 1.33704 0.83433 0
M  V30 3592 C 352.738 1.20899 1.93306 0
M  V30 3593 C 353.722 0.110783 1.60518 0
M  V30 3594 O 354.914 0.339331 1.73717 0
M  V30 3595 C 352.043 0.955018 3.29749 0
M  V30 3596 C 351.129 2.09587 3.68692 0
M  V30 3597 N 351.52 3.34621 3.79292 0
M  V30 3598 C 349.818 2.00358 3.98463 0
M  V30 3599 C 350.519 4.09472 4.13167 0
M  V30 3600 N 349.495 3.37954 4.25779 0
M  V30 3601 H 353.297 2.15665 1.99664 0
M  V30 3602 H 350.811 1.25777 1.02732 0
M  V30 3603 H 352.808 0.844208 4.08263 0
M  V30 3604 H 351.468 0.0159317 3.24696 0
M  V30 3605 H 352.479 3.69313 3.63082 0
M  V30 3606 H 349.156 1.14137 4.01596 0
M  V30 3607 H 350.546 5.17391 4.28668 0
M  V30 3608 N 353.266 -1.05314 1.17247 0
M  V30 3609 C 354.512 -1.78557 0.961513 0
M  V30 3610 C 354.845 -1.87419 -0.508697 0
M  V30 3611 O 354.12 -1.37307 -1.37757 0
M  V30 3612 C 354.403 -3.22514 1.60176 0
M  V30 3613 C 354.256 -3.21673 3.14399 0
M  V30 3614 C 355.575 -4.20318 1.30463 0
M  V30 3615 H 352.694 -0.6482 0.350723 0
M  V30 3616 H 355.336 -1.23102 1.44727 0
M  V30 3617 H 353.486 -3.69867 1.18871 0
M  V30 3618 H 355.158 -2.82405 3.64753 0
M  V30 3619 H 353.401 -2.60048 3.47214 0
M  V30 3620 H 354.072 -4.23271 3.54324 0
M  V30 3621 H 356.548 -3.81454 1.66229 0
M  V30 3622 H 355.424 -5.19289 1.77848 0
M  V30 3623 H 355.685 -4.41526 0.22521 0
M  V30 3624 N 354.744 -0.972509 -1.24016 0
M  V30 3625 C 355.969 -0.654417 -1.96805 0
M  V30 3626 C 356.394 0.770398 -1.716 0
M  V30 3627 O 355.752 1.52361 -0.982647 0
M  V30 3628 C 355.8 -0.941031 -3.48105 0
M  V30 3629 O 354.904 -0.0289472 -4.1239 0
M  V30 3630 H 354.245 -0.24692 -0.616382 0
M  V30 3631 H 356.775 -1.30396 -1.57664 0
M  V30 3632 H 356.785 -0.87452 -3.98517 0
M  V30 3633 H 355.46 -1.97939 -3.65777 0
M  V30 3634 H 354.037 -0.149192 -3.72601 0
M  V30 3635 N 356.222 1.38976 -0.743202 0
M  V30 3636 C 357.17 2.32394 -0.0978389 0
M  V30 3637 C 358.164 1.53486 0.716824 0
M  V30 3638 O 359.37 1.69092 0.617088 0
M  V30 3639 H 355.745 0.75189 -0.0128402 0
M  V30 3640 H 357.716 2.84441 -0.901981 0
M  V30 3641 C 356.465 3.38629 0.789036 0
M  V30 3642 H 355.788 3.99432 0.171559 0
M  V30 3643 H 357.228 4.06426 1.20807 0
M  V30 3644 C 355.687 2.76347 1.92702 0
M  V30 3645 O 356.217 2.64836 3.02034 0
M  V30 3646 N 354.423 2.34311 1.71891 0
M  V30 3647 H 353.97 2.43873 0.829675 0
M  V30 3648 H 353.928 1.9298 2.48205 0
M  V30 3649 N 357.7 0.491464 1.49741 0
M  V30 3650 C 359.111 0.0413169 1.86654 0
M  V30 3651 C 359.462 -1.36985 1.40462 0
M  V30 3652 O 358.587 -2.01917 0.778354 0
M  V30 3653 C 359.182 0.0682023 3.38731 0
M  V30 3654 C 357.741 -0.32656 3.74981 0
M  V30 3655 C 356.888 0.444888 2.73708 0
M  V30 3656 H 359.839 0.704733 1.42194 0
M  V30 3657 H 359.86 -0.729322 3.73445 0
M  V30 3658 H 359.372 1.09539 3.72321 0
M  V30 3659 H 357.473 -1.35734 3.46997 0
M  V30 3660 H 357.586 -0.013741 4.79098 0
M  V30 3661 H 355.95 -0.104062 2.54487 0
M  V30 3662 H 356.733 1.47197 3.10142 0
M  V30 3663 N 359.178 -1.55987 0.224894 0
M  V30 3664 C 360.455 -1.90232 -0.455083 0
M  V30 3665 C 360.835 -1.14269 -1.77499 0
M  V30 3666 O 360.183 -0.253079 -2.27094 0
M  V30 3667 C 360.393 -3.42993 -0.644758 0
M  V30 3668 C 361.741 -4.13821 -0.950669 0
M  V30 3669 O 362.765 -3.4861 -0.731423 0
M  V30 3670 O 361.624 -5.29128 -1.36695 0
M  V30 3671 H 358.718 -0.79108 -0.241084 0
M  V30 3672 H 361.264 -1.67581 0.267327 0
M  V30 3673 H 360.036 -3.90252 0.28613 0
M  V30 3674 H 359.659 -3.71434 -1.41853 0
M  V30 3675 N 360.656 0.0484629 -1.57525 0
M  V30 3676 C 361.904 0.741657 -1.88 0
M  V30 3677 C 362.225 1.76918 -0.820054 0
M  V30 3678 O 361.495 1.95335 0.148661 0
M  V30 3679 H 360.075 0.276908 -0.69378 0
M  V30 3680 H 362.737 0.019013 -1.94891 0
M  V30 3681 H 361.833 1.24336 -2.86264 0
M  V30 3682 N 362.134 1.5431 0.320358 0
M  V30 3683 C 363.38 1.72924 1.05949 0
M  V30 3684 C 363.713 0.503185 1.87568 0
M  V30 3685 O 362.988 -0.499839 1.87968 0
M  V30 3686 C 363.271 3.00676 1.98156 0
M  V30 3687 C 363.124 4.3354 1.19845 0
M  V30 3688 C 364.443 3.24198 2.9763 0
M  V30 3689 H 361.562 0.629195 0.383774 0
M  V30 3690 H 364.204 1.87008 0.335854 0
M  V30 3691 H 362.354 2.888 2.59859 0
M  V30 3692 H 364.026 4.57305 0.605773 0
M  V30 3693 H 362.269 4.309 0.500784 0
M  V30 3694 H 362.94 5.19156 1.87567 0
M  V30 3695 H 365.416 3.35557 2.4605 0
M  V30 3696 H 364.292 4.14938 3.59329 0
M  V30 3697 H 364.553 2.41577 3.7026 0
M  V30 3698 N 363.613 -0.582584 1.46437 0
M  V30 3699 C 364.523 -1.71949 1.59595 0
M  V30 3700 C 365.539 -1.67264 0.479443 0
M  V30 3701 O 366.715 -1.87171 0.743579 0
M  V30 3702 C 363.78 -3.08452 1.58298 0
M  V30 3703 C 362.841 -3.244 2.81182 0
M  V30 3704 C 362.074 -4.54391 2.79937 0
M  V30 3705 O 362.297 -5.38287 1.8869 0
M  V30 3706 O 361.231 -4.73588 3.71481 0
M  V30 3707 H 365.057 -1.63795 2.55744 0
M  V30 3708 H 362.642 -0.749643 1.29231 0
M  V30 3709 H 364.524 -3.89732 1.60271 0
M  V30 3710 H 363.199 -3.17043 0.653094 0
M  V30 3711 H 362.106 -2.42613 2.84763 0
M  V30 3712 H 363.439 -3.20699 3.7338 0
M  V30 3713 N 365.091 -1.34144 -0.827227 0
M  V30 3714 C 366.021 -1.28005 -1.95287 0
M  V30 3715 C 367.002 -0.158321 -1.69362 0
M  V30 3716 O 368.187 -0.349987 -1.9102 0
M  V30 3717 C 365.317 -1.03036 -3.31664 0
M  V30 3718 C 364.271 -2.11628 -3.72019 0
M  V30 3719 C 363.597 -1.71854 -5.0633 0
M  V30 3720 C 364.897 -3.53417 -3.8457 0
M  V30 3721 H 366.591 -2.22187 -2.00682 0
M  V30 3722 H 364.137 -1.0696 -0.964135 0
M  V30 3723 H 366.09 -0.973863 -4.09993 0
M  V30 3724 H 364.814 -0.0529391 -3.26557 0
M  V30 3725 H 363.473 -2.16339 -2.95961 0
M  V30 3726 H 363.121 -0.727841 -4.97706 0
M  V30 3727 H 362.821 -2.44531 -5.34302 0
M  V30 3728 H 364.345 -1.67692 -5.87122 0
M  V30 3729 H 365.759 -3.51142 -4.5318 0
M  V30 3730 H 364.156 -4.24679 -4.2399 0
M  V30 3731 H 365.226 -3.91072 -2.86689 0
M  V30 3732 N 366.569 1.04691 -1.17803 0
M  V30 3733 C 367.818 1.77176 -0.963931 0
M  V30 3734 C 368.131 1.88888 0.508015 0
M  V30 3735 O 369.337 2.58164 0.840465 0
M  V30 3736 C 367.793 3.18518 -1.67555 0
M  V30 3737 C 367.401 3.14919 -3.18637 0
M  V30 3738 C 369.145 3.95424 -1.54402 0
M  V30 3739 C 367.052 4.51081 -3.82466 0
M  V30 3740 H 365.982 0.664116 -0.357023 0
M  V30 3741 H 368.633 1.17303 -1.4111 0
M  V30 3742 H 367.015 3.78748 -1.15613 0
M  V30 3743 H 368.189 2.64178 -3.77554 0
M  V30 3744 H 366.504 2.51512 -3.31859 0
M  V30 3745 H 369.101 4.96106 -1.99456 0
M  V30 3746 H 369.444 4.13343 -0.495329 0
M  V30 3747 H 369.977 3.41754 -2.0359 0
M  V30 3748 H 366.716 4.38368 -4.87354 0
M  V30 3749 H 366.236 5.01951 -3.28337 0
M  V30 3750 H 367.915 5.2001 -3.84965 0
M  V30 3751 N 368.047 0.979072 1.23499 0
M  V30 3752 C 368.997 0.489378 2.22686 0
M  V30 3753 C 369.981 -0.434871 1.54912 0
M  V30 3754 O 371.173 -0.263941 1.75021 0
M  V30 3755 C 368.302 -0.208178 3.42668 0
M  V30 3756 C 367.388 0.735563 4.17672 0
M  V30 3757 N 367.779 1.87763 4.69658 0
M  V30 3758 C 366.077 0.548625 4.42613 0
M  V30 3759 C 366.778 2.46886 5.26709 0
M  V30 3760 N 365.754 1.75287 5.14563 0
M  V30 3761 H 369.556 1.36062 2.60508 0
M  V30 3762 H 367.07 0.83958 1.39014 0
M  V30 3763 H 369.067 -0.576295 4.12898 0
M  V30 3764 H 367.727 -1.07572 3.06363 0
M  V30 3765 H 368.738 2.25885 4.66043 0
M  V30 3766 H 365.415 -0.274006 4.166 0
M  V30 3767 H 366.805 3.43326 5.77561 0
M  V30 3768 N 369.525 -1.3858 0.750561 0
M  V30 3769 C 370.457 -2.29057 0.0810714 0
M  V30 3770 C 371.47 -1.47596 -0.686973 0
M  V30 3771 O 372.659 -1.70495 -0.528563 0
M  V30 3772 C 369.759 -3.26475 -0.909247 0
M  V30 3773 C 368.932 -4.36945 -0.199478 0
M  V30 3774 C 367.991 -5.14572 -1.10011 0
M  V30 3775 O 367.017 -5.66321 -0.57177 0
M  V30 3776 N 368.219 -5.27262 -2.42849 0
M  V30 3777 H 370.984 -2.87153 0.858087 0
M  V30 3778 H 368.545 -1.50328 0.60109 0
M  V30 3779 H 370.537 -3.75285 -1.51471 0
M  V30 3780 H 369.107 -2.69298 -1.58736 0
M  V30 3781 H 368.327 -3.8981 0.586664 0
M  V30 3782 H 369.615 -5.07963 0.291783 0
M  V30 3783 H 369.013 -4.86763 -2.88233 0
M  V30 3784 H 367.57 -5.79456 -2.98453 0
M  V30 3785 N 371.003 -0.499398 -1.49478 0
M  V30 3786 C 371.966 0.268838 -2.27618 0
M  V30 3787 C 372.966 0.895383 -1.33565 0
M  V30 3788 O 374.156 0.760164 -1.56739 0
M  V30 3789 C 371.288 1.38559 -3.11471 0
M  V30 3790 H 372.481 -0.416812 -2.96989 0
M  V30 3791 H 370.034 -0.254313 -1.54217 0
M  V30 3792 H 370.769 2.10544 -2.46661 0
M  V30 3793 H 370.554 0.941797 -3.80621 0
M  V30 3794 H 372.044 1.92678 -3.70493 0
M  V30 3795 N 372.481 1.55866 -0.233164 0
M  V30 3796 C 373.413 2.18099 0.704668 0
M  V30 3797 C 374.426 1.15334 1.14899 0
M  V30 3798 O 375.615 1.42262 1.07814 0
M  V30 3799 C 372.715 2.7592 1.96777 0
M  V30 3800 C 371.888 4.03969 1.67713 0
M  V30 3801 C 370.947 4.46242 2.78845 0
M  V30 3802 O 369.973 5.12903 2.46818 0
M  V30 3803 N 371.175 4.12886 4.08051 0
M  V30 3804 H 373.94 2.99205 0.172258 0
M  V30 3805 H 371.501 1.61815 -0.0525945 0
M  V30 3806 H 373.493 3.01165 2.70337 0
M  V30 3807 H 372.063 1.99051 2.41034 0
M  V30 3808 H 371.283 3.86459 0.777391 0
M  V30 3809 H 372.571 4.8748 1.4574 0
M  V30 3810 H 371.969 3.59342 4.3691 0
M  V30 3811 H 370.526 4.42997 4.78118 0
M  V30 3812 N 373.959 -0.0401083 1.57549 0
M  V30 3813 C 375.184 -0.748931 1.93406 0
M  V30 3814 C 375.609 -1.68686 0.832274 0
M  V30 3815 O 374.967 -1.80047 -0.212818 0
M  V30 3816 C 375.015 -1.4916 3.28304 0
M  V30 3817 O 374.119 -2.6042 3.19774 0
M  V30 3818 H 373.46 -0.202212 0.63246 0
M  V30 3819 H 375.99 0.00112086 2.046 0
M  V30 3820 H 376 -1.86395 3.62934 0
M  V30 3821 H 374.675 -0.80364 4.08062 0
M  V30 3822 H 373.252 -2.25808 2.96758 0
M  V30 3823 N 375.437 -1.54477 -0.31217 0
M  V30 3824 C 376.347 -1.87695 -1.4074 0
M  V30 3825 C 377.363 -0.769975 -1.56036 0
M  V30 3826 O 378.539 -1.06537 -1.70915 0
M  V30 3827 C 375.604 -2.10755 -2.75287 0
M  V30 3828 C 374.665 -3.34514 -2.69071 0
M  V30 3829 C 373.898 -3.56465 -3.97201 0
M  V30 3830 O 374.121 -2.81637 -4.96021 0
M  V30 3831 O 373.055 -4.49964 -3.9977 0
M  V30 3832 H 376.881 -2.80849 -1.15574 0
M  V30 3833 H 374.466 -1.40526 -0.507228 0
M  V30 3834 H 376.348 -2.27188 -3.54913 0
M  V30 3835 H 375.023 -1.20788 -3.0032 0
M  V30 3836 H 373.93 -3.23456 -1.87955 0
M  V30 3837 H 375.263 -4.24575 -2.48992 0
M  V30 3838 N 376.915 0.57481 -1.46744 0
M  V30 3839 C 378.163 1.33009 -1.52161 0
M  V30 3840 C 378.484 1.94185 -0.178092 0
M  V30 3841 O 377.754 1.7899 0.796196 0
M  V30 3842 H 376.334 0.493873 -0.560445 0
M  V30 3843 H 378.996 0.672589 -1.82927 0
M  V30 3844 H 378.092 2.13273 -2.27862 0
M  V30 3845 N 378.394 1.34581 0.820102 0
M  V30 3846 C 379.326 1.22236 1.93884 0
M  V30 3847 C 380.339 0.148776 1.62119 0
M  V30 3848 O 381.528 0.400877 1.7394 0
M  V30 3849 C 378.628 0.856542 3.27897 0
M  V30 3850 C 377.801 2.02569 3.87666 0
M  V30 3851 C 376.86 1.63782 5.00062 0
M  V30 3852 O 375.886 2.35477 5.18208 0
M  V30 3853 N 377.088 0.553611 5.77854 0
M  V30 3854 H 379.853 2.18615 2.05006 0
M  V30 3855 H 377.414 1.27573 0.99683 0
M  V30 3856 H 379.406 0.578806 4.0054 0
M  V30 3857 H 377.976 -0.0171518 3.12595 0
M  V30 3858 H 377.196 2.468 3.07382 0
M  V30 3859 H 378.484 2.80752 4.24329 0
M  V30 3860 H 377.882 -0.0423528 5.65684 0
M  V30 3861 H 376.439 0.335614 6.50935 0
M  V30 3862 N 379.872 -1.04064 1.18357 0
M  V30 3863 C 381.149 -1.74252 0.888581 0
M  V30 3864 C 381.529 -2.02138 -0.60856 0
M  V30 3865 O 380.877 -1.66656 -1.56327 0
M  V30 3866 C 381.087 -3.0277 1.73584 0
M  V30 3867 C 382.435 -3.76506 1.96286 0
M  V30 3868 O 383.459 -3.12668 1.70637 0
M  V30 3869 O 382.318 -4.91243 2.39464 0
M  V30 3870 H 379.412 -0.758271 0.330082 0
M  V30 3871 H 381.958 -1.1013 1.2911 0
M  V30 3872 H 380.73 -2.78299 2.75073 0
M  V30 3873 H 380.353 -3.74631 1.33183 0
M  V30 3874 N 381.35 -0.985608 -1.22978 0
M  V30 3875 C 382.596 -0.65836 -1.91816 0
M  V30 3876 C 382.929 0.806692 -1.76653 0
M  V30 3877 O 382.204 1.58252 -1.13078 0
M  V30 3878 C 382.487 -1.056 -3.44268 0
M  V30 3879 C 382.34 -2.57906 -3.68516 0
M  V30 3880 C 383.659 -0.603781 -4.35939 0
M  V30 3881 H 380.778 -0.24065 -0.696604 0
M  V30 3882 H 383.42 -1.22783 -1.44998 0
M  V30 3883 H 381.57 -0.571445 -3.84274 0
M  V30 3884 H 383.242 -3.13976 -3.3796 0
M  V30 3885 H 381.485 -3.00305 -3.13048 0
M  V30 3886 H 382.156 -2.80779 -4.75255 0
M  V30 3887 H 384.632 -1.01987 -4.03408 0
M  V30 3888 H 383.508 -0.910383 -5.41298 0
M  V30 3889 H 383.769 0.495761 -4.39312 0
M  V30 3890 N 382.828 1.3818 -0.7579 0
M  V30 3891 C 383.778 2.27741 -0.108674 0
M  V30 3892 C 384.762 1.45415 0.688709 0
M  V30 3893 O 385.954 1.68108 0.553956 0
M  V30 3894 C 383.083 3.34313 0.780367 0
M  V30 3895 C 382.169 4.24093 -0.0240977 0
M  V30 3896 N 382.56 4.9451 -1.06271 0
M  V30 3897 C 380.858 4.45542 0.202049 0
M  V30 3898 C 381.559 5.60675 -1.54979 0
M  V30 3899 N 380.535 5.36684 -0.864348 0
M  V30 3900 H 384.337 2.79649 -0.904071 0
M  V30 3901 H 381.851 1.51133 -0.594346 0
M  V30 3902 H 383.848 3.97368 1.26114 0
M  V30 3903 H 382.508 2.83962 1.57467 0
M  V30 3904 H 383.519 4.97345 -1.44459 0
M  V30 3905 H 380.196 4.06091 0.96935 0
M  V30 3906 H 381.586 6.26992 -2.41517 0
M  V30 3907 N 384.306 0.507319 1.49211 0
M  V30 3908 C 385.546 -0.0332372 2.04373 0
M  V30 3909 C 385.91 -1.33694 1.37804 0
M  V30 3910 O 387.111 -1.96213 1.83722 0
M  V30 3911 C 385.382 -0.17599 3.56966 0
M  V30 3912 S 386.941 -0.669882 4.33657 0
M  V30 3913 H 383.759 0.00123603 0.710999 0
M  V30 3914 H 386.361 0.682725 1.83191 0
M  V30 3915 H 385.065 0.778053 4.02957 0
M  V30 3916 H 384.596 -0.917005 3.82563 0
M  V30 3917 H 386.611 -1.93806 4.56786 0
M  V30 3918 N 385.784 -1.5574 0.241426 0
M  V30 3919 C 386.694 -2.2479 -0.671305 0
M  V30 3920 C 387.71 -1.26217 -1.19772 0
M  V30 3921 O 388.886 -1.59079 -1.23514 0
M  V30 3922 C 385.951 -2.92966 -1.85396 0
M  V30 3923 C 385.012 -4.06935 -1.36756 0
M  V30 3924 C 384.245 -4.71851 -2.49384 0
M  V30 3925 O 384.468 -4.35823 -3.67987 0
M  V30 3926 O 383.402 -5.60467 -2.19454 0
M  V30 3927 H 387.228 -3.0349 -0.112966 0
M  V30 3928 H 384.813 -1.49397 0.0101513 0
M  V30 3929 H 386.695 -3.35927 -2.54423 0
M  V30 3930 H 385.37 -2.17211 -2.40002 0
M  V30 3931 H 384.277 -3.68503 -0.644726 0
M  V30 3932 H 385.61 -4.84492 -0.867647 0
M  V30 3933 N 387.262 0.0317525 -1.57568 0
M  V30 3934 C 388.487 0.738664 -1.938 0
M  V30 3935 C 388.912 1.68242 -0.841208 0
M  V30 3936 O 388.27 1.80157 0.203267 0
M  V30 3937 C 388.318 1.47417 -3.29091 0
M  V30 3938 O 387.422 2.5872 -3.2115 0
M  V30 3939 H 386.763 0.198856 -0.633524 0
M  V30 3940 H 389.293 -0.0119713 -2.04596 0
M  V30 3941 H 389.303 1.84468 -3.63917 0
M  V30 3942 H 387.978 0.781988 -4.08482 0
M  V30 3943 H 386.555 2.24231 -2.97951 0
M  V30 3944 N 388.74 1.54641 0.303973 0
M  V30 3945 C 389.988 1.73437 1.0375 0
M  V30 3946 C 390.309 0.521449 1.87899 0
M  V30 3947 O 389.579 -0.46432 1.90318 0
M  V30 3948 H 388.159 0.639518 0.386039 0
M  V30 3949 H 390.821 1.91988 0.335675 0
M  V30 3950 H 389.917 2.62235 1.69231 0
M  V30 3951 N 390.218 -0.567019 1.47046 0
M  V30 3952 C 391.629 -1.14916 1.47143 0
M  V30 3953 C 391.98 -1.94954 0.220767 0
M  V30 3954 O 391.105 -2.05602 -0.67505 0
M  V30 3955 C 391.7 -2.09069 2.666 0
M  V30 3956 C 390.259 -2.62575 2.69687 0
M  V30 3957 C 389.406 -1.38755 2.40088 0
M  V30 3958 H 392.357 -0.354126 1.54699 0
M  V30 3959 H 392.378 -2.92789 2.43011 0
M  V30 3960 H 391.89 -1.50789 3.57609 0
M  V30 3961 H 389.991 -3.24681 1.82792 0
M  V30 3962 H 390.104 -3.04239 3.70102 0
M  V30 3963 H 388.468 -1.69098 1.90468 0
M  V30 3964 H 389.251 -0.822822 3.33293 0
M  V30 3965 N 391.696 -1.35014 -0.812953 0
M  V30 3966 C 392.628 -1.23262 -1.93233 0
M  V30 3967 C 393.641 -0.157371 -1.62038 0
M  V30 3968 O 394.83 -0.410096 -1.73725 0
M  V30 3969 C 391.93 -0.87392 -3.27438 0
M  V30 3970 C 391.103 -2.04622 -3.86586 0
M  V30 3971 C 390.162 -1.66432 -4.99186 0
M  V30 3972 O 389.188 -2.38222 -5.16951 0
M  V30 3973 N 390.39 -0.584248 -5.77552 0
M  V30 3974 H 393.155 -2.19699 -2.03844 0
M  V30 3975 H 390.716 -1.281 -0.99005 0
M  V30 3976 H 392.708 -0.600039 -4.00227 0
M  V30 3977 H 391.278 0.00057392 -3.126 0
M  V30 3978 H 390.498 -2.48427 -3.06068 0
M  V30 3979 H 391.786 -2.82999 -4.22835 0
M  V30 3980 H 391.184 0.0123526 -5.65699 0
M  V30 3981 H 389.741 -0.37013 -6.50748 0
M  V30 3982 N 393.175 1.03435 -1.18907 0
M  V30 3983 C 394.405 1.8012 -1.01195 0
M  V30 3984 C 394.813 1.8395 0.442613 0
M  V30 3985 O 394.156 1.27836 1.31923 0
M  V30 3986 C 394.218 3.26792 -1.49823 0
M  V30 3987 C 393.882 3.46609 -2.97844 0
M  V30 3988 C 394.879 3.37278 -3.95651 0
M  V30 3989 C 392.564 3.73001 -3.36416 0
M  V30 3990 C 394.558 3.54054 -5.30023 0
M  V30 3991 C 392.245 3.89423 -4.70949 0
M  V30 3992 C 393.243 3.79951 -5.67562 0
M  V30 3993 O 392.931 3.95895 -6.99659 0
M  V30 3994 H 392.663 0.573865 -0.357289 0
M  V30 3995 H 395.217 1.31207 -1.58031 0
M  V30 3996 H 393.447 3.76703 -0.873578 0
M  V30 3997 H 395.136 3.85055 -1.28404 0
M  V30 3998 H 395.902 3.16846 -3.67197 0
M  V30 3999 H 391.781 3.79469 -2.61772 0
M  V30 4000 H 395.325 3.46577 -6.05417 0
M  V30 4001 H 391.222 4.09351 -4.99101 0
M  V30 4002 H 391.99 4.13019 -7.06653 0
M  V30 4003 N 394.653 0.992116 1.22453 0
M  V30 4004 C 395.583 0.561677 2.26644 0
M  V30 4005 C 396.564 -0.411055 1.65059 0
M  V30 4006 O 397.749 -0.301861 1.9184 0
M  V30 4007 C 394.879 -0.125247 3.47074 0
M  V30 4008 C 393.833 0.765948 4.21091 0
M  V30 4009 C 393.159 -0.0538484 5.34673 0
M  V30 4010 C 394.459 2.06242 4.79856 0
M  V30 4011 H 396.153 1.43259 2.62902 0
M  V30 4012 H 393.699 0.690283 1.26377 0
M  V30 4013 H 395.652 -0.437764 4.1912 0
M  V30 4014 H 394.376 -1.03069 3.0991 0
M  V30 4015 H 393.035 1.0621 3.50878 0
M  V30 4016 H 392.683 -0.960188 4.9375 0
M  V30 4017 H 392.383 0.539415 5.85119 0
M  V30 4018 H 393.907 -0.360477 6.09535 0
M  V30 4019 H 395.321 1.8139 5.43848 0
M  V30 4020 H 393.718 2.60444 5.40638 0
M  V30 4021 H 394.788 2.74167 3.99951 0
M  V30 4022 N 396.131 -1.37776 0.765217 0
M  V30 4023 C 397.079 -2.32209 0.134798 0
M  V30 4024 C 398.073 -1.54607 -0.692315 0
M  V30 4025 O 399.279 -1.70052 -0.590109 0
M  V30 4026 H 395.654 -0.751591 0.0248005 0
M  V30 4027 H 397.625 -2.8297 0.947119 0
M  V30 4028 C 396.374 -3.39841 -0.735063 0
M  V30 4029 H 395.697 -3.99654 -0.107991 0
M  V30 4030 H 397.137 -4.08296 -1.14326 0
M  V30 4031 C 395.596 -2.79378 -1.88281 0
M  V30 4032 O 396.126 -2.69608 -2.97783 0
M  V30 4033 N 394.332 -2.37016 -1.68142 0
M  V30 4034 H 393.879 -2.45162 -0.790772 0
M  V30 4035 H 393.837 -1.96905 -2.45104 0
M  V30 4036 N 397.609 -0.515225 -1.4894 0
M  V30 4037 C 398.858 0.0261361 -2.01683 0
M  V30 4038 C 399.171 1.36719 -1.39883 0
M  V30 4039 O 400.377 1.99606 -1.84037 0
M  V30 4040 C 398.833 0.0970111 -3.59769 0
M  V30 4041 C 398.441 -1.23825 -4.30548 0
M  V30 4042 C 400.185 0.587981 -4.20408 0
M  V30 4043 C 398.092 -1.12877 -5.80528 0
M  V30 4044 H 397.022 0.0135398 -0.753878 0
M  V30 4045 H 399.673 -0.656787 -1.71343 0
M  V30 4046 H 398.055 0.844694 -3.86886 0
M  V30 4047 H 399.229 -2.00034 -4.15118 0
M  V30 4048 H 397.544 -1.66379 -3.81716 0
M  V30 4049 H 400.141 0.68763 -5.3026 0
M  V30 4050 H 400.484 1.59026 -3.84729 0
M  V30 4051 H 401.017 -0.103582 -3.97665 0
M  V30 4052 H 397.756 -2.10575 -6.20756 0
M  V30 4053 H 397.276 -0.407799 -5.98412 0
M  V30 4054 H 398.955 -0.813332 -6.41868 0
M  V30 4055 N 399.087 1.5561 -0.249682 0
M  V30 4056 C 400.315 2.03411 0.378352 0
M  V30 4057 C 400.73 1.12886 1.51335 0
M  V30 4058 O 400.087 0.143833 1.81932 0
M  V30 4059 C 400.138 3.50537 0.88351 0
M  V30 4060 O 399.859 4.37614 -0.20626 0
M  V30 4061 C 401.36 4.14113 1.58195 0
M  V30 4062 H 398.58 0.664994 0.08958 0
M  V30 4063 H 401.124 2.01044 -0.374357 0
M  V30 4064 H 399.279 3.5343 1.58639 0
M  V30 4065 H 399.693 5.24199 0.177782 0
M  V30 4066 H 401.167 5.18741 1.8871 0
M  V30 4067 H 401.644 3.60767 2.50487 0
M  V30 4068 H 402.25 4.15151 0.923573 0
M  V30 4069 N 400.565 -0.0233959 1.57583 0
M  V30 4070 C 401.793 -0.724682 1.93794 0
M  V30 4071 C 402.208 -1.68588 0.849912 0
M  V30 4072 O 401.565 -1.81676 -0.173204 0
M  V30 4073 C 401.616 -1.47684 3.29957 0
M  V30 4074 O 401.337 -0.554222 4.3458 0
M  V30 4075 C 402.838 -2.27477 3.80485 0
M  V30 4076 H 400.058 -0.203317 0.639455 0
M  V30 4077 H 402.602 0.0207653 2.04489 0
M  V30 4078 H 400.757 -2.17412 3.20641 0
M  V30 4079 H 401.171 -1.08232 5.13212 0
M  V30 4080 H 402.645 -2.7564 4.78254 0
M  V30 4081 H 403.122 -3.09144 3.11972 0
M  V30 4082 H 403.728 -1.62813 3.92902 0
M  V30 4083 N 402.043 -1.548 -0.295768 0
M  V30 4084 C 403.32 -1.65014 -1.05023 0
M  V30 4085 C 403.7 -0.501805 -2.05049 0
M  V30 4086 O 403.048 0.500869 -2.22943 0
M  V30 4087 C 403.258 -3.03252 -1.72741 0
M  V30 4088 C 404.606 -3.60242 -2.24746 0
M  V30 4089 O 405.63 -3.05737 -1.82765 0
M  V30 4090 O 404.489 -4.55687 -3.01681 0
M  V30 4091 H 401.583 -0.669314 -0.485744 0
M  V30 4092 H 404.129 -1.67144 -0.293438 0
M  V30 4093 H 402.901 -3.7827 -1.00138 0
M  V30 4094 H 402.524 -3.04922 -2.55163 0
M  V30 4095 N 403.521 0.559213 -1.47345 0
M  V30 4096 C 404.798 1.31997 -1.44348 0
M  V30 4097 C 405.178 2.1064 -0.139358 0
M  V30 4098 O 404.526 2.1091 0.879153 0
M  V30 4099 C 404.736 2.22618 -2.68779 0
M  V30 4100 C 406.084 2.83701 -3.1591 0
M  V30 4101 O 407.108 2.32921 -2.69493 0
M  V30 4102 O 405.967 3.75993 -3.966 0
M  V30 4103 H 403.061 0.594251 -0.575147 0
M  V30 4104 H 405.607 0.578282 -1.59543 0
M  V30 4105 H 404.379 1.64093 -3.55231 0
M  V30 4106 H 404.002 3.04085 -2.5616 0
M  V30 4107 N 404.999 1.35443 0.805782 0
M  V30 4108 C 405.962 1.28301 1.89925 0
M  V30 4109 C 406.962 0.194285 1.59622 0
M  V30 4110 O 408.152 0.448036 1.6834 0
M  V30 4111 C 405.284 0.984997 3.2636 0
M  V30 4112 H 406.477 2.2553 1.97677 0
M  V30 4113 H 404.03 1.19979 1.00173 0
M  V30 4114 H 404.765 0.016603 3.24296 0
M  V30 4115 H 404.55 1.77269 3.4974 0
M  V30 4116 H 406.04 0.960651 4.064 0
M  V30 4117 N 406.477 -1.02803 1.19454 0
M  V30 4118 C 407.387 -2.14575 0.948408 0
M  V30 4119 C 408.403 -1.73757 -0.091871 0
M  V30 4120 O 409.579 -2.01185 0.0929654 0
M  V30 4121 C 406.644 -3.43202 0.491265 0
M  V30 4122 C 405.705 -3.98328 1.60103 0
M  V30 4123 C 404.938 -5.20816 1.16561 0
M  V30 4124 O 405.161 -5.70392 0.0295238 0
M  V30 4125 O 404.095 -5.68801 1.96849 0
M  V30 4126 H 407.921 -2.38202 1.88397 0
M  V30 4127 H 405.506 -1.12989 0.977433 0
M  V30 4128 H 407.388 -4.20687 0.245015 0
M  V30 4129 H 406.063 -3.21018 -0.415851 0
M  V30 4130 H 404.97 -3.22174 1.90144 0
M  V30 4131 H 406.303 -4.24879 2.48473 0
M  V30 4132 N 407.956 -0.998596 -1.21925 0
M  V30 4133 C 409.372 -0.710303 -1.42923 0
M  V30 4134 C 409.572 0.716933 -1.88314 0
M  V30 4135 O 408.628 1.48712 -2.04062 0
M  V30 4136 C 409.941 -1.72072 -2.466 0
M  V30 4137 C 411.489 -1.73681 -2.60392 0
M  V30 4138 C 411.964 -2.73601 -3.67296 0
M  V30 4139 N 413.455 -2.7223 -3.7476 0
M  V30 4140 C 414.19 -3.46206 -4.57087 0
M  V30 4141 N 413.686 -4.29802 -5.43362 0
M  V30 4142 N 415.479 -3.34886 -4.51451 0
M  V30 4143 H 407.63 -1.92028 -0.9077 0
M  V30 4144 H 409.893 -0.828487 -0.460775 0
M  V30 4145 H 409.599 -2.74231 -2.20206 0
M  V30 4146 H 409.473 -1.51818 -3.45299 0
M  V30 4147 H 411.86 -0.722173 -2.86127 0
M  V30 4148 H 411.941 -1.98005 -1.61949 0
M  V30 4149 H 411.585 -3.75217 -3.42307 0
M  V30 4150 H 411.515 -2.46545 -4.65321 0
M  V30 4151 H 414.006 -2.11576 -3.1312 0
M  V30 4152 H 414.319 -4.83061 -6.03218 0
M  V30 4153 H 412.664 -4.33887 -5.42925 0
M  V30 4154 H 415.855 -2.69015 -3.83078 0
M  V30 4155 H 416.028 -3.92796 -5.15379 0
M  V30 4156 N 409.434 1.37368 -0.772513 0
M  V30 4157 C 410.683 1.98918 -0.333861 0
M  V30 4158 C 410.996 1.62017 1.09589 0
M  V30 4159 O 412.202 2.16676 1.63596 0
M  V30 4160 C 410.658 3.55735 -0.545971 0
M  V30 4161 C 410.266 4.01573 -1.98603 0
M  V30 4162 C 412.01 4.24156 -0.170979 0
M  V30 4163 C 409.917 5.51102 -2.1457 0
M  V30 4164 H 408.847 0.744214 -0.121085 0
M  V30 4165 H 411.498 1.56888 -0.95175 0
M  V30 4166 H 409.88 3.95748 0.141387 0
M  V30 4167 H 411.054 3.72803 -2.7084 0
M  V30 4168 H 409.369 3.45937 -2.31769 0
M  V30 4169 H 411.966 5.34024 -0.26878 0
M  V30 4170 H 412.309 4.06917 0.878855 0
M  V30 4171 H 412.842 3.89447 -0.810914 0
M  V30 4172 H 409.581 5.73268 -3.17875 0
M  V30 4173 H 409.101 5.81554 -1.46817 0
M  V30 4174 H 410.78 6.17083 -1.94468 0
M  V30 4175 N 410.912 0.523116 1.48665 0
M  V30 4176 C 412.16 -0.0134497 2.02096 0
M  V30 4177 C 412.481 -1.35418 1.40311 0
M  V30 4178 O 411.751 -1.87543 0.566074 0
M  V30 4179 H 410.331 -0.00795915 0.746958 0
M  V30 4180 H 412.993 0.685388 1.82451 0
M  V30 4181 H 412.089 -0.126849 3.11842 0
M  V30 4182 N 412.39 -1.55475 0.257931 0
M  V30 4183 C 413.801 -1.8511 -0.243135 0
M  V30 4184 C 414.152 -1.17986 -1.5676 0
M  V30 4185 O 413.277 -0.462102 -2.11409 0
M  V30 4186 C 413.872 -3.35826 -0.447929 0
M  V30 4187 C 412.431 -3.65647 -0.893245 0
M  V30 4188 C 411.578 -2.7729 0.0232965 0
M  V30 4189 H 414.529 -1.51261 0.480199 0
M  V30 4190 H 414.55 -3.58002 -1.28898 0
M  V30 4191 H 414.062 -3.84652 0.516196 0
M  V30 4192 H 412.163 -3.22308 -1.86945 0
M  V30 4193 H 412.276 -4.73312 -0.742469 0
M  V30 4194 H 410.64 -2.49942 -0.490021 0
M  V30 4195 H 411.423 -3.28926 0.982994 0
M  V30 4196 N 413.868 0.0150385 -1.57593 0
M  V30 4197 C 415.098 0.713359 -1.93894 0
M  V30 4198 C 415.506 1.68663 -0.857289 0
M  V30 4199 O 414.849 1.82876 0.173788 0
M  V30 4200 C 414.911 1.51348 -3.26089 0
M  V30 4201 C 414.575 0.703451 -4.51554 0
M  V30 4202 C 415.572 -0.00237924 -5.199 0
M  V30 4203 C 413.257 0.653854 -4.98026 0
M  V30 4204 C 415.251 -0.746955 -6.33008 0
M  V30 4205 C 412.938 -0.0944578 -6.11027 0
M  V30 4206 C 413.936 -0.793609 -6.78374 0
M  V30 4207 O 413.624 -1.52974 -7.89211 0
M  V30 4208 H 413.356 0.204637 -0.644282 0
M  V30 4209 H 415.91 -0.0276411 -2.05381 0
M  V30 4210 H 414.14 2.29862 -3.10967 0
M  V30 4211 H 415.829 2.09572 -3.47612 0
M  V30 4212 H 416.595 0.0268803 -4.84993 0
M  V30 4213 H 412.474 1.18756 -4.45441 0
M  V30 4214 H 416.018 -1.2932 -6.85509 0
M  V30 4215 H 411.915 -0.125591 -6.45378 0
M  V30 4216 H 412.683 -1.44488 -8.05646 0
M  V30 4217 N 415.346 1.54954 0.287554 0
M  V30 4218 C 416.279 1.81737 1.3801 0
M  V30 4219 C 417.257 0.669412 1.48181 0
M  V30 4220 O 418.441 0.910839 1.65033 0
M  V30 4221 C 415.568 1.96606 2.75796 0
M  V30 4222 C 414.614 3.19098 2.82982 0
M  V30 4223 S 415.447 4.7683 2.43707 0
M  V30 4224 C 416.603 4.94653 3.83496 0
M  V30 4225 H 416.836 2.74122 1.15085 0
M  V30 4226 H 414.369 1.46538 0.486403 0
M  V30 4227 H 416.327 2.05858 3.55152 0
M  V30 4228 H 414.988 1.05136 2.95982 0
M  V30 4229 H 414.181 3.26344 3.84077 0
M  V30 4230 H 413.783 3.08361 2.11635 0
M  V30 4231 H 416.075 4.79502 4.78628 0
M  V30 4232 H 417.018 5.96728 3.8121 0
M  V30 4233 H 417.426 4.2272 3.74123 0
M  V30 4234 N 416.824 -0.551391 1.4764 0
M  V30 4235 C 417.771 -1.65796 1.60563 0
M  V30 4236 C 418.741 -1.59932 0.448428 0
M  V30 4237 O 419.926 -1.78679 0.669222 0
M  V30 4238 C 417.066 -3.04108 1.63133 0
M  V30 4239 C 416.179 -3.20365 2.89811 0
M  V30 4240 C 415.314 -4.49109 2.8368 0
M  V30 4241 C 414.353 -4.58819 4.05156 0
M  V30 4242 N 413.49 -5.78926 3.97227 0
M  V30 4243 H 418.33 -1.54088 2.5507 0
M  V30 4244 H 415.867 -0.75052 1.26513 0
M  V30 4245 H 417.825 -3.84207 1.62606 0
M  V30 4246 H 416.455 -3.14637 0.721341 0
M  V30 4247 H 415.507 -2.33659 3.00179 0
M  V30 4248 H 416.819 -3.23402 3.79753 0
M  V30 4249 H 415.973 -5.37475 2.81434 0
M  V30 4250 H 414.712 -4.4856 1.91431 0
M  V30 4251 H 413.717 -3.68864 4.077 0
M  V30 4252 H 414.942 -4.61124 4.98539 0
M  V30 4253 H 412.888 -5.79314 3.07785 0
M  V30 4254 H 412.805 -5.83367 4.80853 0
M  V30 4255 H 414.073 -6.69637 3.99007 0
M  V30 4256 N 418.302 -1.35869 -0.798587 0
M  V30 4257 C 419.548 -1.2978 -1.55836 0
M  V30 4258 C 419.881 0.125322 -1.93795 0
M  V30 4259 O 419.156 1.07658 -1.61987 0
M  V30 4260 C 419.439 -2.21188 -2.84162 0
M  V30 4261 C 419.292 -3.72155 -2.52628 0
M  V30 4262 C 420.611 -2.11545 -3.85923 0
M  V30 4263 H 417.73 -0.472769 -0.565383 0
M  V30 4264 H 420.372 -1.66341 -0.918192 0
M  V30 4265 H 418.522 -1.90139 -3.38791 0
M  V30 4266 H 420.194 -4.13682 -2.04121 0
M  V30 4267 H 418.437 -3.92042 -1.85704 0
M  V30 4268 H 419.108 -4.31511 -3.44242 0
M  V30 4269 H 421.584 -2.38855 -3.40716 0
M  V30 4270 H 420.46 -2.77688 -4.73477 0
M  V30 4271 H 420.721 -1.09987 -4.282 0
M  V30 4272 N 419.78 1.02168 -1.19998 0
M  V30 4273 C 420.743 2.08765 -0.94604 0
M  V30 4274 C 421.743 1.60618 0.0763846 0
M  V30 4275 O 422.933 1.73472 -0.159135 0
M  V30 4276 C 420.065 3.38262 -0.423255 0
M  V30 4277 H 421.258 2.32726 -1.89153 0
M  V30 4278 H 418.811 1.1889 -1.01464 0
M  V30 4279 H 419.546 3.19974 0.527938 0
M  V30 4280 H 419.331 3.74532 -1.16053 0
M  V30 4281 H 420.821 4.16759 -0.264911 0
M  V30 4282 N 421.258 1.00505 1.21394 0
M  V30 4283 C 422.669 0.721082 1.72213 0
M  V30 4284 C 423.02 -0.761263 1.80829 0
M  V30 4285 O 422.145 -1.59464 1.46288 0
M  V30 4286 C 422.74 1.30228 3.12772 0
M  V30 4287 C 421.299 1.06743 3.60947 0
M  V30 4288 C 420.446 1.41507 2.38477 0
M  V30 4289 H 423.397 1.17594 1.06571 0
M  V30 4290 H 423.418 0.686955 3.74247 0
M  V30 4291 H 422.93 2.38115 3.06468 0
M  V30 4292 H 421.031 0.00572162 3.726 0
M  V30 4293 H 421.144 1.73936 4.46411 0
M  V30 4294 H 419.508 0.833852 2.40664 0
M  V30 4295 H 420.291 2.50424 2.34824 0
M  V30 4296 N 422.737 -1.36956 0.779787 0
M  V30 4297 C 424.148 -1.82094 0.412156 0
M  V30 4298 C 424.499 -1.64926 -1.06273 0
M  V30 4299 O 423.624 -1.16483 -1.82375 0
M  V30 4300 C 424.219 -3.3059 0.741319 0
M  V30 4301 C 422.778 -3.73974 0.426641 0
M  V30 4302 C 421.925 -2.59368 0.980987 0
M  V30 4303 H 424.876 -1.25314 0.973758 0
M  V30 4304 H 424.897 -3.80489 0.028887 0
M  V30 4305 H 424.409 -3.43054 1.81482 0
M  V30 4306 H 422.51 -3.67076 -0.639215 0
M  V30 4307 H 422.623 -4.69778 0.940515 0
M  V30 4308 H 420.987 -2.51463 0.404757 0
M  V30 4309 H 421.77 -2.74621 2.06005 0
M  V30 4310 N 424.215 -0.530993 -1.48385 0
M  V30 4311 C 425.461 0.00274135 -2.028 0
M  V30 4312 C 425.794 1.33838 -1.40716 0
M  V30 4313 O 425.069 1.86465 -0.553277 0
M  V30 4314 C 425.352 0.123676 -3.59888 0
M  V30 4315 C 425.205 -1.2372 -4.3245 0
M  V30 4316 C 426.524 0.849967 -4.31814 0
M  V30 4317 H 423.643 -0.000477758 -0.737 0
M  V30 4318 H 426.285 -0.688217 -1.77098 0
M  V30 4319 H 424.435 0.712157 -3.81917 0
M  V30 4320 H 426.107 -1.86687 -4.21836 0
M  V30 4321 H 424.35 -1.81882 -3.93829 0
M  V30 4322 H 425.021 -1.10557 -5.40815 0
M  V30 4323 H 427.497 0.350572 -4.14621 0
M  V30 4324 H 426.373 0.903486 -5.41413 0
M  V30 4325 H 426.634 1.90047 -3.99167 0
M  V30 4326 N 425.693 1.55336 -0.266172 0
M  V30 4327 C 427.109 1.59356 0.0882065 0
M  V30 4328 C 427.309 1.2834 1.55342 0
M  V30 4329 O 426.365 1.03996 2.30089 0
M  V30 4330 C 427.678 2.99409 -0.278364 0
M  V30 4331 C 429.226 3.12196 -0.224243 0
M  V30 4332 C 429.701 4.545 -0.565123 0
M  V30 4333 N 431.192 4.60313 -0.51634 0
M  V30 4334 C 431.927 5.68434 -0.753013 0
M  V30 4335 N 431.423 6.84738 -1.05383 0
M  V30 4336 N 433.216 5.57942 -0.682414 0
M  V30 4337 H 425.367 1.73764 -1.22147 0
M  V30 4338 H 427.63 0.809822 -0.492841 0
M  V30 4339 H 427.336 3.2691 -1.29703 0
M  V30 4340 H 427.21 3.75228 0.385186 0
M  V30 4341 H 429.597 2.84464 0.78512 0
M  V30 4342 H 429.678 2.38609 -0.921922 0
M  V30 4343 H 429.322 4.82956 -1.57213 0
M  V30 4344 H 429.252 5.26374 0.154248 0
M  V30 4345 H 431.743 3.7676 -0.29335 0
M  V30 4346 H 432.056 7.63088 -1.22133 0
M  V30 4347 H 430.401 6.86375 -1.09151 0
M  V30 4348 H 433.592 4.65958 -0.44731 0
M  V30 4349 H 433.765 6.4213 -0.870248 0
M  V30 4350 N 427.171 -0.0066808 1.57599 0
M  V30 4351 C 428.396 -0.707738 1.94951 0
M  V30 4352 C 428.821 -1.66882 0.867868 0
M  V30 4353 O 428.179 -1.80457 -0.17458 0
M  V30 4354 C 428.227 -1.42162 3.31394 0
M  V30 4355 O 427.331 -2.53578 3.25226 0
M  V30 4356 H 426.672 -0.188752 0.636607 0
M  V30 4357 H 429.202 0.0445193 2.04552 0
M  V30 4358 H 429.212 -1.78655 3.66806 0
M  V30 4359 H 427.887 -0.716903 4.09675 0
M  V30 4360 H 426.464 -2.19463 3.01481 0
M  V30 4361 N 428.649 -1.55105 -0.279332 0
M  V30 4362 C 429.612 -1.86783 -1.32834 0
M  V30 4363 C 430.612 -0.74199 -1.42657 0
M  V30 4364 O 431.802 -1.0102 -1.41918 0
M  V30 4365 C 428.934 -2.06746 -2.71052 0
M  V30 4366 H 430.127 -2.8055 -1.05979 0
M  V30 4367 H 427.68 -1.47499 -0.517087 0
M  V30 4368 H 428.415 -1.15339 -3.03097 0
M  V30 4369 H 428.2 -2.88711 -2.65309 0
M  V30 4370 H 429.69 -2.32549 -3.46858 0
M  V30 4371 N 430.127 0.543554 -1.4793 0
M  V30 4372 C 431.037 1.67657 -1.64098 0
M  V30 4373 C 432.053 1.65934 -0.523622 0
M  V30 4374 O 433.229 1.85133 -0.792943 0
M  V30 4375 C 430.294 3.04146 -1.66421 0
M  V30 4376 C 429.355 3.16831 -2.89684 0
M  V30 4377 C 428.588 4.46809 -2.91886 0
M  V30 4378 O 428.811 5.33095 -2.02895 0
M  V30 4379 O 427.745 4.63573 -3.83906 0
M  V30 4380 H 431.571 1.56957 -2.59997 0
M  V30 4381 H 429.156 0.715116 -1.31173 0
M  V30 4382 H 431.038 3.85346 -1.70548 0
M  V30 4383 H 429.713 3.152 -0.736923 0
M  V30 4384 H 428.62 2.34977 -2.91095 0
M  V30 4385 H 429.953 3.10687 -3.81752 0
M  V30 4386 N 431.605 1.3629 0.791371 0
M  V30 4387 C 432.538 1.24816 1.9104 0
M  V30 4388 C 433.516 0.132739 1.62057 0
M  V30 4389 O 434.7 0.303527 1.8604 0
M  V30 4390 C 431.827 0.925355 3.25814 0
M  V30 4391 C 430.873 2.05495 3.7373 0
M  V30 4392 S 431.706 3.67255 3.89723 0
M  V30 4393 C 432.862 3.37084 5.27376 0
M  V30 4394 H 433.095 2.19533 2.00481 0
M  V30 4395 H 430.628 1.21684 0.950393 0
M  V30 4396 H 432.586 0.745924 4.03666 0
M  V30 4397 H 431.247 -0.00400098 3.141 0
M  V30 4398 H 430.44 1.7836 4.71385 0
M  V30 4399 H 430.042 2.1935 3.02922 0
M  V30 4400 H 432.334 2.90856 6.1189 0
M  V30 4401 H 433.277 4.33995 5.59512 0
M  V30 4402 H 433.685 2.7248 4.94383 0
M  V30 4403 N 433.083 -1.0153 1.20538 0
M  V30 4404 C 434.031 -2.12215 0.952235 0
M  V30 4405 C 435.025 -1.69123 -0.0968735 0
M  V30 4406 O 436.231 -1.7992 0.0536006 0
M  V30 4407 H 432.606 -0.693576 0.290613 0
M  V30 4408 H 434.577 -2.3075 1.89201 0
M  V30 4409 C 433.326 -3.43755 0.522287 0
M  V30 4410 H 432.649 -3.7734 1.32115 0
M  V30 4411 H 434.089 -4.22254 0.384389 0
M  V30 4412 C 432.548 -3.28088 -0.765489 0
M  V30 4413 O 433.078 -3.57921 -1.8236 0
M  V30 4414 N 431.284 -2.81333 -0.728011 0
M  V30 4415 H 430.831 -2.57255 0.133332 0
M  V30 4416 H 430.789 -2.71232 -1.58999 0
M  V30 4417 N 434.561 -1.01147 -1.20859 0
M  V30 4418 C 435.81 -0.693214 -1.89413 0
M  V30 4419 C 436.123 0.779969 -1.79376 0
M  V30 4420 O 437.329 1.21057 -2.43017 0
M  V30 4421 C 435.785 -1.18949 -3.39675 0
M  V30 4422 C 435.393 -2.68921 -3.58309 0
M  V30 4423 C 437.137 -0.94642 -4.13815 0
M  V30 4424 C 435.044 -3.12056 -5.0237 0
M  V30 4425 H 433.974 -0.255595 -0.709357 0
M  V30 4426 H 436.625 -1.22349 -1.36759 0
M  V30 4427 H 435.007 -0.587228 -3.91622 0
M  V30 4428 H 436.181 -3.34652 -3.16772 0
M  V30 4429 H 434.496 -2.91314 -2.97532 0
M  V30 4430 H 437.093 -1.24417 -5.20023 0
M  V30 4431 H 437.436 0.117219 -4.16135 0
M  V30 4432 H 437.969 -1.5118 -3.67953 0
M  V30 4433 H 434.708 -4.17674 -5.05202 0
M  V30 4434 H 434.228 -2.51041 -5.44737 0
M  V30 4435 H 435.907 -3.04403 -5.70918 0
M  V30 4436 N 436.039 1.36541 -0.78704 0
M  V30 4437 C 437.455 1.52571 -0.46844 0
M  V30 4438 C 437.655 1.7415 1.01361 0
M  V30 4439 O 436.711 1.77163 1.79915 0
M  V30 4440 C 438.024 2.71299 -1.29682 0
M  V30 4441 C 439.572 2.85169 -1.29027 0
M  V30 4442 C 440.047 4.06898 -2.10233 0
M  V30 4443 N 441.538 4.1404 -2.07666 0
M  V30 4444 C 442.273 5.07301 -2.67271 0
M  V30 4445 N 441.769 6.06021 -3.35724 0
M  V30 4446 N 443.562 4.99898 -2.57018 0
M  V30 4447 H 435.713 1.20788 -1.74711 0
M  V30 4448 H 437.976 0.589364 -0.742532 0
M  V30 4449 H 437.682 2.61868 -2.34773 0
M  V30 4450 H 437.556 3.6539 -0.936479 0
M  V30 4451 H 439.943 2.94062 -0.247284 0
M  V30 4452 H 440.024 1.91992 -1.69035 0
M  V30 4453 H 439.668 3.98766 -3.1456 0
M  V30 4454 H 439.598 4.99218 -1.67597 0
M  V30 4455 H 442.089 3.43357 -1.57843 0
M  V30 4456 H 442.402 6.73741 -3.78541 0
M  V30 4457 H 440.747 6.06253 -3.39826 0
M  V30 4458 H 443.938 4.21724 -2.03142 0
M  V30 4459 H 444.111 5.72392 -3.03761 0
M  V30 4460 N 437.518 0.538854 1.48102 0
M  V30 4461 C 438.448 -0.207654 2.32575 0
M  V30 4462 C 439.429 -0.926559 1.4265 0
M  V30 4463 O 440.614 -0.91061 1.71527 0
M  V30 4464 C 437.744 -1.24957 3.24042 0
M  V30 4465 C 436.698 -0.648263 4.23062 0
M  V30 4466 C 436.024 -1.79348 5.03725 0
M  V30 4467 C 437.324 0.385897 5.20872 0
M  V30 4468 H 439.018 0.497534 2.95237 0
M  V30 4469 H 436.564 0.240715 1.41974 0
M  V30 4470 H 438.517 -1.77983 3.81969 0
M  V30 4471 H 437.241 -1.98446 2.59397 0
M  V30 4472 H 435.9 -0.139452 3.66335 0
M  V30 4473 H 435.548 -2.51696 4.35498 0
M  V30 4474 H 435.248 -1.39702 5.70751 0
M  V30 4475 H 436.772 -2.32735 5.64506 0
M  V30 4476 H 438.186 -0.057607 5.73271 0
M  V30 4477 H 436.583 0.700227 5.96001 0
M  V30 4478 H 437.653 1.28848 4.67468 0
M  V30 4479 N 438.996 -1.55193 0.274407 0
M  V30 4480 C 440.242 -2.00604 -0.33608 0
M  V30 4481 C 440.597 -1.15948 -1.53538 0
M  V30 4482 O 439.89 -0.221385 -1.90317 0
M  V30 4483 C 440.084 -3.49019 -0.769458 0
M  V30 4484 C 439.913 -4.48038 0.386301 0
M  V30 4485 C 438.683 -4.97757 0.869854 0
M  V30 4486 C 440.881 -4.99558 1.22254 0
M  V30 4487 N 438.863 -5.80575 1.99515 0
M  V30 4488 C 440.234 -5.79816 2.19575 0
M  V30 4489 C 442.289 -4.81799 1.25597 0
M  V30 4490 C 440.992 -6.44208 3.19981 0
M  V30 4491 C 443.018 -5.46989 2.24848 0
M  V30 4492 C 442.38 -6.27058 3.20901 0
M  V30 4493 H 438.479 -0.777013 -0.088172 0
M  V30 4494 H 441.063 -1.90583 0.398266 0
M  V30 4495 H 439.234 -3.59383 -1.47303 0
M  V30 4496 H 440.966 -3.81263 -1.35722 0
M  V30 4497 H 437.721 -4.71464 0.449281 0
M  V30 4498 H 438.145 -6.26675 2.5614 0
M  V30 4499 H 442.787 -4.19501 0.527158 0
M  V30 4500 H 440.505 -7.05656 3.93796 0
M  V30 4501 H 444.091 -5.35189 2.28174 0
M  V30 4502 H 442.971 -6.7661 3.96445 0
M  V30 4503 N 440.474 -0.00167713 -1.576 0
M  V30 4504 C 441.384 1.00548 -2.1196 0
M  V30 4505 C 442.4 1.3758 -1.06526 0
M  V30 4506 O 443.576 1.46278 -1.38436 0
M  V30 4507 C 440.641 2.27809 -2.6135 0
M  V30 4508 C 439.702 1.97074 -3.81393 0
M  V30 4509 C 438.935 3.18267 -4.28417 0
M  V30 4510 O 439.158 4.30009 -3.74765 0
M  V30 4511 O 438.092 3.02167 -5.20556 0
M  V30 4512 H 441.918 0.573373 -2.98238 0
M  V30 4513 H 439.503 0.217255 -1.47812 0
M  V30 4514 H 441.385 3.02568 -2.93309 0
M  V30 4515 H 440.06 2.70254 -1.78169 0
M  V30 4516 H 438.967 1.19785 -3.54404 0
M  V30 4517 H 440.3 1.59464 -4.65652 0
M  V30 4518 N 441.952 1.55251 0.271103 0
M  V30 4519 C 442.884 1.84675 1.35749 0
M  V30 4520 C 443.897 0.731366 1.45447 0
M  V30 4521 O 445.086 1.00924 1.4723 0
M  V30 4522 C 442.186 1.99638 2.73857 0
M  V30 4523 C 441.359 3.30312 2.86727 0
M  V30 4524 C 440.418 3.35318 4.05522 0
M  V30 4525 O 439.444 4.08682 3.96191 0
M  V30 4526 N 440.646 2.62857 5.17577 0
M  V30 4527 H 443.411 2.78445 1.10853 0
M  V30 4528 H 440.972 1.55191 0.461218 0
M  V30 4529 H 442.964 2.00355 3.51625 0
M  V30 4530 H 441.534 1.12725 2.91568 0
M  V30 4531 H 440.754 3.42118 1.95829 0
M  V30 4532 H 442.042 4.16488 2.92258 0
M  V30 4533 H 441.44 2.02939 5.28046 0
M  V30 4534 H 439.997 2.69295 5.93568 0
M  V30 4535 N 443.43 -0.535701 1.48216 0
M  V30 4536 C 444.36 -1.65014 1.65204 0
M  V30 4537 C 445.341 -1.62554 0.501011 0
M  V30 4538 O 446.526 -1.7984 0.732886 0
M  V30 4539 C 443.656 -3.03616 1.68626 0
M  V30 4540 C 442.61 -3.20932 2.83172 0
M  V30 4541 C 441.936 -4.60537 2.71679 0
M  V30 4542 C 443.236 -3.04249 4.24535 0
M  V30 4543 H 444.93 -1.51053 2.58502 0
M  V30 4544 H 442.476 -0.725262 1.24402 0
M  V30 4545 H 444.429 -3.81446 1.79099 0
M  V30 4546 H 443.153 -3.18587 0.719026 0
M  V30 4547 H 441.812 -2.45517 2.72244 0
M  V30 4548 H 441.46 -4.72336 1.72937 0
M  V30 4549 H 441.16 -4.73069 3.48538 0
M  V30 4550 H 442.684 -5.40475 2.84112 0
M  V30 4551 H 444.098 -3.71877 4.36326 0
M  V30 4552 H 442.495 -3.28278 5.02348 0
M  V30 4553 H 443.565 -2.00739 4.41397 0
M  V30 4554 N 444.908 -1.36708 -0.784132 0
M  V30 4555 C 445.818 -1.3363 -1.92822 0
M  V30 4556 C 446.834 -0.237686 -1.72369 0
M  V30 4557 O 448.01 -0.470962 -1.95816 0
M  V30 4558 C 445.075 -1.13011 -3.27764 0
M  V30 4559 C 444.136 -2.32397 -3.60957 0
M  V30 4560 C 443.369 -2.12752 -4.89461 0
M  V30 4561 O 443.592 -1.10541 -5.59586 0
M  V30 4562 O 442.526 -3.00653 -5.21432 0
M  V30 4563 H 446.352 -2.29964 -1.98369 0
M  V30 4564 H 443.937 -1.1731 -0.925136 0
M  V30 4565 H 445.819 -1.03451 -4.08504 0
M  V30 4566 H 444.494 -0.19743 -3.23097 0
M  V30 4567 H 443.401 -2.47527 -2.80502 0
M  V30 4568 H 444.734 -3.2419 -3.70354 0
M  V30 4569 N 446.386 1.0089 -1.21074 0
M  V30 4570 C 447.334 2.11707 -0.963476 0
M  V30 4571 C 448.328 1.69172 0.0879032 0
M  V30 4572 O 449.534 1.79889 -0.0631415 0
M  V30 4573 H 445.909 0.692026 -0.294287 0
M  V30 4574 H 447.88 2.29743 -1.90422 0
M  V30 4575 C 446.629 3.43473 -0.540509 0
M  V30 4576 H 445.952 3.76634 -1.34114 0
M  V30 4577 H 447.392 4.22044 -0.406777 0
M  V30 4578 C 445.851 3.2849 0.748079 0
M  V30 4579 O 446.381 3.58883 1.8046 0
M  V30 4580 N 444.587 2.81715 0.713081 0
M  V30 4581 H 444.134 2.5718 -0.146973 0
M  V30 4582 H 444.092 2.72071 1.57558 0
M  V30 4583 N 447.864 1.01787 1.20321 0
M  V30 4584 C 449.112 0.706538 1.89347 0
M  V30 4585 C 449.433 -0.766289 1.79313 0
M  V30 4586 O 448.703 -1.55126 1.19635 0
M  V30 4587 H 447.283 0.258348 0.700903 0
M  V30 4588 H 449.945 1.28974 1.46122 0
M  V30 4589 H 449.041 0.991066 2.95946 0
M  V30 4590 N 449.342 -1.36122 0.79427 0
M  V30 4591 C 450.272 -2.32551 0.210328 0
M  V30 4592 C 451.253 -1.56884 -0.657386 0
M  V30 4593 O 452.438 -1.85014 -0.590207 0
M  V30 4594 C 449.568 -3.41128 -0.651819 0
M  V30 4595 C 448.522 -4.27842 0.116395 0
M  V30 4596 C 447.848 -5.2763 -0.86666 0
M  V30 4597 C 449.148 -5.05647 1.30837 0
M  V30 4598 H 450.842 -2.81636 1.01594 0
M  V30 4599 H 448.388 -1.35407 0.489981 0
M  V30 4600 H 450.341 -4.07581 -1.07031 0
M  V30 4601 H 449.065 -2.90622 -1.49019 0
M  V30 4602 H 447.724 -3.62952 0.515915 0
M  V30 4603 H 447.372 -4.73395 -1.70019 0
M  V30 4604 H 447.072 -5.86514 -0.35705 0
M  V30 4605 H 448.596 -5.96955 -1.28361 0
M  V30 4606 H 450.01 -5.65113 0.965393 0
M  V30 4607 H 448.407 -5.73967 1.75161 0
M  V30 4608 H 449.477 -4.37006 2.10128 0
M  V30 4609 N 450.82 -0.546701 -1.47814 0
M  V30 4610 C 452.069 -0.0166497 -2.01693 0
M  V30 4611 C 452.382 1.33721 -1.42752 0
M  V30 4612 O 453.588 1.95658 -1.8823 0
M  V30 4613 C 452.044 0.0206769 -3.59894 0
M  V30 4614 C 451.652 -1.3293 -4.27824 0
M  V30 4615 C 453.396 0.498674 -4.21561 0
M  V30 4616 C 451.303 -1.25165 -5.78003 0
M  V30 4617 H 450.233 -0.0024541 -0.753996 0
M  V30 4618 H 452.884 -0.692984 -1.69912 0
M  V30 4619 H 451.266 0.76244 -3.88591 0
M  V30 4620 H 452.44 -2.08795 -4.10781 0
M  V30 4621 H 450.755 -1.74438 -3.78101 0
M  V30 4622 H 453.352 0.575 -5.31599 0
M  V30 4623 H 453.695 1.5083 -3.88016 0
M  V30 4624 H 454.228 -0.18791 -3.97356 0
M  V30 4625 H 450.967 -2.23695 -6.1615 0
M  V30 4626 H 450.487 -0.53464 -5.97412 0
M  V30 4627 H 452.166 -0.949299 -6.39998 0
M  V30 4628 N 452.299 1.55045 -0.282633 0
M  V30 4629 C 453.576 1.9179 0.384166 0
M  V30 4630 C 453.956 1.20778 1.73136 0
M  V30 4631 O 453.304 0.33719 2.25998 0
M  V30 4632 C 453.514 3.45149 0.517014 0
M  V30 4633 C 454.862 4.17064 0.796427 0
M  V30 4634 O 455.886 3.51084 0.601535 0
M  V30 4635 O 454.745 5.33837 1.16962 0
M  V30 4636 H 451.839 0.799483 0.211558 0
M  V30 4637 H 454.385 1.66474 -0.32934 0
M  V30 4638 H 453.157 3.88922 -0.430772 0
M  V30 4639 H 452.78 3.76443 1.2797 0
M  V30 4640 N 453.777 0.010035 1.57597 0
M  V30 4641 C 455.005 -0.683413 1.95287 0
M  V30 4642 C 455.42 -1.66747 0.885481 0
M  V30 4643 O 454.777 -1.82003 -0.134629 0
M  V30 4644 C 454.828 -1.40652 3.33015 0
M  V30 4645 O 454.549 -0.461916 4.35658 0
M  V30 4646 C 456.05 -2.19356 3.85225 0
M  V30 4647 H 453.27 -0.189708 0.643624 0
M  V30 4648 H 455.814 0.0641359 2.04399 0
M  V30 4649 H 453.969 -2.10562 3.2518 0
M  V30 4650 H 454.383 -0.973215 5.15392 0
M  V30 4651 H 455.857 -2.65433 4.83993 0
M  V30 4652 H 456.334 -3.02457 3.18459 0
M  V30 4653 H 456.94 -1.54442 3.96267 0
M  V30 4654 N 455.255 -1.55392 -0.262866 0
M  V30 4655 C 456.185 -1.91978 -1.32917 0
M  V30 4656 C 457.166 -0.7828 -1.51017 0
M  V30 4657 O 458.351 -1.04178 -1.63892 0
M  V30 4658 C 455.481 -2.20055 -2.68687 0
M  V30 4659 C 454.435 -3.35854 -2.65304 0
M  V30 4660 C 453.761 -3.49435 -4.04721 0
M  V30 4661 C 455.061 -4.71977 -2.23685 0
M  V30 4662 H 456.755 -2.81292 -1.02544 0
M  V30 4663 H 454.301 -1.3534 -0.491846 0
M  V30 4664 H 456.254 -2.44237 -3.43404 0
M  V30 4665 H 454.978 -1.27551 -3.00663 0
M  V30 4666 H 453.637 -3.11655 -1.93045 0
M  V30 4667 H 453.285 -2.54379 -4.33936 0
M  V30 4668 H 452.985 -4.27297 -4.0335 0
M  V30 4669 H 454.509 -3.7592 -4.81161 0
M  V30 4670 H 455.923 -4.95637 -2.88127 0
M  V30 4671 H 454.32 -5.52828 -2.33456 0
M  V30 4672 H 455.39 -4.70115 -1.18827 0
M  V30 4673 N 456.733 0.527833 -1.48498 0
M  V30 4674 C 457.981 1.28101 -1.56316 0
M  V30 4675 C 458.302 1.9352 -0.239781 0
M  V30 4676 O 457.572 1.81433 0.738849 0
M  V30 4677 H 456.152 0.475793 -0.575873 0
M  V30 4678 H 458.814 0.614052 -1.84974 0
M  V30 4679 H 457.91 2.05916 -2.34532 0
M  V30 4680 N 458.211 1.37122 0.776871 0
M  V30 4681 C 459.436 1.354 1.57104 0
M  V30 4682 C 459.861 -0.0595562 1.88006 0
M  V30 4683 O 459.219 -1.03514 1.48844 0
M  V30 4684 C 459.267 2.19472 2.8612 0
M  V30 4685 O 458.371 1.59582 3.80273 0
M  V30 4686 H 457.712 0.462869 0.476076 0
M  V30 4687 H 460.242 1.80577 0.961932 0
M  V30 4688 H 460.252 2.32502 3.35271 0
M  V30 4689 H 458.927 3.22222 2.62956 0
M  V30 4690 H 457.504 1.55564 3.38902 0
M  V30 4691 N 459.689 -1.00246 1.21608 0
M  V30 4692 C 460.966 -1.71336 0.943568 0
M  V30 4693 C 461.346 -2.03972 -0.543943 0
M  V30 4694 O 460.694 -1.71545 -1.50946 0
M  V30 4695 C 460.904 -2.97094 1.83128 0
M  V30 4696 C 462.252 -3.70071 2.08165 0
M  V30 4697 O 463.276 -3.07081 1.80498 0
M  V30 4698 O 462.135 -4.83376 2.54971 0
M  V30 4699 H 459.229 -0.747386 0.354039 0
M  V30 4700 H 461.775 -1.05967 1.32549 0
M  V30 4701 H 460.547 -2.69407 2.83788 0
M  V30 4702 H 460.17 -3.70204 1.45034 0
M  V30 4703 N 461.167 -1.02423 -1.1978 0
M  V30 4704 C 462.117 -0.571689 -2.20716 0
M  V30 4705 C 463.101 0.377077 -1.56419 0
M  V30 4706 O 464.293 0.198801 -1.7588 0
M  V30 4707 C 461.422 0.0808555 -3.43205 0
M  V30 4708 C 460.508 -0.890073 -4.14655 0
M  V30 4709 N 460.899 -2.05065 -4.62366 0
M  V30 4710 C 459.197 -0.71252 -4.40272 0
M  V30 4711 C 459.898 -2.66264 -5.17183 0
M  V30 4712 N 458.874 -1.94264 -5.07703 0
M  V30 4713 H 462.676 -1.45636 -2.55279 0
M  V30 4714 H 460.19 -0.890596 -1.35802 0
M  V30 4715 H 462.187 0.422654 -4.14752 0
M  V30 4716 H 460.847 0.961274 -3.10144 0
M  V30 4717 H 461.858 -2.43026 -4.57339 0
M  V30 4718 H 458.535 0.119199 -4.1733 0
M  V30 4719 H 459.925 -3.64526 -5.64421 0
M  V30 4720 N 462.645 1.35699 -0.801477 0
M  V30 4721 C 463.893 1.9852 -0.37871 0
M  V30 4722 C 464.214 1.63907 1.05638 0
M  V30 4723 O 463.484 0.919013 1.73006 0
M  V30 4724 H 462.064 0.734322 -0.137042 0
M  V30 4725 H 464.726 1.65697 -1.02619 0
M  V30 4726 H 463.822 3.08382 -0.480284 0
M  V30 4727 N 464.123 0.554532 1.47522 0
M  V30 4728 C 465.371 0.0294208 2.02079 0
M  V30 4729 C 465.692 -1.32411 1.43151 0
M  V30 4730 O 464.962 -1.863 0.605728 0
M  V30 4731 H 463.542 0.00788672 0.746958 0
M  V30 4732 H 466.204 0.723934 1.80956 0
M  V30 4733 H 465.3 -0.0606745 3.12041 0
M  V30 4734 N 465.601 -1.54893 0.290851 0
M  V30 4735 C 466.551 -2.19838 -0.604599 0
M  V30 4736 C 467.535 -1.16805 -1.10659 0
M  V30 4737 O 468.727 -1.42562 -1.04905 0
M  V30 4738 C 465.856 -2.93497 -1.78086 0
M  V30 4739 C 464.942 -4.03835 -1.29531 0
M  V30 4740 N 465.333 -5.03047 -0.527024 0
M  V30 4741 C 463.631 -4.17192 -1.57693 0
M  V30 4742 C 464.332 -5.81074 -0.269728 0
M  V30 4743 N 463.308 -5.36966 -0.846651 0
M  V30 4744 H 467.11 -2.93898 -0.00995032 0
M  V30 4745 H 464.624 -1.62121 0.0951353 0
M  V30 4746 H 466.621 -3.38484 -2.43381 0
M  V30 4747 H 465.281 -2.2095 -2.37931 0
M  V30 4748 H 466.292 -5.17611 -0.172872 0
M  V30 4749 H 462.969 -3.55845 -2.18359 0
M  V30 4750 H 464.359 -6.71005 0.346643 0
M  V30 4751 N 467.08 -0.0183926 -1.57589 0
M  V30 4752 C 468.491 0.521927 -1.79256 0
M  V30 4753 C 468.842 1.72885 -0.927636 0
M  V30 4754 O 467.967 2.15978 -0.135091 0
M  V30 4755 C 468.562 0.953632 -3.25102 0
M  V30 4756 C 467.121 1.43913 -3.47801 0
M  V30 4757 C 466.268 0.398837 -2.74417 0
M  V30 4758 H 469.219 -0.244485 -1.56805 0
M  V30 4759 H 469.24 1.81863 -3.34224 0
M  V30 4760 H 468.752 0.0750123 -3.88028 0
M  V30 4761 H 466.853 2.33804 -2.90115 0
M  V30 4762 H 466.966 1.45391 -4.56507 0
M  V30 4763 H 465.33 0.864572 -2.39577 0
M  V30 4764 H 466.113 -0.471132 -3.40052 0
M  V30 4765 N 468.558 1.5553 0.254621 0
M  V30 4766 C 469.804 1.77262 0.985193 0
M  V30 4767 C 470.137 0.582286 1.85265 0
M  V30 4768 O 469.412 -0.419666 1.89919 0
M  V30 4769 C 469.695 3.0881 1.85225 0
M  V30 4770 C 469.548 4.38233 1.0135 0
M  V30 4771 C 470.867 3.3653 2.83612 0
M  V30 4772 H 467.986 0.644906 0.356742 0
M  V30 4773 H 470.628 1.88264 0.256236 0
M  V30 4774 H 468.778 2.99562 2.47376 0
M  V30 4775 H 470.45 4.59463 0.411269 0
M  V30 4776 H 468.693 4.32636 0.317574 0
M  V30 4777 H 469.364 5.26644 1.65379 0
M  V30 4778 H 471.84 3.45691 2.31596 0
M  V30 4779 H 470.716 4.29805 3.41407 0
M  V30 4780 H 470.977 2.57064 3.59681 0
M  V30 4781 N 470.036 -0.519951 1.48776 0
M  V30 4782 C 470.946 -1.65025 1.66745 0
M  V30 4783 C 471.962 -1.6508 0.549954 0
M  V30 4784 O 473.138 -1.83848 0.822295 0
M  V30 4785 C 470.203 -3.0146 1.71238 0
M  V30 4786 C 469.264 -3.12182 2.94688 0
M  V30 4787 C 468.497 -4.42109 2.98958 0
M  V30 4788 O 468.72 -5.29799 2.1135 0
M  V30 4789 O 467.654 -4.57406 3.91233 0
M  V30 4790 H 471.48 -1.52801 2.62461 0
M  V30 4791 H 469.065 -0.694157 1.32294 0
M  V30 4792 H 470.947 -3.82584 1.76657 0
M  V30 4793 H 469.622 -3.13988 0.786975 0
M  V30 4794 H 468.529 -2.30316 2.94797 0
M  V30 4795 H 469.862 -3.04574 3.86646 0
M  V30 4796 N 471.514 -1.37532 -0.769588 0
M  V30 4797 C 472.791 -1.23392 -1.51768 0
M  V30 4798 C 473.171 0.17157 -2.10402 0
M  V30 4799 O 472.519 1.17943 -1.95708 0
M  V30 4800 C 472.729 -2.33163 -2.59685 0
M  V30 4801 C 474.077 -2.70809 -3.27028 0
M  V30 4802 O 475.101 -2.32355 -2.69981 0
M  V30 4803 O 473.96 -3.37066 -4.30173 0
M  V30 4804 H 471.054 -0.481617 -0.67229 0
M  V30 4805 H 473.6 -1.49318 -0.806368 0
M  V30 4806 H 472.372 -3.27273 -2.14494 0
M  V30 4807 H 471.995 -2.08713 -3.38415 0
M  V30 4808 N 472.992 0.995999 -1.22138 0
M  V30 4809 C 473.939 2.08551 -0.988687 0
M  V30 4810 C 474.909 1.65864 0.0885021 0
M  V30 4811 O 476.094 1.90704 -0.0604589 0
M  V30 4812 C 473.234 3.40374 -0.569191 0
M  V30 4813 C 472.347 3.96421 -1.71681 0
M  V30 4814 C 471.482 5.1639 -1.2456 0
M  V30 4815 C 470.521 5.64567 -2.36497 0
M  V30 4816 N 469.658 6.75777 -1.90445 0
M  V30 4817 H 474.498 2.2779 -1.92135 0
M  V30 4818 H 472.035 1.1168 -0.957388 0
M  V30 4819 H 473.993 4.16068 -0.307166 0
M  V30 4820 H 472.623 3.21145 0.326462 0
M  V30 4821 H 471.675 3.17628 -2.09324 0
M  V30 4822 H 472.987 4.2816 -2.55891 0
M  V30 4823 H 472.141 5.99362 -0.940774 0
M  V30 4824 H 470.88 4.86266 -0.373662 0
M  V30 4825 H 469.885 4.80185 -2.67772 0
M  V30 4826 H 471.11 5.96716 -3.24202 0
M  V30 4827 H 469.056 6.47443 -1.05609 0
M  V30 4828 H 468.973 7.06818 -2.68223 0
M  V30 4829 H 470.241 7.62262 -1.63022 0
M  V30 4830 N 474.47 1.03057 1.19235 0
M  V30 4831 C 475.38 0.622922 2.26179 0
M  V30 4832 C 476.396 -0.346113 1.70523 0
M  V30 4833 O 477.572 -0.203572 2.00369 0
M  V30 4834 C 474.637 -0.0182063 3.46695 0
M  V30 4835 C 473.698 0.998546 4.17526 0
M  V30 4836 C 472.931 0.387917 5.32288 0
M  V30 4837 O 473.154 -0.808668 5.64639 0
M  V30 4838 O 472.088 1.1116 5.91546 0
M  V30 4839 H 475.914 1.51363 2.63292 0
M  V30 4840 H 473.499 0.800856 1.26122 0
M  V30 4841 H 475.381 -0.375606 4.19723 0
M  V30 4842 H 474.056 -0.882895 3.11427 0
M  V30 4843 H 472.963 1.40756 3.4661 0
M  V30 4844 H 474.296 1.83366 4.56769 0
M  V30 4845 N 475.948 -1.35272 0.808662 0
M  V30 4846 C 477.359 -1.81179 0.450688 0
M  V30 4847 C 477.71 -1.67143 -1.02751 0
M  V30 4848 O 476.835 -1.20325 -1.79864 0
M  V30 4849 C 477.43 -3.28943 0.811275 0
M  V30 4850 C 475.989 -3.72985 0.505871 0
M  V30 4851 C 475.136 -2.57229 1.03578 0
M  V30 4852 H 478.087 -1.2322 1.00012 0
M  V30 4853 H 478.108 -3.80342 0.109588 0
M  V30 4854 H 477.62 -3.39127 1.88718 0
M  V30 4855 H 475.721 -3.68349 -0.561209 0
M  V30 4856 H 475.834 -4.67677 1.03995 0
M  V30 4857 H 474.198 -2.50548 0.458005 0
M  V30 4858 H 474.981 -2.7019 2.11784 0
M  V30 4859 N 477.426 -0.562348 -1.47226 0
M  V30 4860 C 478.674 -0.0401371 -2.0206 0
M  V30 4861 C 478.995 1.3165 -1.43852 0
M  V30 4862 O 478.265 1.85976 -0.615599 0
M  V30 4863 H 476.845 -0.0118479 -0.746906 0
M  V30 4864 H 479.507 -0.73352 -1.8057 0
M  V30 4865 H 478.603 0.0441254 -3.12069 0
M  V30 4866 N 478.904 1.54736 -0.299062 0
M  V30 4867 C 480.15 2.01114 0.304123 0
M  V30 4868 C 480.505 1.18376 1.51674 0
M  V30 4869 O 479.798 0.251635 1.8994 0
M  V30 4870 C 479.992 3.50199 0.713835 0
M  V30 4871 C 479.821 4.47366 -0.457531 0
M  V30 4872 C 478.591 4.9631 -0.948933 0
M  V30 4873 C 480.789 4.9755 -1.30186 0
M  V30 4874 N 478.771 5.77327 -2.08726 0
M  V30 4875 C 480.142 5.7625 -2.28771 0
M  V30 4876 C 482.197 4.79739 -1.33246 0
M  V30 4877 C 480.9 6.39036 -3.3019 0
M  V30 4878 C 482.926 5.43343 -2.33521 0
M  V30 4879 C 482.288 6.21874 -3.30836 0
M  V30 4880 H 478.387 0.778318 0.0757992 0
M  V30 4881 H 480.971 1.89925 -0.428536 0
M  V30 4882 H 479.142 3.61681 1.41567 0
M  V30 4883 H 480.874 3.83374 1.29639 0
M  V30 4884 H 477.629 4.7069 -0.52423 0
M  V30 4885 H 478.053 6.22521 -2.66077 0
M  V30 4886 H 482.695 4.18609 -0.59383 0
M  V30 4887 H 480.413 6.99302 -4.04973 0
M  V30 4888 H 483.999 5.31492 -2.3666 0
M  V30 4889 H 482.879 6.70217 -4.07159 0
M  V30 4890 N 480.382 0.0267497 1.57577 0
M  V30 4891 C 481.329 -0.955894 2.10075 0
M  V30 4892 C 482.299 -1.32453 1.00226 0
M  V30 4893 O 483.484 -1.41826 1.27632 0
M  V30 4894 C 480.624 -2.2338 2.6305 0
M  V30 4895 C 479.737 -1.92183 3.86898 0
M  V30 4896 C 478.872 -3.14251 4.28275 0
M  V30 4897 C 477.911 -2.78862 5.44888 0
M  V30 4898 N 477.048 -3.93548 5.81433 0
M  V30 4899 H 481.888 -0.501303 2.93753 0
M  V30 4900 H 479.425 -0.235847 1.45197 0
M  V30 4901 H 481.383 -2.98124 2.91853 0
M  V30 4902 H 480.013 -2.6646 1.82205 0
M  V30 4903 H 479.065 -1.07692 3.64838 0
M  V30 4904 H 480.377 -1.62117 4.7172 0
M  V30 4905 H 479.531 -3.97317 4.58502 0
M  V30 4906 H 478.27 -3.47476 3.42215 0
M  V30 4907 H 477.275 -1.94208 5.14357 0
M  V30 4908 H 478.5 -2.46855 6.32645 0
M  V30 4909 H 476.446 -4.2662 4.98328 0
M  V30 4910 H 476.363 -3.67098 6.6089 0
M  V30 4911 H 477.631 -4.77325 6.16264 0
M  V30 4912 N 481.861 -1.55662 -0.24637 0
M  V30 4913 C 483.138 -1.68272 -0.997198 0
M  V30 4914 C 483.518 -0.566785 -2.03349 0
M  V30 4915 O 482.866 0.429688 -2.24424 0
M  V30 4916 C 483.076 -3.08594 -1.63006 0
M  V30 4917 C 484.424 -3.6721 -2.13171 0
M  V30 4918 O 485.448 -3.11397 -1.72946 0
M  V30 4919 O 484.307 -4.65054 -2.87031 0
M  V30 4920 H 481.401 -0.684429 -0.464205 0
M  V30 4921 H 483.947 -1.67993 -0.240114 0
M  V30 4922 H 482.719 -3.81264 -0.880527 0
M  V30 4923 H 482.342 -3.12886 -2.45333 0
M  V30 4924 N 483.339 0.512053 -1.4905 0
M  V30 4925 C 484.585 1.26874 -1.58212 0
M  V30 4926 C 484.918 1.9241 -0.263073 0
M  V30 4927 O 484.193 1.80181 0.732476 0
M  V30 4928 C 484.476 2.34428 -2.73341 0
M  V30 4929 C 484.329 1.73466 -4.15006 0
M  V30 4930 C 485.648 3.36073 -2.84154 0
M  V30 4931 H 482.767 0.459924 -0.575881 0
M  V30 4932 H 485.409 0.568587 -1.81293 0
M  V30 4933 H 483.559 2.94146 -2.53792 0
M  V30 4934 H 485.231 1.17661 -4.46042 0
M  V30 4935 H 483.474 1.03921 -4.21168 0
M  V30 4936 H 484.145 2.51426 -4.91415 0
M  V30 4937 H 486.621 2.86332 -3.01916 0
M  V30 4938 H 485.497 4.08703 -3.66406 0
M  V30 4939 H 485.758 3.97725 -1.93048 0
M  V30 4940 N 484.817 1.37938 0.762283 0
M  V30 4941 C 486.063 1.34873 1.52253 0
M  V30 4942 C 486.418 -0.0635972 1.92295 0
M  V30 4943 O 485.711 -1.02434 1.61919 0
M  V30 4944 C 485.905 2.23042 2.79261 0
M  V30 4945 C 485.734 3.72706 2.51635 0
M  V30 4946 C 484.504 4.41771 2.45289 0
M  V30 4947 C 486.702 4.65345 2.18994 0
M  V30 4948 N 484.684 5.76921 2.09846 0
M  V30 4949 C 486.055 5.88943 1.9377 0
M  V30 4950 C 488.11 4.53636 2.0523 0
M  V30 4951 C 486.813 7.02142 1.5617 0
M  V30 4952 C 488.839 5.6673 1.69031 0
M  V30 4953 C 488.201 6.89383 1.44673 0
M  V30 4954 H 484.3 0.548818 0.557067 0
M  V30 4955 H 486.884 1.73247 0.888458 0
M  V30 4956 H 485.055 1.8687 3.40491 0
M  V30 4957 H 486.787 2.11165 3.45241 0
M  V30 4958 H 483.542 3.94883 2.61465 0
M  V30 4959 H 483.966 6.4837 1.94794 0
M  V30 4960 H 488.608 3.5937 2.2274 0
M  V30 4961 H 486.326 7.96334 1.37399 0
M  V30 4962 H 489.912 5.59645 1.59026 0
M  V30 4963 H 488.792 7.75411 1.17079 0
M  V30 4964 N 486.295 -0.989507 1.22664 0
M  V30 4965 C 487.242 -2.08024 0.999733 0
M  V30 4966 C 488.212 -1.65909 -0.0797047 0
M  V30 4967 O 489.397 -1.90669 0.0705715 0
M  V30 4968 C 486.537 -3.40067 0.587234 0
M  V30 4969 C 485.65 -3.95505 1.73781 0
M  V30 4970 C 484.785 -5.15722 1.27297 0
M  V30 4971 C 483.824 -5.63305 2.39488 0
M  V30 4972 N 482.961 -6.74758 1.94026 0
M  V30 4973 H 487.801 -2.26768 1.9334 0
M  V30 4974 H 485.338 -1.11171 0.963297 0
M  V30 4975 H 487.296 -4.15899 0.329227 0
M  V30 4976 H 485.926 -3.21314 -0.309426 0
M  V30 4977 H 484.978 -3.16513 2.11006 0
M  V30 4978 H 486.29 -4.26797 2.58158 0
M  V30 4979 H 485.444 -5.98854 0.972546 0
M  V30 4980 H 484.183 -4.86061 0.399445 0
M  V30 4981 H 483.188 -4.78759 2.70315 0
M  V30 4982 H 484.413 -5.94988 3.27362 0
M  V30 4983 H 482.359 -6.46874 1.09041 0
M  V30 4984 H 482.276 -7.05386 2.71968 0
M  V30 4985 H 483.544 -7.61387 1.67062 0
M  V30 4986 N 487.773 -1.03688 -1.18687 0
M  V30 4987 C 488.736 -0.629115 -2.20397 0
M  V30 4988 C 489.736 0.311495 -1.57754 0
M  V30 4989 O 490.926 0.0974107 -1.73927 0
M  V30 4990 C 488.058 0.0782231 -3.4081 0
M  V30 4991 H 489.251 -1.52915 -2.57987 0
M  V30 4992 H 486.804 -0.828988 -1.32505 0
M  V30 4993 H 487.539 0.992233 -3.08748 0
M  V30 4994 H 487.324 -0.597776 -3.87517 0
M  V30 4995 H 488.814 0.350156 -4.16129 0
M  V30 4996 N 489.251 1.34841 -0.815825 0
M  V30 4997 C 490.499 1.98107 -0.399744 0
M  V30 4998 C 490.82 1.65019 1.03894 0
M  V30 4999 O 490.09 0.937311 1.72021 0
M  V30 5000 H 488.67 0.732827 -0.144823 0
M  V30 5001 H 491.332 1.64599 -1.0437 0
M  V30 5002 H 490.428 3.07856 -0.512965 0
M  V30 5003 N 490.729 0.570148 1.46925 0
M  V30 5004 C 491.677 -0.183181 2.31878 0
M  V30 5005 C 492.671 -0.896721 1.43719 0
M  V30 5006 O 493.877 -0.816536 1.60414 0
M  V30 5007 H 490.252 -0.077944 0.74795 0
M  V30 5008 H 492.223 0.552312 2.93244 0
M  V30 5009 C 490.972 -1.19172 3.2664 0
M  V30 5010 H 490.295 -0.652088 3.94446 0
M  V30 5011 H 491.735 -1.68946 3.88887 0
M  V30 5012 C 490.194 -2.24627 2.51086 0
M  V30 5013 O 490.724 -3.31773 2.26472 0
M  V30 5014 N 488.93 -1.98898 2.11867 0
M  V30 5015 H 488.477 -1.11777 2.32086 0
M  V30 5016 H 488.435 -2.6967 1.61634 0
M  V30 5017 N 492.207 -1.54576 0.307264 0
M  V30 5018 C 493.455 -1.99867 -0.299574 0
M  V30 5019 C 493.776 -1.19714 -1.53927 0
M  V30 5020 O 493.046 -0.29472 -1.9367 0
M  V30 5021 H 491.626 -0.738299 -0.113683 0
M  V30 5022 H 494.288 -1.9032 0.420042 0
M  V30 5023 H 493.384 -3.06901 -0.567283 0
M  V30 5024 N 493.685 -0.035106 -1.57561 0
M  V30 5025 C 494.648 0.929819 -2.09492 0
M  V30 5026 C 495.648 1.25026 -1.01119 0
M  V30 5027 O 496.838 1.18961 -1.27255 0
M  V30 5028 C 493.97 2.24457 -2.56577 0
M  V30 5029 H 495.163 0.479935 -2.96035 0
M  V30 5030 H 492.716 0.213033 -1.54841 0
M  V30 5031 H 493.451 2.74061 -1.73382 0
M  V30 5032 H 493.236 2.02508 -3.35757 0
M  V30 5033 H 494.726 2.93607 -2.96959 0
M  V30 5034 N 495.163 1.55791 0.238111 0
M  V30 5035 C 496.093 1.94068 1.29846 0
M  V30 5036 C 497.074 0.806726 1.49753 0
M  V30 5037 O 498.259 1.06772 1.62214 0
M  V30 5038 C 495.389 2.24302 2.65153 0
M  V30 5039 C 494.343 3.40032 2.59927 0
M  V30 5040 C 493.669 3.55829 3.99111 0
M  V30 5041 C 494.969 4.75476 2.16148 0
M  V30 5042 H 496.663 2.82887 0.980563 0
M  V30 5043 H 494.209 1.36105 0.470253 0
M  V30 5044 H 496.162 2.4967 3.39475 0
M  V30 5045 H 494.886 1.32318 2.98596 0
M  V30 5046 H 493.545 3.14687 1.88063 0
M  V30 5047 H 493.193 2.6125 4.29834 0
M  V30 5048 H 492.893 4.3366 3.96501 0
M  V30 5049 H 494.417 3.83528 4.7512 0
M  V30 5050 H 495.831 5.00158 2.80205 0
M  V30 5051 H 494.228 5.56472 2.24631 0
M  V30 5052 H 495.298 4.71946 1.11333 0
M  V30 5053 N 496.642 -0.504142 1.49319 0
M  V30 5054 C 497.89 -1.25598 1.58334 0
M  V30 5055 C 498.211 -1.93114 0.270538 0
M  V30 5056 O 497.481 -1.82585 -0.709891 0
M  V30 5057 H 496.061 -0.466571 0.58337 0
M  V30 5058 H 498.723 -0.584547 1.85928 0
M  V30 5059 H 497.819 -2.02159 2.37778 0
M  V30 5060 N 498.12 -1.38341 -0.754957 0
M  V30 5061 C 499.05 -1.38176 -1.88227 0
M  V30 5062 C 500.031 -0.247873 -1.68284 0
M  V30 5063 O 501.216 -0.45075 -1.88896 0
M  V30 5064 C 498.346 -1.20471 -3.25736 0
M  V30 5065 C 497.3 -2.3105 -3.60278 0
M  V30 5066 C 496.626 -1.98452 -4.96509 0
M  V30 5067 C 497.926 -3.73305 -3.65295 0
M  V30 5068 H 499.62 -2.32512 -1.88622 0
M  V30 5069 H 497.166 -1.1192 -0.906082 0
M  V30 5070 H 499.119 -1.18982 -4.04254 0
M  V30 5071 H 497.843 -0.225965 -3.25817 0
M  V30 5072 H 496.502 -2.31723 -2.84078 0
M  V30 5073 H 496.15 -0.990641 -4.93148 0
M  V30 5074 H 495.85 -2.7251 -5.20588 0
M  V30 5075 H 497.374 -1.98578 -5.77407 0
M  V30 5076 H 498.788 -3.7467 -4.3393 0
M  V30 5077 H 497.185 -4.46557 -4.00883 0
M  V30 5078 H 498.255 -4.05719 -2.65556 0
M  V30 5079 N 499.598 0.982988 -1.23187 0
M  V30 5080 C 500.508 2.10907 -1.02739 0
M  V30 5081 C 501.524 1.73979 0.0273188 0
M  V30 5082 O 502.7 2.00702 -0.16757 0
M  V30 5083 C 499.765 3.41142 -0.618304 0
M  V30 5084 C 498.826 3.92112 -1.74777 0
M  V30 5085 C 498.059 5.16131 -1.3581 0
M  V30 5086 O 498.282 5.6989 -0.241201 0
M  V30 5087 O 497.216 5.61103 -2.17824 0
M  V30 5088 H 501.042 2.31046 -1.97108 0
M  V30 5089 H 498.627 1.09284 -1.01869 0
M  V30 5090 H 500.509 4.19488 -0.400982 0
M  V30 5091 H 499.184 3.2234 0.296421 0
M  V30 5092 H 498.091 3.14895 -2.0197 0
M  V30 5093 H 499.424 4.15364 -2.64071 0
M  V30 5094 N 501.076 1.04316 1.18135 0
M  V30 5095 C 502.304 0.768117 1.92113 0
M  V30 5096 C 502.719 -0.675057 1.76319 0
M  V30 5097 O 502.076 -1.46038 1.09449 0
M  V30 5098 C 502.127 1.12808 3.43448 0
M  V30 5099 O 501.848 2.5146 3.58747 0
M  V30 5100 C 503.349 0.8779 4.3452 0
M  V30 5101 H 500.569 0.279937 0.609817 0
M  V30 5102 H 503.113 1.39149 1.49859 0
M  V30 5103 H 501.268 0.549623 3.83481 0
M  V30 5104 H 501.682 2.65313 4.52448 0
M  V30 5105 H 503.156 1.17959 5.39249 0
M  V30 5106 H 503.633 -0.187239 4.38801 0
M  V30 5107 H 504.239 1.43977 4.00188 0
M  V30 5108 N 502.554 -1.34406 0.822964 0
M  V30 5109 C 503.779 -2.0304 0.423034 0
M  V30 5110 C 504.204 -1.61568 -0.963196 0
M  V30 5111 O 503.562 -0.800339 -1.62678 0
M  V30 5112 C 503.61 -3.56636 0.53321 0
M  V30 5113 O 502.714 -4.09971 -0.446939 0
M  V30 5114 H 502.055 -0.64075 0.174171 0
M  V30 5115 H 504.585 -1.71653 1.11339 0
M  V30 5116 H 504.595 -4.05945 0.408991 0
M  V30 5117 H 503.27 -3.86168 1.54425 0
M  V30 5118 H 501.847 -3.71835 -0.281601 0
M  V30 5119 N 504.032 -0.577932 -1.46621 0
M  V30 5120 C 504.962 0.145917 -2.33044 0
M  V30 5121 C 505.943 0.888412 -1.45056 0
M  V30 5122 O 507.128 0.864812 -1.73881 0
M  V30 5123 C 504.258 1.16322 -3.27241 0
M  V30 5124 C 503.212 0.535868 -4.24632 0
M  V30 5125 C 502.538 1.65929 -5.08303 0
M  V30 5126 C 503.838 -0.523861 -5.19666 0
M  V30 5127 H 505.532 -0.575636 -2.93814 0
M  V30 5128 H 503.078 -0.278272 -1.41286 0
M  V30 5129 H 505.031 1.67793 -3.86553 0
M  V30 5130 H 503.755 1.91498 -2.64567 0
M  V30 5131 H 502.414 0.0422759 -3.66576 0
M  V30 5132 H 502.062 2.40061 -4.42018 0
M  V30 5133 H 501.762 1.2452 -5.74255 0
M  V30 5134 H 503.286 2.17686 -5.70478 0
M  V30 5135 H 504.7 -0.0944059 -5.73222 0
M  V30 5136 H 503.097 -0.858 -5.93935 0
M  V30 5137 H 504.167 -1.41197 -4.63887 0
M  V30 5138 N 505.51 1.54411 -0.315457 0
M  V30 5139 C 506.921 1.85885 0.174265 0
M  V30 5140 C 507.272 1.23723 1.52273 0
M  V30 5141 O 506.397 0.540246 2.09548 0
M  V30 5142 C 506.992 3.37257 0.322981 0
M  V30 5143 C 505.551 3.68711 0.756922 0
M  V30 5144 C 504.698 2.77013 -0.126195 0
M  V30 5145 H 507.649 1.49374 -0.536007 0
M  V30 5146 H 507.67 3.62539 1.15522 0
M  V30 5147 H 507.182 3.82471 -0.658602 0
M  V30 5148 H 505.283 3.29024 1.74854 0
M  V30 5149 H 505.396 4.75741 0.566291 0
M  V30 5150 H 503.76 2.51588 0.39692 0
M  V30 5151 H 504.543 3.25051 -1.1044 0
M  V30 5152 N 506.988 0.0434614 1.5754 0
M  V30 5153 C 507.921 -0.968729 2.06618 0
M  V30 5154 C 508.899 -1.30868 0.965 0
M  V30 5155 O 510.083 -1.42288 1.23638 0
M  V30 5156 C 507.21 -2.28486 2.50023 0
M  V30 5157 C 506.256 -2.09851 3.71302 0
M  V30 5158 S 507.089 -1.38401 5.17306 0
M  V30 5159 C 508.245 -2.71354 5.64019 0
M  V30 5160 H 508.478 -0.551021 2.92149 0
M  V30 5161 H 506.011 -0.168607 1.53477 0
M  V30 5162 H 507.969 -3.04142 2.75695 0
M  V30 5163 H 506.63 -2.67387 1.64812 0
M  V30 5164 H 505.823 -3.07184 3.99567 0
M  V30 5165 H 505.425 -1.42336 3.45856 0
M  V30 5166 H 507.717 -3.67549 5.69134 0
M  V30 5167 H 508.66 -2.47734 6.6335 0
M  V30 5168 H 509.068 -2.77259 4.91719 0
M  V30 5169 N 508.466 -1.55915 -0.229846 0
M  V30 5170 C 509.399 -1.86734 -1.3117 0
M  V30 5171 C 510.377 -0.723947 -1.45595 0
M  V30 5172 O 511.561 -0.971462 -1.61539 0
M  V30 5173 C 508.688 -2.06707 -2.68309 0
M  V30 5174 C 507.734 -3.2938 -2.70944 0
M  V30 5175 S 508.567 -4.85547 -2.25842 0
M  V30 5176 C 509.723 -5.08546 -3.64873 0
M  V30 5177 H 509.956 -2.78204 -1.04832 0
M  V30 5178 H 507.489 -1.48243 -0.431681 0
M  V30 5179 H 509.447 -2.18898 -3.47267 0
M  V30 5180 H 508.108 -1.16049 -2.91876 0
M  V30 5181 H 507.301 -3.40374 -3.71701 0
M  V30 5182 H 506.903 -3.16004 -2.00044 0
M  V30 5183 H 509.195 -4.96935 -4.60502 0
M  V30 5184 H 510.138 -6.10465 -3.58801 0
M  V30 5185 H 510.546 -4.36314 -3.58176 0
M  V30 5186 N 509.944 0.496216 -1.49584 0
M  V30 5187 C 510.874 1.60576 -1.69521 0
M  V30 5188 C 511.855 1.61169 -0.543933 0
M  V30 5189 O 513.04 1.77834 -0.78031 0
M  V30 5190 C 510.17 2.99038 -1.76616 0
M  V30 5191 C 509.124 3.13312 -2.91581 0
M  V30 5192 C 508.45 4.53172 -2.83794 0
M  V30 5193 C 509.75 2.92886 -4.32452 0
M  V30 5194 H 511.444 1.44146 -2.62416 0
M  V30 5195 H 508.99 0.692024 -1.26282 0
M  V30 5196 H 510.943 3.76564 -1.8915 0
M  V30 5197 H 509.667 3.16568 -0.80324 0
M  V30 5198 H 508.326 2.38213 -2.78658 0
M  V30 5199 H 507.974 4.67585 -1.854 0
M  V30 5200 H 507.674 4.63662 -3.60958 0
M  V30 5201 H 509.198 5.32752 -2.98342 0
M  V30 5202 H 510.612 3.60178 -4.46032 0
M  V30 5203 H 509.009 3.14844 -5.10875 0
M  V30 5204 H 510.079 1.88966 -4.46565 0
M  V30 5205 N 511.423 1.38739 0.74761 0
M  V30 5206 C 512.651 1.38521 1.53686 0
M  V30 5207 C 513.066 -0.0235129 1.88785 0
M  V30 5208 O 512.423 -0.991662 1.53207 0
M  V30 5209 C 512.474 2.24641 2.83229 0
M  V30 5210 O 512.195 3.60026 2.49625 0
M  V30 5211 C 513.696 2.32669 3.77333 0
M  V30 5212 H 510.916 0.473589 0.475347 0
M  V30 5213 H 513.46 1.82395 0.924786 0
M  V30 5214 H 511.615 1.84213 3.40799 0
M  V30 5215 H 512.029 4.05435 3.3275 0
M  V30 5216 H 513.503 2.97201 4.65162 0
M  V30 5217 H 513.98 1.3421 4.18192 0
M  V30 5218 H 514.586 2.73512 3.25685 0
M  V30 5219 N 512.901 -0.976442 1.23707 0
M  V30 5220 C 513.849 -2.09078 1.01927 0
M  V30 5221 C 514.843 -1.69345 -0.0430193 0
M  V30 5222 O 516.049 -1.79659 0.110814 0
M  V30 5223 H 512.424 -0.68398 0.312531 0
M  V30 5224 H 514.395 -2.24614 1.96447 0
M  V30 5225 C 513.144 -3.41919 0.631385 0
M  V30 5226 H 512.467 -3.72946 1.44053 0
M  V30 5227 H 513.907 -4.20817 0.518532 0
M  V30 5228 C 512.366 -3.30357 -0.660723 0
M  V30 5229 O 512.896 -3.63542 -1.70881 0
M  V30 5230 N 511.102 -2.83507 -0.638139 0
M  V30 5231 H 510.649 -2.567 0.215108 0
M  V30 5232 H 510.607 -2.76153 -1.50289 0
M  V30 5233 N 514.379 -1.04941 -1.1758 0
M  V30 5234 C 515.627 -0.756492 -1.87408 0
M  V30 5235 C 515.948 0.718478 -1.81281 0
M  V30 5236 O 515.218 1.519 -1.23706 0
M  V30 5237 H 513.798 -0.276841 -0.693807 0
M  V30 5238 H 516.46 -1.32803 -1.42652 0
M  V30 5239 H 515.556 -1.06918 -2.93215 0
M  V30 5240 N 515.857 1.33968 -0.830081 0
M  V30 5241 C 517.103 1.98357 -0.422191 0
M  V30 5242 C 517.436 1.65633 1.01387 0
M  V30 5243 O 516.711 0.931648 1.70735 0
M  V30 5244 C 516.994 3.54492 -0.633043 0
M  V30 5245 C 516.847 3.96934 -2.11574 0
M  V30 5246 C 518.166 4.40039 -0.0735584 0
M  V30 5247 H 515.285 0.720544 -0.154871 0
M  V30 5248 H 517.927 1.58749 -1.04397 0
M  V30 5249 H 516.077 3.88361 -0.103775 0
M  V30 5250 H 517.749 3.73363 -2.7092 0
M  V30 5251 H 515.992 3.46984 -2.60354 0
M  V30 5252 H 516.663 5.05651 -2.21406 0
M  V30 5253 H 519.139 4.12764 -0.52585 0
M  V30 5254 H 518.015 5.48327 -0.250841 0
M  V30 5255 H 518.276 4.30124 1.02202 0
M  V30 5256 N 517.335 0.585699 1.46312 0
M  V30 5257 C 518.283 -0.158577 2.32059 0
M  V30 5258 C 519.277 -0.881427 1.44662 0
M  V30 5259 O 520.483 -0.799476 1.61271 0
M  V30 5260 H 516.858 -0.0700066 0.748734 0
M  V30 5261 H 518.829 0.583383 2.92642 0
M  V30 5262 C 517.578 -1.15701 3.27885 0
M  V30 5263 H 516.901 -0.610215 3.95116 0
M  V30 5264 H 518.341 -1.64812 3.90657 0
M  V30 5265 C 516.8 -2.21951 2.53455 0
M  V30 5266 O 517.33 -3.29352 2.29978 0
M  V30 5267 N 515.536 -1.9664 2.13965 0
M  V30 5268 H 515.083 -1.09309 2.33258 0
M  V30 5269 H 515.041 -2.6794 1.64485 0
M  V30 5270 N 518.813 -1.54241 0.323641 0
M  V30 5271 C 519.76 -2.24339 -0.542277 0
M  V30 5272 C 520.73 -1.23421 -1.11159 0
M  V30 5273 O 521.915 -1.52104 -1.15192 0
M  V30 5274 C 519.055 -3.00479 -1.69725 0
M  V30 5275 C 518.168 -4.16214 -1.15716 0
M  V30 5276 C 517.303 -4.79884 -2.27783 0
M  V30 5277 C 516.342 -5.87722 -1.71023 0
M  V30 5278 N 515.479 -6.45254 -2.76752 0
M  V30 5279 H 520.319 -2.97935 0.0620613 0
M  V30 5280 H 517.856 -1.47039 0.0423993 0
M  V30 5281 H 519.814 -3.42869 -2.3769 0
M  V30 5282 H 518.444 -2.29217 -2.27288 0
M  V30 5283 H 517.496 -3.78605 -0.369063 0
M  V30 5284 H 518.808 -4.93838 -0.701832 0
M  V30 5285 H 517.962 -5.25243 -3.03651 0
M  V30 5286 H 516.701 -4.01641 -2.76652 0
M  V30 5287 H 515.706 -5.41765 -0.936518 0
M  V30 5288 H 516.931 -6.67863 -1.2303 0
M  V30 5289 H 514.877 -5.69884 -3.24912 0
M  V30 5290 H 514.794 -7.18292 -2.35782 0
M  V30 5291 H 516.062 -6.95269 -3.5245 0
M  V30 5292 N 520.291 -0.0518155 -1.57515 0
M  V30 5293 C 521.539 0.620595 -1.92336 0
M  V30 5294 C 521.86 1.71345 -0.930907 0
M  V30 5295 O 521.13 1.95885 0.0241341 0
M  V30 5296 H 519.71 0.232226 -0.709986 0
M  V30 5297 H 522.372 -0.104969 -1.94617 0
M  V30 5298 H 521.468 1.05879 -2.93592 0
M  V30 5299 N 521.769 1.56035 0.221574 0
M  V30 5300 C 523.185 1.49026 0.571271 0
M  V30 5301 C 523.385 0.746912 1.87146 0
M  V30 5302 O 522.441 0.286566 2.50869 0
M  V30 5303 C 523.754 2.93579 0.650522 0
M  V30 5304 C 525.302 3.04099 0.741151 0
M  V30 5305 C 525.777 4.5001 0.851747 0
M  V30 5306 N 527.268 4.54053 0.915968 0
M  V30 5307 C 528.003 5.64232 1.02125 0
M  V30 5308 N 527.499 6.84164 1.09049 0
M  V30 5309 N 529.292 5.52084 1.05639 0
M  V30 5310 H 521.443 2.02791 -0.63162 0
M  V30 5311 H 523.706 0.921736 -0.221602 0
M  V30 5312 H 523.412 3.50912 -0.235253 0
M  V30 5313 H 523.286 3.45476 1.51413 0
M  V30 5314 H 525.673 2.4683 1.61737 0
M  V30 5315 H 525.754 2.55371 -0.148128 0
M  V30 5316 H 525.398 5.07896 -0.0200117 0
M  V30 5317 H 525.328 4.96444 1.75644 0
M  V30 5318 H 527.819 3.67683 0.872782 0
M  V30 5319 H 528.132 7.63883 1.1706 0
M  V30 5320 H 526.477 6.86875 1.05962 0
M  V30 5321 H 529.668 4.57317 0.998953 0
M  V30 5322 H 529.841 6.37983 1.13498 0
M  V30 5323 N 523.247 -0.488276 1.49845 0
M  V30 5324 C 524.177 -1.59675 1.70371 0
M  V30 5325 C 525.158 -1.60878 0.552473 0
M  V30 5326 O 526.343 -1.77417 0.78973 0
M  V30 5327 C 523.473 -2.98098 1.782 0
M  V30 5328 C 522.427 -3.11761 2.93239 0
M  V30 5329 C 521.753 -4.51661 2.86193 0
M  V30 5330 C 523.053 -2.90589 4.33999 0
M  V30 5331 H 524.747 -1.42752 2.63177 0
M  V30 5332 H 522.293 -0.685317 1.26647 0
M  V30 5333 H 524.246 -3.75555 1.91144 0
M  V30 5334 H 522.97 -3.16138 0.820018 0
M  V30 5335 H 521.629 -2.36732 2.79917 0
M  V30 5336 H 521.277 -4.66595 1.87877 0
M  V30 5337 H 520.977 -4.61742 3.63412 0
M  V30 5338 H 522.501 -5.31162 3.01163 0
M  V30 5339 H 523.915 -3.57807 4.47936 0
M  V30 5340 H 522.312 -3.1213 5.12538 0
M  V30 5341 H 523.382 -1.86595 4.4756 0
M  V30 5342 N 524.725 -1.39134 -0.740242 0
M  V30 5343 C 525.95 -1.39518 -1.53459 0
M  V30 5344 C 526.375 0.00968883 -1.88098 0
M  V30 5345 O 525.733 0.995312 -1.51536 0
M  V30 5346 C 525.781 -2.26981 -2.802 0
M  V30 5347 O 524.885 -1.69609 -3.75908 0
M  V30 5348 H 524.226 -0.475328 -0.463637 0
M  V30 5349 H 526.756 -1.83064 -0.913717 0
M  V30 5350 H 526.766 -2.41309 -3.28989 0
M  V30 5351 H 525.441 -3.29081 -2.5432 0
M  V30 5352 H 524.018 -1.64495 -3.34658 0
M  V30 5353 N 526.204 0.969867 -1.24223 0
M  V30 5354 C 527.134 2.08191 -1.05729 0
M  V30 5355 C 528.115 1.70075 0.0290765 0
M  V30 5356 O 529.3 1.93712 -0.137583 0
M  V30 5357 C 526.43 3.40991 -0.658995 0
M  V30 5358 C 525.384 3.93054 -1.69389 0
M  V30 5359 C 524.71 5.22171 -1.15072 0
M  V30 5360 C 526.01 4.21137 -3.08935 0
M  V30 5361 H 527.704 2.23921 -1.98746 0
M  V30 5362 H 525.25 1.07602 -0.956967 0
M  V30 5363 H 527.203 4.18221 -0.51662 0
M  V30 5364 H 525.927 3.25155 0.30686 0
M  V30 5365 H 524.586 3.17977 -1.82444 0
M  V30 5366 H 524.234 5.02694 -0.175539 0
M  V30 5367 H 523.934 5.57973 -1.84229 0
M  V30 5368 H 525.458 6.02013 -1.02042 0
M  V30 5369 H 526.872 4.8908 -2.99121 0
M  V30 5370 H 525.269 4.68163 -3.75425 0
M  V30 5371 H 526.339 3.27996 -3.57137 0
M  V30 5372 N 527.682 1.05563 1.17022 0
M  V30 5373 C 528.592 0.670758 2.24807 0
M  V30 5374 C 529.608 -0.309865 1.71219 0
M  V30 5375 O 530.784 -0.161025 2.00755 0
M  V30 5376 C 527.849 0.055337 3.46656 0
M  V30 5377 C 526.91 1.08688 4.15314 0
M  V30 5378 C 526.143 0.500736 5.31346 0
M  V30 5379 O 526.366 -0.688718 5.66227 0
M  V30 5380 O 525.3 1.23683 5.89055 0
M  V30 5381 H 529.126 1.56914 2.60023 0
M  V30 5382 H 526.711 0.827428 1.24395 0
M  V30 5383 H 528.593 -0.286492 4.20425 0
M  V30 5384 H 527.268 -0.816638 3.13229 0
M  V30 5385 H 526.175 1.48077 3.43546 0
M  V30 5386 H 527.508 1.93014 4.52777 0
M  V30 5387 N 529.16 -1.33526 0.837174 0
M  V30 5388 C 530.576 -1.50727 0.524743 0
M  V30 5389 C 530.776 -1.77792 -0.948279 0
M  V30 5390 O 529.832 -1.83719 -1.73216 0
M  V30 5391 C 531.145 -2.66299 1.39661 0
M  V30 5392 C 532.693 -2.80183 1.39521 0
M  V30 5393 C 533.168 -3.98815 2.25189 0
M  V30 5394 N 534.659 -4.06047 2.2289 0
M  V30 5395 C 535.394 -4.97032 2.85915 0
M  V30 5396 N 534.89 -5.93143 3.57985 0
M  V30 5397 N 536.683 -4.90015 2.75394 0
M  V30 5398 H 528.834 -1.1422 1.79074 0
M  V30 5399 H 531.097 -0.561399 0.763894 0
M  V30 5400 H 530.803 -2.52974 2.4433 0
M  V30 5401 H 530.677 -3.61663 1.07145 0
M  V30 5402 H 533.064 -2.92942 0.356253 0
M  V30 5403 H 533.145 -1.85586 1.76044 0
M  V30 5404 H 532.789 -3.86817 3.29143 0
M  V30 5405 H 532.719 -4.92654 1.86009 0
M  V30 5406 H 535.21 -3.37262 1.70478 0
M  V30 5407 H 535.523 -6.59227 4.03286 0
M  V30 5408 H 533.868 -5.93223 3.62093 0
M  V30 5409 H 537.059 -4.13894 2.18654 0
M  V30 5410 H 537.232 -5.60724 3.24796 0
M  V30 5411 N 530.638 -0.59345 -1.46 0
M  V30 5412 C 531.568 0.121192 -2.33185 0
M  V30 5413 C 532.549 0.872977 -1.4599 0
M  V30 5414 O 533.734 0.846321 -1.74789 0
M  V30 5415 C 530.864 1.12844 -3.28456 0
M  V30 5416 C 529.818 0.4908 -4.25177 0
M  V30 5417 C 529.144 1.60529 -5.10034 0
M  V30 5418 C 530.444 -0.578949 -5.19081 0
M  V30 5419 H 532.138 -0.606767 -2.93187 0
M  V30 5420 H 529.684 -0.293242 -1.40983 0
M  V30 5421 H 531.637 1.63684 -3.88311 0
M  V30 5422 H 530.361 1.88681 -2.66584 0
M  V30 5423 H 529.02 0.00339328 -3.666 0
M  V30 5424 H 528.668 2.35359 -4.44539 0
M  V30 5425 H 528.368 1.18422 -5.75543 0
M  V30 5426 H 529.892 2.11623 -5.72755 0
M  V30 5427 H 531.306 -0.155199 -5.7309 0
M  V30 5428 H 529.703 -0.920947 -5.92991 0
M  V30 5429 H 530.773 -1.46109 -4.62364 0
M  V30 5430 N 532.116 1.54067 -0.331816 0
M  V30 5431 C 533.362 2.01012 0.268667 0
M  V30 5432 C 533.695 1.2195 1.51136 0
M  V30 5433 O 532.97 0.303972 1.9211 0
M  V30 5434 C 533.253 3.55158 0.59456 0
M  V30 5435 C 533.106 4.4494 -0.659409 0
M  V30 5436 C 534.425 4.16939 1.4089 0
M  V30 5437 H 531.544 0.730698 0.0961756 0
M  V30 5438 H 534.186 1.84593 -0.450031 0
M  V30 5439 H 532.336 3.6928 1.20685 0
M  V30 5440 H 534.008 4.42675 -1.29756 0
M  V30 5441 H 532.251 4.1428 -1.28665 0
M  V30 5442 H 532.922 5.50643 -0.386804 0
M  V30 5443 H 535.398 4.06443 0.891272 0
M  V30 5444 H 534.274 5.24889 1.60569 0
M  V30 5445 H 534.535 3.70798 2.40752 0
M  V30 5446 N 533.594 0.0601682 1.57485 0
M  V30 5447 C 534.504 -0.926121 2.15546 0
M  V30 5448 C 535.52 -1.33532 1.11558 0
M  V30 5449 O 536.696 -1.4104 1.4377 0
M  V30 5450 C 533.761 -2.17952 2.69625 0
M  V30 5451 C 532.822 -1.82783 3.88444 0
M  V30 5452 C 532.055 -3.02148 4.39935 0
M  V30 5453 O 532.278 -4.15803 3.90466 0
M  V30 5454 O 531.212 -2.82639 5.31412 0
M  V30 5455 H 535.038 -0.462289 3.00161 0
M  V30 5456 H 532.623 -0.162246 1.48516 0
M  V30 5457 H 534.505 -2.91474 3.04337 0
M  V30 5458 H 533.18 -2.63456 1.88077 0
M  V30 5459 H 532.087 -1.06549 3.58606 0
M  V30 5460 H 533.42 -1.42072 4.7125 0
M  V30 5461 N 535.072 -1.5615 -0.213296 0
M  V30 5462 C 536.318 -1.79812 -0.937849 0
M  V30 5463 C 536.651 -0.631201 -1.83656 0
M  V30 5464 O 535.926 0.369165 -1.90964 0
M  V30 5465 C 536.209 -3.13613 -1.76972 0
M  V30 5466 C 536.062 -4.40766 -0.89695 0
M  V30 5467 C 537.381 -3.43931 -2.7459 0
M  V30 5468 H 534.5 -0.654138 -0.339518 0
M  V30 5469 H 537.142 -1.88877 -0.20623 0
M  V30 5470 H 535.292 -3.06015 -2.39347 0
M  V30 5471 H 536.964 -4.60392 -0.289306 0
M  V30 5472 H 535.207 -4.33326 -0.202756 0
M  V30 5473 H 535.878 -5.30843 -1.51358 0
M  V30 5474 H 538.354 -3.5171 -2.22349 0
M  V30 5475 H 537.23 -4.38706 -3.29891 0
M  V30 5476 H 537.491 -2.6651 -3.52739 0
M  V30 5477 N 536.55 0.480323 -1.50102 0
M  V30 5478 C 537.483 1.59789 -1.62919 0
M  V30 5479 C 538.461 1.55429 -0.477557 0
M  V30 5480 O 539.645 1.75186 -0.695851 0
M  V30 5481 C 536.772 2.98351 -1.60325 0
M  V30 5482 C 535.818 3.20899 -2.80938 0
M  V30 5483 S 536.651 3.01791 -4.4236 0
M  V30 5484 C 537.807 4.42712 -4.42444 0
M  V30 5485 H 538.04 1.48676 -2.57454 0
M  V30 5486 H 535.573 0.666996 -1.3925 0
M  V30 5487 H 537.531 3.7824 -1.59514 0
M  V30 5488 H 536.192 3.06862 -0.670419 0
M  V30 5489 H 535.385 4.22102 -2.75401 0
M  V30 5490 H 534.987 2.48768 -2.79268 0
M  V30 5491 H 537.279 5.3518 -4.15438 0
M  V30 5492 H 538.222 4.53294 -5.43995 0
M  V30 5493 H 538.63 4.24359 -3.72263 0
M  V30 5494 N 538.028 1.39524 0.732853 0
M  V30 5495 C 539.268 1.383 1.50508 0
M  V30 5496 C 539.632 -0.0208271 1.91989 0
M  V30 5497 O 540.833 -0.158091 2.68335 0
M  V30 5498 C 539.104 2.33007 2.71003 0
M  V30 5499 S 540.663 2.49989 3.60626 0
M  V30 5500 H 537.481 0.490417 0.514794 0
M  V30 5501 H 540.083 1.75641 0.858524 0
M  V30 5502 H 538.787 3.33862 2.38672 0
M  V30 5503 H 538.318 1.96889 3.40585 0
M  V30 5504 H 540.333 1.7394 4.64714 0
M  V30 5505 N 539.506 -0.963266 1.24736 0
M  V30 5506 C 540.416 -2.09246 1.06082 0
M  V30 5507 C 541.432 -1.74 0.000363101 0
M  V30 5508 O 542.608 -2.0041 0.199479 0
M  V30 5509 C 539.673 -3.40115 0.672498 0
M  V30 5510 C 538.734 -3.89282 1.80993 0
M  V30 5511 C 537.967 -5.13905 1.44004 0
M  V30 5512 O 538.19 -5.69434 0.331835 0
M  V30 5513 O 537.124 -5.57566 2.26723 0
M  V30 5514 H 540.95 -2.27881 2.00759 0
M  V30 5515 H 538.535 -1.07649 1.03595 0
M  V30 5516 H 540.417 -4.18797 0.467668 0
M  V30 5517 H 539.092 -3.22771 -0.245102 0
M  V30 5518 H 537.999 -3.11642 2.06955 0
M  V30 5519 H 539.332 -4.1111 2.70646 0
M  V30 5520 N 540.985 -1.06182 -1.16461 0
M  V30 5521 C 541.932 -0.671613 -2.20812 0
M  V30 5522 C 542.902 0.331186 -1.62765 0
M  V30 5523 O 544.087 0.22033 -1.89524 0
M  V30 5524 C 541.227 -0.063029 -3.45042 0
M  V30 5525 C 540.34 -1.11587 -4.1734 0
M  V30 5526 C 539.475 -0.473546 -5.29085 0
M  V30 5527 C 538.514 -1.51 -5.93182 0
M  V30 5528 N 537.651 -0.891118 -6.96422 0
M  V30 5529 H 542.491 -1.56589 -2.53542 0
M  V30 5530 H 540.028 -0.782951 -1.24532 0
M  V30 5531 H 541.986 0.307344 -4.16066 0
M  V30 5532 H 540.616 0.794663 -3.12866 0
M  V30 5533 H 539.668 -1.60396 -3.44931 0
M  V30 5534 H 540.98 -1.90221 -4.61104 0
M  V30 5535 H 540.134 -0.0501432 -6.06679 0
M  V30 5536 H 538.873 0.344687 -4.8648 0
M  V30 5537 H 537.878 -1.94331 -5.14311 0
M  V30 5538 H 539.103 -2.33031 -6.37866 0
M  V30 5539 H 537.049 -0.0935753 -6.55933 0
M  V30 5540 H 536.966 -1.61486 -7.38551 0
M  V30 5541 H 538.234 -0.492822 -7.77941 0
M  V30 5542 N 542.463 1.3308 -0.844243 0
M  V30 5543 C 543.874 1.7992 -0.498566 0
M  V30 5544 C 544.225 1.69808 0.982834 0
M  V30 5545 O 543.35 1.25051 1.7661 0
M  V30 5546 C 543.945 3.26677 -0.898204 0
M  V30 5547 C 542.504 3.71513 -0.604583 0
M  V30 5548 C 541.651 2.54393 -1.10362 0
M  V30 5549 H 544.602 1.20526 -1.03244 0
M  V30 5550 H 544.623 3.79918 -0.21039 0
M  V30 5551 H 544.135 3.34004 -1.97643 0
M  V30 5552 H 542.236 3.69708 0.46335 0
M  V30 5553 H 542.349 4.64755 -1.16358 0
M  V30 5554 H 540.713 2.49246 -0.524273 0
M  V30 5555 H 541.496 2.6448 -2.18873 0
M  V30 5556 N 543.941 0.601185 1.45683 0
M  V30 5557 C 544.904 -0.111398 2.28929 0
M  V30 5558 C 545.904 -0.801246 1.39416 0
M  V30 5559 O 547.094 -0.650383 1.61603 0
M  V30 5560 C 544.226 -1.16773 3.20276 0
M  V30 5561 H 545.419 0.620412 2.93413 0
M  V30 5562 H 542.972 0.359946 1.52099 0
M  V30 5563 H 543.707 -1.93051 2.60579 0
M  V30 5564 H 543.492 -0.677358 3.86205 0
M  V30 5565 H 544.982 -1.66698 3.82886 0
M  V30 5566 N 545.419 -1.53889 0.339982 0
M  V30 5567 C 546.366 -2.24902 -0.518452 0
M  V30 5568 C 547.336 -1.24593 -1.09844 0
M  V30 5569 O 548.521 -1.53317 -1.13572 0
M  V30 5570 C 545.661 -3.02262 -1.66529 0
M  V30 5571 C 544.774 -4.17418 -1.11295 0
M  V30 5572 C 543.909 -4.82273 -2.2268 0
M  V30 5573 C 542.948 -5.89503 -1.6478 0
M  V30 5574 N 542.085 -6.48153 -2.69893 0
M  V30 5575 H 546.925 -2.97853 0.0936579 0
M  V30 5576 H 544.462 -1.46986 0.0579924 0
M  V30 5577 H 546.42 -3.45371 -2.3404 0
M  V30 5578 H 545.05 -2.31614 -2.24844 0
M  V30 5579 H 544.102 -3.78976 -0.328886 0
M  V30 5580 H 545.414 -4.94554 -0.649414 0
M  V30 5581 H 544.568 -5.28435 -2.98063 0
M  V30 5582 H 543.307 -4.04552 -2.72376 0
M  V30 5583 H 542.312 -5.42728 -0.879004 0
M  V30 5584 H 543.537 -6.6913 -1.1594 0
M  V30 5585 H 541.483 -5.73298 -3.1885 0
M  V30 5586 H 541.4 -7.20752 -2.28151 0
M  V30 5587 H 542.668 -6.98968 -3.45056 0
M  V30 5588 N 546.897 -0.0685191 -1.57451 0
M  V30 5589 C 547.827 0.89747 -2.15564 0
M  V30 5590 C 548.808 1.31266 -1.08181 0
M  V30 5591 O 549.993 1.38429 -1.36202 0
M  V30 5592 C 547.123 2.16623 -2.71463 0
M  V30 5593 C 546.077 1.89054 -3.83982 0
M  V30 5594 C 545.403 3.22532 -4.26471 0
M  V30 5595 C 546.703 1.1984 -5.08366 0
M  V30 5596 H 548.397 0.413373 -2.96533 0
M  V30 5597 H 545.943 0.197391 -1.42641 0
M  V30 5598 H 547.896 2.84614 -3.10761 0
M  V30 5599 H 546.62 2.67269 -1.8771 0
M  V30 5600 H 545.279 1.23469 -3.45183 0
M  V30 5601 H 544.927 3.71013 -3.39644 0
M  V30 5602 H 544.627 3.04879 -5.02317 0
M  V30 5603 H 546.151 3.91727 -4.68383 0
M  V30 5604 H 547.565 1.77896 -5.45001 0
M  V30 5605 H 545.962 1.12456 -5.89469 0
M  V30 5606 H 547.032 0.176996 -4.84577 0
M  V30 5607 N 548.375 1.56261 0.205012 0
M  V30 5608 C 549.622 1.8004 0.926927 0
M  V30 5609 C 549.95 0.640086 1.83666 0
M  V30 5610 O 549.205 -0.374702 1.92079 0
M  V30 5611 C 549.504 3.09722 1.78345 0
M  V30 5612 C 549.17 4.39082 1.02555 0
M  V30 5613 C 547.832 4.74226 0.816256 0
M  V30 5614 C 550.184 5.18877 0.491559 0
M  V30 5615 C 547.512 5.86668 0.0613287 0
M  V30 5616 C 549.864 6.32105 -0.250107 0
M  V30 5617 C 548.528 6.6584 -0.470508 0
M  V30 5618 H 547.798 0.658812 0.339187 0
M  V30 5619 H 550.445 1.90515 0.19395 0
M  V30 5620 H 548.75 2.9444 2.5848 0
M  V30 5621 H 550.447 3.25324 2.34446 0
M  V30 5622 H 547.037 4.11497 1.19868 0
M  V30 5623 H 551.221 4.92147 0.640684 0
M  V30 5624 H 546.477 6.11283 -0.119501 0
M  V30 5625 H 550.651 6.93157 -0.671307 0
M  V30 5626 H 548.278 7.5281 -1.05739 0
M  V30 5627 N 549.853 -0.472356 1.50355 0
M  V30 5628 C 551.101 -1.22211 1.60962 0
M  V30 5629 C 551.422 -1.92497 0.311439 0
M  V30 5630 O 550.692 -1.8405 -0.671002 0
M  V30 5631 H 549.272 -0.454092 0.593135 0
M  V30 5632 H 551.934 -0.544977 1.87126 0
M  V30 5633 H 551.03 -1.9707 2.42012 0
M  V30 5634 N 551.331 -1.39911 -0.725443 0
M  V30 5635 C 552.58 -1.36963 -1.48068 0
M  V30 5636 C 552.893 0.0284478 -1.95579 0
M  V30 5637 O 554.099 0.180535 -2.70899 0
M  V30 5638 C 552.555 -2.40664 -2.67598 0
M  V30 5639 C 552.163 -3.86234 -2.26997 0
M  V30 5640 C 553.907 -2.46807 -3.45379 0
M  V30 5641 C 551.814 -4.81554 -3.43307 0
M  V30 5642 H 550.744 -0.509223 -0.556065 0
M  V30 5643 H 553.395 -1.65602 -0.790454 0
M  V30 5644 H 551.777 -2.05109 -3.38742 0
M  V30 5645 H 552.951 -4.3088 -1.63337 0
M  V30 5646 H 551.266 -3.83475 -1.62284 0
M  V30 5647 H 553.863 -3.15213 -4.31909 0
M  V30 5648 H 554.206 -1.49552 -3.8851 0
M  V30 5649 H 554.739 -2.81303 -2.81271 0
M  V30 5650 H 551.478 -5.80106 -3.05217 0
M  V30 5651 H 550.998 -4.4158 -4.05915 0
M  V30 5652 H 552.677 -5.0091 -4.0951 0
M  V30 5653 N 552.809 0.956637 -1.25245 0
M  V30 5654 C 554.039 1.7332 -1.12445 0
M  V30 5655 C 554.447 1.86392 0.324732 0
M  V30 5656 O 553.79 1.35967 1.23526 0
M  V30 5657 C 553.852 3.16603 -1.70303 0
M  V30 5658 C 553.516 3.26966 -3.19284 0
M  V30 5659 C 554.513 3.11434 -4.16299 0
M  V30 5660 C 552.198 3.50851 -3.59456 0
M  V30 5661 C 554.192 3.1963 -5.51467 0
M  V30 5662 C 551.879 3.58684 -4.94761 0
M  V30 5663 C 552.877 3.43087 -5.90576 0
M  V30 5664 O 552.565 3.50598 -7.2342 0
M  V30 5665 H 552.297 0.549981 -0.393061 0
M  V30 5666 H 554.851 1.20892 -1.66055 0
M  V30 5667 H 553.081 3.70385 -1.11138 0
M  V30 5668 H 554.77 3.76109 -1.52632 0
M  V30 5669 H 555.536 2.92853 -3.86604 0
M  V30 5670 H 551.415 3.62053 -2.85375 0
M  V30 5671 H 554.959 3.07373 -6.26233 0
M  V30 5672 H 550.856 3.76782 -5.24124 0
M  V30 5673 H 551.624 3.67242 -7.31489 0
M  V30 5674 N 554.287 1.06798 1.15896 0
M  V30 5675 C 555.698 0.811355 1.68149 0
M  V30 5676 C 556.049 -0.664339 1.8461 0
M  V30 5677 O 555.174 -1.51485 1.54535 0
M  V30 5678 C 555.769 1.46624 3.05429 0
M  V30 5679 C 554.328 1.25726 3.54781 0
M  V30 5680 C 553.475 1.53949 2.3064 0
M  V30 5681 H 556.426 1.23078 1.00187 0
M  V30 5682 H 556.447 0.88437 3.7008 0
M  V30 5683 H 555.959 2.54025 2.93416 0
M  V30 5684 H 554.06 0.20322 3.72045 0
M  V30 5685 H 554.173 1.97354 4.36564 0
M  V30 5686 H 552.537 0.96025 2.35905 0
M  V30 5687 H 553.32 2.6252 2.2122 0
M  V30 5688 N 555.766 -1.3263 0.851289 0
M  V30 5689 C 556.698 -2.27824 0.250757 0
M  V30 5690 C 557.711 -1.52285 -0.575598 0
M  V30 5691 O 558.9 -1.73946 -0.400638 0
M  V30 5692 C 556 -3.3232 -0.664571 0
M  V30 5693 C 555.173 -4.37221 0.125187 0
M  V30 5694 C 554.232 -5.21314 -0.715385 0
M  V30 5695 O 553.258 -5.69002 -0.150111 0
M  V30 5696 N 554.46 -5.43823 -2.03069 0
M  V30 5697 H 557.225 -2.79997 1.06873 0
M  V30 5698 H 554.786 -1.45455 0.710943 0
M  V30 5699 H 556.778 -3.85486 -1.23216 0
M  V30 5700 H 555.348 -2.80331 -1.38323 0
M  V30 5701 H 554.568 -3.84384 0.874199 0
M  V30 5702 H 555.856 -5.04399 0.667774 0
M  V30 5703 H 555.254 -5.06803 -2.51332 0
M  V30 5704 H 553.811 -5.99998 -2.54648 0
M  V30 5705 N 557.244 -0.608902 -1.45362 0
M  V30 5706 C 558.191 0.109172 -2.30542 0
M  V30 5707 C 559.161 0.858704 -1.42181 0
M  V30 5708 O 560.346 0.844178 -1.71109 0
M  V30 5709 C 557.486 1.09971 -3.27109 0
M  V30 5710 C 556.599 0.350911 -4.30572 0
M  V30 5711 C 555.734 1.33129 -5.14247 0
M  V30 5712 C 554.773 0.570377 -6.09437 0
M  V30 5713 N 553.91 1.5001 -6.85887 0
M  V30 5714 H 558.75 -0.623195 -2.91411 0
M  V30 5715 H 556.287 -0.319122 -1.43597 0
M  V30 5716 H 558.245 1.68714 -3.81564 0
M  V30 5717 H 556.875 1.79947 -2.67991 0
M  V30 5718 H 555.927 -0.352054 -3.78767 0
M  V30 5719 H 557.239 -0.242725 -4.98209 0
M  V30 5720 H 556.393 1.99074 -5.73109 0
M  V30 5721 H 555.132 1.95885 -4.46632 0
M  V30 5722 H 554.137 -0.102702 -5.49704 0
M  V30 5723 H 555.362 -0.0521607 -6.7908 0
M  V30 5724 H 553.308 2.11529 -6.2096 0
M  V30 5725 H 553.225 0.959934 -7.49881 0
M  V30 5726 H 554.493 2.14909 -7.49289 0
M  V30 5727 N 558.722 1.53707 -0.348139 0
M  V30 5728 C 559.97 2.00591 0.246478 0
M  V30 5729 C 560.291 1.23753 1.50699 0
M  V30 5730 O 559.561 0.345964 1.92821 0
M  V30 5731 H 558.141 0.741053 0.0940679 0
M  V30 5732 H 560.803 1.89139 -0.470354 0
M  V30 5733 H 559.899 3.08297 0.485714 0
M  V30 5734 N 560.2 0.0768682 1.57412 0
M  V30 5735 C 561.428 -0.59997 1.9801 0
M  V30 5736 C 561.843 -1.62842 0.955408 0
M  V30 5737 O 561.2 -1.8241 -0.057314 0
M  V30 5738 C 561.251 -1.26401 3.38681 0
M  V30 5739 O 560.972 -0.276723 4.37225 0
M  V30 5740 C 562.473 -2.0282 3.94182 0
M  V30 5741 H 559.693 -0.162239 0.651091 0
M  V30 5742 H 562.237 0.150771 2.03943 0
M  V30 5743 H 560.392 -1.96581 3.33819 0
M  V30 5744 H 560.806 -0.753744 5.19056 0
M  V30 5745 H 562.28 -2.44667 4.94815 0
M  V30 5746 H 562.757 -2.88678 3.31001 0
M  V30 5747 H 563.363 -1.37496 4.02461 0
M  V30 5748 N 561.678 -1.56367 -0.196722 0
M  V30 5749 C 562.608 -1.97442 -1.24655 0
M  V30 5750 C 563.589 -0.846147 -1.47561 0
M  V30 5751 O 564.774 -1.11035 -1.59326 0
M  V30 5752 C 561.904 -2.31253 -2.59112 0
M  V30 5753 C 560.858 -3.46804 -2.50821 0
M  V30 5754 C 560.184 -3.66286 -3.89536 0
M  V30 5755 C 561.484 -4.8104 -2.03465 0
M  V30 5756 H 563.178 -2.85388 -0.905216 0
M  V30 5757 H 560.724 -1.37304 -0.434002 0
M  V30 5758 H 562.677 -2.58583 -3.32736 0
M  V30 5759 H 561.401 -1.40188 -2.94983 0
M  V30 5760 H 560.06 -3.19563 -1.79653 0
M  V30 5761 H 559.708 -2.72555 -4.22756 0
M  V30 5762 H 559.408 -4.4402 -3.84864 0
M  V30 5763 H 560.932 -3.9599 -4.64784 0
M  V30 5764 H 562.346 -5.07411 -2.66846 0
M  V30 5765 H 560.743 -5.62232 -2.09798 0
M  V30 5766 H 561.813 -4.74732 -0.98781 0
M  V30 5767 N 563.156 0.464375 -1.50603 0
M  V30 5768 C 564.088 1.57916 -1.66118 0
M  V30 5769 C 565.101 1.53497 -0.54246 0
M  V30 5770 O 566.29 1.58763 -0.815877 0
M  V30 5771 C 563.39 2.96809 -1.63577 0
M  V30 5772 C 562.563 3.26026 -2.91592 0
M  V30 5773 C 561.622 4.44506 -2.81604 0
M  V30 5774 O 560.648 4.44484 -3.55559 0
M  V30 5775 N 561.85 5.46549 -1.95614 0
M  V30 5776 H 564.615 1.45022 -2.62276 0
M  V30 5777 H 562.176 0.652903 -1.48151 0
M  V30 5778 H 564.168 3.74048 -1.54499 0
M  V30 5779 H 562.738 3.03438 -0.751262 0
M  V30 5780 H 561.958 2.37337 -3.14746 0
M  V30 5781 H 563.246 3.42361 -3.76386 0
M  V30 5782 H 562.644 5.49391 -1.34854 0
M  V30 5783 H 561.201 6.22746 -1.92435 0
M  V30 5784 N 564.634 1.40294 0.718013 0
M  V30 5785 C 565.88 1.38645 1.48005 0
M  V30 5786 C 566.213 -0.0121202 1.94196 0
M  V30 5787 O 565.488 -0.980309 1.67989 0
M  V30 5788 C 565.771 2.37379 2.70782 0
M  V30 5789 C 565.624 3.8625 2.30501 0
M  V30 5790 C 566.943 2.33685 3.72933 0
M  V30 5791 H 564.062 0.504928 0.536858 0
M  V30 5792 H 566.704 1.71411 0.819649 0
M  V30 5793 H 564.854 2.09568 3.27129 0
M  V30 5794 H 566.526 4.24879 1.79655 0
M  V30 5795 H 564.769 4.02202 1.6253 0
M  V30 5796 H 565.44 4.50847 3.18498 0
M  V30 5797 H 567.916 2.58314 3.2621 0
M  V30 5798 H 566.792 3.0482 4.56482 0
M  V30 5799 H 567.053 1.34765 4.21059 0
M  V30 5800 N 566.112 -0.949982 1.2575 0
M  V30 5801 C 567.36 -1.6918 1.10555 0
M  V30 5802 C 567.681 -1.91773 -0.353298 0
M  V30 5803 O 566.951 -1.50814 -1.25027 0
M  V30 5804 H 565.531 -0.626952 0.406129 0
M  V30 5805 H 568.193 -1.1419 1.57945 0
M  V30 5806 H 567.289 -2.66915 1.61749 0
M  V30 5807 N 567.59 -1.07411 -1.15328 0
M  V30 5808 C 568.815 -0.818856 -1.90551 0
M  V30 5809 C 569.24 0.622194 -1.77512 0
M  V30 5810 O 568.598 1.43484 -1.10824 0
M  V30 5811 C 568.646 -1.23267 -3.38877 0
M  V30 5812 O 567.75 -0.378345 -4.10661 0
M  V30 5813 H 567.091 -0.29827 -0.593238 0
M  V30 5814 H 569.621 -1.43289 -1.46046 0
M  V30 5815 H 569.631 -1.20912 -3.89672 0
M  V30 5816 H 568.306 -2.28226 -3.47686 0
M  V30 5817 H 566.883 -0.464437 -3.69996 0
M  V30 5818 N 569.068 1.32177 -0.85831 0
M  V30 5819 C 570.345 1.91781 -0.384624 0
M  V30 5820 C 570.725 1.78171 1.13217 0
M  V30 5821 O 570.073 1.18209 1.95548 0
M  V30 5822 C 570.283 3.38414 -0.853047 0
M  V30 5823 C 571.631 4.15542 -0.872359 0
M  V30 5824 O 572.655 3.47148 -0.797926 0
M  V30 5825 O 571.514 5.37678 -0.978009 0
M  V30 5826 H 568.608 0.819259 -0.112886 0
M  V30 5827 H 571.154 1.40923 -0.945453 0
M  V30 5828 H 569.926 3.4228 -1.89632 0
M  V30 5829 H 569.549 3.96683 -0.269874 0
M  V30 5830 N 570.547 0.616602 1.45037 0
M  V30 5831 C 571.51 -0.0871112 2.29034 0
M  V30 5832 C 572.51 -0.786414 1.40258 0
M  V30 5833 O 573.7 -0.633207 1.62284 0
M  V30 5834 C 570.832 -1.13369 3.21497 0
M  V30 5835 H 572.025 0.651497 2.92738 0
M  V30 5836 H 569.578 0.376058 1.51709 0
M  V30 5837 H 570.313 -1.90277 2.62612 0
M  V30 5838 H 570.098 -0.636358 3.86902 0
M  V30 5839 H 571.588 -1.62627 3.84633 0
M  V30 5840 N 572.025 -1.5352 0.356285 0
M  V30 5841 C 573.302 -1.93405 -0.292223 0
M  V30 5842 C 573.682 -1.28901 -1.67176 0
M  V30 5843 O 573.03 -0.444632 -2.24132 0
M  V30 5844 C 573.24 -3.47223 -0.35175 0
M  V30 5845 C 574.588 -4.20389 -0.596534 0
M  V30 5846 O 575.612 -3.53554 -0.433344 0
M  V30 5847 O 574.471 -5.3881 -0.913589 0
M  V30 5848 H 571.565 -0.808666 -0.173172 0
M  V30 5849 H 574.111 -1.64713 0.408391 0
M  V30 5850 H 572.883 -3.86423 0.615841 0
M  V30 5851 H 572.506 -3.8212 -1.09864 0
M  V30 5852 N 573.503 -0.0852151 -1.57369 0
M  V30 5853 C 574.433 0.874556 -2.16503 0
M  V30 5854 C 575.414 1.30111 -1.09568 0
M  V30 5855 O 576.599 1.36977 -1.37662 0
M  V30 5856 C 573.729 2.13731 -2.73745 0
M  V30 5857 C 572.683 1.84971 -3.85966 0
M  V30 5858 C 572.009 3.17991 -4.29867 0
M  V30 5859 C 573.309 1.14442 -5.09608 0
M  V30 5860 H 575.003 0.381899 -2.96954 0
M  V30 5861 H 572.549 0.18225 -1.42842 0
M  V30 5862 H 574.502 2.81302 -3.13763 0
M  V30 5863 H 573.226 2.65263 -1.90534 0
M  V30 5864 H 571.885 1.19801 -3.46473 0
M  V30 5865 H 571.533 3.6739 -3.4356 0
M  V30 5866 H 571.233 2.99534 -5.05523 0
M  V30 5867 H 572.757 3.86737 -4.72511 0
M  V30 5868 H 574.171 1.72105 -5.46857 0
M  V30 5869 H 572.568 1.06197 -5.90629 0
M  V30 5870 H 573.638 0.12559 -4.84737 0
M  V30 5871 N 574.981 1.5647 0.188427 0
M  V30 5872 C 575.911 1.98101 1.23606 0
M  V30 5873 C 576.892 0.853961 1.47111 0
M  V30 5874 O 578.077 1.11879 1.58735 0
M  V30 5875 C 575.207 2.32624 2.57882 0
M  V30 5876 C 574.161 3.48129 2.48978 0
M  V30 5877 C 573.487 3.68347 3.87588 0
M  V30 5878 C 574.787 4.82112 2.00911 0
M  V30 5879 H 576.481 2.85864 0.890068 0
M  V30 5880 H 574.027 1.37532 0.426714 0
M  V30 5881 H 575.98 2.60343 3.3136 0
M  V30 5882 H 574.704 1.41751 2.94235 0
M  V30 5883 H 573.363 3.20511 1.77956 0
M  V30 5884 H 573.011 2.74793 4.21305 0
M  V30 5885 H 572.711 4.46055 3.82503 0
M  V30 5886 H 574.235 3.98449 4.62678 0
M  V30 5887 H 575.649 5.08819 2.64151 0
M  V30 5888 H 574.046 5.63337 2.06814 0
M  V30 5889 H 575.116 4.75249 0.96262 0
M  V30 5890 N 576.459 -0.456382 1.50847 0
M  V30 5891 C 577.708 -1.2042 1.61808 0
M  V30 5892 C 578.021 -1.9278 0.330932 0
M  V30 5893 O 579.227 -2.69612 0.319643 0
M  V30 5894 C 577.683 -2.18891 2.85683 0
M  V30 5895 C 577.291 -1.52267 4.2133 0
M  V30 5896 C 579.035 -2.94224 3.05994 0
M  V30 5897 C 576.942 -2.4911 5.36375 0
M  V30 5898 H 575.872 -0.453177 0.602616 0
M  V30 5899 H 578.523 -0.473144 1.77295 0
M  V30 5900 H 576.905 -2.95351 2.63787 0
M  V30 5901 H 578.079 -0.814949 4.53536 0
M  V30 5902 H 576.394 -0.891594 4.06743 0
M  V30 5903 H 578.991 -3.66732 3.89117 0
M  V30 5904 H 579.334 -3.54469 2.18306 0
M  V30 5905 H 579.867 -2.24874 3.28141 0
M  V30 5906 H 576.606 -1.93582 6.26264 0
M  V30 5907 H 576.126 -3.17991 5.08569 0
M  V30 5908 H 577.805 -3.10637 5.67551 0
M  V30 5909 N 577.937 -1.40673 -0.710563 0
M  V30 5910 C 578.867 -1.44095 -1.83736 0
M  V30 5911 C 579.848 -0.301286 -1.67411 0
M  V30 5912 O 581.033 -0.510618 -1.87367 0
M  V30 5913 C 578.163 -1.30773 -3.21738 0
M  V30 5914 C 577.117 -2.42395 -3.52745 0
M  V30 5915 C 576.443 -2.14147 -4.89944 0
M  V30 5916 C 577.743 -3.84738 -3.53234 0
M  V30 5917 H 579.437 -2.38396 -1.81129 0
M  V30 5918 H 576.983 -1.14746 -0.870017 0
M  V30 5919 H 578.936 -1.31783 -4.00264 0
M  V30 5920 H 577.66 -0.329507 -3.24934 0
M  V30 5921 H 576.319 -2.40643 -2.76562 0
M  V30 5922 H 575.967 -1.14703 -4.89747 0
M  V30 5923 H 575.667 -2.88934 -5.11655 0
M  V30 5924 H 577.191 -2.16848 -5.70797 0
M  V30 5925 H 578.605 -3.88286 -4.2179 0
M  V30 5926 H 577.002 -4.59085 -3.86473 0
M  V30 5927 H 578.072 -4.13962 -2.52514 0
M  V30 5928 N 579.415 0.9433 -1.26252 0
M  V30 5929 C 580.692 1.66639 -1.02424 0
M  V30 5930 C 581.072 2.06335 0.446006 0
M  V30 5931 O 580.42 1.78551 1.42589 0
M  V30 5932 C 580.63 2.88019 -1.97094 0
M  V30 5933 C 581.978 3.59718 -2.25584 0
M  V30 5934 O 583.002 2.9812 -1.94943 0
M  V30 5935 O 581.861 4.7066 -2.77743 0
M  V30 5936 H 578.955 0.729643 -0.389294 0
M  V30 5937 H 581.501 0.995218 -1.37454 0
M  V30 5938 H 580.273 2.5556 -2.96319 0
M  V30 5939 H 579.896 3.62863 -1.62532 0
M  V30 5940 N 580.893 1.08022 1.14757 0
M  V30 5941 C 581.823 0.728248 2.21853 0
M  V30 5942 C 582.804 -0.287486 1.67653 0
M  V30 5943 O 583.989 -0.158727 1.9355 0
M  V30 5944 C 581.119 0.132549 3.47047 0
M  V30 5945 C 580.073 1.07619 4.14249 0
M  V30 5946 C 579.399 0.342907 5.33599 0
M  V30 5947 C 580.699 2.41268 4.63235 0
M  V30 5948 H 582.393 1.62365 2.51551 0
M  V30 5949 H 579.939 0.782125 1.20908 0
M  V30 5950 H 581.892 -0.125665 4.21213 0
M  V30 5951 H 580.616 -0.797971 3.16702 0
M  V30 5952 H 579.275 1.31944 3.42033 0
M  V30 5953 H 578.923 -0.59129 4.99513 0
M  V30 5954 H 578.623 0.971955 5.79506 0
M  V30 5955 H 580.147 0.0926538 6.1053 0
M  V30 5956 H 581.561 2.21232 5.28894 0
M  V30 5957 H 579.958 2.9983 5.19829 0
M  V30 5958 H 581.028 3.03079 3.78512 0
M  V30 5959 N 582.371 -1.3172 0.865308 0
M  V30 5960 C 583.648 -1.91574 0.394789 0
M  V30 5961 C 584.028 -1.78769 -1.12271 0
M  V30 5962 O 583.376 -1.19245 -1.94918 0
M  V30 5963 C 583.586 -3.37957 0.870982 0
M  V30 5964 C 584.934 -4.15073 0.894384 0
M  V30 5965 O 585.958 -3.4672 0.816325 0
M  V30 5966 O 584.817 -5.37151 1.00651 0
M  V30 5967 H 581.911 -0.818649 0.117229 0
M  V30 5968 H 584.457 -1.4042 0.952913 0
M  V30 5969 H 583.229 -3.41269 1.91444 0
M  V30 5970 H 582.852 -3.96534 0.290907 0
M  V30 5971 N 583.85 -0.624285 -1.44708 0
M  V30 5972 C 585.099 -0.123539 -2.01321 0
M  V30 5973 C 585.412 1.25966 -1.49639 0
M  V30 5974 O 586.618 1.85405 -1.98336 0
M  V30 5975 C 585.074 -0.170124 -3.59498 0
M  V30 5976 C 584.682 -1.55421 -4.20176 0
M  V30 5977 C 586.426 0.274513 -4.23611 0
M  V30 5978 C 584.332 -1.55628 -5.70556 0
M  V30 5979 H 583.263 -0.0424183 -0.752806 0
M  V30 5980 H 585.913 -0.782076 -1.65999 0
M  V30 5981 H 584.296 0.555385 -3.92086 0
M  V30 5982 H 585.47 -2.30276 -3.99136 0
M  V30 5983 H 583.784 -1.94235 -3.68323 0
M  V30 5984 H 586.382 0.292402 -5.339 0
M  V30 5985 H 586.725 1.3005 -3.95465 0
M  V30 5986 H 587.258 -0.398275 -3.95801 0
M  V30 5987 H 583.997 -2.56041 -6.03426 0
M  V30 5988 H 583.517 -0.850563 -5.93739 0
M  V30 5989 H 585.196 -1.28721 -6.34066 0
M  V30 5990 N 585.328 1.53329 -0.364422 0
M  V30 5991 C 586.605 1.93557 0.281962 0
M  V30 5992 C 586.985 1.29786 1.6649 0
M  V30 5993 O 586.333 0.456512 2.23893 0
M  V30 5994 C 586.543 3.47405 0.333331 0
M  V30 5995 C 587.891 4.20699 0.574231 0
M  V30 5996 O 588.915 3.53779 0.414588 0
M  V30 5997 O 587.774 5.39287 0.885002 0
M  V30 5998 H 584.868 0.809573 0.168881 0
M  V30 5999 H 587.414 1.64494 -0.417121 0
M  V30 6000 H 586.186 3.86091 -0.636326 0
M  V30 6001 H 585.809 3.82697 1.07836 0
M  V30 6002 N 586.806 0.0935595 1.57322 0
M  V30 6003 C 588.034 -0.578934 1.98635 0
M  V30 6004 C 588.449 -1.61819 0.972626 0
M  V30 6005 O 587.806 -1.82461 -0.0379638 0
M  V30 6006 C 587.857 -1.22802 3.40003 0
M  V30 6007 O 587.578 -0.230334 4.37494 0
M  V30 6008 C 589.079 -1.98627 3.96311 0
M  V30 6009 H 586.299 -0.155324 0.652775 0
M  V30 6010 H 588.843 0.172393 2.03772 0
M  V30 6011 H 586.998 -1.93029 3.35885 0
M  V30 6012 H 587.412 -0.698649 5.19826 0
M  V30 6013 H 588.886 -2.39405 4.97382 0
M  V30 6014 H 589.363 -2.85151 3.34044 0
M  V30 6015 H 589.969 -1.3322 4.03897 0
M  V30 6016 N 588.284 -1.56567 -0.180126 0
M  V30 6017 C 589.231 -1.95725 -1.22313 0
M  V30 6018 C 590.201 -0.819911 -1.44453 0
M  V30 6019 O 591.386 -1.07931 -1.57339 0
M  V30 6020 C 588.526 -2.31484 -2.55947 0
M  V30 6021 C 587.639 -3.58354 -2.4126 0
M  V30 6022 C 586.774 -3.83366 -3.67701 0
M  V30 6023 C 585.813 -5.03612 -3.47909 0
M  V30 6024 N 584.95 -5.24802 -4.66398 0
M  V30 6025 H 589.79 -2.84642 -0.882198 0
M  V30 6026 H 587.327 -1.4085 -0.42422 0
M  V30 6027 H 589.285 -2.50237 -3.33822 0
M  V30 6028 H 587.915 -1.45689 -2.88053 0
M  V30 6029 H 586.967 -3.47565 -1.54606 0
M  V30 6030 H 588.279 -4.46386 -2.22577 0
M  V30 6031 H 587.433 -4.02439 -4.54013 0
M  V30 6032 H 586.172 -2.93692 -3.89353 0
M  V30 6033 H 585.177 -4.84447 -2.59983 0
M  V30 6034 H 586.402 -5.94809 -3.27688 0
M  V30 6035 H 584.348 -4.38079 -4.88286 0
M  V30 6036 H 584.265 -6.07041 -4.50596 0
M  V30 6037 H 585.533 -5.48346 -5.54019 0
M  V30 6038 N 589.762 0.448376 -1.51087 0
M  V30 6039 C 591.008 1.20049 -1.6345 0
M  V30 6040 C 591.341 1.91121 -0.344444 0
M  V30 6041 O 590.616 1.83125 0.655396 0
M  V30 6042 C 590.899 2.22624 -2.83038 0
M  V30 6043 C 590.752 1.55708 -4.21989 0
M  V30 6044 C 592.071 3.23718 -2.98152 0
M  V30 6045 H 589.19 0.435085 -0.59487 0
M  V30 6046 H 591.832 0.491183 -1.83541 0
M  V30 6047 H 589.982 2.83117 -2.66039 0
M  V30 6048 H 591.654 0.986367 -4.50631 0
M  V30 6049 H 589.897 0.859647 -4.25197 0
M  V30 6050 H 590.568 2.30357 -5.01637 0
M  V30 6051 H 593.044 2.73269 -3.13788 0
M  V30 6052 H 591.92 3.92795 -3.83411 0
M  V30 6053 H 592.181 3.89179 -2.09743 0
M  V30 6054 N 591.24 1.41047 0.703093 0
M  V30 6055 C 592.517 1.30493 1.45708 0
M  V30 6056 C 592.897 -0.0709892 2.10981 0
M  V30 6057 O 592.245 -1.08471 2.01113 0
M  V30 6058 C 592.455 2.45287 2.48265 0
M  V30 6059 C 593.803 2.86104 3.13735 0
M  V30 6060 O 594.827 2.44971 2.58587 0
M  V30 6061 O 593.686 3.57206 4.13601 0
M  V30 6062 H 590.78 0.513144 0.648546 0
M  V30 6063 H 593.326 1.52995 0.734208 0
M  V30 6064 H 592.098 3.37135 1.98635 0
M  V30 6065 H 591.721 2.24622 3.28071 0
M  V30 6066 N 592.718 -0.936591 1.26751 0
M  V30 6067 C 593.681 -2.01752 1.08761 0
M  V30 6068 C 594.681 -1.60763 0.0344435 0
M  V30 6069 O 595.871 -1.71963 0.278258 0
M  V30 6070 C 593.003 -3.34543 0.655271 0
M  V30 6071 H 594.196 -2.19143 2.04735 0
M  V30 6072 H 591.749 -1.11618 1.09413 0
M  V30 6073 H 592.484 -3.22851 -0.30626 0
M  V30 6074 H 592.269 -3.65647 1.41578 0
M  V30 6075 H 593.759 -4.13944 0.551378 0
M  V30 6076 N 594.196 -1.08629 -1.14182 0
M  V30 6077 C 595.421 -0.83902 -1.89671 0
M  V30 6078 C 595.846 0.603332 -1.78161 0
M  V30 6079 O 595.204 1.42301 -1.12339 0
M  V30 6080 C 595.252 -1.26854 -3.37551 0
M  V30 6081 O 594.356 -0.42188 -4.10236 0
M  V30 6082 H 593.697 -0.304545 -0.590041 0
M  V30 6083 H 596.227 -1.4483 -1.44518 0
M  V30 6084 H 596.237 -1.25038 -3.88368 0
M  V30 6085 H 594.912 -2.31901 -3.45246 0
M  V30 6086 H 593.489 -0.503654 -3.69483 0
M  V30 6087 N 595.674 1.31259 -0.872281 0
M  V30 6088 C 596.606 2.27396 -0.28697 0
M  V30 6089 C 597.619 1.53181 0.551297 0
M  V30 6090 O 598.808 1.74561 0.372914 0
M  V30 6091 C 595.908 3.33335 0.611617 0
M  V30 6092 C 595.081 4.36966 -0.194729 0
M  V30 6093 C 594.14 5.22387 0.632358 0
M  V30 6094 O 593.166 5.69169 0.0595691 0
M  V30 6095 N 594.368 5.46985 1.94391 0
M  V30 6096 H 597.133 2.78261 -1.11314 0
M  V30 6097 H 594.694 1.44306 -0.733994 0
M  V30 6098 H 596.686 3.87398 1.17068 0
M  V30 6099 H 595.256 2.82496 1.33846 0
M  V30 6100 H 594.476 3.82945 -0.935241 0
M  V30 6101 H 595.764 5.03273 -0.747935 0
M  V30 6102 H 595.162 5.10737 2.43237 0
M  V30 6103 H 593.719 6.03973 2.45071 0
M  V30 6104 N 597.152 0.631951 1.44375 0
M  V30 6105 C 598.399 0.136767 2.02038 0
M  V30 6106 C 598.727 -1.24168 1.49709 0
M  V30 6107 O 597.982 -1.83809 0.671763 0
M  V30 6108 C 598.281 0.0735861 3.57324 0
M  V30 6109 C 597.947 1.39092 4.28911 0
M  V30 6110 C 596.609 1.75171 4.48184 0
M  V30 6111 C 598.961 2.26042 4.69632 0
M  V30 6112 C 596.289 2.97907 5.05439 0
M  V30 6113 C 598.641 3.4805 5.28246 0
M  V30 6114 C 597.305 3.84351 5.45738 0
M  V30 6115 H 596.575 0.0500466 0.739308 0
M  V30 6116 H 599.222 0.818429 1.7313 0
M  V30 6117 H 597.527 -0.691449 3.8565 0
M  V30 6118 H 599.224 -0.326091 3.99672 0
M  V30 6119 H 595.814 1.10015 4.1424 0
M  V30 6120 H 599.998 1.99463 4.54454 0
M  V30 6121 H 595.254 3.26108 5.17169 0
M  V30 6122 H 599.428 4.15658 5.5875 0
M  V30 6123 H 597.055 4.79538 5.8987 0
M  V30 6124 N 598.631 -1.53133 0.372548 0
M  V30 6125 C 600.047 -1.59585 0.02178 0
M  V30 6126 C 600.247 -1.38736 -1.46132 0
M  V30 6127 O 599.303 -1.19599 -2.22379 0
M  V30 6128 C 600.616 -2.9678 0.483959 0
M  V30 6129 C 602.164 -3.09909 0.438775 0
M  V30 6130 C 602.639 -4.49527 0.876876 0
M  V30 6131 N 604.13 -4.55663 0.832214 0
M  V30 6132 C 604.865 -5.61896 1.14281 0
M  V30 6133 N 604.361 -6.75852 1.52303 0
M  V30 6134 N 606.154 -5.51916 1.06515 0
M  V30 6135 H 598.305 -1.64936 1.33827 0
M  V30 6136 H 600.568 -0.773947 0.547458 0
M  V30 6137 H 600.274 -3.17198 1.51915 0
M  V30 6138 H 600.148 -3.7699 -0.125784 0
M  V30 6139 H 602.535 -2.89197 -0.587294 0
M  V30 6140 H 602.616 -2.31691 1.0841 0
M  V30 6141 H 602.26 -4.70979 1.90109 0
M  V30 6142 H 602.19 -5.26186 0.208727 0
M  V30 6143 H 604.681 -3.73844 0.552195 0
M  V30 6144 H 604.994 -7.52862 1.7441 0
M  V30 6145 H 603.339 -6.77226 1.56175 0
M  V30 6146 H 606.53 -4.6177 0.767235 0
M  V30 6147 H 606.703 -6.34609 1.31053 0
M  V30 6148 N 600.109 -0.101901 -1.5727 0
M  V30 6149 C 601.334 0.571759 -1.99363 0
M  V30 6150 C 601.759 1.60507 -0.980768 0
M  V30 6151 O 601.117 1.81231 0.0498517 0
M  V30 6152 C 601.165 1.18996 -3.404 0
M  V30 6153 O 600.269 2.30572 -3.41922 0
M  V30 6154 H 599.61 0.144449 -0.648098 0
M  V30 6155 H 602.14 -0.185325 -2.03759 0
M  V30 6156 H 602.15 1.52962 -3.78241 0
M  V30 6157 H 600.825 0.432984 -4.1364 0
M  V30 6158 H 599.402 1.98173 -3.15883 0
M  V30 6159 N 601.587 1.56661 0.17182 0
M  V30 6160 C 602.517 1.99401 1.21498 0
M  V30 6161 C 603.498 0.869516 1.46197 0
M  V30 6162 O 604.683 1.13556 1.57539 0
M  V30 6163 C 601.813 2.35346 2.55401 0
M  V30 6164 C 600.767 3.5075 2.45272 0
M  V30 6165 C 600.093 3.72437 3.8366 0
M  V30 6166 C 601.393 4.84216 1.95787 0
M  V30 6167 H 603.087 2.86792 0.859699 0
M  V30 6168 H 600.633 1.37977 0.412103 0
M  V30 6169 H 602.586 2.63843 3.2858 0
M  V30 6170 H 601.31 1.44864 2.92715 0
M  V30 6171 H 599.969 3.2238 1.74547 0
M  V30 6172 H 599.617 2.79246 4.18367 0
M  V30 6173 H 599.317 4.50087 3.77751 0
M  V30 6174 H 600.841 4.03334 4.58426 0
M  V30 6175 H 602.255 5.11592 2.5874 0
M  V30 6176 H 600.652 5.65498 2.00827 0
M  V30 6177 H 601.722 4.76243 0.912159 0
M  V30 6178 N 603.065 -0.440357 1.51323 0
M  V30 6179 C 604.015 -1.53263 1.68803 0
M  V30 6180 C 604.999 -1.51494 0.542057 0
M  V30 6181 O 606.191 -1.57999 0.797839 0
M  V30 6182 C 603.32 -2.91479 1.8137 0
M  V30 6183 C 602.406 -2.98015 3.01742 0
M  V30 6184 N 602.797 -2.743 4.24962 0
M  V30 6185 C 601.095 -3.29173 3.00934 0
M  V30 6186 C 601.796 -2.86601 5.06197 0
M  V30 6187 N 600.772 -3.1814 4.40781 0
M  V30 6188 H 604.574 -1.33675 2.61741 0
M  V30 6189 H 602.088 -0.647616 1.48929 0
M  V30 6190 H 604.085 -3.70055 1.92002 0
M  V30 6191 H 602.745 -3.12089 0.896117 0
M  V30 6192 H 603.756 -2.49287 4.53957 0
M  V30 6193 H 600.433 -3.55577 2.18796 0
M  V30 6194 H 601.823 -2.72246 6.14274 0
M  V30 6195 N 604.543 -1.41418 -0.695603 0
M  V30 6196 C 605.49 -1.43264 -1.80954 0
M  V30 6197 C 606.46 -0.287016 -1.63601 0
M  V30 6198 O 607.645 -0.488054 -1.84452 0
M  V30 6199 C 604.785 -1.32054 -3.18835 0
M  V30 6200 C 603.898 -2.56485 -3.4762 0
M  V30 6201 C 603.033 -2.3757 -4.75115 0
M  V30 6202 C 602.072 -3.57477 -4.96867 0
M  V30 6203 N 601.209 -3.37632 -6.15588 0
M  V30 6204 H 606.049 -2.38467 -1.78711 0
M  V30 6205 H 603.586 -1.18415 -0.872715 0
M  V30 6206 H 605.544 -1.23558 -3.98484 0
M  V30 6207 H 604.174 -0.404592 -3.20254 0
M  V30 6208 H 603.226 -2.75432 -2.62376 0
M  V30 6209 H 604.538 -3.45678 -3.59594 0
M  V30 6210 H 603.692 -2.2654 -5.62818 0
M  V30 6211 H 602.431 -1.45834 -4.65386 0
M  V30 6212 H 601.436 -3.68961 -4.07612 0
M  V30 6213 H 602.661 -4.50167 -5.08455 0
M  V30 6214 H 600.607 -2.48596 -6.07072 0
M  V30 6215 H 600.524 -4.20401 -6.2833 0
M  V30 6216 H 601.792 -3.30375 -7.06026 0
M  V30 6217 N 606.021 0.929856 -1.27246 0
M  V30 6218 C 607.251 1.70895 -1.16096 0
M  V30 6219 C 607.659 1.87039 0.285122 0
M  V30 6220 O 607.002 1.38557 1.20614 0
M  V30 6221 C 607.064 3.12919 -1.7698 0
M  V30 6222 C 606.728 3.2012 -3.26148 0
M  V30 6223 C 607.725 3.02533 -4.22812 0
M  V30 6224 C 605.41 3.43148 -3.66817 0
M  V30 6225 C 607.404 3.07861 -5.58122 0
M  V30 6226 C 605.091 3.48109 -5.02258 0
M  V30 6227 C 606.089 3.30483 -5.97721 0
M  V30 6228 O 605.777 3.35175 -7.30694 0
M  V30 6229 H 605.509 0.54152 -0.404639 0
M  V30 6230 H 608.063 1.17342 -1.68582 0
M  V30 6231 H 606.293 3.67945 -1.18969 0
M  V30 6232 H 607.982 3.72787 -1.60576 0
M  V30 6233 H 608.748 2.84586 -3.92728 0
M  V30 6234 H 604.627 3.55918 -2.9299 0
M  V30 6235 H 608.171 2.94021 -6.32612 0
M  V30 6236 H 604.068 3.65579 -5.31998 0
M  V30 6237 H 604.836 3.51644 -7.39114 0
M  V30 6238 N 607.499 1.09233 1.13605 0
M  V30 6239 C 608.724 0.849067 1.89224 0
M  V30 6240 C 609.149 -0.593875 1.78479 0
M  V30 6241 O 608.507 -1.41703 1.13092 0
M  V30 6242 C 608.555 1.28642 3.36873 0
M  V30 6243 O 607.659 0.44363 4.10007 0
M  V30 6244 H 607 0.30767 0.588417 0
M  V30 6245 H 609.53 1.45595 1.43748 0
M  V30 6246 H 609.54 1.27096 3.87699 0
M  V30 6247 H 608.215 2.33729 3.44011 0
M  V30 6248 H 606.792 0.523241 3.69211 0
M  V30 6249 N 608.977 -1.30795 0.87923 0
M  V30 6250 C 610.388 -1.78535 0.546093 0
M  V30 6251 C 610.739 -1.72354 -0.937467 0
M  V30 6252 O 609.864 -1.2969 -1.73233 0
M  V30 6253 C 610.459 -3.24181 0.9845 0
M  V30 6254 C 609.018 -3.69779 0.702871 0
M  V30 6255 C 608.165 -2.51377 1.17068 0
M  V30 6256 H 611.116 -1.17746 1.06403 0
M  V30 6257 H 611.137 -3.79227 0.311045 0
M  V30 6258 H 610.649 -3.28647 2.06429 0
M  V30 6259 H 608.75 -3.70806 -0.365166 0
M  V30 6260 H 608.863 -4.61507 1.28639 0
M  V30 6261 H 607.227 -2.47768 0.590172 0
M  V30 6262 H 608.01 -2.58584 2.25808 0
M  V30 6263 N 610.455 -0.639598 -1.44038 0
M  V30 6264 C 611.702 -0.14748 -2.01962 0
M  V30 6265 C 612.03 1.23372 -1.50365 0
M  V30 6266 O 611.285 1.8345 -0.681501 0
M  V30 6267 C 611.584 -0.0925348 -3.5728 0
M  V30 6268 C 611.25 -1.41365 -4.28167 0
M  V30 6269 C 609.912 -1.77545 -4.47248 0
M  V30 6270 C 612.264 -2.2853 -4.68427 0
M  V30 6271 C 609.592 -3.00583 -5.03852 0
M  V30 6272 C 611.944 -3.50846 -5.26393 0
M  V30 6273 C 610.608 -3.8724 -5.43692 0
M  V30 6274 H 609.878 -0.0539666 -0.739032 0
M  V30 6275 H 612.525 -0.827599 -1.72694 0
M  V30 6276 H 610.83 0.670987 -3.86012 0
M  V30 6277 H 612.527 0.304891 -3.99839 0
M  V30 6278 H 609.117 -1.1221 -4.13651 0
M  V30 6279 H 613.301 -2.0187 -4.5339 0
M  V30 6280 H 608.557 -3.28846 -5.15432 0
M  V30 6281 H 612.731 -4.18616 -5.56537 0
M  V30 6282 H 610.358 -4.8266 -5.87319 0
M  V30 6283 N 611.933 1.52934 -0.380664 0
M  V30 6284 C 613.21 1.93845 0.261417 0
M  V30 6285 C 613.59 1.31544 1.65104 0
M  V30 6286 O 612.938 0.480234 2.23397 0
M  V30 6287 C 613.148 3.47739 0.296466 0
M  V30 6288 C 614.496 4.21284 0.529578 0
M  V30 6289 O 615.52 3.54199 0.377041 0
M  V30 6290 O 614.379 5.40195 0.827753 0
M  V30 6291 H 611.473 0.811318 0.160285 0
M  V30 6292 H 614.019 1.64042 -0.434544 0
M  V30 6293 H 612.791 3.85395 -0.67724 0
M  V30 6294 H 612.414 3.8382 1.0377 0
M  V30 6295 N 613.412 0.11024 1.57214 0
M  V30 6296 C 614.66 -0.548783 1.94506 0
M  V30 6297 C 614.981 -1.67772 0.99386 0
M  V30 6298 O 614.251 -1.9584 0.0485841 0
M  V30 6299 H 612.831 -0.205715 0.718116 0
M  V30 6300 H 615.493 0.177127 1.94093 0
M  V30 6301 H 614.589 -0.949096 2.97319 0
M  V30 6302 N 614.89 -1.56749 -0.16351 0
M  V30 6303 C 615.823 -1.9213 -1.23132 0
M  V30 6304 C 616.801 -0.785047 -1.42393 0
M  V30 6305 O 617.985 -1.0391 -1.57273 0
M  V30 6306 C 615.112 -2.17901 -2.59301 0
M  V30 6307 C 614.158 -3.40576 -2.5673 0
M  V30 6308 S 614.991 -4.94689 -2.05045 0
M  V30 6309 C 616.147 -5.23564 -3.42975 0
M  V30 6310 H 616.38 -2.824 -0.929383 0
M  V30 6311 H 613.913 -1.4994 -0.368418 0
M  V30 6312 H 615.871 -2.33429 -3.3767 0
M  V30 6313 H 614.532 -1.28324 -2.86691 0
M  V30 6314 H 613.725 -3.55833 -3.5693 0
M  V30 6315 H 613.327 -3.24204 -1.86462 0
M  V30 6316 H 615.619 -5.16019 -4.3901 0
M  V30 6317 H 616.562 -6.25134 -3.32586 0
M  V30 6318 H 616.97 -4.51113 -3.39348 0
M  V30 6319 N 616.368 0.432326 -1.51554 0
M  V30 6320 C 617.779 1.01202 -1.56892 0
M  V30 6321 C 618.13 1.92175 -0.395394 0
M  V30 6322 O 617.255 2.10844 0.487198 0
M  V30 6323 C 617.85 1.84217 -2.8434 0
M  V30 6324 C 616.409 2.37228 -2.92233 0
M  V30 6325 C 615.556 1.16576 -2.51606 0
M  V30 6326 H 618.507 0.213407 -1.57259 0
M  V30 6327 H 618.528 2.69721 -2.68385 0
M  V30 6328 H 618.04 1.17979 -3.69733 0
M  V30 6329 H 616.141 3.06905 -2.11282 0
M  V30 6330 H 616.254 2.69682 -3.95991 0
M  V30 6331 H 614.618 1.51263 -2.04919 0
M  V30 6332 H 615.401 0.519404 -3.39348 0
M  V30 6333 N 617.846 1.41785 0.688094 0
M  V30 6334 C 619.092 1.41753 1.4503 0
M  V30 6335 C 619.425 0.0290745 1.94178 0
M  V30 6336 O 618.7 -0.944456 1.7003 0
M  V30 6337 C 618.983 2.43069 2.65686 0
M  V30 6338 C 618.836 3.91053 2.22256 0
M  V30 6339 C 620.155 2.41543 3.67893 0
M  V30 6340 H 617.274 0.516202 0.526027 0
M  V30 6341 H 619.916 1.73111 0.783105 0
M  V30 6342 H 618.066 2.1646 3.2261 0
M  V30 6343 H 619.738 4.28594 1.70602 0
M  V30 6344 H 617.981 4.05559 1.53963 0
M  V30 6345 H 618.652 4.57501 3.08863 0
M  V30 6346 H 621.128 2.65175 3.20658 0
M  V30 6347 H 620.004 3.14434 4.49914 0
M  V30 6348 H 620.265 1.43666 4.18106 0
M  V30 6349 N 619.324 -0.923095 1.27737 0
M  V30 6350 C 620.552 -1.70525 1.17171 0
M  V30 6351 C 620.967 -1.86847 -0.270881 0
M  V30 6352 O 620.324 -1.38879 -1.18401 0
M  V30 6353 C 620.375 -3.10242 1.85559 0
M  V30 6354 O 620.096 -2.94683 3.24182 0
M  V30 6355 C 621.597 -4.04586 1.81176 0
M  V30 6356 H 618.817 -0.533347 0.407163 0
M  V30 6357 H 621.361 -1.15599 1.68692 0
M  V30 6358 H 619.516 -3.62014 1.3793 0
M  V30 6359 H 619.93 -3.83045 3.58297 0
M  V30 6360 H 621.404 -5.00119 2.33633 0
M  V30 6361 H 621.881 -4.3218 0.782099 0
M  V30 6362 H 622.487 -3.58741 2.2844 0
M  V30 6363 N 620.802 -1.09834 -1.13024 0
M  V30 6364 C 622.05 -0.835297 -1.8403 0
M  V30 6365 C 622.371 0.640944 -1.84165 0
M  V30 6366 O 621.641 1.46517 -1.30037 0
M  V30 6367 H 620.221 -0.306018 -0.681441 0
M  V30 6368 H 622.883 -1.38734 -1.36891 0
M  V30 6369 H 621.979 -1.19258 -2.88416 0
M  V30 6370 N 622.28 1.30327 -0.886154 0
M  V30 6371 C 623.243 2.26376 -0.358687 0
M  V30 6372 C 624.243 1.52845 0.499498 0
M  V30 6373 O 625.433 1.71483 0.306485 0
M  V30 6374 C 622.565 3.37379 0.488726 0
M  V30 6375 H 623.758 2.74547 -1.20681 0
M  V30 6376 H 621.311 1.41536 -0.663113 0
M  V30 6377 H 622.046 2.94526 1.35739 0
M  V30 6378 H 621.831 3.91897 -0.126003 0
M  V30 6379 H 623.321 4.08868 0.84952 0
M  V30 6380 N 623.758 0.647228 1.43697 0
M  V30 6381 C 625.169 0.238689 1.85168 0
M  V30 6382 C 625.52 -1.21345 1.54175 0
M  V30 6383 O 624.645 -1.92542 0.987743 0
M  V30 6384 C 625.24 0.426422 3.36106 0
M  V30 6385 C 623.799 0.0722541 3.76331 0
M  V30 6386 C 622.946 0.732153 2.6746 0
M  V30 6387 H 625.897 0.851309 1.33934 0
M  V30 6388 H 625.918 -0.32987 3.79067 0
M  V30 6389 H 625.43 1.48339 3.58632 0
M  V30 6390 H 623.531 -0.982355 3.59417 0
M  V30 6391 H 623.644 0.493541 4.76551 0
M  V30 6392 H 622.008 0.16594 2.54159 0
M  V30 6393 H 622.791 1.79204 2.92816 0
M  V30 6394 N 625.236 -1.5273 0.388769 0
M  V30 6395 C 626.482 -2.01871 -0.193877 0
M  V30 6396 C 626.815 -1.27475 -1.46505 0
M  V30 6397 O 626.09 -0.375063 -1.90849 0
M  V30 6398 C 626.373 -3.5712 -0.462336 0
M  V30 6399 C 626.226 -4.42186 0.824091 0
M  V30 6400 C 627.545 -4.21881 -1.25319 0
M  V30 6401 H 624.664 -0.733764 -0.0689899 0
M  V30 6402 H 627.306 -1.82796 0.518231 0
M  V30 6403 H 625.456 -3.73504 -1.06896 0
M  V30 6404 H 627.128 -4.37554 1.46096 0
M  V30 6405 H 625.371 -4.09219 1.43952 0
M  V30 6406 H 626.042 -5.48828 0.590905 0
M  V30 6407 H 628.518 -4.0947 -0.73981 0
M  V30 6408 H 627.394 -5.30487 -1.40977 0
M  V30 6409 H 627.655 -3.79478 -2.26824 0
M  V30 6410 N 626.714 -0.118576 -1.57153 0
M  V30 6411 C 627.644 0.828436 -2.1831 0
M  V30 6412 C 628.625 1.27758 -1.12303 0
M  V30 6413 O 629.81 1.34026 -1.40537 0
M  V30 6414 C 626.94 2.07876 -2.78217 0
M  V30 6415 C 625.894 1.76742 -3.89803 0
M  V30 6416 C 625.22 3.08801 -4.36516 0
M  V30 6417 C 626.52 1.03606 -5.11921 0
M  V30 6418 H 628.214 0.318824 -2.97698 0
M  V30 6419 H 625.76 0.151911 -1.43196 0
M  V30 6420 H 627.713 2.74584 -3.19659 0
M  V30 6421 H 626.437 2.61161 -1.96118 0
M  V30 6422 H 625.096 1.12424 -3.48936 0
M  V30 6423 H 624.744 3.6002 -3.51276 0
M  V30 6424 H 624.444 2.88743 -5.11763 0
M  V30 6425 H 625.968 3.76627 -4.80608 0
M  V30 6426 H 627.382 1.60467 -5.50385 0
M  V30 6427 H 625.779 0.936454 -5.92748 0
M  V30 6428 H 626.849 0.0227421 -4.84895 0
M  V30 6429 N 628.193 1.56834 0.155195 0
M  V30 6430 C 629.421 1.87049 0.884326 0
M  V30 6431 C 629.836 0.705839 1.7511 0
M  V30 6432 O 629.193 -0.324641 1.79589 0
M  V30 6433 C 629.244 3.1644 1.74781 0
M  V30 6434 O 628.965 4.28417 0.915978 0
M  V30 6435 C 630.466 3.60113 2.58522 0
M  V30 6436 H 627.686 0.620196 0.25612 0
M  V30 6437 H 630.23 2.03946 0.150445 0
M  V30 6438 H 628.385 3.01321 2.43484 0
M  V30 6439 H 628.799 5.02353 1.50803 0
M  V30 6440 H 630.273 4.53508 3.14698 0
M  V30 6441 H 630.75 2.85005 3.34169 0
M  V30 6442 H 631.356 3.77898 1.95124 0
M  V30 6443 N 629.671 -0.424282 1.51781 0
M  V30 6444 C 630.604 -1.53633 1.68737 0
M  V30 6445 C 631.582 -1.53549 0.534915 0
M  V30 6446 O 632.766 -1.72483 0.760391 0
M  V30 6447 C 629.893 -2.92195 1.71288 0
M  V30 6448 C 628.939 -3.10251 2.92654 0
M  V30 6449 S 629.772 -2.85166 4.53256 0
M  V30 6450 C 630.928 -4.25986 4.58571 0
M  V30 6451 H 631.161 -1.39018 2.62795 0
M  V30 6452 H 628.694 -0.614854 1.41629 0
M  V30 6453 H 630.652 -3.72059 1.73443 0
M  V30 6454 H 629.313 -3.04162 0.783847 0
M  V30 6455 H 628.506 -4.1159 2.90877 0
M  V30 6456 H 628.108 -2.38231 2.88308 0
M  V30 6457 H 630.4 -5.19392 4.35015 0
M  V30 6458 H 631.343 -4.32792 5.60444 0
M  V30 6459 H 631.751 -4.1025 3.87757 0
M  V30 6460 N 631.149 -1.42148 -0.680565 0
M  V30 6461 C 632.395 -1.42521 -1.44277 0
M  V30 6462 C 632.728 -0.0393718 -1.9416 0
M  V30 6463 O 632.003 0.935425 -1.70529 0
M  V30 6464 C 632.286 -2.44475 -2.64394 0
M  V30 6465 C 632.139 -3.92226 -2.20179 0
M  V30 6466 C 633.458 -2.43491 -3.66606 0
M  V30 6467 H 630.577 -0.518985 -0.523282 0
M  V30 6468 H 633.219 -1.73524 -0.773914 0
M  V30 6469 H 631.369 -2.18168 -3.21458 0
M  V30 6470 H 633.041 -4.29493 -1.68327 0
M  V30 6471 H 631.284 -4.0637 -1.5181 0
M  V30 6472 H 631.955 -4.59133 -3.06433 0
M  V30 6473 H 634.431 -2.66872 -3.19247 0
M  V30 6474 H 633.307 -3.16816 -4.4824 0
M  V30 6475 H 633.568 -1.45881 -4.17338 0
M  V30 6476 N 632.627 0.916307 -1.28225 0
M  V30 6477 C 634.043 1.19425 -1.05876 0
M  V30 6478 C 634.243 2.005 0.2005 0
M  V30 6479 O 633.299 2.35806 0.902873 0
M  V30 6480 C 634.612 1.93133 -2.30478 0
M  V30 6481 C 636.16 2.06026 -2.35632 0
M  V30 6482 C 636.635 2.83141 -3.59994 0
M  V30 6483 N 638.126 2.90704 -3.60618 0
M  V30 6484 C 638.861 3.50865 -4.53521 0
M  V30 6485 N 638.357 4.12327 -5.56739 0
M  V30 6486 N 640.15 3.48379 -4.41122 0
M  V30 6487 H 632.301 0.37496 -2.09064 0
M  V30 6488 H 634.564 0.228531 -0.920042 0
M  V30 6489 H 634.27 1.40985 -3.22205 0
M  V30 6490 H 634.144 2.93696 -2.36691 0
M  V30 6491 H 636.531 2.57355 -1.44404 0
M  V30 6492 H 636.612 1.04647 -2.33415 0
M  V30 6493 H 636.256 2.32492 -4.51564 0
M  V30 6494 H 636.186 3.84829 -3.59464 0
M  V30 6495 H 638.677 2.47034 -2.85977 0
M  V30 6496 H 638.99 4.56205 -6.23776 0
M  V30 6497 H 637.335 4.10839 -5.60568 0
M  V30 6498 H 640.526 2.99572 -3.59686 0
M  V30 6499 H 640.699 3.94974 -5.13712 0
M  V30 6500 N 634.105 1.10431 1.1244 0
M  V30 6501 C 635.353 0.845045 1.83585 0
M  V30 6502 C 635.674 -0.631168 1.84503 0
M  V30 6503 O 634.944 -1.45825 1.30813 0
M  V30 6504 H 633.524 0.309628 0.679809 0
M  V30 6505 H 636.186 1.39458 1.36153 0
M  V30 6506 H 635.282 1.20786 2.8778 0
M  V30 6507 N 635.583 -1.29855 0.893053 0
M  V30 6508 C 636.811 -1.99976 0.530788 0
M  V30 6509 C 637.226 -1.66889 -0.882799 0
M  V30 6510 O 636.583 -0.910352 -1.58173 0
M  V30 6511 C 636.634 -3.54547 0.705587 0
M  V30 6512 O 636.355 -3.86458 2.06353 0
M  V30 6513 C 637.856 -4.41937 0.347387 0
M  V30 6514 H 635.076 -0.639129 0.204339 0
M  V30 6515 H 637.62 -1.65549 1.20057 0
M  V30 6516 H 635.775 -3.87311 0.0830685 0
M  V30 6517 H 636.189 -4.81146 2.08803 0
M  V30 6518 H 637.663 -5.4954 0.520557 0
M  V30 6519 H 638.14 -4.33339 -0.715139 0
M  V30 6520 H 638.746 -4.14633 0.946567 0
M  V30 6521 N 637.061 -0.65484 -1.43351 0
M  V30 6522 C 638.307 -0.169142 -2.02093 0
M  V30 6523 C 638.64 1.21431 -1.51553 0
M  V30 6524 O 637.915 1.81105 -0.709317 0
M  V30 6525 C 638.198 -0.181775 -3.59641 0
M  V30 6526 C 638.051 -1.59926 -4.20409 0
M  V30 6527 C 639.37 0.480945 -4.37464 0
M  V30 6528 H 636.489 -0.0629371 -0.734308 0
M  V30 6529 H 639.131 -0.835833 -1.70628 0
M  V30 6530 H 637.281 0.385918 -3.86578 0
M  V30 6531 H 638.953 -2.21766 -4.04497 0
M  V30 6532 H 637.196 -2.14605 -3.76998 0
M  V30 6533 H 637.867 -1.55994 -5.295 0
M  V30 6534 H 640.343 -0.00208273 -4.161 0
M  V30 6535 H 639.219 0.441384 -5.47122 0
M  V30 6536 H 639.48 1.55533 -4.13838 0
M  V30 6537 N 638.539 1.52521 -0.396863 0
M  V30 6538 C 639.785 2.01971 0.183169 0
M  V30 6539 C 640.118 1.2825 1.45827 0
M  V30 6540 O 639.393 0.385179 1.90648 0
M  V30 6541 C 639.676 3.5736 0.443391 0
M  V30 6542 C 639.529 4.41743 -0.84753 0
M  V30 6543 C 640.848 4.22539 1.2308 0
M  V30 6544 H 637.967 0.734119 0.0650976 0
M  V30 6545 H 640.609 1.82519 -0.527918 0
M  V30 6546 H 638.759 3.74066 1.04914 0
M  V30 6547 H 640.431 4.36773 -1.48414 0
M  V30 6548 H 638.674 4.0845 -1.4612 0
M  V30 6549 H 639.345 5.48507 -0.620003 0
M  V30 6550 H 641.821 4.09857 0.718084 0
M  V30 6551 H 640.697 5.31227 1.38162 0
M  V30 6552 H 640.958 3.80675 2.24808 0
M  V30 6553 N 640.017 0.126909 1.57088 0
M  V30 6554 C 640.98 -0.806097 2.14557 0
M  V30 6555 C 641.98 -1.18918 1.08236 0
M  V30 6556 O 643.17 -1.11339 1.33975 0
M  V30 6557 C 640.302 -2.09116 2.69227 0
M  V30 6558 H 641.495 -0.306522 2.98329 0
M  V30 6559 H 639.048 -0.122393 1.5582 0
M  V30 6560 H 639.783 -2.63486 1.89065 0
M  V30 6561 H 639.568 -1.82588 3.46993 0
M  V30 6562 H 641.058 -2.75794 3.13572 0
M  V30 6563 N 641.495 -1.56914 -0.146875 0
M  V30 6564 C 642.405 -2.0154 -1.20079 0
M  V30 6565 C 643.421 -0.930838 -1.47008 0
M  V30 6566 O 644.597 -1.24032 -1.58676 0
M  V30 6567 C 641.662 -2.38715 -2.51428 0
M  V30 6568 C 640.723 -3.6112 -2.32145 0
M  V30 6569 C 639.956 -3.96512 -3.57231 0
M  V30 6570 O 640.179 -3.32566 -4.63418 0
M  V30 6571 O 639.113 -4.89758 -3.49887 0
M  V30 6572 H 642.939 -2.91506 -0.851924 0
M  V30 6573 H 640.524 -1.45106 -0.355607 0
M  V30 6574 H 642.406 -2.63485 -3.28867 0
M  V30 6575 H 641.081 -1.51903 -2.85845 0
M  V30 6576 H 639.988 -3.41536 -1.52656 0
M  V30 6577 H 641.321 -4.48549 -2.02644 0
M  V30 6578 N 642.974 0.416227 -1.52004 0
M  V30 6579 C 643.921 1.50666 -1.74838 0
M  V30 6580 C 644.891 1.55245 -0.590599 0
M  V30 6581 O 646.076 1.71928 -0.827374 0
M  V30 6582 C 643.216 2.88185 -1.89851 0
M  V30 6583 C 642.329 2.92971 -3.17478 0
M  V30 6584 C 641.464 4.21745 -3.22962 0
M  V30 6585 C 640.503 4.20478 -4.4482 0
M  V30 6586 N 639.64 5.40811 -4.47736 0
M  V30 6587 H 644.48 1.30498 -2.67907 0
M  V30 6588 H 642.017 0.633568 -1.32757 0
M  V30 6589 H 643.975 3.68007 -1.96537 0
M  V30 6590 H 642.605 3.06865 -1.00169 0
M  V30 6591 H 641.657 2.05684 -3.19997 0
M  V30 6592 H 642.969 2.87899 -4.07328 0
M  V30 6593 H 642.123 5.09954 -3.28682 0
M  V30 6594 H 640.862 4.29503 -2.31038 0
M  V30 6595 H 639.867 3.30659 -4.39254 0
M  V30 6596 H 641.092 4.14366 -5.38031 0
M  V30 6597 H 639.038 5.4925 -3.58692 0
M  V30 6598 H 638.955 5.37705 -5.31422 0
M  V30 6599 H 640.223 6.30993 -4.57676 0
M  V30 6600 N 644.452 1.42507 0.673017 0
M  V30 6601 C 645.7 1.42789 1.43023 0
M  V30 6602 C 646.021 0.0459738 1.94946 0
M  V30 6603 O 645.291 -0.915765 1.73178 0
M  V30 6604 H 643.871 0.525657 0.530748 0
M  V30 6605 H 646.533 1.77944 0.795113 0
M  V30 6606 H 645.629 2.12872 2.28237 0
M  V30 6607 N 645.93 -0.909495 1.28709 0
M  V30 6608 C 646.84 -2.04558 1.14861 0
M  V30 6609 C 647.856 -1.73842 0.0741621 0
M  V30 6610 O 649.032 -1.99383 0.2843 0
M  V30 6611 C 646.097 -3.36957 0.816148 0
M  V30 6612 C 645.158 -3.81255 1.97341 0
M  V30 6613 C 644.391 -5.07335 1.65671 0
M  V30 6614 O 644.614 -5.67514 0.573053 0
M  V30 6615 O 643.548 -5.47449 2.50167 0
M  V30 6616 H 647.374 -2.19161 2.10243 0
M  V30 6617 H 644.959 -1.03159 1.08068 0
M  V30 6618 H 646.841 -4.16436 0.644873 0
M  V30 6619 H 645.516 -3.2352 -0.107983 0
M  V30 6620 H 644.423 -3.02584 2.19986 0
M  V30 6621 H 645.756 -3.99261 2.87839 0
M  V30 6622 N 647.408 -1.11026 -1.11852 0
M  V30 6623 C 648.654 -0.857729 -1.83768 0
M  V30 6624 C 648.987 0.615143 -1.842 0
M  V30 6625 O 648.262 1.45391 -1.29196 0
M  V30 6626 C 648.545 -1.41453 -3.31154 0
M  V30 6627 C 648.398 -2.95471 -3.39142 0
M  V30 6628 C 649.717 -1.0619 -4.27097 0
M  V30 6629 H 646.836 -0.313044 -0.667212 0
M  V30 6630 H 649.478 -1.37443 -1.31185 0
M  V30 6631 H 647.628 -0.975052 -3.76065 0
M  V30 6632 H 649.3 -3.4799 -3.02821 0
M  V30 6633 H 647.543 -3.31759 -2.79497 0
M  V30 6634 H 648.214 -3.29515 -4.42859 0
M  V30 6635 H 650.69 -1.44122 -3.90344 0
M  V30 6636 H 649.566 -1.47832 -5.28618 0
M  V30 6637 H 649.827 0.0278912 -4.42091 0
M  V30 6638 N 648.886 1.2938 -0.899927 0
M  V30 6639 C 649.816 2.30144 -0.39446 0
M  V30 6640 C 650.797 1.61611 0.530639 0
M  V30 6641 O 651.982 1.89119 0.441319 0
M  V30 6642 C 649.112 3.45229 0.37868 0
M  V30 6643 C 648.066 4.25564 -0.456012 0
M  V30 6644 C 647.392 5.32848 0.444637 0
M  V30 6645 C 648.692 4.93651 -1.70605 0
M  V30 6646 H 650.386 2.72673 -1.23653 0
M  V30 6647 H 647.932 1.31086 -0.596034 0
M  V30 6648 H 649.885 4.14797 0.743037 0
M  V30 6649 H 648.609 3.01545 1.25453 0
M  V30 6650 H 647.268 3.57704 -0.802704 0
M  V30 6651 H 646.916 4.85408 1.31863 0
M  V30 6652 H 646.616 5.87497 -0.110154 0
M  V30 6653 H 648.14 6.05268 0.805182 0
M  V30 6654 H 649.554 5.55655 -1.41141 0
M  V30 6655 H 647.951 5.58233 -2.20217 0
M  V30 6656 H 649.021 4.18926 -2.4419 0
M  V30 6657 N 650.364 0.662433 1.43002 0
M  V30 6658 C 651.61 0.179857 2.02001 0
M  V30 6659 C 651.943 -1.20625 1.52195 0
M  V30 6660 O 651.218 -1.80726 0.718911 0
M  V30 6661 C 651.501 0.200845 3.59539 0
M  V30 6662 C 651.354 1.62153 4.19555 0
M  V30 6663 C 652.673 -0.457738 4.37713 0
M  V30 6664 H 649.792 0.0668305 0.733964 0
M  V30 6665 H 652.434 0.84487 1.70182 0
M  V30 6666 H 650.584 -0.365411 3.86778 0
M  V30 6667 H 652.256 2.23908 4.03315 0
M  V30 6668 H 650.499 2.16601 3.75854 0
M  V30 6669 H 651.17 1.58799 5.28665 0
M  V30 6670 H 653.646 0.0241495 4.16093 0
M  V30 6671 H 652.522 -0.412363 5.47349 0
M  V30 6672 H 652.783 -1.53336 4.14657 0
M  V30 6673 N 651.842 -1.52309 0.404946 0
M  V30 6674 C 652.752 -2.30634 -0.429555 0
M  V30 6675 C 653.768 -1.38187 -1.05737 0
M  V30 6676 O 654.944 -1.71261 -1.05979 0
M  V30 6677 C 652.009 -3.10947 -1.53339 0
M  V30 6678 C 651.07 -4.19126 -0.929065 0
M  V30 6679 C 650.303 -4.95601 -1.9803 0
M  V30 6680 O 650.526 -4.72331 -3.1978 0
M  V30 6681 O 649.46 -5.80551 -1.58886 0
M  V30 6682 H 653.286 -3.0298 0.208963 0
M  V30 6683 H 650.871 -1.4845 0.168255 0
M  V30 6684 H 652.753 -3.60974 -2.1743 0
M  V30 6685 H 651.428 -2.41399 -2.15658 0
M  V30 6686 H 650.335 -3.73257 -0.250982 0
M  V30 6687 H 651.668 -4.90955 -0.349855 0
M  V30 6688 N 653.32 -0.135238 -1.57019 0
M  V30 6689 C 654.252 0.839675 -2.13265 0
M  V30 6690 C 655.265 1.21887 -1.07923 0
M  V30 6691 O 656.454 1.16499 -1.35241 0
M  V30 6692 C 653.554 2.13647 -2.63075 0
M  V30 6693 C 652.727 1.92646 -3.92691 0
M  V30 6694 C 651.786 3.06205 -4.27931 0
M  V30 6695 O 650.812 2.78409 -4.96465 0
M  V30 6696 N 652.014 4.33072 -3.86561 0
M  V30 6697 H 654.779 0.359026 -2.97542 0
M  V30 6698 H 652.34 0.0486979 -1.61827 0
M  V30 6699 H 654.332 2.88641 -2.8367 0
M  V30 6700 H 652.902 2.5301 -1.83588 0
M  V30 6701 H 652.122 1.01754 -3.80841 0
M  V30 6702 H 653.41 1.75939 -4.77413 0
M  V30 6703 H 652.808 4.58526 -3.31316 0
M  V30 6704 H 651.365 5.04885 -4.12231 0
M  V30 6705 N 654.798 1.5699 0.138552 0
M  V30 6706 C 656.046 1.83446 0.848053 0
M  V30 6707 C 656.367 0.71744 1.81322 0
M  V30 6708 O 655.637 -0.260228 1.94164 0
M  V30 6709 H 654.217 0.676792 0.316166 0
M  V30 6710 H 656.879 1.94462 0.130538 0
M  V30 6711 H 655.975 2.78677 1.40518 0
M  V30 6712 N 656.276 -0.40816 1.52223 0
M  V30 6713 C 657.523 -1.15502 1.66329 0
M  V30 6714 C 657.851 -1.90474 0.393701 0
M  V30 6715 O 657.106 -1.85507 -0.623356 0
M  V30 6716 C 657.405 -2.17422 2.83659 0
M  V30 6717 C 657.071 -1.5925 4.21841 0
M  V30 6718 C 655.733 -1.4311 4.59427 0
M  V30 6719 C 658.085 -1.16776 5.0795 0
M  V30 6720 C 655.413 -0.830148 5.80797 0
M  V30 6721 C 657.765 -0.580988 6.29926 0
M  V30 6722 C 656.429 -0.406729 6.6626 0
M  V30 6723 H 655.699 -0.422653 0.608642 0
M  V30 6724 H 658.346 -0.442114 1.86327 0
M  V30 6725 H 656.651 -2.94861 2.58001 0
M  V30 6726 H 658.348 -2.75084 2.9177 0
M  V30 6727 H 654.938 -1.72796 3.92224 0
M  V30 6728 H 659.122 -1.28055 4.79495 0
M  V30 6729 H 654.378 -0.68316 6.07571 0
M  V30 6730 H 658.552 -0.243488 6.95974 0
M  V30 6731 H 656.179 0.0610366 7.60175 0
M  V30 6732 N 657.755 -1.42862 -0.66545 0
M  V30 6733 C 659.003 -1.43546 -1.42264 0
M  V30 6734 C 659.324 -0.0563116 -1.94919 0
M  V30 6735 O 658.594 0.906568 -1.73661 0
M  V30 6736 H 657.174 -0.528464 -0.527953 0
M  V30 6737 H 659.836 -1.78363 -0.785665 0
M  V30 6738 H 658.932 -2.14079 -2.27105 0
M  V30 6739 N 659.233 0.902656 -1.29189 0
M  V30 6740 C 660.165 2.01149 -1.09872 0
M  V30 6741 C 661.178 1.62732 -0.0471046 0
M  V30 6742 O 662.367 1.76107 -0.29132 0
M  V30 6743 C 659.467 3.32612 -0.649818 0
M  V30 6744 C 658.64 3.99574 -1.7793 0
M  V30 6745 C 657.699 5.09325 -1.32191 0
M  V30 6746 O 656.725 5.31919 -2.02611 0
M  V30 6747 N 657.927 5.80185 -0.191171 0
M  V30 6748 H 660.692 2.18276 -2.05368 0
M  V30 6749 H 658.253 1.07466 -1.2109 0
M  V30 6750 H 660.245 4.03375 -0.327199 0
M  V30 6751 H 658.815 3.11876 0.212597 0
M  V30 6752 H 658.035 3.22213 -2.27095 0
M  V30 6753 H 659.323 4.41056 -2.53668 0
M  V30 6754 H 658.721 5.64312 0.396016 0
M  V30 6755 H 657.278 6.5176 0.0721001 0
M  V30 6756 N 660.711 1.11618 1.11262 0
M  V30 6757 C 661.958 0.86618 1.8304 0
M  V30 6758 C 662.286 -0.608149 1.84748 0
M  V30 6759 O 661.541 -1.46508 1.29745 0
M  V30 6760 C 661.84 1.37529 3.2988 0
M  V30 6761 C 661.506 2.86317 3.4833 0
M  V30 6762 C 660.168 3.26945 3.53073 0
M  V30 6763 C 662.52 3.82136 3.54431 0
M  V30 6764 C 659.848 4.62117 3.61475 0
M  V30 6765 C 662.2 5.17128 3.64365 0
M  V30 6766 C 660.864 5.57312 3.67369 0
M  V30 6767 H 660.134 0.316958 0.66979 0
M  V30 6768 H 662.781 1.3949 1.31205 0
M  V30 6769 H 661.086 0.766842 3.84222 0
M  V30 6770 H 662.783 1.15817 3.83911 0
M  V30 6771 H 659.373 2.53889 3.45309 0
M  V30 6772 H 663.557 3.51847 3.50025 0
M  V30 6773 H 658.813 4.92655 3.62079 0
M  V30 6774 H 662.987 5.91208 3.68029 0
M  V30 6775 H 660.614 6.62045 3.73632 0
M  V30 6776 N 662.189 -1.289 0.906776 0
M  V30 6777 C 663.435 -1.95558 0.53712 0
M  V30 6778 C 663.768 -1.71262 -0.915582 0
M  V30 6779 O 663.043 -1.02961 -1.65013 0
M  V30 6780 C 663.326 -3.50198 0.838645 0
M  V30 6781 C 663.179 -3.83923 2.34357 0
M  V30 6782 C 664.498 -4.38861 0.329988 0
M  V30 6783 H 661.617 -0.710289 0.196617 0
M  V30 6784 H 664.259 -1.52392 1.13475 0
M  V30 6785 H 662.409 -3.87096 0.330024 0
M  V30 6786 H 664.081 -3.56933 2.92227 0
M  V30 6787 H 662.324 -3.31215 2.80141 0
M  V30 6788 H 662.995 -4.91883 2.5051 0
M  V30 6789 H 665.471 -4.08996 0.765609 0
M  V30 6790 H 664.347 -5.45931 0.570105 0
M  V30 6791 H 664.608 -4.35352 -0.769511 0
M  V30 6792 N 663.667 -0.670007 -1.42649 0
M  V30 6793 C 664.895 -0.19854 -2.05945 0
M  V30 6794 C 665.31 1.14243 -1.50313 0
M  V30 6795 O 664.667 1.70872 -0.641027 0
M  V30 6796 C 664.718 -0.11966 -3.61302 0
M  V30 6797 O 664.439 -1.40764 -4.1487 0
M  V30 6798 C 665.94 0.375878 -4.41704 0
M  V30 6799 H 663.16 -0.0976894 -0.663851 0
M  V30 6800 H 665.704 -0.915392 -1.82868 0
M  V30 6801 H 663.859 0.547851 -3.83507 0
M  V30 6802 H 664.273 -1.27784 -5.08696 0
M  V30 6803 H 665.747 0.379988 -5.50691 0
M  V30 6804 H 666.224 1.41028 -4.15942 0
M  V30 6805 H 666.83 -0.259727 -4.24506 0
M  V30 6806 N 665.145 1.52092 -0.413018 0
M  V30 6807 C 666.561 1.59471 -0.0640836 0
M  V30 6808 C 666.761 1.42562 1.42402 0
M  V30 6809 O 665.817 1.25453 2.19129 0
M  V30 6810 C 667.13 2.95392 -0.562474 0
M  V30 6811 C 668.678 3.08637 -0.520788 0
M  V30 6812 C 669.153 4.47044 -0.995752 0
M  V30 6813 N 670.644 4.53296 -0.952732 0
M  V30 6814 C 671.379 5.58669 -1.29138 0
M  V30 6815 N 670.875 6.71576 -1.70168 0
M  V30 6816 N 672.668 5.48898 -1.2111 0
M  V30 6817 H 664.819 1.6133 -1.38153 0
M  V30 6818 H 667.082 0.75916 -0.567785 0
M  V30 6819 H 666.788 3.13059 -1.60271 0
M  V30 6820 H 666.662 3.77191 0.0257875 0
M  V30 6821 H 669.049 2.90652 0.510412 0
M  V30 6822 H 669.13 2.28735 -1.14515 0
M  V30 6823 H 668.774 4.65773 -2.0253 0
M  V30 6824 H 668.704 5.25448 -0.348162 0
M  V30 6825 H 671.195 3.72248 -0.651119 0
M  V30 6826 H 671.508 7.47973 -1.9431 0
M  V30 6827 H 669.853 6.72847 -1.74075 0
M  V30 6828 H 673.044 4.59573 -0.889396 0
M  V30 6829 H 673.217 6.30912 -1.47833 0
M  V30 6830 N 666.623 0.143563 1.56945 0
M  V30 6831 C 668.039 -0.212877 1.58174 0
M  V30 6832 C 668.239 -1.64926 1.15766 0
M  V30 6833 O 667.295 -2.37535 0.856361 0
M  V30 6834 C 668.608 0.0427573 3.0067 0
M  V30 6835 C 670.156 -0.0212221 3.12993 0
M  V30 6836 C 670.631 0.207036 4.57532 0
M  V30 6837 N 672.122 0.153845 4.62944 0
M  V30 6838 C 672.857 0.305018 5.72588 0
M  V30 6839 N 672.353 0.513722 6.90893 0
M  V30 6840 N 674.146 0.242862 5.61575 0
M  V30 6841 H 666.297 1.08148 1.82805 0
M  V30 6842 H 668.56 0.427831 0.84597 0
M  V30 6843 H 668.266 1.03672 3.36073 0
M  V30 6844 H 668.14 -0.678195 3.71053 0
M  V30 6845 H 670.527 -1.00574 2.77433 0
M  V30 6846 H 670.608 0.732004 2.45103 0
M  V30 6847 H 670.252 1.18863 4.93795 0
M  V30 6848 H 670.182 -0.566473 5.23544 0
M  V30 6849 H 672.673 -0.00294866 3.779 0
M  V30 6850 H 672.986 0.619273 7.70315 0
M  V30 6851 H 671.331 0.550001 6.9282 0
M  V30 6852 H 674.522 0.0806015 4.68031 0
M  V30 6853 H 674.695 0.364112 6.46976 0
M  V30 6854 N 668.101 -1.57061 -0.130224 0
M  V30 6855 C 669.049 -2.00486 -1.17933 0
M  V30 6856 C 670.043 -0.899933 -1.43519 0
M  V30 6857 O 671.249 -1.08514 -1.43613 0
M  V30 6858 H 667.624 -0.638441 -0.397363 0
M  V30 6859 H 669.595 -2.87848 -0.786501 0
M  V30 6860 C 668.344 -2.41565 -2.50084 0
M  V30 6861 H 667.667 -3.26148 -2.31231 0
M  V30 6862 H 669.107 -2.75757 -3.22078 0
M  V30 6863 C 667.566 -1.27485 -3.11848 0
M  V30 6864 O 668.096 -0.584688 -3.97422 0
M  V30 6865 N 666.302 -1.03478 -2.71552 0
M  V30 6866 H 665.849 -1.59779 -2.02061 0
M  V30 6867 H 665.807 -0.27341 -3.13209 0
M  V30 6868 N 669.579 0.400081 -1.52437 0
M  V30 6869 C 670.809 1.16598 -1.70553 0
M  V30 6870 C 671.217 1.8451 -0.418665 0
M  V30 6871 O 670.56 1.73069 0.615855 0
M  V30 6872 C 670.622 2.26517 -2.7916 0
M  V30 6873 C 670.286 1.78666 -4.20628 0
M  V30 6874 C 671.283 1.26946 -5.04163 0
M  V30 6875 C 668.968 1.85225 -4.66902 0
M  V30 6876 C 670.962 0.824187 -6.32049 0
M  V30 6877 C 668.649 1.40309 -5.94774 0
M  V30 6878 C 669.647 0.889922 -6.77178 0
M  V30 6879 O 669.335 0.447281 -8.02655 0
M  V30 6880 H 669.067 0.356023 -0.574651 0
M  V30 6881 H 671.621 0.475598 -1.99818 0
M  V30 6882 H 669.851 2.98946 -2.45292 0
M  V30 6883 H 671.54 2.88237 -2.85787 0
M  V30 6884 H 672.306 1.21244 -4.69601 0
M  V30 6885 H 668.185 2.24111 -4.02859 0
M  V30 6886 H 671.729 0.422958 -6.96317 0
M  V30 6887 H 667.626 1.45693 -6.28843 0
M  V30 6888 H 668.394 0.569768 -8.16514 0
M  V30 6889 N 671.057 1.43213 0.657864 0
M  V30 6890 C 671.967 1.50448 1.80007 0
M  V30 6891 C 672.983 0.39191 1.69529 0
M  V30 6892 O 674.159 0.645349 1.90781 0
M  V30 6893 C 671.224 1.42062 3.16258 0
M  V30 6894 C 670.285 2.63951 3.38568 0
M  V30 6895 C 669.518 2.55956 4.68318 0
M  V30 6896 O 669.741 1.60473 5.47361 0
M  V30 6897 O 668.675 3.46378 4.92245 0
M  V30 6898 H 672.501 2.4689 1.76858 0
M  V30 6899 H 670.086 1.25163 0.81576 0
M  V30 6900 H 671.968 1.3981 3.97531 0
M  V30 6901 H 670.643 0.487524 3.20008 0
M  V30 6902 H 669.55 2.71776 2.57077 0
M  V30 6903 H 670.883 3.56217 3.39662 0
M  V30 6904 N 672.536 -0.895792 1.29666 0
M  V30 6905 C 673.499 -1.98189 1.15124 0
M  V30 6906 C 674.499 -1.60572 0.0855717 0
M  V30 6907 O 675.689 -1.70991 0.332826 0
M  V30 6908 C 672.821 -3.32289 0.761372 0
M  V30 6909 H 674.014 -2.12518 2.11603 0
M  V30 6910 H 671.567 -1.0808 1.12908 0
M  V30 6911 H 672.302 -3.23662 -0.203393 0
M  V30 6912 H 672.087 -3.60958 1.53139 0
M  V30 6913 H 673.577 -4.1198 0.682792 0
M  V30 6914 N 674.014 -1.12206 -1.10668 0
M  V30 6915 C 675.239 -0.898938 -1.86906 0
M  V30 6916 C 675.664 0.546346 -1.79991 0
M  V30 6917 O 675.022 1.38655 -1.1681 0
M  V30 6918 C 675.07 -1.37529 -3.33344 0
M  V30 6919 O 674.174 -0.55218 -4.08687 0
M  V30 6920 H 673.515 -0.323163 -0.580053 0
M  V30 6921 H 676.045 -1.49355 -1.39837 0
M  V30 6922 H 676.055 -1.3733 -3.84193 0
M  V30 6923 H 674.73 -2.42767 -3.37693 0
M  V30 6924 H 673.307 -0.620947 -3.67694 0
M  V30 6925 N 675.492 1.28418 -0.913599 0
M  V30 6926 C 676.439 2.27301 -0.400373 0
M  V30 6927 C 677.409 1.57582 0.52509 0
M  V30 6928 O 678.594 1.85482 0.447318 0
M  V30 6929 C 675.734 3.43284 0.35361 0
M  V30 6930 C 674.847 4.27752 -0.604341 0
M  V30 6931 C 673.982 5.30934 0.168075 0
M  V30 6932 C 673.021 6.07065 -0.783499 0
M  V30 6933 N 672.158 7.02086 -0.0446112 0
M  V30 6934 H 676.998 2.70579 -1.24865 0
M  V30 6935 H 674.535 1.33067 -0.627028 0
M  V30 6936 H 676.493 4.09322 0.806945 0
M  V30 6937 H 675.123 3.00997 1.16623 0
M  V30 6938 H 674.175 3.61759 -1.17621 0
M  V30 6939 H 675.487 4.80682 -1.33216 0
M  V30 6940 H 674.641 6.02855 0.681979 0
M  V30 6941 H 673.38 4.78771 0.928947 0
M  V30 6942 H 672.385 5.33995 -1.30878 0
M  V30 6943 H 673.61 6.61317 -1.54392 0
M  V30 6944 H 671.556 6.52273 0.698272 0
M  V30 6945 H 671.473 7.52637 -0.712258 0
M  V30 6946 H 672.741 7.78205 0.449102 0
M  V30 6947 O 677.009 0.816646 1.39331 0
M  V30 6948 H 677.7 0.396491 1.89599 0
M  V30 END ATOM
M  V30 BEGIN BOND
M  V30 END BOND
M  V30 END CTAB
M  END
$$$$
