drugbank_target|A8MPY1 Gamma-aminobutyric acid receptor subunit rho-3 (DB01567)
 OpenBabel12092120363D

  0  0  0     0  0            999 V3000
M  V30 BEGIN CTAB
M  V30 COUNTS 7592 7690 0 0 0
M  V30 BEGIN ATOM
M  V30 1 H -0.908 1.98254 -0.117106 0
M  V30 2 N 0 1.576 0 0
M  V30 3 C 0.933 2.03868 1.02534 0
M  V30 4 C 1.911 0.928543 1.3348 0
M  V30 5 O 3.095 1.19667 1.45644 0
M  V30 6 C 0.222 2.43627 2.35294 0
M  V30 7 C -0.732 3.65373 2.2001 0
M  V30 8 S 0.101 5.13292 1.52614 0
M  V30 9 C 1.257 5.56322 2.86805 0
M  V30 10 H 1.49 2.90518 0.631377 0
M  V30 11 H -0.977 1.52953 0.210867 0
M  V30 12 H 0.981 2.67203 3.11629 0
M  V30 13 H -0.358 1.57376 2.7183 0
M  V30 14 H -1.165 3.90944 3.18086 0
M  V30 15 H -1.563 3.418 1.51819 0
M  V30 16 H 0.729 5.58782 3.83104 0
M  V30 17 H 1.672 6.56266 2.65933 0
M  V30 18 H 2.08 4.83886 2.90714 0
M  V30 19 N 1.4781 -0.272755 1.55222 0
M  V30 20 C 2.7241 -1.00581 1.761 0
M  V30 21 C 3.0571 -1.85932 0.560625 0
M  V30 22 O 2.3321 -1.89416 -0.441801 0
M  V30 23 C 2.6151 -1.88816 3.06628 0
M  V30 24 C 2.4681 -1.06457 4.37021 0
M  V30 25 C 3.7871 -2.8752 3.33197 0
M  V30 26 H 0.9061 -0.364244 0.640699 0
M  V30 27 H 3.5481 -0.278189 1.87952 0
M  V30 28 H 1.6981 -2.50856 2.96654 0
M  V30 29 H 3.3701 -0.464863 4.58952 0
M  V30 30 H 1.6131 -0.368043 4.32236 0
M  V30 31 H 2.2841 -1.71514 5.24678 0
M  V30 32 H 4.7601 -2.35615 3.42965 0
M  V30 33 H 3.6361 -3.46399 4.25792 0
M  V30 34 H 3.8971 -3.62657 2.52849 0
M  V30 35 N 2.9562 -1.48159 -0.537278 0
M  V30 36 C 3.8862 -1.65029 -1.6519 0
M  V30 37 C 4.8672 -0.499281 -1.62607 0
M  V30 38 O 6.0522 -0.730972 -1.79918 0
M  V30 39 C 3.1822 -1.68303 -3.03795 0
M  V30 40 C 2.1362 -2.8283 -3.21234 0
M  V30 41 C 1.4622 -2.71189 -4.60826 0
M  V30 42 C 2.7622 -4.24211 -3.04701 0
M  V30 43 H 4.4562 -2.58341 -1.51328 0
M  V30 44 H 2.0022 -1.24325 -0.726585 0
M  V30 45 H 3.9552 -1.78693 -3.81637 0
M  V30 46 H 2.6792 -0.715635 -3.18663 0
M  V30 47 H 1.3382 -2.71983 -2.45807 0
M  V30 48 H 0.9862 -1.72435 -4.7252 0
M  V30 49 H 0.6862 -3.48035 -4.7344 0
M  V30 50 H 2.2102 -2.83537 -5.40777 0
M  V30 51 H 3.6242 -4.3593 -3.72341 0
M  V30 52 H 2.0212 -5.01998 -3.28813 0
M  V30 53 H 3.0912 -4.41184 -2.01209 0
M  V30 54 N 4.4343 0.785586 -1.36625 0
M  V30 55 C 5.3973 1.87999 -1.31107 0
M  V30 56 C 6.3973 1.59316 -0.217959 0
M  V30 57 O 7.5873 1.67656 -0.472977 0
M  V30 58 C 4.7193 3.24861 -1.03334 0
M  V30 59 H 5.9123 1.94307 -2.2844 0
M  V30 60 H 3.4653 0.983813 -1.21453 0
M  V30 61 H 4.2003 3.24235 -0.0647432 0
M  V30 62 H 3.9853 3.4707 -1.82441 0
M  V30 63 H 5.4753 4.04929 -1.02088 0
M  V30 64 N 5.9124 1.20967 1.01018 0
M  V30 65 C 7.1594 1.02374 1.74716 0
M  V30 66 C 7.4874 -0.443375 1.89379 0
M  V30 67 O 6.7424 -1.34535 1.42123 0
M  V30 68 C 7.0414 1.65997 3.16512 0
M  V30 69 C 6.7074 3.15831 3.2181 0
M  V30 70 C 5.3694 3.56719 3.22963 0
M  V30 71 C 7.7214 4.11816 3.19464 0
M  V30 72 C 5.0494 4.92107 3.19449 0
M  V30 73 C 7.4014 5.47158 3.17491 0
M  V30 74 C 6.0654 5.87451 3.16951 0
M  V30 75 H 5.3354 0.374614 0.639332 0
M  V30 76 H 7.9824 1.50485 1.18434 0
M  V30 77 H 6.2874 1.10166 3.75993 0
M  V30 78 H 7.9844 1.49119 3.72242 0
M  V30 79 H 4.5744 2.83263 3.21652 0
M  V30 80 H 8.7584 3.81257 3.17737 0
M  V30 81 H 4.0144 5.22579 3.17366 0
M  V30 82 H 8.1884 6.21274 3.14629 0
M  V30 83 H 5.8154 6.92329 3.13983 0
M  V30 84 N 7.3905 -1.2043 1.01659 0
M  V30 85 C 8.3225 -2.22626 0.544988 0
M  V30 86 C 9.3355 -1.58479 -0.372609 0
M  V30 87 O 10.5245 -1.77679 -0.170958 0
M  V30 88 C 7.6245 -3.38141 -0.22663 0
M  V30 89 C 6.7975 -4.31877 0.692876 0
M  V30 90 C 5.8565 -5.26191 -0.0311616 0
M  V30 91 O 4.8825 -5.6612 0.591343 0
M  V30 92 N 6.0845 -5.65618 -1.30601 0
M  V30 93 H 8.8495 -2.63716 1.42388 0
M  V30 94 H 6.4105 -1.34971 0.894116 0
M  V30 95 H 8.4025 -3.98239 -0.72024 0
M  V30 96 H 6.9725 -2.95943 -1.00681 0
M  V30 97 H 6.1925 -3.69746 1.36679 0
M  V30 98 H 7.4805 -4.91426 1.31824 0
M  V30 99 H 6.8785 -5.3519 -1.83269 0
M  V30 100 H 5.4355 -6.28025 -1.74435 0
M  V30 101 N 8.8686 -0.792821 -1.36206 0
M  V30 102 C 9.7986 -0.207853 -2.32573 0
M  V30 103 C 10.7796 0.659055 -1.56813 0
M  V30 104 O 11.9646 0.592176 -1.84951 0
M  V30 105 C 9.0946 0.655449 -3.41059 0
M  V30 106 C 8.0486 -0.111842 -4.27854 0
M  V30 107 C 7.3746 0.872274 -5.27537 0
M  V30 108 C 8.6746 -1.30299 -5.05786 0
M  V30 109 H 10.3686 -1.01294 -2.81744 0
M  V30 110 H 7.9146 -0.48854 -1.3546 0
M  V30 111 H 9.8676 1.07464 -4.07467 0
M  V30 112 H 8.5916 1.49328 -2.90463 0
M  V30 113 H 7.2506 -0.512053 -3.63006 0
M  V30 114 H 6.8986 1.70523 -4.73214 0
M  V30 115 H 6.5986 0.363291 -5.86476 0
M  V30 116 H 8.1226 1.28996 -5.96818 0
M  V30 117 H 9.5366 -0.959379 -5.65216 0
M  V30 118 H 7.9336 -1.7455 -5.74154 0
M  V30 119 H 9.0036 -2.09663 -4.37229 0
M  V30 120 N 10.3467 1.47872 -0.545128 0
M  V30 121 C 11.5927 2.02793 -0.0166104 0
M  V30 122 C 11.9257 1.41987 1.32489 0
M  V30 123 O 11.2007 0.571045 1.85928 0
M  V30 124 C 11.4837 3.59989 0.0893294 0
M  V30 125 C 11.3367 4.3125 -1.27841 0
M  V30 126 C 12.6557 4.32606 0.808724 0
M  V30 127 H 9.7747 0.736962 -0.00751035 0
M  V30 128 H 12.4167 1.76433 -0.705085 0
M  V30 129 H 10.5667 3.82579 0.675681 0
M  V30 130 H 12.2387 4.20035 -1.90704 0
M  V30 131 H 10.4817 3.92076 -1.85632 0
M  V30 132 H 11.1527 5.39736 -1.15713 0
M  V30 133 H 13.6287 4.14936 0.310992 0
M  V30 134 H 12.5047 5.42251 0.851782 0
M  V30 135 H 12.7657 4.00963 1.86229 0
M  V30 136 N 11.8248 0.280983 1.55075 0
M  V30 137 C 13.0498 -0.340154 2.04592 0
M  V30 138 C 13.4748 -1.48246 1.15779 0
M  V30 139 O 12.8328 -1.80614 0.15761 0
M  V30 140 C 12.8808 -0.793104 3.5177 0
M  V30 141 O 11.9848 -1.89981 3.66034 0
M  V30 142 H 11.3258 -0.0694289 0.66036 0
M  V30 143 H 13.8558 0.416993 2.00306 0
M  V30 144 H 13.8658 -1.08729 3.93245 0
M  V30 145 H 12.5408 0.0426163 4.15878 0
M  V30 146 H 11.1178 -1.60771 3.36463 0
M  V30 147 N 13.3029 -1.57598 0.00835791 0
M  V30 148 C 14.5499 -1.90928 -0.674732 0
M  V30 149 C 14.8779 -0.88277 -1.73313 0
M  V30 150 O 14.1329 0.111294 -1.95383 0
M  V30 151 C 14.4319 -3.3101 -1.34787 0
M  V30 152 C 14.0979 -4.48922 -0.421861 0
M  V30 153 C 12.7599 -4.8091 -0.166927 0
M  V30 154 C 15.1119 -5.20755 0.215211 0
M  V30 155 C 12.4399 -5.821 0.733232 0
M  V30 156 C 14.7919 -6.22905 1.1033 0
M  V30 157 C 13.4559 -6.53346 1.36733 0
M  V30 158 H 12.7259 -0.698656 -0.246902 0
M  V30 159 H 15.3729 -1.91387 0.0656779 0
M  V30 160 H 13.6779 -3.26714 -2.16253 0
M  V30 161 H 15.3749 -3.54061 -1.8826 0
M  V30 162 H 11.9649 -4.23934 -0.630729 0
M  V30 163 H 16.1489 -4.9629 0.0312829 0
M  V30 164 H 11.4049 -6.04042 0.945712 0
M  V30 165 H 15.5789 -6.77694 1.60325 0
M  V30 166 H 13.2059 -7.31573 2.06652 0
M  V30 167 N 14.781 0.264519 -1.55364 0
M  V30 168 C 16.009 1.013 -1.80405 0
M  V30 169 C 16.424 1.79618 -0.581622 0
M  V30 170 O 15.781 1.76879 0.449468 0
M  V30 171 C 15.832 1.96487 -3.03439 0
M  V30 172 O 15.553 1.21341 -4.20961 0
M  V30 173 C 17.054 2.83079 -3.41147 0
M  V30 174 H 14.274 0.298875 -0.600762 0
M  V30 175 H 16.818 0.292736 -2.02394 0
M  V30 176 H 14.973 2.63965 -2.83551 0
M  V30 177 H 15.387 1.85573 -4.90574 0
M  V30 178 H 16.861 3.4565 -4.30384 0
M  V30 179 H 17.338 3.53286 -2.60932 0
M  V30 180 H 17.944 2.2108 -3.63323 0
M  V30 181 N 16.2591 1.48442 0.529413 0
M  V30 182 C 17.4891 1.59919 1.30804 0
M  V30 183 C 17.8971 0.258792 1.87422 0
M  V30 184 O 17.2401 -0.762096 1.67146 0
M  V30 185 C 17.3021 2.58693 2.49636 0
M  V30 186 C 16.9661 4.03745 2.14101 0
M  V30 187 C 17.9631 4.9141 1.6974 0
M  V30 188 C 15.6481 4.49285 2.24607 0
M  V30 189 C 17.6421 6.22645 1.36351 0
M  V30 190 C 15.3291 5.8054 1.9083 0
M  V30 191 C 16.3271 6.67043 1.46773 0
M  V30 192 O 16.0151 7.95856 1.1344 0
M  V30 193 H 15.7471 0.541981 0.404021 0
M  V30 194 H 18.3011 1.95 0.645309 0
M  V30 195 H 16.5311 2.18734 3.18892 0
M  V30 196 H 18.2201 2.59999 3.11698 0
M  V30 197 H 18.9861 4.57465 1.61094 0
M  V30 198 H 14.8651 3.82142 2.57854 0
M  V30 199 H 18.4091 6.90119 1.01891 0
M  V30 200 H 14.3061 6.14022 1.99117 0
M  V30 201 H 15.0741 8.08613 1.26832 0
M  V30 202 N 17.7372 -0.778329 1.37039 0
M  V30 203 C 18.9862 -1.53189 1.3121 0
M  V30 204 C 19.2992 -1.95328 -0.103095 0
M  V30 205 O 20.5052 -2.70012 -0.283826 0
M  V30 206 C 18.9612 -2.76591 2.30272 0
M  V30 207 C 18.5692 -2.41577 3.77286 0
M  V30 208 C 20.3132 -3.5455 2.33441 0
M  V30 209 C 18.2202 -3.61441 4.68096 0
M  V30 210 H 17.1502 -0.5751 0.487622 0
M  V30 211 H 19.8012 -0.853101 1.62464 0
M  V30 212 H 18.1832 -3.46326 1.92027 0
M  V30 213 H 19.3572 -1.79668 4.2433 0
M  V30 214 H 17.6722 -1.76806 3.76999 0
M  V30 215 H 20.2692 -4.43628 2.98493 0
M  V30 216 H 20.6122 -3.93936 1.34611 0
M  V30 217 H 21.1452 -2.91805 2.7036 0
M  V30 218 H 17.8842 -3.27142 5.6803 0
M  V30 219 H 17.4042 -4.22478 4.25761 0
M  V30 220 H 19.0832 -4.28335 4.8491 0
M  V30 221 N 19.2153 -1.21501 -1.00376 0
M  V30 222 C 20.4613 -1.04457 -1.74529 0
M  V30 223 C 20.8163 0.417386 -1.87818 0
M  V30 224 O 20.1093 1.30556 -1.40234 0
M  V30 225 C 20.3033 -1.67673 -3.15627 0
M  V30 226 C 20.1323 -3.19865 -3.16096 0
M  V30 227 C 18.9023 -3.88915 -3.22604 0
M  V30 228 C 21.1003 -4.16936 -3.01112 0
M  V30 229 N 19.0823 -5.28284 -3.12712 0
M  V30 230 C 20.4533 -5.43066 -2.99131 0
M  V30 231 C 22.5083 -4.07968 -2.85423 0
M  V30 232 C 21.2113 -6.6126 -2.83068 0
M  V30 233 C 23.2373 -5.258 -2.70718 0
M  V30 234 C 22.5993 -6.50842 -2.69414 0
M  V30 235 H 18.6983 -0.436584 -0.648782 0
M  V30 236 H 21.2823 -1.53875 -1.19293 0
M  V30 237 H 19.4533 -1.20822 -3.6913 0
M  V30 238 H 21.1853 -1.43824 -3.78281 0
M  V30 239 H 17.9403 -3.39847 -3.2985 0
M  V30 240 H 18.3643 -6.01284 -3.11105 0
M  V30 241 H 23.0063 -3.1209 -2.85236 0
M  V30 242 H 20.7243 -7.57298 -2.82002 0
M  V30 243 H 24.3103 -5.20683 -2.59577 0
M  V30 244 H 23.1903 -7.40485 -2.5817 0
M  V30 245 N 20.6934 1.19889 -1.02296 0
M  V30 246 C 21.9424 1.88743 -0.711257 0
M  V30 247 C 22.2554 1.80112 0.762817 0
M  V30 248 O 23.4614 2.44161 1.18733 0
M  V30 249 C 21.9174 3.38525 -1.22185 0
M  V30 250 C 21.5254 3.55727 -2.72328 0
M  V30 251 C 23.2694 4.12893 -0.985864 0
M  V30 252 C 21.1764 4.99369 -3.16835 0
M  V30 253 H 20.1064 0.706885 -0.262353 0
M  V30 254 H 22.7574 1.35586 -1.23648 0
M  V30 255 H 21.1394 3.91044 -0.624571 0
M  V30 256 H 22.3134 3.13564 -3.3766 0
M  V30 257 H 20.6284 2.94739 -2.9414 0
M  V30 258 H 23.2254 5.18813 -1.29374 0
M  V30 259 H 23.5684 4.16228 0.0775055 0
M  V30 260 H 24.1014 3.66494 -1.54684 0
M  V30 261 H 20.8404 5.01193 -4.22476 0
M  V30 262 H 20.3604 5.42317 -2.56228 0
M  V30 263 H 22.0394 5.67988 -3.09837 0
M  V30 264 N 22.1715 0.800033 1.35784 0
M  V30 265 C 23.4205 0.37387 1.98205 0
M  V30 266 C 23.7335 -1.06302 1.64193 0
M  V30 267 O 24.9395 -1.59198 2.19928 0
M  V30 268 C 23.3955 0.617532 3.54562 0
M  V30 269 C 23.0035 2.06654 3.9749 0
M  V30 270 C 24.7475 0.256401 4.23725 0
M  V30 271 C 22.6545 2.2563 5.46667 0
M  V30 272 H 21.5845 0.136055 0.741623 0
M  V30 273 H 24.2355 0.983166 1.54939 0
M  V30 274 H 22.6175 -0.0616248 3.95952 0
M  V30 275 H 23.7915 2.78296 3.67271 0
M  V30 276 H 22.1065 2.38691 3.41197 0
M  V30 277 H 24.7035 0.376318 5.33374 0
M  V30 278 H 25.0465 -0.796692 4.08606 0
M  V30 279 H 25.5795 0.889214 3.87734 0
M  V30 280 H 22.3185 3.2936 5.66747 0
M  V30 281 H 21.8385 1.58504 5.78478 0
M  V30 282 H 23.5175 2.06861 6.1304 0
M  V30 283 N 23.6496 -1.47581 0.552962 0
M  V30 284 C 24.5796 -2.32762 -0.185451 0
M  V30 285 C 25.5606 -1.43527 -0.912905 0
M  V30 286 O 26.7456 -1.72388 -0.894201 0
M  V30 287 C 23.8756 -3.25219 -1.21859 0
M  V30 288 C 22.8296 -4.23661 -0.607864 0
M  V30 289 C 22.1556 -5.05413 -1.74533 0
M  V30 290 C 23.4556 -5.20481 0.435582 0
M  V30 291 H 25.1496 -2.94749 0.525684 0
M  V30 292 H 22.6956 -1.41738 0.254251 0
M  V30 293 H 24.6486 -3.8365 -1.7433 0
M  V30 294 H 23.3726 -2.61279 -1.95961 0
M  V30 295 H 22.0316 -3.66451 -0.104489 0
M  V30 296 H 21.6796 -4.3788 -2.47529 0
M  V30 297 H 21.3796 -5.72059 -1.34249 0
M  V30 298 H 22.9036 -5.66701 -2.27338 0
M  V30 299 H 24.3176 -5.733 -0.00290157 0
M  V30 300 H 22.7146 -5.95305 0.757067 0
M  V30 301 H 23.7846 -4.66217 1.33303 0
M  V30 302 N 25.1277 -0.289203 -1.54924 0
M  V30 303 C 26.0747 0.592115 -2.23075 0
M  V30 304 C 27.0447 1.13881 -1.20915 0
M  V30 305 O 28.2297 1.18551 -1.495 0
M  V30 306 C 25.3697 1.76376 -2.96623 0
M  V30 307 C 24.4827 1.24959 -4.13533 0
M  V30 308 C 23.6177 2.38416 -4.74691 0
M  V30 309 C 22.6567 1.84072 -5.83767 0
M  V30 310 N 21.7937 2.91057 -6.38929 0
M  V30 311 H 26.6337 0.00432038 -2.98 0
M  V30 312 H 24.1707 -0.00963529 -1.47097 0
M  V30 313 H 26.1287 2.45268 -3.3749 0
M  V30 314 H 24.7587 2.32337 -2.24097 0
M  V30 315 H 23.8107 0.453307 -3.77689 0
M  V30 316 H 25.1227 0.811662 -4.92152 0
M  V30 317 H 24.2767 3.15276 -5.18349 0
M  V30 318 H 23.0157 2.8553 -3.95378 0
M  V30 319 H 22.0207 1.05697 -5.39545 0
M  V30 320 H 23.2457 1.37877 -6.64956 0
M  V30 321 H 21.1917 3.37526 -5.62505 0
M  V30 322 H 21.1087 2.51724 -7.12861 0
M  V30 323 H 22.3767 3.6785 -6.87246 0
M  V30 324 N 26.6058 1.57591 -0.0167156 0
M  V30 325 C 28.0168 1.79201 0.523834 0
M  V30 326 C 28.3678 0.925796 1.72984 0
M  V30 327 O 27.4928 0.132792 2.15992 0
M  V30 328 C 28.0878 3.25 0.957091 0
M  V30 329 C 26.6468 3.47648 1.44283 0
M  V30 330 C 25.7938 2.74374 0.401757 0
M  V30 331 H 28.7448 1.56831 -0.242816 0
M  V30 332 H 28.7658 3.34031 1.82219 0
M  V30 333 H 28.2778 3.88019 0.0791415 0
M  V30 334 H 26.3788 2.89866 2.34113 0
M  V30 335 H 26.4918 4.56352 1.45877 0
M  V30 336 H 24.8558 2.39485 0.867121 0
M  V30 337 H 25.6388 3.40102 -0.467513 0
M  V30 338 N 28.0839 -0.256276 1.55502 0
M  V30 339 C 29.0319 -1.33694 1.90338 0
M  V30 340 C 30.0259 -1.50299 0.781441 0
M  V30 341 O 31.2319 -1.51885 0.965966 0
M  V30 342 H 27.6069 -0.447483 0.60437 0
M  V30 343 H 29.5779 -1.01574 2.8058 0
M  V30 344 C 28.3269 -2.68724 2.20642 0
M  V30 345 H 27.6499 -2.56743 3.06469 0
M  V30 346 H 29.0899 -3.43237 2.48926 0
M  V30 347 C 27.5489 -3.21101 1.01959 0
M  V30 348 O 28.0789 -4.0084 0.262762 0
M  V30 349 N 26.2849 -2.79003 0.812746 0
M  V30 350 H 25.8319 -2.14271 1.42989 0
M  V30 351 H 25.7899 -3.14393 0.0203076 0
M  V30 352 N 29.562 -1.4872 -0.521534 0
M  V30 353 C 30.808 -1.574 -1.27879 0
M  V30 354 C 31.141 -0.250817 -1.92573 0
M  V30 355 O 30.416 0.743934 -1.79711 0
M  V30 356 C 30.699 -2.71843 -2.36164 0
M  V30 357 C 30.552 -4.13893 -1.76105 0
M  V30 358 C 31.871 -2.82008 -3.37875 0
M  V30 359 H 28.99 -0.572941 -0.463581 0
M  V30 360 H 31.632 -1.80927 -0.580119 0
M  V30 361 H 29.782 -2.51914 -2.95756 0
M  V30 362 H 31.454 -4.45284 -1.20499 0
M  V30 363 H 29.697 -4.20498 -1.06601 0
M  V30 364 H 30.368 -4.89804 -2.5455 0
M  V30 365 H 32.844 -3.00086 -2.88249 0
M  V30 366 H 31.72 -3.63796 -4.11028 0
M  V30 367 H 31.981 -1.90511 -3.98946 0
M  V30 368 N 31.0401 0.771051 -1.3745 0
M  V30 369 C 32.2801 1.54264 -1.34096 0
M  V30 370 C 32.6441 1.91858 0.0737639 0
M  V30 371 O 33.8451 2.67797 0.23203 0
M  V30 372 C 32.1161 2.77326 -2.25445 0
M  V30 373 S 33.6751 3.67383 -2.39948 0
M  V30 374 H 30.4931 0.528122 -0.476034 0
M  V30 375 H 33.0951 0.906633 -1.73206 0
M  V30 376 H 31.7991 2.47788 -3.27153 0
M  V30 377 H 31.3301 3.45886 -1.87421 0
M  V30 378 H 33.3451 4.69334 -1.61059 0
M  V30 379 N 32.5182 1.22032 0.997298 0
M  V30 380 C 33.4812 0.987909 2.06816 0
M  V30 381 C 34.4812 -0.0440084 1.6074 0
M  V30 382 O 35.6712 0.194053 1.73116 0
M  V30 383 C 32.8032 0.49132 3.37341 0
M  V30 384 H 33.9962 1.93803 2.28868 0
M  V30 385 H 31.5492 1.03838 1.16822 0
M  V30 386 H 32.2842 -0.463364 3.20973 0
M  V30 387 H 32.0692 1.23575 3.72118 0
M  V30 388 H 33.5592 0.348824 4.16141 0
M  V30 389 N 33.9963 -1.19345 1.0293 0
M  V30 390 C 34.9593 -2.20793 0.615069 0
M  V30 391 C 35.9593 -1.57553 -0.321533 0
M  V30 392 O 37.1493 -1.73862 -0.108483 0
M  V30 393 C 34.2813 -3.40754 -0.0999222 0
M  V30 394 H 35.4743 -2.58955 1.51269 0
M  V30 395 H 33.0273 -1.3303 0.820534 0
M  V30 396 H 33.7623 -3.0811 -1.01187 0
M  V30 397 H 33.5473 -3.87889 0.57309 0
M  V30 398 H 35.0373 -4.15898 -0.376645 0
M  V30 399 N 35.4744 -0.807222 -1.35358 0
M  V30 400 C 36.6994 -0.399309 -2.0352 0
M  V30 401 C 37.1244 0.981986 -1.60433 0
M  V30 402 O 36.4824 1.63601 -0.781299 0
M  V30 403 C 36.5304 -0.491552 -3.57234 0
M  V30 404 O 35.6344 0.494754 -4.09421 0
M  V30 405 H 34.9754 -0.166682 -0.642739 0
M  V30 406 H 37.5054 -1.09328 -1.72941 0
M  V30 407 H 37.5154 -0.361588 -4.06395 0
M  V30 408 H 36.1904 -1.49907 -3.87944 0
M  V30 409 H 34.7674 0.324977 -3.71481 0
M  V30 410 N 36.9525 1.47285 -0.560781 0
M  V30 411 C 37.9005 2.31756 0.197942 0
M  V30 412 C 38.8945 1.43146 0.905854 0
M  V30 413 O 40.1005 1.59891 0.826733 0
M  V30 414 H 36.4755 0.747438 0.0827049 0
M  V30 415 H 38.4465 2.9359 -0.533629 0
M  V30 416 C 37.1955 3.25874 1.21249 0
M  V30 417 H 36.5185 3.94023 0.67719 0
M  V30 418 H 37.9585 3.87803 1.71419 0
M  V30 419 C 36.4175 2.49651 2.26221 0
M  V30 420 O 36.9475 2.24355 3.33208 0
M  V30 421 N 35.1535 2.10597 2.00243 0
M  V30 422 H 34.7005 2.31369 1.13252 0
M  V30 423 H 34.6585 1.59913 2.70694 0
M  V30 424 N 38.4306 0.297415 1.54768 0
M  V30 425 C 39.6796 -0.313669 1.99246 0
M  V30 426 C 39.9926 -1.55281 1.18942 0
M  V30 427 O 41.1986 -2.23825 1.5367 0
M  V30 428 C 39.6546 -0.609407 3.54703 0
M  V30 429 C 39.2626 0.611192 4.43811 0
M  V30 430 C 41.0066 -1.18188 4.07715 0
M  V30 431 C 38.9136 0.288805 5.90694 0
M  V30 432 H 37.8436 -0.120979 0.744231 0
M  V30 433 H 40.4946 0.40556 1.78962 0
M  V30 434 H 38.8766 -1.38813 3.70873 0
M  V30 435 H 40.0506 1.3875 4.39414 0
M  V30 436 H 38.3656 1.10205 4.01552 0
M  V30 437 H 40.9626 -1.43727 5.15021 0
M  V30 438 H 41.3056 -2.12299 3.58099 0
M  V30 439 H 41.8386 -0.464944 3.95074 0
M  V30 440 H 38.5776 1.19838 6.44453 0
M  V30 441 H 38.0976 -0.450305 5.98107 0
M  V30 442 H 39.7766 -0.110933 6.46905 0
M  V30 443 N 39.9087 -1.5758 0.0250728 0
M  V30 444 C 40.8557 -2.09973 -0.958129 0
M  V30 445 C 41.8257 -1.00085 -1.3256 0
M  V30 446 O 43.0107 -1.27481 -1.41962 0
M  V30 447 C 40.1507 -2.62812 -2.2366 0
M  V30 448 C 39.2637 -3.86693 -1.92594 0
M  V30 449 C 38.3987 -4.27941 -3.14707 0
M  V30 450 C 37.4377 -5.44591 -2.79442 0
M  V30 451 N 36.5747 -5.81014 -3.94167 0
M  V30 452 H 41.4147 -2.937 -0.504428 0
M  V30 453 H 38.9517 -1.45172 -0.237392 0
M  V30 454 H 40.9097 -2.91536 -2.98434 0
M  V30 455 H 39.5397 -1.81922 -2.66654 0
M  V30 456 H 38.5917 -3.64723 -1.0808 0
M  V30 457 H 39.9037 -4.71547 -1.62619 0
M  V30 458 H 39.0577 -4.58079 -3.97804 0
M  V30 459 H 37.7967 -3.41845 -3.4784 0
M  V30 460 H 36.8017 -5.1415 -1.94755 0
M  V30 461 H 38.0267 -6.32382 -2.47528 0
M  V30 462 H 35.9727 -4.97874 -4.2715 0
M  V30 463 H 35.8897 -6.60498 -3.67801 0
M  V30 464 H 37.1577 -6.15756 -4.7798 0
M  V30 465 N 41.3868 0.248026 -1.55636 0
M  V30 466 C 42.3198 1.3334 -1.85191 0
M  V30 467 C 43.2978 1.46429 -0.706906 0
M  V30 468 O 44.4818 1.62662 -0.952544 0
M  V30 469 C 41.6088 2.70703 -2.03562 0
M  V30 470 C 40.6548 2.7477 -3.26196 0
M  V30 471 S 41.4878 2.31493 -4.82878 0
M  V30 472 C 42.6438 3.70783 -5.04253 0
M  V30 473 H 42.8768 1.08072 -2.76962 0
M  V30 474 H 40.4098 0.448952 -1.47729 0
M  V30 475 H 42.3678 3.49798 -2.1483 0
M  V30 476 H 41.0288 2.9321 -1.12635 0
M  V30 477 H 40.2218 3.75648 -3.36013 0
M  V30 478 H 39.8238 2.03719 -3.13647 0
M  V30 479 H 42.1158 4.6627 -4.91527 0
M  V30 480 H 43.0588 3.65901 -6.06236 0
M  V30 481 H 43.4668 3.63244 -4.32105 0
M  V30 482 N 42.8649 1.48995 0.513639 0
M  V30 483 C 44.0929 1.61531 1.29288 0
M  V30 484 C 44.5079 0.281801 1.86685 0
M  V30 485 O 43.8649 -0.731111 1.67215 0
M  V30 486 C 43.9159 2.67449 2.43215 0
M  V30 487 O 43.6369 3.95626 1.88179 0
M  V30 488 C 45.1379 2.90575 3.34785 0
M  V30 489 H 42.3579 0.544165 0.392588 0
M  V30 490 H 44.9019 1.9494 0.617956 0
M  V30 491 H 43.0569 2.36853 3.0656 0
M  V30 492 H 43.4709 4.53868 2.62876 0
M  V30 493 H 44.9449 3.68449 4.11035 0
M  V30 494 H 45.4219 2.00011 3.91015 0
M  V30 495 H 46.0279 3.22538 2.77218 0
M  V30 496 N 44.343 -0.763751 1.37857 0
M  V30 497 C 45.293 -1.86765 1.30777 0
M  V30 498 C 46.277 -1.59726 0.194015 0
M  V30 499 O 47.469 -1.7172 0.42911 0
M  V30 500 C 44.598 -3.24343 1.12502 0
M  V30 501 C 43.684 -3.57307 2.28456 0
M  V30 502 N 44.075 -3.61398 3.53871 0
M  V30 503 C 42.373 -3.87517 2.20786 0
M  V30 504 C 43.074 -3.91339 4.30382 0
M  V30 505 N 42.05 -4.07649 3.59615 0
M  V30 506 H 45.852 -1.88191 2.25746 0
M  V30 507 H 43.366 -0.9606 1.30944 0
M  V30 508 H 45.363 -4.03327 1.05514 0
M  V30 509 H 44.023 -3.24175 0.184574 0
M  V30 510 H 45.034 -3.43407 3.87675 0
M  V30 511 H 41.711 -3.95125 1.34844 0
M  V30 512 H 43.101 -4.01213 5.3896 0
M  V30 513 N 45.8211 -1.22559 -0.990812 0
M  V30 514 C 46.7531 -0.955325 -2.08342 0
M  V30 515 C 47.7661 0.0668408 -1.62663 0
M  V30 516 O 48.9551 -0.167421 -1.77713 0
M  V30 517 C 46.0551 -0.415566 -3.36342 0
M  V30 518 C 45.2281 -1.49544 -4.11042 0
M  V30 519 C 44.2871 -0.962399 -5.17324 0
M  V30 520 O 43.3131 -1.64907 -5.44788 0
M  V30 521 N 44.5151 0.215134 -5.80101 0
M  V30 522 H 47.2801 -1.89596 -2.32106 0
M  V30 523 H 44.8411 -1.13276 -1.15673 0
M  V30 524 H 46.8331 -0.0442386 -4.04676 0
M  V30 525 H 45.4031 0.430232 -3.09625 0
M  V30 526 H 44.6231 -2.04 -3.37309 0
M  V30 527 H 45.9111 -2.22195 -4.57719 0
M  V30 528 H 45.3091 0.789779 -5.6016 0
M  V30 529 H 43.8661 0.527826 -6.49659 0
M  V30 530 N 47.2992 1.18797 -1.03562 0
M  V30 531 C 48.7152 1.40671 -0.753917 0
M  V30 532 C 48.9152 1.9043 0.658686 0
M  V30 533 O 47.9712 2.08538 1.42366 0
M  V30 534 C 49.2842 2.41192 -1.79574 0
M  V30 535 C 50.8322 2.54928 -1.81606 0
M  V30 536 C 51.3072 3.58709 -2.84766 0
M  V30 537 N 52.7982 3.66212 -2.83625 0
M  V30 538 C 53.5332 4.46225 -3.60098 0
M  V30 539 N 53.0292 5.29888 -4.46308 0
M  V30 540 N 54.8222 4.40939 -3.4861 0
M  V30 541 H 46.9732 0.848221 -1.94728 0
M  V30 542 H 49.2362 0.435081 -0.842264 0
M  V30 543 H 48.9422 2.11669 -2.80872 0
M  V30 544 H 48.8162 3.40467 -1.62365 0
M  V30 545 H 51.2032 2.83771 -0.809817 0
M  V30 546 H 51.2842 1.55784 -2.02891 0
M  V30 547 H 50.9282 3.30607 -3.85566 0
M  V30 548 H 50.8582 4.57519 -2.60737 0
M  V30 549 H 53.3492 3.06466 -2.21105 0
M  V30 550 H 53.6622 5.88078 -5.01382 0
M  V30 551 H 52.0072 5.29326 -4.50377 0
M  V30 552 H 55.1982 3.74624 -2.80668 0
M  V30 553 H 55.3712 5.03056 -4.08459 0
M  V30 554 N 48.7773 0.814389 1.34928 0
M  V30 555 C 50.0173 0.404165 2.00364 0
M  V30 556 C 50.3813 -1.01166 1.63185 0
M  V30 557 O 51.5823 -1.52431 2.21401 0
M  V30 558 C 49.8533 0.590718 3.52484 0
M  V30 559 S 51.4123 0.272075 4.37956 0
M  V30 560 H 48.2303 0.15311 0.694319 0
M  V30 561 H 50.8323 1.05834 1.64376 0
M  V30 562 H 49.5363 1.62099 3.77031 0
M  V30 563 H 49.0673 -0.0785013 3.93322 0
M  V30 564 H 51.0823 -0.917405 4.87645 0
M  V30 565 N 50.2554 -1.46986 0.568584 0
M  V30 566 C 51.4804 -2.07335 0.0520528 0
M  V30 567 C 51.9054 -1.41675 -1.23733 0
M  V30 568 O 51.2634 -0.495623 -1.74394 0
M  V30 569 C 51.3114 -3.60417 -0.11501 0
M  V30 570 O 50.4154 -3.95309 -1.17492 0
M  V30 571 H 49.7564 -0.661597 0.0564385 0
M  V30 572 H 52.2864 -1.88837 0.787507 0
M  V30 573 H 52.2964 -4.06698 -0.325644 0
M  V30 574 H 50.9714 -4.07601 0.826675 0
M  V30 575 H 49.5484 -3.60757 -0.943869 0
M  V30 576 N 51.7335 -0.305618 -1.54608 0
M  V30 577 C 52.9585 0.307562 -2.05107 0
M  V30 578 C 53.3835 1.46385 -1.18123 0
M  V30 579 O 52.7415 1.8034 -0.186324 0
M  V30 580 C 52.7895 0.73704 -3.52987 0
M  V30 581 O 51.8935 1.84134 -3.6901 0
M  V30 582 H 51.2345 0.0589143 -0.661381 0
M  V30 583 H 53.7645 -0.448807 -1.99617 0
M  V30 584 H 53.7745 1.02459 -3.94925 0
M  V30 585 H 52.4495 -0.108773 -4.15758 0
M  V30 586 H 51.0265 1.55398 -3.38978 0
M  V30 587 N 53.2116 1.57565 -0.0334293 0
M  V30 588 C 54.4366 1.96689 0.657895 0
M  V30 589 C 54.8616 0.910057 1.64619 0
M  V30 590 O 54.2196 -0.128598 1.80843 0
M  V30 591 C 54.2676 3.34905 1.33683 0
M  V30 592 O 53.3716 3.31574 2.45219 0
M  V30 593 H 52.7126 0.641205 0.172489 0
M  V30 594 H 55.2426 2.04372 -0.0965621 0
M  V30 595 H 55.2526 3.71234 1.69262 0
M  V30 596 H 53.9276 4.11366 0.612411 0
M  V30 597 H 52.5046 3.06968 2.11719 0
M  V30 598 N 54.6897 -0.239769 1.55765 0
M  V30 599 C 55.6227 -1.32356 1.85895 0
M  V30 600 C 56.6007 -1.46053 0.714662 0
M  V30 601 O 57.7847 -1.62154 0.961157 0
M  V30 602 C 54.9117 -2.6962 2.04994 0
M  V30 603 C 53.9577 -2.73036 3.27648 0
M  V30 604 S 54.7907 -2.28929 4.84099 0
M  V30 605 C 55.9467 -3.68103 5.06212 0
M  V30 606 H 56.1797 -1.06601 2.77531 0
M  V30 607 H 53.7127 -0.441112 1.47965 0
M  V30 608 H 55.6707 -3.48653 2.16682 0
M  V30 609 H 54.3317 -2.92609 1.14188 0
M  V30 610 H 53.5247 -3.7386 3.38 0
M  V30 611 H 53.1267 -2.02052 3.14723 0
M  V30 612 H 55.4187 -4.63656 4.93993 0
M  V30 613 H 56.3617 -3.6268 6.08168 0
M  V30 614 H 56.7697 -3.60947 4.34025 0
M  V30 615 N 56.1678 -1.49265 -0.50573 0
M  V30 616 C 57.1148 -1.65585 -1.6078 0
M  V30 617 C 58.0848 -0.497396 -1.58478 0
M  V30 618 O 59.2698 -0.72385 -1.76536 0
M  V30 619 C 56.4098 -1.72408 -2.98948 0
M  V30 620 C 55.5228 -2.99525 -3.11301 0
M  V30 621 C 54.6578 -2.97356 -4.40174 0
M  V30 622 C 53.6968 -4.19074 -4.46143 0
M  V30 623 N 52.8338 -4.14841 -5.66437 0
M  V30 624 H 57.6738 -2.59688 -1.46172 0
M  V30 625 H 55.2108 -1.28761 -0.711261 0
M  V30 626 H 57.1688 -1.74344 -3.79025 0
M  V30 627 H 55.7988 -0.817753 -3.1227 0
M  V30 628 H 54.8508 -3.07222 -2.24318 0
M  V30 629 H 56.1628 -3.89518 -3.11572 0
M  V30 630 H 55.3168 -2.97829 -5.28567 0
M  V30 631 H 54.0558 -2.05133 -4.42461 0
M  V30 632 H 53.0608 -4.1885 -3.56153 0
M  V30 633 H 54.2858 -5.12483 -4.45575 0
M  V30 634 H 52.2318 -3.25453 -5.69575 0
M  V30 635 H 52.1488 -4.98564 -5.68304 0
M  V30 636 H 53.4168 -4.1941 -6.57051 0
M  V30 637 N 57.6459 0.756429 -1.3826 0
M  V30 638 C 58.5779 1.87971 -1.31147 0
M  V30 639 C 59.5909 1.61248 -0.224239 0
M  V30 640 O 60.7799 1.71881 -0.481581 0
M  V30 641 C 57.8799 3.23545 -1.00857 0
M  V30 642 C 57.0529 3.77794 -2.20432 0
M  V30 643 C 56.1119 4.91877 -1.86931 0
M  V30 644 O 55.1379 5.06659 -2.59395 0
M  V30 645 N 56.3399 5.74643 -0.822568 0
M  V30 646 H 59.1049 1.94585 -2.2794 0
M  V30 647 H 56.6659 0.936234 -1.32084 0
M  V30 648 H 58.6579 3.97403 -0.765021 0
M  V30 649 H 57.2279 3.12335 -0.128687 0
M  V30 650 H 56.4479 2.95534 -2.6087 0
M  V30 651 H 57.7359 4.10771 -3.00241 0
M  V30 652 H 57.1339 5.65266 -0.221575 0
M  V30 653 H 55.6909 6.48661 -0.638899 0
M  V30 654 N 59.124 1.23083 0.984299 0
M  V30 655 C 60.352 1.08714 1.76037 0
M  V30 656 C 60.767 -0.361691 1.85303 0
M  V30 657 O 60.124 -1.25034 1.32939 0
M  V30 658 C 60.175 1.70206 3.18923 0
M  V30 659 O 59.896 3.09423 3.10144 0
M  V30 660 C 61.397 1.61227 4.12941 0
M  V30 661 H 58.617 0.380664 0.552572 0
M  V30 662 H 61.161 1.62853 1.23689 0
M  V30 663 H 59.316 1.20109 3.6831 0
M  V30 664 H 59.73 3.39188 4.00065 0
M  V30 665 H 61.204 2.08962 5.10919 0
M  V30 666 H 61.681 0.570375 4.35481 0
M  V30 667 H 62.287 2.10671 3.69456 0
M  V30 668 N 60.6021 -1.18246 1.0419 0
M  V30 669 C 61.8421 -1.89948 0.754916 0
M  V30 670 C 62.2061 -1.78608 -0.70451 0
M  V30 671 O 63.4071 -2.4503 -1.10516 0
M  V30 672 C 61.6781 -3.36305 1.20969 0
M  V30 673 S 63.2371 -4.26088 1.04854 0
M  V30 674 H 60.0551 -0.655897 0.274446 0
M  V30 675 H 62.6571 -1.42873 1.33445 0
M  V30 676 H 61.3611 -3.42089 2.26722 0
M  V30 677 H 60.8921 -3.8842 0.624004 0
M  V30 678 H 62.9071 -4.96189 -0.0332896 0
M  V30 679 N 62.0802 -0.821533 -1.34494 0
M  V30 680 C 63.0272 -0.240397 -2.29545 0
M  V30 681 C 63.9972 0.634031 -1.53523 0
M  V30 682 O 65.1822 0.575966 -1.81899 0
M  V30 683 C 62.3222 0.592869 -3.39969 0
M  V30 684 C 61.4352 -0.30365 -4.30932 0
M  V30 685 C 60.5702 0.539049 -5.28458 0
M  V30 686 C 59.6092 -0.356942 -6.11058 0
M  V30 687 N 58.7462 0.446603 -7.00678 0
M  V30 688 H 63.5862 -1.05632 -2.7865 0
M  V30 689 H 61.1232 -0.532413 -1.37127 0
M  V30 690 H 63.0812 1.09129 -4.02675 0
M  V30 691 H 61.7112 1.37392 -2.92102 0
M  V30 692 H 60.7632 -0.920276 -3.691 0
M  V30 693 H 62.0752 -0.992661 -4.88823 0
M  V30 694 H 61.2292 1.102 -5.96608 0
M  V30 695 H 59.9682 1.26157 -4.71101 0
M  V30 696 H 58.9732 -0.932047 -5.41842 0
M  V30 697 H 60.1982 -1.07755 -6.70497 0
M  V30 698 H 58.1442 1.15282 -6.45791 0
M  V30 699 H 58.0612 -0.184048 -7.55776 0
M  V30 700 H 59.3292 0.992352 -7.73158 0
M  V30 701 N 63.5583 1.46682 -0.576371 0
M  V30 702 C 64.4903 2.28341 0.198231 0
M  V30 703 C 65.5033 1.38141 0.861453 0
M  V30 704 O 66.6923 1.62797 0.732082 0
M  V30 705 C 63.7923 3.12986 1.29972 0
M  V30 706 C 62.9653 4.31271 0.729639 0
M  V30 707 C 62.0243 4.97363 1.71803 0
M  V30 708 O 61.0503 5.55156 1.25658 0
M  V30 709 N 62.2523 4.93796 3.05198 0
M  V30 710 H 65.0173 2.9546 -0.502324 0
M  V30 711 H 62.5783 1.56525 -0.413715 0
M  V30 712 H 64.5703 3.54066 1.96008 0
M  V30 713 H 63.1403 2.47984 1.90323 0
M  V30 714 H 62.3603 3.94052 -0.108012 0
M  V30 715 H 63.6483 5.07739 0.328438 0
M  V30 716 H 63.0463 4.48077 3.45317 0
M  V30 717 H 61.6033 5.38837 3.6674 0
M  V30 718 N 65.0364 0.313813 1.54444 0
M  V30 719 C 65.9464 -0.565714 2.27677 0
M  V30 720 C 66.9624 -1.13754 1.31666 0
M  V30 721 O 68.1384 -1.15959 1.64668 0
M  V30 722 C 65.2034 -1.71528 3.01296 0
M  V30 723 C 64.2644 -1.17624 4.12872 0
M  V30 724 C 63.4974 -2.27102 4.8297 0
M  V30 725 O 63.7204 -3.47256 4.52514 0
M  V30 726 O 62.6544 -1.9307 5.70094 0
M  V30 727 H 66.4804 0.0287296 3.03686 0
M  V30 728 H 64.0654 0.0798312 1.49187 0
M  V30 729 H 65.9474 -2.38476 3.4743 0
M  V30 730 H 64.6224 -2.29608 2.2817 0
M  V30 731 H 63.5294 -0.472124 3.71109 0
M  V30 732 H 64.8624 -0.640695 4.88012 0
M  V30 733 N 66.5145 -1.57545 0.0417849 0
M  V30 734 C 67.7425 -1.96624 -0.643928 0
M  V30 735 C 68.1575 -0.918897 -1.64929 0
M  V30 736 O 67.5145 0.0979323 -1.82237 0
M  V30 737 C 67.5655 -3.35781 -1.33914 0
M  V30 738 O 67.2865 -4.365 -0.374048 0
M  V30 739 C 68.7875 -3.89566 -2.1155 0
M  V30 740 H 66.0075 -0.647316 -0.176702 0
M  V30 741 H 68.5515 -2.04229 0.105304 0
M  V30 742 H 66.7065 -3.29357 -2.03968 0
M  V30 743 H 67.1205 -5.17248 -0.869179 0
M  V30 744 H 68.5945 -4.89242 -2.55628 0
M  V30 745 H 69.0715 -3.24488 -2.9598 0
M  V30 746 H 69.6775 -3.99298 -1.46427 0
M  V30 747 N 67.9926 0.231505 -1.5589 0
M  V30 748 C 69.4086 0.580748 -1.48659 0
M  V30 749 C 69.6086 1.87617 -0.73498 0
M  V30 750 O 68.6646 2.51046 -0.270586 0
M  V30 751 C 69.9776 0.669202 -2.93159 0
M  V30 752 C 71.5256 0.760499 -3.03621 0
M  V30 753 C 72.0006 0.880383 -4.49459 0
M  V30 754 N 73.4916 0.944861 -4.53461 0
M  V30 755 C 74.2266 1.05716 -5.63571 0
M  V30 756 N 73.7226 1.13403 -6.83456 0
M  V30 757 N 75.5156 1.09152 -5.514 0
M  V30 758 H 67.6666 -0.618695 -2.03189 0
M  V30 759 H 69.9296 -0.215728 -0.923128 0
M  V30 760 H 69.6356 -0.212904 -3.51055 0
M  V30 761 H 69.5096 1.5361 -3.44505 0
M  V30 762 H 71.8966 1.63305 -2.45796 0
M  V30 763 H 71.9776 -0.131864 -2.5546 0
M  V30 764 H 71.6216 0.0123284 -5.07899 0
M  V30 765 H 71.5516 1.78802 -4.95316 0
M  V30 766 H 74.0426 0.896176 -3.6712 0
M  V30 767 H 74.3556 1.21921 -7.63122 0
M  V30 768 H 72.7006 1.10333 -6.86186 0
M  V30 769 H 75.8916 1.02805 -4.56671 0
M  V30 770 H 76.0646 1.17558 -6.37247 0
M  V30 771 N 69.4707 1.49531 0.497807 0
M  V30 772 C 70.4037 1.61043 1.6168 0
M  V30 773 C 71.3817 0.459386 1.55976 0
M  V30 774 O 72.5657 0.675358 1.75986 0
M  V30 775 C 69.6927 1.56833 3.00202 0
M  V30 776 C 68.7387 2.77173 3.24156 0
M  V30 777 S 69.5717 4.38808 3.06933 0
M  V30 778 C 70.7277 4.37248 4.47845 0
M  V30 779 H 70.9607 2.55702 1.51671 0
M  V30 780 H 68.4937 1.38462 0.683201 0
M  V30 781 H 70.4517 1.55089 3.80076 0
M  V30 782 H 69.1127 0.634561 3.07623 0
M  V30 783 H 68.3057 2.70456 4.25288 0
M  V30 784 H 67.9077 2.76346 2.5201 0
M  V30 785 H 70.1997 4.09164 5.39992 0
M  V30 786 H 71.1427 5.38668 4.59612 0
M  V30 787 H 71.5507 3.67286 4.28674 0
M  V30 788 N 70.9488 -0.749086 1.3866 0
M  V30 789 C 71.8958 -1.86291 1.36251 0
M  V30 790 C 72.8658 -1.64578 0.224347 0
M  V30 791 O 74.0508 -1.86181 0.417279 0
M  V30 792 C 71.1908 -3.23644 1.19786 0
M  V30 793 C 70.3038 -3.57158 2.43027 0
M  V30 794 C 69.4388 -4.83838 2.19258 0
M  V30 795 C 68.4778 -5.10152 3.38247 0
M  V30 796 N 67.6148 -6.28029 3.13884 0
M  V30 797 H 72.4548 -1.87685 2.3147 0
M  V30 798 H 69.9918 -0.917287 1.14997 0
M  V30 799 H 71.9498 -4.0291 1.08254 0
M  V30 800 H 70.5798 -3.21566 0.282031 0
M  V30 801 H 69.6318 -2.72701 2.65214 0
M  V30 802 H 70.9438 -3.7253 3.31697 0
M  V30 803 H 70.0978 -5.71057 2.04888 0
M  V30 804 H 68.8368 -4.70614 1.2796 0
M  V30 805 H 67.8418 -4.21401 3.53131 0
M  V30 806 H 69.0668 -5.25271 4.30427 0
M  V30 807 H 67.0128 -6.1612 2.25238 0
M  V30 808 H 66.9298 -6.43922 3.96106 0
M  V30 809 H 68.1978 -7.18124 3.03179 0
M  V30 810 N 72.4269 -1.23603 -0.977757 0
M  V30 811 C 73.3739 -1.01954 -2.07061 0
M  V30 812 C 74.3439 0.0638697 -1.65977 0
M  V30 813 O 75.5289 -0.0887624 -1.90593 0
M  V30 814 C 72.6689 -0.619658 -3.39491 0
M  V30 815 C 71.7819 -1.77547 -3.93829 0
M  V30 816 C 70.9169 -1.32212 -5.14484 0
M  V30 817 C 69.9559 -2.44852 -5.60994 0
M  V30 818 N 69.0929 -2.00456 -6.72876 0
M  V30 819 H 73.9329 -1.95495 -2.24913 0
M  V30 820 H 71.4699 -0.973861 -1.10247 0
M  V30 821 H 73.4279 -0.368898 -4.15566 0
M  V30 822 H 72.0579 0.278752 -3.21594 0
M  V30 823 H 71.1099 -2.14016 -3.14486 0
M  V30 824 H 72.4219 -2.62219 -4.24314 0
M  V30 825 H 71.5759 -1.02965 -5.97899 0
M  V30 826 H 70.3149 -0.445808 -4.85658 0
M  V30 827 H 69.3199 -2.74871 -4.76157 0
M  V30 828 H 70.5449 -3.33024 -5.91837 0
M  V30 829 H 68.4909 -1.15208 -6.45804 0
M  V30 830 H 68.4079 -2.78687 -7.02759 0
M  V30 831 H 69.6759 -1.7432 -7.59758 0
M  V30 832 N 73.905 1.17692 -1.04816 0
M  V30 833 C 75.182 1.83768 -0.669963 0
M  V30 834 C 75.562 1.93232 0.849986 0
M  V30 835 O 74.91 1.46397 1.75443 0
M  V30 836 C 75.12 3.21641 -1.35455 0
M  V30 837 C 76.468 3.97592 -1.49017 0
M  V30 838 O 77.492 3.31107 -1.31326 0
M  V30 839 O 76.351 5.16729 -1.77914 0
M  V30 840 H 73.445 0.792799 -0.235368 0
M  V30 841 H 75.991 1.25021 -1.14751 0
M  V30 842 H 74.763 3.097 -2.39168 0
M  V30 843 H 74.386 3.88052 -0.866107 0
M  V30 844 N 75.3831 0.828654 1.34056 0
M  V30 845 C 76.6601 0.341809 1.9259 0
M  V30 846 C 77.0401 -1.17158 1.75605 0
M  V30 847 O 76.3881 -1.98132 1.13824 0
M  V30 848 C 76.5981 0.777453 3.4023 0
M  V30 849 C 77.9461 0.779579 4.17382 0
M  V30 850 O 78.9701 0.7204 3.48839 0
M  V30 851 O 77.8291 0.857996 5.39723 0
M  V30 852 H 74.9231 0.0946085 0.821571 0
M  V30 853 H 77.4691 0.913827 1.42994 0
M  V30 854 H 76.2411 1.8196 3.46419 0
M  V30 855 H 75.8641 0.181444 3.97186 0
M  V30 856 N 76.8612 -1.46375 0.584142 0
M  V30 857 C 78.0862 -2.07268 0.0740405 0
M  V30 858 C 78.5112 -1.42979 -1.22223 0
M  V30 859 O 77.8692 -0.514092 -1.73859 0
M  V30 860 C 77.9172 -3.60518 -0.0767769 0
M  V30 861 O 77.0212 -3.96533 -1.13292 0
M  V30 862 H 76.3622 -0.660961 0.0634524 0
M  V30 863 H 78.8922 -1.87991 0.807492 0
M  V30 864 H 78.9022 -4.07021 -0.282489 0
M  V30 865 H 77.5772 -4.06702 0.86986 0
M  V30 866 H 76.1542 -3.61738 -0.905553 0
M  V30 867 N 78.3393 -0.321999 -1.54275 0
M  V30 868 C 79.5673 0.283052 -2.04955 0
M  V30 869 C 79.9823 1.45904 -1.19823 0
M  V30 870 O 79.3393 1.81063 -0.228545 0
M  V30 871 C 79.3903 0.719028 -3.54277 0
M  V30 872 O 79.1113 -0.410175 -4.36176 0
M  V30 873 C 80.6123 1.38705 -4.21041 0
M  V30 874 H 77.8323 0.0584616 -0.668448 0
M  V30 875 H 80.3763 -0.467734 -1.99079 0
M  V30 876 H 78.5313 1.41979 -3.60445 0
M  V30 877 H 78.9453 -0.0669416 -5.24457 0
M  V30 878 H 80.4193 1.64306 -5.2698 0
M  V30 879 H 80.8963 2.33385 -3.72059 0
M  V30 880 H 81.5023 0.728906 -4.19007 0
M  V30 881 N 79.8174 1.5752 -0.0501392 0
M  V30 882 C 80.7644 2.1147 0.924603 0
M  V30 883 C 81.7344 1.02182 1.30951 0
M  V30 884 O 82.9194 1.29723 1.39916 0
M  V30 885 C 80.0594 2.66337 2.19451 0
M  V30 886 C 79.1724 3.89708 1.86418 0
M  V30 887 C 78.3074 4.32893 3.07859 0
M  V30 888 C 77.3464 5.48967 2.70742 0
M  V30 889 N 76.4834 5.87211 3.84874 0
M  V30 890 H 81.3234 2.94465 0.457639 0
M  V30 891 H 78.8604 1.45531 0.214266 0
M  V30 892 H 80.8184 2.96247 2.93758 0
M  V30 893 H 79.4484 1.86141 2.63726 0
M  V30 894 H 78.5004 3.66396 1.02264 0
M  V30 895 H 79.8124 4.74074 1.55096 0
M  V30 896 H 78.9664 4.6435 3.90466 0
M  V30 897 H 77.7054 3.47336 3.42358 0
M  V30 898 H 76.7104 5.17183 1.86551 0
M  V30 899 H 77.9354 6.3624 2.37436 0
M  V30 900 H 75.8814 5.04607 4.19175 0
M  V30 901 H 75.7984 6.66266 3.57247 0
M  V30 902 H 77.0664 6.23282 4.68123 0
M  V30 903 N 81.2955 -0.223234 1.56011 0
M  V30 904 C 82.2585 -1.26014 1.9145 0
M  V30 905 C 83.2585 -1.3989 0.792937 0
M  V30 906 O 84.4485 -1.38184 1.0607 0
M  V30 907 C 81.5805 -2.63422 2.16383 0
M  V30 908 H 82.7735 -0.95796 2.84189 0
M  V30 909 H 80.3265 -0.463576 1.49267 0
M  V30 910 H 81.0615 -2.98741 1.2619 0
M  V30 911 H 80.8465 -2.54728 2.98088 0
M  V30 912 H 82.3365 -3.38249 2.44903 0
M  V30 913 N 82.7736 -1.49793 -0.48987 0
M  V30 914 C 84.1896 -1.36803 -0.822022 0
M  V30 915 C 84.3896 -0.409652 -1.97292 0
M  V30 916 O 83.4456 0.154614 -2.52026 0
M  V30 917 C 84.7586 -2.77768 -1.15175 0
M  V30 918 C 86.3066 -2.86549 -1.25931 0
M  V30 919 C 86.7816 -4.28306 -1.62228 0
M  V30 920 N 88.2726 -4.31169 -1.69256 0
M  V30 921 C 89.0076 -5.37832 -1.98807 0
M  V30 922 N 88.5036 -6.54726 -2.26507 0
M  V30 923 N 90.2966 -5.25258 -2.00152 0
M  V30 924 H 82.4476 -2.10691 0.268881 0
M  V30 925 H 84.7106 -0.946241 0.057728 0
M  V30 926 H 84.4166 -3.49648 -0.379335 0
M  V30 927 H 84.2906 -3.13836 -2.09253 0
M  V30 928 H 86.6776 -2.14899 -2.02243 0
M  V30 929 H 86.7586 -2.54049 -0.298776 0
M  V30 930 H 86.4026 -5.00486 -0.864622 0
M  V30 931 H 86.3326 -4.58279 -2.594 0
M  V30 932 H 88.8236 -3.4687 -1.49965 0
M  V30 933 H 89.1366 -7.31833 -2.48276 0
M  V30 934 H 87.4816 -6.57933 -2.23939 0
M  V30 935 H 90.6726 -4.32938 -1.77996 0
M  V30 936 H 90.8456 -6.08476 -2.22848 0
M  V30 937 N 84.2517 0.741722 -1.39055 0
M  V30 938 C 85.6627 1.31966 -1.32068 0
M  V30 939 C 86.0137 1.96192 0.0180797 0
M  V30 940 O 85.1387 1.95861 0.920196 0
M  V30 941 C 85.7337 2.39954 -2.39181 0
M  V30 942 C 84.2927 2.93438 -2.35735 0
M  V30 943 C 83.4397 1.66936 -2.21422 0
M  V30 944 H 86.3907 0.539721 -1.4924 0
M  V30 945 H 86.4117 3.20182 -2.05581 0
M  V30 946 H 85.9237 1.9318 -3.36605 0
M  V30 947 H 84.0247 3.4451 -1.41929 0
M  V30 948 H 84.1377 3.4701 -3.30335 0
M  V30 949 H 82.5017 1.91016 -1.68478 0
M  V30 950 H 83.2847 1.22224 -3.20806 0
M  V30 951 N 85.7298 1.2412 0.971189 0
M  V30 952 C 86.6618 0.988349 2.06795 0
M  V30 953 C 87.6748 -0.0409541 1.62748 0
M  V30 954 O 88.8638 0.195673 1.77424 0
M  V30 955 C 85.9638 0.469023 3.35639 0
M  V30 956 C 85.1368 1.56065 4.08611 0
M  V30 957 C 84.1958 1.04458 5.15728 0
M  V30 958 O 83.2218 1.73553 5.42096 0
M  V30 959 N 84.4238 -0.122817 5.8037 0
M  V30 960 H 87.1888 1.93265 2.29061 0
M  V30 961 H 84.7498 1.15102 1.13856 0
M  V30 962 H 86.7418 0.108613 4.04554 0
M  V30 963 H 85.3118 -0.380919 3.1027 0
M  V30 964 H 84.5318 2.09341 3.34021 0
M  V30 965 H 85.8198 2.29449 4.54126 0
M  V30 966 H 85.2178 -0.700563 5.61345 0
M  V30 967 H 83.7748 -0.424404 6.50417 0
M  V30 968 N 87.2079 -1.17134 1.05439 0
M  V30 969 C 88.1549 -2.21235 0.657539 0
M  V30 970 C 89.1249 -1.62551 -0.341543 0
M  V30 971 O 90.3099 -1.89379 -0.232393 0
M  V30 972 C 87.4499 -3.45076 0.0410575 0
M  V30 973 C 86.5629 -4.18042 1.08927 0
M  V30 974 C 85.6979 -5.29376 0.439848 0
M  V30 975 C 84.7369 -5.94132 1.4722 0
M  V30 976 N 83.8739 -6.96975 0.846756 0
M  V30 977 H 88.7139 -2.54534 1.54972 0
M  V30 978 H 86.2509 -1.25028 0.775006 0
M  V30 979 H 88.2089 -4.15862 -0.33383 0
M  V30 980 H 86.8389 -3.12353 -0.814568 0
M  V30 981 H 85.8909 -3.45945 1.58196 0
M  V30 982 H 87.2029 -4.62306 1.87282 0
M  V30 983 H 86.3569 -6.06699 0.0115125 0
M  V30 984 H 85.0959 -4.86251 -0.375656 0
M  V30 985 H 84.1009 -5.15538 1.91052 0
M  V30 986 H 85.3259 -6.39337 2.28965 0
M  V30 987 H 83.2719 -6.5598 0.0518075 0
M  V30 988 H 83.1889 -7.39565 1.5678 0
M  V30 989 H 84.4569 -7.78239 0.443277 0
M  V30 990 N 88.686 -0.835752 -1.33615 0
M  V30 991 C 89.916 -0.442701 -2.01801 0
M  V30 992 C 90.324 0.959807 -1.63047 0
M  V30 993 O 89.667 1.63468 -0.838088 0
M  V30 994 C 89.729 -0.480125 -3.56279 0
M  V30 995 C 89.393 -1.8382 -4.18401 0
M  V30 996 C 90.39 -2.80097 -4.37998 0
M  V30 997 C 88.075 -2.13019 -4.54894 0
M  V30 998 C 90.069 -4.03736 -4.9323 0
M  V30 999 C 87.756 -3.36916 -5.09834 0
M  V30 1000 C 88.754 -4.32091 -5.28948 0
M  V30 1001 O 88.442 -5.53797 -5.82721 0
M  V30 1002 H 88.174 -0.17441 -0.653114 0
M  V30 1003 H 90.728 -1.129 -1.71589 0
M  V30 1004 H 88.958 0.262931 -3.85805 0
M  V30 1005 H 90.647 -0.105335 -4.05763 0
M  V30 1006 H 91.413 -2.58838 -4.10156 0
M  V30 1007 H 87.292 -1.39733 -4.39313 0
M  V30 1008 H 90.836 -4.78034 -5.08064 0
M  V30 1009 H 86.733 -3.58033 -5.37106 0
M  V30 1010 H 87.501 -5.55494 -6.0114 0
M  V30 1011 N 90.1641 1.46063 -0.591896 0
M  V30 1012 C 91.0741 2.34192 0.13831 0
M  V30 1013 C 92.0901 1.50305 0.876608 0
M  V30 1014 O 93.2661 1.8315 0.837728 0
M  V30 1015 C 90.3311 3.27656 1.13326 0
M  V30 1016 C 89.3921 4.27445 0.39863 0
M  V30 1017 C 88.6251 5.16443 1.34618 0
M  V30 1018 O 88.8481 5.08553 2.58321 0
M  V30 1019 O 87.7821 5.95843 0.851768 0
M  V30 1020 H 91.6081 2.98002 -0.58552 0
M  V30 1021 H 89.1931 1.45188 -0.352239 0
M  V30 1022 H 91.0751 3.85291 1.70671 0
M  V30 1023 H 89.7501 2.6643 1.83839 0
M  V30 1024 H 88.6571 3.73471 -0.216895 0
M  V30 1025 H 89.9901 4.91482 -0.265709 0
M  V30 1026 N 91.6422 0.330177 1.54103 0
M  V30 1027 C 92.5742 -0.566902 2.22079 0
M  V30 1028 C 93.5872 -1.07462 1.22294 0
M  V30 1029 O 94.7762 -0.987065 1.48726 0
M  V30 1030 C 91.8762 -1.79138 2.87685 0
M  V30 1031 C 91.0492 -1.42123 4.13666 0
M  V30 1032 C 90.1082 -2.50394 4.62806 0
M  V30 1033 O 89.1342 -2.14261 5.27334 0
M  V30 1034 N 90.3362 -3.81433 4.37595 0
M  V30 1035 H 93.1012 0.0151844 2.99696 0
M  V30 1036 H 90.6622 0.153681 1.61169 0
M  V30 1037 H 92.6542 -2.50975 3.1748 0
M  V30 1038 H 91.2242 -2.28115 2.13734 0
M  V30 1039 H 90.4442 -0.534201 3.90564 0
M  V30 1040 H 91.7322 -1.14971 4.9564 0
M  V30 1041 H 91.1302 -4.13584 3.8596 0
M  V30 1042 H 89.6872 -4.4948 4.72029 0
M  V30 1043 N 93.1203 -1.57491 0.0584922 0
M  V30 1044 C 94.0503 -2.14988 -0.911178 0
M  V30 1045 C 95.0313 -1.07343 -1.31952 0
M  V30 1046 O 96.2163 -1.35318 -1.39294 0
M  V30 1047 C 93.3463 -2.70078 -2.18347 0
M  V30 1048 C 92.3003 -3.82771 -1.91495 0
M  V30 1049 C 91.6263 -4.24408 -3.25241 0
M  V30 1050 C 92.9263 -5.07592 -1.23075 0
M  V30 1051 H 94.6203 -2.96263 -0.432246 0
M  V30 1052 H 92.1663 -1.42512 -0.206469 0
M  V30 1053 H 94.1193 -3.08943 -2.86587 0
M  V30 1054 H 92.8433 -1.86005 -2.68458 0
M  V30 1055 H 91.5023 -3.44389 -1.25664 0
M  V30 1056 H 91.1503 -3.37275 -3.73168 0
M  V30 1057 H 90.8503 -5.00366 -3.08071 0
M  V30 1058 H 92.3743 -4.65879 -3.94701 0
M  V30 1059 H 93.7883 -5.43857 -1.81362 0
M  V30 1060 H 92.1853 -5.88741 -1.16207 0
M  V30 1061 H 93.2553 -4.84454 -0.207847 0
M  V30 1062 N 94.5984 0.214957 -1.56127 0
M  V30 1063 C 95.5284 1.2695 -1.95974 0
M  V30 1064 C 96.5094 1.48539 -0.828868 0
M  V30 1065 O 97.6944 1.60611 -1.09168 0
M  V30 1066 C 94.8244 2.61794 -2.28214 0
M  V30 1067 C 93.7784 2.54851 -3.43853 0
M  V30 1068 C 93.1044 3.93785 -3.61715 0
M  V30 1069 C 94.4044 2.09065 -4.78632 0
M  V30 1070 H 96.0984 0.93846 -2.84312 0
M  V30 1071 H 93.6444 0.449996 -1.36788 0
M  V30 1072 H 95.5974 3.35731 -2.54682 0
M  V30 1073 H 94.3214 2.96599 -1.36736 0
M  V30 1074 H 92.9804 1.8337 -3.17444 0
M  V30 1075 H 92.6284 4.25908 -2.67602 0
M  V30 1076 H 92.3284 3.90019 -4.39498 0
M  V30 1077 H 93.8524 4.69374 -3.90539 0
M  V30 1078 H 95.2664 2.7275 -5.04262 0
M  V30 1079 H 93.6634 2.16346 -5.59745 0
M  V30 1080 H 94.7334 1.04315 -4.73547 0
M  V30 1081 N 96.0765 1.50051 0.48192 0
M  V30 1082 C 97.0265 1.64512 1.5786 0
M  V30 1083 C 98.0105 0.500073 1.52932 0
M  V30 1084 O 99.2025 0.753964 1.60139 0
M  V30 1085 C 96.3315 1.73263 2.9637 0
M  V30 1086 C 95.4175 2.93409 3.06222 0
M  V30 1087 N 95.8085 4.17236 2.85915 0
M  V30 1088 C 94.1065 2.91742 3.37346 0
M  V30 1089 C 94.8075 4.981 3.00451 0
M  V30 1090 N 93.7835 4.3184 3.30174 0
M  V30 1091 H 97.5855 2.57955 1.40842 0
M  V30 1092 H 95.0995 1.47086 0.688439 0
M  V30 1093 H 97.0965 1.81724 3.75209 0
M  V30 1094 H 95.7565 0.809711 3.14442 0
M  V30 1095 H 96.7675 4.46909 2.6171 0
M  V30 1096 H 93.4445 2.08907 3.61475 0
M  V30 1097 H 94.8345 6.06532 2.89082 0
M  V30 1098 N 97.5546 -0.734337 1.39446 0
M  V30 1099 C 98.8036 -1.48937 1.36017 0
M  V30 1100 C 99.1166 -1.95557 -0.0409005 0
M  V30 1101 O 100.323 -2.70779 -0.19778 0
M  V30 1102 C 98.7786 -2.69125 2.38955 0
M  V30 1103 C 98.3866 -2.29452 3.8478 0
M  V30 1104 C 100.131 -3.46944 2.44603 0
M  V30 1105 C 98.0376 -3.46366 4.79358 0
M  V30 1106 H 96.9676 -0.559296 0.505672 0
M  V30 1107 H 99.6186 -0.800983 1.65095 0
M  V30 1108 H 98.0006 -3.40041 2.02948 0
M  V30 1109 H 99.1746 -1.66077 4.29831 0
M  V30 1110 H 97.4896 -1.64723 3.82433 0
M  V30 1111 H 100.087 -4.33907 3.12456 0
M  V30 1112 H 100.43 -3.89454 1.47076 0
M  V30 1113 H 100.963 -2.83056 2.79507 0
M  V30 1114 H 97.7016 -3.08905 5.78151 0
M  V30 1115 H 97.2216 -4.08719 4.38986 0
M  V30 1116 H 98.9006 -4.12691 4.98292 0
M  V30 1117 N 99.0327 -1.24633 -0.964593 0
M  V30 1118 C 99.9427 -1.05859 -2.09359 0
M  V30 1119 C 100.959 0.00148855 -1.74 0
M  V30 1120 O 102.135 -0.197346 -2.00431 0
M  V30 1121 C 99.1997 -0.668879 -3.40187 0
M  V30 1122 C 98.2607 -1.80578 -3.89474 0
M  V30 1123 C 97.4937 -1.43457 -5.14058 0
M  V30 1124 O 97.7167 -0.325775 -5.69469 0
M  V30 1125 O 96.6507 -2.2613 -5.57807 0
M  V30 1126 H 100.477 -2.00516 -2.28094 0
M  V30 1127 H 98.0617 -1.03481 -1.0776 0
M  V30 1128 H 99.9437 -0.463211 -4.18846 0
M  V30 1129 H 98.6187 0.248536 -3.22744 0
M  V30 1130 H 97.5257 -2.06623 -3.11862 0
M  V30 1131 H 98.8587 -2.70208 -4.11398 0
M  V30 1132 N 100.511 1.16574 -1.06058 0
M  V30 1133 C 101.788 1.83048 -0.689416 0
M  V30 1134 C 102.168 1.94122 0.829443 0
M  V30 1135 O 101.516 1.48249 1.7388 0
M  V30 1136 C 101.726 3.20186 -1.38859 0
M  V30 1137 C 103.074 3.95989 -1.53226 0
M  V30 1138 O 104.098 3.29696 -1.3483 0
M  V30 1139 O 102.957 5.14813 -1.83384 0
M  V30 1140 H 100.051 0.790258 -0.243764 0
M  V30 1141 H 102.597 1.23797 -1.16071 0
M  V30 1142 H 101.369 3.07146 -2.4244 0
M  V30 1143 H 100.992 3.87112 -0.907216 0
M  V30 1144 N 101.989 0.842826 1.3317 0
M  V30 1145 C 102.937 0.267495 2.31057 0
M  V30 1146 C 103.931 -0.602682 1.58316 0
M  V30 1147 O 105.137 -0.491803 1.73151 0
M  V30 1148 H 101.512 0.0677813 0.748939 0
M  V30 1149 H 103.483 1.10754 2.77085 0
M  V30 1150 C 102.232 -0.539331 3.43492 0
M  V30 1151 H 101.555 0.12095 3.99617 0
M  V30 1152 H 102.995 -0.90767 4.14171 0
M  V30 1153 C 101.454 -1.71981 2.89697 0
M  V30 1154 O 101.984 -2.81862 2.86211 0
M  V30 1155 N 100.19 -1.54299 2.46252 0
M  V30 1156 H 99.7369 -0.649143 2.49287 0
M  V30 1157 H 99.6949 -2.33431 2.10612 0
M  V30 1158 N 103.467 -1.45747 0.599634 0
M  V30 1159 C 104.744 -1.95585 0.0240846 0
M  V30 1160 C 105.124 -1.54217 -1.44154 0
M  V30 1161 O 104.472 -0.800903 -2.14004 0
M  V30 1162 C 104.682 -3.48344 0.21385 0
M  V30 1163 C 106.03 -4.24504 0.0904902 0
M  V30 1164 O 107.054 -3.55911 0.143558 0
M  V30 1165 O 105.913 -5.46491 -0.0310766 0
M  V30 1166 H 103.007 -0.82602 -0.0402478 0
M  V30 1167 H 105.553 -1.55951 0.669139 0
M  V30 1168 H 104.325 -3.71397 1.23206 0
M  V30 1169 H 103.948 -3.9485 -0.466842 0
M  V30 1170 N 104.945 -0.338344 -1.53925 0
M  V30 1171 C 106.192 0.259758 -2.00827 0
M  V30 1172 C 106.52 1.50973 -1.22628 0
M  V30 1173 O 105.775 1.93379 -0.300509 0
M  V30 1174 C 106.074 0.62448 -3.51902 0
M  V30 1175 C 105.74 -0.528006 -4.47798 0
M  V30 1176 C 104.402 -0.844298 -4.73735 0
M  V30 1177 C 106.754 -1.30143 -5.0469 0
M  V30 1178 C 104.082 -1.93648 -5.53821 0
M  V30 1179 C 106.434 -2.38382 -5.85967 0
M  V30 1180 C 105.098 -2.70576 -6.10201 0
M  V30 1181 H 104.368 0.0950523 -0.734878 0
M  V30 1182 H 107.015 -0.465182 -1.85764 0
M  V30 1183 H 105.32 1.43006 -3.64769 0
M  V30 1184 H 107.017 1.09905 -3.85645 0
M  V30 1185 H 103.607 -0.271421 -4.2774 0
M  V30 1186 H 107.791 -1.07033 -4.84621 0
M  V30 1187 H 103.047 -2.19021 -5.70824 0
M  V30 1188 H 107.221 -2.98746 -6.29066 0
M  V30 1189 H 104.848 -3.55333 -6.72044 0
M  V30 1190 N 106.423 1.57458 -0.0668435 0
M  V30 1191 C 107.386 2.11323 0.887422 0
M  V30 1192 C 108.386 1.03618 1.22964 0
M  V30 1193 O 109.576 1.29626 1.16373 0
M  V30 1194 C 106.708 2.61048 2.19242 0
M  V30 1195 H 107.901 2.96942 0.420194 0
M  V30 1196 H 105.454 1.55239 0.181793 0
M  V30 1197 H 106.189 1.78868 2.70512 0
M  V30 1198 H 105.974 3.39769 1.95702 0
M  V30 1199 H 107.464 3.02814 2.87565 0
M  V30 1200 N 107.901 -0.206675 1.56239 0
M  V30 1201 C 108.834 -1.28383 1.88661 0
M  V30 1202 C 109.812 -1.44504 0.745481 0
M  V30 1203 O 110.996 -1.60079 0.995336 0
M  V30 1204 C 108.123 -2.65211 2.10667 0
M  V30 1205 C 107.169 -2.66025 3.33366 0
M  V30 1206 S 108.002 -2.18609 4.88846 0
M  V30 1207 C 109.158 -3.57283 5.13906 0
M  V30 1208 H 109.391 -1.00691 2.7973 0
M  V30 1209 H 106.924 -0.409627 1.48867 0
M  V30 1210 H 108.882 -3.43979 2.24029 0
M  V30 1211 H 107.543 -2.90121 1.20369 0
M  V30 1212 H 106.736 -3.66607 3.45855 0
M  V30 1213 H 106.338 -1.95331 3.18938 0
M  V30 1214 H 108.63 -4.53074 5.03717 0
M  V30 1215 H 109.573 -3.49699 6.15724 0
M  V30 1216 H 109.981 -3.51659 4.41583 0
M  V30 1217 N 109.379 -1.50304 -0.473955 0
M  V30 1218 C 110.795 -1.37667 -0.807466 0
M  V30 1219 C 110.995 -0.430555 -1.96846 0
M  V30 1220 O 110.051 0.127874 -2.52176 0
M  V30 1221 C 111.364 -2.78974 -1.12223 0
M  V30 1222 C 112.912 -2.87868 -1.22885 0
M  V30 1223 C 113.387 -4.30003 -1.57676 0
M  V30 1224 N 114.878 -4.3294 -1.64673 0
M  V30 1225 C 115.613 -5.3991 -1.93091 0
M  V30 1226 N 115.109 -6.57092 -2.1955 0
M  V30 1227 N 116.902 -5.27351 -1.94569 0
M  V30 1228 H 109.053 -2.10394 0.291212 0
M  V30 1229 H 111.316 -0.945575 0.0677609 0
M  V30 1230 H 111.022 -3.50031 -0.342229 0
M  V30 1231 H 110.896 -3.16038 -2.05913 0
M  V30 1232 H 113.283 -2.17032 -1.99953 0
M  V30 1233 H 113.364 -2.54352 -0.271814 0
M  V30 1234 H 113.008 -5.01375 -0.81149 0
M  V30 1235 H 112.938 -4.61004 -2.54525 0
M  V30 1236 H 115.429 -3.48441 -1.46277 0
M  V30 1237 H 115.742 -7.34425 -2.405 0
M  V30 1238 H 114.087 -6.60272 -2.16948 0
M  V30 1239 H 117.278 -4.34801 -1.73394 0
M  V30 1240 H 117.451 -6.10805 -2.16381 0
M  V30 1241 N 110.857 0.726932 -1.39834 0
M  V30 1242 C 112.268 1.30558 -1.3346 0
M  V30 1243 C 112.619 1.962 -0.00273003 0
M  V30 1244 O 111.744 1.96826 0.899371 0
M  V30 1245 C 112.339 2.37404 -2.41713 0
M  V30 1246 C 110.898 2.90921 -2.38835 0
M  V30 1247 C 110.045 1.64578 -2.2318 0
M  V30 1248 H 112.996 0.523862 -1.49804 0
M  V30 1249 H 113.017 3.17984 -2.08966 0
M  V30 1250 H 112.529 1.89599 -3.38635 0
M  V30 1251 H 110.63 3.42985 -1.45575 0
M  V30 1252 H 110.743 3.43487 -3.33997 0
M  V30 1253 H 109.107 1.89219 -1.70494 0
M  V30 1254 H 109.89 1.18814 -3.22084 0
M  V30 1255 N 112.336 1.25143 0.95797 0
M  V30 1256 C 113.584 1.09476 1.69881 0
M  V30 1257 C 113.905 -0.365502 1.91544 0
M  V30 1258 O 113.175 -1.25985 1.50015 0
M  V30 1259 H 111.755 0.402128 0.629525 0
M  V30 1260 H 114.417 1.57214 1.15194 0
M  V30 1261 H 113.513 1.60046 2.6794 0
M  V30 1262 N 113.814 -1.1601 1.06675 0
M  V30 1263 C 115.061 -1.86633 0.785781 0
M  V30 1264 C 115.389 -1.81929 -0.687896 0
M  V30 1265 O 114.644 -1.23253 -1.52011 0
M  V30 1266 C 114.943 -3.35547 1.23057 0
M  V30 1267 C 114.609 -3.60448 2.70902 0
M  V30 1268 C 113.271 -3.66954 3.11285 0
M  V30 1269 C 115.623 -3.7071 3.66365 0
M  V30 1270 C 112.951 -3.81225 4.45965 0
M  V30 1271 C 115.303 -3.86503 5.00797 0
M  V30 1272 C 113.967 -3.91252 5.40813 0
M  V30 1273 H 113.237 -0.682937 0.287538 0
M  V30 1274 H 115.884 -1.37146 1.33654 0
M  V30 1275 H 114.189 -3.87193 0.59907 0
M  V30 1276 H 115.886 -3.88583 0.990163 0
M  V30 1277 H 112.476 -3.56021 2.38636 0
M  V30 1278 H 116.66 -3.64991 3.36296 0
M  V30 1279 H 111.916 -3.83155 4.76447 0
M  V30 1280 H 116.09 -3.93385 5.74649 0
M  V30 1281 H 113.717 -4.02062 6.45174 0
M  V30 1282 N 115.292 -0.849877 -1.32721 0
M  V30 1283 C 116.54 -0.450032 -1.97026 0
M  V30 1284 C 116.861 0.996604 -1.67609 0
M  V30 1285 O 116.131 1.6958 -0.980786 0
M  V30 1286 H 114.711 -0.163426 -0.728904 0
M  V30 1287 H 117.373 -1.08526 -1.6189 0
M  V30 1288 H 116.469 -0.591146 -3.0645 0
M  V30 1289 N 116.77 1.45427 -0.607355 0
M  V30 1290 C 118.018 2.01841 -0.102253 0
M  V30 1291 C 118.339 1.47832 1.27164 0
M  V30 1292 O 117.609 0.672497 1.83995 0
M  V30 1293 H 116.189 0.746188 -0.0348101 0
M  V30 1294 H 118.851 1.78229 -0.7887 0
M  V30 1295 H 117.947 3.12057 -0.0518585 0
M  V30 1296 N 118.248 0.346503 1.53744 0
M  V30 1297 C 119.473 -0.253074 2.0585 0
M  V30 1298 C 119.898 -1.43202 1.21962 0
M  V30 1299 O 119.256 -1.79783 0.234073 0
M  V30 1300 C 119.304 -0.643193 3.54817 0
M  V30 1301 O 118.408 -1.74286 3.73762 0
M  V30 1302 H 117.749 -0.0413583 0.662711 0
M  V30 1303 H 120.279 0.501574 1.98357 0
M  V30 1304 H 120.289 -0.919526 3.97503 0
M  V30 1305 H 118.964 0.218966 4.15323 0
M  V30 1306 H 117.541 -1.46356 3.42979 0
M  V30 1307 N 119.726 -1.57421 0.075193 0
M  V30 1308 C 121.137 -1.81021 -0.456964 0
M  V30 1309 C 121.488 -0.98936 -1.69429 0
M  V30 1310 O 120.613 -0.212865 -2.15351 0
M  V30 1311 C 121.208 -3.28329 -0.83581 0
M  V30 1312 C 119.767 -3.52764 -1.31281 0
M  V30 1313 C 118.914 -2.75676 -0.299648 0
M  V30 1314 H 121.865 -1.55822 0.300856 0
M  V30 1315 H 121.886 -3.40564 -1.69696 0
M  V30 1316 H 121.398 -3.88046 0.0649238 0
M  V30 1317 H 119.499 -2.98355 -2.23193 0
M  V30 1318 H 119.612 -4.61451 -1.28839 0
M  V30 1319 H 117.976 -2.42538 -0.777641 0
M  V30 1320 H 118.759 -3.38132 0.593417 0
M  V30 1321 N 121.204 0.198386 -1.56346 0
M  V30 1322 C 122.45 0.920648 -1.80698 0
M  V30 1323 C 122.783 1.83045 -0.648697 0
M  V30 1324 O 122.058 1.91308 0.350925 0
M  V30 1325 C 122.341 1.73971 -3.15287 0
M  V30 1326 C 122.194 0.85485 -4.41602 0
M  V30 1327 C 123.513 2.71296 -3.46535 0
M  V30 1328 H 120.632 0.333261 -0.657348 0
M  V30 1329 H 123.274 0.188198 -1.89066 0
M  V30 1330 H 121.424 2.36416 -3.08285 0
M  V30 1331 H 123.096 0.245362 -4.60647 0
M  V30 1332 H 121.339 0.161398 -4.335 0
M  V30 1333 H 122.01 1.46286 -5.32264 0
M  V30 1334 H 124.486 2.18983 -3.53816 0
M  V30 1335 H 123.362 3.2569 -4.41834 0
M  V30 1336 H 123.623 3.5018 -2.69864 0
M  V30 1337 N 122.682 1.50554 0.465978 0
M  V30 1338 C 124.093 1.54599 1.04671 0
M  V30 1339 C 124.444 0.352488 1.93008 0
M  V30 1340 O 123.569 -0.534044 2.09707 0
M  V30 1341 C 124.164 2.80166 1.90505 0
M  V30 1342 C 122.723 2.86876 2.43678 0
M  V30 1343 C 121.87 2.48947 1.22151 0
M  V30 1344 H 124.821 1.56744 0.248384 0
M  V30 1345 H 124.842 2.62311 2.75633 0
M  V30 1346 H 124.354 3.67013 1.26186 0
M  V30 1347 H 122.455 2.04393 3.11536 0
M  V30 1348 H 122.568 3.89885 2.78436 0
M  V30 1349 H 120.932 2.01498 1.5579 0
M  V30 1350 H 121.715 3.38107 0.594866 0
M  V30 1351 N 124.16 -0.719506 1.40217 0
M  V30 1352 C 125.406 -1.48152 1.38488 0
M  V30 1353 C 125.739 -1.94195 -0.0141867 0
M  V30 1354 O 125.014 -1.67884 -0.982096 0
M  V30 1355 C 125.297 -2.71035 2.37091 0
M  V30 1356 C 125.15 -2.30912 3.86005 0
M  V30 1357 C 126.469 -3.73182 2.33288 0
M  V30 1358 H 123.588 -0.537395 0.504357 0
M  V30 1359 H 126.23 -0.821472 1.71324 0
M  V30 1360 H 124.38 -3.27352 2.0922 0
M  V30 1361 H 126.052 -1.80107 4.24687 0
M  V30 1362 H 124.295 -1.62958 4.02029 0
M  V30 1363 H 124.966 -3.18978 4.50508 0
M  V30 1364 H 127.442 -3.26485 2.57966 0
M  V30 1365 H 126.318 -4.56806 3.04334 0
M  V30 1366 H 126.579 -4.21202 1.34317 0
M  V30 1367 N 125.638 -1.25649 -0.95132 0
M  V30 1368 C 126.886 -1.10375 -1.69298 0
M  V30 1369 C 127.207 0.355339 -1.91735 0
M  V30 1370 O 126.477 1.25188 -1.50681 0
M  V30 1371 H 125.057 -0.405461 -0.627384 0
M  V30 1372 H 127.719 -1.57823 -1.14358 0
M  V30 1373 H 126.815 -1.61465 -2.67087 0
M  V30 1374 N 127.117 1.15442 -1.07289 0
M  V30 1375 C 128.366 1.85557 -0.790669 0
M  V30 1376 C 128.679 1.83186 0.685739 0
M  V30 1377 O 129.885 2.48977 1.0827 0
M  V30 1378 C 128.341 3.33038 -1.36433 0
M  V30 1379 C 127.949 3.43856 -2.8717 0
M  V30 1380 C 129.693 4.0834 -1.1601 0
M  V30 1381 C 127.6 4.85482 -3.3773 0
M  V30 1382 H 126.53 0.695122 -0.292098 0
M  V30 1383 H 129.181 1.30219 -1.29287 0
M  V30 1384 H 127.563 3.88043 -0.789864 0
M  V30 1385 H 128.737 2.98961 -3.50655 0
M  V30 1386 H 127.052 2.81998 -3.06376 0
M  V30 1387 H 129.649 5.12859 -1.51262 0
M  V30 1388 H 129.992 4.16182 -0.0991007 0
M  V30 1389 H 130.525 3.59603 -1.70089 0
M  V30 1390 H 127.264 4.82823 -4.43353 0
M  V30 1391 H 126.784 5.30961 -2.78999 0
M  V30 1392 H 128.463 5.54335 -3.33648 0
M  V30 1393 N 128.595 0.856903 1.32268 0
M  V30 1394 C 129.872 0.382583 1.91822 0
M  V30 1395 C 130.252 -1.13407 1.78051 0
M  V30 1396 O 129.6 -1.95673 1.18001 0
M  V30 1397 C 129.81 0.849446 3.38505 0
M  V30 1398 C 131.158 0.867936 4.15634 0
M  V30 1399 O 132.182 0.794232 3.47232 0
M  V30 1400 O 131.041 0.972286 5.37781 0
M  V30 1401 H 128.135 0.112014 0.819379 0
M  V30 1402 H 130.681 0.943952 1.41024 0
M  V30 1403 H 129.453 1.89267 3.42482 0
M  V30 1404 H 129.076 0.265652 3.96712 0
M  V30 1405 N 130.073 -1.45103 0.615059 0
M  V30 1406 C 131.319 -2.02483 0.113347 0
M  V30 1407 C 131.652 -1.48146 -1.25564 0
M  V30 1408 O 130.927 -0.659104 -1.82992 0
M  V30 1409 C 131.21 -3.60005 0.0825278 0
M  V30 1410 C 131.063 -4.2466 1.48271 0
M  V30 1411 C 132.382 -4.35972 -0.601401 0
M  V30 1412 H 129.501 -0.735764 0.0426632 0
M  V30 1413 H 132.143 -1.72868 0.788461 0
M  V30 1414 H 130.293 -3.85367 -0.492378 0
M  V30 1415 H 131.965 -4.10458 2.10527 0
M  V30 1416 H 130.208 -3.82772 2.04127 0
M  V30 1417 H 130.879 -5.336 1.41332 0
M  V30 1418 H 133.355 -4.15947 -0.112666 0
M  V30 1419 H 132.231 -5.45697 -0.592097 0
M  V30 1420 H 132.492 -4.09391 -1.66887 0
M  V30 1421 N 131.551 -0.354651 -1.53558 0
M  V30 1422 C 132.501 0.513179 -2.2215 0
M  V30 1423 C 133.485 1.05734 -1.21281 0
M  V30 1424 O 134.677 0.989202 -1.46778 0
M  V30 1425 C 131.806 1.65798 -3.00609 0
M  V30 1426 C 130.892 1.12722 -4.08845 0
M  V30 1427 N 131.283 0.318563 -5.04796 0
M  V30 1428 C 129.581 1.40307 -4.23356 0
M  V30 1429 C 130.282 0.0292224 -5.81693 0
M  V30 1430 N 129.258 0.623891 -5.40008 0
M  V30 1431 H 133.06 -0.111586 -2.93688 0
M  V30 1432 H 130.574 -0.162091 -1.61589 0
M  V30 1433 H 132.571 2.29176 -3.48258 0
M  V30 1434 H 131.231 2.28591 -2.306 0
M  V30 1435 H 132.242 -0.0413091 -5.17884 0
M  V30 1436 H 128.919 2.03458 -3.6457 0
M  V30 1437 H 130.309 -0.623808 -6.68998 0
M  V30 1438 N 133.029 1.57378 -0.0835403 0
M  V30 1439 C 134.275 1.94217 0.583733 0
M  V30 1440 C 134.608 0.964653 1.68547 0
M  V30 1441 O 133.883 -0.00422258 1.945 0
M  V30 1442 C 134.166 3.41253 1.14972 0
M  V30 1443 C 134.019 4.49768 0.0538277 0
M  V30 1444 C 135.338 3.89352 2.05166 0
M  V30 1445 H 132.457 0.706233 0.210724 0
M  V30 1446 H 135.099 1.89392 -0.1519 0
M  V30 1447 H 133.249 3.45496 1.77665 0
M  V30 1448 H 134.921 4.57641 -0.579851 0
M  V30 1449 H 133.164 4.29432 -0.614068 0
M  V30 1450 H 133.835 5.49817 0.490452 0
M  V30 1451 H 136.311 3.87189 1.52393 0
M  V30 1452 H 135.187 4.92822 2.41698 0
M  V30 1453 H 135.448 3.27973 2.96456 0
M  V30 1454 N 134.507 -0.190092 1.56449 0
M  V30 1455 C 135.417 -1.25591 1.98152 0
M  V30 1456 C 136.433 -1.49519 0.889944 0
M  V30 1457 O 137.609 -1.62036 1.19609 0
M  V30 1458 C 134.674 -2.57916 2.3169 0
M  V30 1459 C 133.735 -2.42015 3.5458 0
M  V30 1460 C 132.968 -3.6803 3.8651 0
M  V30 1461 O 133.191 -4.72413 3.1966 0
M  V30 1462 O 132.125 -3.6326 4.79923 0
M  V30 1463 H 135.951 -0.931988 2.89046 0
M  V30 1464 H 133.536 -0.395488 1.4407 0
M  V30 1465 H 135.418 -3.36008 2.54316 0
M  V30 1466 H 134.093 -2.89925 1.43963 0
M  V30 1467 H 133 -1.62017 3.37196 0
M  V30 1468 H 134.333 -2.14937 4.4279 0
M  V30 1469 N 135.985 -1.50799 -0.457987 0
M  V30 1470 C 137.21 -1.66496 -1.23668 0
M  V30 1471 C 137.635 -0.353288 -1.84752 0
M  V30 1472 O 136.993 0.684346 -1.67888 0
M  V30 1473 C 137.041 -2.76763 -2.3116 0
M  V30 1474 O 136.145 -2.38928 -3.36136 0
M  V30 1475 H 135.486 -0.555828 -0.363252 0
M  V30 1476 H 138.016 -1.9725 -0.543474 0
M  V30 1477 H 138.026 -3.00232 -2.76269 0
M  V30 1478 H 136.701 -3.71954 -1.86073 0
M  V30 1479 H 135.278 -2.25953 -2.96647 0
M  V30 1480 N 137.463 0.71206 -1.40597 0
M  V30 1481 C 138.712 1.46754 -1.38369 0
M  V30 1482 C 139.025 1.95598 0.0097839 0
M  V30 1483 O 140.231 2.71059 0.154677 0
M  V30 1484 C 138.687 2.65289 -2.43207 0
M  V30 1485 C 138.295 2.23301 -3.88382 0
M  V30 1486 C 140.039 3.43008 -2.50091 0
M  V30 1487 C 137.946 3.38696 -4.84808 0
M  V30 1488 H 136.876 0.55118 -0.514506 0
M  V30 1489 H 139.527 0.774616 -1.66349 0
M  V30 1490 H 137.909 3.36769 -2.08332 0
M  V30 1491 H 139.083 1.59218 -4.32419 0
M  V30 1492 H 137.398 1.58618 -3.85006 0
M  V30 1493 H 139.995 4.28881 -3.1932 0
M  V30 1494 H 140.338 3.87065 -1.53253 0
M  V30 1495 H 140.871 2.78574 -2.83974 0
M  V30 1496 H 137.61 2.99668 -5.82992 0
M  V30 1497 H 137.13 4.01683 -4.45433 0
M  V30 1498 H 138.809 4.04712 -5.04794 0
M  V30 1499 N 138.941 1.26152 0.944643 0
M  V30 1500 C 140.218 1.02247 1.66748 0
M  V30 1501 C 140.598 -0.448202 2.06287 0
M  V30 1502 O 139.946 -1.42779 1.78399 0
M  V30 1503 C 140.156 1.96788 2.88228 0
M  V30 1504 C 141.504 2.25201 3.59958 0
M  V30 1505 O 142.528 1.94626 2.98327 0
M  V30 1506 O 141.387 2.77242 4.70956 0
M  V30 1507 H 138.481 0.388517 0.730057 0
M  V30 1508 H 141.027 1.37348 0.99668 0
M  V30 1509 H 139.799 2.96047 2.55875 0
M  V30 1510 H 139.422 1.62145 3.63035 0
M  V30 1511 N 140.419 -1.14872 1.07899 0
M  V30 1512 C 141.644 -1.90202 0.826926 0
M  V30 1513 C 142.069 -1.77774 -0.614664 0
M  V30 1514 O 141.427 -1.11431 -1.43013 0
M  V30 1515 C 141.475 -3.38352 1.24702 0
M  V30 1516 O 140.579 -4.10497 0.39575 0
M  V30 1517 H 139.92 -0.591968 0.300782 0
M  V30 1518 H 142.45 -1.45437 1.43907 0
M  V30 1519 H 142.46 -3.89156 1.22563 0
M  V30 1520 H 141.135 -3.46715 2.29698 0
M  V30 1521 H 139.712 -3.69796 0.480117 0
M  V30 1522 N 141.898 -0.863906 -1.31812 0
M  V30 1523 C 143.147 -0.46801 -1.96195 0
M  V30 1524 C 143.46 0.983474 -1.69077 0
M  V30 1525 O 144.666 1.48523 -2.27273 0
M  V30 1526 C 143.122 -0.785995 -3.51212 0
M  V30 1527 C 142.73 -2.25383 -3.87178 0
M  V30 1528 C 144.474 -0.458274 -4.22019 0
M  V30 1529 C 142.381 -2.51455 -5.3528 0
M  V30 1530 H 141.311 -0.171283 -0.734287 0
M  V30 1531 H 143.962 -1.05597 -1.50072 0
M  V30 1532 H 142.344 -0.127359 -3.95795 0
M  V30 1533 H 143.518 -2.95502 -3.53575 0
M  V30 1534 H 141.833 -2.54698 -3.2942 0
M  V30 1535 H 144.43 -0.630369 -5.30971 0
M  V30 1536 H 144.773 0.600834 -4.11941 0
M  V30 1537 H 145.306 -1.07319 -3.8305 0
M  V30 1538 H 142.045 -3.56025 -5.50387 0
M  V30 1539 H 141.565 -1.85923 -5.70257 0
M  V30 1540 H 143.244 -2.35874 -6.02472 0
M  V30 1541 N 143.376 1.44774 -0.622745 0
M  V30 1542 C 144.601 2.06999 -0.128968 0
M  V30 1543 C 145.026 1.4617 1.1839 0
M  V30 1544 O 144.384 0.560007 1.72434 0
M  V30 1545 C 144.432 3.60595 -0.0188351 0
M  V30 1546 O 143.536 3.99398 1.02739 0
M  V30 1547 H 142.877 0.659047 -0.0809544 0
M  V30 1548 H 145.407 1.85784 -0.85705 0
M  V30 1549 H 145.417 4.07627 0.174476 0
M  V30 1550 H 144.092 4.04252 -0.977384 0
M  V30 1551 H 142.669 3.64011 0.809326 0
M  V30 1552 N 144.854 0.36279 1.53368 0
M  V30 1553 C 145.764 -0.492994 2.29362 0
M  V30 1554 C 146.78 -1.09507 1.35219 0
M  V30 1555 O 147.956 -1.10662 1.68273 0
M  V30 1556 C 145.021 -1.61855 3.066 0
M  V30 1557 C 144.082 -1.04429 4.16405 0
M  V30 1558 C 143.315 -2.11621 4.89951 0
M  V30 1559 O 143.538 -3.32684 4.63333 0
M  V30 1560 O 142.472 -1.74835 5.75948 0
M  V30 1561 H 146.298 0.125331 3.03441 0
M  V30 1562 H 143.883 0.127253 1.48857 0
M  V30 1563 H 145.765 -2.27302 3.54841 0
M  V30 1564 H 144.44 -2.22233 2.3536 0
M  V30 1565 H 143.347 -0.353819 3.72423 0
M  V30 1566 H 144.68 -0.485113 4.89804 0
M  V30 1567 N 146.332 -1.57332 0.0918853 0
M  V30 1568 C 147.56 -1.98574 -0.581048 0
M  V30 1569 C 147.975 -0.970903 -1.61923 0
M  V30 1570 O 147.332 0.0399054 -1.82456 0
M  V30 1571 C 147.383 -3.39872 -1.23164 0
M  V30 1572 O 147.104 -4.37469 -0.234989 0
M  V30 1573 C 148.605 -3.96099 -1.99049 0
M  V30 1574 H 145.825 -0.65261 -0.156018 0
M  V30 1575 H 148.369 -2.0379 0.170225 0
M  V30 1576 H 146.524 -3.35679 -1.93386 0
M  V30 1577 H 146.938 -5.19751 -0.70418 0
M  V30 1578 H 148.412 -4.97127 -2.39934 0
M  V30 1579 H 148.889 -3.3374 -2.85507 0
M  V30 1580 H 149.495 -4.03755 -1.3365 0
M  V30 1581 N 147.81 0.181792 -1.56548 0
M  V30 1582 C 148.758 1.24461 -1.965 0
M  V30 1583 C 149.752 1.464 -0.852261 0
M  V30 1584 O 150.958 1.47103 -1.03733 0
M  V30 1585 H 147.333 0.418138 -0.625031 0
M  V30 1586 H 149.304 0.880714 -2.85107 0
M  V30 1587 C 148.053 2.57891 -2.33212 0
M  V30 1588 H 147.376 2.41829 -3.18369 0
M  V30 1589 H 148.816 3.3097 -2.65019 0
M  V30 1590 C 147.275 3.15871 -1.17163 0
M  V30 1591 O 147.805 3.9913 -0.453708 0
M  V30 1592 N 146.011 2.74808 -0.944936 0
M  V30 1593 H 145.558 2.07205 -1.53049 0
M  V30 1594 H 145.516 3.13939 -0.170286 0
M  V30 1595 N 149.288 1.51039 0.449983 0
M  V30 1596 C 150.221 1.66105 1.56474 0
M  V30 1597 C 151.199 0.508776 1.54435 0
M  V30 1598 O 152.383 0.731005 1.73749 0
M  V30 1599 C 149.51 1.66304 2.9506 0
M  V30 1600 C 148.556 2.87346 3.15174 0
M  V30 1601 S 149.389 4.4835 2.92818 0
M  V30 1602 C 150.545 4.51274 4.33708 0
M  V30 1603 H 150.778 2.60397 1.43459 0
M  V30 1604 H 148.311 1.40565 0.638805 0
M  V30 1605 H 150.269 1.67103 3.74949 0
M  V30 1606 H 148.93 0.732108 3.05449 0
M  V30 1607 H 148.123 2.83849 4.16468 0
M  V30 1608 H 147.725 2.84223 2.43091 0
M  V30 1609 H 150.017 4.26136 5.26701 0
M  V30 1610 H 150.96 5.53017 4.42242 0
M  V30 1611 H 151.368 3.80738 4.16772 0
M  V30 1612 N 150.766 -0.704594 1.40972 0
M  V30 1613 C 152.043 -1.45847 1.30338 0
M  V30 1614 C 152.423 -2.10973 -0.0732344 0
M  V30 1615 O 151.771 -2.00997 -1.08685 0
M  V30 1616 C 151.981 -2.48525 2.45023 0
M  V30 1617 C 153.329 -3.1404 2.8577 0
M  V30 1618 O 154.353 -2.58848 2.44696 0
M  V30 1619 O 153.212 -4.13981 3.56766 0
M  V30 1620 H 150.306 -0.649092 0.512454 0
M  V30 1621 H 152.852 -0.735836 1.52917 0
M  V30 1622 H 151.624 -1.98994 3.36923 0
M  V30 1623 H 151.247 -3.2831 2.24272 0
M  V30 1624 N 152.244 -1.26651 -0.937939 0
M  V30 1625 C 153.491 -1.12387 -1.6845 0
M  V30 1626 C 153.819 0.332208 -1.91642 0
M  V30 1627 O 153.074 1.2602 -1.49725 0
M  V30 1628 C 153.373 -1.84168 -3.06295 0
M  V30 1629 C 153.039 -3.34056 -3.02849 0
M  V30 1630 C 151.701 -3.74942 -3.01616 0
M  V30 1631 C 154.053 -4.29741 -2.9491 0
M  V30 1632 C 151.381 -5.09894 -2.90215 0
M  V30 1633 C 153.733 -5.64738 -2.8505 0
M  V30 1634 C 152.397 -6.0493 -2.82162 0
M  V30 1635 H 151.667 -0.411252 -0.616403 0
M  V30 1636 H 154.314 -1.57134 -1.09459 0
M  V30 1637 H 152.619 -1.319 -3.6893 0
M  V30 1638 H 154.316 -1.70569 -3.62915 0
M  V30 1639 H 150.906 -3.01534 -3.0459 0
M  V30 1640 H 155.09 -3.99133 -2.94969 0
M  V30 1641 H 150.346 -5.40194 -2.86358 0
M  V30 1642 H 154.52 -6.38561 -2.77872 0
M  V30 1643 H 152.147 -7.09457 -2.73084 0
M  V30 1644 N 153.722 1.14298 -1.08507 0
M  V30 1645 C 154.95 1.89219 -0.836876 0
M  V30 1646 C 155.365 1.78638 0.611054 0
M  V30 1647 O 154.722 1.14643 1.41998 0
M  V30 1648 C 154.773 3.39158 -1.25116 0
M  V30 1649 O 154.494 3.49449 -2.64229 0
M  V30 1650 C 155.995 4.31073 -1.03398 0
M  V30 1651 H 153.215 0.599328 -0.301739 0
M  V30 1652 H 155.759 1.44746 -1.44461 0
M  V30 1653 H 153.914 3.81251 -0.687514 0
M  V30 1654 H 154.328 4.42589 -2.81452 0
M  V30 1655 H 155.802 5.34646 -1.37323 0
M  V30 1656 H 156.279 4.3919 0.0289259 0
M  V30 1657 H 156.885 3.94738 -1.58311 0
M  V30 1658 N 155.201 0.870884 1.31352 0
M  V30 1659 C 156.134 0.271983 2.26573 0
M  V30 1660 C 157.112 -0.599385 1.51149 0
M  V30 1661 O 158.296 -0.552605 1.80218 0
M  V30 1662 C 155.423 -0.614801 3.33073 0
M  V30 1663 C 154.469 0.185342 4.26097 0
M  V30 1664 S 155.302 1.56444 5.12138 0
M  V30 1665 C 156.458 0.683807 6.22153 0
M  V30 1666 H 156.691 1.07916 2.77023 0
M  V30 1667 H 154.224 0.669459 1.39132 0
M  V30 1668 H 156.182 -1.12074 3.94905 0
M  V30 1669 H 154.843 -1.39593 2.81376 0
M  V30 1670 H 154.036 -0.490771 5.01605 0
M  V30 1671 H 153.638 0.623415 3.68768 0
M  V30 1672 H 155.93 -0.10521 6.77418 0
M  V30 1673 H 156.873 1.41004 6.93919 0
M  V30 1674 H 157.281 0.250952 5.63942 0
M  V30 1675 N 156.679 -1.44442 0.630414 0
M  V30 1676 C 157.907 -2.06414 0.141671 0
M  V30 1677 C 158.322 -1.47105 -1.18345 0
M  V30 1678 O 157.679 -0.593662 -1.72574 0
M  V30 1679 C 157.73 -3.61494 0.0199784 0
M  V30 1680 O 157.451 -4.18594 1.29269 0
M  V30 1681 C 158.952 -4.40499 -0.497544 0
M  V30 1682 H 156.172 -0.666292 0.0793452 0
M  V30 1683 H 158.716 -1.85323 0.864614 0
M  V30 1684 H 156.871 -3.8185 -0.653402 0
M  V30 1685 H 157.285 -5.12026 1.13707 0
M  V30 1686 H 158.759 -5.49433 -0.531708 0
M  V30 1687 H 159.236 -4.11895 -1.52445 0
M  V30 1688 H 159.842 -4.25061 0.142562 0
M  V30 1689 N 158.157 -0.370918 -1.53173 0
M  V30 1690 C 159.404 0.217102 -2.01333 0
M  V30 1691 C 159.732 1.48338 -1.25802 0
M  V30 1692 O 158.987 1.92698 -0.34146 0
M  V30 1693 C 159.286 0.549696 -3.53147 0
M  V30 1694 C 158.952 -0.622872 -4.46577 0
M  V30 1695 C 157.614 -0.944595 -4.71838 0
M  V30 1696 C 159.966 -1.40819 -5.01816 0
M  V30 1697 C 157.294 -2.05351 -5.49589 0
M  V30 1698 C 159.646 -2.50757 -5.80778 0
M  V30 1699 C 158.31 -2.83458 -6.04324 0
M  V30 1700 H 157.58 0.0794431 -0.736729 0
M  V30 1701 H 160.227 -0.504481 -1.84736 0
M  V30 1702 H 158.532 1.35237 -3.6772 0
M  V30 1703 H 160.229 1.017 -3.87889 0
M  V30 1704 H 156.819 -0.36209 -4.27068 0
M  V30 1705 H 161.003 -1.17289 -4.82242 0
M  V30 1706 H 156.259 -2.3108 -5.6605 0
M  V30 1707 H 160.433 -3.12022 -6.22588 0
M  V30 1708 H 158.06 -3.69508 -6.64355 0
M  V30 1709 N 159.635 1.57281 -0.100228 0
M  V30 1710 C 160.865 1.98591 0.569681 0
M  V30 1711 C 161.273 0.978315 1.61943 0
M  V30 1712 O 160.616 -0.0396108 1.83657 0
M  V30 1713 C 160.678 3.36282 1.271 0
M  V30 1714 C 160.342 4.55488 0.371409 0
M  V30 1715 C 161.339 5.18491 -0.382504 0
M  V30 1716 C 159.024 5.01474 0.287965 0
M  V30 1717 C 161.018 6.25852 -1.20779 0
M  V30 1718 C 158.705 6.08701 -0.540965 0
M  V30 1719 C 159.703 6.70755 -1.28749 0
M  V30 1720 O 159.391 7.75914 -2.10269 0
M  V30 1721 H 159.123 0.65752 0.156982 0
M  V30 1722 H 161.677 2.0463 -0.177734 0
M  V30 1723 H 159.907 3.26941 2.0651 0
M  V30 1724 H 161.596 3.62005 1.83595 0
M  V30 1725 H 162.362 4.83891 -0.3278 0
M  V30 1726 H 158.241 4.52932 0.858689 0
M  V30 1727 H 161.785 6.74218 -1.79096 0
M  V30 1728 H 157.682 6.42732 -0.597131 0
M  V30 1729 H 158.45 7.92925 -2.03007 0
M  V30 1730 N 161.113 -0.173488 1.56642 0
M  V30 1731 C 162.043 -1.2171 1.99271 0
M  V30 1732 C 163.024 -1.46289 0.867959 0
M  V30 1733 O 164.209 -1.5766 1.13388 0
M  V30 1734 C 161.339 -2.55651 2.35074 0
M  V30 1735 C 160.293 -2.45645 3.50489 0
M  V30 1736 C 159.619 -3.84056 3.72028 0
M  V30 1737 C 160.919 -1.96302 4.84007 0
M  V30 1738 H 162.613 -0.86275 2.867 0
M  V30 1739 H 160.159 -0.413571 1.37933 0
M  V30 1740 H 162.112 -3.2886 2.63494 0
M  V30 1741 H 160.836 -2.92869 1.44552 0
M  V30 1742 H 159.495 -1.7489 3.22194 0
M  V30 1743 H 159.143 -4.18664 2.788 0
M  V30 1744 H 158.843 -3.7823 4.49684 0
M  V30 1745 H 160.367 -4.58854 4.02846 0
M  V30 1746 H 161.781 -2.59284 5.11317 0
M  V30 1747 H 160.178 -2.01429 5.65284 0
M  V30 1748 H 161.248 -0.917226 4.76146 0
M  V30 1749 N 162.591 -1.51276 -0.441967 0
M  V30 1750 C 164.007 -1.39349 -0.778083 0
M  V30 1751 C 164.207 -0.472212 -1.95889 0
M  V30 1752 O 163.263 0.0743551 -2.5239 0
M  V30 1753 C 164.576 -2.81292 -1.0628 0
M  V30 1754 C 166.124 -2.9041 -1.16751 0
M  V30 1755 C 166.599 -4.33251 -1.48519 0
M  V30 1756 N 168.09 -4.36336 -1.55453 0
M  V30 1757 C 168.825 -5.43885 -1.81596 0
M  V30 1758 N 168.321 -6.61601 -2.05562 0
M  V30 1759 N 170.114 -5.3136 -1.8334 0
M  V30 1760 H 162.265 -2.09729 0.335774 0
M  V30 1761 H 164.528 -0.943925 0.0878028 0
M  V30 1762 H 164.234 -3.50678 -0.267905 0
M  V30 1763 H 164.108 -3.20334 -1.99163 0
M  V30 1764 H 166.495 -2.21225 -1.95304 0
M  V30 1765 H 166.576 -2.54871 -0.217801 0
M  V30 1766 H 166.22 -5.02984 -0.704958 0
M  V30 1767 H 166.15 -4.66299 -2.44689 0
M  V30 1768 H 168.641 -3.51466 -1.38853 0
M  V30 1769 H 168.954 -7.39361 -2.24867 0
M  V30 1770 H 167.299 -6.64725 -2.02894 0
M  V30 1771 H 170.49 -4.38382 -1.64132 0
M  V30 1772 H 170.663 -6.15258 -2.03377 0
M  V30 1773 N 164.069 0.697108 -1.41344 0
M  V30 1774 C 165.019 1.80313 -1.39539 0
M  V30 1775 C 166.003 1.58618 -0.270001 0
M  V30 1776 O 167.195 1.69477 -0.510551 0
M  V30 1777 C 164.324 3.18606 -1.27848 0
M  V30 1778 C 163.41 3.46001 -2.45244 0
M  V30 1779 N 163.801 3.44103 -3.70711 0
M  V30 1780 C 162.099 3.76542 -2.39023 0
M  V30 1781 C 162.8 3.7036 -4.48563 0
M  V30 1782 N 161.776 3.90027 -3.78655 0
M  V30 1783 H 165.578 1.77207 -2.34468 0
M  V30 1784 H 163.092 0.897031 -1.35378 0
M  V30 1785 H 165.089 3.97833 -1.24637 0
M  V30 1786 H 163.749 3.22925 -0.339032 0
M  V30 1787 H 164.76 3.2452 -4.03618 0
M  V30 1788 H 161.437 3.88241 -1.53542 0
M  V30 1789 H 162.827 3.75042 -5.57488 0
M  V30 1790 N 165.547 1.27147 0.931209 0
M  V30 1791 C 166.777 1.15914 1.71019 0
M  V30 1792 C 167.185 -0.287112 1.87009 0
M  V30 1793 O 166.528 -1.20761 1.38429 0
M  V30 1794 C 166.59 1.76647 3.13107 0
M  V30 1795 C 166.254 3.25807 3.20467 0
M  V30 1796 C 167.251 4.22489 3.02983 0
M  V30 1797 C 164.936 3.66452 3.43538 0
M  V30 1798 C 166.93 5.57794 3.08454 0
M  V30 1799 C 164.617 5.01888 3.48643 0
M  V30 1800 C 165.615 5.97369 3.31119 0
M  V30 1801 O 165.303 7.30337 3.35952 0
M  V30 1802 H 165.035 0.404062 0.54195 0
M  V30 1803 H 167.589 1.68457 1.17521 0
M  V30 1804 H 165.819 1.18578 3.68071 0
M  V30 1805 H 167.508 1.60179 3.72958 0
M  V30 1806 H 168.274 3.92425 2.85004 0
M  V30 1807 H 164.153 2.92611 3.5623 0
M  V30 1808 H 167.697 6.32298 2.94694 0
M  V30 1809 H 163.594 5.31609 3.66145 0
M  V30 1810 H 164.362 7.38739 3.5243 0
M  V30 1811 N 167.025 -1.13721 1.09112 0
M  V30 1812 C 168.271 -1.85413 0.836283 0
M  V30 1813 C 168.626 -1.8175 -0.631249 0
M  V30 1814 O 167.919 -1.24238 -1.45861 0
M  V30 1815 C 168.113 -3.32861 1.30146 0
M  V30 1816 C 167.942 -3.50882 2.81268 0
M  V30 1817 C 166.712 -3.65312 3.49106 0
M  V30 1818 C 168.91 -3.47196 3.7942 0
M  V30 1819 N 166.892 -3.71563 4.88686 0
M  V30 1820 C 168.263 -3.59777 5.04936 0
M  V30 1821 C 170.318 -3.30577 3.72321 0
M  V30 1822 C 169.021 -3.57455 6.24194 0
M  V30 1823 C 171.047 -3.29562 4.91063 0
M  V30 1824 C 170.409 -3.42691 6.15421 0
M  V30 1825 H 166.508 -0.694812 0.358832 0
M  V30 1826 H 169.092 -1.36246 1.39087 0
M  V30 1827 H 167.263 -3.80602 0.774361 0
M  V30 1828 H 168.995 -3.92346 0.99229 0
M  V30 1829 H 165.75 -3.6685 2.9953 0
M  V30 1830 H 166.174 -3.78387 5.61384 0
M  V30 1831 H 170.816 -3.19332 2.77105 0
M  V30 1832 H 168.534 -3.67475 7.19714 0
M  V30 1833 H 172.12 -3.17905 4.87266 0
M  V30 1834 H 171 -3.41862 7.05762 0
M  V30 1835 N 168.503 -0.877838 -1.30888 0
M  V30 1836 C 169.45 -0.337538 -2.28318 0
M  V30 1837 C 170.42 0.568346 -1.56074 0
M  V30 1838 O 171.605 0.498298 -1.84178 0
M  V30 1839 C 168.745 0.448142 -3.42178 0
M  V30 1840 C 167.858 -0.48615 -4.29256 0
M  V30 1841 C 166.993 0.314427 -5.30269 0
M  V30 1842 C 166.032 -0.615791 -6.08995 0
M  V30 1843 N 165.169 0.14902 -7.01942 0
M  V30 1844 H 170.009 -1.17356 -2.73919 0
M  V30 1845 H 167.546 -0.590094 -1.34745 0
M  V30 1846 H 169.504 0.919517 -4.06941 0
M  V30 1847 H 168.134 1.24879 -2.97666 0
M  V30 1848 H 167.186 -1.076 -3.64865 0
M  V30 1849 H 168.498 -1.19909 -4.84173 0
M  V30 1850 H 167.652 0.847969 -6.00745 0
M  V30 1851 H 166.391 1.06062 -4.76027 0
M  V30 1852 H 165.396 -1.16102 -5.37401 0
M  V30 1853 H 166.621 -1.36097 -6.65323 0
M  V30 1854 H 164.567 0.877884 -6.50099 0
M  V30 1855 H 164.484 -0.504433 -7.54315 0
M  V30 1856 H 165.752 0.663537 -7.76671 0
M  V30 1857 N 169.982 1.44106 -0.638065 0
M  V30 1858 C 171.259 1.95453 -0.0759321 0
M  V30 1859 C 171.639 1.57984 1.40015 0
M  V30 1860 O 170.987 0.857361 2.11806 0
M  V30 1861 C 171.197 3.47655 -0.306132 0
M  V30 1862 C 172.545 4.24114 -0.203008 0
M  V30 1863 O 173.569 3.55405 -0.237871 0
M  V30 1864 O 172.428 5.46381 -0.113827 0
M  V30 1865 H 169.522 0.826797 0.0183332 0
M  V30 1866 H 172.068 1.54122 -0.710251 0
M  V30 1867 H 170.84 3.68 -1.3301 0
M  V30 1868 H 170.463 3.95949 0.361991 0
M  V30 1869 N 171.46 0.379036 1.52974 0
M  V30 1870 C 172.37 -0.468639 2.29872 0
M  V30 1871 C 173.386 -1.08067 1.36373 0
M  V30 1872 O 174.562 -1.08871 1.69438 0
M  V30 1873 C 171.627 -1.58594 3.083 0
M  V30 1874 C 170.688 -1.00007 4.17489 0
M  V30 1875 C 169.921 -2.06413 4.92168 0
M  V30 1876 O 170.144 -3.27751 4.66835 0
M  V30 1877 O 169.078 -1.68717 5.7777 0
M  V30 1878 H 172.904 0.157508 3.03291 0
M  V30 1879 H 170.489 0.143035 1.48714 0
M  V30 1880 H 172.371 -2.23525 3.57232 0
M  V30 1881 H 171.046 -2.19724 2.37703 0
M  V30 1882 H 169.953 -0.314299 3.72777 0
M  V30 1883 H 171.286 -0.433135 4.90291 0
M  V30 1884 N 172.938 -1.57226 0.108567 0
M  V30 1885 C 174.354 -1.5766 -0.248058 0
M  V30 1886 C 174.554 -1.12063 -1.67464 0
M  V30 1887 O 173.61 -0.803236 -2.39383 0
M  V30 1888 C 174.923 -3.0069 -0.0242287 0
M  V30 1889 C 176.471 -3.12868 -0.0909372 0
M  V30 1890 C 176.946 -4.57879 0.105067 0
M  V30 1891 N 178.437 -4.63172 0.0506846 0
M  V30 1892 C 179.172 -5.73126 0.177396 0
M  V30 1893 N 178.668 -6.91866 0.359696 0
M  V30 1894 N 180.461 -5.61977 0.117709 0
M  V30 1895 H 172.612 -1.85169 1.04049 0
M  V30 1896 H 174.875 -0.85529 0.40888 0
M  V30 1897 H 174.581 -3.38299 0.961604 0
M  V30 1898 H 174.455 -3.6945 -0.76068 0
M  V30 1899 H 176.842 -2.75124 -1.06729 0
M  V30 1900 H 176.923 -2.46672 0.677225 0
M  V30 1901 H 176.567 -4.96321 1.07834 0
M  V30 1902 H 176.497 -5.22153 -0.682954 0
M  V30 1903 H 178.988 -3.778 -0.0871266 0
M  V30 1904 H 179.301 -7.71503 0.447529 0
M  V30 1905 H 177.646 -6.93874 0.395536 0
M  V30 1906 H 180.837 -4.68094 -0.0236741 0
M  V30 1907 H 181.01 -6.47627 0.219905 0
M  V30 1908 N 174.416 0.165178 -1.56732 0
M  V30 1909 C 175.346 1.20651 -1.99914 0
M  V30 1910 C 176.327 1.45827 -0.875705 0
M  V30 1911 O 177.512 1.57057 -1.14223 0
M  V30 1912 C 174.642 2.54401 -2.36427 0
M  V30 1913 C 173.596 2.43782 -3.51787 0
M  V30 1914 C 172.922 3.82078 -3.7406 0
M  V30 1915 C 174.222 1.93732 -4.85041 0
M  V30 1916 H 175.916 0.847534 -2.87154 0
M  V30 1917 H 173.462 0.40625 -1.38151 0
M  V30 1918 H 175.415 3.27458 -2.65234 0
M  V30 1919 H 174.139 2.92098 -1.46103 0
M  V30 1920 H 172.798 1.73178 -3.23117 0
M  V30 1921 H 172.446 4.17179 -2.81017 0
M  V30 1922 H 172.146 3.7584 -4.51684 0
M  V30 1923 H 173.67 4.56712 -4.05274 0
M  V30 1924 H 175.084 2.56569 -5.12684 0
M  V30 1925 H 173.481 1.98428 -5.66345 0
M  V30 1926 H 174.551 0.891962 -4.76626 0
M  V30 1927 N 175.894 1.51508 0.433938 0
M  V30 1928 C 177.119 1.68443 1.21003 0
M  V30 1929 C 177.544 0.382636 1.84167 0
M  V30 1930 O 176.902 -0.65755 1.68956 0
M  V30 1931 C 176.95 2.80405 2.26727 0
M  V30 1932 O 176.054 2.44245 3.32292 0
M  V30 1933 H 175.395 0.561536 0.354363 0
M  V30 1934 H 177.925 1.9809 0.512024 0
M  V30 1935 H 177.935 3.0459 2.71457 0
M  V30 1936 H 176.61 3.74867 1.80132 0
M  V30 1937 H 175.187 2.30644 2.93015 0
M  V30 1938 N 177.372 -0.689602 1.41712 0
M  V30 1939 C 178.619 -1.44966 1.4139 0
M  V30 1940 C 178.947 -1.94484 0.025105 0
M  V30 1941 O 178.202 -1.70307 -0.964048 0
M  V30 1942 C 178.501 -2.67298 2.37247 0
M  V30 1943 C 178.167 -2.36405 3.83958 0
M  V30 1944 C 176.829 -2.27691 4.23923 0
M  V30 1945 C 179.181 -2.11043 4.76561 0
M  V30 1946 C 176.509 -1.91719 5.54492 0
M  V30 1947 C 178.861 -1.76578 6.07456 0
M  V30 1948 C 177.525 -1.66363 6.46436 0
M  V30 1949 H 176.795 -0.53047 0.517381 0
M  V30 1950 H 179.442 -0.787655 1.74552 0
M  V30 1951 H 177.747 -3.38461 1.9736 0
M  V30 1952 H 179.444 -3.25452 2.34269 0
M  V30 1953 H 176.034 -2.44085 3.52308 0
M  V30 1954 H 180.218 -2.16717 4.46483 0
M  V30 1955 H 175.474 -1.82367 5.83568 0
M  V30 1956 H 179.648 -1.55974 6.78708 0
M  V30 1957 H 177.275 -1.38258 7.47522 0
M  V30 1958 N 178.85 -1.27639 -0.924453 0
M  V30 1959 C 180.261 -1.12834 -1.48746 0
M  V30 1960 C 180.612 0.285505 -1.94112 0
M  V30 1961 O 179.737 1.17874 -1.81479 0
M  V30 1962 C 180.332 -2.04217 -2.70334 0
M  V30 1963 C 178.891 -1.93509 -3.22848 0
M  V30 1964 C 178.038 -1.96583 -1.95577 0
M  V30 1965 H 180.989 -1.40484 -0.738233 0
M  V30 1966 H 181.01 -1.59989 -3.4523 0
M  V30 1967 H 180.522 -3.07111 -2.37285 0
M  V30 1968 H 178.623 -0.936131 -3.60649 0
M  V30 1969 H 178.736 -2.79917 -3.88823 0
M  V30 1970 H 177.1 -1.4085 -2.12211 0
M  V30 1971 H 177.883 -3.01137 -1.64837 0
M  V30 1972 N 180.328 1.1314 -1.09713 0
M  V30 1973 C 181.553 1.88862 -0.857081 0
M  V30 1974 C 181.978 1.78729 0.586304 0
M  V30 1975 O 181.336 1.13692 1.41222 0
M  V30 1976 C 181.384 3.36325 -1.30069 0
M  V30 1977 O 180.488 4.09815 -0.461007 0
M  V30 1978 H 179.829 0.587108 -0.310162 0
M  V30 1979 H 182.359 1.43129 -1.46203 0
M  V30 1980 H 182.369 3.87157 -1.28738 0
M  V30 1981 H 181.044 3.43017 -2.35185 0
M  V30 1982 H 179.621 3.68986 -0.538888 0
M  V30 1983 N 181.806 0.884767 1.30421 0
M  V30 1984 C 183.034 0.518044 2.0031 0
M  V30 1985 C 183.449 -0.893408 1.66324 0
M  V30 1986 O 182.806 -1.5875 0.900262 0
M  V30 1987 C 182.857 0.682997 3.54989 0
M  V30 1988 O 182.578 2.03888 3.87764 0
M  V30 1989 C 184.079 0.31924 4.42149 0
M  V30 1990 H 181.299 0.200265 0.640418 0
M  V30 1991 H 183.843 1.19001 1.6631 0
M  V30 1992 H 181.998 0.0584052 3.87356 0
M  V30 1993 H 182.412 2.05735 4.82466 0
M  V30 1994 H 183.886 0.485555 5.4986 0
M  V30 1995 H 184.363 -0.742717 4.32875 0
M  V30 1996 H 184.969 0.920147 4.15227 0
M  V30 1997 N 183.284 -1.43765 0.645699 0
M  V30 1998 C 184.247 -2.29163 -0.0409488 0
M  V30 1999 C 185.247 -1.41813 -0.757996 0
M  V30 2000 O 186.437 -1.63527 -0.600382 0
M  V30 2001 C 183.569 -3.23716 -1.06869 0
M  V30 2002 H 184.762 -2.91366 0.710345 0
M  V30 2003 H 182.315 -1.5092 0.406547 0
M  V30 2004 H 183.05 -2.66393 -1.84947 0
M  V30 2005 H 182.835 -3.88105 -0.558277 0
M  V30 2006 H 184.325 -3.87831 -1.54845 0
M  V30 2007 N 184.763 -0.387143 -1.52771 0
M  V30 2008 C 185.711 0.463953 -2.27926 0
M  V30 2009 C 186.705 1.06493 -1.31741 0
M  V30 2010 O 187.911 1.00565 -1.49287 0
M  V30 2011 H 184.286 0.16837 -0.732909 0
M  V30 2012 H 186.257 -0.19141 -2.97785 0
M  V30 2013 C 185.006 1.5803 -3.09713 0
M  V30 2014 H 184.329 1.12718 -3.83581 0
M  V30 2015 H 185.769 2.15008 -3.65442 0
M  V30 2016 C 184.228 2.53509 -2.2189 0
M  V30 2017 O 184.758 3.56863 -1.84422 0
M  V30 2018 N 182.964 2.23199 -1.86093 0
M  V30 2019 H 182.511 1.39185 -2.16761 0
M  V30 2020 H 182.469 2.87333 -1.27621 0
M  V30 2021 N 186.241 1.57166 -0.116904 0
M  V30 2022 C 187.188 2.15202 0.83408 0
M  V30 2023 C 188.158 1.07644 1.26499 0
M  V30 2024 O 189.343 1.35541 1.34288 0
M  V30 2025 C 186.483 2.75405 2.07957 0
M  V30 2026 C 185.596 3.97264 1.69721 0
M  V30 2027 C 184.731 4.45561 2.89221 0
M  V30 2028 C 183.77 5.59956 2.47215 0
M  V30 2029 N 182.907 6.03006 3.59622 0
M  V30 2030 H 187.747 2.96141 0.332335 0
M  V30 2031 H 185.284 1.46309 0.152349 0
M  V30 2032 H 187.242 3.08439 2.80929 0
M  V30 2033 H 185.872 1.97159 2.55594 0
M  V30 2034 H 184.924 3.70404 0.866316 0
M  V30 2035 H 186.236 4.80226 1.34849 0
M  V30 2036 H 185.39 4.80493 3.7042 0
M  V30 2037 H 184.129 3.61544 3.27318 0
M  V30 2038 H 183.134 5.2463 1.64448 0
M  V30 2039 H 184.359 6.45738 2.10238 0
M  V30 2040 H 182.305 5.21931 3.97396 0
M  V30 2041 H 182.222 6.80819 3.28667 0
M  V30 2042 H 183.49 6.42576 4.41267 0
M  V30 2043 N 187.719 -0.156864 1.56817 0
M  V30 2044 C 188.944 -0.890331 1.87318 0
M  V30 2045 C 189.369 -1.74394 0.704855 0
M  V30 2046 O 188.727 -1.77972 -0.345786 0
M  V30 2047 C 188.775 -1.73102 3.16336 0
M  V30 2048 O 187.879 -2.83422 2.99576 0
M  V30 2049 H 187.22 -0.24857 0.615718 0
M  V30 2050 H 189.75 -0.150649 2.04045 0
M  V30 2051 H 189.76 -2.12803 3.48107 0
M  V30 2052 H 188.435 -1.10412 4.00976 0
M  V30 2053 H 187.012 -2.47199 2.7919 0
M  V30 2054 N 189.197 -1.51736 -0.425897 0
M  V30 2055 C 190.13 -1.68574 -1.53812 0
M  V30 2056 C 191.108 -0.53328 -1.53606 0
M  V30 2057 O 192.292 -0.758555 -1.72564 0
M  V30 2058 C 189.419 -1.70977 -2.92377 0
M  V30 2059 C 188.465 -2.92324 -3.10563 0
M  V30 2060 S 189.298 -4.52952 -2.85648 0
M  V30 2061 C 190.454 -4.58117 -4.26474 0
M  V30 2062 H 190.687 -2.62647 -1.39298 0
M  V30 2063 H 188.22 -1.41564 -0.616361 0
M  V30 2064 H 190.178 -1.73047 -3.72243 0
M  V30 2065 H 188.839 -0.78061 -3.04245 0
M  V30 2066 H 188.032 -2.90439 -4.11899 0
M  V30 2067 H 187.634 -2.88055 -2.38538 0
M  V30 2068 H 189.926 -4.34462 -5.19855 0
M  V30 2069 H 190.869 -5.59983 -4.33388 0
M  V30 2070 H 191.277 -3.8732 -4.10662 0
M  V30 2071 N 190.675 0.682077 -1.42076 0
M  V30 2072 C 191.903 1.47057 -1.4554 0
M  V30 2073 C 192.318 1.8869 -0.0645779 0
M  V30 2074 O 191.675 1.57666 0.919115 0
M  V30 2075 C 191.726 2.72442 -2.37609 0
M  V30 2076 O 191.447 2.32559 -3.71279 0
M  V30 2077 C 192.948 3.66069 -2.50017 0
M  V30 2078 H 190.168 0.452737 -0.495248 0
M  V30 2079 H 192.712 0.838695 -1.8651 0
M  V30 2080 H 190.867 3.31835 -1.9991 0
M  V30 2081 H 191.281 3.13475 -4.20516 0
M  V30 2082 H 192.755 4.50792 -3.18576 0
M  V30 2083 H 193.232 4.11476 -1.53572 0
M  V30 2084 H 193.838 3.12572 -2.88407 0
M  V30 2085 N 192.153 1.28127 0.917671 0
M  V30 2086 C 193.4 1.15052 1.66641 0
M  V30 2087 C 193.728 -0.301677 1.92146 0
M  V30 2088 O 192.983 -1.23622 1.51711 0
M  V30 2089 C 193.282 1.89018 3.03327 0
M  V30 2090 C 192.948 3.38832 2.97496 0
M  V30 2091 C 191.61 3.79693 2.95613 0
M  V30 2092 C 193.962 4.34378 2.88036 0
M  V30 2093 C 191.29 5.14447 2.82066 0
M  V30 2094 C 193.642 5.69201 2.7603 0
M  V30 2095 C 192.306 6.09343 2.72502 0
M  V30 2096 H 191.576 0.421006 0.609783 0
M  V30 2097 H 194.223 1.58855 1.06945 0
M  V30 2098 H 192.528 1.37752 3.66785 0
M  V30 2099 H 194.225 1.76321 3.60156 0
M  V30 2100 H 190.815 3.06342 2.99754 0
M  V30 2101 H 194.999 4.03775 2.88581 0
M  V30 2102 H 190.255 5.44681 2.77728 0
M  V30 2103 H 194.429 6.42901 2.67678 0
M  V30 2104 H 192.056 7.13712 2.61762 0
M  V30 2105 N 193.631 -1.12557 1.10312 0
M  V30 2106 C 194.908 -1.80363 0.756878 0
M  V30 2107 C 195.288 -1.97067 -0.756824 0
M  V30 2108 O 194.636 -1.54601 -1.68259 0
M  V30 2109 C 194.846 -3.14812 1.50647 0
M  V30 2110 C 196.194 -3.90029 1.67817 0
M  V30 2111 O 197.218 -3.24464 1.46974 0
M  V30 2112 O 196.077 -5.07652 2.02365 0
M  V30 2113 H 193.171 -0.780667 0.272926 0
M  V30 2114 H 195.717 -1.19404 1.20586 0
M  V30 2115 H 194.489 -2.97936 2.53672 0
M  V30 2116 H 194.112 -3.83478 1.05026 0
M  V30 2117 N 195.109 -0.891671 -1.2995 0
M  V30 2118 C 196.059 -0.334811 -2.25528 0
M  V30 2119 C 197.043 0.540553 -1.51548 0
M  V30 2120 O 198.235 0.383882 -1.72787 0
M  V30 2121 C 195.364 0.44374 -3.4042 0
M  V30 2122 C 194.45 -0.44609 -4.21747 0
M  V30 2123 N 194.841 -1.54963 -4.81477 0
M  V30 2124 C 193.139 -0.242415 -4.45341 0
M  V30 2125 C 193.84 -2.10015 -5.42465 0
M  V30 2126 N 192.816 -1.39423 -5.25416 0
M  V30 2127 H 196.618 -1.17792 -2.69262 0
M  V30 2128 H 194.132 -0.741822 -1.44467 0
M  V30 2129 H 196.129 0.859362 -4.07947 0
M  V30 2130 H 194.789 1.28421 -2.98225 0
M  V30 2131 H 195.8 -1.93244 -4.80497 0
M  V30 2132 H 192.477 0.560342 -4.13723 0
M  V30 2133 H 193.867 -3.02724 -5.9984 0
M  V30 2134 N 196.587 1.43421 -0.653314 0
M  V30 2135 C 198.003 1.56341 -0.320886 0
M  V30 2136 C 198.203 1.63696 1.17499 0
M  V30 2137 O 197.259 1.59208 1.95982 0
M  V30 2138 C 198.572 2.82424 -1.03233 0
M  V30 2139 C 200.12 2.96168 -1.01259 0
M  V30 2140 C 200.595 4.25084 -1.70492 0
M  V30 2141 N 202.086 4.31948 -1.67257 0
M  V30 2142 C 202.821 5.30466 -2.17701 0
M  V30 2143 N 202.317 6.35261 -2.76434 0
M  V30 2144 N 204.11 5.2212 -2.082 0
M  V30 2145 H 196.261 1.3689 -1.62403 0
M  V30 2146 H 198.524 0.657455 -0.682977 0
M  V30 2147 H 198.23 2.83053 -2.08744 0
M  V30 2148 H 198.104 3.72653 -0.583948 0
M  V30 2149 H 200.491 2.9508 0.0341235 0
M  V30 2150 H 200.572 2.07229 -1.49966 0
M  V30 2151 H 200.216 4.26932 -2.7512 0
M  V30 2152 H 200.146 5.1292 -1.19251 0
M  V30 2153 H 202.637 3.56838 -1.24398 0
M  V30 2154 H 202.95 7.06754 -3.12601 0
M  V30 2155 H 201.295 6.35884 -2.80495 0
M  V30 2156 H 204.486 4.39166 -1.62021 0
M  V30 2157 H 204.659 5.98739 -2.47822 0
M  V30 2158 N 198.065 0.39524 1.52563 0
M  V30 2159 C 198.995 -0.428384 2.29537 0
M  V30 2160 C 199.976 -1.05831 1.33169 0
M  V30 2161 O 201.161 -1.06995 1.62067 0
M  V30 2162 C 198.291 -1.55274 3.10656 0
M  V30 2163 C 197.245 -1.04855 4.14957 0
M  V30 2164 C 196.571 -2.26543 4.84337 0
M  V30 2165 C 197.871 -0.112324 5.22179 0
M  V30 2166 H 199.565 0.213867 2.98635 0
M  V30 2167 H 197.111 0.104298 1.43622 0
M  V30 2168 H 199.064 -2.1358 3.63265 0
M  V30 2169 H 197.788 -2.22266 2.39302 0
M  V30 2170 H 196.447 -0.487985 3.63338 0
M  V30 2171 H 196.095 -2.92059 4.09525 0
M  V30 2172 H 195.795 -1.93466 5.54837 0
M  V30 2173 H 197.319 -2.85481 5.39753 0
M  V30 2174 H 198.733 -0.603752 5.70112 0
M  V30 2175 H 197.13 0.128968 5.99961 0
M  V30 2176 H 198.2 0.837052 4.77621 0
M  V30 2177 N 199.544 -1.57102 0.125237 0
M  V30 2178 C 200.772 -1.99761 -0.538797 0
M  V30 2179 C 201.187 -1.00503 -1.59827 0
M  V30 2180 O 200.544 0.00119474 -1.825 0
M  V30 2181 C 200.595 -3.42408 -1.15927 0
M  V30 2182 O 200.316 -4.37869 -0.142143 0
M  V30 2183 C 201.817 -4.00232 -1.90602 0
M  V30 2184 H 199.037 -0.655772 -0.14214 0
M  V30 2185 H 201.581 -2.03383 0.213413 0
M  V30 2186 H 199.736 -3.39706 -1.86223 0
M  V30 2187 H 200.15 -5.21128 -0.593775 0
M  V30 2188 H 201.624 -5.02105 -2.29335 0
M  V30 2189 H 202.101 -3.39721 -2.78363 0
M  V30 2190 H 202.707 -4.06499 -1.25055 0
M  V30 2191 N 201.022 0.148545 -1.56898 0
M  V30 2192 C 202.438 0.501131 -1.51528 0
M  V30 2193 C 202.638 1.83458 -0.833399 0
M  V30 2194 O 201.694 2.49259 -0.40328 0
M  V30 2195 C 203.007 0.512864 -2.96294 0
M  V30 2196 C 204.555 0.598487 -3.07225 0
M  V30 2197 C 205.03 0.640897 -4.53494 0
M  V30 2198 N 206.521 0.703163 -4.57832 0
M  V30 2199 C 207.256 0.756935 -5.68382 0
M  V30 2200 N 206.752 0.770147 -6.88506 0
M  V30 2201 N 208.545 0.797698 -5.56411 0
M  V30 2202 H 200.696 -0.725532 -1.99624 0
M  V30 2203 H 202.959 -0.264358 -0.910395 0
M  V30 2204 H 202.665 -0.398691 -3.49433 0
M  V30 2205 H 202.539 1.35133 -3.52163 0
M  V30 2206 H 204.926 1.50046 -2.54106 0
M  V30 2207 H 205.007 -0.267093 -2.54402 0
M  V30 2208 H 204.651 -0.256915 -5.0725 0
M  V30 2209 H 204.581 1.52295 -5.04097 0
M  V30 2210 H 207.072 0.700314 -3.71354 0
M  V30 2211 H 207.385 0.812983 -7.68512 0
M  V30 2212 H 205.73 0.738049 -6.9107 0
M  V30 2213 H 208.921 0.784535 -4.61479 0
M  V30 2214 H 209.094 0.83614 -6.42583 0
M  V30 2215 N 202.5 1.5196 0.417844 0
M  V30 2216 C 203.447 1.74678 1.50852 0
M  V30 2217 C 204.417 0.588947 1.55308 0
M  V30 2218 O 205.602 0.825544 1.72016 0
M  V30 2219 C 202.742 1.89544 2.88387 0
M  V30 2220 C 201.855 3.17166 2.93309 0
M  V30 2221 C 200.99 3.22513 4.22088 0
M  V30 2222 C 200.029 4.44372 4.20951 0
M  V30 2223 N 199.166 4.47161 5.41287 0
M  V30 2224 H 204.006 2.67768 1.30783 0
M  V30 2225 H 201.543 1.32689 0.63498 0
M  V30 2226 H 203.501 1.96146 3.68216 0
M  V30 2227 H 202.131 0.998424 3.06971 0
M  V30 2228 H 201.183 3.19778 2.06024 0
M  V30 2229 H 202.495 4.07021 2.88332 0
M  V30 2230 H 201.649 3.28139 5.10303 0
M  V30 2231 H 200.388 2.30581 4.29748 0
M  V30 2232 H 199.393 4.38902 3.31127 0
M  V30 2233 H 200.618 5.3759 4.14938 0
M  V30 2234 H 198.564 3.58108 5.49632 0
M  V30 2235 H 198.481 5.3085 5.3827 0
M  V30 2236 H 199.749 4.57005 6.3148 0
M  V30 2237 N 203.978 -0.674533 1.42435 0
M  V30 2238 C 205.227 -1.43034 1.42212 0
M  V30 2239 C 205.54 -1.95555 0.0420788 0
M  V30 2240 O 206.746 -2.71374 -0.0827558 0
M  V30 2241 C 205.202 -2.58748 2.50155 0
M  V30 2242 C 204.81 -2.12925 3.94166 0
M  V30 2243 C 206.554 -3.36257 2.59098 0
M  V30 2244 C 204.461 -3.25723 4.93618 0
M  V30 2245 H 203.391 -0.537345 0.528939 0
M  V30 2246 H 206.042 -0.73024 1.68344 0
M  V30 2247 H 204.424 -3.31128 2.17188 0
M  V30 2248 H 205.598 -1.47697 4.36488 0
M  V30 2249 H 203.913 -1.48354 3.89076 0
M  V30 2250 H 206.51 -4.20264 3.30578 0
M  V30 2251 H 206.853 -3.82866 1.63461 0
M  V30 2252 H 207.386 -2.70947 2.9126 0
M  V30 2253 H 204.125 -2.84105 5.90732 0
M  V30 2254 H 203.645 -3.89732 4.55926 0
M  V30 2255 H 205.324 -3.91186 5.15347 0
M  V30 2256 N 205.456 -1.28612 -0.910864 0
M  V30 2257 C 206.702 -1.17116 -1.66299 0
M  V30 2258 C 207.057 0.276917 -1.90397 0
M  V30 2259 O 206.35 1.19795 -1.49532 0
M  V30 2260 C 206.544 -1.90624 -3.0232 0
M  V30 2261 C 206.373 -3.42431 -2.91498 0
M  V30 2262 C 205.143 -4.11773 -2.92867 0
M  V30 2263 C 207.341 -4.38124 -2.69355 0
M  V30 2264 N 205.323 -5.50025 -2.72664 0
M  V30 2265 C 206.694 -5.63759 -2.58023 0
M  V30 2266 C 208.749 -4.28016 -2.54375 0
M  V30 2267 C 207.452 -6.80436 -2.33238 0
M  V30 2268 C 209.478 -5.44433 -2.30969 0
M  V30 2269 C 208.84 -6.69034 -2.20394 0
M  V30 2270 H 204.939 -0.483506 -0.61461 0
M  V30 2271 H 207.523 -1.62299 -1.0755 0
M  V30 2272 H 205.694 -1.4787 -3.5915 0
M  V30 2273 H 207.426 -1.71488 -3.66571 0
M  V30 2274 H 204.181 -3.63378 -3.03732 0
M  V30 2275 H 204.605 -6.22705 -2.65646 0
M  V30 2276 H 209.247 -3.32388 -2.613 0
M  V30 2277 H 206.965 -7.7613 -2.25051 0
M  V30 2278 H 210.551 -5.38504 -2.20238 0
M  V30 2279 H 209.431 -7.57595 -2.02531 0
M  V30 2280 N 206.934 1.1197 -1.10907 0
M  V30 2281 C 208.18 1.8386 -0.855773 0
M  V30 2282 C 208.513 1.84134 0.617103 0
M  V30 2283 O 207.788 1.29041 1.45529 0
M  V30 2284 C 208.071 3.31305 -1.411 0
M  V30 2285 C 207.924 3.39456 -2.9511 0
M  V30 2286 C 209.243 4.2721 -1.05736 0
M  V30 2287 H 206.362 0.667545 -0.312334 0
M  V30 2288 H 209.004 1.31331 -1.37303 0
M  V30 2289 H 207.154 3.76169 -0.97105 0
M  V30 2290 H 208.826 3.03191 -3.47668 0
M  V30 2291 H 207.069 2.79849 -3.31462 0
M  V30 2292 H 207.74 4.43209 -3.29044 0
M  V30 2293 H 210.216 3.90497 -1.43706 0
M  V30 2294 H 209.092 5.28775 -1.47269 0
M  V30 2295 H 209.353 4.42088 0.0325958 0
M  V30 2296 N 208.412 0.89855 1.29475 0
M  V30 2297 C 209.823 0.572537 1.77705 0
M  V30 2298 C 210.174 -0.911778 1.73727 0
M  V30 2299 O 209.299 -1.71288 1.32247 0
M  V30 2300 C 209.894 1.03252 3.22683 0
M  V30 2301 C 208.453 0.757687 3.68695 0
M  V30 2302 C 207.6 1.20787 2.49612 0
M  V30 2303 H 210.551 1.08139 1.16153 0
M  V30 2304 H 210.572 0.367307 3.78723 0
M  V30 2305 H 210.084 2.11285 3.25546 0
M  V30 2306 H 208.185 -0.310079 3.71308 0
M  V30 2307 H 208.298 1.35476 4.59547 0
M  V30 2308 H 206.662 0.626888 2.46865 0
M  V30 2309 H 207.445 2.29622 2.55203 0
M  V30 2310 N 209.89 -1.43072 0.660911 0
M  V30 2311 C 211.167 -1.95307 0.107017 0
M  V30 2312 C 211.547 -1.60192 -1.37484 0
M  V30 2313 O 210.895 -0.890949 -2.10415 0
M  V30 2314 C 211.105 -3.47124 0.361402 0
M  V30 2315 C 212.453 -4.23738 0.270455 0
M  V30 2316 O 213.477 -3.54981 0.294382 0
M  V30 2317 O 212.336 -5.46131 0.200737 0
M  V30 2318 H 209.43 -0.826984 -0.00517729 0
M  V30 2319 H 211.976 -1.52972 0.734681 0
M  V30 2320 H 210.748 -3.65837 1.38848 0
M  V30 2321 H 210.371 -3.96475 -0.298953 0
M  V30 2322 N 211.368 -0.403325 -1.52352 0
M  V30 2323 C 212.617 0.175668 -2.00934 0
M  V30 2324 C 212.93 1.46718 -1.29356 0
M  V30 2325 O 214.136 2.12708 -1.68724 0
M  V30 2326 C 212.592 0.363612 -3.58058 0
M  V30 2327 C 212.2 -0.915472 -4.38547 0
M  V30 2328 C 213.944 0.89821 -4.14888 0
M  V30 2329 C 211.851 -0.695035 -5.87302 0
M  V30 2330 H 210.781 0.0694234 -0.750797 0
M  V30 2331 H 213.432 -0.527879 -1.75743 0
M  V30 2332 H 211.814 1.12935 -3.79555 0
M  V30 2333 H 212.988 -1.68691 -4.28812 0
M  V30 2334 H 211.303 -1.37606 -3.93006 0
M  V30 2335 H 213.9 1.07907 -5.23699 0
M  V30 2336 H 214.243 1.87126 -3.71873 0
M  V30 2337 H 214.776 0.191681 -3.97338 0
M  V30 2338 H 211.515 -1.63948 -6.34666 0
M  V30 2339 H 211.035 0.0372116 -5.99788 0
M  V30 2340 H 212.714 -0.33497 -6.46132 0
M  V30 2341 N 212.846 1.57033 -0.133567 0
M  V30 2342 C 214.093 1.95686 0.520877 0
M  V30 2343 C 214.421 1.0177 1.6575 0
M  V30 2344 O 213.676 0.0443195 1.9565 0
M  V30 2345 C 213.975 3.40674 1.08057 0
M  V30 2346 C 213.641 4.50855 0.0637899 0
M  V30 2347 C 212.303 4.80716 -0.215757 0
M  V30 2348 C 214.655 5.17398 -0.62835 0
M  V30 2349 C 211.983 5.74433 -1.19348 0
M  V30 2350 C 214.335 6.12167 -1.5948 0
M  V30 2351 C 212.999 6.40414 -1.88218 0
M  V30 2352 H 212.269 0.716067 0.190602 0
M  V30 2353 H 214.916 1.9026 -0.217556 0
M  V30 2354 H 213.221 3.42865 1.89606 0
M  V30 2355 H 214.918 3.67902 1.59529 0
M  V30 2356 H 211.508 4.27605 0.291855 0
M  V30 2357 H 215.692 4.94472 -0.425562 0
M  V30 2358 H 210.948 5.94616 -1.42272 0
M  V30 2359 H 215.122 6.6281 -2.13671 0
M  V30 2360 H 212.749 7.12838 -2.64133 0
M  V30 2361 N 214.325 -0.140222 1.56975 0
M  V30 2362 C 215.572 -0.851687 1.83719 0
M  V30 2363 C 215.9 -1.80862 0.715485 0
M  V30 2364 O 215.155 -1.93464 -0.294956 0
M  V30 2365 C 215.454 -1.65386 3.16832 0
M  V30 2366 C 215.12 -0.843112 4.42947 0
M  V30 2367 C 213.782 -0.619464 4.77196 0
M  V30 2368 C 216.134 -0.276582 5.20466 0
M  V30 2369 C 213.462 0.181312 5.8642 0
M  V30 2370 C 215.814 0.51127 6.30531 0
M  V30 2371 C 214.478 0.745432 6.63325 0
M  V30 2372 H 213.748 -0.311654 0.672274 0
M  V30 2373 H 216.395 -0.115006 1.91154 0
M  V30 2374 H 214.7 -2.46084 3.04877 0
M  V30 2375 H 216.397 -2.20793 3.34741 0
M  V30 2376 H 212.987 -1.0275 4.16101 0
M  V30 2377 H 217.171 -0.436632 4.94376 0
M  V30 2378 H 212.427 0.372165 6.10266 0
M  V30 2379 H 216.601 0.957354 6.89788 0
M  V30 2380 H 214.228 1.36778 7.47794 0
M  V30 2381 N 215.803 -1.52179 -0.40978 0
M  V30 2382 C 217.049 -1.66453 -1.15851 0
M  V30 2383 C 217.382 -0.392972 -1.90182 0
M  V30 2384 O 216.657 0.608579 -1.84734 0
M  V30 2385 C 216.94 -2.88612 -2.15349 0
M  V30 2386 C 216.793 -4.25815 -1.44918 0
M  V30 2387 C 218.112 -3.06294 -3.16026 0
M  V30 2388 H 215.231 -0.60575 -0.419805 0
M  V30 2389 H 217.873 -1.84732 -0.444314 0
M  V30 2390 H 216.023 -2.73158 -2.76255 0
M  V30 2391 H 217.695 -4.52995 -0.871365 0
M  V30 2392 H 215.938 -4.27247 -0.751159 0
M  V30 2393 H 216.609 -5.07337 -2.17516 0
M  V30 2394 H 219.085 -3.20641 -2.65195 0
M  V30 2395 H 217.961 -3.93283 -3.8291 0
M  V30 2396 H 218.222 -2.19579 -3.83715 0
M  V30 2397 N 217.281 0.66697 -1.42791 0
M  V30 2398 C 218.231 1.77313 -1.43332 0
M  V30 2399 C 219.215 1.5801 -0.303586 0
M  V30 2400 O 220.407 1.68356 -0.546385 0
M  V30 2401 C 217.536 3.15822 -1.34578 0
M  V30 2402 C 216.622 3.40721 -2.52528 0
M  V30 2403 N 217.013 3.36162 -3.77927 0
M  V30 2404 C 215.311 3.71387 -2.46956 0
M  V30 2405 C 216.012 3.60762 -4.56318 0
M  V30 2406 N 214.988 3.81908 -3.86843 0
M  V30 2407 H 218.79 1.72193 -2.38174 0
M  V30 2408 H 216.304 0.868114 -1.3725 0
M  V30 2409 H 218.301 3.951 -1.33048 0
M  V30 2410 H 216.961 3.22133 -0.407453 0
M  V30 2411 H 217.972 3.15885 -4.10411 0
M  V30 2412 H 214.649 3.84897 -1.61743 0
M  V30 2413 H 216.039 3.63132 -5.65318 0
M  V30 2414 N 218.759 1.29093 0.90403 0
M  V30 2415 C 219.984 1.19809 1.69294 0
M  V30 2416 C 220.409 -0.238481 1.86582 0
M  V30 2417 O 219.767 -1.1723 1.383 0
M  V30 2418 C 219.815 1.91202 3.05736 0
M  V30 2419 O 218.919 1.22611 3.93752 0
M  V30 2420 H 218.26 0.415385 0.518027 0
M  V30 2421 H 220.79 1.70586 1.12967 0
M  V30 2422 H 220.8 1.99487 3.55906 0
M  V30 2423 H 219.475 2.95692 2.92471 0
M  V30 2424 H 218.052 1.22554 3.52186 0
M  V30 2425 N 220.237 -1.11381 1.11499 0
M  V30 2426 C 221.184 -2.17439 0.773887 0
M  V30 2427 C 222.154 -1.64132 -0.254899 0
M  V30 2428 O 223.339 -1.90345 -0.13168 0
M  V30 2429 C 220.479 -3.44373 0.223917 0
M  V30 2430 C 219.592 -4.1168 1.30934 0
M  V30 2431 C 218.727 -5.263 0.71984 0
M  V30 2432 C 217.766 -5.85493 1.78507 0
M  V30 2433 N 216.903 -6.91507 1.21502 0
M  V30 2434 H 221.743 -2.45962 1.68246 0
M  V30 2435 H 219.28 -1.20744 0.840191 0
M  V30 2436 H 221.238 -4.17047 -0.112921 0
M  V30 2437 H 219.868 -3.16232 -0.647851 0
M  V30 2438 H 218.92 -3.37073 1.76312 0
M  V30 2439 H 220.232 -4.51729 2.11524 0
M  V30 2440 H 219.386 -6.05785 0.333094 0
M  V30 2441 H 218.125 -4.87559 -0.117377 0
M  V30 2442 H 217.13 -5.04686 2.18111 0
M  V30 2443 H 218.355 -6.26301 2.62533 0
M  V30 2444 H 216.301 -6.54783 0.399455 0
M  V30 2445 H 216.218 -7.30214 1.95763 0
M  V30 2446 H 217.486 -7.74795 0.855181 0
M  V30 2447 N 221.715 -0.905404 -1.28997 0
M  V30 2448 C 223.131 -0.60233 -1.47798 0
M  V30 2449 C 223.331 0.854645 -1.82478 0
M  V30 2450 O 222.387 1.63439 -1.92468 0
M  V30 2451 C 223.7 -1.53306 -2.58685 0
M  V30 2452 C 225.248 -1.53887 -2.72558 0
M  V30 2453 C 225.723 -2.45602 -3.86579 0
M  V30 2454 N 227.214 -2.43681 -3.93921 0
M  V30 2455 C 227.949 -3.11347 -4.81509 0
M  V30 2456 N 227.445 -3.88313 -5.73746 0
M  V30 2457 N 229.238 -3.00476 -4.75048 0
M  V30 2458 H 221.389 -1.84765 -1.04764 0
M  V30 2459 H 223.652 -0.792025 -0.520961 0
M  V30 2460 H 223.358 -2.57141 -2.39941 0
M  V30 2461 H 223.232 -1.25787 -3.55609 0
M  V30 2462 H 225.619 -0.507941 -2.90696 0
M  V30 2463 H 225.7 -1.85447 -1.76191 0
M  V30 2464 H 225.344 -3.48792 -3.69197 0
M  V30 2465 H 225.274 -2.11349 -4.82327 0
M  V30 2466 H 227.765 -1.87767 -3.27951 0
M  V30 2467 H 228.078 -4.36985 -6.37389 0
M  V30 2468 H 226.423 -3.92419 -5.73614 0
M  V30 2469 H 229.614 -2.39858 -4.01977 0
M  V30 2470 H 229.787 -3.53485 -5.43095 0
M  V30 2471 N 223.193 1.4272 -0.668489 0
M  V30 2472 C 224.418 2.06484 -0.194758 0
M  V30 2473 C 224.843 1.49862 1.13679 0
M  V30 2474 O 224.201 0.614582 1.70565 0
M  V30 2475 C 224.249 3.60353 -0.133546 0
M  V30 2476 O 223.353 4.02464 0.899806 0
M  V30 2477 H 222.694 0.656137 -0.10188 0
M  V30 2478 H 225.224 1.82964 -0.915722 0
M  V30 2479 H 225.234 4.07976 0.0447041 0
M  V30 2480 H 223.909 4.00938 -1.1055 0
M  V30 2481 H 222.486 3.66402 0.693109 0
M  V30 2482 N 224.671 0.411399 1.52136 0
M  V30 2483 C 225.918 -0.163645 2.01838 0
M  V30 2484 C 226.246 -1.4495 1.29691 0
M  V30 2485 O 225.501 -1.91725 0.392431 0
M  V30 2486 C 225.8 -0.455872 3.54481 0
M  V30 2487 C 225.466 0.741055 4.44769 0
M  V30 2488 C 224.128 1.06936 4.69167 0
M  V30 2489 C 226.48 1.54075 4.97906 0
M  V30 2490 C 223.808 2.19851 5.43951 0
M  V30 2491 C 226.16 2.66067 5.73926 0
M  V30 2492 C 224.824 2.99381 5.96596 0
M  V30 2493 H 224.094 -0.0598821 0.738576 0
M  V30 2494 H 226.741 0.553283 1.83333 0
M  V30 2495 H 225.046 -1.2544 3.71177 0
M  V30 2496 H 226.743 -0.913802 3.90449 0
M  V30 2497 H 223.333 0.475192 4.25958 0
M  V30 2498 H 227.517 1.30033 4.78963 0
M  V30 2499 H 222.773 2.46006 5.59724 0
M  V30 2500 H 226.947 3.28419 6.14096 0
M  V30 2501 H 224.574 3.86992 6.54325 0
M  V30 2502 N 226.149 -1.5696 0.141893 0
M  V30 2503 C 227.398 -1.95135 -0.510427 0
M  V30 2504 C 227.711 -1.02896 -1.66348 0
M  V30 2505 O 228.917 -1.30629 -2.38009 0
M  V30 2506 C 227.373 -3.46876 -0.959427 0
M  V30 2507 C 226.981 -4.47691 0.166419 0
M  V30 2508 C 228.725 -3.93927 -1.58183 0
M  V30 2509 C 226.632 -5.90636 -0.300565 0
M  V30 2510 H 225.562 -0.728494 -0.194454 0
M  V30 2511 H 228.213 -1.8211 0.22542 0
M  V30 2512 H 226.595 -3.55215 -1.75038 0
M  V30 2513 H 227.769 -4.51043 0.94325 0
M  V30 2514 H 226.084 -4.10527 0.696905 0
M  V30 2515 H 228.681 -4.98158 -1.94275 0
M  V30 2516 H 229.024 -3.3519 -2.46888 0
M  V30 2517 H 229.557 -3.88484 -0.855863 0
M  V30 2518 H 226.296 -6.5318 0.550989 0
M  V30 2519 H 225.816 -5.90655 -1.04338 0
M  V30 2520 H 227.495 -6.42588 -0.754265 0
M  V30 2521 N 227.627 0.131896 -1.57047 0
M  V30 2522 C 228.577 1.1679 -1.95816 0
M  V30 2523 C 229.561 1.37756 -0.831393 0
M  V30 2524 O 230.753 1.39065 -1.09499 0
M  V30 2525 C 227.882 2.49778 -2.35512 0
M  V30 2526 C 226.968 2.32342 -3.54793 0
M  V30 2527 N 227.359 1.8469 -4.70875 0
M  V30 2528 C 225.657 2.63043 -3.60173 0
M  V30 2529 C 226.358 1.80656 -5.52936 0
M  V30 2530 N 225.334 2.24528 -4.95064 0
M  V30 2531 H 229.136 0.791818 -2.83033 0
M  V30 2532 H 226.65 0.339791 -1.58805 0
M  V30 2533 H 228.647 3.24692 -2.61498 0
M  V30 2534 H 227.307 2.88156 -1.49654 0
M  V30 2535 H 228.318 1.54429 -4.9434 0
M  V30 2536 H 224.995 3.05193 -2.84892 0
M  V30 2537 H 226.385 1.45178 -6.56028 0
M  V30 2538 N 229.106 1.52395 0.401703 0
M  V30 2539 C 230.383 1.57387 1.16141 0
M  V30 2540 C 230.763 0.359359 2.08019 0
M  V30 2541 O 230.111 -0.65326 2.18963 0
M  V30 2542 C 230.321 2.90631 1.93221 0
M  V30 2543 C 231.669 3.43904 2.49028 0
M  V30 2544 O 232.693 2.92421 2.03393 0
M  V30 2545 O 231.552 4.33823 3.32356 0
M  V30 2546 H 228.646 0.634262 0.530698 0
M  V30 2547 H 231.192 1.64725 0.407883 0
M  V30 2548 H 229.964 3.70473 1.25958 0
M  V30 2549 H 229.587 2.8662 2.75563 0
M  V30 2550 N 230.584 -0.659388 1.43143 0
M  V30 2551 C 231.812 -1.44723 1.47861 0
M  V30 2552 C 232.227 -1.88563 0.0945886 0
M  V30 2553 O 231.584 -1.59108 -0.893915 0
M  V30 2554 C 231.635 -2.68627 2.41913 0
M  V30 2555 O 231.356 -2.26623 3.74932 0
M  V30 2556 C 232.857 -3.62045 2.55809 0
M  V30 2557 H 230.077 -0.444801 0.502387 0
M  V30 2558 H 232.621 -0.808916 1.87821 0
M  V30 2559 H 230.776 -3.28613 2.05164 0
M  V30 2560 H 231.19 -3.06745 4.2545 0
M  V30 2561 H 232.664 -4.45666 3.25708 0
M  V30 2562 H 233.141 -4.08981 1.60099 0
M  V30 2563 H 233.747 -3.07944 2.93344 0
M  V30 2564 N 232.062 -1.29571 -0.897171 0
M  V30 2565 C 233.29 -1.20583 -1.68129 0
M  V30 2566 C 233.705 0.233181 -1.87354 0
M  V30 2567 O 233.062 1.15579 -1.41236 0
M  V30 2568 C 233.113 -1.91772 -3.06441 0
M  V30 2569 O 232.834 -3.30053 -2.88091 0
M  V30 2570 C 234.335 -1.89291 -4.00854 0
M  V30 2571 H 231.555 -0.417826 -0.525036 0
M  V30 2572 H 234.099 -1.70987 -1.12177 0
M  V30 2573 H 232.254 -1.45196 -3.59161 0
M  V30 2574 H 232.668 -3.65942 -3.75748 0
M  V30 2575 H 234.142 -2.43662 -4.95311 0
M  V30 2576 H 234.619 -0.869014 -4.30517 0
M  V30 2577 H 235.225 -2.35622 -3.54066 0
M  V30 2578 N 233.54 1.10788 -1.12088 0
M  V30 2579 C 234.473 2.16237 -0.729168 0
M  V30 2580 C 235.451 1.60207 0.277921 0
M  V30 2581 O 236.635 1.87707 0.172737 0
M  V30 2582 C 233.762 3.38609 -0.0786848 0
M  V30 2583 C 232.808 4.13322 -1.05201 0
M  V30 2584 S 233.641 4.69371 -2.57781 0
M  V30 2585 C 234.797 5.95058 -1.94053 0
M  V30 2586 H 235.03 2.4913 -1.62239 0
M  V30 2587 H 232.563 1.22519 -0.939603 0
M  V30 2588 H 234.521 4.09473 0.290254 0
M  V30 2589 H 233.182 3.03962 0.791593 0
M  V30 2590 H 232.375 5.01051 -0.544433 0
M  V30 2591 H 231.977 3.48251 -1.36371 0
M  V30 2592 H 234.269 6.65278 -1.28107 0
M  V30 2593 H 235.212 6.50472 -2.79807 0
M  V30 2594 H 235.62 5.46918 -1.39787 0
M  V30 2595 N 235.018 0.912232 1.28515 0
M  V30 2596 C 235.928 0.404506 2.31086 0
M  V30 2597 C 236.944 -0.50707 1.66448 0
M  V30 2598 O 238.12 -0.393624 1.97516 0
M  V30 2599 C 235.185 -0.348572 3.44943 0
M  V30 2600 C 234.246 0.59604 4.25142 0
M  V30 2601 C 233.479 -0.121194 5.33562 0
M  V30 2602 O 233.702 -1.34317 5.5436 0
M  V30 2603 O 232.636 0.542716 5.99448 0
M  V30 2604 H 236.462 1.25579 2.76521 0
M  V30 2605 H 234.047 0.676998 1.33181 0
M  V30 2606 H 235.929 -0.77395 4.14232 0
M  V30 2607 H 234.604 -1.17571 3.01594 0
M  V30 2608 H 233.511 1.07079 3.58448 0
M  V30 2609 H 234.844 1.38995 4.72167 0
M  V30 2610 N 236.496 -1.42363 0.676048 0
M  V30 2611 C 237.444 -2.32596 -0.0131507 0
M  V30 2612 C 238.438 -1.49891 -0.789238 0
M  V30 2613 O 239.644 -1.65955 -0.697061 0
M  V30 2614 H 236.019 -0.751647 -0.0230481 0
M  V30 2615 H 237.99 -2.88421 0.765243 0
M  V30 2616 C 236.739 -3.34479 -0.949702 0
M  V30 2617 H 236.062 -3.98158 -0.361938 0
M  V30 2618 H 237.502 -4.00199 -1.4006 0
M  V30 2619 C 235.961 -2.66838 -2.05667 0
M  V30 2620 O 236.491 -2.50124 -3.14326 0
M  V30 2621 N 234.697 -2.25843 -1.82875 0
M  V30 2622 H 234.244 -2.39637 -0.945085 0
M  V30 2623 H 234.202 -1.80918 -2.5713 0
M  V30 2624 N 237.974 -0.419461 -1.51915 0
M  V30 2625 C 239.223 0.154346 -2.01109 0
M  V30 2626 C 239.536 1.45338 -1.30905 0
M  V30 2627 O 240.742 2.10906 -1.7097 0
M  V30 2628 C 239.198 0.325615 -3.58424 0
M  V30 2629 C 238.806 -0.961934 -4.37551 0
M  V30 2630 C 240.55 0.854155 -4.15818 0
M  V30 2631 C 238.457 -0.757287 -5.86531 0
M  V30 2632 H 237.387 0.0614563 -0.751491 0
M  V30 2633 H 240.038 -0.54649 -1.75173 0
M  V30 2634 H 238.42 1.08903 -3.80731 0
M  V30 2635 H 239.594 -1.7323 -4.26999 0
M  V30 2636 H 237.909 -1.41766 -3.91524 0
M  V30 2637 H 240.506 1.02346 -5.24814 0
M  V30 2638 H 240.849 1.83172 -3.73837 0
M  V30 2639 H 241.382 0.149528 -3.97519 0
M  V30 2640 H 238.121 -1.70671 -6.32892 0
M  V30 2641 H 237.641 -0.0264061 -5.99794 0
M  V30 2642 H 239.32 -0.403482 -6.45741 0
M  V30 2643 N 239.452 1.56882 -0.150215 0
M  V30 2644 C 240.385 2.12712 0.826358 0
M  V30 2645 C 241.363 1.05154 1.24022 0
M  V30 2646 O 242.547 1.33004 1.33575 0
M  V30 2647 C 239.674 2.64945 2.11002 0
M  V30 2648 C 238.72 3.8468 1.84183 0
M  V30 2649 S 239.553 5.25502 1.02995 0
M  V30 2650 C 240.709 5.81125 2.32474 0
M  V30 2651 H 240.942 2.95214 0.351598 0
M  V30 2652 H 238.475 1.54267 0.0641211 0
M  V30 2653 H 240.433 2.95689 2.84742 0
M  V30 2654 H 239.094 1.82568 2.55593 0
M  V30 2655 H 238.287 4.19482 2.79375 0
M  V30 2656 H 237.889 3.54714 1.1855 0
M  V30 2657 H 240.181 5.92753 3.281 0
M  V30 2658 H 241.124 6.78625 2.02171 0
M  V30 2659 H 241.532 5.09392 2.43269 0
M  V30 2660 N 240.93 -0.123565 1.57115 0
M  V30 2661 C 241.86 -1.15309 2.03042 0
M  V30 2662 C 242.841 -1.43454 0.914061 0
M  V30 2663 O 244.026 -1.53973 1.18347 0
M  V30 2664 C 241.156 -2.48043 2.43089 0
M  V30 2665 C 240.11 -2.3437 3.58127 0
M  V30 2666 C 239.436 -3.72026 3.84059 0
M  V30 2667 C 240.736 -1.80804 4.90007 0
M  V30 2668 H 242.43 -0.771102 2.893 0
M  V30 2669 H 239.976 -0.369479 1.39179 0
M  V30 2670 H 241.929 -3.20311 2.73823 0
M  V30 2671 H 240.653 -2.88122 1.53796 0
M  V30 2672 H 239.312 -1.64551 3.27595 0
M  V30 2673 H 238.96 -4.09582 2.91979 0
M  V30 2674 H 238.66 -3.63732 4.6149 0
M  V30 2675 H 240.184 -4.45806 4.1724 0
M  V30 2676 H 241.598 -2.42886 5.19307 0
M  V30 2677 H 239.995 -1.83343 5.71407 0
M  V30 2678 H 241.065 -0.76528 4.78823 0
M  V30 2679 N 242.408 -1.52605 -0.393616 0
M  V30 2680 C 243.824 -1.41753 -0.733357 0
M  V30 2681 C 244.024 -0.534293 -1.94287 0
M  V30 2682 O 243.08 -0.0059787 -2.52499 0
M  V30 2683 C 244.393 -2.84531 -0.972772 0
M  V30 2684 C 245.941 -2.93978 -1.07453 0
M  V30 2685 C 246.416 -4.37756 -1.3466 0
M  V30 2686 N 247.907 -4.4106 -1.41492 0
M  V30 2687 C 248.642 -5.49387 -1.642 0
M  V30 2688 N 248.138 -6.67806 -1.8441 0
M  V30 2689 N 249.931 -5.36923 -1.66342 0
M  V30 2690 H 242.082 -2.08555 0.402328 0
M  V30 2691 H 244.345 -0.940654 0.117789 0
M  V30 2692 H 244.051 -3.51353 -0.156204 0
M  V30 2693 H 243.925 -3.26508 -1.88871 0
M  V30 2694 H 246.312 -2.27326 -1.88167 0
M  V30 2695 H 246.393 -2.55435 -0.136605 0
M  V30 2696 H 246.037 -5.04972 -0.544581 0
M  V30 2697 H 245.967 -4.73848 -2.2973 0
M  V30 2698 H 248.458 -3.55705 -1.27601 0
M  V30 2699 H 248.771 -7.46141 -2.01231 0
M  V30 2700 H 247.116 -6.70843 -1.81644 0
M  V30 2701 H 250.307 -4.43381 -1.50102 0
M  V30 2702 H 250.48 -6.21416 -1.837 0
M  V30 2703 N 243.887 0.651787 -1.4349 0
M  V30 2704 C 245.133 1.41376 -1.45398 0
M  V30 2705 C 245.466 1.94041 -0.0784823 0
M  V30 2706 O 244.741 1.72379 0.900878 0
M  V30 2707 C 245.024 2.59414 -2.49752 0
M  V30 2708 C 244.877 2.12232 -3.96582 0
M  V30 2709 C 246.196 3.61626 -2.50827 0
M  V30 2710 H 243.315 0.512719 -0.529422 0
M  V30 2711 H 245.957 0.738796 -1.75048 0
M  V30 2712 H 244.107 3.16997 -2.246 0
M  V30 2713 H 245.779 1.59639 -4.32797 0
M  V30 2714 H 244.022 1.43592 -4.09346 0
M  V30 2715 H 244.693 2.9712 -4.65214 0
M  V30 2716 H 247.169 3.13805 -2.7325 0
M  V30 2717 H 246.045 4.41766 -3.25783 0
M  V30 2718 H 246.306 4.14314 -1.5426 0
M  V30 2719 N 245.365 1.30045 0.890287 0
M  V30 2720 C 246.315 1.12592 1.9826 0
M  V30 2721 C 247.299 0.0426021 1.60844 0
M  V30 2722 O 248.491 0.265346 1.75 0
M  V30 2723 C 245.62 0.814301 3.33503 0
M  V30 2724 C 244.706 1.93761 3.7725 0
M  V30 2725 N 245.097 3.18232 3.93143 0
M  V30 2726 C 243.395 1.83277 4.06602 0
M  V30 2727 C 244.096 3.9158 4.30163 0
M  V30 2728 N 243.072 3.19591 4.3973 0
M  V30 2729 H 246.874 2.07003 2.08631 0
M  V30 2730 H 244.388 1.21307 1.07974 0
M  V30 2731 H 246.385 0.67029 4.11476 0
M  V30 2732 H 245.045 -0.121797 3.24471 0
M  V30 2733 H 246.056 3.53581 3.78419 0
M  V30 2734 H 242.733 0.97001 4.06075 0
M  V30 2735 H 244.123 4.98744 4.50226 0
M  V30 2736 N 246.843 -1.10192 1.12674 0
M  V30 2737 C 248.254 -1.63707 0.897604 0
M  V30 2738 C 248.605 -1.87812 -0.567546 0
M  V30 2739 O 247.73 -1.62196 -1.43253 0
M  V30 2740 C 248.325 -2.974 1.62292 0
M  V30 2741 C 246.884 -3.47772 1.43986 0
M  V30 2742 C 246.031 -2.22332 1.65722 0
M  V30 2743 H 248.982 -0.936587 1.28116 0
M  V30 2744 H 249.003 -3.64986 1.07541 0
M  V30 2745 H 248.515 -2.79824 2.68924 0
M  V30 2746 H 246.616 -3.70487 0.396206 0
M  V30 2747 H 246.729 -4.25723 2.19765 0
M  V30 2748 H 245.093 -2.30599 1.08149 0
M  V30 2749 H 245.876 -2.07285 2.73657 0
M  V30 2750 N 248.321 -0.919034 -1.28029 0
M  V30 2751 C 249.598 -0.473668 -1.89778 0
M  V30 2752 C 249.978 1.04783 -1.83259 0
M  V30 2753 O 249.326 1.8982 -1.27202 0
M  V30 2754 C 249.536 -1.00998 -3.34066 0
M  V30 2755 C 250.884 -1.06525 -4.1102 0
M  V30 2756 O 251.908 -0.958996 -3.43048 0
M  V30 2757 O 250.767 -1.22776 -5.3253 0
M  V30 2758 H 247.861 -0.15098 -0.813101 0
M  V30 2759 H 250.407 -1.01016 -1.36359 0
M  V30 2760 H 249.179 -2.05392 -3.33061 0
M  V30 2761 H 248.802 -0.454626 -3.94992 0
M  V30 2762 N 249.799 1.42003 -0.683588 0
M  V30 2763 C 251.047 2.01015 -0.209101 0
M  V30 2764 C 251.368 1.54365 1.19149 0
M  V30 2765 O 250.638 0.769083 1.80172 0
M  V30 2766 H 249.218 0.743294 -0.074315 0
M  V30 2767 H 251.88 1.73798 -0.882066 0
M  V30 2768 H 250.976 3.11343 -0.2172 0
M  V30 2769 N 251.277 0.427512 1.51691 0
M  V30 2770 C 252.225 -0.403359 2.29076 0
M  V30 2771 C 253.219 -1.02962 1.34518 0
M  V30 2772 O 254.425 -0.965715 1.51901 0
M  V30 2773 H 250.8 -0.148879 0.737115 0
M  V30 2774 H 252.771 0.270295 2.97173 0
M  V30 2775 C 251.52 -1.49763 3.13794 0
M  V30 2776 H 250.843 -1.02508 3.86435 0
M  V30 2777 H 252.283 -2.05244 3.71014 0
M  V30 2778 C 250.742 -2.47536 2.28533 0
M  V30 2779 O 251.272 -3.51848 1.93819 0
M  V30 2780 N 249.478 -2.18187 1.91945 0
M  V30 2781 H 249.025 -1.33389 2.20375 0
M  V30 2782 H 248.983 -2.83848 1.35195 0
M  V30 2783 N 252.755 -1.56801 0.158532 0
M  V30 2784 C 254.001 -1.96781 -0.490405 0
M  V30 2785 C 254.334 -1.04397 -1.63753 0
M  V30 2786 O 253.609 -0.0885805 -1.94298 0
M  V30 2787 C 253.892 -3.4635 -0.985594 0
M  V30 2788 C 253.745 -4.49512 0.160824 0
M  V30 2789 C 255.064 -3.98697 -1.86355 0
M  V30 2790 H 252.183 -0.715482 -0.176788 0
M  V30 2791 H 254.825 -1.88451 0.242088 0
M  V30 2792 H 252.975 -3.53579 -1.60978 0
M  V30 2793 H 254.647 -4.54353 0.797537 0
M  V30 2794 H 252.89 -4.26013 0.818256 0
M  V30 2795 H 253.561 -5.51531 -0.227569 0
M  V30 2796 H 256.037 -3.94019 -1.33746 0
M  V30 2797 H 254.913 -5.03792 -2.17909 0
M  V30 2798 H 255.174 -3.41744 -2.8047 0
M  V30 2799 N 254.233 0.115231 -1.57178 0
M  V30 2800 C 255.163 1.1423 -2.03651 0
M  V30 2801 C 256.144 1.42967 -0.921655 0
M  V30 2802 O 257.329 1.53343 -1.19162 0
M  V30 2803 C 254.459 2.4675 -2.44401 0
M  V30 2804 C 253.413 2.32467 -3.59365 0
M  V30 2805 C 252.739 3.69984 -3.86026 0
M  V30 2806 C 254.039 1.78203 -4.90959 0
M  V30 2807 H 255.733 0.755749 -2.89705 0
M  V30 2808 H 253.279 0.362093 -1.39373 0
M  V30 2809 H 255.232 3.18854 -2.75517 0
M  V30 2810 H 253.956 2.87302 -1.55322 0
M  V30 2811 H 252.615 1.62811 -3.28463 0
M  V30 2812 H 252.263 4.08028 -2.94147 0
M  V30 2813 H 251.963 3.61279 -4.63412 0
M  V30 2814 H 253.487 4.43587 -4.19599 0
M  V30 2815 H 254.901 2.40128 -5.20587 0
M  V30 2816 H 253.298 1.8031 -5.72371 0
M  V30 2817 H 254.368 0.739876 -4.79222 0
M  V30 2818 N 255.711 1.52812 0.385517 0
M  V30 2819 C 256.641 1.80808 1.47752 0
M  V30 2820 C 257.622 0.660318 1.5676 0
M  V30 2821 O 258.807 0.908246 1.71652 0
M  V30 2822 C 255.937 1.98008 2.85324 0
M  V30 2823 C 254.891 3.13709 2.91154 0
M  V30 2824 C 254.217 3.16169 4.31209 0
M  V30 2825 C 255.517 4.52709 2.60483 0
M  V30 2826 H 257.211 2.72253 1.24573 0
M  V30 2827 H 254.757 1.31003 0.597839 0
M  V30 2828 H 256.71 2.16176 3.61726 0
M  V30 2829 H 255.434 1.03255 3.09848 0
M  V30 2830 H 254.093 2.95329 2.17201 0
M  V30 2831 H 253.741 2.19092 4.52778 0
M  V30 2832 H 253.441 3.93894 4.36029 0
M  V30 2833 H 254.965 3.36496 5.09512 0
M  V30 2834 H 256.379 4.71173 3.26602 0
M  V30 2835 H 254.776 5.32528 2.76648 0
M  V30 2836 H 255.846 4.59186 1.55809 0
M  V30 2837 N 257.189 -0.644168 1.43834 0
M  V30 2838 C 258.414 -1.43642 1.49605 0
M  V30 2839 C 258.839 -1.8773 0.117913 0
M  V30 2840 O 258.197 -1.57938 -0.890239 0
M  V30 2841 C 258.245 -2.6416 2.45463 0
M  V30 2842 O 257.349 -3.63538 1.94714 0
M  V30 2843 H 256.69 -0.430329 0.50568 0
M  V30 2844 H 259.22 -0.787448 1.8884 0
M  V30 2845 H 259.23 -3.11864 2.63068 0
M  V30 2846 H 257.905 -2.31414 3.45572 0
M  V30 2847 H 256.482 -3.2273 1.86814 0
M  V30 2848 N 258.668 -1.30515 -0.883378 0
M  V30 2849 C 259.598 -1.19607 -2.00541 0
M  V30 2850 C 260.579 -0.086346 -1.69881 0
M  V30 2851 O 261.764 -0.268654 -1.92333 0
M  V30 2852 C 258.894 -0.888758 -3.35736 0
M  V30 2853 C 257.848 -1.95659 -3.8066 0
M  V30 2854 C 257.174 -1.50224 -5.13164 0
M  V30 2855 C 258.474 -3.36788 -3.99213 0
M  V30 2856 H 260.168 -2.13476 -2.09925 0
M  V30 2857 H 257.714 -1.02775 -1.00863 0
M  V30 2858 H 259.667 -0.799094 -4.13754 0
M  V30 2859 H 258.391 0.0856125 -3.26488 0
M  V30 2860 H 257.05 -2.03591 -3.04871 0
M  V30 2861 H 256.698 -0.516092 -5.00345 0
M  V30 2862 H 256.398 -2.2165 -5.44192 0
M  V30 2863 H 257.922 -1.42639 -5.93706 0
M  V30 2864 H 259.336 -3.31605 -4.67665 0
M  V30 2865 H 257.733 -4.06314 -4.41621 0
M  V30 2866 H 258.803 -3.78561 -3.03017 0
M  V30 2867 N 260.146 1.09593 -1.13257 0
M  V30 2868 C 261.562 1.33775 -0.870423 0
M  V30 2869 C 261.762 1.95327 0.494926 0
M  V30 2870 O 260.818 2.19853 1.2418 0
M  V30 2871 C 262.131 2.25106 -1.99369 0
M  V30 2872 C 263.679 2.3862 -2.02558 0
M  V30 2873 C 264.154 3.33285 -3.14142 0
M  V30 2874 N 265.645 3.40857 -3.13641 0
M  V30 2875 C 266.38 4.14101 -3.96621 0
M  V30 2876 N 265.876 4.90157 -4.8961 0
M  V30 2877 N 267.669 4.09808 -3.84726 0
M  V30 2878 H 259.82 0.680136 -2.01216 0
M  V30 2879 H 262.083 0.362133 -0.876107 0
M  V30 2880 H 261.789 1.87103 -2.97801 0
M  V30 2881 H 261.663 3.25481 -1.90635 0
M  V30 2882 H 264.05 2.75887 -1.0474 0
M  V30 2883 H 264.131 1.38028 -2.15364 0
M  V30 2884 H 263.775 2.96741 -4.12198 0
M  V30 2885 H 263.705 4.33776 -2.98574 0
M  V30 2886 H 266.196 2.86624 -2.46282 0
M  V30 2887 H 266.509 5.4347 -5.49418 0
M  V30 2888 H 264.854 4.89251 -4.93617 0
M  V30 2889 H 268.045 3.4949 -3.11408 0
M  V30 2890 H 268.218 4.66629 -4.49623 0
M  V30 2891 N 261.624 0.925811 1.2754 0
M  V30 2892 C 262.873 0.561084 1.93739 0
M  V30 2893 C 263.186 -0.901685 1.73577 0
M  V30 2894 O 264.392 -1.37511 2.34101 0
M  V30 2895 C 262.848 0.952668 3.47062 0
M  V30 2896 C 262.456 2.43599 3.75983 0
M  V30 2897 C 264.2 0.659103 4.19352 0
M  V30 2898 C 262.107 2.76707 5.22673 0
M  V30 2899 H 261.037 0.206122 0.725279 0
M  V30 2900 H 263.688 1.12637 1.44863 0
M  V30 2901 H 262.07 0.316053 3.94737 0
M  V30 2902 H 263.244 3.12035 3.39073 0
M  V30 2903 H 261.559 2.70125 3.16893 0
M  V30 2904 H 264.156 0.882985 5.27359 0
M  V30 2905 H 264.499 -0.403607 4.14339 0
M  V30 2906 H 265.032 1.25473 3.77494 0
M  V30 2907 H 261.771 3.8188 5.32774 0
M  V30 2908 H 261.291 2.12919 5.60737 0
M  V30 2909 H 262.97 2.6435 5.90532 0
M  V30 2910 N 263.102 -1.41638 0.69111 0
M  V30 2911 C 264.33 -2.05628 0.22909 0
M  V30 2912 C 264.745 -1.51992 -1.11999 0
M  V30 2913 O 264.102 -0.666322 -1.69901 0
M  V30 2914 C 264.153 -3.61084 0.173283 0
M  V30 2915 O 263.874 -4.12735 1.46907 0
M  V30 2916 C 265.375 -4.42213 -0.310266 0
M  V30 2917 H 262.595 -0.662327 0.107534 0
M  V30 2918 H 265.139 -1.81489 0.942438 0
M  V30 2919 H 263.294 -3.84278 -0.490858 0
M  V30 2920 H 263.708 -5.06743 1.35322 0
M  V30 2921 H 265.182 -5.51194 -0.298196 0
M  V30 2922 H 265.659 -4.1799 -1.34838 0
M  V30 2923 H 266.265 -4.24074 0.322716 0
M  V30 2924 N 264.58 -0.43555 -1.51462 0
M  V30 2925 C 265.826 0.131709 -2.02372 0
M  V30 2926 C 266.159 1.42516 -1.3192 0
M  V30 2927 O 265.434 1.89606 -0.433573 0
M  V30 2928 C 265.717 0.352301 -3.58373 0
M  V30 2929 C 265.57 -0.959676 -4.39443 0
M  V30 2930 C 266.889 1.12286 -4.25535 0
M  V30 2931 H 264.008 0.0463936 -0.735538 0
M  V30 2932 H 266.65 -0.574197 -1.81116 0
M  V30 2933 H 264.8 0.9536 -3.76615 0
M  V30 2934 H 266.472 -1.59482 -4.32855 0
M  V30 2935 H 264.715 -1.56468 -4.04599 0
M  V30 2936 H 265.386 -0.759394 -5.46752 0
M  V30 2937 H 267.862 0.613545 -4.11552 0
M  V30 2938 H 266.738 1.24598 -5.34571 0
M  V30 2939 H 266.999 2.15048 -3.86273 0
M  V30 2940 N 266.058 1.56714 -0.166846 0
M  V30 2941 C 267.283 2.01557 0.488833 0
M  V30 2942 C 267.708 1.0463 1.56314 0
M  V30 2943 O 267.066 0.0251304 1.81283 0
M  V30 2944 C 267.114 3.4503 1.04818 0
M  V30 2945 O 266.218 3.51163 2.16236 0
M  V30 2946 H 265.559 0.653516 0.117526 0
M  V30 2947 H 268.089 2.02818 -0.269421 0
M  V30 2948 H 268.099 3.84243 1.37191 0
M  V30 2949 H 266.774 4.15077 0.261572 0
M  V30 2950 H 265.351 3.23807 1.84942 0
M  V30 2951 N 267.536 -0.106894 1.57237 0
M  V30 2952 C 268.499 -1.11466 2.0027 0
M  V30 2953 C 269.499 -1.33623 0.894519 0
M  V30 2954 O 270.689 -1.29935 1.16028 0
M  V30 2955 C 267.821 -2.46646 2.35327 0
M  V30 2956 H 269.014 -0.744516 2.90512 0
M  V30 2957 H 266.567 -0.351576 1.52295 0
M  V30 2958 H 267.302 -2.88558 1.48003 0
M  V30 2959 H 267.087 -2.31915 3.16161 0
M  V30 2960 H 268.577 -3.19151 2.69318 0
M  V30 2961 N 269.014 -1.53014 -0.377408 0
M  V30 2962 C 269.947 -1.73382 -1.48371 0
M  V30 2963 C 270.925 -0.581879 -1.51832 0
M  V30 2964 O 272.109 -0.81307 -1.70063 0
M  V30 2965 C 269.236 -1.80192 -2.8679 0
M  V30 2966 C 268.282 -3.02056 -3.01105 0
M  V30 2967 S 269.115 -4.61811 -2.71093 0
M  V30 2968 C 270.271 -4.71453 -4.11683 0
M  V30 2969 H 270.504 -2.66946 -1.30872 0
M  V30 2970 H 268.037 -1.43453 -0.571012 0
M  V30 2971 H 269.995 -1.84802 -3.6655 0
M  V30 2972 H 268.656 -0.877008 -3.01608 0
M  V30 2973 H 267.849 -3.03396 -4.02451 0
M  V30 2974 H 267.451 -2.95498 -2.29253 0
M  V30 2975 H 269.743 -4.50781 -5.0577 0
M  V30 2976 H 270.686 -5.73487 -4.15353 0
M  V30 2977 H 271.094 -4.00189 -3.98132 0
M  V30 2978 N 270.492 0.636531 -1.44174 0
M  V30 2979 C 271.732 1.40781 -1.48189 0
M  V30 2980 C 272.096 1.91688 -0.10944 0
M  V30 2981 O 273.297 2.68789 -0.0242741 0
M  V30 2982 C 271.568 2.54575 -2.50851 0
M  V30 2983 S 273.127 3.4284 -2.73873 0
M  V30 2984 H 269.945 0.480345 -0.524204 0
M  V30 2985 H 272.547 0.737416 -1.81059 0
M  V30 2986 H 271.251 2.15478 -3.49281 0
M  V30 2987 H 270.782 3.26447 -2.19536 0
M  V30 2988 H 272.797 4.51846 -2.05059 0
M  V30 2989 N 271.97 1.30982 0.876444 0
M  V30 2990 C 273.217 1.20296 1.62896 0
M  V30 2991 C 273.545 -0.240395 1.93009 0
M  V30 2992 O 272.8 -1.18733 1.55567 0
M  V30 2993 C 273.099 1.98572 2.9716 0
M  V30 2994 C 272.765 3.48125 2.86566 0
M  V30 2995 C 271.427 3.88905 2.83383 0
M  V30 2996 C 273.779 4.43322 2.74071 0
M  V30 2997 C 271.107 5.2316 2.65556 0
M  V30 2998 C 273.459 5.77695 2.57781 0
M  V30 2999 C 272.123 6.17704 2.52979 0
M  V30 3000 H 271.393 0.440193 0.59608 0
M  V30 3001 H 274.04 1.62177 1.01837 0
M  V30 3002 H 272.345 1.49352 3.62217 0
M  V30 3003 H 274.042 1.8769 3.54364 0
M  V30 3004 H 270.632 3.15723 2.89856 0
M  V30 3005 H 274.816 4.12752 2.75589 0
M  V30 3006 H 270.072 5.53241 2.60259 0
M  V30 3007 H 274.246 6.51091 2.47089 0
M  V30 3008 H 271.873 7.21678 2.38924 0
M  V30 3009 N 273.449 -1.08991 1.13837 0
M  V30 3010 C 274.382 -2.15049 0.763477 0
M  V30 3011 C 275.36 -1.60629 -0.252398 0
M  V30 3012 O 276.544 -1.87958 -0.142853 0
M  V30 3013 C 273.671 -3.38441 0.132545 0
M  V30 3014 C 272.717 -4.11596 1.11763 0
M  V30 3015 S 273.55 -4.6521 2.65216 0
M  V30 3016 C 274.706 -5.91896 2.03495 0
M  V30 3017 H 274.939 -2.46518 1.66182 0
M  V30 3018 H 272.472 -1.21008 0.958976 0
M  V30 3019 H 274.43 -4.09883 -0.225074 0
M  V30 3020 H 273.091 -3.05182 -0.743135 0
M  V30 3021 H 272.284 -5.00121 0.624076 0
M  V30 3022 H 271.886 -3.46038 1.41894 0
M  V30 3023 H 274.178 -6.63156 1.38675 0
M  V30 3024 H 275.121 -6.45938 2.9012 0
M  V30 3025 H 275.529 -5.44625 1.48471 0
M  V30 3026 N 274.927 -0.932562 -1.27047 0
M  V30 3027 C 276.204 -0.49377 -1.89265 0
M  V30 3028 C 276.584 1.02833 -1.8436 0
M  V30 3029 O 275.932 1.88461 -1.29209 0
M  V30 3030 C 276.142 -1.04536 -3.32976 0
M  V30 3031 C 277.49 -1.10879 -4.09867 0
M  V30 3032 O 278.514 -0.995327 -3.42011 0
M  V30 3033 O 277.373 -1.28417 -5.31198 0
M  V30 3034 H 274.467 -0.159596 -0.811454 0
M  V30 3035 H 277.013 -1.02457 -1.3528 0
M  V30 3036 H 275.785 -2.08913 -3.30864 0
M  V30 3037 H 275.408 -0.496494 -3.94488 0
M  V30 3038 N 276.405 1.4127 -0.698611 0
M  V30 3039 C 277.652 2.0118 -0.230865 0
M  V30 3040 C 277.98 1.55338 1.17049 0
M  V30 3041 O 277.235 0.756775 1.80475 0
M  V30 3042 C 277.534 3.56592 -0.240192 0
M  V30 3043 C 277.2 4.21955 -1.58948 0
M  V30 3044 C 275.862 4.39524 -1.95887 0
M  V30 3045 C 278.214 4.58576 -2.47704 0
M  V30 3046 C 275.542 4.90992 -3.2116 0
M  V30 3047 C 277.894 5.11435 -3.72313 0
M  V30 3048 C 276.558 5.27215 -4.0939 0
M  V30 3049 H 275.828 0.736169 -0.0844796 0
M  V30 3050 H 278.475 1.69124 -0.8983 0
M  V30 3051 H 276.78 3.88456 0.510797 0
M  V30 3052 H 278.477 4.00758 0.139296 0
M  V30 3053 H 275.067 4.08657 -1.29219 0
M  V30 3054 H 279.251 4.44654 -2.20445 0
M  V30 3055 H 274.507 5.01393 -3.49878 0
M  V30 3056 H 278.681 5.38752 -4.4127 0
M  V30 3057 H 276.308 5.66859 -5.06533 0
M  V30 3058 N 277.883 0.443576 1.51229 0
M  V30 3059 C 279.108 -0.121648 2.07043 0
M  V30 3060 C 279.533 -1.35156 1.30823 0
M  V30 3061 O 278.891 -1.7793 0.347934 0
M  V30 3062 C 278.939 -0.41624 3.5819 0
M  V30 3063 O 278.043 -1.50163 3.8409 0
M  V30 3064 H 277.384 0.000871367 0.663999 0
M  V30 3065 H 279.914 0.626706 1.94765 0
M  V30 3066 H 279.924 -0.664867 4.02546 0
M  V30 3067 H 278.599 0.482653 4.1309 0
M  V30 3068 H 277.176 -1.24248 3.51592 0
M  V30 3069 N 279.361 -1.56624 0.175154 0
M  V30 3070 C 280.777 -1.58571 -0.180966 0
M  V30 3071 C 280.977 -1.19065 -1.6256 0
M  V30 3072 O 280.033 -0.904044 -2.35761 0
M  V30 3073 C 281.346 -3.00522 0.103326 0
M  V30 3074 C 282.894 -3.12972 0.0418426 0
M  V30 3075 C 283.369 -4.57022 0.299175 0
M  V30 3076 N 284.86 -4.62541 0.247086 0
M  V30 3077 C 285.595 -5.71857 0.420318 0
M  V30 3078 N 285.091 -6.89717 0.652816 0
M  V30 3079 N 286.884 -5.60972 0.355957 0
M  V30 3080 H 279.035 -1.80589 1.11809 0
M  V30 3081 H 281.298 -0.837178 0.444788 0
M  V30 3082 H 281.004 -3.33916 1.10422 0
M  V30 3083 H 280.878 -3.72344 -0.603299 0
M  V30 3084 H 283.265 -2.79403 -0.949636 0
M  V30 3085 H 283.346 -2.43578 0.781238 0
M  V30 3086 H 282.99 -4.913 1.28788 0
M  V30 3087 H 282.92 -5.24579 -0.460876 0
M  V30 3088 H 285.411 -3.77829 0.0731895 0
M  V30 3089 H 285.724 -7.68911 0.774347 0
M  V30 3090 H 284.069 -6.91572 0.689476 0
M  V30 3091 H 287.26 -4.67773 0.174882 0
M  V30 3092 H 287.433 -6.46111 0.494388 0
M  V30 3093 N 280.839 0.0985539 -1.57292 0
M  V30 3094 C 282.086 0.802678 -1.85912 0
M  V30 3095 C 282.414 1.78901 -0.763186 0
M  V30 3096 O 281.669 1.94178 0.243559 0
M  V30 3097 C 281.968 1.56927 -3.21105 0
M  V30 3098 C 281.634 0.725376 -4.45027 0
M  V30 3099 C 280.296 0.492726 -4.78671 0
M  V30 3100 C 282.648 0.138493 -5.21016 0
M  V30 3101 C 279.976 -0.336727 -5.85733 0
M  V30 3102 C 282.328 -0.678264 -6.28953 0
M  V30 3103 C 280.992 -0.921039 -6.61115 0
M  V30 3104 H 280.262 0.293721 -0.680301 0
M  V30 3105 H 282.909 0.0642841 -1.91392 0
M  V30 3106 H 281.214 2.37914 -3.11294 0
M  V30 3107 H 282.911 2.11841 -3.40477 0
M  V30 3108 H 279.501 0.916815 -4.18679 0
M  V30 3109 H 283.685 0.305404 -4.95359 0
M  V30 3110 H 278.941 -0.533836 -6.09065 0
M  V30 3111 H 283.115 -1.1399 -6.87007 0
M  V30 3112 H 280.742 -1.56556 -7.43905 0
M  V30 3113 N 282.317 1.53212 0.369288 0
M  V30 3114 C 283.728 1.60943 0.946276 0
M  V30 3115 C 284.079 0.47452 1.90375 0
M  V30 3116 O 283.204 -0.399597 2.12679 0
M  V30 3117 C 283.799 2.91715 1.72302 0
M  V30 3118 C 282.358 3.01792 2.24941 0
M  V30 3119 C 281.505 2.56211 1.06072 0
M  V30 3120 H 284.456 1.58007 0.148198 0
M  V30 3121 H 284.477 2.79309 2.58393 0
M  V30 3122 H 283.989 3.74295 1.0259 0
M  V30 3123 H 282.09 2.23791 2.97906 0
M  V30 3124 H 282.203 4.06803 2.53077 0
M  V30 3125 H 280.567 2.10998 1.4266 0
M  V30 3126 H 281.35 3.41206 0.378639 0
M  V30 3127 N 283.795 -0.628877 1.44509 0
M  V30 3128 C 284.725 -1.75187 1.54376 0
M  V30 3129 C 285.706 -1.65411 0.396618 0
M  V30 3130 O 286.891 -1.84137 0.617031 0
M  V30 3131 C 284.021 -3.13725 1.48976 0
M  V30 3132 C 282.975 -3.38291 2.62189 0
M  V30 3133 C 282.301 -4.76883 2.41841 0
M  V30 3134 C 283.601 -3.30632 4.04326 0
M  V30 3135 H 285.295 -1.67187 2.48373 0
M  V30 3136 H 282.841 -0.802909 1.19538 0
M  V30 3137 H 284.794 -3.92064 1.54478 0
M  V30 3138 H 283.518 -3.22515 0.514961 0
M  V30 3139 H 282.177 -2.62334 2.56079 0
M  V30 3140 H 281.825 -4.82378 1.42548 0
M  V30 3141 H 281.525 -4.94278 3.17747 0
M  V30 3142 H 283.049 -5.57449 2.49165 0
M  V30 3143 H 284.463 -3.98873 4.11793 0
M  V30 3144 H 282.86 -3.59561 4.80454 0
M  V30 3145 H 283.93 -2.28404 4.27738 0
M  V30 3146 N 285.273 -1.31445 -0.869486 0
M  V30 3147 C 286.55 -1.11795 -1.60503 0
M  V30 3148 C 286.93 0.327168 -2.08549 0
M  V30 3149 O 286.278 1.32135 -1.8642 0
M  V30 3150 C 286.488 -2.13258 -2.76265 0
M  V30 3151 C 287.836 -2.45805 -3.46215 0
M  V30 3152 O 288.86 -2.11688 -2.86473 0
M  V30 3153 O 287.719 -3.04228 -4.5399 0
M  V30 3154 H 284.813 -0.430421 -0.706163 0
M  V30 3155 H 287.359 -1.42925 -0.914907 0
M  V30 3156 H 286.131 -3.10461 -2.3818 0
M  V30 3157 H 285.754 -1.83035 -3.52964 0
M  V30 3158 N 286.751 1.08385 -1.14413 0
M  V30 3159 C 287.979 1.84517 -0.936001 0
M  V30 3160 C 288.394 1.81626 0.515503 0
M  V30 3161 O 287.751 1.22008 1.35721 0
M  V30 3162 C 287.802 3.32049 -1.42918 0
M  V30 3163 O 287.523 3.34951 -2.82381 0
M  V30 3164 C 289.024 4.24986 -1.26103 0
M  V30 3165 H 286.244 0.582491 -0.333084 0
M  V30 3166 H 288.788 1.36885 -1.5193 0
M  V30 3167 H 286.943 3.7707 -0.888641 0
M  V30 3168 H 287.357 4.27048 -3.04517 0
M  V30 3169 H 288.831 5.26615 -1.6547 0
M  V30 3170 H 289.308 4.38726 -0.20392 0
M  V30 3171 H 289.914 3.85791 -1.79012 0
M  V30 3172 N 288.23 0.939286 1.26551 0
M  V30 3173 C 289.162 0.404704 2.25599 0
M  V30 3174 C 290.175 -0.470983 1.55838 0
M  V30 3175 O 291.364 -0.281734 1.76263 0
M  V30 3176 C 288.464 -0.43764 3.36062 0
M  V30 3177 C 287.637 0.421449 4.35365 0
M  V30 3178 C 286.696 -0.36015 5.24966 0
M  V30 3179 O 285.722 0.236167 5.6871 0
M  V30 3180 N 286.924 -1.65715 5.56344 0
M  V30 3181 H 289.689 1.25618 2.72103 0
M  V30 3182 H 287.25 0.807963 1.40298 0
M  V30 3183 H 289.242 -0.967866 3.92956 0
M  V30 3184 H 287.812 -1.18991 2.89067 0
M  V30 3185 H 287.032 1.1329 3.7757 0
M  V30 3186 H 288.32 1.00835 4.98708 0
M  V30 3187 H 287.718 -2.16378 5.22682 0
M  V30 3188 H 286.275 -2.13366 6.15888 0
M  V30 3189 N 289.708 -1.40897 0.706093 0
M  V30 3190 C 290.656 -2.32572 0.0361893 0
M  V30 3191 C 291.65 -1.51532 -0.757266 0
M  V30 3192 O 292.856 -1.67396 -0.661703 0
M  V30 3193 H 289.231 -0.751966 -0.00709935 0
M  V30 3194 H 291.202 -2.86733 0.826249 0
M  V30 3195 C 289.951 -3.36418 -0.87854 0
M  V30 3196 H 289.274 -3.98836 -0.277401 0
M  V30 3197 H 290.714 -4.0308 -1.3154 0
M  V30 3198 C 289.173 -2.71141 -1.99961 0
M  V30 3199 O 289.703 -2.56735 -3.0895 0
M  V30 3200 N 287.909 -2.29671 -1.78043 0
M  V30 3201 H 287.456 -2.41588 -0.894042 0
M  V30 3202 H 287.414 -1.86332 -2.53235 0
M  V30 3203 N 291.186 -0.45159 -1.50991 0
M  V30 3204 C 292.426 0.109066 -2.04109 0
M  V30 3205 C 292.79 1.38716 -1.32747 0
M  V30 3206 O 293.991 2.02896 -1.76314 0
M  V30 3207 C 292.262 0.308354 -3.56067 0
M  V30 3208 S 293.821 0.830369 -4.30872 0
M  V30 3209 H 290.639 0.0251531 -0.710555 0
M  V30 3210 H 293.241 -0.614264 -1.85599 0
M  V30 3211 H 291.945 -0.627962 -4.05567 0
M  V30 3212 H 291.476 1.05836 -3.78896 0
M  V30 3213 H 293.491 2.10626 -4.49279 0
M  V30 3214 N 292.664 1.56529 -0.183458 0
M  V30 3215 C 293.889 2.02064 0.467428 0
M  V30 3216 C 294.314 1.06282 1.55196 0
M  V30 3217 O 293.672 0.0443565 1.81246 0
M  V30 3218 C 293.72 3.46122 1.01153 0
M  V30 3219 O 292.824 3.53437 2.12499 0
M  V30 3220 H 292.165 0.654726 0.110588 0
M  V30 3221 H 294.695 2.02521 -0.290917 0
M  V30 3222 H 294.705 3.85676 1.33108 0
M  V30 3223 H 293.38 4.15331 0.217533 0
M  V30 3224 H 291.957 3.2575 1.81497 0
M  V30 3225 N 294.142 -0.090211 1.57342 0
M  V30 3226 C 295.072 -1.10976 2.05443 0
M  V30 3227 C 296.053 -1.41482 0.944284 0
M  V30 3228 O 297.238 -1.51428 1.21586 0
M  V30 3229 C 294.368 -2.42831 2.48295 0
M  V30 3230 C 293.322 -2.26721 3.63018 0
M  V30 3231 C 292.648 -3.63796 3.91863 0
M  V30 3232 C 293.948 -1.7037 4.93732 0
M  V30 3233 H 295.642 -0.709564 2.9087 0
M  V30 3234 H 293.188 -0.339874 1.39932 0
M  V30 3235 H 295.141 -3.14431 2.80555 0
M  V30 3236 H 293.865 -2.84795 1.59873 0
M  V30 3237 H 292.524 -1.57565 3.31012 0
M  V30 3238 H 292.172 -4.03297 3.00601 0
M  V30 3239 H 291.872 -3.53861 4.69101 0
M  V30 3240 H 293.396 -4.36855 4.26603 0
M  V30 3241 H 294.81 -2.31816 5.24342 0
M  V30 3242 H 293.207 -1.71181 5.75167 0
M  V30 3243 H 294.277 -0.663542 4.80339 0
M  V30 3244 N 295.62 -1.53406 -0.361157 0
M  V30 3245 C 296.53 -1.83122 -1.4664 0
M  V30 3246 C 297.546 -0.719943 -1.58407 0
M  V30 3247 O 298.722 -1.01046 -1.74218 0
M  V30 3248 C 295.787 -2.01891 -2.81853 0
M  V30 3249 C 294.848 -3.25784 -2.79577 0
M  V30 3250 C 294.081 -3.43648 -4.0834 0
M  V30 3251 O 294.304 -2.65714 -5.0473 0
M  V30 3252 O 293.238 -4.37018 -4.13883 0
M  V30 3253 H 297.064 -2.7703 -1.24451 0
M  V30 3254 H 294.649 -1.38841 -0.551678 0
M  V30 3255 H 296.531 -2.15782 -3.61962 0
M  V30 3256 H 295.206 -1.11173 -3.0401 0
M  V30 3257 H 294.113 -3.17312 -1.98151 0
M  V30 3258 H 295.446 -4.16439 -2.62373 0
M  V30 3259 N 297.098 0.621204 -1.44841 0
M  V30 3260 C 298.028 1.74366 -1.55303 0
M  V30 3261 C 299.009 1.65199 -0.405385 0
M  V30 3262 O 300.194 1.83807 -0.626787 0
M  V30 3263 C 297.324 3.12931 -1.50637 0
M  V30 3264 C 296.278 3.36896 -2.63979 0
M  V30 3265 C 295.604 4.75594 -2.44366 0
M  V30 3266 C 296.904 3.28483 -4.06074 0
M  V30 3267 H 298.598 1.65867 -2.49256 0
M  V30 3268 H 296.144 0.796558 -1.19962 0
M  V30 3269 H 298.097 3.9124 -1.56555 0
M  V30 3270 H 296.821 3.22237 -0.532057 0
M  V30 3271 H 295.48 2.60972 -2.57467 0
M  V30 3272 H 295.128 4.81616 -1.45105 0
M  V30 3273 H 294.828 4.92586 -3.20364 0
M  V30 3274 H 296.352 5.5612 -2.52117 0
M  V30 3275 H 297.766 3.96684 -4.13902 0
M  V30 3276 H 296.163 3.57008 -4.82354 0
M  V30 3277 H 297.233 2.26133 -4.28943 0
M  V30 3278 N 298.576 1.31904 0.862503 0
M  V30 3279 C 299.486 1.22161 2.00285 0
M  V30 3280 C 300.502 0.136785 1.73462 0
M  V30 3281 O 301.678 0.355994 1.98229 0
M  V30 3282 C 298.743 0.937093 3.33796 0
M  V30 3283 C 297.804 2.10957 3.73893 0
M  V30 3284 C 297.037 1.83853 5.01033 0
M  V30 3285 O 297.26 0.777274 5.65079 0
M  V30 3286 O 296.194 2.69741 5.38074 0
M  V30 3287 H 300.02 2.18008 2.11439 0
M  V30 3288 H 297.605 1.11716 0.991957 0
M  V30 3289 H 299.487 0.794583 4.13841 0
M  V30 3290 H 298.162 0.00871894 3.23699 0
M  V30 3291 H 297.069 2.30752 2.94456 0
M  V30 3292 H 298.402 3.02046 3.88625 0
M  V30 3293 N 300.054 -1.07777 1.14986 0
M  V30 3294 C 301.279 -1.84558 0.946213 0
M  V30 3295 C 301.704 -1.81323 -0.500362 0
M  V30 3296 O 301.062 -1.20301 -1.35637 0
M  V30 3297 C 301.11 -3.29736 1.45968 0
M  V30 3298 O 300.214 -4.07149 0.65601 0
M  V30 3299 H 299.555 -0.571641 0.33782 0
M  V30 3300 H 302.085 -1.35991 1.52865 0
M  V30 3301 H 302.095 -3.80574 1.47063 0
M  V30 3302 H 300.77 -3.31406 2.51283 0
M  V30 3303 H 299.347 -3.65994 0.714322 0
M  V30 3304 N 301.532 -0.945985 -1.26051 0
M  V30 3305 C 302.762 -0.612136 -1.97323 0
M  V30 3306 C 303.17 0.818171 -1.70595 0
M  V30 3307 O 302.513 1.55777 -0.973613 0
M  V30 3308 C 302.575 -0.780347 -3.50929 0
M  V30 3309 C 302.239 -2.18619 -4.01317 0
M  V30 3310 C 303.236 -3.16209 -4.12683 0
M  V30 3311 C 300.921 -2.50805 -4.35203 0
M  V30 3312 C 302.915 -4.44085 -4.57238 0
M  V30 3313 C 300.602 -3.78912 -4.79446 0
M  V30 3314 C 301.6 -4.75365 -4.90425 0
M  V30 3315 O 301.288 -6.01191 -5.3369 0
M  V30 3316 H 301.02 -0.229134 -0.635982 0
M  V30 3317 H 303.574 -1.27036 -1.61404 0
M  V30 3318 H 301.804 -0.0649864 -3.86645 0
M  V30 3319 H 303.493 -0.448842 -4.03411 0
M  V30 3320 H 304.259 -2.92668 -3.86744 0
M  V30 3321 H 300.138 -1.76463 -4.2589 0
M  V30 3322 H 303.682 -5.19373 -4.65723 0
M  V30 3323 H 299.579 -4.02265 -5.0483 0
M  V30 3324 H 300.347 -6.04442 -5.51899 0
M  V30 3325 N 303.011 1.40521 -0.713556 0
M  V30 3326 C 303.974 2.29098 -0.0684347 0
M  V30 3327 C 304.974 1.45268 0.689472 0
M  V30 3328 O 306.164 1.66205 0.521677 0
M  V30 3329 C 303.296 3.28446 0.913024 0
M  V30 3330 H 304.489 2.87645 -0.84855 0
M  V30 3331 H 302.042 1.48809 -0.47809 0
M  V30 3332 H 302.777 2.74913 1.72027 0
M  V30 3333 H 302.562 3.90327 0.372472 0
M  V30 3334 H 304.052 3.94777 1.36165 0
M  V30 3335 N 304.489 0.459591 1.5075 0
M  V30 3336 C 305.719 -0.0972338 2.06371 0
M  V30 3337 C 306.127 -1.35074 1.32483 0
M  V30 3338 O 305.47 -1.79637 0.384226 0
M  V30 3339 C 305.532 -0.462759 3.56509 0
M  V30 3340 C 305.196 0.687084 4.51805 0
M  V30 3341 C 306.193 1.56578 4.95761 0
M  V30 3342 C 303.878 0.874144 4.94635 0
M  V30 3343 C 305.872 2.61604 5.81242 0
M  V30 3344 C 303.559 1.92765 5.79901 0
M  V30 3345 C 304.557 2.79697 6.23104 0
M  V30 3346 O 304.245 3.83235 7.06673 0
M  V30 3347 H 303.977 -0.00140687 0.675999 0
M  V30 3348 H 306.531 0.644011 1.95043 0
M  V30 3349 H 304.761 -1.25703 3.65699 0
M  V30 3350 H 306.45 -0.953323 3.94546 0
M  V30 3351 H 307.216 1.4329 4.6335 0
M  V30 3352 H 303.095 0.207006 4.60535 0
M  V30 3353 H 306.639 3.29489 6.14884 0
M  V30 3354 H 302.536 2.06064 6.11725 0
M  V30 3355 H 303.304 3.80084 7.24899 0
M  V30 3356 N 305.967 -1.56429 0.191757 0
M  V30 3357 C 306.915 -2.20273 -0.747174 0
M  V30 3358 C 307.909 -1.17288 -1.22229 0
M  V30 3359 O 309.115 -1.35441 -1.18557 0
M  V30 3360 H 305.49 -0.705885 -0.259289 0
M  V30 3361 H 307.461 -2.97826 -0.184963 0
M  V30 3362 C 306.21 -2.87356 -1.95759 0
M  V30 3363 H 305.533 -3.66341 -1.60106 0
M  V30 3364 H 306.973 -3.3547 -2.59299 0
M  V30 3365 C 305.432 -1.88213 -2.79423 0
M  V30 3366 O 305.962 -1.38033 -3.7724 0
M  V30 3367 N 304.168 -1.56516 -2.44849 0
M  V30 3368 H 303.715 -1.97516 -1.65364 0
M  V30 3369 H 303.673 -0.904369 -3.01112 0
M  V30 3370 N 307.445 0.0818655 -1.57387 0
M  V30 3371 C 308.355 1.11642 -2.06333 0
M  V30 3372 C 309.371 1.43033 -0.99083 0
M  V30 3373 O 310.547 1.53411 -1.30488 0
M  V30 3374 C 307.612 2.41342 -2.48907 0
M  V30 3375 C 306.673 2.17014 -3.7041 0
M  V30 3376 C 305.906 3.4053 -4.10944 0
M  V30 3377 O 306.129 4.4927 -3.51444 0
M  V30 3378 O 305.063 3.29336 -5.03807 0
M  V30 3379 H 308.889 0.730657 -2.9478 0
M  V30 3380 H 306.474 0.295301 -1.46452 0
M  V30 3381 H 308.356 3.17691 -2.76858 0
M  V30 3382 H 307.031 2.79319 -1.63593 0
M  V30 3383 H 305.938 1.38403 -3.47556 0
M  V30 3384 H 307.271 1.83923 -4.56545 0
M  V30 3385 N 308.923 1.53595 0.353017 0
M  V30 3386 C 310.2 1.61002 1.11075 0
M  V30 3387 C 310.58 0.425356 2.0677 0
M  V30 3388 O 309.928 -0.583267 2.2093 0
M  V30 3389 C 310.138 2.96631 1.83877 0
M  V30 3390 C 311.486 3.51653 2.37961 0
M  V30 3391 O 312.51 2.98743 1.93987 0
M  V30 3392 O 311.369 4.44177 3.18386 0
M  V30 3393 H 308.463 0.650825 0.510251 0
M  V30 3394 H 311.009 1.6594 0.35527 0
M  V30 3395 H 309.781 3.74293 1.14108 0
M  V30 3396 H 309.404 2.95242 2.66304 0
M  V30 3397 N 310.401 -0.613514 1.45168 0
M  V30 3398 C 311.678 -1.37263 1.39349 0
M  V30 3399 C 312.058 -2.11012 0.0610848 0
M  V30 3400 O 311.406 -2.07502 -0.956825 0
M  V30 3401 C 311.616 -2.3244 2.60332 0
M  V30 3402 C 312.964 -2.9523 3.05163 0
M  V30 3403 O 313.988 -2.42762 2.60663 0
M  V30 3404 O 312.847 -3.90454 3.82372 0
M  V30 3405 H 309.941 -0.615188 0.552696 0
M  V30 3406 H 312.487 -0.637097 1.57287 0
M  V30 3407 H 311.259 -1.77164 3.48896 0
M  V30 3408 H 310.882 -3.13383 2.44698 0
M  V30 3409 N 311.879 -1.3236 -0.855495 0
M  V30 3410 C 312.809 -1.23833 -1.97958 0
M  V30 3411 C 313.79 -0.122361 -1.69659 0
M  V30 3412 O 314.975 -0.30939 -1.9172 0
M  V30 3413 C 312.105 -0.959772 -3.33775 0
M  V30 3414 C 311.059 -2.03689 -3.76424 0
M  V30 3415 C 310.385 -1.61075 -5.09862 0
M  V30 3416 C 311.685 -3.4518 -3.9198 0
M  V30 3417 H 313.379 -2.1788 -2.0535 0
M  V30 3418 H 310.925 -1.04891 -0.986605 0
M  V30 3419 H 312.878 -0.886678 -4.11966 0
M  V30 3420 H 311.602 0.0163404 -3.26596 0
M  V30 3421 H 310.261 -2.10012 -3.00484 0
M  V30 3422 H 309.909 -0.622107 -4.99138 0
M  V30 3423 H 309.609 -2.33143 -5.39368 0
M  V30 3424 H 311.133 -1.55201 -5.90546 0
M  V30 3425 H 312.547 -3.4145 -4.60526 0
M  V30 3426 H 310.944 -4.1559 -4.32903 0
M  V30 3427 H 312.014 -3.84903 -2.94919 0
M  V30 3428 N 313.357 1.07166 -1.15556 0
M  V30 3429 C 314.29 2.13808 -0.797593 0
M  V30 3430 C 315.268 1.6101 0.226812 0
M  V30 3431 O 316.452 1.88161 0.112932 0
M  V30 3432 C 313.579 3.38187 -0.186371 0
M  V30 3433 C 312.625 4.09766 -1.18297 0
M  V30 3434 S 313.458 4.60932 -2.72584 0
M  V30 3435 C 314.614 5.88583 -2.12886 0
M  V30 3436 H 314.847 2.43843 -1.70083 0
M  V30 3437 H 312.38 1.19467 -0.978106 0
M  V30 3438 H 314.338 4.10189 0.159837 0
M  V30 3439 H 312.999 3.06326 0.694489 0
M  V30 3440 H 312.192 4.99065 -0.703562 0
M  V30 3441 H 311.794 3.43736 -1.47381 0
M  V30 3442 H 314.086 6.60866 -1.49208 0
M  V30 3443 H 315.029 6.41241 -3.0036 0
M  V30 3444 H 315.437 5.42194 -1.57116 0
M  V30 3445 N 314.835 0.952656 1.25548 0
M  V30 3446 C 315.765 0.489287 2.28316 0
M  V30 3447 C 316.746 -0.463359 1.63667 0
M  V30 3448 O 317.931 -0.36274 1.90782 0
M  V30 3449 C 315.061 -0.235603 3.465 0
M  V30 3450 C 314.015 0.631593 4.23314 0
M  V30 3451 C 313.341 -0.223923 5.34231 0
M  V30 3452 C 314.641 1.90871 4.86174 0
M  V30 3453 H 316.335 1.34822 2.67326 0
M  V30 3454 H 313.881 0.649728 1.28509 0
M  V30 3455 H 315.834 -0.570882 4.17515 0
M  V30 3456 H 314.558 -1.12877 3.06474 0
M  V30 3457 H 313.217 0.949929 3.54079 0
M  V30 3458 H 312.865 -1.11678 4.90446 0
M  V30 3459 H 312.565 0.35299 5.86539 0
M  V30 3460 H 314.089 -0.554214 6.0808 0
M  V30 3461 H 315.503 1.63997 5.49343 0
M  V30 3462 H 313.9 2.43112 5.4865 0
M  V30 3463 H 314.97 2.61304 4.08471 0
M  V30 3464 N 316.313 -1.40141 0.720998 0
M  V30 3465 C 317.543 -2.04798 0.27226 0
M  V30 3466 C 317.951 -1.54442 -1.09289 0
M  V30 3467 O 317.294 -0.698342 -1.69908 0
M  V30 3468 C 317.356 -3.59048 0.18027 0
M  V30 3469 C 317.02 -4.32317 1.48159 0
M  V30 3470 C 318.017 -4.59902 2.42458 0
M  V30 3471 C 315.702 -4.71125 1.74202 0
M  V30 3472 C 317.696 -5.25288 3.61042 0
M  V30 3473 C 315.383 -5.36242 2.93066 0
M  V30 3474 C 316.381 -5.63254 3.86308 0
M  V30 3475 O 316.069 -6.27024 5.03086 0
M  V30 3476 H 315.801 -0.665419 0.119139 0
M  V30 3477 H 318.355 -1.80436 0.981432 0
M  V30 3478 H 316.585 -3.82251 -0.58489 0
M  V30 3479 H 318.274 -4.05221 -0.234618 0
M  V30 3480 H 319.04 -4.30379 2.23604 0
M  V30 3481 H 314.919 -4.49466 1.02477 0
M  V30 3482 H 318.463 -5.46289 4.33837 0
M  V30 3483 H 314.36 -5.65185 3.11826 0
M  V30 3484 H 315.128 -6.4552 5.03235 0
M  V30 3485 N 317.792 -0.46758 -1.50504 0
M  V30 3486 C 319.038 0.0808869 -2.03239 0
M  V30 3487 C 319.393 1.37721 -1.34353 0
M  V30 3488 O 318.686 1.86016 -0.459194 0
M  V30 3489 C 318.88 0.323995 -3.55928 0
M  V30 3490 C 318.709 -0.947215 -4.39611 0
M  V30 3491 C 317.479 -1.48951 -4.82848 0
M  V30 3492 C 319.677 -1.84166 -4.80195 0
M  V30 3493 N 317.659 -2.71011 -5.50842 0
M  V30 3494 C 319.03 -2.90815 -5.47564 0
M  V30 3495 C 321.085 -1.85246 -4.62156 0
M  V30 3496 C 319.788 -3.98529 -5.98805 0
M  V30 3497 C 321.814 -2.91914 -5.14335 0
M  V30 3498 C 321.176 -3.97282 -5.81676 0
M  V30 3499 H 317.275 -0.0103394 -0.781932 0
M  V30 3500 H 319.859 -0.635003 -1.84054 0
M  V30 3501 H 318.03 1.00892 -3.75067 0
M  V30 3502 H 319.762 0.866492 -3.95315 0
M  V30 3503 H 316.517 -1.03918 -4.62058 0
M  V30 3504 H 316.941 -3.32988 -5.89447 0
M  V30 3505 H 321.583 -1.05103 -4.09528 0
M  V30 3506 H 319.301 -4.79491 -6.50472 0
M  V30 3507 H 322.887 -2.93729 -5.0221 0
M  V30 3508 H 321.767 -4.78462 -6.21324 0
M  V30 3509 N 319.27 1.56325 -0.20005 0
M  V30 3510 C 320.217 2.1932 0.718833 0
M  V30 3511 C 321.187 1.14198 1.20615 0
M  V30 3512 O 322.372 1.42469 1.26914 0
M  V30 3513 C 319.512 2.86041 1.93066 0
M  V30 3514 C 318.625 4.05702 1.48425 0
M  V30 3515 C 317.76 4.60266 2.65196 0
M  V30 3516 C 316.799 5.72273 2.17185 0
M  V30 3517 N 315.936 6.21221 3.27152 0
M  V30 3518 H 320.776 2.97486 0.17489 0
M  V30 3519 H 318.313 1.46911 0.0745794 0
M  V30 3520 H 320.271 3.22897 2.64184 0
M  V30 3521 H 318.901 2.1043 2.44783 0
M  V30 3522 H 317.953 3.74475 0.668755 0
M  V30 3523 H 319.265 4.86699 1.09204 0
M  V30 3524 H 318.419 4.99453 3.4443 0
M  V30 3525 H 317.158 3.78386 3.07693 0
M  V30 3526 H 316.163 5.3261 1.36407 0
M  V30 3527 H 317.388 6.55974 1.75713 0
M  V30 3528 H 315.334 5.42263 3.69171 0
M  V30 3529 H 315.251 6.97284 2.92116 0
M  V30 3530 H 316.519 6.65063 4.06585 0
M  V30 3531 N 320.748 -0.0735177 1.57428 0
M  V30 3532 C 321.698 -1.09442 2.00016 0
M  V30 3533 C 322.682 -1.34575 0.881947 0
M  V30 3534 O 323.874 -1.34905 1.14585 0
M  V30 3535 C 321.003 -2.40865 2.4462 0
M  V30 3536 C 320.089 -2.19014 3.63172 0
M  V30 3537 N 320.48 -1.67087 4.77405 0
M  V30 3538 C 318.778 -2.49494 3.69688 0
M  V30 3539 C 319.479 -1.6001 5.5926 0
M  V30 3540 N 318.455 -2.05999 5.03056 0
M  V30 3541 H 322.257 -0.686227 2.85776 0
M  V30 3542 H 319.771 -0.280617 1.59957 0
M  V30 3543 H 321.768 -3.14763 2.73368 0
M  V30 3544 H 320.428 -2.82403 1.60246 0
M  V30 3545 H 321.439 -1.35975 4.99731 0
M  V30 3546 H 318.116 -2.94409 2.96023 0
M  V30 3547 H 319.506 -1.2073 6.60964 0
M  V30 3548 N 322.226 -1.5378 -0.344866 0
M  V30 3549 C 323.474 -1.70625 -1.08311 0
M  V30 3550 C 323.795 -0.471447 -1.89215 0
M  V30 3551 O 323.065 0.514616 -1.8902 0
M  V30 3552 H 321.645 -0.629058 -0.402859 0
M  V30 3553 H 324.307 -1.9103 -0.386459 0
M  V30 3554 H 323.403 -2.57656 -1.76124 0
M  V30 3555 N 323.704 0.605807 -1.45491 0
M  V30 3556 C 324.652 1.73754 -1.54636 0
M  V30 3557 C 325.646 1.64207 -0.416219 0
M  V30 3558 O 326.852 1.69979 -0.592199 0
M  V30 3559 H 323.227 0.574073 -0.485741 0
M  V30 3560 H 325.198 1.63169 -2.49837 0
M  V30 3561 C 323.947 3.12135 -1.53189 0
M  V30 3562 H 323.27 3.20141 -2.39478 0
M  V30 3563 H 324.71 3.91147 -1.63645 0
M  V30 3564 C 323.169 3.35921 -0.256616 0
M  V30 3565 O 323.699 3.96194 0.662798 0
M  V30 3566 N 321.905 2.90204 -0.151751 0
M  V30 3567 H 321.452 2.41336 -0.90081 0
M  V30 3568 H 321.41 3.06492 0.700699 0
M  V30 3569 N 325.182 1.32811 0.848464 0
M  V30 3570 C 326.129 1.22265 1.95755 0
M  V30 3571 C 327.099 0.103413 1.65778 0
M  V30 3572 O 328.284 0.280033 1.88734 0
M  V30 3573 C 325.424 0.958014 3.31536 0
M  V30 3574 C 324.537 2.16262 3.73971 0
M  V30 3575 C 323.672 1.83295 4.98575 0
M  V30 3576 C 322.711 3.00041 5.33518 0
M  V30 3577 N 321.848 2.67125 6.49299 0
M  V30 3578 H 326.688 2.17128 2.04107 0
M  V30 3579 H 324.225 1.07982 0.998913 0
M  V30 3580 H 326.183 0.785052 4.09747 0
M  V30 3581 H 324.813 0.046159 3.22767 0
M  V30 3582 H 323.865 2.44565 2.91362 0
M  V30 3583 H 325.177 3.03572 3.95785 0
M  V30 3584 H 324.331 1.62586 5.84509 0
M  V30 3585 H 323.07 0.932078 4.7871 0
M  V30 3586 H 322.075 3.21374 4.46093 0
M  V30 3587 H 323.3 3.90869 5.55336 0
M  V30 3588 H 321.246 1.79586 6.3094 0
M  V30 3589 H 321.163 3.47965 6.71161 0
M  V30 3590 H 322.431 2.49861 7.3837 0
M  V30 3591 N 326.66 -1.06551 1.16123 0
M  V30 3592 C 327.885 -1.83544 0.965735 0
M  V30 3593 C 328.31 -1.81843 -0.481102 0
M  V30 3594 O 327.668 -1.21732 -1.34354 0
M  V30 3595 C 327.716 -3.28169 1.49457 0
M  V30 3596 O 326.82 -4.0643 0.699157 0
M  V30 3597 H 326.161 -0.568026 0.343864 0
M  V30 3598 H 328.691 -1.34362 1.54299 0
M  V30 3599 H 328.701 -3.78992 1.51092 0
M  V30 3600 H 327.376 -3.28722 2.54784 0
M  V30 3601 H 325.953 -3.65216 0.7531 0
M  V30 3602 N 328.138 -0.959301 -1.25041 0
M  V30 3603 C 329.068 -0.501388 -2.28053 0
M  V30 3604 C 330.049 0.454673 -1.63911 0
M  V30 3605 O 331.234 0.352618 -1.90972 0
M  V30 3606 C 328.364 0.217224 -3.4662 0
M  V30 3607 C 327.318 -0.654034 -4.22973 0
M  V30 3608 C 326.644 0.195589 -5.34342 0
M  V30 3609 C 327.944 -1.93447 -4.85155 0
M  V30 3610 H 329.638 -1.36238 -2.66608 0
M  V30 3611 H 327.184 -0.656534 -1.28163 0
M  V30 3612 H 329.137 0.548732 -4.17812 0
M  V30 3613 H 327.861 1.1125 -3.07068 0
M  V30 3614 H 326.52 -0.968693 -3.5357 0
M  V30 3615 H 326.168 1.09076 -4.91031 0
M  V30 3616 H 325.868 -0.384091 -5.86343 0
M  V30 3617 H 327.392 0.521958 -6.08365 0
M  V30 3618 H 328.806 -1.66908 -5.48466 0
M  V30 3619 H 327.203 -2.46018 -5.47353 0
M  V30 3620 H 328.273 -2.63466 -4.07079 0
M  V30 3621 N 329.616 1.39756 -0.72842 0
M  V30 3622 C 330.564 2.32485 -0.0731849 0
M  V30 3623 C 331.558 1.52717 0.733063 0
M  V30 3624 O 332.764 1.68428 0.634988 0
M  V30 3625 H 329.139 0.751984 -0.00486469 0
M  V30 3626 H 331.11 2.85382 -0.871761 0
M  V30 3627 C 329.859 3.37773 0.824908 0
M  V30 3628 H 329.182 3.99227 0.213915 0
M  V30 3629 H 330.622 4.05121 1.25111 0
M  V30 3630 C 329.081 2.74287 1.95622 0
M  V30 3631 O 329.611 2.61618 3.04826 0
M  V30 3632 N 327.817 2.32475 1.74367 0
M  V30 3633 H 327.364 2.4298 0.855494 0
M  V30 3634 H 327.322 1.90337 2.50238 0
M  V30 3635 N 331.094 0.475555 1.50254 0
M  V30 3636 C 332.322 -0.0754493 2.06762 0
M  V30 3637 C 332.737 -1.33111 1.33891 0
M  V30 3638 O 332.094 -1.77846 0.40952 0
M  V30 3639 C 332.145 -0.359008 3.59713 0
M  V30 3640 O 331.866 0.846851 4.29837 0
M  V30 3641 C 333.367 -0.956484 4.32858 0
M  V30 3642 H 330.587 0.00907525 0.670939 0
M  V30 3643 H 333.131 0.665618 1.93364 0
M  V30 3644 H 331.286 -1.05001 3.72899 0
M  V30 3645 H 331.7 0.594162 5.21124 0
M  V30 3646 H 333.174 -1.10463 5.40834 0
M  V30 3647 H 333.651 -1.94775 3.93649 0
M  V30 3648 H 334.257 -0.303723 4.24214 0
M  V30 3649 N 332.573 -1.56217 0.208337 0
M  V30 3650 C 333.483 -2.23316 -0.718836 0
M  V30 3651 C 334.499 -1.23648 -1.22422 0
M  V30 3652 O 335.675 -1.56423 -1.26861 0
M  V30 3653 C 332.74 -2.88968 -1.91568 0
M  V30 3654 C 331.801 -4.03943 -1.45357 0
M  V30 3655 C 331.034 -4.66455 -2.59337 0
M  V30 3656 O 331.257 -4.27919 -3.77149 0
M  V30 3657 O 330.191 -5.55686 -2.31293 0
M  V30 3658 H 334.017 -3.03182 -0.177315 0
M  V30 3659 H 331.602 -1.49384 -0.0215402 0
M  V30 3660 H 333.484 -3.30455 -2.61491 0
M  V30 3661 H 332.159 -2.12071 -2.44556 0
M  V30 3662 H 331.066 -3.67052 -0.722746 0
M  V30 3663 H 332.399 -4.82543 -0.970219 0
M  V30 3664 N 334.051 0.0651679 -1.57465 0
M  V30 3665 C 334.961 1.09448 -2.07505 0
M  V30 3666 C 335.977 1.41974 -1.00595 0
M  V30 3667 O 337.153 1.52018 -1.32107 0
M  V30 3668 C 334.218 2.38689 -2.51453 0
M  V30 3669 C 333.279 2.13073 -3.72691 0
M  V30 3670 C 332.512 3.36152 -4.14533 0
M  V30 3671 O 332.735 4.45517 -3.56189 0
M  V30 3672 O 331.669 3.23974 -5.07272 0
M  V30 3673 H 335.495 0.69935 -2.95538 0
M  V30 3674 H 333.08 0.279752 -1.46757 0
M  V30 3675 H 334.962 3.14736 -2.80212 0
M  V30 3676 H 333.637 2.77568 -1.66546 0
M  V30 3677 H 332.544 1.34709 -3.49005 0
M  V30 3678 H 333.877 1.79071 -4.5847 0
M  V30 3679 N 335.529 1.53961 0.336706 0
M  V30 3680 C 336.479 1.7881 1.41461 0
M  V30 3681 C 337.463 0.643561 1.47469 0
M  V30 3682 O 338.655 0.903166 1.52223 0
M  V30 3683 C 335.784 2.00722 2.78506 0
M  V30 3684 C 334.87 3.2126 2.76862 0
M  V30 3685 N 335.261 4.42588 2.44845 0
M  V30 3686 C 333.559 3.22568 3.08004 0
M  V30 3687 C 334.26 5.2447 2.51607 0
M  V30 3688 N 333.236 4.61344 2.87511 0
M  V30 3689 H 337.038 2.70205 1.15615 0
M  V30 3690 H 334.552 1.52978 0.545112 0
M  V30 3691 H 336.549 2.1666 3.5618 0
M  V30 3692 H 335.209 1.10573 3.05293 0
M  V30 3693 H 336.22 4.69819 2.17922 0
M  V30 3694 H 332.897 2.42409 3.39918 0
M  V30 3695 H 334.287 6.31324 2.29955 0
M  V30 3696 N 337.007 -0.598083 1.45811 0
M  V30 3697 C 337.94 -1.7223 1.49706 0
M  V30 3698 C 338.918 -1.58732 0.352535 0
M  V30 3699 O 340.102 -1.80162 0.554438 0
M  V30 3700 C 337.229 -3.10148 1.3611 0
M  V30 3701 C 336.275 -3.42209 2.54549 0
M  V30 3702 S 337.108 -3.35989 4.16979 0
M  V30 3703 C 338.264 -4.76471 4.05865 0
M  V30 3704 H 338.497 -1.68665 2.44826 0
M  V30 3705 H 336.03 -0.775541 1.33509 0
M  V30 3706 H 337.988 -3.8972 1.28953 0
M  V30 3707 H 336.649 -3.11219 0.424451 0
M  V30 3708 H 335.842 -4.42652 2.40988 0
M  V30 3709 H 335.444 -2.70173 2.58617 0
M  V30 3710 H 337.736 -5.665 3.71596 0
M  V30 3711 H 338.679 -4.95089 5.06253 0
M  V30 3712 H 339.087 -4.52599 3.37364 0
M  V30 3713 N 338.485 -1.33259 -0.841409 0
M  V30 3714 C 339.71 -1.2775 -1.63385 0
M  V30 3715 C 340.135 0.149188 -1.87507 0
M  V30 3716 O 339.493 1.10498 -1.43736 0
M  V30 3717 C 339.541 -2.05571 -2.96265 0
M  V30 3718 O 338.645 -1.41257 -3.87453 0
M  V30 3719 H 337.986 -0.439627 -0.497618 0
M  V30 3720 H 340.516 -1.75782 -1.04699 0
M  V30 3721 H 340.526 -2.16241 -3.45982 0
M  V30 3722 H 339.201 -3.09309 -2.7803 0
M  V30 3723 H 337.778 -1.39217 -3.45938 0
M  V30 3724 N 339.963 1.05934 -1.16686 0
M  V30 3725 C 340.893 2.1546 -0.899949 0
M  V30 3726 C 341.874 1.69391 0.155154 0
M  V30 3727 O 343.059 1.94199 0.00648693 0
M  V30 3728 C 340.189 3.44939 -0.404241 0
M  V30 3729 C 339.143 4.04536 -1.39767 0
M  V30 3730 C 338.469 5.29268 -0.760216 0
M  V30 3731 C 339.769 4.42893 -2.76845 0
M  V30 3732 H 341.463 2.38046 -1.81588 0
M  V30 3733 H 339.009 1.14404 -0.874514 0
M  V30 3734 H 340.962 4.20901 -0.204971 0
M  V30 3735 H 339.686 3.21983 0.547206 0
M  V30 3736 H 338.345 3.30635 -1.58355 0
M  V30 3737 H 337.993 5.02611 0.197831 0
M  V30 3738 H 337.693 5.70101 -1.42332 0
M  V30 3739 H 339.217 6.07924 -0.57105 0
M  V30 3740 H 340.631 5.09921 -2.62019 0
M  V30 3741 H 339.028 4.94721 -3.39663 0
M  V30 3742 H 340.098 3.53584 -3.31823 0
M  V30 3743 N 341.441 0.965919 1.2453 0
M  V30 3744 C 342.666 0.643971 1.97149 0
M  V30 3745 C 343.091 -0.779487 1.71189 0
M  V30 3746 O 342.449 -1.5288 0.974553 0
M  V30 3747 C 342.497 0.922557 3.48599 0
M  V30 3748 O 341.601 0.00707672 4.12399 0
M  V30 3749 H 340.942 0.243647 0.617683 0
M  V30 3750 H 343.472 1.29558 1.58353 0
M  V30 3751 H 343.482 0.853373 3.98976 0
M  V30 3752 H 342.157 1.95996 3.66822 0
M  V30 3753 H 340.734 0.12943 3.72675 0
M  V30 3754 N 342.919 -1.39368 0.735821 0
M  V30 3755 C 343.851 -2.2913 0.0567723 0
M  V30 3756 C 344.864 -1.46859 -0.702589 0
M  V30 3757 O 346.053 -1.69925 -0.546616 0
M  V30 3758 C 343.153 -3.25492 -0.943823 0
M  V30 3759 C 342.326 -4.36709 -0.24581 0
M  V30 3760 C 341.385 -5.13376 -1.15463 0
M  V30 3761 O 340.411 -5.65683 -0.631803 0
M  V30 3762 N 341.613 -5.24656 -2.48427 0
M  V30 3763 H 344.378 -2.88047 0.827582 0
M  V30 3764 H 341.939 -1.50957 0.585112 0
M  V30 3765 H 343.931 -3.73657 -1.55443 0
M  V30 3766 H 342.501 -2.676 -1.61583 0
M  V30 3767 H 341.721 -3.9041 0.545286 0
M  V30 3768 H 343.009 -5.08244 0.237891 0
M  V30 3769 H 342.407 -4.83679 -2.93379 0
M  V30 3770 H 340.964 -5.76258 -3.04582 0
M  V30 3771 N 344.397 -0.483516 -1.5 0
M  V30 3772 C 345.644 0.0671597 -2.02389 0
M  V30 3773 C 345.972 1.38597 -1.36459 0
M  V30 3774 O 345.227 1.89634 -0.483458 0
M  V30 3775 C 345.526 0.286226 -3.56252 0
M  V30 3776 C 345.192 -0.952416 -4.40726 0
M  V30 3777 C 343.854 -1.29199 -4.63531 0
M  V30 3778 C 346.206 -1.77655 -4.89988 0
M  V30 3779 C 343.534 -2.45553 -5.32842 0
M  V30 3780 C 345.886 -2.93147 -5.60578 0
M  V30 3781 C 344.55 -3.27505 -5.81633 0
M  V30 3782 H 343.82 0.0245755 -0.740592 0
M  V30 3783 H 346.467 -0.640124 -1.80485 0
M  V30 3784 H 344.772 1.07587 -3.76739 0
M  V30 3785 H 346.469 0.726473 -3.94365 0
M  V30 3786 H 343.059 -0.677881 -4.23205 0
M  V30 3787 H 347.243 -1.52737 -4.72213 0
M  V30 3788 H 342.499 -2.72431 -5.47349 0
M  V30 3789 H 346.673 -3.57344 -5.97727 0
M  V30 3790 H 344.3 -4.1777 -6.35116 0
M  V30 3791 N 345.875 1.56104 -0.216619 0
M  V30 3792 C 347.122 1.98172 0.416416 0
M  V30 3793 C 347.45 1.10413 1.60122 0
M  V30 3794 O 346.705 0.147967 1.9514 0
M  V30 3795 C 347.004 3.45923 0.898464 0
M  V30 3796 C 346.67 4.50559 -0.175288 0
M  V30 3797 C 345.332 4.78897 -0.470271 0
M  V30 3798 C 347.684 5.1334 -0.901728 0
M  V30 3799 C 345.012 5.67299 -1.4963 0
M  V30 3800 C 347.364 6.02853 -1.91705 0
M  V30 3801 C 346.028 6.29537 -2.21901 0
M  V30 3802 H 345.298 0.725164 0.152377 0
M  V30 3803 H 347.945 1.88839 -0.318103 0
M  V30 3804 H 346.25 3.52434 1.71165 0
M  V30 3805 H 347.947 3.75841 1.39803 0
M  V30 3806 H 344.537 4.28551 0.0647806 0
M  V30 3807 H 348.721 4.91521 -0.687072 0
M  V30 3808 H 343.977 5.86239 -1.73592 0
M  V30 3809 H 348.151 6.50552 -2.48505 0
M  V30 3810 H 345.778 6.97835 -3.01548 0
M  V30 3811 N 347.353 -0.0568162 1.57498 0
M  V30 3812 C 348.602 -0.752001 1.87157 0
M  V30 3813 C 348.915 -1.77978 0.811375 0
M  V30 3814 O 350.121 -2.52559 0.996293 0
M  V30 3815 C 348.577 -1.38844 3.3204 0
M  V30 3816 C 348.185 -0.398456 4.46225 0
M  V30 3817 C 349.929 -2.06512 3.70882 0
M  V30 3818 C 347.836 -1.04166 5.82154 0
M  V30 3819 H 346.766 -0.28461 0.698222 0
M  V30 3820 H 349.417 -0.00561272 1.83499 0
M  V30 3821 H 347.799 -2.1836 3.30356 0
M  V30 3822 H 348.973 0.367977 4.59328 0
M  V30 3823 H 347.288 0.174592 4.16034 0
M  V30 3824 H 349.885 -2.55437 4.6974 0
M  V30 3825 H 350.228 -2.87117 3.01445 0
M  V30 3826 H 350.761 -1.33808 3.7462 0
M  V30 3827 H 347.5 -0.275614 6.5492 0
M  V30 3828 H 347.02 -1.7786 5.72823 0
M  V30 3829 H 348.699 -1.55715 6.27982 0
M  V30 3830 N 348.832 -1.54138 -0.328536 0
M  V30 3831 C 349.742 -1.86192 -1.42723 0
M  V30 3832 C 350.758 -0.753382 -1.56844 0
M  V30 3833 O 351.934 -1.04718 -1.72035 0
M  V30 3834 C 348.999 -2.07824 -2.77507 0
M  V30 3835 C 348.06 -3.31641 -2.72603 0
M  V30 3836 C 347.293 -3.52232 -4.00959 0
M  V30 3837 O 347.516 -2.7636 -4.9898 0
M  V30 3838 O 346.45 -4.45699 -4.0452 0
M  V30 3839 H 350.276 -2.79608 -1.18547 0
M  V30 3840 H 347.861 -1.3998 -0.522104 0
M  V30 3841 H 349.743 -2.23411 -3.57303 0
M  V30 3842 H 348.418 -1.17596 -3.01584 0
M  V30 3843 H 347.325 -3.21444 -1.91376 0
M  V30 3844 H 348.658 -4.2191 -2.53481 0
M  V30 3845 N 350.31 0.590341 -1.46126 0
M  V30 3846 C 351.587 1.35029 -1.41515 0
M  V30 3847 C 351.967 2.10888 -0.0946472 0
M  V30 3848 O 351.315 2.08998 0.923693 0
M  V30 3849 C 351.525 2.28269 -2.63997 0
M  V30 3850 C 352.873 2.90338 -3.09821 0
M  V30 3851 O 353.897 2.38585 -2.64492 0
M  V30 3852 O 352.756 3.84321 -3.88535 0
M  V30 3853 H 349.85 0.606317 -0.562413 0
M  V30 3854 H 352.396 0.611994 -1.58281 0
M  V30 3855 H 351.168 1.71591 -3.51671 0
M  V30 3856 H 350.791 3.0945 -2.49652 0
M  V30 3857 N 351.788 1.33704 0.83433 0
M  V30 3858 C 353.035 1.25417 1.58987 0
M  V30 3859 C 353.363 -0.178869 1.93676 0
M  V30 3860 O 352.618 -1.13723 1.59265 0
M  V30 3861 C 352.917 2.07926 2.90692 0
M  V30 3862 C 352.583 3.57066 2.75345 0
M  V30 3863 C 351.245 3.97724 2.70867 0
M  V30 3864 C 353.597 4.51817 2.59828 0
M  V30 3865 C 350.925 5.31344 2.48778 0
M  V30 3866 C 353.277 5.85604 2.39272 0
M  V30 3867 C 351.941 6.25439 2.33199 0
M  V30 3868 H 351.211 0.458934 0.581774 0
M  V30 3869 H 353.858 1.65335 0.966261 0
M  V30 3870 H 352.163 1.608 3.57282 0
M  V30 3871 H 353.86 1.98868 3.48213 0
M  V30 3872 H 350.45 3.24785 2.79665 0
M  V30 3873 H 354.634 4.21311 2.62319 0
M  V30 3874 H 349.89 5.61241 2.42526 0
M  V30 3875 H 354.064 6.58623 2.2625 0
M  V30 3876 H 351.691 7.28914 2.15843 0
M  V30 3877 N 353.266 -1.05314 1.17247 0
M  V30 3878 C 354.491 -1.82509 0.985148 0
M  V30 3879 C 354.916 -1.82343 -0.461788 0
M  V30 3880 O 354.274 -1.23151 -1.33055 0
M  V30 3881 C 354.322 -3.26566 1.52929 0
M  V30 3882 O 353.426 -4.05666 0.742225 0
M  V30 3883 H 352.767 -0.564347 0.349869 0
M  V30 3884 H 355.297 -1.32718 1.55715 0
M  V30 3885 H 355.307 -3.77369 1.55103 0
M  V30 3886 H 353.982 -3.26001 2.58256 0
M  V30 3887 H 352.559 -3.64397 0.791794 0
M  V30 3888 N 354.744 -0.972509 -1.24016 0
M  V30 3889 C 355.707 -0.511403 -2.23422 0
M  V30 3890 C 356.707 0.394679 -1.55881 0
M  V30 3891 O 357.897 0.189469 -1.73167 0
M  V30 3892 C 355.029 0.258769 -3.39916 0
M  V30 3893 H 356.222 -1.39024 -2.6573 0
M  V30 3894 H 353.775 -0.757585 -1.36713 0
M  V30 3895 H 354.51 1.1545 -3.03054 0
M  V30 3896 H 354.295 -0.391522 -3.9014 0
M  V30 3897 H 355.785 0.570244 -4.13688 0
M  V30 3898 N 356.222 1.38976 -0.743202 0
M  V30 3899 C 357.447 2.05161 -0.303936 0
M  V30 3900 C 357.872 1.55677 1.05576 0
M  V30 3901 O 357.23 0.704131 1.67068 0
M  V30 3902 C 357.278 3.59138 -0.324373 0
M  V30 3903 O 356.382 4.06668 0.685204 0
M  V30 3904 H 355.723 0.649815 -0.136518 0
M  V30 3905 H 358.253 1.77852 -1.01142 0
M  V30 3906 H 358.263 4.07639 -0.171618 0
M  V30 3907 H 356.938 3.94515 -1.31647 0
M  V30 3908 H 355.515 3.69561 0.497913 0
M  V30 3909 N 357.7 0.491464 1.49741 0
M  V30 3910 C 358.925 -0.0557177 2.07325 0
M  V30 3911 C 359.35 -1.30925 1.35056 0
M  V30 3912 O 358.708 -1.76733 0.404365 0
M  V30 3913 C 358.756 -0.302074 3.59333 0
M  V30 3914 O 357.86 -1.37868 3.88672 0
M  V30 3915 H 357.201 0.0219956 0.663636 0
M  V30 3916 H 359.731 0.688352 1.92673 0
M  V30 3917 H 359.741 -0.536464 4.04458 0
M  V30 3918 H 358.416 0.61383 4.11345 0
M  V30 3919 H 356.993 -1.12999 3.55367 0
M  V30 3920 N 359.178 -1.55987 0.224894 0
M  V30 3921 C 360.426 -1.97998 -0.405099 0
M  V30 3922 C 360.747 -1.11387 -1.60056 0
M  V30 3923 O 360.017 -0.191645 -1.9496 0
M  V30 3924 H 358.597 -0.731235 -0.152658 0
M  V30 3925 H 361.259 -1.92279 0.318567 0
M  V30 3926 H 360.355 -3.03463 -0.729167 0
M  V30 3927 N 360.656 0.0484629 -1.57525 0
M  V30 3928 C 361.586 1.0549 -2.08313 0
M  V30 3929 C 362.567 1.38929 -0.981463 0
M  V30 3930 O 363.752 1.48151 -1.25558 0
M  V30 3931 C 360.882 2.36162 -2.54646 0
M  V30 3932 C 359.836 2.17016 -3.68901 0
M  V30 3933 C 359.162 3.53278 -4.01371 0
M  V30 3934 C 360.462 1.57219 -4.98076 0
M  V30 3935 H 362.156 0.632195 -2.92649 0
M  V30 3936 H 359.702 0.302654 -1.40784 0
M  V30 3937 H 361.655 3.06882 -2.88793 0
M  V30 3938 H 360.379 2.80456 -1.67368 0
M  V30 3939 H 359.038 1.48733 -3.35073 0
M  V30 3940 H 358.686 3.95185 -3.11188 0
M  V30 3941 H 358.386 3.41299 -4.78318 0
M  V30 3942 H 359.91 4.25391 -4.38035 0
M  V30 3943 H 361.324 2.17832 -5.30304 0
M  V30 3944 H 359.721 1.55871 -5.79503 0
M  V30 3945 H 360.791 0.535956 -4.81929 0
M  V30 3946 N 362.134 1.5431 0.320358 0
M  V30 3947 C 363.097 1.83195 1.3774 0
M  V30 3948 C 364.097 0.703906 1.44575 0
M  V30 3949 O 365.287 0.972214 1.44546 0
M  V30 3950 C 362.419 1.99487 2.76438 0
M  V30 3951 H 363.612 2.77642 1.1338 0
M  V30 3952 H 361.165 1.46076 0.556012 0
M  V30 3953 H 361.9 1.07262 3.06048 0
M  V30 3954 H 361.685 2.81575 2.7287 0
M  V30 3955 H 363.175 2.23271 3.52902 0
M  V30 3956 N 363.613 -0.582584 1.46437 0
M  V30 3957 C 364.86 -1.34079 1.51753 0
M  V30 3958 C 365.188 -1.93762 0.169299 0
M  V30 3959 O 364.443 -1.76989 -0.835062 0
M  V30 3960 C 364.742 -2.48964 2.56421 0
M  V30 3961 C 364.408 -2.07273 4.00436 0
M  V30 3962 C 363.07 -1.95618 4.39644 0
M  V30 3963 C 365.422 -1.75111 4.90903 0
M  V30 3964 C 362.75 -1.5006 5.67185 0
M  V30 3965 C 365.102 -1.31032 6.18881 0
M  V30 3966 C 363.766 -1.17954 6.56996 0
M  V30 3967 H 363.036 -0.49063 0.555304 0
M  V30 3968 H 365.683 -0.656007 1.79913 0
M  V30 3969 H 363.988 -3.22889 2.21923 0
M  V30 3970 H 365.685 -3.07178 2.57765 0
M  V30 3971 H 362.275 -2.17279 3.69443 0
M  V30 3972 H 366.459 -1.83001 4.61329 0
M  V30 3973 H 361.715 -1.38577 5.95488 0
M  V30 3974 H 365.889 -1.052 6.88408 0
M  V30 3975 H 363.516 -0.824279 7.55718 0
M  V30 3976 N 365.091 -1.34144 -0.827227 0
M  V30 3977 C 366.321 -1.29138 -1.61267 0
M  V30 3978 C 366.729 0.137597 -1.88699 0
M  V30 3979 O 366.072 1.09379 -1.47587 0
M  V30 3980 C 366.134 -2.0097 -2.9808 0
M  V30 3981 C 365.798 -3.50242 -2.93563 0
M  V30 3982 C 366.795 -4.4523 -2.68452 0
M  V30 3983 C 364.48 -3.92592 -3.13331 0
M  V30 3984 C 366.474 -5.80542 -2.63154 0
M  V30 3985 C 364.161 -5.28005 -3.07658 0
M  V30 3986 C 365.159 -6.21792 -2.82602 0
M  V30 3987 O 364.847 -7.54723 -2.76853 0
M  V30 3988 H 364.579 -0.445851 -0.508127 0
M  V30 3989 H 367.133 -1.77263 -1.03763 0
M  V30 3990 H 365.363 -1.47451 -3.57484 0
M  V30 3991 H 367.052 -1.89309 -3.5905 0
M  V30 3992 H 367.818 -4.13832 -2.52919 0
M  V30 3993 H 363.697 -3.19994 -3.31851 0
M  V30 3994 H 367.241 -6.53717 -2.43516 0
M  V30 3995 H 363.138 -5.59023 -3.22743 0
M  V30 3996 H 363.906 -7.64409 -2.92611 0
M  V30 3997 N 366.569 1.04691 -1.17803 0
M  V30 3998 C 367.794 1.81984 -0.994813 0
M  V30 3999 C 368.219 1.82586 0.452112 0
M  V30 4000 O 367.577 1.23854 1.324 0
M  V30 4001 C 367.625 3.2575 -1.54659 0
M  V30 4002 O 366.729 4.05267 -0.763728 0
M  V30 4003 H 366.07 0.562483 -0.352857 0
M  V30 4004 H 368.6 1.3189 -1.56417 0
M  V30 4005 H 368.61 3.76541 -1.57102 0
M  V30 4006 H 367.285 3.24627 -2.59981 0
M  V30 4007 H 365.862 3.63972 -0.811108 0
M  V30 4008 N 368.047 0.979072 1.23499 0
M  V30 4009 C 369.272 0.664845 1.96455 0
M  V30 4010 C 369.697 -0.761287 1.72006 0
M  V30 4011 O 369.055 -1.51837 0.990713 0
M  V30 4012 C 369.103 0.959479 3.47601 0
M  V30 4013 O 368.207 0.0508168 4.12369 0
M  V30 4014 H 367.548 0.250185 0.615064 0
M  V30 4015 H 370.078 1.31231 1.5697 0
M  V30 4016 H 370.088 0.895642 3.98048 0
M  V30 4017 H 368.763 1.99876 3.64723 0
M  V30 4018 H 367.34 0.16895 3.72517 0
M  V30 4019 N 369.525 -1.3858 0.750561 0
M  V30 4020 C 370.753 -2.04471 0.316098 0
M  V30 4021 C 371.168 -1.56606 -1.05452 0
M  V30 4022 O 370.525 -0.737784 -1.66922 0
M  V30 4023 C 370.576 -3.60025 0.326275 0
M  V30 4024 O 370.297 -4.06133 1.6428 0
M  V30 4025 C 371.798 -4.43131 -0.122429 0
M  V30 4026 H 369.018 -0.65717 0.135528 0
M  V30 4027 H 371.562 -1.77329 1.01857 0
M  V30 4028 H 369.717 -3.86014 -0.327431 0
M  V30 4029 H 370.131 -5.00547 1.56693 0
M  V30 4030 H 371.605 -5.51963 -0.0641473 0
M  V30 4031 H 372.082 -4.23333 -1.16988 0
M  V30 4032 H 372.688 -4.22323 0.50229 0
M  V30 4033 N 371.003 -0.499398 -1.49478 0
M  V30 4034 C 372.251 0.0455996 -2.02049 0
M  V30 4035 C 372.572 1.37633 -1.38138 0
M  V30 4036 O 371.842 1.8842 -0.536166 0
M  V30 4037 H 370.422 0.0198416 -0.746736 0
M  V30 4038 H 373.084 -0.656274 -1.83519 0
M  V30 4039 H 372.18 0.176445 -3.11601 0
M  V30 4040 N 372.481 1.55866 -0.233164 0
M  V30 4041 C 373.727 1.99643 0.389148 0
M  V30 4042 C 374.082 1.11836 1.56558 0
M  V30 4043 O 373.375 0.170848 1.90837 0
M  V30 4044 C 373.569 3.46856 0.861724 0
M  V30 4045 C 373.398 4.48904 -0.267376 0
M  V30 4046 C 372.168 4.99888 -0.737577 0
M  V30 4047 C 374.366 5.02624 -1.08966 0
M  V30 4048 N 372.348 5.8566 -1.84052 0
M  V30 4049 C 373.719 5.85434 -2.04125 0
M  V30 4050 C 375.774 4.84959 -1.12779 0
M  V30 4051 C 374.477 6.52466 -3.02789 0
M  V30 4052 C 376.503 5.52759 -2.10266 0
M  V30 4053 C 375.865 6.35346 -3.04162 0
M  V30 4054 H 371.964 0.774402 0.108742 0
M  V30 4055 H 374.548 1.91572 -0.347596 0
M  V30 4056 H 372.719 3.55352 1.5678 0
M  V30 4057 H 374.451 3.77531 1.45783 0
M  V30 4058 H 371.206 4.7249 -0.324122 0
M  V30 4059 H 371.63 6.33246 -2.39434 0
M  V30 4060 H 376.272 4.20751 -0.415749 0
M  V30 4061 H 373.99 7.15849 -3.74948 0
M  V30 4062 H 377.576 5.41051 -2.13905 0
M  V30 4063 H 376.456 6.86883 -3.78366 0
M  V30 4064 N 373.959 -0.0401083 1.57549 0
M  V30 4065 C 375.189 -0.744115 1.92734 0
M  V30 4066 C 375.597 -1.70005 0.830348 0
M  V30 4067 O 374.94 -1.82576 -0.20286 0
M  V30 4068 C 375.002 -1.56516 3.2364 0
M  V30 4069 C 374.666 -0.7752 4.50377 0
M  V30 4070 C 375.663 -0.0803326 5.19838 0
M  V30 4071 C 373.348 -0.733002 4.96923 0
M  V30 4072 C 375.342 0.646154 6.34116 0
M  V30 4073 C 373.029 -0.00276321 6.111 0
M  V30 4074 C 374.027 0.685585 6.7955 0
M  V30 4075 O 373.715 1.40399 7.91545 0
M  V30 4076 H 373.447 -0.214861 0.640945 0
M  V30 4077 H 376.001 -0.00503675 2.05399 0
M  V30 4078 H 374.231 -2.3478 3.07271 0
M  V30 4079 H 375.92 -2.15076 3.44234 0
M  V30 4080 H 376.686 -0.104035 4.84888 0
M  V30 4081 H 372.565 -1.25827 4.43496 0
M  V30 4082 H 376.109 1.18398 6.87479 0
M  V30 4083 H 372.006 0.0229012 6.45496 0
M  V30 4084 H 372.774 1.31653 8.07843 0
M  V30 4085 N 375.437 -1.54477 -0.31217 0
M  V30 4086 C 376.385 -1.85395 -1.40469 0
M  V30 4087 C 377.379 -0.726749 -1.53019 0
M  V30 4088 O 378.585 -0.910582 -1.55269 0
M  V30 4089 H 374.96 -0.587845 -0.46898 0
M  V30 4090 H 376.931 -2.76736 -1.11623 0
M  V30 4091 C 375.68 -2.10811 -2.76503 0
M  V30 4092 H 375.003 -2.97014 -2.67625 0
M  V30 4093 H 376.443 -2.3639 -3.51988 0
M  V30 4094 C 374.902 -0.903165 -3.24568 0
M  V30 4095 O 375.432 -0.118085 -4.01526 0
M  V30 4096 N 373.638 -0.711634 -2.81752 0
M  V30 4097 H 373.185 -1.35171 -2.19286 0
M  V30 4098 H 373.143 0.0930473 -3.14262 0
M  V30 4099 N 376.915 0.57481 -1.46744 0
M  V30 4100 C 378.331 0.898981 -1.31873 0
M  V30 4101 C 378.531 1.99313 -0.29605 0
M  V30 4102 O 377.587 2.50728 0.298621 0
M  V30 4103 C 378.9 1.30886 -2.7072 0
M  V30 4104 C 380.448 1.42127 -2.78871 0
M  V30 4105 C 380.923 1.86478 -4.18318 0
M  V30 4106 N 382.414 1.93658 -4.20774 0
M  V30 4107 C 383.149 2.29267 -5.2557 0
M  V30 4108 N 382.645 2.63612 -6.40688 0
M  V30 4109 N 384.438 2.29889 -5.1294 0
M  V30 4110 H 376.589 -0.147839 -2.11885 0
M  V30 4111 H 378.852 -0.00347013 -0.947994 0
M  V30 4112 H 378.558 0.578853 -3.46904 0
M  V30 4113 H 378.432 2.26874 -3.01343 0
M  V30 4114 H 380.819 2.14213 -2.0297 0
M  V30 4115 H 380.9 0.443705 -2.51922 0
M  V30 4116 H 380.544 1.14968 -4.94717 0
M  V30 4117 H 380.474 2.85207 -4.42679 0
M  V30 4118 H 382.965 1.69574 -3.37718 0
M  V30 4119 H 383.278 2.89759 -7.16421 0
M  V30 4120 H 381.623 2.61232 -6.44036 0
M  V30 4121 H 384.814 2.02485 -4.22039 0
M  V30 4122 H 384.987 2.57312 -5.94722 0
M  V30 4123 N 378.394 1.34581 0.820102 0
M  V30 4124 C 379.324 1.29038 1.94606 0
M  V30 4125 C 380.305 0.1673 1.69275 0
M  V30 4126 O 381.49 0.360112 1.90832 0
M  V30 4127 C 378.62 1.04793 3.31113 0
M  V30 4128 C 377.574 2.13597 3.70891 0
M  V30 4129 C 376.9 1.74537 5.05412 0
M  V30 4130 C 378.2 3.55451 3.8269 0
M  V30 4131 H 379.894 2.23248 1.99501 0
M  V30 4132 H 377.44 1.0747 0.958449 0
M  V30 4133 H 379.393 0.995592 4.0947 0
M  V30 4134 H 378.117 0.0702565 3.26524 0
M  V30 4135 H 376.776 2.17905 2.9481 0
M  V30 4136 H 376.424 0.754226 4.97313 0
M  V30 4137 H 376.124 2.47361 5.32997 0
M  V30 4138 H 377.648 1.70803 5.86224 0
M  V30 4139 H 379.062 3.5354 4.51312 0
M  V30 4140 H 377.459 4.26922 4.21732 0
M  V30 4141 H 378.529 3.92587 2.84611 0
M  V30 4142 N 379.872 -1.04064 1.18357 0
M  V30 4143 C 381.119 -1.77265 0.978947 0
M  V30 4144 C 381.447 -1.88189 -0.491428 0
M  V30 4145 O 380.702 -1.38653 -1.38108 0
M  V30 4146 C 381.001 -3.20634 1.57888 0
M  V30 4147 C 380.667 -3.29743 3.07539 0
M  V30 4148 C 379.329 -3.31937 3.48384 0
M  V30 4149 C 381.681 -3.29841 4.03552 0
M  V30 4150 C 379.009 -3.3187 4.83818 0
M  V30 4151 C 381.361 -3.31313 5.38901 0
M  V30 4152 C 380.025 -3.31799 5.79194 0
M  V30 4153 H 379.295 -0.648659 0.358222 0
M  V30 4154 H 381.942 -1.22225 1.47422 0
M  V30 4155 H 380.247 -3.78675 1.00561 0
M  V30 4156 H 381.944 -3.75917 1.39598 0
M  V30 4157 H 378.534 -3.28757 2.74986 0
M  V30 4158 H 382.718 -3.27337 3.73047 0
M  V30 4159 H 377.974 -3.30562 5.14333 0
M  V30 4160 H 382.148 -3.30338 6.13066 0
M  V30 4161 H 379.775 -3.315 6.84114 0
M  V30 4162 N 381.35 -0.985608 -1.22978 0
M  V30 4163 C 382.599 -0.652881 -1.90841 0
M  V30 4164 C 382.912 0.817842 -1.77681 0
M  V30 4165 O 384.118 1.26185 -2.40395 0
M  V30 4166 C 382.574 -1.11717 -3.42122 0
M  V30 4167 C 382.182 -2.6126 -3.63933 0
M  V30 4168 C 383.926 -0.85843 -4.1573 0
M  V30 4169 C 381.833 -3.0133 -5.08876 0
M  V30 4170 H 380.763 -0.240491 -0.714619 0
M  V30 4171 H 383.414 -1.1942 -1.39324 0
M  V30 4172 H 381.796 -0.504027 -3.92779 0
M  V30 4173 H 382.97 -3.27858 -3.23799 0
M  V30 4174 H 381.285 -2.84937 -3.03644 0
M  V30 4175 H 383.882 -1.13359 -5.22546 0
M  V30 4176 H 384.225 0.205461 -4.15793 0
M  V30 4177 H 384.758 -1.43341 -3.71077 0
M  V30 4178 H 381.497 -4.06864 -5.13947 0
M  V30 4179 H 381.017 -2.3943 -5.49939 0
M  V30 4180 H 382.696 -2.92224 -5.77247 0
M  V30 4181 N 382.828 1.3818 -0.7579 0
M  V30 4182 C 383.776 2.32277 -0.122482 0
M  V30 4183 C 384.77 1.54238 0.700505 0
M  V30 4184 O 385.976 1.69737 0.599119 0
M  V30 4185 H 382.351 0.751712 -0.0208143 0
M  V30 4186 H 384.322 2.83469 -0.932099 0
M  V30 4187 C 383.071 3.39447 0.753076 0
M  V30 4188 H 382.394 3.99591 0.129184 0
M  V30 4189 H 383.834 4.07684 1.16489 0
M  V30 4190 C 382.293 2.78375 1.8976 0
M  V30 4191 O 382.823 2.68025 2.99208 0
M  V30 4192 N 381.029 2.36121 1.69397 0
M  V30 4193 H 380.576 2.4474 0.803762 0
M  V30 4194 H 380.534 1.95602 2.46145 0
M  V30 4195 N 384.306 0.507319 1.49211 0
M  V30 4196 C 385.553 -0.0349529 2.0247 0
M  V30 4197 C 385.881 -1.36409 1.38647 0
M  V30 4198 O 385.136 -1.88841 0.513566 0
M  V30 4199 C 385.435 -0.229513 3.56662 0
M  V30 4200 C 385.101 1.02241 4.39156 0
M  V30 4201 C 383.763 1.36557 4.61417 0
M  V30 4202 C 386.115 1.85428 4.871 0
M  V30 4203 C 383.443 2.53999 5.28868 0
M  V30 4204 C 385.795 3.02028 5.55843 0
M  V30 4205 C 384.459 3.36717 5.76349 0
M  V30 4206 H 383.729 -0.0127902 0.74089 0
M  V30 4207 H 386.376 0.668756 1.79443 0
M  V30 4208 H 384.681 -1.0158 3.78403 0
M  V30 4209 H 386.378 -0.663641 3.9547 0
M  V30 4210 H 382.968 0.745124 4.22073 0
M  V30 4211 H 387.152 1.6023 4.69723 0
M  V30 4212 H 382.408 2.81105 5.42946 0
M  V30 4213 H 386.582 3.66808 5.91967 0
M  V30 4214 H 384.209 4.27821 6.28389 0
M  V30 4215 N 385.784 -1.5574 0.241426 0
M  V30 4216 C 387.03 -1.99104 -0.385406 0
M  V30 4217 C 387.363 -1.1293 -1.57988 0
M  V30 4218 O 386.638 -0.191449 -1.93555 0
M  V30 4219 C 386.921 -3.51087 -0.800616 0
M  V30 4220 C 386.774 -4.48028 0.398874 0
M  V30 4221 C 388.093 -4.08015 -1.64959 0
M  V30 4222 H 385.212 -0.723848 -0.138614 0
M  V30 4223 H 387.854 -1.86903 0.341642 0
M  V30 4224 H 386.004 -3.61615 -1.4201 0
M  V30 4225 H 387.676 -4.49487 1.03726 0
M  V30 4226 H 385.919 -4.21077 1.04293 0
M  V30 4227 H 386.59 -5.51962 0.0651056 0
M  V30 4228 H 389.066 -4.00555 -1.12672 0
M  V30 4229 H 387.942 -5.14635 -1.90898 0
M  V30 4230 H 388.203 -3.56131 -2.61961 0
M  V30 4231 N 387.262 0.0317525 -1.57568 0
M  V30 4232 C 388.192 1.03274 -2.0942 0
M  V30 4233 C 389.173 1.3788 -0.996143 0
M  V30 4234 O 390.358 1.46811 -1.27122 0
M  V30 4235 C 387.488 2.33448 -2.57137 0
M  V30 4236 C 386.442 2.13091 -3.71182 0
M  V30 4237 C 385.768 3.49001 -4.05095 0
M  V30 4238 C 387.068 1.51928 -4.99715 0
M  V30 4239 H 388.762 0.60112 -2.93303 0
M  V30 4240 H 386.308 0.287705 -1.41097 0
M  V30 4241 H 388.261 3.03802 -2.92032 0
M  V30 4242 H 386.985 2.78665 -1.70333 0
M  V30 4243 H 385.644 1.45171 -3.36632 0
M  V30 4244 H 385.292 3.91862 -3.15362 0
M  V30 4245 H 384.992 3.36207 -4.81911 0
M  V30 4246 H 386.516 4.20721 -4.42522 0
M  V30 4247 H 387.93 2.12196 -5.32584 0
M  V30 4248 H 386.327 1.49716 -5.81124 0
M  V30 4249 H 387.397 0.484811 -4.8247 0
M  V30 4250 N 388.74 1.54641 0.303973 0
M  V30 4251 C 390.156 1.45788 0.649463 0
M  V30 4252 C 390.356 0.64666 1.90842 0
M  V30 4253 O 389.412 0.153183 2.52035 0
M  V30 4254 C 390.725 2.89718 0.805227 0
M  V30 4255 C 392.273 2.99742 0.901305 0
M  V30 4256 C 392.748 4.44863 1.08909 0
M  V30 4257 N 394.239 4.48559 1.15536 0
M  V30 4258 C 394.974 5.58026 1.3189 0
M  V30 4259 N 394.47 6.77422 1.45161 0
M  V30 4260 N 396.263 5.45708 1.34755 0
M  V30 4261 H 388.414 2.05854 -0.523237 0
M  V30 4262 H 390.677 0.932186 -0.172431 0
M  V30 4263 H 390.383 3.51666 -0.0489108 0
M  V30 4264 H 390.257 3.36964 1.69513 0
M  V30 4265 H 392.644 2.3791 1.74593 0
M  V30 4266 H 392.725 2.55797 -0.0125531 0
M  V30 4267 H 392.369 5.07288 0.249241 0
M  V30 4268 H 392.299 4.86436 2.01713 0
M  V30 4269 H 394.79 3.6254 1.06646 0
M  V30 4270 H 395.103 7.56604 1.57387 0
M  V30 4271 H 393.448 6.80292 1.42223 0
M  V30 4272 H 396.639 4.51378 1.23996 0
M  V30 4273 H 396.812 6.3107 1.47157 0
M  V30 4274 N 390.218 -0.567019 1.47046 0
M  V30 4275 C 391.634 -0.891975 1.32348 0
M  V30 4276 C 391.834 -1.99154 0.306616 0
M  V30 4277 O 390.89 -2.50883 -0.28532 0
M  V30 4278 C 392.203 -1.29449 2.7141 0
M  V30 4279 C 393.751 -1.40646 2.79621 0
M  V30 4280 C 394.226 -1.84257 4.19301 0
M  V30 4281 N 395.717 -1.91424 4.21795 0
M  V30 4282 C 396.452 -2.26476 5.26779 0
M  V30 4283 N 395.948 -2.60211 6.42077 0
M  V30 4284 N 397.741 -2.27166 5.14152 0
M  V30 4285 H 389.892 0.159074 2.11803 0
M  V30 4286 H 392.155 0.00849752 0.947962 0
M  V30 4287 H 391.861 -0.560448 3.47206 0
M  V30 4288 H 391.735 -2.25273 3.02542 0
M  V30 4289 H 394.122 -2.13133 2.04104 0
M  V30 4290 H 394.203 -0.430339 2.52154 0
M  V30 4291 H 393.847 -1.12343 4.95319 0
M  V30 4292 H 393.777 -2.82855 4.44185 0
M  V30 4293 H 396.268 -1.6778 3.38612 0
M  V30 4294 H 396.581 -2.85956 7.17948 0
M  V30 4295 H 394.926 -2.57813 6.45413 0
M  V30 4296 H 398.117 -2.00244 4.23107 0
M  V30 4297 H 398.29 -2.54154 5.96079 0
M  V30 4298 N 391.696 -1.35014 -0.812953 0
M  V30 4299 C 392.646 -1.23959 -1.91359 0
M  V30 4300 C 393.63 -0.136306 -1.60322 0
M  V30 4301 O 394.822 -0.366925 -1.73155 0
M  V30 4302 C 391.951 -1.00736 -3.28188 0
M  V30 4303 C 391.037 -2.15426 -3.65311 0
M  V30 4304 N 391.428 -3.40612 -3.73921 0
M  V30 4305 C 389.726 -2.06672 -3.95225 0
M  V30 4306 C 390.427 -4.15994 -4.06601 0
M  V30 4307 N 389.403 -3.44685 -4.20349 0
M  V30 4308 H 393.205 -2.18815 -1.96208 0
M  V30 4309 H 390.719 -1.27395 -1.00718 0
M  V30 4310 H 392.716 -0.909052 -4.06868 0
M  V30 4311 H 391.376 -0.067586 -3.2463 0
M  V30 4312 H 392.387 -3.75043 -3.5716 0
M  V30 4313 H 389.064 -1.20511 -3.99729 0
M  V30 4314 H 390.454 -5.24145 -4.20382 0
M  V30 4315 N 393.175 1.03435 -1.18907 0
M  V30 4316 C 394.421 1.77005 -0.989798 0
M  V30 4317 C 394.754 1.88205 0.478816 0
M  V30 4318 O 394.029 1.39481 1.35556 0
M  V30 4319 C 394.312 3.19925 -1.65287 0
M  V30 4320 C 394.165 3.1663 -3.19477 0
M  V30 4321 C 395.484 4.18189 -1.37134 0
M  V30 4322 H 392.603 0.642538 -0.360991 0
M  V30 4323 H 395.245 1.20784 -1.46667 0
M  V30 4324 H 393.395 3.67929 -1.24741 0
M  V30 4325 H 395.067 2.76567 -3.692 0
M  V30 4326 H 393.31 2.54491 -3.51307 0
M  V30 4327 H 393.981 4.1758 -3.61013 0
M  V30 4328 H 396.457 3.78761 -1.72276 0
M  V30 4329 H 395.333 5.16394 -1.86087 0
M  V30 4330 H 395.594 4.41112 -0.295424 0
M  V30 4331 N 394.653 0.992116 1.22453 0
M  V30 4332 C 395.9 0.667534 1.91181 0
M  V30 4333 C 396.228 -0.800317 1.77271 0
M  V30 4334 O 395.483 -1.59421 1.13505 0
M  V30 4335 C 395.782 1.01832 3.42586 0
M  V30 4336 C 395.448 2.47831 3.76684 0
M  V30 4337 C 394.11 2.87729 3.85701 0
M  V30 4338 C 396.462 3.42466 3.92895 0
M  V30 4339 C 393.79 4.21252 4.08367 0
M  V30 4340 C 396.142 4.75648 4.17064 0
M  V30 4341 C 394.806 5.15288 4.24305 0
M  V30 4342 H 394.076 0.244268 0.699581 0
M  V30 4343 H 396.723 1.24816 1.45235 0
M  V30 4344 H 395.028 0.355769 3.90181 0
M  V30 4345 H 396.725 0.745228 3.94014 0
M  V30 4346 H 393.315 2.15905 3.70247 0
M  V30 4347 H 397.499 3.12814 3.85307 0
M  V30 4348 H 392.755 4.51554 4.122 0
M  V30 4349 H 396.929 5.48924 4.2855 0
M  V30 4350 H 394.556 6.18769 4.41621 0
M  V30 4351 N 396.131 -1.37776 0.765217 0
M  V30 4352 C 397.378 -1.99849 0.326588 0
M  V30 4353 C 397.706 -1.60746 -1.09504 0
M  V30 4354 O 396.961 -0.84202 -1.76659 0
M  V30 4355 C 397.26 -3.5504 0.410053 0
M  V30 4356 C 396.926 -4.13891 1.78899 0
M  V30 4357 C 395.588 -4.29678 2.16635 0
M  V30 4358 C 397.94 -4.46236 2.69301 0
M  V30 4359 C 395.268 -4.7511 3.44221 0
M  V30 4360 C 397.62 -4.93089 3.9629 0
M  V30 4361 C 396.284 -5.07082 4.34078 0
M  V30 4362 H 395.554 -0.7313 0.119507 0
M  V30 4363 H 398.201 -1.64645 0.977968 0
M  V30 4364 H 396.506 -3.90451 -0.324878 0
M  V30 4365 H 398.203 -4.00966 0.0520699 0
M  V30 4366 H 394.793 -4.02026 1.48569 0
M  V30 4367 H 398.977 -4.3363 2.41409 0
M  V30 4368 H 394.233 -4.84129 3.73402 0
M  V30 4369 H 398.407 -5.17084 4.66472 0
M  V30 4370 H 396.034 -5.42046 5.33001 0
M  V30 4371 N 397.609 -0.515225 -1.4894 0
M  V30 4372 C 398.856 0.024215 -2.02486 0
M  V30 4373 C 399.184 1.35671 -1.39368 0
M  V30 4374 O 398.439 1.88566 -0.523574 0
M  V30 4375 C 398.738 0.210595 -3.56779 0
M  V30 4376 C 398.404 -1.04569 -4.38607 0
M  V30 4377 C 397.066 -1.39002 -4.60686 0
M  V30 4378 C 399.418 -1.88008 -4.86109 0
M  V30 4379 C 396.746 -2.568 -5.27514 0
M  V30 4380 C 399.098 -3.04972 -5.54234 0
M  V30 4381 C 397.762 -3.39768 -5.74555 0
M  V30 4382 H 397.032 0.00886088 -0.740947 0
M  V30 4383 H 399.679 -0.678263 -1.79086 0
M  V30 4384 H 397.984 0.99572 -3.78936 0
M  V30 4385 H 399.681 0.642659 -3.95817 0
M  V30 4386 H 396.271 -0.767497 -4.21672 0
M  V30 4387 H 400.455 -1.62719 -4.68867 0
M  V30 4388 H 395.711 -2.8398 -5.41447 0
M  V30 4389 H 399.885 -3.69943 -5.90013 0
M  V30 4390 H 397.512 -4.31148 -6.26112 0
M  V30 4391 N 399.087 1.5561 -0.249682 0
M  V30 4392 C 400.333 1.99306 0.374841 0
M  V30 4393 C 400.666 1.13767 1.57387 0
M  V30 4394 O 399.941 0.201711 1.93451 0
M  V30 4395 C 400.224 3.51507 0.781986 0
M  V30 4396 C 400.077 4.4781 -0.422629 0
M  V30 4397 C 401.396 4.08884 1.62793 0
M  V30 4398 H 398.515 0.724572 0.134773 0
M  V30 4399 H 401.157 1.86719 -0.351549 0
M  V30 4400 H 399.307 3.62363 1.4009 0
M  V30 4401 H 400.979 4.48931 -1.06108 0
M  V30 4402 H 399.222 4.20518 -1.06524 0
M  V30 4403 H 399.893 5.51919 -0.0943766 0
M  V30 4404 H 402.369 4.01147 1.10547 0
M  V30 4405 H 401.245 5.1564 1.88166 0
M  V30 4406 H 401.506 3.57515 2.60068 0
M  V30 4407 N 400.565 -0.0233959 1.57583 0
M  V30 4408 C 401.495 -1.02162 2.09965 0
M  V30 4409 C 402.476 -1.3735 1.00344 0
M  V30 4410 O 403.661 -1.46135 1.27899 0
M  V30 4411 C 400.791 -2.32081 2.58371 0
M  V30 4412 C 399.745 -2.1112 3.72307 0
M  V30 4413 C 399.071 -3.46848 4.06941 0
M  V30 4414 C 400.371 -1.49276 5.00514 0
M  V30 4415 H 402.065 -0.585557 2.93618 0
M  V30 4416 H 399.611 -0.280218 1.41247 0
M  V30 4417 H 401.564 -3.02249 2.93639 0
M  V30 4418 H 400.288 -2.77758 1.71808 0
M  V30 4419 H 398.947 -1.43384 3.37397 0
M  V30 4420 H 398.595 -3.90184 3.17436 0
M  V30 4421 H 398.295 -3.33646 4.83688 0
M  V30 4422 H 399.819 -4.18369 4.44747 0
M  V30 4423 H 401.233 -2.09368 5.33702 0
M  V30 4424 H 399.63 -1.46632 5.8191 0
M  V30 4425 H 400.7 -0.459217 4.82721 0
M  V30 4426 N 402.043 -1.548 -0.295768 0
M  V30 4427 C 402.975 -1.82492 -1.3867 0
M  V30 4428 C 403.988 -0.708134 -1.46592 0
M  V30 4429 O 405.177 -0.985686 -1.48817 0
M  V30 4430 C 402.277 -1.95256 -2.76999 0
M  V30 4431 C 401.45 -3.25709 -2.91946 0
M  V30 4432 C 400.509 -3.28824 -4.10806 0
M  V30 4433 O 399.535 -4.02328 -4.02643 0
M  V30 4434 N 400.737 -2.5459 -5.21694 0
M  V30 4435 H 403.502 -2.76646 -1.15269 0
M  V30 4436 H 401.063 -1.54438 -0.485849 0
M  V30 4437 H 403.055 -1.94736 -3.54768 0
M  V30 4438 H 401.625 -1.08072 -2.93324 0
M  V30 4439 H 400.845 -3.38959 -2.01247 0
M  V30 4440 H 402.133 -4.11786 -2.98847 0
M  V30 4441 H 401.531 -1.94512 -5.31208 0
M  V30 4442 H 400.088 -2.59818 -5.97778 0
M  V30 4443 N 403.521 0.559213 -1.47345 0
M  V30 4444 C 404.749 1.34194 -1.57479 0
M  V30 4445 C 405.164 1.87463 -0.224261 0
M  V30 4446 O 404.521 1.64888 0.782185 0
M  V30 4447 C 404.572 2.51324 -2.59843 0
M  V30 4448 O 404.293 2.00256 -3.89653 0
M  V30 4449 C 405.794 3.43563 -2.80142 0
M  V30 4450 H 403.014 0.409136 -0.531835 0
M  V30 4451 H 405.558 0.677609 -1.92947 0
M  V30 4452 H 403.713 3.13699 -2.27314 0
M  V30 4453 H 404.127 2.76708 -4.4557 0
M  V30 4454 H 405.601 4.2217 -3.55635 0
M  V30 4455 H 406.078 3.9698 -1.87892 0
M  V30 4456 H 406.684 2.87005 -3.1386 0
M  V30 4457 N 404.999 1.35443 0.805782 0
M  V30 4458 C 406.229 1.31687 1.59192 0
M  V30 4459 C 406.637 -0.10756 1.88894 0
M  V30 4460 O 405.98 -1.07017 1.49309 0
M  V30 4461 C 406.042 2.05686 2.94845 0
M  V30 4462 C 405.706 3.54868 2.87954 0
M  V30 4463 C 406.703 4.49444 2.61335 0
M  V30 4464 C 404.388 3.97528 3.07046 0
M  V30 4465 C 406.382 5.84655 2.53885 0
M  V30 4466 C 404.069 5.32833 2.99219 0
M  V30 4467 C 405.067 6.26209 2.72674 0
M  V30 4468 O 404.755 7.59032 2.64811 0
M  V30 4469 H 404.487 0.453878 0.50097 0
M  V30 4470 H 407.041 1.78892 1.0093 0
M  V30 4471 H 405.271 1.5312 3.55093 0
M  V30 4472 H 406.96 1.94998 3.55993 0
M  V30 4473 H 407.726 4.17804 2.46303 0
M  V30 4474 H 403.605 3.25233 3.26718 0
M  V30 4475 H 407.149 6.57508 2.33086 0
M  V30 4476 H 403.046 5.64087 3.13809 0
M  V30 4477 H 403.814 7.68967 2.80413 0
M  V30 4478 N 406.477 -1.02803 1.19454 0
M  V30 4479 C 407.724 -1.76217 0.997693 0
M  V30 4480 C 408.052 -1.887 -0.47144 0
M  V30 4481 O 407.307 -1.4011 -1.3663 0
M  V30 4482 C 407.606 -3.18941 1.6128 0
M  V30 4483 C 407.272 -3.26463 3.11019 0
M  V30 4484 C 405.934 -3.28223 3.51885 0
M  V30 4485 C 408.286 -3.25542 4.07028 0
M  V30 4486 C 405.614 -3.26719 4.8731 0
M  V30 4487 C 407.966 -3.25579 5.42385 0
M  V30 4488 C 406.63 -3.25637 5.82681 0
M  V30 4489 H 405.9 -0.644823 0.365082 0
M  V30 4490 H 408.547 -1.20655 1.4871 0
M  V30 4491 H 406.852 -3.77587 1.04572 0
M  V30 4492 H 408.549 -3.74415 1.43577 0
M  V30 4493 H 405.139 -3.25822 2.78457 0
M  V30 4494 H 409.323 -3.23362 3.76498 0
M  V30 4495 H 404.579 -3.25089 5.1781 0
M  V30 4496 H 408.753 -3.23817 6.16535 0
M  V30 4497 H 406.38 -3.24226 6.87591 0
M  V30 4498 N 407.956 -0.998596 -1.21925 0
M  V30 4499 C 409.367 -0.711939 -1.72593 0
M  V30 4500 C 409.718 0.770842 -1.80423 0
M  V30 4501 O 408.843 1.60237 -1.4544 0
M  V30 4502 C 409.438 -1.28567 -3.13458 0
M  V30 4503 C 407.997 -1.04828 -3.61508 0
M  V30 4504 C 407.144 -1.4024 -2.39224 0
M  V30 4505 H 410.095 -1.17027 -1.07193 0
M  V30 4506 H 410.116 -0.667098 -3.74607 0
M  V30 4507 H 409.628 -2.36486 -3.07727 0
M  V30 4508 H 407.729 0.0140383 -3.72597 0
M  V30 4509 H 407.842 -1.71566 -4.47328 0
M  V30 4510 H 406.206 -0.821077 -2.41103 0
M  V30 4511 H 406.989 -2.49176 -2.36149 0
M  V30 4512 N 409.434 1.37368 -0.772513 0
M  V30 4513 C 410.397 2.28601 -0.165541 0
M  V30 4514 C 411.397 1.48062 0.627238 0
M  V30 4515 O 412.587 1.68268 0.450715 0
M  V30 4516 C 409.719 3.32023 0.772897 0
M  V30 4517 H 410.912 2.83787 -0.969787 0
M  V30 4518 H 408.465 1.46647 -0.540775 0
M  V30 4519 H 409.2 2.81962 1.60212 0
M  V30 4520 H 408.985 3.91555 0.206585 0
M  V30 4521 H 410.475 4.00197 1.19298 0
M  V30 4522 N 410.912 0.523116 1.48665 0
M  V30 4523 C 412.161 -0.01544 2.01694 0
M  V30 4524 C 412.474 -1.35975 1.40606 0
M  V30 4525 O 413.68 -1.98627 1.85093 0
M  V30 4526 C 412.136 -0.0779303 3.59816 0
M  V30 4527 C 411.744 1.26107 4.29885 0
M  V30 4528 C 413.488 -0.565678 4.20714 0
M  V30 4529 C 411.395 1.15954 5.79921 0
M  V30 4530 H 410.325 -0.00954163 0.75394 0
M  V30 4531 H 412.976 0.665865 1.70993 0
M  V30 4532 H 411.358 -0.824165 3.87329 0
M  V30 4533 H 412.532 2.02233 4.14051 0
M  V30 4534 H 410.847 1.68401 3.80828 0
M  V30 4535 H 413.444 -0.6595 5.30617 0
M  V30 4536 H 413.787 -1.56984 3.85567 0
M  V30 4537 H 414.32 0.12467 3.97605 0
M  V30 4538 H 411.059 2.13864 6.19631 0
M  V30 4539 H 410.579 0.439529 5.98187 0
M  V30 4540 H 412.258 0.847361 6.41427 0
M  V30 4541 N 412.39 -1.55475 0.257931 0
M  V30 4542 C 413.32 -2.24815 -0.630912 0
M  V30 4543 C 414.301 -1.23224 -1.17259 0
M  V30 4544 O 415.486 -1.51904 -1.20991 0
M  V30 4545 C 412.616 -2.95609 -1.82298 0
M  V30 4546 C 411.57 -4.03982 -1.41359 0
M  V30 4547 C 410.896 -4.6226 -2.68738 0
M  V30 4548 C 412.196 -5.19109 -0.57648 0
M  V30 4549 H 413.89 -2.99354 -0.0526878 0
M  V30 4550 H 411.436 -1.4398 -0.023901 0
M  V30 4551 H 413.389 -3.42822 -2.45054 0
M  V30 4552 H 412.113 -2.18577 -2.42676 0
M  V30 4553 H 410.772 -3.57555 -0.809324 0
M  V30 4554 H 410.42 -3.81915 -3.27338 0
M  V30 4555 H 410.12 -5.35424 -2.42065 0
M  V30 4556 H 411.644 -5.12212 -3.32372 0
M  V30 4557 H 413.058 -5.62479 -1.10861 0
M  V30 4558 H 411.455 -5.98729 -0.405351 0
M  V30 4559 H 412.525 -4.83174 0.408776 0
M  V30 4560 N 413.868 0.0150385 -1.57593 0
M  V30 4561 C 414.801 1.04475 -2.0288 0
M  V30 4562 C 415.779 1.3436 -0.915764 0
M  V30 4563 O 416.963 1.46779 -1.18271 0
M  V30 4564 C 414.09 2.37608 -2.41371 0
M  V30 4565 C 413.136 2.23487 -3.63257 0
M  V30 4566 S 413.969 1.57505 -5.11813 0
M  V30 4567 C 415.125 2.921 -5.5356 0
M  V30 4568 H 415.358 0.65907 -2.89903 0
M  V30 4569 H 412.891 0.225452 -1.52745 0
M  V30 4570 H 414.849 3.14165 -2.64217 0
M  V30 4571 H 413.51 2.7332 -1.54775 0
M  V30 4572 H 412.703 3.21802 -3.87891 0
M  V30 4573 H 412.305 1.55074 -3.40335 0
M  V30 4574 H 414.597 3.88419 -5.55101 0
M  V30 4575 H 415.54 2.72184 -6.53698 0
M  V30 4576 H 415.948 2.95318 -4.8109 0
M  V30 4577 N 415.346 1.54954 0.287554 0
M  V30 4578 C 416.592 1.75132 1.02257 0
M  V30 4579 C 416.925 0.542858 1.86458 0
M  V30 4580 O 416.2 -0.459856 1.88986 0
M  V30 4581 C 416.483 3.04812 1.91733 0
M  V30 4582 C 416.336 4.35985 1.10622 0
M  V30 4583 C 417.655 3.30438 2.90687 0
M  V30 4584 H 414.774 0.637194 0.370341 0
M  V30 4585 H 417.416 1.87678 0.296111 0
M  V30 4586 H 415.566 2.94247 2.53675 0
M  V30 4587 H 417.238 4.58487 0.508636 0
M  V30 4588 H 415.481 4.31865 0.409271 0
M  V30 4589 H 416.152 5.23017 1.76513 0
M  V30 4590 H 418.628 3.40701 2.38877 0
M  V30 4591 H 417.504 4.22467 3.50447 0
M  V30 4592 H 417.765 2.49377 3.65053 0
M  V30 4593 N 416.824 -0.551391 1.4764 0
M  V30 4594 C 417.757 -1.6738 1.5511 0
M  V30 4595 C 418.735 -1.5753 0.402856 0
M  V30 4596 O 419.919 -1.78307 0.611475 0
M  V30 4597 C 417.046 -3.05661 1.45908 0
M  V30 4598 C 416.092 -3.33938 2.65307 0
M  V30 4599 S 416.925 -3.22553 4.27457 0
M  V30 4600 C 418.081 -4.63317 4.20818 0
M  V30 4601 H 418.314 -1.6079 2.50068 0
M  V30 4602 H 415.847 -0.732674 1.35909 0
M  V30 4603 H 417.805 -3.8542 1.41286 0
M  V30 4604 H 416.466 -3.09711 0.523248 0
M  V30 4605 H 415.659 -4.34761 2.54948 0
M  V30 4606 H 415.261 -2.61809 2.67081 0
M  V30 4607 H 417.553 -5.54391 3.89431 0
M  V30 4608 H 418.496 -4.78732 5.21748 0
M  V30 4609 H 418.904 -4.41636 3.51593 0
M  V30 4610 N 418.302 -1.35869 -0.798587 0
M  V30 4611 C 419.232 -1.32118 -1.92528 0
M  V30 4612 C 420.213 -0.194209 -1.68988 0
M  V30 4613 O 421.398 -0.390426 -1.90235 0
M  V30 4614 C 418.528 -1.10047 -3.29404 0
M  V30 4615 C 417.482 -2.19471 -3.67446 0
M  V30 4616 C 416.808 -1.82555 -5.02571 0
M  V30 4617 C 418.108 -3.61495 -3.76987 0
M  V30 4618 H 419.802 -2.26394 -1.95924 0
M  V30 4619 H 417.348 -1.08981 -0.94123 0
M  V30 4620 H 419.301 -1.06061 -4.07835 0
M  V30 4621 H 418.025 -0.122195 -3.26371 0
M  V30 4622 H 416.684 -2.22568 -2.91306 0
M  V30 4623 H 416.332 -0.833249 -4.9605 0
M  V30 4624 H 416.032 -2.5581 -5.28995 0
M  V30 4625 H 417.556 -1.80108 -5.83432 0
M  V30 4626 H 418.97 -3.60676 -4.4563 0
M  V30 4627 H 417.367 -4.33577 -4.14887 0
M  V30 4628 H 418.437 -3.97065 -2.78329 0
M  V30 4629 N 419.78 1.02168 -1.19998 0
M  V30 4630 C 421.005 1.79833 -1.03319 0
M  V30 4631 C 421.43 1.83504 0.413281 0
M  V30 4632 O 420.788 1.26635 1.29743 0
M  V30 4633 C 420.836 3.22396 -1.61533 0
M  V30 4634 O 419.94 4.03555 -0.849519 0
M  V30 4635 H 419.281 0.554872 -0.364709 0
M  V30 4636 H 421.811 1.28542 -1.59179 0
M  V30 4637 H 421.821 3.73124 -1.65054 0
M  V30 4638 H 420.496 3.19039 -2.66809 0
M  V30 4639 H 419.073 3.62169 -0.888129 0
M  V30 4640 N 421.258 1.00505 1.21394 0
M  V30 4641 C 422.504 0.698477 1.91031 0
M  V30 4642 C 422.859 -0.762448 1.76648 0
M  V30 4643 O 422.152 -1.54554 1.13241 0
M  V30 4644 C 422.346 1.0546 3.41486 0
M  V30 4645 C 422.175 2.5486 3.70508 0
M  V30 4646 C 420.945 3.21461 3.8986 0
M  V30 4647 C 423.143 3.53019 3.74008 0
M  V30 4648 N 421.125 4.60211 4.06299 0
M  V30 4649 C 422.496 4.77279 3.95733 0
M  V30 4650 C 424.551 3.47154 3.56915 0
M  V30 4651 C 423.254 5.96388 4.02137 0
M  V30 4652 C 425.28 4.65652 3.64585 0
M  V30 4653 C 424.642 5.88717 3.86771 0
M  V30 4654 H 420.741 0.30707 0.719189 0
M  V30 4655 H 423.325 1.28753 1.46051 0
M  V30 4656 H 421.496 0.494007 3.85246 0
M  V30 4657 H 423.228 0.702765 3.98552 0
M  V30 4658 H 419.983 2.71906 3.87768 0
M  V30 4659 H 420.407 5.32216 4.1842 0
M  V30 4660 H 425.049 2.53015 3.38738 0
M  V30 4661 H 422.767 6.90919 4.19114 0
M  V30 4662 H 426.353 4.62717 3.52681 0
M  V30 4663 H 425.233 6.78877 3.92549 0
M  V30 4664 N 422.737 -1.36956 0.779787 0
M  V30 4665 C 423.983 -1.99787 0.348281 0
M  V30 4666 C 424.316 -1.61756 -1.07465 0
M  V30 4667 O 423.591 -0.867639 -1.74075 0
M  V30 4668 C 423.874 -3.56597 0.50104 0
M  V30 4669 C 423.727 -4.04513 1.96697 0
M  V30 4670 C 425.046 -4.40008 -0.0898097 0
M  V30 4671 H 422.165 -0.725796 0.128022 0
M  V30 4672 H 424.807 -1.62514 0.984331 0
M  V30 4673 H 422.957 -3.88479 -0.0404347 0
M  V30 4674 H 424.629 -3.83161 2.56876 0
M  V30 4675 H 422.872 -3.56408 2.47297 0
M  V30 4676 H 423.543 -5.1352 2.02486 0
M  V30 4677 H 426.019 -4.14431 0.372293 0
M  V30 4678 H 424.895 -5.4888 0.0471605 0
M  V30 4679 H 425.156 -4.26035 -1.18096 0
M  V30 4680 N 424.215 -0.530993 -1.48385 0
M  V30 4681 C 425.44 0.000729535 -2.074 0
M  V30 4682 C 425.865 1.27298 -1.3848 0
M  V30 4683 O 425.223 1.75599 -0.451081 0
M  V30 4684 C 425.271 0.206697 -3.60007 0
M  V30 4685 O 424.375 1.27514 -3.92191 0
M  V30 4686 H 423.716 -0.039583 -0.662819 0
M  V30 4687 H 426.246 -0.739194 -1.9078 0
M  V30 4688 H 426.256 0.42904 -4.05738 0
M  V30 4689 H 424.931 -0.722675 -4.09573 0
M  V30 4690 H 423.508 1.03537 -3.58238 0
M  V30 4691 N 425.693 1.55336 -0.266172 0
M  V30 4692 C 426.94 1.99397 0.353158 0
M  V30 4693 C 427.268 1.15451 1.56529 0
M  V30 4694 O 426.523 0.209974 1.9457 0
M  V30 4695 C 426.822 3.48606 0.787957 0
M  V30 4696 C 426.488 4.49773 -0.318541 0
M  V30 4697 C 425.15 4.77158 -0.62239 0
M  V30 4698 C 427.502 5.10212 -1.06459 0
M  V30 4699 C 424.83 5.62251 -1.67602 0
M  V30 4700 C 427.182 5.96449 -2.10788 0
M  V30 4701 C 425.846 6.22158 -2.41817 0
M  V30 4702 H 425.116 0.729644 0.12923 0
M  V30 4703 H 427.763 1.87732 -0.37802 0
M  V30 4704 H 426.068 3.57701 1.59866 0
M  V30 4705 H 427.765 3.80098 1.27775 0
M  V30 4706 H 424.355 4.2854 -0.0715925 0
M  V30 4707 H 428.539 4.89086 -0.843098 0
M  V30 4708 H 423.795 5.80419 -1.92155 0
M  V30 4709 H 427.969 6.42317 -2.69076 0
M  V30 4710 H 425.596 6.87888 -3.23596 0
M  V30 4711 N 427.171 -0.0066808 1.57599 0
M  V30 4712 C 428.417 -0.68835 1.91398 0
M  V30 4713 C 428.772 -1.7175 0.86716 0
M  V30 4714 O 428.065 -1.91215 -0.121475 0
M  V30 4715 C 428.259 -1.37939 3.29708 0
M  V30 4716 C 428.088 -0.418689 4.47747 0
M  V30 4717 C 426.858 -0.031526 5.0529 0
M  V30 4718 C 429.056 0.312301 5.13351 0
M  V30 4719 N 427.038 0.928088 6.06844 0
M  V30 4720 C 428.409 1.12682 6.09674 0
M  V30 4721 C 430.464 0.376853 4.96472 0
M  V30 4722 C 429.167 2 6.90936 0
M  V30 4723 C 431.193 1.23723 5.78314 0
M  V30 4724 C 430.555 2.03962 6.74225 0
M  V30 4725 H 426.654 -0.225292 0.748844 0
M  V30 4726 H 429.238 0.0520973 1.9463 0
M  V30 4727 H 427.409 -2.09017 3.27363 0
M  V30 4728 H 429.141 -2.01522 3.50957 0
M  V30 4729 H 425.896 -0.398485 4.71921 0
M  V30 4730 H 426.32 1.40307 6.62301 0
M  V30 4731 H 430.962 -0.22921 4.22178 0
M  V30 4732 H 428.68 2.61676 7.64559 0
M  V30 4733 H 432.266 1.291 5.67296 0
M  V30 4734 H 431.146 2.69461 7.36451 0
M  V30 4735 N 428.649 -1.55105 -0.279332 0
M  V30 4736 C 429.898 -1.74618 -1.00952 0
M  V30 4737 C 430.211 -0.551096 -1.87676 0
M  V30 4738 O 431.417 -0.628507 -2.64125 0
M  V30 4739 C 429.873 -3.09025 -1.84476 0
M  V30 4740 C 429.481 -4.36081 -1.0265 0
M  V30 4741 C 431.225 -3.37891 -2.56963 0
M  V30 4742 C 429.132 -5.6153 -1.85576 0
M  V30 4743 H 428.062 -0.650868 -0.38064 0
M  V30 4744 H 430.713 -1.81569 -0.265475 0
M  V30 4745 H 429.095 -2.96095 -2.62952 0
M  V30 4746 H 430.269 -4.59909 -0.286354 0
M  V30 4747 H 428.584 -4.14312 -0.416464 0
M  V30 4748 H 431.181 -4.28822 -3.19399 0
M  V30 4749 H 431.524 -2.57737 -3.26921 0
M  V30 4750 H 432.057 -3.5189 -1.85522 0
M  V30 4751 H 428.796 -6.44413 -1.2005 0
M  V30 4752 H 428.316 -5.41854 -2.57204 0
M  V30 4753 H 429.995 -5.99594 -2.43096 0
M  V30 4754 N 430.127 0.543554 -1.4793 0
M  V30 4755 C 431.404 1.30458 -1.4574 0
M  V30 4756 C 431.784 2.1048 -0.161692 0
M  V30 4757 O 431.132 2.11831 0.856734 0
M  V30 4758 C 431.342 2.19754 -2.71126 0
M  V30 4759 C 432.69 2.80334 -3.18901 0
M  V30 4760 O 433.714 2.30049 -2.71948 0
M  V30 4761 O 432.573 3.71766 -4.00565 0
M  V30 4762 H 429.667 0.588117 -0.581418 0
M  V30 4763 H 432.213 0.561328 -1.60147 0
M  V30 4764 H 430.985 1.60316 -3.56952 0
M  V30 4765 H 430.608 3.01351 -2.59371 0
M  V30 4766 N 431.605 1.3629 0.791371 0
M  V30 4767 C 433.021 1.16661 1.08914 0
M  V30 4768 C 433.221 -0.0106266 2.01497 0
M  V30 4769 O 432.277 -0.676596 2.43266 0
M  V30 4770 C 433.59 2.47656 1.70549 0
M  V30 4771 C 435.138 2.54002 1.82899 0
M  V30 4772 C 435.613 3.85078 2.47949 0
M  V30 4773 N 437.104 3.86413 2.5542 0
M  V30 4774 C 437.839 4.84572 3.06557 0
M  V30 4775 N 437.335 5.93124 3.58016 0
M  V30 4776 N 439.128 4.71994 3.05251 0
M  V30 4777 H 431.279 2.11668 0.176238 0
M  V30 4778 H 433.542 0.937486 0.140796 0
M  V30 4779 H 433.248 3.34059 1.09989 0
M  V30 4780 H 433.122 2.63319 2.70079 0
M  V30 4781 H 435.509 1.68018 2.42598 0
M  V30 4782 H 435.59 2.42239 0.821808 0
M  V30 4783 H 435.234 4.71467 1.88895 0
M  V30 4784 H 435.164 3.94135 3.49235 0
M  V30 4785 H 437.655 3.07988 2.18979 0
M  V30 4786 H 437.968 6.63999 3.95381 0
M  V30 4787 H 436.313 5.96796 3.56173 0
M  V30 4788 H 439.504 3.86321 2.64336 0
M  V30 4789 H 439.677 5.48653 3.44796 0
M  V30 4790 N 433.083 -1.0153 1.20538 0
M  V30 4791 C 434.499 -1.27461 0.96051 0
M  V30 4792 C 434.699 -1.98273 -0.359193 0
M  V30 4793 O 433.755 -2.27886 -1.0874 0
M  V30 4794 C 435.068 -2.10837 2.14402 0
M  V30 4795 C 436.616 -2.24099 2.18515 0
M  V30 4796 C 437.091 -3.10852 3.36355 0
M  V30 4797 N 438.582 -3.18441 3.36377 0
M  V30 4798 C 439.317 -3.85795 4.24205 0
M  V30 4799 N 438.813 -4.55264 5.22213 0
M  V30 4800 N 440.606 -3.82331 4.12043 0
M  V30 4801 H 432.757 -0.539907 2.05423 0
M  V30 4802 H 435.02 -0.30092 0.898972 0
M  V30 4803 H 434.726 -1.66144 3.09983 0
M  V30 4804 H 434.6 -3.11576 2.12604 0
M  V30 4805 H 436.987 -2.68016 1.23497 0
M  V30 4806 H 437.068 -1.22865 2.24361 0
M  V30 4807 H 436.712 -2.6764 4.31661 0
M  V30 4808 H 436.642 -4.12177 3.27746 0
M  V30 4809 H 439.133 -2.68978 2.65442 0
M  V30 4810 H 439.446 -5.04331 5.85551 0
M  V30 4811 H 437.791 -4.54085 5.26148 0
M  V30 4812 H 440.982 -3.27207 3.34743 0
M  V30 4813 H 441.155 -4.34547 4.807 0
M  V30 4814 N 434.561 -1.01147 -1.20859 0
M  V30 4815 C 435.524 -0.582224 -2.21682 0
M  V30 4816 C 436.524 0.344887 -1.57058 0
M  V30 4817 O 437.714 0.134281 -1.73682 0
M  V30 4818 C 434.846 0.150496 -3.40568 0
M  V30 4819 H 436.039 -1.47408 -2.61172 0
M  V30 4820 H 433.592 -0.800695 -1.34233 0
M  V30 4821 H 434.327 1.0575 -3.06574 0
M  V30 4822 H 434.112 -0.515444 -3.88697 0
M  V30 4823 H 435.602 0.438344 -4.15293 0
M  V30 4824 N 436.039 1.36541 -0.78704 0
M  V30 4825 C 437.285 1.99599 -0.358872 0
M  V30 4826 C 437.618 1.62323 1.06606 0
M  V30 4827 O 436.893 0.876858 1.73613 0
M  V30 4828 C 437.176 3.56327 -0.519944 0
M  V30 4829 C 437.029 4.03464 -1.98839 0
M  V30 4830 C 438.348 4.4005 0.0664737 0
M  V30 4831 H 435.467 0.725107 -0.131869 0
M  V30 4832 H 438.109 1.6199 -0.992936 0
M  V30 4833 H 436.259 3.88495 0.0198321 0
M  V30 4834 H 437.931 3.81793 -2.58905 0
M  V30 4835 H 436.174 3.55092 -2.49183 0
M  V30 4836 H 436.845 5.12439 -2.05207 0
M  V30 4837 H 439.321 4.14228 -0.394267 0
M  V30 4838 H 438.197 5.48847 -0.0762682 0
M  V30 4839 H 438.458 4.26655 1.15835 0
M  V30 4840 N 437.518 0.538854 1.48102 0
M  V30 4841 C 438.929 0.100679 1.86428 0
M  V30 4842 C 439.28 -1.32447 1.44749 0
M  V30 4843 O 438.405 -1.99339 0.842199 0
M  V30 4844 C 439 0.175933 3.38343 0
M  V30 4845 C 437.559 -0.207098 3.7583 0
M  V30 4846 C 436.706 0.531741 2.72154 0
M  V30 4847 H 439.657 0.749614 1.3988 0
M  V30 4848 H 439.678 -0.610144 3.75576 0
M  V30 4849 H 439.19 1.21328 3.68648 0
M  V30 4850 H 437.291 -1.24626 3.5114 0
M  V30 4851 H 437.404 0.138687 4.78899 0
M  V30 4852 H 435.768 -0.0230462 2.5469 0
M  V30 4853 H 436.551 1.56989 3.05302 0
M  V30 4854 N 438.996 -1.55193 0.274407 0
M  V30 4855 C 439.959 -2.212 -0.600279 0
M  V30 4856 C 440.959 -1.18963 -1.08187 0
M  V30 4857 O 442.149 -1.43873 -0.982158 0
M  V30 4858 C 439.281 -2.87739 -1.82809 0
M  V30 4859 H 440.474 -2.9989 -0.0239682 0
M  V30 4860 H 438.027 -1.5628 0.0250192 0
M  V30 4861 H 438.762 -2.13058 -2.44493 0
M  V30 4862 H 438.547 -3.62658 -1.49069 0
M  V30 4863 H 440.037 -3.38171 -2.45011 0
M  V30 4864 N 440.474 -0.00167713 -1.576 0
M  V30 4865 C 441.89 0.354422 -1.55615 0
M  V30 4866 C 442.09 1.74679 -1.00447 0
M  V30 4867 O 441.146 2.4428 -0.639022 0
M  V30 4868 C 442.459 0.22812 -2.99833 0
M  V30 4869 C 444.007 0.302934 -3.11531 0
M  V30 4870 C 444.482 0.205737 -4.57538 0
M  V30 4871 N 445.973 0.263584 -4.62449 0
M  V30 4872 C 446.708 0.211742 -5.73009 0
M  V30 4873 N 446.204 0.110399 -6.92712 0
M  V30 4874 N 447.997 0.263729 -5.61481 0
M  V30 4875 H 440.148 -0.912498 -1.918 0
M  V30 4876 H 442.411 -0.349928 -0.881053 0
M  V30 4877 H 442.117 -0.729934 -3.44042 0
M  V30 4878 H 441.991 1.00951 -3.6344 0
M  V30 4879 H 444.378 1.25143 -2.67251 0
M  V30 4880 H 444.459 -0.508357 -2.50698 0
M  V30 4881 H 444.103 -0.739225 -5.02492 0
M  V30 4882 H 444.033 1.03554 -5.16318 0
M  V30 4883 H 446.524 0.343173 -3.76339 0
M  V30 4884 H 446.837 0.0767828 -7.72762 0
M  V30 4885 H 445.182 0.0760025 -6.94958 0
M  V30 4886 H 448.373 0.34111 -4.66855 0
M  V30 4887 H 448.546 0.219862 -6.47627 0
M  V30 4888 N 441.952 1.55251 0.271103 0
M  V30 4889 C 443.198 1.76207 1.00394 0
M  V30 4890 C 443.531 0.562604 1.85872 0
M  V30 4891 O 442.806 -0.439785 1.89463 0
M  V30 4892 C 443.089 3.06828 1.8849 0
M  V30 4893 C 442.942 4.37134 1.05992 0
M  V30 4894 C 444.261 3.33503 2.87165 0
M  V30 4895 H 441.38 0.641086 0.363562 0
M  V30 4896 H 444.022 1.87982 0.276189 0
M  V30 4897 H 442.172 2.96921 2.5054 0
M  V30 4898 H 443.844 4.59001 0.459978 0
M  V30 4899 H 442.087 4.32275 0.363443 0
M  V30 4900 H 442.758 5.2486 1.70955 0
M  V30 4901 H 445.234 3.43215 2.3525 0
M  V30 4902 H 444.11 4.2616 3.45946 0
M  V30 4903 H 444.371 2.53235 3.62387 0
M  V30 4904 N 443.43 -0.535701 1.48216 0
M  V30 4905 C 444.655 -1.32149 1.59848 0
M  V30 4906 C 445.08 -1.86338 0.256842 0
M  V30 4907 O 444.438 -1.64107 -0.770632 0
M  V30 4908 C 444.486 -2.45224 2.64381 0
M  V30 4909 O 443.59 -3.48093 2.21144 0
M  V30 4910 H 442.931 -0.391634 0.536208 0
M  V30 4911 H 445.461 -0.645202 1.94161 0
M  V30 4912 H 445.471 -2.91491 2.85476 0
M  V30 4913 H 444.146 -2.05143 3.61786 0
M  V30 4914 H 442.723 -3.07984 2.10239 0
M  V30 4915 N 444.908 -1.36708 -0.784132 0
M  V30 4916 C 445.838 -1.34153 -1.91116 0
M  V30 4917 C 446.819 -0.212121 -1.68772 0
M  V30 4918 O 448.004 -0.410581 -1.8981 0
M  V30 4919 C 445.134 -1.13535 -3.28218 0
M  V30 4920 C 444.088 -2.23356 -3.65097 0
M  V30 4921 C 443.414 -1.87875 -5.00607 0
M  V30 4922 C 444.714 -3.65473 -3.73131 0
M  V30 4923 H 446.408 -2.28459 -1.93512 0
M  V30 4924 H 443.954 -1.09973 -0.929618 0
M  V30 4925 H 445.907 -1.10381 -4.06687 0
M  V30 4926 H 444.631 -0.156804 -3.26223 0
M  V30 4927 H 443.29 -2.25645 -2.88929 0
M  V30 4928 H 442.938 -0.885814 -4.95139 0
M  V30 4929 H 442.638 -2.61406 -5.26252 0
M  V30 4930 H 444.162 -1.86286 -5.81489 0
M  V30 4931 H 445.576 -3.65382 -4.41779 0
M  V30 4932 H 443.973 -4.37953 -4.10265 0
M  V30 4933 H 445.043 -3.99995 -2.74102 0
M  V30 4934 N 446.386 1.0089 -1.21074 0
M  V30 4935 C 447.634 1.74262 -1.02358 0
M  V30 4936 C 447.955 1.89869 0.444393 0
M  V30 4937 O 447.225 1.44677 1.32081 0
M  V30 4938 H 445.805 0.645615 -0.375754 0
M  V30 4939 H 448.467 1.21596 -1.52317 0
M  V30 4940 H 447.563 2.74328 -1.4883 0
M  V30 4941 N 447.864 1.01787 1.20321 0
M  V30 4942 C 449.113 0.703249 1.89043 0
M  V30 4943 C 449.426 -0.770445 1.79787 0
M  V30 4944 O 450.632 -1.19767 2.43656 0
M  V30 4945 C 449.088 1.20749 3.3904 0
M  V30 4946 C 448.696 2.70817 3.56878 0
M  V30 4947 C 450.44 0.968352 4.13308 0
M  V30 4948 C 448.347 3.14716 5.00708 0
M  V30 4949 H 447.277 0.259354 0.707991 0
M  V30 4950 H 449.928 1.23072 1.36108 0
M  V30 4951 H 448.31 0.607989 3.91305 0
M  V30 4952 H 449.484 3.36327 3.14993 0
M  V30 4953 H 447.799 2.92888 2.95983 0
M  V30 4954 H 450.396 1.27173 5.19356 0
M  V30 4955 H 450.739 -0.095149 4.16191 0
M  V30 4956 H 451.272 1.53129 3.67146 0
M  V30 4957 H 448.011 4.20347 5.02979 0
M  V30 4958 H 447.531 2.53927 5.43398 0
M  V30 4959 H 449.21 3.07426 5.69296 0
M  V30 4960 N 449.342 -1.36122 0.79427 0
M  V30 4961 C 450.57 -2.03362 0.380989 0
M  V30 4962 C 450.985 -1.59881 -1.00416 0
M  V30 4963 O 450.342 -0.790515 -1.6449 0
M  V30 4964 C 450.393 -3.58804 0.440649 0
M  V30 4965 O 450.114 -4.007 1.77118 0
M  V30 4966 C 451.615 -4.43296 0.0186117 0
M  V30 4967 H 448.835 -0.652526 0.156367 0
M  V30 4968 H 451.379 -1.73998 1.07447 0
M  V30 4969 H 449.534 -3.8686 -0.204458 0
M  V30 4970 H 449.948 -4.95309 1.72538 0
M  V30 4971 H 451.422 -5.51887 0.111488 0
M  V30 4972 H 451.899 -4.2684 -1.03461 0
M  V30 4973 H 452.505 -4.20512 0.636395 0
M  V30 4974 N 450.82 -0.546701 -1.47814 0
M  V30 4975 C 452.048 -0.0232857 -2.06887 0
M  V30 4976 C 452.463 1.26571 -1.4009 0
M  V30 4977 O 451.82 1.7569 -0.493906 0
M  V30 4978 C 451.871 0.186975 -3.61016 0
M  V30 4979 O 451.592 -1.05097 -4.25307 0
M  V30 4980 C 453.093 0.748872 -4.36929 0
M  V30 4981 H 450.313 -0.0410763 -0.669742 0
M  V30 4982 H 452.857 -0.757117 -1.89968 0
M  V30 4983 H 451.012 0.870903 -3.77484 0
M  V30 4984 H 451.426 -0.842121 -5.17695 0
M  V30 4985 H 452.9 0.845334 -5.45489 0
M  V30 4986 H 453.377 1.75772 -4.02493 0
M  V30 4987 H 453.983 0.100979 -4.2518 0
M  V30 4988 N 452.299 1.55045 -0.282633 0
M  V30 4989 C 453.545 2.00056 0.332481 0
M  V30 4990 C 453.878 1.1708 1.54939 0
M  V30 4991 O 453.153 0.2427 1.9298 0
M  V30 4992 C 453.436 3.53086 0.70725 0
M  V30 4993 C 453.289 4.46813 -0.517521 0
M  V30 4994 C 454.608 4.12245 1.54084 0
M  V30 4995 H 451.727 0.727268 0.119373 0
M  V30 4996 H 454.369 1.85932 -0.391076 0
M  V30 4997 H 452.519 3.65253 1.32372 0
M  V30 4998 H 454.191 4.46579 -1.15607 0
M  V30 4999 H 452.434 4.18163 -1.1542 0
M  V30 5000 H 453.105 5.51595 -0.211426 0
M  V30 5001 H 455.581 4.03401 1.02013 0
M  V30 5002 H 454.457 5.19515 1.77186 0
M  V30 5003 H 454.718 3.62951 2.52427 0
M  V30 5004 N 453.777 0.010035 1.57597 0
M  V30 5005 C 454.707 -0.976857 2.12084 0
M  V30 5006 C 455.688 -1.35191 1.03235 0
M  V30 5007 O 456.873 -1.43389 1.3097 0
M  V30 5008 C 454.003 -2.26548 2.63236 0
M  V30 5009 C 452.957 -2.03175 3.76701 0
M  V30 5010 C 452.283 -3.38138 4.14206 0
M  V30 5011 C 453.583 -1.38625 5.03568 0
M  V30 5012 H 455.277 -0.523145 2.94794 0
M  V30 5013 H 452.823 -0.250195 1.4181 0
M  V30 5014 H 454.776 -2.95952 2.99984 0
M  V30 5015 H 453.5 -2.74051 1.77661 0
M  V30 5016 H 452.159 -1.36195 3.40362 0
M  V30 5017 H 451.807 -3.83363 3.25641 0
M  V30 5018 H 451.507 -3.23312 4.90656 0
M  V30 5019 H 453.031 -4.08841 4.53521 0
M  V30 5020 H 454.445 -1.98 5.38023 0
M  V30 5021 H 452.842 -1.34256 5.84889 0
M  V30 5022 H 453.912 -0.356722 4.83586 0
M  V30 5023 N 455.255 -1.55392 -0.262866 0
M  V30 5024 C 456.483 -1.80513 -1.01108 0
M  V30 5025 C 456.898 -0.583533 -1.79556 0
M  V30 5026 O 456.255 0.447585 -1.76926 0
M  V30 5027 C 456.306 -3.03648 -1.96164 0
M  V30 5028 O 456.027 -4.2109 -1.20893 0
M  V30 5029 C 457.528 -3.41448 -2.82715 0
M  V30 5030 H 454.748 -0.601079 -0.298236 0
M  V30 5031 H 457.292 -2.02425 -0.290582 0
M  V30 5032 H 455.447 -2.83832 -2.63663 0
M  V30 5033 H 455.861 -4.90771 -1.85051 0
M  V30 5034 H 457.335 -4.30751 -3.45192 0
M  V30 5035 H 457.812 -2.61308 -3.53008 0
M  V30 5036 H 458.418 -3.63559 -2.20693 0
M  V30 5037 N 456.733 0.527833 -1.48498 0
M  V30 5038 C 457.666 1.64892 -1.57753 0
M  V30 5039 C 458.644 1.5687 -0.427867 0
M  V30 5040 O 459.828 1.77311 -0.639764 0
M  V30 5041 C 456.955 3.03301 -1.50752 0
M  V30 5042 C 456.001 3.29675 -2.70586 0
M  V30 5043 S 456.834 3.15712 -4.32535 0
M  V30 5044 C 457.99 4.56564 -4.28136 0
M  V30 5045 H 458.223 1.56792 -2.52594 0
M  V30 5046 H 455.756 0.710959 -1.37057 0
M  V30 5047 H 457.714 3.83123 -1.474 0
M  V30 5048 H 456.375 3.08839 -0.572454 0
M  V30 5049 H 455.568 4.3065 -2.61833 0
M  V30 5050 H 455.17 2.57526 -2.71212 0
M  V30 5051 H 457.462 5.48126 -3.98201 0
M  V30 5052 H 458.405 4.70371 -5.29298 0
M  V30 5053 H 458.813 4.35987 -3.58574 0
M  V30 5054 N 458.211 1.37122 0.776871 0
M  V30 5055 C 459.436 1.354 1.57104 0
M  V30 5056 C 459.861 -0.0595562 1.88006 0
M  V30 5057 O 459.219 -1.03514 1.48844 0
M  V30 5058 C 459.267 2.19472 2.8612 0
M  V30 5059 O 458.371 1.59582 3.80273 0
M  V30 5060 H 457.712 0.462869 0.476076 0
M  V30 5061 H 460.242 1.80577 0.961932 0
M  V30 5062 H 460.252 2.32502 3.35271 0
M  V30 5063 H 458.927 3.22222 2.62956 0
M  V30 5064 H 457.504 1.55564 3.38902 0
M  V30 5065 N 459.689 -1.00246 1.21608 0
M  V30 5066 C 460.917 -1.77631 1.06089 0
M  V30 5067 C 461.332 -1.84746 -0.38916 0
M  V30 5068 O 460.689 -1.31068 -1.26994 0
M  V30 5069 C 460.74 -3.21415 1.65453 0
M  V30 5070 O 460.461 -3.14703 3.04785 0
M  V30 5071 C 461.962 -4.15289 1.55079 0
M  V30 5072 H 459.182 -0.558162 0.37242 0
M  V30 5073 H 461.726 -1.26093 1.60999 0
M  V30 5074 H 459.881 -3.70053 1.14629 0
M  V30 5075 H 460.295 -4.05056 3.33212 0
M  V30 5076 H 461.769 -5.13965 2.01355 0
M  V30 5077 H 462.246 -4.36279 0.505665 0
M  V30 5078 H 462.852 -3.72543 2.05163 0
M  V30 5079 N 461.167 -1.02423 -1.1978 0
M  V30 5080 C 462.416 -0.713265 -1.88667 0
M  V30 5081 C 462.729 0.7609 -1.80193 0
M  V30 5082 O 463.935 1.18473 -2.44288 0
M  V30 5083 C 462.391 -1.22545 -3.38394 0
M  V30 5084 C 461.999 -2.72706 -3.55437 0
M  V30 5085 C 463.743 -0.990257 -4.12788 0
M  V30 5086 C 461.65 -3.17367 -4.99031 0
M  V30 5087 H 460.58 -0.263105 -0.706606 0
M  V30 5088 H 463.231 -1.23792 -1.35454 0
M  V30 5089 H 461.613 -0.628732 -3.90977 0
M  V30 5090 H 462.787 -3.37993 -3.13205 0
M  V30 5091 H 461.102 -2.94453 -2.94425 0
M  V30 5092 H 463.699 -1.29926 -5.18675 0
M  V30 5093 H 464.042 0.0730761 -4.16236 0
M  V30 5094 H 464.575 -1.55074 -3.66329 0
M  V30 5095 H 461.314 -4.23009 -5.00743 0
M  V30 5096 H 460.834 -2.56805 -5.42044 0
M  V30 5097 H 462.513 -3.10441 -5.67658 0
M  V30 5098 N 462.645 1.35699 -0.801477 0
M  V30 5099 C 463.894 1.98165 -0.375979 0
M  V30 5100 C 464.207 1.64306 1.06127 0
M  V30 5101 O 465.413 2.20097 1.58964 0
M  V30 5102 C 463.869 3.54497 -0.621305 0
M  V30 5103 C 463.477 3.9727 -2.07076 0
M  V30 5104 C 465.221 4.23697 -0.26091 0
M  V30 5105 C 463.128 5.46427 -2.26211 0
M  V30 5106 H 462.058 0.741478 -0.136844 0
M  V30 5107 H 464.709 1.54834 -0.984814 0
M  V30 5108 H 463.091 3.95958 0.0574112 0
M  V30 5109 H 464.265 3.66974 -2.78687 0
M  V30 5110 H 462.58 3.40943 -2.39054 0
M  V30 5111 H 465.177 5.33334 -0.381994 0
M  V30 5112 H 465.52 4.0869 0.792344 0
M  V30 5113 H 466.053 3.87639 -0.893339 0
M  V30 5114 H 462.792 5.66396 -3.29963 0
M  V30 5115 H 462.312 5.78309 -1.59119 0
M  V30 5116 H 463.991 6.12819 -2.07513 0
M  V30 5117 N 464.123 0.554532 1.47522 0
M  V30 5118 C 465.351 0.034257 2.06872 0
M  V30 5119 C 465.766 -1.25826 1.40759 0
M  V30 5120 O 465.123 -1.75425 0.503217 0
M  V30 5121 C 465.174 -0.167827 3.6111 0
M  V30 5122 O 464.895 1.07351 4.24744 0
M  V30 5123 C 466.396 -0.72569 4.3732 0
M  V30 5124 H 463.616 0.0446275 0.669514 0
M  V30 5125 H 466.16 0.767181 1.89564 0
M  V30 5126 H 464.315 -0.850872 3.7794 0
M  V30 5127 H 464.729 0.869563 5.17242 0
M  V30 5128 H 466.203 -0.816394 5.45929 0
M  V30 5129 H 466.68 -1.73635 4.0342 0
M  V30 5130 H 467.286 -0.0784292 4.25228 0
M  V30 5131 N 465.601 -1.54893 0.290851 0
M  V30 5132 C 466.564 -2.21824 -0.576784 0
M  V30 5133 C 467.564 -1.20104 -1.06919 0
M  V30 5134 O 468.754 -1.44906 -0.966843 0
M  V30 5135 C 465.886 -2.89662 -1.79747 0
M  V30 5136 H 467.079 -2.99899 0.00784051 0
M  V30 5137 H 464.632 -1.56245 0.0415934 0
M  V30 5138 H 465.367 -2.15639 -2.42219 0
M  V30 5139 H 465.152 -3.64219 -1.45214 0
M  V30 5140 H 466.642 -3.4075 -2.4141 0
M  V30 5141 N 467.08 -0.0183926 -1.57589 0
M  V30 5142 C 468.326 0.663543 -1.91638 0
M  V30 5143 C 468.659 1.72392 -0.894134 0
M  V30 5144 O 467.934 1.94316 0.0846449 0
M  V30 5145 C 468.217 1.28984 -3.36207 0
M  V30 5146 C 468.07 0.239761 -4.49161 0
M  V30 5147 C 469.389 2.2109 -3.80536 0
M  V30 5148 H 466.508 0.239746 -0.696915 0
M  V30 5149 H 469.15 -0.073456 -1.89858 0
M  V30 5150 H 467.3 1.91799 -3.37854 0
M  V30 5151 H 468.972 -0.390119 -4.59647 0
M  V30 5152 H 467.215 -0.435972 -4.31604 0
M  V30 5153 H 467.886 0.717383 -5.47319 0
M  V30 5154 H 470.362 1.68273 -3.80557 0
M  V30 5155 H 469.238 2.61869 -4.82406 0
M  V30 5156 H 469.499 3.09764 -3.15434 0
M  V30 5157 N 468.558 1.5553 0.254621 0
M  V30 5158 C 469.783 1.81383 1.00573 0
M  V30 5159 C 470.208 0.594419 1.78461 0
M  V30 5160 O 469.566 -0.456403 1.75461 0
M  V30 5161 C 469.614 3.04892 1.92545 0
M  V30 5162 O 468.718 2.81266 3.01601 0
M  V30 5163 H 468.059 0.598969 0.286587 0
M  V30 5164 H 470.589 2.02703 0.277952 0
M  V30 5165 H 470.599 3.34119 2.34155 0
M  V30 5166 H 469.274 3.93287 1.3527 0
M  V30 5167 H 467.851 2.63185 2.64174 0
M  V30 5168 N 470.036 -0.519951 1.48776 0
M  V30 5169 C 470.999 -1.60574 1.6355 0
M  V30 5170 C 471.999 -1.52557 0.508234 0
M  V30 5171 O 473.189 -1.56047 0.774262 0
M  V30 5172 C 470.321 -3.00211 1.61512 0
M  V30 5173 H 471.514 -1.4881 2.60376 0
M  V30 5174 H 469.067 -0.742772 1.37523 0
M  V30 5175 H 469.802 -3.17471 0.662009 0
M  V30 5176 H 469.587 -3.07439 2.43359 0
M  V30 5177 H 471.077 -3.79134 1.75064 0
M  V30 5178 N 471.514 -1.37532 -0.769588 0
M  V30 5179 C 472.739 -1.36231 -1.56384 0
M  V30 5180 C 473.164 0.0495849 -1.88035 0
M  V30 5181 O 472.522 1.02723 -1.49391 0
M  V30 5182 C 472.57 -2.20986 -2.84952 0
M  V30 5183 O 471.674 -1.61597 -3.79421 0
M  V30 5184 H 471.015 -0.465387 -0.473615 0
M  V30 5185 H 473.545 -1.81085 -0.952342 0
M  V30 5186 H 473.555 -2.34277 -3.34034 0
M  V30 5187 H 472.23 -3.23612 -2.61243 0
M  V30 5188 H 470.807 -1.57359 -3.38072 0
M  V30 5189 N 472.992 0.995999 -1.22138 0
M  V30 5190 C 473.925 2.08302 -0.931952 0
M  V30 5191 C 474.903 1.62127 0.123956 0
M  V30 5192 O 476.087 1.88499 -0.00696004 0
M  V30 5193 C 473.214 3.36317 -0.401068 0
M  V30 5194 C 472.26 4.01413 -1.44117 0
M  V30 5195 S 473.093 4.42664 -3.01345 0
M  V30 5196 C 474.249 5.73853 -2.49887 0
M  V30 5197 H 474.482 2.32532 -1.85246 0
M  V30 5198 H 472.015 1.13005 -1.0521 0
M  V30 5199 H 473.973 4.10375 -0.101352 0
M  V30 5200 H 472.634 3.10123 0.498272 0
M  V30 5201 H 471.827 4.9358 -1.01952 0
M  V30 5202 H 471.429 3.33668 -1.68943 0
M  V30 5203 H 473.721 6.50039 -1.90934 0
M  V30 5204 H 474.664 6.20841 -3.40532 0
M  V30 5205 H 475.072 5.31105 -1.9128 0
M  V30 5206 N 474.47 1.03057 1.19235 0
M  V30 5207 C 475.881 0.757449 1.70645 0
M  V30 5208 C 476.232 -0.722735 1.82403 0
M  V30 5209 O 475.357 -1.56325 1.49638 0
M  V30 5210 C 475.952 1.36833 3.09939 0
M  V30 5211 C 474.511 1.14375 3.58602 0
M  V30 5212 C 473.658 1.46533 2.35422 0
M  V30 5213 H 476.609 1.19828 1.04052 0
M  V30 5214 H 476.63 0.766184 3.72706 0
M  V30 5215 H 476.142 2.44562 3.01349 0
M  V30 5216 H 474.243 0.0847542 3.72504 0
M  V30 5217 H 474.356 1.83366 4.42622 0
M  V30 5218 H 472.72 0.884712 2.38841 0
M  V30 5219 H 473.503 2.55349 2.2946 0
M  V30 5220 N 475.948 -1.35272 0.808662 0
M  V30 5221 C 476.88 -2.28507 0.178149 0
M  V30 5222 C 477.893 -1.50377 -0.623754 0
M  V30 5223 O 479.082 -1.72583 -0.455774 0
M  V30 5224 C 476.182 -3.30038 -0.769959 0
M  V30 5225 C 475.355 -4.37398 -0.0139749 0
M  V30 5226 C 474.414 -5.18775 -0.880875 0
M  V30 5227 O 473.44 -5.68236 -0.331059 0
M  V30 5228 N 474.642 -5.37087 -2.20267 0
M  V30 5229 H 477.407 -2.83255 0.979106 0
M  V30 5230 H 474.968 -1.47643 0.664308 0
M  V30 5231 H 476.96 -3.81371 -1.35418 0
M  V30 5232 H 475.53 -2.75789 -1.47171 0
M  V30 5233 H 474.75 -3.86971 0.751468 0
M  V30 5234 H 476.038 -5.06268 0.506965 0
M  V30 5235 H 475.436 -4.9855 -2.67328 0
M  V30 5236 H 473.993 -5.91593 -2.73608 0
M  V30 5237 N 477.426 -0.562348 -1.47226 0
M  V30 5238 C 478.672 -0.0402761 -2.0276 0
M  V30 5239 C 479.005 1.30823 -1.43523 0
M  V30 5240 O 478.28 1.85249 -0.592705 0
M  V30 5241 C 478.563 0.047311 -3.60069 0
M  V30 5242 C 478.416 -1.32865 -4.29729 0
M  V30 5243 C 479.735 0.758182 -4.3352 0
M  V30 5244 H 476.854 -0.0161105 -0.736824 0
M  V30 5245 H 479.496 -0.725628 -1.75598 0
M  V30 5246 H 477.646 0.630986 -3.83342 0
M  V30 5247 H 479.318 -1.95593 -4.17781 0
M  V30 5248 H 477.561 -1.90195 -3.89882 0
M  V30 5249 H 478.232 -1.22004 -5.38349 0
M  V30 5250 H 480.708 0.262546 -4.15271 0
M  V30 5251 H 479.584 0.78844 -5.43208 0
M  V30 5252 H 479.845 1.81537 -4.03109 0
M  V30 5253 N 478.904 1.54736 -0.299062 0
M  V30 5254 C 480.129 2.04975 0.316254 0
M  V30 5255 C 480.554 1.17501 1.46885 0
M  V30 5256 O 479.912 0.178678 1.80417 0
M  V30 5257 C 479.96 3.52672 0.751997 0
M  V30 5258 O 479.064 3.68226 1.85697 0
M  V30 5259 H 478.405 0.661126 0.0617175 0
M  V30 5260 H 480.935 1.99805 -0.440341 0
M  V30 5261 H 480.945 3.94488 1.04133 0
M  V30 5262 H 479.62 4.158 -0.0911482 0
M  V30 5263 H 478.197 3.38316 1.56834 0
M  V30 5264 N 480.382 0.0267497 1.57577 0
M  V30 5265 C 481.612 -0.6617 1.95717 0
M  V30 5266 C 482.02 -1.66331 0.901706 0
M  V30 5267 O 481.363 -1.83273 -0.125241 0
M  V30 5268 C 481.425 -1.42649 3.29987 0
M  V30 5269 C 481.089 -0.583482 4.5326 0
M  V30 5270 C 482.086 0.140221 5.19711 0
M  V30 5271 C 479.771 -0.521581 4.99585 0
M  V30 5272 C 481.765 0.914523 6.30805 0
M  V30 5273 C 479.452 0.256428 6.10562 0
M  V30 5274 C 480.45 0.973189 6.76031 0
M  V30 5275 O 480.138 1.73845 7.84878 0
M  V30 5276 H 479.87 -0.187483 0.649481 0
M  V30 5277 H 482.424 0.0820847 2.05236 0
M  V30 5278 H 480.654 -2.21536 3.16952 0
M  V30 5279 H 482.343 -2.00282 3.53047 0
M  V30 5280 H 483.109 0.101716 4.84893 0
M  V30 5281 H 478.988 -1.06904 4.48433 0
M  V30 5282 H 482.532 1.4745 6.81839 0
M  V30 5283 H 478.429 0.296657 6.44818 0
M  V30 5284 H 479.197 1.65797 8.01532 0
M  V30 5285 N 481.861 -1.55662 -0.24637 0
M  V30 5286 C 482.791 -1.93377 -1.30873 0
M  V30 5287 C 483.772 -0.798773 -1.50179 0
M  V30 5288 O 484.957 -1.0591 -1.62778 0
M  V30 5289 C 482.087 -2.22893 -2.66338 0
M  V30 5290 C 481.041 -3.38649 -2.61727 0
M  V30 5291 C 480.367 -3.53708 -4.00992 0
M  V30 5292 C 481.667 -4.74323 -2.18666 0
M  V30 5293 H 483.361 -2.82363 -0.995552 0
M  V30 5294 H 480.907 -1.35854 -0.477464 0
M  V30 5295 H 482.86 -2.47866 -3.40794 0
M  V30 5296 H 481.584 -1.30733 -2.99293 0
M  V30 5297 H 480.243 -3.13685 -1.89729 0
M  V30 5298 H 479.891 -2.58967 -4.31214 0
M  V30 5299 H 479.591 -4.31551 -3.98795 0
M  V30 5300 H 481.115 -3.81003 -4.77147 0
M  V30 5301 H 482.529 -4.98665 -2.82854 0
M  V30 5302 H 480.926 -5.55273 -2.27579 0
M  V30 5303 H 481.996 -4.71349 -1.13834 0
M  V30 5304 N 483.339 0.512053 -1.4905 0
M  V30 5305 C 484.286 1.6148 -1.64902 0
M  V30 5306 C 485.256 1.58687 -0.490673 0
M  V30 5307 O 486.441 1.76842 -0.71636 0
M  V30 5308 C 483.581 2.99676 -1.71139 0
M  V30 5309 C 482.694 3.12568 -2.98203 0
M  V30 5310 C 481.829 4.4143 -2.95487 0
M  V30 5311 C 480.868 4.47916 -4.17179 0
M  V30 5312 N 480.005 5.68191 -4.12437 0
M  V30 5313 H 484.845 1.47271 -2.59066 0
M  V30 5314 H 482.382 0.716713 -1.28459 0
M  V30 5315 H 484.34 3.79761 -1.72736 0
M  V30 5316 H 482.97 3.12614 -0.804508 0
M  V30 5317 H 482.022 2.25618 -3.06269 0
M  V30 5318 H 483.334 3.1322 -3.88194 0
M  V30 5319 H 482.488 5.29825 -2.95585 0
M  V30 5320 H 481.227 4.43326 -2.03256 0
M  V30 5321 H 480.232 3.57925 -4.17337 0
M  V30 5322 H 481.457 4.47744 -5.1059 0
M  V30 5323 H 479.403 5.7095 -3.23036 0
M  V30 5324 H 479.32 5.70413 -4.96151 0
M  V30 5325 H 480.588 6.58823 -4.16621 0
M  V30 5326 N 484.817 1.37938 0.762283 0
M  V30 5327 C 485.78 1.34279 1.85747 0
M  V30 5328 C 486.78 0.244969 1.58923 0
M  V30 5329 O 487.97 0.501365 1.66829 0
M  V30 5330 C 485.102 1.08833 3.23061 0
M  V30 5331 H 486.295 2.31705 1.90401 0
M  V30 5332 H 483.848 1.23105 0.963057 0
M  V30 5333 H 484.583 0.119767 3.24079 0
M  V30 5334 H 484.368 1.88306 3.43923 0
M  V30 5335 H 485.858 1.08946 4.03138 0
M  V30 5336 N 486.295 -0.989507 1.22664 0
M  V30 5337 C 487.541 -1.7321 1.05481 0
M  V30 5338 C 487.874 -1.89852 -0.408635 0
M  V30 5339 O 487.149 -1.44416 -1.30285 0
M  V30 5340 C 487.432 -3.1357 1.77047 0
M  V30 5341 C 487.285 -3.04555 3.31008 0
M  V30 5342 C 488.604 -4.12812 1.5256 0
M  V30 5343 H 485.723 -0.628697 0.384589 0
M  V30 5344 H 488.365 -1.15258 1.51049 0
M  V30 5345 H 486.515 -3.63046 1.3831 0
M  V30 5346 H 488.187 -2.62674 3.7921 0
M  V30 5347 H 486.43 -2.41278 3.6051 0
M  V30 5348 H 487.101 -4.03894 3.76263 0
M  V30 5349 H 489.577 -3.72106 1.86215 0
M  V30 5350 H 488.453 -5.09132 2.05124 0
M  V30 5351 H 488.714 -4.39711 0.458936 0
M  V30 5352 N 487.773 -1.03688 -1.18687 0
M  V30 5353 C 489.05 -0.652397 -1.84399 0
M  V30 5354 C 489.43 0.868386 -1.92412 0
M  V30 5355 O 488.778 1.76832 -1.44716 0
M  V30 5356 C 488.988 -1.3238 -3.22919 0
M  V30 5357 C 490.336 -1.45216 -3.98996 0
M  V30 5358 O 491.36 -1.2816 -3.32345 0
M  V30 5359 O 490.219 -1.72975 -5.18403 0
M  V30 5360 H 487.313 -0.227793 -0.795009 0
M  V30 5361 H 489.859 -1.13553 -1.2611 0
M  V30 5362 H 488.631 -2.36202 -3.11968 0
M  V30 5363 H 488.254 -0.829039 -3.88861 0
M  V30 5364 N 489.251 1.34841 -0.815825 0
M  V30 5365 C 490.497 1.98793 -0.401129 0
M  V30 5366 C 490.83 1.64548 1.03139 0
M  V30 5367 O 490.105 0.913487 1.71714 0
M  V30 5368 C 490.388 3.55143 -0.595409 0
M  V30 5369 C 490.241 3.99155 -2.07352 0
M  V30 5370 C 491.56 4.40092 -0.0268823 0
M  V30 5371 H 488.679 0.722146 -0.14722 0
M  V30 5372 H 491.321 1.59847 -1.02707 0
M  V30 5373 H 489.471 3.8845 -0.0625779 0
M  V30 5374 H 491.143 3.76216 -2.66945 0
M  V30 5375 H 489.386 3.49726 -2.56659 0
M  V30 5376 H 490.057 5.07971 -2.1603 0
M  V30 5377 H 492.533 4.13298 -0.482042 0
M  V30 5378 H 491.409 5.48562 -0.19267 0
M  V30 5379 H 491.67 4.29016 1.06759 0
M  V30 5380 N 490.729 0.570148 1.46925 0
M  V30 5381 C 491.959 0.0561151 2.06524 0
M  V30 5382 C 492.367 -1.24874 1.42137 0
M  V30 5383 O 491.71 -1.76292 0.516417 0
M  V30 5384 C 491.772 -0.197035 3.5896 0
M  V30 5385 C 491.436 1.02033 4.45464 0
M  V30 5386 C 492.433 1.92921 4.82781 0
M  V30 5387 C 490.118 1.23864 4.86788 0
M  V30 5388 C 492.112 3.03999 5.60235 0
M  V30 5389 C 489.799 2.35249 5.64004 0
M  V30 5390 C 490.797 3.25146 6.0064 0
M  V30 5391 O 490.485 4.34598 6.76299 0
M  V30 5392 H 490.217 0.0487409 0.674241 0
M  V30 5393 H 492.771 0.786915 1.89728 0
M  V30 5394 H 491.001 -0.982299 3.74016 0
M  V30 5395 H 492.69 -0.658032 4.00531 0
M  V30 5396 H 493.456 1.77265 4.51444 0
M  V30 5397 H 489.335 0.54805 4.57731 0
M  V30 5398 H 492.879 3.74192 5.8875 0
M  V30 5399 H 488.776 2.50873 5.94755 0
M  V30 5400 H 489.544 4.32808 6.94708 0
M  V30 5401 N 492.207 -1.54576 0.307264 0
M  V30 5402 C 493.137 -2.26708 -0.55907 0
M  V30 5403 C 494.118 -1.26893 -1.1328 0
M  V30 5404 O 495.303 -1.55677 -1.16097 0
M  V30 5405 C 492.433 -3.01259 -1.72801 0
M  V30 5406 C 491.387 -4.08275 -1.28435 0
M  V30 5407 C 490.713 -4.70575 -2.53895 0
M  V30 5408 C 492.013 -5.2068 -0.411038 0
M  V30 5409 H 493.707 -2.9937 0.042576 0
M  V30 5410 H 491.253 -1.43983 0.0219173 0
M  V30 5411 H 493.206 -3.50444 -2.34023 0
M  V30 5412 H 491.93 -2.26187 -2.356 0
M  V30 5413 H 490.589 -3.59949 -0.695161 0
M  V30 5414 H 490.237 -3.92136 -3.15021 0
M  V30 5415 H 489.937 -5.42854 -2.24908 0
M  V30 5416 H 491.461 -5.22527 -3.15908 0
M  V30 5417 H 492.875 -5.65721 -0.929097 0
M  V30 5418 H 491.272 -5.99716 -0.214664 0
M  V30 5419 H 492.342 -4.81629 0.562287 0
M  V30 5420 N 493.685 -0.035106 -1.57561 0
M  V30 5421 C 494.931 0.637362 -1.93156 0
M  V30 5422 C 495.286 1.69391 -0.912392 0
M  V30 5423 O 494.579 1.91469 0.070735 0
M  V30 5424 C 494.773 1.29149 -3.3325 0
M  V30 5425 C 494.602 0.29983 -4.48699 0
M  V30 5426 C 493.372 -0.102454 -5.05196 0
M  V30 5427 C 495.57 -0.448297 -5.12342 0
M  V30 5428 N 493.552 -1.08866 -6.0417 0
M  V30 5429 C 494.923 -1.28807 -6.06472 0
M  V30 5430 C 496.978 -0.508351 -4.95298 0
M  V30 5431 C 495.681 -2.18248 -6.85391 0
M  V30 5432 C 497.707 -1.39013 -5.7483 0
M  V30 5433 C 497.069 -2.21766 -6.6858 0
M  V30 5434 H 493.168 0.205358 -0.754554 0
M  V30 5435 H 495.752 -0.103682 -1.94424 0
M  V30 5436 H 493.923 2.00264 -3.3279 0
M  V30 5437 H 495.655 1.92147 -3.56177 0
M  V30 5438 H 492.41 0.273223 -4.72811 0
M  V30 5439 H 492.834 -1.57817 -6.58348 0
M  V30 5440 H 497.476 0.117197 -4.22638 0
M  V30 5441 H 495.194 -2.81855 -7.57353 0
M  V30 5442 H 498.78 -1.44096 -5.63673 0
M  V30 5443 H 497.66 -2.88892 -7.29048 0
M  V30 5444 N 495.163 1.55791 0.238111 0
M  V30 5445 C 496.409 1.78297 0.966337 0
M  V30 5446 C 496.742 0.601903 1.84637 0
M  V30 5447 O 496.017 -0.399499 1.90353 0
M  V30 5448 C 496.3 3.10758 1.81939 0
M  V30 5449 C 496.153 4.39283 0.966958 0
M  V30 5450 C 497.472 3.39519 2.80027 0
M  V30 5451 H 494.591 0.648654 0.349882 0
M  V30 5452 H 497.233 1.88525 0.236253 0
M  V30 5453 H 495.383 3.02168 2.44185 0
M  V30 5454 H 497.055 4.59873 0.362514 0
M  V30 5455 H 495.298 4.32948 0.271669 0
M  V30 5456 H 495.969 5.28368 1.59784 0
M  V30 5457 H 498.445 3.48128 2.27917 0
M  V30 5458 H 497.321 4.33402 3.36829 0
M  V30 5459 H 497.582 2.60864 3.56934 0
M  V30 5460 N 496.642 -0.504142 1.49319 0
M  V30 5461 C 497.867 -1.28729 1.62615 0
M  V30 5462 C 498.292 -1.85752 0.296309 0
M  V30 5463 O 497.65 -1.65704 -0.735649 0
M  V30 5464 C 497.698 -2.39561 2.69524 0
M  V30 5465 O 496.802 -3.43324 2.28478 0
M  V30 5466 H 496.143 -0.380172 0.544395 0
M  V30 5467 H 498.673 -0.603872 1.95485 0
M  V30 5468 H 498.683 -2.8537 2.91595 0
M  V30 5469 H 497.358 -1.97423 3.66056 0
M  V30 5470 H 495.935 -3.03455 2.16725 0
M  V30 5471 N 498.12 -1.38341 -0.754957 0
M  V30 5472 C 499.345 -1.37882 -1.5493 0
M  V30 5473 C 499.77 0.0296385 -1.88077 0
M  V30 5474 O 499.128 1.01133 -1.50472 0
M  V30 5475 C 499.176 -2.23996 -2.82592 0
M  V30 5476 O 498.28 -1.65612 -3.77686 0
M  V30 5477 H 497.621 -0.470384 -0.468652 0
M  V30 5478 H 500.151 -1.82084 -0.933082 0
M  V30 5479 H 500.161 -2.37806 -3.3153 0
M  V30 5480 H 498.836 -3.26365 -2.57796 0
M  V30 5481 H 497.413 -1.60936 -3.36384 0
M  V30 5482 N 499.598 0.982988 -1.23187 0
M  V30 5483 C 500.528 2.09301 -1.03515 0
M  V30 5484 C 501.509 1.70035 0.0471136 0
M  V30 5485 O 502.694 1.93847 -0.117029 0
M  V30 5486 C 499.824 3.4167 -0.622791 0
M  V30 5487 C 498.778 3.94828 -1.65211 0
M  V30 5488 C 498.104 5.23362 -1.09527 0
M  V30 5489 C 499.404 4.2439 -3.04451 0
M  V30 5490 H 501.098 2.26016 -1.96359 0
M  V30 5491 H 498.644 1.08611 -0.945501 0
M  V30 5492 H 500.597 4.18746 -0.472233 0
M  V30 5493 H 499.321 3.24811 0.341329 0
M  V30 5494 H 497.98 3.19895 -1.79061 0
M  V30 5495 H 497.628 5.02852 -0.122211 0
M  V30 5496 H 497.328 5.59895 -1.783 0
M  V30 5497 H 498.852 6.03062 -0.956511 0
M  V30 5498 H 500.266 4.92225 -2.93917 0
M  V30 5499 H 498.663 4.72118 -3.70438 0
M  V30 5500 H 499.733 3.31765 -3.53638 0
M  V30 5501 N 501.076 1.04316 1.18135 0
M  V30 5502 C 502.323 0.74802 1.88178 0
M  V30 5503 C 502.651 -0.72441 1.80506 0
M  V30 5504 O 501.906 -1.54463 1.20165 0
M  V30 5505 C 502.205 1.16271 3.37958 0
M  V30 5506 C 501.871 2.63585 3.65833 0
M  V30 5507 C 500.533 3.03829 3.73151 0
M  V30 5508 C 502.885 3.58822 3.78016 0
M  V30 5509 C 500.213 4.38194 3.90132 0
M  V30 5510 C 502.565 4.92909 3.96514 0
M  V30 5511 C 501.229 5.3282 4.02068 0
M  V30 5512 H 500.499 0.27372 0.688592 0
M  V30 5513 H 503.146 1.30863 1.39811 0
M  V30 5514 H 501.451 0.520938 3.88321 0
M  V30 5515 H 503.148 0.911672 3.90499 0
M  V30 5516 H 499.738 2.31414 3.60757 0
M  V30 5517 H 503.922 3.28875 3.71692 0
M  V30 5518 H 499.178 4.68631 3.92677 0
M  V30 5519 H 503.352 5.66606 4.04883 0
M  V30 5520 H 500.979 6.36943 4.14979 0
M  V30 5521 N 502.554 -1.34406 0.822964 0
M  V30 5522 C 503.8 -1.98578 0.411666 0
M  V30 5523 C 504.133 -1.65093 -1.02264 0
M  V30 5524 O 503.408 -0.92258 -1.71227 0
M  V30 5525 C 503.691 -3.54823 0.614235 0
M  V30 5526 C 503.544 -3.9805 2.09466 0
M  V30 5527 C 504.863 -4.40071 0.050221 0
M  V30 5528 H 501.982 -0.721355 0.151047 0
M  V30 5529 H 504.624 -1.59301 1.03554 0
M  V30 5530 H 502.774 -3.88411 0.0831774 0
M  V30 5531 H 504.446 -3.74795 2.68936 0
M  V30 5532 H 502.689 -3.4836 2.5851 0
M  V30 5533 H 503.36 -5.06819 2.18721 0
M  V30 5534 H 505.836 -4.13037 0.503953 0
M  V30 5535 H 504.712 -5.48452 0.221759 0
M  V30 5536 H 504.973 -4.29576 -1.04482 0
M  V30 5537 N 504.032 -0.577932 -1.46621 0
M  V30 5538 C 505.279 -0.0616879 -2.02406 0
M  V30 5539 C 505.607 1.29638 -1.44997 0
M  V30 5540 O 504.862 1.86176 -0.60308 0
M  V30 5541 C 505.161 0.0590832 -3.57351 0
M  V30 5542 C 504.827 -1.23077 -4.33777 0
M  V30 5543 C 503.489 -1.58416 -4.54376 0
M  V30 5544 C 505.841 -2.08457 -4.77698 0
M  V30 5545 C 503.169 -2.78943 -5.16147 0
M  V30 5546 C 505.521 -3.28204 -5.408 0
M  V30 5547 C 504.185 -3.63832 -5.59627 0
M  V30 5548 H 503.455 -0.0225732 -0.740656 0
M  V30 5549 H 506.102 -0.753609 -1.76048 0
M  V30 5550 H 504.407 0.834104 -3.82818 0
M  V30 5551 H 506.104 0.474202 -3.98186 0
M  V30 5552 H 502.694 -0.945652 -4.18038 0
M  V30 5553 H 506.878 -1.82459 -4.61544 0
M  V30 5554 H 502.134 -3.06689 -5.28916 0
M  V30 5555 H 506.308 -3.94634 -5.73792 0
M  V30 5556 H 503.935 -4.57315 -6.07262 0
M  V30 5557 N 505.51 1.54411 -0.315457 0
M  V30 5558 C 506.44 2.27002 0.547039 0
M  V30 5559 C 507.421 1.27492 1.12605 0
M  V30 5560 O 508.606 1.5629 1.15269 0
M  V30 5561 C 505.736 3.02171 1.71201 0
M  V30 5562 C 504.69 4.0895 1.26268 0
M  V30 5563 C 504.016 4.71915 2.51396 0
M  V30 5564 C 505.316 5.20891 0.383419 0
M  V30 5565 H 507.01 2.99343 -0.0584517 0
M  V30 5566 H 504.556 1.4397 -0.0295527 0
M  V30 5567 H 506.509 3.51681 2.32161 0
M  V30 5568 H 505.233 2.27433 2.34397 0
M  V30 5569 H 503.892 3.60312 0.676062 0
M  V30 5570 H 503.54 3.93801 3.12937 0
M  V30 5571 H 503.24 5.44039 2.22026 0
M  V30 5572 H 504.764 5.24195 3.13133 0
M  V30 5573 H 506.178 5.66206 0.899082 0
M  V30 5574 H 504.575 5.99821 0.182857 0
M  V30 5575 H 505.645 4.81324 -0.587821 0
M  V30 5576 N 506.988 0.0434614 1.5754 0
M  V30 5577 C 508.213 -0.645358 1.97104 0
M  V30 5578 C 508.638 -1.64037 0.920521 0
M  V30 5579 O 507.996 -1.80922 -0.11708 0
M  V30 5580 C 508.044 -1.31547 3.35749 0
M  V30 5581 O 507.148 -2.43103 3.33129 0
M  V30 5582 H 506.489 -0.168403 0.64229 0
M  V30 5583 H 509.019 0.109573 2.04306 0
M  V30 5584 H 509.029 -1.66895 3.72304 0
M  V30 5585 H 507.704 -0.586205 4.11748 0
M  V30 5586 H 506.281 -2.0976 3.0831 0
M  V30 5587 N 508.466 -1.55915 -0.229846 0
M  V30 5588 C 509.712 -1.78807 -0.956868 0
M  V30 5589 C 510.045 -0.611687 -1.84315 0
M  V30 5590 O 509.32 0.389398 -1.90562 0
M  V30 5591 C 509.603 -3.11718 -1.80288 0
M  V30 5592 C 509.456 -4.3979 -0.943649 0
M  V30 5593 C 510.775 -3.40999 -2.78222 0
M  V30 5594 H 507.894 -0.6505 -0.346437 0
M  V30 5595 H 510.536 -1.88648 -0.226252 0
M  V30 5596 H 508.686 -3.03459 -2.42579 0
M  V30 5597 H 510.358 -4.60059 -0.338121 0
M  V30 5598 H 508.601 -4.33086 -0.248705 0
M  V30 5599 H 509.272 -5.29208 -1.5698 0
M  V30 5600 H 511.748 -3.49332 -2.26067 0
M  V30 5601 H 510.624 -4.35183 -3.34526 0
M  V30 5602 H 510.885 -2.62754 -3.55546 0
M  V30 5603 N 509.944 0.496216 -1.49584 0
M  V30 5604 C 511.193 1.24668 -1.58558 0
M  V30 5605 C 511.506 1.9359 -0.279703 0
M  V30 5606 O 512.712 2.70365 -0.248048 0
M  V30 5607 C 511.168 2.26388 -2.79779 0
M  V30 5608 C 510.776 1.63384 -4.17145 0
M  V30 5609 C 512.52 3.02233 -2.98086 0
M  V30 5610 C 510.427 2.63243 -5.29582 0
M  V30 5611 H 509.357 0.468995 -0.590389 0
M  V30 5612 H 512.008 0.519985 -1.75978 0
M  V30 5613 H 510.39 3.02241 -2.55863 0
M  V30 5614 H 511.564 0.93491 -4.51216 0
M  V30 5615 H 509.879 0.999121 -4.04236 0
M  V30 5616 H 512.476 3.76919 -3.79257 0
M  V30 5617 H 512.819 3.60132 -2.08831 0
M  V30 5618 H 513.352 2.33495 -3.22063 0
M  V30 5619 H 510.091 2.10119 -6.20911 0
M  V30 5620 H 509.611 3.31363 -4.99959 0
M  V30 5621 H 511.29 3.25575 -5.59115 0
M  V30 5622 N 511.423 1.38739 0.74761 0
M  V30 5623 C 512.333 1.38696 1.89211 0
M  V30 5624 C 513.349 0.283303 1.71678 0
M  V30 5625 O 514.525 0.522713 1.94498 0
M  V30 5626 C 511.59 1.21662 3.24653 0
M  V30 5627 C 510.651 2.41886 3.54669 0
M  V30 5628 C 509.884 2.25655 4.83648 0
M  V30 5629 O 510.107 1.25339 5.56459 0
M  V30 5630 O 509.041 3.14372 5.13277 0
M  V30 5631 H 512.867 2.35143 1.92202 0
M  V30 5632 H 510.452 1.19721 0.893708 0
M  V30 5633 H 512.334 1.14246 4.05618 0
M  V30 5634 H 511.009 0.283024 3.2246 0
M  V30 5635 H 509.916 2.54877 2.73841 0
M  V30 5636 H 511.249 3.33895 3.61628 0
M  V30 5637 N 512.901 -0.976442 1.23707 0
M  V30 5638 C 514.131 -1.75087 1.09673 0
M  V30 5639 C 514.539 -1.85852 -0.354344 0
M  V30 5640 O 513.882 -1.33985 -1.25673 0
M  V30 5641 C 513.944 -3.19272 1.65245 0
M  V30 5642 C 513.608 -3.32004 3.14042 0
M  V30 5643 C 514.605 -3.18017 4.11292 0
M  V30 5644 C 512.29 -3.56525 3.53829 0
M  V30 5645 C 514.284 -3.28363 5.46312 0
M  V30 5646 C 511.971 -3.6651 4.88993 0
M  V30 5647 C 512.969 -3.52439 5.85043 0
M  V30 5648 O 512.657 -3.62063 7.1775 0
M  V30 5649 H 512.389 -0.556164 0.384262 0
M  V30 5650 H 514.943 -1.23518 1.64111 0
M  V30 5651 H 513.173 -3.72107 1.05231 0
M  V30 5652 H 514.862 -3.7849 1.46629 0
M  V30 5653 H 515.628 -2.98966 3.81896 0
M  V30 5654 H 511.507 -3.66547 2.79579 0
M  V30 5655 H 515.051 -3.17297 6.21263 0
M  V30 5656 H 510.948 -3.85072 5.18063 0
M  V30 5657 H 511.716 -3.78833 7.25553 0
M  V30 5658 N 514.379 -1.04941 -1.1758 0
M  V30 5659 C 515.342 -0.652456 -2.19717 0
M  V30 5660 C 516.342 0.294745 -1.58076 0
M  V30 5661 O 517.532 0.0789579 -1.74021 0
M  V30 5662 C 514.664 0.0420712 -3.40874 0
M  V30 5663 H 515.857 -1.55642 -2.5635 0
M  V30 5664 H 513.41 -0.842995 -1.31618 0
M  V30 5665 H 514.145 0.95943 -3.09783 0
M  V30 5666 H 513.93 -0.638844 -3.86861 0
M  V30 5667 H 515.42 0.306 -4.16477 0
M  V30 5668 N 515.857 1.33968 -0.830081 0
M  V30 5669 C 516.82 2.27694 -0.26235 0
M  V30 5670 C 517.82 1.50589 0.563876 0
M  V30 5671 O 519.01 1.70028 0.378941 0
M  V30 5672 C 516.142 3.35002 0.63138 0
M  V30 5673 H 517.335 2.79419 -1.08928 0
M  V30 5674 H 514.888 1.44221 -0.602486 0
M  V30 5675 H 515.623 2.88504 1.48109 0
M  V30 5676 H 515.408 3.92079 0.0403276 0
M  V30 5677 H 516.898 4.04897 1.02217 0
M  V30 5678 N 517.335 0.585699 1.46312 0
M  V30 5679 C 518.581 0.0725284 2.0267 0
M  V30 5680 C 518.914 -1.28523 1.45586 0
M  V30 5681 O 518.189 -1.84283 0.622101 0
M  V30 5682 C 518.472 0.0099788 3.60099 0
M  V30 5683 C 518.325 1.39685 4.27561 0
M  V30 5684 C 519.644 -0.689117 4.34671 0
M  V30 5685 H 516.763 0.0278307 0.736474 0
M  V30 5686 H 519.405 0.753472 1.74421 0
M  V30 5687 H 517.555 -0.56992 3.84297 0
M  V30 5688 H 519.227 2.02215 4.14617 0
M  V30 5689 H 517.47 1.96374 3.86807 0
M  V30 5690 H 518.141 1.30553 5.36339 0
M  V30 5691 H 520.617 -0.196446 4.15636 0
M  V30 5692 H 519.493 -0.701921 5.44393 0
M  V30 5693 H 519.754 -1.75101 4.05946 0
M  V30 5694 N 518.813 -1.54241 0.323641 0
M  V30 5695 C 519.761 -2.25813 -0.557804 0
M  V30 5696 C 520.755 -1.27225 -1.11849 0
M  V30 5697 O 521.961 -1.45001 -1.06652 0
M  V30 5698 H 518.336 -0.72532 -0.198532 0
M  V30 5699 H 520.307 -2.98322 0.0681112 0
M  V30 5700 C 519.056 -3.02913 -1.70701 0
M  V30 5701 H 518.379 -3.78593 -1.28482 0
M  V30 5702 H 519.819 -3.56238 -2.29935 0
M  V30 5703 C 518.278 -2.11217 -2.62467 0
M  V30 5704 O 518.808 -1.69508 -3.64184 0
M  V30 5705 N 517.014 -1.76704 -2.30703 0
M  V30 5706 H 516.561 -2.1082 -1.48029 0
M  V30 5707 H 516.519 -1.15631 -2.92364 0
M  V30 5708 N 520.291 -0.0518155 -1.57515 0
M  V30 5709 C 521.521 0.63048 -1.96745 0
M  V30 5710 C 521.929 1.64875 -0.928054 0
M  V30 5711 O 521.272 1.83449 0.0960678 0
M  V30 5712 C 521.334 1.37381 -3.32215 0
M  V30 5713 C 520.998 0.511298 -4.54131 0
M  V30 5714 C 521.995 -0.222884 -5.19422 0
M  V30 5715 C 519.68 0.442035 -5.00351 0
M  V30 5716 C 521.674 -1.01476 -6.2927 0
M  V30 5717 C 519.361 -0.35353 -6.10077 0
M  V30 5718 C 520.359 -1.08062 -6.74397 0
M  V30 5719 O 520.047 -1.8631 -7.82013 0
M  V30 5720 H 519.779 0.177126 -0.652382 0
M  V30 5721 H 522.333 -0.114726 -2.05079 0
M  V30 5722 H 520.563 2.16466 -3.20436 0
M  V30 5723 H 522.252 1.9464 -3.56188 0
M  V30 5724 H 523.018 -0.178846 -4.8467 0
M  V30 5725 H 518.897 0.997562 -4.50077 0
M  V30 5726 H 522.441 -1.58279 -6.79407 0
M  V30 5727 H 518.338 -0.399205 -6.44264 0
M  V30 5728 H 519.106 -1.78528 -7.98793 0
M  V30 5729 N 521.769 1.56035 0.221574 0
M  V30 5730 C 522.699 1.95434 1.2778 0
M  V30 5731 C 523.68 0.822564 1.48889 0
M  V30 5732 O 524.865 1.08486 1.61072 0
M  V30 5733 C 521.995 2.27102 2.62759 0
M  V30 5734 C 520.949 3.4277 2.56306 0
M  V30 5735 C 520.275 3.60043 3.95314 0
M  V30 5736 C 521.575 4.77742 2.11093 0
M  V30 5737 H 523.269 2.83912 0.950504 0
M  V30 5738 H 520.815 1.36596 0.455791 0
M  V30 5739 H 522.768 2.53256 3.36807 0
M  V30 5740 H 521.492 1.35478 2.97176 0
M  V30 5741 H 520.151 3.16664 1.84715 0
M  V30 5742 H 519.799 2.65794 4.27039 0
M  V30 5743 H 519.499 4.37841 3.91879 0
M  V30 5744 H 521.023 3.88545 4.71025 0
M  V30 5745 H 522.437 5.03102 2.74885 0
M  V30 5746 H 520.834 5.58823 2.18716 0
M  V30 5747 H 521.904 4.731 1.06321 0
M  V30 5748 N 523.247 -0.488276 1.49845 0
M  V30 5749 C 524.475 -1.26527 1.63702 0
M  V30 5750 C 524.89 -1.8618 0.313447 0
M  V30 5751 O 524.247 -1.68432 -0.702624 0
M  V30 5752 C 524.298 -2.3864 2.71538 0
M  V30 5753 O 524.019 -1.81437 3.98763 0
M  V30 5754 C 525.52 -3.29805 2.96215 0
M  V30 5755 H 522.74 -0.383295 0.55075 0
M  V30 5756 H 525.284 -0.584779 1.95961 0
M  V30 5757 H 523.439 -3.02496 2.42023 0
M  V30 5758 H 523.853 -2.55135 4.58265 0
M  V30 5759 H 525.327 -4.04722 3.75372 0
M  V30 5760 H 525.804 -3.87563 2.06619 0
M  V30 5761 H 526.41 -2.71703 3.27196 0
M  V30 5762 N 524.725 -1.39134 -0.740242 0
M  V30 5763 C 525.953 -1.39334 -1.5295 0
M  V30 5764 C 526.368 0.0135008 -1.88795 0
M  V30 5765 O 525.725 0.983524 -1.5373 0
M  V30 5766 C 525.776 -2.2614 -2.82034 0
M  V30 5767 O 525.497 -3.61345 -2.47712 0
M  V30 5768 C 526.998 -2.34666 -3.76094 0
M  V30 5769 H 524.218 -0.476103 -0.472828 0
M  V30 5770 H 526.762 -1.82883 -0.9151 0
M  V30 5771 H 524.917 -1.86018 -3.39818 0
M  V30 5772 H 525.331 -4.07194 -3.30595 0
M  V30 5773 H 526.805 -2.99663 -4.63579 0
M  V30 5774 H 527.282 -1.36426 -4.17474 0
M  V30 5775 H 527.888 -2.75236 -3.2423 0
M  V30 5776 N 526.204 0.969867 -1.24223 0
M  V30 5777 C 527.45 1.7151 -1.08223 0
M  V30 5778 C 527.783 1.90478 0.37838 0
M  V30 5779 O 527.058 1.4647 1.27971 0
M  V30 5780 C 527.341 3.10714 -1.82013 0
M  V30 5781 C 527.194 2.9925 -3.35811 0
M  V30 5782 C 528.513 4.10332 -1.59108 0
M  V30 5783 H 525.632 0.622499 -0.394543 0
M  V30 5784 H 528.274 1.1284 -1.52863 0
M  V30 5785 H 526.424 3.608 -1.44068 0
M  V30 5786 H 528.096 2.56608 -3.83341 0
M  V30 5787 H 526.339 2.35512 -3.64303 0
M  V30 5788 H 527.01 3.97857 -3.82641 0
M  V30 5789 H 529.486 3.69097 -1.92111 0
M  V30 5790 H 528.362 5.05804 -2.13198 0
M  V30 5791 H 528.623 4.38926 -0.528832 0
M  V30 5792 N 527.682 1.05563 1.17022 0
M  V30 5793 C 528.592 0.670758 2.24807 0
M  V30 5794 C 529.608 -0.309865 1.71219 0
M  V30 5795 O 530.784 -0.161025 2.00755 0
M  V30 5796 C 527.849 0.055337 3.46656 0
M  V30 5797 C 526.91 1.08688 4.15314 0
M  V30 5798 C 526.143 0.500736 5.31346 0
M  V30 5799 O 526.366 -0.688718 5.66227 0
M  V30 5800 O 525.3 1.23683 5.89055 0
M  V30 5801 H 529.126 1.56914 2.60023 0
M  V30 5802 H 526.711 0.827428 1.24395 0
M  V30 5803 H 528.593 -0.286492 4.20425 0
M  V30 5804 H 527.268 -0.816638 3.13229 0
M  V30 5805 H 526.175 1.48077 3.43546 0
M  V30 5806 H 527.508 1.93014 4.52777 0
M  V30 5807 N 529.16 -1.33526 0.837174 0
M  V30 5808 C 530.07 -2.33023 0.271568 0
M  V30 5809 C 531.086 -1.63272 -0.601514 0
M  V30 5810 O 532.262 -1.94939 -0.506038 0
M  V30 5811 C 529.327 -3.42382 -0.545448 0
M  V30 5812 C 528.388 -4.27857 0.351709 0
M  V30 5813 C 527.621 -5.31994 -0.426409 0
M  V30 5814 O 527.844 -5.45763 -1.65828 0
M  V30 5815 O 526.778 -6.01572 0.1987 0
M  V30 5816 H 530.604 -2.83256 1.09545 0
M  V30 5817 H 528.189 -1.36837 0.599655 0
M  V30 5818 H 530.071 -4.09122 -1.00979 0
M  V30 5819 H 528.746 -2.94369 -1.34641 0
M  V30 5820 H 527.653 -3.6399 0.863853 0
M  V30 5821 H 528.986 -4.79349 1.1174 0
M  V30 5822 N 530.638 -0.59345 -1.46 0
M  V30 5823 C 532.054 -0.255965 -1.57534 0
M  V30 5824 C 532.254 1.24167 -1.58697 0
M  V30 5825 O 531.31 2.02398 -1.50968 0
M  V30 5826 C 532.623 -0.91466 -2.86451 0
M  V30 5827 C 534.171 -0.889253 -3.00102 0
M  V30 5828 C 534.646 -1.52769 -4.3177 0
M  V30 5829 N 536.137 -1.49253 -4.38495 0
M  V30 5830 C 536.872 -1.9558 -5.39014 0
M  V30 5831 N 536.368 -2.49929 -6.46148 0
M  V30 5832 N 538.161 -1.86432 -5.30282 0
M  V30 5833 H 530.312 -1.56604 -1.43489 0
M  V30 5834 H 532.575 -0.655207 -0.685133 0
M  V30 5835 H 532.281 -1.96861 -2.91442 0
M  V30 5836 H 532.155 -0.429356 -3.74748 0
M  V30 5837 H 534.542 0.156111 -2.94687 0
M  V30 5838 H 534.623 -1.41268 -2.13253 0
M  V30 5839 H 534.267 -2.57231 -4.37944 0
M  V30 5840 H 534.197 -0.979398 -5.17412 0
M  V30 5841 H 536.688 -1.09536 -3.61677 0
M  V30 5842 H 537.001 -2.83109 -7.19075 0
M  V30 5843 H 535.346 -2.53961 -6.46938 0
M  V30 5844 H 538.537 -1.43722 -4.4549 0
M  V30 5845 H 538.71 -2.22852 -6.08474 0
M  V30 5846 N 532.116 1.54067 -0.331816 0
M  V30 5847 C 533.063 2.24623 0.530372 0
M  V30 5848 C 534.033 1.24009 1.10503 0
M  V30 5849 O 535.218 1.52712 1.14384 0
M  V30 5850 C 532.358 3.01374 1.68129 0
M  V30 5851 C 531.471 4.16821 1.13507 0
M  V30 5852 C 530.606 4.81085 2.25234 0
M  V30 5853 C 529.645 5.88621 1.67903 0
M  V30 5854 N 528.782 6.46713 2.73326 0
M  V30 5855 H 533.622 2.97898 -0.0778607 0
M  V30 5856 H 531.159 1.47014 -0.0501965 0
M  V30 5857 H 533.117 3.44125 2.35868 0
M  V30 5858 H 531.747 2.30419 2.26069 0
M  V30 5859 H 530.799 3.78796 0.348979 0
M  V30 5860 H 532.111 4.94203 0.675633 0
M  V30 5861 H 531.265 5.26846 3.00862 0
M  V30 5862 H 530.004 4.03102 2.74518 0
M  V30 5863 H 529.009 5.42254 0.907773 0
M  V30 5864 H 530.234 6.68506 1.19487 0
M  V30 5865 H 528.18 5.71599 3.21886 0
M  V30 5866 H 528.097 7.19532 2.3197 0
M  V30 5867 H 529.365 6.97129 3.48758 0
M  V30 5868 N 533.594 0.0601682 1.57485 0
M  V30 5869 C 534.526 -0.94047 2.09016 0
M  V30 5870 C 535.539 -1.26897 1.01985 0
M  V30 5871 O 536.728 -1.22819 1.29529 0
M  V30 5872 C 533.828 -2.25955 2.52582 0
M  V30 5873 C 533.001 -2.11163 3.83052 0
M  V30 5874 C 532.06 -3.26273 4.12835 0
M  V30 5875 O 531.086 -3.01779 4.82616 0
M  V30 5876 N 532.288 -4.51022 3.65458 0
M  V30 5877 H 535.053 -0.500578 2.9549 0
M  V30 5878 H 532.614 -0.125852 1.6141 0
M  V30 5879 H 534.606 -3.01846 2.69575 0
M  V30 5880 H 533.176 -2.61481 1.71308 0
M  V30 5881 H 532.396 -1.19808 3.75552 0
M  V30 5882 H 533.684 -1.98517 4.68475 0
M  V30 5883 H 533.082 -4.73811 3.09062 0
M  V30 5884 H 531.639 -5.23978 3.87673 0
M  V30 5885 N 535.072 -1.5615 -0.213296 0
M  V30 5886 C 536.319 -1.79546 -0.936462 0
M  V30 5887 C 536.647 -0.630337 -1.84003 0
M  V30 5888 O 535.902 0.384883 -1.91878 0
M  V30 5889 C 536.201 -3.08772 -1.79985 0
M  V30 5890 C 535.867 -4.38532 -1.04882 0
M  V30 5891 C 534.529 -4.73787 -0.841393 0
M  V30 5892 C 536.881 -5.18609 -0.51907 0
M  V30 5893 C 534.209 -5.86627 -0.0924403 0
M  V30 5894 C 536.561 -6.32229 0.216581 0
M  V30 5895 C 535.225 -6.6608 0.435191 0
M  V30 5896 H 534.495 -0.657004 -0.342676 0
M  V30 5897 H 537.142 -1.9041 -0.204051 0
M  V30 5898 H 535.447 -2.93065 -2.60038 0
M  V30 5899 H 537.144 -3.24077 -2.36168 0
M  V30 5900 H 533.734 -4.10855 -1.22048 0
M  V30 5901 H 537.918 -4.91801 -0.666775 0
M  V30 5902 H 533.174 -6.11338 0.087081 0
M  V30 5903 H 537.348 -6.93503 0.634538 0
M  V30 5904 H 534.975 -7.5336 1.01746 0
M  V30 5905 N 536.55 0.480323 -1.50102 0
M  V30 5906 C 537.497 1.57946 -1.6829 0
M  V30 5907 C 538.467 1.57611 -0.524223 0
M  V30 5908 O 539.652 1.75282 -0.753709 0
M  V30 5909 C 536.792 2.95978 -1.77457 0
M  V30 5910 C 535.905 3.06173 -3.04766 0
M  V30 5911 C 535.04 4.35063 -3.04784 0
M  V30 5912 C 534.079 4.38966 -4.26586 0
M  V30 5913 N 533.216 5.59314 -4.24396 0
M  V30 5914 H 538.056 1.41743 -2.62131 0
M  V30 5915 H 535.593 0.689304 -1.2995 0
M  V30 5916 H 537.551 3.76011 -1.80752 0
M  V30 5917 H 536.181 3.10837 -0.870637 0
M  V30 5918 H 535.233 2.19071 -3.10986 0
M  V30 5919 H 536.545 3.04916 -3.9475 0
M  V30 5920 H 535.699 5.23436 -3.06757 0
M  V30 5921 H 534.438 4.38915 -2.12614 0
M  V30 5922 H 533.443 3.48992 -4.24835 0
M  V30 5923 H 534.668 4.36813 -5.19972 0
M  V30 5924 H 532.614 5.63969 -3.35074 0
M  V30 5925 H 532.531 5.5976 -5.08138 0
M  V30 5926 H 533.799 6.49837 -4.30502 0
M  V30 5927 N 538.028 1.39524 0.732853 0
M  V30 5928 C 538.975 1.38416 1.84688 0
M  V30 5929 C 539.945 0.243539 1.64305 0
M  V30 5930 O 541.13 0.438979 1.85681 0
M  V30 5931 C 538.27 1.23555 3.22224 0
M  V30 5932 C 537.383 2.47179 3.54298 0
M  V30 5933 C 536.518 2.2489 4.81246 0
M  V30 5934 C 535.557 3.44178 5.0617 0
M  V30 5935 N 534.694 3.21192 6.24323 0
M  V30 5936 H 539.534 2.33645 1.84971 0
M  V30 5937 H 537.071 1.16059 0.903804 0
M  V30 5938 H 539.029 1.12949 4.0162 0
M  V30 5939 H 537.659 0.31954 3.21215 0
M  V30 5940 H 536.711 2.68379 2.69587 0
M  V30 5941 H 538.023 3.36022 3.68633 0
M  V30 5942 H 537.177 2.11538 5.68627 0
M  V30 5943 H 535.916 1.33443 4.69089 0
M  V30 5944 H 534.921 3.58025 4.17251 0
M  V30 5945 H 536.146 4.36528 5.20212 0
M  V30 5946 H 534.092 2.32413 6.1345 0
M  V30 5947 H 534.009 4.03594 6.39256 0
M  V30 5948 H 535.277 3.1154 7.14537 0
M  V30 5949 N 539.506 -0.963266 1.24736 0
M  V30 5950 C 540.734 -1.74166 1.11686 0
M  V30 5951 C 541.149 -1.8589 -0.330187 0
M  V30 5952 O 540.506 -1.35042 -1.2276 0
M  V30 5953 C 540.557 -3.15989 1.75595 0
M  V30 5954 O 540.278 -3.04847 3.14642 0
M  V30 5955 C 541.779 -4.10145 1.68213 0
M  V30 5956 H 538.999 -0.546031 0.389989 0
M  V30 5957 H 541.543 -1.20907 1.64929 0
M  V30 5958 H 539.698 -3.66219 1.26343 0
M  V30 5959 H 540.112 -3.9425 3.4593 0
M  V30 5960 H 541.586 -5.07299 2.17604 0
M  V30 5961 H 542.063 -4.3445 0.644208 0
M  V30 5962 H 542.669 -3.65827 2.16912 0
M  V30 5963 N 540.985 -1.06182 -1.16461 0
M  V30 5964 C 542.233 -0.776326 -1.86595 0
M  V30 5965 C 542.554 0.69921 -1.82033 0
M  V30 5966 O 541.824 1.50579 -1.2531 0
M  V30 5967 H 540.404 -0.284184 -0.690832 0
M  V30 5968 H 543.066 -1.34308 -1.41235 0
M  V30 5969 H 542.162 -1.10022 -2.92064 0
M  V30 5970 N 542.463 1.3308 -0.844243 0
M  V30 5971 C 543.41 2.29104 -0.279323 0
M  V30 5972 C 544.38 1.54577 0.607882 0
M  V30 5973 O 545.565 1.8285 0.545009 0
M  V30 5974 C 542.705 3.40927 0.53508 0
M  V30 5975 C 541.818 4.30354 -0.376749 0
M  V30 5976 C 540.953 5.29297 0.449276 0
M  V30 5977 C 539.992 6.10365 -0.460606 0
M  V30 5978 N 539.129 7.01335 0.327612 0
M  V30 5979 H 543.969 2.76817 -1.10346 0
M  V30 5980 H 541.506 1.36203 -0.555611 0
M  V30 5981 H 543.464 4.04469 1.02278 0
M  V30 5982 H 542.094 2.94391 1.32414 0
M  V30 5983 H 541.146 3.67485 -0.982791 0
M  V30 5984 H 542.458 4.87067 -1.07549 0
M  V30 5985 H 541.612 5.98392 1.00058 0
M  V30 5986 H 540.351 4.73174 1.18143 0
M  V30 5987 H 539.356 5.40182 -1.02388 0
M  V30 5988 H 540.581 6.68571 -1.1912 0
M  V30 5989 H 538.527 6.47655 1.04305 0
M  V30 5990 H 538.444 7.55355 -0.3123 0
M  V30 5991 H 539.712 7.74731 0.86098 0
M  V30 5992 N 543.941 0.601185 1.45683 0
M  V30 5993 C 545.19 0.0914953 2.01492 0
M  V30 5994 C 545.503 -1.28331 1.47616 0
M  V30 5995 O 546.709 -1.88537 1.95362 0
M  V30 5996 C 545.165 0.11291 3.59723 0
M  V30 5997 C 544.773 1.48717 4.22596 0
M  V30 5998 C 546.517 -0.341871 4.23121 0
M  V30 5999 C 544.424 1.46531 5.7296 0
M  V30 6000 H 543.354 0.0304365 0.753385 0
M  V30 6001 H 546.005 0.755568 1.67223 0
M  V30 6002 H 544.387 -0.617692 3.91153 0
M  V30 6003 H 545.561 2.23897 4.02749 0
M  V30 6004 H 543.876 1.88351 3.71366 0
M  V30 6005 H 546.473 -0.377304 5.33367 0
M  V30 6006 H 546.816 -1.36325 3.93346 0
M  V30 6007 H 547.349 0.335256 3.96385 0
M  V30 6008 H 544.088 2.46408 6.07423 0
M  V30 6009 H 543.608 0.755997 5.95017 0
M  V30 6010 H 545.287 1.18618 6.36034 0
M  V30 6011 N 545.419 -1.53889 0.339982 0
M  V30 6012 C 546.644 -2.05741 -0.261798 0
M  V30 6013 C 547.069 -1.21354 -1.43718 0
M  V30 6014 O 546.427 -0.22645 -1.7988 0
M  V30 6015 C 546.475 -3.54542 -0.658228 0
M  V30 6016 O 545.579 -3.7302 -1.75869 0
M  V30 6017 H 544.92 -0.662529 -0.0441672 0
M  V30 6018 H 547.45 -1.98568 0.493161 0
M  V30 6019 H 547.46 -3.9711 -0.936368 0
M  V30 6020 H 546.135 -4.15412 0.201358 0
M  V30 6021 H 544.712 -3.42355 -1.47809 0
M  V30 6022 N 546.897 -0.0685191 -1.57451 0
M  V30 6023 C 548.313 0.288101 -1.56978 0
M  V30 6024 C 548.513 1.70262 -1.07765 0
M  V30 6025 O 547.569 2.4135 -0.742054 0
M  V30 6026 C 548.882 0.100745 -3.00531 0
M  V30 6027 C 550.43 0.170531 -3.12535 0
M  V30 6028 C 550.905 0.0114944 -4.57999 0
M  V30 6029 N 552.396 0.0672065 -4.63151 0
M  V30 6030 C 553.131 -0.0314813 -5.73391 0
M  V30 6031 N 552.627 -0.183503 -6.92557 0
M  V30 6032 N 554.42 0.0253489 -5.62094 0
M  V30 6033 H 546.571 -0.993026 -1.87757 0
M  V30 6034 H 548.834 -0.386981 -0.865419 0
M  V30 6035 H 548.54 -0.875197 -3.40636 0
M  V30 6036 H 548.414 0.854457 -3.67395 0
M  V30 6037 H 550.801 1.13696 -2.72318 0
M  V30 6038 H 550.882 -0.614229 -2.48316 0
M  V30 6039 H 550.526 -0.951684 -4.98904 0
M  V30 6040 H 550.456 0.815617 -5.20245 0
M  V30 6041 H 552.947 0.183246 -3.77455 0
M  V30 6042 H 553.26 -0.251041 -7.72392 0
M  V30 6043 H 551.605 -0.218822 -6.94655 0
M  V30 6044 H 554.796 0.142794 -4.67882 0
M  V30 6045 H 554.969 -0.0550166 -6.47977 0
M  V30 6046 N 548.375 1.56261 0.205012 0
M  V30 6047 C 549.308 1.88797 1.28183 0
M  V30 6048 C 550.286 0.747018 1.44424 0
M  V30 6049 O 551.47 0.997039 1.59973 0
M  V30 6050 C 548.597 2.10949 2.64987 0
M  V30 6051 C 547.643 3.33649 2.6567 0
M  V30 6052 S 548.476 4.89078 2.18088 0
M  V30 6053 C 549.632 5.14286 3.56736 0
M  V30 6054 H 549.865 2.79837 1.00393 0
M  V30 6055 H 547.398 1.48911 0.408042 0
M  V30 6056 H 549.356 2.24395 3.4374 0
M  V30 6057 H 548.017 1.20678 2.89993 0
M  V30 6058 H 547.21 3.46245 3.66239 0
M  V30 6059 H 546.812 3.19146 1.94992 0
M  V30 6060 H 549.104 5.04198 4.52537 0
M  V30 6061 H 550.047 6.16096 3.49043 0
M  V30 6062 H 550.455 4.41957 3.51189 0
M  V30 6063 N 549.853 -0.472356 1.50355 0
M  V30 6064 C 551.083 -1.24603 1.64796 0
M  V30 6065 C 551.491 -1.86297 0.330156 0
M  V30 6066 O 550.834 -1.69934 -0.697728 0
M  V30 6067 C 550.896 -2.39578 2.68035 0
M  V30 6068 C 550.56 -1.98531 4.11624 0
M  V30 6069 C 551.557 -1.50856 4.97532 0
M  V30 6070 C 549.242 -2.0729 4.57532 0
M  V30 6071 C 551.236 -1.12481 6.27397 0
M  V30 6072 C 548.923 -1.68527 5.87403 0
M  V30 6073 C 549.921 -1.212 6.7216 0
M  V30 6074 O 549.609 -0.829728 7.99607 0
M  V30 6075 H 549.341 -0.383035 0.55701 0
M  V30 6076 H 551.895 -0.570392 1.97321 0
M  V30 6077 H 550.125 -3.10309 2.30749 0
M  V30 6078 H 551.814 -3.01544 2.71709 0
M  V30 6079 H 552.58 -1.43511 4.63281 0
M  V30 6080 H 548.459 -2.43076 3.91708 0
M  V30 6081 H 552.003 -0.754698 6.93506 0
M  V30 6082 H 547.9 -1.7553 6.21176 0
M  V30 6083 H 548.668 -0.958689 8.12866 0
M  V30 6084 N 551.331 -1.39911 -0.725443 0
M  V30 6085 C 552.279 -1.39552 -1.86086 0
M  V30 6086 C 553.273 -0.277334 -1.67114 0
M  V30 6087 O 554.479 -0.447865 -1.74339 0
M  V30 6088 H 550.854 -0.435993 -0.612711 0
M  V30 6089 H 552.825 -2.35305 -1.83505 0
M  V30 6090 C 551.574 -1.26529 -3.2386 0
M  V30 6091 H 550.897 -2.11845 -3.3906 0
M  V30 6092 H 552.337 -1.30336 -4.03471 0
M  V30 6093 C 550.796 0.0254168 -3.3689 0
M  V30 6094 O 551.326 0.992048 -3.89257 0
M  V30 6095 N 549.532 0.0916528 -2.90455 0
M  V30 6096 H 549.079 -0.695675 -2.48028 0
M  V30 6097 H 549.037 0.954745 -2.99553 0
M  V30 6098 N 552.809 0.956637 -1.25245 0
M  V30 6099 C 554.058 1.69537 -1.0927 0
M  V30 6100 C 554.371 1.92136 0.366503 0
M  V30 6101 O 555.577 2.63687 0.64665 0
M  V30 6102 C 554.033 3.05211 -1.9072 0
M  V30 6103 C 553.641 2.90416 -3.41119 0
M  V30 6104 C 555.385 3.82882 -1.83308 0
M  V30 6105 C 553.292 4.21468 -4.14872 0
M  V30 6106 H 552.222 0.635804 -0.405302 0
M  V30 6107 H 554.873 1.06513 -1.49423 0
M  V30 6108 H 553.255 3.69128 -1.43389 0
M  V30 6109 H 554.429 2.35444 -3.9611 0
M  V30 6110 H 552.744 2.26203 -3.49602 0
M  V30 6111 H 555.341 4.79944 -2.35706 0
M  V30 6112 H 555.684 4.0853 -0.800572 0
M  V30 6113 H 556.217 3.25711 -2.28379 0
M  V30 6114 H 552.956 4.01009 -5.18529 0
M  V30 6115 H 552.476 4.76213 -3.64665 0
M  V30 6116 H 554.155 4.90022 -4.22478 0
M  V30 6117 N 554.287 1.06798 1.15896 0
M  V30 6118 C 555.564 0.701057 1.82605 0
M  V30 6119 C 555.944 -0.817066 1.94646 0
M  V30 6120 O 555.292 -1.72933 1.49353 0
M  V30 6121 C 555.502 1.40895 3.19296 0
M  V30 6122 C 556.85 1.55744 3.95005 0
M  V30 6123 O 557.874 1.36927 3.28831 0
M  V30 6124 O 556.733 1.86658 5.13635 0
M  V30 6125 H 553.827 0.248791 0.78869 0
M  V30 6126 H 556.373 1.16857 1.23055 0
M  V30 6127 H 555.145 2.4439 3.05596 0
M  V30 6128 H 554.768 0.931847 3.86526 0
M  V30 6129 N 555.766 -1.3263 0.851289 0
M  V30 6130 C 556.729 -2.27247 0.298541 0
M  V30 6131 C 557.729 -1.51467 -0.539847 0
M  V30 6132 O 558.919 -1.7061 -0.351843 0
M  V30 6133 C 556.051 -3.35964 -0.578004 0
M  V30 6134 H 557.244 -2.7765 1.13359 0
M  V30 6135 H 554.797 -1.43245 0.625354 0
M  V30 6136 H 555.532 -2.90823 -1.435 0
M  V30 6137 H 555.317 -3.92094 0.0220539 0
M  V30 6138 H 556.807 -4.06472 -0.957626 0
M  V30 6139 N 557.244 -0.608902 -1.45362 0
M  V30 6140 C 558.49 -0.104762 -2.02529 0
M  V30 6141 C 558.823 1.26191 -1.47613 0
M  V30 6142 O 558.098 1.8327 -0.65134 0
M  V30 6143 C 558.381 -0.0672661 -3.60037 0
M  V30 6144 C 558.234 -1.4647 -4.25284 0
M  V30 6145 C 559.553 0.619877 -4.35713 0
M  V30 6146 H 556.672 -0.0395438 -0.735938 0
M  V30 6147 H 559.314 -0.781126 -1.73201 0
M  V30 6148 H 557.464 0.50871 -3.85155 0
M  V30 6149 H 559.136 -2.08785 -4.11347 0
M  V30 6150 H 557.379 -2.02502 -3.83634 0
M  V30 6151 H 558.05 -1.39069 -5.34195 0
M  V30 6152 H 560.526 0.130297 -4.15896 0
M  V30 6153 H 559.402 0.615224 -5.45441 0
M  V30 6154 H 559.663 1.68621 -4.0868 0
M  V30 6155 N 558.722 1.53707 -0.348139 0
M  V30 6156 C 559.654 2.22725 0.540946 0
M  V30 6157 C 560.667 1.2354 1.06027 0
M  V30 6158 O 561.856 1.49867 0.96964 0
M  V30 6159 C 558.956 2.89756 1.75768 0
M  V30 6160 C 558.129 4.15297 1.37285 0
M  V30 6161 C 557.188 4.65697 2.44976 0
M  V30 6162 O 556.214 5.29798 2.08092 0
M  V30 6163 N 557.416 4.42017 3.763 0
M  V30 6164 H 560.181 2.99658 -0.0501592 0
M  V30 6165 H 557.742 1.60979 -0.17248 0
M  V30 6166 H 559.734 3.20388 2.47252 0
M  V30 6167 H 558.304 2.16382 2.25605 0
M  V30 6168 H 557.524 3.9116 0.488584 0
M  V30 6169 H 558.812 4.96948 1.09179 0
M  V30 6170 H 558.21 3.9076 4.09051 0
M  V30 6171 H 556.767 4.77242 4.4394 0
M  V30 6172 N 560.2 0.0768682 1.57412 0
M  V30 6173 C 561.163 -0.873949 2.11884 0
M  V30 6174 C 562.163 -1.22301 1.04398 0
M  V30 6175 O 563.353 -1.15545 1.30365 0
M  V30 6176 C 560.485 -2.17575 2.62438 0
M  V30 6177 H 561.678 -0.401278 2.97203 0
M  V30 6178 H 559.231 -0.171904 1.55352 0
M  V30 6179 H 559.966 -2.69368 1.80587 0
M  V30 6180 H 559.751 -1.93534 3.41009 0
M  V30 6181 H 561.241 -2.85631 3.04639 0
M  V30 6182 N 561.678 -1.56367 -0.196722 0
M  V30 6183 C 562.611 -1.89475 -1.2718 0
M  V30 6184 C 563.589 -0.754667 -1.44026 0
M  V30 6185 O 564.773 -1.00551 -1.59442 0
M  V30 6186 C 561.9 -2.12352 -2.63864 0
M  V30 6187 C 560.946 -3.35053 -2.63897 0
M  V30 6188 S 561.779 -4.90228 -2.15492 0
M  V30 6189 C 562.935 -5.16171 -3.54004 0
M  V30 6190 H 563.168 -2.80365 -0.989075 0
M  V30 6191 H 560.701 -1.49125 -0.40014 0
M  V30 6192 H 562.659 -2.26214 -3.42545 0
M  V30 6193 H 561.32 -1.22214 -2.89349 0
M  V30 6194 H 560.513 -3.48182 -3.64397 0
M  V30 6195 H 560.115 -3.20176 -1.93296 0
M  V30 6196 H 562.407 -5.06591 -4.49857 0
M  V30 6197 H 563.35 -6.17938 -3.45771 0
M  V30 6198 H 563.758 -4.43814 -3.48841 0
M  V30 6199 N 563.156 0.464375 -1.50603 0
M  V30 6200 C 564.119 1.54393 -1.69397 0
M  V30 6201 C 565.119 1.50566 -0.564504 0
M  V30 6202 O 566.309 1.53066 -0.831645 0
M  V30 6203 C 563.441 2.9401 -1.72543 0
M  V30 6204 H 564.634 1.39044 -2.65719 0
M  V30 6205 H 562.187 0.69122 -1.40185 0
M  V30 6206 H 562.922 3.14795 -0.77938 0
M  V30 6207 H 562.707 2.98195 -2.54602 0
M  V30 6208 H 564.197 3.72375 -1.89015 0
M  V30 6209 N 564.634 1.40294 0.718013 0
M  V30 6210 C 565.881 1.3844 1.47786 0
M  V30 6211 C 566.209 -0.0140838 1.94495 0
M  V30 6212 O 565.464 -0.998165 1.68331 0
M  V30 6213 C 565.763 2.31814 2.72024 0
M  V30 6214 C 565.429 3.79117 2.44093 0
M  V30 6215 C 564.091 4.19249 2.36185 0
M  V30 6216 C 566.443 4.72212 2.20602 0
M  V30 6217 C 563.771 5.50516 2.02851 0
M  V30 6218 C 566.123 6.03775 1.88781 0
M  V30 6219 C 564.787 6.42953 1.79354 0
M  V30 6220 H 564.057 0.506588 0.540786 0
M  V30 6221 H 566.704 1.72929 0.822663 0
M  V30 6222 H 565.009 1.90501 3.42369 0
M  V30 6223 H 566.706 2.27664 3.30106 0
M  V30 6224 H 563.296 3.47318 2.51133 0
M  V30 6225 H 567.48 4.42026 2.25669 0
M  V30 6226 H 562.736 5.79776 1.94088 0
M  V30 6227 H 566.91 6.75428 1.69617 0
M  V30 6228 H 564.537 7.44584 1.53291 0
M  V30 6229 N 566.112 -0.949982 1.2575 0
M  V30 6230 C 567.389 -1.6718 1.01539 0
M  V30 6231 C 567.769 -2.06095 -0.456942 0
M  V30 6232 O 567.117 -1.77792 -1.43534 0
M  V30 6233 C 567.327 -2.8906 1.95564 0
M  V30 6234 C 568.675 -3.60909 2.23673 0
M  V30 6235 O 569.699 -2.9915 1.9336 0
M  V30 6236 O 568.558 -4.72127 2.75243 0
M  V30 6237 H 565.652 -0.731697 0.385419 0
M  V30 6238 H 568.198 -1.00249 1.36924 0
M  V30 6239 H 566.97 -2.57128 2.94959 0
M  V30 6240 H 566.593 -3.63719 1.60605 0
M  V30 6241 N 567.59 -1.07411 -1.15328 0
M  V30 6242 C 568.838 -0.796073 -1.85761 0
M  V30 6243 C 569.159 0.679864 -1.82764 0
M  V30 6244 O 568.429 1.49242 -1.269 0
M  V30 6245 H 567.009 -0.291495 -0.687779 0
M  V30 6246 H 569.671 -1.35799 -1.39802 0
M  V30 6247 H 568.767 -1.13114 -2.90881 0
M  V30 6248 N 569.068 1.32177 -0.85831 0
M  V30 6249 C 570.308 1.98927 -0.469822 0
M  V30 6250 C 570.672 1.66423 0.95746 0
M  V30 6251 O 571.873 2.26293 1.45069 0
M  V30 6252 C 570.144 3.50352 -0.706288 0
M  V30 6253 S 571.703 4.36824 -0.415918 0
M  V30 6254 H 568.521 0.688909 -0.175855 0
M  V30 6255 H 571.123 1.60807 -1.11181 0
M  V30 6256 H 569.827 3.71497 -1.74407 0
M  V30 6257 H 569.358 3.93367 -0.0508568 0
M  V30 6258 H 571.373 4.90398 0.756581 0
M  V30 6259 N 570.547 0.616602 1.45037 0
M  V30 6260 C 571.777 0.121791 2.06241 0
M  V30 6261 C 572.185 -1.20289 1.46038 0
M  V30 6262 O 571.528 -1.7456 0.572242 0
M  V30 6263 C 571.59 -0.0827345 3.59405 0
M  V30 6264 C 571.254 1.16153 4.41993 0
M  V30 6265 C 572.251 2.08183 4.76399 0
M  V30 6266 C 569.936 1.39288 4.82601 0
M  V30 6267 C 571.93 3.21668 5.5028 0
M  V30 6268 C 569.617 2.53073 5.56235 0
M  V30 6269 C 570.615 3.44091 5.89992 0
M  V30 6270 O 570.303 4.55894 6.6213 0
M  V30 6271 H 570.035 0.0701667 0.672349 0
M  V30 6272 H 572.589 0.846877 1.87129 0
M  V30 6273 H 570.819 -0.862812 3.76952 0
M  V30 6274 H 572.508 -0.530273 4.02421 0
M  V30 6275 H 573.274 1.91538 4.45576 0
M  V30 6276 H 569.153 0.693396 4.55755 0
M  V30 6277 H 572.697 3.92733 5.76547 0
M  V30 6278 H 568.594 2.69667 5.86472 0
M  V30 6279 H 569.362 4.5469 6.80587 0
M  V30 6280 N 572.025 -1.5352 0.356285 0
M  V30 6281 C 572.975 -2.22204 -0.510815 0
M  V30 6282 C 573.959 -1.21393 -1.05605 0
M  V30 6283 O 575.151 -1.46883 -0.987639 0
M  V30 6284 C 572.28 -3.00786 -1.65478 0
M  V30 6285 C 571.366 -4.08965 -1.12287 0
M  V30 6286 N 571.757 -5.04829 -0.313191 0
M  V30 6287 C 570.055 -4.23505 -1.39856 0
M  V30 6288 C 570.756 -5.81695 -0.0230322 0
M  V30 6289 N 569.732 -5.40074 -0.618144 0
M  V30 6290 H 573.534 -2.93676 0.114711 0
M  V30 6291 H 571.048 -1.61572 0.163811 0
M  V30 6292 H 573.045 -3.48502 -2.28806 0
M  V30 6293 H 571.705 -2.30843 -2.28345 0
M  V30 6294 H 572.716 -5.17879 0.0468202 0
M  V30 6295 H 569.393 -3.64786 -2.0307 0
M  V30 6296 H 570.783 -6.68931 0.630927 0
M  V30 6297 N 573.503 -0.0852151 -1.57369 0
M  V30 6298 C 574.78 0.622534 -1.85429 0
M  V30 6299 C 575.16 1.86962 -0.980229 0
M  V30 6300 O 574.508 2.28445 -0.0500219 0
M  V30 6301 C 574.718 0.947374 -3.35896 0
M  V30 6302 C 576.066 1.31509 -4.03721 0
M  V30 6303 O 577.09 1.03869 -3.40719 0
M  V30 6304 O 575.949 1.83231 -5.14868 0
M  V30 6305 H 573.043 0.310513 -0.766492 0
M  V30 6306 H 575.589 -0.117164 -1.69295 0
M  V30 6307 H 574.361 0.0622264 -3.91251 0
M  V30 6308 H 573.984 1.74338 -3.5734 0
M  V30 6309 N 574.981 1.5647 0.188427 0
M  V30 6310 C 576.206 1.85486 0.927891 0
M  V30 6311 C 576.631 0.669575 1.75779 0
M  V30 6312 O 575.989 -0.381573 1.77239 0
M  V30 6313 C 576.037 3.12784 1.7944 0
M  V30 6314 O 575.141 2.93805 2.894 0
M  V30 6315 H 574.482 0.610585 0.260925 0
M  V30 6316 H 577.012 2.037 0.191729 0
M  V30 6317 H 577.022 3.43749 2.19774 0
M  V30 6318 H 575.697 3.98671 1.18468 0
M  V30 6319 H 574.274 2.74153 2.52774 0
M  V30 6320 N 576.459 -0.456382 1.50847 0
M  V30 6321 C 577.369 -1.57805 1.73594 0
M  V30 6322 C 578.385 -1.62599 0.619476 0
M  V30 6323 O 579.561 -1.80195 0.899532 0
M  V30 6324 C 576.626 -2.93926 1.8387 0
M  V30 6325 C 575.687 -2.99402 3.07663 0
M  V30 6326 C 574.92 -4.29031 3.1744 0
M  V30 6327 O 575.143 -5.20358 2.33631 0
M  V30 6328 O 574.077 -4.40401 4.10281 0
M  V30 6329 H 577.903 -1.41531 2.68705 0
M  V30 6330 H 575.488 -0.637422 1.3512 0
M  V30 6331 H 577.37 -3.74747 1.92725 0
M  V30 6332 H 576.045 -3.10368 0.91944 0
M  V30 6333 H 574.952 -2.17606 3.043 0
M  V30 6334 H 576.285 -2.87901 3.99216 0
M  V30 6335 N 577.937 -1.40673 -0.710563 0
M  V30 6336 C 579.186 -1.38525 -1.46607 0
M  V30 6337 C 579.499 0.0077024 -1.95598 0
M  V30 6338 O 580.705 0.151792 -2.71075 0
M  V30 6339 C 579.161 -2.43489 -2.6503 0
M  V30 6340 C 578.769 -3.88619 -2.22888 0
M  V30 6341 C 580.513 -2.50456 -3.42742 0
M  V30 6342 C 578.42 -4.85168 -3.3818 0
M  V30 6343 H 577.35 -0.515092 -0.550632 0
M  V30 6344 H 580.001 -1.66431 -0.772846 0
M  V30 6345 H 578.383 -2.0869 -3.36548 0
M  V30 6346 H 579.557 -4.32588 -1.58758 0
M  V30 6347 H 577.872 -3.85174 -1.58208 0
M  V30 6348 H 580.469 -3.19776 -4.28541 0
M  V30 6349 H 580.812 -1.53665 -3.86902 0
M  V30 6350 H 581.345 -2.84271 -2.78271 0
M  V30 6351 H 578.084 -5.8331 -2.99047 0
M  V30 6352 H 577.604 -4.4586 -4.01209 0
M  V30 6353 H 579.283 -5.05225 -4.04174 0
M  V30 6354 N 579.415 0.9433 -1.26252 0
M  V30 6355 C 580.692 1.66639 -1.02424 0
M  V30 6356 C 581.072 2.06335 0.446006 0
M  V30 6357 O 580.42 1.78551 1.42589 0
M  V30 6358 C 580.63 2.88019 -1.97094 0
M  V30 6359 C 581.978 3.59718 -2.25584 0
M  V30 6360 O 583.002 2.9812 -1.94943 0
M  V30 6361 O 581.861 4.7066 -2.77743 0
M  V30 6362 H 578.955 0.729643 -0.389294 0
M  V30 6363 H 581.501 0.995218 -1.37454 0
M  V30 6364 H 580.273 2.5556 -2.96319 0
M  V30 6365 H 579.896 3.62863 -1.62532 0
M  V30 6366 N 580.893 1.08022 1.14757 0
M  V30 6367 C 581.826 0.650738 2.18725 0
M  V30 6368 C 582.804 -0.335496 1.59101 0
M  V30 6369 O 583.988 -0.240295 1.86962 0
M  V30 6370 C 581.115 -0.0434377 3.38672 0
M  V30 6371 C 580.161 0.90232 4.16846 0
M  V30 6372 S 580.994 2.40693 4.78359 0
M  V30 6373 C 582.15 1.72475 6.01667 0
M  V30 6374 H 582.383 1.53152 2.54817 0
M  V30 6375 H 579.916 0.894823 1.25826 0
M  V30 6376 H 581.874 -0.437684 4.0816 0
M  V30 6377 H 580.535 -0.900659 3.0091 0
M  V30 6378 H 579.728 0.363445 5.02688 0
M  V30 6379 H 579.33 1.23728 3.52941 0
M  V30 6380 H 581.622 1.0404 6.69464 0
M  V30 6381 H 582.565 2.56175 6.60136 0
M  V30 6382 H 582.973 1.19979 5.51602 0
M  V30 6383 N 582.371 -1.3172 0.865308 0
M  V30 6384 C 583.648 -1.91574 0.394789 0
M  V30 6385 C 584.028 -1.78769 -1.12271 0
M  V30 6386 O 583.376 -1.19245 -1.94918 0
M  V30 6387 C 583.586 -3.37957 0.870982 0
M  V30 6388 C 584.934 -4.15073 0.894384 0
M  V30 6389 O 585.958 -3.4672 0.816325 0
M  V30 6390 O 584.817 -5.37151 1.00651 0
M  V30 6391 H 581.911 -0.818649 0.117229 0
M  V30 6392 H 584.457 -1.4042 0.952913 0
M  V30 6393 H 583.229 -3.41269 1.91444 0
M  V30 6394 H 582.852 -3.96534 0.290907 0
M  V30 6395 N 583.85 -0.624285 -1.44708 0
M  V30 6396 C 584.782 0.12305 -2.28869 0
M  V30 6397 C 585.795 0.81557 -1.40898 0
M  V30 6398 O 586.984 0.678162 -1.65116 0
M  V30 6399 C 584.084 1.19612 -3.1709 0
M  V30 6400 C 583.257 0.587452 -4.33437 0
M  V30 6401 C 582.316 1.55358 -5.02743 0
M  V30 6402 O 581.341 1.07338 -5.58988 0
M  V30 6403 N 582.543 2.88798 -5.03563 0
M  V30 6404 H 585.308 -0.599193 -2.93649 0
M  V30 6405 H 582.87 -0.464954 -1.5508 0
M  V30 6406 H 584.861 1.84261 -3.60319 0
M  V30 6407 H 583.432 1.82067 -2.54107 0
M  V30 6408 H 582.652 -0.237509 -3.93484 0
M  V30 6409 H 583.94 0.161326 -5.08544 0
M  V30 6410 H 583.338 3.30399 -4.59188 0
M  V30 6411 H 581.894 3.48826 -5.50603 0
M  V30 6412 N 585.328 1.53329 -0.364422 0
M  V30 6413 C 586.556 2.05657 0.226424 0
M  V30 6414 C 586.971 1.23801 1.42544 0
M  V30 6415 O 586.328 0.27839 1.80364 0
M  V30 6416 C 586.379 3.56125 0.621056 0
M  V30 6417 O 586.1 4.34879 -0.530304 0
M  V30 6418 C 587.601 4.24706 1.27041 0
M  V30 6419 H 584.821 0.669806 0.0400056 0
M  V30 6420 H 587.365 1.97714 -0.522456 0
M  V30 6421 H 585.52 3.64223 1.31985 0
M  V30 6422 H 585.934 5.24073 -0.211546 0
M  V30 6423 H 587.408 5.3131 1.49711 0
M  V30 6424 H 587.885 3.78354 2.23036 0
M  V30 6425 H 588.491 4.20858 0.613079 0
M  V30 6426 N 586.806 0.0935595 1.57322 0
M  V30 6427 C 588.031 -0.582324 1.99057 0
M  V30 6428 C 588.456 -1.61025 0.972242 0
M  V30 6429 O 587.814 -1.81202 -0.0594622 0
M  V30 6430 C 587.862 -1.20799 3.39765 0
M  V30 6431 O 586.966 -2.32382 3.40694 0
M  V30 6432 H 586.307 -0.147884 0.647323 0
M  V30 6433 H 588.837 0.174516 2.03854 0
M  V30 6434 H 588.847 -1.54966 3.77425 0
M  V30 6435 H 587.522 -0.454914 4.13405 0
M  V30 6436 H 586.099 -1.99845 3.14827 0
M  V30 6437 N 588.284 -1.56567 -0.180126 0
M  V30 6438 C 589.214 -1.98753 -1.22553 0
M  V30 6439 C 590.195 -0.86175 -1.46656 0
M  V30 6440 O 591.38 -1.12719 -1.58139 0
M  V30 6441 C 588.51 -2.33988 -2.56645 0
M  V30 6442 C 587.464 -3.49445 -2.47128 0
M  V30 6443 C 586.79 -3.70397 -3.8563 0
M  V30 6444 C 588.09 -4.83171 -1.98352 0
M  V30 6445 H 589.784 -2.86332 -0.874896 0
M  V30 6446 H 587.33 -1.37757 -0.419414 0
M  V30 6447 H 589.283 -2.62097 -3.29974 0
M  V30 6448 H 588.007 -1.43309 -2.93479 0
M  V30 6449 H 586.666 -3.2145 -1.76254 0
M  V30 6450 H 586.314 -2.77023 -4.19842 0
M  V30 6451 H 586.014 -4.48077 -3.80132 0
M  V30 6452 H 587.538 -4.00897 -4.60558 0
M  V30 6453 H 588.952 -5.10213 -2.61449 0
M  V30 6454 H 587.349 -5.64425 -2.03823 0
M  V30 6455 H 588.419 -4.75753 -0.937402 0
M  V30 6456 N 589.762 0.448376 -1.51087 0
M  V30 6457 C 590.987 1.22605 -1.6728 0
M  V30 6458 C 591.412 1.84524 -0.365045 0
M  V30 6459 O 590.77 1.6832 0.673642 0
M  V30 6460 C 590.818 2.29393 -2.78229 0
M  V30 6461 O 589.922 3.34608 -2.41063 0
M  V30 6462 H 589.263 0.359705 -0.558129 0
M  V30 6463 H 591.793 0.530903 -1.97592 0
M  V30 6464 H 591.803 2.74352 -3.01986 0
M  V30 6465 H 590.478 1.83701 -3.73131 0
M  V30 6466 H 589.055 2.95202 -2.27838 0
M  V30 6467 N 591.24 1.41047 0.703093 0
M  V30 6468 C 592.17 1.45067 1.82969 0
M  V30 6469 C 593.151 0.31016 1.67248 0
M  V30 6470 O 594.336 0.520548 1.87093 0
M  V30 6471 C 591.466 1.32478 3.2104 0
M  V30 6472 C 590.42 2.44262 3.51454 0
M  V30 6473 C 589.746 2.16742 4.88801 0
M  V30 6474 C 591.046 3.86606 3.51189 0
M  V30 6475 H 592.74 2.39353 1.79863 0
M  V30 6476 H 590.286 1.15206 0.863919 0
M  V30 6477 H 592.239 1.33904 3.99559 0
M  V30 6478 H 590.963 0.346735 3.24754 0
M  V30 6479 H 589.622 2.42107 2.75282 0
M  V30 6480 H 589.27 1.17299 4.89132 0
M  V30 6481 H 588.97 2.91643 5.10116 0
M  V30 6482 H 590.494 2.19872 5.69639 0
M  V30 6483 H 591.908 3.90517 4.19725 0
M  V30 6484 H 590.305 4.61128 3.84033 0
M  V30 6485 H 591.375 4.15296 2.50315 0
M  V30 6486 N 592.718 -0.936591 1.26751 0
M  V30 6487 C 593.666 -2.0573 1.08527 0
M  V30 6488 C 594.66 -1.69397 0.0108784 0
M  V30 6489 O 595.866 -1.79215 0.167915 0
M  V30 6490 H 592.241 -0.673691 0.334133 0
M  V30 6491 H 594.212 -2.1825 2.03493 0
M  V30 6492 C 592.961 -3.39738 0.739845 0
M  V30 6493 H 592.284 -3.68174 1.55845 0
M  V30 6494 H 593.724 -4.18955 0.652149 0
M  V30 6495 C 592.183 -3.32292 -0.555288 0
M  V30 6496 O 592.713 -3.68794 -1.59229 0
M  V30 6497 N 590.919 -2.85394 -0.54762 0
M  V30 6498 H 590.466 -2.55886 0.296667 0
M  V30 6499 H 590.424 -2.80795 -1.41427 0
M  V30 6500 N 594.196 -1.08629 -1.14182 0
M  V30 6501 C 595.421 -0.83902 -1.89671 0
M  V30 6502 C 595.846 0.603332 -1.78161 0
M  V30 6503 O 595.204 1.42301 -1.12339 0
M  V30 6504 C 595.252 -1.26854 -3.37551 0
M  V30 6505 O 594.356 -0.42188 -4.10236 0
M  V30 6506 H 593.697 -0.304545 -0.590041 0
M  V30 6507 H 596.227 -1.4483 -1.44518 0
M  V30 6508 H 596.237 -1.25038 -3.88368 0
M  V30 6509 H 594.912 -2.31901 -3.45246 0
M  V30 6510 H 593.489 -0.503654 -3.69483 0
M  V30 6511 N 595.674 1.31259 -0.872281 0
M  V30 6512 C 596.584 2.32221 -0.333255 0
M  V30 6513 C 597.6 1.6481 0.558013 0
M  V30 6514 O 598.776 1.96212 0.454175 0
M  V30 6515 C 595.841 3.43708 0.454479 0
M  V30 6516 C 594.902 4.26774 -0.465024 0
M  V30 6517 C 594.135 5.32937 0.28521 0
M  V30 6518 O 594.358 5.49968 1.513 0
M  V30 6519 O 593.292 6.00834 -0.358126 0
M  V30 6520 H 597.118 2.80252 -1.17016 0
M  V30 6521 H 594.703 1.352 -0.635724 0
M  V30 6522 H 596.585 4.11656 0.900963 0
M  V30 6523 H 595.26 2.97836 1.26789 0
M  V30 6524 H 594.167 3.61571 -0.960055 0
M  V30 6525 H 595.5 4.76217 -1.2441 0
M  V30 6526 N 597.152 0.631951 1.44375 0
M  V30 6527 C 598.429 0.067646 1.95483 0
M  V30 6528 C 598.809 -1.40683 1.57389 0
M  V30 6529 O 598.157 -2.12167 0.848375 0
M  V30 6530 C 598.367 0.291392 3.47781 0
M  V30 6531 C 599.715 0.185028 4.24197 0
M  V30 6532 O 600.739 0.222803 3.55503 0
M  V30 6533 O 599.598 0.0906642 5.46425 0
M  V30 6534 H 596.692 -0.0218379 0.826712 0
M  V30 6535 H 599.238 0.703711 1.54421 0
M  V30 6536 H 598.01 1.31449 3.68561 0
M  V30 6537 H 597.633 -0.378772 3.95792 0
M  V30 6538 N 598.631 -1.53133 0.372548 0
M  V30 6539 C 599.878 -2.01356 -0.214959 0
M  V30 6540 C 600.206 -1.2596 -1.48204 0
M  V30 6541 O 599.461 -0.343511 -1.92662 0
M  V30 6542 C 599.76 -3.53206 -0.545938 0
M  V30 6543 C 599.426 -4.46511 0.627624 0
M  V30 6544 C 598.088 -4.71737 0.949615 0
M  V30 6545 C 600.44 -5.01666 1.41353 0
M  V30 6546 C 597.768 -5.4937 2.05936 0
M  V30 6547 C 600.12 -5.80511 2.51375 0
M  V30 6548 C 598.784 -6.04022 2.84101 0
M  V30 6549 H 598.054 -0.736813 -0.078659 0
M  V30 6550 H 600.701 -1.84682 0.506447 0
M  V30 6551 H 599.006 -3.67864 -1.34845 0
M  V30 6552 H 600.703 -3.87997 -1.01287 0
M  V30 6553 H 597.293 -4.27029 0.366635 0
M  V30 6554 H 601.477 -4.82117 1.17802 0
M  V30 6555 H 596.733 -5.65803 2.31682 0
M  V30 6556 H 600.907 -6.22255 3.12684 0
M  V30 6557 H 598.534 -6.63962 3.70214 0
M  V30 6558 N 600.109 -0.101901 -1.5727 0
M  V30 6559 C 601.042 0.891377 -2.10071 0
M  V30 6560 C 602.02 1.27197 -1.01291 0
M  V30 6561 O 603.204 1.37602 -1.28833 0
M  V30 6562 C 600.331 2.19049 -2.58331 0
M  V30 6563 C 599.377 1.95925 -3.78834 0
M  V30 6564 S 600.21 1.19106 -5.22086 0
M  V30 6565 C 601.366 2.50234 -5.73702 0
M  V30 6566 H 601.599 0.442212 -2.93993 0
M  V30 6567 H 599.132 0.111529 -1.53997 0
M  V30 6568 H 601.09 2.937 -2.86793 0
M  V30 6569 H 599.751 2.61086 -1.74622 0
M  V30 6570 H 598.944 2.92143 -4.10693 0
M  V30 6571 H 598.546 1.29401 -3.50901 0
M  V30 6572 H 600.838 3.46173 -5.82384 0
M  V30 6573 H 601.781 2.22944 -6.72088 0
M  V30 6574 H 602.189 2.58818 -5.01671 0
M  V30 6575 N 601.587 1.56661 0.17182 0
M  V30 6576 C 603.003 1.50768 0.52357 0
M  V30 6577 C 603.203 0.806072 1.84675 0
M  V30 6578 O 602.259 0.366233 2.4983 0
M  V30 6579 C 603.572 2.955 0.556793 0
M  V30 6580 C 605.12 3.06303 0.644029 0
M  V30 6581 C 605.595 4.52492 0.708148 0
M  V30 6582 N 607.086 4.56737 0.771051 0
M  V30 6583 C 607.821 5.67196 0.841229 0
M  V30 6584 N 607.317 6.87287 0.872272 0
M  V30 6585 N 609.11 5.55165 0.88021 0
M  V30 6586 H 601.261 2.00679 -0.695817 0
M  V30 6587 H 603.524 0.914219 -0.250814 0
M  V30 6588 H 603.23 3.49986 -0.346774 0
M  V30 6589 H 603.104 3.50119 1.40346 0
M  V30 6590 H 605.491 2.51851 1.53802 0
M  V30 6591 H 605.572 2.5477 -0.229297 0
M  V30 6592 H 605.216 5.07575 -0.181585 0
M  V30 6593 H 605.146 5.01781 1.59761 0
M  V30 6594 H 607.637 3.70274 0.755364 0
M  V30 6595 H 607.95 7.6722 0.92698 0
M  V30 6596 H 606.295 6.89898 0.840557 0
M  V30 6597 H 609.486 4.60263 0.852956 0
M  V30 6598 H 609.659 6.41271 0.931439 0
M  V30 6599 N 603.065 -0.440357 1.51323 0
M  V30 6600 C 604.481 -0.7766 1.39431 0
M  V30 6601 C 604.681 -1.95838 0.474296 0
M  V30 6602 O 603.737 -2.52398 -0.0716692 0
M  V30 6603 C 605.05 -1.05981 2.81405 0
M  V30 6604 C 606.598 -1.16442 2.90534 0
M  V30 6605 C 607.073 -1.48058 4.33408 0
M  V30 6606 N 608.564 -1.54988 4.36501 0
M  V30 6607 C 609.299 -1.81017 5.44078 0
M  V30 6608 N 608.795 -2.04858 6.61819 0
M  V30 6609 N 610.588 -1.82774 5.31554 0
M  V30 6610 H 602.739 0.338006 2.09693 0
M  V30 6611 H 605.002 0.0888072 0.943831 0
M  V30 6612 H 604.708 -0.264173 3.50706 0
M  V30 6613 H 604.582 -1.98822 3.20546 0
M  V30 6614 H 606.969 -1.95068 2.21432 0
M  V30 6615 H 607.05 -0.215088 2.54894 0
M  V30 6616 H 606.694 -0.699605 5.03059 0
M  V30 6617 H 606.624 -2.44192 4.66559 0
M  V30 6618 H 609.115 -1.38479 3.51613 0
M  V30 6619 H 609.428 -2.2408 7.396 0
M  V30 6620 H 607.773 -2.02187 6.6494 0
M  V30 6621 H 610.964 -1.63665 4.38556 0
M  V30 6622 H 611.137 -2.02722 6.15474 0
M  V30 6623 N 604.543 -1.41418 -0.695603 0
M  V30 6624 C 605.49 -1.43264 -1.80954 0
M  V30 6625 C 606.46 -0.287016 -1.63601 0
M  V30 6626 O 607.645 -0.488054 -1.84452 0
M  V30 6627 C 604.785 -1.32054 -3.18835 0
M  V30 6628 C 603.898 -2.56485 -3.4762 0
M  V30 6629 C 603.033 -2.3757 -4.75115 0
M  V30 6630 C 602.072 -3.57477 -4.96867 0
M  V30 6631 N 601.209 -3.37632 -6.15588 0
M  V30 6632 H 606.049 -2.38467 -1.78711 0
M  V30 6633 H 603.586 -1.18415 -0.872715 0
M  V30 6634 H 605.544 -1.23558 -3.98484 0
M  V30 6635 H 604.174 -0.404592 -3.20254 0
M  V30 6636 H 603.226 -2.75432 -2.62376 0
M  V30 6637 H 604.538 -3.45678 -3.59594 0
M  V30 6638 H 603.692 -2.2654 -5.62818 0
M  V30 6639 H 602.431 -1.45834 -4.65386 0
M  V30 6640 H 601.436 -3.68961 -4.07612 0
M  V30 6641 H 602.661 -4.50167 -5.08455 0
M  V30 6642 H 600.607 -2.48596 -6.07072 0
M  V30 6643 H 600.524 -4.20401 -6.2833 0
M  V30 6644 H 601.792 -3.30375 -7.06026 0
M  V30 6645 N 606.021 0.929856 -1.27246 0
M  V30 6646 C 607.246 1.71674 -1.16374 0
M  V30 6647 C 607.671 1.86064 0.276024 0
M  V30 6648 O 607.029 1.3591 1.19992 0
M  V30 6649 C 607.077 3.09526 -1.85003 0
M  V30 6650 O 606.181 3.96142 -1.14653 0
M  V30 6651 H 605.522 0.52629 -0.404863 0
M  V30 6652 H 608.052 1.16381 -1.68276 0
M  V30 6653 H 608.062 3.59852 -1.92276 0
M  V30 6654 H 606.737 2.98369 -2.89739 0
M  V30 6655 H 605.314 3.54584 -1.15433 0
M  V30 6656 N 607.499 1.09233 1.13605 0
M  V30 6657 C 608.748 0.82205 1.84188 0
M  V30 6658 C 609.061 -0.654548 1.84323 0
M  V30 6659 O 610.267 -1.04029 2.50779 0
M  V30 6660 C 608.723 1.42066 3.30674 0
M  V30 6661 C 608.331 2.92965 3.38933 0
M  V30 6662 C 610.075 1.22924 4.06313 0
M  V30 6663 C 607.982 3.45922 4.79679 0
M  V30 6664 H 606.912 0.303854 0.690064 0
M  V30 6665 H 609.563 1.31479 1.28006 0
M  V30 6666 H 607.945 0.855613 3.86646 0
M  V30 6667 H 609.119 3.55679 2.92966 0
M  V30 6668 H 607.434 3.11118 2.76757 0
M  V30 6669 H 610.031 1.59945 5.10217 0
M  V30 6670 H 610.374 0.169726 4.15954 0
M  V30 6671 H 610.907 1.76168 3.56665 0
M  V30 6672 H 607.646 4.51484 4.75229 0
M  V30 6673 H 607.166 2.87971 5.26149 0
M  V30 6674 H 608.845 3.43009 5.48592 0
M  V30 6675 N 608.977 -1.30795 0.87923 0
M  V30 6676 C 610.217 -1.98155 0.50141 0
M  V30 6677 C 610.581 -1.67925 -0.930863 0
M  V30 6678 O 611.782 -2.28572 -1.41451 0
M  V30 6679 C 610.053 -3.49184 0.761937 0
M  V30 6680 S 611.612 -4.36107 0.485361 0
M  V30 6681 H 608.43 -0.686025 0.186792 0
M  V30 6682 H 611.032 -1.59018 1.13726 0
M  V30 6683 H 609.736 -3.68676 1.80295 0
M  V30 6684 H 609.267 -3.93236 0.113432 0
M  V30 6685 H 611.282 -4.9154 -0.678467 0
M  V30 6686 N 610.455 -0.639598 -1.44038 0
M  V30 6687 C 611.68 -0.153117 -2.06834 0
M  V30 6688 C 612.105 1.16676 -1.47541 0
M  V30 6689 O 611.463 1.71769 -0.580093 0
M  V30 6690 C 611.511 -0.0609169 -3.60549 0
M  V30 6691 O 610.615 0.98071 -4.00569 0
M  V30 6692 H 609.956 -0.0886402 -0.658057 0
M  V30 6693 H 612.486 -0.878674 -1.84771 0
M  V30 6694 H 612.496 0.126892 -4.07803 0
M  V30 6695 H 611.171 -1.0245 -4.03084 0
M  V30 6696 H 609.748 0.766789 -3.64931 0
M  V30 6697 N 611.933 1.52934 -0.380664 0
M  V30 6698 C 613.344 1.86457 0.0952684 0
M  V30 6699 C 613.695 1.3007 1.46889 0
M  V30 6700 O 612.82 0.628636 2.07068 0
M  V30 6701 C 613.415 3.38323 0.179648 0
M  V30 6702 C 611.974 3.71589 0.599858 0
M  V30 6703 C 611.121 2.76228 -0.243572 0
M  V30 6704 H 614.072 1.46966 -0.59888 0
M  V30 6705 H 614.093 3.67113 1.00042 0
M  V30 6706 H 613.605 3.79333 -0.820228 0
M  V30 6707 H 611.706 3.36144 1.60742 0
M  V30 6708 H 611.819 4.77715 0.364003 0
M  V30 6709 H 610.183 2.53045 0.289855 0
M  V30 6710 H 610.966 3.20074 -1.24127 0
M  V30 6711 N 613.412 0.11024 1.57214 0
M  V30 6712 C 614.637 -0.561179 1.99664 0
M  V30 6713 C 615.062 -1.59985 0.989266 0
M  V30 6714 O 614.42 -1.81255 -0.0402399 0
M  V30 6715 C 614.468 -1.17189 3.41027 0
M  V30 6716 O 613.572 -2.28755 3.4314 0
M  V30 6717 H 612.913 -0.14101 0.648855 0
M  V30 6718 H 615.443 0.196128 2.03658 0
M  V30 6719 H 615.453 -1.50954 3.79047 0
M  V30 6720 H 614.128 -0.411041 4.13864 0
M  V30 6721 H 612.705 -1.96495 3.16929 0
M  V30 6722 N 614.89 -1.56749 -0.16351 0
M  V30 6723 C 616.118 -1.86577 -0.894233 0
M  V30 6724 C 616.533 -0.696543 -1.75481 0
M  V30 6725 O 615.89 0.334161 -1.79415 0
M  V30 6726 C 615.941 -3.15508 -1.76456 0
M  V30 6727 O 615.662 -4.27926 -0.938685 0
M  V30 6728 C 617.163 -3.58737 -2.60428 0
M  V30 6729 H 614.383 -0.618829 -0.259405 0
M  V30 6730 H 616.927 -2.03863 -0.161259 0
M  V30 6731 H 615.082 -3.00025 -2.45079 0
M  V30 6732 H 615.496 -5.01546 -1.53465 0
M  V30 6733 H 616.97 -4.51832 -3.17099 0
M  V30 6734 H 617.447 -2.83229 -3.35675 0
M  V30 6735 H 618.053 -3.76858 -1.97125 0
M  V30 6736 N 616.368 0.432326 -1.51554 0
M  V30 6737 C 617.645 1.19288 -1.55015 0
M  V30 6738 C 618.025 2.08701 -0.317375 0
M  V30 6739 O 617.373 2.17602 0.697243 0
M  V30 6740 C 617.583 1.99037 -2.86679 0
M  V30 6741 C 618.931 2.55907 -3.38817 0
M  V30 6742 O 619.955 2.09243 -2.88263 0
M  V30 6743 O 618.814 3.41029 -4.27038 0
M  V30 6744 H 615.908 0.543369 -0.623441 0
M  V30 6745 H 618.454 0.440988 -1.6387 0
M  V30 6746 H 617.226 1.33397 -3.6786 0
M  V30 6747 H 616.849 2.81281 -2.8101 0
M  V30 6748 N 617.846 1.41785 0.688094 0
M  V30 6749 C 619.071 1.45117 1.48175 0
M  V30 6750 C 619.496 0.060129 1.88004 0
M  V30 6751 O 618.854 -0.938385 1.55126 0
M  V30 6752 C 618.902 2.37224 2.71583 0
M  V30 6753 O 618.006 1.83443 3.69354 0
M  V30 6754 H 617.347 0.492208 0.445676 0
M  V30 6755 H 619.877 1.86329 0.845145 0
M  V30 6756 H 619.887 2.53353 3.19806 0
M  V30 6757 H 618.562 3.38293 2.41931 0
M  V30 6758 H 617.139 1.76802 3.28322 0
M  V30 6759 N 619.324 -0.923095 1.27737 0
M  V30 6760 C 620.549 -1.71054 1.17283 0
M  V30 6761 C 620.974 -1.86208 -0.266153 0
M  V30 6762 O 620.332 -1.36545 -1.1927 0
M  V30 6763 C 620.38 -3.0854 1.86642 0
M  V30 6764 O 619.484 -3.95528 1.16752 0
M  V30 6765 H 618.825 -0.524136 0.407649 0
M  V30 6766 H 621.355 -1.15487 1.6889 0
M  V30 6767 H 621.365 -3.58828 1.94182 0
M  V30 6768 H 620.04 -2.96828 2.91317 0
M  V30 6769 H 618.617 -3.53967 1.17312 0
M  V30 6770 N 620.802 -1.09834 -1.13024 0
M  V30 6771 C 622.218 -0.828875 -1.36388 0
M  V30 6772 C 622.418 0.554756 -1.93713 0
M  V30 6773 O 621.474 1.30882 -2.15931 0
M  V30 6774 C 622.787 -1.92352 -2.3113 0
M  V30 6775 C 624.335 -1.95124 -2.44735 0
M  V30 6776 C 624.81 -3.03745 -3.42787 0
M  V30 6777 N 626.301 -3.03012 -3.5034 0
M  V30 6778 C 627.036 -3.83699 -4.26101 0
M  V30 6779 N 626.532 -4.74306 -5.04981 0
M  V30 6780 N 628.325 -3.71942 -4.21445 0
M  V30 6781 H 620.476 -1.99029 -0.74169 0
M  V30 6782 H 622.739 -0.864557 -0.388903 0
M  V30 6783 H 622.445 -2.91906 -1.96172 0
M  V30 6784 H 622.319 -1.80536 -3.3119 0
M  V30 6785 H 624.706 -0.962069 -2.78977 0
M  V30 6786 H 624.787 -2.11018 -1.44586 0
M  V30 6787 H 624.431 -4.02878 -3.09276 0
M  V30 6788 H 624.361 -2.85094 -4.42752 0
M  V30 6789 H 626.852 -2.37352 -2.94062 0
M  V30 6790 H 627.165 -5.32446 -5.60108 0
M  V30 6791 H 625.51 -4.78339 -5.04199 0
M  V30 6792 H 628.701 -3.00513 -3.589 0
M  V30 6793 H 628.874 -4.35062 -4.80235 0
M  V30 6794 N 622.28 1.30327 -0.886154 0
M  V30 6795 C 623.529 1.95373 -0.501243 0
M  V30 6796 C 623.842 1.70722 0.954634 0
M  V30 6797 O 625.048 2.29761 1.44644 0
M  V30 6798 C 623.504 3.49828 -0.845493 0
M  V30 6799 C 623.112 3.83296 -2.31922 0
M  V30 6800 C 624.856 4.2118 -0.529838 0
M  V30 6801 C 622.763 5.30935 -2.60504 0
M  V30 6802 H 621.693 0.731274 -0.183722 0
M  V30 6803 H 624.344 1.48258 -1.08129 0
M  V30 6804 H 622.726 3.95522 -0.19452 0
M  V30 6805 H 623.9 3.48508 -3.01461 0
M  V30 6806 H 622.215 3.2505 -2.60253 0
M  V30 6807 H 624.812 5.29825 -0.720401 0
M  V30 6808 H 625.155 4.12902 0.530828 0
M  V30 6809 H 625.688 3.81173 -1.13806 0
M  V30 6810 H 622.427 5.44265 -3.65316 0
M  V30 6811 H 621.947 5.67019 -1.95575 0
M  V30 6812 H 623.626 5.98381 -2.46066 0
M  V30 6813 N 623.758 0.647228 1.43697 0
M  V30 6814 C 624.705 -0.0480092 2.3075 0
M  V30 6815 C 625.675 -0.820705 1.44408 0
M  V30 6816 O 626.86 -0.798515 1.73287 0
M  V30 6817 C 624 -1.01259 3.2991 0
M  V30 6818 C 623.113 -0.236629 4.31351 0
M  V30 6819 C 622.248 -1.19447 5.17596 0
M  V30 6820 C 621.287 -0.408595 6.10735 0
M  V30 6821 N 620.424 -1.31772 6.89623 0
M  V30 6822 H 625.264 0.700238 2.89656 0
M  V30 6823 H 622.801 0.357082 1.427 0
M  V30 6824 H 624.759 -1.58538 3.85903 0
M  V30 6825 H 623.389 -1.72778 2.72667 0
M  V30 6826 H 622.441 0.452353 3.77701 0
M  V30 6827 H 623.753 0.374731 4.9739 0
M  V30 6828 H 622.907 -1.83809 5.78186 0
M  V30 6829 H 621.646 -1.83975 4.51669 0
M  V30 6830 H 620.651 0.24841 5.49239 0
M  V30 6831 H 621.876 0.232188 6.78703 0
M  V30 6832 H 619.822 -1.94991 6.2635 0
M  V30 6833 H 619.739 -0.760779 7.52162 0
M  V30 6834 H 621.007 -1.94967 7.54724 0
M  V30 6835 N 625.236 -1.5273 0.388769 0
M  V30 6836 C 626.652 -1.59553 0.0387049 0
M  V30 6837 C 626.852 -1.40278 -1.44652 0
M  V30 6838 O 625.908 -1.21951 -2.21098 0
M  V30 6839 C 627.221 -2.9625 0.515409 0
M  V30 6840 C 628.769 -3.09426 0.471621 0
M  V30 6841 C 629.244 -4.48572 0.924505 0
M  V30 6842 N 630.735 -4.54754 0.880496 0
M  V30 6843 C 631.47 -5.60653 1.20234 0
M  V30 6844 N 630.966 -6.74198 1.59463 0
M  V30 6845 N 632.759 -5.50755 1.12363 0
M  V30 6846 H 624.91 -1.63508 1.35569 0
M  V30 6847 H 627.173 -0.768097 0.555636 0
M  V30 6848 H 626.879 -3.15569 1.5527 0
M  V30 6849 H 626.753 -3.77102 -0.085792 0
M  V30 6850 H 629.14 -2.89804 -0.556588 0
M  V30 6851 H 629.221 -2.30528 1.10862 0
M  V30 6852 H 628.865 -4.68936 1.95094 0
M  V30 6853 H 628.795 -5.25935 0.264524 0
M  V30 6854 H 631.286 -3.73237 0.591815 0
M  V30 6855 H 631.599 -7.5097 1.82385 0
M  V30 6856 H 629.944 -6.75531 1.63349 0
M  V30 6857 H 633.135 -4.6093 0.816169 0
M  V30 6858 H 633.308 -6.33184 1.37777 0
M  V30 6859 N 626.714 -0.118576 -1.57153 0
M  V30 6860 C 628.13 0.238014 -1.57815 0
M  V30 6861 C 628.33 1.66747 -1.13127 0
M  V30 6862 O 627.386 2.38867 -0.818462 0
M  V30 6863 C 628.699 0.00508207 -3.007 0
M  V30 6864 C 630.247 0.0710139 -3.12919 0
M  V30 6865 C 630.722 -0.13422 -4.57803 0
M  V30 6866 N 632.213 -0.0801755 -4.63131 0
M  V30 6867 C 632.948 -0.213885 -5.73001 0
M  V30 6868 N 632.444 -0.403742 -6.91623 0
M  V30 6869 N 634.237 -0.15349 -5.6189 0
M  V30 6870 H 626.388 -1.05226 -1.84503 0
M  V30 6871 H 628.651 -0.414318 -0.852669 0
M  V30 6872 H 628.357 -0.983125 -3.3768 0
M  V30 6873 H 628.231 0.73714 -3.69927 0
M  V30 6874 H 630.618 1.04975 -2.75798 0
M  V30 6875 H 630.699 -0.692918 -2.46236 0
M  V30 6876 H 630.343 -1.10992 -4.95624 0
M  V30 6877 H 630.273 0.649692 -5.22577 0
M  V30 6878 H 632.764 0.0630689 -3.77847 0
M  V30 6879 H 633.077 -0.496645 -7.71202 0
M  V30 6880 H 631.422 -0.43971 -6.93608 0
M  V30 6881 H 634.613 -0.00613174 -4.681 0
M  V30 6882 H 634.786 -0.261138 -6.47474 0
M  V30 6883 N 628.193 1.56834 0.155195 0
M  V30 6884 C 629.14 1.97646 1.19184 0
M  V30 6885 C 630.11 0.842788 1.4313 0
M  V30 6886 O 631.295 1.1042 1.55602 0
M  V30 6887 C 628.435 2.35527 2.52232 0
M  V30 6888 C 627.548 3.62147 2.35529 0
M  V30 6889 C 626.683 3.89167 3.61555 0
M  V30 6890 C 625.722 5.09084 3.39853 0
M  V30 6891 N 624.859 5.32156 4.5799 0
M  V30 6892 H 629.699 2.8601 0.836802 0
M  V30 6893 H 627.236 1.41507 0.401758 0
M  V30 6894 H 629.194 2.55516 3.29799 0
M  V30 6895 H 627.824 1.50253 2.85699 0
M  V30 6896 H 626.876 3.4998 1.49057 0
M  V30 6897 H 628.188 4.49871 2.15448 0
M  V30 6898 H 627.342 4.09611 4.47553 0
M  V30 6899 H 626.081 2.9985 3.84632 0
M  V30 6900 H 625.086 4.88522 2.52243 0
M  V30 6901 H 626.311 5.99947 3.18183 0
M  V30 6902 H 624.257 4.45791 4.81255 0
M  V30 6903 H 624.174 6.14133 4.40882 0
M  V30 6904 H 625.442 5.57091 5.45225 0
M  V30 6905 N 629.671 -0.424282 1.51781 0
M  V30 6906 C 630.896 -1.19928 1.6921 0
M  V30 6907 C 631.321 -1.8392 0.394355 0
M  V30 6908 O 630.679 -1.69371 -0.646778 0
M  V30 6909 C 630.727 -2.24937 2.81843 0
M  V30 6910 O 629.831 -3.3073 2.46356 0
M  V30 6911 H 629.172 -0.35078 0.563781 0
M  V30 6912 H 631.702 -0.499401 1.98412 0
M  V30 6913 H 631.712 -2.69512 3.06312 0
M  V30 6914 H 630.387 -1.77742 3.76006 0
M  V30 6915 H 628.964 -2.9154 2.32505 0
M  V30 6916 N 631.149 -1.42148 -0.680565 0
M  V30 6917 C 632.079 -1.4796 -1.80638 0
M  V30 6918 C 633.06 -0.336728 -1.66734 0
M  V30 6919 O 634.245 -0.550247 -1.86242 0
M  V30 6920 C 631.375 -1.37569 -3.18892 0
M  V30 6921 C 630.329 -2.49823 -3.47524 0
M  V30 6922 C 629.655 -2.24491 -4.85291 0
M  V30 6923 C 630.955 -3.92144 -3.44994 0
M  V30 6924 H 632.649 -2.42184 -1.76032 0
M  V30 6925 H 630.195 -1.16566 -0.845481 0
M  V30 6926 H 632.148 -1.40243 -3.97379 0
M  V30 6927 H 630.872 -0.398357 -3.24162 0
M  V30 6928 H 629.531 -2.46455 -2.71395 0
M  V30 6929 H 629.179 -1.25066 -4.87204 0
M  V30 6930 H 628.879 -2.99722 -5.05411 0
M  V30 6931 H 630.403 -2.28906 -5.66069 0
M  V30 6932 H 631.817 -3.97145 -4.13459 0
M  V30 6933 H 630.214 -4.67179 -3.76648 0
M  V30 6934 H 631.284 -4.19225 -2.43676 0
M  V30 6935 N 632.627 0.916307 -1.28225 0
M  V30 6936 C 633.875 1.6619 -1.15002 0
M  V30 6937 C 634.196 1.92642 0.302329 0
M  V30 6938 O 633.466 1.54076 1.20985 0
M  V30 6939 H 632.046 0.615964 -0.422608 0
M  V30 6940 H 634.708 1.09963 -1.60917 0
M  V30 6941 H 633.804 2.62533 -1.68769 0
M  V30 6942 N 634.105 1.10431 1.1244 0
M  V30 6943 C 635.353 0.845045 1.83585 0
M  V30 6944 C 635.674 -0.631168 1.84503 0
M  V30 6945 O 634.944 -1.45825 1.30813 0
M  V30 6946 H 633.524 0.309628 0.679809 0
M  V30 6947 H 636.186 1.39458 1.36153 0
M  V30 6948 H 635.282 1.20786 2.8778 0
M  V30 6949 N 635.583 -1.29855 0.893053 0
M  V30 6950 C 636.533 -2.25493 0.337211 0
M  V30 6951 C 637.517 -1.51606 -0.53894 0
M  V30 6952 O 638.709 -1.72828 -0.382043 0
M  V30 6953 C 635.838 -3.40467 -0.440117 0
M  V30 6954 C 634.924 -4.217 0.450578 0
M  V30 6955 N 635.315 -4.81312 1.55476 0
M  V30 6956 C 633.613 -4.45315 0.247154 0
M  V30 6957 C 634.314 -5.42241 2.10593 0
M  V30 6958 N 633.29 -5.25267 1.39982 0
M  V30 6959 H 637.092 -2.69137 1.18079 0
M  V30 6960 H 634.606 -1.44388 0.743359 0
M  V30 6961 H 636.603 -4.08038 -0.855021 0
M  V30 6962 H 635.263 -2.98361 -1.28104 0
M  V30 6963 H 636.274 -4.80291 1.93755 0
M  V30 6964 H 632.951 -4.13782 -0.555939 0
M  V30 6965 H 634.341 -5.99517 3.03362 0
M  V30 6966 N 637.061 -0.65484 -1.43351 0
M  V30 6967 C 638.307 -0.169142 -2.02093 0
M  V30 6968 C 638.64 1.21431 -1.51553 0
M  V30 6969 O 637.915 1.81105 -0.709317 0
M  V30 6970 C 638.198 -0.181775 -3.59641 0
M  V30 6971 C 638.051 -1.59926 -4.20409 0
M  V30 6972 C 639.37 0.480945 -4.37464 0
M  V30 6973 H 636.489 -0.0629371 -0.734308 0
M  V30 6974 H 639.131 -0.835833 -1.70628 0
M  V30 6975 H 637.281 0.385918 -3.86578 0
M  V30 6976 H 638.953 -2.21766 -4.04497 0
M  V30 6977 H 637.196 -2.14605 -3.76998 0
M  V30 6978 H 637.867 -1.55994 -5.295 0
M  V30 6979 H 640.343 -0.00208273 -4.161 0
M  V30 6980 H 639.219 0.441384 -5.47122 0
M  V30 6981 H 639.48 1.55533 -4.13838 0
M  V30 6982 N 638.539 1.52521 -0.396863 0
M  V30 6983 C 639.787 2.01274 0.182536 0
M  V30 6984 C 640.108 1.28485 1.46685 0
M  V30 6985 O 639.378 0.407134 1.91623 0
M  V30 6986 H 637.958 0.743671 0.0704442 0
M  V30 6987 H 640.62 1.87547 -0.530289 0
M  V30 6988 H 639.716 3.09687 0.387385 0
M  V30 6989 N 640.017 0.126909 1.57088 0
M  V30 6990 C 641.433 -0.229641 1.57939 0
M  V30 6991 C 641.633 -1.66145 1.1401 0
M  V30 6992 O 640.689 -2.3843 0.831119 0
M  V30 6993 C 642.002 0.0108648 3.00698 0
M  V30 6994 C 643.55 -0.054418 3.12953 0
M  V30 6995 C 644.025 0.158497 4.57726 0
M  V30 6996 N 645.516 0.104735 4.63082 0
M  V30 6997 C 646.251 0.24427 5.72879 0
M  V30 6998 N 645.747 0.440415 6.91399 0
M  V30 6999 N 647.54 0.183286 5.61801 0
M  V30 7000 H 639.691 1.06203 1.83942 0
M  V30 7001 H 641.954 0.418834 0.85046 0
M  V30 7002 H 641.66 1.00102 3.37154 0
M  V30 7003 H 641.534 -0.717512 3.70313 0
M  V30 7004 H 643.921 -1.0351 2.7635 0
M  V30 7005 H 644.002 0.705967 2.45865 0
M  V30 7006 H 643.646 1.13619 4.95028 0
M  V30 7007 H 643.576 -0.62197 5.22914 0
M  V30 7008 H 646.067 -0.0430298 3.77876 0
M  V30 7009 H 646.38 0.537536 7.70928 0
M  V30 7010 H 644.725 0.476488 6.93365 0
M  V30 7011 H 647.916 0.0309561 4.6809 0
M  V30 7012 H 648.089 0.295471 6.47326 0
M  V30 7013 N 641.495 -1.56914 -0.146875 0
M  V30 7014 C 642.744 -1.82546 -0.857898 0
M  V30 7015 C 643.057 -0.708169 -1.8233 0
M  V30 7016 O 644.263 -0.850093 -2.57848 0
M  V30 7017 C 642.719 -3.23548 -1.57623 0
M  V30 7018 C 642.327 -4.43212 -0.653224 0
M  V30 7019 C 644.071 -3.58453 -2.27402 0
M  V30 7020 C 641.978 -5.75237 -1.37318 0
M  V30 7021 H 640.908 -0.680786 -0.32411 0
M  V30 7022 H 643.559 -1.83166 -0.110639 0
M  V30 7023 H 641.941 -3.17315 -2.36912 0
M  V30 7024 H 643.115 -4.60682 0.104452 0
M  V30 7025 H 641.43 -4.16351 -0.0638336 0
M  V30 7026 H 644.027 -4.54349 -2.81907 0
M  V30 7027 H 644.37 -2.84516 -3.03901 0
M  V30 7028 H 644.903 -3.66347 -1.55032 0
M  V30 7029 H 641.642 -6.52269 -0.650041 0
M  V30 7030 H 641.162 -5.61703 -2.10357 0
M  V30 7031 H 642.841 -6.18039 -1.91406 0
M  V30 7032 N 642.974 0.416227 -1.52004 0
M  V30 7033 C 644.223 1.16088 -1.64944 0
M  V30 7034 C 644.536 1.91835 -0.381928 0
M  V30 7035 O 645.742 2.6867 -0.391013 0
M  V30 7036 C 644.198 2.1124 -2.91386 0
M  V30 7037 C 643.806 1.41042 -4.25219 0
M  V30 7038 C 645.55 2.86008 -3.13688 0
M  V30 7039 C 643.457 2.34801 -5.42791 0
M  V30 7040 H 642.387 0.437041 -0.61442 0
M  V30 7041 H 645.038 0.425971 -1.78487 0
M  V30 7042 H 643.42 2.88254 -2.71525 0
M  V30 7043 H 644.594 0.694416 -4.55538 0
M  V30 7044 H 642.909 0.78344 -4.08964 0
M  V30 7045 H 645.506 3.56286 -3.98703 0
M  V30 7046 H 645.849 3.48556 -2.27628 0
M  V30 7047 H 646.382 2.16095 -3.33988 0
M  V30 7048 H 643.121 1.7691 -6.31176 0
M  V30 7049 H 642.641 3.04395 -5.16821 0
M  V30 7050 H 644.32 2.9548 -5.75587 0
M  V30 7051 N 644.452 1.42507 0.673017 0
M  V30 7052 C 645.382 1.48916 1.79851 0
M  V30 7053 C 646.363 0.345566 1.66553 0
M  V30 7054 O 647.548 0.560116 1.85947 0
M  V30 7055 C 644.678 1.39258 3.18158 0
M  V30 7056 C 643.632 2.51662 3.46194 0
M  V30 7057 C 642.958 2.27062 4.84094 0
M  V30 7058 C 644.258 3.93968 3.42909 0
M  V30 7059 H 645.952 2.43114 1.74745 0
M  V30 7060 H 643.498 1.17013 0.839288 0
M  V30 7061 H 645.451 1.42349 3.96629 0
M  V30 7062 H 644.175 0.415542 3.23946 0
M  V30 7063 H 642.834 2.47891 2.70084 0
M  V30 7064 H 642.482 1.27648 4.86534 0
M  V30 7065 H 642.182 3.02398 5.03815 0
M  V30 7066 H 643.706 2.31905 5.64847 0
M  V30 7067 H 645.12 3.99332 4.11347 0
M  V30 7068 H 643.517 4.6917 3.74165 0
M  V30 7069 H 644.587 4.20512 2.41449 0
M  V30 7070 N 645.93 -0.909495 1.28709 0
M  V30 7071 C 646.84 -2.04558 1.14861 0
M  V30 7072 C 647.856 -1.73842 0.0741621 0
M  V30 7073 O 649.032 -1.99383 0.2843 0
M  V30 7074 C 646.097 -3.36957 0.816148 0
M  V30 7075 C 645.158 -3.81255 1.97341 0
M  V30 7076 C 644.391 -5.07335 1.65671 0
M  V30 7077 O 644.614 -5.67514 0.573053 0
M  V30 7078 O 643.548 -5.47449 2.50167 0
M  V30 7079 H 647.374 -2.19161 2.10243 0
M  V30 7080 H 644.959 -1.03159 1.08068 0
M  V30 7081 H 646.841 -4.16436 0.644873 0
M  V30 7082 H 645.516 -3.2352 -0.107983 0
M  V30 7083 H 644.423 -3.02584 2.19986 0
M  V30 7084 H 645.756 -3.99261 2.87839 0
M  V30 7085 N 647.408 -1.11026 -1.11852 0
M  V30 7086 C 648.356 -0.759643 -2.19846 0
M  V30 7087 C 649.35 0.246964 -1.6759 0
M  V30 7088 O 650.556 0.106693 -1.79684 0
M  V30 7089 H 646.931 -0.22775 -0.716683 0
M  V30 7090 H 648.902 -1.6792 -2.46669 0
M  V30 7091 C 647.651 -0.214364 -3.47039 0
M  V30 7092 H 646.974 -0.980175 -3.87599 0
M  V30 7093 H 648.414 -0.00717047 -4.23999 0
M  V30 7094 C 646.873 1.05436 -3.19976 0
M  V30 7095 O 647.403 2.13483 -3.40276 0
M  V30 7096 N 645.609 0.975436 -2.7374 0
M  V30 7097 H 645.156 0.0960853 -2.57421 0
M  V30 7098 H 645.114 1.82501 -2.5601 0
M  V30 7099 N 648.886 1.2938 -0.899927 0
M  V30 7100 C 649.834 2.29675 -0.367698 0
M  V30 7101 C 650.828 1.60787 0.533282 0
M  V30 7102 O 652.034 1.75126 0.416058 0
M  V30 7103 H 648.409 0.745284 -0.100279 0
M  V30 7104 H 650.38 2.72008 -1.22696 0
M  V30 7105 C 649.129 3.45512 0.389483 0
M  V30 7106 H 648.452 3.98713 -0.294575 0
M  V30 7107 H 649.892 4.17725 0.726744 0
M  V30 7108 C 648.351 2.969 1.59223 0
M  V30 7109 O 648.881 2.98195 2.69152 0
M  V30 7110 N 647.087 2.52728 1.43447 0
M  V30 7111 H 646.634 2.51873 0.540148 0
M  V30 7112 H 646.592 2.20561 2.24054 0
M  V30 7113 N 650.364 0.662433 1.43002 0
M  V30 7114 C 651.314 -0.0460442 2.27954 0
M  V30 7115 C 652.298 -0.785753 1.40409 0
M  V30 7116 O 653.49 -0.666701 1.63964 0
M  V30 7117 C 650.619 -1.00532 3.2825 0
M  V30 7118 C 649.705 -0.263604 4.2328 0
M  V30 7119 N 650.096 0.724855 5.00579 0
M  V30 7120 C 648.394 -0.503778 4.43146 0
M  V30 7121 C 649.095 1.16594 5.69895 0
M  V30 7122 N 648.071 0.498345 5.41311 0
M  V30 7123 H 651.873 0.712314 2.85137 0
M  V30 7124 H 649.387 0.490469 1.54817 0
M  V30 7125 H 651.384 -1.52775 3.87899 0
M  V30 7126 H 650.044 -1.76364 2.72628 0
M  V30 7127 H 651.055 1.10393 5.05998 0
M  V30 7128 H 647.732 -1.24255 3.98581 0
M  V30 7129 H 649.122 1.98434 6.4193 0
M  V30 7130 N 651.842 -1.52309 0.404946 0
M  V30 7131 C 653.088 -2.02065 -0.172455 0
M  V30 7132 C 653.421 -1.29022 -1.45145 0
M  V30 7133 O 652.696 -0.395284 -1.90441 0
M  V30 7134 C 652.979 -3.5759 -0.424433 0
M  V30 7135 C 652.832 -4.41287 0.870945 0
M  V30 7136 C 654.151 -4.23186 -1.20837 0
M  V30 7137 H 651.27 -0.734454 -0.0612035 0
M  V30 7138 H 653.912 -1.82236 0.53759 0
M  V30 7139 H 652.062 -3.74617 -1.02929 0
M  V30 7140 H 653.734 -4.3598 1.50729 0
M  V30 7141 H 651.977 -4.07669 1.48284 0
M  V30 7142 H 652.648 -5.48171 0.649083 0
M  V30 7143 H 655.124 -4.10232 -0.696338 0
M  V30 7144 H 654 -5.31953 -1.35343 0
M  V30 7145 H 654.261 -3.81862 -2.22786 0
M  V30 7146 N 653.32 -0.135238 -1.57019 0
M  V30 7147 C 654.569 0.518694 -1.94917 0
M  V30 7148 C 654.882 1.66783 -1.0219 0
M  V30 7149 O 656.088 2.38561 -1.29619 0
M  V30 7150 C 654.544 0.974123 -3.46466 0
M  V30 7151 C 654.152 -0.147439 -4.47757 0
M  V30 7152 C 655.896 1.59851 -3.93253 0
M  V30 7153 C 653.803 0.325599 -5.90503 0
M  V30 7154 H 652.733 0.19754 -0.727663 0
M  V30 7155 H 655.384 -0.217698 -1.82204 0
M  V30 7156 H 653.766 1.76542 -3.5447 0
M  V30 7157 H 654.94 -0.924122 -4.51438 0
M  V30 7158 H 653.255 -0.679496 -4.10818 0
M  V30 7159 H 655.852 1.96385 -4.9733 0
M  V30 7160 H 656.195 2.48306 -3.3414 0
M  V30 7161 H 656.728 0.872323 -3.88118 0
M  V30 7162 H 653.467 -0.523295 -6.53408 0
M  V30 7163 H 652.987 1.06841 -5.90208 0
M  V30 7164 H 654.666 0.781498 -6.42263 0
M  V30 7165 N 654.798 1.5699 0.138552 0
M  V30 7166 C 656.075 1.74741 0.87891 0
M  V30 7167 C 656.455 0.705522 1.98961 0
M  V30 7168 O 655.803 -0.274066 2.2685 0
M  V30 7169 C 656.013 3.1909 1.4136 0
M  V30 7170 C 657.361 3.81023 1.87368 0
M  V30 7171 O 658.385 3.22571 1.51084 0
M  V30 7172 O 657.244 4.83722 2.54312 0
M  V30 7173 H 654.338 0.714781 0.415953 0
M  V30 7174 H 656.884 1.69248 0.123817 0
M  V30 7175 H 655.656 3.86424 0.61579 0
M  V30 7176 H 655.279 3.29043 2.23196 0
M  V30 7177 N 656.276 -0.40816 1.52223 0
M  V30 7178 C 657.504 -1.17672 1.70179 0
M  V30 7179 C 657.919 -1.84257 0.411696 0
M  V30 7180 O 657.276 -1.7192 -0.612354 0
M  V30 7181 C 657.327 -2.23911 2.83806 0
M  V30 7182 O 657.048 -1.60044 4.0782 0
M  V30 7183 C 658.549 -3.1364 3.13281 0
M  V30 7184 H 655.769 -0.353562 0.570293 0
M  V30 7185 H 658.313 -0.480083 1.98785 0
M  V30 7186 H 656.468 -2.89242 2.57717 0
M  V30 7187 H 656.882 -2.30484 4.71145 0
M  V30 7188 H 658.356 -3.84255 3.96298 0
M  V30 7189 H 658.833 -3.76066 2.26872 0
M  V30 7190 H 659.439 -2.53977 3.41139 0
M  V30 7191 N 657.755 -1.42862 -0.66545 0
M  V30 7192 C 658.985 -1.47032 -1.45138 0
M  V30 7193 C 659.393 -0.0829977 -1.89018 0
M  V30 7194 O 658.736 0.914551 -1.59316 0
M  V30 7195 C 658.798 -2.34302 -2.72659 0
M  V30 7196 C 658.462 -3.82034 -2.50796 0
M  V30 7197 C 659.459 -4.73453 -2.14799 0
M  V30 7198 C 657.144 -4.26397 -2.655 0
M  V30 7199 C 659.138 -6.07228 -1.93785 0
M  V30 7200 C 656.825 -5.6023 -2.44103 0
M  V30 7201 C 657.823 -6.50462 -2.08299 0
M  V30 7202 O 657.511 -7.8182 -1.87116 0
M  V30 7203 H 657.243 -0.501969 -0.452772 0
M  V30 7204 H 659.797 -1.88137 -0.82423 0
M  V30 7205 H 658.027 -1.88063 -3.37889 0
M  V30 7206 H 659.716 -2.29818 -3.34572 0
M  V30 7207 H 660.482 -4.4046 -2.03026 0
M  V30 7208 H 656.361 -3.56448 -2.92345 0
M  V30 7209 H 659.905 -6.7762 -1.65763 0
M  V30 7210 H 655.802 -5.92793 -2.55475 0
M  V30 7211 H 656.57 -7.93274 -2.01639 0
M  V30 7212 N 659.233 0.902656 -1.29189 0
M  V30 7213 C 660.458 1.69167 -1.19989 0
M  V30 7214 C 660.883 1.86607 0.236495 0
M  V30 7215 O 660.241 1.38425 1.17082 0
M  V30 7216 C 660.289 3.05532 -1.91527 0
M  V30 7217 O 659.393 3.93621 -1.2303 0
M  V30 7218 H 658.734 0.517584 -0.415936 0
M  V30 7219 H 661.264 1.12785 -1.70706 0
M  V30 7220 H 661.274 3.55693 -1.99866 0
M  V30 7221 H 659.949 2.92156 -2.96003 0
M  V30 7222 H 658.526 3.52055 -1.22928 0
M  V30 7223 N 660.711 1.11618 1.11262 0
M  V30 7224 C 662.127 0.850468 1.35053 0
M  V30 7225 C 662.327 -0.523868 1.94571 0
M  V30 7226 O 661.383 -1.2743 2.17986 0
M  V30 7227 C 662.696 1.96005 2.28041 0
M  V30 7228 C 664.244 1.98993 2.416 0
M  V30 7229 C 664.719 3.0916 3.37911 0
M  V30 7230 N 666.21 3.08547 3.45475 0
M  V30 7231 C 666.945 3.9043 4.19943 0
M  V30 7232 N 666.441 4.8228 4.97371 0
M  V30 7233 N 668.234 3.786 4.15474 0
M  V30 7234 H 660.385 2.00184 0.709932 0
M  V30 7235 H 662.648 0.870635 0.375099 0
M  V30 7236 H 662.354 2.9499 1.91503 0
M  V30 7237 H 662.228 1.85782 3.28275 0
M  V30 7238 H 664.615 1.00633 2.77411 0
M  V30 7239 H 664.696 2.13292 1.4121 0
M  V30 7240 H 664.34 4.07748 3.02827 0
M  V30 7241 H 664.27 2.92102 4.3816 0
M  V30 7242 H 666.761 2.42 2.90249 0
M  V30 7243 H 667.074 5.41289 5.51567 0
M  V30 7244 H 665.419 4.863 4.96525 0
M  V30 7245 H 668.61 3.06185 3.54074 0
M  V30 7246 H 668.783 4.42647 4.73253 0
M  V30 7247 N 662.189 -1.289 0.906776 0
M  V30 7248 C 663.438 -1.9455 0.532262 0
M  V30 7249 C 663.751 -1.72219 -0.927353 0
M  V30 7250 O 664.957 -2.32033 -1.40971 0
M  V30 7251 C 663.413 -3.48438 0.901041 0
M  V30 7252 C 663.021 -3.79558 2.37991 0
M  V30 7253 C 664.765 -4.20284 0.596777 0
M  V30 7254 C 662.672 -5.26723 2.68918 0
M  V30 7255 H 661.602 -0.728259 0.195333 0
M  V30 7256 H 664.253 -1.46519 1.10474 0
M  V30 7257 H 662.635 -3.95162 0.257419 0
M  V30 7258 H 663.809 -3.43668 3.06967 0
M  V30 7259 H 662.124 -3.20868 2.65391 0
M  V30 7260 H 664.721 -5.28612 0.8046 0
M  V30 7261 H 665.064 -4.13694 -0.465072 0
M  V30 7262 H 665.597 -3.79315 1.19855 0
M  V30 7263 H 662.336 -5.38384 3.73928 0
M  V30 7264 H 661.856 -5.63836 2.04571 0
M  V30 7265 H 663.535 -5.94391 2.55555 0
M  V30 7266 N 663.667 -0.670007 -1.42649 0
M  V30 7267 C 664.597 -0.00258501 -2.335 0
M  V30 7268 C 665.578 0.794364 -1.50412 0
M  V30 7269 O 666.763 0.75248 -1.79029 0
M  V30 7270 C 663.893 0.952748 -3.33976 0
M  V30 7271 C 662.847 0.264733 -4.2718 0
M  V30 7272 C 662.173 1.33267 -5.17826 0
M  V30 7273 C 663.473 -0.853289 -5.15283 0
M  V30 7274 H 665.167 -0.761326 -2.89559 0
M  V30 7275 H 662.713 -0.367561 -1.3923 0
M  V30 7276 H 664.666 1.4287 -3.96442 0
M  V30 7277 H 663.39 1.74285 -2.7621 0
M  V30 7278 H 662.049 -0.190938 -3.66102 0
M  V30 7279 H 661.697 2.11464 -4.5639 0
M  V30 7280 H 661.397 0.877476 -5.81011 0
M  V30 7281 H 662.921 1.80965 -5.83167 0
M  V30 7282 H 664.335 -0.458763 -5.71462 0
M  V30 7283 H 662.732 -1.23398 -5.87276 0
M  V30 7284 H 663.802 -1.70412 -4.53969 0
M  V30 7285 N 665.145 1.52092 -0.413018 0
M  V30 7286 C 666.392 2.01855 0.161497 0
M  V30 7287 C 666.72 1.29845 1.44812 0
M  V30 7288 O 665.975 0.394471 1.91683 0
M  V30 7289 C 666.274 3.54529 0.4521 0
M  V30 7290 C 665.94 4.4469 -0.745788 0
M  V30 7291 C 664.602 4.69053 -1.07435 0
M  V30 7292 C 666.954 4.97742 -1.54604 0
M  V30 7293 C 664.282 5.43717 -2.20429 0
M  V30 7294 C 666.634 5.73642 -2.66678 0
M  V30 7295 C 665.298 5.96277 -3.00016 0
M  V30 7296 H 664.568 0.73864 0.0590961 0
M  V30 7297 H 667.215 1.83274 -0.555234 0
M  V30 7298 H 665.52 3.7131 1.25045 0
M  V30 7299 H 667.217 3.90546 0.909647 0
M  V30 7300 H 663.807 4.25907 -0.479725 0
M  V30 7301 H 667.991 4.78824 -1.30543 0
M  V30 7302 H 663.247 5.59462 -2.46602 0
M  V30 7303 H 667.421 6.13746 -3.29072 0
M  V30 7304 H 665.048 6.53913 -3.87688 0
M  V30 7305 N 666.623 0.143563 1.56945 0
M  V30 7306 C 668.034 -0.37783 1.82837 0
M  V30 7307 C 668.385 -1.64967 1.06209 0
M  V30 7308 O 667.51 -2.14221 0.306291 0
M  V30 7309 C 668.105 -0.692274 3.31652 0
M  V30 7310 C 666.664 -1.1582 3.58138 0
M  V30 7311 C 665.811 -0.17951 2.76718 0
M  V30 7312 H 668.762 0.368317 1.54367 0
M  V30 7313 H 668.783 -1.54729 3.47619 0
M  V30 7314 H 668.295 0.233572 3.87397 0
M  V30 7315 H 666.396 -2.10011 3.07776 0
M  V30 7316 H 666.509 -1.08655 4.66616 0
M  V30 7317 H 664.873 -0.671458 2.4569 0
M  V30 7318 H 665.656 0.739865 3.35233 0
M  V30 7319 N 668.101 -1.57061 -0.130224 0
M  V30 7320 C 669.35 -1.83446 -0.838488 0
M  V30 7321 C 669.663 -0.727468 -1.81569 0
M  V30 7322 O 670.869 -0.877394 -2.56932 0
M  V30 7323 C 669.325 -3.25201 -1.54182 0
M  V30 7324 C 668.933 -4.4388 -0.606178 0
M  V30 7325 C 670.677 -3.60844 -2.23588 0
M  V30 7326 C 668.584 -5.76661 -1.31209 0
M  V30 7327 H 667.514 -0.684185 -0.316871 0
M  V30 7328 H 670.165 -1.83273 -0.0912059 0
M  V30 7329 H 668.547 -3.1981 -2.33533 0
M  V30 7330 H 669.721 -4.60545 0.153308 0
M  V30 7331 H 668.036 -4.16395 -0.0196705 0
M  V30 7332 H 670.633 -4.57313 -2.77072 0
M  V30 7333 H 670.976 -2.87724 -3.00867 0
M  V30 7334 H 671.509 -3.67971 -1.51137 0
M  V30 7335 H 668.248 -6.52922 -0.580823 0
M  V30 7336 H 667.768 -5.63902 -2.04387 0
M  V30 7337 H 669.447 -6.20035 -1.8484 0
M  V30 7338 N 669.579 0.400081 -1.52437 0
M  V30 7339 C 670.825 1.14788 -1.67187 0
M  V30 7340 C 671.158 1.89928 -0.405074 0
M  V30 7341 O 670.433 1.85118 0.596804 0
M  V30 7342 C 670.716 2.13507 -2.89977 0
M  V30 7343 C 670.569 1.42204 -4.2673 0
M  V30 7344 C 671.888 3.14069 -3.083 0
M  V30 7345 H 669.007 0.415939 -0.608411 0
M  V30 7346 H 671.649 0.432542 -1.85011 0
M  V30 7347 H 669.799 2.7451 -2.74912 0
M  V30 7348 H 671.471 0.842503 -4.53541 0
M  V30 7349 H 669.714 0.723939 -4.27717 0
M  V30 7350 H 670.385 2.14281 -5.08712 0
M  V30 7351 H 672.861 2.63148 -3.22323 0
M  V30 7352 H 671.737 3.80398 -3.95713 0
M  V30 7353 H 671.998 3.82309 -2.22018 0
M  V30 7354 N 671.057 1.43213 0.657864 0
M  V30 7355 C 672.287 1.478 1.44356 0
M  V30 7356 C 672.695 0.0930206 1.88971 0
M  V30 7357 O 672.038 -0.906089 1.59799 0
M  V30 7358 C 672.1 2.35745 2.71412 0
M  V30 7359 C 671.764 3.83359 2.48767 0
M  V30 7360 C 672.761 4.74585 2.12285 0
M  V30 7361 C 670.446 4.27799 2.63235 0
M  V30 7362 C 672.44 6.08247 1.90562 0
M  V30 7363 C 670.127 5.61516 2.41128 0
M  V30 7364 C 671.125 6.51557 2.04847 0
M  V30 7365 O 670.813 7.82802 1.82967 0
M  V30 7366 H 670.545 0.504363 0.450104 0
M  V30 7367 H 673.099 1.88572 0.814241 0
M  V30 7368 H 671.329 1.89852 3.36887 0
M  V30 7369 H 673.018 2.31589 3.33348 0
M  V30 7370 H 673.784 4.41531 2.00687 0
M  V30 7371 H 669.663 3.57993 2.90451 0
M  V30 7372 H 673.207 6.78489 1.62168 0
M  V30 7373 H 669.104 5.94139 2.52327 0
M  V30 7374 H 669.872 7.94332 1.97429 0
M  V30 7375 N 672.536 -0.895792 1.29666 0
M  V30 7376 C 673.785 -1.64131 1.17234 0
M  V30 7377 C 674.098 -1.93665 -0.274416 0
M  V30 7378 O 675.304 -2.66472 -0.520105 0
M  V30 7379 C 673.76 -2.95764 2.05065 0
M  V30 7380 C 673.368 -2.7381 3.54587 0
M  V30 7381 C 675.112 -3.737 2.01367 0
M  V30 7382 C 673.019 -4.01194 4.34508 0
M  V30 7383 H 671.949 -0.615742 0.435175 0
M  V30 7384 H 674.6 -0.992626 1.54335 0
M  V30 7385 H 672.982 -3.61867 1.60837 0
M  V30 7386 H 674.156 -2.16277 4.06892 0
M  V30 7387 H 672.471 -2.09265 3.59996 0
M  V30 7388 H 675.068 -4.68152 2.58337 0
M  V30 7389 H 675.411 -4.04245 0.994575 0
M  V30 7390 H 675.944 -3.14444 2.43659 0
M  V30 7391 H 672.683 -3.75813 5.37071 0
M  V30 7392 H 672.203 -4.58272 3.86971 0
M  V30 7393 H 673.882 -4.69307 4.45376 0
M  V30 7394 N 674.014 -1.12206 -1.10668 0
M  V30 7395 C 674.944 -0.810086 -2.18997 0
M  V30 7396 C 675.925 0.225065 -1.68604 0
M  V30 7397 O 677.11 0.086783 -1.94006 0
M  V30 7398 C 674.24 -0.261262 -3.46316 0
M  V30 7399 C 673.194 -1.2292 -4.09969 0
M  V30 7400 C 672.52 -0.540713 -5.31959 0
M  V30 7401 C 673.82 -2.58295 -4.53962 0
M  V30 7402 H 675.514 -1.7159 -2.45352 0
M  V30 7403 H 673.06 -0.82646 -1.17922 0
M  V30 7404 H 675.013 -0.0307522 -4.21389 0
M  V30 7405 H 673.737 0.679879 -3.19445 0
M  V30 7406 H 672.396 -1.44548 -3.369 0
M  V30 7407 H 672.044 0.405492 -5.01363 0
M  V30 7408 H 671.744 -1.18637 -5.75499 0
M  V30 7409 H 673.268 -0.319184 -6.09765 0
M  V30 7410 H 674.682 -2.40709 -5.20319 0
M  V30 7411 H 673.079 -3.18916 -5.08343 0
M  V30 7412 H 674.149 -3.16918 -3.67002 0
M  V30 7413 N 675.492 1.28418 -0.913599 0
M  V30 7414 C 676.739 1.94981 -0.546674 0
M  V30 7415 C 677.067 1.7192 0.909606 0
M  V30 7416 O 676.322 1.03314 1.66207 0
M  V30 7417 C 676.621 3.48283 -0.802099 0
M  V30 7418 C 676.287 3.91444 -2.2379 0
M  V30 7419 C 674.949 4.02939 -2.63046 0
M  V30 7420 C 677.301 4.13542 -3.17227 0
M  V30 7421 C 674.629 4.3391 -3.94891 0
M  V30 7422 C 676.981 4.45992 -4.48636 0
M  V30 7423 C 675.645 4.55698 -4.87746 0
M  V30 7424 H 674.915 0.713487 -0.200042 0
M  V30 7425 H 677.562 1.52756 -1.15489 0
M  V30 7426 H 675.867 3.91643 -0.111076 0
M  V30 7427 H 677.564 3.97903 -0.497375 0
M  V30 7428 H 674.154 3.83024 -1.9233 0
M  V30 7429 H 678.338 4.04114 -2.88107 0
M  V30 7430 H 673.594 4.39631 -4.24894 0
M  V30 7431 H 677.768 4.62038 -5.21051 0
M  V30 7432 H 675.395 4.79451 -5.89942 0
M  V30 7433 N 676.97 0.677563 1.42291 0
M  V30 7434 C 677.918 -0.0106755 2.32598 0
M  V30 7435 C 678.912 -0.787643 1.49975 0
M  V30 7436 O 680.118 -0.695295 1.66029 0
M  V30 7437 H 676.493 -0.0222482 0.751671 0
M  V30 7438 H 678.464 0.768312 2.88339 0
M  V30 7439 C 677.213 -0.946142 3.3458 0
M  V30 7440 H 676.536 -0.357701 3.98197 0
M  V30 7441 H 677.976 -1.39634 4.00348 0
M  V30 7442 C 676.435 -2.05383 2.67057 0
M  V30 7443 O 676.965 -3.1406 2.50458 0
M  V30 7444 N 675.171 -1.82635 2.26038 0
M  V30 7445 H 674.718 -0.942534 2.39737 0
M  V30 7446 H 674.676 -2.56937 1.81192 0
M  V30 7447 N 678.448 -1.51871 0.421078 0
M  V30 7448 C 679.378 -2.30231 -0.389363 0
M  V30 7449 C 680.359 -1.34946 -1.03555 0
M  V30 7450 O 681.544 -1.63859 -1.04229 0
M  V30 7451 C 678.674 -3.13247 -1.49979 0
M  V30 7452 C 677.628 -4.16677 -0.977966 0
M  V30 7453 C 676.954 -4.88112 -2.1829 0
M  V30 7454 C 678.254 -5.22295 -0.0236775 0
M  V30 7455 H 679.948 -2.98229 0.264524 0
M  V30 7456 H 677.494 -1.43424 0.12866 0
M  V30 7457 H 679.447 -3.66838 -2.07383 0
M  V30 7458 H 678.171 -2.4304 -2.18173 0
M  V30 7459 H 676.83 -3.64114 -0.426245 0
M  V30 7460 H 676.478 -4.14423 -2.85066 0
M  V30 7461 H 676.178 -5.58041 -1.84021 0
M  V30 7462 H 677.702 -5.44521 -2.76278 0
M  V30 7463 H 679.116 -5.71055 -0.506899 0
M  V30 7464 H 677.513 -5.99656 0.230782 0
M  V30 7465 H 678.583 -4.76131 0.917999 0
M  V30 7466 N 679.926 -0.151884 -1.56866 0
M  V30 7467 C 681.173 0.498004 -1.96281 0
M  V30 7468 C 681.501 1.64551 -1.03698 0
M  V30 7469 O 680.756 1.95585 -0.0671497 0
M  V30 7470 C 681.055 1.04074 -3.41911 0
M  V30 7471 C 680.721 0.0111688 -4.50899 0
M  V30 7472 C 679.383 -0.271844 -4.80432 0
M  V30 7473 C 681.735 -0.68869 -5.1663 0
M  V30 7474 C 679.063 -1.26044 -5.73001 0
M  V30 7475 C 681.415 -1.66613 -6.10264 0
M  V30 7476 C 680.079 -1.9568 -6.38174 0
M  V30 7477 H 679.349 0.182233 -0.718242 0
M  V30 7478 H 681.996 -0.239746 -1.89993 0
M  V30 7479 H 680.301 1.85592 -3.45055 0
M  V30 7480 H 681.998 1.55224 -3.69738 0
M  V30 7481 H 678.588 0.241932 -4.27917 0
M  V30 7482 H 682.772 -0.48324 -4.93942 0
M  V30 7483 H 678.028 -1.49202 -5.92915 0
M  V30 7484 H 682.202 -2.21392 -6.60272 0
M  V30 7485 H 679.829 -2.72434 -7.09707 0
M  V30 7486 N 681.404 1.57128 0.121893 0
M  V30 7487 C 682.634 1.88609 0.843227 0
M  V30 7488 C 683.042 0.740917 1.74089 0
M  V30 7489 O 682.385 -0.297426 1.81276 0
M  V30 7490 C 682.447 3.15073 1.73117 0
M  V30 7491 C 682.111 4.45742 1.0081 0
M  V30 7492 C 683.108 5.18719 0.350255 0
M  V30 7493 C 680.793 4.92444 0.99014 0
M  V30 7494 C 682.787 6.36617 -0.315889 0
M  V30 7495 C 680.474 6.10261 0.320196 0
M  V30 7496 C 681.472 6.82194 -0.331666 0
M  V30 7497 O 681.16 7.97769 -0.990927 0
M  V30 7498 H 680.892 0.628919 0.247865 0
M  V30 7499 H 683.446 2.05096 0.111725 0
M  V30 7500 H 681.676 2.9466 2.50424 0
M  V30 7501 H 683.365 3.32597 2.32667 0
M  V30 7502 H 684.131 4.83693 0.35577 0
M  V30 7503 H 680.01 4.36361 1.48695 0
M  V30 7504 H 683.554 6.92701 -0.825272 0
M  V30 7505 H 679.451 6.44743 0.312433 0
M  V30 7506 H 680.219 8.13591 -0.895113 0
M  V30 7507 N 682.882 -0.391992 1.52647 0
M  V30 7508 C 684.128 -1.13563 1.68745 0
M  V30 7509 C 684.483 -1.87745 0.420685 0
M  V30 7510 O 683.776 -1.82434 -0.585529 0
M  V30 7511 C 683.97 -2.14401 2.85949 0
M  V30 7512 C 683.799 -1.50124 4.23902 0
M  V30 7513 C 682.569 -1.2666 4.89168 0
M  V30 7514 C 684.767 -0.952933 5.05395 0
M  V30 7515 N 682.749 -0.584555 6.11111 0
M  V30 7516 C 684.12 -0.398784 6.18716 0
M  V30 7517 C 686.175 -0.849053 4.90607 0
M  V30 7518 C 684.878 0.249084 7.18869 0
M  V30 7519 C 686.904 -0.215011 5.91009 0
M  V30 7520 C 686.266 0.328382 7.03634 0
M  V30 7521 H 682.365 -0.401628 0.670984 0
M  V30 7522 H 684.949 -0.425585 1.89992 0
M  V30 7523 H 683.12 -2.82746 2.66288 0
M  V30 7524 H 684.852 -2.8125 2.90999 0
M  V30 7525 H 681.607 -1.54078 4.47836 0
M  V30 7526 H 682.031 -0.259663 6.76502 0
M  V30 7527 H 686.673 -1.25497 4.03745 0
M  V30 7528 H 684.391 0.667019 8.05342 0
M  V30 7529 H 687.977 -0.135921 5.81641 0
M  V30 7530 H 686.857 0.811257 7.79992 0
M  V30 7531 N 684.36 -1.4356 -0.65026 0
M  V30 7532 C 685.608 -1.45046 -1.40734 0
M  V30 7533 C 685.929 -0.0769822 -1.94848 0
M  V30 7534 O 685.199 0.888098 -1.74613 0
M  V30 7535 H 683.779 -0.534034 -0.522318 0
M  V30 7536 H 686.441 -1.79186 -0.766703 0
M  V30 7537 H 685.537 -2.16476 -2.24822 0
M  V30 7538 N 685.838 0.888903 -1.30139 0
M  V30 7539 C 687.084 1.6428 -1.18912 0
M  V30 7540 C 687.417 1.92499 0.256477 0
M  V30 7541 O 686.692 1.54312 1.18397 0
M  V30 7542 C 686.975 2.9851 -2.01405 0
M  V30 7543 C 686.828 2.77288 -3.54163 0
M  V30 7544 C 688.147 3.99383 -1.84882 0
M  V30 7545 H 685.266 0.596148 -0.433333 0
M  V30 7546 H 687.908 1.0289 -1.5973 0
M  V30 7547 H 686.058 3.50907 -1.66722 0
M  V30 7548 H 687.73 2.31709 -3.98884 0
M  V30 7549 H 685.973 2.11867 -3.78543 0
M  V30 7550 H 686.644 3.72717 -4.07168 0
M  V30 7551 H 689.12 3.56132 -2.15196 0
M  V30 7552 H 687.996 4.91222 -2.44934 0
M  V30 7553 H 688.257 4.34674 -0.806902 0
M  V30 7554 N 687.317 1.12792 1.10072 0
M  V30 7555 C 688.547 0.907189 1.85617 0
M  V30 7556 C 688.955 -0.547181 1.81115 0
M  V30 7557 O 688.298 -1.39024 1.20075 0
M  V30 7558 C 688.36 1.30872 3.34832 0
M  V30 7559 C 688.024 2.77516 3.6309 0
M  V30 7560 C 689.021 3.75696 3.59373 0
M  V30 7561 C 686.706 3.14513 3.91646 0
M  V30 7562 C 688.7 5.08888 3.83812 0
M  V30 7563 C 686.387 4.47886 4.15742 0
M  V30 7564 C 687.385 5.44882 4.11816 0
M  V30 7565 O 687.073 6.7585 4.35295 0
M  V30 7566 H 686.805 0.323855 0.593375 0
M  V30 7567 H 689.359 1.50262 1.40038 0
M  V30 7568 H 687.589 0.656518 3.81086 0
M  V30 7569 H 689.278 1.06153 3.91773 0
M  V30 7570 H 690.044 3.48458 3.37345 0
M  V30 7571 H 685.923 2.39622 3.93831 0
M  V30 7572 H 689.467 5.84586 3.80663 0
M  V30 7573 H 685.364 4.74851 4.37249 0
M  V30 7574 H 686.132 6.81853 4.52791 0
M  V30 7575 N 688.795 -1.27931 0.920396 0
M  V30 7576 C 690.041 -1.94977 0.557832 0
M  V30 7577 C 690.374 -1.72224 -0.897365 0
M  V30 7578 O 689.649 -1.04705 -1.63912 0
M  V30 7579 C 689.932 -3.49289 0.875741 0
M  V30 7580 C 689.785 -3.81416 2.38416 0
M  V30 7581 C 691.104 -4.38486 0.376517 0
M  V30 7582 H 688.223 -0.708164 0.20414 0
M  V30 7583 H 690.865 -1.5118 1.15085 0
M  V30 7584 H 689.015 -3.86724 0.371062 0
M  V30 7585 H 690.687 -3.53813 2.95997 0
M  V30 7586 H 688.93 -3.28225 2.83639 0
M  V30 7587 H 689.601 -4.89198 2.55713 0
M  V30 7588 H 692.077 -4.08161 0.808945 0
M  V30 7589 H 690.953 -5.45296 0.627976 0
M  V30 7590 H 691.214 -4.36143 -0.723293 0
M  V30 7591 O 690.312 -0.824023 -1.38896 0
M  V30 7592 H 691.003 -0.40654 -1.89386 0
M  V30 END ATOM
M  V30 BEGIN BOND
M  V30 END BOND
M  V30 END CTAB
M  END
$$$$
