drugbank_target|P42216 3-deoxy-manno-octulosonate cytidylyltransferase (DB02431; DB03403; DB03721; DB04482; DB04555)
 OpenBabel12092119553D

  0  0  0     0  0            999 V3000
M  V30 BEGIN CTAB
M  V30 COUNTS 3824 3859 0 0 0
M  V30 BEGIN ATOM
M  V30 1 H -0.908 1.98254 -0.117106 0
M  V30 2 N 0 1.576 0 0
M  V30 3 C 0.933 2.03868 1.02534 0
M  V30 4 C 1.911 0.928543 1.3348 0
M  V30 5 O 3.095 1.19667 1.45644 0
M  V30 6 C 0.222 2.43627 2.35294 0
M  V30 7 C -0.732 3.65373 2.2001 0
M  V30 8 S 0.101 5.13292 1.52614 0
M  V30 9 C 1.257 5.56322 2.86805 0
M  V30 10 H 1.49 2.90518 0.631377 0
M  V30 11 H -0.977 1.52953 0.210867 0
M  V30 12 H 0.981 2.67203 3.11629 0
M  V30 13 H -0.358 1.57376 2.7183 0
M  V30 14 H -1.165 3.90944 3.18086 0
M  V30 15 H -1.563 3.418 1.51819 0
M  V30 16 H 0.729 5.58782 3.83104 0
M  V30 17 H 1.672 6.56266 2.65933 0
M  V30 18 H 2.08 4.83886 2.90714 0
M  V30 19 N 1.4781 -0.272755 1.55222 0
M  V30 20 C 2.7031 -1.02683 1.80197 0
M  V30 21 C 3.1281 -1.79142 0.573551 0
M  V30 22 O 2.4861 -1.74917 -0.476849 0
M  V30 23 C 2.5341 -1.9609 3.02624 0
M  V30 24 O 1.6381 -3.04863 2.77727 0
M  V30 25 H 0.9791 -0.293557 0.595584 0
M  V30 26 H 3.5091 -0.30159 2.02365 0
M  V30 27 H 3.5191 -2.38039 3.31363 0
M  V30 28 H 2.1941 -1.39851 3.91682 0
M  V30 29 H 0.7711 -2.67228 2.60084 0
M  V30 30 N 2.9562 -1.48159 -0.537278 0
M  V30 31 C 3.9032 -1.62138 -1.64256 0
M  V30 32 C 4.8732 -0.463668 -1.59497 0
M  V30 33 O 6.0582 -0.686241 -1.78032 0
M  V30 34 C 3.1982 -1.66028 -3.02537 0
M  V30 35 C 2.3112 -2.92855 -3.17585 0
M  V30 36 C 1.4462 -2.87952 -4.46382 0
M  V30 37 C 0.4852 -4.09516 -4.54932 0
M  V30 38 N -0.3778 -4.02733 -5.75109 0
M  V30 39 H 4.4622 -2.56529 -1.51647 0
M  V30 40 H 1.9992 -1.27224 -0.738414 0
M  V30 41 H 3.9572 -1.66265 -3.82638 0
M  V30 42 H 2.5872 -0.751331 -3.13934 0
M  V30 43 H 1.6392 -3.02395 -2.30784 0
M  V30 44 H 2.9512 -3.82822 -3.19764 0
M  V30 45 H 2.1052 -2.8655 -5.34765 0
M  V30 46 H 0.8442 -1.95702 -4.46712 0
M  V30 47 H -0.1508 -4.11201 -3.64957 0
M  V30 48 H 1.0742 -5.02917 -4.56346 0
M  V30 49 H -0.9798 -3.13299 -5.76351 0
M  V30 50 H -1.0628 -4.86397 -5.78752 0
M  V30 51 H 0.2052 -4.05379 -6.65799 0
M  V30 52 N 4.4343 0.785586 -1.36625 0
M  V30 53 C 5.3973 1.87999 -1.31107 0
M  V30 54 C 6.3973 1.59316 -0.217959 0
M  V30 55 O 7.5873 1.67656 -0.472977 0
M  V30 56 C 4.7193 3.24861 -1.03334 0
M  V30 57 H 5.9123 1.94307 -2.2844 0
M  V30 58 H 3.4653 0.983813 -1.21453 0
M  V30 59 H 4.2003 3.24235 -0.0647432 0
M  V30 60 H 3.9853 3.4707 -1.82441 0
M  V30 61 H 5.4753 4.04929 -1.02088 0
M  V30 62 N 5.9124 1.20967 1.01018 0
M  V30 63 C 7.1584 1.02526 1.74975 0
M  V30 64 C 7.4914 -0.4408 1.89131 0
M  V30 65 O 6.7664 -1.32718 1.42184 0
M  V30 66 C 7.0494 1.71699 3.1653 0
M  V30 67 C 6.9024 3.25791 3.10129 0
M  V30 68 C 8.2214 1.45531 4.15342 0
M  V30 69 H 5.3404 0.373863 0.635134 0
M  V30 70 H 7.9824 1.49071 1.17805 0
M  V30 71 H 6.1324 1.32128 3.65341 0
M  V30 72 H 7.8044 3.74697 2.69072 0
M  V30 73 H 6.0474 3.56363 2.47362 0
M  V30 74 H 6.7184 3.69353 4.10222 0
M  V30 75 H 9.1944 1.79872 3.75213 0
M  V30 76 H 8.0704 1.96453 5.1254 0
M  V30 77 H 8.3314 0.384237 4.40427 0
M  V30 78 N 7.3905 -1.2043 1.01659 0
M  V30 79 C 8.6395 -1.89118 0.701237 0
M  V30 80 C 8.9525 -1.79705 -0.772358 0
M  V30 81 O 10.1585 -2.43528 -1.20026 0
M  V30 82 C 8.6145 -3.39168 1.20388 0
M  V30 83 C 8.2225 -3.57166 2.70438 0
M  V30 84 C 9.9665 -4.1341 0.963953 0
M  V30 85 C 7.8735 -5.01042 3.14183 0
M  V30 86 H 6.8035 -0.708267 0.2586 0
M  V30 87 H 9.4545 -1.36239 1.22927 0
M  V30 88 H 7.8365 -3.91369 0.603824 0
M  V30 89 H 9.0105 -3.15351 3.35992 0
M  V30 90 H 7.3255 -2.96294 2.92572 0
M  V30 91 H 9.9225 -5.19491 1.26621 0
M  V30 92 H 10.2655 -4.16181 -0.099578 0
M  V30 93 H 10.7985 -3.67309 1.52738 0
M  V30 94 H 7.5375 -5.03426 4.19812 0
M  V30 95 H 7.0575 -5.43668 2.53348 0
M  V30 96 H 8.7365 -5.69623 3.0682 0
M  V30 97 N 8.8686 -0.792821 -1.36206 0
M  V30 98 C 10.1146 -0.36733 -1.99446 0
M  V30 99 C 10.4476 1.05917 -1.62774 0
M  V30 100 O 9.7226 1.7324 -0.88421 0
M  V30 101 C 10.0056 -0.535044 -3.56103 0
M  V30 102 C 9.8586 -2.00548 -4.02617 0
M  V30 103 C 11.1776 0.0478191 -4.40074 0
M  V30 104 H 8.2966 -0.134941 -0.724541 0
M  V30 105 H 10.9386 -0.999794 -1.61568 0
M  V30 106 H 9.0886 0.00336329 -3.885 0
M  V30 107 H 10.7606 -2.60521 -3.80692 0
M  V30 108 H 9.0036 -2.50686 -3.54032 0
M  V30 109 H 9.6746 -2.07377 -5.11565 0
M  V30 110 H 12.1506 -0.411822 -4.14057 0
M  V30 111 H 11.0266 -0.0995336 -5.4881 0
M  V30 112 H 11.2876 1.14025 -4.27142 0
M  V30 113 N 10.3467 1.47872 -0.545128 0
M  V30 114 C 11.5957 2.01695 -0.0145033 0
M  V30 115 C 11.9087 1.42609 1.33873 0
M  V30 116 O 13.1147 1.88021 1.95858 0
M  V30 117 C 11.5707 3.59892 0.0245068 0
M  V30 118 C 11.1787 4.27966 -1.32475 0
M  V30 119 C 12.9227 4.21507 0.50316 0
M  V30 120 C 10.8297 5.78136 -1.2455 0
M  V30 121 H 9.7597 0.753998 -0.00165172 0
M  V30 122 H 12.4107 1.69985 -0.691175 0
M  V30 123 H 10.7927 3.88509 0.766575 0
M  V30 124 H 11.9667 4.11003 -2.08357 0
M  V30 125 H 10.2817 3.78286 -1.74036 0
M  V30 126 H 12.8787 5.31538 0.580656 0
M  V30 127 H 13.2217 3.87855 1.51243 0
M  V30 128 H 13.7547 3.97376 -0.183681 0
M  V30 129 H 10.4937 6.16388 -2.23039 0
M  V30 130 H 10.0137 5.97469 -0.528282 0
M  V30 131 H 11.6927 6.40099 -0.942488 0
M  V30 132 N 11.8248 0.280983 1.55075 0
M  V30 133 C 13.2358 -0.215629 1.85451 0
M  V30 134 C 13.5868 -1.54991 1.203 0
M  V30 135 O 12.7118 -2.10699 0.493435 0
M  V30 136 C 13.3068 -0.398026 3.36454 0
M  V30 137 C 11.8658 -0.838866 3.66933 0
M  V30 138 C 11.0128 0.064458 2.77225 0
M  V30 139 H 13.9638 0.502601 1.50531 0
M  V30 140 H 13.9848 -1.23569 3.59876 0
M  V30 141 H 13.4968 0.573241 3.83843 0
M  V30 142 H 11.5978 -1.8214 3.25048 0
M  V30 143 H 11.7108 -0.672123 4.74362 0
M  V30 144 H 10.0748 -0.452863 2.50642 0
M  V30 145 H 10.8578 1.03172 3.2743 0
M  V30 146 N 13.3029 -1.57598 0.00835791 0
M  V30 147 C 14.2659 -2.07884 -0.965242 0
M  V30 148 C 15.2659 -0.989825 -1.26725 0
M  V30 149 O 16.4559 -1.25218 -1.21104 0
M  V30 150 C 13.5879 -2.52731 -2.28779 0
M  V30 151 H 14.7809 -2.95178 -0.530112 0
M  V30 152 H 12.3339 -1.54458 -0.239283 0
M  V30 153 H 13.0689 -1.68705 -2.76964 0
M  V30 154 H 12.8539 -3.32272 -2.08177 0
M  V30 155 H 14.3439 -2.91933 -2.98605 0
M  V30 156 N 14.781 0.264519 -1.55364 0
M  V30 157 C 16.197 0.61215 -1.47394 0
M  V30 158 C 16.397 1.89134 -0.695018 0
M  V30 159 O 15.453 2.51563 -0.217275 0
M  V30 160 C 16.766 0.731235 -2.91674 0
M  V30 161 C 18.314 0.82473 -3.01939 0
M  V30 162 C 18.789 0.975522 -4.4749 0
M  V30 163 N 20.28 1.04083 -4.51354 0
M  V30 164 C 21.015 1.17646 -5.61201 0
M  V30 165 N 20.511 1.27874 -6.80896 0
M  V30 166 N 22.304 1.20823 -5.48961 0
M  V30 167 H 14.455 -0.575456 -2.04456 0
M  V30 168 H 16.718 -0.196099 -0.927496 0
M  V30 169 H 16.424 -0.138392 -3.51428 0
M  V30 170 H 16.298 1.60883 -3.41169 0
M  V30 171 H 18.685 1.68482 -2.42276 0
M  V30 172 H 18.766 -0.0776479 -2.55682 0
M  V30 173 H 18.41 0.120058 -5.07758 0
M  V30 174 H 18.34 1.89268 -4.91412 0
M  V30 175 H 20.831 0.973846 -3.65136 0
M  V30 176 H 21.144 1.38081 -7.60364 0
M  V30 177 H 19.489 1.24863 -6.83692 0
M  V30 178 H 22.68 1.12469 -4.54388 0
M  V30 179 H 22.853 1.31049 -6.3461 0
M  V30 180 N 16.2591 1.48442 0.529413 0
M  V30 181 C 17.4891 1.59919 1.30804 0
M  V30 182 C 17.8971 0.258792 1.87422 0
M  V30 183 O 17.2401 -0.762096 1.67146 0
M  V30 184 C 17.3021 2.58693 2.49636 0
M  V30 185 C 16.9661 4.03745 2.14101 0
M  V30 186 C 17.9631 4.9141 1.6974 0
M  V30 187 C 15.6481 4.49285 2.24607 0
M  V30 188 C 17.6421 6.22645 1.36351 0
M  V30 189 C 15.3291 5.8054 1.9083 0
M  V30 190 C 16.3271 6.67043 1.46773 0
M  V30 191 O 16.0151 7.95856 1.1344 0
M  V30 192 H 15.7471 0.541981 0.404021 0
M  V30 193 H 18.3011 1.95 0.645309 0
M  V30 194 H 16.5311 2.18734 3.18892 0
M  V30 195 H 18.2201 2.59999 3.11698 0
M  V30 196 H 18.9861 4.57465 1.61094 0
M  V30 197 H 14.8651 3.82142 2.57854 0
M  V30 198 H 18.4091 6.90119 1.01891 0
M  V30 199 H 14.3061 6.14022 1.99117 0
M  V30 200 H 15.0741 8.08613 1.26832 0
M  V30 201 N 17.7372 -0.778329 1.37039 0
M  V30 202 C 18.9852 -1.53361 1.31623 0
M  V30 203 C 19.3062 -1.94739 -0.100831 0
M  V30 204 O 18.5762 -1.65797 -1.04347 0
M  V30 205 H 17.1562 -0.568794 0.484234 0
M  V30 206 H 19.8182 -0.926742 1.71457 0
M  V30 207 H 18.9142 -2.43606 1.95096 0
M  V30 208 N 19.2153 -1.21501 -1.00376 0
M  V30 209 C 20.4403 -1.05977 -1.78279 0
M  V30 210 C 20.8653 0.385994 -1.84097 0
M  V30 211 O 20.2233 1.27849 -1.28547 0
M  V30 212 C 20.2713 -1.66302 -3.19963 0
M  V30 213 O 19.3753 -0.909333 -4.0225 0
M  V30 214 H 18.7163 -0.372906 -0.549397 0
M  V30 215 H 21.2463 -1.6107 -1.26165 0
M  V30 216 H 21.2563 -1.70574 -3.70632 0
M  V30 217 H 19.9313 -2.71515 -3.15043 0
M  V30 218 H 18.5083 -0.941795 -3.60811 0
M  V30 219 N 20.6934 1.19889 -1.02296 0
M  V30 220 C 21.9184 1.9393 -0.735237 0
M  V30 221 C 22.3434 1.74639 0.698782 0
M  V30 222 O 21.7014 1.04481 1.48167 0
M  V30 223 C 21.7494 3.43916 -1.08417 0
M  V30 224 O 20.8534 4.11917 -0.199446 0
M  V30 225 H 20.1944 0.605645 -0.272196 0
M  V30 226 H 22.7244 1.52137 -1.36804 0
M  V30 227 H 22.7344 3.9456 -1.03856 0
M  V30 228 H 21.4094 3.5728 -2.12894 0
M  V30 229 H 19.9864 3.71666 -0.303136 0
M  V30 230 N 22.1715 0.800033 1.35784 0
M  V30 231 C 23.5875 0.482977 1.52117 0
M  V30 232 C 23.7875 -0.996948 1.75109 0
M  V30 233 O 22.8435 -1.78216 1.78872 0
M  V30 234 C 24.1565 1.32264 2.70049 0
M  V30 235 C 25.7045 1.31742 2.83924 0
M  V30 236 C 26.1795 2.14106 4.04874 0
M  V30 237 N 27.6705 2.11607 4.12039 0
M  V30 238 C 28.4055 2.72099 5.04727 0
M  V30 239 N 27.9015 3.41492 6.02789 0
M  V30 240 N 29.6945 2.61776 4.97423 0
M  V30 241 H 21.8455 1.75856 1.19115 0
M  V30 242 H 24.1085 0.748122 0.582252 0
M  V30 243 H 23.8145 2.37261 2.59616 0
M  V30 244 H 23.6885 0.971303 3.6448 0
M  V30 245 H 26.0755 0.275333 2.93813 0
M  V30 246 H 26.1565 1.70859 1.9037 0
M  V30 247 H 25.8005 3.18351 3.95746 0
M  V30 248 H 25.7305 1.72353 4.97596 0
M  V30 249 H 28.2215 1.61112 3.41835 0
M  V30 250 H 28.5345 3.84953 6.70098 0
M  V30 251 H 26.8795 3.45596 6.02983 0
M  V30 252 H 30.0705 2.07157 4.19766 0
M  V30 253 H 30.2435 3.0921 5.69468 0
M  V30 254 N 23.6496 -1.47581 0.552962 0
M  V30 255 C 24.5796 -2.32762 -0.185451 0
M  V30 256 C 25.5606 -1.43527 -0.912905 0
M  V30 257 O 26.7456 -1.72388 -0.894201 0
M  V30 258 C 23.8756 -3.25219 -1.21859 0
M  V30 259 C 22.8296 -4.23661 -0.607864 0
M  V30 260 C 22.1556 -5.05413 -1.74533 0
M  V30 261 C 23.4556 -5.20481 0.435582 0
M  V30 262 H 25.1496 -2.94749 0.525684 0
M  V30 263 H 22.6956 -1.41738 0.254251 0
M  V30 264 H 24.6486 -3.8365 -1.7433 0
M  V30 265 H 23.3726 -2.61279 -1.95961 0
M  V30 266 H 22.0316 -3.66451 -0.104489 0
M  V30 267 H 21.6796 -4.3788 -2.47529 0
M  V30 268 H 21.3796 -5.72059 -1.34249 0
M  V30 269 H 22.9036 -5.66701 -2.27338 0
M  V30 270 H 24.3176 -5.733 -0.00290157 0
M  V30 271 H 22.7146 -5.95305 0.757067 0
M  V30 272 H 23.7846 -4.66217 1.33303 0
M  V30 273 N 25.1277 -0.289203 -1.54924 0
M  V30 274 C 26.5387 0.205791 -1.85562 0
M  V30 275 C 26.8897 1.54351 -1.2112 0
M  V30 276 O 26.0147 2.10435 -0.504601 0
M  V30 277 C 26.6097 0.380177 -3.3666 0
M  V30 278 C 25.1687 0.819395 -3.67373 0
M  V30 279 C 24.3157 -0.079159 -2.77187 0
M  V30 280 H 27.2667 -0.510577 -1.50262 0
M  V30 281 H 27.2877 1.21659 -3.60526 0
M  V30 282 H 26.7997 -0.593589 -3.83534 0
M  V30 283 H 24.9007 1.80413 -3.26009 0
M  V30 284 H 25.0137 0.646957 -4.74712 0
M  V30 285 H 23.3777 0.439565 -2.50878 0
M  V30 286 H 24.1607 -1.04906 -3.26878 0
M  V30 287 N 26.6058 1.57591 -0.0167156 0
M  V30 288 C 27.8538 1.90906 0.663285 0
M  V30 289 C 28.1748 0.892509 1.73376 0
M  V30 290 O 27.4448 -0.0677623 1.95783 0
M  V30 291 H 26.0248 0.704637 0.247983 0
M  V30 292 H 28.6868 1.94803 -0.0615909 0
M  V30 293 H 27.7828 2.9116 1.12393 0
M  V30 294 N 28.0839 -0.256276 1.55502 0
M  V30 295 C 29.0309 -1.31714 1.89526 0
M  V30 296 C 30.0009 -1.4828 0.748479 0
M  V30 297 O 31.1859 -1.62416 1.00128 0
M  V30 298 C 28.3259 -2.66933 2.18725 0
M  V30 299 C 27.4389 -2.58452 3.4616 0
M  V30 300 C 26.5739 -3.85961 3.64976 0
M  V30 301 C 25.6129 -3.72059 4.86044 0
M  V30 302 N 24.7499 -4.9144 5.01429 0
M  V30 303 H 29.5899 -1.01998 2.80001 0
M  V30 304 H 27.1269 -0.492413 1.38613 0
M  V30 305 H 29.0849 -3.4563 2.33657 0
M  V30 306 H 27.7149 -2.94816 1.31466 0
M  V30 307 H 26.7669 -1.71374 3.3961 0
M  V30 308 H 28.0789 -2.44085 4.34999 0
M  V30 309 H 27.2329 -4.73101 3.79816 0
M  V30 310 H 25.9719 -4.03215 2.74353 0
M  V30 311 H 24.9769 -2.83302 4.7119 0
M  V30 312 H 26.2019 -3.56309 5.78118 0
M  V30 313 H 24.1479 -5.09072 4.13741 0
M  V30 314 H 24.0649 -4.79668 5.84341 0
M  V30 315 H 25.3329 -5.80104 5.20672 0
M  V30 316 N 29.562 -1.4872 -0.521534 0
M  V30 317 C 30.973 -1.50607 -1.10337 0
M  V30 318 C 31.324 -0.280612 -1.94183 0
M  V30 319 O 30.449 0.611507 -2.0758 0
M  V30 320 C 31.044 -2.72903 -2.00772 0
M  V30 321 C 29.603 -2.77634 -2.54158 0
M  V30 322 C 28.75 -2.44241 -1.31307 0
M  V30 323 H 31.701 -1.55714 -0.306388 0
M  V30 324 H 31.722 -2.519 -2.85178 0
M  V30 325 H 31.234 -3.62077 -1.39721 0
M  V30 326 H 29.335 -1.92689 -3.18907 0
M  V30 327 H 29.448 -3.79283 -2.92714 0
M  V30 328 H 27.812 -1.95577 -1.63161 0
M  V30 329 H 28.595 -3.35666 -0.719943 0
M  V30 330 N 31.0401 0.771051 -1.3745 0
M  V30 331 C 31.9701 1.89827 -1.3597 0
M  V30 332 C 32.9511 1.68562 -0.228216 0
M  V30 333 O 34.1361 1.8941 -0.428675 0
M  V30 334 C 31.2661 3.2712 -1.16662 0
M  V30 335 C 30.2201 3.6295 -2.2683 0
M  V30 336 C 29.5461 4.98791 -1.92644 0
M  V30 337 C 30.8461 3.69627 -3.69017 0
M  V30 338 H 32.5401 1.91323 -2.30295 0
M  V30 339 H 30.0861 0.919082 -1.10855 0
M  V30 340 H 32.0391 4.05615 -1.14256 0
M  V30 341 H 30.7631 3.26059 -0.187926 0
M  V30 342 H 29.4221 2.86763 -2.28392 0
M  V30 343 H 29.0701 4.94271 -0.933021 0
M  V30 344 H 28.7701 5.23733 -2.66416 0
M  V30 345 H 30.2941 5.79685 -1.91826 0
M  V30 346 H 31.7081 4.38273 -3.69581 0
M  V30 347 H 30.1051 4.06067 -4.41848 0
M  V30 348 H 31.1751 2.70273 -4.02592 0
M  V30 349 N 32.5182 1.22032 0.997298 0
M  V30 350 C 33.4482 1.01065 2.10495 0
M  V30 351 C 34.4292 -0.0669542 1.69968 0
M  V30 352 O 35.6142 0.0943987 1.9397 0
M  V30 353 C 32.7442 0.582874 3.42374 0
M  V30 354 C 31.6982 1.60592 3.96729 0
M  V30 355 C 31.0242 1.03412 5.24605 0
M  V30 356 C 32.3242 2.99478 4.27914 0
M  V30 357 H 34.0182 1.93708 2.28292 0
M  V30 358 H 31.5642 0.932761 1.09707 0
M  V30 359 H 33.5172 0.423332 4.19268 0
M  V30 360 H 32.2412 -0.379213 3.24391 0
M  V30 361 H 30.9002 1.75316 3.21963 0
M  V30 362 H 30.5482 0.063518 5.0296 0
M  V30 363 H 30.2482 1.71754 5.61938 0
M  V30 364 H 31.7722 0.886066 6.04137 0
M  V30 365 H 33.1862 2.88153 4.95622 0
M  V30 366 H 31.5832 3.64903 4.76409 0
M  V30 367 H 32.6532 3.49742 3.3587 0
M  V30 368 N 33.9963 -1.19345 1.0293 0
M  V30 369 C 35.2733 -1.84811 0.640642 0
M  V30 370 C 35.6533 -1.91855 -0.88062 0
M  V30 371 O 35.0013 -1.43587 -1.7775 0
M  V30 372 C 35.2113 -3.23755 1.30321 0
M  V30 373 C 36.5593 -3.99912 1.42673 0
M  V30 374 O 37.5833 -3.33155 1.26041 0
M  V30 375 O 36.4423 -5.19494 1.6967 0
M  V30 376 H 33.5363 -0.796443 0.222726 0
M  V30 377 H 36.0823 -1.26831 1.12748 0
M  V30 378 H 34.8543 -3.13466 2.34211 0
M  V30 379 H 34.4773 -3.89381 0.804261 0
M  V30 380 N 35.4744 -0.807222 -1.35358 0
M  V30 381 C 36.7234 -0.384376 -1.98004 0
M  V30 382 C 37.0364 1.0543 -1.64754 0
M  V30 383 O 38.2424 1.58029 -2.20769 0
M  V30 384 C 36.6984 -0.636326 -3.5423 0
M  V30 385 C 36.3064 -2.08759 -3.96388 0
M  V30 386 C 38.0504 -0.278869 -4.23583 0
M  V30 387 C 35.9574 -2.28525 -5.45463 0
M  V30 388 H 34.8874 -0.139986 -0.740891 0
M  V30 389 H 37.5384 -0.991369 -1.54415 0
M  V30 390 H 35.9204 0.0406256 -3.95979 0
M  V30 391 H 37.0944 -2.8024 -3.6579 0
M  V30 392 H 35.4094 -2.40497 -3.39926 0
M  V30 393 H 38.0064 -0.404599 -5.33167 0
M  V30 394 H 38.3494 0.775012 -4.09022 0
M  V30 395 H 38.8824 -0.909764 -3.87257 0
M  V30 396 H 35.6214 -3.32361 -5.64992 0
M  V30 397 H 35.1414 -1.61569 -5.77629 0
M  V30 398 H 36.8204 -2.10109 -6.11934 0
M  V30 399 N 36.9525 1.47285 -0.560781 0
M  V30 400 C 38.1985 2.02764 -0.0381184 0
M  V30 401 C 38.5315 1.43384 1.30976 0
M  V30 402 O 37.8065 0.590733 1.85312 0
M  V30 403 C 38.0895 3.60064 0.0511427 0
M  V30 404 C 37.9425 4.2987 -1.32408 0
M  V30 405 C 39.2615 4.33439 0.762795 0
M  V30 406 H 36.3805 0.736841 -0.0153264 0
M  V30 407 H 39.0225 1.75675 -0.723759 0
M  V30 408 H 37.1725 3.83274 0.635065 0
M  V30 409 H 38.8445 4.17989 -1.95148 0
M  V30 410 H 37.0875 3.90085 -1.8978 0
M  V30 411 H 37.7585 5.38478 -1.21431 0
M  V30 412 H 40.2345 4.15243 0.266965 0
M  V30 413 H 39.1105 5.43124 0.794221 0
M  V30 414 H 39.3715 4.02915 1.81966 0
M  V30 415 N 38.4306 0.297415 1.54768 0
M  V30 416 C 39.6786 -0.312295 1.99673 0
M  V30 417 C 39.9996 -1.54686 1.18732 0
M  V30 418 O 39.2696 -1.93854 0.282382 0
M  V30 419 H 37.8496 -0.118381 0.73756 0
M  V30 420 H 40.5116 0.407915 1.90583 0
M  V30 421 H 39.6076 -0.586813 3.06534 0
M  V30 422 N 39.9087 -1.5758 0.0250728 0
M  V30 423 C 40.8557 -2.09973 -0.958129 0
M  V30 424 C 41.8257 -1.00085 -1.3256 0
M  V30 425 O 43.0107 -1.27481 -1.41962 0
M  V30 426 C 40.1507 -2.62812 -2.2366 0
M  V30 427 C 39.2637 -3.86693 -1.92594 0
M  V30 428 C 38.3987 -4.27941 -3.14707 0
M  V30 429 C 37.4377 -5.44591 -2.79442 0
M  V30 430 N 36.5747 -5.81014 -3.94167 0
M  V30 431 H 41.4147 -2.937 -0.504428 0
M  V30 432 H 38.9517 -1.45172 -0.237392 0
M  V30 433 H 40.9097 -2.91536 -2.98434 0
M  V30 434 H 39.5397 -1.81922 -2.66654 0
M  V30 435 H 38.5917 -3.64723 -1.0808 0
M  V30 436 H 39.9037 -4.71547 -1.62619 0
M  V30 437 H 39.0577 -4.58079 -3.97804 0
M  V30 438 H 37.7967 -3.41845 -3.4784 0
M  V30 439 H 36.8017 -5.1415 -1.94755 0
M  V30 440 H 38.0267 -6.32382 -2.47528 0
M  V30 441 H 35.9727 -4.97874 -4.2715 0
M  V30 442 H 35.8897 -6.60498 -3.67801 0
M  V30 443 H 37.1577 -6.15756 -4.7798 0
M  V30 444 N 41.3868 0.248026 -1.55636 0
M  V30 445 C 42.7978 0.817177 -1.67866 0
M  V30 446 C 43.1488 1.86069 -0.622322 0
M  V30 447 O 42.2738 2.15157 0.231618 0
M  V30 448 C 42.8688 1.489 -3.04326 0
M  V30 449 C 41.4278 2.00587 -3.185 0
M  V30 450 C 40.5748 0.856573 -2.63739 0
M  V30 451 H 43.5258 0.0238579 -1.58682 0
M  V30 452 H 43.5468 2.35698 -2.98708 0
M  V30 453 H 43.0588 0.729279 -3.81186 0
M  V30 454 H 41.1598 2.79443 -2.4646 0
M  V30 455 H 41.2728 2.20402 -4.25393 0
M  V30 456 H 39.6368 1.25678 -2.21534 0
M  V30 457 H 40.4198 0.109953 -3.43124 0
M  V30 458 N 42.8649 1.48995 0.513639 0
M  V30 459 C 43.7979 1.59319 1.63379 0
M  V30 460 C 44.7759 0.442816 1.56454 0
M  V30 461 O 45.9599 0.656655 1.76693 0
M  V30 462 C 43.0869 1.5364 3.01848 0
M  V30 463 C 42.1329 2.7372 3.27078 0
M  V30 464 S 42.9659 4.35528 3.1157 0
M  V30 465 C 44.1219 4.32473 4.52458 0
M  V30 466 H 44.3549 2.54079 1.54374 0
M  V30 467 H 41.8879 1.3773 0.697849 0
M  V30 468 H 43.8459 1.51049 3.81699 0
M  V30 469 H 42.5069 0.601898 3.08279 0
M  V30 470 H 41.6999 2.6593 4.28132 0
M  V30 471 H 41.3019 2.73657 2.54927 0
M  V30 472 H 43.5939 4.03414 5.44301 0
M  V30 473 H 44.5369 5.33762 4.65299 0
M  V30 474 H 44.9449 3.62718 4.32546 0
M  V30 475 N 44.343 -0.763751 1.37857 0
M  V30 476 C 45.592 -1.51789 1.32827 0
M  V30 477 C 45.905 -1.95426 -0.0823719 0
M  V30 478 O 47.111 -2.70298 -0.255172 0
M  V30 479 C 45.567 -2.74133 2.33193 0
M  V30 480 C 45.175 -2.37562 3.79827 0
M  V30 481 C 46.919 -3.52054 2.37188 0
M  V30 482 C 44.826 -3.56456 4.71904 0
M  V30 483 H 43.756 -0.569896 0.493695 0
M  V30 484 H 46.407 -0.835822 1.63359 0
M  V30 485 H 44.789 -3.4427 1.9569 0
M  V30 486 H 45.963 -1.75157 4.26212 0
M  V30 487 H 44.278 -1.72798 3.78853 0
M  V30 488 H 46.875 -4.40437 3.03182 0
M  V30 489 H 47.218 -3.92486 1.38782 0
M  V30 490 H 47.751 -2.88921 2.7344 0
M  V30 491 H 44.49 -3.21099 5.71468 0
M  V30 492 H 44.01 -4.17938 4.30218 0
M  V30 493 H 45.689 -4.23168 4.89426 0
M  V30 494 N 45.8211 -1.22559 -0.990812 0
M  V30 495 C 46.7531 -0.955325 -2.08342 0
M  V30 496 C 47.7661 0.0668408 -1.62663 0
M  V30 497 O 48.9551 -0.167421 -1.77713 0
M  V30 498 C 46.0551 -0.415566 -3.36342 0
M  V30 499 C 45.2281 -1.49544 -4.11042 0
M  V30 500 C 44.2871 -0.962399 -5.17324 0
M  V30 501 O 43.3131 -1.64907 -5.44788 0
M  V30 502 N 44.5151 0.215134 -5.80101 0
M  V30 503 H 47.2801 -1.89596 -2.32106 0
M  V30 504 H 44.8411 -1.13276 -1.15673 0
M  V30 505 H 46.8331 -0.0442386 -4.04676 0
M  V30 506 H 45.4031 0.430232 -3.09625 0
M  V30 507 H 44.6231 -2.04 -3.37309 0
M  V30 508 H 45.9111 -2.22195 -4.57719 0
M  V30 509 H 45.3091 0.789779 -5.6016 0
M  V30 510 H 43.8661 0.527826 -6.49659 0
M  V30 511 N 47.2992 1.18797 -1.03562 0
M  V30 512 C 48.2492 2.20161 -0.592724 0
M  V30 513 C 49.2332 1.56772 0.362133 0
M  V30 514 O 50.4252 1.76062 0.182009 0
M  V30 515 C 47.5542 3.43266 0.0481024 0
M  V30 516 C 46.6402 4.13786 -0.9296 0
M  V30 517 N 47.0312 4.60388 -2.09467 0
M  V30 518 C 45.3292 4.39572 -0.754499 0
M  V30 519 C 46.0302 5.14619 -2.71187 0
M  V30 520 N 45.0062 5.05826 -1.991 0
M  V30 521 H 48.8082 2.53877 -1.48066 0
M  V30 522 H 46.3222 1.34946 -0.903514 0
M  V30 523 H 48.3192 4.15136 0.383058 0
M  V30 524 H 46.9792 3.11048 0.931636 0
M  V30 525 H 47.9902 4.54999 -2.47379 0
M  V30 526 H 44.6672 4.17425 0.0793713 0
M  V30 527 H 46.0572 5.60917 -3.69895 0
M  V30 528 N 48.7773 0.814389 1.34928 0
M  V30 529 C 50.0233 0.399013 1.98836 0
M  V30 530 C 50.3563 -1.03314 1.64438 0
M  V30 531 O 49.6313 -1.71811 0.911659 0
M  V30 532 C 49.9143 0.591629 3.55207 0
M  V30 533 C 49.7673 2.06928 3.99376 0
M  V30 534 C 51.0863 0.022199 4.40094 0
M  V30 535 H 48.2053 0.146451 0.722303 0
M  V30 536 H 50.8473 1.02537 1.59957 0
M  V30 537 H 48.9973 0.0584441 3.88456 0
M  V30 538 H 50.6693 2.66544 3.76499 0
M  V30 539 H 48.9123 2.56287 3.49999 0
M  V30 540 H 49.5833 2.1549 5.08201 0
M  V30 541 H 52.0593 0.477643 4.13349 0
M  V30 542 H 50.9353 0.186832 5.48582 0
M  V30 543 H 51.1963 -1.07215 4.28902 0
M  V30 544 N 50.2554 -1.46986 0.568584 0
M  V30 545 C 51.4854 -2.0653 0.0539173 0
M  V30 546 C 51.8934 -1.42004 -1.25026 0
M  V30 547 O 51.2364 -0.514541 -1.76347 0
M  V30 548 C 51.2984 -3.58938 -0.200854 0
M  V30 549 C 50.9624 -4.45572 1.01559 0
M  V30 550 C 51.9594 -4.82986 1.92407 0
M  V30 551 C 49.6444 -4.8692 1.23346 0
M  V30 552 C 51.6384 -5.60559 3.03402 0
M  V30 553 C 49.3254 -5.64255 2.34649 0
M  V30 554 C 50.3234 -6.00986 3.24507 0
M  V30 555 O 50.0114 -6.76761 4.33878 0
M  V30 556 H 49.7434 -0.674292 0.0480234 0
M  V30 557 H 52.2974 -1.89812 0.784896 0
M  V30 558 H 50.5274 -3.73911 -0.986279 0
M  V30 559 H 52.2164 -4.0046 -0.662294 0
M  V30 560 H 52.9824 -4.51633 1.76785 0
M  V30 561 H 48.8614 -4.57789 0.543178 0
M  V30 562 H 52.4054 -5.89147 3.73565 0
M  V30 563 H 48.3024 -5.95021 2.5024 0
M  V30 564 H 49.0704 -6.95168 4.32068 0
M  V30 565 N 51.7335 -0.305618 -1.54608 0
M  V30 566 C 52.6435 0.57778 -2.27374 0
M  V30 567 C 53.6595 1.14451 -1.31061 0
M  V30 568 O 54.8355 1.16831 -1.6405 0
M  V30 569 C 51.9005 1.73123 -3.00382 0
M  V30 570 C 50.9615 1.19812 -4.12242 0
M  V30 571 C 50.1945 2.2966 -4.81759 0
M  V30 572 O 50.4175 3.49651 -4.50666 0
M  V30 573 O 49.3515 1.96091 -5.69062 0
M  V30 574 H 53.1775 -0.012624 -3.03697 0
M  V30 575 H 50.7625 -0.0719184 -1.49227 0
M  V30 576 H 52.6445 2.40315 -3.4616 0
M  V30 577 H 51.3195 2.30815 -2.26949 0
M  V30 578 H 50.2265 0.491798 -3.70853 0
M  V30 579 H 51.5595 0.666566 -4.87666 0
M  V30 580 N 53.2116 1.57565 -0.0334293 0
M  V30 581 C 54.6276 1.56297 0.322997 0
M  V30 582 C 54.8276 1.03945 1.7262 0
M  V30 583 O 53.8836 0.688109 2.42943 0
M  V30 584 C 55.1966 3.00232 0.167664 0
M  V30 585 C 56.7446 3.12078 0.240107 0
M  V30 586 C 57.2196 4.57859 0.113513 0
M  V30 587 N 58.7106 4.62887 0.170359 0
M  V30 588 C 59.4456 5.73319 0.0962517 0
M  V30 589 N 58.9416 6.92794 -0.0291881 0
M  V30 590 N 60.7346 5.61898 0.150551 0
M  V30 591 H 52.8856 1.89923 -0.950956 0
M  V30 592 H 55.1486 0.873824 -0.367608 0
M  V30 593 H 54.8546 3.42501 -0.799102 0
M  V30 594 H 54.7286 3.654 0.936083 0
M  V30 595 H 57.1156 2.69718 1.19733 0
M  V30 596 H 57.1966 2.49623 -0.558763 0
M  V30 597 H 56.8406 5.009 -0.840314 0
M  V30 598 H 56.7706 5.18299 0.931302 0
M  V30 599 H 59.2616 3.76954 0.26728 0
M  V30 600 H 59.5746 7.7276 -0.0789252 0
M  V30 601 H 57.9196 6.94971 -0.0640299 0
M  V30 602 H 61.1106 4.67448 0.246981 0
M  V30 603 H 61.2836 6.47938 0.0893365 0
M  V30 604 N 54.6897 -0.239769 1.55765 0
M  V30 605 C 55.6527 -1.28038 1.90103 0
M  V30 606 C 56.6527 -1.40723 0.778055 0
M  V30 607 O 57.8427 -1.39301 1.04599 0
M  V30 608 C 54.9747 -2.65702 2.13577 0
M  V30 609 H 56.1677 -0.988048 2.83157 0
M  V30 610 H 53.7207 -0.479382 1.48767 0
M  V30 611 H 54.4557 -3.00063 1.23015 0
M  V30 612 H 54.2407 -2.57875 2.95369 0
M  V30 613 H 55.7307 -3.40828 2.41301 0
M  V30 614 N 56.1678 -1.49265 -0.50573 0
M  V30 615 C 57.0978 -1.68495 -1.61653 0
M  V30 616 C 58.0788 -0.53366 -1.61512 0
M  V30 617 O 59.2638 -0.76897 -1.78327 0
M  V30 618 C 56.3938 -1.74709 -3.00157 0
M  V30 619 C 55.3478 -2.89581 -3.15162 0
M  V30 620 C 54.6738 -2.80903 -4.5497 0
M  V30 621 C 55.9738 -4.30578 -2.95634 0
M  V30 622 H 57.6678 -2.61493 -1.45814 0
M  V30 623 H 55.2138 -1.25838 -0.70005 0
M  V30 624 H 57.1668 -1.86748 -3.77761 0
M  V30 625 H 55.8908 -0.783067 -3.17074 0
M  V30 626 H 54.5498 -2.77136 -2.39982 0
M  V30 627 H 54.1978 -1.82419 -4.68756 0
M  V30 628 H 53.8978 -3.57999 -4.65951 0
M  V30 629 H 55.4218 -2.94944 -5.34641 0
M  V30 630 H 56.8358 -4.4373 -3.63011 0
M  V30 631 H 55.2328 -5.0886 -3.18091 0
M  V30 632 H 56.3028 -4.45352 -1.91806 0
M  V30 633 N 57.6459 0.756429 -1.3826 0
M  V30 634 C 58.5779 1.87971 -1.31147 0
M  V30 635 C 59.5909 1.61248 -0.224239 0
M  V30 636 O 60.7799 1.71881 -0.481581 0
M  V30 637 C 57.8799 3.23545 -1.00857 0
M  V30 638 C 57.0529 3.77794 -2.20432 0
M  V30 639 C 56.1119 4.91877 -1.86931 0
M  V30 640 O 55.1379 5.06659 -2.59395 0
M  V30 641 N 56.3399 5.74643 -0.822568 0
M  V30 642 H 59.1049 1.94585 -2.2794 0
M  V30 643 H 56.6659 0.936234 -1.32084 0
M  V30 644 H 58.6579 3.97403 -0.765021 0
M  V30 645 H 57.2279 3.12335 -0.128687 0
M  V30 646 H 56.4479 2.95534 -2.6087 0
M  V30 647 H 57.7359 4.10771 -3.00241 0
M  V30 648 H 57.1339 5.65266 -0.221575 0
M  V30 649 H 55.6909 6.48661 -0.638899 0
M  V30 650 N 59.124 1.23083 0.984299 0
M  V30 651 C 60.37 1.06214 1.72761 0
M  V30 652 C 60.703 -0.400584 1.90024 0
M  V30 653 O 59.978 -1.29672 1.44967 0
M  V30 654 C 60.261 1.78375 3.12817 0
M  V30 655 C 60.114 3.32296 3.03149 0
M  V30 656 C 61.433 1.54309 4.12161 0
M  V30 657 H 58.552 0.387251 0.627061 0
M  V30 658 H 61.194 1.51536 1.14616 0
M  V30 659 H 59.344 1.39848 3.62457 0
M  V30 660 H 61.016 3.8032 2.61064 0
M  V30 661 H 59.259 3.6153 2.39747 0
M  V30 662 H 59.93 3.77972 4.02295 0
M  V30 663 H 62.406 1.87791 3.71314 0
M  V30 664 H 61.282 2.07281 5.08258 0
M  V30 665 H 61.543 0.477572 4.39513 0
M  V30 666 N 60.6021 -1.18246 1.0419 0
M  V30 667 C 61.5651 -2.20128 0.638452 0
M  V30 668 C 62.5651 -1.57885 -0.304805 0
M  V30 669 O 63.7551 -1.73967 -0.0900369 0
M  V30 670 C 60.8871 -3.4084 -0.0637751 0
M  V30 671 H 62.0801 -2.57336 1.54007 0
M  V30 672 H 59.6331 -1.32152 0.834598 0
M  V30 673 H 60.3681 -3.09166 -0.979136 0
M  V30 674 H 60.1531 -3.8726 0.614198 0
M  V30 675 H 61.6431 -4.16274 -0.332512 0
M  V30 676 N 62.0802 -0.821533 -1.34494 0
M  V30 677 C 63.3282 -0.408139 -1.97936 0
M  V30 678 C 63.6492 1.03193 -1.65457 0
M  V30 679 O 62.9192 1.71622 -0.944595 0
M  V30 680 H 61.4992 -0.147928 -0.732206 0
M  V30 681 H 64.1612 -1.05067 -1.64155 0
M  V30 682 H 63.2572 -0.52601 -3.07635 0
M  V30 683 N 63.5583 1.46682 -0.576371 0
M  V30 684 C 64.8043 2.02712 -0.0596221 0
M  V30 685 C 65.1373 1.44765 1.29448 0
M  V30 686 O 64.4123 0.610355 1.84675 0
M  V30 687 C 64.6953 3.60098 0.0129503 0
M  V30 688 C 64.5483 4.28441 -1.3696 0
M  V30 689 C 65.8673 4.34224 0.71678 0
M  V30 690 H 62.9863 0.736637 -0.0231407 0
M  V30 691 H 65.6283 1.74898 -0.742351 0
M  V30 692 H 63.7783 3.83926 0.594378 0
M  V30 693 H 65.4503 4.15896 -1.9957 0
M  V30 694 H 63.6933 3.8805 -1.93907 0
M  V30 695 H 64.3643 5.3716 -1.27135 0
M  V30 696 H 66.8403 4.15503 0.222908 0
M  V30 697 H 65.7163 5.43936 0.73657 0
M  V30 698 H 65.9773 4.04823 1.77682 0
M  V30 699 N 65.0364 0.313813 1.54444 0
M  V30 700 C 65.9994 -0.54379 2.22656 0
M  V30 701 C 66.9994 -1.05124 1.21678 0
M  V30 702 O 68.1894 -0.945225 1.46325 0
M  V30 703 C 65.3214 -1.75427 2.92298 0
M  V30 704 H 66.5144 0.0523599 2.99854 0
M  V30 705 H 64.0674 0.0647834 1.56166 0
M  V30 706 H 64.8024 -2.38991 2.19211 0
M  V30 707 H 64.5874 -1.39791 3.66334 0
M  V30 708 H 66.0774 -2.36325 3.44297 0
M  V30 709 N 66.5145 -1.57545 0.0417849 0
M  V30 710 C 67.4245 -2.14451 -0.951213 0
M  V30 711 C 68.4405 -1.09992 -1.34825 0
M  V30 712 O 69.6165 -1.42114 -1.42708 0
M  V30 713 C 66.6815 -2.67063 -2.21084 0
M  V30 714 C 65.7425 -3.86284 -1.87304 0
M  V30 715 C 64.9755 -4.36378 -3.07261 0
M  V30 716 O 65.1985 -3.85587 -4.20332 0
M  V30 717 O 64.1325 -5.28077 -2.88822 0
M  V30 718 H 67.9585 -2.99601 -0.497287 0
M  V30 719 H 65.5435 -1.48317 -0.179567 0
M  V30 720 H 67.4255 -3.00914 -2.95006 0
M  V30 721 H 66.1005 -1.84989 -2.65633 0
M  V30 722 H 65.0075 -3.57338 -1.10727 0
M  V30 723 H 66.3405 -4.6956 -1.47562 0
M  V30 724 N 67.9926 0.231505 -1.5589 0
M  V30 725 C 69.2386 0.95877 -1.78705 0
M  V30 726 C 69.5716 1.8438 -0.609725 0
M  V30 727 O 68.8466 1.90521 0.391426 0
M  V30 728 C 69.1296 1.8062 -3.11526 0
M  V30 729 C 68.9826 0.948328 -4.39689 0
M  V30 730 C 70.3016 2.78585 -3.40703 0
M  V30 731 H 67.4206 0.347129 -0.650131 0
M  V30 732 H 70.0626 0.228259 -1.88624 0
M  V30 733 H 68.2126 2.42902 -3.03201 0
M  V30 734 H 69.8846 0.343016 -4.60023 0
M  V30 735 H 68.1276 0.253314 -4.3306 0
M  V30 736 H 68.7986 1.57543 -5.29041 0
M  V30 737 H 71.2746 2.26439 -3.49091 0
M  V30 738 H 70.1506 3.34988 -4.34826 0
M  V30 739 H 70.4116 3.55825 -2.62375 0
M  V30 740 N 69.4707 1.49531 0.497807 0
M  V30 741 C 70.7167 1.60388 1.25089 0
M  V30 742 C 71.0717 0.288328 1.90227 0
M  V30 743 O 70.3647 -0.711706 1.77891 0
M  V30 744 C 70.5587 2.70252 2.33878 0
M  V30 745 C 70.3877 4.12363 1.79408 0
M  V30 746 C 69.1577 4.7911 1.60566 0
M  V30 747 C 71.3557 4.97491 1.30412 0
M  V30 748 N 69.3377 6.05525 1.01059 0
M  V30 749 C 70.7087 6.14411 0.830595 0
M  V30 750 C 72.7637 4.83466 1.19015 0
M  V30 751 C 71.4667 7.1885 0.254371 0
M  V30 752 C 73.4927 5.88057 0.627892 0
M  V30 753 C 72.8547 7.04208 0.16461 0
M  V30 754 H 68.9537 0.641246 0.447579 0
M  V30 755 H 71.5377 1.86549 0.557441 0
M  V30 756 H 69.7087 2.45858 3.0068 0
M  V30 757 H 71.4407 2.70613 3.00917 0
M  V30 758 H 68.1957 4.35961 1.85026 0
M  V30 759 H 68.6197 6.73028 0.732236 0
M  V30 760 H 73.2617 3.93978 1.53431 0
M  V30 761 H 70.9797 8.08036 -0.102052 0
M  V30 762 H 74.5657 5.79266 0.542444 0
M  V30 763 H 73.4457 7.83757 -0.263669 0
M  V30 764 N 70.9488 -0.749086 1.3866 0
M  V30 765 C 72.1948 -1.51056 1.35314 0
M  V30 766 C 72.5278 -1.94121 -0.0553751 0
M  V30 767 O 71.8028 -1.65763 -1.01749 0
M  V30 768 C 72.0858 -2.76003 2.31288 0
M  V30 769 C 71.9388 -2.39047 3.8102 0
M  V30 770 C 73.2578 -3.78046 2.2532 0
M  V30 771 H 70.3768 -0.547972 0.492844 0
M  V30 772 H 73.0188 -0.857628 1.69543 0
M  V30 773 H 71.1688 -3.31716 2.02229 0
M  V30 774 H 72.8408 -1.89074 4.20771 0
M  V30 775 H 71.0838 -1.71449 3.98482 0
M  V30 776 H 71.7548 -3.28462 4.4364 0
M  V30 777 H 74.2308 -3.31884 2.50983 0
M  V30 778 H 73.1068 -4.63159 2.94576 0
M  V30 779 H 73.3678 -4.23957 1.25352 0
M  V30 780 N 72.4269 -1.23603 -0.977757 0
M  V30 781 C 73.3899 -1.02069 -2.05218 0
M  V30 782 C 74.3899 0.0184305 -1.60789 0
M  V30 783 O 75.5799 -0.221569 -1.72785 0
M  V30 784 C 72.7119 -0.544926 -3.36517 0
M  V30 785 H 73.9049 -1.9742 -2.25755 0
M  V30 786 H 71.4579 -1.05684 -1.15155 0
M  V30 787 H 72.1929 0.412241 -3.21669 0
M  V30 788 H 71.9779 -1.2948 -3.70105 0
M  V30 789 H 73.4679 -0.414985 -4.15533 0
M  V30 790 N 73.905 1.17692 -1.04816 0
M  V30 791 C 75.133 1.91786 -0.776254 0
M  V30 792 C 75.548 1.76604 0.667577 0
M  V30 793 O 74.905 1.10067 1.45573 0
M  V30 794 C 74.956 3.42967 -1.14263 0
M  V30 795 O 74.677 3.57678 -2.52978 0
M  V30 796 C 76.178 4.34144 -0.896311 0
M  V30 797 H 73.398 0.608624 -0.282519 0
M  V30 798 H 75.942 1.49268 -1.39783 0
M  V30 799 H 74.097 3.83245 -0.565874 0
M  V30 800 H 74.511 4.51319 -2.67229 0
M  V30 801 H 75.985 5.38744 -1.20244 0
M  V30 802 H 76.462 4.38876 0.168636 0
M  V30 803 H 77.068 3.99574 -1.45672 0
M  V30 804 N 75.3831 0.828654 1.34056 0
M  V30 805 C 76.6601 0.341809 1.9259 0
M  V30 806 C 77.0401 -1.17158 1.75605 0
M  V30 807 O 76.3881 -1.98132 1.13824 0
M  V30 808 C 76.5981 0.777453 3.4023 0
M  V30 809 C 77.9461 0.779579 4.17382 0
M  V30 810 O 78.9701 0.7204 3.48839 0
M  V30 811 O 77.8291 0.857996 5.39723 0
M  V30 812 H 74.9231 0.0946085 0.821571 0
M  V30 813 H 77.4691 0.913827 1.42994 0
M  V30 814 H 76.2411 1.8196 3.46419 0
M  V30 815 H 75.8641 0.181444 3.97186 0
M  V30 816 N 76.8612 -1.46375 0.584142 0
M  V30 817 C 78.1382 -1.956 0.0033388 0
M  V30 818 C 78.5182 -1.52679 -1.45782 0
M  V30 819 O 77.8662 -0.77816 -2.14842 0
M  V30 820 C 78.0762 -3.48551 0.176891 0
M  V30 821 C 79.4242 -4.24576 0.0454609 0
M  V30 822 O 80.4482 -3.56043 0.105801 0
M  V30 823 O 79.3072 -5.46427 -0.0890376 0
M  V30 824 H 76.4012 -0.825547 -0.0490066 0
M  V30 825 H 78.9472 -1.56652 0.65256 0
M  V30 826 H 77.7192 -3.72683 1.1926 0
M  V30 827 H 77.3422 -3.94332 -0.508695 0
M  V30 828 N 78.3393 -0.321999 -1.54275 0
M  V30 829 C 79.7503 0.166384 -1.85957 0
M  V30 830 C 80.1013 1.51747 -1.24367 0
M  V30 831 O 79.2263 2.09317 -0.549124 0
M  V30 832 C 79.8213 0.308681 -3.37391 0
M  V30 833 C 78.3803 0.741286 -3.69028 0
M  V30 834 C 77.5273 -0.137937 -2.76957 0
M  V30 835 H 80.4783 -0.542335 -1.49146 0
M  V30 836 H 80.4993 1.13984 -3.63026 0
M  V30 837 H 80.0113 -0.674809 -3.82188 0
M  V30 838 H 78.1123 1.73458 -3.29762 0
M  V30 839 H 78.2253 0.546118 -4.75977 0
M  V30 840 H 76.5893 0.386251 -2.51754 0
M  V30 841 H 77.3723 -1.11816 -3.2458 0
M  V30 842 N 79.8174 1.5752 -0.0501392 0
M  V30 843 C 81.2334 1.56631 0.306402 0
M  V30 844 C 81.4334 1.0577 1.71508 0
M  V30 845 O 80.4894 0.713837 2.422 0
M  V30 846 C 81.8024 3.00393 0.135811 0
M  V30 847 C 83.3504 3.12315 0.206993 0
M  V30 848 C 83.8254 4.57954 0.064944 0
M  V30 849 N 85.3164 4.63041 0.121254 0
M  V30 850 C 86.0514 5.73389 0.0354381 0
M  V30 851 N 85.5474 6.92724 -0.102666 0
M  V30 852 N 87.3404 5.62026 0.090946 0
M  V30 853 H 79.4914 1.88903 -0.971046 0
M  V30 854 H 81.7544 0.869876 -0.376855 0
M  V30 855 H 81.4604 3.41635 -0.835384 0
M  V30 856 H 81.3344 3.66373 0.897275 0
M  V30 857 H 83.7214 2.70973 1.16866 0
M  V30 858 H 83.8024 2.49016 -0.585208 0
M  V30 859 H 83.4464 4.99981 -0.893394 0
M  V30 860 H 83.3764 5.19258 0.876277 0
M  V30 861 H 85.8674 3.77216 0.227284 0
M  V30 862 H 86.1804 7.72633 -0.160882 0
M  V30 863 H 84.5254 6.94864 -0.137737 0
M  V30 864 H 87.7164 4.67684 0.197388 0
M  V30 865 H 87.8894 6.47997 0.0206089 0
M  V30 866 N 81.2955 -0.223234 1.56011 0
M  V30 867 C 82.5415 -0.949279 1.79211 0
M  V30 868 C 82.8745 -1.84054 0.619494 0
M  V30 869 O 82.1495 -1.90726 -0.381317 0
M  V30 870 C 82.4325 -1.78965 3.12479 0
M  V30 871 C 82.2855 -0.924997 4.40186 0
M  V30 872 C 83.6045 -2.76774 3.42175 0
M  V30 873 H 80.7235 -0.343676 0.651963 0
M  V30 874 H 83.3655 -0.218253 1.88742 0
M  V30 875 H 81.5155 -2.41291 3.04485 0
M  V30 876 H 83.1875 -0.318615 4.60198 0
M  V30 877 H 81.4305 -0.230344 4.33188 0
M  V30 878 H 82.1015 -1.54735 5.29869 0
M  V30 879 H 84.5775 -2.24584 3.50287 0
M  V30 880 H 83.4535 -3.32678 4.36597 0
M  V30 881 H 83.7145 -3.54429 2.64258 0
M  V30 882 N 82.7736 -1.49793 -0.48987 0
M  V30 883 C 83.6836 -1.70036 -1.61632 0
M  V30 884 C 84.6996 -0.583102 -1.63939 0
M  V30 885 O 85.8756 -0.859169 -1.82154 0
M  V30 886 C 82.9406 -1.77277 -2.97949 0
M  V30 887 C 82.0016 -3.00918 -3.06181 0
M  V30 888 C 81.2346 -3.07804 -4.35996 0
M  V30 889 O 81.4576 -2.21982 -5.25433 0
M  V30 890 O 80.3916 -4.00369 -4.49431 0
M  V30 891 H 84.2176 -2.65486 -1.47482 0
M  V30 892 H 81.8026 -1.33666 -0.667362 0
M  V30 893 H 83.6846 -1.84329 -3.78947 0
M  V30 894 H 82.3596 -0.850076 -3.12339 0
M  V30 895 H 81.2666 -2.99377 -2.2433 0
M  V30 896 H 82.5996 -3.92704 -2.96723 0
M  V30 897 N 84.2517 0.741722 -1.39055 0
M  V30 898 C 85.1837 1.8657 -1.33133 0
M  V30 899 C 86.1967 1.61001 -0.241329 0
M  V30 900 O 87.3857 1.7136 -0.499784 0
M  V30 901 C 84.4857 3.22457 -1.04283 0
M  V30 902 C 83.6587 3.75435 -2.24427 0
M  V30 903 C 82.7177 4.89867 -1.92138 0
M  V30 904 O 81.7437 5.03879 -2.64754 0
M  V30 905 N 82.9457 5.73738 -0.88347 0
M  V30 906 H 85.7107 1.92156 -2.29991 0
M  V30 907 H 83.2717 0.922172 -1.3307 0
M  V30 908 H 85.2637 3.9657 -0.807128 0
M  V30 909 H 83.8337 3.12181 -0.161807 0
M  V30 910 H 83.0537 2.92751 -2.6399 0
M  V30 911 H 84.3417 4.07563 -3.04581 0
M  V30 912 H 83.7397 5.64999 -0.281517 0
M  V30 913 H 82.2967 6.47947 -0.707662 0
M  V30 914 N 85.7298 1.2412 0.971189 0
M  V30 915 C 86.6928 1.03156 2.04674 0
M  V30 916 C 87.6928 -0.00990322 1.60797 0
M  V30 917 O 88.8828 0.230729 1.72665 0
M  V30 918 C 86.0148 0.562765 3.36223 0
M  V30 919 H 87.2078 1.98614 2.24705 0
M  V30 920 H 84.7608 1.06293 1.14593 0
M  V30 921 H 85.4958 -0.395176 3.21883 0
M  V30 922 H 85.2808 1.31441 3.69413 0
M  V30 923 H 86.7708 0.437015 4.15307 0
M  V30 924 N 87.2079 -1.17134 1.05439 0
M  V30 925 C 88.4539 -1.87733 0.767077 0
M  V30 926 C 88.7869 -1.8098 -0.704253 0
M  V30 927 O 88.0619 -1.21951 -1.5152 0
M  V30 928 C 88.3449 -3.37659 1.25133 0
M  V30 929 C 88.1979 -3.53149 2.78578 0
M  V30 930 C 89.5169 -4.31768 0.852324 0
M  V30 931 H 86.6359 -0.681687 0.280129 0
M  V30 932 H 89.2779 -1.37732 1.30881 0
M  V30 933 H 87.4279 -3.80373 0.790469 0
M  V30 934 H 89.0999 -3.19434 3.32806 0
M  V30 935 H 87.3429 -2.95345 3.17732 0
M  V30 936 H 88.0139 -4.58403 3.07523 0
M  V30 937 H 90.4899 -3.96909 1.24911 0
M  V30 938 H 89.3659 -5.35199 1.21873 0
M  V30 939 H 89.6269 -4.41429 -0.243485 0
M  V30 940 N 88.686 -0.835752 -1.33615 0
M  V30 941 C 89.618 -0.224151 -2.28101 0
M  V30 942 C 90.631 0.593331 -1.51603 0
M  V30 943 O 91.82 0.420911 -1.73466 0
M  V30 944 C 88.92 0.703309 -3.31522 0
M  V30 945 C 88.093 -0.0741528 -4.37337 0
M  V30 946 C 87.152 0.776176 -5.20444 0
M  V30 947 O 86.178 0.216506 -5.68788 0
M  V30 948 N 87.38 2.09401 -5.41416 0
M  V30 949 H 90.145 -1.03598 -2.81225 0
M  V30 950 H 87.706 -0.69392 -1.46275 0
M  V30 951 H 89.698 1.27707 -3.84022 0
M  V30 952 H 88.268 1.41585 -2.78698 0
M  V30 953 H 87.488 -0.82928 -3.85378 0
M  V30 954 H 88.776 -0.608863 -5.05144 0
M  V30 955 H 88.174 2.57229 -5.03835 0
M  V30 956 H 86.731 2.61633 -5.96985 0
M  V30 957 N 90.1641 1.46063 -0.591896 0
M  V30 958 C 91.1271 2.28854 0.125973 0
M  V30 959 C 92.1271 1.38903 0.810107 0
M  V30 960 O 93.3171 1.61186 0.66066 0
M  V30 961 C 90.4491 3.19526 1.1881 0
M  V30 962 H 91.6421 2.93802 -0.601717 0
M  V30 963 H 89.1951 1.52325 -0.350254 0
M  V30 964 H 89.9301 2.59345 1.94707 0
M  V30 965 H 89.7151 3.85766 0.701936 0
M  V30 966 H 91.2051 3.81817 1.69132 0
M  V30 967 N 91.6422 0.330177 1.54103 0
M  V30 968 C 92.8892 -0.270405 2.00686 0
M  V30 969 C 93.2172 -1.51621 1.21825 0
M  V30 970 O 92.4722 -1.93536 0.29025 0
M  V30 971 C 92.7712 -0.643134 3.51566 0
M  V30 972 C 92.4372 0.504251 4.48072 0
M  V30 973 C 91.0992 0.819163 4.74176 0
M  V30 974 C 93.4512 1.27465 5.05373 0
M  V30 975 C 90.7792 1.90708 5.5484 0
M  V30 976 C 93.1312 2.35271 5.87223 0
M  V30 977 C 91.7952 2.67336 6.11627 0
M  V30 978 H 91.0652 -0.0989482 0.734364 0
M  V30 979 H 93.7122 0.455324 1.86008 0
M  V30 980 H 92.0172 -1.44938 3.64006 0
M  V30 981 H 93.7142 -1.11949 3.85056 0
M  V30 982 H 90.3042 0.248733 4.27878 0
M  V30 983 H 94.4882 1.04462 4.85182 0
M  V30 984 H 89.7442 2.15991 5.71977 0
M  V30 985 H 93.9182 2.95405 6.30641 0
M  V30 986 H 91.5452 3.51763 6.73919 0
M  V30 987 N 93.1203 -1.57491 0.0584922 0
M  V30 988 C 94.3683 -1.92597 -0.612436 0
M  V30 989 C 94.6893 -0.938162 -1.70949 0
M  V30 990 O 93.9593 0.0158301 -1.95894 0
M  V30 991 H 92.5393 -0.710964 -0.229214 0
M  V30 992 H 95.2013 -1.94571 0.113218 0
M  V30 993 H 94.2973 -2.94038 -1.04633 0
M  V30 994 N 94.5984 0.214957 -1.56127 0
M  V30 995 C 95.8464 0.936518 -1.79091 0
M  V30 996 C 96.1674 1.84606 -0.628148 0
M  V30 997 O 95.4374 1.92664 0.35462 0
M  V30 998 H 94.0174 0.3488 -0.660566 0
M  V30 999 H 96.6794 0.22523 -1.93594 0
M  V30 1000 H 95.7754 1.53943 -2.71492 0
M  V30 1001 N 96.0765 1.50051 0.48192 0
M  V30 1002 C 97.0235 1.68122 1.58125 0
M  V30 1003 C 97.9935 0.522545 1.57666 0
M  V30 1004 O 99.1785 0.751844 1.75362 0
M  V30 1005 C 96.3185 1.77142 2.96167 0
M  V30 1006 C 95.4315 3.0444 3.06497 0
M  V30 1007 C 94.5665 3.04321 4.35387 0
M  V30 1008 C 93.6055 4.26118 4.3942 0
M  V30 1009 N 92.7425 4.238 5.59766 0
M  V30 1010 H 97.5825 2.6198 1.42022 0
M  V30 1011 H 95.1195 1.29877 0.690687 0
M  V30 1012 H 97.0775 1.80352 3.76203 0
M  V30 1013 H 95.7075 0.867329 3.1093 0
M  V30 1014 H 94.7595 3.10752 2.19402 0
M  V30 1015 H 96.0715 3.94426 3.05336 0
M  V30 1016 H 95.2255 3.062 5.23762 0
M  V30 1017 H 93.9645 2.12147 4.39141 0
M  V30 1018 H 92.9695 4.24463 3.49444 0
M  V30 1019 H 94.1945 5.19507 4.37366 0
M  V30 1020 H 92.1405 3.34474 5.64326 0
M  V30 1021 H 92.0575 5.07542 5.60301 0
M  V30 1022 H 93.3255 4.2981 6.50295 0
M  V30 1023 N 97.5546 -0.734337 1.39446 0
M  V30 1024 C 98.5176 -1.83004 1.37994 0
M  V30 1025 C 99.5176 -1.58397 0.276938 0
M  V30 1026 O 100.708 -1.65785 0.534875 0
M  V30 1027 C 97.8396 -3.20802 1.1532 0
M  V30 1028 H 99.0326 -1.85694 2.35494 0
M  V30 1029 H 96.5856 -0.938059 1.25021 0
M  V30 1030 H 97.3206 -3.23772 0.185036 0
M  V30 1031 H 97.1056 -3.4006 1.95197 0
M  V30 1032 H 98.5956 -4.00862 1.17046 0
M  V30 1033 N 99.0327 -1.24633 -0.964593 0
M  V30 1034 C 100.282 -1.08188 -1.7023 0
M  V30 1035 C 100.595 0.37873 -1.91898 0
M  V30 1036 O 101.801 0.663427 -2.6327 0
M  V30 1037 C 100.257 -1.88773 -3.06419 0
M  V30 1038 C 99.8647 -3.39263 -2.92582 0
M  V30 1039 C 101.609 -1.80867 -3.84041 0
M  V30 1040 C 99.5157 -4.1218 -4.24101 0
M  V30 1041 H 98.4457 -0.401245 -0.638372 0
M  V30 1042 H 101.097 -1.48742 -1.07462 0
M  V30 1043 H 99.4787 -1.41035 -3.70034 0
M  V30 1044 H 100.653 -3.94603 -2.37961 0
M  V30 1045 H 98.9677 -3.48154 -2.28424 0
M  V30 1046 H 101.565 -2.32646 -4.81435 0
M  V30 1047 H 101.908 -0.774543 -4.09031 0
M  V30 1048 H 102.441 -2.26301 -3.27159 0
M  V30 1049 H 99.1797 -5.15965 -4.04303 0
M  V30 1050 H 98.6997 -3.61626 -4.78526 0
M  V30 1051 H 100.379 -4.19349 -4.92702 0
M  V30 1052 N 100.511 1.16574 -1.06058 0
M  V30 1053 C 101.444 2.19798 -0.61352 0
M  V30 1054 C 102.422 1.58509 0.362453 0
M  V30 1055 O 103.606 1.86527 0.271994 0
M  V30 1056 C 100.733 3.3855 0.100915 0
M  V30 1057 C 99.7788 4.18317 -0.831438 0
M  V30 1058 S 100.612 4.82375 -2.32539 0
M  V30 1059 C 101.768 6.04508 -1.62238 0
M  V30 1060 H 102.001 2.5738 -1.48805 0
M  V30 1061 H 99.5338 1.27327 -0.873338 0
M  V30 1062 H 101.492 4.07358 0.506898 0
M  V30 1063 H 100.153 2.99338 0.951604 0
M  V30 1064 H 99.3458 5.03232 -0.278071 0
M  V30 1065 H 98.9478 3.5499 -1.17719 0
M  V30 1066 H 101.24 6.71133 -0.926622 0
M  V30 1067 H 102.183 6.64389 -2.44934 0
M  V30 1068 H 102.591 5.53559 -1.106 0
M  V30 1069 N 101.989 0.842826 1.3317 0
M  V30 1070 C 103.217 0.454055 2.01856 0
M  V30 1071 C 103.632 -0.94587 1.63397 0
M  V30 1072 O 102.989 -1.61534 0.849302 0
M  V30 1073 C 103.04 0.569715 3.56982 0
M  V30 1074 O 102.761 1.91448 3.94055 0
M  V30 1075 C 104.262 0.178412 4.42941 0
M  V30 1076 H 101.482 0.17979 0.646465 0
M  V30 1077 H 104.026 1.1365 1.70012 0
M  V30 1078 H 102.181 -0.0648587 3.87346 0
M  V30 1079 H 102.595 1.90282 4.88767 0
M  V30 1080 H 104.069 0.310376 5.51127 0
M  V30 1081 H 104.546 -0.880056 4.30293 0
M  V30 1082 H 105.152 0.787579 4.17944 0
M  V30 1083 N 103.467 -1.45747 0.599634 0
M  V30 1084 C 104.883 -1.57424 0.26264 0
M  V30 1085 C 105.083 -1.59222 -1.23493 0
M  V30 1086 O 104.139 -1.51825 -2.01756 0
M  V30 1087 C 105.452 -2.86061 0.926795 0
M  V30 1088 C 107 -2.99722 0.901967 0
M  V30 1089 C 107.475 -4.31119 1.54598 0
M  V30 1090 N 108.966 -4.37858 1.5111 0
M  V30 1091 C 109.701 -5.3818 1.97863 0
M  V30 1092 N 109.197 -6.45083 2.52666 0
M  V30 1093 N 110.99 -5.29487 1.88679 0
M  V30 1094 H 103.141 -1.42823 1.57211 0
M  V30 1095 H 105.404 -0.68235 0.658105 0
M  V30 1096 H 105.11 -2.90605 1.98095 0
M  V30 1097 H 104.984 -3.74563 0.445238 0
M  V30 1098 H 107.371 -2.9475 -0.143617 0
M  V30 1099 H 107.452 -2.12652 1.42171 0
M  V30 1100 H 107.096 -4.36849 2.59085 0
M  V30 1101 H 107.026 -5.16992 1.00132 0
M  V30 1102 H 109.517 -3.61209 1.11068 0
M  V30 1103 H 109.83 -7.17869 2.86155 0
M  V30 1104 H 108.175 -6.45856 2.56701 0
M  V30 1105 H 111.366 -4.44877 1.4561 0
M  V30 1106 H 111.539 -6.07524 2.25429 0
M  V30 1107 N 104.945 -0.338344 -1.53925 0
M  V30 1108 C 105.893 0.536231 -2.26335 0
M  V30 1109 C 106.887 1.1063 -1.28286 0
M  V30 1110 O 108.093 1.05264 -1.46012 0
M  V30 1111 H 104.468 0.191602 -0.727181 0
M  V30 1112 H 106.439 -0.0965747 -2.98244 0
M  V30 1113 C 105.188 1.67803 -3.04528 0
M  V30 1114 H 104.511 1.24864 -3.79801 0
M  V30 1115 H 105.951 2.26526 -3.58416 0
M  V30 1116 C 104.41 2.60439 -2.13712 0
M  V30 1117 O 104.94 3.6255 -1.72975 0
M  V30 1118 N 103.146 2.29006 -1.78898 0
M  V30 1119 H 102.693 1.46011 -2.12223 0
M  V30 1120 H 102.651 2.91248 -1.18416 0
M  V30 1121 N 106.423 1.57458 -0.0668435 0
M  V30 1122 C 107.7 1.8469 0.644132 0
M  V30 1123 C 108.08 0.958343 1.88093 0
M  V30 1124 O 107.428 0.0233579 2.28488 0
M  V30 1125 C 107.638 3.34767 0.986509 0
M  V30 1126 C 108.986 4.02159 1.36212 0
M  V30 1127 O 110.01 3.39484 1.07839 0
M  V30 1128 O 108.869 5.12694 1.89227 0
M  V30 1129 H 105.963 0.762816 0.319437 0
M  V30 1130 H 108.509 1.6942 -0.0973986 0
M  V30 1131 H 107.281 3.91151 0.107883 0
M  V30 1132 H 106.904 3.55281 1.78497 0
M  V30 1133 N 107.901 -0.206675 1.56239 0
M  V30 1134 C 108.851 -1.26 1.90021 0
M  V30 1135 C 109.835 -1.41566 0.764721 0
M  V30 1136 O 111.027 -1.44131 1.02739 0
M  V30 1137 C 108.156 -2.6073 2.23326 0
M  V30 1138 C 107.242 -2.49005 3.43304 0
M  V30 1139 N 107.633 -2.06946 4.61527 0
M  V30 1140 C 105.931 -2.79927 3.47213 0
M  V30 1141 C 106.632 -2.06832 5.43687 0
M  V30 1142 N 105.608 -2.47892 4.83788 0
M  V30 1143 H 109.41 -0.925955 2.78932 0
M  V30 1144 H 106.924 -0.415172 1.57003 0
M  V30 1145 H 108.921 -3.36798 2.45708 0
M  V30 1146 H 107.581 -2.94968 1.35735 0
M  V30 1147 H 108.592 -1.77839 4.86409 0
M  V30 1148 H 105.269 -3.18438 2.70006 0
M  V30 1149 H 106.659 -1.76312 6.48354 0
M  V30 1150 N 109.379 -1.50304 -0.473955 0
M  V30 1151 C 110.289 -1.7174 -1.5982 0
M  V30 1152 C 111.305 -0.600457 -1.63311 0
M  V30 1153 O 112.481 -0.878441 -1.81233 0
M  V30 1154 C 109.546 -1.80427 -2.96052 0
M  V30 1155 C 108.607 -3.04148 -3.02972 0
M  V30 1156 C 107.84 -3.12411 -4.32706 0
M  V30 1157 O 108.063 -2.27542 -5.23049 0
M  V30 1158 O 106.997 -4.05113 -4.45159 0
M  V30 1159 H 110.823 -2.67035 -1.44657 0
M  V30 1160 H 108.408 -1.34366 -0.653148 0
M  V30 1161 H 110.29 -1.88338 -3.7697 0
M  V30 1162 H 108.965 -0.883156 -3.11419 0
M  V30 1163 H 107.872 -3.0174 -2.21142 0
M  V30 1164 H 109.205 -3.95829 -2.92541 0
M  V30 1165 N 110.857 0.726932 -1.39834 0
M  V30 1166 C 112.082 1.52121 -1.40976 0
M  V30 1167 C 112.507 1.88098 -0.00826029 0
M  V30 1168 O 111.865 1.52479 0.980807 0
M  V30 1169 C 111.913 2.78021 -2.29644 0
M  V30 1170 O 111.017 3.74272 -1.73188 0
M  V30 1171 H 110.358 0.45908 -0.479731 0
M  V30 1172 H 112.888 0.896207 -1.83927 0
M  V30 1173 H 112.898 3.26671 -2.44438 0
M  V30 1174 H 111.573 2.51169 -3.31492 0
M  V30 1175 H 110.15 3.33073 -1.6768 0
M  V30 1176 N 112.336 1.25143 0.95797 0
M  V30 1177 C 113.584 1.09476 1.69881 0
M  V30 1178 C 113.905 -0.365502 1.91544 0
M  V30 1179 O 113.175 -1.25985 1.50015 0
M  V30 1180 H 111.755 0.402128 0.629525 0
M  V30 1181 H 114.417 1.57214 1.15194 0
M  V30 1182 H 113.513 1.60046 2.6794 0
M  V30 1183 N 113.814 -1.1601 1.06675 0
M  V30 1184 C 115.042 -1.90527 0.806667 0
M  V30 1185 C 115.457 -1.77643 -0.639396 0
M  V30 1186 O 114.814 -1.12369 -1.43803 0
M  V30 1187 C 114.865 -3.41106 1.19705 0
M  V30 1188 O 114.586 -3.53608 2.58636 0
M  V30 1189 C 116.087 -4.32663 0.965266 0
M  V30 1190 H 113.307 -0.604053 0.292166 0
M  V30 1191 H 115.851 -1.47026 1.4214 0
M  V30 1192 H 114.006 -3.82296 0.626774 0
M  V30 1193 H 114.42 -4.47011 2.74375 0
M  V30 1194 H 115.894 -5.36763 1.288 0
M  V30 1195 H 116.371 -4.39089 -0.0987936 0
M  V30 1196 H 116.977 -3.97206 1.52011 0
M  V30 1197 N 115.292 -0.849877 -1.32721 0
M  V30 1198 C 116.569 -0.372405 -1.92022 0
M  V30 1199 C 116.949 1.1435 -1.77447 0
M  V30 1200 O 116.297 1.96296 -1.16962 0
M  V30 1201 C 116.507 -0.831482 -3.3895 0
M  V30 1202 C 117.855 -0.845882 -4.16089 0
M  V30 1203 O 118.879 -0.775806 -3.47649 0
M  V30 1204 O 117.738 -0.943753 -5.38289 0
M  V30 1205 H 114.832 -0.107667 -0.819961 0
M  V30 1206 H 117.378 -0.93646 -1.41522 0
M  V30 1207 H 116.15 -1.87448 -3.4348 0
M  V30 1208 H 115.773 -0.24461 -3.96847 0
M  V30 1209 N 116.77 1.45427 -0.607355 0
M  V30 1210 C 118.186 1.57283 -0.270985 0
M  V30 1211 C 118.386 1.59875 1.22647 0
M  V30 1212 O 117.442 1.52893 2.00948 0
M  V30 1213 C 118.755 2.85566 -0.941952 0
M  V30 1214 C 120.303 2.9924 -0.917849 0
M  V30 1215 C 120.778 4.30293 -1.56882 0
M  V30 1216 N 122.269 4.37051 -1.5343 0
M  V30 1217 C 123.004 5.37123 -2.00715 0
M  V30 1218 N 122.5 6.43734 -2.56084 0
M  V30 1219 N 124.293 5.28479 -1.91484 0
M  V30 1220 H 116.444 1.41988 -1.57966 0
M  V30 1221 H 118.707 0.67885 -0.661715 0
M  V30 1222 H 118.413 2.8955 -1.99633 0
M  V30 1223 H 118.287 3.74322 -0.465096 0
M  V30 1224 H 120.674 2.94822 0.127984 0
M  V30 1225 H 120.755 2.11895 -1.43297 0
M  V30 1226 H 120.399 4.35469 -2.61398 0
M  V30 1227 H 120.329 5.16454 -1.02873 0
M  V30 1228 H 122.82 3.60615 -1.12982 0
M  V30 1229 H 123.133 7.16341 -2.89958 0
M  V30 1230 H 121.478 6.44485 -2.60122 0
M  V30 1231 H 124.669 4.44098 -1.47967 0
M  V30 1232 H 124.842 6.0632 -2.28648 0
M  V30 1233 N 118.248 0.346503 1.53744 0
M  V30 1234 C 119.178 -0.501193 2.28058 0
M  V30 1235 C 120.159 -1.10014 1.29734 0
M  V30 1236 O 121.344 -1.12097 1.58581 0
M  V30 1237 C 118.474 -1.65078 3.05559 0
M  V30 1238 C 117.428 -1.18003 4.11411 0
M  V30 1239 C 116.754 -2.41837 4.76884 0
M  V30 1240 C 118.054 -0.278394 5.21558 0
M  V30 1241 H 119.748 0.11875 2.99164 0
M  V30 1242 H 117.294 0.0585531 1.43881 0
M  V30 1243 H 119.247 -2.25028 3.56287 0
M  V30 1244 H 117.971 -2.29767 2.32109 0
M  V30 1245 H 116.63 -0.603331 3.61601 0
M  V30 1246 H 116.278 -3.0494 4.00026 0
M  V30 1247 H 115.978 -2.1102 5.48402 0
M  V30 1248 H 117.502 -3.02508 5.30397 0
M  V30 1249 H 118.916 -0.784823 5.67903 0
M  V30 1250 H 117.313 -0.0619707 6.00068 0
M  V30 1251 H 118.383 0.684677 4.80042 0
M  V30 1252 N 119.726 -1.57421 0.075193 0
M  V30 1253 C 120.972 -1.93905 -0.594025 0
M  V30 1254 C 121.305 -0.955701 -1.69056 0
M  V30 1255 O 120.58 0.0145373 -1.94495 0
M  V30 1256 C 120.863 -3.40638 -1.1678 0
M  V30 1257 C 120.716 -4.49733 -0.0776792 0
M  V30 1258 C 122.035 -3.88259 -2.07228 0
M  V30 1259 H 119.154 -0.705105 -0.214466 0
M  V30 1260 H 121.796 -1.8947 0.141854 0
M  V30 1261 H 119.946 -3.44549 -1.79494 0
M  V30 1262 H 121.618 -4.57942 0.555573 0
M  V30 1263 H 119.861 -4.29751 0.591286 0
M  V30 1264 H 120.532 -5.49549 -0.519603 0
M  V30 1265 H 123.008 -3.86376 -1.54445 0
M  V30 1266 H 121.884 -4.91533 -2.44308 0
M  V30 1267 H 122.145 -3.26396 -2.98191 0
M  V30 1268 N 121.204 0.198386 -1.56346 0
M  V30 1269 C 122.114 1.2664 -1.97483 0
M  V30 1270 C 123.13 1.49989 -0.882002 0
M  V30 1271 O 124.306 1.62668 -1.18748 0
M  V30 1272 C 121.371 2.59141 -2.30319 0
M  V30 1273 C 120.432 2.43892 -3.53292 0
M  V30 1274 C 119.665 3.70074 -3.84553 0
M  V30 1275 O 119.888 4.74101 -3.1715 0
M  V30 1276 O 118.822 3.658 -4.7799 0
M  V30 1277 H 122.648 0.947304 -2.88548 0
M  V30 1278 H 120.233 0.403123 -1.43859 0
M  V30 1279 H 122.115 3.37352 -2.5253 0
M  V30 1280 H 120.79 2.90684 -1.42423 0
M  V30 1281 H 119.697 1.63803 -3.36332 0
M  V30 1282 H 121.03 2.17282 -4.41644 0
M  V30 1283 N 122.682 1.50554 0.465978 0
M  V30 1284 C 123.928 1.62038 1.21949 0
M  V30 1285 C 124.261 0.322116 1.9151 0
M  V30 1286 O 123.536 -0.676723 1.82348 0
M  V30 1287 C 123.819 2.80421 2.25912 0
M  V30 1288 C 123.672 4.20144 1.60622 0
M  V30 1289 C 124.991 2.94354 3.27176 0
M  V30 1290 H 122.11 0.589752 0.441998 0
M  V30 1291 H 124.752 1.82956 0.51257 0
M  V30 1292 H 122.902 2.62717 2.86203 0
M  V30 1293 H 124.574 4.49449 1.03889 0
M  V30 1294 H 122.817 4.24165 0.909211 0
M  V30 1295 H 123.488 4.98914 2.36196 0
M  V30 1296 H 125.964 3.10578 2.76913 0
M  V30 1297 H 124.84 3.788 3.97242 0
M  V30 1298 H 125.101 2.05186 3.916 0
M  V30 1299 N 124.16 -0.719506 1.40217 0
M  V30 1300 C 125.093 -1.84298 1.34571 0
M  V30 1301 C 126.071 -1.61149 0.216741 0
M  V30 1302 O 127.255 -1.84212 0.399756 0
M  V30 1303 C 124.382 -3.20568 1.09335 0
M  V30 1304 C 123.428 -3.62551 2.24631 0
M  V30 1305 S 124.261 -3.7012 3.87004 0
M  V30 1306 C 125.417 -5.09154 3.64024 0
M  V30 1307 H 125.65 -1.88807 2.2965 0
M  V30 1308 H 123.183 -0.885901 1.26456 0
M  V30 1309 H 125.141 -3.99246 0.954602 0
M  V30 1310 H 123.802 -3.13696 0.159164 0
M  V30 1311 H 122.995 -4.61483 2.02606 0
M  V30 1312 H 122.597 -2.91119 2.34789 0
M  V30 1313 H 124.889 -5.95955 3.22248 0
M  V30 1314 H 125.832 -5.36213 4.62473 0
M  V30 1315 H 126.24 -4.79562 2.97793 0
M  V30 1316 N 125.638 -1.25649 -0.95132 0
M  V30 1317 C 126.588 -1.03004 -2.03406 0
M  V30 1318 C 127.572 0.034187 -1.60864 0
M  V30 1319 O 128.764 -0.181549 -1.76066 0
M  V30 1320 C 125.893 -0.654255 -3.37008 0
M  V30 1321 C 124.979 -1.75542 -3.86065 0
M  V30 1322 N 125.37 -2.99113 -4.07879 0
M  V30 1323 C 123.668 -1.63669 -4.14884 0
M  V30 1324 C 124.369 -3.70611 -4.48356 0
M  V30 1325 N 123.345 -2.98247 -4.54477 0
M  V30 1326 H 127.147 -1.96813 -2.1827 0
M  V30 1327 H 124.661 -1.16017 -1.13639 0
M  V30 1328 H 126.658 -0.473206 -4.14206 0
M  V30 1329 H 125.318 0.276468 -3.23521 0
M  V30 1330 H 126.329 -3.35124 -3.94857 0
M  V30 1331 H 123.006 -0.775161 -4.10241 0
M  V30 1332 H 124.396 -4.76695 -4.73509 0
M  V30 1333 N 127.117 1.15442 -1.07289 0
M  V30 1334 C 128.064 2.20161 -0.692653 0
M  V30 1335 C 129.034 1.63073 0.31564 0
M  V30 1336 O 130.219 1.89725 0.202235 0
M  V30 1337 C 127.359 3.44967 -0.0959509 0
M  V30 1338 C 126.472 4.16256 -1.15564 0
M  V30 1339 C 125.607 5.28609 -0.524011 0
M  V30 1340 C 124.646 5.91715 -1.56653 0
M  V30 1341 N 123.783 6.9554 -0.957531 0
M  V30 1342 H 128.623 2.52037 -1.59002 0
M  V30 1343 H 126.16 1.2378 -0.794798 0
M  V30 1344 H 128.118 4.16341 0.267628 0
M  V30 1345 H 126.748 3.1361 0.764772 0
M  V30 1346 H 125.8 3.43385 -1.6368 0
M  V30 1347 H 127.112 4.59268 -1.94613 0
M  V30 1348 H 126.266 6.06604 -0.108032 0
M  V30 1349 H 125.005 4.86787 0.29825 0
M  V30 1350 H 124.01 5.12433 -1.9923 0
M  V30 1351 H 125.235 6.35614 -2.39107 0
M  V30 1352 H 123.181 6.55814 -0.156162 0
M  V30 1353 H 123.098 7.36977 -1.68526 0
M  V30 1354 H 124.366 7.77435 -0.567032 0
M  V30 1355 N 128.595 0.856903 1.32268 0
M  V30 1356 C 129.841 0.462069 1.97466 0
M  V30 1357 C 130.174 -0.980298 1.67642 0
M  V30 1358 O 129.449 -1.68824 0.965858 0
M  V30 1359 C 129.732 0.704336 3.53145 0
M  V30 1360 C 129.585 2.19529 3.9259 0
M  V30 1361 C 130.904 0.1622 4.39801 0
M  V30 1362 H 128.023 0.169357 0.717278 0
M  V30 1363 H 130.665 1.07574 1.56614 0
M  V30 1364 H 128.815 0.181999 3.88073 0
M  V30 1365 H 130.487 2.78387 3.67829 0
M  V30 1366 H 128.73 2.67292 3.41668 0
M  V30 1367 H 129.401 2.31549 5.01088 0
M  V30 1368 H 131.877 0.608905 4.11621 0
M  V30 1369 H 130.753 0.361265 5.4771 0
M  V30 1370 H 131.014 -0.935158 4.32096 0
M  V30 1371 N 130.073 -1.45103 0.615059 0
M  V30 1372 C 130.983 -2.34382 -0.101034 0
M  V30 1373 C 131.999 -1.51681 -0.852585 0
M  V30 1374 O 133.175 -1.8446 -0.808484 0
M  V30 1375 C 130.24 -3.29417 -1.08099 0
M  V30 1376 C 129.301 -4.28025 -0.330577 0
M  V30 1377 C 128.534 -5.1852 -1.26385 0
M  V30 1378 O 128.757 -5.12598 -2.50198 0
M  V30 1379 O 127.691 -5.97122 -0.756866 0
M  V30 1380 H 131.517 -2.97033 0.632855 0
M  V30 1381 H 129.102 -1.4461 0.375293 0
M  V30 1382 H 130.984 -3.87958 -1.6452 0
M  V30 1383 H 129.659 -2.69321 -1.79577 0
M  V30 1384 H 128.566 -3.73078 0.276283 0
M  V30 1385 H 129.899 -4.90997 0.343866 0
M  V30 1386 N 131.551 -0.354651 -1.53558 0
M  V30 1387 C 132.514 0.484566 -2.24019 0
M  V30 1388 C 133.514 1.01861 -1.24422 0
M  V30 1389 O 134.704 0.906097 -1.4878 0
M  V30 1390 C 131.836 1.67615 -2.96847 0
M  V30 1391 H 133.029 -0.131843 -2.9961 0
M  V30 1392 H 130.582 -0.106165 -1.55939 0
M  V30 1393 H 131.317 2.33095 -2.25471 0
M  V30 1394 H 131.102 1.30029 -3.69912 0
M  V30 1395 H 132.592 2.27114 -3.50441 0
M  V30 1396 N 133.029 1.57378 -0.0835403 0
M  V30 1397 C 134.306 1.85363 0.624507 0
M  V30 1398 C 134.686 0.978239 1.87066 0
M  V30 1399 O 134.034 0.0475908 2.2845 0
M  V30 1400 C 134.244 3.35795 0.950947 0
M  V30 1401 C 135.592 4.03581 1.31939 0
M  V30 1402 O 136.616 3.40609 1.04232 0
M  V30 1403 O 135.475 5.14672 1.83779 0
M  V30 1404 H 132.569 0.766162 0.311329 0
M  V30 1405 H 135.115 1.69307 -0.115362 0
M  V30 1406 H 133.887 3.91244 0.0663899 0
M  V30 1407 H 133.51 3.57154 1.74719 0
M  V30 1408 N 134.507 -0.190092 1.56449 0
M  V30 1409 C 135.756 -0.907912 1.80111 0
M  V30 1410 C 136.069 -1.84214 0.657619 0
M  V30 1411 O 137.275 -2.60094 0.778663 0
M  V30 1412 C 135.731 -1.66485 3.19078 0
M  V30 1413 C 135.339 -0.7752 4.41242 0
M  V30 1414 C 137.083 -2.37201 3.52045 0
M  V30 1415 C 134.99 -1.53129 5.71231 0
M  V30 1416 H 133.92 -0.34276 0.671589 0
M  V30 1417 H 136.571 -0.161109 1.82791 0
M  V30 1418 H 134.953 -2.45572 3.10661 0
M  V30 1419 H 136.127 -0.0226298 4.60794 0
M  V30 1420 H 134.442 -0.178627 4.16017 0
M  V30 1421 H 137.039 -2.94329 4.46402 0
M  V30 1422 H 137.382 -3.11632 2.76028 0
M  V30 1423 H 137.915 -1.65075 3.61932 0
M  V30 1424 H 134.654 -0.82967 6.50228 0
M  V30 1425 H 134.174 -2.25767 5.55688 0
M  V30 1426 H 135.853 -2.08377 6.12526 0
M  V30 1427 N 135.985 -1.50799 -0.457987 0
M  V30 1428 C 137.215 -1.65977 -1.23025 0
M  V30 1429 C 137.623 -0.347918 -1.85974 0
M  V30 1430 O 136.966 0.68148 -1.70592 0
M  V30 1431 C 137.028 -2.70309 -2.3701 0
M  V30 1432 C 136.692 -4.135 -1.94594 0
M  V30 1433 C 137.689 -4.98949 -1.46101 0
M  V30 1434 C 135.374 -4.5949 -2.02915 0
M  V30 1435 C 137.368 -6.28442 -1.06489 0
M  V30 1436 C 135.055 -5.88984 -1.62914 0
M  V30 1437 C 136.053 -6.73286 -1.1478 0
M  V30 1438 O 135.741 -8.00362 -0.75339 0
M  V30 1439 H 135.473 -0.56064 -0.377702 0
M  V30 1440 H 138.027 -1.97857 -0.551537 0
M  V30 1441 H 136.257 -2.337 -3.08093 0
M  V30 1442 H 137.946 -2.74574 -2.98938 0
M  V30 1443 H 138.712 -4.6463 -1.39084 0
M  V30 1444 H 134.591 -3.94009 -2.39328 0
M  V30 1445 H 138.135 -6.94194 -0.688488 0
M  V30 1446 H 134.032 -6.22822 -1.69595 0
M  V30 1447 H 134.8 -8.13744 -0.88108 0
M  V30 1448 N 137.463 0.71206 -1.40597 0
M  V30 1449 C 138.712 1.46754 -1.38369 0
M  V30 1450 C 139.025 1.95598 0.0097839 0
M  V30 1451 O 140.231 2.71059 0.154677 0
M  V30 1452 C 138.687 2.65289 -2.43207 0
M  V30 1453 C 138.295 2.23301 -3.88382 0
M  V30 1454 C 140.039 3.43008 -2.50091 0
M  V30 1455 C 137.946 3.38696 -4.84808 0
M  V30 1456 H 136.876 0.55118 -0.514506 0
M  V30 1457 H 139.527 0.774616 -1.66349 0
M  V30 1458 H 137.909 3.36769 -2.08332 0
M  V30 1459 H 139.083 1.59218 -4.32419 0
M  V30 1460 H 137.398 1.58618 -3.85006 0
M  V30 1461 H 139.995 4.28881 -3.1932 0
M  V30 1462 H 140.338 3.87065 -1.53253 0
M  V30 1463 H 140.871 2.78574 -2.83974 0
M  V30 1464 H 137.61 2.99668 -5.82992 0
M  V30 1465 H 137.13 4.01683 -4.45433 0
M  V30 1466 H 138.809 4.04712 -5.04794 0
M  V30 1467 N 138.941 1.26152 0.944643 0
M  V30 1468 C 139.889 1.07215 2.06417 0
M  V30 1469 C 140.883 9.2007e-05 1.694 0
M  V30 1470 O 142.089 0.1565 1.79318 0
M  V30 1471 H 138.464 0.329837 0.675805 0
M  V30 1472 H 140.435 2.02099 2.19541 0
M  V30 1473 C 139.184 0.718197 3.40202 0
M  V30 1474 H 138.507 1.53497 3.69159 0
M  V30 1475 H 139.947 0.625459 4.19361 0
M  V30 1476 C 138.406 -0.576435 3.31932 0
M  V30 1477 O 138.936 -1.61574 3.67773 0
M  V30 1478 N 137.142 -0.565781 2.85039 0
M  V30 1479 H 136.689 0.280367 2.5607 0
M  V30 1480 H 136.647 -1.43213 2.79888 0
M  V30 1481 N 140.419 -1.14872 1.07899 0
M  V30 1482 C 141.349 -2.2193 0.725887 0
M  V30 1483 C 142.33 -1.67622 -0.28927 0
M  V30 1484 O 143.515 -1.93533 -0.160787 0
M  V30 1485 C 140.645 -3.47061 0.128856 0
M  V30 1486 C 139.599 -4.14363 1.07178 0
M  V30 1487 C 138.925 -5.33636 0.337229 0
M  V30 1488 C 140.225 -4.63492 2.40775 0
M  V30 1489 H 141.919 -2.51724 1.62097 0
M  V30 1490 H 139.465 -1.20991 0.780838 0
M  V30 1491 H 141.418 -4.21199 -0.130147 0
M  V30 1492 H 140.142 -3.16617 -0.80134 0
M  V30 1493 H 138.801 -3.42173 1.3158 0
M  V30 1494 H 138.449 -4.99449 -0.596606 0
M  V30 1495 H 138.149 -5.79609 0.965788 0
M  V30 1496 H 139.673 -6.10539 0.0861567 0
M  V30 1497 H 141.087 -5.2913 2.20669 0
M  V30 1498 H 139.484 -5.20148 2.99276 0
M  V30 1499 H 140.554 -3.78834 3.02676 0
M  V30 1500 N 141.898 -0.863906 -1.31812 0
M  V30 1501 C 142.83 -0.272485 -2.27575 0
M  V30 1502 C 143.843 0.56104 -1.52827 0
M  V30 1503 O 145.032 0.384021 -1.7432 0
M  V30 1504 C 142.132 0.63283 -3.32939 0
M  V30 1505 C 141.305 -0.166902 -4.37081 0
M  V30 1506 C 140.364 0.665608 -5.21973 0
M  V30 1507 O 139.39 0.0958091 -5.69119 0
M  V30 1508 N 140.592 1.9787 -5.45736 0
M  V30 1509 H 143.357 -1.0954 -2.78964 0
M  V30 1510 H 140.918 -0.724791 -1.4477 0
M  V30 1511 H 142.91 1.19532 -3.86645 0
M  V30 1512 H 141.48 1.35642 -2.81638 0
M  V30 1513 H 140.7 -0.910838 -3.83533 0
M  V30 1514 H 141.988 -0.715874 -5.03739 0
M  V30 1515 H 141.386 2.46484 -5.09178 0
M  V30 1516 H 139.943 2.48911 -6.024 0
M  V30 1517 N 143.376 1.44774 -0.622745 0
M  V30 1518 C 144.624 2.01721 -0.123655 0
M  V30 1519 C 144.945 1.49172 1.25589 0
M  V30 1520 O 144.215 0.691974 1.83272 0
M  V30 1521 H 142.795 0.745777 -0.0427225 0
M  V30 1522 H 145.457 1.77382 -0.807559 0
M  V30 1523 H 144.553 3.11984 -0.0849534 0
M  V30 1524 N 144.854 0.36279 1.53368 0
M  V30 1525 C 146.131 -0.284021 1.93527 0
M  V30 1526 C 146.511 -1.66628 1.29608 0
M  V30 1527 O 145.859 -2.23942 0.45413 0
M  V30 1528 C 146.069 -0.337028 3.47369 0
M  V30 1529 C 147.417 -0.578708 4.20638 0
M  V30 1530 O 148.441 -0.418352 3.53735 0
M  V30 1531 O 147.3 -0.89074 5.39192 0
M  V30 1532 H 144.394 -0.169743 0.809393 0
M  V30 1533 H 146.94 0.41537 1.64538 0
M  V30 1534 H 145.712 0.632217 3.86159 0
M  V30 1535 H 145.335 -1.08243 3.82582 0
M  V30 1536 N 146.332 -1.57332 0.0918853 0
M  V30 1537 C 147.242 -2.17368 -0.882505 0
M  V30 1538 C 148.258 -1.14226 -1.31257 0
M  V30 1539 O 149.434 -1.46582 -1.38115 0
M  V30 1540 C 146.499 -2.73962 -2.12476 0
M  V30 1541 C 145.56 -3.92048 -1.7492 0
M  V30 1542 C 144.793 -4.45933 -2.93223 0
M  V30 1543 O 145.016 -3.98764 -4.07852 0
M  V30 1544 O 143.95 -5.36999 -2.71875 0
M  V30 1545 H 147.776 -3.01031 -0.40172 0
M  V30 1546 H 145.361 -1.48813 -0.132291 0
M  V30 1547 H 147.243 -3.10147 -2.85283 0
M  V30 1548 H 145.918 -1.93347 -2.59613 0
M  V30 1549 H 144.825 -3.6068 -0.993025 0
M  V30 1550 H 146.158 -4.74017 -1.32548 0
M  V30 1551 N 147.81 0.181792 -1.56548 0
M  V30 1552 C 149.221 0.745244 -1.71181 0
M  V30 1553 C 149.572 1.83262 -0.70068 0
M  V30 1554 O 148.697 2.15946 0.140154 0
M  V30 1555 C 149.292 1.35859 -3.10367 0
M  V30 1556 C 147.851 1.86898 -3.2672 0
M  V30 1557 C 146.998 0.743942 -2.67134 0
M  V30 1558 H 149.949 -0.0434661 -1.5864 0
M  V30 1559 H 149.97 2.22817 -3.08436 0
M  V30 1560 H 149.482 0.566948 -3.83937 0
M  V30 1561 H 147.583 2.68738 -2.5809 0
M  V30 1562 H 147.696 2.02162 -4.34359 0
M  V30 1563 H 146.06 1.16169 -2.26665 0
M  V30 1564 H 146.843 -0.035676 -3.43281 0
M  V30 1565 N 149.288 1.51039 0.449983 0
M  V30 1566 C 150.221 1.66105 1.56474 0
M  V30 1567 C 151.199 0.508776 1.54435 0
M  V30 1568 O 152.383 0.731005 1.73749 0
M  V30 1569 C 149.51 1.66304 2.9506 0
M  V30 1570 C 148.556 2.87346 3.15174 0
M  V30 1571 S 149.389 4.4835 2.92818 0
M  V30 1572 C 150.545 4.51274 4.33708 0
M  V30 1573 H 150.778 2.60397 1.43459 0
M  V30 1574 H 148.311 1.40565 0.638805 0
M  V30 1575 H 150.269 1.67103 3.74949 0
M  V30 1576 H 148.93 0.732108 3.05449 0
M  V30 1577 H 148.123 2.83849 4.16468 0
M  V30 1578 H 147.725 2.84223 2.43091 0
M  V30 1579 H 150.017 4.26136 5.26701 0
M  V30 1580 H 150.96 5.53017 4.42242 0
M  V30 1581 H 151.368 3.80738 4.16772 0
M  V30 1582 N 150.766 -0.704594 1.40972 0
M  V30 1583 C 152.015 -1.46018 1.39146 0
M  V30 1584 C 152.328 -1.956 0.000589254 0
M  V30 1585 O 153.534 -2.71137 -0.1403 0
M  V30 1586 C 151.99 -2.63996 2.4461 0
M  V30 1587 C 151.598 -2.21238 3.89561 0
M  V30 1588 C 153.342 -3.41677 2.51907 0
M  V30 1589 C 151.249 -3.3612 4.86598 0
M  V30 1590 H 150.179 -0.548444 0.517422 0
M  V30 1591 H 152.83 -0.765784 1.66757 0
M  V30 1592 H 151.212 -3.3566 2.10115 0
M  V30 1593 H 152.386 -1.56923 4.33257 0
M  V30 1594 H 150.701 -1.56574 3.85841 0
M  V30 1595 H 153.298 -4.27182 3.2159 0
M  V30 1596 H 153.641 -3.86247 1.55303 0
M  V30 1597 H 154.174 -2.77064 2.85448 0
M  V30 1598 H 150.913 -2.96572 5.84573 0
M  V30 1599 H 150.433 -3.99315 4.47557 0
M  V30 1600 H 152.112 -4.02029 5.06934 0
M  V30 1601 N 152.244 -1.26651 -0.937939 0
M  V30 1602 C 153.66 -1.03834 -1.21205 0
M  V30 1603 C 153.86 0.234502 -2.00131 0
M  V30 1604 O 152.916 0.942767 -2.3424 0
M  V30 1605 C 154.229 -2.27167 -1.97017 0
M  V30 1606 C 155.777 -2.32101 -2.09996 0
M  V30 1607 C 156.252 -3.55136 -2.8921 0
M  V30 1608 N 157.743 -3.55632 -2.96783 0
M  V30 1609 C 158.478 -4.475 -3.58512 0
M  V30 1610 N 157.974 -5.4966 -4.21717 0
M  V30 1611 N 159.767 -4.35145 -3.55816 0
M  V30 1612 H 151.918 -2.08398 -0.410391 0
M  V30 1613 H 154.181 -0.916031 -0.244114 0
M  V30 1614 H 153.887 -3.19765 -1.46434 0
M  V30 1615 H 153.761 -2.31672 -2.97671 0
M  V30 1616 H 156.148 -1.40015 -2.59769 0
M  V30 1617 H 156.229 -2.31605 -1.08594 0
M  V30 1618 H 155.873 -4.47553 -2.40123 0
M  V30 1619 H 155.803 -3.5288 -3.90875 0
M  V30 1620 H 158.294 -2.81743 -2.51852 0
M  V30 1621 H 158.607 -6.15943 -4.66727 0
M  V30 1622 H 156.952 -5.53514 -4.20294 0
M  V30 1623 H 160.143 -3.5455 -3.05634 0
M  V30 1624 H 160.316 -5.06934 -4.03636 0
M  V30 1625 N 153.722 1.14298 -1.08507 0
M  V30 1626 C 155.133 1.66926 -0.836227 0
M  V30 1627 C 155.484 1.85576 0.63686 0
M  V30 1628 O 154.609 1.56767 1.49175 0
M  V30 1629 C 155.204 3.03219 -1.51142 0
M  V30 1630 C 153.763 3.52876 -1.30979 0
M  V30 1631 C 152.91 2.2833 -1.57356 0
M  V30 1632 H 155.861 0.983491 -1.24552 0
M  V30 1633 H 155.882 3.68726 -0.939211 0
M  V30 1634 H 155.394 2.89612 -2.58353 0
M  V30 1635 H 153.495 3.71703 -0.258429 0
M  V30 1636 H 153.608 4.33586 -2.03814 0
M  V30 1637 H 151.972 2.34454 -0.995164 0
M  V30 1638 H 152.755 2.17298 -2.65775 0
M  V30 1639 N 155.201 0.870884 1.31352 0
M  V30 1640 C 156.617 0.562932 1.49343 0
M  V30 1641 C 156.817 -0.902725 1.80148 0
M  V30 1642 O 155.873 -1.68484 1.88067 0
M  V30 1643 C 157.186 1.46393 2.62659 0
M  V30 1644 C 158.734 1.46607 2.76542 0
M  V30 1645 C 159.209 2.35266 3.92955 0
M  V30 1646 N 160.7 2.33151 4.00243 0
M  V30 1647 C 161.435 2.98471 4.89594 0
M  V30 1648 N 160.931 3.72964 5.8384 0
M  V30 1649 N 162.724 2.87775 4.82848 0
M  V30 1650 H 154.875 1.81923 1.09626 0
M  V30 1651 H 157.138 0.777934 0.541777 0
M  V30 1652 H 156.844 2.50689 2.46674 0
M  V30 1653 H 156.718 1.16314 3.58819 0
M  V30 1654 H 159.105 0.43069 2.9194 0
M  V30 1655 H 159.186 1.8071 1.81046 0
M  V30 1656 H 158.83 3.38881 3.78315 0
M  V30 1657 H 158.76 1.98487 4.87761 0
M  V30 1658 H 161.251 1.79006 3.32814 0
M  V30 1659 H 161.564 4.19932 6.4875 0
M  V30 1660 H 159.909 3.77073 5.83816 0
M  V30 1661 H 163.1 2.29116 4.08195 0
M  V30 1662 H 163.273 3.38961 5.52277 0
M  V30 1663 N 156.679 -1.44442 0.630414 0
M  V30 1664 C 157.956 -1.9549 0.0655657 0
M  V30 1665 C 158.336 -1.5724 -1.40851 0
M  V30 1666 O 157.684 -0.846116 -2.12257 0
M  V30 1667 C 157.894 -3.47812 0.287691 0
M  V30 1668 C 159.242 -4.24216 0.180513 0
M  V30 1669 O 160.266 -3.55526 0.219019 0
M  V30 1670 O 159.125 -5.46434 0.0848493 0
M  V30 1671 H 156.219 -0.826688 -0.0227177 0
M  V30 1672 H 158.765 -1.54496 0.702068 0
M  V30 1673 H 157.537 -3.687 1.31056 0
M  V30 1674 H 157.16 -3.95751 -0.382984 0
M  V30 1675 N 158.157 -0.370918 -1.53173 0
M  V30 1676 C 159.403 0.217423 -2.01631 0
M  V30 1677 C 159.736 1.47983 -1.25756 0
M  V30 1678 O 159.011 1.91274 -0.352764 0
M  V30 1679 C 159.294 0.503982 -3.56556 0
M  V30 1680 C 159.147 -0.77243 -4.43118 0
M  V30 1681 C 160.466 1.30234 -4.20389 0
M  V30 1682 H 157.585 0.0775486 -0.732909 0
M  V30 1683 H 160.227 -0.496863 -1.83388 0
M  V30 1684 H 158.377 1.11248 -3.72231 0
M  V30 1685 H 160.049 -1.4098 -4.39229 0
M  V30 1686 H 158.292 -1.39167 -4.10871 0
M  V30 1687 H 158.963 -0.526815 -5.4948 0
M  V30 1688 H 161.439 0.787546 -4.08579 0
M  V30 1689 H 160.315 1.47158 -5.28806 0
M  V30 1690 H 160.576 2.31237 -3.76805 0
M  V30 1691 N 159.635 1.57281 -0.100228 0
M  V30 1692 C 160.545 2.17833 0.870965 0
M  V30 1693 C 161.561 1.14921 1.30649 0
M  V30 1694 O 162.737 1.47313 1.37335 0
M  V30 1695 C 159.802 2.75085 2.1102 0
M  V30 1696 C 158.863 3.9297 1.72838 0
M  V30 1697 C 158.096 4.47482 2.90854 0
M  V30 1698 O 158.319 4.00922 4.05731 0
M  V30 1699 O 157.253 5.38433 2.69023 0
M  V30 1700 H 161.079 3.0124 0.38575 0
M  V30 1701 H 158.664 1.48881 0.124397 0
M  V30 1702 H 160.546 3.11656 2.83634 0
M  V30 1703 H 159.221 1.94721 2.58584 0
M  V30 1704 H 158.128 3.61201 0.973883 0
M  V30 1705 H 159.461 4.74713 1.30033 0
M  V30 1706 N 161.113 -0.173488 1.56642 0
M  V30 1707 C 162.341 -0.906095 1.86004 0
M  V30 1708 C 162.756 -1.75921 0.685355 0
M  V30 1709 O 162.113 -1.79198 -0.345578 0
M  V30 1710 C 162.164 -1.78462 3.14378 0
M  V30 1711 O 161.885 -0.965914 4.27319 0
M  V30 1712 C 163.386 -2.62707 3.57071 0
M  V30 1713 H 160.606 -0.263341 0.617165 0
M  V30 1714 H 163.15 -0.174236 2.03756 0
M  V30 1715 H 161.305 -2.46984 2.98459 0
M  V30 1716 H 161.719 -1.56655 5.00559 0
M  V30 1717 H 163.193 -3.19969 4.49804 0
M  V30 1718 H 163.67 -3.37472 2.81086 0
M  V30 1719 H 164.276 -1.99521 3.75595 0
M  V30 1720 N 162.591 -1.51276 -0.441967 0
M  V30 1721 C 163.521 -1.752 -1.54361 0
M  V30 1722 C 164.502 -0.601682 -1.59103 0
M  V30 1723 O 165.687 -0.843913 -1.74905 0
M  V30 1724 C 162.817 -1.87282 -2.92477 0
M  V30 1725 C 161.771 -3.02687 -3.02596 0
M  V30 1726 C 161.097 -2.99947 -4.42647 0
M  V30 1727 C 162.397 -4.4273 -2.77106 0
M  V30 1728 H 164.091 -2.67442 -1.34592 0
M  V30 1729 H 161.637 -1.28694 -0.646048 0
M  V30 1730 H 163.59 -2.02602 -3.695 0
M  V30 1731 H 162.314 -0.916844 -3.13467 0
M  V30 1732 H 160.973 -2.87065 -2.28012 0
M  V30 1733 H 160.621 -2.02136 -4.60597 0
M  V30 1734 H 160.321 -3.77439 -4.50348 0
M  V30 1735 H 161.845 -3.17354 -5.2165 0
M  V30 1736 H 163.259 -4.58727 -3.43864 0
M  V30 1737 H 161.656 -5.21893 -2.96222 0
M  V30 1738 H 162.726 -4.53087 -1.72744 0
M  V30 1739 N 164.069 0.697108 -1.41344 0
M  V30 1740 C 164.999 1.82353 -1.45841 0
M  V30 1741 C 165.98 1.67115 -0.317247 0
M  V30 1742 O 167.165 1.86871 -0.528474 0
M  V30 1743 C 164.295 3.20476 -1.33838 0
M  V30 1744 C 163.249 3.50415 -2.4575 0
M  V30 1745 C 162.575 4.87878 -2.18813 0
M  V30 1746 C 163.875 3.49546 -3.88091 0
M  V30 1747 H 165.569 1.78846 -2.40113 0
M  V30 1748 H 163.115 0.859028 -1.15571 0
M  V30 1749 H 165.068 3.98988 -1.35596 0
M  V30 1750 H 163.792 3.24604 -0.360498 0
M  V30 1751 H 162.451 2.74253 -2.43271 0
M  V30 1752 H 162.099 4.8863 -1.19371 0
M  V30 1753 H 161.799 5.08875 -2.93803 0
M  V30 1754 H 163.323 5.68702 -2.22284 0
M  V30 1755 H 164.737 4.18066 -3.92293 0
M  V30 1756 H 163.134 3.82075 -4.62751 0
M  V30 1757 H 164.204 2.48552 -4.16353 0
M  V30 1758 N 165.547 1.27147 0.931209 0
M  V30 1759 C 166.479 1.05364 2.03546 0
M  V30 1760 C 167.492 0.0108438 1.62796 0
M  V30 1761 O 168.681 0.25202 1.76712 0
M  V30 1762 C 165.781 0.575566 3.33977 0
M  V30 1763 C 164.954 1.68985 4.03439 0
M  V30 1764 C 164.013 1.20813 5.12143 0
M  V30 1765 O 163.039 1.90712 5.363 0
M  V30 1766 N 164.241 0.0618851 5.80467 0
M  V30 1767 H 167.006 2.00454 2.22796 0
M  V30 1768 H 164.567 1.18666 1.10136 0
M  V30 1769 H 166.559 0.237264 4.04004 0
M  V30 1770 H 165.129 -0.282016 3.11325 0
M  V30 1771 H 164.349 2.19861 3.27192 0
M  V30 1772 H 165.637 2.4378 4.46597 0
M  V30 1773 H 165.035 -0.521621 5.6329 0
M  V30 1774 H 163.592 -0.217264 6.51438 0
M  V30 1775 N 167.025 -1.13721 1.09112 0
M  V30 1776 C 168.273 -1.84559 0.823562 0
M  V30 1777 C 168.594 -1.83754 -0.652658 0
M  V30 1778 O 167.864 -1.29102 -1.47342 0
M  V30 1779 H 166.444 -0.683376 0.301673 0
M  V30 1780 H 169.106 -1.37771 1.37859 0
M  V30 1781 H 168.202 -2.8917 1.17419 0
M  V30 1782 N 168.503 -0.877838 -1.30888 0
M  V30 1783 C 169.436 -0.283995 -2.26426 0
M  V30 1784 C 170.414 0.591361 -1.51465 0
M  V30 1785 O 171.598 0.54304 -1.80509 0
M  V30 1786 C 168.725 0.597129 -3.33395 0
M  V30 1787 C 167.771 -0.207937 -4.25993 0
M  V30 1788 S 168.604 -1.59158 -5.11301 0
M  V30 1789 C 169.76 -0.716791 -6.21782 0
M  V30 1790 H 169.993 -1.09383 -2.76446 0
M  V30 1791 H 167.526 -0.676828 -1.38775 0
M  V30 1792 H 169.484 1.09978 -3.95493 0
M  V30 1793 H 168.145 1.38099 -2.82113 0
M  V30 1794 H 167.338 0.464163 -5.01858 0
M  V30 1795 H 166.94 -0.642963 -3.68432 0
M  V30 1796 H 169.232 0.0692833 -6.77465 0
M  V30 1797 H 170.175 -1.44682 -6.93161 0
M  V30 1798 H 170.583 -0.280855 -5.63801 0
M  V30 1799 N 169.982 1.44106 -0.638065 0
M  V30 1800 C 171.398 1.56672 -0.304286 0
M  V30 1801 C 171.598 1.6244 1.19228 0
M  V30 1802 O 170.654 1.57121 1.9766 0
M  V30 1803 C 171.967 2.83503 -1.00231 0
M  V30 1804 C 173.515 2.97226 -0.981116 0
M  V30 1805 C 173.99 4.26868 -1.65974 0
M  V30 1806 N 175.481 4.33698 -1.62666 0
M  V30 1807 C 176.216 5.32745 -2.12063 0
M  V30 1808 N 175.712 6.38157 -2.6968 0
M  V30 1809 N 177.505 5.24299 -2.02651 0
M  V30 1810 H 169.656 1.38605 -1.60942 0
M  V30 1811 H 171.919 0.664661 -0.675965 0
M  V30 1812 H 171.625 2.85251 -2.0573 0
M  V30 1813 H 171.499 3.73251 -0.54439 0
M  V30 1814 H 173.886 2.95027 0.0654188 0
M  V30 1815 H 173.967 2.08808 -1.47759 0
M  V30 1816 H 173.611 4.29826 -2.70576 0
M  V30 1817 H 173.541 5.14156 -1.13804 0
M  V30 1818 H 176.032 3.58138 -1.20606 0
M  V30 1819 H 176.345 7.10029 -3.05087 0
M  V30 1820 H 174.69 6.38823 -2.73734 0
M  V30 1821 H 177.881 4.4086 -1.57353 0
M  V30 1822 H 178.054 6.01334 -2.41457 0
M  V30 1823 N 171.46 0.379036 1.52974 0
M  V30 1824 C 172.737 -0.263479 1.93817 0
M  V30 1825 C 173.117 -1.65244 1.31368 0
M  V30 1826 O 172.465 -2.23448 0.477856 0
M  V30 1827 C 172.675 -0.300166 3.47707 0
M  V30 1828 C 174.023 -0.534061 4.21228 0
M  V30 1829 O 175.047 -0.38081 3.54159 0
M  V30 1830 O 173.906 -0.833501 5.40106 0
M  V30 1831 H 171 -0.161149 0.811147 0
M  V30 1832 H 173.546 0.432798 1.64088 0
M  V30 1833 H 172.318 0.673138 3.85467 0
M  V30 1834 H 171.941 -1.04179 3.83709 0
M  V30 1835 N 172.938 -1.57226 0.108567 0
M  V30 1836 C 174.215 -1.86333 -0.594939 0
M  V30 1837 C 174.595 -1.00788 -1.85486 0
M  V30 1838 O 173.943 -0.0839293 -2.28346 0
M  V30 1839 C 174.153 -3.37265 -0.897405 0
M  V30 1840 C 175.501 -4.05629 -1.25501 0
M  V30 1841 O 176.525 -3.42224 -0.987998 0
M  V30 1842 O 175.384 -5.17531 -1.75567 0
M  V30 1843 H 172.478 -0.771018 -0.2991 0
M  V30 1844 H 175.024 -1.69102 0.142283 0
M  V30 1845 H 173.796 -3.913 -0.00413806 0
M  V30 1846 H 173.419 -3.59889 -1.69014 0
M  V30 1847 N 174.416 0.165178 -1.56732 0
M  V30 1848 C 175.827 0.727046 -1.71962 0
M  V30 1849 C 176.178 1.82508 -0.720078 0
M  V30 1850 O 175.303 2.16082 0.117242 0
M  V30 1851 C 175.898 1.32559 -3.11791 0
M  V30 1852 C 174.457 1.83422 -3.28684 0
M  V30 1853 C 173.604 0.715567 -2.67908 0
M  V30 1854 H 176.555 -0.0602896 -1.58585 0
M  V30 1855 H 176.576 2.19533 -3.10782 0
M  V30 1856 H 176.088 0.526195 -3.84516 0
M  V30 1857 H 174.189 2.65986 -2.60926 0
M  V30 1858 H 174.302 1.97543 -4.36478 0
M  V30 1859 H 172.666 1.13758 -2.27884 0
M  V30 1860 H 173.449 -0.0720836 -3.43224 0
M  V30 1861 N 175.894 1.51508 0.433938 0
M  V30 1862 C 176.857 1.72473 1.50949 0
M  V30 1863 C 177.857 0.594725 1.49398 0
M  V30 1864 O 179.047 0.862315 1.5136 0
M  V30 1865 C 176.179 1.78431 2.90474 0
M  V30 1866 H 177.372 2.68467 1.33662 0
M  V30 1867 H 174.925 1.41549 0.662836 0
M  V30 1868 H 175.66 0.842645 3.13161 0
M  V30 1869 H 175.445 2.60558 2.93005 0
M  V30 1870 H 176.935 1.96479 3.68491 0
M  V30 1871 N 177.372 -0.689602 1.41712 0
M  V30 1872 C 178.302 -1.81577 1.46806 0
M  V30 1873 C 179.283 -1.66945 0.326105 0
M  V30 1874 O 180.468 -1.86588 0.538377 0
M  V30 1875 C 177.598 -3.19762 1.35535 0
M  V30 1876 C 176.552 -3.49107 2.47605 0
M  V30 1877 C 175.878 -4.86711 2.21397 0
M  V30 1878 C 177.178 -3.47483 3.89939 0
M  V30 1879 H 178.872 -1.7757 2.41058 0
M  V30 1880 H 176.418 -0.852887 1.16025 0
M  V30 1881 H 178.371 -3.98263 1.3771 0
M  V30 1882 H 177.095 -3.24409 0.377708 0
M  V30 1883 H 175.754 -2.72959 2.44722 0
M  V30 1884 H 175.402 -4.8799 1.21961 0
M  V30 1885 H 175.102 -5.0731 2.96497 0
M  V30 1886 H 176.626 -5.67515 2.25297 0
M  V30 1887 H 178.04 -4.1598 3.94505 0
M  V30 1888 H 176.437 -3.79615 4.64771 0
M  V30 1889 H 177.507 -2.46341 4.17665 0
M  V30 1890 N 178.85 -1.27639 -0.924453 0
M  V30 1891 C 180.261 -1.12834 -1.48746 0
M  V30 1892 C 180.612 0.285505 -1.94112 0
M  V30 1893 O 179.737 1.17874 -1.81479 0
M  V30 1894 C 180.332 -2.04217 -2.70334 0
M  V30 1895 C 178.891 -1.93509 -3.22848 0
M  V30 1896 C 178.038 -1.96583 -1.95577 0
M  V30 1897 H 180.989 -1.40484 -0.738233 0
M  V30 1898 H 181.01 -1.59989 -3.4523 0
M  V30 1899 H 180.522 -3.07111 -2.37285 0
M  V30 1900 H 178.623 -0.936131 -3.60649 0
M  V30 1901 H 178.736 -2.79917 -3.88823 0
M  V30 1902 H 177.1 -1.4085 -2.12211 0
M  V30 1903 H 177.883 -3.01137 -1.64837 0
M  V30 1904 N 180.328 1.1314 -1.09713 0
M  V30 1905 C 181.574 1.84757 -0.836224 0
M  V30 1906 C 181.907 1.8347 0.636598 0
M  V30 1907 O 181.182 1.27491 1.46889 0
M  V30 1908 C 181.465 3.32782 -1.37578 0
M  V30 1909 C 181.318 3.42567 -2.91493 0
M  V30 1910 C 182.637 4.28307 -1.01198 0
M  V30 1911 H 179.756 0.67082 -0.305236 0
M  V30 1912 H 182.398 1.3278 -1.35903 0
M  V30 1913 H 180.548 3.77177 -0.931097 0
M  V30 1914 H 182.22 3.06862 -3.44432 0
M  V30 1915 H 180.463 2.83349 -3.28475 0
M  V30 1916 H 181.134 4.46674 -3.24324 0
M  V30 1917 H 183.61 3.91999 -1.39556 0
M  V30 1918 H 182.486 5.30307 -1.41653 0
M  V30 1919 H 182.747 4.42029 0.0794833 0
M  V30 1920 N 181.806 0.884767 1.30421 0
M  V30 1921 C 182.769 0.356277 2.26414 0
M  V30 1922 C 183.769 -0.501124 1.52792 0
M  V30 1923 O 184.959 -0.30831 1.7145 0
M  V30 1924 C 182.091 -0.492316 3.37326 0
M  V30 1925 H 183.284 1.20389 2.74675 0
M  V30 1926 H 180.837 0.661607 1.41607 0
M  V30 1927 H 181.572 -1.36052 2.94381 0
M  V30 1928 H 181.357 0.121832 3.91911 0
M  V30 1929 H 182.847 -0.853871 4.08777 0
M  V30 1930 N 183.284 -1.43765 0.645699 0
M  V30 1931 C 184.512 -2.06253 0.163556 0
M  V30 1932 C 184.927 -1.48352 -1.16778 0
M  V30 1933 O 184.284 -0.611932 -1.71935 0
M  V30 1934 C 184.335 -3.61453 0.0583186 0
M  V30 1935 O 184.056 -4.172 1.33702 0
M  V30 1936 C 185.557 -4.41002 -0.450795 0
M  V30 1937 H 182.777 -0.665413 0.0864077 0
M  V30 1938 H 185.321 -1.84396 0.884222 0
M  V30 1939 H 183.476 -3.82522 -0.612865 0
M  V30 1940 H 183.89 -5.10791 1.19131 0
M  V30 1941 H 185.364 -5.49966 -0.473403 0
M  V30 1942 H 185.841 -4.13488 -1.48068 0
M  V30 1943 H 186.447 -4.24886 0.187637 0
M  V30 1944 N 184.763 -0.387143 -1.52771 0
M  V30 1945 C 185.693 0.440551 -2.29306 0
M  V30 1946 C 186.674 1.06535 -1.32606 0
M  V30 1947 O 187.859 1.07853 -1.61497 0
M  V30 1948 C 184.989 1.56919 -3.09829 0
M  V30 1949 C 183.943 1.07054 -4.14395 0
M  V30 1950 C 183.269 2.29109 -4.83129 0
M  V30 1951 C 184.569 0.140015 -5.22112 0
M  V30 1952 H 186.263 -0.198026 -2.98744 0
M  V30 1953 H 183.809 -0.09668 -1.43675 0
M  V30 1954 H 185.762 2.15503 -3.62128 0
M  V30 1955 H 184.486 2.23532 -2.3812 0
M  V30 1956 H 183.145 0.507247 -3.63074 0
M  V30 1957 H 182.793 2.94227 -4.0797 0
M  V30 1958 H 182.493 1.96406 -5.53804 0
M  V30 1959 H 184.017 2.88339 -5.38231 0
M  V30 1960 H 185.431 0.633978 -5.69784 0
M  V30 1961 H 183.828 -0.0971485 -6.00021 0
M  V30 1962 H 184.898 -0.811711 -4.78058 0
M  V30 1963 N 186.241 1.57166 -0.116904 0
M  V30 1964 C 187.481 1.97008 0.544715 0
M  V30 1965 C 187.845 0.998713 1.63981 0
M  V30 1966 O 189.046 1.28644 2.36018 0
M  V30 1967 C 187.317 3.41145 1.06559 0
M  V30 1968 S 188.876 4.02998 1.73603 0
M  V30 1969 H 185.694 0.688587 0.177112 0
M  V30 1970 H 188.296 1.94459 -0.201487 0
M  V30 1971 H 187 4.09592 0.257374 0
M  V30 1972 H 186.531 3.4734 1.84712 0
M  V30 1973 H 188.546 3.93585 3.02168 0
M  V30 1974 N 187.719 -0.156864 1.56817 0
M  V30 1975 C 188.669 -1.19891 1.93934 0
M  V30 1976 C 189.653 -1.39061 0.809372 0
M  V30 1977 O 190.845 -1.40789 1.07273 0
M  V30 1978 C 187.974 -2.53493 2.31508 0
M  V30 1979 C 187.06 -2.37957 3.51052 0
M  V30 1980 N 187.451 -1.92158 4.67877 0
M  V30 1981 C 185.749 -2.68739 3.55943 0
M  V30 1982 C 186.45 -1.8943 5.49992 0
M  V30 1983 N 185.426 -2.32375 4.91429 0
M  V30 1984 H 189.228 -0.836746 2.81737 0
M  V30 1985 H 186.742 -0.365012 1.58245 0
M  V30 1986 H 188.739 -3.28811 2.56299 0
M  V30 1987 H 187.399 -2.905 1.45051 0
M  V30 1988 H 188.41 -1.62274 4.91821 0
M  V30 1989 H 185.087 -3.09687 2.80001 0
M  V30 1990 H 186.477 -1.55596 6.53636 0
M  V30 1991 N 189.197 -1.51736 -0.425897 0
M  V30 1992 C 190.16 -1.73271 -1.50032 0
M  V30 1993 C 191.16 -0.602639 -1.4908 0
M  V30 1994 O 192.35 -0.87033 -1.509 0
M  V30 1995 C 189.482 -1.79969 -2.89523 0
M  V30 1996 H 190.675 -2.69172 -1.32237 0
M  V30 1997 H 188.228 -1.41899 -0.65532 0
M  V30 1998 H 188.963 -0.859241 -3.1271 0
M  V30 1999 H 188.748 -2.62109 -2.91619 0
M  V30 2000 H 190.238 -1.9843 -3.67444 0
M  V30 2001 N 190.675 0.682077 -1.42076 0
M  V30 2002 C 191.924 1.43786 -1.41451 0
M  V30 2003 C 192.237 1.95574 -0.0317074 0
M  V30 2004 O 193.443 2.71326 0.0971462 0
M  V30 2005 C 191.899 2.60071 -2.48779 0
M  V30 2006 C 191.507 2.15013 -3.93031 0
M  V30 2007 C 193.251 3.37626 -2.57311 0
M  V30 2008 C 191.158 3.28336 -4.91883 0
M  V30 2009 H 190.088 0.540143 -0.526082 0
M  V30 2010 H 192.739 0.739157 -1.67955 0
M  V30 2011 H 191.121 3.32275 -2.15429 0
M  V30 2012 H 192.295 1.5001 -4.35699 0
M  V30 2013 H 190.61 1.50416 -3.88284 0
M  V30 2014 H 193.207 4.22012 -3.28345 0
M  V30 2015 H 193.55 3.83727 -1.61429 0
M  V30 2016 H 194.083 2.72488 -2.89819 0
M  V30 2017 H 190.822 2.87234 -5.89217 0
M  V30 2018 H 190.342 3.92145 -4.53853 0
M  V30 2019 H 192.021 3.93913 -5.13265 0
M  V30 2020 N 192.153 1.28127 0.917671 0
M  V30 2021 C 193.378 1.18007 1.70555 0
M  V30 2022 C 193.803 -0.258257 1.86319 0
M  V30 2023 O 193.161 -1.1869 1.37049 0
M  V30 2024 C 193.209 1.87948 3.07746 0
M  V30 2025 O 192.313 1.18427 3.9503 0
M  V30 2026 H 191.654 0.409867 0.522403 0
M  V30 2027 H 194.184 1.69379 1.1477 0
M  V30 2028 H 194.194 1.95701 3.58001 0
M  V30 2029 H 192.869 2.92573 2.95591 0
M  V30 2030 H 191.446 1.18811 3.53466 0
M  V30 2031 N 193.631 -1.12557 1.10312 0
M  V30 2032 C 194.594 -2.16434 0.75424 0
M  V30 2033 C 195.594 -1.59278 -0.220685 0
M  V30 2034 O 196.784 -1.742 0.00230591 0
M  V30 2035 C 193.916 -3.40699 0.116987 0
M  V30 2036 H 195.109 -2.48811 1.67431 0
M  V30 2037 H 192.662 -1.27542 0.903475 0
M  V30 2038 H 193.397 -3.13921 -0.813877 0
M  V30 2039 H 193.182 -3.83459 0.818613 0
M  V30 2040 H 194.672 -4.17451 -0.111387 0
M  V30 2041 N 195.109 -0.891671 -1.2995 0
M  V30 2042 C 196.072 -0.36828 -2.26222 0
M  V30 2043 C 197.072 0.493014 -1.53056 0
M  V30 2044 O 198.262 0.299213 -1.71611 0
M  V30 2045 C 195.394 0.47442 -3.37583 0
M  V30 2046 H 196.587 -1.21844 -2.74033 0
M  V30 2047 H 194.14 -0.669107 -1.41254 0
M  V30 2048 H 194.875 1.34489 -2.95099 0
M  V30 2049 H 194.66 -0.142615 -3.91841 0
M  V30 2050 H 196.15 0.83218 -4.09224 0
M  V30 2051 N 196.587 1.43421 -0.653314 0
M  V30 2052 C 197.497 2.34568 0.0388565 0
M  V30 2053 C 198.513 1.53888 0.81207 0
M  V30 2054 O 199.689 1.86539 0.759294 0
M  V30 2055 C 196.754 3.32167 0.993269 0
M  V30 2056 C 195.815 4.28751 0.216977 0
M  V30 2057 C 195.048 5.21688 1.12593 0
M  V30 2058 O 195.271 5.19052 2.36519 0
M  V30 2059 O 194.205 5.98919 0.598284 0
M  V30 2060 H 198.031 2.95251 -0.711386 0
M  V30 2061 H 195.616 1.43564 -0.413502 0
M  V30 2062 H 197.498 3.92183 1.54176 0
M  V30 2063 H 196.173 2.73987 1.72374 0
M  V30 2064 H 195.08 3.72215 -0.375101 0
M  V30 2065 H 196.413 4.89913 -0.473924 0
M  V30 2066 N 198.065 0.39524 1.52563 0
M  V30 2067 C 199.028 -0.425001 2.25225 0
M  V30 2068 C 200.028 -0.985266 1.27079 0
M  V30 2069 O 201.218 -0.866332 1.5113 0
M  V30 2070 C 198.35 -1.59686 3.01186 0
M  V30 2071 H 199.543 0.211233 2.99155 0
M  V30 2072 H 197.096 0.147472 1.55603 0
M  V30 2073 H 197.831 -2.27035 2.31572 0
M  V30 2074 H 197.616 -1.20176 3.73229 0
M  V30 2075 H 199.106 -2.17743 3.5634 0
M  V30 2076 N 199.544 -1.57102 0.125237 0
M  V30 2077 C 200.507 -2.14471 -0.80838 0
M  V30 2078 C 201.507 -1.0811 -1.19033 0
M  V30 2079 O 202.697 -1.33856 -1.11482 0
M  V30 2080 C 199.829 -2.69005 -2.09402 0
M  V30 2081 H 201.022 -2.98297 -0.309696 0
M  V30 2082 H 198.575 -1.55807 -0.124051 0
M  V30 2083 H 199.31 -1.88785 -2.63687 0
M  V30 2084 H 199.095 -3.46799 -1.82957 0
M  V30 2085 H 200.585 -3.13278 -2.76128 0
M  V30 2086 N 201.022 0.148545 -1.56898 0
M  V30 2087 C 201.932 1.20293 -2.01412 0
M  V30 2088 C 202.948 1.47107 -0.929273 0
M  V30 2089 O 204.124 1.58807 -1.23863 0
M  V30 2090 C 201.189 2.51682 -2.38447 0
M  V30 2091 C 200.25 2.32529 -3.60872 0
M  V30 2092 C 199.483 3.57653 -3.96132 0
M  V30 2093 O 199.706 4.63771 -3.32073 0
M  V30 2094 O 198.64 3.50408 -4.89385 0
M  V30 2095 H 202.466 0.855025 -2.91416 0
M  V30 2096 H 200.051 0.357151 -1.45068 0
M  V30 2097 H 201.933 3.29147 -2.63135 0
M  V30 2098 H 200.608 2.86006 -1.51599 0
M  V30 2099 H 199.515 1.53019 -3.41373 0
M  V30 2100 H 200.848 2.03121 -4.48333 0
M  V30 2101 N 202.5 1.5196 0.417844 0
M  V30 2102 C 203.911 1.57851 0.997 0
M  V30 2103 C 204.262 0.413714 1.91789 0
M  V30 2104 O 203.387 -0.467057 2.113 0
M  V30 2105 C 203.982 2.86085 1.81496 0
M  V30 2106 C 202.541 2.94483 2.34428 0
M  V30 2107 C 201.688 2.52707 1.14169 0
M  V30 2108 H 204.639 1.57455 0.198392 0
M  V30 2109 H 204.66 2.70947 2.67148 0
M  V30 2110 H 204.172 3.70842 1.14446 0
M  V30 2111 H 202.273 2.142 3.04875 0
M  V30 2112 H 202.386 3.98546 2.65891 0
M  V30 2113 H 200.75 2.06353 1.49301 0
M  V30 2114 H 201.533 3.39828 0.486999 0
M  V30 2115 N 203.978 -0.674533 1.42435 0
M  V30 2116 C 205.203 -1.46784 1.46524 0
M  V30 2117 C 205.628 -1.87938 0.078066 0
M  V30 2118 O 204.986 -1.56014 -0.92354 0
M  V30 2119 C 205.034 -2.69307 2.39805 0
M  V30 2120 O 204.138 -3.67587 1.86959 0
M  V30 2121 H 203.479 -0.440959 0.496439 0
M  V30 2122 H 206.009 -0.827326 1.87127 0
M  V30 2123 H 206.019 -3.17374 2.56393 0
M  V30 2124 H 204.694 -2.38692 3.40586 0
M  V30 2125 H 203.271 -3.2662 1.79927 0
M  V30 2126 N 205.456 -1.28612 -0.910864 0
M  V30 2127 C 206.684 -1.18792 -1.69399 0
M  V30 2128 C 207.099 0.253039 -1.87097 0
M  V30 2129 O 206.456 1.17071 -1.40003 0
M  V30 2130 C 206.507 -1.88511 -3.08457 0
M  V30 2131 O 206.228 -3.26979 -2.91576 0
M  V30 2132 C 207.729 -1.85029 -4.02839 0
M  V30 2133 H 204.949 -0.412233 -0.529438 0
M  V30 2134 H 207.493 -1.69788 -1.13984 0
M  V30 2135 H 205.648 -1.41379 -3.60681 0
M  V30 2136 H 206.062 -3.61936 -3.79608 0
M  V30 2137 H 207.536 -2.38395 -4.97867 0
M  V30 2138 H 208.013 -0.823303 -4.31414 0
M  V30 2139 H 208.619 -2.31853 -3.56545 0
M  V30 2140 N 206.934 1.1197 -1.10907 0
M  V30 2141 C 208.18 1.8386 -0.855773 0
M  V30 2142 C 208.513 1.84134 0.617103 0
M  V30 2143 O 207.788 1.29041 1.45529 0
M  V30 2144 C 208.071 3.31305 -1.411 0
M  V30 2145 C 207.924 3.39456 -2.9511 0
M  V30 2146 C 209.243 4.2721 -1.05736 0
M  V30 2147 H 206.362 0.667545 -0.312334 0
M  V30 2148 H 209.004 1.31331 -1.37303 0
M  V30 2149 H 207.154 3.76169 -0.97105 0
M  V30 2150 H 208.826 3.03191 -3.47668 0
M  V30 2151 H 207.069 2.79849 -3.31462 0
M  V30 2152 H 207.74 4.43209 -3.29044 0
M  V30 2153 H 210.216 3.90497 -1.43706 0
M  V30 2154 H 209.092 5.28775 -1.47269 0
M  V30 2155 H 209.353 4.42088 0.0325958 0
M  V30 2156 N 208.412 0.89855 1.29475 0
M  V30 2157 C 209.359 0.373819 2.27753 0
M  V30 2158 C 210.329 -0.543444 1.56958 0
M  V30 2159 O 211.514 -0.468934 1.84948 0
M  V30 2160 C 208.654 -0.393648 3.42848 0
M  V30 2161 C 207.767 0.554379 4.28428 0
M  V30 2162 C 206.902 -0.230026 5.30702 0
M  V30 2163 C 205.941 0.712599 6.07938 0
M  V30 2164 N 205.078 -0.0373283 7.0209 0
M  V30 2165 H 209.918 1.21699 2.72017 0
M  V30 2166 H 207.455 0.611456 1.33789 0
M  V30 2167 H 209.413 -0.85466 4.08352 0
M  V30 2168 H 208.043 -1.20128 2.99615 0
M  V30 2169 H 207.095 1.13391 3.63107 0
M  V30 2170 H 208.407 1.27597 4.82204 0
M  V30 2171 H 207.561 -0.752288 6.02018 0
M  V30 2172 H 206.3 -0.984758 4.77654 0
M  V30 2173 H 205.305 1.24637 5.35486 0
M  V30 2174 H 206.53 1.46664 6.63074 0
M  V30 2175 H 204.476 -0.774348 6.51414 0
M  V30 2176 H 204.393 0.624374 7.53417 0
M  V30 2177 H 205.661 -0.539891 7.77628 0
M  V30 2178 N 209.89 -1.43072 0.660911 0
M  V30 2179 C 211.136 -2.0202 0.177708 0
M  V30 2180 C 211.469 -1.52066 -1.20787 0
M  V30 2181 O 210.744 -0.716987 -1.80802 0
M  V30 2182 C 211.027 -3.59561 0.197019 0
M  V30 2183 C 210.88 -4.19727 1.61706 0
M  V30 2184 C 212.199 -4.37664 -0.462396 0
M  V30 2185 H 209.318 -0.734034 0.0660494 0
M  V30 2186 H 211.96 -1.70272 0.843058 0
M  V30 2187 H 210.11 -3.86739 -0.369527 0
M  V30 2188 H 211.782 -4.03553 2.23479 0
M  V30 2189 H 210.025 -3.76084 2.16201 0
M  V30 2190 H 210.696 -5.28834 1.58237 0
M  V30 2191 H 213.172 -4.16095 0.0197215 0
M  V30 2192 H 212.048 -5.47305 -0.418188 0
M  V30 2193 H 212.309 -4.14493 -1.53778 0
M  V30 2194 N 211.368 -0.403325 -1.52352 0
M  V30 2195 C 212.614 0.174605 -2.02047 0
M  V30 2196 C 212.947 1.45282 -1.28867 0
M  V30 2197 O 212.222 1.90483 -0.393257 0
M  V30 2198 C 212.505 0.428238 -3.57545 0
M  V30 2199 C 212.358 -0.866248 -4.4138 0
M  V30 2200 C 213.677 1.21287 -4.23057 0
M  V30 2201 H 210.796 0.0619851 -0.734389 0
M  V30 2202 H 213.438 -0.53565 -1.82293 0
M  V30 2203 H 211.588 1.03327 -3.74507 0
M  V30 2204 H 213.26 -1.50265 -4.3614 0
M  V30 2205 H 211.503 -1.47851 -4.07827 0
M  V30 2206 H 212.174 -0.643249 -5.48239 0
M  V30 2207 H 214.65 0.700703 -4.10158 0
M  V30 2208 H 213.526 1.35909 -5.31808 0
M  V30 2209 H 213.787 2.23193 -3.81625 0
M  V30 2210 N 212.846 1.57033 -0.133567 0
M  V30 2211 C 214.092 1.95976 0.521649 0
M  V30 2212 C 214.425 1.01779 1.65393 0
M  V30 2213 O 213.7 0.0576581 1.94415 0
M  V30 2214 C 213.983 3.44738 1.04057 0
M  V30 2215 C 213.836 4.49711 -0.0892897 0
M  V30 2216 C 215.155 3.95682 1.92675 0
M  V30 2217 H 212.274 0.712579 0.188149 0
M  V30 2218 H 214.916 1.88813 -0.212076 0
M  V30 2219 H 213.066 3.50973 1.66583 0
M  V30 2220 H 214.738 4.55565 -0.725152 0
M  V30 2221 H 212.981 4.27261 -0.750378 0
M  V30 2222 H 213.652 5.51099 0.315284 0
M  V30 2223 H 216.128 3.91841 1.39998 0
M  V30 2224 H 215.004 5.00262 2.25897 0
M  V30 2225 H 215.265 3.37239 2.85872 0
M  V30 2226 N 214.325 -0.140222 1.56975 0
M  V30 2227 C 215.273 -1.19207 1.99731 0
M  V30 2228 C 216.267 -1.44089 0.890777 0
M  V30 2229 O 217.473 -1.44301 1.07597 0
M  V30 2230 H 213.848 -0.40142 0.635898 0
M  V30 2231 H 215.819 -0.804813 2.87342 0
M  V30 2232 C 214.568 -2.51617 2.39967 0
M  V30 2233 H 213.891 -2.33303 3.24669 0
M  V30 2234 H 215.331 -3.23827 2.73701 0
M  V30 2235 C 213.79 -3.12654 1.25496 0
M  V30 2236 O 214.32 -3.97786 0.559371 0
M  V30 2237 N 212.526 -2.72206 1.01746 0
M  V30 2238 H 212.073 -2.03074 1.58489 0
M  V30 2239 H 212.031 -3.13377 0.253461 0
M  V30 2240 N 215.803 -1.52179 -0.40978 0
M  V30 2241 C 217.031 -1.70054 -1.17853 0
M  V30 2242 C 217.446 -0.409735 -1.843 0
M  V30 2243 O 216.803 0.614183 -1.71855 0
M  V30 2244 C 216.854 -2.83568 -2.24213 0
M  V30 2245 O 216.575 -4.0765 -1.60478 0
M  V30 2246 C 218.076 -3.12947 -3.13973 0
M  V30 2247 H 215.296 -0.569917 -0.354169 0
M  V30 2248 H 217.84 -1.98734 -0.482198 0
M  V30 2249 H 215.995 -2.57409 -2.89516 0
M  V30 2250 H 216.409 -4.70899 -2.30986 0
M  V30 2251 H 217.883 -3.95889 -3.84677 0
M  V30 2252 H 218.36 -2.26472 -3.76307 0
M  V30 2253 H 218.966 -3.40868 -2.5434 0
M  V30 2254 N 217.281 0.66697 -1.42791 0
M  V30 2255 C 218.697 0.981027 -1.25889 0
M  V30 2256 C 218.897 2.00793 -0.168695 0
M  V30 2257 O 217.953 2.48321 0.45747 0
M  V30 2258 C 219.266 1.47838 -2.61848 0
M  V30 2259 C 220.814 1.59575 -2.69267 0
M  V30 2260 C 221.289 2.12704 -4.05612 0
M  V30 2261 N 222.78 2.20026 -4.07606 0
M  V30 2262 C 223.515 2.62227 -5.09926 0
M  V30 2263 N 223.011 3.03824 -6.22626 0
M  V30 2264 N 224.804 2.62045 -4.97281 0
M  V30 2265 H 216.955 -0.0127891 -2.12396 0
M  V30 2266 H 219.218 0.0568258 -0.946295 0
M  V30 2267 H 218.924 0.798299 -3.4252 0
M  V30 2268 H 218.798 2.45579 -2.86305 0
M  V30 2269 H 221.185 2.26687 -1.88936 0
M  V30 2270 H 221.266 0.60302 -2.48591 0
M  V30 2271 H 220.91 1.46198 -4.86404 0
M  V30 2272 H 220.84 3.12782 -4.23645 0
M  V30 2273 H 223.331 1.90708 -3.2625 0
M  V30 2274 H 223.644 3.34734 -6.96544 0
M  V30 2275 H 221.989 3.01662 -6.26119 0
M  V30 2276 H 225.18 2.28916 -4.08308 0
M  V30 2277 H 225.353 2.94613 -5.77154 0
M  V30 2278 N 218.759 1.29093 0.90403 0
M  V30 2279 C 219.691 1.09658 2.01266 0
M  V30 2280 C 220.704 0.0453729 1.62737 0
M  V30 2281 O 221.893 0.289446 1.76138 0
M  V30 2282 C 218.993 0.646278 3.32681 0
M  V30 2283 C 218.166 1.77505 3.99763 0
M  V30 2284 C 217.225 1.31649 5.09465 0
M  V30 2285 O 216.251 2.02045 5.32134 0
M  V30 2286 N 217.453 0.184997 5.80205 0
M  V30 2287 H 220.218 2.05135 2.18494 0
M  V30 2288 H 217.779 1.20975 1.07594 0
M  V30 2289 H 219.771 0.322906 4.0341 0
M  V30 2290 H 218.341 -0.215916 3.11853 0
M  V30 2291 H 217.561 2.26752 3.22455 0
M  V30 2292 H 218.849 2.53198 4.41325 0
M  V30 2293 H 218.247 -0.402021 5.6427 0
M  V30 2294 H 216.804 -0.0790358 6.51752 0
M  V30 2295 N 220.237 -1.11381 1.11499 0
M  V30 2296 C 221.514 -1.7955 0.775965 0
M  V30 2297 C 221.894 -1.97859 -0.73588 0
M  V30 2298 O 221.242 -1.56376 -1.66609 0
M  V30 2299 C 221.452 -3.13196 1.53977 0
M  V30 2300 C 222.8 -3.88227 1.71944 0
M  V30 2301 O 223.824 -3.22887 1.50407 0
M  V30 2302 O 222.683 -5.05477 2.07738 0
M  V30 2303 H 219.777 -0.777728 0.28119 0
M  V30 2304 H 222.323 -1.18118 1.21845 0
M  V30 2305 H 221.095 -2.95229 2.56818 0
M  V30 2306 H 220.718 -3.82342 1.09088 0
M  V30 2307 N 221.715 -0.905404 -1.28997 0
M  V30 2308 C 222.678 -0.392253 -2.25819 0
M  V30 2309 C 223.678 0.476753 -1.5357 0
M  V30 2310 O 224.868 0.280994 -1.71919 0
M  V30 2311 C 222 0.438588 -3.38067 0
M  V30 2312 H 223.193 -1.24743 -2.72725 0
M  V30 2313 H 220.746 -0.684051 -1.40536 0
M  V30 2314 H 221.481 1.31352 -2.96508 0
M  V30 2315 H 221.266 -0.184167 -3.91667 0
M  V30 2316 H 222.756 0.78873 -4.10084 0
M  V30 2317 N 223.193 1.4272 -0.668489 0
M  V30 2318 C 224.123 2.335 -0.000100175 0
M  V30 2319 C 225.104 1.50328 0.795964 0
M  V30 2320 O 226.289 1.78949 0.754385 0
M  V30 2321 C 223.419 3.33874 0.956302 0
M  V30 2322 C 222.373 4.27152 0.269278 0
M  V30 2323 C 221.699 5.17684 1.33818 0
M  V30 2324 C 222.999 5.15373 -0.847805 0
M  V30 2325 H 224.693 2.89639 -0.758244 0
M  V30 2326 H 222.239 1.39269 -0.366079 0
M  V30 2327 H 224.192 3.9629 1.43292 0
M  V30 2328 H 222.916 2.76025 1.74579 0
M  V30 2329 H 221.575 3.66123 -0.187042 0
M  V30 2330 H 221.223 4.56165 2.1195 0
M  V30 2331 H 220.923 5.80918 0.883659 0
M  V30 2332 H 222.447 5.82974 1.81586 0
M  V30 2333 H 223.861 5.7151 -0.452681 0
M  V30 2334 H 222.258 5.87407 -1.22773 0
M  V30 2335 H 223.328 4.5415 -1.69929 0
M  V30 2336 N 224.671 0.411399 1.52136 0
M  V30 2337 C 225.901 -0.16284 2.05957 0
M  V30 2338 C 226.309 -1.3922 1.28119 0
M  V30 2339 O 225.652 -1.80768 0.326881 0
M  V30 2340 C 225.714 -0.575946 3.54856 0
M  V30 2341 C 225.378 0.542998 4.53763 0
M  V30 2342 C 226.375 1.40726 5.00492 0
M  V30 2343 C 224.06 0.716337 4.97166 0
M  V30 2344 C 226.054 2.4298 5.8927 0
M  V30 2345 C 223.741 1.74218 5.8574 0
M  V30 2346 C 224.739 2.59731 6.31687 0
M  V30 2347 O 224.427 3.60558 7.18507 0
M  V30 2348 H 224.159 -0.0229125 0.675612 0
M  V30 2349 H 226.713 0.581634 1.96993 0
M  V30 2350 H 224.943 -1.37274 3.61515 0
M  V30 2351 H 226.632 -1.07836 3.91313 0
M  V30 2352 H 227.398 1.28476 4.67674 0
M  V30 2353 H 223.277 0.0603857 4.6096 0
M  V30 2354 H 226.821 3.0976 6.25055 0
M  V30 2355 H 222.718 1.86498 6.17971 0
M  V30 2356 H 223.486 3.56829 7.36624 0
M  V30 2357 N 226.149 -1.5696 0.141893 0
M  V30 2358 C 227.396 -1.9596 -0.510492 0
M  V30 2359 C 227.724 -1.02648 -1.65208 0
M  V30 2360 O 226.979 -0.0546947 -1.95624 0
M  V30 2361 C 227.278 -3.41242 -1.06249 0
M  V30 2362 C 226.944 -4.50882 -0.0398791 0
M  V30 2363 C 225.606 -4.80595 0.241247 0
M  V30 2364 C 227.958 -5.17058 0.65578 0
M  V30 2365 C 225.286 -5.73792 1.22393 0
M  V30 2366 C 227.638 -6.11313 1.62724 0
M  V30 2367 C 226.302 -6.39407 1.91612 0
M  V30 2368 H 225.572 -0.717068 -0.186802 0
M  V30 2369 H 228.219 -1.90142 0.227643 0
M  V30 2370 H 226.524 -3.43866 -1.87785 0
M  V30 2371 H 228.221 -3.68742 -1.57576 0
M  V30 2372 H 224.811 -4.27754 -0.269174 0
M  V30 2373 H 228.995 -4.94239 0.451779 0
M  V30 2374 H 224.251 -5.93853 1.45424 0
M  V30 2375 H 228.425 -6.61668 2.17183 0
M  V30 2376 H 226.052 -7.11427 2.6791 0
M  V30 2377 N 227.627 0.131896 -1.57047 0
M  V30 2378 C 228.852 0.860418 -1.8871 0
M  V30 2379 C 229.277 1.73251 -0.73251 0
M  V30 2380 O 228.635 1.785 0.317429 0
M  V30 2381 C 228.683 1.68047 -3.19049 0
M  V30 2382 O 227.787 2.7862 -3.04047 0
M  V30 2383 H 227.128 0.238743 -0.619595 0
M  V30 2384 H 229.658 0.118169 -2.04258 0
M  V30 2385 H 229.668 2.07238 -3.51449 0
M  V30 2386 H 228.343 1.04018 -4.02682 0
M  V30 2387 H 226.92 2.42726 -2.83088 0
M  V30 2388 N 229.106 1.52395 0.401703 0
M  V30 2389 C 230.522 1.41363 0.740864 0
M  V30 2390 C 230.722 0.523982 1.94568 0
M  V30 2391 O 229.778 -0.00741204 2.52499 0
M  V30 2392 C 231.091 2.84011 0.987847 0
M  V30 2393 C 232.639 2.93404 1.09011 0
M  V30 2394 C 233.114 4.37036 1.3698 0
M  V30 2395 N 234.605 4.40304 1.43829 0
M  V30 2396 C 235.34 5.48508 1.67112 0
M  V30 2397 N 234.836 6.66819 1.87949 0
M  V30 2398 N 236.629 5.36034 1.69187 0
M  V30 2399 H 228.78 2.08765 -0.391262 0
M  V30 2400 H 231.043 0.941265 -0.112798 0
M  V30 2401 H 230.749 3.51265 0.174835 0
M  V30 2402 H 230.623 3.25502 1.906 0
M  V30 2403 H 233.01 2.26325 1.8937 0
M  V30 2404 H 233.091 2.55359 0.15015 0
M  V30 2405 H 232.735 5.04676 0.571353 0
M  V30 2406 H 232.665 4.72623 2.3224 0
M  V30 2407 H 235.156 3.55024 1.29486 0
M  V30 2408 H 235.469 7.45063 2.05185 0
M  V30 2409 H 233.814 6.6987 1.85199 0
M  V30 2410 H 237.005 4.42579 1.52451 0
M  V30 2411 H 237.178 6.20434 1.86993 0
M  V30 2412 N 230.584 -0.659388 1.43143 0
M  V30 2413 C 231.809 -1.45221 1.48073 0
M  V30 2414 C 232.234 -1.87845 0.097995 0
M  V30 2415 O 231.592 -1.56985 -0.90694 0
M  V30 2416 C 231.64 -2.66748 2.42647 0
M  V30 2417 O 230.744 -3.65583 1.90848 0
M  V30 2418 H 230.085 -0.435669 0.501088 0
M  V30 2419 H 232.615 -0.807432 1.87994 0
M  V30 2420 H 232.625 -3.14637 2.59745 0
M  V30 2421 H 231.3 -2.35067 3.43098 0
M  V30 2422 H 229.877 -3.24693 1.83381 0
M  V30 2423 N 232.062 -1.29571 -0.897171 0
M  V30 2424 C 233.473 -1.15964 -1.46319 0
M  V30 2425 C 233.824 0.244267 -1.94674 0
M  V30 2426 O 232.949 1.13998 -1.83939 0
M  V30 2427 C 233.544 -2.09906 -2.65942 0
M  V30 2428 C 232.103 -2.00314 -3.18671 0
M  V30 2429 C 231.25 -2.00687 -1.91363 0
M  V30 2430 H 234.201 -1.42019 -0.708268 0
M  V30 2431 H 234.222 -1.67276 -3.41759 0
M  V30 2432 H 233.734 -3.12075 -2.30718 0
M  V30 2433 H 231.835 -1.01242 -3.58582 0
M  V30 2434 H 231.948 -2.88102 -3.82798 0
M  V30 2435 H 230.312 -1.45319 -2.09175 0
M  V30 2436 H 231.095 -3.04566 -1.58413 0
M  V30 2437 N 233.54 1.10788 -1.12088 0
M  V30 2438 C 234.789 1.82036 -0.868659 0
M  V30 2439 C 235.102 1.85929 0.607426 0
M  V30 2440 O 236.308 2.53346 0.97613 0
M  V30 2441 C 234.764 3.26951 -1.50435 0
M  V30 2442 C 234.372 3.31367 -3.01496 0
M  V30 2443 C 236.116 4.03053 -1.33225 0
M  V30 2444 C 234.023 4.7072 -3.58017 0
M  V30 2445 H 232.953 0.682108 -0.321318 0
M  V30 2446 H 235.604 1.24618 -1.34694 0
M  V30 2447 H 233.986 3.84343 -0.953735 0
M  V30 2448 H 235.16 2.83819 -3.6302 0
M  V30 2449 H 233.475 2.6875 -3.18061 0
M  V30 2450 H 236.072 5.05981 -1.72878 0
M  V30 2451 H 236.415 4.15387 -0.275529 0
M  V30 2452 H 236.948 3.52066 -1.85188 0
M  V30 2453 H 233.687 4.63585 -4.63432 0
M  V30 2454 H 233.207 5.1865 -3.01268 0
M  V30 2455 H 234.886 5.39685 -3.56859 0
M  V30 2456 N 235.018 0.912232 1.28515 0
M  V30 2457 C 236.429 0.591352 1.77087 0
M  V30 2458 C 236.78 -0.8933 1.74684 0
M  V30 2459 O 235.905 -1.69876 1.34056 0
M  V30 2460 C 236.5 1.06668 3.2157 0
M  V30 2461 C 235.059 0.79675 3.67871 0
M  V30 2462 C 234.206 1.23427 2.48316 0
M  V30 2463 H 237.157 1.09365 1.15 0
M  V30 2464 H 237.178 0.407455 3.78312 0
M  V30 2465 H 236.69 2.14726 3.23287 0
M  V30 2466 H 234.791 -0.270679 3.71616 0
M  V30 2467 H 234.904 1.40343 4.58084 0
M  V30 2468 H 233.268 0.653036 2.46186 0
M  V30 2469 H 234.051 2.32316 2.52753 0
M  V30 2470 N 236.496 -1.42363 0.676048 0
M  V30 2471 C 237.726 -2.05561 0.206967 0
M  V30 2472 C 238.134 -1.50887 -1.14148 0
M  V30 2473 O 237.477 -0.643933 -1.72044 0
M  V30 2474 C 237.539 -3.5944 0.0659508 0
M  V30 2475 C 237.203 -4.36812 1.34331 0
M  V30 2476 C 238.2 -4.67383 2.27704 0
M  V30 2477 C 235.885 -4.76429 1.59125 0
M  V30 2478 C 237.879 -5.36509 3.44147 0
M  V30 2479 C 235.566 -5.45294 2.75857 0
M  V30 2480 C 236.564 -5.75259 3.68193 0
M  V30 2481 O 236.252 -6.42712 4.82883 0
M  V30 2482 H 235.984 -0.668872 0.0979084 0
M  V30 2483 H 238.538 -1.83467 0.923531 0
M  V30 2484 H 236.768 -3.80197 -0.706204 0
M  V30 2485 H 238.457 -4.0427 -0.363418 0
M  V30 2486 H 239.223 -4.37275 2.09799 0
M  V30 2487 H 235.102 -4.52498 0.881258 0
M  V30 2488 H 238.646 -5.59814 4.16238 0
M  V30 2489 H 234.543 -5.7482 2.93688 0
M  V30 2490 H 235.311 -6.61204 4.82444 0
M  V30 2491 N 237.974 -0.419461 -1.51915 0
M  V30 2492 C 239.385 0.0477853 -1.86639 0
M  V30 2493 C 239.736 1.43531 -1.33766 0
M  V30 2494 O 238.861 2.05401 -0.68113 0
M  V30 2495 C 239.456 0.0934885 -3.38671 0
M  V30 2496 C 238.015 0.505097 -3.72996 0
M  V30 2497 C 237.162 -0.313792 -2.75519 0
M  V30 2498 H 240.113 -0.636088 -1.45395 0
M  V30 2499 H 240.134 0.906667 -3.6954 0
M  V30 2500 H 239.646 -0.916501 -3.77123 0
M  V30 2501 H 237.747 1.52135 -3.40126 0
M  V30 2502 H 237.86 0.242309 -4.78487 0
M  V30 2503 H 236.224 0.225363 -2.53701 0
M  V30 2504 H 237.007 -1.32232 -3.16812 0
M  V30 2505 N 239.452 1.56882 -0.150215 0
M  V30 2506 C 240.868 1.58263 0.20617 0
M  V30 2507 C 241.068 1.16464 1.64434 0
M  V30 2508 O 240.124 0.866422 2.3717 0
M  V30 2509 C 241.437 3.00649 -0.0555025 0
M  V30 2510 C 242.985 3.12999 0.00795388 0
M  V30 2511 C 243.46 4.5744 -0.226429 0
M  V30 2512 N 244.951 4.62875 -0.173469 0
M  V30 2513 C 245.686 5.72454 -0.329288 0
M  V30 2514 N 245.182 6.90669 -0.543005 0
M  V30 2515 N 246.975 5.61467 -0.266666 0
M  V30 2516 H 239.126 1.82345 -1.08922 0
M  V30 2517 H 241.389 0.844149 -0.431413 0
M  V30 2518 H 241.095 3.3563 -1.05096 0
M  V30 2519 H 240.969 3.71337 0.66246 0
M  V30 2520 H 243.356 2.77857 0.993966 0
M  V30 2521 H 243.437 2.4479 -0.742388 0
M  V30 2522 H 243.081 4.93287 -1.20956 0
M  V30 2523 H 243.011 5.2378 0.544274 0
M  V30 2524 H 245.502 3.77898 -0.0130709 0
M  V30 2525 H 245.815 7.70045 -0.651922 0
M  V30 2526 H 244.16 6.92581 -0.579366 0
M  V30 2527 H 247.351 4.67992 -0.100441 0
M  V30 2528 H 247.524 6.46816 -0.391535 0
M  V30 2529 N 240.93 -0.123565 1.57115 0
M  V30 2530 C 241.878 -1.17082 2.00984 0
M  V30 2531 C 242.872 -1.43136 0.906009 0
M  V30 2532 O 244.078 -1.43152 1.09121 0
M  V30 2533 H 240.453 -0.394653 0.64012 0
M  V30 2534 H 242.424 -0.774292 2.88179 0
M  V30 2535 C 241.173 -2.49057 2.42623 0
M  V30 2536 H 240.496 -2.29846 3.27125 0
M  V30 2537 H 241.936 -3.20906 2.7712 0
M  V30 2538 C 240.395 -3.11305 1.28805 0
M  V30 2539 O 240.925 -3.97171 0.60153 0
M  V30 2540 N 239.131 -2.71111 1.04628 0
M  V30 2541 H 238.678 -2.01382 1.60634 0
M  V30 2542 H 238.636 -3.1309 0.286685 0
M  V30 2543 N 242.408 -1.52605 -0.393616 0
M  V30 2544 C 243.371 -1.76415 -1.46323 0
M  V30 2545 C 244.371 -0.634126 -1.47768 0
M  V30 2546 O 245.561 -0.902142 -1.4902 0
M  V30 2547 C 242.693 -1.8607 -2.85641 0
M  V30 2548 H 243.886 -2.71916 -1.26498 0
M  V30 2549 H 241.439 -1.43257 -0.625073 0
M  V30 2550 H 242.174 -0.925378 -3.10817 0
M  V30 2551 H 241.959 -2.68235 -2.85993 0
M  V30 2552 H 243.449 -2.06179 -3.63153 0
M  V30 2553 N 243.887 0.651787 -1.4349 0
M  V30 2554 C 244.797 1.79368 -1.5121 0
M  V30 2555 C 245.813 1.69361 -0.399093 0
M  V30 2556 O 246.989 1.90505 -0.653431 0
M  V30 2557 C 244.054 3.15653 -1.43401 0
M  V30 2558 C 243.115 3.37446 -2.65384 0
M  V30 2559 C 242.348 4.67229 -2.57939 0
M  V30 2560 O 242.571 5.46676 -1.62792 0
M  V30 2561 O 241.505 4.90773 -3.48462 0
M  V30 2562 H 245.331 1.7581 -2.47638 0
M  V30 2563 H 242.916 0.810447 -1.25507 0
M  V30 2564 H 244.798 3.96935 -1.41494 0
M  V30 2565 H 243.473 3.19798 -0.501085 0
M  V30 2566 H 242.38 2.55923 -2.72863 0
M  V30 2567 H 243.713 3.38148 -3.57654 0
M  V30 2568 N 245.365 1.30045 0.890287 0
M  V30 2569 C 246.312 1.15976 1.99545 0
M  V30 2570 C 247.282 0.0506202 1.66023 0
M  V30 2571 O 248.467 0.219847 1.89529 0
M  V30 2572 C 245.607 0.852054 3.34416 0
M  V30 2573 C 244.72 2.04255 3.80662 0
M  V30 2574 C 243.855 1.6734 5.04154 0
M  V30 2575 C 242.894 2.82916 5.42794 0
M  V30 2576 N 242.031 2.46333 6.57468 0
M  V30 2577 H 246.871 2.10524 2.10911 0
M  V30 2578 H 244.408 1.04749 1.03276 0
M  V30 2579 H 246.366 0.654296 4.12037 0
M  V30 2580 H 244.996 -0.0565502 3.2275 0
M  V30 2581 H 244.048 2.35172 2.98995 0
M  V30 2582 H 245.36 2.90826 4.05242 0
M  V30 2583 H 244.514 1.43908 5.89386 0
M  V30 2584 H 243.253 0.779308 4.81433 0
M  V30 2585 H 242.258 3.0702 4.56091 0
M  V30 2586 H 243.483 3.73004 5.6749 0
M  V30 2587 H 241.429 1.59423 6.36334 0
M  V30 2588 H 241.346 3.26436 6.81891 0
M  V30 2589 H 242.614 2.26244 7.45945 0
M  V30 2590 N 246.843 -1.10192 1.12674 0
M  V30 2591 C 247.806 -2.14786 0.799979 0
M  V30 2592 C 248.806 -1.59711 -0.18685 0
M  V30 2593 O 249.996 -1.74156 0.0392558 0
M  V30 2594 C 247.128 -3.40374 0.189228 0
M  V30 2595 H 248.321 -2.45203 1.72671 0
M  V30 2596 H 245.874 -1.25597 0.930326 0
M  V30 2597 H 246.609 -3.15577 -0.747107 0
M  V30 2598 H 246.394 -3.81637 0.899766 0
M  V30 2599 H 247.884 -4.17594 -0.0228143 0
M  V30 2600 N 248.321 -0.919034 -1.28029 0
M  V30 2601 C 249.737 -0.617972 -1.4715 0
M  V30 2602 C 249.937 0.835242 -1.83374 0
M  V30 2603 O 248.993 1.61388 -1.94191 0
M  V30 2604 C 250.306 -1.56041 -2.57044 0
M  V30 2605 C 251.854 -1.56769 -2.7091 0
M  V30 2606 C 252.329 -2.49688 -3.83953 0
M  V30 2607 N 253.82 -2.47845 -3.91314 0
M  V30 2608 C 254.555 -3.16437 -4.78179 0
M  V30 2609 N 254.051 -3.94376 -5.69596 0
M  V30 2610 N 255.844 -3.05498 -4.71834 0
M  V30 2611 H 247.995 -1.85866 -1.02798 0
M  V30 2612 H 250.258 -0.797506 -0.512531 0
M  V30 2613 H 249.964 -2.59671 -2.372 0
M  V30 2614 H 249.838 -1.29551 -3.54255 0
M  V30 2615 H 252.225 -0.538745 -2.90141 0
M  V30 2616 H 252.306 -1.87305 -1.74214 0
M  V30 2617 H 251.95 -3.52688 -3.65477 0
M  V30 2618 H 251.88 -2.16453 -4.80058 0
M  V30 2619 H 254.371 -1.91234 -3.25941 0
M  V30 2620 H 254.684 -4.43721 -6.32718 0
M  V30 2621 H 253.029 -3.98481 -5.69419 0
M  V30 2622 H 256.22 -2.44108 -3.99411 0
M  V30 2623 H 256.393 -3.59225 -5.39316 0
M  V30 2624 N 249.799 1.42003 -0.683588 0
M  V30 2625 C 251.029 2.05448 -0.217866 0
M  V30 2626 C 251.437 1.51491 1.13346 0
M  V30 2627 O 250.78 0.653048 1.717 0
M  V30 2628 C 250.842 3.59399 -0.0850118 0
M  V30 2629 C 250.506 4.36093 -1.36645 0
M  V30 2630 C 251.503 4.66169 -2.30179 0
M  V30 2631 C 249.188 4.75578 -1.61649 0
M  V30 2632 C 251.182 5.34676 -3.46988 0
M  V30 2633 C 248.869 5.43824 -2.78745 0
M  V30 2634 C 249.867 5.73299 -3.71238 0
M  V30 2635 O 249.555 6.40142 -4.86285 0
M  V30 2636 H 249.287 0.668344 -0.101454 0
M  V30 2637 H 251.841 1.82974 -0.933248 0
M  V30 2638 H 250.071 3.80566 0.686031 0
M  V30 2639 H 251.76 4.04457 0.341973 0
M  V30 2640 H 252.526 4.36156 -2.12115 0
M  V30 2641 H 248.405 4.52025 -0.905243 0
M  V30 2642 H 251.949 5.57599 -4.19201 0
M  V30 2643 H 247.846 5.73254 -2.96732 0
M  V30 2644 H 248.614 6.58636 -4.85944 0
M  V30 2645 N 251.277 0.427512 1.51691 0
M  V30 2646 C 252.207 -0.3796 2.30394 0
M  V30 2647 C 253.188 -1.02982 1.35384 0
M  V30 2648 O 254.373 -1.03534 1.643 0
M  V30 2649 C 251.503 -1.48649 3.1388 0
M  V30 2650 C 250.457 -0.960294 4.17088 0
M  V30 2651 C 249.783 -2.16219 4.89033 0
M  V30 2652 C 251.083 -0.00153679 5.223 0
M  V30 2653 H 252.777 0.277164 2.98114 0
M  V30 2654 H 250.323 0.134739 1.43368 0
M  V30 2655 H 252.276 -2.05826 3.67714 0
M  V30 2656 H 251 -2.1714 2.43962 0
M  V30 2657 H 249.659 -0.410806 3.64291 0
M  V30 2658 H 249.307 -2.83307 4.15628 0
M  V30 2659 H 249.007 -1.81654 5.58816 0
M  V30 2660 H 250.531 -2.73968 5.45687 0
M  V30 2661 H 251.945 -0.482687 5.71264 0
M  V30 2662 H 250.342 0.256199 5.99553 0
M  V30 2663 H 251.412 0.938174 4.75738 0
M  V30 2664 N 252.755 -1.56801 0.158532 0
M  V30 2665 C 253.702 -2.17337 -0.776729 0
M  V30 2666 C 254.672 -1.1096 -1.23601 0
M  V30 2667 O 255.857 -1.39054 -1.30647 0
M  V30 2668 C 252.997 -2.80822 -2.00582 0
M  V30 2669 C 252.11 -4.01624 -1.59129 0
M  V30 2670 C 251.245 -4.53072 -2.77306 0
M  V30 2671 C 250.284 -5.66314 -2.32282 0
M  V30 2672 N 249.421 -6.12329 -3.43508 0
M  V30 2673 H 254.261 -2.96918 -0.253701 0
M  V30 2674 H 251.798 -1.46661 -0.113504 0
M  V30 2675 H 253.756 -3.15779 -2.72652 0
M  V30 2676 H 252.386 -2.03866 -2.50277 0
M  V30 2677 H 251.438 -3.72571 -0.767806 0
M  V30 2678 H 252.75 -4.83633 -1.2207 0
M  V30 2679 H 251.904 -4.90145 -3.57551 0
M  V30 2680 H 250.643 -3.70095 -3.17617 0
M  V30 2681 H 249.648 -5.28806 -1.5048 0
M  V30 2682 H 250.873 -6.51085 -1.93043 0
M  V30 2683 H 248.819 -5.32284 -3.83418 0
M  V30 2684 H 248.736 -6.89293 -3.105 0
M  V30 2685 H 250.004 -6.5405 -4.24075 0
M  V30 2686 N 254.233 0.115231 -1.57178 0
M  V30 2687 C 255.183 1.14707 -1.97044 0
M  V30 2688 C 256.167 1.36866 -0.845957 0
M  V30 2689 O 257.359 1.37895 -1.10968 0
M  V30 2690 C 254.488 2.47266 -2.38148 0
M  V30 2691 C 253.574 2.28566 -3.57237 0
M  V30 2692 N 253.965 1.79685 -4.72807 0
M  V30 2693 C 252.263 2.59208 -3.62943 0
M  V30 2694 C 252.964 1.74781 -5.54821 0
M  V30 2695 N 251.94 2.19264 -4.97417 0
M  V30 2696 H 255.742 0.761754 -2.83857 0
M  V30 2697 H 253.256 0.322928 -1.59157 0
M  V30 2698 H 255.253 3.219 -2.64927 0
M  V30 2699 H 253.913 2.86552 -1.52702 0
M  V30 2700 H 254.924 1.49177 -4.9595 0
M  V30 2701 H 251.601 3.02154 -2.88113 0
M  V30 2702 H 252.991 1.38212 -6.57531 0
M  V30 2703 N 255.711 1.52812 0.385517 0
M  V30 2704 C 256.957 1.68275 1.13188 0
M  V30 2705 C 257.29 0.423179 1.89533 0
M  V30 2706 O 256.565 -0.579113 1.85679 0
M  V30 2707 C 256.848 2.92001 2.1073 0
M  V30 2708 C 256.701 4.28067 1.38125 0
M  V30 2709 C 258.02 3.11283 3.11113 0
M  V30 2710 H 255.139 0.612352 0.410115 0
M  V30 2711 H 257.781 1.85415 0.414869 0
M  V30 2712 H 255.931 2.77519 2.71874 0
M  V30 2713 H 257.603 4.54324 0.799187 0
M  V30 2714 H 255.846 4.28388 0.683092 0
M  V30 2715 H 256.517 5.10733 2.09417 0
M  V30 2716 H 258.993 3.2482 2.6006 0
M  V30 2717 H 257.869 3.99325 3.76605 0
M  V30 2718 H 258.13 2.25656 3.80173 0
M  V30 2719 N 257.189 -0.644168 1.43834 0
M  V30 2720 C 258.437 -1.40117 1.45642 0
M  V30 2721 C 258.758 -1.94814 0.0852413 0
M  V30 2722 O 258.028 -1.74988 -0.880688 0
M  V30 2723 H 256.608 -0.52005 0.536243 0
M  V30 2724 H 259.27 -0.7591 1.7951 0
M  V30 2725 H 258.366 -2.23902 2.17427 0
M  V30 2726 N 258.668 -1.30515 -0.883378 0
M  V30 2727 C 259.917 -1.18795 -1.63005 0
M  V30 2728 C 260.23 0.255923 -1.93919 0
M  V30 2729 O 261.436 0.494654 -2.66956 0
M  V30 2730 C 259.892 -2.07878 -2.93794 0
M  V30 2731 C 259.5 -3.57184 -2.70414 0
M  V30 2732 C 261.244 -2.04924 -3.71761 0
M  V30 2733 C 259.151 -4.38317 -3.97029 0
M  V30 2734 H 258.081 -0.441031 -0.611562 0
M  V30 2735 H 260.732 -1.55275 -0.977854 0
M  V30 2736 H 259.114 -1.64283 -3.60315 0
M  V30 2737 H 260.288 -4.08937 -2.12384 0
M  V30 2738 H 258.603 -3.61976 -2.0582 0
M  V30 2739 H 261.2 -2.62792 -4.65665 0
M  V30 2740 H 261.543 -1.0331 -4.03277 0
M  V30 2741 H 262.076 -2.46649 -3.12104 0
M  V30 2742 H 258.815 -5.40632 -3.70671 0
M  V30 2743 H 258.335 -3.91326 -4.54559 0
M  V30 2744 H 260.014 -4.49834 -4.65036 0
M  V30 2745 N 260.146 1.09593 -1.13257 0
M  V30 2746 C 261.376 1.85231 -0.915049 0
M  V30 2747 C 261.784 1.81345 0.539498 0
M  V30 2748 O 261.127 1.20664 1.38513 0
M  V30 2749 C 261.189 3.34275 -1.3229 0
M  V30 2750 C 260.853 3.6191 -2.79052 0
M  V30 2751 C 261.85 3.57777 -3.77216 0
M  V30 2752 C 259.535 3.90309 -3.16171 0
M  V30 2753 C 261.529 3.81652 -5.1051 0
M  V30 2754 C 259.216 4.13839 -4.49644 0
M  V30 2755 C 260.214 4.09502 -5.46623 0
M  V30 2756 O 259.902 4.32426 -6.77689 0
M  V30 2757 H 259.634 0.591997 -0.326367 0
M  V30 2758 H 262.188 1.394 -1.50854 0
M  V30 2759 H 260.418 3.80805 -0.672667 0
M  V30 2760 H 262.107 3.9132 -1.07812 0
M  V30 2761 H 262.873 3.35865 -3.49885 0
M  V30 2762 H 258.752 3.92811 -2.41289 0
M  V30 2763 H 262.296 3.78182 -5.86195 0
M  V30 2764 H 258.193 4.35232 -4.767 0
M  V30 2765 H 258.961 4.49896 -6.83766 0
M  V30 2766 N 261.624 0.925811 1.2754 0
M  V30 2767 C 262.587 0.428129 2.25166 0
M  V30 2768 C 263.587 -0.452261 1.54309 0
M  V30 2769 O 264.777 -0.253608 1.72344 0
M  V30 2770 C 261.909 -0.384749 3.38722 0
M  V30 2771 H 263.102 1.29066 2.70706 0
M  V30 2772 H 260.655 0.706323 1.3943 0
M  V30 2773 H 261.39 -1.26618 2.98561 0
M  V30 2774 H 261.175 0.246454 3.91325 0
M  V30 2775 H 262.665 -0.723389 4.11287 0
M  V30 2776 N 263.102 -1.41638 0.69111 0
M  V30 2777 C 264.332 -2.0533 0.228758 0
M  V30 2778 C 264.74 -1.52089 -1.12541 0
M  V30 2779 O 264.083 -0.662145 -1.71351 0
M  V30 2780 C 264.145 -3.59349 0.10407 0
M  V30 2781 C 263.809 -4.35362 1.38956 0
M  V30 2782 C 264.806 -4.64942 2.32648 0
M  V30 2783 C 262.491 -4.74714 1.64169 0
M  V30 2784 C 264.485 -5.32828 3.49818 0
M  V30 2785 C 262.172 -5.42338 2.81625 0
M  V30 2786 C 263.17 -5.71322 3.74273 0
M  V30 2787 O 262.858 -6.37554 4.89673 0
M  V30 2788 H 262.59 -0.667796 0.104997 0
M  V30 2789 H 265.144 -1.82477 0.942938 0
M  V30 2790 H 263.374 -3.80924 -0.665839 0
M  V30 2791 H 265.063 -4.04633 -0.320519 0
M  V30 2792 H 265.829 -4.35025 2.14425 0
M  V30 2793 H 261.708 -4.51538 0.929202 0
M  V30 2794 H 265.252 -5.55368 4.22152 0
M  V30 2795 H 261.149 -5.71673 2.99768 0
M  V30 2796 H 261.917 -6.56049 4.8943 0
M  V30 2797 N 264.58 -0.43555 -1.51462 0
M  V30 2798 C 265.996 -0.0877501 -1.59359 0
M  V30 2799 C 266.196 1.4027 -1.4466 0
M  V30 2800 O 265.252 2.17243 -1.28693 0
M  V30 2801 C 266.565 -0.606264 -2.94525 0
M  V30 2802 C 268.113 -0.566548 -3.0783 0
M  V30 2803 C 268.588 -1.06201 -4.45517 0
M  V30 2804 N 270.079 -1.01992 -4.51832 0
M  V30 2805 C 270.814 -1.37417 -5.5669 0
M  V30 2806 N 270.31 -1.80119 -6.68976 0
M  V30 2807 N 272.103 -1.29245 -5.47039 0
M  V30 2808 H 264.254 -1.40533 -1.59261 0
M  V30 2809 H 266.517 -0.578992 -0.750648 0
M  V30 2810 H 266.223 -1.64901 -3.10645 0
M  V30 2811 H 266.097 -0.0302097 -3.77188 0
M  V30 2812 H 268.484 0.467208 -2.91378 0
M  V30 2813 H 268.565 -1.17898 -2.2701 0
M  V30 2814 H 268.209 -2.09422 -4.62715 0
M  V30 2815 H 268.139 -0.426127 -5.24873 0
M  V30 2816 H 270.63 -0.706308 -3.71241 0
M  V30 2817 H 270.943 -2.05392 -7.45006 0
M  V30 2818 H 269.288 -1.84044 -6.70189 0
M  V30 2819 H 272.479 -0.957522 -4.58202 0
M  V30 2820 H 272.652 -1.57182 -6.28648 0
M  V30 2821 N 266.058 1.56714 -0.166846 0
M  V30 2822 C 267.474 1.58473 0.189372 0
M  V30 2823 C 267.674 1.18201 1.63189 0
M  V30 2824 O 266.73 0.891528 2.36237 0
M  V30 2825 C 268.043 3.00573 -0.0873872 0
M  V30 2826 C 269.591 3.1299 -0.0252443 0
M  V30 2827 C 270.066 4.57174 -0.274934 0
M  V30 2828 N 271.557 4.62665 -0.222553 0
M  V30 2829 C 272.292 5.72072 -0.389985 0
M  V30 2830 N 271.788 6.90054 -0.616229 0
M  V30 2831 N 273.581 5.61153 -0.326202 0
M  V30 2832 H 265.732 1.8118 -1.10849 0
M  V30 2833 H 267.995 0.839525 -0.440342 0
M  V30 2834 H 267.701 3.34497 -1.0865 0
M  V30 2835 H 267.575 3.72019 0.623037 0
M  V30 2836 H 269.962 2.78895 0.96444 0
M  V30 2837 H 270.043 2.43989 -0.768309 0
M  V30 2838 H 269.687 4.91976 -1.26181 0
M  V30 2839 H 269.617 5.24328 0.48869 0
M  V30 2840 H 272.108 3.77863 -0.0531512 0
M  V30 2841 H 272.421 7.69311 -0.733559 0
M  V30 2842 H 270.766 6.91927 -0.652791 0
M  V30 2843 H 273.957 4.67859 -0.150072 0
M  V30 2844 H 274.13 6.46364 -0.460116 0
M  V30 2845 N 267.536 -0.106894 1.57237 0
M  V30 2846 C 268.813 -0.843526 1.76477 0
M  V30 2847 C 269.193 -1.97499 0.745464 0
M  V30 2848 O 268.541 -2.27357 -0.228306 0
M  V30 2849 C 268.751 -1.34903 3.21873 0
M  V30 2850 C 270.099 -1.79654 3.8472 0
M  V30 2851 O 271.123 -1.44554 3.2555 0
M  V30 2852 O 269.982 -2.44515 4.88748 0
M  V30 2853 H 267.076 -0.401468 0.723016 0
M  V30 2854 H 269.622 -0.0896927 1.69463 0
M  V30 2855 H 268.394 -0.53781 3.87586 0
M  V30 2856 H 268.017 -2.16522 3.33473 0
M  V30 2857 N 269.014 -1.53014 -0.377408 0
M  V30 2858 C 270.26 -1.68872 -1.12294 0
M  V30 2859 C 270.593 -0.433224 -1.89306 0
M  V30 2860 O 269.868 0.569258 -1.85983 0
M  V30 2861 C 270.151 -2.93115 -2.09179 0
M  V30 2862 C 270.004 -4.28794 -1.35853 0
M  V30 2863 C 271.323 -3.12928 -3.09458 0
M  V30 2864 H 268.442 -0.614518 -0.406862 0
M  V30 2865 H 271.084 -1.85633 -0.40503 0
M  V30 2866 H 269.234 -2.78956 -2.70399 0
M  V30 2867 H 270.906 -4.54742 -0.775082 0
M  V30 2868 H 269.149 -4.28744 -0.660364 0
M  V30 2869 H 269.82 -5.11837 -2.06706 0
M  V30 2870 H 272.296 -3.26194 -2.58334 0
M  V30 2871 H 271.172 -4.01316 -3.74482 0
M  V30 2872 H 271.433 -2.27669 -3.78971 0
M  V30 2873 N 270.492 0.636531 -1.44174 0
M  V30 2874 C 271.422 1.76003 -1.53444 0
M  V30 2875 C 272.403 1.65619 -0.387841 0
M  V30 2876 O 273.588 1.84461 -0.607257 0
M  V30 2877 C 270.718 3.14511 -1.4731 0
M  V30 2878 C 269.672 3.39677 -2.60391 0
M  V30 2879 C 268.998 4.78159 -2.39308 0
M  V30 2880 C 270.298 3.32772 -4.02567 0
M  V30 2881 H 271.992 1.68501 -2.47483 0
M  V30 2882 H 269.538 0.809237 -1.19111 0
M  V30 2883 H 271.491 3.92878 -1.52397 0
M  V30 2884 H 270.215 3.22783 -0.49785 0
M  V30 2885 H 268.874 2.63688 -2.54684 0
M  V30 2886 H 268.522 4.83128 -1.39988 0
M  V30 2887 H 268.222 4.95956 -3.15122 0
M  V30 2888 H 269.746 5.58762 -2.46205 0
M  V30 2889 H 271.16 4.01051 -4.09672 0
M  V30 2890 H 269.557 3.62104 -4.7854 0
M  V30 2891 H 270.627 2.30669 -4.2652 0
M  V30 2892 N 271.97 1.30982 0.876444 0
M  V30 2893 C 272.902 1.13902 1.98894 0
M  V30 2894 C 273.915 0.0798815 1.62604 0
M  V30 2895 O 275.104 0.326743 1.75484 0
M  V30 2896 C 272.204 0.716699 3.31235 0
M  V30 2897 C 271.377 1.85945 3.95908 0
M  V30 2898 C 270.436 1.42426 5.06558 0
M  V30 2899 O 269.462 2.13287 5.27729 0
M  V30 2900 N 270.664 0.308025 5.79682 0
M  V30 2901 H 273.429 2.09724 2.14094 0
M  V30 2902 H 270.99 1.2323 1.05004 0
M  V30 2903 H 272.982 0.408403 4.02634 0
M  V30 2904 H 271.552 -0.149719 3.12241 0
M  V30 2905 H 270.772 2.33541 3.17573 0
M  V30 2906 H 272.06 2.62503 4.35855 0
M  V30 2907 H 271.458 -0.282241 5.64995 0
M  V30 2908 H 270.015 0.0592282 6.51773 0
M  V30 2909 N 273.449 -1.08991 1.13837 0
M  V30 2910 C 274.397 -2.17841 0.815347 0
M  V30 2911 C 275.391 -1.68164 -0.204233 0
M  V30 2912 O 276.597 -1.79897 -0.0609304 0
M  V30 2913 H 272.972 -0.710654 0.245915 0
M  V30 2914 H 274.943 -2.42315 1.74143 0
M  V30 2915 C 273.692 -3.46381 0.302614 0
M  V30 2916 H 273.015 -3.84979 1.0785 0
M  V30 2917 H 274.455 -4.23844 0.115074 0
M  V30 2918 C 272.914 -3.22556 -0.972591 0
M  V30 2919 O 273.444 -3.45599 -2.04754 0
M  V30 2920 N 271.65 -2.76134 -0.905455 0
M  V30 2921 H 271.197 -2.57582 -0.0305421 0
M  V30 2922 H 271.155 -2.60571 -1.75926 0
M  V30 2923 N 274.927 -0.932562 -1.27047 0
M  V30 2924 C 276.157 -0.591173 -1.97961 0
M  V30 2925 C 276.565 0.836219 -1.69717 0
M  V30 2926 O 275.908 1.56801 -0.957036 0
M  V30 2927 C 275.97 -0.743082 -3.51736 0
M  V30 2928 C 275.634 -2.1435 -4.03613 0
M  V30 2929 C 276.631 -3.11815 -4.16014 0
M  V30 2930 C 274.316 -2.46175 -4.37839 0
M  V30 2931 C 276.31 -4.39211 -4.61923 0
M  V30 2932 C 273.997 -3.73806 -4.83438 0
M  V30 2933 C 274.995 -4.70137 -4.95439 0
M  V30 2934 O 274.683 -5.95496 -5.40037 0
M  V30 2935 H 274.415 -0.222375 -0.638377 0
M  V30 2936 H 276.969 -1.25317 -1.62742 0
M  V30 2937 H 275.199 -0.0239739 -3.86693 0
M  V30 2938 H 276.888 -0.40603 -4.03864 0
M  V30 2939 H 277.654 -2.88549 -3.89826 0
M  V30 2940 H 273.533 -1.71936 -4.27737 0
M  V30 2941 H 277.077 -5.14404 -4.71205 0
M  V30 2942 H 272.974 -3.96888 -5.09068 0
M  V30 2943 H 273.742 -5.98554 -5.58279 0
M  V30 2944 N 276.405 1.4127 -0.698611 0
M  V30 2945 C 277.63 2.06024 -0.238512 0
M  V30 2946 C 278.055 1.5224 1.10475 0
M  V30 2947 O 277.413 0.650623 1.69223 0
M  V30 2948 C 277.461 3.59988 -0.209952 0
M  V30 2949 O 276.565 4.04282 0.814235 0
M  V30 2950 H 275.906 0.653829 -0.115775 0
M  V30 2951 H 278.436 1.8098 -0.954326 0
M  V30 2952 H 278.446 4.07979 -0.0418436 0
M  V30 2953 H 277.121 3.98503 -1.1903 0
M  V30 2954 H 275.698 3.6779 0.615234 0
M  V30 2955 N 277.883 0.443576 1.51229 0
M  V30 2956 C 278.815 -0.400608 2.25672 0
M  V30 2957 C 279.828 -0.980945 1.29928 0
M  V30 2958 O 281.017 -0.874024 1.55638 0
M  V30 2959 C 278.117 -1.57304 3.00181 0
M  V30 2960 C 277.29 -1.11046 4.23069 0
M  V30 2961 C 276.349 -2.15374 4.80105 0
M  V30 2962 O 275.375 -1.74554 5.41774 0
M  V30 2963 N 276.577 -3.47922 4.64683 0
M  V30 2964 H 279.342 0.23745 2.98758 0
M  V30 2965 H 276.903 0.272809 1.59585 0
M  V30 2966 H 278.895 -2.26733 3.35223 0
M  V30 2967 H 277.465 -2.11632 2.30066 0
M  V30 2968 H 276.685 -0.243019 3.9345 0
M  V30 2969 H 277.973 -0.778888 5.02803 0
M  V30 2970 H 277.371 -3.83815 4.15575 0
M  V30 2971 H 275.928 -4.13228 5.0407 0
M  V30 2972 N 279.361 -1.56624 0.175154 0
M  V30 2973 C 280.291 -2.21155 -0.749195 0
M  V30 2974 C 281.272 -1.16836 -1.23626 0
M  V30 2975 O 282.457 -1.45277 -1.28873 0
M  V30 2976 C 279.587 -2.8553 -1.97711 0
M  V30 2977 C 278.541 -3.95921 -1.62575 0
M  V30 2978 C 277.867 -4.47365 -2.92864 0
M  V30 2979 C 279.167 -5.15323 -0.850838 0
M  V30 2980 H 280.861 -2.98653 -0.211295 0
M  V30 2981 H 278.407 -1.43651 -0.100188 0
M  V30 2982 H 280.36 -3.2935 -2.62881 0
M  V30 2983 H 279.084 -2.05406 -2.53921 0
M  V30 2984 H 277.743 -3.52762 -0.997719 0
M  V30 2985 H 277.391 -3.64027 -3.47122 0
M  V30 2986 H 277.091 -5.21839 -2.70106 0
M  V30 2987 H 278.615 -4.93873 -3.59056 0
M  V30 2988 H 280.029 -5.55812 -1.40521 0
M  V30 2989 H 278.426 -5.95739 -0.722154 0
M  V30 2990 H 279.496 -4.84661 0.152082 0
M  V30 2991 N 280.839 0.0985539 -1.57292 0
M  V30 2992 C 282.25 0.653457 -1.74891 0
M  V30 2993 C 282.601 1.7929 -0.796838 0
M  V30 2994 O 281.726 2.16385 0.0254886 0
M  V30 2995 C 282.321 1.19216 -3.17133 0
M  V30 2996 C 280.88 1.69316 -3.36168 0
M  V30 2997 C 280.027 0.601294 -2.70702 0
M  V30 2998 H 282.978 -0.127497 -1.58187 0
M  V30 2999 H 282.999 2.06154 -3.19814 0
M  V30 3000 H 282.511 0.362635 -3.86402 0
M  V30 3001 H 280.612 2.5468 -2.71972 0
M  V30 3002 H 280.725 1.78853 -4.44464 0
M  V30 3003 H 279.089 1.0399 -2.32504 0
M  V30 3004 H 279.872 -0.217592 -3.4261 0
M  V30 3005 N 282.317 1.53212 0.369288 0
M  V30 3006 C 283.227 1.82342 1.47609 0
M  V30 3007 C 284.243 0.711532 1.58787 0
M  V30 3008 O 285.419 1.0012 1.74751 0
M  V30 3009 C 282.484 2.00393 2.8292 0
M  V30 3010 C 281.545 3.24297 2.81301 0
M  V30 3011 C 280.778 3.41478 4.10157 0
M  V30 3012 O 281.001 2.63033 5.06132 0
M  V30 3013 O 279.935 4.34817 4.16194 0
M  V30 3014 H 283.761 2.76366 1.25918 0
M  V30 3015 H 281.346 1.38547 0.559034 0
M  V30 3016 H 283.228 2.13859 3.63101 0
M  V30 3017 H 281.903 1.09559 3.04596 0
M  V30 3018 H 280.81 3.16257 1.99831 0
M  V30 3019 H 282.143 4.15041 2.64578 0
M  V30 3020 N 283.795 -0.628877 1.44509 0
M  V30 3021 C 285.02 -1.42048 1.5112 0
M  V30 3022 C 285.445 -1.87594 0.137818 0
M  V30 3023 O 284.803 -1.58873 -0.873437 0
M  V30 3024 C 284.851 -2.61541 2.48251 0
M  V30 3025 O 283.955 -3.61453 1.98559 0
M  V30 3026 H 283.296 -0.424942 0.510216 0
M  V30 3027 H 285.826 -0.767374 1.89664 0
M  V30 3028 H 285.836 -3.09057 2.66361 0
M  V30 3029 H 284.511 -2.27736 3.48007 0
M  V30 3030 H 283.088 -3.20731 1.90227 0
M  V30 3031 N 285.273 -1.31445 -0.869486 0
M  V30 3032 C 286.206 -1.13465 -1.97992 0
M  V30 3033 C 287.184 -0.0380291 -1.62556 0
M  V30 3034 O 288.368 -0.194544 -1.87493 0
M  V30 3035 C 285.495 -0.733822 -3.30655 0
M  V30 3036 C 284.541 -1.83356 -3.85075 0
M  V30 3037 S 285.374 -3.43909 -4.10472 0
M  V30 3038 C 286.53 -3.05763 -5.46132 0
M  V30 3039 H 286.763 -2.07471 -2.1294 0
M  V30 3040 H 284.296 -1.15936 -1.01972 0
M  V30 3041 H 286.254 -0.509306 -4.07328 0
M  V30 3042 H 284.915 0.187123 -3.13542 0
M  V30 3043 H 284.108 -1.50574 -4.80982 0
M  V30 3044 H 283.71 -2.01315 -3.15195 0
M  V30 3045 H 286.002 -2.54686 -6.27807 0
M  V30 3046 H 286.945 -4.00635 -5.83864 0
M  V30 3047 H 287.353 -2.43192 -5.09429 0
M  V30 3048 N 286.751 1.08385 -1.14413 0
M  V30 3049 C 288.162 1.62258 -0.923535 0
M  V30 3050 C 288.513 1.88691 0.537595 0
M  V30 3051 O 287.638 1.64454 1.40655 0
M  V30 3052 C 288.233 2.94781 -1.67002 0
M  V30 3053 C 286.792 3.45437 -1.495 0
M  V30 3054 C 285.939 2.19668 -1.69238 0
M  V30 3055 H 288.89 0.916086 -1.2959 0
M  V30 3056 H 288.911 3.63229 -1.13334 0
M  V30 3057 H 288.423 2.7551 -2.73342 0
M  V30 3058 H 286.524 3.6981 -0.455097 0
M  V30 3059 H 286.637 4.22173 -2.2651 0
M  V30 3060 H 285.001 2.28849 -1.11804 0
M  V30 3061 H 285.784 2.02905 -2.7692 0
M  V30 3062 N 288.23 0.939286 1.26551 0
M  V30 3063 C 289.14 0.453432 2.30176 0
M  V30 3064 C 290.156 -0.471649 1.67486 0
M  V30 3065 O 291.332 -0.35164 1.98306 0
M  V30 3066 C 288.397 -0.275326 3.45605 0
M  V30 3067 C 287.458 0.686084 4.23782 0
M  V30 3068 C 286.691 -0.00798994 5.33699 0
M  V30 3069 O 286.914 -1.22528 5.57085 0
M  V30 3070 O 285.848 0.669746 5.98162 0
M  V30 3071 H 289.674 1.31416 2.73795 0
M  V30 3072 H 287.259 0.705095 1.31715 0
M  V30 3073 H 289.141 -0.685911 4.1578 0
M  V30 3074 H 287.816 -1.11147 3.0402 0
M  V30 3075 H 286.723 1.14658 3.56096 0
M  V30 3076 H 288.056 1.48979 4.69112 0
M  V30 3077 N 289.708 -1.40897 0.706093 0
M  V30 3078 C 290.64 -2.29199 0.00815776 0
M  V30 3079 C 291.653 -1.45336 -0.733582 0
M  V30 3080 O 292.842 -1.68727 -0.582537 0
M  V30 3081 C 289.942 -3.23417 -1.01265 0
M  V30 3082 C 289.115 -4.36089 -0.338387 0
M  V30 3083 C 288.174 -5.10811 -1.26326 0
M  V30 3084 O 287.2 -5.64215 -0.751651 0
M  V30 3085 N 288.402 -5.19269 -2.595 0
M  V30 3086 H 291.167 -2.89738 0.766297 0
M  V30 3087 H 288.728 -1.52164 0.55296 0
M  V30 3088 H 290.72 -3.70276 -1.63334 0
M  V30 3089 H 289.29 -2.64112 -1.67223 0
M  V30 3090 H 288.51 -3.91479 0.462352 0
M  V30 3091 H 289.798 -5.08634 0.130031 0
M  V30 3092 H 289.196 -4.77347 -3.03573 0
M  V30 3093 H 287.753 -5.69667 -3.16737 0
M  V30 3094 N 291.186 -0.45159 -1.50991 0
M  V30 3095 C 292.149 0.341117 -2.26647 0
M  V30 3096 C 293.149 0.937422 -1.30649 0
M  V30 3097 O 294.339 0.809644 -1.54241 0
M  V30 3098 C 291.471 1.48398 -3.06905 0
M  V30 3099 H 292.664 -0.322117 -2.98165 0
M  V30 3100 H 290.217 -0.205122 -1.54948 0
M  V30 3101 H 290.952 2.18284 -2.39838 0
M  V30 3102 H 290.737 1.06241 -3.77432 0
M  V30 3103 H 292.227 2.04367 -3.64176 0
M  V30 3104 N 292.664 1.56529 -0.183458 0
M  V30 3105 C 293.574 2.22144 0.754272 0
M  V30 3106 C 294.59 1.21684 1.24374 0
M  V30 3107 O 295.766 1.54385 1.29333 0
M  V30 3108 C 292.831 2.85884 1.96141 0
M  V30 3109 C 291.892 4.01579 1.51765 0
M  V30 3110 C 291.125 4.6227 2.66725 0
M  V30 3111 O 291.348 4.21865 3.83909 0
M  V30 3112 O 290.282 5.51936 2.40104 0
M  V30 3113 H 294.108 3.02861 0.225527 0
M  V30 3114 H 291.693 1.49331 0.0453032 0
M  V30 3115 H 293.575 3.26253 2.66715 0
M  V30 3116 H 292.25 2.08154 2.47899 0
M  V30 3117 H 291.157 3.65856 0.781049 0
M  V30 3118 H 292.49 4.80938 1.04686 0
M  V30 3119 N 294.142 -0.090211 1.57342 0
M  V30 3120 C 295.367 -0.810082 1.90925 0
M  V30 3121 C 295.792 -1.71248 0.778187 0
M  V30 3122 O 295.15 -1.79278 -0.269991 0
M  V30 3123 C 295.198 -1.59529 3.23393 0
M  V30 3124 O 294.302 -2.70461 3.11327 0
M  V30 3125 H 293.643 -0.222231 0.625707 0
M  V30 3126 H 296.173 -0.0639716 2.045 0
M  V30 3127 H 296.183 -1.97847 3.5682 0
M  V30 3128 H 294.858 -0.933055 4.05299 0
M  V30 3129 H 293.435 -2.35135 2.89423 0
M  V30 3130 N 295.62 -1.53406 -0.361157 0
M  V30 3131 C 296.55 -1.83136 -1.44857 0
M  V30 3132 C 297.531 -0.685174 -1.5569 0
M  V30 3133 O 298.716 -0.93544 -1.70186 0
M  V30 3134 C 295.846 -2.02522 -2.82138 0
M  V30 3135 C 294.8 -3.18302 -2.86126 0
M  V30 3136 C 294.126 -3.22989 -4.26125 0
M  V30 3137 C 295.426 -4.56796 -2.53248 0
M  V30 3138 H 297.12 -2.74201 -1.20226 0
M  V30 3139 H 294.666 -1.31938 -0.576922 0
M  V30 3140 H 296.619 -2.21904 -3.58241 0
M  V30 3141 H 295.343 -1.08172 -3.08166 0
M  V30 3142 H 294.002 -2.98747 -2.12475 0
M  V30 3143 H 293.65 -2.26267 -4.49235 0
M  V30 3144 H 293.35 -4.00781 -4.29708 0
M  V30 3145 H 294.874 -3.44559 -5.04094 0
M  V30 3146 H 296.288 -4.7631 -3.19064 0
M  V30 3147 H 294.685 -5.36862 -2.68141 0
M  V30 3148 H 295.755 -4.61606 -1.48484 0
M  V30 3149 N 297.098 0.621204 -1.44841 0
M  V30 3150 C 298.008 1.7612 -1.5498 0
M  V30 3151 C 299.024 1.68477 -0.434927 0
M  V30 3152 O 300.2 1.89076 -0.693693 0
M  V30 3153 C 297.265 3.1254 -1.50065 0
M  V30 3154 C 296.326 3.31741 -2.72482 0
M  V30 3155 C 295.559 4.61653 -2.67792 0
M  V30 3156 O 295.782 5.431 -1.74352 0
M  V30 3157 O 294.716 4.83271 -3.58794 0
M  V30 3158 H 298.542 1.70518 -2.51311 0
M  V30 3159 H 296.127 0.783643 -1.27198 0
M  V30 3160 H 298.009 3.93844 -1.49882 0
M  V30 3161 H 296.684 3.18663 -0.568806 0
M  V30 3162 H 295.591 2.50077 -2.7823 0
M  V30 3163 H 296.924 3.30486 -3.64746 0
M  V30 3164 N 298.576 1.31904 0.862503 0
M  V30 3165 C 299.508 1.16005 1.97675 0
M  V30 3166 C 300.521 0.0971234 1.6251 0
M  V30 3167 O 301.71 0.345337 1.75128 0
M  V30 3168 C 298.81 0.751791 3.30456 0
M  V30 3169 C 297.983 1.90133 3.93914 0
M  V30 3170 C 297.042 1.4779 5.05019 0
M  V30 3171 O 296.068 2.18872 5.25437 0
M  V30 3172 N 297.27 0.369491 5.79323 0
M  V30 3173 H 300.035 2.11982 2.11857 0
M  V30 3174 H 297.596 1.24337 1.03691 0
M  V30 3175 H 299.588 0.451084 4.02178 0
M  V30 3176 H 298.158 -0.116593 3.12382 0
M  V30 3177 H 297.378 2.36896 3.15078 0
M  V30 3178 H 298.666 2.67111 4.33047 0
M  V30 3179 H 298.064 -0.222299 5.65263 0
M  V30 3180 H 296.621 0.128354 6.51674 0
M  V30 3181 N 300.054 -1.07777 1.14986 0
M  V30 3182 C 300.984 -2.16865 0.865557 0
M  V30 3183 C 301.965 -1.69123 -0.182083 0
M  V30 3184 O 303.15 -1.94164 -0.0373815 0
M  V30 3185 C 300.28 -3.45539 0.349313 0
M  V30 3186 C 299.234 -4.06708 1.33313 0
M  V30 3187 C 298.56 -5.30411 0.675918 0
M  V30 3188 C 299.86 -4.47241 2.69764 0
M  V30 3189 H 301.554 -2.40905 1.77778 0
M  V30 3190 H 299.1 -1.15781 0.856203 0
M  V30 3191 H 301.053 -4.21174 0.137983 0
M  V30 3192 H 299.777 -3.21072 -0.598362 0
M  V30 3193 H 298.436 -3.33112 1.53075 0
M  V30 3194 H 298.084 -5.02232 -0.277767 0
M  V30 3195 H 297.784 -5.72293 1.33244 0
M  V30 3196 H 299.308 -6.08755 0.474262 0
M  V30 3197 H 300.722 -5.14025 2.53873 0
M  V30 3198 H 299.119 -5.00062 3.3175 0
M  V30 3199 H 300.189 -3.58818 3.26156 0
M  V30 3200 N 301.532 -0.945985 -1.26051 0
M  V30 3201 C 302.948 -0.649045 -1.45807 0
M  V30 3202 C 303.148 0.796158 -1.85104 0
M  V30 3203 O 302.204 1.57233 -1.97571 0
M  V30 3204 C 303.517 -1.61458 -2.53677 0
M  V30 3205 C 305.065 -1.62481 -2.67524 0
M  V30 3206 C 305.54 -2.57776 -3.7857 0
M  V30 3207 N 307.031 -2.5609 -3.85969 0
M  V30 3208 C 307.766 -3.26508 -4.7136 0
M  V30 3209 N 307.262 -4.0637 -5.61102 0
M  V30 3210 N 309.055 -3.15437 -4.65248 0
M  V30 3211 H 301.206 -1.88005 -0.988328 0
M  V30 3212 H 303.469 -0.808198 -0.4955 0
M  V30 3213 H 303.175 -2.64644 -2.31638 0
M  V30 3214 H 303.049 -1.37036 -3.51427 0
M  V30 3215 H 305.436 -0.600167 -2.88933 0
M  V30 3216 H 305.517 -1.90958 -1.70202 0
M  V30 3217 H 305.161 -3.60361 -3.57913 0
M  V30 3218 H 305.091 -2.26587 -4.75359 0
M  V30 3219 H 307.582 -1.98105 -3.21812 0
M  V30 3220 H 307.895 -4.57042 -6.23164 0
M  V30 3221 H 306.24 -4.10469 -5.60839 0
M  V30 3222 H 309.431 -2.52525 -3.94143 0
M  V30 3223 H 309.604 -3.70584 -5.31575 0
M  V30 3224 N 303.011 1.40521 -0.713556 0
M  V30 3225 C 303.941 2.33381 -0.0743864 0
M  V30 3226 C 304.922 1.52784 0.747735 0
M  V30 3227 O 306.107 1.81258 0.697071 0
M  V30 3228 C 303.237 3.36748 0.849598 0
M  V30 3229 C 302.191 4.27793 0.133247 0
M  V30 3230 C 301.517 5.21679 1.17281 0
M  V30 3231 C 302.817 5.12415 -1.01134 0
M  V30 3232 H 304.511 2.87081 -0.850007 0
M  V30 3233 H 302.057 1.38034 -0.410201 0
M  V30 3234 H 304.01 4.00648 1.30612 0
M  V30 3235 H 302.734 2.81439 1.65709 0
M  V30 3236 H 301.393 3.65342 -0.303426 0
M  V30 3237 H 301.041 4.62677 1.9733 0
M  V30 3238 H 300.741 5.83435 0.698397 0
M  V30 3239 H 302.265 5.88456 1.62947 0
M  V30 3240 H 303.679 5.69781 -0.634274 0
M  V30 3241 H 302.076 5.83203 -1.41399 0
M  V30 3242 H 303.146 4.48514 -1.84292 0
M  V30 3243 N 304.489 0.459591 1.5075 0
M  V30 3244 C 305.422 -0.386257 2.24907 0
M  V30 3245 C 306.4 -1.006 1.27744 0
M  V30 3246 O 307.584 -1.04416 1.56938 0
M  V30 3247 C 304.711 -1.54021 3.01654 0
M  V30 3248 C 303.757 -1.03898 4.13651 0
M  V30 3249 S 304.59 0.0370501 5.35487 0
M  V30 3250 C 305.746 -1.12105 6.15779 0
M  V30 3251 H 305.979 0.243272 2.96303 0
M  V30 3252 H 303.512 0.244339 1.52454 0
M  V30 3253 H 305.47 -2.20163 3.46466 0
M  V30 3254 H 304.131 -2.14121 2.29806 0
M  V30 3255 H 303.324 -1.90254 4.66711 0
M  V30 3256 H 302.926 -0.45545 3.71216 0
M  V30 3257 H 305.218 -2.03501 6.46215 0
M  V30 3258 H 306.161 -0.62995 7.05292 0
M  V30 3259 H 306.569 -1.36967 5.47631 0
M  V30 3260 N 305.967 -1.56429 0.191757 0
M  V30 3261 C 306.915 -2.20273 -0.747174 0
M  V30 3262 C 307.909 -1.17288 -1.22229 0
M  V30 3263 O 309.115 -1.35441 -1.18557 0
M  V30 3264 H 305.49 -0.705885 -0.259289 0
M  V30 3265 H 307.461 -2.97826 -0.184963 0
M  V30 3266 C 306.21 -2.87356 -1.95759 0
M  V30 3267 H 305.533 -3.66341 -1.60106 0
M  V30 3268 H 306.973 -3.3547 -2.59299 0
M  V30 3269 C 305.432 -1.88213 -2.79423 0
M  V30 3270 O 305.962 -1.38033 -3.7724 0
M  V30 3271 N 304.168 -1.56516 -2.44849 0
M  V30 3272 H 303.715 -1.97516 -1.65364 0
M  V30 3273 H 303.673 -0.904369 -3.01112 0
M  V30 3274 N 307.445 0.0818655 -1.57387 0
M  V30 3275 C 308.408 1.08265 -2.02018 0
M  V30 3276 C 309.408 1.32183 -0.915664 0
M  V30 3277 O 310.598 1.28073 -1.18081 0
M  V30 3278 C 307.73 2.42871 -2.39221 0
M  V30 3279 H 308.923 0.698204 -2.91659 0
M  V30 3280 H 306.476 0.327303 -1.52835 0
M  V30 3281 H 307.211 2.86167 -1.52575 0
M  V30 3282 H 306.996 2.26855 -3.19811 0
M  V30 3283 H 308.486 3.14826 -2.74362 0
M  V30 3284 N 308.923 1.53595 0.353017 0
M  V30 3285 C 310.171 1.70049 1.09215 0
M  V30 3286 C 310.492 0.461406 1.89463 0
M  V30 3287 O 309.762 -0.524633 1.88744 0
M  V30 3288 H 308.342 0.626912 0.40619 0
M  V30 3289 H 311.004 1.90822 0.396585 0
M  V30 3290 H 310.1 2.56718 1.77488 0
M  V30 3291 N 310.401 -0.613514 1.45168 0
M  V30 3292 C 311.65 -1.36874 1.4815 0
M  V30 3293 C 311.963 -1.952 0.124982 0
M  V30 3294 O 313.169 -2.71481 0.0324176 0
M  V30 3295 C 311.625 -2.47905 2.60904 0
M  V30 3296 C 311.233 -1.96016 4.02842 0
M  V30 3297 C 312.977 -3.24965 2.73126 0
M  V30 3298 C 310.884 -3.04494 5.06988 0
M  V30 3299 H 309.814 -0.514428 0.551253 0
M  V30 3300 H 312.465 -0.658182 1.7129 0
M  V30 3301 H 310.847 -3.21618 2.31037 0
M  V30 3302 H 312.021 -1.29051 4.4236 0
M  V30 3303 H 310.336 -1.31719 3.95018 0
M  V30 3304 H 312.933 -4.05865 3.48106 0
M  V30 3305 H 313.276 -3.75588 1.79553 0
M  V30 3306 H 313.809 -2.5835 3.0249 0
M  V30 3307 H 310.548 -2.58795 6.0225 0
M  V30 3308 H 310.068 -3.70044 4.72046 0
M  V30 3309 H 311.747 -3.68976 5.31475 0
M  V30 3310 N 311.879 -1.3236 -0.855495 0
M  V30 3311 C 312.827 -1.2118 -1.9854 0
M  V30 3312 C 313.821 -0.116788 -1.68997 0
M  V30 3313 O 315.027 -0.279657 -1.77814 0
M  V30 3314 H 311.402 -0.375608 -0.651477 0
M  V30 3315 H 313.373 -2.16743 -2.05098 0
M  V30 3316 C 312.122 -0.950849 -3.34446 0
M  V30 3317 H 311.445 -1.78563 -3.57708 0
M  V30 3318 H 312.885 -0.912863 -4.14057 0
M  V30 3319 C 311.344 0.346404 -3.35114 0
M  V30 3320 O 311.874 1.35855 -3.7803 0
M  V30 3321 N 310.08 0.36808 -2.88259 0
M  V30 3322 H 309.627 -0.456102 -2.5353 0
M  V30 3323 H 309.585 1.23591 -2.89089 0
M  V30 3324 N 313.357 1.07166 -1.15556 0
M  V30 3325 C 314.606 1.79181 -0.926132 0
M  V30 3326 C 314.919 1.87768 0.547967 0
M  V30 3327 O 316.125 2.56323 0.895036 0
M  V30 3328 C 314.581 3.22 -1.60761 0
M  V30 3329 C 314.189 3.21607 -3.11886 0
M  V30 3330 C 315.933 3.9861 -1.4598 0
M  V30 3331 C 313.84 4.59092 -3.72812 0
M  V30 3332 H 312.77 0.67154 -0.342856 0
M  V30 3333 H 315.421 1.2027 -1.3859 0
M  V30 3334 H 313.803 3.81115 -1.07553 0
M  V30 3335 H 314.977 2.72127 -3.71865 0
M  V30 3336 H 313.292 2.58495 -3.2645 0
M  V30 3337 H 315.889 5.00225 -1.88888 0
M  V30 3338 H 316.232 4.143 -0.407541 0
M  V30 3339 H 316.765 3.45996 -1.96295 0
M  V30 3340 H 313.504 4.48606 -4.77946 0
M  V30 3341 H 313.024 5.08803 -3.17616 0
M  V30 3342 H 314.703 5.28059 -3.73848 0
M  V30 3343 N 314.835 0.952656 1.25548 0
M  V30 3344 C 316.251 0.656769 1.4546 0
M  V30 3345 C 316.451 -0.78633 1.85524 0
M  V30 3346 O 315.507 -1.56183 1.98402 0
M  V30 3347 C 316.82 1.62801 2.52817 0
M  V30 3348 C 318.368 1.63897 2.66659 0
M  V30 3349 C 318.843 2.5978 3.77198 0
M  V30 3350 N 320.334 2.58133 3.84606 0
M  V30 3351 C 321.069 3.29003 4.69621 0
M  V30 3352 N 320.565 4.09339 5.58939 0
M  V30 3353 N 322.358 3.179 4.63569 0
M  V30 3354 H 314.509 1.88526 0.978344 0
M  V30 3355 H 316.772 0.810815 0.491206 0
M  V30 3356 H 316.478 2.65869 2.30232 0
M  V30 3357 H 316.352 1.38898 3.50695 0
M  V30 3358 H 318.739 0.615481 2.8861 0
M  V30 3359 H 318.82 1.91858 1.69187 0
M  V30 3360 H 318.464 3.62254 3.55997 0
M  V30 3361 H 318.394 2.29105 4.7415 0
M  V30 3362 H 320.885 1.99809 3.20757 0
M  V30 3363 H 321.198 4.6034 6.20731 0
M  V30 3364 H 319.543 4.13438 5.58654 0
M  V30 3365 H 322.734 2.54612 3.92798 0
M  V30 3366 H 322.907 3.73398 5.29602 0
M  V30 3367 N 316.313 -1.40141 0.720998 0
M  V30 3368 C 317.541 -2.05096 0.272656 0
M  V30 3369 C 317.956 -1.54334 -1.0875 0
M  V30 3370 O 317.313 -0.702211 -1.6845 0
M  V30 3371 C 317.364 -3.60636 0.249835 0
M  V30 3372 O 317.085 -4.09526 1.55629 0
M  V30 3373 C 318.586 -4.42772 -0.216396 0
M  V30 3374 H 315.806 -0.659897 0.121558 0
M  V30 3375 H 318.35 -1.79449 0.980723 0
M  V30 3376 H 316.505 -3.85232 -0.409237 0
M  V30 3377 H 316.919 -5.03758 1.4604 0
M  V30 3378 H 318.393 -5.51702 -0.181212 0
M  V30 3379 H 318.87 -4.20756 -1.25941 0
M  V30 3380 H 319.476 -4.23294 0.412596 0
M  V30 3381 N 317.792 -0.46758 -1.50504 0
M  V30 3382 C 319.039 0.0886219 -2.02306 0
M  V30 3383 C 319.367 1.40037 -1.34981 0
M  V30 3384 O 318.622 1.90136 -0.463318 0
M  V30 3385 C 318.921 0.323995 -3.55928 0
M  V30 3386 C 318.587 -0.905618 -4.41712 0
M  V30 3387 C 317.249 -1.24275 -4.64875 0
M  V30 3388 C 319.601 -1.72448 -4.91845 0
M  V30 3389 C 316.929 -2.39888 -5.35417 0
M  V30 3390 C 319.281 -2.87185 -5.63656 0
M  V30 3391 C 317.945 -3.21317 -5.85074 0
M  V30 3392 H 317.215 0.0324291 -0.74029 0
M  V30 3393 H 319.862 -0.620945 -1.81153 0
M  V30 3394 H 318.167 1.11577 -3.75577 0
M  V30 3395 H 319.864 0.76826 -3.93572 0
M  V30 3396 H 316.454 -0.632956 -4.239 0
M  V30 3397 H 320.638 -1.4772 -4.73806 0
M  V30 3398 H 315.894 -2.66611 -5.50208 0
M  V30 3399 H 320.068 -3.50985 -6.01484 0
M  V30 3400 H 317.695 -4.1101 -6.39511 0
M  V30 3401 N 319.27 1.56325 -0.20005 0
M  V30 3402 C 320.18 2.22931 0.730668 0
M  V30 3403 C 321.196 1.22997 1.23076 0
M  V30 3404 O 322.372 1.55748 1.27689 0
M  V30 3405 C 319.437 2.87948 1.93098 0
M  V30 3406 C 318.498 4.03166 1.47497 0
M  V30 3407 C 317.731 4.65073 2.61807 0
M  V30 3408 O 317.954 4.25913 3.79413 0
M  V30 3409 O 316.888 5.54452 2.34237 0
M  V30 3410 H 320.714 3.03084 0.193391 0
M  V30 3411 H 318.299 1.49371 0.0294621 0
M  V30 3412 H 320.181 3.29063 2.6324 0
M  V30 3413 H 318.856 2.10771 2.45677 0
M  V30 3414 H 317.763 3.66664 0.742201 0
M  V30 3415 H 319.096 4.82022 0.995796 0
M  V30 3416 N 320.748 -0.0735177 1.57428 0
M  V30 3417 C 321.994 -0.774145 1.87443 0
M  V30 3418 C 322.327 -1.77311 0.792103 0
M  V30 3419 O 321.602 -1.93492 -0.197793 0
M  V30 3420 C 321.885 -1.48367 3.28115 0
M  V30 3421 C 321.738 -0.501227 4.46999 0
M  V30 3422 C 323.057 -2.429 3.66998 0
M  V30 3423 H 320.176 -0.279971 0.681752 0
M  V30 3424 H 322.818 -0.0373616 1.89963 0
M  V30 3425 H 320.968 -2.11171 3.26097 0
M  V30 3426 H 322.64 0.121468 4.6114 0
M  V30 3427 H 320.883 0.183593 4.33411 0
M  V30 3428 H 321.554 -1.03526 5.42205 0
M  V30 3429 H 324.03 -1.90175 3.70098 0
M  V30 3430 H 322.906 -2.89549 4.66318 0
M  V30 3431 H 323.167 -3.27628 2.96837 0
M  V30 3432 N 322.226 -1.5378 -0.344866 0
M  V30 3433 C 323.189 -1.80981 -1.40637 0
M  V30 3434 C 324.189 -0.680816 -1.45676 0
M  V30 3435 O 325.379 -0.949095 -1.46075 0
M  V30 3436 C 322.511 -1.95063 -2.79577 0
M  V30 3437 H 323.704 -2.75803 -1.17783 0
M  V30 3438 H 321.257 -1.45173 -0.579181 0
M  V30 3439 H 321.992 -1.02379 -3.07716 0
M  V30 3440 H 321.777 -2.77198 -2.77315 0
M  V30 3441 H 323.267 -2.17629 -3.56409 0
M  V30 3442 N 323.704 0.605807 -1.45491 0
M  V30 3443 C 324.667 1.69836 -1.5391 0
M  V30 3444 C 325.667 1.55261 -0.418424 0
M  V30 3445 O 326.857 1.60296 -0.681965 0
M  V30 3446 C 323.989 3.09117 -1.43734 0
M  V30 3447 H 325.182 1.63738 -2.51257 0
M  V30 3448 H 322.735 0.821689 -1.32959 0
M  V30 3449 H 323.47 3.20791 -0.475788 0
M  V30 3450 H 323.255 3.21104 -2.25021 0
M  V30 3451 H 324.745 3.88696 -1.52661 0
M  V30 3452 N 325.182 1.32811 0.848464 0
M  V30 3453 C 326.41 1.26739 1.63538 0
M  V30 3454 C 326.825 -0.163484 1.88091 0
M  V30 3455 O 326.182 -1.10258 1.45429 0
M  V30 3456 C 326.233 2.03013 2.99112 0
M  V30 3457 O 325.954 3.40518 2.75643 0
M  V30 3458 C 327.455 2.04038 3.93552 0
M  V30 3459 H 324.675 0.437024 0.509167 0
M  V30 3460 H 327.219 1.75033 1.05753 0
M  V30 3461 H 325.374 1.58426 3.53525 0
M  V30 3462 H 325.788 3.79635 3.61908 0
M  V30 3463 H 327.262 2.61877 4.85926 0
M  V30 3464 H 327.739 1.0282 4.26995 0
M  V30 3465 H 328.345 2.486 3.45077 0
M  V30 3466 N 326.66 -1.06551 1.16123 0
M  V30 3467 C 327.908 -1.78947 0.939267 0
M  V30 3468 C 328.229 -1.87532 -0.534476 0
M  V30 3469 O 327.499 -1.38211 -1.38833 0
M  V30 3470 H 326.079 -0.662807 0.344523 0
M  V30 3471 H 328.741 -1.28725 1.46342 0
M  V30 3472 H 327.837 -2.81117 1.35572 0
M  V30 3473 N 328.138 -0.959301 -1.25041 0
M  V30 3474 C 329.549 -0.65667 -1.74771 0
M  V30 3475 C 329.9 0.827852 -1.77879 0
M  V30 3476 O 329.025 1.64783 -1.40269 0
M  V30 3477 C 329.62 -1.1853 -3.1739 0
M  V30 3478 C 328.179 -0.932734 -3.6466 0
M  V30 3479 C 327.326 -1.32558 -2.43564 0
M  V30 3480 H 330.277 -1.13558 -1.10862 0
M  V30 3481 H 330.298 -0.547582 -3.76539 0
M  V30 3482 H 329.81 -2.26576 -3.15095 0
M  V30 3483 H 327.911 0.13257 -3.72364 0
M  V30 3484 H 328.024 -1.57248 -4.52559 0
M  V30 3485 H 326.388 -0.743956 -2.43593 0
M  V30 3486 H 327.171 -2.41537 -2.43957 0
M  V30 3487 N 329.616 1.39756 -0.72842 0
M  V30 3488 C 330.864 2.00248 -0.272946 0
M  V30 3489 C 331.185 1.58077 1.14178 0
M  V30 3490 O 330.455 0.826014 1.77634 0
M  V30 3491 H 329.035 0.740554 -0.0979247 0
M  V30 3492 H 331.697 1.70903 -0.936912 0
M  V30 3493 H 330.793 3.10495 -0.316142 0
M  V30 3494 N 331.094 0.475555 1.50254 0
M  V30 3495 C 332.34 -0.0780073 2.0265 0
M  V30 3496 C 332.673 -1.38968 1.35652 0
M  V30 3497 O 331.948 -1.8839 0.483691 0
M  V30 3498 C 332.231 -0.257161 3.59181 0
M  V30 3499 C 332.084 1.07585 4.36744 0
M  V30 3500 C 333.403 -1.00965 4.28362 0
M  V30 3501 H 330.522 -0.0268758 0.73651 0
M  V30 3502 H 333.164 0.622015 1.7953 0
M  V30 3503 H 331.314 -0.853412 3.79011 0
M  V30 3504 H 332.986 1.70902 4.28474 0
M  V30 3505 H 331.229 1.6714 4.00308 0
M  V30 3506 H 331.9 0.904088 5.44546 0
M  V30 3507 H 334.376 -0.504214 4.13034 0
M  V30 3508 H 333.252 -1.10381 5.37687 0
M  V30 3509 H 333.513 -2.04731 3.91839 0
M  V30 3510 N 332.573 -1.56217 0.208337 0
M  V30 3511 C 333.85 -1.89739 -0.475234 0
M  V30 3512 C 334.23 -1.1238 -1.78701 0
M  V30 3513 O 333.578 -0.228979 -2.2735 0
M  V30 3514 C 333.788 -3.42289 -0.681101 0
M  V30 3515 C 335.136 -4.12789 -0.994507 0
M  V30 3516 O 336.16 -3.47814 -0.768357 0
M  V30 3517 O 335.019 -5.27649 -1.42299 0
M  V30 3518 H 332.113 -0.788478 -0.249461 0
M  V30 3519 H 334.659 -1.67855 0.249538 0
M  V30 3520 H 333.431 -3.90534 0.244722 0
M  V30 3521 H 333.054 -3.69909 -1.45785 0
M  V30 3522 N 334.051 0.0651679 -1.57465 0
M  V30 3523 C 335.279 0.775808 -1.91804 0
M  V30 3524 C 335.694 1.70782 -0.804916 0
M  V30 3525 O 335.051 1.81153 0.221311 0
M  V30 3526 C 335.102 1.56381 -3.25925 0
M  V30 3527 O 334.823 0.669248 -4.32958 0
M  V30 3528 C 336.324 2.37485 -3.7432 0
M  V30 3529 H 333.544 0.2202 -0.63384 0
M  V30 3530 H 336.088 0.0334587 -2.04473 0
M  V30 3531 H 334.243 2.25837 -3.14764 0
M  V30 3532 H 334.657 1.21801 -5.10162 0
M  V30 3533 H 336.131 2.88223 -4.70778 0
M  V30 3534 H 336.608 3.17307 -3.03666 0
M  V30 3535 H 337.214 1.73173 -3.88447 0
M  V30 3536 N 335.529 1.53961 0.336706 0
M  V30 3537 C 336.94 1.62914 0.911925 0
M  V30 3538 C 337.291 0.514795 1.89326 0
M  V30 3539 O 336.416 -0.354395 2.13478 0
M  V30 3540 C 337.011 2.95304 1.66076 0
M  V30 3541 C 335.57 3.06496 2.18489 0
M  V30 3542 C 334.717 2.58403 1.00613 0
M  V30 3543 H 337.668 1.58285 0.114649 0
M  V30 3544 H 337.689 2.84727 2.5241 0
M  V30 3545 H 337.201 3.76387 0.946276 0
M  V30 3546 H 335.302 2.3006 2.93092 0
M  V30 3547 H 335.415 4.1208 2.44391 0
M  V30 3548 H 333.779 2.13977 1.38152 0
M  V30 3549 H 334.562 3.41932 0.306179 0
M  V30 3550 N 337.007 -0.598083 1.45811 0
M  V30 3551 C 337.97 -1.69018 1.54808 0
M  V30 3552 C 338.97 -1.55037 0.426652 0
M  V30 3553 O 340.16 -1.59932 0.690456 0
M  V30 3554 C 337.292 -3.0835 1.45371 0
M  V30 3555 H 338.485 -1.62403 2.52121 0
M  V30 3556 H 336.038 -0.814626 1.33392 0
M  V30 3557 H 336.773 -3.20534 0.492793 0
M  V30 3558 H 336.558 -3.19907 2.26721 0
M  V30 3559 H 338.048 -3.8788 1.54721 0
M  V30 3560 N 338.485 -1.33259 -0.841409 0
M  V30 3561 C 339.725 -1.25902 -1.61022 0
M  V30 3562 C 340.089 0.173325 -1.91216 0
M  V30 3563 O 341.29 0.370824 -2.6623 0
M  V30 3564 C 339.561 -2.10735 -2.88662 0
M  V30 3565 S 341.12 -2.20541 -3.79351 0
M  V30 3566 H 337.938 -0.447958 -0.552137 0
M  V30 3567 H 340.54 -1.68263 -0.995382 0
M  V30 3568 H 339.244 -3.1384 -2.64448 0
M  V30 3569 H 338.775 -1.69201 -3.55154 0
M  V30 3570 H 340.79 -1.36462 -4.77067 0
M  V30 3571 N 339.963 1.05934 -1.16686 0
M  V30 3572 C 340.893 2.1546 -0.899949 0
M  V30 3573 C 341.874 1.69391 0.155154 0
M  V30 3574 O 343.059 1.94199 0.00648693 0
M  V30 3575 C 340.189 3.44939 -0.404241 0
M  V30 3576 C 339.143 4.04536 -1.39767 0
M  V30 3577 C 338.469 5.29268 -0.760216 0
M  V30 3578 C 339.769 4.42893 -2.76845 0
M  V30 3579 H 341.463 2.38046 -1.81588 0
M  V30 3580 H 339.009 1.14404 -0.874514 0
M  V30 3581 H 340.962 4.20901 -0.204971 0
M  V30 3582 H 339.686 3.21983 0.547206 0
M  V30 3583 H 338.345 3.30635 -1.58355 0
M  V30 3584 H 337.993 5.02611 0.197831 0
M  V30 3585 H 337.693 5.70101 -1.42332 0
M  V30 3586 H 339.217 6.07924 -0.57105 0
M  V30 3587 H 340.631 5.09921 -2.62019 0
M  V30 3588 H 339.028 4.94721 -3.39663 0
M  V30 3589 H 340.098 3.53584 -3.31823 0
M  V30 3590 N 341.441 0.965919 1.2453 0
M  V30 3591 C 342.351 0.502154 2.29163 0
M  V30 3592 C 343.367 -0.436017 1.68448 0
M  V30 3593 O 344.543 -0.309497 1.99008 0
M  V30 3594 C 341.608 -0.201956 3.46111 0
M  V30 3595 C 340.669 0.775821 4.22232 0
M  V30 3596 C 339.902 0.105217 5.33596 0
M  V30 3597 O 340.125 -1.10683 5.59558 0
M  V30 3598 O 339.059 0.796475 5.96607 0
M  V30 3599 H 342.885 1.37194 2.70946 0
M  V30 3600 H 340.47 0.732875 1.30189 0
M  V30 3601 H 342.352 -0.597564 4.17142 0
M  V30 3602 H 341.027 -1.04673 3.06309 0
M  V30 3603 H 339.934 1.22185 3.53584 0
M  V30 3604 H 341.267 1.58896 4.65846 0
M  V30 3605 N 342.919 -1.39368 0.735821 0
M  V30 3606 C 343.866 -2.30599 0.0963825 0
M  V30 3607 C 344.836 -1.49257 -0.728794 0
M  V30 3608 O 346.021 -1.77941 -0.688588 0
M  V30 3609 C 343.161 -3.35596 -0.804305 0
M  V30 3610 C 342.274 -4.31987 0.0335761 0
M  V30 3611 C 341.409 -5.24053 -0.868461 0
M  V30 3612 C 340.448 -6.12095 -0.0258776 0
M  V30 3613 N 339.585 -6.96514 -0.883893 0
M  V30 3614 H 344.425 -2.8471 0.880002 0
M  V30 3615 H 341.962 -1.40188 0.445619 0
M  V30 3616 H 343.92 -3.95062 -1.34096 0
M  V30 3617 H 342.55 -2.82938 -1.55389 0
M  V30 3618 H 341.602 -3.74133 0.68766 0
M  V30 3619 H 342.914 -4.94074 0.685036 0
M  V30 3620 H 342.068 -5.88549 -1.47293 0
M  V30 3621 H 340.807 -4.62289 -1.5537 0
M  V30 3622 H 339.812 -5.4661 0.591386 0
M  V30 3623 H 341.037 -6.75923 0.656156 0
M  V30 3624 H 338.983 -6.37318 -1.55441 0
M  V30 3625 H 338.9 -7.55448 -0.288931 0
M  V30 3626 H 340.168 -7.65439 -1.4739 0
M  V30 3627 N 344.397 -0.483516 -1.5 0
M  V30 3628 C 345.643 0.0672592 -2.02688 0
M  V30 3629 C 345.976 1.38247 -1.36387 0
M  V30 3630 O 345.251 1.88131 -0.493675 0
M  V30 3631 C 345.534 0.238109 -3.59312 0
M  V30 3632 C 345.387 -1.099 -4.36168 0
M  V30 3633 C 346.706 0.986916 -4.28892 0
M  V30 3634 H 343.825 0.0229696 -0.736642 0
M  V30 3635 H 346.467 -0.631527 -1.79197 0
M  V30 3636 H 344.617 0.8333 -3.79458 0
M  V30 3637 H 346.289 -1.73172 -4.27562 0
M  V30 3638 H 344.532 -1.69261 -3.99416 0
M  V30 3639 H 345.203 -0.932954 -5.44059 0
M  V30 3640 H 347.679 0.482302 -4.13295 0
M  V30 3641 H 346.555 1.07527 -5.38265 0
M  V30 3642 H 346.816 2.0265 -3.92919 0
M  V30 3643 N 345.875 1.56104 -0.216619 0
M  V30 3644 C 347.291 1.58995 0.13886 0
M  V30 3645 C 347.491 1.23333 1.59346 0
M  V30 3646 O 346.547 0.966234 2.33281 0
M  V30 3647 C 347.86 3.00143 -0.182968 0
M  V30 3648 C 349.408 3.12751 -0.124807 0
M  V30 3649 C 349.883 4.56068 -0.420241 0
M  V30 3650 N 351.374 4.61723 -0.369634 0
M  V30 3651 C 352.109 5.70542 -0.571789 0
M  V30 3652 N 351.605 6.87744 -0.835453 0
M  V30 3653 N 353.398 5.59831 -0.504563 0
M  V30 3654 H 345.549 1.77562 -1.16557 0
M  V30 3655 H 347.812 0.825091 -0.466828 0
M  V30 3656 H 347.518 3.30871 -1.19237 0
M  V30 3657 H 347.392 3.73813 0.504367 0
M  V30 3658 H 349.779 2.81822 0.875223 0
M  V30 3659 H 349.86 2.41421 -0.845544 0
M  V30 3660 H 349.504 4.87713 -1.41769 0
M  V30 3661 H 349.434 5.25617 0.321631 0
M  V30 3662 H 351.925 3.77502 -0.173338 0
M  V30 3663 H 352.238 7.66587 -0.977938 0
M  V30 3664 H 350.583 6.895 -0.872592 0
M  V30 3665 H 353.774 4.67145 -0.298842 0
M  V30 3666 H 353.947 6.44573 -0.665519 0
M  V30 3667 N 347.353 -0.0568162 1.57498 0
M  V30 3668 C 348.316 -1.05038 2.03715 0
M  V30 3669 C 349.316 -1.30709 0.936577 0
M  V30 3670 O 350.506 -1.26178 1.20103 0
M  V30 3671 C 347.638 -2.39034 2.43055 0
M  V30 3672 H 348.831 -0.651715 2.92733 0
M  V30 3673 H 346.384 -0.302947 1.53336 0
M  V30 3674 H 347.119 -2.83703 1.57108 0
M  V30 3675 H 346.904 -2.21739 3.2338 0
M  V30 3676 H 348.394 -3.10421 2.79336 0
M  V30 3677 N 348.832 -1.54138 -0.328536 0
M  V30 3678 C 349.762 -1.86167 -1.40939 0
M  V30 3679 C 350.743 -0.718044 -1.54202 0
M  V30 3680 O 351.928 -0.971328 -1.68163 0
M  V30 3681 C 349.058 -2.08461 -2.77779 0
M  V30 3682 C 348.012 -3.24299 -2.7931 0
M  V30 3683 C 347.338 -3.31955 -4.19178 0
M  V30 3684 C 348.638 -4.62065 -2.43502 0
M  V30 3685 H 350.332 -2.76689 -1.14383 0
M  V30 3686 H 347.878 -1.33132 -0.548806 0
M  V30 3687 H 349.831 -2.29453 -3.53454 0
M  V30 3688 H 348.555 -1.14684 -3.05802 0
M  V30 3689 H 347.214 -3.03187 -2.0609 0
M  V30 3690 H 346.862 -2.35745 -4.44335 0
M  V30 3691 H 346.562 -4.09805 -4.2111 0
M  V30 3692 H 348.086 -3.55175 -4.96672 0
M  V30 3693 H 349.5 -4.8297 -3.08889 0
M  V30 3694 H 347.897 -5.42429 -2.56693 0
M  V30 3695 H 348.967 -4.64652 -1.38659 0
M  V30 3696 N 350.31 0.590341 -1.46126 0
M  V30 3697 C 351.243 1.71434 -1.50617 0
M  V30 3698 C 352.221 1.58543 -0.360948 0
M  V30 3699 O 353.405 1.79865 -0.563985 0
M  V30 3700 C 350.532 3.09422 -1.37753 0
M  V30 3701 C 349.578 3.40854 -2.5636 0
M  V30 3702 S 350.411 3.33773 -4.18755 0
M  V30 3703 C 351.567 4.74312 -4.08386 0
M  V30 3704 H 351.8 1.67364 -2.45717 0
M  V30 3705 H 349.333 0.76845 -1.33919 0
M  V30 3706 H 351.291 3.8903 -1.31018 0
M  V30 3707 H 349.952 3.10989 -0.440949 0
M  V30 3708 H 349.145 4.41368 -2.43332 0
M  V30 3709 H 348.747 2.68798 -2.60046 0
M  V30 3710 H 351.039 5.64522 -3.74595 0
M  V30 3711 H 351.982 4.92397 -5.08872 0
M  V30 3712 H 352.39 4.50803 -3.3976 0
M  V30 3713 N 351.788 1.33704 0.83433 0
M  V30 3714 C 352.751 1.24244 1.92603 0
M  V30 3715 C 353.751 0.160383 1.59998 0
M  V30 3716 O 354.941 0.412228 1.69252 0
M  V30 3717 C 352.073 0.91555 3.28376 0
M  V30 3718 H 353.266 2.21287 2.02416 0
M  V30 3719 H 350.819 1.17827 1.02696 0
M  V30 3720 H 351.554 -0.0521886 3.24258 0
M  V30 3721 H 351.339 1.69811 3.53422 0
M  V30 3722 H 352.829 0.874231 4.08347 0
M  V30 3723 N 353.266 -1.05314 1.17247 0
M  V30 3724 C 354.198 -2.13023 0.845812 0
M  V30 3725 C 355.211 -1.62096 -0.151246 0
M  V30 3726 O 356.4 -1.78343 0.0748818 0
M  V30 3727 C 353.5 -3.38047 0.240292 0
M  V30 3728 C 352.673 -4.18255 1.27991 0
M  V30 3729 C 351.732 -5.21625 0.692375 0
M  V30 3730 O 350.758 -5.52619 1.36385 0
M  V30 3731 N 351.96 -5.78201 -0.516178 0
M  V30 3732 H 354.725 -2.41642 1.77283 0
M  V30 3733 H 352.286 -1.21401 1.07115 0
M  V30 3734 H 354.278 -4.04359 -0.16603 0
M  V30 3735 H 352.848 -3.06972 -0.590487 0
M  V30 3736 H 352.068 -3.47451 1.86203 0
M  V30 3737 H 353.356 -4.68643 1.98119 0
M  V30 3738 H 352.754 -5.55301 -1.07969 0
M  V30 3739 H 351.311 -6.4604 -0.86458 0
M  V30 3740 N 354.744 -0.972509 -1.24016 0
M  V30 3741 C 355.654 -0.5143 -2.28893 0
M  V30 3742 C 356.67 0.427078 -1.68677 0
M  V30 3743 O 357.846 0.298939 -1.99169 0
M  V30 3744 C 354.911 0.183598 -3.46214 0
M  V30 3745 C 353.972 -0.798202 -4.21814 0
M  V30 3746 C 353.205 -0.133514 -5.33533 0
M  V30 3747 O 353.428 1.07714 -5.60137 0
M  V30 3748 O 352.362 -0.828103 -5.96176 0
M  V30 3749 H 356.188 -1.38629 -2.70214 0
M  V30 3750 H 353.773 -0.739769 -1.29799 0
M  V30 3751 H 355.655 0.575433 -4.17453 0
M  V30 3752 H 354.33 1.03048 -3.0686 0
M  V30 3753 H 353.237 -1.24059 -3.52931 0
M  V30 3754 H 354.57 -1.61364 -4.64997 0
M  V30 3755 N 356.222 1.38976 -0.743202 0
M  V30 3756 C 357.152 2.33171 -0.123873 0
M  V30 3757 C 358.133 1.54336 0.71516 0
M  V30 3758 O 359.318 1.82696 0.658467 0
M  V30 3759 C 356.448 3.38474 0.777978 0
M  V30 3760 C 355.402 4.27979 0.0424758 0
M  V30 3761 C 354.728 5.2405 1.06189 0
M  V30 3762 C 356.028 5.10155 -1.1198 0
M  V30 3763 H 357.722 2.85213 -0.910709 0
M  V30 3764 H 355.268 1.37133 -0.439388 0
M  V30 3765 H 357.221 4.03328 1.22084 0
M  V30 3766 H 355.945 2.84891 1.59702 0
M  V30 3767 H 354.604 3.64616 -0.380853 0
M  V30 3768 H 354.252 4.66758 1.87472 0
M  V30 3769 H 353.952 5.84785 0.574485 0
M  V30 3770 H 355.476 5.9178 1.50428 0
M  V30 3771 H 356.89 5.68307 -0.75499 0
M  V30 3772 H 355.287 5.80073 -1.53738 0
M  V30 3773 H 356.357 4.44504 -1.93764 0
M  V30 3774 N 357.7 0.491464 1.49741 0
M  V30 3775 C 358.663 -0.280906 2.27472 0
M  V30 3776 C 359.663 -0.902454 1.33088 0
M  V30 3777 O 360.853 -0.768465 1.56334 0
M  V30 3778 C 357.985 -1.40209 3.10732 0
M  V30 3779 H 359.178 0.401056 2.97206 0
M  V30 3780 H 356.731 0.246131 1.5435 0
M  V30 3781 H 357.466 -2.11849 2.45541 0
M  V30 3782 H 357.251 -0.961969 3.80117 0
M  V30 3783 H 358.741 -1.9464 3.69466 0
M  V30 3784 N 359.178 -1.55987 0.224894 0
M  V30 3785 C 360.088 -2.24066 -0.69511 0
M  V30 3786 C 361.104 -1.24939 -1.21104 0
M  V30 3787 O 362.28 -1.5776 -1.25195 0
M  V30 3788 C 359.345 -2.90983 -1.88493 0
M  V30 3789 C 358.406 -4.05462 -1.41064 0
M  V30 3790 C 357.639 -4.69179 -2.54375 0
M  V30 3791 O 357.862 -4.31895 -3.72589 0
M  V30 3792 O 356.796 -5.58108 -2.25386 0
M  V30 3793 H 360.622 -3.03353 -0.145149 0
M  V30 3794 H 358.207 -1.49399 -0.00569476 0
M  V30 3795 H 360.089 -3.33209 -2.57972 0
M  V30 3796 H 358.764 -2.14653 -2.42293 0
M  V30 3797 H 357.671 -3.67798 -0.683774 0
M  V30 3798 H 359.004 -4.83545 -0.918985 0
M  V30 3799 N 360.656 0.0484629 -1.57525 0
M  V30 3800 C 361.604 1.07359 -2.06341 0
M  V30 3801 C 362.598 1.3865 -0.973269 0
M  V30 3802 O 363.804 1.37783 -1.15827 0
M  V30 3803 H 360.179 0.363662 -0.65822 0
M  V30 3804 H 362.15 0.635916 -2.91545 0
M  V30 3805 C 360.899 2.37198 -2.54229 0
M  V30 3806 H 360.222 2.13977 -3.37719 0
M  V30 3807 H 361.662 3.07319 -2.92115 0
M  V30 3808 C 360.121 3.04805 -1.43511 0
M  V30 3809 O 360.651 3.93848 -0.79034 0
M  V30 3810 N 358.857 2.65811 -1.17444 0
M  V30 3811 H 358.404 1.93488 -1.70059 0
M  V30 3812 H 358.362 3.11366 -0.435737 0
M  V30 3813 N 362.134 1.5431 0.320358 0
M  V30 3814 C 363.097 1.83195 1.3774 0
M  V30 3815 C 364.097 0.703906 1.44575 0
M  V30 3816 O 365.287 0.972214 1.44546 0
M  V30 3817 C 362.419 1.99487 2.76438 0
M  V30 3818 H 363.612 2.77642 1.1338 0
M  V30 3819 H 361.165 1.46076 0.556012 0
M  V30 3820 H 361.9 1.07262 3.06048 0
M  V30 3821 H 361.685 2.81575 2.7287 0
M  V30 3822 H 363.175 2.23271 3.52902 0
M  V30 3823 O 363.651 -0.466303 1.54622 0
M  V30 3824 H 364.342 -1.12058 1.57996 0
M  V30 END ATOM
M  V30 BEGIN BOND
M  V30 END BOND
M  V30 END CTAB
M  END
$$$$
